data_POSCAR
  _audit_creation_date              2014-09-24
  _audit_creation_method            'ToBaCCo'
  _symmetry_space_group_name_H-M    'P1'
  _symmetry_Int_Tables_number       1
  _symmetry_cell_setting            triclinic
  loop_
  _symmetry_equiv_pos_as_xyz
 x,y,z
_cell_length_a 42.5743
_cell_length_b 41.9718
_cell_length_c 44.7899
_cell_angle_alpha 90.043200
_cell_angle_beta 89.945800
_cell_angle_gamma 119.482800
loop_
  _atom_site_label
  _atom_site_type_symbol
  _atom_site_fract_x
  _atom_site_fract_y
  _atom_site_fract_z
C1 C 0.00002 0.49959 1.33099
 C2 C 0.03233 0.51127 1.31549
 C3 C 0.03229 0.51006 1.28422
 C4 C 0.00013 0.49906 1.26785
 C5 C -0.03209 0.48835 1.28411
 C6 C -0.03223 0.48765 1.31539
 C7 C 0.00017 0.49875 1.23421
 C8 C -0.03203 0.47745 1.21791
 C9 C -0.03205 0.47805 1.18665
 C10 C 0.00023 0.49821 1.17109
 C11 C 0.03248 0.51863 1.18659
 C12 C 0.03241 0.51976 1.21784
 H13 H -0.00002 0.49978 1.35524
 H14 H 0.05751 0.51757 1.27306
 H15 H -0.05727 0.48064 1.27285
 H16 H -0.05732 0.46008 1.22906
 H17 H 0.00024 0.49802 1.14686
 H18 H 0.05767 0.53734 1.22893
 C19 C 0.50046 0.50063 1.32362
 C20 C 0.47988 0.51270 1.30811
 C21 C 0.47947 0.51227 1.27682
 C22 C 0.50131 0.50159 1.26050
 C23 C 0.52272 0.49043 1.27684
 C24 C 0.52146 0.48904 1.30811
 C25 C 0.50176 0.50209 1.22685
 C26 C 0.51367 0.48119 1.21041
 C27 C 0.51497 0.48247 1.17916
 C28 C 0.50253 0.50295 1.16370
 C29 C 0.48972 0.52301 1.17936
 C30 C 0.49026 0.52344 1.21063
 H31 H 0.50014 0.50028 1.34788
 H32 H 0.46184 0.52011 1.26562
 H33 H 0.54067 0.48294 1.26568
 H34 H 0.52185 0.46357 1.22145
 H35 H 0.50280 0.50326 1.13948
 H36 H 0.48176 0.54072 1.22185
 C37 C 0.49977 1.00045 1.33786
 C38 C 0.48655 0.96756 1.32223
 C39 C 0.48710 0.96759 1.29099
 C40 C 0.49903 1.00045 1.27475
 C41 C 0.51134 1.03333 1.29108
 C42 C 0.51264 1.03339 1.32233
 C43 C 0.49863 1.00042 1.24117
 C44 C 0.52084 1.03268 1.22479
 C45 C 0.51967 1.03271 1.19357
 C46 C 0.49792 1.00037 1.17814
 C47 C 0.47653 0.96805 1.19372
 C48 C 0.47605 0.96813 1.22496
 H49 H 0.49999 1.00034 1.36210
 H50 H 0.47828 0.94177 1.27977
 H51 H 0.51983 1.05911 1.27986
 H52 H 0.53934 1.05793 1.23585
 H53 H 0.49767 1.00034 1.15391
 H54 H 0.45784 0.94289 1.23616
 C55 C 1.00034 0.50073 0.66931
 C56 C 0.96804 0.48846 0.68488
 C57 C 0.96813 0.48979 0.71611
 C58 C 1.00045 0.50153 0.73245
 C59 C 1.03274 0.51287 0.71611
 C60 C 1.03273 0.51343 0.68482
 C61 C 1.00048 0.50195 0.76609
 C62 C 1.03269 0.52334 0.78236
 C63 C 1.03275 0.52280 0.81361
 C64 C 1.00051 0.50269 0.82922
 C65 C 0.96826 0.48221 0.81375
 C66 C 0.96828 0.48095 0.78252
 H67 H 1.00019 0.50039 0.64507
 H68 H 0.94276 0.48176 0.72718
 H69 H 1.05809 0.52116 0.72727
 H70 H 1.05797 0.54072 0.77122
 H71 H 1.00053 0.50295 0.85345
 H72 H 0.94300 0.46329 0.77152
 C73 C 0.49884 0.49866 0.67734
 C74 C 0.52047 0.48795 0.69285
 C75 C 0.52098 0.48850 0.72410
 C76 C 0.49829 0.49805 0.74036
 C77 C 0.47588 0.50792 0.72407
 C78 C 0.47694 0.50907 0.69284
 C79 C 0.49801 0.49775 0.77392
 C80 C 0.48613 0.51869 0.79026
 C81 C 0.48504 0.51763 0.82150
 C82 C 0.49757 0.49726 0.83701
 C83 C 0.51032 0.47714 0.82137
 C84 C 0.50967 0.47655 0.79012
 H85 H 0.49905 0.49889 0.65311
 H86 H 0.53932 0.48161 0.73529
 H87 H 0.45734 0.51459 0.73525
 H88 H 0.47781 0.53614 0.77911
 H89 H 0.49743 0.49710 0.86123
 H90 H 0.51818 0.45931 0.77884
 C91 C 0.49983 -0.00125 0.66238
 C92 C 0.51249 0.03163 0.67798
 C93 C 0.51208 0.03160 0.70924
 C94 C 0.50081 -0.00114 0.72553
 C95 C 0.48903 -0.03397 0.70920
 C96 C 0.48763 -0.03412 0.67792
 C97 C 0.50137 -0.00104 0.75916
 C98 C 0.47968 -0.03340 0.77564
 C99 C 0.48098 -0.03333 0.80692
 C100 C 0.50240 -0.00074 0.82225
 C101 C 0.52328 0.03165 0.80658
 C102 C 0.52358 0.03145 0.77532
 H103 H 0.49952 -0.00118 0.63815
 H104 H 0.52046 0.05735 0.72046
 H105 H 0.48105 -0.05963 0.72044
 H106 H 0.46148 -0.05877 0.76456
 H107 H 0.50283 -0.00051 0.84649
 H108 H 0.54140 0.05678 0.76403
 O109 O 0.38656 0.66663 0.97559
 O110 O 0.38313 0.72623 0.96598
 C111 C 0.36547 0.74252 0.96048
 O112 O 0.33751 0.73690 0.97488
 O113 O 0.27924 0.67443 0.96533
 C114 C 0.26313 0.64038 0.96031
 O115 O 0.26904 0.61787 0.97485
 O116 O 0.33116 0.62059 0.96603
 C117 C 0.36483 0.63809 0.96126
 O118 O 0.38431 0.67660 1.03474
 O119 O 0.38371 0.73778 1.02534
 C120 C 0.36045 0.74228 1.03970
 O121 O 0.32702 0.72495 1.03416
 O122 O 0.26715 0.66407 1.02449
 C123 C 0.26259 0.63622 1.03913
 O124 O 0.28018 0.61968 1.03427
 O125 O 0.34087 0.61940 1.02533
 C126 C 0.36855 0.64250 1.03962
 Cr127 Cr 0.38240 0.70079 1.00039
 Cr128 Cr 0.30381 0.69910 0.99973
 Cr129 Cr 0.30625 0.62143 1.00012
 O130 O 0.33083 0.67376 1.00009
 O131 O 0.61635 0.32416 0.96546
 O132 O 0.61690 0.26293 0.97469
 C133 C 0.64007 0.25844 0.96017
 O134 O 0.67355 0.27591 0.96555
 O135 O 0.73341 0.33682 0.97524
 C136 C 0.73800 0.36483 0.96086
 O137 O 0.72047 0.38139 0.96597
 O138 O 0.65969 0.38138 0.97505
 C139 C 0.63209 0.35828 0.96068
 O140 O 0.61406 0.33400 1.02461
 O141 O 0.61774 0.27450 1.03405
 C142 C 0.63549 0.25827 1.03940
 O143 O 0.66333 0.26386 1.02484
 O144 O 0.72167 0.32625 1.03440
 C145 C 0.73766 0.36026 1.03965
 O146 O 0.73159 0.38282 1.02537
 O147 O 0.66941 0.37995 1.03435
 C148 C 0.63573 0.36248 1.03904
 Cr149 Cr 0.61829 0.29992 0.99972
 Cr150 Cr 0.69691 0.30169 1.00000
 Cr151 Cr 0.69435 0.37934 1.00017
 O152 O 0.66986 0.32701 0.99996
 O153 O 0.67301 0.39685 0.53352
 O154 O 0.73289 0.39577 0.52380
 C155 C 0.73748 0.37245 0.53836
 O156 O 0.71997 0.33835 0.53341
 O157 O 0.65933 0.27746 0.52436
 C158 C 0.63163 0.27281 0.53871
 O159 O 0.61586 0.29119 0.53397
 O160 O 0.61636 0.35296 0.52476
 C161 C 0.63956 0.38072 0.53910
 O162 O 0.66266 0.39847 0.47426
 O163 O 0.72104 0.39434 0.46464
 C164 C 0.73723 0.37644 0.45960
 O165 O 0.73122 0.34793 0.47402
 O166 O 0.66910 0.28863 0.46508
 C167 C 0.63542 0.27251 0.46037
 O168 O 0.61368 0.27928 0.47478
 O169 O 0.61698 0.34228 0.46537
 C170 C 0.63466 0.37622 0.45991
 Cr171 Cr 0.69631 0.39429 0.49907
 Cr172 Cr 0.69396 0.31420 0.49923
 Cr173 Cr 0.61775 0.31744 0.49970
 O174 O 0.66933 0.34195 0.49934
 O175 O 0.32610 0.60229 0.53411
 O176 O 0.26628 0.60347 0.52447
 C177 C 0.26170 0.62679 0.53909
 O178 O 0.27925 0.66089 0.53422
 O179 O 0.33995 0.72178 0.52526
 C180 C 0.36760 0.72636 0.53960
 O181 O 0.38333 0.70793 0.53481
 O182 O 0.38279 0.64615 0.52542
 C183 C 0.35954 0.61836 0.53969
 O184 O 0.33658 0.60082 0.47483
 O185 O 0.27826 0.60505 0.46530
 C186 C 0.26211 0.62298 0.46031
 O187 O 0.26810 0.65145 0.47482
 O188 O 0.33027 0.71072 0.46597
 C189 C 0.36395 0.72683 0.46126
 O190 O 0.38565 0.72003 0.47565
 O191 O 0.38230 0.65702 0.46607
 C192 C 0.36461 0.62310 0.46052
 Cr193 Cr 0.30289 0.60498 0.49970
 Cr194 Cr 0.30533 0.68510 0.50007
 Cr195 Cr 0.38148 0.68178 0.50046
 O196 O 0.32991 0.65730 0.50009
 C197 C 0.43072 0.55354 0.35990
 C198 C 0.44419 0.59446 0.35504
 C199 C 0.43006 0.60885 0.37472
 C200 C 0.40387 0.58089 0.39732
 C201 C 0.42533 0.56476 0.41228
 C202 C 0.43942 0.55041 0.39265
 C203 C 0.38941 0.53519 0.35858
 C204 C 0.37527 0.54959 0.37829
 C205 C 0.44664 0.53817 0.33934
 C206 C 0.46140 0.52593 0.32390
 C207 C 0.38911 0.59631 0.41896
 C208 C 0.37767 0.60875 0.43757
 H209 H 0.46305 0.61068 0.33762
 H210 H 0.43684 0.63739 0.37417
 H211 H 0.42912 0.56460 0.43624
 H212 H 0.45526 0.53795 0.39981
 H213 H 0.37277 0.51295 0.34350
 H214 H 0.34649 0.53967 0.38009
 C215 C 0.44030 0.87225 0.37083
 C216 C 0.45623 0.84673 0.36665
 C217 C 0.44005 0.81602 0.38394
 C218 C 0.40957 0.81393 0.40367
 C219 C 0.38358 0.81753 0.38202
 C220 C 0.39974 0.84821 0.36474
 C221 C 0.44306 0.88029 0.40443
 C222 C 0.42693 0.84968 0.42167
 C223 C 0.45755 0.90559 0.35266
 C224 C 0.47120 0.93360 0.33845
 C225 C 0.39236 0.78140 0.42279
 C226 C 0.37888 0.75578 0.43970
 H227 H 0.47820 0.85224 0.35144
 H228 H 0.44816 0.79522 0.38354
 H229 H 0.35505 0.79772 0.38034
 H230 H 0.38504 0.85468 0.34826
 H231 H 0.45655 0.90767 0.41387
 H232 H 0.42660 0.85085 0.44588
 C233 C 0.12292 0.55316 0.36518
 C234 C 0.14538 0.53370 0.36351
 C235 C 0.17470 0.54848 0.38192
 C236 C 0.17863 0.58126 0.40016
 C237 C 0.14260 0.56697 0.41668
 C238 C 0.11336 0.55223 0.39833
 C239 C 0.14969 0.59355 0.35855
 C240 C 0.17899 0.60833 0.37695
 C241 C 0.09094 0.53736 0.34589
 C242 C 0.06379 0.52479 0.33110
 C243 C 0.20970 0.59698 0.42045
 C244 C 0.23422 0.60930 0.43813
 H245 H 0.13889 0.51044 0.34912
 H246 H 0.19333 0.53788 0.38329
 H247 H 0.14024 0.56831 0.44073
 H248 H 0.08598 0.54094 0.40667
 H249 H 0.14599 0.60913 0.34092
 H250 H 0.20040 0.63656 0.37508
 C251 C 0.56963 0.44707 0.35970
 C252 C 0.56036 0.44954 0.39244
 C253 C 0.57415 0.43484 0.41198
 C254 C 0.59591 0.41906 0.39695
 C255 C 0.62480 0.45075 0.37841
 C256 C 0.61096 0.46550 0.35880
 C257 C 0.55630 0.40625 0.35432
 C258 C 0.57013 0.39152 0.37391
 C259 C 0.55405 0.46283 0.33924
 C260 C 0.53960 0.47542 0.32386
 C261 C 0.61039 0.40329 0.41849
 C262 C 0.62168 0.39067 0.43703
 H263 H 0.54436 0.46182 0.39966
 H264 H 0.56996 0.43453 0.43592
 H265 H 0.65355 0.46066 0.38046
 H266 H 0.62783 0.48803 0.34405
 H267 H 0.53774 0.39036 0.33663
 H268 H 0.56340 0.36300 0.37302
 C269 C 0.55868 0.12697 0.37003
 C270 C 0.55603 0.11901 0.40363
 C271 C 0.57229 0.14966 0.42083
 C272 C 0.58967 0.18537 0.40279
 C273 C 0.55915 0.18331 0.38318
 C274 C 0.54284 0.15257 0.36594
 C275 C 0.59922 0.15090 0.36379
 C276 C 0.61552 0.18162 0.38102
 C277 C 0.54126 0.09359 0.35190
 C278 C 0.52745 0.06554 0.33772
 C279 C 0.60700 0.21794 0.42187
 C280 C 0.62053 0.24357 0.43878
 H281 H 0.54251 0.09166 0.41311
 H282 H 0.57272 0.14855 0.44504
 H283 H 0.55112 0.20417 0.38283
 H284 H 0.52082 0.14708 0.35081
 H285 H 0.61381 0.14433 0.34724
 H286 H 0.64407 0.20137 0.37925
 C287 C 0.87692 0.44615 0.36482
 C288 C 0.85477 0.46597 0.36328
 C289 C 0.82534 0.45126 0.38159
 C290 C 0.82099 0.41820 0.39962
 C291 C 0.85688 0.43204 0.41623
 C292 C 0.88623 0.44671 0.39797
 C293 C 0.84992 0.40590 0.35794
 C294 C 0.82050 0.39120 0.37625
 C295 C 0.90901 0.46186 0.34563
 C296 C 0.93624 0.47431 0.33092
 C297 C 0.78980 0.40253 0.41982
 C298 C 0.76520 0.39020 0.43745
 H299 H 0.86156 0.48940 0.34904
 H300 H 0.80690 0.46209 0.38304
 H301 H 0.85907 0.43046 0.44028
 H302 H 0.91354 0.45770 0.40638
 H303 H 0.85354 0.39035 0.34021
 H304 H 0.79893 0.36306 0.37420
 C305 C 0.56044 0.43271 1.13002
 C306 C 0.60106 0.44907 1.13571
 C307 C 0.61689 0.43428 1.11828
 C308 C 0.59055 0.40457 1.09687
 C309 C 0.57303 0.42293 1.07905
 C310 C 0.55723 0.43770 1.09644
 C311 C 0.54445 0.39130 1.13436
 C312 C 0.56029 0.37649 1.11692
 C313 C 0.54352 0.44912 1.14840
 C314 C 0.53012 0.46368 1.16277
 C315 C 0.60745 0.38893 1.07760
 C316 C 0.62080 0.37661 1.06063
 H317 H 0.61606 0.47035 1.15204
 H318 H 0.64543 0.44288 1.11968
 H319 H 0.57301 0.42421 1.05483
 H320 H 0.54369 0.45161 1.08712
 H321 H 0.52268 0.37507 1.14979
 H322 H 0.55208 0.34757 1.11742
 C323 C 0.87594 0.42867 1.13569
 C324 C 0.88594 0.43642 1.10254
 C325 C 0.85691 0.42213 1.08397
 C326 C 0.82062 0.40144 1.10029
 C327 C 0.82068 0.42899 1.12289
 C328 C 0.84978 0.44331 1.14150
 C329 C 0.85271 0.38688 1.13787
 C330 C 0.82359 0.37255 1.11925
 C331 C 0.90771 0.44463 1.15521
 C332 C 0.93473 0.45908 1.17015
 C333 C 0.78977 0.38632 1.07978
 C334 C 0.76542 0.37430 1.06195
 H335 H 0.91346 0.45178 1.09435
 H336 H 0.85958 0.42527 1.05988
 H337 H 0.79970 0.43651 1.12420
 H338 H 0.85372 0.46311 1.15877
 H339 H 0.85856 0.37007 1.15275
 H340 H 0.80449 0.34344 1.11817
 C341 C 0.57027 0.12376 1.14056
 C342 C 0.55743 0.15169 1.14571
 C343 C 0.57145 0.17998 1.12588
 C344 C 0.59691 0.17751 1.10288
 C345 C 0.57473 0.13989 1.08816
 C346 C 0.56074 0.11167 1.10794
 C347 C 0.61163 0.14617 1.14129
 C348 C 0.62567 0.17449 1.12143
 C349 C 0.55442 0.09275 1.16126
 C350 C 0.53958 0.06599 1.17684
 C351 C 0.61150 0.20742 1.08111
 C352 C 0.62273 0.23109 1.06241
 H353 H 0.53905 0.14951 1.16343
 H354 H 0.56508 0.20203 1.12659
 H355 H 0.57041 0.13575 1.06425
 H356 H 0.54444 0.08336 1.10096
 H357 H 0.62837 0.14037 1.15609
 H358 H 0.65447 0.19298 1.11921
 C359 C 0.44461 0.57322 1.13051
 C360 C 0.40438 0.55818 1.13729
 C361 C 0.38854 0.57296 1.11991
 C362 C 0.41448 0.60134 1.09744
 C363 C 0.43042 0.58138 1.07964
 C364 C 0.44622 0.56663 1.09699
 C365 C 0.46178 0.61491 1.13376
 C366 C 0.44593 0.62971 1.11636
 C367 C 0.46149 0.55678 1.14883
 C368 C 0.47478 0.54207 1.16312
 C369 C 0.39750 0.61688 1.07820
 C370 C 0.38394 0.62893 1.06123
 H371 H 0.38965 0.53777 1.15430
 H372 H 0.36026 0.56522 1.12202
 H373 H 0.42940 0.57905 1.05547
 H374 H 0.45873 0.55169 1.08768
 H375 H 0.48433 0.63134 1.14844
 H376 H 0.45491 0.65881 1.11614
 C377 C 0.12445 0.56765 1.13547
 C378 C 0.11540 0.57279 1.10330
 C379 C 0.14440 0.58703 1.08466
 C380 C 0.17972 0.59479 1.09995
 C381 C 0.17168 0.55824 1.11407
 C382 C 0.14263 0.54397 1.13274
 C383 C 0.15468 0.60554 1.14513
 C384 C 0.18378 0.61983 1.12643
 C385 C 0.09271 0.55177 1.15506
 C386 C 0.06570 0.53743 1.17005
 C387 C 0.21053 0.60989 1.07936
 C388 C 0.23486 0.62199 1.06148
 H389 H 0.08853 0.56588 1.09582
 H390 H 0.14236 0.59231 1.06121
 H391 H 0.18746 0.54479 1.10984
 H392 H 0.13354 0.51830 1.14451
 H393 H 0.15338 0.61983 1.16489
 H394 H 0.20741 0.64637 1.13018
 C395 C 0.42548 0.87686 1.14088
 C396 C 0.38410 0.85468 1.14151
 C397 C 0.37000 0.82633 1.12166
 C398 C 0.39873 0.82307 1.10321
 C399 C 0.42397 0.82043 1.12630
 C400 C 0.43804 0.84874 1.14612
 C401 C 0.43521 0.88888 1.10826
 C402 C 0.42117 0.86064 1.08849
 C403 C 0.44142 0.90791 1.16156
 C404 C 0.45640 0.93471 1.17709
 C405 C 0.38412 0.79313 1.08144
 C406 C 0.37298 0.76946 1.06273
 H407 H 0.36739 0.86064 1.15624
 H408 H 0.34119 0.80799 1.11938
 H409 H 0.43015 0.79825 1.12707
 H410 H 0.45629 0.85082 1.16389
 H411 H 0.45169 0.91716 1.10128
 H412 H 0.42562 0.86472 1.06459
 C413 C 0.57272 0.44894 0.64003
 C414 C 0.56084 0.40844 0.64537
 C415 C 0.57541 0.39459 0.62563
 C416 C 0.60039 0.42260 0.60250
 C417 C 0.62871 0.45487 0.62091
 C418 C 0.61412 0.46874 0.64069
 C419 C 0.56292 0.45093 0.60738
 C420 C 0.57745 0.43711 0.58769
 C421 C 0.55626 0.46363 0.66065
 C422 C 0.54093 0.47512 0.67617
 C423 C 0.61548 0.40763 0.58081
 C424 C 0.62690 0.39529 0.56213
 H425 H 0.54270 0.39213 0.66315
 H426 H 0.56973 0.36639 0.62648
 H427 H 0.65760 0.46578 0.61866
 H428 H 0.63050 0.49154 0.65539
 H429 H 0.54606 0.46227 0.60033
 H430 H 0.57302 0.43660 0.56378
 C431 C 0.55663 0.12697 0.62916
 C432 C 0.55504 0.11898 0.59560
 C433 C 0.57054 0.14962 0.57834
 C434 C 0.58618 0.18539 0.59626
 C435 C 0.61234 0.18311 0.61858
 C436 C 0.59681 0.15241 0.63587
 C437 C 0.53907 0.15114 0.63263
 C438 C 0.55461 0.18187 0.61532
 C439 C 0.54009 0.09357 0.64741
 C440 C 0.52709 0.06557 0.66168
 C441 C 0.60287 0.21801 0.57711
 C442 C 0.61628 0.24373 0.56023
 H443 H 0.54276 0.09161 0.58620
 H444 H 0.57153 0.14846 0.55416
 H445 H 0.64054 0.20381 0.62067
 H446 H 0.61173 0.14684 0.65277
 H447 H 0.51648 0.14473 0.64739
 H448 H 0.54533 0.20178 0.61526
 C449 C 0.87582 0.44373 0.63417
 C450 C 0.88576 0.44631 0.60098
 C451 C 0.85666 0.43100 0.58250
 C452 C 0.82039 0.41457 0.59895
 C453 C 0.82257 0.44601 0.61805
 C454 C 0.85174 0.46136 0.63659
 C455 C 0.85049 0.40278 0.63993
 C456 C 0.82133 0.38744 0.62139
 C457 C 0.90765 0.46020 0.65358
 C458 C 0.93474 0.47341 0.66845
 C459 C 0.78950 0.39836 0.57851
 C460 C 0.76516 0.38592 0.56069
 H461 H 0.91328 0.45907 0.59271
 H462 H 0.85928 0.43065 0.55840
 H463 H 0.80290 0.45534 0.61714
 H464 H 0.85708 0.48383 0.65156
 H465 H 0.85503 0.38724 0.65709
 H466 H 0.80088 0.35876 0.62266
 C467 C 0.42546 0.54896 0.64019
 C468 C 0.43530 0.54705 0.60752
 C469 C 0.42102 0.56117 0.58791
 C470 C 0.39824 0.57585 0.60282
 C471 C 0.42329 0.60364 0.62605
 C472 C 0.43761 0.58950 0.64571
 C473 C 0.38406 0.52943 0.64080
 C474 C 0.36972 0.54360 0.62112
 C475 C 0.44165 0.53396 0.66072
 C476 C 0.45675 0.52220 0.67620
 C477 C 0.38339 0.59111 0.58122
 C478 C 0.37210 0.60364 0.56263
 H479 H 0.45203 0.53556 0.60039
 H480 H 0.42551 0.56177 0.56400
 H481 H 0.42917 0.63190 0.62703
 H482 H 0.45576 0.60563 0.66354
 H483 H 0.36751 0.50660 0.65542
 H484 H 0.34086 0.53290 0.61886
 C485 C 0.44339 0.87224 0.63003
 C486 C 0.44426 0.88018 0.59653
 C487 C 0.42854 0.84953 0.57928
 C488 C 0.41342 0.81379 0.59716
 C489 C 0.38763 0.81593 0.62001
 C490 C 0.40338 0.84665 0.63729
 C491 C 0.46120 0.84824 0.63292
 C492 C 0.44544 0.81749 0.61563
 C493 C 0.46019 0.90566 0.64826
 C494 C 0.47344 0.93371 0.66249
 C495 C 0.39652 0.78114 0.57802
 C496 C 0.38300 0.75543 0.56114
 H497 H 0.45622 0.90754 0.58714
 H498 H 0.42705 0.85065 0.55513
 H499 H 0.35951 0.79512 0.62246
 H500 H 0.38874 0.85214 0.65454
 H501 H 0.48411 0.85478 0.64730
 H502 H 0.45485 0.79770 0.61520
 C503 C 0.12321 0.55641 0.63493
 C504 C 0.11395 0.56048 0.60256
 C505 C 0.14306 0.57551 0.58407
 C506 C 0.17868 0.58505 0.59969
 C507 C 0.17207 0.54919 0.61435
 C508 C 0.14288 0.53412 0.63290
 C509 C 0.15229 0.59501 0.64431
 C510 C 0.18149 0.61008 0.62576
 C511 C 0.09135 0.54026 0.65436
 C512 C 0.06422 0.52736 0.66921
 C513 C 0.20960 0.60100 0.57924
 C514 C 0.23397 0.61333 0.56142
 H515 H 0.08684 0.55225 0.59483
 H516 H 0.14089 0.58016 0.56050
 H517 H 0.18889 0.53679 0.61055
 H518 H 0.13467 0.50882 0.64499
 H519 H 0.15017 0.60920 0.66383
 H520 H 0.20438 0.63718 0.62937
 C521 C 0.43980 0.56761 0.87045
 C522 C 0.45614 0.60909 0.86629
 C523 C 0.44035 0.62397 0.88369
 C524 C 0.40979 0.59588 0.90350
 C525 C 0.42689 0.57714 0.92137
 C526 C 0.44264 0.56230 0.90402
 C527 C 0.39927 0.55159 0.86450
 C528 C 0.38349 0.56646 0.88188
 C529 C 0.45665 0.55114 0.85214
 C530 C 0.46999 0.53651 0.83783
 C531 C 0.39295 0.61157 0.92272
 C532 C 0.37967 0.62392 0.93968
 H533 H 0.47811 0.62531 0.85103
 H534 H 0.44878 0.65295 0.88333
 H535 H 0.42666 0.57566 0.94558
 H536 H 0.45591 0.54813 0.91336
 H537 H 0.38431 0.53049 0.84803
 H538 H 0.35502 0.55810 0.88032
 C539 C 0.12484 0.57207 0.86440
 C540 C 0.14394 0.61395 0.86676
 C541 C 0.17308 0.62821 0.88534
 C542 C 0.18021 0.59916 0.89971
 C543 C 0.18351 0.57749 0.87343
 C544 C 0.15437 0.56323 0.85485
 C545 C 0.11563 0.55832 0.89668
 C546 C 0.14469 0.57254 0.91521
 C547 C 0.09304 0.55618 0.84494
 C548 C 0.06599 0.54177 0.83005
 C549 C 0.21106 0.61423 0.92019
 C550 C 0.23541 0.62625 0.93801
 H551 H 0.13539 0.63090 0.85484
 H552 H 0.18951 0.65740 0.88934
 H553 H 0.20669 0.57375 0.86971
 H554 H 0.15259 0.54727 0.83519
 H555 H 0.08859 0.53907 0.90433
 H556 H 0.14254 0.56546 0.93873
 C557 C 0.43165 0.87726 0.85921
 C558 C 0.39381 0.84662 0.85064
 C559 C 0.37962 0.81829 0.87052
 C560 C 0.40470 0.82348 0.89695
 C561 C 0.41345 0.86042 0.91072
 C562 C 0.42759 0.88864 0.89092
 C563 C 0.45432 0.85822 0.86286
 C564 C 0.44016 0.82996 0.88269
 C565 C 0.44763 0.90831 0.83846
 C566 C 0.46244 0.93513 0.82287
 C567 C 0.38990 0.79352 0.91875
 C568 C 0.37847 0.76980 0.93746
 H569 H 0.37949 0.84710 0.83077
 H570 H 0.35311 0.79449 0.86767
 H571 H 0.40887 0.86408 0.93402
 H572 H 0.43512 0.91648 0.89726
 H573 H 0.47927 0.86617 0.85085
 H574 H 0.45297 0.81372 0.88767
 C575 C 0.55570 0.42723 0.87006
 C576 C 0.53828 0.38548 0.86713
 C577 C 0.55425 0.37078 0.88448
 C578 C 0.58604 0.39929 0.90300
 C579 C 0.57053 0.41962 0.92085
 C580 C 0.55461 0.43428 0.90355
 C581 C 0.59579 0.44200 0.86289
 C582 C 0.61175 0.42731 0.88022
 C583 C 0.53871 0.44356 0.85182
 C584 C 0.52533 0.45818 0.83759
 C585 C 0.60312 0.38385 0.92218
 C586 C 0.61672 0.37185 0.93911
 H587 H 0.51548 0.36897 0.85270
 H588 H 0.54514 0.34165 0.88490
 H589 H 0.57192 0.42225 0.94500
 H590 H 0.54235 0.44946 0.91289
 H591 H 0.61034 0.46216 0.84567
 H592 H 0.63996 0.43487 0.87785
 C593 C 0.87623 0.43341 0.86475
 C594 C 0.85226 0.45103 0.86111
 C595 C 0.82313 0.43682 0.87972
 C596 C 0.82087 0.40640 0.90013
 C597 C 0.85717 0.42354 0.91655
 C598 C 0.88623 0.43772 0.89798
 C599 C 0.85080 0.39225 0.86029
 C600 C 0.82165 0.37802 0.87891
 C601 C 0.90802 0.44922 0.84525
 C602 C 0.93505 0.46349 0.83030
 C603 C 0.79001 0.39134 0.92064
 C604 C 0.76568 0.37920 0.93850
 H605 H 0.85763 0.47269 0.84526
 H606 H 0.80356 0.44630 0.87983
 H607 H 0.85983 0.42445 0.94069
 H608 H 0.91377 0.45076 0.90622
 H609 H 0.85523 0.37576 0.84394
 H610 H 0.80110 0.34933 0.87851
 C611 C 0.57419 0.12320 0.85929
 C612 C 0.56456 0.11138 0.89196
 C613 C 0.57875 0.13972 0.91165
 C614 C 0.60124 0.17722 0.89683
 C615 C 0.57595 0.17982 0.87375
 C616 C 0.56173 0.15141 0.85401
 C617 C 0.61557 0.14530 0.85858
 C618 C 0.62982 0.17374 0.87834
 C619 C 0.55812 0.09203 0.83866
 C620 C 0.54321 0.06514 0.82316
 C621 C 0.61605 0.20732 0.91853
 C622 C 0.62737 0.23112 0.93718
 H623 H 0.54803 0.08314 0.89903
 H624 H 0.57437 0.13574 0.93557
 H625 H 0.56984 0.20205 0.87293
 H626 H 0.54344 0.14931 0.83627
 H627 H 0.63219 0.13921 0.84384
 H628 H 0.65865 0.19203 0.88053
   
