data_POSCAR
  _audit_creation_date              2014-09-24
  _audit_creation_method            'ToBaCCo'
  _symmetry_space_group_name_H-M    'P1'
  _symmetry_Int_Tables_number       1
  _symmetry_cell_setting            triclinic
  loop_
  _symmetry_equiv_pos_as_xyz
 x,y,z
_cell_length_a 28.3018
_cell_length_b 28.1401
_cell_length_c 28.2698
_cell_angle_alpha 90.170800
_cell_angle_beta 90.196300
_cell_angle_gamma 89.843800
loop_
  _atom_site_label
  _atom_site_type_symbol
  _atom_site_fract_x
  _atom_site_fract_y
  _atom_site_fract_z
C1 C 0.52072 0.99014 -0.50238
 C2 C 0.47268 0.98989 -0.50319
 C3 C 0.44527 0.98933 -0.54809
 C4 C 0.44412 0.99078 -0.45920
 C5 C 0.54807 0.99084 -0.45744
 C6 C 0.54934 0.99023 -0.54634
 C7 C 0.44867 1.02656 -0.58092
 C8 C 0.41854 1.02795 -0.62034
 C9 C 0.38473 0.99214 -0.62718
 C10 C 0.38201 0.95449 -0.59500
 C11 C 0.41196 0.95321 -0.55569
 C12 C 0.41040 1.02694 -0.45298
 C13 C 0.38017 1.02648 -0.41409
 C14 C 0.38301 0.98971 -0.38101
 C15 C 0.41697 0.95376 -0.38654
 C16 C 0.44741 0.95424 -0.42553
 C17 C 0.58181 0.95513 -0.44914
 C18 C 0.61132 0.95735 -0.40954
 C19 C 0.60772 0.99545 -0.37784
 C20 C 0.57366 1.03091 -0.38541
 C21 C 0.54394 1.02867 -0.42511
 C22 C 0.54668 0.95287 -0.57937
 C23 C 0.57738 0.95165 -0.61817
 C24 C 0.61095 0.98768 -0.62413
 C25 C 0.61312 1.02526 -0.59171
 C26 C 0.58265 1.02646 -0.55302
 H27 H 0.47351 1.05523 -0.57519
 H28 H 0.42094 1.05753 -0.64470
 H29 H 0.35600 0.92659 -0.59957
 H30 H 0.40856 0.92444 -0.53055
 H31 H 0.40710 1.05523 -0.47870
 H32 H 0.35396 1.05436 -0.41030
 H33 H 0.47259 0.92557 -0.43015
 H34 H 0.58580 0.92592 -0.47386
 H35 H 0.63765 0.92984 -0.40417
 H36 H 0.57080 1.06074 -0.36128
 H37 H 0.51878 1.05704 -0.43137
 H38 H 0.52183 0.92414 -0.57438
 H39 H 0.57556 0.92226 -0.64293
 H40 H 0.63898 1.05325 -0.59587
 H41 H 0.58548 1.05538 -0.52779
 H42 H 0.41927 0.92495 -0.36130
 C43 C -0.50317 1.52693 0.00397
 C44 C -0.50195 1.47874 0.00357
 C45 C -0.54555 1.44970 0.00372
 C46 C -0.45689 1.45184 0.00289
 C47 C -0.45954 1.55590 0.00416
 C48 C -0.54817 1.55394 0.00407
 C49 C -0.57816 1.45274 0.04100
 C50 C -0.61685 1.42190 0.04241
 C51 C -0.62299 1.38784 0.00669
 C52 C -0.59097 1.38524 -0.03080
 C53 C -0.55241 1.41590 -0.03222
 C54 C -0.44788 1.41850 0.03863
 C55 C -0.40770 1.38980 0.03673
 C56 C -0.37624 1.39388 -0.00107
 C57 C -0.38457 1.42750 -0.03660
 C58 C -0.42484 1.45641 -0.03468
 C59 C -0.45290 1.58963 -0.03165
 C60 C -0.41414 1.62006 -0.03026
 C61 C -0.38173 1.61733 0.00708
 C62 C -0.38772 1.58340 0.04271
 C63 C -0.42657 1.55276 0.04131
 C64 C -0.58081 1.54976 -0.03327
 C65 C -0.62075 1.57918 -0.03473
 C66 C -0.62816 1.61294 0.00107
 C67 C -0.59616 1.61647 0.03876
 C68 C -0.55635 1.58724 0.04017
 H69 H -0.57293 1.47801 0.06949
 H70 H -0.64129 1.42390 0.07176
 H71 H -0.59530 1.35885 -0.05846
 H72 H -0.52744 1.41285 -0.06104
 H73 H -0.47239 1.41429 0.06766
 H74 H -0.40166 1.36374 0.06426
 H75 H -0.43170 1.48135 -0.06300
 H76 H -0.47816 1.59274 -0.06037
 H77 H -0.40989 1.64631 -0.05788
 H78 H -0.36294 1.58126 0.07193
 H79 H -0.43161 1.52752 0.06968
 H80 H -0.57459 1.52484 -0.06186
 H81 H -0.64508 1.57636 -0.06429
 H82 H -0.60132 1.64260 0.06654
 H83 H -0.53136 1.59113 0.06904
 H84 H -0.36056 1.43062 -0.06619
 C85 C 0.01074 0.47689 0.49963
 C86 C 0.01067 0.52516 0.49999
 C87 C 0.01042 0.55300 0.54464
 C88 C 0.00987 0.55345 0.45578
 C89 C 0.01084 0.44906 0.45497
 C90 C 0.00984 0.44865 0.54387
 C91 C -0.02570 0.58641 0.55214
 C92 C -0.02481 0.61594 0.59182
 C93 C 0.01239 0.61269 0.62442
 C94 C 0.04833 0.57897 0.61759
 C95 C 0.04736 0.54921 0.57778
 C96 C -0.02771 0.54976 0.42335
 C97 C -0.03026 0.58042 0.38449
 C98 C 0.00463 0.61499 0.37792
 C99 C 0.04251 0.61816 0.40968
 C100 C 0.04504 0.58770 0.44845
 C101 C 0.04778 0.45307 0.42212
 C102 C 0.04900 0.42350 0.38218
 C103 C 0.01333 0.38972 0.37493
 C104 C -0.02383 0.38619 0.40726
 C105 C -0.02498 0.41554 0.44707
 C106 C 0.04516 0.41445 0.55175
 C107 C 0.04275 0.38428 0.59074
 C108 C 0.00479 0.38770 0.62220
 C109 C -0.03031 0.42223 0.61500
 C110 C -0.02784 0.45257 0.57592
 H111 H -0.05432 0.59001 0.52684
 H112 H -0.05277 0.64193 0.59656
 H113 H 0.07746 0.57626 0.64243
 H114 H 0.07594 0.52417 0.57216
 H115 H -0.05568 0.52421 0.42894
 H116 H -0.05990 0.57791 0.36027
 H117 H 0.07403 0.59134 0.47331
 H118 H 0.07615 0.47817 0.42805
 H119 H 0.07811 0.42642 0.35757
 H120 H -0.05157 0.36015 0.40220
 H121 H -0.05358 0.41176 0.47213
 H122 H 0.07424 0.41066 0.52719
 H123 H 0.07004 0.35764 0.59575
 H124 H -0.06006 0.42506 0.63889
 H125 H -0.05590 0.47810 0.56990
 H126 H 0.06957 0.64490 0.40503
 O127 O -0.12431 1.00531 -0.06415
 O128 O 0.11901 0.99747 -0.06584
 O129 O -0.00393 1.06542 -0.12351
 O130 O -0.00180 0.93627 -0.12256
 O131 O -0.00231 0.87922 -0.06399
 O132 O -0.00220 1.12359 -0.06572
 O133 O 0.06095 0.99810 -0.12352
 O134 O -0.06752 1.00345 -0.12266
 Zr135 Zr -0.00283 1.00125 -0.08478
 O136 O 0.03967 0.95787 -0.04412
 O137 O -0.04452 1.04549 -0.04424
 C138 C -0.11089 1.00520 -0.10791
 C139 C 0.10460 0.99652 -0.10940
 C140 C -0.00383 1.10929 -0.10928
 C141 C -0.00107 0.89270 -0.10772
 H142 H 0.06137 1.06345 -0.06491
 O143 O 0.04104 1.04362 -0.04461
 H144 H -0.06635 0.93934 -0.06339
 O145 O -0.04578 0.95960 -0.04351
 O146 O 0.12035 1.00154 0.06191
 O147 O -0.12304 1.00278 0.06333
 O148 O 0.06369 1.12288 -0.00031
 O149 O 0.05952 0.87859 -0.00238
 O150 O -0.06761 0.88128 0.00184
 O151 O -0.06334 1.12546 -0.00328
 O152 O 0.00221 1.06775 0.12019
 O153 O -0.00347 0.93885 0.12118
 O154 O 0.00263 1.12478 0.06161
 O155 O -0.00510 0.88059 0.06348
 O156 O 0.12062 1.06398 -0.00014
 O157 O -0.12230 1.06895 -0.00255
 O158 O -0.12453 0.94021 0.00180
 O159 O 0.11836 0.93524 -0.00339
 O160 O 0.06343 1.00334 0.12031
 O161 O -0.06508 1.00210 0.12108
 Zr162 Zr 0.08116 1.00039 -0.00171
 Zr163 Zr -0.08507 1.00373 -0.00068
 Zr164 Zr -0.00054 1.08530 -0.00175
 Zr165 Zr -0.00336 0.91875 -0.00059
 Zr166 Zr -0.00117 1.00287 0.08239
 O167 O -0.04505 0.96039 0.04232
 O168 O 0.04200 1.04454 0.04125
 C169 C 0.10683 1.00293 0.10565
 C170 C -0.10874 1.00147 0.10688
 C171 C 0.10698 1.10797 0.00079
 C172 C 0.10326 0.89179 -0.00377
 C173 C -0.11089 0.89623 0.00299
 C174 C -0.10711 1.11236 -0.00381
 C175 C 0.00387 1.11128 0.10533
 C176 C -0.00520 0.89501 0.10704
 H177 H -0.06322 1.06701 0.06193
 O178 O -0.04357 1.04617 0.04173
 H179 H 0.06040 0.93820 0.06178
 O180 O 0.04040 0.95881 0.04168
 C181 C 0.21316 1.00103 0.20408
 C182 C 0.22821 1.04348 0.22647
 C183 C 0.26573 1.04217 0.26005
 C184 C 0.28793 0.99840 0.27114
 C185 C 0.27309 0.95600 0.24846
 C186 C 0.23559 0.95731 0.21487
 C187 C 0.22123 0.91441 0.19287
 C188 C 0.24326 0.87145 0.20376
 C189 C 0.27996 0.87018 0.23651
 C190 C 0.29485 0.91184 0.25872
 C191 C 0.28005 1.08506 0.28203
 C192 C 0.25791 1.12799 0.27122
 C193 C 0.22120 1.12925 0.23847
 C194 C 0.20639 1.08761 0.21620
 C195 C 0.32465 0.99668 0.30720
 C196 C 0.35410 0.99480 0.33814
 C197 C 0.17485 1.00230 0.16976
 C198 C 0.14343 1.00290 0.14085
 H199 H 0.19289 0.91356 0.16711
 H200 H 0.23184 0.83899 0.18659
 H201 H 0.29702 0.83672 0.24476
 H202 H 0.32358 0.90904 0.28393
 H203 H 0.30849 1.08589 0.30771
 H204 H 0.26930 1.16046 0.28839
 H205 H 0.20408 1.16267 0.23028
 H206 H 0.17768 1.09041 0.19097
 C207 C -0.21456 0.99335 0.20476
 C208 C -0.24484 1.03285 0.21188
 C209 C -0.28231 1.02998 0.24512
 C210 C -0.28936 0.98759 0.27105
 C211 C -0.25961 0.94778 0.26327
 C212 C -0.22209 0.95068 0.23006
 C213 C -0.19272 0.91048 0.22304
 C214 C -0.20016 0.86864 0.24814
 C215 C -0.23689 0.86577 0.28051
 C216 C -0.26637 0.90478 0.28816
 C217 C -0.31200 1.07002 0.25170
 C218 C -0.30500 1.11161 0.22606
 C219 C -0.26846 1.11437 0.19349
 C220 C -0.23855 1.07561 0.18640
 C221 C -0.32591 0.98582 0.30705
 C222 C -0.35537 0.98580 0.33781
 C223 C -0.17612 0.99647 0.17097
 C224 C -0.14481 0.99899 0.14227
 H225 H -0.16376 0.91093 0.19815
 H226 H -0.17734 0.83826 0.24237
 H227 H -0.24258 0.83313 0.29981
 H228 H -0.29452 0.90084 0.31364
 H229 H -0.34101 1.06958 0.27652
 H230 H -0.32812 1.14184 0.23145
 H231 H -0.26330 1.14669 0.17356
 H232 H -0.21060 1.07953 0.16070
 C233 C -0.21892 1.00458 -0.20449
 C234 C -0.23995 1.04750 -0.22012
 C235 C -0.27743 1.04625 -0.25375
 C236 C -0.29377 1.00210 -0.27145
 C237 C -0.27380 0.95912 -0.25458
 C238 C -0.23635 0.96037 -0.22094
 C239 C -0.21729 0.91692 -0.20430
 C240 C -0.23481 0.87351 -0.22029
 C241 C -0.27117 0.87229 -0.25343
 C242 C -0.29051 0.91448 -0.27057
 C243 C -0.29785 1.08960 -0.26889
 C244 C -0.28207 1.13293 -0.25092
 C245 C -0.24569 1.13412 -0.21779
 C246 C -0.22452 1.09204 -0.20265
 C247 C -0.33010 1.00078 -0.30792
 C248 C -0.35920 0.99889 -0.33917
 C249 C -0.17977 1.00572 -0.17110
 C250 C -0.14776 1.00590 -0.14283
 H251 H -0.18893 0.91599 -0.17854
 H252 H -0.22021 0.84066 -0.20676
 H253 H -0.28458 0.83846 -0.26580
 H254 H -0.31890 0.91168 -0.29615
 H255 H -0.32641 1.09045 -0.29442
 H256 H -0.29827 1.16576 -0.26263
 H257 H -0.23388 1.16783 -0.20368
 H258 H -0.19628 1.09481 -0.17690
 C259 C 0.20923 0.99134 -0.20887
 C260 C 0.23854 1.03155 -0.21509
 C261 C 0.27579 1.03013 -0.24871
 C262 C 0.28346 0.98855 -0.27604
 C263 C 0.25423 0.94830 -0.26970
 C264 C 0.21697 0.94972 -0.23607
 C265 C 0.18798 0.90919 -0.23069
 C266 C 0.19552 0.86845 -0.25780
 C267 C 0.23203 0.86699 -0.29052
 C268 C 0.26118 0.90634 -0.29654
 C269 C 0.30451 1.07082 -0.25433
 C270 C 0.29653 1.11180 -0.22770
 C271 C 0.26000 1.11326 -0.19501
 C272 C 0.23132 1.07366 -0.18851
 C273 C 0.32003 0.98796 -0.31205
 C274 C 0.34944 0.98822 -0.34286
 C275 C 0.17140 0.99278 -0.17426
 C276 C 0.14049 0.99432 -0.14504
 H277 H 0.15913 0.90859 -0.20567
 H278 H 0.17286 0.83790 -0.25347
 H279 H 0.23777 0.83521 -0.31143
 H280 H 0.28912 0.90349 -0.32243
 H281 H 0.33336 1.07142 -0.27934
 H282 H 0.31879 1.14263 -0.23252
 H283 H 0.25380 1.14526 -0.17458
 H284 H 0.20341 1.07653 -0.16258
 C285 C 0.20736 1.21161 0.00690
 C286 C 0.24895 1.20774 -0.02050
 C287 C 0.28283 1.24486 -0.01941
 C288 C 0.27493 1.28553 0.00918
 C289 C 0.23354 1.28920 0.03691
 C290 C 0.19957 1.25212 0.03572
 C291 C 0.15828 1.25663 0.06354
 C292 C 0.15075 1.29670 0.09162
 C293 C 0.18409 1.33286 0.09295
 C294 C 0.22509 1.32935 0.06597
 C295 C 0.32412 1.24028 -0.04725
 C296 C 0.33175 1.20010 -0.07516
 C297 C 0.29866 1.16372 -0.07607
 C298 C 0.25760 1.16736 -0.04924
 C299 C 0.30959 1.32337 0.00984
 C300 C 0.33956 1.35365 0.00916
 C301 C 0.17230 1.17426 0.00487
 C302 C 0.14281 1.14360 0.00296
 H303 H 0.13142 1.22934 0.06388
 H304 H 0.11889 1.29969 0.11251
 H305 H 0.17814 1.36383 0.11497
 H306 H 0.24999 1.35840 0.06809
 H307 H 0.35097 1.26757 -0.04772
 H308 H 0.36356 1.19715 -0.09615
 H309 H 0.30485 1.13249 -0.09764
 H310 H 0.23288 1.13815 -0.05119
 C311 C 0.20147 0.78542 -0.00465
 C312 C 0.24088 0.78841 0.02615
 C313 C 0.27484 0.75119 0.02691
 C314 C 0.26920 0.71128 -0.00324
 C315 C 0.22964 0.70816 -0.03384
 C316 C 0.19558 0.74535 -0.03449
 C317 C 0.15612 0.74138 -0.06515
 C318 C 0.15042 0.70169 -0.09420
 C319 C 0.18390 0.66547 -0.09377
 C320 C 0.22316 0.66848 -0.06401
 C321 C 0.31395 0.75491 0.05810
 C322 C 0.31934 0.79433 0.08758
 C323 C 0.28617 0.83080 0.08671
 C324 C 0.24728 0.82804 0.05650
 C325 C 0.30462 0.67398 -0.00298
 C326 C 0.33543 0.64440 -0.00168
 C327 C 0.16680 0.82335 -0.00513
 C328 C 0.13796 0.85484 -0.00484
 H329 H 0.12923 0.76875 -0.06691
 H330 H 0.11987 0.69903 -0.11718
 H331 H 0.17939 0.63480 -0.11654
 H332 H 0.24821 0.63936 -0.06479
 H333 H 0.34074 0.72748 0.06010
 H334 H 0.34946 0.79659 0.11118
 H335 H 0.29060 0.86143 0.10954
 H336 H 0.22239 0.85730 0.05721
 C337 C -0.21053 0.79193 0.00756
 C338 C -0.22103 0.76636 -0.03436
 C339 C -0.25449 0.72887 -0.03330
 C340 C -0.27725 0.71726 0.00967
 C341 C -0.26660 0.74273 0.05163
 C342 C -0.23316 0.78027 0.05055
 C343 C -0.22331 0.80555 0.09282
 C344 C -0.24599 0.79411 0.13493
 C345 C -0.27854 0.75723 0.13604
 C346 C -0.28886 0.73170 0.09497
 C347 C -0.26454 0.70387 -0.07569
 C348 C -0.24219 0.71563 -0.11790
 C349 C -0.20947 0.75235 -0.11893
 C350 C -0.19886 0.77753 -0.07776
 C351 C -0.31307 0.68054 0.01011
 C352 C -0.34376 0.65099 0.00940
 C353 C -0.17599 0.82978 0.00645
 C354 C -0.14669 0.86062 0.00505
 H355 H -0.19816 0.83444 0.09376
 H356 H -0.23820 0.81389 0.16688
 H357 H -0.29592 0.74838 0.16889
 H358 H -0.31442 0.70331 0.09759
 H359 H -0.28969 0.67498 -0.07668
 H360 H -0.25030 0.69615 -0.14997
 H361 H -0.19221 0.76137 -0.15180
 H362 H -0.17319 0.80583 -0.08040
 C363 C -0.20247 1.22131 -0.00547
 C364 C -0.21573 1.24308 -0.04863
 C365 C -0.24912 1.28088 -0.04854
 C366 C -0.26885 1.29668 -0.00531
 C367 C -0.25436 1.27595 0.03799
 C368 C -0.22101 1.23816 0.03791
 C369 C -0.20689 1.21806 0.08162
 C370 C -0.22512 1.23495 0.12420
 C371 C -0.25794 1.27177 0.12428
 C372 C -0.27258 1.29212 0.08179
 C373 C -0.26202 1.30204 -0.09208
 C374 C -0.24213 1.28657 -0.13448
 C375 C -0.20925 1.24979 -0.13452
 C376 C -0.19624 1.22798 -0.09223
 C377 C -0.30544 1.33283 -0.00528
 C378 C -0.33702 1.36157 -0.00408
 C379 C -0.16946 1.18189 -0.00554
 C380 C -0.14153 1.14959 -0.00501
 H381 H -0.18149 1.18930 0.08341
 H382 H -0.21369 1.21942 0.15730
 H383 H -0.27207 1.28471 0.15746
 H384 H -0.29804 1.32081 0.08372
 H385 H -0.28729 1.33092 -0.09376
 H386 H -0.25218 1.30331 -0.16745
 H387 H -0.19366 1.23815 -0.16749
 H388 H -0.17057 1.19946 -0.09408
 C389 C 0.01041 1.21887 0.20245
 C390 C 0.05411 1.24063 0.21370
 C391 C 0.05570 1.27825 0.24735
 C392 C 0.01361 1.29380 0.26954
 C393 C -0.03023 1.27269 0.25749
 C394 C -0.03182 1.23512 0.22385
 C395 C -0.07603 1.21448 0.21247
 C396 C -0.11747 1.23051 0.23374
 C397 C -0.11593 1.26725 0.26664
 C398 C -0.07293 1.28822 0.27854
 C399 C 0.09975 1.29944 0.25809
 C400 C 0.14107 1.28396 0.23613
 C401 C 0.13952 1.24715 0.20327
 C402 C 0.09665 1.22557 0.19206
 C403 C 0.01531 1.33001 0.30618
 C404 C 0.01521 1.35883 0.33783
 C405 C 0.00871 1.18003 0.16865
 C406 C 0.00669 1.14817 0.14018
 H407 H -0.07908 1.18580 0.18706
 H408 H -0.15095 1.21429 0.22466
 H409 H -0.14823 1.27960 0.28305
 H410 H -0.07361 1.31676 0.30427
 H411 H 0.10267 1.32826 0.28335
 H412 H 0.17446 1.30068 0.24460
 H413 H 0.17168 1.23544 0.18613
 H414 H 0.09722 1.19717 0.16616
 C415 C -0.00421 1.21531 -0.20778
 C416 C 0.03807 1.24093 -0.21544
 C417 C 0.03889 1.27844 -0.24899
 C418 C -0.00257 1.29010 -0.27469
 C419 C -0.04498 1.26485 -0.26661
 C420 C -0.04579 1.22729 -0.23309
 C421 C -0.08850 1.20231 -0.22589
 C422 C -0.12922 1.21405 -0.25116
 C423 C -0.12849 1.25088 -0.28379
 C424 C -0.08696 1.27612 -0.29158
 C425 C 0.08162 1.30340 -0.25616
 C426 C 0.12237 1.29166 -0.23092
 C427 C 0.12158 1.25499 -0.19812
 C428 C 0.08002 1.22980 -0.19032
 C429 C -0.00094 1.32662 -0.31083
 C430 C 0.00129 1.35595 -0.34174
 C431 C -0.00483 1.17691 -0.17364
 C432 C -0.00470 1.14554 -0.14471
 H433 H -0.09086 1.17344 -0.20081
 H434 H -0.16149 1.19443 -0.24544
 H435 H -0.16027 1.25991 -0.30323
 H436 H -0.08813 1.30450 -0.31730
 H437 H 0.08400 1.33227 -0.28124
 H438 H 0.15473 1.31114 -0.23684
 H439 H 0.15333 1.24598 -0.17861
 H440 H 0.08120 1.20156 -0.16444
 C441 C 0.00610 0.78493 -0.20463
 C442 C -0.03560 0.76844 -0.22696
 C443 C -0.03311 0.73060 -0.26026
 C444 C 0.01108 0.70951 -0.27106
 C445 C 0.05267 0.72544 -0.24809
 C446 C 0.05019 0.76331 -0.21477
 C447 C 0.09226 0.77878 -0.19238
 C448 C 0.13553 0.75739 -0.20256
 C449 C 0.13793 0.72033 -0.23508
 C450 C 0.09709 0.70442 -0.25774
 C451 C -0.07530 0.71481 -0.28226
 C452 C -0.11865 0.73581 -0.27168
 C453 C -0.12104 0.77284 -0.23915
 C454 C -0.08015 0.78910 -0.21691
 C455 C 0.01363 0.67293 -0.30729
 C456 C 0.01399 0.64384 -0.33868
 C457 C 0.00353 0.82386 -0.17097
 C458 C 0.00128 0.85576 -0.14256
 H459 H 0.09219 0.80744 -0.16676
 H460 H 0.16734 0.76959 -0.18502
 H461 H 0.17163 0.70380 -0.24279
 H462 H 0.10067 0.67542 -0.28272
 H463 H -0.07532 0.68606 -0.30776
 H464 H -0.15054 0.72329 -0.28882
 H465 H -0.15477 0.78905 -0.23114
 H466 H -0.08387 0.81798 -0.19183
 C467 C -0.00516 0.79043 0.20699
 C468 C -0.04674 0.76454 0.21708
 C469 C -0.04540 0.72721 0.25085
 C470 C -0.00252 0.71605 0.27431
 C471 C 0.03908 0.74193 0.26412
 C472 C 0.03775 0.77924 0.23039
 C473 C 0.07976 0.80468 0.22087
 C474 C 0.12188 0.79357 0.24403
 C475 C 0.12320 0.75706 0.27700
 C476 C 0.08241 0.73142 0.28708
 C477 C -0.08739 0.70184 0.26039
 C478 C -0.12950 0.71297 0.23717
 C479 C -0.13078 0.74941 0.20411
 C480 C -0.09001 0.77509 0.19409
 C481 C -0.00123 0.67888 0.30981
 C482 C 0.00084 0.64900 0.34022
 C483 C -0.00618 0.82807 0.17204
 C484 C -0.00617 0.85897 0.14265
 H485 H 0.08053 0.83341 0.19553
 H486 H 0.15364 0.81342 0.23635
 H487 H 0.15601 0.74855 0.29489
 H488 H 0.08527 0.70333 0.31299
 H489 H -0.08811 0.67314 0.28578
 H490 H -0.16129 0.69318 0.24486
 H491 H -0.16354 0.75786 0.18617
 H492 H -0.09281 0.80321 0.16819
   
