data_POSCAR
  _audit_creation_date              2014-09-24
  _audit_creation_method            'ToBaCCo'
  _symmetry_space_group_name_H-M    'P1'
  _symmetry_Int_Tables_number       1
  _symmetry_cell_setting            triclinic
  loop_
  _symmetry_equiv_pos_as_xyz
 x,y,z
_cell_length_a 50.0012
_cell_length_b 49.0659
_cell_length_c 50.2453
_cell_angle_alpha 90.276900
_cell_angle_beta 89.969700
_cell_angle_gamma 90.036800
loop_
  _atom_site_label
  _atom_site_type_symbol
  _atom_site_fract_x
  _atom_site_fract_y
  _atom_site_fract_z
N1 N 0.59335 0.66643 0.61234
 N2 N 0.58294 0.65540 0.63376
 C3 C 0.56097 0.66955 0.64086
 C4 C 0.55734 0.69049 0.62283
 C5 C 0.57828 0.68781 0.60497
 H6 H 0.54842 0.66488 0.65776
 H7 H 0.58257 0.70078 0.58816
 Cu8 Cu 0.59938 0.62381 0.65030
 Cu9 Cu 0.62602 0.65267 0.59594
 Cu10 Cu 0.65572 0.59652 0.62550
 N11 N 0.61576 0.59193 0.66638
 N12 N 0.63826 0.58191 0.65707
 C13 C 0.64580 0.56071 0.67220
 C14 C 0.62684 0.55691 0.69209
 C15 C 0.60801 0.57721 0.68758
 H16 H 0.66354 0.54872 0.66851
 H17 H 0.59026 0.58142 0.69912
 N18 N 0.67024 0.61420 0.59342
 N19 N 0.65911 0.63575 0.58237
 C20 C 0.67370 0.64309 0.56103
 C21 C 0.69492 0.62519 0.55837
 C22 C 0.69205 0.60713 0.57925
 H23 H 0.66898 0.65990 0.54804
 H24 H 0.70506 0.59023 0.58387
 H25 H 0.62172 0.61284 0.60850
 H26 H 0.64204 0.63598 0.63005
 N27 N 0.90642 0.33159 0.11227
 N28 N 0.91558 0.34157 0.13479
 C29 C 0.93676 0.32670 0.14261
 C30 C 0.94141 0.30633 0.12383
 C31 C 0.92162 0.31027 0.10481
 H32 H 0.94822 0.33085 0.16039
 H33 H 0.91804 0.29829 0.08708
 Cu34 Cu 0.89943 0.37360 0.15115
 Cu35 Cu 0.87495 0.34644 0.09470
 Cu36 Cu 0.84531 0.40304 0.12399
 N37 N 0.88293 0.40563 0.16714
 N38 N 0.86158 0.41684 0.15660
 C39 C 0.85426 0.43848 0.17146
 C40 C 0.87211 0.44114 0.19238
 C41 C 0.89005 0.41993 0.18897
 H42 H 0.83753 0.45165 0.16706
 H43 H 0.90692 0.41518 0.20156
 N44 N 0.83185 0.38605 0.09098
 N45 N 0.84295 0.36434 0.08000
 C46 C 0.82888 0.35728 0.05818
 C47 C 0.80802 0.37551 0.05515
 C48 C 0.81058 0.39350 0.07629
 H49 H 0.83357 0.34026 0.04527
 H50 H 0.79757 0.41047 0.08087
 H51 H 0.87971 0.38590 0.10849
 H52 H 0.85760 0.36309 0.12840
 N53 N 0.40579 0.16859 -0.11223
 N54 N 0.41577 0.15794 -0.13413
 C55 C 0.43734 0.17250 -0.14154
 C56 C 0.44117 0.19334 -0.12324
 C57 C 0.42075 0.19016 -0.10488
 H58 H 0.44958 0.16808 -0.15876
 H59 H 0.41682 0.20283 -0.08766
 Cu60 Cu 0.39972 0.12597 -0.15070
 Cu61 Cu 0.37398 0.15393 -0.09508
 Cu62 Cu 0.34541 0.09648 -0.12379
 N63 N 0.38388 0.09332 -0.16618
 N64 N 0.36243 0.08212 -0.15577
 C65 C 0.35538 0.06029 -0.17048
 C66 C 0.37347 0.05751 -0.19119
 C67 C 0.39131 0.07883 -0.18778
 H68 H 0.33852 0.04720 -0.16622
 H69 H 0.40821 0.08364 -0.20034
 N70 N 0.33112 0.11402 -0.09142
 N71 N 0.34177 0.13611 -0.08070
 C72 C 0.32726 0.14339 -0.05923
 C73 C 0.30658 0.12492 -0.05616
 C74 C 0.30969 0.10656 -0.07691
 H75 H 0.33160 0.16067 -0.04652
 H76 H 0.29701 0.08928 -0.08134
 H77 H 0.37947 0.11430 -0.10812
 H78 H 0.35740 0.13646 -0.12875
 N79 N 0.09325 0.83263 0.38731
 N80 N 0.08393 0.84254 0.36493
 C81 C 0.06261 0.82770 0.35722
 C82 C 0.05806 0.80743 0.37594
 C83 C 0.07804 0.81139 0.39479
 H84 H 0.05102 0.83179 0.33955
 H85 H 0.08174 0.79946 0.41242
 Cu86 Cu 0.10011 0.87444 0.34860
 Cu87 Cu 0.12496 0.84739 0.40467
 Cu88 Cu 0.15467 0.90372 0.37546
 N89 N 0.11666 0.90635 0.33267
 N90 N 0.13815 0.91750 0.34311
 C91 C 0.14547 0.93906 0.32832
 C92 C 0.12748 0.94172 0.30755
 C93 C 0.10945 0.92059 0.31098
 H94 H 0.16232 0.95216 0.33268
 H95 H 0.09247 0.91585 0.29848
 N96 N 0.16835 0.88677 0.40823
 N97 N 0.15720 0.86516 0.41918
 C98 C 0.17144 0.85807 0.44080
 C99 C 0.19248 0.87614 0.44373
 C100 C 0.18985 0.89411 0.42274
 H101 H 0.16674 0.84111 0.45363
 H102 H 0.20295 0.91096 0.41813
 H103 H 0.12030 0.88682 0.39115
 H104 H 0.14210 0.86383 0.37089
 C105 C 0.10538 0.12508 0.14542
 C106 C 0.08546 0.14520 0.14528
 C107 C 0.08468 0.16477 0.12499
 C108 C 0.10416 0.16431 0.10484
 C109 C 0.12448 0.14462 0.10497
 C110 C 0.12505 0.12483 0.12526
 C111 C 0.10591 0.10518 0.16535
 C112 C 0.12597 0.08512 0.16554
 C113 C 0.14566 0.08514 0.14556
 C114 C 0.14528 0.10479 0.12538
 C115 C 0.16478 0.10471 0.10531
 C116 C 0.16448 0.12453 0.08521
 C117 C 0.14425 0.14441 0.08517
 H118 H 0.07030 0.14544 0.16071
 H119 H 0.10366 0.17956 0.08930
 H120 H 0.09087 0.10543 0.18090
 H121 H 0.16103 0.06956 0.14551
 H122 H 0.18048 0.08947 0.10553
 H123 H 0.14377 0.15954 0.06952
 C124 C 0.39441 0.87459 0.64433
 C125 C 0.41410 0.85425 0.64401
 C126 C 0.41431 0.83418 0.62395
 C127 C 0.39449 0.83455 0.60413
 C128 C 0.37455 0.85464 0.60429
 C129 C 0.37451 0.87479 0.62443
 C130 C 0.39429 0.89472 0.66424
 C131 C 0.37439 0.91493 0.66468
 C132 C 0.35457 0.91498 0.64485
 C133 C 0.35457 0.89513 0.62467
 C134 C 0.33493 0.89526 0.60476
 C135 C 0.33478 0.87517 0.58473
 C136 C 0.35462 0.85489 0.58466
 H137 H 0.42951 0.85420 0.65919
 H138 H 0.39441 0.81894 0.58877
 H139 H 0.40945 0.89445 0.67966
 H140 H 0.33935 0.93071 0.64497
 H141 H 0.31949 0.91077 0.60503
 H142 H 0.35471 0.83951 0.56909
 C143 C 0.89423 0.62558 0.35499
 C144 C 0.91403 0.64585 0.35500
 C145 C 0.91489 0.66556 0.37534
 C146 C 0.89561 0.66511 0.39566
 C147 C 0.87541 0.64526 0.39568
 C148 C 0.87477 0.62532 0.37535
 C149 C 0.89363 0.60553 0.33502
 C150 C 0.87371 0.58531 0.33498
 C151 C 0.85421 0.58531 0.35515
 C152 C 0.85467 0.60510 0.37538
 C153 C 0.83539 0.60500 0.39567
 C154 C 0.83578 0.62497 0.41581
 C155 C 0.85586 0.64503 0.41569
 H156 H 0.92905 0.64609 0.33942
 H157 H 0.89618 0.68046 0.41125
 H158 H 0.90853 0.60577 0.31934
 H159 H 0.83894 0.56961 0.35530
 H160 H 0.81981 0.58962 0.39560
 H161 H 0.85639 0.66028 0.43137
 C162 C 0.60541 0.37634 -0.14476
 C163 C 0.58527 0.35645 -0.14422
 C164 C 0.58509 0.33631 -0.12443
 C165 C 0.60530 0.33624 -0.10499
 C166 C 0.62569 0.35589 -0.10536
 C167 C 0.62579 0.37601 -0.12534
 C168 C 0.60555 0.39651 -0.16444
 C169 C 0.62605 0.41607 -0.16524
 C170 C 0.64640 0.41556 -0.14599
 C171 C 0.64628 0.39581 -0.12590
 C172 C 0.66628 0.39554 -0.10636
 C173 C 0.66625 0.37559 -0.08638
 C174 C 0.64597 0.35575 -0.08609
 H175 H 0.56955 0.35678 -0.15907
 H176 H 0.60537 0.32060 -0.08982
 H177 H 0.58996 0.39679 -0.17943
 H178 H 0.66211 0.43080 -0.14649
 H179 H 0.68207 0.41069 -0.10681
 H180 H 0.64578 0.34045 -0.07059
 C181 C 0.00205 0.24632 0.12434
 C182 C -0.01369 0.24966 0.10150
 C183 C -0.03397 0.26940 0.10151
 C184 C -0.03835 0.28626 0.12401
 C185 C -0.02201 0.28261 0.14669
 C186 C -0.00203 0.26256 0.14703
 C187 C 0.02323 0.22541 0.12451
 C188 C 0.03864 0.22170 0.14758
 C189 C 0.05859 0.20163 0.14771
 C190 C 0.06345 0.18573 0.12482
 C191 C 0.04800 0.18986 0.10178
 C192 C 0.02767 0.20954 0.10160
 C193 C 0.01392 0.25837 0.16968
 C194 C 0.03382 0.23821 0.16999
 C195 C -0.00878 0.23325 0.07902
 C196 C 0.01163 0.21361 0.07902
 H197 H 0.01093 0.27073 0.18736
 H198 H 0.04560 0.23559 0.18789
 H199 H -0.02075 0.23567 0.06122
 H200 H 0.01482 0.20146 0.06124
 H201 H -0.04584 0.27181 0.08368
 H202 H -0.02497 0.29486 0.16440
 H203 H 0.07062 0.19860 0.16539
 H204 H 0.05160 0.17747 0.08421
 C205 C 0.49598 0.75146 0.62319
 C206 C 0.50217 0.73776 0.64686
 C207 C 0.52213 0.71768 0.64659
 C208 C 0.53602 0.71146 0.62292
 C209 C 0.52956 0.72548 0.59937
 C210 C 0.50948 0.74543 0.59937
 C211 C 0.47500 0.77257 0.62336
 C212 C 0.46864 0.78612 0.59963
 C213 C 0.44865 0.80615 0.59990
 C214 C 0.43525 0.81281 0.62372
 C215 C 0.44193 0.79907 0.64735
 C216 C 0.46173 0.77884 0.64726
 C217 C 0.50260 0.75946 0.57604
 C218 C 0.48250 0.77942 0.57616
 C219 C 0.48837 0.74450 0.67035
 C220 C 0.46853 0.76473 0.67056
 H221 H 0.51284 0.75497 0.55753
 H222 H 0.47780 0.78975 0.55773
 H223 H 0.49299 0.73409 0.68876
 H224 H 0.45841 0.76935 0.68911
 H225 H 0.52709 0.70727 0.66489
 H226 H 0.53990 0.72070 0.58098
 H227 H 0.44378 0.81686 0.58172
 H228 H 0.43148 0.80390 0.66568
 C229 C 0.99736 0.74740 0.37567
 C230 C 1.00123 0.76354 0.35303
 C231 C 1.02122 0.78361 0.35329
 C232 C 1.03777 0.78738 0.37584
 C233 C 1.03357 0.77064 0.39830
 C234 C 1.01330 0.75087 0.39839
 C235 C 0.97620 0.72643 0.37559
 C236 C 0.97198 0.71065 0.39846
 C237 C 0.95169 0.69091 0.39834
 C238 C 0.93606 0.68662 0.37542
 C239 C 0.94069 0.70243 0.35257
 C240 C 0.96060 0.72257 0.35263
 C241 C 1.00859 0.73456 0.42084
 C242 C 0.98821 0.71487 0.42091
 C243 C 0.98509 0.75920 0.33050
 C244 C 0.96521 0.73899 0.33026
 H245 H 1.02072 0.73709 0.43855
 H246 H 0.98519 0.70280 0.43866
 H247 H 0.98792 0.77148 0.31286
 H248 H 0.95328 0.73625 0.31245
 H249 H 1.02403 0.79579 0.33562
 H250 H 1.04559 0.77314 0.41604
 H251 H 0.94828 0.67859 0.41588
 H252 H 0.92852 0.69927 0.33497
 C253 C 0.50258 0.25435 -0.12367
 C254 C 0.48950 0.24814 -0.09972
 C255 C 0.46934 0.22825 -0.09970
 C256 C 0.46239 0.21443 -0.12337
 C257 C 0.47583 0.22088 -0.14719
 C258 C 0.49586 0.24090 -0.14747
 C259 C 0.52371 0.27533 -0.12384
 C260 C 0.53659 0.28172 -0.14786
 C261 C 0.55658 0.30176 -0.14794
 C262 C 0.56385 0.31521 -0.12419
 C263 C 0.55081 0.30846 -0.10025
 C264 C 0.53062 0.28859 -0.09999
 C265 C 0.50926 0.24778 -0.17109
 C266 C 0.52925 0.26789 -0.17129
 C267 C 0.49691 0.26192 -0.07626
 C268 C 0.51716 0.28176 -0.07639
 H269 H 0.50423 0.23758 -0.18960
 H270 H 0.53906 0.27261 -0.18994
 H271 H 0.48700 0.25729 -0.05764
 H272 H 0.52228 0.29187 -0.05786
 H273 H 0.45936 0.22330 -0.08120
 H274 H 0.47049 0.21065 -0.16558
 H275 H 0.56676 0.30666 -0.16637
 H276 H 0.55614 0.31893 -0.08196
 C277 C 0.12690 0.00286 0.24692
 C278 C 0.10312 -0.01091 0.25318
 C279 C 0.10346 -0.03101 0.27292
 C280 C 0.12731 -0.03720 0.28654
 C281 C 0.15097 -0.02308 0.28004
 C282 C 0.15090 -0.00311 0.26016
 C283 C 0.12668 0.02395 0.22610
 C284 C 0.15053 0.03752 0.21962
 C285 C 0.15022 0.05746 0.19972
 C286 C 0.12623 0.06401 0.18654
 C287 C 0.10247 0.05028 0.19338
 C288 C 0.10260 0.03014 0.21308
 C289 C 0.17435 0.01097 0.25319
 C290 C 0.17418 0.03090 0.23323
 C291 C 0.07945 -0.00423 0.23964
 C292 C 0.07918 0.01599 0.21996
 H293 H 0.19300 0.00653 0.26324
 H294 H 0.19270 0.04125 0.22845
 H295 H 0.06095 -0.01468 0.24433
 H296 H 0.06050 0.02055 0.21003
 H297 H 0.08507 -0.04149 0.27793
 H298 H 0.16949 -0.02784 0.29017
 H299 H 0.16851 0.06816 0.19471
 H300 H 0.08401 0.05503 0.18309
 C301 C 0.62656 0.49734 -0.24739
 C302 C 0.60381 0.51353 -0.25128
 C303 C 0.60408 0.53344 -0.27122
 C304 C 0.62675 0.53699 -0.28770
 C305 C 0.64932 0.52019 -0.28350
 C306 C 0.64940 0.50059 -0.26327
 C307 C 0.62646 0.47656 -0.22628
 C308 C 0.64944 0.46071 -0.22204
 C309 C 0.64929 0.44112 -0.20181
 C310 C 0.62623 0.43704 -0.18627
 C311 C 0.60329 0.45293 -0.19090
 C312 C 0.60337 0.47292 -0.21075
 C313 C 0.67196 0.48422 -0.25855
 C314 C 0.67202 0.46471 -0.23821
 C315 C 0.58115 0.50943 -0.23521
 C316 C 0.58090 0.48939 -0.21537
 H317 H 0.68976 0.48657 -0.27063
 H318 H 0.68985 0.45257 -0.23518
 H319 H 0.56342 0.52176 -0.23805
 H320 H 0.56299 0.48682 -0.20349
 H321 H 0.58631 0.54565 -0.27404
 H322 H 0.66715 0.52253 -0.29549
 H323 H 0.66690 0.42873 -0.19840
 H324 H 0.58558 0.44993 -0.17879
 C325 C 0.37388 0.99664 0.74735
 C326 C 0.34993 1.00255 0.76077
 C327 C 0.34994 1.02238 0.78098
 C328 C 0.37362 1.03644 0.78759
 C329 C 0.39744 1.03030 0.77381
 C330 C 0.39770 1.01033 0.75375
 C331 C 0.37401 0.97573 0.72616
 C332 C 0.39803 0.96960 0.71294
 C333 C 0.39807 0.94961 0.69290
 C334 C 0.37426 0.93599 0.68593
 C335 C 0.35032 0.94248 0.69932
 C336 C 0.35011 0.96226 0.71955
 C337 C 0.42132 1.00371 0.74000
 C338 C 0.42150 0.98365 0.71998
 C339 C 0.32644 0.98857 0.75367
 C340 C 0.32651 0.96880 0.73337
 H341 H 0.43985 1.01410 0.74479
 H342 H 0.44015 0.97914 0.70990
 H343 H 0.30782 0.99297 0.76385
 H344 H 0.30796 0.95853 0.72848
 H345 H 0.33144 1.02711 0.79122
 H346 H 0.41584 1.04076 0.77890
 H347 H 0.41649 0.94488 0.68247
 H348 H 0.33200 0.93185 0.69422
 C349 C 0.87269 0.50256 0.25331
 C350 C 0.84867 0.49645 0.24009
 C351 C 0.84860 0.47640 0.22009
 C352 C 0.87227 0.46232 0.21349
 C353 C 0.89614 0.46863 0.22710
 C354 C 0.89649 0.48884 0.24693
 C355 C 0.87293 0.52375 0.27423
 C356 C 0.89702 0.53009 0.28721
 C357 C 0.89717 0.55036 0.30698
 C358 C 0.87340 0.56403 0.31395
 C359 C 0.84938 0.55732 0.30083
 C360 C 0.84906 0.53727 0.28084
 C361 C 0.92018 0.49567 0.26044
 C362 C 0.92045 0.51599 0.28020
 C363 C 0.82522 0.51048 0.24719
 C364 C 0.82539 0.53050 0.26725
 H365 H 0.93868 0.48525 0.25566
 H366 H 0.93916 0.52067 0.29010
 H367 H 0.80655 0.50593 0.23716
 H368 H 0.80686 0.54080 0.27214
 H369 H 0.83008 0.47153 0.20996
 H370 H 0.91453 0.45818 0.22200
 H371 H 0.91566 0.55524 0.31722
 H372 H 0.83109 0.56797 0.30595
 C373 C 0.24594 0.12474 0.00415
 C374 C 0.25243 0.10032 -0.00901
 C375 C 0.27220 0.10051 -0.02881
 C376 C 0.28564 0.12485 -0.03529
 C377 C 0.27895 0.14913 -0.02176
 C378 C 0.25902 0.14921 -0.00211
 C379 C 0.22506 0.12468 0.02489
 C380 C 0.21835 0.14917 0.03783
 C381 C 0.19840 0.14903 0.05745
 C382 C 0.18539 0.12457 0.06431
 C383 C 0.19246 0.10017 0.05122
 C384 C 0.21220 0.10013 0.03138
 C385 C 0.25183 0.17329 0.01135
 C386 C 0.23180 0.17328 0.03094
 C387 C 0.23905 0.07618 -0.00204
 C388 C 0.21932 0.07608 0.01785
 H389 H 0.26174 0.19232 0.00667
 H390 H 0.22684 0.19230 0.04081
 H391 H 0.24390 0.05719 -0.01203
 H392 H 0.20952 0.05702 0.02265
 H393 H 0.27736 0.08166 -0.03887
 H394 H 0.28893 0.16803 -0.02675
 H395 H 0.19324 0.16781 0.06767
 H396 H 0.18232 0.08134 0.05624
 C397 C 0.75527 0.62513 0.49780
 C398 C 0.74193 0.64949 0.50408
 C399 C 0.72214 0.64938 0.52387
 C400 C 0.71587 0.62519 0.53754
 C401 C 0.72963 0.60097 0.53110
 C402 C 0.74924 0.60080 0.51113
 C403 C 0.77593 0.62508 0.47684
 C404 C 0.78902 0.60063 0.47029
 C405 C 0.80851 0.60067 0.45021
 C406 C 0.81511 0.62499 0.43695
 C407 C 0.80190 0.64935 0.44388
 C408 C 0.78217 0.64949 0.46373
 C409 C 0.76286 0.57677 0.50412
 C410 C 0.78237 0.57667 0.48400
 C411 C 0.74866 0.67348 0.49046
 C412 C 0.76849 0.67349 0.47067
 H413 H 0.75836 0.55785 0.51422
 H414 H 0.79235 0.55768 0.47917
 H415 H 0.73853 0.69242 0.49515
 H416 H 0.77310 0.69244 0.46067
 H417 H 0.71191 0.66818 0.52885
 H418 H 0.72478 0.58219 0.54126
 H419 H 0.81881 0.58192 0.44512
 H420 H 0.80671 0.66807 0.43354
 C421 C 0.74783 0.37561 -0.00553
 C422 C 0.75406 0.40000 0.00784
 C423 C 0.77371 0.39983 0.02774
 C424 C 0.78730 0.37557 0.03410
 C425 C 0.78091 0.35134 0.02033
 C426 C 0.76108 0.35121 0.00060
 C427 C 0.72701 0.37562 -0.02631
 C428 C 0.72051 0.35114 -0.03941
 C429 C 0.70054 0.35122 -0.05900
 C430 C 0.68734 0.37560 -0.06568
 C431 C 0.69424 0.39999 -0.05246
 C432 C 0.71397 0.40008 -0.03264
 C433 C 0.75413 0.32717 -0.01304
 C434 C 0.73414 0.32712 -0.03266
 C435 C 0.74052 0.42405 0.00100
 C436 C 0.72086 0.42411 -0.01894
 H437 H 0.76417 0.30820 -0.00847
 H438 H 0.72934 0.30812 -0.04265
 H439 H 0.74517 0.44301 0.01114
 H440 H 0.71092 0.44311 -0.02362
 H441 H 0.77865 0.41865 0.03799
 H442 H 0.79100 0.33250 0.02525
 H443 H 0.69548 0.33245 -0.06930
 H444 H 0.68394 0.41874 -0.05734
 C445 C 0.25319 0.87577 0.50389
 C446 C 0.24724 0.90016 0.49065
 C447 C 0.22743 0.90015 0.47089
 C448 C 0.21344 0.87604 0.46455
 C449 C 0.21961 0.85180 0.47815
 C450 C 0.23957 0.85152 0.49775
 C451 C 0.27411 0.87562 0.52457
 C452 C 0.28028 0.85115 0.53758
 C453 C 0.30027 0.85109 0.55715
 C454 C 0.31382 0.87533 0.56389
 C455 C 0.30728 0.89971 0.55074
 C456 C 0.28752 0.89995 0.53095
 C457 C 0.24623 0.82746 0.51127
 C458 C 0.26629 0.82727 0.53081
 C459 C 0.26117 0.92407 0.49750
 C460 C 0.28092 0.92398 0.51735
 H461 H 0.23589 0.80861 0.50668
 H462 H 0.27084 0.80827 0.54073
 H463 H 0.25673 0.94303 0.48746
 H464 H 0.29115 0.94287 0.52205
 H465 H 0.22268 0.91898 0.46075
 H466 H 0.20921 0.83307 0.47325
 H467 H 0.30504 0.83233 0.56741
 H468 H 0.31784 0.91837 0.55567
   
