data_POSCAR
  _audit_creation_date              2014-09-24
  _audit_creation_method            'ToBaCCo'
  _symmetry_space_group_name_H-M    'P1'
  _symmetry_Int_Tables_number       1
  _symmetry_cell_setting            triclinic
  loop_
  _symmetry_equiv_pos_as_xyz
 x,y,z
_cell_length_a 16.4550
_cell_length_b 19.6288
_cell_length_c 27.1446
_cell_angle_alpha 89.706000
_cell_angle_beta 89.407200
_cell_angle_gamma 89.623300
loop_
  _atom_site_label
  _atom_site_type_symbol
  _atom_site_fract_x
  _atom_site_fract_y
  _atom_site_fract_z
O1 O 0.13662 0.03687 0.06154
 O2 O -0.13550 -0.04603 0.05965
 O3 O -0.04736 0.11393 0.06160
 O4 O 0.04868 -0.11581 0.05893
 O5 O -0.15737 0.07068 0.03632
 O6 O 0.16018 -0.07424 0.03378
 O7 O -0.08467 -0.13446 0.02803
 O8 O 0.08878 0.13157 0.03711
 C9 C 0.12445 0.09763 0.06967
 C10 C -0.11980 -0.10726 0.06373
 C11 C -0.12029 0.10344 0.06872
 C12 C 0.12119 -0.10553 0.06638
 O13 O 0.14399 -0.02734 -0.06187
 O14 O -0.13900 0.03333 -0.06031
 O15 O 0.04085 0.12090 -0.05968
 O16 O -0.02674 -0.11361 -0.06404
 O17 O -0.14443 -0.08265 -0.03947
 O18 O 0.15307 0.08581 -0.03191
 O19 O 0.10754 -0.12343 -0.03517
 O20 O -0.09812 0.12788 -0.03294
 Co21 Co 0.13465 0.00462 0.00010
 Co22 Co -0.13017 -0.00573 -0.00066
 Co23 Co -0.00314 0.11169 0.00115
 Co24 Co 0.01053 -0.11025 -0.00265
 O25 O 0.00279 0.00024 -0.00049
 C26 C 0.13777 -0.08883 -0.06918
 C27 C -0.13117 0.09504 -0.06658
 C28 C 0.11484 0.11445 -0.06580
 C29 C -0.09970 -0.10778 -0.07258
 O30 O 0.41239 0.36861 0.46265
 O31 O 0.58405 0.63555 0.47238
 O32 O 0.33968 0.57416 0.46580
 O33 O 0.65812 0.43080 0.46433
 O34 O 0.45115 0.61621 0.44101
 O35 O 0.54872 0.38680 0.43851
 O36 O 0.63570 0.54735 0.44093
 O37 O 0.36416 0.46316 0.43815
 C38 C 0.37670 0.40245 0.43003
 C39 C 0.61968 0.60851 0.43680
 C40 C 0.37877 0.60562 0.43333
 C41 C 0.62140 0.39831 0.43173
 O42 O 0.59873 0.37314 0.53326
 O43 O 0.39137 0.62359 0.53490
 O44 O 0.34724 0.41418 0.53153
 O45 O 0.64350 0.58396 0.54007
 O46 O 0.52541 0.61432 0.56428
 O47 O 0.45952 0.37933 0.55957
 O48 O 0.63865 0.46790 0.56087
 O49 O 0.35530 0.52739 0.56155
 Co50 Co 0.50393 0.38885 0.49887
 Co51 Co 0.48876 0.61082 0.50274
 Co52 Co 0.36539 0.49544 0.49959
 Co53 Co 0.63011 0.50700 0.50121
 O54 O 0.49722 0.50037 0.50058
 C55 C 0.63129 0.40611 0.56703
 C56 C 0.36109 0.58892 0.56884
 C57 C 0.38560 0.38592 0.56542
 C58 C 0.59836 0.60896 0.57302
 C59 C 0.24138 0.11636 0.18767
 C60 C 0.22637 0.18486 0.20108
 C61 C 0.17493 0.22427 0.17015
 C62 C 0.14174 0.19613 0.12727
 C63 C 0.15831 0.12847 0.11452
 C64 C 0.20785 0.08897 0.14535
 C65 C 0.15671 0.29155 0.18213
 C66 C 0.18877 0.32120 0.22389
 C67 C 0.24131 0.28471 0.25556
 C68 C 0.26035 0.21533 0.24401
 C69 C 0.31292 0.17885 0.27567
 C70 C 0.34498 0.20851 0.31744
 C71 C 0.32671 0.27579 0.32944
 C72 C 0.27525 0.31517 0.29850
 C73 C 0.26015 0.38365 0.31192
 C74 C 0.29357 0.41103 0.35427
 C75 C 0.34311 0.37156 0.38512
 C76 C 0.35984 0.30394 0.37234
 H77 H 0.27854 0.08212 0.20897
 H78 H 0.10274 0.22685 0.10394
 H79 H 0.22135 0.03626 0.13665
 H80 H 0.11696 0.32178 0.15894
 H81 H 0.17076 0.37323 0.23019
 H82 H 0.33095 0.12683 0.26935
 H83 H 0.38474 0.17829 0.34063
 H84 H 0.22297 0.41788 0.29063
 H85 H 0.27994 0.46372 0.36297
 H86 H 0.39885 0.27324 0.39569
 C87 C 0.85307 0.74498 0.15237
 C88 C 0.80302 0.77300 0.19004
 C89 C 0.77940 0.84236 0.18512
 C90 C 0.80489 0.88125 0.14416
 C91 C 0.85357 0.85223 0.10709
 C92 C 0.87744 0.78395 0.11174
 C93 C 0.73021 0.87271 0.22098
 C94 C 0.70333 0.83595 0.26175
 C95 C 0.72473 0.76673 0.26857
 C96 C 0.77557 0.73472 0.23215
 C97 C 0.79710 0.66554 0.23901
 C98 C 0.77024 0.62879 0.27979
 C99 C 0.72091 0.65909 0.31560
 C100 C 0.69718 0.72843 0.31064
 C101 C 0.64688 0.75636 0.34822
 C102 C 0.62242 0.71735 0.38882
 C103 C 0.64644 0.64910 0.39352
 C104 C 0.69536 0.62017 0.35652
 H105 H 0.87458 0.69310 0.15289
 H106 H 0.78627 0.93420 0.14102
 H107 H 0.91568 0.76035 0.08385
 H108 H 0.71202 0.92569 0.21745
 H109 H 0.66559 0.86375 0.28737
 H110 H 0.83498 0.63778 0.21345
 H111 H 0.78854 0.57583 0.28336
 H112 H 0.62519 0.80819 0.34764
 H113 H 0.58397 0.74087 0.41664
 H114 H 0.71407 0.56725 0.35968
 C115 C 0.75143 0.11811 0.81532
 C116 C 0.76985 0.18562 0.80071
 C117 C 0.82184 0.22355 0.83162
 C118 C 0.85292 0.19477 0.87534
 C119 C 0.83404 0.12773 0.88889
 C120 C 0.78321 0.08996 0.85833
 C121 C 0.84315 0.28984 0.81857
 C122 C 0.81393 0.31982 0.77572
 C123 C 0.76134 0.28473 0.74386
 C124 C 0.73897 0.21644 0.75654
 C125 C 0.68644 0.18132 0.72466
 C126 C 0.65724 0.21130 0.68181
 C127 C 0.67847 0.27761 0.66879
 C128 C 0.73040 0.31556 0.69971
 C129 C 0.74868 0.38312 0.68515
 C130 C 0.71684 0.41128 0.64216
 C131 C 0.66611 0.37347 0.61157
 C132 C 0.64734 0.30639 0.62508
 H133 H 0.71315 0.08513 0.79431
 H134 H 0.89293 0.22421 0.89839
 H135 H 0.76770 0.03786 0.86764
 H136 H 0.88326 0.31899 0.84173
 H137 H 0.83420 0.37098 0.76868
 H138 H 0.66625 0.13013 0.73166
 H139 H 0.61717 0.18212 0.65863
 H140 H 0.78685 0.41614 0.70620
 H141 H 0.73224 0.46342 0.63287
 H142 H 0.60738 0.27693 0.60202
 C143 C 0.23871 0.88888 0.80633
 C144 C 0.22739 0.81860 0.79695
 C145 C 0.18517 0.77977 0.83311
 C146 C 0.15678 0.81018 0.87667
 C147 C 0.16905 0.87952 0.88527
 C148 C 0.20981 0.91859 0.84971
 C149 C 0.17115 0.71073 0.82575
 C150 C 0.19850 0.67863 0.78331
 C151 C 0.24162 0.71447 0.74626
 C152 C 0.25619 0.78569 0.75314
 C153 C 0.29920 0.82155 0.71605
 C154 C 0.32658 0.78945 0.67363
 C155 C 0.31274 0.72038 0.66632
 C156 C 0.27056 0.68153 0.70248
 C157 C 0.25949 0.61119 0.69317
 C158 C 0.28864 0.58145 0.64985
 C159 C 0.32939 0.62055 0.61429
 C160 C 0.34132 0.68995 0.62283
 H161 H 0.26932 0.92268 0.78103
 H162 H 0.12443 0.77972 0.90384
 H163 H 0.21953 0.97252 0.85540
 H164 H 0.13849 0.68099 0.85320
 H165 H 0.18452 0.62531 0.78081
 H166 H 0.31304 0.87490 0.71850
 H167 H 0.35917 0.81921 0.64616
 H168 H 0.22898 0.57738 0.71849
 H169 H 0.27917 0.52748 0.64420
 H170 H 0.37366 0.72044 0.59566
 C171 C 0.27729 0.16255 0.84739
 C172 C 0.23398 0.19871 0.81066
 C173 C 0.14857 0.20485 0.81675
 C174 C 0.10904 0.17605 0.85782
 C175 C 0.15298 0.14102 0.89434
 C176 C 0.23755 0.13449 0.88828
 C177 C 0.10263 0.23998 0.78195
 C178 C 0.13939 0.26996 0.74117
 C179 C 0.22428 0.26591 0.73331
 C180 C 0.27233 0.22912 0.76840
 C181 C 0.35703 0.22394 0.76003
 C182 C 0.39376 0.25364 0.71912
 C183 C 0.34803 0.29000 0.68490
 C184 C 0.26274 0.29710 0.69140
 C185 C 0.21976 0.33540 0.65558
 C186 C 0.25976 0.36412 0.61501
 C187 C 0.34371 0.35601 0.60867
 C188 C 0.38754 0.31924 0.64399
 H189 H 0.34213 0.15517 0.84606
 H190 H 0.04356 0.18166 0.86133
 H191 H 0.27385 0.10753 0.91529
 H192 H 0.03723 0.24462 0.78636
 H193 H 0.09895 0.29582 0.71630
 H194 H 0.39728 0.19687 0.78434
 H195 H 0.45898 0.24808 0.71427
 H196 H 0.15526 0.34449 0.65765
 H197 H 0.22461 0.39294 0.58847
 H198 H 0.45277 0.31304 0.63958
 C199 C 0.90005 0.81569 0.80053
 C200 C 0.81829 0.79613 0.79438
 C201 C 0.76177 0.81389 0.83222
 C202 C 0.78738 0.84765 0.87498
 C203 C 0.86931 0.86359 0.88109
 C204 C 0.92473 0.84846 0.84307
 C205 C 0.68021 0.79695 0.82758
 C206 C 0.65318 0.76209 0.78659
 C207 C 0.70706 0.74206 0.74830
 C208 C 0.79101 0.75944 0.75222
 C209 C 0.84501 0.73901 0.71411
 C210 C 0.81805 0.70398 0.67319
 C211 C 0.73642 0.68740 0.66840
 C212 C 0.67975 0.70558 0.70605
 C213 C 0.59781 0.68672 0.69958
 C214 C 0.57325 0.65385 0.65704
 C215 C 0.62894 0.63800 0.61932
 C216 C 0.71093 0.65354 0.62567
 H217 H 0.94705 0.80614 0.77354
 H218 H 0.74404 0.85955 0.90410
 H219 H 0.98836 0.86136 0.84638
 H220 H 0.63660 0.81059 0.85614
 H221 H 0.58912 0.75152 0.78630
 H222 H 0.90916 0.74914 0.71458
 H223 H 0.86178 0.68994 0.64479
 H224 H 0.55056 0.69704 0.72626
 H225 H 0.50952 0.64143 0.65350
 H226 H 0.75446 0.64118 0.59675
 C227 C 0.28164 0.84577 0.15878
 C228 C 0.23792 0.80365 0.19224
 C229 C 0.15395 0.79403 0.18357
 C230 C 0.11648 0.82455 0.14294
 C231 C 0.16109 0.86480 0.10984
 C232 C 0.24362 0.87560 0.11828
 C233 C 0.10749 0.75370 0.21524
 C234 C 0.14238 0.72188 0.25553
 C235 C 0.22583 0.72905 0.26581
 C236 C 0.27441 0.77078 0.23372
 C237 C 0.35782 0.77805 0.24406
 C238 C 0.39269 0.74631 0.28440
 C239 C 0.34624 0.70590 0.31602
 C240 C 0.26232 0.69615 0.30728
 C241 C 0.21863 0.65387 0.34064
 C242 C 0.25658 0.62411 0.38118
 C243 C 0.33903 0.63513 0.38976
 C244 C 0.38366 0.67546 0.35671
 H245 H 0.34526 0.85670 0.16249
 H246 H 0.05227 0.81626 0.13684
 H247 H 0.27918 0.90707 0.09335
 H248 H 0.04318 0.74647 0.20875
 H249 H 0.10171 0.69190 0.27793
 H250 H 0.39846 0.80814 0.22171
 H251 H 0.45696 0.75365 0.29095
 H252 H 0.15509 0.64272 0.33681
 H253 H 0.22104 0.59254 0.40604
 H254 H 0.44781 0.68389 0.36290
 C255 C 0.72008 0.15445 0.15773
 C256 C 0.76425 0.19488 0.19133
 C257 C 0.84886 0.20147 0.18289
 C258 C 0.88659 0.16985 0.14241
 C259 C 0.84197 0.13109 0.10854
 C260 C 0.75828 0.12332 0.11721
 C261 C 0.89598 0.24004 0.21462
 C262 C 0.86115 0.27307 0.25473
 C263 C 0.77706 0.26899 0.26491
 C264 C 0.72775 0.22905 0.23276
 C265 C 0.64367 0.22486 0.24303
 C266 C 0.60882 0.25794 0.28313
 C267 C 0.65591 0.29673 0.31474
 C268 C 0.74058 0.30331 0.30625
 C269 C 0.78482 0.34397 0.33973
 C270 C 0.74650 0.37542 0.38006
 C271 C 0.66308 0.36768 0.38838
 C272 C 0.61826 0.32870 0.35512
 H273 H 0.65575 0.14594 0.16140
 H274 H 0.95157 0.17645 0.13722
 H275 H 0.72160 0.09350 0.09247
 H276 H 0.96088 0.24502 0.20830
 H277 H 0.90231 0.30157 0.27712
 H278 H 0.60256 0.19621 0.22070
 H279 H 0.54394 0.25295 0.28952
 H280 H 0.84916 0.35247 0.33609
 H281 H 0.78246 0.40552 0.40497
 H282 H 0.55339 0.32251 0.36085
   
