data_POSCAR
  _audit_creation_date              2014-09-24
  _audit_creation_method            'ToBaCCo'
  _symmetry_space_group_name_H-M    'P1'
  _symmetry_Int_Tables_number       1
  _symmetry_cell_setting            triclinic
  loop_
  _symmetry_equiv_pos_as_xyz
 x,y,z
_cell_length_a 40.9798
_cell_length_b 41.3677
_cell_length_c 42.5957
_cell_angle_alpha 90.744600
_cell_angle_beta 90.065300
_cell_angle_gamma 92.671000
loop_
  _atom_site_label
  _atom_site_type_symbol
  _atom_site_fract_x
  _atom_site_fract_y
  _atom_site_fract_z
N1 N 0.62450 0.62525 0.62950
 N2 N 0.87720 0.37136 0.12644
 N3 N 0.37370 0.11827 -0.12583
 N4 N 0.12233 0.88288 0.37551
 N5 N 0.09312 0.17938 0.11305
 N6 N 0.08060 0.16871 0.13955
 C7 C 0.05511 0.18654 0.14739
 C8 C 0.05137 0.20971 0.12457
 C9 C 0.07605 0.20432 0.10314
 H10 H 0.04038 0.18288 0.16817
 H11 H 0.08120 0.21736 0.08176
 Cu12 Cu 0.09871 0.13228 0.16088
 Cu13 Cu 0.13044 0.16000 0.09319
 Cu14 Cu 0.16350 0.09547 0.13131
 N15 N 0.11763 0.09633 0.18229
 N16 N 0.14296 0.08204 0.17060
 C17 C 0.15067 0.05769 0.18948
 C18 C 0.12897 0.05652 0.21445
 C19 C 0.10837 0.08152 0.20902
 H20 H 0.17029 0.04171 0.18497
 H21 H 0.08795 0.08831 0.22328
 N22 N 0.18077 0.11266 0.09134
 N23 N 0.16818 0.13720 0.07687
 C24 C 0.18513 0.14310 0.05032
 C25 C 0.20963 0.12124 0.04785
 C26 C 0.20604 0.10232 0.07435
 H27 H 0.17981 0.16181 0.03389
 H28 H 0.22083 0.08254 0.08092
 H29 H 0.12253 0.11430 0.11159
 H30 H 0.15048 0.14307 0.13403
 N31 N 0.41005 0.81768 0.60974
 N32 N 0.42231 0.82967 0.63615
 C33 C 0.44738 0.81190 0.64499
 C34 C 0.45109 0.78740 0.62291
 C35 C 0.42686 0.79194 0.60087
 H36 H 0.46183 0.81650 0.66593
 H37 H 0.42184 0.77779 0.57978
 Cu38 Cu 0.40437 0.86751 0.65608
 Cu39 Cu 0.37336 0.83638 0.58867
 Cu40 Cu 0.34024 0.90321 0.62431
 N41 N 0.38535 0.90472 0.67610
 N42 N 0.36028 0.91856 0.66365
 C43 C 0.35233 0.94377 0.68197
 C44 C 0.37363 0.94595 0.70732
 C45 C 0.39421 0.92067 0.70273
 H46 H 0.33282 0.95961 0.67688
 H47 H 0.41419 0.91432 0.71766
 N48 N 0.32351 0.88399 0.58444
 N49 N 0.33621 0.85860 0.57095
 C50 C 0.31962 0.85114 0.54435
 C51 C 0.29517 0.87283 0.54076
 C52 C 0.29845 0.89333 0.56671
 H53 H 0.32497 0.83125 0.52883
 H54 H 0.28360 0.91347 0.57242
 H55 H 0.38132 0.88309 0.60599
 H56 H 0.35283 0.85577 0.62871
 N57 N 0.90095 0.67878 0.38054
 N58 N 0.91332 0.66500 0.35559
 C59 C 0.94085 0.68169 0.34723
 C60 C 0.94602 0.70750 0.36803
 C61 C 0.92008 0.70481 0.38888
 H62 H 0.95586 0.67543 0.32742
 H63 H 0.91506 0.72079 0.40838
 Cu64 Cu 0.89182 0.62724 0.33566
 Cu65 Cu 0.86023 0.66264 0.39934
 Cu66 Cu 0.83549 0.58429 0.37716
 N67 N 0.87781 0.58341 0.32349
 N68 N 0.85612 0.56658 0.33998
 C69 C 0.85036 0.53750 0.32604
 C70 C 0.86954 0.53592 0.29933
 C71 C 0.88673 0.56558 0.29856
 H72 H 0.83317 0.51907 0.33458
 H73 H 0.90390 0.57391 0.28085
 N74 N 0.81739 0.60684 0.41379
 N75 N 0.82634 0.63685 0.42185
 C76 C 0.80898 0.64570 0.44709
 C77 C 0.78786 0.62005 0.45534
 C78 C 0.79399 0.59584 0.43362
 H79 H 0.81161 0.66913 0.45853
 H80 H 0.78205 0.57206 0.43204
 H81 H 0.87392 0.61675 0.38907
 H82 H 0.84023 0.63171 0.36451
 N83 N 0.59359 0.32345 -0.11782
 N84 N 0.58088 0.33753 -0.14211
 C85 C 0.55240 0.32191 -0.14982
 C86 C 0.54694 0.29645 -0.12931
 C87 C 0.57374 0.29827 -0.10930
 H88 H 0.53709 0.32852 -0.16916
 H89 H 0.57889 0.28219 -0.09031
 Cu90 Cu 0.60338 0.37392 -0.16245
 Cu91 Cu 0.63572 0.33793 -0.10029
 Cu92 Cu 0.66339 0.41477 -0.12259
 N93 N 0.61915 0.41685 -0.17476
 N94 N 0.64224 0.43291 -0.15885
 C95 C 0.64896 0.46146 -0.17275
 C96 C 0.62895 0.46351 -0.19886
 C97 C 0.61027 0.43467 -0.19929
 H98 H 0.66740 0.47915 -0.16464
 H99 H 0.59208 0.42685 -0.21649
 N100 N 0.68178 0.39192 -0.08683
 N101 N 0.67172 0.36245 -0.07874
 C102 C 0.68959 0.35321 -0.05415
 C103 C 0.71220 0.37803 -0.04640
 C104 C 0.70641 0.40216 -0.06771
 H105 H 0.68625 0.33011 -0.04278
 H106 H 0.71936 0.42540 -0.06947
 H107 H 0.62398 0.38436 -0.10961
 H108 H 0.65573 0.36730 -0.13551
 C109 C -0.04748 0.30454 0.12119
 C110 C -0.05635 0.32115 0.09411
 C111 C -0.08110 0.34316 0.09584
 C112 C -0.09721 0.34858 0.12432
 C113 C -0.08786 0.33132 0.15073
 N114 N -0.06370 0.31000 0.14851
 C115 C -0.02161 0.28065 0.12095
 N116 N -0.02149 0.25827 0.14409
 C117 C 0.00138 0.23559 0.14575
 C118 C 0.02631 0.23451 0.12319
 C119 C 0.02687 0.25764 0.09931
 C120 C 0.00312 0.28071 0.09815
 H121 H -0.08761 0.35607 0.07496
 H122 H -0.09996 0.33460 0.17304
 H123 H -0.00020 0.21847 0.16468
 H124 H 0.04572 0.25822 0.08157
 H125 H -0.04487 0.31697 0.07169
 H126 H 0.00470 0.29861 0.07989
 C127 C 0.54892 0.69150 0.62298
 C128 C 0.55798 0.67390 0.59616
 C129 C 0.58274 0.65201 0.59834
 C130 C 0.59868 0.64768 0.62702
 C131 C 0.58908 0.66581 0.65320
 N132 N 0.56491 0.68704 0.65052
 C133 C 0.52318 0.71547 0.62210
 N134 N 0.52325 0.73917 0.64456
 C135 C 0.50060 0.76215 0.64539
 C136 C 0.47577 0.76218 0.62262
 C137 C 0.47497 0.73762 0.59950
 C138 C 0.49846 0.71427 0.59919
 H139 H 0.58948 0.63840 0.57764
 H140 H 0.60104 0.66334 0.67564
 H141 H 0.50232 0.78039 0.66378
 H142 H 0.45615 0.73616 0.58167
 H143 H 0.54669 0.67729 0.57357
 H144 H 0.49674 0.69530 0.58149
 C145 C 1.04857 0.80780 0.36798
 C146 C 1.06259 0.82098 0.34060
 C147 C 1.08682 0.84571 0.34308
 C148 C 1.09705 0.85748 0.37267
 C149 C 1.08223 0.84397 0.39942
 N150 N 1.05864 0.81991 0.39645
 C151 C 1.02261 0.78164 0.36693
 N152 N 1.00239 0.77783 0.39208
 C153 C 0.97798 0.75446 0.39300
 C154 C 0.97283 0.73288 0.36754
 C155 C 0.99373 0.73608 0.34156
 C156 C 1.01860 0.76028 0.34117
 H157 H 1.09773 0.85559 0.32192
 H158 H 1.08929 0.85271 0.42262
 H159 H 0.96285 0.75277 0.41373
 H160 H 0.99090 0.72006 0.32138
 H161 H 1.05471 0.81284 0.31747
 H162 H 1.03468 0.76172 0.32108
 C163 C 0.44321 0.19727 -0.13046
 C164 C 0.42751 0.18571 -0.15803
 C165 C 0.40435 0.15999 -0.15643
 C166 C 0.39683 0.14563 -0.12754
 C167 C 0.41298 0.15783 -0.10055
 N168 N 0.43556 0.18284 -0.10268
 C169 C 0.46890 0.22370 -0.13078
 N170 N 0.49094 0.22590 -0.10682
 C171 C 0.51566 0.24897 -0.10566
 C172 C 0.51937 0.27181 -0.12967
 C173 C 0.49646 0.27040 -0.15426
 C174 C 0.47124 0.24655 -0.15487
 H175 H 0.39241 0.15109 -0.17774
 H176 H 0.40806 0.14708 -0.07792
 H177 H 0.53232 0.24923 -0.08597
 H178 H 0.49800 0.28749 -0.17324
 H179 H 0.43347 0.19569 -0.18076
 H180 H 0.45373 0.24641 -0.17387
 C181 C 0.12235 -0.03905 0.31198
 C182 C 0.09293 -0.04994 0.32614
 C183 C 0.09306 -0.07523 0.34746
 C184 C 0.12228 -0.08983 0.35471
 C185 C 0.15116 -0.07816 0.34029
 N186 N 0.15043 -0.05360 0.31944
 C187 C 0.12354 -0.01338 0.28799
 N188 N 0.14882 -0.01213 0.26727
 C189 C 0.15129 0.01005 0.24402
 C190 C 0.12728 0.03290 0.24048
 C191 C 0.10139 0.03250 0.26208
 C192 C 0.09948 0.00957 0.28582
 H193 H 0.07030 -0.08370 0.35810
 H194 H 0.17410 -0.08909 0.34504
 H195 H 0.17197 0.00954 0.22834
 H196 H 0.08237 0.04968 0.26067
 H197 H 0.06987 -0.03986 0.32028
 H198 H 0.07949 0.01020 0.30233
 C199 C 0.62906 0.56197 -0.29335
 C200 C 0.65778 0.57811 -0.30410
 C201 C 0.65617 0.59936 -0.32916
 C202 C 0.62615 0.60456 -0.34358
 C203 C 0.59800 0.58822 -0.33205
 N204 N 0.60017 0.56745 -0.30774
 C205 C 0.62945 0.53787 -0.26796
 N206 N 0.60501 0.51449 -0.26682
 C207 C 0.60409 0.49091 -0.24487
 C208 C 0.62888 0.48989 -0.22215
 C209 C 0.65390 0.51426 -0.22243
 C210 C 0.65425 0.53825 -0.24516
 H211 H 0.67838 0.61152 -0.33756
 H212 H 0.57448 0.59140 -0.34285
 H213 H 0.58399 0.47303 -0.24536
 H214 H 0.67350 0.51471 -0.20540
 H215 H 0.68140 0.57380 -0.29406
 H216 H 0.67363 0.55690 -0.24457
 C217 C 0.37724 1.04313 0.80576
 C218 C 0.40642 1.05631 0.81904
 C219 C 0.40520 1.08082 0.84172
 C220 C 0.37510 1.09241 0.85117
 C221 C 0.34652 1.07877 0.83731
 N222 N 0.34829 1.05494 0.81516
 C223 C 0.37708 1.01753 0.78109
 N224 N 0.35115 1.01427 0.76110
 C225 C 0.34941 0.99166 0.73761
 C226 C 0.37481 0.97039 0.73319
 C227 C 0.40150 0.97299 0.75392
 C228 C 0.40270 0.99635 0.77784
 H229 H 0.42776 1.09085 0.85188
 H230 H 0.32290 1.08739 0.84379
 H231 H 0.32811 0.99039 0.72258
 H232 H 0.42167 0.95719 0.75167
 H233 H 0.43003 1.04844 0.81164
 H234 H 0.42332 0.99736 0.79374
 C235 C 0.87151 0.43584 0.20412
 C236 C 0.84302 0.41923 0.19298
 C237 C 0.84500 0.39760 0.16774
 C238 C 0.87518 0.39244 0.15356
 C239 C 0.90311 0.40923 0.16550
 N240 N 0.90057 0.43041 0.18995
 C241 C 0.87065 0.46037 0.22969
 N242 N 0.89451 0.48437 0.23095
 C243 C 0.89491 0.50837 0.25307
 C244 C 0.87019 0.50916 0.27585
 C245 C 0.84579 0.48418 0.27544
 C246 C 0.84594 0.45979 0.25252
 H247 H 0.82296 0.38510 0.15900
 H248 H 0.92674 0.40608 0.15487
 H249 H 0.91455 0.52674 0.25271
 H250 H 0.82626 0.48359 0.29251
 H251 H 0.81929 0.42349 0.20287
 H252 H 0.82702 0.44068 0.25296
 C253 C 0.30452 0.11416 -0.05176
 C254 C 0.31929 0.08574 -0.06160
 C255 C 0.34198 0.08706 -0.08603
 C256 C 0.34989 0.11648 -0.10084
 C257 C 0.33426 0.14417 -0.09066
 N258 N 0.31229 0.14233 -0.06681
 C259 C 0.28031 0.11458 -0.02592
 N260 N 0.26016 0.13977 -0.02394
 C261 C 0.23753 0.14235 -0.00085
 C262 C 0.23422 0.11866 0.02242
 C263 C 0.25497 0.09260 0.02101
 C264 C 0.27801 0.09050 -0.00296
 H265 H 0.35355 0.06517 -0.09324
 H266 H 0.33942 0.16722 -0.10177
 H267 H 0.22245 0.16309 -0.00073
 H268 H 0.25354 0.07374 0.03836
 H269 H 0.31326 0.06262 -0.05105
 H270 H 0.29409 0.07052 -0.00293
 C271 C 0.69359 0.61821 0.55593
 C272 C 0.68085 0.58991 0.57025
 C273 C 0.65809 0.59224 0.59439
 C274 C 0.64811 0.62260 0.60454
 C275 C 0.66171 0.65030 0.58999
 N276 N 0.68381 0.64745 0.56645
 C277 C 0.71776 0.61739 0.53010
 N278 N 0.73663 0.64458 0.52419
 C279 C 0.75912 0.64597 0.50075
 C280 C 0.76361 0.61886 0.48128
 C281 C 0.74418 0.59065 0.48684
 C282 C 0.72126 0.58983 0.51102
 H283 H 0.64815 0.57034 0.60511
 H284 H 0.65489 0.67415 0.59747
 H285 H 0.77325 0.66837 0.49744
 H286 H 0.74637 0.56912 0.47248
 H287 H 0.68857 0.56621 0.56341
 H288 H 0.70614 0.56799 0.51411
 C289 C 0.80872 0.37845 0.05239
 C290 C 0.82204 0.40676 0.06699
 C291 C 0.84471 0.40440 0.09117
 C292 C 0.85407 0.37400 0.10109
 C293 C 0.84004 0.34629 0.08616
 N294 N 0.81797 0.34917 0.06261
 C295 C 0.78430 0.37941 0.02677
 N296 N 0.76428 0.35278 0.02109
 C297 C 0.74123 0.35175 -0.00194
 C298 C 0.73730 0.37868 -0.02114
 C299 C 0.75801 0.40624 -0.01589
 C300 C 0.78150 0.40668 0.00784
 H301 H 0.85498 0.42631 0.10221
 H302 H 0.84639 0.32243 0.09345
 H303 H 0.72614 0.32982 -0.00509
 H304 H 0.75633 0.42757 -0.03007
 H305 H 0.81472 0.43052 0.06040
 H306 H 0.79753 0.42801 0.01075
 C307 C 0.19769 0.87555 0.44303
 C308 C 0.18662 0.84791 0.42588
 C309 C 0.16200 0.85039 0.40354
 C310 C 0.14818 0.88021 0.39828
 C311 C 0.15976 0.90723 0.41595
 N312 N 0.18375 0.90423 0.43766
 C313 C 0.22339 0.87424 0.46742
 N314 N 0.22480 0.89716 0.49067
 C315 C 0.24742 0.89736 0.51408
 C316 C 0.27064 0.87342 0.51504
 C317 C 0.26993 0.84991 0.49092
 C318 C 0.24655 0.85028 0.46714
 H319 H 0.15369 0.82901 0.39035
 H320 H 0.14942 0.93056 0.41275
 H321 H 0.24702 0.91621 0.53186
 H322 H 0.28737 0.83110 0.49020
 H323 H 0.19622 0.82442 0.42998
 H324 H 0.24710 0.83221 0.44860
   
