data_POSCAR
  _audit_creation_date              2014-09-24
  _audit_creation_method            'ToBaCCo'
  _symmetry_space_group_name_H-M    'P1'
  _symmetry_Int_Tables_number       1
  _symmetry_cell_setting            triclinic
  loop_
  _symmetry_equiv_pos_as_xyz
 x,y,z
_cell_length_a 26.7006
_cell_length_b 27.3974
_cell_length_c 12.5603
_cell_angle_alpha 90.032400
_cell_angle_beta 94.697500
_cell_angle_gamma 91.671500
loop_
  _atom_site_label
  _atom_site_type_symbol
  _atom_site_fract_x
  _atom_site_fract_y
  _atom_site_fract_z
C1 C 1.31215 0.21089 0.26759
 C2 C 1.26521 0.23159 0.26364
 C3 C 1.22208 0.20189 0.27500
 C4 C 1.22620 0.15100 0.28781
 C5 C 1.27450 0.13061 0.29126
 C6 C 1.31735 0.16110 0.28119
 C7 C 1.26284 0.28466 0.24920
 C8 C 1.28676 0.30800 0.16617
 C9 C 1.28559 0.35883 0.15619
 C10 C 1.26171 0.38614 0.22910
 C11 C 1.23680 0.36301 0.30889
 C12 C 1.23777 0.31246 0.32014
 H13 H 1.34542 0.23398 0.26011
 H14 H 1.18548 0.21817 0.27011
 H15 H 1.30462 0.28667 0.10802
 H16 H 1.21708 0.29483 0.38094
 H17 H 1.27838 0.09149 0.29889
 H18 H 1.25776 0.42509 0.21696
 C19 C 0.79822 -0.31762 0.31114
 C20 C 0.75080 -0.29773 0.31566
 C21 C 0.70788 -0.32888 0.29509
 C22 C 0.71393 -0.37739 0.26098
 C23 C 0.76114 -0.39277 0.24023
 C24 C 0.80235 -0.36168 0.26018
 C25 C 0.74807 -0.24364 0.31890
 C26 C 0.78750 -0.21487 0.27890
 C27 C 0.78730 -0.16425 0.28180
 C28 C 0.74538 -0.14168 0.31695
 C29 C 0.70434 -0.16919 0.35041
 C30 C 0.70615 -0.22020 0.35434
 H31 H 0.83237 -0.29640 0.33318
 H32 H 0.67047 -0.31485 0.29581
 H33 H 0.81846 -0.23123 0.24328
 H34 H 0.67519 -0.24108 0.38381
 H35 H 0.76515 -0.42763 0.20124
 H36 H 0.74423 -0.10217 0.31663
 C37 C 0.80593 0.21566 -0.16632
 C38 C 0.76179 0.24033 -0.19783
 C39 C 0.71578 0.21398 -0.22062
 C40 C 0.71428 0.16290 -0.21130
 C41 C 0.75851 0.13912 -0.17879
 C42 C 0.80417 0.16489 -0.15707
 C43 C 0.76421 0.29363 -0.20923
 C44 C 0.79120 0.31520 -0.28937
 C45 C 0.78879 0.36553 -0.30733
 C46 C 0.76097 0.39423 -0.24368
 C47 C 0.73375 0.37292 -0.16480
 C48 C 0.73585 0.32272 -0.14646
 H49 H 0.84119 0.23586 -0.14953
 H50 H 0.68198 0.23299 -0.24687
 H51 H 0.81113 0.29257 -0.34169
 H52 H 0.71268 0.30596 -0.08881
 H53 H 0.75762 0.09965 -0.17240
 H54 H 0.75635 0.43257 -0.26236
 C55 C 1.29290 -0.30620 -0.19012
 C56 C 1.24847 -0.28240 -0.17273
 C57 C 1.20265 -0.30956 -0.18458
 C58 C 1.20170 -0.35792 -0.22035
 C59 C 1.24594 -0.37783 -0.25329
 C60 C 1.29070 -0.35069 -0.24208
 C61 C 1.25008 -0.22834 -0.16166
 C62 C 1.29100 -0.20115 -0.19869
 C63 C 1.29259 -0.15057 -0.19646
 C64 C 1.25106 -0.12610 -0.16385
 C65 C 1.20874 -0.15220 -0.13178
 C66 C 1.20928 -0.20311 -0.12611
 H67 H 1.32953 -0.28871 -0.17336
 H68 H 1.16714 -0.29302 -0.17421
 H69 H 1.32126 -0.21838 -0.23460
 H70 H 1.17756 -0.22241 -0.09600
 H71 H 1.24508 -0.41288 -0.29352
 H72 H 1.25104 -0.08658 -0.16638
 C73 C 0.18529 0.28118 0.70246
 C74 C 0.22170 0.24750 0.73901
 C75 C 0.20726 0.20967 0.80710
 C76 C 0.15792 0.20700 0.84019
 C77 C 0.12339 0.24278 0.80707
 C78 C 0.13740 0.28079 0.74033
 C79 C 0.27511 0.25694 0.71395
 C80 C 0.29180 0.30575 0.70710
 C81 C 0.33760 0.31842 0.66874
 C82 C 0.37077 0.28177 0.64519
 C83 C 0.35733 0.23211 0.65965
 C84 C 0.30876 0.21985 0.69269
 H85 H 0.19467 0.30920 0.64609
 H86 H 0.23482 0.18413 0.83901
 H87 H 0.26820 0.33506 0.72910
 H88 H 0.29682 0.18193 0.69870
 H89 H 0.08645 0.24230 0.83704
 H90 H 0.40689 0.29164 0.61663
 C91 C 0.69679 0.78869 0.70403
 C92 C 0.73046 0.75028 0.69265
 C93 C 0.71721 0.70353 0.72736
 C94 C 0.67337 0.69429 0.77584
 C95 C 0.63928 0.73185 0.78590
 C96 C 0.65038 0.77940 0.74907
 C97 C 0.78342 0.75723 0.66470
 C98 C 0.81549 0.79205 0.72082
 C99 C 0.86807 0.78639 0.72918
 C100 C 0.88801 0.74653 0.68053
 C101 C 0.85701 0.71245 0.62231
 C102 C 0.80514 0.71913 0.60945
 H103 H 0.70744 0.82558 0.68225
 H104 H 0.74367 0.67423 0.72649
 H105 H 0.79962 0.82036 0.76681
 H106 H 0.78131 0.69148 0.56739
 H107 H 0.60570 0.72487 0.82712
 H108 H 0.92810 0.74081 0.69190
 C109 C 0.68059 0.29927 0.21127
 C110 C 0.71120 0.25864 0.23671
 C111 C 0.68920 0.21841 0.28861
 C112 C 0.63919 0.22044 0.31741
 C113 C 0.61193 0.26248 0.29813
 C114 C 0.63186 0.30174 0.24462
 C115 C 0.76524 0.25993 0.20851
 C116 C 0.78915 0.30593 0.19387
 C117 C 0.83730 0.30966 0.15871
 C118 C 0.86319 0.26768 0.14097
 C119 C 0.84411 0.22198 0.16728
 C120 C 0.79434 0.21742 0.19896
 H121 H 0.69354 0.32870 0.16231
 H122 H 0.71044 0.18619 0.30824
 H123 H 0.77173 0.33934 0.21469
 H124 H 0.77879 0.18145 0.21394
 H125 H 0.57357 0.26361 0.32022
 H126 H 0.90141 0.27105 0.11799
 C127 C 0.17472 0.77890 0.19253
 C128 C 0.21194 0.74465 0.17838
 C129 C 0.20808 0.69836 0.22489
 C130 C 0.16981 0.68596 0.28824
 C131 C 0.13242 0.72030 0.30370
 C132 C 0.13456 0.76708 0.25472
 C133 C 0.26057 0.75794 0.13596
 C134 C 0.28842 0.79854 0.17938
 C135 C 0.34104 0.79951 0.18502
 C136 C 0.36568 0.76005 0.14229
 C137 C 0.33768 0.72085 0.09129
 C138 C 0.28535 0.72156 0.08348
 H139 H 0.17837 0.81535 0.15995
 H140 H 0.23754 0.67228 0.21904
 H141 H 0.26986 0.82654 0.22116
 H142 H 0.26404 0.69008 0.05020
 H143 H 0.10315 0.71154 0.35597
 H144 H 0.40632 0.75911 0.15123
 O145 O 1.07442 -0.08132 0.28757
 O146 O 1.03152 -0.13079 0.16125
 C147 C 1.06091 -0.12422 0.24811
 O148 O 0.89970 0.06250 0.22449
 O149 O 0.95558 0.11899 0.16384
 C150 C 0.91345 0.10699 0.20453
 O151 O 0.89908 -0.06988 0.22284
 O152 O 0.94248 -0.12432 0.12907
 C153 C 0.90623 -0.11336 0.18855
 O154 O 1.10263 0.05466 0.27861
 O155 O 1.05542 0.11544 0.19986
 C156 C 1.09523 0.10043 0.25633
 Zr157 Zr 1.05743 -0.00865 0.23548
 O158 O 1.04231 -0.00352 0.39781
 O159 O 1.13283 -0.01907 0.29434
 Zr160 Zr 0.93436 -0.00341 0.18996
 O161 O 0.93830 -0.00570 0.35851
 O162 O 0.85490 -0.00486 0.18188
 O163 O 0.99192 -0.05168 0.22385
 O164 O 0.99788 0.03806 0.24014
 O165 O 1.10991 0.06922 -0.04306
 O166 O 1.05874 0.12257 0.03384
 C167 C 1.09937 0.11259 -0.01112
 O168 O 0.91488 -0.05795 -0.15237
 O169 O 0.95445 -0.11848 -0.05463
 C170 C 0.92284 -0.10326 -0.13155
 O171 O 0.91655 0.07377 -0.11146
 O172 O 0.96455 0.12551 0.00147
 C173 C 0.92753 0.11656 -0.07070
 O174 O 1.09779 -0.06353 -0.08448
 O175 O 1.04722 -0.12181 -0.01211
 C176 C 1.08610 -0.10837 -0.06331
 Zr177 Zr 1.06958 0.00153 -0.03184
 O178 O 1.07000 0.01343 -0.19838
 O179 O 1.14869 -0.00351 -0.01937
 Zr180 Zr 0.94672 0.00530 -0.07754
 O181 O 0.96466 0.01693 -0.23693
 O182 O 0.86983 0.00580 -0.13305
 Zr183 Zr 0.99727 -0.07560 0.06478
 Zr184 Zr 1.00606 0.07233 0.09255
 O185 O 1.01144 0.04840 -0.06524
 O186 O 1.00651 -0.04116 -0.08332
 O187 O 1.07567 0.03765 0.11235
 O188 O 0.92811 -0.04040 0.04502
 O189 O 1.07054 -0.04572 0.09828
 O190 O 0.93268 0.04301 0.05981
 H191 H 0.99679 0.06049 0.30182
 H192 H 0.89609 -0.05922 0.02982
 H193 H 1.01537 0.07420 -0.11950
 H194 H 1.09976 -0.06709 0.10905
 H195 H 0.84321 0.00225 0.10696
 H196 H 0.85076 0.00728 -0.06897
 H197 H 0.96882 -0.01547 -0.26943
 H198 H 1.06094 -0.01805 -0.23474
 H199 H 1.15997 0.00180 0.05686
 H200 H 1.15257 -0.02124 0.23129
 H201 H 1.03074 -0.03640 0.41961
 H202 H 0.90325 -0.00328 0.37799
 O203 O 1.06694 0.56683 0.68366
 O204 O 1.12129 0.51593 0.60920
 C205 C 1.11129 0.54935 0.67555
 O206 O 0.90225 0.40958 0.56430
 O207 O 0.86353 0.46587 0.45222
 C208 C 0.86272 0.42802 0.51364
 O209 O 1.03922 0.39119 0.64193
 O210 O 1.10818 0.43341 0.58737
 C211 C 1.08743 0.39764 0.63758
 O212 O 0.93379 0.59277 0.59458
 O213 O 0.87802 0.55584 0.46910
 C214 C 0.89054 0.58981 0.53982
 Zr215 Zr 0.99752 0.55030 0.59260
 O216 O 0.97600 0.53655 0.74861
 O217 O 1.00984 0.62407 0.63949
 Zr218 Zr 0.97967 0.43048 0.56367
 O219 O 0.96644 0.43373 0.72696
 O220 O 0.96905 0.35365 0.56131
 O221 O 1.03161 0.48402 0.62199
 O222 O 0.94293 0.49568 0.57243
 O223 O 0.96277 0.59646 0.24314
 O224 O 0.89377 0.55538 0.29989
 C225 C 0.91514 0.58897 0.24455
 O226 O 1.07356 0.40983 0.27821
 O227 O 1.12494 0.44377 0.41561
 C228 C 1.11651 0.41591 0.33264
 O229 O 0.93533 0.41731 0.22072
 O230 O 0.87812 0.46612 0.29172
 C231 C 0.88967 0.42974 0.23298
 O232 O 1.09394 0.58380 0.32118
 O233 O 1.13488 0.53165 0.43931
 C234 C 1.13361 0.56979 0.37651
 Zr235 Zr 1.02001 0.55977 0.32927
 O236 O 1.03481 0.55583 0.16681
 O237 O 1.03132 0.63646 0.33817
 Zr238 Zr 1.00373 0.44022 0.30143
 O239 O 1.01259 0.45252 0.13736
 O240 O 0.99939 0.36439 0.26945
 Zr241 Zr 1.07335 0.48651 0.48622
 Zr242 Zr 0.92697 0.50450 0.40669
 O243 O 0.96954 0.50546 0.27321
 O244 O 1.05865 0.49560 0.32015
 O245 O 0.96773 0.57025 0.43979
 O246 O 1.03197 0.42096 0.45232
 O247 O 1.05119 0.55962 0.48579
 O248 O 0.94793 0.43083 0.40745
 H249 H 0.91433 0.49758 0.61774
 H250 H 1.04849 0.38902 0.45403
 H251 H 0.95191 0.50864 0.20104
 H252 H 1.07459 0.58746 0.50523
 H253 H 0.95249 0.34481 0.49035
 H254 H 0.98265 0.34894 0.32867
 H255 H 1.04787 0.46351 0.13111
 H256 H 1.04160 0.58983 0.14390
 H257 H 1.00884 0.64865 0.39042
 H258 H 1.01821 0.64221 0.57490
 H259 H 1.00604 0.52503 0.79174
 H260 H 0.95728 0.39991 0.74732
 O261 O 0.41862 -0.08170 0.32965
 O262 O 0.45955 -0.13293 0.45020
 C263 C 0.42929 -0.12499 0.36564
 O264 O 0.60502 0.05365 0.37958
 O265 O 0.55600 0.11169 0.44724
 C266 C 0.59373 0.09858 0.39558
 O267 O 0.59522 -0.07998 0.39177
 O268 O 0.54782 -0.13248 0.48801
 C269 C 0.58461 -0.12296 0.42784
 O270 O 0.41670 0.05354 0.31977
 O271 O 0.46494 0.11163 0.41649
 C272 C 0.43051 0.09832 0.34205
 Zr273 Zr 0.44455 -0.01184 0.38688
 O274 O 0.45798 -0.01535 0.22356
 O275 O 0.36554 -0.01653 0.35323
 Zr276 Zr 0.56892 -0.01156 0.42761
 O277 O 0.56584 -0.01623 0.25933
 O278 O 0.64822 -0.01545 0.44398
 O279 O 0.50590 -0.05695 0.39453
 O280 O 0.50907 0.03118 0.38086
 O281 O 0.40422 0.06841 0.67163
 O282 O 0.45811 0.11986 0.58950
 C283 C 0.41830 0.11148 0.64117
 O284 O 0.58384 -0.06904 0.76685
 O285 O 0.53982 -0.12719 0.66270
 C286 C 0.57233 -0.11424 0.74115
 O287 O 0.59893 0.06543 0.72619
 O288 O 0.55361 0.11854 0.61790
 C289 C 0.59063 0.10885 0.68821
 O290 O 0.40287 -0.06258 0.71218
 O291 O 0.44680 -0.12333 0.63905
 C292 C 0.41069 -0.10792 0.69446
 Zr293 Zr 0.43654 -0.00030 0.65330
 O294 O 0.44203 0.00851 0.82100
 O295 O 0.35715 0.00015 0.64717
 Zr296 Zr 0.56040 -0.00213 0.69475
 O297 O 0.54649 0.01056 0.85581
 O298 O 0.63753 -0.00526 0.74706
 Zr299 Zr 0.49955 -0.08080 0.55271
 Zr300 Zr 0.50576 0.06707 0.52795
 O301 O 0.49994 0.04367 0.68586
 O302 O 0.49559 -0.04554 0.70166
 O303 O 0.43215 0.03678 0.50903
 O304 O 0.57252 -0.04863 0.57105
 O305 O 0.42922 -0.04847 0.52414
 O306 O 0.57658 0.03555 0.55692
 H307 H 0.51208 0.05127 0.31596
 H308 H 0.60272 -0.06857 0.58431
 H309 H 0.49935 0.06968 0.74062
 H310 H 0.39830 -0.06943 0.51549
 H311 H 0.66026 0.00474 0.50677
 H312 H 0.65560 -0.01086 0.68272
 H313 H 0.53537 -0.02104 0.88543
 H314 H 0.40732 0.01323 0.84068
 H315 H 0.34434 -0.01176 0.57554
 H316 H 0.35082 0.00636 0.40216
 H317 H 0.42447 -0.01587 0.18327
 H318 H 0.60126 -0.01640 0.24126
 O319 O 0.54437 0.58309 0.18093
 O320 O 0.60519 0.53846 0.11103
 C321 C 0.59034 0.57065 0.17680
 O322 O 0.39585 0.41533 0.04478
 O323 O 0.35572 0.46904 -0.07150
 C324 C 0.35618 0.43092 -0.01074
 O325 O 0.53401 0.40822 0.13864
 O326 O 0.60177 0.45391 0.08862
 C327 C 0.58222 0.41752 0.13822
 O328 O 0.41641 0.60100 0.07922
 O329 O 0.36578 0.56325 -0.05408
 C330 C 0.37538 0.59764 0.01807
 Zr331 Zr 0.48167 0.56217 0.07770
 O332 O 0.45959 0.54564 0.23167
 O333 O 0.48947 0.63734 0.11622
 Zr334 Zr 0.47187 0.44172 0.05336
 O335 O 0.45407 0.44438 0.21392
 O336 O 0.46688 0.36450 0.05490
 O337 O 0.51935 0.49836 0.11378
 O338 O 0.43047 0.50460 0.05536
 O339 O 0.44914 0.60492 -0.27098
 O340 O 0.38164 0.55957 -0.21958
 C341 C 0.40144 0.59472 -0.27228
 O342 O 0.57271 0.42483 -0.22209
 O343 O 0.61956 0.46144 -0.08147
 C344 C 0.61437 0.43276 -0.16381
 O345 O 0.43498 0.42171 -0.28873
 O346 O 0.37487 0.47234 -0.23433
 C347 C 0.38931 0.43635 -0.29121
 O348 O 0.58434 0.59766 -0.18356
 O349 O 0.62497 0.54642 -0.06260
 C350 C 0.62409 0.58328 -0.12774
 Zr351 Zr 0.50963 0.57188 -0.18213
 O352 O 0.52684 0.56898 -0.34310
 O353 O 0.51788 0.64891 -0.17600
 Zr354 Zr 0.50035 0.45101 -0.20510
 O355 O 0.51079 0.46275 -0.36866
 O356 O 0.50210 0.37501 -0.23316
 Zr357 Zr 0.56392 0.50240 -0.01718
 Zr358 Zr 0.41761 0.51194 -0.11101
 O359 O 0.46336 0.51453 -0.23964
 O360 O 0.55169 0.50948 -0.18442
 O361 O 0.45419 0.57980 -0.07776
 O362 O 0.52714 0.43445 -0.05160
 O363 O 0.53784 0.57396 -0.02346
 O364 O 0.44265 0.43955 -0.10506
 H365 H 0.40052 0.50497 0.09709
 H366 H 0.54574 0.40367 -0.04675
 H367 H 0.44687 0.51690 -0.31301
 H368 H 0.56030 0.60242 -0.00324
 H369 H 0.45256 0.35393 -0.01679
 H370 H 0.48615 0.35888 -0.17370
 H371 H 0.54518 0.47669 -0.37296
 H372 H 0.53179 0.60334 -0.36546
 H373 H 0.49170 0.66082 -0.13188
 H374 H 0.49745 0.65448 0.05019
 H375 H 0.45742 0.57745 0.26829
 H376 H 0.44748 0.41006 0.23458
 N377 N 1.18205 0.11916 0.28499
 N378 N 1.13706 0.13442 0.27576
 N379 N 1.15453 0.61748 0.75372
 N380 N 1.15384 0.57253 0.72978
 N381 N 0.67024 0.13270 0.76099
 N382 N 0.62816 0.14631 0.71713
 N383 N 0.67301 0.59199 0.22118
 N384 N 0.62769 0.59884 0.23788
 N385 N 0.82879 -0.13449 0.25018
 N386 N 0.86899 -0.14967 0.21356
 N387 N 0.80404 0.38475 0.60571
 N388 N 0.81497 0.40490 0.52302
 N389 N 0.33446 -0.12320 0.76665
 N390 N 0.37373 -0.14141 0.73182
 N391 N 0.29966 0.38076 0.07120
 N392 N 0.31005 0.40387 -0.00819
 N393 N 0.84753 0.13710 -0.12815
 N394 N 0.89160 0.15326 -0.09715
 N395 N 0.84376 0.62935 0.21893
 N396 N 0.88397 0.62086 0.18417
 N397 N 0.36288 0.14483 0.28064
 N398 N 0.40757 0.13535 0.27795
 N399 N 0.32963 0.63631 -0.28973
 N400 N 0.36804 0.62568 -0.33069
 N401 N 1.16583 -0.12539 -0.10761
 N402 N 1.12279 -0.14312 -0.08722
 N403 N 1.19863 0.38853 0.35379
 N404 N 1.15690 0.38983 0.29828
 N405 N 0.66174 -0.14282 0.37726
 N406 N 0.62005 -0.15952 0.40750
 N407 N 0.69397 0.39921 -0.12629
 N408 N 0.65649 0.40703 -0.19224
 N409 N 1.14678 0.17621 -0.08490
 N410 N 1.13830 0.14966 -0.00889
 N411 N 1.17201 0.64320 0.33597
 N412 N 1.17632 0.60229 0.37714
 N413 N 0.61313 0.18025 0.36262
 N414 N 0.62447 0.13592 0.35231
 N415 N 0.66903 0.65203 -0.17687
 N416 N 0.66902 0.61189 -0.13251
 N417 N 0.90163 -0.18189 -0.20586
 N418 N 0.89192 -0.13719 -0.19566
 N419 N 0.86632 0.35408 0.16640
 N420 N 0.85124 0.39475 0.19850
 N421 N 0.36776 -0.16080 0.24189
 N422 N 0.40547 -0.16643 0.30958
 N423 N 0.34735 0.36494 -0.34639
 N424 N 0.35237 0.40952 -0.35710
 N425 N 1.10389 -0.19845 0.27936
 N426 N 1.07669 -0.16624 0.30991
 N427 N 1.10339 0.31927 0.71169
 N428 N 1.11985 0.36038 0.67935
 N429 N 0.62187 -0.18432 0.77377
 N430 N 0.59646 -0.15119 0.80671
 N431 N 0.59958 0.34108 0.21410
 N432 N 0.61609 0.38215 0.18271
 N433 N 0.87781 0.18227 0.16153
 N434 N 0.87754 0.14403 0.21883
 N435 N 0.87979 0.66851 0.59236
 N436 N 0.85801 0.62963 0.55343
 N437 N 0.39263 0.19508 0.63713
 N438 N 0.38591 0.15065 0.66409
 N439 N 0.36307 0.67746 0.06558
 N440 N 0.34254 0.63773 0.02663
   
