data_POSCAR
  _audit_creation_date              2014-09-24
  _audit_creation_method            'ToBaCCo'
  _symmetry_space_group_name_H-M    'P1'
  _symmetry_Int_Tables_number       1
  _symmetry_cell_setting            triclinic
  loop_
  _symmetry_equiv_pos_as_xyz
 x,y,z
_cell_length_a 41.4958
_cell_length_b 41.4384
_cell_length_c 15.2211
_cell_angle_alpha 89.962500
_cell_angle_beta 90.021500
_cell_angle_gamma 119.965100
loop_
  _atom_site_label
  _atom_site_type_symbol
  _atom_site_fract_x
  _atom_site_fract_y
  _atom_site_fract_z
O1 O 0.18851 0.44160 0.41778
 O2 O 0.25232 0.44113 0.58591
 O3 O 0.18893 0.44111 0.58712
 O4 O 0.25131 0.44057 0.41646
 O5 O 0.28253 0.50217 0.41669
 O6 O 0.21982 0.50271 0.58652
 O7 O 0.28293 0.50269 0.58634
 O8 O 0.22000 0.50318 0.41703
 Cu9 Cu 0.21714 0.43488 0.50188
 Cu10 Cu 0.25446 0.50888 0.50168
 C11 C 0.19305 0.47254 0.39038
 C12 C 0.27896 0.47191 0.61315
 C13 C 0.19319 0.47198 0.61390
 C14 C 0.27802 0.47127 0.38928
 O15 O 0.55822 -0.25453 0.41453
 O16 O 0.55963 -0.19046 0.58438
 O17 O 0.55799 -0.25467 0.58466
 O18 O 0.55956 -0.19050 0.41510
 O19 O 0.49806 -0.22035 0.41477
 O20 O 0.49652 -0.28419 0.58442
 O21 O 0.49814 -0.22024 0.58437
 O22 O 0.49676 -0.28410 0.41457
 Cu23 Cu 0.56505 -0.21959 0.49971
 Cu24 Cu 0.49120 -0.25523 0.49954
 C25 C 0.52720 -0.28065 0.38701
 C26 C 0.52911 -0.19397 0.61150
 C27 C 0.52693 -0.28080 0.61193
 C28 C 0.52904 -0.19407 0.38785
 O29 O 1.18986 0.74903 0.58210
 O30 O 1.25421 0.81249 0.41343
 O31 O 1.19004 0.74989 0.41277
 O32 O 1.25367 0.81182 0.58350
 O33 O 1.28347 0.78006 0.58239
 O34 O 1.21981 0.71809 0.41224
 O35 O 1.28371 0.78045 0.41258
 O36 O 1.22001 0.71760 0.58176
 Cu37 Cu 1.21898 0.78406 0.49796
 Cu38 Cu 1.25476 0.74588 0.49708
 C39 C 1.19363 0.72209 0.60904
 C40 C 1.28037 0.80765 0.38579
 C41 C 1.19356 0.72290 0.38542
 C42 C 1.27979 0.80685 0.61053
 O43 O 0.81038 0.56018 0.41730
 O44 O 0.74650 0.55963 0.58607
 O45 O 0.80960 0.55904 0.58664
 O46 O 0.74696 0.55986 0.41666
 O47 O 0.71639 0.49827 0.41503
 O48 O 0.77842 0.49744 0.58588
 O49 O 0.71562 0.49807 0.58480
 O50 O 0.77964 0.49859 0.41627
 Cu51 Cu 0.78146 0.56589 0.50187
 Cu52 Cu 0.74441 0.49190 0.50040
 C53 C 0.80634 0.52948 0.38973
 C54 C 0.71968 0.52879 0.61243
 C55 C 0.80511 0.52805 0.61340
 C56 C 0.72057 0.52915 0.38853
 O57 O 0.44166 0.18733 0.58613
 O58 O 0.44043 0.25079 0.41780
 O59 O 0.44156 0.18801 0.41607
 O60 O 0.44062 0.25023 0.58707
 O61 O 0.50213 0.28167 0.58698
 O62 O 0.50305 0.21970 0.41592
 O63 O 0.50193 0.28223 0.41740
 O64 O 0.50312 0.21900 0.58581
 Cu65 Cu 0.43486 0.21586 0.50184
 Cu66 Cu 0.50873 0.25379 0.50155
 C67 C 0.47265 0.19198 0.61318
 C68 C 0.47098 0.27775 0.39062
 C69 C 0.47252 0.19292 0.38835
 C70 C 0.47122 0.27706 0.61423
 O71 O 0.74919 0.18918 0.41861
 O72 O 0.81280 0.25302 0.58703
 O73 O 0.74922 0.18995 0.58794
 O74 O 0.81229 0.25271 0.41764
 O75 O 0.78134 0.28334 0.41655
 O76 O 0.71889 0.22121 0.58776
 O77 O 0.78223 0.28401 0.58630
 O78 O 0.71843 0.22001 0.41819
 Cu79 Cu 0.78398 0.21810 0.50288
 Cu80 Cu 0.74715 0.25526 0.50213
 C81 C 0.72250 0.19324 0.39147
 C82 C 0.80886 0.27987 0.61367
 C83 C 0.72285 0.19448 0.61510
 C84 C 0.80796 0.27916 0.38978
 N85 N 0.96015 0.53865 0.09351
 N86 N 0.93349 0.54654 0.10921
 N87 N 1.03843 0.55557 0.15437
 N88 N 1.06490 0.57408 0.21249
 N89 N 1.03860 0.57809 0.09338
 N90 N 1.06537 0.61265 0.10829
 N91 N 0.96038 0.51623 0.15422
 N92 N 0.93410 0.50835 0.21288
 C93 C 0.91740 0.52715 0.18358
 C94 C 1.08158 0.60948 0.18251
 N95 N 1.03916 0.46377 0.09572
 N96 N 1.06567 0.45579 0.11258
 N97 N 0.96078 0.44701 0.15517
 N98 N 0.93435 0.42856 0.21347
 N99 N 0.96084 0.42433 0.09504
 N100 N 0.93433 0.38975 0.11068
 N101 N 1.03883 0.48640 0.15564
 N102 N 1.06497 0.49440 0.21478
 Mn103 Mn 0.99960 0.50130 0.15562
 C104 C 1.08161 0.47538 0.18673
 C105 C 0.91798 0.39305 0.18437
 N106 N 1.03868 0.57776 -0.09644
 N107 N 1.06520 0.61230 -0.11308
 N108 N 0.96055 0.51559 -0.15609
 N109 N 0.93402 0.50714 -0.21434
 N110 N 0.96031 0.53826 -0.09619
 N111 N 0.93346 0.54583 -0.11208
 N112 N 1.03856 0.55487 -0.15625
 N113 N 1.06482 0.57306 -0.21506
 Mn114 Mn 0.99944 0.55863 -0.00143
 C115 C 1.08132 0.60872 -0.18702
 C116 C 0.91727 0.52597 -0.18568
 N117 N 0.96081 0.42385 -0.09429
 N118 N 0.93425 0.38922 -0.10968
 N119 N 1.03891 0.48570 -0.15490
 N120 N 1.06538 0.49376 -0.21309
 N121 N 1.03923 0.46345 -0.09387
 N122 N 1.06609 0.45583 -0.10877
 N123 N 0.96083 0.44637 -0.15503
 N124 N 0.93449 0.42780 -0.21344
 Mn125 Mn 1.00003 0.44345 0.00065
 Mn126 Mn 0.99971 0.50063 -0.15633
 Cl127 Cl 0.99970 0.50102 -0.00036
 C128 C 0.91799 0.39234 -0.18390
 C129 C 1.08223 0.47521 -0.18301
 N130 N 0.48390 0.44474 -0.15538
 N131 N 0.49216 0.42626 -0.21299
 N132 N 0.42203 0.46135 -0.09631
 N133 N 0.38755 0.45349 -0.11267
 N134 N 0.44481 0.48377 -0.15673
 N135 N 0.42659 0.49179 -0.21565
 N136 N 0.46132 0.42218 -0.09487
 N137 N 0.45368 0.38765 -0.10952
 C138 C 0.47338 0.39085 -0.18306
 C139 C 0.39104 0.47296 -0.18708
 N140 N 0.44469 0.48409 0.15408
 N141 N 0.42636 0.49218 0.21246
 N142 N 0.46124 0.42233 0.09445
 N143 N 0.45334 0.38778 0.11057
 N144 N 0.48384 0.44510 0.15460
 N145 N 0.49183 0.42675 0.21336
 N146 N 0.42204 0.46165 0.09355
 N147 N 0.38756 0.45390 0.10908
 Mn148 Mn 0.44122 0.44147 -0.00079
 C149 C 0.39093 0.47344 0.18311
 C150 C 0.47289 0.39118 0.18463
 N151 N 0.51390 0.55311 -0.15692
 N152 N 0.50554 0.57124 -0.21535
 N153 N 0.57576 0.53698 -0.09579
 N154 N 0.61033 0.54502 -0.11141
 N155 N 0.55317 0.51421 -0.15594
 N156 N 0.57166 0.50623 -0.21419
 N157 N 0.53619 0.57594 -0.09647
 N158 N 0.54357 0.61036 -0.11212
 Mn159 Mn 0.49896 0.49894 -0.15703
 C160 C 0.52399 0.60677 -0.18621
 C161 C 0.60714 0.52535 -0.18513
 N162 N 0.55303 0.51465 0.15400
 N163 N 0.57152 0.50674 0.21239
 N164 N 0.53611 0.57623 0.09316
 N165 N 0.54375 0.61074 0.10890
 N166 N 0.51374 0.55348 0.15368
 N167 N 0.50558 0.57173 0.21212
 N168 N 0.57560 0.53725 0.09354
 N169 N 0.61015 0.54527 0.10903
 Mn170 Mn 0.49885 0.49932 0.15487
 Mn171 Mn 0.55632 0.55704 -0.00139
 Cl172 Cl 0.49883 0.49919 -0.00109
 C173 C 0.60695 0.52576 0.18301
 C174 C 0.52421 0.60728 0.18304
 N175 N 0.42425 -0.03965 0.09482
 N176 N 0.38976 -0.06639 0.11059
 N177 N 0.48581 0.03865 0.15515
 N178 N 0.49411 0.06527 0.21308
 N179 N 0.46335 0.03887 0.09465
 N180 N 0.45580 0.06581 0.10976
 N181 N 0.44696 -0.03948 0.15517
 N182 N 0.42864 -0.06591 0.21364
 C183 C 0.39314 -0.08261 0.18464
 C184 C 0.47545 0.08207 0.18358
 N185 N 0.57798 0.03932 0.09540
 N186 N 0.61244 0.06602 0.11148
 N187 N 0.51643 -0.03920 0.15549
 N188 N 0.50832 -0.06578 0.21357
 N189 N 0.53904 -0.03919 0.09514
 N190 N 0.54686 -0.06593 0.11039
 N191 N 0.55522 0.03897 0.15582
 N192 N 0.57348 0.06524 0.21467
 Mn193 Mn 0.50108 -0.00028 0.15620
 C194 C 0.60899 0.08204 0.18576
 C195 C 0.52724 -0.08232 0.18414
 N196 N 0.46342 0.03900 -0.09495
 N197 N 0.45566 0.06578 -0.11086
 N198 N 0.44717 -0.03935 -0.15485
 N199 N 0.42899 -0.06591 -0.21299
 N200 N 0.42440 -0.03957 -0.09466
 N201 N 0.38999 -0.06648 -0.11015
 N202 N 0.48596 0.03880 -0.15518
 N203 N 0.49410 0.06525 -0.21365
 Mn204 Mn 0.44342 -0.00033 -0.00003
 C205 C 0.47528 0.08199 -0.18487
 C206 C 0.39351 -0.08272 -0.18389
 N207 N 0.53909 -0.03924 -0.09423
 N208 N 0.54699 -0.06593 -0.10968
 N209 N 0.55525 0.03894 -0.15471
 N210 N 0.57343 0.06548 -0.21293
 N211 N 0.57797 0.03923 -0.09428
 N212 N 0.61239 0.06611 -0.10980
 N213 N 0.51652 -0.03920 -0.15468
 N214 N 0.50854 -0.06567 -0.21296
 Mn215 Mn 0.55895 0.00005 0.00051
 Mn216 Mn 0.50122 -0.00021 -0.15562
 Cl217 Cl 0.50117 -0.00019 0.00027
 C218 C 0.52746 -0.08224 -0.18364
 C219 C 0.60889 0.08228 -0.18373
 C220 C 1.15196 0.48802 0.20391
 C221 C 1.16702 0.50850 0.29260
 C222 C 1.16471 0.47304 0.33089
 C223 C 1.15010 0.45251 0.24306
 C224 C 1.12478 0.45930 0.36292
 C225 C 1.12683 0.49474 0.32422
 C226 C 1.11209 0.47426 0.23632
 C227 C 1.10974 0.43879 0.27452
 H228 H 1.16279 0.49985 0.13787
 H229 H 1.19082 0.53724 0.30032
 H230 H 1.16004 0.43516 0.21028
 H231 H 1.11388 0.44754 0.42900
 H232 H 1.11713 0.51215 0.35767
 H233 H 1.08585 0.41012 0.26663
 C234 C 0.56089 0.67289 0.26714
 C235 C 0.54528 0.69846 0.23905
 C236 C 0.52650 0.69220 0.32942
 C237 C 0.54217 0.66717 0.35806
 C238 C 0.49090 0.65825 0.29455
 C239 C 0.50965 0.66393 0.20330
 C240 C 0.52532 0.63893 0.23247
 C241 C 0.50661 0.63298 0.32290
 H242 H 0.58967 0.67859 0.25541
 H243 H 0.56117 0.72572 0.20516
 H244 H 0.55585 0.66868 0.42168
 H245 H 0.46202 0.65229 0.30602
 H246 H 0.49628 0.66223 0.13897
 H247 H 0.49066 0.60592 0.35762
 C248 C 0.36699 -0.12672 0.32355
 C249 C 0.33294 -0.12517 0.35907
 C250 C 0.30772 -0.16562 0.32904
 C251 C 0.34154 -0.16745 0.29384
 C252 C 0.30184 -0.15234 0.23922
 C253 C 0.32758 -0.11142 0.26870
 C254 C 0.36140 -0.11321 0.23369
 C255 C 0.33622 -0.15363 0.20316
 H256 H 0.39393 -0.11608 0.35842
 H257 H 0.33140 -0.11339 0.42324
 H258 H 0.34721 -0.19067 0.30433
 H259 H 0.27472 -0.16321 0.20511
 H260 H 0.32217 -0.08804 0.25792
 H261 H 0.33794 -0.16497 0.13839
 C262 C 0.86500 0.54775 0.20604
 C263 C 0.82854 0.51284 0.23680
 C264 C 0.83483 0.52955 0.32963
 C265 C 0.87079 0.56443 0.29976
 C266 C 0.85689 0.51029 0.35601
 C267 C 0.85099 0.49357 0.26264
 C268 C 0.88695 0.52842 0.23282
 C269 C 0.89308 0.54509 0.32565
 H270 H 0.86865 0.56315 0.14375
 H271 H 0.80168 0.49960 0.20086
 H272 H 0.87876 0.59364 0.31547
 H273 H 0.85337 0.49492 0.41833
 H274 H 0.84316 0.46439 0.24693
 H275 H 0.91987 0.55834 0.36191
 C276 C 0.45559 0.34926 0.32733
 C277 C 0.43584 0.30754 0.30205
 C278 C 0.47070 0.30614 0.33063
 C279 C 0.49037 0.34755 0.35636
 C280 C 0.48683 0.31622 0.23723
 C281 C 0.45195 0.31809 0.20776
 C282 C 0.47169 0.35945 0.23395
 C283 C 0.50651 0.35803 0.26244
 H284 H 0.44276 0.36312 0.36409
 H285 H 0.40672 0.28653 0.31877
 H286 H 0.50624 0.35953 0.41792
 H287 H 0.49966 0.30230 0.20076
 H288 H 0.43616 0.30631 0.14599
 H289 H 0.53560 0.37914 0.24573
 C290 C 0.68182 0.13446 0.20816
 C291 C 0.68345 0.17099 0.23890
 C292 C 0.69397 0.16472 0.33166
 C293 C 0.69280 0.12867 0.30181
 C294 C 0.65273 0.14266 0.35828
 C295 C 0.64181 0.14855 0.26497
 C296 C 0.64063 0.11252 0.23517
 C297 C 0.65125 0.10639 0.32793
 H298 H 0.69347 0.13078 0.14581
 H299 H 0.69704 0.19789 0.20288
 H300 H 0.71401 0.12068 0.31738
 H301 H 0.64100 0.14623 0.42068
 H302 H 0.62049 0.15641 0.24937
 H303 H 0.63774 0.07957 0.36426
 C304 C 0.49327 0.12595 -0.32408
 C305 C 0.45778 0.12467 -0.35957
 C306 C 0.47326 0.16522 -0.32991
 C307 C 0.50879 0.16678 -0.29474
 C308 C 0.45419 0.15219 -0.23996
 C309 C 0.43876 0.11117 -0.26907
 C310 C 0.47426 0.11269 -0.23407
 C311 C 0.48975 0.15321 -0.20392
 H312 H 0.50937 0.11506 -0.35888
 H313 H 0.44438 0.11285 -0.42364
 H314 H 0.53769 0.18982 -0.30547
 H315 H 0.43814 0.16332 -0.20592
 H316 H 0.40996 0.08798 -0.25808
 H317 H 0.50289 0.16460 -0.13925
 C318 C 0.68027 0.54677 -0.20777
 C319 C 0.68248 0.51208 -0.23783
 C320 C 0.69249 0.52855 -0.33094
 C321 C 0.69081 0.56323 -0.30181
 C322 C 0.65117 0.50866 -0.35703
 C323 C 0.64072 0.49219 -0.26330
 C324 C 0.63898 0.52683 -0.23423
 C325 C 0.64916 0.54325 -0.32737
 H326 H 0.69189 0.56242 -0.14576
 H327 H 0.69651 0.49928 -0.20157
 H328 H 0.71160 0.59253 -0.31797
 H329 H 0.63929 0.49289 -0.41877
 H330 H 0.61977 0.46296 -0.24702
 H331 H 0.63519 0.55604 -0.36389
 C332 C 0.86616 0.31911 -0.20635
 C333 C 0.82939 0.31707 -0.23664
 C334 C 0.83582 0.30699 -0.32966
 C335 C 0.87205 0.30850 -0.30032
 C336 C 0.85739 0.34836 -0.35581
 C337 C 0.85140 0.35887 -0.26218
 C338 C 0.88763 0.36045 -0.23288
 C339 C 0.89385 0.35020 -0.32593
 H340 H 0.87009 0.30744 -0.14426
 H341 H 0.80258 0.30311 -0.20050
 H342 H 0.88042 0.28759 -0.31634
 H343 H 0.85360 0.36030 -0.41763
 H344 H 0.84324 0.37994 -0.24603
 H345 H 0.92060 0.36410 -0.36233
 C346 C 0.54823 -0.13458 -0.20572
 C347 C 0.51329 -0.17129 -0.23519
 C348 C 0.52950 -0.16531 -0.32847
 C349 C 0.56441 -0.12911 -0.29991
 C350 C 0.50999 -0.14346 -0.35461
 C351 C 0.49377 -0.14904 -0.26081
 C352 C 0.52864 -0.11285 -0.23234
 C353 C 0.54482 -0.10703 -0.32560
 H354 H 0.56394 -0.13059 -0.14383
 H355 H 0.50034 -0.19804 -0.19861
 H356 H 0.59352 -0.12111 -0.31642
 H357 H 0.49419 -0.14732 -0.41628
 H358 H 0.46469 -0.15692 -0.24431
 H359 H 0.55776 -0.08035 -0.36250
 C360 C 0.32623 0.43702 -0.27485
 C361 C 0.29988 0.45112 -0.24316
 C362 C 0.30617 0.47197 -0.33071
 C363 C 0.33200 0.45782 -0.36304
 C364 C 0.33944 0.50713 -0.29203
 C365 C 0.33370 0.48632 -0.20359
 C366 C 0.35949 0.47216 -0.23621
 C367 C 0.36552 0.49295 -0.32389
 H368 H 0.32115 0.40819 -0.26731
 H369 H 0.27256 0.43396 -0.21054
 H370 H 0.33114 0.44618 -0.42927
 H371 H 0.34476 0.53606 -0.29926
 H372 H 0.33475 0.49803 -0.13739
 H373 H 0.39267 0.51019 -0.35719
 C374 C 1.11020 0.67368 -0.27471
 C375 C 1.15070 0.69991 -0.24338
 C376 C 1.16504 0.69362 -0.33121
 C377 C 1.12499 0.66786 -0.36310
 C378 C 1.16679 0.66019 -0.29276
 C379 C 1.15199 0.66597 -0.20408
 C380 C 1.11200 0.64028 -0.23636
 C381 C 1.12650 0.63421 -0.32427
 H382 H 1.08660 0.67890 -0.26682
 H383 H 1.16102 0.72728 -0.21072
 H384 H 1.11416 0.66884 -0.42919
 H385 H 1.19029 0.65480 -0.30046
 H386 H 1.16274 0.66484 -0.13805
 H387 H 1.11643 0.60702 -0.35768
 C388 C 0.88849 0.56207 -0.27208
 C389 C 0.87325 0.54149 -0.36025
 C390 C 0.83341 0.52755 -0.32737
 C391 C 0.84821 0.54816 -0.23974
 C392 C 0.83142 0.49219 -0.28944
 C393 C 0.87152 0.50616 -0.32193
 C394 C 0.88647 0.52671 -0.23423
 C395 C 0.84670 0.51275 -0.20092
 H396 H 0.91232 0.59079 -0.26448
 H397 H 0.88387 0.55325 -0.42650
 H398 H 0.83823 0.56538 -0.20660
 H399 H 0.80767 0.46341 -0.29690
 H400 H 0.88127 0.48886 -0.35575
 H401 H 0.83618 0.50092 -0.13471
 C402 C 0.45590 0.34843 -0.32403
 C403 C 0.49063 0.34666 -0.35290
 C404 C 0.47105 0.30538 -0.32599
 C405 C 0.43624 0.30685 -0.29756
 C406 C 0.48742 0.31586 -0.23292
 C407 C 0.50701 0.35755 -0.25931
 C408 C 0.47223 0.35903 -0.23100
 C409 C 0.45257 0.31781 -0.20358
 H410 H 0.44299 0.36214 -0.36115
 H411 H 0.50635 0.35834 -0.41480
 H412 H 0.40709 0.28572 -0.31374
 H413 H 0.50033 0.30207 -0.19615
 H414 H 0.53612 0.37878 -0.24312
 H415 H 0.43694 0.30635 -0.14147
 C416 C 0.67371 0.11106 -0.26995
 C417 C 0.66832 0.12627 -0.35818
 C418 C 0.69421 0.16618 -0.32546
 C419 C 0.70007 0.15141 -0.23777
 C420 C 0.66091 0.16819 -0.28754
 C421 C 0.63479 0.12801 -0.31988
 C422 C 0.64045 0.11309 -0.23212
 C423 C 0.66624 0.15294 -0.19895
 H424 H 0.67860 0.08720 -0.26223
 H425 H 0.66943 0.11561 -0.42439
 H426 H 0.72727 0.16145 -0.20468
 H427 H 0.65587 0.19195 -0.29511
 H428 H 0.60776 0.11824 -0.35369
 H429 H 0.66497 0.16350 -0.13279
 C430 C 1.13462 0.45472 -0.20312
 C431 C 1.12890 0.43756 -0.29624
 C432 C 1.16489 0.47228 -0.32650
 C433 C 1.17111 0.48948 -0.23429
 C434 C 1.14289 0.49143 -0.35436
 C435 C 1.10668 0.45678 -0.32361
 C436 C 1.11274 0.47393 -0.23139
 C437 C 1.14871 0.50864 -0.26158
 H438 H 1.13086 0.43965 -0.14025
 H439 H 1.12097 0.40828 -0.31094
 H440 H 1.19795 0.50288 -0.19823
 H441 H 1.14651 0.50647 -0.41726
 H442 H 1.07991 0.44337 -0.35999
 H443 H 1.15649 0.53788 -0.24685
 C444 C 0.50932 0.66329 -0.20533
 C445 C 0.54497 0.69789 -0.24081
 C446 C 0.52615 0.69190 -0.33102
 C447 C 0.49053 0.65789 -0.29645
 C448 C 0.54174 0.66691 -0.36043
 C449 C 0.56051 0.67237 -0.26966
 C450 C 0.52493 0.63835 -0.23528
 C451 C 0.50616 0.63266 -0.32554
 H452 H 0.49599 0.66140 -0.14086
 H453 H 0.56091 0.72505 -0.20661
 H454 H 0.46167 0.65205 -0.30768
 H455 H 0.55537 0.66863 -0.42421
 H456 H 0.58927 0.67796 -0.25816
 H457 H 0.49018 0.60568 -0.36051
 C458 C 0.32795 -0.11153 -0.26697
 C459 C 0.33334 -0.12477 -0.35785
 C460 C 0.30834 -0.16540 -0.32870
 C461 C 0.30248 -0.15260 -0.23829
 C462 C 0.34232 -0.16713 -0.29439
 C463 C 0.36754 -0.12626 -0.32331
 C464 C 0.36191 -0.11326 -0.23290
 C465 C 0.33700 -0.15383 -0.20311
 H466 H 0.32239 -0.08832 -0.25523
 H467 H 0.33157 -0.11280 -0.42158
 H468 H 0.27536 -0.16381 -0.20400
 H469 H 0.34805 -0.19023 -0.30600
 H470 H 0.39445 -0.11530 -0.35845
 H471 H 0.33891 -0.16539 -0.13877
 C472 C 0.54808 -0.13452 0.20558
 C473 C 0.56428 -0.12915 0.29972
 C474 C 0.52942 -0.16542 0.32807
 C475 C 0.51318 -0.17131 0.23485
 C476 C 0.50982 -0.14370 0.35453
 C477 C 0.54461 -0.10720 0.32572
 C478 C 0.52841 -0.11294 0.23253
 C479 C 0.49358 -0.14919 0.26078
 H480 H 0.56379 -0.13038 0.14363
 H481 H 0.59340 -0.12114 0.31620
 H482 H 0.50029 -0.19801 0.19816
 H483 H 0.49402 -0.14772 0.41627
 H484 H 0.55749 -0.08057 0.36274
 H485 H 0.46450 -0.15707 0.24432
 C486 C 0.34869 0.45532 0.32469
 C487 C 0.34742 0.49015 0.35552
 C488 C 0.30620 0.47114 0.32893
 C489 C 0.30716 0.43623 0.29860
 C490 C 0.31671 0.48811 0.23638
 C491 C 0.35835 0.50713 0.26240
 C492 C 0.35932 0.47225 0.23213
 C493 C 0.31815 0.45317 0.20511
 H494 H 0.36214 0.44185 0.36064
 H495 H 0.35919 0.50530 0.41806
 H496 H 0.28584 0.40703 0.31397
 H497 H 0.30319 0.50157 0.20076
 H498 H 0.37977 0.53630 0.24703
 H499 H 0.30649 0.43798 0.14259
 C500 C 1.14808 0.64212 0.26033
 C501 C 1.17077 0.68368 0.23330
 C502 C 1.16486 0.69468 0.32579
 C503 C 1.14256 0.65350 0.35335
 C504 C 1.12902 0.69384 0.29609
 C505 C 1.13442 0.68238 0.20267
 C506 C 1.11225 0.64126 0.23067
 C507 C 1.10649 0.65236 0.32316
 H508 H 1.15556 0.62047 0.24517
 H509 H 1.19755 0.69694 0.19700
 H510 H 1.14611 0.64189 0.41601
 H511 H 1.12142 0.71540 0.31126
 H512 H 1.13071 0.69387 0.14003
 H513 H 1.07978 0.63918 0.35977
 C514 C 0.49321 0.12589 0.32232
 C515 C 0.50873 0.16669 0.29295
 C516 C 0.47313 0.16507 0.32759
 C517 C 0.45764 0.12450 0.35717
 C518 C 0.45426 0.15209 0.23744
 C519 C 0.48991 0.15322 0.20194
 C520 C 0.47440 0.11272 0.23217
 C521 C 0.43881 0.11108 0.26656
 H522 H 0.50927 0.11499 0.35741
 H523 H 0.53755 0.18981 0.30413
 H524 H 0.44410 0.11268 0.42112
 H525 H 0.43827 0.16326 0.20324
 H526 H 0.50319 0.16463 0.13738
 H527 H 0.41006 0.08786 0.25523
 C528 C 0.68005 0.54761 0.20555
 C529 C 0.69038 0.56373 0.29984
 C530 C 0.69230 0.52911 0.32824
 C531 C 0.68245 0.51296 0.23487
 C532 C 0.65095 0.50889 0.35404
 C533 C 0.64872 0.54344 0.32519
 C534 C 0.63875 0.52732 0.23185
 C535 C 0.64069 0.49273 0.26014
 H536 H 0.69161 0.56350 0.14377
 H537 H 0.71109 0.59297 0.31664
 H538 H 0.69672 0.50047 0.19844
 H539 H 0.63915 0.49289 0.41556
 H540 H 0.63454 0.55592 0.36197
 H541 H 0.61987 0.46352 0.24334
 C542 C 0.89392 0.35124 0.32662
 C543 C 0.85717 0.34894 0.35537
 C544 C 0.83611 0.30754 0.32954
 C545 C 0.87264 0.30954 0.30124
 C546 C 0.82980 0.31741 0.23616
 C547 C 0.85127 0.35922 0.26144
 C548 C 0.88778 0.36124 0.23326
 C549 C 0.86685 0.31989 0.20693
 H550 H 0.92055 0.36548 0.36345
 H551 H 0.85293 0.36071 0.41687
 H552 H 0.88119 0.28883 0.31807
 H553 H 0.80310 0.30310 0.19966
 H554 H 0.84285 0.38004 0.24461
 H555 H 0.87119 0.30835 0.14517
   
