data_POSCAR
  _audit_creation_date              2014-09-24
  _audit_creation_method            'ToBaCCo'
  _symmetry_space_group_name_H-M    'P1'
  _symmetry_Int_Tables_number       1
  _symmetry_cell_setting            triclinic
  loop_
  _symmetry_equiv_pos_as_xyz
 x,y,z
_cell_length_a 45.8338
_cell_length_b 25.0519
_cell_length_c 15.1285
_cell_angle_alpha 89.978600
_cell_angle_beta 89.850100
_cell_angle_gamma 90.089300
loop_
  _atom_site_label
  _atom_site_type_symbol
  _atom_site_fract_x
  _atom_site_fract_y
  _atom_site_fract_z
C1 C 0.74897 0.24830 0.45619
 C2 C 0.74901 0.24886 0.54604
 C3 C 0.72446 0.27205 0.59697
 C4 C 0.77382 0.22659 0.59625
 C5 C 0.77471 0.22986 0.40576
 C6 C 0.72329 0.26636 0.40545
 C7 C 0.71659 0.32543 0.58519
 C8 C 0.69193 0.34612 0.62703
 C9 C 0.67412 0.31401 0.68279
 C10 C 0.68353 0.26070 0.69740
 C11 C 0.70827 0.24027 0.65506
 C12 C 0.79211 0.26053 0.64454
 C13 C 0.81717 0.24041 0.68503
 C14 C 0.82415 0.18585 0.67858
 C15 C 0.80503 0.15170 0.63278
 C16 C 0.78013 0.17194 0.59184
 C17 C 0.77410 0.18035 0.36273
 C18 C 0.79928 0.16052 0.32211
 C19 C 0.82522 0.19049 0.32245
 C20 C 0.82546 0.24088 0.36316
 C21 C 0.80043 0.26025 0.40510
 C22 C 0.69695 0.23791 0.41016
 C23 C 0.67199 0.25762 0.36865
 C24 C 0.67296 0.30642 0.32303
 C25 C 0.69951 0.33429 0.31698
 C26 C 0.72460 0.31404 0.35709
 H27 H 0.72951 0.35113 0.54277
 H28 H 0.68789 0.38814 0.61704
 H29 H 0.67108 0.23266 0.73644
 H30 H 0.71411 0.19881 0.66493
 H31 H 0.78752 0.30288 0.64814
 H32 H 0.83155 0.26791 0.71885
 H33 H 0.76599 0.14518 0.55545
 H34 H 0.75440 0.15641 0.36310
 H35 H 0.79856 0.12171 0.29067
 H36 H 0.84527 0.26449 0.36478
 H37 H 0.80119 0.29851 0.43838
 H38 H 0.69565 0.20107 0.44747
 H39 H 0.65170 0.23566 0.37450
 H40 H 0.70074 0.37184 0.28166
 H41 H 0.74478 0.33649 0.35324
 H42 H 0.80939 0.10934 0.62813
 C43 C 0.25049 0.75265 0.45360
 C44 C 0.25081 0.75237 0.54332
 C45 C 0.22622 0.77454 0.59477
 C46 C 0.27571 0.72984 0.59274
 C47 C 0.27593 0.73414 0.40212
 C48 C 0.22467 0.77134 0.40423
 C49 C 0.22010 0.82928 0.59151
 C50 C 0.19528 0.84949 0.63326
 C51 C 0.17605 0.81522 0.67868
 C52 C 0.18285 0.76054 0.68409
 C53 C 0.20783 0.74045 0.64278
 C54 C 0.29411 0.76349 0.64125
 C55 C 0.31913 0.74305 0.68161
 C56 C 0.32597 0.68843 0.67482
 C57 C 0.30680 0.65462 0.62854
 C58 C 0.28194 0.67518 0.58777
 C59 C 0.27512 0.68444 0.35976
 C60 C 0.30019 0.66417 0.31923
 C61 C 0.32621 0.69390 0.31906
 C62 C 0.32663 0.74455 0.35884
 C63 C 0.30170 0.76436 0.40068
 C64 C 0.19900 0.74083 0.40365
 C65 C 0.17391 0.76036 0.36261
 C66 C 0.17405 0.81103 0.32275
 C67 C 0.19994 0.84117 0.32248
 C68 C 0.22517 0.82119 0.36221
 H69 H 0.23430 0.85613 0.55525
 H70 H 0.19104 0.89193 0.62940
 H71 H 0.16837 0.73297 0.71761
 H72 H 0.21226 0.69802 0.64542
 H73 H 0.28961 0.80585 0.64530
 H74 H 0.33355 0.77032 0.71579
 H75 H 0.26773 0.64862 0.55123
 H76 H 0.25538 0.66062 0.36087
 H77 H 0.29937 0.62516 0.28850
 H78 H 0.34651 0.76795 0.36003
 H79 H 0.30261 0.80272 0.43358
 H80 H 0.19833 0.70234 0.43624
 H81 H 0.15415 0.73661 0.36417
 H82 H 0.20058 0.88019 0.29168
 H83 H 0.24483 0.84523 0.36261
 H84 H 0.31105 0.61223 0.62358
 C85 C 0.25079 0.24736 -0.45480
 C86 C 0.24908 0.25183 -0.54447
 C87 C 0.27254 0.27753 -0.59715
 C88 C 0.22375 0.23010 -0.59331
 C89 C 0.22534 0.22823 -0.40324
 C90 C 0.27745 0.26282 -0.40509
 C91 C 0.28149 0.32979 -0.57875
 C92 C 0.30594 0.35144 -0.62080
 C93 C 0.32227 0.32133 -0.68274
 C94 C 0.31180 0.26974 -0.70429
 C95 C 0.28723 0.24838 -0.66228
 C96 C 0.20549 0.26409 -0.64120
 C97 C 0.18053 0.24404 -0.68263
 C98 C 0.17321 0.18922 -0.67708
 C99 C 0.19264 0.15525 -0.63134
 C100 C 0.21755 0.17544 -0.59052
 C101 C 0.22467 0.17603 -0.37054
 C102 C 0.19943 0.15609 -0.33023
 C103 C 0.17449 0.18860 -0.31915
 C104 C 0.17606 0.24201 -0.34900
 C105 C 0.20103 0.26122 -0.39162
 C106 C 0.30512 0.24474 -0.43202
 C107 C 0.33032 0.26445 -0.39194
 C108 C 0.32824 0.30081 -0.32184
 C109 C 0.30065 0.31614 -0.29071
 C110 C 0.27541 0.29748 -0.33236
 H111 H 0.26989 0.35341 -0.53009
 H112 H 0.31153 0.39223 -0.60489
 H113 H 0.32339 0.24378 -0.74921
 H114 H 0.28060 0.20787 -0.67728
 H115 H 0.21006 0.30649 -0.64409
 H116 H 0.16635 0.27253 -0.71458
 H117 H 0.23201 0.14835 -0.55616
 H118 H 0.24341 0.15019 -0.37877
 H119 H 0.19992 0.11551 -0.30579
 H120 H 0.15745 0.26840 -0.34468
 H121 H 0.20123 0.30162 -0.41721
 H122 H 0.30724 0.21655 -0.48587
 H123 H 0.35146 0.25163 -0.41592
 H124 H 0.29870 0.34408 -0.23639
 H125 H 0.25435 0.31158 -0.30977
 H126 H 0.18932 0.11254 -0.62867
 C127 C -0.24924 0.74682 -0.45453
 C128 C -0.24950 0.74770 -0.54432
 C129 C -0.22502 0.77117 -0.59513
 C130 C -0.27443 0.72578 -0.59466
 C131 C -0.27473 0.72756 -0.40387
 C132 C -0.22359 0.76546 -0.40413
 C133 C -0.21784 0.82512 -0.58530
 C134 C -0.19315 0.84616 -0.62675
 C135 C -0.17487 0.81372 -0.67968
 C136 C -0.18327 0.75983 -0.69214
 C137 C -0.20804 0.73900 -0.65042
 C138 C -0.29249 0.75981 -0.64314
 C139 C -0.31737 0.73989 -0.68515
 C140 C -0.32486 0.68514 -0.67951
 C141 C -0.30559 0.65108 -0.63322
 C142 C -0.28073 0.67118 -0.59180
 C143 C -0.27567 0.67485 -0.37362
 C144 C -0.30097 0.65475 -0.33404
 C145 C -0.32571 0.68752 -0.32140
 C146 C -0.32388 0.74138 -0.34890
 C147 C -0.29881 0.76085 -0.39071
 C148 C -0.19746 0.73646 -0.40663
 C149 C -0.17250 0.75635 -0.36515
 C150 C -0.17324 0.80591 -0.32183
 C151 C -0.19959 0.83443 -0.31821
 C152 C -0.22468 0.81403 -0.35827
 H153 H -0.23124 0.85087 -0.54451
 H154 H -0.18906 0.88834 -0.61830
 H155 H -0.17001 0.73230 -0.72969
 H156 H -0.21332 0.69712 -0.65849
 H157 H -0.28786 0.80220 -0.64591
 H158 H -0.33141 0.76847 -0.71745
 H159 H -0.26645 0.64409 -0.55674
 H160 H -0.25707 0.64883 -0.38303
 H161 H -0.30065 0.61380 -0.31132
 H162 H -0.34234 0.76802 -0.34332
 H163 H -0.29840 0.80162 -0.41459
 H164 H -0.19632 0.69897 -0.44210
 H165 H -0.15237 0.73387 -0.36921
 H166 H -0.20066 0.87258 -0.28472
 H167 H -0.24469 0.83696 -0.35622
 H168 H -0.30903 0.60842 -0.63035
 N169 N 0.03024 1.05862 0.15551
 N170 N 0.05287 1.06411 0.20830
 N171 N -0.03108 1.09523 0.09464
 N172 N -0.05384 1.12696 0.10436
 N173 N -0.03119 1.05779 0.15538
 N174 N -0.05412 1.06279 0.20765
 N175 N 0.03034 1.09576 0.09430
 N176 N 0.05311 1.12763 0.10394
 C177 C 0.06692 1.10741 0.17562
 C178 C -0.06800 1.10626 0.17528
 N179 N -0.03070 1.05771 -0.15702
 N180 N -0.05342 1.06265 -0.20970
 N181 N 0.03042 1.09562 -0.09636
 N182 N 0.05323 1.12741 -0.10569
 N183 N 0.03077 1.05786 -0.15654
 N184 N 0.05399 1.06255 -0.20773
 N185 N -0.03104 1.09477 -0.09572
 N186 N -0.05410 1.12580 -0.10482
 Mn187 Mn -0.00034 1.09608 -0.00081
 C188 C -0.06779 1.10538 -0.17654
 C189 C 0.06770 1.10630 -0.17558
 N190 N -0.03075 0.94309 0.15604
 N191 N -0.05366 0.93802 0.20828
 N192 N 0.03067 0.90634 0.09547
 N193 N 0.05338 0.87458 0.10545
 N194 N 0.03069 0.94392 0.15591
 N195 N 0.05351 0.93898 0.20827
 N196 N -0.03078 0.90589 0.09496
 N197 N -0.05377 0.87450 0.10400
 Mn198 Mn -0.00025 1.00086 0.15678
 C199 C -0.06779 0.89496 0.17531
 C200 C 0.06742 0.89540 0.17623
 N201 N 0.03071 0.94317 -0.15651
 N202 N 0.05350 0.93812 -0.20921
 N203 N -0.03046 0.90544 -0.09546
 N204 N -0.05298 0.87305 -0.10525
 N205 N -0.03071 0.94289 -0.15619
 N206 N -0.05350 0.93724 -0.20851
 N207 N 0.03098 0.90629 -0.09486
 N208 N 0.05407 0.87527 -0.10376
 Mn209 Mn 0.00001 1.00042 -0.15766
 Mn210 Mn 0.00011 0.90527 0.00003
 Cl211 Cl -0.00012 1.00066 -0.00042
 C212 C 0.06785 0.89552 -0.17572
 C213 C -0.06714 0.89336 -0.17616
 N214 N 0.53087 0.55775 0.15596
 N215 N 0.55370 0.56272 0.20810
 N216 N 0.46969 0.59535 0.09491
 N217 N 0.44707 0.62745 0.10399
 N218 N 0.46944 0.55832 0.15632
 N219 N 0.44652 0.56397 0.20844
 N220 N 0.53113 0.59469 0.09437
 N221 N 0.55423 0.62585 0.10312
 C222 C 0.56806 0.60547 0.17468
 C223 C 0.43284 0.60742 0.17524
 N224 N 0.46970 0.55667 -0.15648
 N225 N 0.44714 0.56209 -0.20968
 N226 N 0.53098 0.59382 -0.09615
 N227 N 0.55369 0.62569 -0.10649
 N228 N 0.53116 0.55587 -0.15598
 N229 N 0.55417 0.56054 -0.20804
 N230 N 0.46957 0.59399 -0.09555
 N231 N 0.44681 0.62568 -0.10549
 Mn232 Mn 0.50034 0.59518 -0.00062
 C233 C 0.43308 0.60538 -0.17725
 C234 C 0.56794 0.60444 -0.17663
 N235 N 0.46905 0.44368 0.15852
 N236 N 0.44585 0.43998 0.20993
 N237 N 0.53012 0.40520 0.09777
 N238 N 0.55255 0.37281 0.10786
 N239 N 0.53053 0.44303 0.15776
 N240 N 0.55339 0.43767 0.20988
 N241 N 0.46865 0.40641 0.09759
 N242 N 0.44506 0.37646 0.10573
 Mn243 Mn 0.49999 0.50071 0.15823
 C244 C 0.43112 0.39772 0.17653
 C245 C 0.56686 0.39353 0.17817
 N246 N 0.53053 0.44123 -0.15435
 N247 N 0.55348 0.43602 -0.20627
 N248 N 0.46887 0.40528 -0.09227
 N249 N 0.44617 0.37331 -0.10141
 N250 N 0.46926 0.44157 -0.15489
 N251 N 0.44701 0.43485 -0.20905
 N252 N 0.53045 0.40435 -0.09267
 N253 N 0.55347 0.37301 -0.10110
 Mn254 Mn 0.50016 0.49885 -0.15651
 Mn255 Mn 0.49952 0.40459 0.00261
 Cl256 Cl 0.50000 0.49983 0.00091
 C257 C 0.56757 0.39321 -0.17263
 C258 C 0.43280 0.39213 -0.17471
 C259 C 0.36015 0.32142 0.19990
 C260 C 0.34875 0.34144 0.28039
 C261 C 0.36514 0.38123 0.32448
 C262 C 0.39165 0.39953 0.29031
 C263 C 0.40286 0.37861 0.21142
 C264 C 0.38682 0.33962 0.16629
 H265 H 0.34830 0.29277 0.16044
 H266 H 0.35855 0.39696 0.38795
 H267 H 0.40367 0.42952 0.32681
 H268 H 0.39476 0.32342 0.10438
 C269 C -0.13415 0.87839 0.32142
 C270 C -0.14863 0.83430 0.28286
 C271 C -0.13576 0.81095 0.20708
 C272 C -0.10960 0.83063 0.17208
 C273 C -0.09548 0.87412 0.21156
 C274 C -0.10806 0.89789 0.28622
 H275 H -0.14196 0.89690 0.38149
 H276 H -0.14616 0.77853 0.17206
 H277 H -0.10052 0.81192 0.11365
 H278 H -0.09754 0.93137 0.31842
 C279 C 0.63527 0.61883 0.31707
 C280 C 0.64889 0.66513 0.28278
 C281 C 0.63517 0.69113 0.21100
 C282 C 0.60907 0.67170 0.17555
 C283 C 0.59578 0.62602 0.21093
 C284 C 0.60917 0.59976 0.28178
 H285 H 0.64380 0.59812 0.37411
 H286 H 0.64491 0.72554 0.17936
 H287 H 0.59932 0.69245 0.12020
 H288 H 0.59933 0.56450 0.31077
 C289 C 0.13362 1.12242 0.31953
 C290 C 0.14702 1.16895 0.28531
 C291 C 0.13324 1.19475 0.21348
 C292 C 0.10734 1.17475 0.17761
 C293 C 0.09432 1.12871 0.21267
 C294 C 0.10772 1.10277 0.28381
 H295 H 0.14219 1.10190 0.37671
 H296 H 0.14281 1.22937 0.18201
 H297 H 0.09756 1.19528 0.12209
 H298 H 0.09806 1.06729 0.31260
 C299 C 0.63458 0.37888 -0.31638
 C300 C 0.64876 0.33341 -0.28068
 C301 C 0.63514 0.30858 -0.20682
 C302 C 0.60895 0.32798 -0.17158
 C303 C 0.59534 0.37260 -0.20864
 C304 C 0.60847 0.39790 -0.28101
 H305 H 0.64228 0.39890 -0.37521
 H306 H 0.64495 0.27546 -0.17232
 H307 H 0.59946 0.30810 -0.11476
 H308 H 0.59833 0.43231 -0.31149
 C309 C 0.13253 0.87569 -0.32741
 C310 C 0.14850 0.83615 -0.28272
 C311 C 0.13761 0.81627 -0.20212
 C312 C 0.11132 0.83536 -0.16731
 C313 C 0.09552 0.87490 -0.21215
 C314 C 0.10643 0.89502 -0.29228
 H315 H 0.13994 0.89113 -0.39045
 H316 H 0.14955 0.78633 -0.16547
 H317 H 0.10348 0.81944 -0.10504
 H318 H 0.09463 0.92541 -0.32842
 C319 C 0.36938 0.62750 -0.33120
 C320 C 0.35336 0.66703 -0.28642
 C321 C 0.36395 0.68624 -0.20519
 C322 C 0.38994 0.66646 -0.16981
 C323 C 0.40576 0.62683 -0.21460
 C324 C 0.39520 0.60745 -0.29546
 H325 H 0.36222 0.61255 -0.39470
 H326 H 0.35197 0.71613 -0.16839
 H327 H 0.39752 0.68185 -0.10701
 H328 H 0.40703 0.57708 -0.33164
 C329 C -0.13758 1.18446 -0.20236
 C330 C -0.14831 1.16489 -0.28318
 C331 C -0.13221 1.12559 -0.32826
 C332 C -0.10614 1.10619 -0.29329
 C333 C -0.09541 1.12602 -0.21294
 C334 C -0.11134 1.16534 -0.16775
 H335 H -0.14962 1.21417 -0.16536
 H336 H -0.13949 1.11038 -0.39146
 H337 H -0.09424 1.07600 -0.32969
 H338 H -0.10364 1.18102 -0.10530
 C339 C 0.64038 0.61262 -0.29568
 C340 C 0.64822 0.66675 -0.28400
 C341 C 0.62903 0.69965 -0.23522
 C342 C 0.60324 0.67915 -0.19922
 C343 C 0.59546 0.62570 -0.21298
 C344 C 0.61418 0.59266 -0.26166
 H345 H 0.65369 0.58586 -0.33475
 H346 H 0.63431 0.74094 -0.22154
 H347 H 0.58918 0.70533 -0.16135
 H348 H 0.60862 0.55120 -0.27313
 C349 C 0.14081 1.11361 -0.29122
 C350 C 0.14843 1.16796 -0.28131
 C351 C 0.12898 1.20127 -0.23424
 C352 C 0.10307 1.18097 -0.19848
 C353 C 0.09546 1.12734 -0.21088
 C354 C 0.11449 1.09387 -0.25760
 H355 H 0.15435 1.08649 -0.32883
 H356 H 0.13408 1.24278 -0.22190
 H357 H 0.08878 1.20749 -0.16210
 H358 H 0.10907 1.05223 -0.26795
 C359 C 0.37391 0.35403 -0.33729
 C360 C 0.35488 0.32425 -0.28367
 C361 C 0.36140 0.31723 -0.19391
 C362 C 0.38696 0.33893 -0.15855
 C363 C 0.40592 0.36909 -0.21202
 C364 C 0.39907 0.37686 -0.30147
 H365 H 0.36908 0.36003 -0.40667
 H366 H 0.34692 0.29436 -0.15169
 H367 H 0.39173 0.33267 -0.08923
 H368 H 0.41339 0.39989 -0.34397
 C369 C -0.12904 0.79791 -0.22587
 C370 C -0.14636 0.82855 -0.28300
 C371 C -0.13757 0.88071 -0.30435
 C372 C -0.11169 0.90166 -0.27003
 C373 C -0.09442 0.87113 -0.21255
 C374 C -0.10343 0.81922 -0.19020
 H375 H -0.13549 0.75766 -0.20832
 H376 H -0.15048 0.90488 -0.34887
 H377 H -0.10528 0.94187 -0.28804
 H378 H -0.09050 0.79488 -0.14604
 C379 C 0.36241 0.61996 0.30421
 C380 C 0.35316 0.67138 0.28038
 C381 C 0.37014 0.70151 0.22120
 C382 C 0.39591 0.68045 0.18611
 C383 C 0.40538 0.62933 0.21096
 C384 C 0.38842 0.59927 0.27033
 H385 H 0.34978 0.59623 0.35038
 H386 H 0.36333 0.74118 0.20171
 H387 H 0.40859 0.70440 0.14040
 H388 H 0.39519 0.55966 0.29027
 C389 C -0.13835 1.11702 0.30531
 C390 C -0.14778 1.16859 0.28297
 C391 C -0.13094 1.19939 0.22434
 C392 C -0.10516 1.17888 0.18834
 C393 C -0.09551 1.12761 0.21174
 C394 C -0.11232 1.09687 0.27055
 H395 H -0.15086 1.09274 0.35100
 H396 H -0.13788 1.23917 0.20593
 H397 H -0.09259 1.20336 0.14310
 H398 H -0.10543 1.05714 0.28942
 C399 C 0.63769 0.38152 0.30432
 C400 C 0.64610 0.32901 0.28435
 C401 C 0.62840 0.29794 0.22888
 C402 C 0.60278 0.31917 0.19346
 C403 C 0.59414 0.37143 0.21445
 C404 C 0.61178 0.40241 0.27029
 H405 H 0.65092 0.40602 0.34757
 H406 H 0.63456 0.25741 0.21246
 H407 H 0.58954 0.29449 0.15056
 H408 H 0.60566 0.44289 0.28717
 C409 C 0.13753 0.88443 0.30639
 C410 C 0.14703 0.83294 0.28375
 C411 C 0.13029 0.80224 0.22503
 C412 C 0.10455 0.82278 0.18920
 C413 C 0.09485 0.87399 0.21281
 C414 C 0.11155 0.90462 0.27177
 H415 H 0.14997 0.90864 0.35214
 H416 H 0.13728 0.76252 0.20635
 H417 H 0.09208 0.79838 0.14384
 H418 H 0.10461 0.94431 0.29080
   
