data_POSCAR
  _audit_creation_date              2014-09-24
  _audit_creation_method            'ToBaCCo'
  _symmetry_space_group_name_H-M    'P1'
  _symmetry_Int_Tables_number       1
  _symmetry_cell_setting            triclinic
  loop_
  _symmetry_equiv_pos_as_xyz
 x,y,z
_cell_length_a 38.7313
_cell_length_b 38.9177
_cell_length_c 43.8379
_cell_angle_alpha 90.094900
_cell_angle_beta 89.870200
_cell_angle_gamma 121.618800
loop_
  _atom_site_label
  _atom_site_type_symbol
  _atom_site_fract_x
  _atom_site_fract_y
  _atom_site_fract_z
O1 O 0.04318 0.54645 1.27857
 O2 O -0.03655 0.51153 1.22023
 O3 O -0.03519 0.51160 1.27958
 O4 O 0.04204 0.54650 1.21911
 O5 O 0.03647 0.48712 1.21902
 O6 O -0.04158 0.45186 1.27880
 O7 O -0.04203 0.45226 1.21931
 O8 O 0.03701 0.48681 1.27828
 Cu9 Cu 0.00398 0.53500 1.24939
 Cu10 Cu -0.00319 0.46351 1.24880
 C11 C 0.05364 0.52259 1.28853
 C12 C -0.05291 0.47594 1.20959
 C13 C -0.05159 0.47575 1.28958
 C14 C 0.05256 0.52281 1.20876
 O15 O 0.45661 0.49604 1.28073
 O16 O 0.49037 0.45396 1.22058
 O17 O 0.49326 0.45595 1.28003
 O18 O 0.45481 0.49521 1.22108
 O19 O 0.51418 0.55224 1.22021
 O20 O 0.55268 0.51284 1.27810
 O21 O 0.54959 0.51108 1.21876
 O22 O 0.51598 0.55291 1.27944
 Cu23 Cu 0.46779 0.46959 1.25074
 Cu24 Cu 0.53904 0.53793 1.24900
 C25 C 0.48047 0.53165 1.29056
 C26 C 0.52569 0.47531 1.20927
 C27 C 0.52970 0.47781 1.28911
 C28 C 0.47807 0.53056 1.21058
 O29 O 0.51195 0.96398 1.27941
 O30 O 0.54780 1.04216 1.21985
 O31 O 0.54941 1.04211 1.27913
 O32 O 0.51136 0.96397 1.22000
 O33 O 0.45205 0.95916 1.22087
 O34 O 0.49071 1.03846 1.28007
 O35 O 0.48855 1.03749 1.22056
 O36 O 0.45296 0.95973 1.28035
 Cu37 Cu 0.53600 1.00345 1.24950
 Cu38 Cu 0.46515 0.99830 1.25060
 C39 C 0.47632 0.94845 1.29022
 C40 C 0.52423 1.05310 1.20990
 C41 C 0.52680 1.05384 1.28984
 C42 C 0.47534 0.94819 1.21020
 O43 O 0.96486 0.51264 0.72008
 O44 O 1.04488 0.54832 0.77823
 O45 O 1.04360 0.54795 0.71883
 O46 O 0.96637 0.51288 0.77950
 O47 O 0.96033 0.45331 0.77891
 O48 O 1.03808 0.48866 0.71859
 O49 O 1.03896 0.48879 0.77816
 O50 O 0.95952 0.45337 0.71946
 Cu51 Cu 1.00550 0.53639 0.74916
 Cu52 Cu 0.99868 0.46510 0.74874
 C53 C 0.94855 0.47694 0.70973
 C54 C 1.05546 0.52461 0.78831
 C55 C 1.05415 0.52435 0.70822
 C56 C 0.95015 0.47710 0.78964
 O57 O 0.48883 0.45126 0.72005
 O58 O 0.45421 0.49297 0.77955
 O59 O 0.45307 0.49234 0.72011
 O60 O 0.49159 0.45351 0.77953
 O61 O 0.55089 0.51054 0.77758
 O62 O 0.51237 0.54945 0.71929
 O63 O 0.51365 0.54993 0.77865
 O64 O 0.54792 0.50855 0.71833
 Cu65 Cu 0.46597 0.46677 0.74994
 Cu66 Cu 0.53712 0.53533 0.74835
 C67 C 0.52418 0.47276 0.70886
 C68 C 0.47799 0.52850 0.78940
 C69 C 0.47632 0.52767 0.70954
 C70 C 0.52800 0.47554 0.78867
 O71 O 0.54630 0.04095 0.71834
 O72 O 0.51115 -0.03718 0.77758
 O73 O 0.50873 -0.03749 0.71835
 O74 O 0.54891 0.04112 0.77770
 O75 O 0.49046 0.03808 0.77942
 O76 O 0.45009 -0.04106 0.72031
 O77 O 0.45262 -0.04042 0.77982
 O78 O 0.48750 0.03719 0.72001
 Cu79 Cu 0.53466 0.00223 0.74779
 Cu80 Cu 0.46427 -0.00193 0.75010
 C81 C 0.52289 0.05234 0.70891
 C82 C 0.47593 -0.05211 0.78893
 C83 C 0.47248 -0.05282 0.70906
 C84 C 0.52662 0.05307 0.78876
 O85 O 0.39991 0.65913 0.97474
 O86 O 0.39732 0.72357 0.96442
 C87 C 0.37823 0.74102 0.95840
 O88 O 0.34735 0.73471 0.97353
 O89 O 0.28096 0.66527 0.96422
 C90 C 0.26282 0.62785 0.95839
 O91 O 0.26861 0.60354 0.97366
 O92 O 0.33742 0.60811 0.96477
 C93 C 0.37513 0.62823 0.95931
 O94 O 0.39723 0.67067 1.03511
 O95 O 0.39862 0.73721 1.02479
 C96 C 0.37330 0.74165 1.04008
 O97 O 0.33567 0.72201 1.03436
 O98 O 0.26765 0.65416 1.02491
 C99 C 0.26215 0.62383 1.04008
 O100 O 0.28096 0.60598 1.03439
 O101 O 0.34812 0.60716 1.02567
 C102 C 0.37854 0.63327 1.04104
 Cr103 Cr 0.39605 0.69647 0.99976
 Cr104 Cr 0.30902 0.69300 0.99926
 Cr105 Cr 0.30986 0.60840 0.99962
 O106 O 0.33827 0.66593 0.99956
 O107 O 0.60489 0.34336 0.97200
 O108 O 0.60708 0.27815 0.96333
 C109 C 0.62662 0.26090 0.95817
 O110 O 0.65691 0.26750 0.97410
 O111 O 0.72386 0.33675 0.96601
 C112 C 0.74235 0.37421 0.96028
 O113 O 0.73609 0.39850 0.97521
 O114 O 0.66811 0.39480 0.96464
 C115 C 0.63084 0.37496 0.95770
 O116 O 0.60391 0.33197 1.03289
 O117 O 0.60286 0.26513 1.02419
 C118 C 0.62749 0.26021 1.03998
 O119 O 0.66534 0.27956 1.03492
 O120 O 0.73416 0.34711 1.02696
 C121 C 0.73945 0.37745 1.04201
 O122 O 0.72120 0.39566 1.03571
 O123 O 0.65481 0.39517 1.02511
 C124 C 0.62306 0.36924 1.03938
 Cr125 Cr 0.60696 0.30584 0.99815
 Cr126 Cr 0.69393 0.30881 1.00047
 Cr127 Cr 0.69389 0.39376 1.00015
 O128 O 0.66491 0.33615 0.99960
 O129 O 0.65377 0.39422 0.52462
 O130 O 0.71978 0.39427 0.53582
 C131 C 0.73826 0.37625 0.54191
 O132 O 0.73322 0.34618 0.52659
 O133 O 0.66419 0.27882 0.53454
 C134 C 0.62628 0.25933 0.53931
 O135 O 0.60175 0.26413 0.52327
 O136 O 0.60309 0.33094 0.53243
 C137 C 0.62214 0.36819 0.53892
 O138 O 0.66794 0.39420 0.46434
 O139 O 0.73561 0.39760 0.47550
 C140 C 0.74150 0.37325 0.46027
 O141 O 0.72266 0.33572 0.46569
 O142 O 0.65567 0.26661 0.47377
 C143 C 0.62571 0.26044 0.45761
 O144 O 0.60645 0.27800 0.46258
 O145 O 0.60448 0.34322 0.47168
 C146 C 0.63068 0.37470 0.45738
 Cr147 Cr 0.69314 0.39285 0.50004
 Cr148 Cr 0.69283 0.30788 0.50012
 Cr149 Cr 0.60617 0.30524 0.49755
 O150 O 0.66403 0.33533 0.49923
 O151 O 0.33667 0.60825 0.53413
 O152 O 0.26781 0.60319 0.52427
 C153 C 0.26085 0.62721 0.53892
 O154 O 0.27850 0.66452 0.53284
 O155 O 0.34468 0.73435 0.52462
 C156 C 0.37536 0.74160 0.54031
 O157 O 0.39555 0.72508 0.53490
 O158 O 0.39910 0.66072 0.52610
 C159 C 0.37406 0.62899 0.54065
 O160 O 0.34904 0.60792 0.47339
 O161 O 0.28159 0.60573 0.46357
 C162 C 0.26296 0.62353 0.45717
 O163 O 0.26805 0.65395 0.47198
 O164 O 0.33605 0.72227 0.46373
 C165 C 0.37385 0.74204 0.45847
 O166 O 0.39888 0.73763 0.47410
 O167 O 0.39907 0.67150 0.46536
 C168 C 0.38047 0.63420 0.45898
 Cr169 Cr 0.30989 0.60856 0.49885
 Cr170 Cr 0.30801 0.69272 0.49832
 Cr171 Cr 0.39585 0.69749 0.50008
 O172 O 0.33790 0.66623 0.49908
 C173 C 0.44193 0.57930 0.36104
 C174 C 0.41621 0.53921 0.35070
 C175 C 0.42897 0.52377 0.32719
 C176 C 0.46760 0.54745 0.31382
 C177 C 0.49315 0.58714 0.32443
 C178 C 0.48055 0.60287 0.34758
 C179 C 0.42696 0.59465 0.38610
 C180 C 0.44962 0.63444 0.39739
 C181 C 0.43441 0.64715 0.42087
 C182 C 0.39631 0.62058 0.43388
 C183 C 0.37339 0.58096 0.42263
 C184 C 0.38824 0.56797 0.39884
 C185 C 0.37798 0.51455 0.36402
 C186 C 0.36442 0.52852 0.38769
 H187 H 0.35829 0.48381 0.35618
 H188 H 0.33470 0.50812 0.39733
 H189 H 0.40874 0.49299 0.31957
 H190 H 0.52314 0.60635 0.31482
 H191 H 0.45277 0.67792 0.42898
 H192 H 0.34371 0.56019 0.43222
 H193 H 0.50167 0.63346 0.35469
 H194 H 0.47907 0.65629 0.38840
 C195 C 0.43634 0.86031 0.36034
 C196 C 0.40973 0.87133 0.34807
 C197 C 0.42311 0.90051 0.32489
 C198 C 0.46282 0.91890 0.31320
 C199 C 0.48881 0.90720 0.32512
 C200 C 0.47588 0.87847 0.34831
 C201 C 0.42112 0.82968 0.38556
 C202 C 0.44567 0.81788 0.40014
 C203 C 0.43021 0.78953 0.42368
 C204 C 0.38981 0.77196 0.43330
 C205 C 0.36504 0.78344 0.41887
 C206 C 0.38043 0.81227 0.39536
 C207 C 0.36987 0.85311 0.35893
 C208 C 0.35547 0.82404 0.38189
 H209 H 0.34939 0.86138 0.34945
 H210 H 0.32434 0.81082 0.38941
 H211 H 0.40233 0.90875 0.31594
 H212 H 0.51954 0.92045 0.31668
 H213 H 0.45006 0.78127 0.43431
 H214 H 0.33384 0.77033 0.42618
 H215 H 0.49737 0.87094 0.35641
 H216 H 0.47697 0.83030 0.39393
 C217 C 0.14477 0.56260 0.35876
 C218 C 0.12967 0.58717 0.34965
 C219 C 0.10038 0.57415 0.32653
 C220 C 0.08524 0.53652 0.31240
 C221 C 0.10009 0.51213 0.32155
 C222 C 0.12949 0.52493 0.34434
 C223 C 0.17594 0.57764 0.38367
 C224 C 0.19359 0.55600 0.39401
 C225 C 0.22200 0.57106 0.41762
 C226 C 0.23351 0.60800 0.43164
 C227 C 0.21648 0.63000 0.42121
 C228 C 0.18809 0.61527 0.39739
 C229 C 0.14350 0.62442 0.36386
 C230 C 0.17190 0.63806 0.38731
 H231 H 0.13191 0.64322 0.35692
 H232 H 0.18135 0.66696 0.39773
 H233 H 0.08901 0.59321 0.31982
 H234 H 0.08896 0.48294 0.31106
 H235 H 0.23471 0.55347 0.42508
 H236 H 0.22537 0.65879 0.43159
 H237 H 0.13956 0.50475 0.35042
 H238 H 0.18593 0.52742 0.38424
 C239 C 0.57688 0.43558 0.35895
 C240 C 0.53539 0.41240 0.35082
 C241 C 0.52018 0.42599 0.32778
 C242 C 0.54569 0.46274 0.31280
 C243 C 0.58678 0.48556 0.32093
 C244 C 0.60223 0.47225 0.34359
 C245 C 0.59186 0.42027 0.38384
 C246 C 0.63263 0.44094 0.39337
 C247 C 0.64499 0.42589 0.41700
 C248 C 0.61717 0.38983 0.43187
 C249 C 0.57654 0.36871 0.42229
 C250 C 0.56376 0.38358 0.39846
 C251 C 0.50925 0.37604 0.36591
 C252 C 0.52310 0.36202 0.38927
 H253 H 0.47748 0.35826 0.35972
 H254 H 0.50158 0.33385 0.40036
 H255 H 0.48833 0.40812 0.32180
 H256 H 0.60722 0.51401 0.30976
 H257 H 0.67657 0.44284 0.42374
 H258 H 0.55472 0.34068 0.43342
 H259 H 0.63401 0.49132 0.34879
 H260 H 0.65553 0.46881 0.38300
 C261 C 0.57281 0.14299 0.35940
 C262 C 0.53343 0.12787 0.34757
 C263 C 0.51821 0.09833 0.32453
 C264 C 0.54192 0.08373 0.31262
 C265 C 0.58133 0.09961 0.32408
 C266 C 0.59653 0.12865 0.34707
 C267 C 0.58754 0.17367 0.38452
 C268 C 0.62546 0.18906 0.39877
 C269 C 0.63763 0.21718 0.42232
 C270 C 0.61254 0.23097 0.43229
 C271 C 0.57475 0.21598 0.41816
 C272 C 0.56197 0.18724 0.39466
 C273 C 0.50952 0.14240 0.35873
 C274 C 0.52360 0.17166 0.38158
 H275 H 0.47944 0.13105 0.34959
 H276 H 0.50393 0.18195 0.38937
 H277 H 0.48785 0.08684 0.31588
 H278 H 0.60071 0.08942 0.31544
 H279 H 0.66698 0.22826 0.43273
 H280 H 0.55492 0.22614 0.42581
 H281 H 0.62696 0.13945 0.35475
 H282 H 0.64611 0.17961 0.39234
 C283 C 0.86009 0.43596 0.36200
 C284 C 0.86876 0.40857 0.34787
 C285 C 0.89743 0.42169 0.32422
 C286 C 0.91768 0.46186 0.31414
 C287 C 0.90867 0.48881 0.32792
 C288 C 0.88033 0.47614 0.35151
 C289 C 0.82970 0.42086 0.38749
 C290 C 0.81961 0.44584 0.40350
 C291 C 0.79117 0.43035 0.42709
 C292 C 0.77194 0.38955 0.43539
 C293 C 0.78184 0.36442 0.41960
 C294 C 0.81054 0.37973 0.39592
 C295 C 0.84881 0.36827 0.35738
 C296 C 0.82022 0.35413 0.38080
 H297 H 0.85536 0.34727 0.34651
 H298 H 0.80558 0.32265 0.38727
 H299 H 0.90397 0.40049 0.31367
 H300 H 0.92377 0.51997 0.32058
 H301 H 0.78414 0.45049 0.43880
 H302 H 0.76732 0.33285 0.42578
 H303 H 0.87481 0.49832 0.36116
 H304 H 0.83330 0.47743 0.39828
 C305 C 0.56363 0.42581 1.13762
 C306 C 0.58870 0.46669 1.14650
 C307 C 0.57633 0.48254 1.16999
 C308 C 0.53895 0.45837 1.18479
 C309 C 0.51410 0.41793 1.17584
 C310 C 0.52619 0.40180 1.15265
 C311 C 0.57803 0.41007 1.11244
 C312 C 0.55577 0.36973 1.10225
 C313 C 0.57044 0.35663 1.07866
 C314 C 0.60763 0.38332 1.06446
 C315 C 0.63010 0.42354 1.07456
 C316 C 0.61573 0.43698 1.09837
 C317 C 0.62585 0.49161 1.13179
 C318 C 0.63899 0.47714 1.10819
 H319 H 0.64503 0.52292 1.13853
 H320 H 0.66791 0.49773 1.09749
 H321 H 0.59578 0.51390 1.17656
 H322 H 0.48509 0.39854 1.18681
 H323 H 0.55243 0.32541 1.07147
 H324 H 0.65903 0.44450 1.06399
 H325 H 0.50567 0.37055 1.14682
 H326 H 0.52702 0.34773 1.11218
 C327 C 0.85748 0.43718 1.14047
 C328 C 0.87072 0.41148 1.15065
 C329 C 0.89993 0.42423 1.17382
 C330 C 0.91710 0.46286 1.18691
 C331 C 0.90399 0.48833 1.17652
 C332 C 0.87462 0.47572 1.15375
 C333 C 0.82628 0.42239 1.11560
 C334 C 0.81013 0.44506 1.10450
 C335 C 0.78172 0.43025 1.08090
 C336 C 0.76873 0.39255 1.06763
 C337 C 0.78416 0.36946 1.07887
 C338 C 0.81247 0.38392 1.10275
 C339 C 0.85517 0.37338 1.13738
 C340 C 0.82693 0.36003 1.11381
 H341 H 0.86534 0.35370 1.14512
 H342 H 0.81618 0.33047 1.10411
 H343 H 0.90966 0.40407 1.18131
 H344 H 0.91646 0.51831 1.18595
 H345 H 0.77025 0.44867 1.07281
 H346 H 0.77401 0.34005 1.06910
 H347 H 0.86611 0.49682 1.14674
 H348 H 0.81895 0.47426 1.11366
 C349 C 0.56445 0.14200 1.13818
 C350 C 0.59188 0.13308 1.15195
 C351 C 0.57863 0.10420 1.17534
 C352 C 0.53828 0.08403 1.18557
 C353 C 0.51132 0.09337 1.17219
 C354 C 0.52410 0.12187 1.14882
 C355 C 0.57967 0.17251 1.11287
 C356 C 0.55461 0.18271 1.09707
 C357 C 0.57019 0.21108 1.07352
 C358 C 0.61117 0.23020 1.06509
 C359 C 0.63640 0.22030 1.08076
 C360 C 0.62099 0.19160 1.10433
 C361 C 0.63238 0.15300 1.14235
 C362 C 0.64665 0.18175 1.11917
 H363 H 0.65344 0.14629 1.15296
 H364 H 0.67828 0.19632 1.11262
 H365 H 0.59988 0.09747 1.18560
 H366 H 0.48003 0.07837 1.17963
 H367 H 0.54996 0.21809 1.06192
 H368 H 0.66810 0.23467 1.07446
 H369 H 0.50189 0.12761 1.13946
 H370 H 0.52287 0.16906 1.10237
 C371 C 0.43741 0.57847 1.14018
 C372 C 0.41327 0.53735 1.14868
 C373 C 0.42625 0.52194 1.17200
 C374 C 0.46342 0.54683 1.18679
 C375 C 0.48722 0.58752 1.17826
 C376 C 0.47447 0.60320 1.15539
 C377 C 0.42272 0.59370 1.11504
 C378 C 0.44416 0.63422 1.10533
 C379 C 0.42961 0.64684 1.08151
 C380 C 0.39332 0.61950 1.06660
 C381 C 0.37144 0.57912 1.07633
 C382 C 0.38574 0.56612 1.10042
 C383 C 0.37663 0.51176 1.13361
 C384 C 0.36327 0.52579 1.10991
 H385 H 0.35813 0.48027 1.14006
 H386 H 0.33486 0.50468 1.09883
 H387 H 0.40768 0.49037 1.17827
 H388 H 0.51601 0.60747 1.18929
 H389 H 0.44712 0.67821 1.07464
 H390 H 0.34316 0.55771 1.06521
 H391 H 0.49432 0.63465 1.14986
 H392 H 0.47224 0.65676 1.11575
 C393 C 0.14287 0.56278 1.13782
 C394 C 0.12737 0.58710 1.14681
 C395 C 0.09822 0.57409 1.17012
 C396 C 0.08369 0.53675 1.18451
 C397 C 0.09886 0.51258 1.17538
 C398 C 0.12806 0.52536 1.15243
 C399 C 0.17404 0.57783 1.11291
 C400 C 0.19214 0.55645 1.10287
 C401 C 0.22074 0.57155 1.07941
 C402 C 0.23206 0.60828 1.06519
 C403 C 0.21448 0.63000 1.07520
 C404 C 0.18586 0.61522 1.09895
 C405 C 0.14075 0.62408 1.13234
 C406 C 0.16918 0.63772 1.10881
 H407 H 0.12884 0.64267 1.13917
 H408 H 0.17834 0.66643 1.09822
 H409 H 0.08655 0.59294 1.17682
 H410 H 0.08818 0.48361 1.18606
 H411 H 0.23385 0.55415 1.07226
 H412 H 0.22323 0.65863 1.06464
 H413 H 0.13837 0.50533 1.14643
 H414 H 0.18477 0.52808 1.11282
 C415 C 0.43469 0.85917 1.13860
 C416 C 0.40736 0.86850 1.15215
 C417 C 0.42061 0.89741 1.17559
 C418 C 0.46085 0.91713 1.18596
 C419 C 0.48762 0.90732 1.17275
 C420 C 0.47484 0.87882 1.14945
 C421 C 0.41966 0.82878 1.11326
 C422 C 0.44481 0.81838 1.09778
 C423 C 0.42958 0.79020 1.07417
 C424 C 0.38884 0.77144 1.06530
 C425 C 0.36342 0.78149 1.08064
 C426 C 0.37855 0.81008 1.10435
 C427 C 0.36704 0.84897 1.14224
 C428 C 0.35290 0.82027 1.11896
 H429 H 0.34603 0.85596 1.15266
 H430 H 0.32143 0.80601 1.11215
 H431 H 0.39955 0.90456 1.18571
 H432 H 0.51880 0.92193 1.18031
 H433 H 0.44995 0.78305 1.06287
 H434 H 0.33189 0.76734 1.07398
 H435 H 0.49698 0.87277 1.14031
 H436 H 0.47640 0.83169 1.10334
 C437 C 0.56257 0.42388 0.63732
 C438 C 0.58749 0.46476 0.64625
 C439 C 0.57499 0.48040 0.66975
 C440 C 0.53764 0.45601 0.68450
 C441 C 0.51296 0.41556 0.67555
 C442 C 0.52518 0.39964 0.65235
 C443 C 0.57703 0.40839 0.61210
 C444 C 0.55486 0.36809 0.60185
 C445 C 0.56956 0.35519 0.57818
 C446 C 0.60668 0.38207 0.56400
 C447 C 0.62907 0.42225 0.57414
 C448 C 0.61467 0.43549 0.59802
 C449 C 0.62459 0.48990 0.63155
 C450 C 0.63782 0.47562 0.60790
 H451 H 0.64365 0.52120 0.63836
 H452 H 0.66669 0.49634 0.59718
 H453 H 0.59428 0.51176 0.67636
 H454 H 0.48397 0.39603 0.68652
 H455 H 0.55163 0.32400 0.57093
 H456 H 0.65796 0.44331 0.56357
 H457 H 0.50479 0.36838 0.64650
 H458 H 0.52617 0.34596 0.61177
 C459 C 0.56304 0.14121 0.63735
 C460 C 0.59041 0.13211 0.65100
 C461 C 0.57714 0.10323 0.67434
 C462 C 0.53686 0.08326 0.68466
 C463 C 0.50995 0.09279 0.67145
 C464 C 0.52276 0.12130 0.64811
 C465 C 0.57828 0.17167 0.61205
 C466 C 0.55326 0.18196 0.59628
 C467 C 0.56887 0.21030 0.57274
 C468 C 0.60984 0.22929 0.56432
 C469 C 0.63500 0.21928 0.57992
 C470 C 0.61956 0.19060 0.60346
 C471 C 0.63086 0.15185 0.64134
 C472 C 0.64517 0.18061 0.61820
 H473 H 0.65185 0.14499 0.65188
 H474 H 0.67677 0.19507 0.61160
 H475 H 0.59833 0.09635 0.68450
 H476 H 0.47872 0.07792 0.67901
 H477 H 0.54872 0.21744 0.56117
 H478 H 0.66668 0.23354 0.57358
 H479 H 0.50062 0.12723 0.63886
 H480 H 0.52154 0.16839 0.60161
 C481 C 0.85670 0.43653 0.64007
 C482 C 0.87241 0.41230 0.64866
 C483 C 0.90194 0.42542 0.67161
 C484 C 0.91672 0.46281 0.68605
 C485 C 0.90125 0.48685 0.67740
 C486 C 0.87162 0.47394 0.65481
 C487 C 0.82532 0.42147 0.61534
 C488 C 0.80710 0.44280 0.60557
 C489 C 0.77864 0.42786 0.58203
 C490 C 0.76759 0.39134 0.56750
 C491 C 0.78510 0.36956 0.57740
 C492 C 0.81359 0.38419 0.60117
 C493 C 0.85895 0.37535 0.63407
 C494 C 0.83036 0.36171 0.61073
 H495 H 0.87100 0.35681 0.64061
 H496 H 0.82124 0.33307 0.59999
 H497 H 0.91381 0.40664 0.67794
 H498 H 0.91208 0.51584 0.68813
 H499 H 0.76556 0.44529 0.57499
 H500 H 0.77656 0.34109 0.56661
 H501 H 0.86111 0.49388 0.64912
 H502 H 0.81438 0.47107 0.61572
 C503 C 0.43549 0.57507 0.63873
 C504 C 0.40842 0.53668 0.65158
 C505 C 0.42171 0.52134 0.67475
 C506 C 0.46175 0.54381 0.68552
 C507 C 0.48828 0.58201 0.67294
 C508 C 0.47545 0.59747 0.64993
 C509 C 0.42040 0.59008 0.61368
 C510 C 0.44522 0.62742 0.59900
 C511 C 0.42999 0.63985 0.57552
 C512 C 0.38957 0.61557 0.56599
 C513 C 0.36446 0.57840 0.58063
 C514 C 0.37958 0.56546 0.60419
 C515 C 0.36834 0.51383 0.64118
 C516 C 0.35421 0.52796 0.61809
 H517 H 0.34754 0.48450 0.65104
 H518 H 0.32294 0.50906 0.61086
 H519 H 0.40084 0.49183 0.68434
 H520 H 0.51932 0.60013 0.68079
 H521 H 0.45012 0.66872 0.56478
 H522 H 0.33318 0.55924 0.57348
 H523 H 0.49741 0.62696 0.64127
 H524 H 0.47656 0.64748 0.60510
 C525 C 0.42677 0.85845 0.63907
 C526 C 0.46621 0.87385 0.65086
 C527 C 0.48116 0.90316 0.67403
 C528 C 0.45722 0.91737 0.68618
 C529 C 0.41774 0.90127 0.67479
 C530 C 0.40276 0.87237 0.65160
 C531 C 0.41239 0.82796 0.61377
 C532 C 0.37440 0.81213 0.59955
 C533 C 0.36260 0.78419 0.57585
 C534 C 0.38816 0.77102 0.56571
 C535 C 0.42603 0.78648 0.57980
 C536 C 0.43841 0.81499 0.60345
 C537 C 0.49052 0.85989 0.63953
 C538 C 0.47682 0.83090 0.61651
 H539 H 0.52066 0.87150 0.64865
 H540 H 0.49681 0.82107 0.60860
 H541 H 0.51158 0.91482 0.68259
 H542 H 0.39823 0.91119 0.68361
 H543 H 0.33317 0.77277 0.56549
 H544 H 0.44622 0.77680 0.57207
 H545 H 0.37228 0.86135 0.64390
 H546 H 0.35341 0.82109 0.60615
 C547 C 0.14181 0.56398 0.63722
 C548 C 0.13104 0.59053 0.64997
 C549 C 0.10207 0.57727 0.67346
 C550 C 0.08348 0.53767 0.68490
 C551 C 0.09473 0.51163 0.67238
 C552 C 0.12335 0.52449 0.64892
 C553 C 0.17248 0.57923 0.61184
 C554 C 0.18456 0.55499 0.59705
 C555 C 0.21308 0.57059 0.57347
 C556 C 0.23049 0.61078 0.56396
 C557 C 0.21865 0.63517 0.57857
 C558 C 0.18980 0.61972 0.60219
 C559 C 0.14925 0.63022 0.63926
 C560 C 0.17810 0.64453 0.61601
 H561 H 0.14112 0.65062 0.64907
 H562 H 0.19131 0.67552 0.60861
 H563 H 0.09411 0.59804 0.68280
 H564 H 0.08126 0.48095 0.68058
 H565 H 0.22160 0.55102 0.56270
 H566 H 0.23168 0.66624 0.57144
 H567 H 0.13054 0.50298 0.64035
 H568 H 0.17230 0.52389 0.60323
 C569 C 0.43790 0.57557 0.86110
 C570 C 0.41053 0.53787 0.84744
 C571 C 0.42379 0.52283 0.82405
 C572 C 0.46408 0.54489 0.81372
 C573 C 0.49100 0.58248 0.82697
 C574 C 0.47819 0.59767 0.85034
 C575 C 0.42267 0.59019 0.88641
 C576 C 0.44768 0.62671 0.90205
 C577 C 0.43215 0.63885 0.92561
 C578 C 0.39126 0.61504 0.93423
 C579 C 0.36605 0.57863 0.91875
 C580 C 0.38143 0.56600 0.89513
 C581 C 0.37010 0.51537 0.85718
 C582 C 0.35583 0.52921 0.88042
 H583 H 0.34912 0.48657 0.84665
 H584 H 0.32427 0.51066 0.88710
 H585 H 0.40259 0.49382 0.81387
 H586 H 0.52223 0.60020 0.81942
 H587 H 0.45235 0.66714 0.93706
 H588 H 0.33442 0.55985 0.92522
 H589 H 0.50036 0.62670 0.85961
 H590 H 0.47935 0.64632 0.89660
 C591 C 0.14530 0.56501 0.85953
 C592 C 0.13610 0.59218 0.84580
 C593 C 0.10708 0.57889 0.82247
 C594 C 0.08691 0.53872 0.81231
 C595 C 0.09653 0.51202 0.82560
 C596 C 0.12527 0.52488 0.84888
 C597 C 0.17583 0.58025 0.88488
 C598 C 0.18637 0.55548 0.90060
 C599 C 0.21457 0.57100 0.92432
 C600 C 0.23315 0.61164 0.93301
 C601 C 0.22301 0.63661 0.91736
 C602 C 0.19451 0.62125 0.89360
 C603 C 0.15577 0.63242 0.85548
 C604 C 0.18444 0.64667 0.87878
 H605 H 0.14885 0.65326 0.84490
 H606 H 0.19875 0.67807 0.88544
 H607 H 0.10011 0.59992 0.81229
 H608 H 0.08153 0.48088 0.81819
 H609 H 0.22181 0.55099 0.93588
 H610 H 0.23703 0.66805 0.92383
 H611 H 0.13120 0.50287 0.85822
 H612 H 0.17310 0.52401 0.89511
 C613 C 0.43687 0.85818 0.85977
 C614 C 0.41249 0.87389 0.85151
 C615 C 0.42515 0.90281 0.82820
 C616 C 0.46216 0.91681 0.81305
 C617 C 0.48629 0.90126 0.82135
 C618 C 0.47389 0.87234 0.84431
 C619 C 0.42235 0.82748 0.88484
 C620 C 0.44403 0.80953 0.89439
 C621 C 0.42952 0.78147 0.91808
 C622 C 0.39305 0.77049 0.93300
 C623 C 0.37100 0.78790 0.92346
 C624 C 0.38526 0.81608 0.89954
 C625 C 0.37583 0.86096 0.86671
 C626 C 0.36259 0.83281 0.89028
 H627 H 0.35716 0.87300 0.86043
 H628 H 0.33411 0.82400 0.90144
 H629 H 0.40630 0.91471 0.82210
 H630 H 0.51498 0.91148 0.81006
 H631 H 0.44717 0.76849 0.92483
 H632 H 0.34261 0.77949 0.93460
 H633 H 0.49389 0.86174 0.84965
 H634 H 0.47225 0.81665 0.88394
 C635 C 0.57585 0.43439 0.85892
 C636 C 0.53436 0.41086 0.85081
 C637 C 0.51890 0.42406 0.82765
 C638 C 0.54416 0.46077 0.81252
 C639 C 0.58524 0.48392 0.82064
 C640 C 0.60093 0.47100 0.84342
 C641 C 0.59112 0.41950 0.88393
 C642 C 0.63189 0.44056 0.89348
 C643 C 0.64454 0.42586 0.91718
 C644 C 0.61701 0.38976 0.93213
 C645 C 0.57635 0.36827 0.92256
 C646 C 0.56330 0.38279 0.89865
 C647 C 0.50851 0.37453 0.86603
 C648 C 0.52263 0.36087 0.88948
 H649 H 0.47675 0.35646 0.85986
 H650 H 0.50131 0.33269 0.90064
 H651 H 0.48707 0.40593 0.82167
 H652 H 0.60552 0.51234 0.80937
 H653 H 0.67611 0.44311 0.92390
 H654 H 0.55474 0.34021 0.93375
 H655 H 0.63270 0.49033 0.84858
 H656 H 0.65460 0.46849 0.88305
 C657 C 0.86150 0.43714 0.86208
 C658 C 0.87058 0.40991 0.84820
 C659 C 0.89937 0.42307 0.82459
 C660 C 0.91937 0.46316 0.81428
 C661 C 0.90999 0.48996 0.82785
 C662 C 0.88153 0.47725 0.85141
 C663 C 0.83092 0.42197 0.88750
 C664 C 0.82033 0.44677 0.90323
 C665 C 0.79177 0.43122 0.92677
 C666 C 0.77285 0.39052 0.93533
 C667 C 0.78322 0.36556 0.91979
 C668 C 0.81206 0.38094 0.89616
 C669 C 0.85089 0.36970 0.85793
 C670 C 0.82219 0.35550 0.88130
 H671 H 0.85775 0.34880 0.84728
 H672 H 0.80780 0.32410 0.88793
 H673 H 0.90618 0.40196 0.81424
 H674 H 0.92487 0.52105 0.82037
 H675 H 0.78441 0.45125 0.93825
 H676 H 0.76898 0.33407 0.92615
 H677 H 0.87574 0.49933 0.86088
 H678 H 0.83374 0.47827 0.89781
 C679 C 0.57382 0.14327 0.85986
 C680 C 0.53549 0.13013 0.84671
 C681 C 0.52029 0.10083 0.82351
 C682 C 0.54289 0.08444 0.81287
 C683 C 0.58114 0.09802 0.82562
 C684 C 0.59642 0.12695 0.84877
 C685 C 0.58855 0.17395 0.88503
 C686 C 0.62559 0.18795 0.90028
 C687 C 0.63774 0.21612 0.92383
 C688 C 0.61349 0.23133 0.93284
 C689 C 0.57661 0.21777 0.91767
 C690 C 0.56390 0.18911 0.89409
 C691 C 0.51255 0.14630 0.85677
 C692 C 0.52653 0.17528 0.87982
 H693 H 0.48327 0.13639 0.84663
 H694 H 0.50760 0.18681 0.88674
 H695 H 0.49080 0.09082 0.81373
 H696 H 0.59931 0.08602 0.81784
 H697 H 0.66640 0.22605 0.93500
 H698 H 0.55744 0.22909 0.92446
 H699 H 0.62596 0.13601 0.85760
 H700 H 0.64557 0.17740 0.89458
   
