data_POSCAR
  _audit_creation_date              2014-09-24
  _audit_creation_method            'ToBaCCo'
  _symmetry_space_group_name_H-M    'P1'
  _symmetry_Int_Tables_number       1
  _symmetry_cell_setting            triclinic
  loop_
  _symmetry_equiv_pos_as_xyz
 x,y,z
_cell_length_a 33.2442
_cell_length_b 36.6642
_cell_length_c 34.5459
_cell_angle_alpha 89.973200
_cell_angle_beta 89.999900
_cell_angle_gamma 90.000000
loop_
  _atom_site_label
  _atom_site_type_symbol
  _atom_site_fract_x
  _atom_site_fract_y
  _atom_site_fract_z
C1 C 1.24920 0.24999 0.25000
 C2 C 0.74886 -0.25001 0.25000
 C3 C 0.74944 0.24999 -0.25000
 C4 C 1.24920 -0.25001 -0.25000
 C5 C 0.24909 0.24999 0.75000
 C6 C 0.74943 0.74999 0.75000
 C7 C 0.74950 0.24999 0.25000
 C8 C 0.24977 0.74999 0.25000
 N9 N 1.07149 0.03743 0.04239
 N10 N 1.09955 0.06169 0.05044
 N11 N 1.04295 -0.03930 0.06880
 N12 N 1.05077 -0.06420 0.09544
 N13 N 1.07134 -0.03888 0.04237
 N14 N 1.09958 -0.06293 0.05072
 N15 N 1.04311 0.03790 0.06883
 N16 N 1.05074 0.06304 0.09521
 C17 C 1.08581 0.07788 0.08303
 C18 C 1.08595 -0.07900 0.08347
 N19 N 0.92826 -0.03857 0.04199
 N20 N 0.90049 -0.06325 0.04983
 N21 N 0.95653 0.03785 0.06890
 N22 N 0.94871 0.06244 0.09572
 N23 N 0.92847 0.03802 0.04215
 N24 N 0.90081 0.06275 0.05010
 N25 N 0.95634 -0.03868 0.06872
 N26 N 0.94847 -0.06340 0.09538
 Mn27 Mn 0.99975 -0.00056 0.06920
 C28 C 0.91376 -0.07879 0.08305
 C29 C 0.91407 0.07805 0.08343
 N30 N 1.07129 -0.03863 -0.04129
 N31 N 1.09931 -0.06291 -0.04940
 N32 N 1.04324 0.03825 -0.06766
 N33 N 1.05101 0.06339 -0.09403
 N34 N 1.07160 0.03763 -0.04120
 N35 N 1.09979 0.06181 -0.04925
 N36 N 1.04298 -0.03889 -0.06781
 N37 N 1.05062 -0.06391 -0.09431
 Mn38 Mn 1.07176 -0.00062 0.00056
 C39 C 1.08560 -0.07891 -0.08211
 C40 C 1.08615 0.07810 -0.08186
 N41 N 0.92850 0.03824 -0.04137
 N42 N 0.90069 0.06282 -0.04947
 N43 N 0.95643 -0.03837 -0.06817
 N44 N 0.94856 -0.06290 -0.09502
 N45 N 0.92829 -0.03840 -0.04151
 N46 N 0.90050 -0.06298 -0.04956
 N47 N 0.95664 0.03821 -0.06803
 N48 N 0.94875 0.06274 -0.09492
 Mn49 Mn 0.92797 -0.00018 0.00032
 Mn50 Mn 0.99986 -0.00020 -0.06830
 Cl51 Cl 0.99981 -0.00039 0.00045
 C52 C 0.91398 0.07820 -0.08278
 C53 C 0.91379 -0.07834 -0.08286
 N54 N 1.07129 0.53861 0.54128
 N55 N 1.09931 0.56290 0.54939
 N56 N 1.04324 0.46173 0.56766
 N57 N 1.05101 0.43659 0.59403
 N58 N 1.07160 0.46235 0.54120
 N59 N 1.09980 0.43818 0.54925
 N60 N 1.04299 0.53887 0.56781
 N61 N 1.05062 0.56390 0.59430
 C62 C 1.08560 0.57890 0.58210
 C63 C 1.08615 0.42189 0.58185
 N64 N 0.92850 0.46174 0.54137
 N65 N 0.90070 0.43716 0.54947
 N66 N 0.95643 0.53835 0.56816
 N67 N 0.94856 0.56288 0.59502
 N68 N 0.92829 0.53838 0.54150
 N69 N 0.90050 0.56297 0.54956
 N70 N 0.95664 0.46178 0.56803
 N71 N 0.94875 0.43725 0.59492
 Mn72 Mn 0.99986 0.50018 0.56829
 C73 C 0.91398 0.42179 0.58278
 C74 C 0.91379 0.57833 0.58286
 N75 N 1.07149 0.46256 0.45760
 N76 N 1.09956 0.43829 0.44956
 N77 N 1.04295 0.53928 0.43119
 N78 N 1.05077 0.56419 0.40455
 N79 N 1.07134 0.53886 0.45763
 N80 N 1.09959 0.56292 0.44928
 N81 N 1.04311 0.46209 0.43116
 N82 N 1.05074 0.43695 0.40479
 Mn83 Mn 1.07176 0.50060 0.49943
 C84 C 1.08581 0.42211 0.41697
 C85 C 1.08595 0.57898 0.41653
 N86 N 0.92826 0.53856 0.45800
 N87 N 0.90049 0.56323 0.45017
 N88 N 0.95653 0.46213 0.43110
 N89 N 0.94871 0.43755 0.40428
 N90 N 0.92848 0.46196 0.45785
 N91 N 0.90081 0.43724 0.44989
 N92 N 0.95634 0.53867 0.43128
 N93 N 0.94847 0.56338 0.40461
 Mn94 Mn 0.92797 0.50016 0.49967
 Mn95 Mn 0.99975 0.50054 0.43080
 Cl96 Cl 0.99981 0.50037 0.49955
 C97 C 0.91376 0.57878 0.41695
 C98 C 0.91408 0.42193 0.41656
 N99 N 0.57070 0.03824 0.54159
 N100 N 0.59890 0.06234 0.54981
 N101 N 0.54252 -0.03853 0.56819
 N102 N 0.55031 -0.06352 0.59472
 N103 N 0.57087 -0.03805 0.54173
 N104 N 0.59908 -0.06216 0.54991
 N105 N 0.54235 0.03866 0.56807
 N106 N 0.55015 0.06361 0.59462
 C107 C 0.58528 0.07842 0.58252
 C108 C 0.58544 -0.07829 0.58261
 N109 N 0.42786 -0.03855 0.54159
 N110 N 0.40028 -0.06336 0.54952
 N111 N 0.45575 0.03813 0.56817
 N112 N 0.44787 0.06274 0.59494
 N113 N 0.42760 0.03805 0.54151
 N114 N 0.39978 0.06264 0.54951
 N115 N 0.45595 -0.03840 0.56830
 N116 N 0.44827 -0.06308 0.59506
 Mn117 Mn 0.49916 -0.00003 0.56856
 C118 C 0.41366 -0.07872 0.58279
 C119 C 0.41308 0.07811 0.58275
 N120 N 0.57079 -0.03818 0.45816
 N121 N 0.59891 -0.06240 0.45017
 N122 N 0.54228 0.03840 0.43147
 N123 N 0.55001 0.06337 0.40490
 N124 N 0.57061 0.03808 0.45797
 N125 N 0.59872 0.06227 0.44976
 N126 N 0.54243 -0.03875 0.43169
 N127 N 0.55014 -0.06392 0.40537
 Mn128 Mn 0.57107 0.00002 0.49985
 C129 C 0.58522 -0.07868 0.41761
 C130 C 0.58506 0.07829 0.41702
 N131 N 0.42761 0.03790 0.45800
 N132 N 0.39995 0.06266 0.45013
 N133 N 0.45581 -0.03870 0.43137
 N134 N 0.44781 -0.06312 0.40442
 N135 N 0.42769 -0.03874 0.45805
 N136 N 0.39978 -0.06322 0.44988
 N137 N 0.45571 0.03788 0.43131
 N138 N 0.44797 0.06260 0.40461
 Mn139 Mn 0.42727 -0.00033 0.49980
 Mn140 Mn 0.49909 -0.00029 0.43108
 Cl141 Cl 0.49912 -0.00016 0.49982
 C142 C 0.41330 0.07812 0.41690
 C143 C 0.41299 -0.07854 0.41652
 N144 N 0.57079 0.53816 0.04184
 N145 N 0.59891 0.56239 0.04982
 N146 N 0.54228 0.46159 0.06853
 N147 N 0.55000 0.43661 0.09510
 N148 N 0.57061 0.46191 0.04203
 N149 N 0.59872 0.43771 0.05023
 N150 N 0.54243 0.53873 0.06831
 N151 N 0.55014 0.56390 0.09463
 C152 C 0.58522 0.57867 0.08239
 C153 C 0.58506 0.42169 0.08297
 N154 N 0.42761 0.46208 0.04199
 N155 N 0.39995 0.43732 0.04987
 N156 N 0.45581 0.53868 0.06863
 N157 N 0.44781 0.56311 0.09558
 N158 N 0.42768 0.53872 0.04195
 N159 N 0.39978 0.56320 0.05011
 N160 N 0.45571 0.46211 0.06869
 N161 N 0.44796 0.43739 0.09539
 Mn162 Mn 0.49909 0.50028 0.06892
 C163 C 0.41330 0.42186 0.08310
 C164 C 0.41298 0.57852 0.08348
 N165 N 0.57070 0.46175 -0.04160
 N166 N 0.59890 0.43764 -0.04981
 N167 N 0.54252 0.53851 -0.06820
 N168 N 0.55030 0.56351 -0.09472
 N169 N 0.57087 0.53804 -0.04173
 N170 N 0.59907 0.56215 -0.04991
 N171 N 0.54235 0.46133 -0.06807
 N172 N 0.55015 0.43637 -0.09462
 Mn173 Mn 0.57106 0.49996 0.00014
 C174 C 0.58528 0.42156 -0.08253
 C175 C 0.58544 0.57827 -0.08261
 N176 N 0.42785 0.53853 -0.04160
 N177 N 0.40028 0.56334 -0.04952
 N178 N 0.45575 0.46185 -0.06818
 N179 N 0.44786 0.43725 -0.09494
 N180 N 0.42760 0.46193 -0.04152
 N181 N 0.39978 0.43735 -0.04951
 N182 N 0.45595 0.53838 -0.06830
 N183 N 0.44827 0.56307 -0.09506
 Mn184 Mn 0.42727 0.50032 0.00020
 Mn185 Mn 0.49916 0.50002 -0.06857
 Cl186 Cl 0.49912 0.50014 0.00018
 C187 C 0.41366 0.57871 -0.08279
 C188 C 0.41307 0.42187 -0.08275
 C189 C 1.17836 0.17739 0.17503
 C190 C 1.16125 0.21016 0.18771
 C191 C 1.18438 0.23405 0.21039
 C192 C 1.22337 0.22418 0.22375
 C193 C 1.24007 0.19150 0.20867
 C194 C 1.21797 0.16828 0.18462
 C195 C 1.15459 0.15237 0.15069
 C196 C 1.17259 0.12040 0.13650
 C197 C 1.14999 0.09674 0.11333
 C198 C 1.10934 0.10420 0.10563
 C199 C 1.09143 0.13610 0.12024
 C200 C 1.11432 0.16081 0.14219
 C201 C 1.23493 0.13598 0.16998
 C202 C 1.21269 0.11256 0.14610
 C203 C 1.12126 0.21831 0.17760
 C204 C 1.09800 0.19380 0.15572
 H205 H 1.26567 0.12873 0.17703
 H206 H 1.22688 0.08794 0.13538
 H207 H 1.10759 0.24354 0.18726
 H208 H 1.06709 0.20083 0.14913
 H209 H 1.17188 0.26052 0.21720
 H210 H 1.27053 0.18366 0.21484
 H211 H 1.16358 0.07197 0.10224
 H212 H 1.06011 0.14185 0.11398
 C213 C 1.17824 0.67769 0.67484
 C214 C 1.21775 0.66836 0.68460
 C215 C 1.23988 0.69144 0.70878
 C216 C 1.22333 0.72422 0.72377
 C217 C 1.18441 0.73425 0.71032
 C218 C 1.16126 0.71051 0.68751
 C219 C 1.15445 0.65285 0.65031
 C220 C 1.11429 0.66152 0.64162
 C221 C 1.09138 0.63699 0.61948
 C222 C 1.10917 0.60504 0.60487
 C223 C 1.14972 0.59735 0.61277
 C224 C 1.17234 0.62082 0.63614
 C225 C 1.12137 0.71888 0.67723
 C226 C 1.09808 0.69454 0.65516
 C227 C 1.23458 0.63599 0.66998
 C228 C 1.21233 0.61274 0.64593
 H229 H 1.10781 0.74416 0.68689
 H230 H 1.06726 0.70175 0.64844
 H231 H 1.26523 0.62858 0.67718
 H232 H 1.22642 0.58808 0.63522
 H233 H 1.27025 0.68342 0.71511
 H234 H 1.17203 0.76076 0.71714
 H235 H 1.06013 0.64291 0.61307
 H236 H 1.16322 0.57253 0.60168
 C237 C 0.67829 0.17751 0.67496
 C238 C 0.66135 0.21036 0.68761
 C239 C 0.68457 0.23418 0.71031
 C240 C 0.72354 0.22421 0.72371
 C241 C 0.74006 0.19141 0.70870
 C242 C 0.71785 0.16824 0.68462
 C243 C 0.65441 0.15257 0.65056
 C244 C 0.67225 0.12052 0.63640
 C245 C 0.64956 0.09696 0.61313
 C246 C 0.60895 0.10460 0.60531
 C247 C 0.59122 0.13659 0.61994
 C248 C 0.61421 0.16119 0.64197
 C249 C 0.73462 0.13584 0.67002
 C250 C 0.71229 0.11251 0.64609
 C251 C 0.62141 0.21866 0.67742
 C252 C 0.59805 0.19425 0.65549
 H253 H 0.76531 0.12846 0.67713
 H254 H 0.72637 0.08783 0.63540
 H255 H 0.60785 0.24395 0.68706
 H256 H 0.56720 0.20143 0.64885
 H257 H 0.67217 0.26068 0.71714
 H258 H 0.77046 0.18343 0.71496
 H259 H 0.66304 0.07214 0.60204
 H260 H 0.55995 0.14251 0.61360
 C261 C 0.67795 0.67772 0.17475
 C262 C 0.66092 0.71050 0.18750
 C263 C 0.68406 0.73425 0.21030
 C264 C 0.72301 0.72426 0.22370
 C265 C 0.73962 0.69155 0.20860
 C266 C 0.71750 0.66846 0.18441
 C267 C 0.65416 0.65285 0.15026
 C268 C 0.67208 0.62086 0.13602
 C269 C 0.64945 0.59733 0.11273
 C270 C 0.60884 0.60491 0.10498
 C271 C 0.59102 0.63684 0.11964
 C272 C 0.61395 0.66143 0.14169
 C273 C 0.73438 0.63615 0.16971
 C274 C 0.71213 0.61287 0.14569
 C275 C 0.62098 0.71879 0.17732
 C276 C 0.59769 0.69441 0.15530
 H277 H 0.76507 0.62879 0.17683
 H278 H 0.72625 0.58824 0.13494
 H279 H 0.60738 0.74403 0.18703
 H280 H 0.56683 0.70156 0.14866
 H281 H 0.67163 0.76073 0.21719
 H282 H 0.77002 0.68358 0.21485
 H283 H 0.66297 0.57253 0.10162
 H284 H 0.55973 0.64268 0.11335
 C285 C 0.82197 -0.17913 0.17539
 C286 C 0.78417 -0.19083 0.16252
 C287 C 0.76092 -0.21357 0.18634
 C288 C 0.77522 -0.22551 0.22294
 C289 C 0.81320 -0.21205 0.23530
 C290 C 0.83666 -0.18953 0.21172
 C291 C 0.84620 -0.15464 0.15084
 C292 C 0.88370 -0.14237 0.16424
 C293 C 0.90616 -0.11837 0.14131
 C294 C 0.89116 -0.10629 0.10542
 C295 C 0.85374 -0.11922 0.09211
 C296 C 0.83104 -0.14337 0.11483
 C297 C 0.87442 -0.17686 0.22407
 C298 C 0.89762 -0.15376 0.20067
 C299 C 0.77011 -0.17925 0.12613
 C300 C 0.79317 -0.15595 0.10268
 H301 H 0.88610 -0.18479 0.25213
 H302 H 0.92650 -0.14445 0.21133
 H303 H 0.74095 -0.18811 0.11577
 H304 H 0.78110 -0.14748 0.07496
 H305 H 0.73157 -0.22140 0.17602
 H306 H 0.82436 -0.21836 0.26398
 H307 H 0.93490 -0.10851 0.15179
 H308 H 0.84198 -0.10999 0.06453
 C309 C 0.82241 0.32117 0.67538
 C310 C 0.78465 0.30935 0.66251
 C311 C 0.76149 0.28648 0.68630
 C312 C 0.77582 0.27451 0.72290
 C313 C 0.81380 0.28803 0.73523
 C314 C 0.83716 0.31072 0.71167
 C315 C 0.84653 0.34583 0.65085
 C316 C 0.88399 0.35822 0.66423
 C317 C 0.90637 0.38232 0.64127
 C318 C 0.89136 0.39435 0.60535
 C319 C 0.85394 0.38132 0.59211
 C320 C 0.83132 0.35709 0.61486
 C321 C 0.87488 0.32353 0.72401
 C322 C 0.89796 0.34680 0.70064
 C323 C 0.77054 0.32097 0.62615
 C324 C 0.79349 0.34439 0.60272
 H325 H 0.88662 0.31560 0.75204
 H326 H 0.92681 0.35619 0.71131
 H327 H 0.74140 0.31202 0.61578
 H328 H 0.78137 0.35284 0.57502
 H329 H 0.73216 0.27857 0.67599
 H330 H 0.82500 0.28168 0.76388
 H331 H 0.93510 0.39225 0.65174
 H332 H 0.84214 0.39049 0.56453
 C333 C 0.32226 -0.17922 0.67526
 C334 C 0.28449 -0.19101 0.66239
 C335 C 0.26128 -0.21373 0.68625
 C336 C 0.27557 -0.22557 0.72289
 C337 C 0.31352 -0.21205 0.73524
 C338 C 0.33695 -0.18952 0.71162
 C339 C 0.34643 -0.15471 0.65069
 C340 C 0.38388 -0.14230 0.66409
 C341 C 0.40626 -0.11825 0.64113
 C342 C 0.39123 -0.10628 0.60521
 C343 C 0.35388 -0.11937 0.59190
 C344 C 0.33125 -0.14354 0.61465
 C345 C 0.37467 -0.17674 0.72397
 C346 C 0.39781 -0.15360 0.70054
 C347 C 0.27043 -0.17954 0.62597
 C348 C 0.29344 -0.15624 0.60249
 H349 H 0.38635 -0.18459 0.75205
 H350 H 0.42665 -0.14419 0.71121
 H351 H 0.24130 -0.18848 0.61561
 H352 H 0.28136 -0.14785 0.57475
 H353 H 0.23195 -0.22162 0.67592
 H354 H 0.32468 -0.21830 0.76393
 H355 H 0.43495 -0.10827 0.65161
 H356 H 0.34209 -0.11022 0.56430
 C357 C 0.32209 0.32100 0.17533
 C358 C 0.28428 0.30926 0.16251
 C359 C 0.26114 0.28643 0.18634
 C360 C 0.27555 0.27445 0.22288
 C361 C 0.31354 0.28792 0.23518
 C362 C 0.33690 0.31054 0.21159
 C363 C 0.34618 0.34562 0.15081
 C364 C 0.38367 0.35796 0.16417
 C365 C 0.40599 0.38211 0.14127
 C366 C 0.39086 0.39424 0.10545
 C367 C 0.35346 0.38124 0.09219
 C368 C 0.33089 0.35696 0.11487
 C369 C 0.37465 0.32326 0.22390
 C370 C 0.39772 0.34650 0.20052
 C371 C 0.27010 0.32090 0.12620
 C372 C 0.29304 0.34431 0.10276
 H373 H 0.38642 0.31529 0.25191
 H374 H 0.42659 0.35586 0.21116
 H375 H 0.24093 0.31201 0.11588
 H376 H 0.28087 0.35284 0.07510
 H377 H 0.23176 0.27859 0.17609
 H378 H 0.32478 0.28159 0.26382
 H379 H 0.43472 0.39203 0.15172
 H380 H 0.34160 0.39051 0.06466
 C381 C 0.82241 0.17881 -0.17538
 C382 C 0.78464 0.19063 -0.16251
 C383 C 0.76149 0.21351 -0.18631
 C384 C 0.77582 0.22548 -0.22290
 C385 C 0.81380 0.21195 -0.23523
 C386 C 0.83716 0.18926 -0.21167
 C387 C 0.84652 0.15416 -0.15085
 C388 C 0.88399 0.14177 -0.16423
 C389 C 0.90637 0.11766 -0.14128
 C390 C 0.89136 0.10564 -0.10535
 C391 C 0.85394 0.11867 -0.09212
 C392 C 0.83132 0.14289 -0.11486
 C393 C 0.87488 0.17645 -0.22401
 C394 C 0.89796 0.15319 -0.20064
 C395 C 0.77053 0.17902 -0.12616
 C396 C 0.79349 0.15560 -0.10272
 H397 H 0.88662 0.18439 -0.25204
 H398 H 0.92681 0.14379 -0.21131
 H399 H 0.74140 0.18796 -0.11579
 H400 H 0.78136 0.14714 -0.07502
 H401 H 0.73216 0.22141 -0.17599
 H402 H 0.82500 0.21831 -0.26388
 H403 H 0.93510 0.10774 -0.15174
 H404 H 0.84214 0.10950 -0.06453
 C405 C 0.82197 0.67911 0.32460
 C406 C 0.78417 0.69081 0.33748
 C407 C 0.76092 0.71355 0.31366
 C408 C 0.77522 0.72549 0.27706
 C409 C 0.81320 0.71203 0.26469
 C410 C 0.83666 0.68951 0.28828
 C411 C 0.84620 0.65463 0.34915
 C412 C 0.88370 0.64236 0.33575
 C413 C 0.90616 0.61835 0.35869
 C414 C 0.89116 0.60628 0.39458
 C415 C 0.85374 0.61921 0.40788
 C416 C 0.83104 0.64336 0.38516
 C417 C 0.87442 0.67684 0.27592
 C418 C 0.89762 0.65374 0.29933
 C419 C 0.77012 0.67923 0.37386
 C420 C 0.79317 0.65594 0.39732
 H421 H 0.88609 0.68477 0.24786
 H422 H 0.92650 0.64443 0.28866
 H423 H 0.74095 0.68810 0.38422
 H424 H 0.78110 0.64747 0.42503
 H425 H 0.73157 0.72138 0.32398
 H426 H 0.82435 0.71835 0.23602
 H427 H 0.93490 0.60849 0.34820
 H428 H 0.84198 0.60998 0.43546
 C429 C 0.32209 0.17899 0.32467
 C430 C 0.28428 0.19073 0.33748
 C431 C 0.26114 0.21355 0.31366
 C432 C 0.27555 0.22553 0.27712
 C433 C 0.31354 0.21206 0.26482
 C434 C 0.33690 0.18945 0.28841
 C435 C 0.34618 0.15436 0.34919
 C436 C 0.38367 0.14202 0.33583
 C437 C 0.40599 0.11787 0.35873
 C438 C 0.39086 0.10574 0.39454
 C439 C 0.35346 0.11875 0.40781
 C440 C 0.33090 0.14303 0.38512
 C441 C 0.37465 0.17672 0.27610
 C442 C 0.39772 0.15348 0.29948
 C443 C 0.27011 0.17908 0.37380
 C444 C 0.29304 0.15567 0.39723
 H445 H 0.38642 0.18469 0.24809
 H446 H 0.42659 0.14412 0.28884
 H447 H 0.24093 0.18798 0.38412
 H448 H 0.28087 0.14715 0.42490
 H449 H 0.23176 0.22139 0.32391
 H450 H 0.32478 0.21839 0.23618
 H451 H 0.43472 0.10796 0.34828
 H452 H 0.34160 0.10947 0.43534
 C453 C 0.32226 0.67920 -0.17527
 C454 C 0.28449 0.69100 -0.16239
 C455 C 0.26128 0.71372 -0.18625
 C456 C 0.27557 0.72555 -0.22289
 C457 C 0.31352 0.71204 -0.23524
 C458 C 0.33695 0.68951 -0.21162
 C459 C 0.34643 0.65470 -0.15069
 C460 C 0.38388 0.64229 -0.16409
 C461 C 0.40626 0.61824 -0.14113
 C462 C 0.39123 0.60627 -0.10522
 C463 C 0.35388 0.61935 -0.09191
 C464 C 0.33125 0.64353 -0.11465
 C465 C 0.37467 0.67673 -0.22397
 C466 C 0.39781 0.65359 -0.20054
 C467 C 0.27043 0.67952 -0.12598
 C468 C 0.29344 0.65622 -0.10249
 H469 H 0.38635 0.68458 -0.25205
 H470 H 0.42665 0.64418 -0.21122
 H471 H 0.24130 0.68847 -0.11562
 H472 H 0.28136 0.64783 -0.07475
 H473 H 0.23195 0.72161 -0.17592
 H474 H 0.32468 0.71829 -0.26393
 H475 H 0.43495 0.60825 -0.15161
 H476 H 0.34209 0.61021 -0.06431
 C477 C 1.17824 -0.17771 -0.17484
 C478 C 1.16126 -0.21053 -0.18752
 C479 C 1.18441 -0.23426 -0.21032
 C480 C 1.22332 -0.22423 -0.22377
 C481 C 1.23988 -0.19146 -0.20879
 C482 C 1.21775 -0.16837 -0.18461
 C483 C 1.15445 -0.15286 -0.15032
 C484 C 1.17233 -0.12084 -0.13614
 C485 C 1.14972 -0.09736 -0.11277
 C486 C 1.10917 -0.10505 -0.10487
 C487 C 1.09138 -0.13700 -0.11949
 C488 C 1.11429 -0.16153 -0.14163
 C489 C 1.23458 -0.13601 -0.16998
 C490 C 1.21233 -0.11276 -0.14593
 C491 C 1.12137 -0.21890 -0.17723
 C492 C 1.09808 -0.19456 -0.15517
 H493 H 1.26523 -0.12859 -0.17718
 H494 H 1.22642 -0.08810 -0.13522
 H495 H 1.10781 -0.24418 -0.18689
 H496 H 1.06726 -0.20177 -0.14844
 H497 H 1.17203 -0.26078 -0.21715
 H498 H 1.27025 -0.18344 -0.21511
 H499 H 1.16322 -0.07254 -0.10169
 H500 H 1.06012 -0.14292 -0.11308
 C501 C 1.17836 0.32259 0.32497
 C502 C 1.16125 0.28982 0.31228
 C503 C 1.18438 0.26594 0.28961
 C504 C 1.22337 0.27580 0.27624
 C505 C 1.24008 0.30848 0.29133
 C506 C 1.21798 0.33170 0.31538
 C507 C 1.15459 0.34761 0.34931
 C508 C 1.17259 0.37958 0.36349
 C509 C 1.14999 0.40324 0.38666
 C510 C 1.10934 0.39579 0.39436
 C511 C 1.09143 0.36388 0.37975
 C512 C 1.11432 0.33917 0.35781
 C513 C 1.23493 0.36400 0.33002
 C514 C 1.21269 0.38742 0.35390
 C515 C 1.12126 0.28167 0.32240
 C516 C 1.09800 0.30619 0.34428
 H517 H 1.26567 0.37125 0.32297
 H518 H 1.22688 0.41204 0.36462
 H519 H 1.10759 0.25644 0.31274
 H520 H 1.06709 0.29915 0.35087
 H521 H 1.17188 0.23947 0.28280
 H522 H 1.27053 0.31632 0.28516
 H523 H 1.16358 0.42801 0.39776
 H524 H 1.06011 0.35814 0.38602
 C525 C 0.67795 -0.17774 0.32525
 C526 C 0.66092 -0.21052 0.31249
 C527 C 0.68406 -0.23427 0.28969
 C528 C 0.72301 -0.22427 0.27630
 C529 C 0.73962 -0.19157 0.29140
 C530 C 0.71751 -0.16848 0.31558
 C531 C 0.65416 -0.15286 0.34974
 C532 C 0.67209 -0.12088 0.36398
 C533 C 0.64946 -0.09735 0.38727
 C534 C 0.60884 -0.10493 0.39501
 C535 C 0.59102 -0.13685 0.38036
 C536 C 0.61395 -0.16144 0.35830
 C537 C 0.73438 -0.13617 0.33029
 C538 C 0.71213 -0.11289 0.35431
 C539 C 0.62098 -0.21881 0.32267
 C540 C 0.59769 -0.19443 0.34470
 H541 H 0.76508 -0.12881 0.32317
 H542 H 0.72626 -0.08826 0.36506
 H543 H 0.60737 -0.24405 0.31296
 H544 H 0.56683 -0.20157 0.35133
 H545 H 0.67163 -0.26075 0.28281
 H546 H 0.77002 -0.18361 0.28515
 H547 H 0.66298 -0.07255 0.39838
 H548 H 0.55973 -0.14269 0.38665
 C549 C 0.67829 0.32247 -0.17496
 C550 C 0.66135 0.28962 -0.18762
 C551 C 0.68457 0.26581 -0.21031
 C552 C 0.72354 0.27578 -0.22371
 C553 C 0.74006 0.30857 -0.20870
 C554 C 0.71785 0.33174 -0.18463
 C555 C 0.65441 0.34741 -0.15057
 C556 C 0.67225 0.37946 -0.13640
 C557 C 0.64955 0.40302 -0.11314
 C558 C 0.60895 0.39539 -0.10531
 C559 C 0.59122 0.36340 -0.11994
 C560 C 0.61421 0.33880 -0.14198
 C561 C 0.73462 0.36414 -0.17002
 C562 C 0.71229 0.38747 -0.14609
 C563 C 0.62140 0.28132 -0.17743
 C564 C 0.59805 0.30574 -0.15550
 H565 H 0.76531 0.37153 -0.17713
 H566 H 0.72637 0.41215 -0.13541
 H567 H 0.60785 0.25603 -0.18706
 H568 H 0.56720 0.29856 -0.14885
 H569 H 0.67217 0.23930 -0.21714
 H570 H 0.77046 0.31655 -0.21497
 H571 H 0.66304 0.42784 -0.10205
 H572 H 0.55995 0.35748 -0.11361
 C573 C 1.17847 0.17751 -0.17451
 C574 C 1.21812 0.16848 -0.18405
 C575 C 1.24012 0.19165 -0.20831
 C576 C 1.22329 0.22419 -0.22365
 C577 C 1.18423 0.23397 -0.21035
 C578 C 1.16122 0.21013 -0.18747
 C579 C 1.15481 0.15256 -0.14992
 C580 C 1.11451 0.16091 -0.14148
 C581 C 1.09172 0.13624 -0.11935
 C582 C 1.10972 0.10447 -0.10447
 C583 C 1.15043 0.09714 -0.11209
 C584 C 1.17294 0.12075 -0.13546
 C585 C 1.12119 0.21820 -0.17740
 C586 C 1.09804 0.19374 -0.15530
 C587 C 1.23521 0.13634 -0.16912
 C588 C 1.21308 0.11300 -0.14502
 H589 H 1.10741 0.24331 -0.18727
 H590 H 1.06711 0.20071 -0.14876
 H591 H 1.26598 0.12916 -0.17613
 H592 H 1.22738 0.08851 -0.13410
 H593 H 1.27062 0.18391 -0.21442
 H594 H 1.17163 0.26037 -0.21732
 H595 H 1.06036 0.14191 -0.11318
 H596 H 1.16412 0.07247 -0.10082
 C597 C 1.17923 0.67817 0.32401
 C598 C 1.21878 0.66896 0.31449
 C599 C 1.24116 0.69220 0.29057
 C600 C 1.22492 0.72519 0.27508
 C601 C 1.18581 0.73500 0.28895
 C602 C 1.16245 0.71108 0.31147
 C603 C 1.15525 0.65317 0.34835
 C604 C 1.11507 0.66182 0.35694
 C605 C 1.09201 0.63721 0.37896
 C606 C 1.10966 0.60515 0.39362
 C607 C 1.15027 0.59751 0.38579
 C608 C 1.17302 0.62109 0.36254
 C609 C 1.12251 0.71942 0.32167
 C610 C 1.09903 0.69497 0.34349
 C611 C 1.23549 0.63651 0.32913
 C612 C 1.21308 0.61310 0.35294
 H613 H 1.10904 0.74479 0.31213
 H614 H 1.06820 0.70222 0.35013
 H615 H 1.26621 0.62913 0.32214
 H616 H 1.22714 0.58841 0.36364
 H617 H 1.27154 0.68390 0.28497
 H618 H 1.17333 0.76163 0.28275
 H619 H 1.06076 0.64318 0.38531
 H620 H 1.16374 0.57268 0.39690
 C621 C 0.67822 0.17747 0.32487
 C622 C 0.71776 0.16815 0.31520
 C623 C 0.74003 0.19135 0.29120
 C624 C 0.72358 0.22421 0.27628
 C625 C 0.68464 0.23423 0.28970
 C626 C 0.66136 0.21040 0.31232
 C627 C 0.65427 0.15249 0.34916
 C628 C 0.61409 0.16115 0.35776
 C629 C 0.59104 0.13652 0.37971
 C630 C 0.60871 0.10445 0.39423
 C631 C 0.64929 0.09676 0.38639
 C632 C 0.67204 0.12035 0.36322
 C633 C 0.62143 0.21874 0.32250
 C634 C 0.59801 0.19429 0.34434
 C635 C 0.73446 0.13567 0.32970
 C636 C 0.71207 0.11229 0.35353
 H637 H 0.60795 0.24409 0.31294
 H638 H 0.56717 0.20151 0.35100
 H639 H 0.76513 0.12825 0.32258
 H640 H 0.72607 0.08755 0.36415
 H641 H 0.77040 0.18331 0.28493
 H642 H 0.67231 0.26078 0.28291
 H643 H 0.55979 0.14247 0.38607
 H644 H 0.66272 0.07188 0.39742
 C645 C 0.67836 0.67747 -0.17496
 C646 C 0.71793 0.66822 -0.18461
 C647 C 0.74011 0.69141 -0.20869
 C648 C 0.72355 0.72419 -0.22372
 C649 C 0.68458 0.73414 -0.21033
 C650 C 0.66138 0.71031 -0.18763
 C651 C 0.65450 0.65251 -0.15056
 C652 C 0.61429 0.66109 -0.14199
 C653 C 0.59133 0.63647 -0.11997
 C654 C 0.60909 0.60448 -0.10534
 C655 C 0.64970 0.59688 -0.11313
 C656 C 0.67238 0.62046 -0.13638
 C657 C 0.62144 0.71858 -0.17746
 C658 C 0.59810 0.69414 -0.15552
 C659 C 0.73474 0.63584 -0.16998
 C660 C 0.71243 0.61248 -0.14605
 H661 H 0.60787 0.74387 -0.18711
 H662 H 0.56724 0.70130 -0.14889
 H663 H 0.76543 0.62848 -0.17708
 H664 H 0.72652 0.58781 -0.13535
 H665 H 0.77052 0.68346 -0.21494
 H666 H 0.67217 0.76065 -0.21716
 H667 H 0.56005 0.64235 -0.11366
 H668 H 0.66320 0.57206 -0.10204
 C669 C 0.82235 -0.17893 -0.17537
 C670 C 0.78456 -0.19073 -0.16253
 C671 C 0.76143 -0.21358 -0.18633
 C672 C 0.77580 -0.22553 -0.22290
 C673 C 0.81378 -0.21201 -0.23522
 C674 C 0.83713 -0.18936 -0.21165
 C675 C 0.84644 -0.15430 -0.15085
 C676 C 0.88391 -0.14192 -0.16421
 C677 C 0.90627 -0.11782 -0.14127
 C678 C 0.89121 -0.10579 -0.10538
 C679 C 0.85379 -0.11882 -0.09215
 C680 C 0.83120 -0.14304 -0.11488
 C681 C 0.87486 -0.17656 -0.22397
 C682 C 0.89793 -0.15332 -0.20059
 C683 C 0.77042 -0.17914 -0.12619
 C684 C 0.79335 -0.15574 -0.10276
 H685 H 0.88662 -0.18449 -0.25199
 H686 H 0.92678 -0.14393 -0.21124
 H687 H 0.74127 -0.18808 -0.11585
 H688 H 0.78121 -0.14728 -0.07507
 H689 H 0.73208 -0.22147 -0.17604
 H690 H 0.82500 -0.21834 -0.26386
 H691 H 0.93500 -0.10789 -0.15171
 H692 H 0.84197 -0.10964 -0.06458
 C693 C 0.82257 0.32110 0.32444
 C694 C 0.78486 0.30922 0.33742
 C695 C 0.76166 0.28636 0.31369
 C696 C 0.77590 0.27448 0.27706
 C697 C 0.81383 0.28802 0.26462
 C698 C 0.83723 0.31070 0.28811
 C699 C 0.84672 0.34576 0.34888
 C700 C 0.88411 0.35822 0.33537
 C701 C 0.90649 0.38238 0.35822
 C702 C 0.89154 0.39438 0.39415
 C703 C 0.85422 0.38126 0.40754
 C704 C 0.83159 0.35698 0.38490
 C705 C 0.87489 0.32355 0.27565
 C706 C 0.89800 0.34684 0.29894
 C707 C 0.77085 0.32078 0.37382
 C708 C 0.79383 0.34422 0.39717
 H709 H 0.88655 0.31565 0.24759
 H710 H 0.92679 0.35628 0.28818
 H711 H 0.74176 0.31179 0.38427
 H712 H 0.78178 0.35265 0.42490
 H713 H 0.73238 0.27841 0.32410
 H714 H 0.82495 0.28171 0.23594
 H715 H 0.93515 0.39238 0.34766
 H716 H 0.84247 0.39042 0.43514
 C717 C 0.32156 -0.17934 0.32382
 C718 C 0.28367 -0.19094 0.33643
 C719 C 0.26056 -0.21388 0.31262
 C720 C 0.27497 -0.22656 0.27607
 C721 C 0.31325 -0.21274 0.26414
 C722 C 0.33650 -0.19000 0.28775
 C723 C 0.34558 -0.15458 0.34836
 C724 C 0.38317 -0.14233 0.33515
 C725 C 0.40549 -0.11817 0.35811
 C726 C 0.39031 -0.10594 0.39389
 C727 C 0.35272 -0.11879 0.40692
 C728 C 0.33015 -0.14306 0.38416
 C729 C 0.37434 -0.17729 0.27555
 C730 C 0.39734 -0.15396 0.29891
 C731 C 0.26931 -0.17904 0.37260
 C732 C 0.29216 -0.15558 0.39607
 H733 H 0.38625 -0.18538 0.24765
 H734 H 0.42628 -0.14469 0.28835
 H735 H 0.24005 -0.18780 0.38281
 H736 H 0.27984 -0.14693 0.42361
 H737 H 0.23117 -0.22121 0.32314
 H738 H 0.32485 -0.21877 0.23556
 H739 H 0.43433 -0.10840 0.34778
 H740 H 0.34075 -0.10946 0.43437
 C741 C 0.32180 0.32121 -0.17533
 C742 C 0.28391 0.30955 -0.16264
 C743 C 0.26084 0.28667 -0.18648
 C744 C 0.27540 0.27452 -0.22290
 C745 C 0.31346 0.28795 -0.23509
 C746 C 0.33674 0.31063 -0.21148
 C747 C 0.34583 0.34585 -0.15076
 C748 C 0.38341 0.35810 -0.16398
 C749 C 0.40572 0.38220 -0.14101
 C750 C 0.39051 0.39439 -0.10524
 C751 C 0.35297 0.38151 -0.09215
 C752 C 0.33042 0.35727 -0.11491
 C753 C 0.37458 0.32329 -0.22366
 C754 C 0.39759 0.34654 -0.20025
 C755 C 0.26959 0.32131 -0.12642
 C756 C 0.29246 0.34472 -0.10295
 H757 H 0.38647 0.31525 -0.25159
 H758 H 0.42654 0.35583 -0.21078
 H759 H 0.24035 0.31248 -0.11620
 H760 H 0.28019 0.35330 -0.07536
 H761 H 0.23139 0.27891 -0.17633
 H762 H 0.32482 0.28154 -0.26366
 H763 H 0.43454 0.39201 -0.15135
 H764 H 0.34103 0.39082 -0.06468
 C765 C 1.17923 -0.17818 0.17599
 C766 C 1.21878 -0.16897 0.18551
 C767 C 1.24116 -0.19221 0.20943
 C768 C 1.22492 -0.22520 0.22492
 C769 C 1.18581 -0.23502 0.21104
 C770 C 1.16245 -0.21110 0.18853
 C771 C 1.15525 -0.15319 0.15165
 C772 C 1.11507 -0.16184 0.14306
 C773 C 1.09201 -0.13722 0.12103
 C774 C 1.10966 -0.10517 0.10637
 C775 C 1.15027 -0.09752 0.11421
 C776 C 1.17301 -0.12110 0.13746
 C777 C 1.12251 -0.21944 0.17833
 C778 C 1.09903 -0.19499 0.15651
 C779 C 1.23549 -0.13652 0.17087
 C780 C 1.21308 -0.11312 0.14706
 H781 H 1.10904 -0.24481 0.18786
 H782 H 1.06820 -0.20223 0.14987
 H783 H 1.26621 -0.12914 0.17785
 H784 H 1.22713 -0.08843 0.13636
 H785 H 1.27154 -0.18391 0.21503
 H786 H 1.17333 -0.26165 0.21725
 H787 H 1.06075 -0.14320 0.11469
 H788 H 1.16373 -0.07269 0.10310
 C789 C 1.17847 0.32247 0.67451
 C790 C 1.21812 0.33150 0.68404
 C791 C 1.24012 0.30833 0.70830
 C792 C 1.22329 0.27579 0.72364
 C793 C 1.18423 0.26601 0.71035
 C794 C 1.16122 0.28985 0.68747
 C795 C 1.15481 0.34742 0.64992
 C796 C 1.11451 0.33908 0.64148
 C797 C 1.09172 0.36374 0.61934
 C798 C 1.10972 0.39552 0.60446
 C799 C 1.15043 0.40284 0.61208
 C800 C 1.17294 0.37924 0.63546
 C801 C 1.12119 0.28179 0.67739
 C802 C 1.09804 0.30624 0.65529
 C803 C 1.23521 0.36364 0.66912
 C804 C 1.21308 0.38699 0.64501
 H805 H 1.10741 0.25667 0.68726
 H806 H 1.06711 0.29927 0.64876
 H807 H 1.26598 0.37082 0.67612
 H808 H 1.22738 0.41147 0.63410
 H809 H 1.27062 0.31608 0.71441
 H810 H 1.17163 0.23962 0.71731
 H811 H 1.06036 0.35807 0.61317
 H812 H 1.16412 0.42751 0.60082
 C813 C 0.67836 -0.17749 0.67495
 C814 C 0.71793 -0.16824 0.68460
 C815 C 0.74011 -0.19143 0.70869
 C816 C 0.72355 -0.22421 0.72372
 C817 C 0.68458 -0.23416 0.71033
 C818 C 0.66138 -0.21032 0.68763
 C819 C 0.65451 -0.15253 0.65056
 C820 C 0.61429 -0.16111 0.64199
 C821 C 0.59133 -0.13648 0.61997
 C822 C 0.60909 -0.10450 0.60534
 C823 C 0.64970 -0.09690 0.61313
 C824 C 0.67238 -0.12048 0.63638
 C825 C 0.62144 -0.21860 0.67746
 C826 C 0.59810 -0.19416 0.65552
 C827 C 0.73474 -0.13586 0.66997
 C828 C 0.71243 -0.11250 0.64604
 H829 H 0.60786 -0.24388 0.68711
 H830 H 0.56724 -0.20131 0.64889
 H831 H 0.76544 -0.12850 0.67707
 H832 H 0.72653 -0.08783 0.63534
 H833 H 0.77052 -0.18348 0.71493
 H834 H 0.67217 -0.26066 0.71716
 H835 H 0.56005 -0.14236 0.61366
 H836 H 0.66320 -0.07208 0.60203
 C837 C 0.67822 0.32252 0.17512
 C838 C 0.71776 0.33184 0.18480
 C839 C 0.74003 0.30864 0.20879
 C840 C 0.72358 0.27577 0.22372
 C841 C 0.68464 0.26575 0.21030
 C842 C 0.66136 0.28959 0.18768
 C843 C 0.65427 0.34750 0.15084
 C844 C 0.61409 0.33883 0.14224
 C845 C 0.59104 0.36346 0.12029
 C846 C 0.60871 0.39553 0.10576
 C847 C 0.64929 0.40322 0.11360
 C848 C 0.67203 0.37964 0.13678
 C849 C 0.62143 0.28124 0.17749
 C850 C 0.59801 0.30569 0.15565
 C851 C 0.73446 0.36432 0.17030
 C852 C 0.71206 0.38770 0.14646
 H853 H 0.60795 0.25589 0.18706
 H854 H 0.56717 0.29848 0.14900
 H855 H 0.76513 0.37174 0.17742
 H856 H 0.72607 0.41244 0.13585
 H857 H 0.77040 0.31668 0.21507
 H858 H 0.67231 0.23921 0.21709
 H859 H 0.55979 0.35751 0.11393
 H860 H 0.66272 0.42811 0.10258
 C861 C 0.82257 0.17889 0.17556
 C862 C 0.83723 0.18929 0.21188
 C863 C 0.81383 0.21196 0.23537
 C864 C 0.77590 0.22551 0.22294
 C865 C 0.76166 0.21363 0.18630
 C866 C 0.78487 0.19076 0.16257
 C867 C 0.84672 0.15423 0.15112
 C868 C 0.83159 0.14300 0.11510
 C869 C 0.85422 0.11873 0.09246
 C870 C 0.89154 0.10560 0.10585
 C871 C 0.90649 0.11761 0.14178
 C872 C 0.88411 0.14176 0.16463
 C873 C 0.77085 0.17920 0.12618
 C874 C 0.79383 0.15577 0.10283
 C875 C 0.87489 0.17643 0.22435
 C876 C 0.89800 0.15315 0.20106
 H877 H 0.74176 0.18820 0.11572
 H878 H 0.78179 0.14734 0.07510
 H879 H 0.88655 0.18434 0.25241
 H880 H 0.92679 0.14370 0.21182
 H881 H 0.82495 0.21828 0.26405
 H882 H 0.73238 0.22158 0.17590
 H883 H 0.84247 0.10957 0.06486
 H884 H 0.93515 0.10761 0.15234
 C885 C 0.82235 0.67891 0.67537
 C886 C 0.83713 0.68934 0.71164
 C887 C 0.81378 0.71200 0.73521
 C888 C 0.77580 0.72551 0.72290
 C889 C 0.76143 0.71356 0.68633
 C890 C 0.78457 0.69072 0.66252
 C891 C 0.84644 0.65429 0.65084
 C892 C 0.83120 0.64303 0.61487
 C893 C 0.85380 0.61881 0.59214
 C894 C 0.89122 0.60578 0.60538
 C895 C 0.90627 0.61781 0.64126
 C896 C 0.88392 0.64190 0.66421
 C897 C 0.77042 0.67912 0.62619
 C898 C 0.79336 0.65572 0.60275
 C899 C 0.87486 0.67655 0.72397
 C900 C 0.89793 0.65330 0.70059
 H901 H 0.74127 0.68806 0.61584
 H902 H 0.78121 0.64727 0.57507
 H903 H 0.88661 0.68447 0.75198
 H904 H 0.92678 0.64391 0.71124
 H905 H 0.82500 0.71832 0.76386
 H906 H 0.73208 0.72145 0.67603
 H907 H 0.84197 0.60963 0.56458
 H908 H 0.93501 0.60788 0.65171
 C909 C 0.32180 0.17877 0.67532
 C910 C 0.33675 0.18935 0.71148
 C911 C 0.31346 0.21203 0.73509
 C912 C 0.27540 0.22546 0.72290
 C913 C 0.26084 0.21331 0.68647
 C914 C 0.28391 0.19044 0.66263
 C915 C 0.34583 0.15413 0.65076
 C916 C 0.33042 0.14271 0.61491
 C917 C 0.35298 0.11847 0.59214
 C918 C 0.39051 0.10559 0.60524
 C919 C 0.40572 0.11778 0.64100
 C920 C 0.38341 0.14189 0.66397
 C921 C 0.26959 0.17868 0.62642
 C922 C 0.29247 0.15526 0.60294
 C923 C 0.37458 0.17669 0.72366
 C924 C 0.39759 0.15344 0.70024
 H925 H 0.24035 0.18751 0.61620
 H926 H 0.28019 0.14668 0.57536
 H927 H 0.38647 0.18474 0.75159
 H928 H 0.42654 0.14416 0.71078
 H929 H 0.32482 0.21845 0.76366
 H930 H 0.23140 0.22107 0.67633
 H931 H 0.34103 0.10916 0.56468
 H932 H 0.43454 0.10797 0.65135
 C933 C 0.32156 0.67933 0.17618
 C934 C 0.33650 0.68998 0.21225
 C935 C 0.31325 0.71272 0.23585
 C936 C 0.27497 0.72654 0.22392
 C937 C 0.26056 0.71387 0.18737
 C938 C 0.28367 0.69093 0.16357
 C939 C 0.34558 0.65457 0.15164
 C940 C 0.33015 0.64305 0.11584
 C941 C 0.35271 0.61878 0.09307
 C942 C 0.39031 0.60593 0.10611
 C943 C 0.40549 0.61816 0.14188
 C944 C 0.38317 0.64232 0.16484
 C945 C 0.26931 0.67902 0.12740
 C946 C 0.29216 0.65556 0.10393
 C947 C 0.37434 0.67728 0.22444
 C948 C 0.39734 0.65395 0.20108
 H949 H 0.24005 0.68779 0.11718
 H950 H 0.27984 0.64692 0.07639
 H951 H 0.38625 0.68537 0.25234
 H952 H 0.42628 0.64468 0.21164
 H953 H 0.32485 0.71875 0.26444
 H954 H 0.23117 0.72119 0.17685
 H955 H 0.34074 0.60945 0.06563
 H956 H 0.43433 0.60838 0.15222
   
