data_POSCAR
  _audit_creation_date              2014-09-24
  _audit_creation_method            'ToBaCCo'
  _symmetry_space_group_name_H-M    'P1'
  _symmetry_Int_Tables_number       1
  _symmetry_cell_setting            triclinic
  loop_
  _symmetry_equiv_pos_as_xyz
 x,y,z
_cell_length_a 22.4971
_cell_length_b 22.5380
_cell_length_c 14.6937
_cell_angle_alpha 92.034200
_cell_angle_beta 87.683300
_cell_angle_gamma 90.201900
loop_
  _atom_site_label
  _atom_site_type_symbol
  _atom_site_fract_x
  _atom_site_fract_y
  _atom_site_fract_z
O1 O 0.05915 0.27732 -0.07142
 O2 O -0.05817 0.26506 0.11512
 O3 O 0.05544 0.27023 0.10419
 O4 O -0.07115 0.28536 -0.05296
 O5 O -0.07643 0.18761 -0.06175
 O6 O 0.06194 0.17831 0.05133
 O7 O -0.04873 0.16855 0.09466
 O8 O 0.02968 0.19028 -0.12173
 Cu9 Cu -0.00325 0.28597 0.02041
 Cu10 Cu -0.00600 0.17158 -0.01319
 C11 C 0.06787 0.23120 -0.12288
 C12 C -0.07349 0.21261 0.13674
 C13 C 0.08179 0.22027 0.10167
 C14 C -0.09965 0.23782 -0.07261
 O15 O 0.44644 0.76504 0.61907
 O16 O 0.56186 0.77716 0.43098
 O17 O 0.42937 0.78669 0.45088
 O18 O 0.55681 0.76928 0.60508
 O19 O 0.56027 0.67679 0.55418
 O20 O 0.42692 0.68950 0.42734
 O21 O 0.53297 0.69063 0.37707
 O22 O 0.44478 0.66936 0.58400
 Cu23 Cu 0.49873 0.78583 0.52131
 Cu24 Cu 0.49452 0.67211 0.48334
 C25 C 0.42588 0.71319 0.63340
 C26 C 0.57109 0.73166 0.37840
 C27 C 0.40251 0.73981 0.42329
 C28 C 0.58110 0.71835 0.60442
 O29 O 1.06964 0.71612 0.06266
 O30 O 0.94402 0.72871 -0.10002
 O31 O 1.05939 0.73484 -0.11057
 O32 O 0.94103 0.72386 0.07488
 O33 O 0.97163 0.81104 0.12267
 O34 O 1.04584 0.83121 -0.09773
 O35 O 0.93759 0.82132 -0.05070
 O36 O 1.07832 0.81293 0.05356
 Cu37 Cu 1.00360 0.71434 -0.01587
 Cu38 Cu 1.00575 0.82862 0.01223
 C39 C 1.10040 0.76350 0.07297
 C40 C 0.91758 0.77869 -0.09933
 C41 C 1.07283 0.78709 -0.13598
 C42 C 0.93302 0.77047 0.12539
 O43 O 0.44315 0.22998 0.39335
 O44 O 0.57050 0.21243 0.54701
 O45 O 0.43835 0.22300 0.56794
 O46 O 0.55363 0.23554 0.37943
 O47 O 0.55527 0.33121 0.41487
 O48 O 0.46780 0.30926 0.62214
 O49 O 0.57320 0.30962 0.57045
 O50 O 0.43974 0.32241 0.44452
 Cu51 Cu 0.50123 0.21392 0.47695
 Cu52 Cu 0.50550 0.32753 0.51523
 C53 C 0.41891 0.28090 0.39420
 C54 C 0.59747 0.25924 0.57442
 C55 C 0.42951 0.26840 0.62095
 C56 C 0.57411 0.28748 0.36520
 O57 O 0.71186 0.06859 -0.04639
 O58 O 0.73108 -0.05957 0.10612
 O59 O 0.73598 0.05110 0.12093
 O60 O 0.72285 -0.06319 -0.06763
 O61 O 0.80903 -0.03355 -0.12331
 O62 O 0.83134 0.05459 0.08200
 O63 O 0.82365 -0.06132 0.05478
 O64 O 0.80902 0.07148 -0.07328
 Cu65 Cu 0.71417 -0.00088 0.02357
 Cu66 Cu 0.82767 0.00424 -0.01713
 C67 C 0.75841 0.09562 -0.07558
 C68 C 0.78240 -0.08318 0.10528
 C69 C 0.78778 0.07260 0.13307
 C70 C 0.76817 -0.07183 -0.12129
 O71 O 0.22814 0.44222 0.60153
 O72 O 0.21263 0.57067 0.44835
 O73 O 0.22387 0.43953 0.42625
 O74 O 0.23392 0.55349 0.61639
 O75 O 0.33011 0.55507 0.58304
 O76 O 0.31089 0.46958 0.37452
 O77 O 0.31025 0.57345 0.42732
 O78 O 0.32124 0.43930 0.55224
 Cu79 Cu 0.21338 0.50123 0.51841
 Cu80 Cu 0.32749 0.50567 0.48276
 C81 C 0.27908 0.41787 0.60117
 C82 C 0.25989 0.59764 0.42197
 C83 C 0.26997 0.43137 0.37396
 C84 C 0.28576 0.57390 0.63169
 O85 O 0.26486 0.94348 -0.11596
 O86 O 0.27765 1.06194 0.06829
 O87 O 0.28744 0.93286 0.05131
 O88 O 0.26821 1.05859 -0.10696
 O89 O 0.17610 1.06281 -0.05393
 O90 O 0.18959 0.92778 0.06670
 O91 O 0.19010 1.03339 0.11971
 O92 O 0.16828 0.95064 -0.09176
 Cu93 Cu 0.28585 0.99998 -0.02367
 Cu94 Cu 0.17151 0.99588 0.01335
 C95 C 0.21240 0.92650 -0.13487
 C96 C 0.23151 1.07103 0.12006
 C97 C 0.24026 0.90479 0.07509
 C98 C 0.21759 1.08385 -0.10464
 O99 O 0.77606 0.55974 0.57452
 O100 O 0.76598 0.44683 0.38324
 O101 O 0.77259 0.55804 0.39893
 O102 O 0.78736 0.42869 0.55070
 O103 O 0.68967 0.42571 0.57035
 O104 O 0.67947 0.56120 0.44809
 O105 O 0.66966 0.44573 0.41559
 O106 O 0.68902 0.52940 0.62568
 Cu107 Cu 0.78677 0.49857 0.48161
 Cu108 Cu 0.67261 0.49431 0.51660
 C109 C 0.72987 0.56767 0.62668
 C110 C 0.71410 0.42680 0.36729
 C111 C 0.72178 0.58265 0.39941
 C112 C 0.74000 0.40144 0.57595
 C113 C 0.21538 0.13115 0.15874
 C114 C 0.15783 0.14898 0.14023
 C115 C 0.13770 0.20762 0.15090
 C116 C 0.17448 0.24915 0.19739
 C117 C 0.23244 0.23110 0.22274
 C118 C 0.25341 0.17246 0.20066
 C119 C 0.31069 0.15622 0.22378
 C120 C 0.34715 0.19608 0.26976
 C121 C 0.32769 0.25383 0.29492
 C122 C 0.26988 0.27198 0.26924
 C123 C 0.15549 0.30729 0.22086
 C124 C 0.19198 0.34713 0.26692
 C125 C 0.24893 0.33059 0.29136
 C126 C 0.28660 0.37153 0.33499
 C127 C 0.34364 0.35333 0.35578
 C128 C 0.36389 0.29477 0.34363
 H129 H 0.32754 0.11201 0.20765
 H130 H 0.39112 0.18073 0.28277
 H131 H 0.11184 0.32291 0.20649
 H132 H 0.17534 0.39150 0.28244
 H133 H 0.12903 0.11626 0.10905
 H134 H 0.37168 0.38552 0.38979
 C135 C 0.70868 0.63860 0.35023
 C136 C 0.64989 0.65866 0.36162
 C137 C 0.63175 0.71572 0.34114
 C138 C 0.67313 0.75383 0.29880
 C139 C 0.73199 0.73320 0.27687
 C140 C 0.75012 0.67537 0.30268
 C141 C 0.80834 0.65648 0.27875
 C142 C 0.84829 0.69307 0.23262
 C143 C 0.83177 0.74997 0.20799
 C144 C 0.77298 0.77080 0.22993
 C145 C 0.65686 0.81104 0.27577
 C146 C 0.69683 0.84778 0.22994
 C147 C 0.75479 0.82860 0.20381
 C148 C 0.79588 0.86471 0.15360
 C149 C 0.85487 0.84445 0.14275
 C150 C 0.87301 0.78756 0.16432
 H151 H 0.82400 0.61285 0.29284
 H152 H 0.89279 0.67648 0.21726
 H153 H 0.61256 0.82781 0.29226
 H154 H 0.68121 0.89177 0.21815
 H155 H 0.61726 0.63031 0.39452
 H156 H 0.88770 0.87230 0.10921
 C157 C 0.87643 0.20099 0.19583
 C158 C 0.85920 0.14115 0.20206
 C159 C 0.79924 0.12460 0.19672
 C160 C 0.75561 0.16767 0.22301
 C161 C 0.77326 0.22789 0.23822
 C162 C 0.83401 0.24475 0.22505
 C163 C 0.85010 0.30435 0.24153
 C164 C 0.80755 0.34710 0.26651
 C165 C 0.74716 0.33201 0.27748
 C166 C 0.72965 0.27181 0.26204
 C167 C 0.69532 0.15251 0.23540
 C168 C 0.65284 0.19531 0.26034
 C169 C 0.66890 0.25500 0.27483
 C170 C 0.62616 0.29886 0.30110
 C171 C 0.64338 0.35856 0.29579
 C172 C 0.70329 0.37506 0.30291
 H173 H 0.89601 0.31855 0.23811
 H174 H 0.82273 0.39244 0.27342
 H175 H 0.68014 0.10714 0.22938
 H176 H 0.60699 0.18104 0.26472
 H177 H 0.89247 0.10694 0.18821
 H178 H 0.60966 0.39229 0.30972
 C179 C 0.16069 0.76544 0.09710
 C180 C 0.19431 0.80954 0.05414
 C181 C 0.23859 0.84122 0.09834
 C182 C 0.26364 0.81633 0.17414
 C183 C 0.23799 0.76335 0.20942
 C184 C 0.18576 0.73764 0.17133
 C185 C 0.16074 0.68652 0.20944
 C186 C 0.18701 0.65992 0.28217
 C187 C 0.23692 0.68561 0.32229
 C188 C 0.26258 0.73817 0.28614
 C189 C 0.31375 0.84173 0.21398
 C190 C 0.34004 0.81478 0.28618
 C191 C 0.31466 0.76387 0.32396
 C192 C 0.33887 0.73791 0.39981
 C193 C 0.30669 0.69297 0.44266
 C194 C 0.26207 0.66116 0.39870
 H195 H 0.12165 0.66574 0.18202
 H196 H 0.16678 0.62015 0.30880
 H197 H 0.33402 0.88156 0.18763
 H198 H 0.37925 0.83513 0.31421
 H199 H 0.17805 0.82747 -0.00786
 H200 H 0.32476 0.67450 0.50299
 C201 C 0.83686 0.23585 0.90307
 C202 C 0.80414 0.19134 0.94635
 C203 C 0.75981 0.15934 0.90212
 C204 C 0.73507 0.18364 0.82539
 C205 C 0.76111 0.23597 0.78882
 C206 C 0.81312 0.26162 0.82663
 C207 C 0.83892 0.31211 0.78792
 C208 C 0.81312 0.33857 0.71476
 C209 C 0.76297 0.31315 0.67497
 C210 C 0.73702 0.26077 0.71148
 C211 C 0.68502 0.15810 0.78549
 C212 C 0.65923 0.18456 0.71231
 C213 C 0.68499 0.23512 0.67378
 C214 C 0.66105 0.26097 0.59765
 C215 C 0.69323 0.30595 0.55476
 C216 C 0.73783 0.33776 0.59873
 H217 H 0.87810 0.33258 0.81576
 H218 H 0.83372 0.37805 0.68779
 H219 H 0.66445 0.11863 0.81261
 H220 H 0.62001 0.16420 0.68433
 H221 H 0.82172 0.17303 1.00713
 H222 H 0.67517 0.32450 0.49450
 C223 C 0.37375 0.70194 0.69739
 C224 C 0.35658 0.64224 0.70281
 C225 C 0.29669 0.62571 0.69600
 C226 C 0.25290 0.66866 0.72230
 C227 C 0.27041 0.72890 0.73793
 C228 C 0.33103 0.74583 0.72393
 C229 C 0.34693 0.80567 0.73735
 C230 C 0.30455 0.84840 0.76313
 C231 C 0.24446 0.83304 0.77833
 C232 C 0.22687 0.77269 0.76314
 C233 C 0.19264 0.65338 0.73419
 C234 C 0.15020 0.69594 0.76050
 C235 C 0.16625 0.75551 0.77727
 C236 C 0.12363 0.79901 0.80646
 C237 C 0.14080 0.85894 0.80131
 C238 C 0.20084 0.87576 0.80754
 H239 H 0.39263 0.82021 0.73158
 H240 H 0.31961 0.89387 0.76782
 H241 H 0.17754 0.60804 0.72695
 H242 H 0.10432 0.68163 0.76466
 H243 H 0.39027 0.60848 0.68876
 H244 H 0.10707 0.89281 0.81409
 C245 C 0.20486 0.13664 0.84818
 C246 C 0.14608 0.15741 0.85956
 C247 C 0.12823 0.21451 0.83886
 C248 C 0.16961 0.25195 0.79529
 C249 C 0.22818 0.23066 0.77256
 C250 C 0.24614 0.17267 0.79828
 C251 C 0.30403 0.15328 0.77216
 C252 C 0.34395 0.18972 0.72561
 C253 C 0.32777 0.24689 0.70222
 C254 C 0.26915 0.26793 0.72500
 C255 C 0.15341 0.30906 0.77136
 C256 C 0.19336 0.34532 0.72463
 C257 C 0.25119 0.32583 0.69933
 C258 C 0.29240 0.36211 0.65056
 C259 C 0.35098 0.34162 0.63791
 C260 C 0.36904 0.28461 0.65874
 H261 H 0.31963 0.10939 0.78461
 H262 H 0.38815 0.17277 0.70878
 H263 H 0.10918 0.32605 0.78772
 H264 H 0.17804 0.38918 0.71116
 H265 H 0.11300 0.12952 0.89239
 H266 H 0.38346 0.36957 0.60387
 C267 C 0.71307 0.62748 0.66548
 C268 C 0.65626 0.64586 0.64359
 C269 C 0.63608 0.70447 0.65536
 C270 C 0.67225 0.74536 0.70435
 C271 C 0.72980 0.72700 0.73114
 C272 C 0.75058 0.66827 0.70976
 C273 C 0.80720 0.65146 0.73555
 C274 C 0.84356 0.69120 0.78219
 C275 C 0.82481 0.74953 0.80462
 C276 C 0.76716 0.76779 0.77800
 C277 C 0.65302 0.80331 0.72868
 C278 C 0.68942 0.84309 0.77490
 C279 C 0.74641 0.82660 0.79908
 C280 C 0.78436 0.86786 0.84115
 C281 C 0.84154 0.84989 0.86111
 C282 C 0.86157 0.79107 0.85124
 H283 H 0.82364 0.60694 0.72069
 H284 H 0.88690 0.67540 0.79799
 H285 H 0.60930 0.81890 0.71473
 H286 H 0.67276 0.88746 0.79042
 H287 H 0.62839 0.61371 0.60915
 H288 H 0.87000 0.88281 0.89257
   
