data_POSCAR
  _audit_creation_date              2014-09-24
  _audit_creation_method            'ToBaCCo'
  _symmetry_space_group_name_H-M    'P1'
  _symmetry_Int_Tables_number       1
  _symmetry_cell_setting            triclinic
  loop_
  _symmetry_equiv_pos_as_xyz
 x,y,z
_cell_length_a 23.9434
_cell_length_b 23.9382
_cell_length_c 41.0855
_cell_angle_alpha 90.202800
_cell_angle_beta 94.553900
_cell_angle_gamma 89.450100
loop_
  _atom_site_label
  _atom_site_type_symbol
  _atom_site_fract_x
  _atom_site_fract_y
  _atom_site_fract_z
C1 C 0.00471 0.64727 0.99967
 C2 C -0.00736 0.61894 1.02787
 C3 C -0.00885 0.56043 1.02796
 C4 C 0.00475 0.52916 1.00029
 C5 C 0.01850 0.55897 0.97235
 C6 C 0.01680 0.61749 0.97179
 C7 C 0.00380 0.46623 1.00042
 C8 C -0.00100 0.43542 0.97081
 C9 C -0.00115 0.37695 0.97103
 C10 C 0.00048 0.34830 1.00055
 C11 C 0.00366 0.37757 1.03001
 C12 C 0.00692 0.43594 1.03010
 H13 H 0.00425 0.69266 0.99935
 H14 H -0.02135 0.54009 1.04964
 H15 H 0.03056 0.53744 0.95079
 H16 H -0.00535 0.45599 0.94738
 H17 H -0.00123 0.30301 1.00059
 H18 H 0.01184 0.45684 1.05348
 C19 C 0.35362 0.01248 0.50346
 C20 C 0.38831 0.00420 0.53197
 C21 C 0.44657 0.00249 0.53072
 C22 C 0.47122 0.01211 0.50105
 C23 C 0.43505 0.02192 0.47263
 C24 C 0.37679 0.02058 0.47377
 C25 C 0.53387 0.01199 0.49976
 C26 C 0.55859 0.00281 0.46998
 C27 C 0.61685 0.00440 0.46870
 C28 C 0.65147 0.01206 0.49729
 C29 C 0.62823 0.01967 0.52709
 C30 C 0.56990 0.02117 0.52826
 H31 H 0.30845 0.01266 0.50439
 H32 H 0.47190 -0.00668 0.55304
 H33 H 0.45132 0.03102 0.44946
 H34 H 0.53322 -0.00591 0.44762
 H35 H 0.69669 0.01216 0.49633
 H36 H 0.55336 0.02990 0.55149
 C37 C 0.08244 0.00381 0.26702
 H38 H 0.08625 0.00161 0.24098
 C39 C 0.13033 0.01052 0.28847
 H40 H 0.17099 0.01313 0.27880
 C41 C 0.02464 0.00543 0.31122
 H42 H -0.01653 0.00454 0.32011
 C43 C 0.07115 0.01246 0.33341
 H44 H 0.06512 0.01537 0.35920
 N45 N 0.03093 0.00078 0.27870
 C46 C -0.08301 -0.08349 0.20648
 H47 H -0.11919 -0.05648 0.20808
 C48 C -0.08574 -0.12867 0.18492
 H49 H -0.12454 -0.13661 0.17034
 C50 C 0.01156 -0.10520 0.22343
 H51 H 0.04950 -0.09571 0.23830
 C52 C 0.01076 -0.15080 0.20203
 H53 H 0.04864 -0.17534 0.20035
 Zn54 Zn -0.03391 -0.00461 0.24916
 N55 N -0.03444 -0.07167 0.22449
 C56 C -0.03726 0.04831 0.18773
 N57 N -0.03412 0.05729 0.22052
 C58 C -0.02789 0.10970 0.23317
 C59 C -0.02513 0.15574 0.21247
 C60 C -0.03520 0.09299 0.16624
 C61 C -0.10609 -0.04949 0.29182
 C62 C -0.15034 -0.05071 0.31192
 C63 C -0.18036 0.03995 0.29118
 C64 C -0.13537 0.03947 0.27147
 N65 N -0.09859 -0.00426 0.27279
 H66 H -0.04061 0.00642 0.17805
 H67 H -0.02456 0.11562 0.25936
 H68 H -0.02035 0.19722 0.22284
 H69 H -0.03712 0.08479 0.14024
 H70 H -0.07638 -0.08386 0.29217
 H71 H -0.15386 -0.08600 0.32800
 H72 H -0.20871 0.07552 0.29025
 H73 H -0.12927 0.07452 0.25570
 C74 C -0.03799 -0.16218 0.18182
 C75 C 0.12487 0.01522 0.32216
 C76 C -0.18764 -0.00510 0.31224
 C77 C -0.02906 0.14755 0.17851
 C78 C 0.03161 0.10643 0.76822
 H79 H 0.03536 0.11290 0.74244
 C80 C 0.02506 0.15230 0.78882
 H81 H 0.02408 0.19410 0.77880
 C82 C 0.02569 0.04396 0.81239
 H83 H 0.02452 0.00179 0.82148
 C84 C 0.01869 0.08840 0.83372
 H85 H 0.01383 0.07977 0.85919
 N86 N 0.03224 0.05354 0.78031
 C87 C 0.10901 -0.05197 0.70876
 H88 H 0.07882 -0.08540 0.70731
 C89 C 0.15361 -0.05322 0.68890
 H90 H 0.15695 -0.08759 0.67195
 C91 C 0.13904 0.03479 0.73152
 H92 H 0.13322 0.06894 0.74820
 C93 C 0.18440 0.03522 0.71208
 H94 H 0.21319 0.06989 0.71405
 Zn95 Zn 0.03564 -0.00801 0.75133
 N96 N 0.10160 -0.00767 0.72880
 C97 C -0.02114 0.00454 0.68869
 N98 N -0.02802 -0.00227 0.72097
 C99 C -0.07993 -0.00136 0.73227
 C100 C -0.12762 0.00533 0.71064
 C101 C -0.06752 0.01160 0.66630
 C102 C 0.08051 -0.08499 0.79707
 C103 C 0.08154 -0.13101 0.81785
 C104 C -0.00787 -0.15904 0.79182
 C105 C -0.00726 -0.11230 0.77157
 N106 N 0.03575 -0.07555 0.77523
 H107 H 0.02034 0.00535 0.68018
 H108 H -0.08420 -0.00547 0.75817
 H109 H -0.16860 0.00621 0.72005
 H110 H -0.06107 0.01621 0.64066
 H111 H 0.11442 -0.05533 0.79921
 H112 H 0.11624 -0.13600 0.83620
 H113 H -0.04297 -0.18729 0.78901
 H114 H -0.04172 -0.10493 0.75346
 C115 C 0.19144 -0.00866 0.68989
 C116 C 0.01796 0.14341 0.82200
 C117 C 0.03634 -0.16816 0.81590
 C118 C -0.12165 0.01212 0.67716
 C119 C -0.03175 -0.28497 0.10549
 C120 C -0.06202 -0.23523 0.09993
 C121 C -0.06513 -0.19607 0.12500
 C122 C -0.01708 -0.35106 0.05513
 C123 C -0.00858 -0.25680 0.16170
 C124 C -0.00546 -0.29598 0.13650
 C125 C -0.02438 -0.32226 0.07858
 C126 C -0.03794 -0.20605 0.15611
 H127 H -0.08201 -0.22600 0.07594
 H128 H -0.08718 -0.15708 0.11964
 H129 H 0.01234 -0.26598 0.18544
 H130 H 0.01835 -0.33426 0.14102
 C131 C -0.01360 0.27863 0.10890
 C132 C -0.05578 0.23880 0.10383
 C133 C -0.06185 0.19730 0.12700
 C134 C 0.00033 0.34669 0.05979
 C135 C 0.01537 0.23633 0.16119
 C136 C 0.02157 0.27784 0.13782
 C137 C -0.00491 0.31739 0.08313
 C138 C -0.02574 0.19499 0.15566
 H139 H -0.08321 0.23900 0.08154
 H140 H -0.09432 0.16646 0.12230
 H141 H 0.04402 0.23524 0.18295
 H142 H 0.05456 0.30831 0.14190
 C143 C 0.30807 -0.00353 0.61573
 C144 C 0.29914 -0.05379 0.63173
 C145 C 0.26303 -0.05518 0.65687
 C146 C 0.36327 -0.00062 0.56254
 C147 C 0.24606 0.04434 0.65072
 C148 C 0.28219 0.04563 0.62566
 C149 C 0.33956 -0.00278 0.58732
 C150 C 0.23515 -0.00630 0.66619
 H151 H 0.31883 -0.09213 0.62418
 H152 H 0.25606 -0.09469 0.66857
 H153 H 0.22470 0.08253 0.65691
 H154 H 0.28842 0.08469 0.61325
 C155 C -0.26133 0.02705 0.60530
 C156 C -0.21470 0.06141 0.60373
 C157 C -0.17001 0.05771 0.62765
 C158 C -0.33693 0.02403 0.55484
 C159 C -0.21913 -0.01366 0.65548
 C160 C -0.26381 -0.00998 0.63144
 C161 C -0.30375 0.02622 0.57846
 C162 C -0.17126 0.01939 0.65346
 H163 H -0.21221 0.09003 0.58353
 H164 H -0.13410 0.08431 0.62572
 H165 H -0.22107 -0.04386 0.67491
 H166 H -0.29948 -0.03717 0.63271
 C167 C 0.02955 -0.29138 0.89130
 C168 C -0.01931 -0.26376 0.87892
 C169 C -0.01738 -0.22516 0.85365
 C170 C 0.02386 -0.35403 0.94377
 C171 C 0.08226 -0.24276 0.85228
 C172 C 0.08023 -0.28138 0.87766
 C173 C 0.02770 -0.32670 0.91946
 C174 C 0.03360 -0.21350 0.84034
 H175 H -0.05869 -0.27086 0.88948
 H176 H -0.05540 -0.20278 0.84547
 H177 H 0.12202 -0.23522 0.84231
 H178 H 0.11833 -0.30245 0.88709
 C179 C -0.00143 0.27590 0.89102
 C180 C -0.03587 0.22902 0.89078
 C181 C -0.03066 0.18679 0.86769
 C182 C -0.00241 0.34519 0.94117
 C183 C 0.04233 0.23898 0.84407
 C184 C 0.03718 0.28121 0.86735
 C185 C -0.00238 0.31528 0.91751
 C186 C 0.00926 0.19076 0.84448
 H187 H -0.06572 0.22434 0.90906
 H188 H -0.05730 0.15055 0.86827
 H189 H 0.07363 0.24295 0.82661
 H190 H 0.06442 0.31710 0.86750
 C191 C -0.30423 -0.00129 0.38650
 C192 C -0.27779 0.04771 0.37781
 C193 C -0.24157 0.04691 0.35279
 C194 C -0.35945 0.00044 0.43970
 C195 C -0.25954 -0.05174 0.34422
 C196 C -0.29574 -0.05084 0.36934
 C197 C -0.33581 -0.00125 0.41487
 C198 C -0.23115 -0.00308 0.33610
 H199 H -0.28366 0.08619 0.39114
 H200 H -0.21980 0.08487 0.34754
 H201 H -0.25296 -0.09071 0.33156
 H202 H -0.31585 -0.08906 0.37594
 C203 C 0.26434 0.02972 0.39402
 C204 C 0.26816 -0.00587 0.36714
 C205 C 0.22358 -0.00923 0.34302
 C206 C 0.33996 0.02579 0.44447
 C207 C 0.17195 0.05971 0.37225
 C208 C 0.21653 0.06310 0.39622
 C209 C 0.30674 0.02838 0.42087
 C210 C 0.17450 0.02267 0.34573
 H211 H 0.30479 -0.03228 0.36534
 H212 H 0.22653 -0.03840 0.32302
 H213 H 0.13506 0.08541 0.37472
 H214 H 0.21302 0.09064 0.41697
   
