data_POSCAR
  _audit_creation_date              2014-09-24
  _audit_creation_method            'ToBaCCo'
  _symmetry_space_group_name_H-M    'P1'
  _symmetry_Int_Tables_number       1
  _symmetry_cell_setting            triclinic
  loop_
  _symmetry_equiv_pos_as_xyz
 x,y,z
_cell_length_a 41.7229
_cell_length_b 38.3735
_cell_length_c 23.1342
_cell_angle_alpha 90.126300
_cell_angle_beta 90.000300
_cell_angle_gamma 90.063400
loop_
  _atom_site_label
  _atom_site_type_symbol
  _atom_site_fract_x
  _atom_site_fract_y
  _atom_site_fract_z
O1 O 0.23188 0.28296 0.18237
 O2 O 0.28938 0.21547 0.22720
 O3 O 0.23209 0.21512 0.18179
 O4 O 0.28924 0.28291 0.22752
 O5 O 0.26794 0.28287 0.31478
 O6 O 0.21061 0.21522 0.26880
 O7 O 0.26792 0.21502 0.31434
 O8 O 0.21058 0.28263 0.26964
 Cu9 Cu 0.26273 0.24913 0.19595
 Cu10 Cu 0.23718 0.24890 0.30066
 C11 C 0.21119 0.29413 0.21820
 C12 C 0.28869 0.20393 0.27861
 C13 C 0.21125 0.20378 0.21719
 C14 C 0.28859 0.29426 0.27913
 O15 O 0.71063 0.28409 0.22720
 O16 O 0.76812 0.21651 0.18229
 O17 O 0.71077 0.21665 0.22751
 O18 O 0.76794 0.28435 0.18187
 O19 O 0.78939 0.28445 0.26890
 O20 O 0.73209 0.21689 0.31476
 O21 O 0.78943 0.21704 0.26955
 O22 O 0.73206 0.28473 0.31435
 Cu23 Cu 0.73728 0.25037 0.19595
 Cu24 Cu 0.76283 0.25082 0.30066
 C25 C 0.71130 0.29575 0.27863
 C26 C 0.78881 0.20543 0.21809
 C27 C 0.71142 0.20542 0.27911
 C28 C 0.78876 0.29578 0.21731
 O29 O 0.73220 0.78463 0.68570
 O30 O 0.78929 0.71674 0.73036
 O31 O 0.73195 0.71678 0.68514
 O32 O 0.78953 0.78416 0.73114
 O33 O 0.76808 0.78432 0.81818
 O34 O 0.71064 0.71682 0.77240
 O35 O 0.76798 0.71648 0.81762
 O36 O 0.71077 0.78425 0.77285
 Cu37 Cu 0.76283 0.75060 0.69931
 Cu38 Cu 0.73728 0.75046 0.80403
 C39 C 0.71148 0.79581 0.72145
 C40 C 0.78864 0.70524 0.78179
 C41 C 0.71124 0.70548 0.72078
 C42 C 0.78894 0.79559 0.78276
 O43 O 0.23191 0.71675 0.81787
 O44 O 0.28940 0.78430 0.77276
 O45 O 0.23210 0.78460 0.81805
 O46 O 0.28925 0.71686 0.77257
 O47 O 0.26793 0.71673 0.68532
 O48 O 0.21062 0.78431 0.73103
 O49 O 0.26796 0.78458 0.68561
 O50 O 0.21061 0.71690 0.73061
 Cu51 Cu 0.26275 0.75063 0.80408
 Cu52 Cu 0.23719 0.75064 0.69937
 C53 C 0.21122 0.70549 0.78210
 C54 C 0.28873 0.79577 0.72131
 C55 C 0.21126 0.79584 0.78258
 C56 C 0.28859 0.70545 0.72100
 C57 C 0.97105 -0.05690 -0.07941
 C58 C 1.00024 -0.07013 -0.09934
 C59 C 1.02944 -0.05668 -0.07973
 C60 C 1.02970 -0.02856 -0.04015
 C61 C 1.00025 -0.01453 -0.02024
 C62 C 0.97080 -0.02883 -0.03972
 C63 C 0.94189 -0.01465 -0.01922
 C64 C 0.94190 0.01303 0.01980
 C65 C 0.97080 0.02770 0.03954
 C66 C 1.00026 0.01370 0.01955
 C67 C 1.05862 -0.01403 -0.02021
 C68 C 1.05863 0.01367 0.01875
 C69 C 1.02972 0.02795 0.03911
 C70 C 1.02948 0.05597 0.07886
 C71 C 1.00030 0.06916 0.09887
 C72 C 0.97107 0.05579 0.07923
 H73 H 0.91896 -0.02478 -0.03330
 H74 H 0.91896 0.02270 0.03460
 H75 H 1.08154 -0.02391 -0.03473
 H76 H 1.08156 0.02372 0.03299
 H77 H 1.00024 -0.09204 -0.12907
 H78 H 1.00035 0.09103 0.12870
 C79 C 0.47046 0.44448 0.41921
 C80 C 0.49966 0.43149 0.39892
 C81 C 0.52888 0.44466 0.41896
 C82 C 0.52914 0.47241 0.45930
 C83 C 0.49968 0.48632 0.47946
 C84 C 0.47022 0.47224 0.45955
 C85 C 0.44132 0.48646 0.48003
 C86 C 0.44133 0.51381 0.51967
 C87 C 0.47024 0.52820 0.53993
 C88 C 0.49969 0.51428 0.51980
 C89 C 0.55804 0.48681 0.47956
 C90 C 0.55805 0.51413 0.51924
 C91 C 0.52916 0.52835 0.53974
 C92 C 0.52892 0.55608 0.58011
 C93 C 0.49971 0.56910 0.60036
 C94 C 0.47049 0.55595 0.58027
 H95 H 0.41838 0.47667 0.46541
 H96 H 0.41839 0.52347 0.53447
 H97 H 0.58098 0.47717 0.46473
 H98 H 0.58100 0.52392 0.53386
 H99 H 0.49966 0.40985 0.36864
 H100 H 0.49972 0.59072 0.63066
 C101 C 0.02897 0.55572 -0.07906
 C102 C -0.00023 0.56877 -0.09916
 C103 C -0.02945 0.55548 -0.07942
 C104 C -0.02971 0.52756 -0.03961
 C105 C -0.00025 0.51365 -0.01957
 C106 C 0.02922 0.52785 -0.03916
 C107 C 0.05811 0.51360 -0.01881
 C108 C 0.05810 0.48611 0.02034
 C109 C 0.02920 0.47159 0.04024
 C110 C -0.00025 0.48555 0.02027
 C111 C -0.05861 0.51296 -0.01986
 C112 C -0.05861 0.48543 0.01924
 C113 C -0.02971 0.47133 0.03979
 C114 C -0.02947 0.44343 0.07960
 C115 C -0.00030 0.43032 0.09967
 C116 C 0.02893 0.44362 0.07998
 H117 H 0.08106 0.52349 -0.03318
 H118 H 0.08104 0.47641 0.03503
 H119 H -0.08155 0.52256 -0.03471
 H120 H -0.08155 0.47535 0.03334
 H121 H -0.00023 0.59050 -0.12909
 H122 H -0.00034 0.40855 0.12951
 C123 C 0.47109 0.94491 0.58118
 C124 C 0.50030 0.93200 0.60150
 C125 C 0.52952 0.94504 0.58133
 C126 C 0.52978 0.97261 0.54084
 C127 C 0.50032 0.98643 0.52063
 C128 C 0.47085 0.97246 0.54065
 C129 C 0.44196 0.98658 0.52008
 C130 C 0.44197 1.01371 0.48023
 C131 C 0.47087 1.02800 0.45987
 C132 C 0.50033 1.01419 0.48011
 C133 C 0.55868 0.98691 0.52050
 C134 C 0.55868 1.01405 0.48068
 C135 C 0.52979 1.02817 0.46010
 C136 C 0.52955 1.05572 0.41959
 C137 C 0.50034 1.06861 0.39921
 C138 C 0.47112 1.05555 0.41934
 H139 H 0.41901 0.97688 0.53479
 H140 H 0.41902 1.02327 0.46534
 H141 H 0.58162 0.97734 0.53538
 H142 H 0.58163 1.02378 0.46600
 H143 H 0.50029 0.91050 0.63190
 H144 H 0.50035 1.09010 0.36879
 C145 C 1.13968 0.13331 0.15956
 C146 C 1.13949 0.14599 0.21663
 C147 C 1.16359 0.16841 0.23615
 C148 C 1.18839 0.17916 0.19888
 C149 C 1.18900 0.16570 0.14219
 C150 C 1.16505 0.14297 0.12293
 C151 C 1.11275 0.11148 0.13769
 C152 C 1.10120 0.11592 0.08099
 C153 C 1.07467 0.09705 0.06143
 C154 C 1.05911 0.07355 0.09820
 C155 C 1.07065 0.06858 0.15442
 C156 C 1.09740 0.08719 0.17391
 H157 H 1.16216 0.17810 0.28010
 H158 H 1.20780 0.17297 0.11224
 H159 H 1.06574 0.10139 0.01807
 H160 H 1.05876 0.05053 0.18329
 H161 H 1.16633 0.13314 0.07910
 H162 H 1.11198 0.13482 0.05225
 H163 H 1.12012 0.13952 0.24584
 H164 H 1.10591 0.08271 0.21746
 C165 C 0.63851 0.63387 0.66238
 C166 C 0.63656 0.64935 0.71743
 C167 C 0.66061 0.67184 0.73692
 C168 C 0.68707 0.67965 0.70167
 C169 C 0.68941 0.66367 0.64712
 C170 C 0.66547 0.64093 0.62779
 C171 C 0.61184 0.61177 0.64033
 C172 C 0.60223 0.61389 0.58211
 C173 C 0.57584 0.59492 0.56219
 C174 C 0.55854 0.57353 0.60005
 C175 C 0.56820 0.57087 0.65786
 C176 C 0.59476 0.58962 0.67777
 H177 H 0.65800 0.68387 0.77905
 H178 H 0.70962 0.66898 0.61910
 H179 H 0.56835 0.59759 0.51758
 H180 H 0.55496 0.55454 0.68764
 H181 H 0.66802 0.62900 0.58559
 H182 H 0.61442 0.63113 0.55233
 H183 H 0.61593 0.64499 0.74486
 H184 H 0.60176 0.58696 0.72260
 C185 C -0.13967 0.36616 0.15992
 C186 C -0.16501 0.35639 0.12321
 C187 C -0.18896 0.33369 0.14239
 C188 C -0.18838 0.32037 0.19907
 C189 C -0.16362 0.33122 0.23641
 C190 C -0.13952 0.35363 0.21697
 C191 C -0.11274 0.38797 0.13814
 C192 C -0.09745 0.41237 0.17442
 C193 C -0.07071 0.43097 0.15503
 C194 C -0.05910 0.42586 0.09885
 C195 C -0.07459 0.40224 0.06203
 C196 C -0.10112 0.38339 0.08148
 H197 H -0.20773 0.32634 0.11238
 H198 H -0.16221 0.32164 0.28035
 H199 H -0.05886 0.44911 0.18394
 H200 H -0.06561 0.39779 0.01870
 H201 H -0.12018 0.36018 0.24624
 H202 H -0.10602 0.41696 0.21794
 H203 H -0.16625 0.36612 0.07938
 H204 H -0.11186 0.36440 0.05271
 C205 C 0.36146 0.86736 0.66340
 C206 C 0.33444 0.86040 0.62887
 C207 C 0.31049 0.83769 0.64807
 C208 C 0.31288 0.82164 0.70244
 C209 C 0.33940 0.82937 0.73766
 C210 C 0.36345 0.85183 0.71829
 C211 C 0.38816 0.88939 0.64140
 C212 C 0.40534 0.91150 0.67893
 C213 C 0.43190 0.93019 0.65903
 C214 C 0.44147 0.92751 0.60115
 C215 C 0.42409 0.90615 0.56322
 C216 C 0.39768 0.88724 0.58313
 H217 H 0.29024 0.83245 0.62007
 H218 H 0.34205 0.81729 0.77965
 H219 H 0.44521 0.94649 0.68886
 H220 H 0.43151 0.90345 0.51856
 H221 H 0.38413 0.85612 0.74567
 H222 H 0.39840 0.91417 0.72381
 H223 H 0.33186 0.87237 0.58679
 H224 H 0.38543 0.87003 0.55328
 C225 C -0.13893 0.63329 -0.16090
 C226 C -0.13682 0.64908 -0.21557
 C227 C -0.16078 0.67167 -0.23475
 C228 C -0.18731 0.67927 -0.19953
 C229 C -0.18982 0.66298 -0.14539
 C230 C -0.16597 0.64013 -0.12639
 C231 C -0.11232 0.61111 -0.13911
 C232 C -0.10291 0.61290 -0.08073
 C233 C -0.07655 0.59391 -0.06101
 C234 C -0.05908 0.57287 -0.09922
 C235 C -0.06855 0.57052 -0.15719
 C236 C -0.09508 0.58927 -0.17691
 H237 H -0.15803 0.68395 -0.27657
 H238 H -0.21009 0.66812 -0.11741
 H239 H -0.06920 0.59633 -0.01626
 H240 H -0.05518 0.55445 -0.18724
 H241 H -0.16865 0.62796 -0.08449
 H242 H -0.11521 0.62990 -0.05065
 H243 H -0.11612 0.64491 -0.24293
 H244 H -0.10194 0.58686 -0.22187
 C245 C 0.36146 1.13257 0.33656
 C246 C 0.33435 1.13932 0.37094
 C247 C 0.31038 1.16194 0.35170
 C248 C 0.31285 1.17811 0.29744
 C249 C 0.33944 1.17058 0.26234
 C250 C 0.36352 1.14820 0.28175
 C251 C 0.38818 1.11067 0.35866
 C252 C 0.40552 1.08873 0.32118
 C253 C 0.43208 1.07016 0.34122
 C254 C 0.44150 1.07281 0.39919
 C255 C 0.42396 1.09402 0.43706
 C256 C 0.39756 1.11280 0.41702
 H257 H 0.29007 1.16703 0.37960
 H258 H 0.34215 1.18276 0.22043
 H259 H 0.44552 1.05398 0.31143
 H260 H 0.43127 1.09669 0.48179
 H261 H 0.38426 1.14407 0.25449
 H262 H 0.39870 1.08609 0.27623
 H263 H 0.33171 1.12726 0.41293
 H264 H 0.38518 1.12990 0.44683
 C265 C 1.13969 -0.13376 -0.16017
 C266 C 1.13950 -0.14655 -0.21716
 C267 C 1.16361 -0.16895 -0.23657
 C268 C 1.18840 -0.17956 -0.19924
 C269 C 1.18903 -0.16597 -0.14263
 C270 C 1.16508 -0.14327 -0.12350
 C271 C 1.11274 -0.11198 -0.13840
 C272 C 1.09733 -0.08784 -0.17475
 C273 C 1.07057 -0.06929 -0.15533
 C274 C 1.05907 -0.07419 -0.09906
 C275 C 1.07469 -0.09754 -0.06217
 C276 C 1.10123 -0.11634 -0.08165
 H277 H 1.16217 -0.17873 -0.28046
 H278 H 1.20783 -0.17313 -0.11264
 H279 H 1.05863 -0.05136 -0.18429
 H280 H 1.06579 -0.10182 -0.01877
 H281 H 1.16635 -0.13335 -0.07972
 H282 H 1.10582 -0.08342 -0.21834
 H283 H 1.12012 -0.14020 -0.24640
 H284 H 1.11205 -0.13513 -0.05281
 C285 C 0.63854 0.36729 0.33649
 C286 C 0.63650 0.35151 0.28168
 C287 C 0.66057 0.32907 0.26231
 C288 C 0.68714 0.32161 0.29745
 C289 C 0.68959 0.33792 0.35172
 C290 C 0.66563 0.36061 0.37092
 C291 C 0.61183 0.38929 0.35852
 C292 C 0.59453 0.41113 0.32098
 C293 C 0.56796 0.42978 0.34094
 C294 C 0.55851 0.42732 0.39890
 C295 C 0.57601 0.40622 0.43683
 C296 C 0.60242 0.38735 0.41687
 H297 H 0.65787 0.31678 0.22040
 H298 H 0.70989 0.33289 0.37964
 H299 H 0.55455 0.44587 0.31111
 H300 H 0.56869 0.40370 0.48155
 H301 H 0.66825 0.37278 0.41292
 H302 H 0.60137 0.41363 0.27604
 H303 H 0.61577 0.35558 0.25438
 H304 H 0.61477 0.37034 0.44673
 C305 C 0.86074 -0.13419 -0.15976
 C306 C 0.83540 -0.14382 -0.12304
 C307 C 0.81138 -0.16646 -0.14224
 C308 C 0.81190 -0.17989 -0.19896
 C309 C 0.83667 -0.16919 -0.23631
 C310 C 0.86084 -0.14683 -0.21684
 C311 C 0.88773 -0.11241 -0.13798
 C312 C 0.90302 -0.08808 -0.17422
 C313 C 0.92979 -0.06948 -0.15482
 C314 C 0.94143 -0.07452 -0.09868
 C315 C 0.92594 -0.09807 -0.06190
 C316 C 0.89938 -0.11692 -0.08137
 H317 H 0.79260 -0.17371 -0.11223
 H318 H 0.83803 -0.17884 -0.28028
 H319 H 0.94163 -0.05138 -0.18368
 H320 H 0.93494 -0.10247 -0.01861
 H321 H 0.88019 -0.14038 -0.24612
 H322 H 0.89442 -0.08354 -0.21770
 H323 H 0.83421 -0.13401 -0.07918
 H324 H 0.88864 -0.13585 -0.05263
 C325 C 0.36103 0.36628 0.33732
 C326 C 0.33411 0.35911 0.37195
 C327 C 0.31026 0.33623 0.35269
 C328 C 0.31266 0.32022 0.29818
 C329 C 0.33908 0.32813 0.26289
 C330 C 0.36303 0.35076 0.28231
 C331 C 0.38762 0.38853 0.35929
 C332 C 0.40463 0.41070 0.32176
 C333 C 0.43114 0.42955 0.34158
 C334 C 0.44084 0.42697 0.39939
 C335 C 0.42360 0.40559 0.43734
 C336 C 0.39725 0.38651 0.41752
 H337 H 0.29009 0.33084 0.38074
 H338 H 0.34174 0.31608 0.22079
 H339 H 0.44434 0.44587 0.31174
 H340 H 0.43112 0.40299 0.48195
 H341 H 0.38364 0.35519 0.25486
 H342 H 0.39760 0.41328 0.27694
 H343 H 0.33153 0.37106 0.41412
 H344 H 0.38513 0.36927 0.44736
 C345 C 0.13854 0.63373 -0.16032
 C346 C 0.13660 0.64926 -0.21522
 C347 C 0.16063 0.67179 -0.23445
 C348 C 0.18707 0.67960 -0.19909
 C349 C 0.18940 0.66358 -0.14469
 C350 C 0.16547 0.64079 -0.12562
 C351 C 0.11188 0.61157 -0.13853
 C352 C 0.09484 0.58944 -0.17624
 C353 C 0.06829 0.57064 -0.15657
 C354 C 0.05859 0.57323 -0.09875
 C355 C 0.07585 0.59459 -0.06063
 C356 C 0.10224 0.61361 -0.08031
 H357 H 0.15802 0.68386 -0.27647
 H358 H 0.20959 0.66888 -0.11659
 H359 H 0.05508 0.55433 -0.18653
 H360 H 0.06834 0.59720 -0.01601
 H361 H 0.16801 0.62883 -0.08354
 H362 H 0.10187 0.58683 -0.22108
 H363 H 0.11598 0.64490 -0.24272
 H364 H 0.11439 0.63083 -0.05033
 C365 C 0.63898 1.13359 0.33737
 C366 C 0.63696 1.14896 0.28237
 C367 C 0.66092 1.17152 0.26291
 C368 C 0.68736 1.17950 0.29816
 C369 C 0.68978 1.16363 0.35266
 C370 C 0.66592 1.14082 0.37195
 C371 C 0.61238 1.11143 0.35941
 C372 C 0.59533 1.08917 0.32194
 C373 C 0.56882 1.07040 0.34184
 C374 C 0.55916 1.07315 0.39967
 C375 C 0.57644 1.09464 0.43756
 C376 C 0.60279 1.11364 0.41765
 H377 H 0.65825 1.18346 0.22081
 H378 H 0.70997 1.16907 0.38068
 H379 H 0.55559 1.05399 0.31204
 H380 H 0.56895 1.09739 0.48217
 H381 H 0.66852 1.12898 0.41412
 H382 H 0.60233 1.08644 0.27710
 H383 H 0.61633 1.14447 0.25495
 H384 H 0.61494 1.13097 0.44745
 C385 C 0.13852 0.36584 0.16104
 C386 C 0.13652 0.35009 0.21576
 C387 C 0.16055 0.32757 0.23487
 C388 C 0.18704 0.32000 0.19954
 C389 C 0.18943 0.33623 0.14533
 C390 C 0.16551 0.35901 0.12639
 C391 C 0.11185 0.38797 0.13936
 C392 C 0.09469 0.40985 0.17721
 C393 C 0.06813 0.42859 0.15760
 C394 C 0.05855 0.42619 0.09969
 C395 C 0.07594 0.40510 0.06143
 C396 C 0.10233 0.38612 0.08105
 H397 H 0.15790 0.31534 0.27674
 H398 H 0.20967 0.33111 0.11726
 H399 H 0.05481 0.44469 0.18767
 H400 H 0.06852 0.40264 0.01673
 H401 H 0.16810 0.37115 0.08445
 H402 H 0.10163 0.41230 0.22213
 H403 H 0.11586 0.35426 0.24322
 H404 H 0.11458 0.36910 0.05094
 C405 C 0.63901 0.86758 0.66372
 C406 C 0.63689 0.85190 0.71849
 C407 C 0.66087 0.82939 0.73782
 C408 C 0.68743 0.82176 0.70268
 C409 C 0.68995 0.83796 0.64846
 C410 C 0.66608 0.86072 0.62930
 C411 C 0.61237 0.88963 0.64170
 C412 C 0.59511 0.91159 0.67927
 C413 C 0.56859 0.93027 0.65933
 C414 C 0.55914 0.92772 0.60136
 C415 C 0.57661 0.90651 0.56340
 C416 C 0.60297 0.88761 0.58334
 H417 H 0.65813 0.81718 0.77970
 H418 H 0.71024 0.83280 0.62054
 H419 H 0.55521 0.94645 0.68919
 H420 H 0.56928 0.90391 0.51867
 H421 H 0.66876 0.87281 0.58733
 H422 H 0.60195 0.91416 0.72422
 H423 H 0.61617 0.85611 0.74578
 H424 H 0.61529 0.87051 0.55346
 C425 C 0.86149 0.13364 0.16069
 C426 C 0.83444 0.14033 0.12616
 C427 C 0.81052 0.16313 0.14518
 C428 C 0.81296 0.17953 0.19937
 C429 C 0.83951 0.17210 0.23459
 C430 C 0.86354 0.14955 0.21539
 C431 C 0.88815 0.11149 0.13891
 C432 C 0.90541 0.08976 0.17671
 C433 C 0.93196 0.07100 0.15700
 C434 C 0.94145 0.07322 0.09904
 C435 C 0.92397 0.09416 0.06083
 C436 C 0.89758 0.11316 0.08055
 H437 H 0.79024 0.16814 0.11720
 H438 H 0.84220 0.18446 0.27644
 H439 H 0.94535 0.05502 0.18703
 H440 H 0.93132 0.09648 0.01609
 H441 H 0.88424 0.14550 0.24276
 H442 H 0.89854 0.08744 0.22166
 H443 H 0.83181 0.12806 0.08424
 H444 H 0.88527 0.13006 0.05047
 C445 C 0.36105 0.63365 0.66274
 C446 C 0.33404 0.64061 0.62827
 C447 C 0.31018 0.66340 0.64757
 C448 C 0.31266 0.67953 0.70198
 C449 C 0.33917 0.67182 0.73714
 C450 C 0.36313 0.64928 0.71767
 C451 C 0.38766 0.61153 0.64066
 C452 C 0.40483 0.58952 0.67814
 C453 C 0.43134 0.57079 0.65818
 C454 C 0.44088 0.57332 0.60028
 C455 C 0.42349 0.59455 0.56238
 C456 C 0.39714 0.61351 0.58235
 H457 H 0.28993 0.66863 0.61963
 H458 H 0.34188 0.68396 0.77915
 H459 H 0.44466 0.55458 0.68798
 H460 H 0.43088 0.59713 0.51771
 H461 H 0.38381 0.64500 0.74500
 H462 H 0.39792 0.58696 0.72304
 H463 H 0.33139 0.62856 0.58618
 H464 H 0.38489 0.63064 0.55253
   
