data_POSCAR
  _audit_creation_date              2014-09-24
  _audit_creation_method            'ToBaCCo'
  _symmetry_space_group_name_H-M    'P1'
  _symmetry_Int_Tables_number       1
  _symmetry_cell_setting            triclinic
  loop_
  _symmetry_equiv_pos_as_xyz
 x,y,z
_cell_length_a 33.7405
_cell_length_b 19.4926
_cell_length_c 12.3762
_cell_angle_alpha 90.452500
_cell_angle_beta 90.358800
_cell_angle_gamma 90.040000
loop_
  _atom_site_label
  _atom_site_type_symbol
  _atom_site_fract_x
  _atom_site_fract_y
  _atom_site_fract_z
C1 C 0.72054 0.28963 0.56886
 C2 C 0.72165 0.28897 0.45404
 C3 C 0.75555 0.26293 0.40201
 C4 C 0.78782 0.23542 0.46062
 C5 C 0.78414 0.22690 0.57430
 C6 C 0.75087 0.25541 0.62585
 H7 H 0.74666 0.24692 0.71064
 H8 H 0.75708 0.26649 0.31504
 C9 C 0.21266 0.75670 0.56377
 C10 C 0.21535 0.76646 0.45061
 C11 C 0.24880 0.74220 0.39547
 C12 C 0.27952 0.70640 0.44845
 C13 C 0.27815 0.70188 0.56352
 C14 C 0.24353 0.72289 0.61727
 H15 H 0.24166 0.71732 0.70434
 H16 H 0.25017 0.75066 0.30931
 C17 C 0.27353 0.30510 -0.55782
 C18 C 0.26942 0.30930 -0.44419
 C19 C 0.23472 0.28215 -0.39747
 C20 C 0.20495 0.24882 -0.46003
 C21 C 0.20888 0.24863 -0.57508
 C22 C 0.24392 0.27339 -0.62038
 H23 H 0.24779 0.26988 -0.70725
 H24 H 0.23119 0.28683 -0.31172
 C25 C -0.21294 0.76160 -0.56326
 C26 C -0.21751 0.76684 -0.44972
 C27 C -0.25335 0.74572 -0.40287
 C28 C -0.28446 0.71651 -0.46517
 C29 C -0.27901 0.71015 -0.57942
 C30 C -0.24304 0.73144 -0.62523
 H31 H -0.23932 0.73004 -0.71211
 H32 H -0.25567 0.74999 -0.31608
 O33 O -0.05999 0.88529 0.20035
 O34 O -0.10138 0.93763 0.07845
 C35 C -0.09490 0.90027 0.16307
 O36 O 0.04898 1.12460 0.19445
 O37 O 0.09560 1.05664 0.11164
 C38 C 0.08538 1.10628 0.17607
 O39 O -0.06311 1.11648 0.17875
 O40 O -0.10275 1.05125 0.06690
 C41 C -0.09758 1.09754 0.14080
 O42 O 0.05056 0.87449 0.20609
 O43 O 0.09613 0.93913 0.11523
 C44 C 0.08670 0.89303 0.18540
 Zr45 Zr -0.00364 0.90934 0.13810
 O46 O -0.00397 0.90104 0.30822
 O47 O -0.00837 0.80118 0.12599
 Zr48 Zr -0.00503 1.08304 0.13522
 O49 O -0.00582 1.08271 0.30630
 O50 O -0.00988 1.19126 0.13736
 O51 O -0.03988 0.99598 0.15017
 O52 O 0.02937 0.99733 0.16408
 O53 O 0.05992 0.87200 -0.18110
 O54 O 0.10072 0.93571 -0.06977
 C55 C 0.09464 0.89109 -0.14661
 O56 O -0.05090 1.11086 -0.21016
 O57 O -0.09702 1.05010 -0.11441
 C58 C -0.08709 1.09415 -0.18745
 O59 O 0.05996 1.11889 -0.17389
 O60 O 0.10075 1.05591 -0.06362
 C61 C 0.09463 1.10286 -0.13496
 O62 O -0.05076 0.87253 -0.20693
 O63 O -0.09688 0.93559 -0.11369
 C64 C -0.08705 0.89084 -0.18651
 Zr65 Zr 0.00312 0.90559 -0.13304
 O66 O 0.01040 0.89727 -0.30224
 O67 O 0.00003 0.79744 -0.12025
 Zr68 Zr 0.00287 1.07942 -0.13695
 O69 O 0.01221 1.07658 -0.30601
 O70 O -0.00196 1.18765 -0.14183
 Zr71 Zr -0.05945 0.99349 -0.01210
 Zr72 Zr 0.05819 0.99557 0.01370
 O73 O 0.03772 0.99314 -0.14737
 O74 O -0.03158 0.99184 -0.16408
 O75 O 0.03551 0.89473 0.01024
 O76 O -0.03525 1.09317 -0.00891
 O77 O -0.03507 0.89440 -0.00414
 O78 O 0.03397 1.09527 0.00678
 H79 H 0.04539 0.99895 0.23142
 H80 H -0.05287 1.13367 -0.01391
 H81 H 0.05703 0.99417 -0.20729
 H82 H -0.05363 0.85496 -0.00612
 H83 H 0.01097 1.20932 0.08953
 H84 H 0.01842 1.20683 -0.09238
 H85 H -0.00984 1.05017 -0.33908
 H86 H -0.00580 0.93384 -0.33530
 H87 H 0.02505 0.78164 -0.08654
 H88 H 0.01796 0.78320 0.10530
 H89 H -0.01015 0.94723 0.33687
 H90 H -0.03068 1.06004 0.32873
 O91 O 0.44353 0.37788 0.20046
 O92 O 0.40022 0.44040 0.09670
 C93 C 0.40814 0.39738 0.17346
 O94 O 0.55528 0.62125 0.18923
 O95 O 0.59871 0.55239 0.09687
 C96 C 0.59074 0.60237 0.16270
 O97 O 0.44493 0.61369 0.20281
 O98 O 0.40067 0.55428 0.09637
 C99 C 0.40920 0.59701 0.17414
 O100 O 0.55403 0.36878 0.19333
 O101 O 0.59837 0.43284 0.09703
 C102 C 0.58986 0.38678 0.16851
 Zr103 Zr 0.49889 0.40673 0.13617
 O104 O 0.50248 0.39934 0.30634
 O105 O 0.49355 0.29872 0.12236
 Zr106 Zr 0.49992 0.58026 0.14100
 O107 O 0.50520 0.57726 0.31159
 O108 O 0.49540 0.68848 0.14744
 O109 O 0.46417 0.49426 0.15892
 O110 O 0.53375 0.49296 0.16003
 O111 O 0.55406 0.37101 -0.19141
 O112 O 0.59818 0.43335 -0.08838
 C113 C 0.58973 0.38827 -0.16287
 O114 O 0.44580 0.61402 -0.19756
 O115 O 0.40138 0.55367 -0.09548
 C116 C 0.40997 0.59613 -0.17184
 O117 O 0.55814 0.62040 -0.17563
 O118 O 0.60028 0.55312 -0.07577
 C119 C 0.59338 0.60236 -0.14243
 O120 O 0.44374 0.38154 -0.20537
 O121 O 0.40011 0.43977 -0.09683
 C122 C 0.40813 0.39859 -0.17669
 Zr123 Zr 0.49912 0.40853 -0.13522
 O124 O 0.50353 0.40285 -0.30544
 O125 O 0.49341 0.30043 -0.12799
 Zr126 Zr 0.50096 0.58208 -0.13159
 O127 O 0.50705 0.58436 -0.30173
 O128 O 0.49638 0.69042 -0.12755
 Zr129 Zr 0.44030 0.49598 0.00098
 Zr130 Zr 0.55879 0.49301 0.00485
 O131 O 0.53450 0.49472 -0.15221
 O132 O 0.46489 0.49632 -0.15561
 O133 O 0.53467 0.39327 0.00111
 O134 O 0.46585 0.59453 0.00368
 O135 O 0.46390 0.39609 -0.00081
 O136 O 0.53566 0.59363 0.00644
 H137 H 0.55151 0.49325 0.22409
 H138 H 0.44803 0.63492 0.00381
 H139 H 0.55253 0.49569 -0.21505
 H140 H 0.44504 0.35708 -0.00234
 H141 H 0.51434 0.70699 0.09446
 H142 H 0.51978 0.70845 -0.08798
 H143 H 0.48516 0.55691 -0.33337
 H144 H 0.48831 0.44185 -0.33478
 H145 H 0.51837 0.28197 -0.09751
 H146 H 0.51871 0.28086 0.09269
 H147 H 0.48742 0.43843 0.33646
 H148 H 0.48139 0.55403 0.33990
 C149 C 0.30872 0.33250 0.38571
 C150 C 0.30497 0.36797 0.29362
 C151 C 0.33850 0.39433 0.23030
 C152 C 0.37532 0.36910 0.23655
 H153 H 0.27561 0.38055 0.26387
 H154 H 0.33189 0.43484 0.17355
 H155 H 0.33761 0.32412 0.42143
 H156 H 0.38218 0.32744 0.29076
 C157 C -0.17866 0.78873 0.37594
 C158 C -0.16246 0.85026 0.39524
 C159 C -0.12892 0.87539 0.33143
 C160 C -0.12922 0.87503 0.22318
 H161 H -0.17228 0.88147 0.46260
 H162 H -0.10420 0.89814 0.37510
 H163 H -0.16836 0.75890 0.30731
 H164 H -0.15556 0.85934 0.17893
 C165 C 0.68992 0.68762 0.35219
 C166 C 0.69494 0.65545 0.25679
 C167 C 0.66164 0.62377 0.19634
 C168 C 0.62357 0.64083 0.21157
 H169 H 0.72435 0.64340 0.22806
 H170 H 0.66908 0.58295 0.14013
 H171 H 0.66018 0.69381 0.38085
 H172 H 0.61545 0.68386 0.26229
 C173 C 0.18000 1.22386 0.35107
 C174 C 0.14080 1.23168 0.36440
 C175 C 0.11049 1.19880 0.29467
 C176 C 0.11740 1.14303 0.23340
 H177 H 0.12986 1.26341 0.43000
 H178 H 0.08056 1.21825 0.30196
 H179 H 0.19018 1.20379 0.27421
 H180 H 0.14690 1.12159 0.22796
 C181 C 0.68961 0.32256 -0.37350
 C182 C 0.69269 0.34158 -0.26870
 C183 C 0.66011 0.37318 -0.20743
 C184 C 0.62216 0.35602 -0.22341
 H185 H 0.72075 0.33911 -0.22624
 H186 H 0.66813 0.40864 -0.14309
 H187 H 0.66287 0.33720 -0.41577
 H188 H 0.61439 0.31790 -0.28413
 C189 C 0.17962 0.78212 -0.36794
 C190 C 0.16335 0.84420 -0.37897
 C191 C 0.12949 0.86668 -0.31334
 C192 C 0.12911 0.86420 -0.20515
 H193 H 0.17284 0.87784 -0.44291
 H194 H 0.10505 0.89069 -0.35588
 H195 H 0.16988 0.74978 -0.30233
 H196 H 0.15510 0.84780 -0.16054
 C197 C 0.30922 0.67783 -0.37012
 C198 C 0.34782 0.69071 -0.38735
 C199 C 0.38068 0.66682 -0.31687
 C200 C 0.37630 0.62344 -0.23413
 H201 H 0.35634 0.72306 -0.45405
 H202 H 0.41011 0.68436 -0.33760
 H203 H 0.30079 0.65629 -0.29344
 H204 H 0.34746 0.60393 -0.21282
 C205 C -0.18820 1.18578 -0.36787
 C206 C -0.18585 1.17906 -0.25984
 C207 C -0.15525 1.13649 -0.20734
 C208 C -0.11853 1.12996 -0.24672
 H209 H -0.20602 1.20436 -0.20544
 H210 H -0.16224 1.11529 -0.12906
 H211 H -0.16766 1.15498 -0.41393
 H212 H -0.11014 1.15679 -0.31941
 C213 C 0.68077 0.68957 -0.41587
 C214 C 0.66976 0.69673 -0.31250
 C215 C 0.63201 0.66581 -0.27708
 C216 C 0.62853 0.64052 -0.17809
 H217 H 0.68763 0.72367 -0.25320
 H218 H 0.60810 0.65868 -0.33508
 H219 H 0.66100 0.65791 -0.46361
 H220 H 0.65385 0.64250 -0.12371
 C221 C 0.17398 1.21113 -0.41047
 C222 C 0.16606 1.20769 -0.30461
 C223 C 0.13088 1.16951 -0.26892
 C224 C 0.12954 1.14095 -0.17166
 H225 H 0.18415 1.23222 -0.24338
 H226 H 0.10618 1.16290 -0.32461
 H227 H 0.15534 1.17904 -0.46082
 H228 H 0.15532 1.14332 -0.11902
 C229 C 0.30113 0.34285 -0.37633
 C230 C 0.30493 0.33648 -0.26857
 C231 C 0.33760 0.36883 -0.20619
 C232 C 0.37512 0.36944 -0.24110
 H233 H 0.28366 0.30817 -0.22193
 H234 H 0.33096 0.38736 -0.12557
 H235 H 0.32279 0.37437 -0.41670
 H236 H 0.38225 0.34540 -0.31781
 C237 C -0.18630 0.79420 -0.37597
 C238 C -0.14778 0.77772 -0.38521
 C239 C -0.11536 0.80737 -0.31792
 C240 C -0.11995 0.86028 -0.24923
 H241 H -0.13906 0.74084 -0.44645
 H242 H -0.08612 0.78561 -0.32896
 H243 H -0.19632 0.82602 -0.30976
 H244 H -0.14868 0.88349 -0.23778
 C245 C 0.31032 0.66937 0.38302
 C246 C 0.30675 0.65419 0.27702
 C247 C 0.33843 0.61963 0.21456
 C248 C 0.37700 0.62944 0.23614
 H249 H 0.27943 0.66391 0.23393
 H250 H 0.32960 0.58888 0.14523
 H251 H 0.33582 0.64836 0.42343
 H252 H 0.38573 0.66369 0.30144
 C253 C -0.17614 1.21911 0.40843
 C254 C -0.17306 1.19867 0.30548
 C255 C -0.13477 1.17334 0.26467
 C256 C -0.13393 1.13045 0.18045
 H257 H -0.19912 1.19256 0.25484
 H258 H -0.10765 1.18582 0.30802
 H259 H -0.14910 1.21887 0.45614
 H260 H -0.16155 1.11647 0.14065
 C261 C 0.68774 0.31427 0.38711
 C262 C 0.69269 0.35064 0.29626
 C263 C 0.65981 0.37771 0.22851
 C264 C 0.62238 0.35429 0.23025
 H265 H 0.72233 0.36539 0.27284
 H266 H 0.66731 0.41907 0.17437
 H267 H 0.65815 0.30321 0.41473
 H268 H 0.61452 0.31196 0.28187
 C269 C 0.18436 0.80036 0.38458
 C270 C 0.14594 0.78287 0.38906
 C271 C 0.11391 0.81461 0.32362
 C272 C 0.11960 0.86144 0.24616
 H273 H 0.13700 0.74330 0.44484
 H274 H 0.08401 0.79807 0.34137
 H275 H 0.19465 0.83736 0.32670
 H276 H 0.14905 0.87848 0.22579
   
