data_POSCAR
  _audit_creation_date              2014-09-24
  _audit_creation_method            'ToBaCCo'
  _symmetry_space_group_name_H-M    'P1'
  _symmetry_Int_Tables_number       1
  _symmetry_cell_setting            triclinic
  loop_
  _symmetry_equiv_pos_as_xyz
 x,y,z
_cell_length_a 25.4773
_cell_length_b 25.6108
_cell_length_c 25.4774
_cell_angle_alpha 90.118800
_cell_angle_beta 90.118600
_cell_angle_gamma 90.000600
loop_
  _atom_site_label
  _atom_site_type_symbol
  _atom_site_fract_x
  _atom_site_fract_y
  _atom_site_fract_z
C1 C 0.45300 1.00041 -0.61231
 C2 C 0.50073 0.99997 -0.63925
 C3 C 0.54852 0.99949 -0.61223
 C4 C 0.54909 0.99972 -0.55671
 C5 C 0.50086 0.99990 -0.52895
 C6 C 0.45256 1.00011 -0.55680
 C7 C 0.40523 1.00002 -0.52841
 C8 C 0.40531 0.99967 -0.47382
 C9 C 0.45270 0.99961 -0.44547
 C10 C 0.50092 0.99986 -0.47321
 C11 C 0.59647 0.99976 -0.52822
 C12 C 0.59652 1.00004 -0.47363
 C13 C 0.54917 1.00006 -0.44529
 C14 C 0.54863 1.00028 -0.38976
 C15 C 0.50084 0.99978 -0.36294
 C16 C 0.45318 0.99932 -0.39006
 H17 H 0.36759 1.00013 -0.54823
 H18 H 0.36777 0.99954 -0.45399
 H19 H 0.63406 0.99969 -0.54797
 H20 H 0.63412 1.00015 -0.45375
 H21 H 0.50067 1.00000 -0.68192
 H22 H 0.50063 0.99974 -0.32030
 C23 C -0.54781 1.39148 0.00066
 C24 C -0.50008 1.36467 0.00024
 C25 C -0.45234 1.39147 -0.00026
 C26 C -0.45184 1.44664 -0.00010
 C27 C -0.50008 1.47435 0.00010
 C28 C -0.54831 1.44664 0.00036
 C29 C -0.59567 1.47479 0.00031
 C30 C -0.59572 1.52913 -0.00006
 C31 C -0.54837 1.55748 -0.00018
 C32 C -0.50008 1.52981 0.00002
 C33 C -0.40448 1.47478 -0.00012
 C34 C -0.40444 1.52913 0.00011
 C35 C -0.45179 1.55748 0.00016
 C36 C -0.45227 1.61274 0.00033
 C37 C -0.50008 1.63955 -0.00012
 C38 C -0.54789 1.61273 -0.00049
 H39 H -0.63321 1.45497 0.00046
 H40 H -0.63333 1.54882 -0.00015
 H41 H -0.36694 1.45497 -0.00022
 H42 H -0.36683 1.54882 0.00015
 H43 H -0.50008 1.32228 0.00029
 H44 H -0.50008 1.68199 -0.00017
 C45 C 0.00033 0.38800 0.45301
 C46 C -0.00010 0.36122 0.50079
 C47 C -0.00053 0.38804 0.54867
 C48 C -0.00030 0.44333 0.54921
 C49 C -0.00008 0.47100 0.50097
 C50 C 0.00013 0.44328 0.45264
 C51 C 0.00013 0.47159 0.40534
 C52 C -0.00012 0.52593 0.40544
 C53 C -0.00020 0.55415 0.45282
 C54 C -0.00006 0.52651 0.50105
 C55 C -0.00029 0.47169 0.59659
 C56 C -0.00001 0.52604 0.59666
 C57 C 0.00008 0.55429 0.54935
 C58 C 0.00030 0.60959 0.54888
 C59 C -0.00004 0.63626 0.50103
 C60 C -0.00039 0.60933 0.45328
 H61 H 0.00024 0.45188 0.36770
 H62 H -0.00018 0.54568 0.36791
 H63 H -0.00041 0.45201 0.63417
 H64 H 0.00005 0.54581 0.63427
 H65 H -0.00011 0.31877 0.50072
 H66 H -0.00004 0.67867 0.50084
 O67 O -0.13466 1.00184 -0.07054
 O68 O 0.13429 0.99782 -0.07041
 O69 O -0.00218 1.07017 -0.13480
 O70 O 0.00158 0.92927 -0.13496
 O71 O 0.00153 0.86508 -0.07161
 O72 O -0.00192 1.13451 -0.07133
 O73 O 0.07089 0.99791 -0.13497
 O74 O -0.07146 1.00156 -0.13502
 Zr75 Zr -0.00022 0.99977 -0.09225
 O76 O 0.04724 0.95224 -0.04761
 O77 O -0.04753 1.04743 -0.04755
 C78 C -0.11990 1.00268 -0.11920
 C79 C 0.11937 0.99684 -0.11909
 C80 C -0.00296 1.11866 -0.11988
 C81 C 0.00240 0.88081 -0.12011
 H82 H 0.06956 1.06936 -0.06969
 O83 O 0.04703 1.04725 -0.04732
 H84 H -0.06995 0.93027 -0.06989
 O85 O -0.04734 0.95243 -0.04746
 O86 O 0.13453 1.00201 0.07053
 O87 O -0.13444 0.99791 0.07043
 O88 O 0.07130 1.13454 0.00203
 O89 O 0.07142 0.86524 -0.00190
 O90 O -0.07155 0.86524 0.00167
 O91 O -0.07145 1.13453 -0.00160
 O92 O 0.00204 1.07037 0.13506
 O93 O -0.00170 0.92951 0.13487
 O94 O 0.00177 1.13462 0.07178
 O95 O -0.00167 0.86521 0.07138
 O96 O 0.13448 1.07016 0.00208
 O97 O -0.13463 1.07015 -0.00186
 O98 O -0.13464 0.92973 0.00185
 O99 O 0.13450 0.92973 -0.00197
 O100 O 0.07140 1.00180 0.13508
 O101 O -0.07106 0.99812 0.13502
 Zr102 Zr 0.09150 0.99991 0.00006
 Zr103 Zr -0.09165 0.99990 -0.00002
 Zr104 Zr -0.00008 1.09234 0.00016
 Zr105 Zr -0.00007 0.90739 -0.00007
 Zr106 Zr 0.00009 0.99993 0.09233
 O107 O -0.04737 0.95233 0.04756
 O108 O 0.04739 1.04750 0.04774
 C109 C 0.11983 1.00294 0.11920
 C110 C -0.11955 0.99701 0.11912
 C111 C 0.11974 1.11865 0.00301
 C112 C 0.11984 0.88122 -0.00291
 C113 C -0.11998 0.88122 0.00270
 C114 C -0.11989 1.11864 -0.00265
 C115 C 0.00281 1.11883 0.12028
 C116 C -0.00253 0.88103 0.11992
 H117 H -0.06971 1.06945 0.06994
 O118 O -0.04718 1.04731 0.04751
 H119 H 0.06983 0.93041 0.06979
 O120 O 0.04722 0.95251 0.04741
 C121 C 0.19149 1.00012 0.25020
 C122 C 0.24368 1.00522 0.23384
 C123 C 0.25509 1.01054 0.18051
 C124 C 0.21473 1.01028 0.14350
 C125 C 0.40777 1.00130 0.35874
 C126 C 0.15083 0.99990 0.21311
 C127 C 0.28618 1.00425 0.27103
 C128 C 0.32342 1.00333 0.30021
 C129 C 0.36845 1.00220 0.33241
 C130 C 0.16207 1.00463 0.15923
 H131 H 0.18229 0.99597 0.29148
 H132 H 0.29534 1.01458 0.16744
 H133 H 0.22497 1.01431 0.10247
 H134 H 0.11078 0.99550 0.22657
 C135 C -0.19061 0.99978 0.25016
 C136 C -0.24288 0.99481 0.23380
 C137 C -0.25455 0.98962 0.18045
 C138 C -0.21437 0.98988 0.14340
 C139 C -0.40634 0.99864 0.35888
 C140 C -0.15012 0.99998 0.21305
 C141 C -0.28518 0.99576 0.27105
 C142 C -0.32226 0.99666 0.30028
 C143 C -0.36712 0.99776 0.33255
 C144 C -0.16163 0.99537 0.15915
 H145 H -0.18119 1.00382 0.29145
 H146 H -0.29487 0.98570 0.16738
 H147 H -0.22481 0.98595 0.10236
 H148 H -0.11000 1.00427 0.22651
 C149 C -0.25497 1.00931 -0.18106
 C150 C -0.24320 1.00480 -0.23442
 C151 C -0.19088 1.00048 -0.25056
 C152 C -0.15043 1.00026 -0.21326
 C153 C -0.40625 1.00114 -0.36067
 C154 C -0.21481 1.00905 -0.14382
 C155 C -0.28542 1.00393 -0.27192
 C156 C -0.32238 1.00307 -0.30145
 C157 C -0.36711 1.00201 -0.33407
 C158 C -0.16201 1.00423 -0.15937
 H159 H -0.29534 1.01273 -0.16817
 H160 H -0.18140 0.99697 -0.29185
 H161 H -0.11027 0.99651 -0.22658
 H162 H -0.22531 1.01244 -0.10278
 C163 C 0.19015 0.99928 -0.25025
 C164 C 0.24247 0.99453 -0.23400
 C165 C 0.25428 0.98961 -0.18067
 C166 C 0.21418 0.98991 -0.14354
 C167 C 0.40549 0.99837 -0.35956
 C168 C 0.14975 0.99952 -0.21306
 C169 C 0.28466 0.99544 -0.27136
 C170 C 0.32163 0.99634 -0.30072
 C171 C 0.36636 0.99746 -0.33313
 C172 C 0.16139 0.99518 -0.15918
 H173 H 0.18064 1.00312 -0.29153
 H174 H 0.29464 0.98586 -0.16770
 H175 H 0.22471 0.98619 -0.10251
 H176 H 0.10960 1.00363 -0.22644
 C177 C 0.19038 1.24945 0.00097
 C178 C 0.24281 1.23354 0.00500
 C179 C 0.25480 1.18045 0.00920
 C180 C 0.21476 1.14328 0.00896
 C181 C 0.40457 1.36081 0.00156
 C182 C 0.15008 1.21225 0.00076
 C183 C 0.28482 1.27110 0.00421
 C184 C 0.32143 1.30089 0.00341
 C185 C 0.36573 1.33395 0.00240
 C186 C 0.16185 1.15864 0.00448
 H187 H 0.18067 1.29049 -0.00231
 H188 H 0.29524 1.16770 0.01239
 H189 H 0.22541 1.10248 0.01212
 H190 H 0.10985 1.22545 -0.00275
 C191 C 0.25519 0.82021 -0.00973
 C192 C 0.24367 0.76709 -0.00487
 C193 C 0.19139 0.75085 -0.00023
 C194 C 0.15080 0.78777 -0.00007
 C195 C 0.40693 0.64162 -0.00131
 C196 C 0.21488 0.85708 -0.00953
 C197 C 0.28605 0.72992 -0.00399
 C198 C 0.32306 0.70059 -0.00315
 C199 C 0.36780 0.66810 -0.00213
 C200 C 0.16214 0.84142 -0.00442
 H201 H 0.29549 0.83323 -0.01340
 H202 H 0.18205 0.70977 0.00357
 H203 H 0.11071 0.77434 0.00394
 H204 H 0.22522 0.89792 -0.01322
 C205 C -0.19153 0.75084 -0.00010
 C206 C -0.24381 0.76710 0.00455
 C207 C -0.25533 0.82024 0.00944
 C208 C -0.21502 0.85710 0.00927
 C209 C -0.40708 0.64163 0.00109
 C210 C -0.15094 0.78776 -0.00023
 C211 C -0.28619 0.72992 0.00368
 C212 C -0.32320 0.70059 0.00286
 C213 C -0.36794 0.66810 0.00188
 C214 C -0.16228 0.84142 0.00415
 H215 H -0.18218 0.70974 -0.00392
 H216 H -0.29563 0.83327 0.01312
 H217 H -0.22536 0.89795 0.01298
 H218 H -0.11085 0.77432 -0.00425
 C219 C -0.25496 1.18042 -0.00859
 C220 C -0.24296 1.23352 -0.00446
 C221 C -0.19052 1.24945 -0.00052
 C222 C -0.15022 1.21225 -0.00036
 C223 C -0.40472 1.36081 -0.00110
 C224 C -0.21492 1.14325 -0.00840
 C225 C -0.28496 1.27109 -0.00367
 C226 C -0.32158 1.30088 -0.00288
 C227 C -0.36588 1.33394 -0.00190
 C228 C -0.16200 1.15862 -0.00403
 H229 H -0.29541 1.16766 -0.01171
 H230 H -0.18081 1.29051 0.00271
 H231 H -0.10999 1.22547 0.00307
 H232 H -0.22558 1.10243 -0.01151
 C233 C 0.00807 1.18021 0.25577
 C234 C 0.00435 1.23339 0.24416
 C235 C 0.00091 1.24955 0.19176
 C236 C 0.00084 1.21251 0.15116
 C237 C 0.00108 1.35907 0.40773
 C238 C 0.00797 1.14324 0.21547
 C239 C 0.00354 1.27070 0.28658
 C240 C 0.00277 1.30006 0.32366
 C241 C 0.00184 1.33258 0.36851
 C242 C 0.00412 1.15881 0.16259
 H243 H 0.01079 1.16723 0.29614
 H244 H -0.00199 1.29067 0.18231
 H245 H -0.00219 1.22589 0.11098
 H246 H 0.01073 1.10237 0.22594
 C247 C -0.00806 1.18003 -0.25514
 C248 C -0.00452 1.23323 -0.24328
 C249 C -0.00122 1.24938 -0.19081
 C250 C -0.00114 1.21233 -0.15037
 C251 C -0.00129 1.35913 -0.40617
 C252 C -0.00795 1.14305 -0.21499
 C253 C -0.00373 1.27057 -0.28552
 C254 C -0.00297 1.30000 -0.32242
 C255 C -0.00204 1.33260 -0.36709
 C256 C -0.00426 1.15862 -0.16204
 H257 H -0.01067 1.16705 -0.29557
 H258 H 0.00155 1.29050 -0.18117
 H259 H 0.00176 1.22572 -0.11013
 H260 H -0.01058 1.10217 -0.22564
 C261 C 0.00116 0.74977 -0.19094
 C262 C 0.00385 0.76568 -0.24344
 C263 C 0.00675 0.81885 -0.25537
 C264 C 0.00663 0.85604 -0.21527
 C265 C 0.00097 0.63866 -0.40595
 C266 C 0.00107 0.78703 -0.15056
 C267 C 0.00317 0.72808 -0.28558
 C268 C 0.00249 0.69837 -0.32238
 C269 C 0.00165 0.66543 -0.36693
 C270 C 0.00358 0.84070 -0.16229
 H271 H -0.00111 0.70867 -0.18124
 H272 H 0.00888 0.83163 -0.29583
 H273 H 0.00877 0.89689 -0.22595
 H274 H -0.00133 0.77380 -0.11029
 C275 C -0.00118 0.75020 0.19059
 C276 C -0.00399 0.76627 0.24310
 C277 C -0.00701 0.81947 0.25509
 C278 C -0.00689 0.85653 0.21502
 C279 C -0.00109 0.63987 0.40556
 C280 C -0.00109 0.78733 0.15024
 C281 C -0.00329 0.72882 0.28523
 C282 C -0.00261 0.69927 0.32203
 C283 C -0.00177 0.66651 0.36657
 C284 C -0.00372 0.84104 0.16203
 H285 H 0.00118 0.70907 0.18086
 H286 H -0.00924 0.83238 0.29556
 H287 H -0.00912 0.89741 0.22575
 H288 H 0.00140 0.77399 0.10997
   
