data_POSCAR
  _audit_creation_date              2014-09-24
  _audit_creation_method            'ToBaCCo'
  _symmetry_space_group_name_H-M    'P1'
  _symmetry_Int_Tables_number       1
  _symmetry_cell_setting            triclinic
  loop_
  _symmetry_equiv_pos_as_xyz
 x,y,z
_cell_length_a 37.4625
_cell_length_b 37.4621
_cell_length_c 35.9497
_cell_angle_alpha 90.032300
_cell_angle_beta 89.899400
_cell_angle_gamma 89.980600
loop_
  _atom_site_label
  _atom_site_type_symbol
  _atom_site_fract_x
  _atom_site_fract_y
  _atom_site_fract_z
C1 C 0.30451 0.29856 0.23538
 H2 H 0.30621 0.29906 0.26542
 C3 C 0.32736 0.31981 0.21412
 H4 H 0.34667 0.33687 0.22776
 C5 C 0.27743 0.27557 0.18080
 H6 H 0.25829 0.25797 0.16788
 C7 C 0.29979 0.29639 0.15849
 H8 H 0.29754 0.29503 0.12849
 N9 N 0.27982 0.27740 0.21854
 C10 C 0.19568 0.26331 0.30137
 H11 H 0.19404 0.23449 0.30225
 C12 C 0.17290 0.28391 0.32346
 H13 H 0.15370 0.27098 0.34156
 C14 C 0.22241 0.31550 0.27647
 H15 H 0.24133 0.32776 0.25775
 C16 C 0.20013 0.33708 0.29808
 H17 H 0.20224 0.36586 0.29621
 Zn18 Zn 0.24990 0.24953 0.24956
 N19 N 0.22015 0.27930 0.27884
 C20 C 0.27794 0.22357 0.31799
 N21 N 0.27994 0.22153 0.28023
 C22 C 0.30438 0.20018 0.26315
 C23 C 0.32741 0.17897 0.28420
 C24 C 0.30049 0.20281 0.34009
 C25 C 0.19515 0.23610 0.19849
 C26 C 0.17200 0.21566 0.17675
 C27 C 0.19916 0.16230 0.20172
 C28 C 0.22182 0.18372 0.22298
 N29 N 0.21975 0.21994 0.22064
 H30 H 0.25902 0.24133 0.33109
 H31 H 0.30579 0.19952 0.23309
 H32 H 0.34655 0.16179 0.27038
 H33 H 0.29858 0.20438 0.37012
 H34 H 0.19367 0.26493 0.19764
 H35 H 0.15269 0.22872 0.15896
 H36 H 0.20111 0.13350 0.20357
 H37 H 0.24086 0.17134 0.24142
 C38 C 0.17527 0.32113 0.32189
 C39 C 0.32484 0.31883 0.17533
 C40 C 0.17414 0.17842 0.17830
 C41 C 0.32531 0.18021 0.32302
 C42 C 0.80529 0.79974 0.23486
 H43 H 0.80705 0.80033 0.26490
 C44 C 0.82797 0.82108 0.21349
 H45 H 0.84720 0.83827 0.22714
 C46 C 0.77822 0.77646 0.18041
 H47 H 0.75916 0.75871 0.16759
 C48 C 0.80040 0.79735 0.15798
 H49 H 0.79802 0.79583 0.12798
 N50 N 0.78068 0.77840 0.21814
 C51 C 0.69663 0.76412 0.30104
 H52 H 0.69508 0.73530 0.30192
 C53 C 0.67378 0.78465 0.32314
 H54 H 0.65463 0.77166 0.34123
 C55 C 0.72320 0.81639 0.27615
 H56 H 0.74209 0.82871 0.25743
 C57 C 0.70085 0.83790 0.29776
 H58 H 0.70288 0.86669 0.29589
 Zn59 Zn 0.75090 0.75048 0.24927
 N60 N 0.72105 0.78019 0.27853
 C61 C 0.77893 0.72461 0.31774
 N62 N 0.78103 0.72261 0.27998
 C63 C 0.80550 0.70126 0.26295
 C64 C 0.82841 0.67996 0.28405
 C65 C 0.80135 0.70376 0.33988
 C66 C 0.69614 0.73672 0.19828
 C67 C 0.67306 0.71613 0.17661
 C68 C 0.70044 0.66295 0.20173
 C69 C 0.72303 0.68452 0.22291
 N70 N 0.72082 0.72072 0.22046
 H71 H 0.75998 0.74236 0.33081
 H72 H 0.80698 0.70062 0.23289
 H73 H 0.84754 0.66274 0.27026
 H74 H 0.79933 0.70525 0.36990
 H75 H 0.69456 0.76555 0.19734
 H76 H 0.65369 0.72907 0.15880
 H77 H 0.70249 0.63416 0.20366
 H78 H 0.74212 0.67225 0.24137
 C79 C 0.67604 0.82188 0.32157
 C80 C 0.82537 0.82001 0.17468
 C81 C 0.67535 0.67891 0.17827
 C82 C 0.82616 0.68110 0.32286
 C83 C 0.80564 0.29781 0.73667
 H84 H 0.80742 0.29839 0.76670
 C85 C 0.82835 0.31912 0.71528
 H86 H 0.84763 0.33629 0.72882
 C87 C 0.77848 0.27462 0.68222
 H88 H 0.75937 0.25694 0.66939
 C89 C 0.80069 0.29549 0.65980
 H90 H 0.79834 0.29407 0.62980
 N91 N 0.78097 0.27654 0.71995
 C92 C 0.69684 0.26265 0.80285
 H93 H 0.69522 0.23383 0.80384
 C94 C 0.67399 0.28333 0.82480
 H95 H 0.65477 0.27045 0.84290
 C96 C 0.72357 0.31476 0.77777
 H97 H 0.74250 0.32696 0.75901
 C98 C 0.70122 0.33641 0.79922
 H99 H 0.70330 0.36519 0.79721
 Zn100 Zn 0.75108 0.24873 0.75107
 N101 N 0.72133 0.27857 0.78030
 C102 C 0.77906 0.22272 0.81952
 N103 N 0.78111 0.22072 0.78177
 C104 C 0.80552 0.19934 0.76469
 C105 C 0.82845 0.17800 0.78573
 C106 C 0.80148 0.20186 0.84165
 C107 C 0.69628 0.23529 0.70008
 C108 C 0.67316 0.21485 0.67830
 C109 C 0.70037 0.16149 0.70320
 C110 C 0.72299 0.18290 0.72450
 N111 N 0.72090 0.21912 0.72221
 H112 H 0.76014 0.24051 0.83260
 H113 H 0.80696 0.19872 0.73464
 H114 H 0.84751 0.16082 0.77174
 H115 H 0.79938 0.20349 0.87169
 H116 H 0.69479 0.26412 0.69926
 H117 H 0.65386 0.22793 0.66051
 H118 H 0.70235 0.13269 0.70499
 H119 H 0.74205 0.17051 0.74292
 C120 C 0.67632 0.32054 0.82304
 C121 C 0.82569 0.31807 0.67650
 C122 C 0.67535 0.17762 0.67978
 C123 C 0.82629 0.17914 0.82461
 C124 C 0.30427 0.79921 0.73589
 H125 H 0.30598 0.79982 0.76593
 C126 C 0.32709 0.82044 0.71455
 H127 H 0.34637 0.83757 0.72812
 C128 C 0.27724 0.77598 0.68139
 H129 H 0.25815 0.75829 0.66854
 C130 C 0.29957 0.79676 0.65901
 H131 H 0.29733 0.79529 0.62901
 N132 N 0.27963 0.77794 0.71913
 C133 C 0.19556 0.76376 0.80205
 H134 H 0.19402 0.73494 0.80300
 C135 C 0.17267 0.78434 0.82405
 H136 H 0.15350 0.77139 0.84215
 C137 C 0.22212 0.81598 0.77701
 H138 H 0.24100 0.82825 0.75826
 C139 C 0.19972 0.83753 0.79852
 H140 H 0.20172 0.86632 0.79654
 Zn141 Zn 0.24980 0.75005 0.75022
 N142 N 0.21998 0.77978 0.77949
 C143 C 0.27792 0.72403 0.81862
 N144 N 0.27994 0.72212 0.78085
 C145 C 0.30443 0.70088 0.76370
 C146 C 0.32748 0.67964 0.78468
 C147 C 0.30049 0.70322 0.84065
 C148 C 0.19508 0.73639 0.69917
 C149 C 0.17203 0.71585 0.67741
 C150 C 0.19937 0.66261 0.70246
 C151 C 0.22192 0.68414 0.72374
 N152 N 0.21972 0.72035 0.72136
 H153 H 0.25894 0.74169 0.83178
 H154 H 0.30585 0.70033 0.73364
 H155 H 0.34666 0.66253 0.77080
 H156 H 0.29855 0.70465 0.87068
 H157 H 0.19350 0.76522 0.69828
 H158 H 0.15270 0.72882 0.65958
 H159 H 0.20143 0.63382 0.70434
 H160 H 0.24098 0.67184 0.74221
 C161 C 0.17489 0.82157 0.82234
 C162 C 0.32457 0.81931 0.67576
 C163 C 0.17433 0.67862 0.67899
 C164 C 0.32536 0.68071 0.82350
 C165 C 0.04759 0.05518 0.01388
 H166 H 0.04813 0.05694 -0.01615
 C167 C 0.06890 0.07791 0.03517
 H168 H 0.08604 0.09719 0.02155
 C169 C 0.02446 0.02805 0.06844
 H170 H 0.00680 0.00893 0.08134
 C171 C 0.04534 0.05029 0.09076
 H172 H 0.04395 0.04797 0.12077
 N173 N 0.02634 0.03051 0.03070
 C174 C 0.01235 -0.05360 -0.05208
 H175 H -0.01647 -0.05521 -0.05302
 C176 C 0.03300 -0.07644 -0.07407
 H177 H 0.02011 -0.09564 -0.09214
 C178 C 0.06449 -0.02692 -0.02711
 H179 H 0.07672 -0.00801 -0.00840
 C180 C 0.08612 -0.04926 -0.04861
 H181 H 0.11490 -0.04719 -0.04666
 Zn182 Zn -0.00151 0.00063 -0.00032
 N183 N 0.02830 -0.02914 -0.02957
 C184 C -0.02748 0.02866 -0.06878
 N185 N -0.02949 0.03069 -0.03102
 C186 C -0.05085 0.05513 -0.01395
 C187 C -0.07211 0.07810 -0.03501
 C188 C -0.04829 0.05115 -0.09088
 C189 C -0.01501 -0.05416 0.05078
 C190 C -0.03547 -0.07728 0.07257
 C191 C -0.08880 -0.05005 0.04765
 C192 C -0.06736 -0.02742 0.02633
 N193 N -0.03114 -0.02953 0.02862
 H194 H -0.00972 0.00973 -0.08187
 H195 H -0.05149 0.05656 0.01611
 H196 H -0.08931 0.09723 -0.02120
 H197 H -0.04676 0.04920 -0.12091
 H198 H 0.01382 -0.05566 0.05159
 H199 H -0.02243 -0.09660 0.09037
 H200 H -0.11760 -0.04807 0.04585
 H201 H -0.07973 -0.00836 0.00789
 C202 C 0.07022 -0.07412 -0.07240
 C203 C 0.06789 0.07529 0.07395
 C204 C -0.07271 -0.07509 0.07108
 C205 C -0.07092 0.07596 -0.07383
 C206 C 0.04875 0.55461 0.51437
 H207 H 0.04934 0.55634 0.48434
 C208 C 0.06997 0.57743 0.53567
 H209 H 0.08709 0.59674 0.52206
 C210 C 0.02557 0.52752 0.56892
 H211 H 0.00791 0.50840 0.58182
 C212 C 0.04634 0.54984 0.59126
 H213 H 0.04489 0.54757 0.62127
 N214 N 0.02751 0.52993 0.53118
 C215 C 0.01342 0.44584 0.44842
 H216 H -0.01540 0.44423 0.44758
 C217 C 0.03400 0.42303 0.42634
 H218 H 0.02105 0.40385 0.40829
 C219 C 0.06563 0.47254 0.47322
 H220 H 0.07791 0.49145 0.49190
 C221 C 0.08719 0.45022 0.45162
 H222 H 0.11598 0.45230 0.45346
 Zn223 Zn -0.00034 0.50006 0.50017
 N224 N 0.02943 0.47030 0.47089
 C225 C -0.02621 0.52815 0.43173
 N226 N -0.02830 0.53013 0.46949
 C227 C -0.04968 0.55456 0.48655
 C228 C -0.07086 0.57759 0.46547
 C229 C -0.04693 0.55070 0.40961
 C230 C -0.01376 0.44526 0.55124
 C231 C -0.03418 0.42212 0.57305
 C232 C -0.08756 0.44934 0.54823
 C233 C -0.06616 0.47199 0.52689
 N234 N -0.02994 0.46989 0.52912
 H235 H -0.00843 0.50923 0.41865
 H236 H -0.05038 0.55595 0.51660
 H237 H -0.08805 0.59674 0.47927
 H238 H -0.04532 0.54881 0.37958
 H239 H 0.01507 0.44377 0.55201
 H240 H -0.02110 0.40279 0.59082
 H241 H -0.11636 0.45131 0.54647
 H242 H -0.07856 0.49106 0.50848
 C243 C 0.07122 0.42537 0.42787
 C244 C 0.06886 0.57488 0.57446
 C245 C -0.07142 0.42429 0.57162
 C246 C -0.06956 0.57552 0.42665
 C247 C 0.54937 0.05473 0.51461
 H248 H 0.55002 0.05655 0.48458
 C249 C 0.57065 0.07738 0.53603
 H250 H 0.58787 0.09667 0.52252
 C251 C 0.52600 0.02753 0.56902
 H252 H 0.50825 0.00843 0.58181
 C253 C 0.54683 0.04969 0.59147
 H254 H 0.54533 0.04731 0.62147
 N255 N 0.52802 0.03006 0.53129
 C256 C 0.51396 -0.05382 0.44827
 H257 H 0.48514 -0.05539 0.44736
 C258 C 0.53457 -0.07658 0.42615
 H259 H 0.52163 -0.09569 0.40801
 C260 C 0.56616 -0.02725 0.47326
 H261 H 0.57841 -0.00840 0.49202
 C262 C 0.58773 -0.04952 0.45163
 H263 H 0.61652 -0.04746 0.45353
 Zn264 Zn 0.50018 0.00032 0.50012
 N265 N 0.52996 -0.02943 0.47084
 C266 C 0.47435 0.02849 0.43167
 N267 N 0.47233 0.03050 0.46943
 C268 C 0.45096 0.05494 0.48651
 C269 C 0.42968 0.07789 0.46544
 C270 C 0.45351 0.05095 0.40957
 C271 C 0.48638 -0.05452 0.55108
 C272 C 0.46577 -0.07759 0.57280
 C273 C 0.41261 -0.05017 0.54771
 C274 C 0.43419 -0.02760 0.52648
 N275 N 0.47039 -0.02982 0.52890
 H276 H 0.49212 0.00956 0.41857
 H277 H 0.45030 0.05635 0.51656
 H278 H 0.41244 0.09699 0.47926
 H279 H 0.45503 0.04899 0.37954
 H280 H 0.51520 -0.05612 0.55199
 H281 H 0.47870 -0.09696 0.59063
 H282 H 0.38382 -0.04809 0.54581
 H283 H 0.42194 -0.00849 0.50801
 C284 C 0.57179 -0.07427 0.42776
 C285 C 0.56948 0.07469 0.57481
 C286 C 0.42855 -0.07526 0.57118
 C287 C 0.43085 0.07572 0.42663
 C288 C 0.54938 0.55478 0.01413
 H289 H 0.54995 0.55649 -0.01590
 C290 C 0.57064 0.57758 0.03540
 H291 H 0.58777 0.59687 0.02176
 C292 C 0.52622 0.52774 0.06872
 H293 H 0.50855 0.50864 0.08164
 C294 C 0.54704 0.55005 0.09103
 H295 H 0.54562 0.54780 0.12104
 N296 N 0.52813 0.53014 0.03098
 C297 C 0.51402 0.44602 -0.05177
 H298 H 0.48520 0.44448 -0.05272
 C299 C 0.53463 0.42311 -0.07372
 H300 H 0.52171 0.40392 -0.09177
 C301 C 0.56621 0.47262 -0.02679
 H302 H 0.57846 0.49152 -0.00809
 C303 C 0.58779 0.45020 -0.04825
 H304 H 0.61658 0.45220 -0.04628
 Zn305 Zn 0.50025 0.50029 -0.00003
 N306 N 0.53001 0.47047 -0.02927
 C307 C 0.47422 0.52834 -0.06847
 N308 N 0.47232 0.53040 -0.03070
 C309 C 0.45106 0.55488 -0.01358
 C310 C 0.42976 0.57786 -0.03458
 C311 C 0.45336 0.55084 -0.09052
 C312 C 0.48656 0.44556 0.05111
 C313 C 0.46599 0.42246 0.07282
 C314 C 0.41279 0.44974 0.04767
 C315 C 0.43434 0.47234 0.02644
 N316 N 0.47054 0.47019 0.02888
 H317 H 0.49190 0.50936 -0.08161
 H318 H 0.45050 0.55632 0.01648
 H319 H 0.41262 0.59702 -0.02072
 H320 H 0.45478 0.54887 -0.12055
 H321 H 0.51539 0.44402 0.05203
 H322 H 0.47895 0.40312 0.09067
 H323 H 0.38400 0.45174 0.04574
 H324 H 0.42205 0.49140 0.00794
 C325 C 0.57185 0.42534 -0.07201
 C326 C 0.56958 0.57506 0.07419
 C327 C 0.42877 0.42468 0.07117
 C328 C 0.43081 0.57569 -0.07339
 C329 C 0.15183 -0.15662 -0.15505
 C330 C 0.13276 -0.13809 -0.13611
 C331 C 0.11070 -0.11612 -0.11395
 C332 C 0.09211 -0.09711 -0.09501
 C333 C 0.15237 0.34296 0.34465
 C334 C 0.13342 0.36148 0.36373
 C335 C 0.11151 0.38344 0.38606
 C336 C 0.09302 0.40243 0.40513
 C337 C 0.65309 -0.15637 0.34436
 C338 C 0.63410 -0.13792 0.36346
 C339 C 0.61214 -0.11605 0.38584
 C340 C 0.59362 -0.09714 0.40495
 C341 C 0.65330 0.34246 -0.15441
 C342 C 0.63426 0.36107 -0.13553
 C343 C 0.61225 0.38315 -0.11343
 C344 C 0.59370 0.40225 -0.09456
 C345 C -0.15287 0.15898 -0.15518
 C346 C -0.13381 0.14023 -0.13653
 C347 C -0.11172 0.11807 -0.11471
 C348 C -0.09302 0.09897 -0.09608
 C349 C -0.15098 0.65888 0.34514
 C350 C -0.13204 0.64007 0.36382
 C351 C -0.11009 0.61782 0.38570
 C352 C -0.09153 0.59864 0.40437
 C353 C 0.34842 0.15821 0.34527
 C354 C 0.36759 0.13960 0.36391
 C355 C 0.38983 0.11761 0.38574
 C356 C 0.40864 0.09863 0.40438
 C357 C 0.34845 0.65860 -0.15435
 C358 C 0.36761 0.63989 -0.13581
 C359 C 0.38983 0.61776 -0.11411
 C360 C 0.40862 0.59868 -0.09556
 C361 C -0.15322 -0.15890 0.15333
 C362 C -0.13446 -0.14002 0.13445
 C363 C -0.11274 -0.11768 0.11237
 C364 C -0.09439 -0.09838 0.09353
 C365 C -0.15171 0.34037 0.65394
 C366 C -0.13301 0.35927 0.63504
 C367 C -0.11135 0.38165 0.61294
 C368 C -0.09305 0.40098 0.59409
 C369 C 0.34739 -0.15858 0.65324
 C370 C 0.36630 -0.13984 0.63440
 C371 C 0.38821 -0.11764 0.61237
 C372 C 0.40671 -0.09845 0.59358
 C373 C 0.34766 0.34102 0.15290
 C374 C 0.36657 0.35984 0.13414
 C375 C 0.38847 0.38214 0.11221
 C376 C 0.40696 0.40141 0.09350
 C377 C 0.15080 0.15676 0.15594
 C378 C 0.13147 0.13842 0.13718
 C379 C 0.10908 0.11670 0.11521
 C380 C 0.09018 0.09794 0.09641
 C381 C 0.15115 0.65685 0.65658
 C382 C 0.13196 0.63839 0.63778
 C383 C 0.10975 0.61653 0.61576
 C384 C 0.09099 0.59766 0.59694
 C385 C 0.65210 0.15598 0.65731
 C386 C 0.63283 0.13766 0.63845
 C387 C 0.61053 0.11598 0.61633
 C388 C 0.59170 0.09727 0.59741
 C389 C 0.65210 0.65709 0.15598
 C390 C 0.63285 0.63861 0.13729
 C391 C 0.61057 0.61672 0.11537
 C392 C 0.59176 0.59784 0.09662
   
