data_POSCAR
  _audit_creation_date              2014-09-24
  _audit_creation_method            'ToBaCCo'
  _symmetry_space_group_name_H-M    'P1'
  _symmetry_Int_Tables_number       1
  _symmetry_cell_setting            triclinic
  loop_
  _symmetry_equiv_pos_as_xyz
 x,y,z
_cell_length_a 34.9099
_cell_length_b 34.8055
_cell_length_c 43.7276
_cell_angle_alpha 90.202100
_cell_angle_beta 89.726400
_cell_angle_gamma 90.183800
loop_
  _atom_site_label
  _atom_site_type_symbol
  _atom_site_fract_x
  _atom_site_fract_y
  _atom_site_fract_z
B1 B 0.27941 0.23437 0.27827
 B2 B 0.23505 0.21879 0.27136
 B3 B 0.24251 0.26467 0.28067
 B4 B 0.28392 0.27933 0.26463
 B5 B 0.30206 0.24093 0.24474
 B6 B 0.27140 0.20298 0.24945
 B7 B 0.23276 0.25985 0.22002
 B8 B 0.27709 0.27542 0.22684
 B9 B 0.26961 0.22954 0.21762
 B10 B 0.22826 0.21495 0.23362
 B11 B 0.21016 0.25332 0.25348
 B12 B 0.24076 0.29121 0.24882
 B13 B 0.73825 0.76059 0.22014
 B14 B 0.73184 0.71395 0.22712
 B15 B 0.77595 0.73127 0.22193
 B16 B 0.77852 0.77534 0.23769
 B17 B 0.73438 0.78486 0.25314
 B18 B 0.70511 0.74645 0.24608
 B19 B 0.76383 0.72210 0.28202
 B20 B 0.77025 0.76870 0.27506
 B21 B 0.72617 0.75142 0.28026
 B22 B 0.72357 0.70734 0.26451
 B23 B 0.76773 0.69779 0.24903
 B24 B 0.79699 0.73623 0.25611
 B25 B 0.73464 0.22812 -0.21609
 B26 B 0.71804 0.27233 -0.22208
 B27 B 0.76422 0.26587 -0.21391
 B28 B 0.77917 0.22499 -0.23079
 B29 B 0.74076 0.20620 -0.25000
 B30 B 0.70251 0.23584 -0.24414
 B31 B 0.75767 0.27659 -0.27437
 B32 B 0.77419 0.23240 -0.26838
 B33 B 0.72812 0.23888 -0.27653
 B34 B 0.71315 0.27971 -0.25973
 B35 B 0.75153 0.29854 -0.24049
 B36 B 0.78978 0.26884 -0.24638
 B37 B 0.26554 0.76612 -0.28416
 B38 B 0.21954 0.77431 -0.27621
 B39 B 0.23454 0.72953 -0.28243
 B40 B 0.27859 0.72473 -0.26749
 B41 B 0.29046 0.76817 -0.25158
 B42 B 0.25351 0.79923 -0.25748
 B43 B 0.22708 0.74050 -0.22201
 B44 B 0.27302 0.73238 -0.22994
 B45 B 0.25802 0.77707 -0.22379
 B46 B 0.21400 0.78188 -0.23862
 B47 B 0.20206 0.73844 -0.25456
 B48 B 0.23909 0.70737 -0.24864
 B49 B 1.24106 1.26308 0.71982
 B50 B 1.23540 1.21641 0.72679
 B51 B 1.27922 1.23442 0.72178
 B52 B 1.28093 1.27852 0.73747
 B53 B 1.23655 1.28734 0.75273
 B54 B 1.20798 1.24845 0.74561
 B55 B 1.26688 1.22513 0.78185
 B56 B 1.27254 1.27184 0.77479
 B57 B 1.22874 1.25383 0.77987
 B58 B 1.22695 1.20968 0.76415
 B59 B 1.27138 1.20084 0.74888
 B60 B 1.29996 1.23978 0.75603
 B61 B 0.77308 0.73231 0.71798
 B62 B 0.78093 0.77810 0.72737
 B63 B 0.73651 0.76299 0.72023
 B64 B 0.73142 0.71808 0.73373
 B65 B 0.77428 0.70564 0.74980
 B66 B 0.80537 0.74329 0.74534
 B67 B 0.74570 0.76752 0.78095
 B68 B 0.73788 0.72177 0.77151
 B69 B 0.78232 0.73686 0.77871
 B70 B 0.78740 0.78180 0.76520
 B71 B 0.74453 0.79417 0.74915
 B72 B 0.71352 0.75658 0.75354
 B73 B 1.23446 0.72914 0.28577
 B74 B 1.21902 0.77358 0.27896
 B75 B 1.26491 0.76618 0.28756
 B76 B 1.27904 0.72454 0.27151
 B77 B 1.24044 0.70618 0.25232
 B78 B 1.20286 0.73690 0.25738
 B79 B 1.25939 0.77542 0.22686
 B80 B 1.27476 0.73098 0.23379
 B81 B 1.22892 0.73837 0.22512
 B82 B 1.21476 0.78004 0.24113
 B83 B 1.25337 0.79844 0.26034
 B84 B 1.29095 0.76767 0.25526
 B85 B 0.76438 1.26827 0.21495
 B86 B 0.71833 1.27601 0.22293
 B87 B 0.73380 1.23137 0.21679
 B88 B 0.77789 1.22708 0.23166
 B89 B 0.78939 1.27065 0.24749
 B90 B 0.75210 1.30135 0.24160
 B91 B 0.72633 1.24240 0.27721
 B92 B 0.77234 1.23471 0.26919
 B93 B 0.75694 1.27928 0.27536
 B94 B 0.71281 1.28362 0.26055
 B95 B 0.70129 1.24002 0.24467
 B96 B 0.73863 1.20936 0.25058
 O97 O 0.55424 1.05792 0.05735
 O98 O 0.59727 1.02316 0.02860
 C99 C 0.58876 1.04755 0.05025
 O100 O 0.44391 0.92283 0.05282
 O101 O 0.40199 0.96194 0.02731
 C102 C 0.40960 0.93402 0.04614
 O103 O 0.54906 0.92508 0.05828
 O104 O 0.59466 0.95616 0.02937
 C105 C 0.58433 0.93294 0.05130
 O106 O 0.44950 1.06830 0.05055
 O107 O 0.40465 1.03065 0.02639
 C108 C 0.41444 1.05926 0.04399
 Zr109 Zr 0.50120 1.04085 0.03920
 O110 O 0.49747 1.03468 0.08719
 O111 O 0.50579 1.10116 0.04396
 Zr112 Zr 0.49748 0.94549 0.04005
 O113 O 0.49495 0.95364 0.08794
 O114 O 0.49642 0.88510 0.04540
 O115 O 0.53404 0.99206 0.04574
 O116 O 0.46492 0.99452 0.04494
 O117 O 0.45059 1.06465 -0.05196
 O118 O 0.40506 1.03017 -0.02555
 C119 C 0.41535 1.05694 -0.04469
 O120 O 0.55109 0.92413 -0.05486
 O121 O 0.59568 0.95557 -0.02543
 C122 C 0.58610 0.93218 -0.04746
 O123 O 0.44555 0.92244 -0.05134
 O124 O 0.40286 0.96160 -0.02620
 C125 C 0.41106 0.93356 -0.04490
 O126 O 0.55613 1.05563 -0.05578
 O127 O 0.59819 1.02191 -0.02588
 C128 C 0.59038 1.04547 -0.04807
 Zr129 Zr 0.50247 1.03991 -0.03760
 O130 O 0.49792 1.03908 -0.08589
 O131 O 0.50943 1.10038 -0.03795
 Zr132 Zr 0.49884 0.94366 -0.03667
 O133 O 0.49467 0.94220 -0.08494
 O134 O 0.50109 0.88289 -0.03518
 Zr135 Zr 0.55835 0.99049 0.00145
 Zr136 Zr 0.44179 0.99449 0.00061
 O137 O 0.46706 0.99288 -0.04316
 O138 O 0.53515 0.99049 -0.04306
 O139 O 0.46799 1.04928 0.00045
 O140 O 0.53169 0.93618 0.00195
 O141 O 0.53581 1.04649 0.00096
 O142 O 0.46355 0.93801 0.00145
 H143 H 0.44696 0.99558 0.06255
 H144 H 0.54819 0.91309 0.00210
 H145 H 0.45016 0.99331 -0.06130
 H146 H 0.55386 1.06851 0.00085
 H147 H 0.50506 0.87365 0.02588
 H148 H 0.47939 0.87395 -0.02237
 H149 H 0.51509 0.95897 -0.09326
 H150 H 0.51918 1.02334 -0.09410
 H151 H 0.48868 1.11157 -0.02528
 H152 H 0.51068 1.11161 0.02335
 H153 H 0.49729 1.06109 0.09571
 H154 H 0.49226 0.92769 0.09696
 O155 O 1.05471 0.55687 0.55782
 O156 O 1.09749 0.52230 0.52868
 C157 C 1.08916 0.54649 0.55052
 O158 O 0.94331 0.42321 0.55267
 O159 O 0.90178 0.46277 0.52721
 C160 C 0.90912 0.43472 0.54597
 O161 O 1.04841 0.42479 0.55843
 O162 O 1.09430 0.45541 0.52953
 C163 C 1.08375 0.43236 0.55149
 O164 O 0.95006 0.56823 0.55099
 O165 O 0.90502 0.53146 0.52621
 C166 C 0.91501 0.55977 0.54406
 Zr167 Zr 1.00166 0.54093 0.53908
 O168 O 0.99750 0.53620 0.58717
 O169 O 1.00914 0.60119 0.54179
 Zr170 Zr 0.99707 0.44554 0.54011
 O171 O 0.99449 0.45413 0.58795
 O172 O 0.99554 0.38521 0.54580
 O173 O 1.03398 0.49180 0.54574
 O174 O 0.96500 0.49485 0.54487
 O175 O 0.95135 0.56476 0.44786
 O176 O 0.90557 0.53068 0.47429
 C177 C 0.91605 0.55724 0.45507
 O178 O 1.05071 0.42386 0.44503
 O179 O 1.09545 0.45460 0.47477
 C180 C 1.08576 0.43153 0.45257
 O181 O 0.94503 0.42267 0.44871
 O182 O 0.90267 0.46226 0.47376
 C183 C 0.91063 0.43411 0.45509
 O184 O 1.05687 0.55466 0.44415
 O185 O 1.09857 0.52084 0.47428
 C186 C 1.09101 0.54435 0.45202
 Zr187 Zr 1.00302 0.53966 0.46231
 O188 O 0.99846 0.53885 0.41401
 O189 O 1.01126 0.59998 0.46174
 Zr190 Zr 0.99854 0.44341 0.46342
 O191 O 0.99417 0.44111 0.41519
 O192 O 1.00042 0.38265 0.46539
 Zr193 Zr 1.05836 0.48989 0.50151
 Zr194 Zr 0.94192 0.49488 0.50053
 O195 O 0.96725 0.49291 0.45678
 O196 O 1.03523 0.48994 0.45697
 O197 O 0.96850 0.54948 0.50030
 O198 O 1.03127 0.43580 0.50207
 O199 O 1.03632 0.54610 0.50091
 O200 O 0.96314 0.43821 0.50150
 H201 H 0.94705 0.49602 0.56248
 H202 H 1.04765 0.41262 0.50224
 H203 H 0.95044 0.49347 0.43859
 H204 H 1.05445 0.56807 0.50091
 H205 H 1.00444 0.37355 0.52643
 H206 H 0.97841 0.37399 0.47800
 H207 H 1.01392 0.45853 0.40670
 H208 H 1.01966 0.52305 0.40578
 H209 H 0.98999 0.61183 0.47338
 H210 H 0.99543 0.61246 0.52429
 H211 H 0.99756 0.56283 0.59524
 H212 H 0.99098 0.42833 0.59707
 O213 O 0.93922 0.44864 -0.05605
 O214 O 0.97117 0.40409 -0.02714
 C215 C 0.94750 0.41360 -0.04879
 O216 O 1.07975 0.55219 -0.05070
 O217 O 1.04240 0.59649 -0.02552
 C218 C 1.07030 0.58722 -0.04397
 O219 O 1.07173 0.44663 -0.05621
 O220 O 1.03671 0.40300 -0.02823
 C221 C 1.06108 0.41185 -0.04981
 O222 O 0.93527 0.55419 -0.05070
 O223 O 0.97401 0.59752 -0.02577
 C224 C 0.94596 0.58894 -0.04420
 Zr225 Zr 0.95893 0.50116 -0.03813
 O226 O 0.96640 0.50323 -0.08609
 O227 O 0.89868 0.50055 -0.04303
 Zr228 Zr 1.05418 0.49976 -0.03816
 O229 O 1.04762 0.50212 -0.08614
 O230 O 1.11451 0.49789 -0.04286
 O231 O 1.00592 0.46567 -0.04422
 O232 O 1.00722 0.53487 -0.04354
 O233 O 0.93571 0.55439 0.05243
 O234 O 0.97332 0.59782 0.02649
 C235 C 0.94567 0.58916 0.04537
 O236 O 1.06945 0.44644 0.05780
 O237 O 1.03752 0.40302 0.02743
 C238 C 1.06021 0.41169 0.05004
 O239 O 1.07796 0.55171 0.05318
 O240 O 1.04188 0.59632 0.02772
 C241 C 1.06912 0.58678 0.04650
 O242 O 0.93988 0.44833 0.05714
 O243 O 0.97127 0.40398 0.02718
 C244 C 0.94806 0.41334 0.04937
 Zr245 Zr 0.95808 0.50090 0.03858
 O246 O 0.96096 0.50373 0.08682
 O247 O 0.89751 0.49733 0.03934
 Zr248 Zr 1.05403 0.49936 0.03855
 O249 O 1.05444 0.50363 0.08683
 O250 O 1.11440 0.49370 0.03745
 Zr251 Zr 1.00524 0.44180 0.00009
 Zr252 Zr 1.00739 0.55874 0.00071
 O253 O 1.00659 0.53406 0.04453
 O254 O 1.00533 0.46564 0.04445
 O255 O 0.95145 0.53549 0.00042
 O256 O 1.06073 0.46541 0.00006
 O257 O 0.95069 0.46729 0.00012
 O258 O 1.06243 0.53386 0.00044
 H259 H 1.00767 0.55255 -0.06127
 H260 H 1.08258 0.44732 0.00013
 H261 H 1.00665 0.55131 0.06260
 H262 H 0.92784 0.45034 0.00025
 H263 H 1.12486 0.48601 -0.02418
 H264 H 1.12461 0.51405 0.02388
 H265 H 1.03211 0.48889 0.09448
 H266 H 0.93413 0.50446 0.09431
 H267 H 0.88770 0.51716 0.02525
 H268 H 0.88762 0.49303 -0.02310
 H269 H 0.94032 0.50444 -0.09487
 H270 H 1.07387 0.50204 -0.09486
 O271 O 0.57226 0.94767 0.55685
 O272 O 0.53771 0.90360 0.52889
 C273 C 0.56196 0.91279 0.55033
 O274 O 0.43533 1.05485 0.55220
 O275 O 0.47306 1.09798 0.52600
 C276 C 0.44538 1.08956 0.54496
 O277 O 0.44048 0.94909 0.55823
 O278 O 0.47219 0.90445 0.52871
 C279 C 0.44883 0.91402 0.55078
 O280 O 0.57997 1.05320 0.55075
 O281 O 0.54203 1.09710 0.52619
 C282 C 0.57020 1.08810 0.54427
 Zr283 Zr 0.55464 1.00054 0.53862
 O284 O 0.54870 1.00352 0.58671
 O285 O 0.61510 0.99933 0.54226
 Zr286 Zr 0.45943 1.00160 0.53993
 O287 O 0.46759 1.00448 0.58774
 O288 O 0.39931 1.00041 0.54607
 O289 O 0.50663 0.96634 0.54531
 O290 O 0.50751 1.03560 0.54459
 O291 O 0.57732 1.05227 0.44731
 O292 O 0.54171 1.09671 0.47393
 C293 C 0.56854 1.08735 0.45452
 O294 O 0.43921 0.94727 0.44536
 O295 O 0.47181 0.90351 0.47450
 C296 C 0.44796 0.91246 0.45287
 O297 O 0.43532 1.05302 0.44865
 O298 O 0.47343 1.09693 0.47351
 C299 C 0.44563 1.08790 0.45499
 O300 O 0.57033 0.94625 0.44322
 O301 O 0.53794 0.90302 0.47339
 C302 C 0.56083 0.91153 0.45076
 Zr303 Zr 0.55399 0.99948 0.46189
 O304 O 0.55448 1.00413 0.41363
 O305 O 0.61444 0.99458 0.46234
 Zr306 Zr 0.45783 1.00024 0.46313
 O307 O 0.45702 1.00455 0.41484
 O308 O 0.39730 0.99625 0.46457
 Zr309 Zr 0.50577 0.94201 0.50101
 Zr310 Zr 0.50710 1.05877 0.50028
 O311 O 0.50625 1.03352 0.45650
 O312 O 0.50540 0.96532 0.45652
 O313 O 0.56230 1.03429 0.49991
 O314 O 0.45104 0.96719 0.50183
 O315 O 0.56113 0.96591 0.50035
 O316 O 0.45129 1.03532 0.50130
 H317 H 0.50781 1.05365 0.56217
 H318 H 0.42832 0.95008 0.50211
 H319 H 0.50636 1.05053 0.43837
 H320 H 0.58302 0.94788 0.50009
 H321 H 0.38805 0.99247 0.52637
 H322 H 0.38786 1.01725 0.47790
 H323 H 0.47252 0.98322 0.40643
 H324 H 0.53680 0.98439 0.40551
 H325 H 0.62439 1.01466 0.47632
 H326 H 0.62531 0.98481 0.52458
 H327 H 0.57505 1.00454 0.59502
 H328 H 0.44171 1.00721 0.59687
 O329 O 1.04599 0.92599 0.53889
 O330 O 1.02328 0.96972 0.57387
 C331 C 1.04258 0.93931 0.56643
 O332 O 1.07143 1.05612 0.45056
 O333 O 1.02700 1.02754 0.41927
 C334 C 1.05713 1.04846 0.42399
 O335 O 1.08358 1.05072 0.53477
 O336 O 1.04112 1.03091 0.57166
 C337 C 1.07344 1.04584 0.56303
 O338 O 1.03130 0.91848 0.45533
 O339 O 1.00789 0.96287 0.42156
 C340 C 1.02383 0.93020 0.42791
 Zr341 Zr 1.02430 0.94665 0.49753
 O342 O 1.08071 0.92581 0.49152
 O343 O 1.00222 0.89039 0.50232
 Zr344 Zr 1.05362 1.03856 0.49423
 O345 O 1.10927 1.01571 0.48888
 O346 O 1.07631 1.09497 0.49514
 O347 O 1.04848 0.99137 0.52265
 O348 O 1.04365 0.98960 0.46876
 O349 O 0.90577 0.95782 0.46214
 O350 O 0.94638 0.98108 0.42516
 C351 C 0.91587 0.96270 0.43385
 O352 O 0.95063 1.09365 0.54145
 O353 O 0.97698 1.05077 0.57497
 C354 C 0.95853 1.08206 0.56882
 O355 O 0.94819 1.09219 0.45617
 O356 O 0.96622 1.04522 0.42219
 C357 C 0.95173 1.07843 0.42872
 O358 O 0.91063 0.96702 0.54693
 O359 O 0.95897 0.98924 0.57767
 C360 C 0.92566 0.97371 0.57349
 Zr361 Zr 0.93287 0.97579 0.50263
 O362 O 0.87529 0.99479 0.50193
 O363 O 0.91425 0.91835 0.50820
 Zr364 Zr 0.96182 1.06780 0.49881
 O365 O 0.90360 1.08473 0.49816
 O366 O 0.97928 1.12610 0.50000
 Zr367 Zr 0.99718 1.00897 0.54394
 Zr368 Zr 0.98940 1.00542 0.45271
 O369 O 0.93832 1.02282 0.47439
 O370 O 0.94248 1.02512 0.52837
 O371 O 0.97398 0.95293 0.47313
 O372 O 1.01219 1.06111 0.52283
 O373 O 0.97897 0.95535 0.52710
 O374 O 1.00766 1.05948 0.46922
 H375 H 1.06384 0.98268 0.45372
 H376 H 1.02024 1.08324 0.53564
 H377 H 0.91574 1.02881 0.46164
 H378 H 0.97383 0.93435 0.54181
 H379 H 1.05548 1.11224 0.48873
 H380 H 0.99467 1.13122 0.48138
 H381 H 0.89136 1.07531 0.51718
 H382 H 0.87159 1.01257 0.51939
 H383 H 0.93005 0.90237 0.49432
 H384 H 1.02467 0.87306 0.50167
 H385 H 1.09808 0.94506 0.50078
 H386 H 1.12675 1.03808 0.48713
 O387 O 0.53837 0.41945 0.03771
 O388 O 0.51706 0.46358 0.07288
 C389 C 0.53387 0.43166 0.06550
 O390 O 0.57612 0.55505 -0.04542
 O391 O 0.53294 0.52980 -0.07949
 C392 C 0.56335 0.54956 -0.07284
 O393 O 0.58271 0.54485 0.03873
 O394 O 0.53753 0.52464 0.07342
 C395 C 0.57076 0.53900 0.06643
 O396 O 0.52975 0.41759 -0.04683
 O397 O 0.51143 0.46489 -0.08006
 C398 C 0.52484 0.43103 -0.07413
 Zr399 Zr 0.52355 0.44475 -0.00406
 O400 O 0.58239 0.43112 -0.00686
 O401 O 0.50908 0.38578 -0.00267
 Zr402 Zr 0.55526 0.53528 -0.00328
 O403 O 0.60970 0.50924 -0.00693
 O404 O 0.58126 0.59009 -0.00032
 O405 O 0.54698 0.48715 0.02367
 O406 O 0.54555 0.48822 -0.03100
 O407 O 0.40682 0.46261 -0.04378
 O408 O 0.45087 0.48518 -0.07843
 C409 C 0.41900 0.46811 -0.07144
 O410 O 0.44955 0.59061 0.04131
 O411 O 0.47328 0.54616 0.07475
 C412 C 0.45511 0.57770 0.06865
 O413 O 0.45312 0.59431 -0.04345
 O414 O 0.47226 0.54878 -0.07826
 C415 C 0.45775 0.58186 -0.07118
 O416 O 0.40721 0.46487 0.04132
 O417 O 0.45391 0.48488 0.07450
 C418 C 0.42089 0.46961 0.06859
 Zr419 Zr 0.43233 0.47627 -0.00167
 O420 O 0.37527 0.49654 -0.00362
 O421 O 0.41222 0.41890 0.00125
 Zr422 Zr 0.46444 0.56747 -0.00139
 O423 O 0.40788 0.58890 -0.00377
 O424 O 0.48589 0.62428 0.00229
 Zr425 Zr 0.49476 0.50539 0.04321
 Zr426 Zr 0.49274 0.50659 -0.04840
 O427 O 0.44102 0.52451 -0.02804
 O428 O 0.44172 0.52400 0.02593
 O429 O 0.47465 0.45356 -0.03006
 O430 O 0.51277 0.55794 0.02444
 O431 O 0.47628 0.45321 0.02366
 O432 O 0.51168 0.55906 -0.02940
 H433 H 0.56606 0.48152 -0.04582
 H434 H 0.52036 0.57909 0.03840
 H435 H 0.41930 0.53208 -0.04121
 H436 H 0.46935 0.43144 0.03716
 H437 H 0.56053 0.60909 -0.00256
 H438 H 0.50144 0.62956 -0.01622
 H439 H 0.39234 0.57459 0.01135
 H440 H 0.37100 0.51315 0.01446
 H441 H 0.42200 0.40478 -0.01684
 H442 H 0.48084 0.38432 -0.00292
 H443 H 0.58371 0.40272 -0.00786
 H444 H 0.62845 0.53062 -0.00810
 C445 C 0.36981 1.14619 0.08046
 C446 C 0.33830 1.13023 0.09562
 C447 C 0.32861 1.09152 0.09054
 C448 C 0.35169 1.06847 0.07155
 C449 C 0.28248 1.21097 0.18724
 C450 C 0.39294 1.12328 0.06187
 C451 C 0.31945 1.15267 0.11901
 C452 C 0.30627 1.17184 0.13956
 C453 C 0.29292 1.19371 0.16473
 C454 C 0.38487 1.08397 0.05801
 H455 H 0.37773 1.17594 0.08429
 H456 H 0.30441 1.07875 0.10236
 H457 H 0.34511 1.03819 0.06912
 H458 H 0.41828 1.13593 0.05158
 C459 C 0.83082 0.59295 0.59184
 C460 C 0.84033 0.63188 0.59589
 C461 C 0.87109 0.64761 0.57957
 C462 C 0.89365 0.62426 0.56085
 C463 C 0.78599 0.71360 0.68764
 C464 C 0.85328 0.56949 0.57272
 C465 C 0.82215 0.65479 0.61935
 C466 C 0.80936 0.67416 0.63995
 C467 C 0.79631 0.69621 0.66515
 C468 C 0.88570 0.58479 0.55800
 H469 H 0.80728 0.58033 0.60458
 H470 H 0.87890 0.67755 0.58255
 H471 H 0.91850 0.63669 0.54965
 H472 H 0.84694 0.53907 0.57113
 C473 C 0.67217 0.87712 0.07734
 C474 C 0.66142 0.86853 0.10760
 C475 C 0.62749 0.88374 0.11950
 C476 C 0.60373 0.90600 0.10128
 C477 C 0.72546 0.78078 0.19039
 C478 C 0.64827 0.89991 0.05891
 C479 C 0.68344 0.84323 0.12693
 C480 C 0.69882 0.82245 0.14528
 C481 C 0.71409 0.79914 0.16883
 C482 C 0.61333 0.91379 0.07062
 H483 H 0.69842 0.86557 0.06782
 H484 H 0.61885 0.87760 0.14282
 H485 H 0.57719 0.91654 0.11109
 H486 H 0.65620 0.90526 0.03534
 C487 C 1.17325 0.37965 0.57796
 C488 C 1.16177 0.36890 0.60759
 C489 C 1.12652 0.38138 0.61902
 C490 C 1.10224 0.40314 0.60089
 C491 C 1.22808 0.28293 0.69007
 C492 C 1.14879 0.40188 0.55962
 C493 C 1.18460 0.34428 0.62677
 C494 C 1.20057 0.32391 0.64502
 C495 C 1.21637 0.30100 0.66851
 C496 C 1.11263 0.41307 0.57079
 H497 H 1.20059 0.37029 0.56888
 H498 H 1.11734 0.37362 0.64190
 H499 H 1.07482 0.41171 0.61036
 H500 H 1.15742 0.40904 0.53652
 C501 C 0.64079 1.08247 -0.11791
 C502 C 0.66702 1.10854 -0.10540
 C503 C 0.67191 1.10991 -0.07351
 C504 C 0.64921 1.08665 -0.05431
 C505 C 0.72293 1.20385 -0.18789
 C506 C 0.61805 1.05966 -0.09887
 C507 C 0.68581 1.13569 -0.12559
 C508 C 0.69913 1.15798 -0.14403
 C509 C 0.71266 1.18329 -0.16712
 C510 C 0.62133 1.06218 -0.06693
 H511 H 0.63657 1.08106 -0.14242
 H512 H 0.69197 1.13005 -0.06346
 H513 H 0.65163 1.08964 -0.02974
 H514 H 0.59642 1.04131 -0.10906
 C515 C 1.14113 0.58292 0.38277
 C516 C 1.16721 0.60881 0.39571
 C517 C 1.17243 0.60916 0.42756
 C518 C 1.15004 0.58516 0.44638
 C519 C 1.22214 0.70562 0.31415
 C520 C 1.11873 0.55934 0.40144
 C521 C 1.18554 0.63674 0.37600
 C522 C 1.19853 0.65954 0.35784
 C523 C 1.21181 0.68514 0.33492
 C524 C 1.12213 0.56104 0.43340
 H525 H 1.13669 0.58232 0.35827
 H526 H 1.19244 0.62911 0.43791
 H527 H 1.15259 0.58742 0.47099
 H528 H 1.09712 0.54120 0.39099
 C529 C 0.32432 0.91263 -0.09416
 C530 C 0.33126 0.87413 -0.10211
 C531 C 0.36132 0.85444 -0.08822
 C532 C 0.38564 0.87349 -0.06797
 C533 C 0.27012 0.79994 -0.19503
 C534 C 0.34858 0.93176 -0.07347
 C535 C 0.31058 0.85537 -0.12654
 C536 C 0.29589 0.83846 -0.14766
 C537 C 0.28112 0.81781 -0.17300
 C538 C 0.38023 0.91259 -0.06102
 H539 H 0.30122 0.92825 -0.10485
 H540 H 0.36703 0.82471 -0.09409
 H541 H 0.40978 0.85801 -0.05866
 H542 H 0.34408 0.96197 -0.06874
 C543 C 0.82380 0.41414 0.40560
 C544 C 0.83041 0.37561 0.39752
 C545 C 0.86024 0.35559 0.41143
 C546 C 0.88465 0.37431 0.43183
 C547 C 0.76908 0.30226 0.30412
 C548 C 0.84816 0.43295 0.42640
 C549 C 0.80970 0.35717 0.37291
 C550 C 0.79499 0.34051 0.35165
 C551 C 0.78015 0.32007 0.32619
 C552 C 0.87961 0.41345 0.43887
 H553 H 0.80090 0.43005 0.39489
 H554 H 0.86574 0.32586 0.40545
 H555 H 0.90857 0.35854 0.44120
 H556 H 0.84389 0.46317 0.43121
 C557 C 1.09821 0.36367 0.12044
 C558 C 1.12007 0.33370 0.10820
 C559 C 1.11868 0.32624 0.07659
 C560 C 1.09680 0.34986 0.05729
 C561 C 1.20960 0.27274 0.19166
 C562 C 1.07685 0.38728 0.10133
 C563 C 1.14555 0.31315 0.12842
 C564 C 1.16647 0.29862 0.14711
 C565 C 1.19024 0.28393 0.17060
 C566 C 1.07661 0.38129 0.06952
 H567 H 1.09882 0.36978 0.14475
 H568 H 1.13548 0.30314 0.06678
 H569 H 1.09742 0.34497 0.03282
 H570 H 1.06152 0.41131 0.11132
 C571 C 0.60247 0.86712 0.62078
 C572 C 0.62320 0.83624 0.60874
 C573 C 0.62022 0.82747 0.57741
 C574 C 0.59788 0.85066 0.55812
 C575 C 0.71363 0.77600 0.69181
 C576 C 0.58068 0.89030 0.60166
 C577 C 0.64895 0.81589 0.62884
 C578 C 0.67012 0.80154 0.64741
 C579 C 0.69416 0.78706 0.67078
 C580 C 0.57887 0.88296 0.57008
 H581 H 0.60429 0.87424 0.64488
 H582 H 0.63611 0.80364 0.56774
 H583 H 0.59721 0.84472 0.53381
 H584 H 0.56622 0.91499 0.61143
 C585 C 1.15207 0.63437 -0.08603
 C586 C 1.13442 0.66668 -0.09850
 C587 C 1.09665 0.67568 -0.08996
 C588 C 1.07613 0.65133 -0.07017
 C589 C 1.20778 0.72782 -0.19184
 C590 C 1.13162 0.60997 -0.06666
 C591 C 1.15407 0.68741 -0.12248
 C592 C 1.17118 0.70204 -0.14354
 C593 C 1.19127 0.71674 -0.16918
 C594 C 1.09312 0.61751 -0.05924
 H595 H 1.18116 0.62699 -0.09242
 H596 H 1.08257 0.70051 -0.09961
 H597 H 1.04645 0.65762 -0.06498
 H598 H 1.14548 0.58421 -0.05844
 C599 C 0.64982 1.13431 0.41156
 C600 C 0.63243 1.16713 0.39974
 C601 C 0.59487 1.17636 0.40877
 C602 C 0.57437 1.15180 0.42848
 C603 C 0.70694 1.22952 0.30737
 C604 C 0.62941 1.10973 0.43082
 C605 C 0.65228 1.18837 0.37609
 C606 C 0.66970 1.20333 0.35531
 C607 C 0.69018 1.21828 0.32990
 C608 C 0.59116 1.11759 0.43886
 H609 H 0.67875 1.12677 0.40481
 H610 H 0.58098 1.20164 0.39968
 H611 H 0.54487 1.15835 0.43411
 H612 H 0.64313 1.08365 0.43855
 C613 C 0.86297 0.63724 0.08500
 C614 C 0.88126 0.66679 0.10107
 C615 C 0.92022 0.67440 0.09546
 C616 C 0.94115 0.65109 0.07507
 C617 C 0.80021 0.72097 0.19338
 C618 C 0.88379 0.61386 0.06504
 C619 C 0.86053 0.68579 0.12547
 C620 C 0.84198 0.69885 0.14646
 C621 C 0.81950 0.71161 0.17157
 C622 C 0.92328 0.61974 0.06060
 H623 H 0.83295 0.63099 0.08906
 H624 H 0.93477 0.69711 0.10784
 H625 H 0.97161 0.65591 0.07224
 H626 H 0.86936 0.58990 0.05411
 C627 C 0.36392 1.13819 0.58581
 C628 C 0.38262 1.16844 0.60070
 C629 C 0.42125 1.17618 0.59389
 C630 C 0.44146 1.15241 0.57340
 C631 C 0.30362 1.22436 0.69327
 C632 C 0.38403 1.11436 0.56573
 C633 C 0.36265 1.18830 0.62503
 C634 C 0.34465 1.20196 0.64608
 C635 C 0.32268 1.21502 0.67135
 C636 C 0.42326 1.12044 0.56007
 H637 H 0.33416 1.13179 0.59089
 H638 H 0.43614 1.19943 0.60537
 H639 H 0.47178 1.15731 0.56974
 H640 H 0.36938 1.08980 0.55586
 C641 C 0.90073 0.36717 -0.11671
 C642 C 0.87844 0.33837 -0.10317
 C643 C 0.88242 0.33093 -0.07177
 C644 C 0.90737 0.35348 -0.05388
 C645 C 0.78396 0.27916 -0.18404
 C646 C 0.92518 0.38972 -0.09897
 C647 C 0.85040 0.31870 -0.12190
 C648 C 0.82780 0.30469 -0.13969
 C649 C 0.80299 0.29033 -0.16270
 C650 C 0.92808 0.38381 -0.06730
 H651 H 0.89816 0.37323 -0.14090
 H652 H 0.86536 0.30871 -0.06097
 H653 H 0.90878 0.34875 -0.02945
 H654 H 0.94082 0.41295 -0.10983
 C655 C 0.40268 0.86502 0.38493
 C656 C 0.37929 0.83720 0.39856
 C657 C 0.38226 0.83043 0.43013
 C658 C 0.40723 0.85285 0.44809
 C659 C 0.28449 0.77956 0.31740
 C660 C 0.42717 0.88742 0.40272
 C661 C 0.35103 0.81806 0.37977
 C662 C 0.32831 0.80448 0.36191
 C663 C 0.30345 0.79053 0.33881
 C664 C 0.42900 0.88231 0.43453
 H665 H 0.40084 0.87056 0.36060
 H666 H 0.36432 0.80897 0.44099
 H667 H 0.40777 0.84881 0.47262
 H668 H 0.44353 0.91008 0.39176
 C669 C 1.10315 1.12600 0.37850
 C670 C 1.12091 1.10497 0.35524
 C671 C 1.11458 1.06532 0.35246
 C672 C 1.09149 1.04647 0.37397
 C673 C 1.21359 1.19073 0.29167
 C674 C 1.08066 1.10728 0.40002
 C675 C 1.14761 1.12462 0.33609
 C676 C 1.16971 1.14383 0.32172
 C677 C 1.19424 1.16855 0.30581
 C678 C 1.07547 1.06742 0.39825
 H679 H 1.10791 1.15668 0.38070
 H680 H 1.12841 1.04892 0.33447
 H681 H 1.08782 1.01560 0.37265
 H682 H 1.06823 1.12371 0.41868
 C683 C 0.61279 0.57203 -0.14762
 C684 C 0.62816 0.60819 -0.14049
 C685 C 0.62055 0.62545 -0.11231
 C686 C 0.59871 0.60621 -0.09071
 C687 C 0.71606 0.69407 -0.20812
 C688 C 0.59035 0.55272 -0.12593
 C689 C 0.65259 0.62824 -0.16120
 C690 C 0.67330 0.64758 -0.17669
 C691 C 0.69693 0.67219 -0.19352
 C692 C 0.58399 0.56953 -0.09714
 H693 H 0.61862 0.55867 -0.16956
 H694 H 0.63204 0.65360 -0.10683
 H695 H 0.59346 0.61996 -0.06881
 H696 H 0.57913 0.52443 -0.13119
 C697 C 0.91595 1.10917 0.64507
 C698 C 0.90250 1.14608 0.63864
 C699 C 0.91154 1.16367 0.61088
 C700 C 0.93218 1.14353 0.58877
 C701 C 0.80218 1.21317 0.70969
 C702 C 0.93680 1.08895 0.62299
 C703 C 0.87623 1.16458 0.65899
 C704 C 0.85304 1.18003 0.67510
 C705 C 0.82544 1.19794 0.69353
 C706 C 0.94385 1.10553 0.59424
 H707 H 0.90889 1.09540 0.66656
 H708 H 0.90115 1.19227 0.60583
 H709 H 0.93754 1.15716 0.56691
 H710 H 0.94533 1.05968 0.62774
 C711 C 0.39089 0.64766 0.10947
 C712 C 0.39762 0.63876 0.14001
 C713 C 0.42504 0.61119 0.14776
 C714 C 0.44501 0.59171 0.12461
 C715 C 0.30269 0.70996 0.21286
 C716 C 0.41071 0.62857 0.08651
 C717 C 0.37419 0.65701 0.16258
 C718 C 0.35240 0.67332 0.17940
 C719 C 0.32565 0.69301 0.19750
 C720 C 0.43760 0.59997 0.09373
 H721 H 0.36947 0.66873 0.10332
 H722 H 0.43038 0.60422 0.17149
 H723 H 0.46560 0.56990 0.13081
 H724 H 0.40380 0.63543 0.06303
 C725 C 1.11855 0.87961 0.60261
 C726 C 1.10582 0.87792 0.63282
 C727 C 1.07268 0.89743 0.64205
 C728 C 1.05183 0.91834 0.62059
 C729 C 1.19310 0.79540 0.70236
 C730 C 1.09778 0.90001 0.58128
 C731 C 1.12731 0.85550 0.65368
 C732 C 1.14717 0.83611 0.66951
 C733 C 1.17170 0.81371 0.68701
 C734 C 1.06404 0.91909 0.58996
 H735 H 1.14443 0.86490 0.59547
 H736 H 1.06288 0.89621 0.66557
 H737 H 1.02599 0.93307 0.62769
 H738 H 1.10826 0.90099 0.55793
 C739 C 0.58660 0.35124 0.10360
 C740 C 0.59239 0.36661 0.13270
 C741 C 0.57589 0.40172 0.14103
 C742 C 0.55481 0.42236 0.11961
 C743 C 0.69121 0.29608 0.20129
 C744 C 0.56570 0.37167 0.08224
 C745 C 0.61825 0.34766 0.15266
 C746 C 0.64115 0.33140 0.16817
 C747 C 0.66835 0.31230 0.18574
 C748 C 0.55045 0.40791 0.08975
 H749 H 0.59957 0.32416 0.09702
 H750 H 0.58051 0.41375 0.16361
 H751 H 0.54355 0.45026 0.12595
 H752 H 0.56290 0.35967 0.05946
 C753 C 0.83671 0.90494 0.39795
 C754 C 0.85148 0.89917 0.36859
 C755 C 0.88526 0.91757 0.35941
 C756 C 0.90537 0.94035 0.38020
 C757 C 0.78844 0.79624 0.29780
 C758 C 0.85671 0.92759 0.41875
 C759 C 0.83371 0.87169 0.34897
 C760 C 0.81923 0.84772 0.33304
 C761 C 0.80262 0.81961 0.31441
 C762 C 0.89183 0.94453 0.41036
 H763 H 0.81054 0.89072 0.40517
 H764 H 0.89680 0.91310 0.33663
 H765 H 0.93234 0.95305 0.37313
 H766 H 0.84542 0.93053 0.44174
 C767 C 0.33722 0.41903 -0.11086
 C768 C 0.35477 0.40786 -0.13817
 C769 C 0.39167 0.42071 -0.14552
 C770 C 0.41200 0.44304 -0.12456
 C771 C 0.29037 0.30014 -0.20306
 C772 C 0.35744 0.44116 -0.08990
 C773 C 0.33660 0.37944 -0.15658
 C774 C 0.32168 0.35433 -0.17100
 C775 C 0.30469 0.32470 -0.18771
 C776 C 0.39547 0.45215 -0.09610
 H777 H 0.30868 0.40897 -0.10508
 H778 H 0.40538 0.41185 -0.16667
 H779 H 0.44136 0.45092 -0.12975
 H780 H 0.34397 0.44794 -0.06819
 C781 C 1.10860 0.31975 -0.07825
 C782 C 1.11804 0.33056 -0.10833
 C783 C 1.10621 0.36621 -0.11925
 C784 C 1.08637 0.39148 -0.10028
 C785 C 1.20426 0.26450 -0.19178
 C786 C 1.08824 0.34521 -0.05905
 C787 C 1.14139 0.30704 -0.12831
 C788 C 1.16128 0.29087 -0.14702
 C789 C 1.18462 0.27534 -0.17062
 C790 C 1.07778 0.38174 -0.06980
 H791 H 1.11767 0.29221 -0.06946
 H792 H 1.11319 0.37498 -0.14239
 H793 H 1.07841 0.41925 -0.10935
 H794 H 1.08218 0.33713 -0.03562
 C795 C 0.60272 0.86362 0.38093
 C796 C 0.61655 0.82903 0.39250
 C797 C 0.60934 0.81953 0.42324
 C798 C 0.58938 0.84533 0.44242
 C799 C 0.70202 0.76242 0.30874
 C800 C 0.58332 0.88927 0.39990
 C801 C 0.63985 0.80543 0.37251
 C802 C 0.65959 0.78914 0.35374
 C803 C 0.68265 0.77344 0.33002
 C804 C 0.57708 0.88093 0.43099
 H805 H 0.60789 0.87138 0.35728
 H806 H 0.61991 0.79281 0.43252
 H807 H 0.58509 0.83828 0.46630
 H808 H 0.57386 0.91626 0.39030
 C809 C 0.86458 0.63722 -0.08477
 C810 C 0.88346 0.66636 -0.10087
 C811 C 0.92243 0.67351 -0.09514
 C812 C 0.94270 0.65032 -0.07449
 C813 C 0.80490 0.72396 -0.19271
 C814 C 0.88472 0.61400 -0.06450
 C815 C 0.86321 0.68567 -0.12519
 C816 C 0.84511 0.69930 -0.14605
 C817 C 0.82332 0.71319 -0.17099
 C818 C 0.92418 0.61953 -0.05978
 H819 H 0.83459 0.63121 -0.08898
 H820 H 0.93751 0.69581 -0.10758
 H821 H 0.97318 0.65480 -0.07162
 H822 H 0.86977 0.59040 -0.05354
 C823 C 0.42149 1.17132 0.40308
 C824 C 0.38241 1.16411 0.39780
 C825 C 0.36375 1.13526 0.41438
 C826 C 0.38416 1.11243 0.43475
 C827 C 0.30244 1.22165 0.30670
 C828 C 0.44201 1.14854 0.42386
 C829 C 0.36177 1.18327 0.37362
 C830 C 0.34336 1.19691 0.35295
 C831 C 0.32119 1.21088 0.32823
 C832 C 0.42368 1.11809 0.43910
 H833 H 0.43641 1.19338 0.39025
 H834 H 0.33368 1.12918 0.41052
 H835 H 0.36937 1.08908 0.44616
 H836 H 0.47252 1.15302 0.42648
 C837 C 1.09636 0.67310 0.09519
 C838 C 1.13440 0.66385 0.10249
 C839 C 1.15172 0.63221 0.08843
 C840 C 1.13084 0.60882 0.06856
 C841 C 1.21013 0.72460 0.19500
 C842 C 1.07536 0.64972 0.07494
 C843 C 1.15489 0.68386 0.12648
 C844 C 1.17265 0.69820 0.14732
 C845 C 1.19338 0.71303 0.17262
 C846 C 1.09214 0.61662 0.06225
 H847 H 1.08247 0.69736 0.10609
 H848 H 1.18096 0.62456 0.09388
 H849 H 1.14457 0.58357 0.05903
 H850 H 1.04553 0.65613 0.07071
 C851 C 0.59657 1.17449 0.59295
 C852 C 0.63491 1.16598 0.59974
 C853 C 0.65276 1.13506 0.58507
 C854 C 0.63206 1.11148 0.56521
 C855 C 0.70949 1.22564 0.69318
 C856 C 0.57576 1.15093 0.57272
 C857 C 0.65511 1.18571 0.62399
 C858 C 0.67260 1.19984 0.64506
 C859 C 0.69300 1.21439 0.67060
 C860 C 0.59306 1.11842 0.55952
 H861 H 0.58229 1.19817 0.60434
 H862 H 0.68225 1.12798 0.59015
 H863 H 0.64616 1.08667 0.55529
 H864 H 0.54568 1.15661 0.56900
 C865 C 0.90205 0.36682 0.11747
 C866 C 0.88002 0.33783 0.10397
 C867 C 0.88415 0.33014 0.07256
 C868 C 0.90892 0.35278 0.05458
 C869 C 0.78465 0.28079 0.18513
 C870 C 0.92631 0.38946 0.09965
 C871 C 0.85184 0.31845 0.12272
 C872 C 0.82902 0.30490 0.14057
 C873 C 0.80393 0.29128 0.16369
 C874 C 0.92919 0.38343 0.06795
 H875 H 0.89935 0.37299 0.14170
 H876 H 0.86731 0.30770 0.06183
 H877 H 0.91041 0.34794 0.03013
 H878 H 0.94167 0.41293 0.11045
 C879 C 0.38562 0.83018 0.57417
 C880 C 0.38100 0.83811 0.60550
 C881 C 0.40230 0.86771 0.61893
 C882 C 0.42631 0.89063 0.60109
 C883 C 0.28608 0.77881 0.68615
 C884 C 0.41018 0.85308 0.55619
 C885 C 0.35314 0.81815 0.62422
 C886 C 0.33050 0.80402 0.64196
 C887 C 0.30547 0.78972 0.66489
 C888 C 0.42980 0.88423 0.56946
 H889 H 0.36933 0.80730 0.56348
 H890 H 0.39922 0.87408 0.64310
 H891 H 0.44116 0.91446 0.61185
 H892 H 0.41209 0.84793 0.53180
 C893 C 0.32834 1.08791 -0.09030
 C894 C 0.33882 1.12580 -0.09773
 C895 C 0.37183 1.14177 -0.08487
 C896 C 0.39528 1.11969 -0.06614
 C897 C 0.27955 1.20538 -0.18820
 C898 C 0.35178 1.06571 -0.07115
 C899 C 0.31872 1.14741 -0.12085
 C900 C 0.30460 1.16609 -0.14117
 C901 C 0.29038 1.18781 -0.16605
 C902 C 0.38616 1.08112 -0.05975
 H903 H 0.30297 1.07506 -0.10025
 H904 H 0.38039 1.17089 -0.09042
 H905 H 0.42146 1.13242 -0.05749
 H906 H 0.34425 1.03603 -0.06676
 C907 C 0.87253 0.64073 0.41319
 C908 C 0.83856 0.62481 0.40198
 C909 C 0.82774 0.58756 0.41089
 C910 C 0.85170 0.56588 0.42995
 C911 C 0.77655 0.70236 0.31188
 C912 C 0.89650 0.61914 0.43182
 C913 C 0.81755 0.64574 0.37907
 C914 C 0.80267 0.66390 0.35884
 C915 C 0.78775 0.68510 0.33402
 C916 C 0.88691 0.58116 0.43977
 H917 H 0.88133 0.66940 0.40650
 H918 H 0.80160 0.57479 0.40222
 H919 H 0.84378 0.53664 0.43559
 H920 H 0.92332 0.63176 0.43923
 C921 C 0.63652 1.08917 0.11957
 C922 C 0.66573 1.11155 0.10672
 C923 C 0.67301 1.10910 0.07512
 C924 C 0.64986 1.08566 0.05640
 C925 C 0.72226 1.20729 0.18843
 C926 C 0.61335 1.06630 0.10102
 C927 C 0.68530 1.13886 0.12626
 C928 C 0.69884 1.16131 0.14448
 C929 C 0.71222 1.18673 0.16756
 C930 C 0.61912 1.06500 0.06923
 H931 H 0.63049 1.09069 0.14387
 H932 H 0.69547 1.12634 0.06482
 H933 H 0.65444 1.08553 0.03189
 H934 H 0.58969 1.05078 0.11139
 C935 C 1.13766 0.58663 0.61999
 C936 C 1.16556 0.61065 0.60715
 C937 C 1.17188 0.60978 0.57538
 C938 C 1.14910 0.58617 0.55654
 C939 C 1.22267 0.70570 0.68917
 C940 C 1.11485 0.56353 0.60132
 C941 C 1.18491 0.63786 0.62691
 C942 C 1.19855 0.66014 0.64520
 C943 C 1.21229 0.68534 0.66829
 C944 C 1.11967 0.56373 0.56941
 H945 H 1.13235 0.58701 0.64442
 H946 H 1.19323 0.62838 0.56509
 H947 H 1.15282 0.58729 0.53196
 H948 H 1.09211 0.54671 0.61170
 C949 C 0.63217 0.88585 -0.11617
 C950 C 0.66516 0.86947 -0.10393
 C951 C 0.67434 0.87624 -0.07309
 C952 C 0.64978 0.89843 -0.05449
 C953 C 0.73195 0.78590 -0.18870
 C954 C 0.60774 0.90751 -0.09777
 C955 C 0.68784 0.84491 -0.12360
 C956 C 0.70383 0.82497 -0.14239
 C957 C 0.71986 0.80296 -0.16657
 C958 C 0.61576 0.91349 -0.06663
 H959 H 0.62479 0.88110 -0.13994
 H960 H 0.69987 0.86376 -0.06333
 H961 H 0.65645 0.90244 -0.03053
 H962 H 0.58195 0.91907 -0.10785
 C963 C 1.13166 0.38608 0.38347
 C964 C 1.16384 0.36821 0.39577
 C965 C 1.17280 0.37395 0.42678
 C966 C 1.14871 0.39649 0.44551
 C967 C 1.22895 0.28314 0.31103
 C968 C 1.10766 0.40807 0.40200
 C969 C 1.18582 0.34309 0.37603
 C970 C 1.20138 0.32277 0.35726
 C971 C 1.21708 0.30041 0.33314
 C972 C 1.11534 0.41289 0.43331
 H973 H 1.12447 0.38216 0.35958
 H974 H 1.19770 0.36033 0.43659
 H975 H 1.15511 0.39959 0.46960
 H976 H 1.08235 0.42066 0.39193
 C977 C 0.32475 0.91329 0.09813
 C978 C 0.33085 0.87421 0.10446
 C979 C 0.35924 0.85431 0.08831
 C980 C 0.38283 0.87354 0.06748
 C981 C 0.27207 0.79809 0.19801
 C982 C 0.34826 0.93264 0.07687
 C983 C 0.31120 0.85488 0.12936
 C984 C 0.29723 0.83745 0.15063
 C985 C 0.28299 0.81623 0.17601
 C986 C 0.37839 0.91311 0.06215
 H987 H 0.30303 0.92918 0.11057
 H988 H 0.36441 0.82420 0.09292
 H989 H 0.40591 0.85782 0.05656
 H990 H 0.34462 0.96322 0.07356
 C991 C 0.82326 0.41463 0.59699
 C992 C 0.82932 0.37568 0.60377
 C993 C 0.85812 0.35559 0.58826
 C994 C 0.88209 0.37454 0.56756
 C995 C 0.76965 0.30001 0.69701
 C996 C 0.84721 0.43371 0.57591
 C997 C 0.80916 0.35669 0.62854
 C998 C 0.79486 0.33946 0.64976
 C999 C 0.78044 0.31832 0.67508
 C1000 C 0.87770 0.41403 0.56183
 H1001 H 0.80120 0.43063 0.60894
 H1002 H 0.86330 0.32559 0.59327
 H1003 H 0.90538 0.35868 0.55706
 H1004 H 0.84356 0.46423 0.57224
 C1005 C 1.15958 1.09158 0.59973
 C1006 C 1.14667 1.09577 0.62980
 C1007 C 1.11132 1.08049 0.63883
 C1008 C 1.08801 1.06235 0.61735
 C1009 C 1.21753 1.18909 0.70381
 C1010 C 1.13636 1.07356 0.57824
 C1011 C 1.16775 1.11941 0.65038
 C1012 C 1.18444 1.14082 0.66716
 C1013 C 1.20272 1.16680 0.68665
 C1014 C 1.09989 1.05978 0.58665
 H1015 H 1.18689 1.10358 0.59263
 H1016 H 1.10113 1.08396 0.66212
 H1017 H 1.06012 1.05191 0.62449
 H1018 H 1.14644 1.07170 0.55482
 C1019 C 0.60481 0.57585 0.14272
 C1020 C 0.64187 0.58788 0.13494
 C1021 C 0.65711 0.57954 0.10614
 C1022 C 0.63452 0.56129 0.08437
 C1023 C 0.71321 0.68638 0.20464
 C1024 C 0.58208 0.55743 0.12093
 C1025 C 0.66248 0.61304 0.15479
 C1026 C 0.67917 0.63578 0.17047
 C1027 C 0.69786 0.66320 0.18852
 C1028 C 0.59632 0.55141 0.09119
 H1029 H 0.59288 0.58241 0.16506
 H1030 H 0.68577 0.58888 0.09998
 H1031 H 0.64644 0.55654 0.06177
 H1032 H 0.55283 0.54996 0.12682
 C1033 C 1.07112 0.90083 0.35426
 C1034 C 1.08186 0.86323 0.36146
 C1035 C 1.06780 0.84572 0.38794
 C1036 C 1.04565 0.86679 0.40851
 C1037 C 1.19050 0.79400 0.29990
 C1038 C 1.04871 0.92196 0.37481
 C1039 C 1.11077 0.84414 0.34387
 C1040 C 1.13606 0.82828 0.33016
 C1041 C 1.16585 0.80984 0.31434
 C1042 C 1.03747 0.90562 0.40277
 H1043 H 1.08195 0.91453 0.33374
 H1044 H 1.07590 0.81658 0.39364
 H1045 H 1.03705 0.85346 0.42982
 H1046 H 1.04292 0.95186 0.37000
 C1047 C 0.57358 0.40182 -0.14719
 C1048 C 0.58064 0.36304 -0.14111
 C1049 C 0.56387 0.34535 -0.11574
 C1050 C 0.54261 0.36711 -0.09504
 C1051 C 0.68923 0.29173 -0.20093
 C1052 C 0.55205 0.42366 -0.12655
 C1053 C 0.60918 0.34280 -0.15820
 C1054 C 0.63443 0.32627 -0.17140
 C1055 C 0.66436 0.30747 -0.18671
 C1056 C 0.53798 0.40677 -0.09960
 H1057 H 0.58660 0.41568 -0.16682
 H1058 H 0.56917 0.31531 -0.11097
 H1059 H 0.53180 0.35341 -0.07453
 H1060 H 0.54906 0.45421 -0.13047
 C1061 C 0.90602 1.10477 0.35409
 C1062 C 0.89693 1.14323 0.35975
 C1063 C 0.90907 1.16142 0.38650
 C1064 C 0.92879 1.14066 0.40841
 C1065 C 0.79944 1.21478 0.29082
 C1066 C 0.92596 1.08391 0.37596
 C1067 C 0.87161 1.16300 0.33991
 C1068 C 0.84910 1.17957 0.32428
 C1069 C 0.82220 1.19869 0.30651
 C1070 C 0.93641 1.10148 0.40369
 H1071 H 0.89622 1.09051 0.33347
 H1072 H 0.90183 1.19116 0.39101
 H1073 H 0.93679 1.15487 0.42953
 H1074 H 0.93125 1.05365 0.37190
 C1075 C 0.41531 0.61082 -0.14642
 C1076 C 0.40180 0.64745 -0.13904
 C1077 C 0.41077 0.66443 -0.11102
 C1078 C 0.43141 0.64385 -0.08951
 C1079 C 0.30010 0.71277 -0.20807
 C1080 C 0.43607 0.59014 -0.12493
 C1081 C 0.37503 0.66580 -0.15853
 C1082 C 0.35134 0.68071 -0.17411
 C1083 C 0.32336 0.69787 -0.19209
 C1084 C 0.44305 0.60601 -0.09588
 H1085 H 0.40817 0.59754 -0.16811
 H1086 H 0.40020 0.69280 -0.10522
 H1087 H 0.43662 0.65689 -0.06739
 H1088 H 0.44457 0.56101 -0.13042
 C1089 C 0.90449 0.92708 0.64887
 C1090 C 0.86601 0.91716 0.64464
 C1091 C 0.84575 0.93137 0.61969
 C1092 C 0.86471 0.95287 0.59755
 C1093 C 0.80132 0.80691 0.70695
 C1094 C 0.92352 0.94890 0.62678
 C1095 C 0.84878 0.88796 0.66297
 C1096 C 0.83417 0.86221 0.67693
 C1097 C 0.81673 0.83192 0.69271
 C1098 C 0.90414 0.96016 0.60021
 H1099 H 0.92036 0.91592 0.66811
 H1100 H 0.81599 0.92366 0.61628
 H1101 H 0.84910 0.96170 0.57742
 H1102 H 0.95392 0.95426 0.62934
 C1103 C 0.39793 0.42207 0.14347
 C1104 C 0.36046 0.40962 0.13804
 C1105 C 0.34116 0.42108 0.11172
 C1106 C 0.36011 0.44307 0.08982
 C1107 C 0.29688 0.30392 0.20581
 C1108 C 0.41692 0.44428 0.12166
 C1109 C 0.34323 0.38169 0.15757
 C1110 C 0.32886 0.35712 0.17295
 C1111 C 0.31186 0.32811 0.19044
 C1112 C 0.39857 0.45376 0.09416
 H1113 H 0.41303 0.41307 0.16380
 H1114 H 0.31212 0.41149 0.10745
 H1115 H 0.34528 0.45013 0.06888
 H1116 H 0.44666 0.45184 0.12546
   
