data_POSCAR
  _audit_creation_date              2014-09-24
  _audit_creation_method            'ToBaCCo'
  _symmetry_space_group_name_H-M    'P1'
  _symmetry_Int_Tables_number       1
  _symmetry_cell_setting            triclinic
  loop_
  _symmetry_equiv_pos_as_xyz
 x,y,z
_cell_length_a 56.8791
_cell_length_b 57.2262
_cell_length_c 57.2403
_cell_angle_alpha 89.972200
_cell_angle_beta 90.007100
_cell_angle_gamma 89.929600
loop_
  _atom_site_label
  _atom_site_type_symbol
  _atom_site_fract_x
  _atom_site_fract_y
  _atom_site_fract_z
N1 N 0.27407 0.22529 0.20827
 N2 N 0.26309 0.24341 0.19921
 C3 C 0.27470 0.25046 0.17993
 C4 C 0.29379 0.23592 0.17688
 C5 C 0.29299 0.22018 0.19508
 H6 H 0.26995 0.26526 0.16917
 H7 H 0.30547 0.20637 0.19869
 Cu8 Cu 0.23527 0.25649 0.21405
 Cu9 Cu 0.26354 0.21022 0.23691
 Cu10 Cu 0.21394 0.23326 0.26367
 N11 N 0.20748 0.26926 0.22921
 N12 N 0.19922 0.26011 0.24864
 C13 C 0.18038 0.27254 0.25570
 C14 C 0.17677 0.29029 0.23981
 C15 C 0.19418 0.28783 0.22326
 H16 H 0.17032 0.26915 0.27137
 H17 H 0.19709 0.29896 0.20828
 N18 N 0.23131 0.20615 0.27616
 N19 N 0.25020 0.19738 0.26597
 C20 C 0.25821 0.17928 0.27879
 C21 C 0.24364 0.17665 0.29781
 C22 C 0.22680 0.19384 0.29574
 H23 H 0.27356 0.16889 0.27476
 H24 H 0.21249 0.19720 0.30771
 H25 H 0.22849 0.21930 0.23370
 H26 H 0.24746 0.23937 0.25115
 N27 N 0.72415 -0.23489 0.20942
 N28 N 0.73560 -0.25261 0.20016
 C29 C 0.72367 -0.26035 0.18134
 C30 C 0.70388 -0.24666 0.17885
 C31 C 0.70460 -0.23070 0.19683
 H32 H 0.72886 -0.27487 0.17039
 H33 H 0.69183 -0.21718 0.20055
 Cu34 Cu 0.76477 -0.26406 0.21380
 Cu35 Cu 0.73521 -0.21879 0.23723
 Cu36 Cu 0.78638 -0.23952 0.26279
 N37 N 0.79311 -0.27584 0.22880
 N38 N 0.80147 -0.26621 0.24795
 C39 C 0.82081 -0.27797 0.25482
 C40 C 0.82462 -0.29580 0.23909
 C41 C 0.80683 -0.29411 0.22284
 H42 H 0.83111 -0.27405 0.27021
 H43 H 0.80395 -0.30549 0.20804
 N44 N 0.76860 -0.21267 0.27520
 N45 N 0.74910 -0.20477 0.26543
 C46 C 0.74104 -0.18650 0.27794
 C47 C 0.75620 -0.18285 0.29632
 C48 C 0.77345 -0.19963 0.29419
 H49 H 0.72530 -0.17661 0.27408
 H50 H 0.78833 -0.20214 0.30569
 H51 H 0.77052 -0.22645 0.23306
 H52 H 0.75288 -0.24724 0.25111
 N53 N 0.72708 0.22586 0.79162
 N54 N 0.73788 0.24406 0.80064
 C55 C 0.72629 0.25098 0.81998
 C56 C 0.70738 0.23627 0.82309
 C57 C 0.70828 0.22056 0.80489
 H58 H 0.73096 0.26576 0.83078
 H59 H 0.69598 0.20660 0.80137
 Cu60 Cu 0.76557 0.25723 0.78568
 Cu61 Cu 0.73769 0.21085 0.76295
 Cu62 Cu 0.78721 0.23412 0.73624
 N63 N 0.79342 0.27009 0.77076
 N64 N 0.80180 0.26096 0.75136
 C65 C 0.82068 0.27334 0.74442
 C66 C 0.82419 0.29103 0.76037
 C67 C 0.80669 0.28862 0.77683
 H68 H 0.83084 0.26995 0.72881
 H69 H 0.80368 0.29972 0.79183
 N70 N 0.76996 0.20700 0.72369
 N71 N 0.75112 0.19814 0.73388
 C72 C 0.74323 0.18004 0.72103
 C73 C 0.75780 0.17753 0.70200
 C74 C 0.77453 0.19477 0.70409
 H75 H 0.72795 0.16957 0.72506
 H76 H 0.78883 0.19820 0.69212
 H77 H 0.77266 0.22006 0.76614
 H78 H 0.75358 0.23999 0.74860
 N79 N 0.27541 -0.23781 0.79007
 N80 N 0.26396 -0.25585 0.79862
 C81 C 0.27574 -0.26419 0.81730
 C82 C 0.29547 -0.25059 0.82044
 C83 C 0.29483 -0.23405 0.80296
 H84 H 0.27049 -0.27903 0.82776
 H85 H 0.30758 -0.22039 0.79983
 Cu86 Cu 0.23496 -0.26671 0.78427
 Cu87 Cu 0.26443 -0.22065 0.76276
 Cu88 Cu 0.21238 -0.23941 0.73735
 N89 N 0.20568 -0.27697 0.77005
 N90 N 0.19691 -0.26620 0.75168
 C91 C 0.17698 -0.27703 0.74504
 C92 C 0.17321 -0.29543 0.76012
 C93 C 0.19164 -0.29504 0.77573
 H94 H 0.16629 -0.27214 0.73018
 H95 H 0.19472 -0.30720 0.78988
 N96 N 0.23063 -0.21266 0.72543
 N97 N 0.25049 -0.20556 0.73507
 C98 C 0.25889 -0.18727 0.72281
 C99 C 0.24358 -0.18278 0.70473
 C100 C 0.22589 -0.19906 0.70677
 H101 H 0.27500 -0.17801 0.72658
 H102 H 0.21084 -0.20094 0.69538
 H103 H 0.22918 -0.22807 0.76726
 H104 H 0.24614 -0.24795 0.74765
 N105 N 0.72814 -0.22370 0.79353
 N106 N 0.73725 -0.24360 0.80071
 C107 C 0.72515 -0.25117 0.81948
 C108 C 0.70768 -0.23513 0.82417
 C109 C 0.70996 -0.21795 0.80746
 H110 H 0.72850 -0.26725 0.82885
 H111 H 0.69899 -0.20263 0.80539
 Cu112 Cu 0.76363 -0.25789 0.78444
 Cu113 Cu 0.74002 -0.20712 0.76626
 Cu114 Cu 0.78757 -0.23185 0.73750
 N115 N 0.79059 -0.27133 0.76838
 N116 N 0.79990 -0.26100 0.75004
 C117 C 0.81803 -0.27393 0.74214
 C118 C 0.82007 -0.29326 0.75633
 C119 C 0.80251 -0.29123 0.77279
 H120 H 0.82877 -0.26968 0.72713
 H121 H 0.79865 -0.30337 0.78676
 N122 N 0.77267 -0.20245 0.72743
 N123 N 0.75453 -0.19301 0.73835
 C124 C 0.74797 -0.17347 0.72689
 C125 C 0.76273 -0.17063 0.70802
 C126 C 0.77812 -0.18918 0.70876
 H127 H 0.73332 -0.16238 0.73159
 H128 H 0.79195 -0.19292 0.69634
 H129 H 0.75345 -0.23604 0.74926
 H130 H 0.77399 -0.21967 0.76872
 N131 N 0.27431 0.23452 0.79092
 N132 N 0.26462 0.25431 0.79758
 C133 C 0.27680 0.26297 0.81582
 C134 C 0.29494 0.24775 0.82069
 C135 C 0.29296 0.22991 0.80466
 H136 H 0.27292 0.27914 0.82480
 H137 H 0.30433 0.21484 0.80302
 Cu138 Cu 0.23721 0.26695 0.78160
 Cu139 Cu 0.26232 0.21640 0.76473
 Cu140 Cu 0.21279 0.23786 0.73667
 N141 N 0.20907 0.27842 0.76599
 N142 N 0.19958 0.26691 0.74848
 C143 C 0.18054 0.27864 0.74080
 C144 C 0.17809 0.29843 0.75426
 C145 C 0.19636 0.29788 0.77006
 H146 H 0.16943 0.27328 0.72645
 H147 H 0.20011 0.31074 0.78338
 N148 N 0.22868 0.20877 0.72724
 N149 N 0.24759 0.20059 0.73789
 C150 C 0.25464 0.18091 0.72699
 C151 C 0.23940 0.17665 0.70879
 C152 C 0.22321 0.19453 0.70932
 H153 H 0.26992 0.17065 0.73164
 H154 H 0.20880 0.19715 0.69727
 H155 H 0.24709 0.24401 0.74702
 H156 H 0.22796 0.22770 0.76793
 N157 N 0.27236 -0.22412 0.20676
 N158 N 0.26275 -0.24358 0.19915
 C159 C 0.27476 -0.25115 0.18031
 C160 C 0.29268 -0.23554 0.17603
 C161 C 0.29078 -0.21863 0.19305
 H162 H 0.27102 -0.26693 0.17062
 H163 H 0.30214 -0.20368 0.19546
 Cu164 Cu 0.23588 -0.25738 0.21501
 Cu165 Cu 0.26078 -0.20772 0.23428
 Cu166 Cu 0.21286 -0.23202 0.26277
 N167 N 0.20900 -0.27084 0.23118
 N168 N 0.20006 -0.26077 0.24984
 C169 C 0.18192 -0.27365 0.25773
 C170 C 0.17947 -0.29268 0.24322
 C171 C 0.19683 -0.29049 0.22657
 H172 H 0.17142 -0.26958 0.27295
 H173 H 0.20036 -0.30241 0.21234
 N174 N 0.22824 -0.20302 0.27321
 N175 N 0.24651 -0.19375 0.26240
 C176 C 0.25333 -0.17445 0.27407
 C177 C 0.23861 -0.17158 0.29295
 C178 C 0.22296 -0.18987 0.29201
 H179 H 0.26810 -0.16351 0.26944
 H180 H 0.20904 -0.19349 0.30435
 H181 H 0.24681 -0.23674 0.25066
 H182 H 0.22652 -0.21934 0.23180
 N183 N 0.72550 0.23448 0.20877
 N184 N 0.73533 0.25420 0.20214
 C185 C 0.72327 0.26297 0.18385
 C186 C 0.70506 0.24790 0.17891
 C187 C 0.70688 0.23004 0.19495
 H188 H 0.72729 0.27911 0.17487
 H189 H 0.69542 0.21505 0.19654
 Cu190 Cu 0.76275 0.26659 0.21822
 Cu191 Cu 0.73729 0.21623 0.23500
 Cu192 Cu 0.78678 0.23734 0.26329
 N193 N 0.79085 0.27788 0.23397
 N194 N 0.80019 0.26631 0.25155
 C195 C 0.81923 0.27790 0.25932
 C196 C 0.82187 0.29767 0.24585
 C197 C 0.80369 0.29724 0.22995
 H198 H 0.83024 0.27246 0.27375
 H199 H 0.80008 0.31013 0.21659
 N200 N 0.77073 0.20835 0.27264
 N201 N 0.75184 0.20029 0.26191
 C202 C 0.74468 0.18063 0.27276
 C203 C 0.75984 0.17626 0.29102
 C204 C 0.77609 0.19405 0.29057
 H205 H 0.72940 0.17046 0.26804
 H206 H 0.79046 0.19655 0.30267
 H207 H 0.75255 0.24372 0.25275
 H208 H 0.77171 0.22726 0.23197
 C209 C 0.25264 0.01135 0.50403
 C210 C 0.25240 -0.01244 0.50296
 C211 C 0.25284 -0.02720 0.52433
 C212 C 0.25134 -0.02516 0.48035
 C213 C 0.25313 0.02609 0.48264
 C214 C 0.25192 0.02412 0.52663
 C215 C 0.27077 -0.02495 0.54109
 C216 C 0.27113 -0.03950 0.56076
 C217 C 0.25370 -0.05653 0.56372
 C218 C 0.23592 -0.05892 0.54700
 C219 C 0.23552 -0.04440 0.52741
 C220 C 0.26819 -0.04243 0.47543
 C221 C 0.26693 -0.05532 0.45476
 C222 C 0.24876 -0.05118 0.43880
 C223 C 0.23187 -0.03399 0.44356
 C224 C 0.23308 -0.02110 0.46429
 C225 C 0.23603 0.04356 0.47965
 C226 C 0.23638 0.05791 0.45992
 C227 C 0.25388 0.05506 0.44299
 C228 C 0.27113 0.03780 0.44589
 C229 C 0.27084 0.02344 0.46569
 C230 C 0.23361 0.02051 0.54273
 C231 C 0.23254 0.03369 0.56329
 C232 C 0.24963 0.05071 0.56783
 C233 C 0.26791 0.05431 0.55188
 C234 C 0.26902 0.04114 0.53138
 H235 H 0.28456 -0.01212 0.53883
 H236 H 0.28505 -0.03760 0.57353
 H237 H 0.22242 -0.07210 0.54906
 H238 H 0.22164 -0.04653 0.51463
 H239 H 0.28227 -0.04597 0.48768
 H240 H 0.28000 -0.06867 0.45134
 H241 H 0.21963 -0.00821 0.46797
 H242 H 0.22233 0.04600 0.49256
 H243 H 0.22302 0.07127 0.45790
 H244 H 0.28482 0.03552 0.43294
 H245 H 0.28445 0.01037 0.46788
 H246 H 0.21997 0.00782 0.53917
 H247 H 0.21821 0.03090 0.57543
 H248 H 0.28113 0.06753 0.55513
 H249 H 0.28314 0.04433 0.51909
 H250 H 0.21763 -0.03077 0.43140
 C251 C 0.74758 0.01168 0.49643
 C252 C 0.74793 -0.01209 0.49770
 C253 C 0.74922 -0.02462 0.52040
 C254 C 0.74749 -0.02700 0.47646
 C255 C 0.74810 0.02429 0.47374
 C256 C 0.74725 0.02655 0.51771
 C257 C 0.76775 -0.02058 0.53614
 C258 C 0.76920 -0.03332 0.55696
 C259 C 0.75228 -0.05033 0.56211
 C260 C 0.73383 -0.05443 0.54647
 C261 C 0.73234 -0.04170 0.52571
 C262 C 0.76503 -0.04401 0.47335
 C263 C 0.76467 -0.05863 0.45385
 C264 C 0.74671 -0.05655 0.43728
 C265 C 0.72906 -0.03972 0.44028
 C266 C 0.72938 -0.02505 0.45985
 C267 C 0.73095 0.04131 0.46901
 C268 C 0.73193 0.05440 0.44844
 C269 C 0.75012 0.05071 0.43240
 C270 C 0.76725 0.03369 0.43692
 C271 C 0.76632 0.02059 0.45755
 C272 C 0.72965 0.02409 0.53479
 C273 C 0.72955 0.03856 0.55450
 C274 C 0.74688 0.05572 0.55718
 C275 C 0.76427 0.05839 0.54011
 C276 C 0.76443 0.04394 0.52047
 H277 H 0.78121 -0.00783 0.53215
 H278 H 0.78365 -0.03015 0.56887
 H279 H 0.72073 -0.06764 0.55021
 H280 H 0.71805 -0.04521 0.51370
 H281 H 0.77905 -0.04589 0.48602
 H282 H 0.77837 -0.07164 0.45175
 H283 H 0.71544 -0.01235 0.46215
 H284 H 0.71691 0.04458 0.48136
 H285 H 0.71868 0.06763 0.44520
 H286 H 0.78152 0.03084 0.42472
 H287 H 0.78002 0.00792 0.46110
 H288 H 0.71598 0.01109 0.53277
 H289 H 0.71593 0.03643 0.56756
 H290 H 0.77771 0.07166 0.54196
 H291 H 0.77805 0.04623 0.50745
 H292 H 0.71500 -0.03805 0.42762
 C293 C 0.50002 0.25396 0.01144
 C294 C 0.50049 0.25380 -0.01235
 C295 C 0.52291 0.25246 -0.02562
 C296 C 0.47861 0.25453 -0.02654
 C297 C 0.47761 0.25291 0.02475
 C298 C 0.52192 0.25475 0.02561
 C299 C 0.52763 0.26906 -0.04308
 C300 C 0.54802 0.26739 -0.05655
 C301 C 0.56388 0.24905 -0.05283
 C302 C 0.55934 0.23243 -0.03544
 C303 C 0.53890 0.23406 -0.02194
 C304 C 0.46197 0.27250 -0.02368
 C305 C 0.44183 0.27319 -0.03771
 C306 C 0.43825 0.25606 -0.05482
 C307 C 0.45482 0.23822 -0.05779
 C308 C 0.47490 0.23749 -0.04379
 C309 C 0.46152 0.23459 0.02129
 C310 C 0.44117 0.23315 0.03495
 C311 C 0.43683 0.24988 0.05228
 C312 C 0.45276 0.26818 0.05573
 C313 C 0.47305 0.26965 0.04209
 C314 C 0.52557 0.23793 0.04312
 C315 C 0.54565 0.23875 0.05711
 C316 C 0.56229 0.25643 0.05386
 C317 C 0.55878 0.27334 0.03650
 C318 C 0.53863 0.27257 0.02248
 H319 H 0.51543 0.28324 -0.04631
 H320 H 0.55129 0.28026 -0.07005
 H321 H 0.57141 0.21806 -0.03254
 H322 H 0.53535 0.22081 -0.00891
 H323 H 0.46472 0.28606 -0.01079
 H324 H 0.42917 0.28716 -0.03537
 H325 H 0.48757 0.22358 -0.04637
 H326 H 0.46494 0.22122 0.00835
 H327 H 0.42905 0.21882 0.03227
 H328 H 0.44965 0.28113 0.06919
 H329 H 0.48533 0.28377 0.04517
 H330 H 0.51284 0.22414 0.04592
 H331 H 0.54813 0.22564 0.07056
 H332 H 0.57149 0.28719 0.03393
 H333 H 0.53593 0.28597 0.00938
 H334 H 0.45227 0.22493 -0.07103
 C335 C 0.50047 0.74541 -0.01194
 C336 C 0.49975 0.74575 0.01185
 C337 C 0.47720 0.74694 0.02491
 C338 C 0.52151 0.74558 0.02624
 C339 C 0.52301 0.74687 -0.02500
 C340 C 0.47874 0.74420 -0.02632
 C341 C 0.46100 0.76508 0.02088
 C342 C 0.44051 0.76671 0.03430
 C343 C 0.43612 0.75034 0.05197
 C344 C 0.45216 0.73222 0.05601
 C345 C 0.47261 0.73057 0.04260
 C346 C 0.52477 0.76291 0.04329
 C347 C 0.54470 0.76268 0.05750
 C348 C 0.56159 0.74507 0.05495
 C349 C 0.55848 0.72766 0.03802
 C350 C 0.53848 0.72785 0.02377
 C351 C 0.52824 0.73004 -0.04207
 C352 C 0.54869 0.73187 -0.05545
 C353 C 0.56409 0.75062 -0.05201
 C354 C 0.55904 0.76745 -0.03497
 C355 C 0.53855 0.76565 -0.02158
 C356 C 0.46217 0.72625 -0.02311
 C357 C 0.44211 0.72517 -0.03723
 C358 C 0.43854 0.74188 -0.05478
 C359 C 0.45505 0.75968 -0.05811
 C360 C 0.47504 0.76080 -0.04402
 H361 H 0.46445 0.77819 0.00766
 H362 H 0.42830 0.78091 0.03116
 H363 H 0.44902 0.71956 0.06973
 H364 H 0.48498 0.71659 0.04612
 H365 H 0.51186 0.77665 0.04555
 H366 H 0.54689 0.77618 0.07059
 H367 H 0.53609 0.71408 0.01103
 H368 H 0.51638 0.71556 -0.04512
 H369 H 0.55235 0.71882 -0.06868
 H370 H 0.57073 0.78214 -0.03230
 H371 H 0.53458 0.77910 -0.00887
 H372 H 0.46490 0.71302 -0.00986
 H373 H 0.42950 0.71124 -0.03459
 H374 H 0.45251 0.77263 -0.07169
 H375 H 0.48764 0.77469 -0.04687
 H376 H 0.57138 0.71387 0.03599
 C377 C 0.01515 0.49988 0.25217
 C378 C -0.00879 0.50062 0.25243
 C379 C -0.02326 0.47903 0.25322
 C380 C -0.02199 0.52304 0.25143
 C381 C 0.02960 0.52149 0.25250
 C382 C 0.02831 0.47744 0.25114
 C383 C -0.04079 0.47558 0.23630
 C384 C -0.05503 0.45576 0.23703
 C385 C -0.05202 0.43918 0.25476
 C386 C -0.03466 0.44251 0.27179
 C387 C -0.02039 0.46241 0.27110
 C388 C -0.01870 0.53888 0.23294
 C389 C -0.03232 0.55922 0.23157
 C390 C -0.04944 0.56380 0.24856
 C391 C -0.05270 0.54813 0.26705
 C392 C -0.03911 0.52784 0.26844
 C393 C 0.02700 0.53827 0.27026
 C394 C 0.04114 0.55826 0.27044
 C395 C 0.05811 0.56155 0.25301
 C396 C 0.06088 0.54480 0.23542
 C397 C 0.04677 0.52487 0.23519
 C398 C 0.04583 0.47280 0.26781
 C399 C 0.05912 0.45230 0.26654
 C400 C 0.05516 0.43625 0.24853
 C401 C 0.03772 0.44074 0.23182
 C402 C 0.02442 0.46129 0.23305
 H403 H -0.04340 0.48825 0.22247
 H404 H -0.06847 0.45340 0.22383
 H405 H -0.03228 0.42985 0.28567
 H406 H -0.00728 0.46496 0.28458
 H407 H -0.00594 0.53526 0.21937
 H408 H -0.02979 0.57114 0.21708
 H409 H -0.04205 0.51575 0.28271
 H410 H 0.01419 0.53577 0.28402
 H411 H 0.03894 0.57106 0.28421
 H412 H 0.07401 0.54713 0.22191
 H413 H 0.04915 0.51209 0.22144
 H414 H 0.04926 0.48513 0.28175
 H415 H 0.07265 0.44908 0.27948
 H416 H 0.03464 0.42853 0.21770
 H417 H 0.01136 0.46477 0.21973
 H418 H -0.06599 0.55143 0.28021
 C419 C 0.00758 0.50094 0.74778
 C420 C -0.01635 0.50001 0.74799
 C421 C -0.02926 0.47747 0.74910
 C422 C -0.03103 0.52150 0.74746
 C423 C 0.02054 0.52346 0.74865
 C424 C 0.02226 0.47946 0.74704
 C425 C -0.04661 0.47257 0.73236
 C426 C -0.05966 0.45196 0.73368
 C427 C -0.05562 0.43606 0.75183
 C428 C -0.03835 0.44080 0.76862
 C429 C -0.02528 0.46146 0.76732
 C430 C -0.02852 0.53819 0.72960
 C431 C -0.04283 0.55810 0.72924
 C432 C -0.05990 0.56136 0.74658
 C433 C -0.06260 0.54469 0.76426
 C434 C -0.04831 0.52485 0.76467
 C435 C 0.01701 0.53941 0.76700
 C436 C 0.03034 0.55992 0.76819
 C437 C 0.04740 0.56456 0.75116
 C438 C 0.05092 0.54876 0.73285
 C439 C 0.03763 0.52830 0.73163
 C440 C 0.03978 0.47613 0.76401
 C441 C 0.05424 0.45643 0.76328
 C442 C 0.05147 0.43987 0.74552
 C443 C 0.03411 0.44308 0.72845
 C444 C 0.01961 0.46285 0.72914
 H445 H -0.05008 0.48477 0.71830
 H446 H -0.07307 0.44853 0.72068
 H447 H -0.03521 0.42869 0.78284
 H448 H -0.01233 0.46513 0.78069
 H449 H -0.01562 0.53572 0.71591
 H450 H -0.04069 0.57084 0.71540
 H451 H -0.05063 0.51212 0.77849
 H452 H 0.00426 0.53578 0.78057
 H453 H 0.02760 0.57195 0.78254
 H454 H 0.06417 0.55210 0.71967
 H455 H 0.04074 0.51614 0.71747
 H456 H 0.04221 0.48879 0.77786
 H457 H 0.06768 0.45416 0.77651
 H458 H 0.03191 0.43044 0.71455
 H459 H 0.00651 0.46533 0.71563
 H460 H -0.07581 0.54700 0.77770
 C461 C 0.34549 0.24152 0.12792
 N462 N 0.34503 0.22884 0.10790
 N463 N 0.36250 0.23053 0.09247
 C464 C 0.38094 0.24496 0.09660
 N465 N 0.38137 0.25765 0.11659
 N466 N 0.36392 0.25596 0.13201
 C467 C 0.32699 0.23942 0.14482
 C468 C 0.31171 0.23776 0.15931
 C469 C 0.40009 0.24645 0.08037
 C470 C 0.41661 0.24790 0.06725
 C471 C 0.65303 0.74877 0.13082
 N472 N 0.64928 0.72891 0.11844
 N473 N 0.63178 0.72778 0.10298
 C474 C 0.61754 0.74648 0.09944
 N475 N 0.62132 0.76631 0.11182
 N476 N 0.63880 0.76744 0.12726
 C477 C 0.67155 0.74999 0.14780
 C478 C 0.68686 0.75140 0.16229
 C479 C 0.59831 0.74527 0.08327
 C480 C 0.58178 0.74484 0.07009
 C481 C 0.65616 0.24061 -0.12731
 N482 N 0.64554 0.22101 -0.11922
 N483 N 0.62801 0.22251 -0.10384
 C484 C 0.62060 0.24366 -0.09607
 N485 N 0.63125 0.26326 -0.10413
 N486 N 0.64877 0.26176 -0.11951
 C487 C 0.67447 0.23905 -0.14447
 C488 C 0.68961 0.23777 -0.15915
 C489 C 0.60106 0.24535 -0.08030
 C490 C 0.58431 0.24693 -0.06751
 C491 C 0.34683 0.74267 -0.13034
 N492 N 0.34468 0.75308 -0.10917
 N493 N 0.36215 0.75197 -0.09369
 C494 C 0.38229 0.74038 -0.09891
 N495 N 0.38441 0.72993 -0.12007
 N496 N 0.36694 0.73104 -0.13554
 C497 C 0.32846 0.74472 -0.14741
 C498 C 0.31329 0.74673 -0.16198
 C499 C 0.40164 0.74029 -0.08283
 C500 C 0.41826 0.74072 -0.06977
 C501 C 0.12821 0.34269 0.24241
 N502 N 0.11502 0.34635 0.26181
 N503 N 0.09998 0.36421 0.26274
 C504 C 0.09766 0.37893 0.24430
 N505 N 0.11083 0.37525 0.22490
 N506 N 0.12587 0.35740 0.22397
 C507 C 0.14496 0.32393 0.24162
 C508 C 0.15932 0.30843 0.24087
 C509 C 0.08217 0.39870 0.24564
 C510 C 0.06959 0.41564 0.24687
 C511 C 0.12279 0.65600 0.75727
 N512 N 0.11620 0.64461 0.77699
 N513 N 0.10048 0.62739 0.77602
 C514 C 0.09085 0.62104 0.75530
 N515 N 0.09741 0.63246 0.73558
 N516 N 0.11313 0.64969 0.73655
 C517 C 0.14050 0.67381 0.75820
 C518 C 0.15572 0.68843 0.75905
 C519 C 0.07491 0.60167 0.75406
 C520 C 0.06205 0.58498 0.75286
 C521 C -0.12594 0.65448 0.24137
 N522 N -0.10835 0.65507 0.25737
 N523 N -0.09259 0.63783 0.25839
 C524 C -0.09394 0.61952 0.24342
 N525 N -0.11150 0.61896 0.22742
 N526 N -0.12725 0.63618 0.22640
 C527 C -0.14335 0.67264 0.24065
 C528 C -0.15828 0.68761 0.23997
 C529 C -0.07763 0.60043 0.24509
 C530 C -0.06445 0.58398 0.24659
 C531 C -0.12804 0.34221 0.75789
 N532 N -0.11710 0.34771 0.73757
 N533 N -0.10209 0.36555 0.73664
 C534 C -0.09754 0.37842 0.75600
 N535 N -0.10846 0.37291 0.77633
 N536 N -0.12347 0.35506 0.77726
 C537 C -0.14486 0.32356 0.75872
 C538 C -0.15928 0.30815 0.75946
 C539 C -0.08222 0.39829 0.75475
 C540 C -0.06982 0.41532 0.75353
 C541 C 0.24962 0.12922 0.35066
 N542 N 0.23409 0.11135 0.35251
 N543 N 0.23558 0.09628 0.37021
 C544 C 0.25267 0.09861 0.38658
 N545 N 0.26821 0.11647 0.38471
 N546 N 0.26672 0.13153 0.36701
 C547 C 0.24764 0.14578 0.33193
 C548 C 0.24585 0.15982 0.31631
 C549 C 0.25367 0.08293 0.40613
 C550 C 0.25405 0.07005 0.42279
 C551 C 0.75229 0.13013 0.64915
 N552 N 0.73098 0.12373 0.64067
 N553 N 0.72944 0.10864 0.62301
 C554 C 0.74916 0.09948 0.61332
 N555 N 0.77046 0.10588 0.62181
 N556 N 0.77200 0.12097 0.63947
 C557 C 0.75405 0.14669 0.66788
 C558 C 0.75571 0.16071 0.68350
 C559 C 0.74766 0.08374 0.59388
 C560 C 0.74697 0.07078 0.57730
 C561 C 0.24981 -0.13319 0.65395
 N562 N 0.26733 -0.13458 0.63794
 N563 N 0.26882 -0.11891 0.62076
 C564 C 0.25286 -0.10135 0.61912
 N565 N 0.23537 -0.09995 0.63515
 N566 N 0.23387 -0.11561 0.65232
 C567 C 0.24776 -0.15048 0.67200
 C568 C 0.24589 -0.16515 0.68700
 C569 C 0.25377 -0.08515 0.60000
 C570 C 0.25404 -0.07188 0.58364
 C571 C 0.75079 -0.13350 0.34738
 N572 N 0.76870 -0.11837 0.35125
 N573 N 0.76727 -0.10266 0.36837
 C574 C 0.74787 -0.10158 0.38211
 N575 N 0.72995 -0.11670 0.37822
 N576 N 0.73138 -0.13241 0.36110
 C577 C 0.75260 -0.15077 0.32930
 C578 C 0.75423 -0.16538 0.31422
 C579 C 0.74682 -0.08532 0.40115
 C580 C 0.74645 -0.07199 0.41745
 C581 C 0.65646 0.76034 -0.12623
 N582 N 0.65166 0.73962 -0.11577
 N583 N 0.63411 0.73791 -0.10044
 C584 C 0.62085 0.75688 -0.09509
 N585 N 0.62567 0.77761 -0.10552
 N586 N 0.64322 0.77932 -0.12085
 C587 C 0.67478 0.76200 -0.14339
 C588 C 0.68992 0.76333 -0.15806
 C589 C 0.60129 0.75481 -0.07939
 C590 C 0.58452 0.75296 -0.06664
 C591 C 0.34607 0.25401 -0.12982
 N592 N 0.34729 0.23858 -0.11186
 N593 N 0.36479 0.23978 -0.09643
 C594 C 0.38159 0.25646 -0.09846
 N595 N 0.38034 0.27192 -0.11639
 N596 N 0.36284 0.27072 -0.13183
 C597 C 0.32780 0.25209 -0.14700
 C598 C 0.31269 0.25022 -0.16164
 C599 C 0.40112 0.25692 -0.08261
 C600 C 0.41786 0.25681 -0.06969
 C601 C 0.34391 0.75973 0.12644
 N602 N 0.34927 0.73885 0.11658
 N603 N 0.36678 0.73716 0.10120
 C604 C 0.37944 0.75631 0.09519
 N605 N 0.37405 0.77720 0.10503
 N606 N 0.35654 0.77889 0.12041
 C607 C 0.32560 0.76141 0.14360
 C608 C 0.31046 0.76281 0.15828
 C609 C 0.39895 0.75432 0.07943
 C610 C 0.41569 0.75256 0.06664
 C611 C 0.65425 0.25445 0.12911
 N612 N 0.65313 0.23902 0.11117
 N613 N 0.63570 0.24024 0.09565
 C614 C 0.61889 0.25696 0.09758
 N615 N 0.62004 0.27242 0.11549
 N616 N 0.63747 0.27120 0.13101
 C617 C 0.67241 0.25246 0.14640
 C618 C 0.68742 0.25050 0.16114
 C619 C 0.59939 0.25741 0.08168
 C620 C 0.58267 0.25726 0.06874
 C621 C -0.13394 0.65419 0.75028
 N622 N -0.11253 0.65541 0.76064
 N623 N -0.09755 0.63754 0.75917
 C624 C -0.10352 0.61794 0.74727
 N625 N -0.12492 0.61674 0.73688
 N626 N -0.13990 0.63460 0.73835
 C627 C -0.15031 0.67317 0.75235
 C628 C -0.16418 0.68899 0.75420
 C629 C -0.08781 0.59834 0.74649
 C630 C -0.07490 0.58162 0.74627
 C631 C -0.12829 0.34838 0.25213
 N632 N -0.10964 0.34896 0.23738
 N633 N -0.09395 0.36619 0.23874
 C634 C -0.09642 0.38332 0.25492
 N635 N -0.11504 0.38271 0.26970
 N636 N -0.13072 0.36548 0.26835
 C637 C -0.14564 0.33033 0.25009
 C638 C -0.16040 0.31535 0.24820
 C639 C -0.08028 0.40255 0.25551
 C640 C -0.06713 0.41905 0.25548
 C641 C 0.12839 0.34942 0.74811
 N642 N 0.10885 0.34907 0.76168
 N643 N 0.09311 0.36629 0.76032
 C644 C 0.09642 0.38435 0.74533
 N645 N 0.11594 0.38467 0.73173
 N646 N 0.13168 0.36745 0.73309
 C647 C 0.14572 0.33130 0.75013
 C648 C 0.16043 0.31624 0.75198
 C649 C 0.08012 0.40348 0.74476
 C650 C 0.06681 0.41988 0.74480
 C651 C 0.13195 0.65435 0.24880
 N652 N 0.13223 0.63990 0.26759
 N653 N 0.11716 0.62213 0.26901
 C654 C 0.10134 0.61832 0.25170
 N655 N 0.10105 0.63279 0.23293
 N656 N 0.11611 0.65055 0.23151
 C657 C 0.14855 0.67312 0.24697
 C658 C 0.16261 0.68877 0.24529
 C659 C 0.08575 0.59866 0.25273
 C660 C 0.07295 0.58189 0.25314
 C661 C 0.75932 -0.12167 0.65642
 N662 N 0.77900 -0.11591 0.64435
 N663 N 0.77784 -0.10104 0.62645
 C664 C 0.75697 -0.09147 0.62010
 N665 N 0.73730 -0.09720 0.63220
 N666 N 0.73845 -0.11207 0.65009
 C667 C 0.76043 -0.13846 0.67500
 C668 C 0.76143 -0.15295 0.69026
 C669 C 0.75553 -0.07639 0.60013
 C670 C 0.75416 -0.06422 0.58299
 C671 C 0.24229 -0.12283 0.34473
 N672 N 0.26334 -0.11445 0.35203
 N673 N 0.26447 -0.09957 0.36990
 C674 C 0.24459 -0.09262 0.38101
 N675 N 0.22354 -0.10099 0.37369
 N676 N 0.22241 -0.11586 0.35581
 C677 C 0.24112 -0.13959 0.32612
 C678 C 0.24005 -0.15401 0.31081
 C679 C 0.24590 -0.07747 0.40093
 C680 C 0.24711 -0.06521 0.41801
 C681 C 0.75605 0.12520 0.34052
 N682 N 0.73496 0.11755 0.34848
 N683 N 0.73391 0.10200 0.36579
 C684 C 0.75390 0.09363 0.37566
 N685 N 0.77499 0.10125 0.36767
 N686 N 0.77605 0.11680 0.35036
 C687 C 0.75720 0.14275 0.32265
 C688 C 0.75831 0.15786 0.30802
 C689 C 0.75273 0.07786 0.39512
 C690 C 0.75163 0.06516 0.41188
 C691 C 0.24312 0.12556 0.65934
 N692 N 0.22322 0.11790 0.64879
 N693 N 0.22436 0.10230 0.63155
 C694 C 0.24544 0.09386 0.62435
 N695 N 0.26534 0.10149 0.63492
 N696 N 0.26420 0.11710 0.65216
 C697 C 0.24194 0.14315 0.67716
 C698 C 0.24085 0.15826 0.69178
 C699 C 0.24676 0.07802 0.60497
 C700 C 0.24798 0.06525 0.58827
   
