data_POSCAR
  _audit_creation_date              2014-09-24
  _audit_creation_method            'ToBaCCo'
  _symmetry_space_group_name_H-M    'P1'
  _symmetry_Int_Tables_number       1
  _symmetry_cell_setting            triclinic
  loop_
  _symmetry_equiv_pos_as_xyz
 x,y,z
_cell_length_a 25.3088
_cell_length_b 25.1809
_cell_length_c 29.0740
_cell_angle_alpha 91.225100
_cell_angle_beta 89.102200
_cell_angle_gamma 89.392300
loop_
  _atom_site_label
  _atom_site_type_symbol
  _atom_site_fract_x
  _atom_site_fract_y
  _atom_site_fract_z
C1 C 1.17730 0.30569 0.26448
 H2 H 1.16173 0.28349 0.23574
 C3 C 1.14344 0.33931 0.29033
 H4 H 1.10226 0.34281 0.28117
 C5 C 1.24811 0.32572 0.31403
 H6 H 1.28839 0.31858 0.32432
 C7 C 1.21552 0.35954 0.34092
 H8 H 1.23126 0.37872 0.37135
 N9 N 1.22865 0.29921 0.27675
 C10 C 1.22988 0.14841 0.21759
 H11 H 1.25070 0.13227 0.24636
 C12 C 1.19996 0.11460 0.18971
 H13 H 1.19782 0.07273 0.19718
 C14 C 1.20807 0.22182 0.17167
 H15 H 1.21191 0.26360 0.16449
 C16 C 1.17750 0.18950 0.14312
 H17 H 1.15795 0.20677 0.11407
 Zn18 Zn 1.27379 0.24726 0.24700
 N19 N 1.23306 0.20115 0.20848
 C20 C 1.26753 0.19155 0.32670
 N21 N 1.30380 0.20695 0.29484
 C22 C 1.35587 0.19333 0.29835
 C23 C 1.37268 0.16149 0.33470
 C24 C 1.28255 0.16056 0.36338
 C25 C 1.34637 0.32865 0.22562
 C26 C 1.37511 0.36071 0.19581
 C27 C 1.36397 0.29496 0.13526
 C28 C 1.33513 0.26420 0.16616
 N29 N 1.32548 0.28214 0.21008
 H30 H 1.22646 0.20279 0.32309
 H31 H 1.38401 0.20612 0.27260
 H32 H 1.41376 0.14940 0.33677
 H33 H 1.25284 0.14775 0.38788
 H34 H 1.33851 0.34246 0.26044
 H35 H 1.38924 0.39888 0.20794
 H36 H 1.36921 0.28120 0.09994
 H37 H 1.31851 0.22706 0.15438
 C38 C 1.17316 0.13511 0.15221
 C39 C 1.16222 0.36585 0.32940
 C40 C 1.38287 0.34466 0.14985
 C41 C 1.33533 0.14483 0.36740
 C42 C 0.65105 -0.20543 0.30404
 H43 H 0.62831 -0.23470 0.28543
 C44 C 0.62679 -0.17467 0.33915
 H45 H 0.58513 -0.17952 0.34677
 C46 C 0.73352 -0.16504 0.31857
 H47 H 0.77553 -0.16299 0.31153
 C48 C 0.71047 -0.13235 0.35289
 H49 H 0.73448 -0.10423 0.37169
 N50 N 0.70357 -0.20020 0.29455
 C51 C 0.68441 -0.34106 0.22300
 H52 H 0.70849 -0.36153 0.24742
 C53 C 0.65227 -0.37037 0.19368
 H54 H 0.65159 -0.41324 0.19582
 C55 C 0.65846 -0.26109 0.18763
 H56 H 0.66219 -0.21851 0.18495
 C57 C 0.62633 -0.28913 0.15704
 H58 H 0.60529 -0.26808 0.13077
 Zn59 Zn 0.73779 -0.24854 0.25290
 N60 N 0.68748 -0.28748 0.21911
 C61 C 0.75578 -0.32216 0.32322
 N62 N 0.77949 -0.29437 0.28901
 C63 C 0.83277 -0.29637 0.28231
 C64 C 0.86422 -0.32755 0.31015
 C65 C 0.78596 -0.35412 0.35190
 C66 C 0.78638 -0.16041 0.20735
 C67 C 0.81892 -0.13752 0.17397
 C68 C 0.83943 -0.22528 0.14322
 C69 C 0.80638 -0.24646 0.17695
 N70 N 0.78133 -0.21413 0.20868
 H71 H 0.71345 -0.31894 0.32855
 H72 H 0.85131 -0.27276 0.25621
 H73 H 0.90671 -0.32812 0.30508
 H74 H 0.76687 -0.37543 0.37939
 H75 H 0.76495 -0.13513 0.23179
 H76 H 0.82254 -0.09475 0.17341
 H77 H 0.85940 -0.25144 0.11837
 H78 H 0.80093 -0.28897 0.17815
 C79 C 0.62405 -0.34460 0.15961
 C80 C 0.65688 -0.13776 0.36398
 C81 C 0.84609 -0.17035 0.14154
 C82 C 0.84094 -0.35655 0.34535
 C83 C 0.69380 0.27170 -0.19489
 H84 H 0.68885 0.22970 -0.20189
 C85 C 0.66085 0.29786 -0.16300
 H86 H 0.62960 0.27635 -0.14595
 C87 C 0.74141 0.35086 -0.20777
 H88 H 0.77356 0.37077 -0.22496
 C89 C 0.71009 0.37835 -0.17469
 H90 H 0.71723 0.41990 -0.16706
 N91 N 0.73254 0.29847 -0.21706
 C92 C 0.76058 0.17215 -0.31949
 H93 H 0.80208 0.16392 -0.31433
 C94 C 0.73210 0.14064 -0.35032
 H95 H 0.75151 0.10771 -0.36849
 C96 C 0.68480 0.22579 -0.30335
 H97 H 0.66672 0.25972 -0.28575
 C98 C 0.65517 0.19596 -0.33464
 H99 H 0.61422 0.20655 -0.34017
 Zn100 Zn 0.77717 0.25530 -0.25461
 N101 N 0.73637 0.21298 -0.29578
 C102 C 0.81348 0.15971 -0.21117
 N103 N 0.81587 0.21365 -0.21284
 C104 C 0.84407 0.24208 -0.18158
 C105 C 0.87223 0.21645 -0.14759
 C106 C 0.84117 0.13239 -0.17753
 C107 C 0.80283 0.32624 -0.32440
 C108 C 0.83574 0.34782 -0.35815
 C109 C 0.91103 0.30991 -0.32013
 C110 C 0.87685 0.28854 -0.28755
 N111 N 0.82371 0.29587 -0.29087
 H112 H 0.78929 0.13781 -0.23504
 H113 H 0.84433 0.28498 -0.18298
 H114 H 0.89434 0.23952 -0.12277
 H115 H 0.83863 0.08956 -0.17626
 H116 H 0.76039 0.33066 -0.32667
 H117 H 0.81858 0.36863 -0.38664
 H118 H 0.95295 0.30087 -0.31886
 H119 H 0.89276 0.26316 -0.26162
 C120 C 0.67893 0.15253 -0.35819
 C121 C 0.66933 0.35128 -0.15219
 C122 C 0.89025 0.33825 -0.35662
 C123 C 0.87086 0.16118 -0.14526
 C124 C 1.14809 -0.24532 -0.20056
 H125 H 1.12974 -0.27353 -0.22364
 C126 C 1.11928 -0.22452 -0.16291
 H127 H 1.07833 -0.23529 -0.15777
 C128 C 1.22430 -0.19816 -0.17760
 H129 H 1.26574 -0.18963 -0.18281
 C130 C 1.19671 -0.17565 -0.14016
 H131 H 1.21679 -0.14860 -0.11705
 N132 N 1.19946 -0.23145 -0.20732
 C133 C 1.20006 -0.36153 -0.28932
 H134 H 1.22790 -0.38126 -0.26755
 C135 C 1.16815 -0.39160 -0.31806
 H136 H 1.17141 -0.43453 -0.31855
 C137 C 1.16294 -0.28166 -0.31733
 H138 H 1.16165 -0.23869 -0.31673
 C139 C 1.13093 -0.31024 -0.34719
 H140 H 1.10497 -0.28932 -0.37003
 Zn141 Zn 1.24058 -0.26594 -0.25328
 N142 N 1.19687 -0.30765 -0.28963
 C143 C 1.26755 -0.33956 -0.18914
 N144 N 1.28883 -0.30885 -0.22240
 C145 C 1.34194 -0.30659 -0.22976
 C146 C 1.37601 -0.33576 -0.20240
 C147 C 1.30007 -0.36902 -0.16098
 C148 C 1.27067 -0.16465 -0.28711
 C149 C 1.29571 -0.13108 -0.31810
 C150 C 1.32812 -0.20839 -0.36085
 C151 C 1.30273 -0.24045 -0.32901
 N152 N 1.27524 -0.21830 -0.29275
 H153 H 1.22517 -0.33997 -0.18378
 H154 H 1.35800 -0.28107 -0.25576
 H155 H 1.41836 -0.33278 -0.20733
 H156 H 1.28254 -0.39216 -0.13386
 H157 H 1.24741 -0.14777 -0.25887
 H158 H 1.29252 -0.08841 -0.31318
 H159 H 1.35031 -0.22672 -0.38920
 H160 H 1.30480 -0.28323 -0.33315
 C161 C 1.13405 -0.36585 -0.34776
 C162 C 1.14350 -0.18888 -0.13270
 C163 C 1.32482 -0.15295 -0.35530
 C164 C 1.35502 -0.36645 -0.16713
 C165 C 0.27605 0.16364 0.73712
 H166 H 0.25014 0.14776 0.76313
 C167 C 0.30945 0.12891 0.71191
 H168 H 0.30886 0.08677 0.71856
 C169 C 0.30632 0.23677 0.69451
 H170 H 0.30386 0.27862 0.68705
 C171 C 0.34067 0.20342 0.66872
 H172 H 0.36445 0.22009 0.64145
 N173 N 0.27465 0.21652 0.72791
 C174 C 0.13630 0.19692 0.78403
 H175 H 0.11933 0.20857 0.75183
 C176 C 0.11210 0.15767 0.81008
 H177 H 0.07635 0.13907 0.79796
 C178 C 0.20580 0.20350 0.83771
 H179 H 0.24339 0.22012 0.84729
 C180 C 0.18288 0.16477 0.86476
 H181 H 0.20266 0.15175 0.89539
 Zn182 Zn 0.22374 0.26131 0.75946
 N183 N 0.18291 0.21796 0.79778
 C184 C 0.16478 0.26844 0.67722
 N185 N 0.18110 0.29554 0.71544
 C186 C 0.17012 0.34821 0.72162
 C187 C 0.14224 0.37576 0.68858
 C188 C 0.13706 0.29482 0.64290
 C189 C 0.30909 0.32229 0.79368
 C190 C 0.33405 0.35656 0.82454
 C191 C 0.25067 0.37126 0.86453
 C192 C 0.22705 0.33709 0.83243
 N193 N 0.25655 0.31285 0.79823
 H194 H 0.17446 0.22667 0.67286
 H195 H 0.18372 0.36929 0.75181
 H196 H 0.13451 0.41790 0.69351
 H197 H 0.12532 0.27327 0.61218
 H198 H 0.33210 0.30231 0.76684
 H199 H 0.37621 0.36230 0.82081
 H200 H 0.22728 0.38881 0.89252
 H201 H 0.18537 0.32851 0.83564
 C202 C 0.13636 0.14079 0.85026
 C203 C 0.34184 0.14853 0.67701
 C204 C 0.30488 0.38083 0.86109
 C205 C 0.12609 0.34935 0.64856
 C206 C 0.77743 0.65965 0.70907
 H207 H 0.74824 0.64341 0.73213
 C208 C 0.80509 0.62543 0.67875
 H209 H 0.79745 0.58320 0.67908
 C210 C 0.82140 0.73405 0.67870
 H211 H 0.82714 0.77656 0.67867
 C212 C 0.84993 0.70099 0.64747
 H213 H 0.87759 0.71826 0.62344
 N214 N 0.78607 0.71293 0.70889
 C215 C 0.65403 0.70746 0.79490
 H216 H 0.62809 0.73041 0.77369
 C217 C 0.63259 0.67069 0.82551
 H218 H 0.59026 0.66489 0.82730
 C219 C 0.74067 0.68608 0.81897
 H220 H 0.78286 0.69181 0.81587
 C221 C 0.72107 0.64956 0.84990
 H222 H 0.74825 0.62710 0.87062
 Zn223 Zn 0.74492 0.75744 0.75021
 N224 N 0.70745 0.71335 0.79148
 C225 C 0.65769 0.78302 0.69246
 N226 N 0.70029 0.80233 0.71524
 C227 C 0.71518 0.85379 0.71075
 C228 C 0.68711 0.88786 0.68256
 C229 C 0.62757 0.81635 0.66477
 C230 C 0.84134 0.79467 0.79086
 C231 C 0.86940 0.82229 0.82485
 C232 C 0.78707 0.86114 0.85296
 C233 C 0.76064 0.83258 0.81895
 N234 N 0.78783 0.79997 0.78890
 H235 H 0.64778 0.74151 0.69485
 H236 H 0.75014 0.86806 0.72768
 H237 H 0.70044 0.92817 0.67805
 H238 H 0.59444 0.80034 0.64611
 H239 H 0.86202 0.76757 0.76733
 H240 H 0.91177 0.81684 0.82687
 H241 H 0.76488 0.88624 0.87721
 H242 H 0.71804 0.83526 0.81715
 C243 C 0.66675 0.64111 0.85283
 C244 C 0.84157 0.64587 0.64746
 C245 C 0.84175 0.85547 0.85669
 C246 C 0.64282 0.86934 0.65936
 C247 C 0.76481 0.14557 0.20111
 H248 H 0.73598 0.12918 0.22448
 C249 C 0.79178 0.11222 0.16948
 H250 H 0.78427 0.06996 0.16867
 C251 C 0.80852 0.22083 0.17161
 H252 H 0.81374 0.26343 0.17204
 C253 C 0.83727 0.18894 0.14054
 H254 H 0.86490 0.20702 0.11693
 N255 N 0.77429 0.19869 0.20189
 C256 C 0.63944 0.22257 0.28172
 H257 H 0.62330 0.25114 0.25845
 C258 C 0.60609 0.19845 0.31342
 H259 H 0.56425 0.20797 0.31430
 C260 C 0.71380 0.17682 0.31091
 H261 H 0.75599 0.16940 0.30995
 C262 C 0.68192 0.15184 0.34311
 H263 H 0.69980 0.12483 0.36696
 Zn264 Zn 0.73822 0.24654 0.24158
 N265 N 0.69215 0.21130 0.28110
 C266 C 0.66700 0.26820 0.17322
 N267 N 0.69974 0.29153 0.20414
 C268 C 0.70646 0.34496 0.20613
 C269 C 0.67920 0.37729 0.17622
 C270 C 0.63914 0.29912 0.14248
 C271 C 0.83937 0.27786 0.27302
 C272 C 0.87404 0.30724 0.30000
 C273 C 0.79889 0.35004 0.33798
 C274 C 0.76559 0.32026 0.30994
 N275 N 0.78621 0.28541 0.27791
 H276 H 0.66317 0.22544 0.17219
 H277 H 0.73361 0.36251 0.23017
 H278 H 0.68508 0.41984 0.17736
 H279 H 0.61371 0.28027 0.11754
 H280 H 0.85518 0.24868 0.24871
 H281 H 0.91628 0.30086 0.29612
 H282 H 0.78191 0.37743 0.36348
 H283 H 0.72317 0.32481 0.31363
 C284 C 0.62741 0.16308 0.34462
 C285 C 0.82906 0.13399 0.13956
 C286 C 0.85385 0.34351 0.33289
 C287 C 0.64568 0.35428 0.14394
 C288 C 0.30960 0.65931 0.22421
 H289 H 0.28489 0.64061 0.24956
 C290 C 0.33832 0.62757 0.19258
 H291 H 0.33594 0.58473 0.19412
 C292 C 0.34083 0.73730 0.18910
 H293 H 0.34069 0.78018 0.18746
 C294 C 0.36958 0.70689 0.15626
 H295 H 0.39184 0.72653 0.12960
 N296 N 0.31107 0.71321 0.22189
 C297 C 0.16564 0.71719 0.28978
 H298 H 0.14924 0.74523 0.26626
 C299 C 0.13149 0.68543 0.31509
 H300 H 0.08921 0.68891 0.31054
 C301 C 0.23976 0.68023 0.32678
 H302 H 0.28208 0.67882 0.33141
 C303 C 0.20688 0.64782 0.35300
 H304 H 0.22408 0.62170 0.37792
 Zn305 Zn 0.26569 0.75642 0.26019
 N306 N 0.21887 0.71351 0.29533
 C307 C 0.19396 0.77811 0.18961
 N308 N 0.22708 0.80112 0.22041
 C309 C 0.23506 0.85456 0.22100
 C310 C 0.20855 0.88704 0.19022
 C311 C 0.16531 0.80932 0.15943
 C312 C 0.27494 0.82861 0.33313
 C313 C 0.29905 0.86575 0.36205
 C314 C 0.38355 0.84081 0.32775
 C315 C 0.35780 0.80382 0.29949
 N316 N 0.30423 0.79950 0.30189
 H317 H 0.18968 0.73540 0.18865
 H318 H 0.26282 0.87201 0.24462
 H319 H 0.21569 0.92937 0.19037
 H320 H 0.13894 0.79049 0.13524
 H321 H 0.23245 0.82439 0.33425
 H322 H 0.27499 0.89046 0.38526
 H323 H 0.42585 0.84595 0.32410
 H324 H 0.38032 0.78017 0.27451
 C325 C 0.15197 0.65028 0.34694
 C326 C 0.36778 0.65124 0.15768
 C327 C 0.35371 0.87272 0.35877
 C328 C 0.17268 0.86447 0.15960
 O329 O 1.09055 0.03405 0.06245
 O330 O 0.91344 -0.02975 0.05799
 O331 O 0.97842 0.09079 0.05242
 O332 O 1.02935 -0.09343 0.06833
 O333 O 0.90636 0.05614 0.03017
 O334 O 1.10373 -0.05980 0.04891
 O335 O 0.94230 -0.10609 0.03764
 O336 O 1.06692 0.10090 0.02484
 C337 C 1.08869 0.08277 0.05928
 C338 C 0.91600 -0.07752 0.06538
 C339 C 0.93085 0.08382 0.05879
 C340 C 1.07648 -0.08607 0.07651
 O341 O 1.10430 -0.04214 -0.04302
 O342 O 0.92274 0.01543 -0.05873
 O343 O 1.03455 0.07445 -0.06139
 O344 O 0.98548 -0.10591 -0.04878
 O345 O 0.91097 -0.07069 -0.03054
 O346 O 1.10626 0.04853 -0.03134
 O347 O 1.07217 -0.11232 -0.01559
 O348 O 0.94496 0.09140 -0.03510
 Co349 Co 1.09254 -0.00493 0.00912
 Co350 Co 0.92215 -0.00700 -0.00001
 Co351 Co 1.00633 0.07949 -0.00398
 Co352 Co 1.00719 -0.09457 0.00971
 O353 O 1.00710 -0.00700 0.00392
 C354 C 1.09899 -0.09023 -0.04576
 C355 C 0.92452 0.06327 -0.06543
 C356 C 1.08151 0.06139 -0.06632
 C357 C 0.93877 -0.09803 -0.05825
 O358 O 1.06194 0.53970 0.55832
 O359 O 0.92991 0.43564 0.55376
 O360 O 0.95115 0.60185 0.51947
 O361 O 1.05726 0.38583 0.50175
 O362 O 0.91176 0.53768 0.55631
 O363 O 1.06292 0.44658 0.55313
 O364 O 0.96175 0.38031 0.50191
 O365 O 1.04828 0.60371 0.51376
 C366 C 1.06096 0.58781 0.55224
 C367 C 0.94687 0.39024 0.54259
 C368 C 0.92229 0.58593 0.55212
 C369 C 1.06700 0.39913 0.54241
 O370 O 1.11184 0.44977 0.46873
 O371 O 0.88577 0.53312 0.46903
 O372 O 1.04497 0.56822 0.42666
 O373 O 0.95795 0.42243 0.41827
 O374 O 0.89493 0.43479 0.46788
 O375 O 1.10724 0.54525 0.47241
 O376 O 1.05244 0.43609 0.41900
 O377 O 0.94568 0.57820 0.43140
 Co378 Co 1.07896 0.49518 0.51104
 Co379 Co 0.91490 0.48568 0.50977
 Co380 Co 0.99822 0.57885 0.47412
 Co381 Co 1.00706 0.41363 0.46267
 O382 O 0.99923 0.49381 0.48885
 C383 C 1.09982 0.43727 0.42845
 C384 C 0.89881 0.56436 0.43736
 C385 C 1.09295 0.56460 0.43498
 C386 C 0.91011 0.42141 0.42816
 O387 O 0.59282 0.05134 0.55878
 O388 O 0.41270 -0.05181 0.56259
 O389 O 0.44596 0.11598 0.54681
 O390 O 0.50401 -0.07016 0.56748
 O391 O 0.41964 0.04476 0.58205
 O392 O 0.58362 -0.04836 0.55050
 O393 O 0.44026 -0.11960 0.51940
 O394 O 0.54302 0.11916 0.53702
 C395 C 0.57952 0.09985 0.56157
 C396 C 0.40706 -0.10051 0.55075
 C397 C 0.42573 0.09429 0.58162
 C398 C 0.55174 -0.07108 0.57658
 O399 O 0.58186 -0.03620 0.45854
 O400 O 0.38418 0.06782 0.50177
 O401 O 0.53179 0.09996 0.44611
 O402 O 0.45977 -0.06267 0.44896
 O403 O 0.38859 -0.02561 0.47492
 O404 O 0.59952 0.05815 0.47152
 O405 O 0.53796 -0.10067 0.48613
 O406 O 0.43976 0.09075 0.45251
 Co407 Co 0.58031 0.00614 0.51000
 Co408 Co 0.40981 0.00879 0.52810
 Co409 Co 0.48960 0.09900 0.49713
 Co410 Co 0.48087 -0.06264 0.50818
 O411 O 0.49443 0.01594 0.50953
 C412 C 0.57050 -0.08408 0.45736
 C413 C 0.39349 0.08095 0.46200
 C414 C 0.57930 0.08816 0.44334
 C415 C 0.41419 -0.04682 0.44203
 O416 O 0.56709 0.55578 0.06193
 O417 O 0.43068 0.45639 0.05544
 O418 O 0.44761 0.61457 0.01298
 O419 O 0.54478 0.39502 0.01482
 O420 O 0.43368 0.55053 0.05826
 O421 O 0.58549 0.45696 0.05451
 O422 O 0.44791 0.39654 0.00509
 O423 O 0.54273 0.61930 0.01743
 C424 C 0.55924 0.60395 0.05580
 C425 C 0.43407 0.40874 0.04519
 C426 C 0.43414 0.59889 0.05190
 C427 C 0.57301 0.40958 0.04802
 O428 O 0.61664 0.46801 -0.03092
 O429 O 0.39324 0.55485 -0.02764
 O430 O 0.55028 0.58007 -0.07229
 O431 O 0.46068 0.43710 -0.07827
 O432 O 0.39413 0.45860 -0.03390
 O433 O 0.60711 0.56566 -0.02164
 O434 O 0.55861 0.42306 -0.07064
 O435 O 0.45720 0.57066 -0.07359
 Co436 Co 0.58535 0.51146 0.01392
 Co437 Co 0.42031 0.50527 0.01110
 Co438 Co 0.49959 0.58883 -0.02699
 Co439 Co 0.50251 0.42223 -0.03010
 O440 O 0.50256 0.50645 -0.00801
 C441 C 0.60500 0.43745 -0.06409
 C442 C 0.40916 0.56811 -0.06646
 C443 C 0.59699 0.57235 -0.06266
 C444 C 0.41236 0.44184 -0.07241
 N445 N 1.14352 0.09997 0.12309
 N446 N 1.11635 0.11729 0.09002
 N447 N 1.10677 0.60282 0.61927
 N448 N 1.08304 0.62275 0.58545
 N449 N 0.65039 0.12006 0.60981
 N450 N 0.60624 0.13412 0.59320
 N451 N 0.59903 0.62329 0.12538
 N452 N 0.57698 0.64123 0.08975
 N453 N 0.87922 -0.14900 0.10607
 N454 N 0.88439 -0.09920 0.10139
 N455 N 0.91890 0.34557 0.60861
 N456 N 0.94779 0.34790 0.57431
 N457 N 0.35209 -0.11831 0.61418
 N458 N 0.37772 -0.13571 0.57890
 N459 N 0.40528 0.38149 0.11819
 N460 N 0.41599 0.36933 0.07630
 N461 N 0.89796 0.13598 -0.10865
 N462 N 0.89860 0.08592 -0.10370
 N463 N 0.87503 0.61576 0.37563
 N464 N 0.85963 0.58607 0.40802
 N465 N 0.34692 0.11279 0.39832
 N466 N 0.35240 0.08013 0.42891
 N467 N 0.39008 0.60962 -0.13546
 N468 N 0.37312 0.58758 -0.09925
 N469 N 1.11312 -0.16394 -0.09634
 N470 N 1.12720 -0.11888 -0.08089
 N471 N 1.12526 0.39360 0.35931
 N472 N 1.13875 0.41545 0.39716
 N473 N 0.63393 -0.10507 0.40004
 N474 N 0.59347 -0.11908 0.42314
 N475 N 0.63441 0.37646 -0.11929
 N476 N 0.64522 0.41744 -0.09501
 N477 N 1.12018 0.10047 -0.12964
 N478 N 1.10648 0.05971 -0.11046
 N479 N 1.11589 0.62055 0.37452
 N480 N 1.13089 0.58987 0.40611
 N481 N 0.59361 0.14071 0.37866
 N482 N 0.61196 0.10959 0.40840
 N483 N 0.65003 0.60503 -0.12184
 N484 N 0.63766 0.56805 -0.09698
 N485 N 0.86725 -0.11810 -0.10570
 N486 N 0.91605 -0.12427 -0.09715
 N487 N 0.88975 0.37052 0.36250
 N488 N 0.87366 0.39769 0.39738
 N489 N 0.37432 -0.08828 0.37897
 N490 N 0.39280 -0.04797 0.39694
 N491 N 0.33091 0.41030 -0.10309
 N492 N 0.37998 0.41954 -0.10736
 N493 N 1.14668 -0.10294 0.12690
 N494 N 1.10071 -0.11421 0.11284
 N495 N 1.10164 0.38021 0.61382
 N496 N 1.08810 0.36242 0.57444
 N497 N 0.61842 -0.09704 0.62648
 N498 N 0.57095 -0.10238 0.61340
 N499 N 0.62144 0.38798 0.11162
 N500 N 0.59229 0.37149 0.07921
 N501 N 0.85742 0.10062 0.10734
 N502 N 0.90350 0.11333 0.09394
 N503 N 0.86738 0.60974 0.61529
 N504 N 0.89985 0.62417 0.58420
 N505 N 0.37064 0.11184 0.64725
 N506 N 0.40211 0.12832 0.61630
 N507 N 0.39221 0.61768 0.12285
 N508 N 0.41338 0.63522 0.08625
   
