data_POSCAR
  _audit_creation_date              2014-09-24
  _audit_creation_method            'ToBaCCo'
  _symmetry_space_group_name_H-M    'P1'
  _symmetry_Int_Tables_number       1
  _symmetry_cell_setting            triclinic
  loop_
  _symmetry_equiv_pos_as_xyz
 x,y,z
_cell_length_a 36.4169
_cell_length_b 36.4564
_cell_length_c 27.5389
_cell_angle_alpha 89.889100
_cell_angle_beta 90.019300
_cell_angle_gamma 88.793000
loop_
  _atom_site_label
  _atom_site_type_symbol
  _atom_site_fract_x
  _atom_site_fract_y
  _atom_site_fract_z
O1 O 0.03284 0.31608 -0.03552
 O2 O -0.04210 0.31476 0.05506
 O3 O 0.03077 0.31256 0.05726
 O4 O -0.04027 0.31264 -0.03946
 O5 O -0.03747 0.25207 -0.03989
 O6 O 0.03169 0.25200 0.05530
 O7 O -0.03965 0.25428 0.05339
 O8 O 0.03394 0.25552 -0.03705
 Cu9 Cu -0.00511 0.32019 0.00930
 Cu10 Cu -0.00289 0.24756 0.00779
 C11 C 0.04735 0.28598 -0.04973
 C12 C -0.05390 0.28403 0.06936
 C13 C 0.04437 0.28180 0.07104
 C14 C -0.05154 0.28199 -0.05506
 O15 O 0.46456 0.81062 0.54141
 O16 O 0.53736 0.80636 0.44736
 O17 O 0.46569 0.80793 0.44682
 O18 O 0.53817 0.80874 0.54155
 O19 O 0.53668 0.74830 0.54541
 O20 O 0.46624 0.74740 0.45109
 O21 O 0.53711 0.74585 0.45197
 O22 O 0.46522 0.75014 0.54395
 Cu23 Cu 0.50145 0.81466 0.49446
 Cu24 Cu 0.50136 0.74197 0.49868
 C25 C 0.45161 0.78077 0.55734
 C26 C 0.54966 0.77509 0.43400
 C27 C 0.45365 0.77715 0.43307
 C28 C 0.55050 0.77837 0.55839
 O29 O 1.03978 0.68644 0.04206
 O30 O 0.96979 0.68874 -0.05630
 O31 O 1.04238 0.68865 -0.05123
 O32 O 0.96702 0.68542 0.03876
 O33 O 0.96620 0.74590 0.04128
 O34 O 1.03955 0.74916 -0.04925
 O35 O 0.96824 0.74923 -0.05193
 O36 O 1.03751 0.74693 0.04356
 Cu37 Cu 1.00468 0.68113 -0.00694
 Cu38 Cu 1.00257 0.75373 -0.00376
 C39 C 1.05154 0.71672 0.05818
 C40 C 0.95676 0.71970 -0.07017
 C41 C 1.05458 0.71957 -0.06434
 C42 C 0.95341 0.71542 0.05480
 O43 O 0.46483 0.19279 0.45920
 O44 O 0.53469 0.19805 0.55714
 O45 O 0.46296 0.19542 0.55529
 O46 O 0.53724 0.19623 0.46369
 O47 O 0.53258 0.25667 0.46015
 O48 O 0.45957 0.25590 0.55180
 O49 O 0.53078 0.25850 0.55327
 O50 O 0.46174 0.25333 0.45767
 Cu51 Cu 0.49994 0.18942 0.50890
 Cu52 Cu 0.49555 0.26205 0.50543
 C53 C 0.45142 0.22256 0.44192
 C54 C 0.54532 0.22942 0.57075
 C55 C 0.44891 0.22576 0.56949
 C56 C 0.54831 0.22678 0.44755
 O57 O 0.68442 0.03677 -0.03472
 O58 O 0.68656 -0.03900 0.05569
 O59 O 0.68416 0.03394 0.06001
 O60 O 0.68305 -0.03548 -0.03793
 O61 O 0.74374 -0.03574 -0.03875
 O62 O 0.74475 0.03238 0.05792
 O63 O 0.74709 -0.03872 0.05351
 O64 O 0.74508 0.03528 -0.03547
 Cu65 Cu 0.67834 -0.00071 0.01117
 Cu66 Cu 0.75112 -0.00163 0.00925
 C67 C 0.71478 0.04906 -0.05001
 C68 C 0.71757 -0.05269 0.06847
 C69 C 0.71486 0.04550 0.07483
 C70 C 0.71350 -0.04803 -0.05399
 O71 O 0.18916 0.53565 0.44958
 O72 O 0.18722 0.46485 0.54649
 O73 O 0.18791 0.53830 0.54401
 O74 O 0.18957 0.46410 0.45167
 O75 O 0.25018 0.46312 0.45532
 O76 O 0.24847 0.53608 0.54574
 O77 O 0.24781 0.46479 0.54898
 O78 O 0.24980 0.53382 0.45299
 Cu79 Cu 0.18222 0.50077 0.49821
 Cu80 Cu 0.25501 0.49919 0.50125
 C81 C 0.22015 0.54683 0.43513
 C82 C 0.21747 0.45216 0.56325
 C83 C 0.21826 0.55068 0.55919
 C84 C 0.22053 0.45114 0.43785
 O85 O 0.31069 1.03508 0.04672
 O86 O 0.31093 0.96328 -0.04847
 O87 O 0.30979 1.03680 -0.04695
 O88 O 0.31107 0.96270 0.04534
 O89 O 0.25044 0.96417 0.04493
 O90 O 0.24921 1.03629 -0.04748
 O91 O 0.25029 0.96471 -0.04837
 O92 O 0.25012 1.03556 0.04564
 Cu93 Cu 0.31678 0.99936 -0.00117
 Cu94 Cu 0.24408 1.00021 -0.00137
 C95 C 0.28006 1.04830 0.06141
 C96 C 0.28050 0.95079 -0.06310
 C97 C 0.27909 1.05026 -0.06125
 C98 C 0.28062 0.95034 0.06002
 O99 O 0.80539 0.53306 0.55662
 O100 O 0.80729 0.45925 0.46513
 O101 O 0.80872 0.53140 0.46064
 O102 O 0.80179 0.46129 0.55844
 O103 O 0.74135 0.46554 0.55325
 O104 O 0.74814 0.53374 0.45720
 O105 O 0.74677 0.46265 0.46092
 O106 O 0.74492 0.53643 0.55141
 Cu107 Cu 0.81199 0.49627 0.51067
 Cu108 Cu 0.73934 0.50021 0.50513
 C109 C 0.77480 0.54713 0.56986
 C110 C 0.77714 0.44767 0.44851
 C111 C 0.77909 0.54436 0.44227
 C112 C 0.77010 0.45080 0.57128
 C113 C 0.33426 0.30460 0.32858
 C114 C 0.30754 0.33124 0.32935
 C115 C 0.27676 0.31650 0.30801
 N116 N 0.28435 0.28182 0.29280
 C117 C 0.31925 0.27398 0.30701
 C118 C 0.24203 0.33480 0.30490
 C119 C 0.21808 0.32764 0.26591
 C120 C 0.19596 0.35387 0.24325
 C121 C 0.17829 0.33652 0.20609
 C122 C 0.18990 0.30007 0.20720
 N123 N 0.21475 0.29502 0.24317
 C124 C 0.17850 0.27297 0.17419
 C125 C 0.20331 0.24477 0.15820
 C126 C 0.20079 0.22716 0.11383
 C127 C 0.22761 0.20065 0.11301
 C128 C 0.24606 0.20227 0.15704
 N129 N 0.23191 0.23031 0.18399
 C130 C 0.27437 0.17693 0.17187
 C131 C 0.30138 0.18697 0.20632
 C132 C 0.33754 0.17422 0.20640
 C133 C 0.35503 0.19129 0.24407
 C134 C 0.32933 0.21442 0.26586
 N135 N 0.29684 0.21202 0.24221
 C136 C 0.33714 0.23892 0.30417
 H137 H 0.36163 0.30779 0.34291
 H138 H 0.31080 0.35844 0.34404
 H139 H 0.27218 0.22434 0.25281
 H140 H 0.19413 0.38294 0.25094
 H141 H 0.16034 0.34979 0.17982
 H142 H 0.18190 0.23274 0.08434
 H143 H 0.23265 0.18247 0.08271
 H144 H 0.38404 0.18875 0.25220
 H145 H 0.22590 0.27000 0.25461
 H146 H 0.35080 0.15626 0.18024
 C147 C 0.66999 0.68648 0.32677
 C148 C 0.69686 0.65995 0.32650
 C149 C 0.72754 0.67508 0.30505
 N150 N 0.71953 0.70983 0.29050
 C151 C 0.68467 0.71723 0.30528
 C152 C 0.76281 0.65747 0.30263
 C153 C 0.78729 0.66504 0.26404
 C154 C 0.81107 0.63948 0.24317
 C155 C 0.82761 0.65652 0.20461
 C156 C 0.81389 0.69229 0.20304
 N157 N 0.78885 0.69699 0.23897
 C158 C 0.82299 0.71869 0.16721
 C159 C 0.79697 0.74617 0.15172
 C160 C 0.79767 0.76355 0.10683
 C161 C 0.77119 0.79046 0.10754
 C162 C 0.75455 0.78896 0.15266
 N163 N 0.76954 0.76100 0.17910
 C164 C 0.72687 0.81420 0.16889
 C165 C 0.70007 0.80325 0.20268
 C166 C 0.66367 0.81511 0.20224
 C167 C 0.64656 0.79758 0.23980
 C168 C 0.67295 0.77541 0.26215
 N169 N 0.70536 0.77853 0.23876
 C170 C 0.66616 0.75179 0.30169
 H171 H 0.64266 0.68313 0.34119
 H172 H 0.69379 0.63264 0.34103
 H173 H 0.73047 0.76739 0.24989
 H174 H 0.81432 0.61074 0.25239
 H175 H 0.84584 0.64314 0.17887
 H176 H 0.81538 0.75784 0.07619
 H177 H 0.76499 0.80881 0.07763
 H178 H 0.61755 0.79962 0.24804
 H179 H 0.77592 0.72156 0.24852
 H180 H 0.65027 0.83315 0.17617
 C181 C 0.77889 0.18910 0.13169
 C182 C 0.80456 0.21554 0.12975
 C183 C 0.79787 0.23878 0.16857
 N184 N 0.76816 0.22746 0.19387
 C185 C 0.75709 0.19617 0.17215
 C186 C 0.81834 0.27060 0.17887
 C187 C 0.80508 0.29621 0.21282
 C188 C 0.80354 0.33375 0.20607
 C189 C 0.78954 0.34855 0.24832
 C190 C 0.78432 0.31953 0.28019
 N191 N 0.79235 0.28757 0.25723
 C192 C 0.77346 0.32133 0.32953
 C193 C 0.75138 0.29251 0.34698
 C194 C 0.74575 0.28215 0.39494
 C195 C 0.71887 0.25641 0.39448
 C196 C 0.70741 0.25331 0.34688
 N197 N 0.72801 0.27444 0.31773
 C198 C 0.67611 0.23467 0.33055
 C199 C 0.67819 0.21519 0.28585
 C200 C 0.64994 0.19637 0.26378
 C201 C 0.66441 0.17982 0.22309
 C202 C 0.70145 0.18750 0.22213
 N203 N 0.70953 0.20944 0.26003
 C204 C 0.72701 0.17425 0.18724
 H205 H 0.77656 0.16784 0.10471
 H206 H 0.82499 0.21751 0.10151
 H207 H 0.73583 0.21701 0.27036
 H208 H 0.81063 0.34869 0.17351
 H209 H 0.78267 0.37723 0.25357
 H210 H 0.75900 0.29120 0.42754
 H211 H 0.70831 0.24226 0.42595
 H212 H 0.64895 0.16442 0.19685
 H213 H 0.79231 0.26134 0.27257
 H214 H 0.62187 0.19364 0.27544
 C215 C 0.33191 0.69295 0.33524
 C216 C 0.30577 0.66690 0.33531
 C217 C 0.27628 0.68087 0.30880
 N218 N 0.28434 0.71444 0.29092
 C219 C 0.31796 0.72245 0.30872
 C220 C 0.24255 0.66252 0.30243
 C221 C 0.22068 0.66916 0.26083
 C222 C 0.20167 0.64244 0.23623
 C223 C 0.18465 0.65946 0.19761
 C224 C 0.19339 0.69622 0.19983
 N225 N 0.21623 0.70178 0.23779
 C226 C 0.18099 0.72328 0.16647
 C227 C 0.20401 0.75267 0.15242
 C228 C 0.19941 0.77307 0.11022
 C229 C 0.22525 0.79934 0.11052
 C230 C 0.24538 0.79477 0.15291
 N231 N 0.23316 0.76523 0.17779
 C232 C 0.27429 0.81814 0.16751
 C233 C 0.30164 0.80575 0.20048
 C234 C 0.33833 0.81486 0.19797
 C235 C 0.35574 0.79766 0.23615
 C236 C 0.32931 0.77826 0.26089
 N237 N 0.29648 0.78260 0.23825
 C238 C 0.33639 0.75613 0.30220
 H239 H 0.35847 0.68978 0.35238
 H240 H 0.30887 0.64037 0.35254
 H241 H 0.27132 0.77337 0.25073
 H242 H 0.20143 0.61333 0.24390
 H243 H 0.16898 0.64583 0.16984
 H244 H 0.17992 0.76956 0.08113
 H245 H 0.22873 0.81907 0.08167
 H246 H 0.38494 0.79805 0.24339
 H247 H 0.22517 0.72702 0.25020
 H248 H 0.35164 0.83094 0.17028
 C249 C 0.79741 0.17162 0.84523
 C250 C 0.82398 0.19750 0.84434
 C251 C 0.80792 0.22931 0.82566
 N252 N 0.77255 0.22300 0.81334
 C253 C 0.76562 0.18804 0.82691
 C254 C 0.82575 0.26367 0.82218
 C255 C 0.81592 0.28934 0.78550
 C256 C 0.83979 0.31315 0.76300
 C257 C 0.81955 0.33324 0.72977
 C258 C 0.78391 0.32061 0.73197
 N259 N 0.78205 0.29410 0.76637
 C260 C 0.75327 0.33449 0.70535
 C261 C 0.71888 0.31862 0.71280
 C262 C 0.68564 0.33734 0.71804
 C263 C 0.65903 0.31115 0.71854
 C264 C 0.67727 0.27764 0.71374
 N265 N 0.71385 0.28212 0.71099
 C266 C 0.66078 0.24355 0.70689
 C267 C 0.67381 0.21303 0.73452
 C268 C 0.66027 0.17777 0.73342
 C269 C 0.68005 0.15751 0.76704
 C270 C 0.70462 0.18102 0.78870
 N271 N 0.70052 0.21470 0.76869
 C272 C 0.73075 0.17093 0.82481
 H273 H 0.80148 0.14368 0.85764
 H274 H 0.85211 0.19304 0.85588
 H275 H 0.71313 0.23837 0.78051
 H276 H 0.86899 0.31552 0.76910
 H277 H 0.83020 0.35505 0.70760
 H278 H 0.68117 0.36674 0.72027
 H279 H 0.62967 0.31604 0.72107
 H280 H 0.67716 0.12846 0.77365
 H281 H 0.75821 0.28228 0.77918
 H282 H 0.63816 0.16739 0.71158
 C283 C 0.27181 0.70437 0.60738
 C284 C 0.29791 0.73057 0.60716
 C285 C 0.29541 0.74889 0.65119
 N286 N 0.26728 0.73527 0.67754
 C287 C 0.25368 0.70698 0.65152
 C288 C 0.31997 0.77664 0.66668
 C289 C 0.31019 0.80131 0.70435
 C290 C 0.32018 0.83772 0.70695
 C291 C 0.30642 0.85144 0.74996
 C292 C 0.28759 0.82324 0.77208
 N293 N 0.29000 0.79288 0.74377
 C294 C 0.27100 0.82417 0.81874
 C295 C 0.25141 0.79335 0.83392
 C296 C 0.25372 0.77636 0.87885
 C297 C 0.22737 0.74986 0.87907
 C298 C 0.21017 0.75190 0.83427
 N299 N 0.22549 0.77780 0.80622
 C300 C 0.17939 0.73213 0.81949
 C301 C 0.17998 0.71564 0.77281
 C302 C 0.15148 0.69706 0.75098
 C303 C 0.16491 0.68314 0.70796
 C304 C 0.20144 0.69273 0.70509
 N305 N 0.21024 0.71291 0.74432
 C306 C 0.22589 0.68260 0.66733
 H307 H 0.26700 0.68569 0.57775
 H308 H 0.31651 0.73524 0.57733
 H309 H 0.23653 0.72105 0.75371
 H310 H 0.33550 0.85305 0.68040
 H311 H 0.31071 0.87886 0.76328
 H312 H 0.27227 0.78264 0.90827
 H313 H 0.22137 0.73135 0.90867
 H314 H 0.14933 0.66793 0.68162
 H315 H 0.28156 0.76673 0.75329
 H316 H 0.12403 0.69296 0.76447
 C317 C 0.32764 0.30733 0.68230
 C318 C 0.30092 0.33418 0.68370
 C319 C 0.26887 0.31770 0.69826
 N320 N 0.27567 0.28172 0.70792
 C321 C 0.31178 0.27514 0.69837
 C322 C 0.23339 0.33493 0.69753
 C323 C 0.20737 0.32681 0.73456
 C324 C 0.17405 0.34501 0.74322
 C325 C 0.15853 0.32909 0.78346
 C326 C 0.18309 0.30225 0.79955
 N327 N 0.21290 0.30170 0.77023
 C328 C 0.17965 0.28078 0.84228
 C329 C 0.20890 0.25716 0.85583
 C330 C 0.22425 0.25421 0.90168
 C331 C 0.24975 0.22587 0.89937
 C332 C 0.24836 0.21243 0.85239
 N333 N 0.22414 0.23221 0.82547
 C334 C 0.26722 0.18143 0.83377
 C335 C 0.28400 0.18513 0.78757
 C336 C 0.29640 0.15728 0.75714
 C337 C 0.31239 0.17395 0.71766
 C338 C 0.31144 0.21142 0.72632
 N339 N 0.29297 0.21789 0.76809
 C340 C 0.32864 0.23939 0.69912
 H341 H 0.35512 0.31200 0.66970
 H342 H 0.30463 0.36257 0.67368
 H343 H 0.28995 0.24337 0.78505
 H344 H 0.16254 0.36892 0.72532
 H345 H 0.13302 0.33798 0.80017
 H346 H 0.21758 0.27071 0.93324
 H347 H 0.26719 0.21621 0.92876
 H348 H 0.32224 0.15969 0.68574
 H349 H 0.23680 0.28636 0.77634
 H350 H 0.29421 0.12802 0.76178
 C351 C 0.79800 0.82976 0.84517
 C352 C 0.82571 0.80418 0.84374
 C353 C 0.81272 0.77467 0.81783
 N354 N 0.77787 0.78182 0.80265
 C355 C 0.76819 0.81509 0.82112
 C356 C 0.83324 0.74196 0.80843
 C357 C 0.82401 0.71977 0.76885
 C358 C 0.84881 0.70650 0.73495
 C359 C 0.82884 0.68718 0.70162
 C360 C 0.79262 0.68779 0.71750
 N361 N 0.78974 0.70927 0.75746
 C362 C 0.76281 0.66854 0.69727
 C363 C 0.72730 0.68565 0.69893
 C364 C 0.69392 0.66943 0.68899
 C365 C 0.66779 0.69692 0.68844
 C366 C 0.68587 0.72939 0.69584
 N367 N 0.72208 0.72244 0.70317
 C368 C 0.66999 0.76499 0.68989
 C369 C 0.68057 0.79392 0.72139
 C370 C 0.66436 0.82869 0.72398
 C371 C 0.68244 0.84755 0.75942
 C372 C 0.70813 0.82356 0.77970
 N373 N 0.70675 0.79098 0.75636
 C374 C 0.73269 0.83234 0.81781
 H375 H 0.80030 0.85645 0.86176
 H376 H 0.85262 0.80774 0.85932
 H377 H 0.72084 0.76713 0.76653
 H378 H 0.87794 0.71171 0.73327
 H379 H 0.83988 0.67563 0.66847
 H380 H 0.68791 0.64122 0.68166
 H381 H 0.63880 0.69344 0.68162
 H382 H 0.67746 0.87613 0.76809
 H383 H 0.76619 0.71380 0.77842
 H384 H 0.64106 0.83980 0.70432
 C385 C 0.27914 0.07982 0.09229
 C386 C 0.24030 0.09203 0.10847
 C387 C 0.23960 0.12258 0.13640
 C388 C 0.27746 0.13983 0.14470
 C389 C 0.29946 0.10741 0.16798
 C390 C 0.30077 0.07626 0.14016
 C391 C 0.29501 0.11341 0.06676
 C392 C 0.29446 0.14433 0.09405
 H393 H 0.21560 0.07665 0.10181
 H394 H 0.21441 0.13248 0.15345
 H395 H 0.31023 0.10750 0.20468
 H396 H 0.31355 0.05081 0.15278
 H397 H 0.30627 0.11285 0.03023
 H398 H 0.30538 0.16997 0.08083
 C399 C 0.77344 0.57801 0.60602
 C400 C 0.74582 0.57259 0.64748
 C401 C 0.74388 0.60125 0.67925
 C402 C 0.76859 0.63365 0.66596
 C403 C 0.80694 0.61436 0.66449
 C404 C 0.80964 0.58594 0.63236
 C405 C 0.76200 0.61420 0.58191
 C406 C 0.75968 0.64295 0.61272
 H407 H 0.73156 0.54716 0.65377
 H408 H 0.72885 0.59946 0.71318
 H409 H 0.82796 0.61752 0.69192
 H410 H 0.83362 0.56776 0.63121
 H411 H 0.75648 0.61716 0.54347
 H412 H 0.75228 0.67037 0.60013
 C413 C 0.71953 0.91425 0.09642
 C414 C 0.75903 0.90094 0.10821
 C415 C 0.76085 0.86906 0.13346
 C416 C 0.72329 0.85195 0.14379
 C417 C 0.70279 0.88335 0.17127
 C418 C 0.70041 0.91572 0.14612
 C419 C 0.70204 0.88204 0.06976
 C420 C 0.70384 0.84980 0.09444
 H421 H 0.78359 0.91628 0.10047
 H422 H 0.78676 0.85806 0.14726
 H423 H 0.69330 0.88133 0.20849
 H424 H 0.68818 0.94051 0.16150
 H425 H 0.68867 0.88449 0.03460
 H426 H 0.69207 0.82487 0.08033
 C427 C 0.21877 0.42080 0.59885
 C428 C 0.23322 0.43180 0.64881
 C429 C 0.23692 0.40340 0.68053
 C430 C 0.22615 0.36595 0.65997
 C431 C 0.18667 0.37178 0.64009
 C432 C 0.18265 0.40097 0.60901
 C433 C 0.24498 0.39013 0.58129
 C434 C 0.24819 0.36136 0.61229
 H435 H 0.23956 0.45978 0.65868
 H436 H 0.24651 0.40723 0.71747
 H437 H 0.16474 0.35249 0.64543
 H438 H 0.15709 0.40698 0.59005
 H439 H 0.25801 0.38987 0.54590
 H440 H 0.26273 0.33633 0.60174
 C441 C 0.91445 0.28241 0.09986
 C442 C 0.91159 0.31063 0.14133
 C443 C 0.88020 0.30781 0.16850
 C444 C 0.85434 0.27715 0.15127
 C445 C 0.84778 0.28571 0.09731
 C446 C 0.87892 0.28827 0.07063
 C447 C 0.91048 0.24521 0.12556
 C448 C 0.87971 0.24280 0.15278
 H449 H 0.93298 0.32983 0.15007
 H450 H 0.87580 0.32430 0.20077
 H451 H 0.82073 0.29073 0.08177
 H452 H 0.87828 0.29593 0.03254
 H453 H 0.93125 0.22340 0.12530
 H454 H 0.87465 0.21900 0.17540
 C455 C 0.41784 0.78102 0.58904
 C456 C 0.40677 0.74244 0.60540
 C457 C 0.37583 0.74201 0.63256
 C458 C 0.35712 0.77993 0.64003
 C459 C 0.38846 0.80196 0.66368
 C460 C 0.41999 0.80288 0.63656
 C461 C 0.38408 0.79698 0.56252
 C462 C 0.35268 0.79669 0.58907
 H463 H 0.42310 0.71763 0.59927
 H464 H 0.36650 0.71694 0.64948
 H465 H 0.38769 0.81281 0.70028
 H466 H 0.44487 0.81551 0.64950
 H467 H 0.38495 0.80831 0.52605
 H468 H 0.32684 0.80783 0.57525
 C469 C 0.08321 0.71730 0.08881
 C470 C 0.09202 0.75567 0.10847
 C471 C 0.12291 0.75649 0.13575
 C472 C 0.14379 0.71938 0.14004
 C473 C 0.11388 0.69446 0.16182
 C474 C 0.08241 0.69302 0.13455
 C475 C 0.11779 0.70465 0.06123
 C476 C 0.14904 0.70537 0.08789
 H477 H 0.07418 0.77975 0.10465
 H478 H 0.13077 0.78112 0.15492
 H479 H 0.11552 0.68181 0.19743
 H480 H 0.05839 0.67831 0.14640
 H481 H 0.11765 0.69520 0.02383
 H482 H 0.17542 0.69642 0.07326
 C483 C 0.57619 0.23272 0.60680
 C484 C 0.60716 0.20372 0.60124
 C485 C 0.63530 0.20774 0.63337
 C486 C 0.62980 0.23993 0.66919
 C487 C 0.62403 0.27303 0.63453
 C488 C 0.59597 0.26940 0.60268
 C489 C 0.56410 0.23020 0.65998
 C490 C 0.59198 0.23400 0.69245
 H491 H 0.60780 0.18296 0.57303
 H492 H 0.66002 0.19062 0.63185
 H493 H 0.64290 0.29541 0.63042
 H494 H 0.59093 0.28932 0.57395
 H495 H 0.53594 0.22586 0.67117
 H496 H 0.58757 0.23293 0.73140
 C497 C 0.71622 0.08134 0.91606
 C498 C 0.67942 0.09855 0.89930
 C499 C 0.68330 0.12848 0.86984
 C500 C 0.72374 0.13797 0.85862
 C501 C 0.73976 0.14289 0.91009
 C502 C 0.73646 0.11326 0.93945
 C503 C 0.73727 0.07275 0.86907
 C504 C 0.74110 0.10212 0.83922
 H505 H 0.65281 0.08959 0.91178
 H506 H 0.65978 0.14524 0.85880
 H507 H 0.75101 0.16833 0.92334
 H508 H 0.74559 0.11338 0.97699
 H509 H 0.74778 0.04559 0.85968
 H510 H 0.75492 0.10002 0.80438
 C511 C 0.22304 0.57716 0.39853
 C512 C 0.18758 0.59047 0.37294
 C513 C 0.19287 0.61894 0.34133
 C514 C 0.23335 0.63098 0.33749
 C515 C 0.24258 0.63995 0.39086
 C516 C 0.23802 0.61175 0.42221
 C517 C 0.24977 0.56765 0.35720
 C518 C 0.25506 0.59555 0.32547
 H519 H 0.16058 0.57984 0.38061
 H520 H 0.17001 0.63285 0.32336
 H521 H 0.25036 0.66691 0.40341
 H522 H 0.24254 0.61460 0.46099
 H523 H 0.26286 0.54084 0.35264
 H524 H 0.27269 0.59256 0.29388
 C525 C 0.27918 0.91741 0.90479
 C526 C 0.25478 0.88805 0.92721
 C527 C 0.25106 0.85775 0.89932
 C528 C 0.27330 0.85836 0.85146
 C529 C 0.25904 0.89400 0.82687
 C530 C 0.26247 0.92478 0.85446
 C531 C 0.31597 0.89739 0.89493
 C532 C 0.31284 0.86660 0.86734
 H533 H 0.23925 0.89198 0.96055
 H534 H 0.23061 0.83783 0.90869
 H535 H 0.24635 0.89480 0.79121
 H536 H 0.25322 0.95171 0.84208
 H537 H 0.34222 0.90639 0.90865
 H538 H 0.33645 0.84945 0.85773
 C539 C 0.77731 0.41470 0.41573
 C540 C 0.80148 0.41815 0.37038
 C541 C 0.80237 0.38737 0.34214
 C542 C 0.77760 0.35622 0.36064
 C543 C 0.79311 0.34965 0.41206
 C544 C 0.79213 0.37986 0.44111
 C545 C 0.73933 0.40467 0.39651
 C546 C 0.73957 0.37453 0.36797
 H547 H 0.81975 0.44084 0.36421
 H548 H 0.82352 0.38389 0.31478
 H549 H 0.80823 0.32496 0.42270
 H550 H 0.80450 0.37983 0.47698
 H551 H 0.71421 0.42021 0.40392
 H552 H 0.71462 0.36464 0.35132
 C553 C 0.08240 0.28551 0.92123
 C554 C 0.10457 0.32095 0.92291
 C555 C 0.13673 0.31898 0.89766
 C556 C 0.14403 0.28194 0.87236
 C557 C 0.14108 0.25312 0.91340
 C558 C 0.10941 0.25550 0.93917
 C559 C 0.07719 0.27738 0.86713
 C560 C 0.10927 0.27524 0.84170
 H561 H 0.09609 0.34533 0.94285
 H562 H 0.15554 0.34165 0.89616
 H563 H 0.16026 0.23052 0.91966
 H564 H 0.10330 0.23620 0.96800
 H565 H 0.05065 0.27293 0.85043
 H566 H 0.10994 0.26858 0.80330
 C567 C 0.58041 0.77151 0.39803
 C568 C 0.57041 0.74812 0.35392
 C569 C 0.59852 0.74252 0.32223
 C570 C 0.63453 0.76059 0.33717
 C571 C 0.62403 0.80155 0.34519
 C572 C 0.59536 0.80719 0.37652
 C573 C 0.61413 0.75237 0.42074
 C574 C 0.64249 0.74725 0.38946
 H575 H 0.54323 0.73738 0.34769
 H576 H 0.59535 0.72698 0.28897
 H577 H 0.63914 0.82426 0.33022
 H578 H 0.58579 0.83445 0.38691
 H579 H 0.61641 0.74554 0.45901
 H580 H 0.66897 0.73654 0.40164
 C581 C 0.92503 0.72269 0.89499
 C582 C 0.91428 0.68817 0.86665
 C583 C 0.88413 0.69350 0.83742
 C584 C 0.86770 0.73307 0.83899
 C585 C 0.86022 0.73877 0.89360
 C586 C 0.89006 0.73411 0.92236
 C587 C 0.93002 0.75225 0.85584
 C588 C 0.90026 0.75754 0.82665
 H589 H 0.92838 0.66177 0.87009
 H590 H 0.87248 0.67122 0.81690
 H591 H 0.83322 0.74479 0.90870
 H592 H 0.88847 0.73668 0.96159
 H593 H 0.95526 0.76709 0.85068
 H594 H 0.90013 0.77689 0.79663
 C595 C 0.42169 0.22304 0.40399
 C596 C 0.43173 0.24596 0.35934
 C597 C 0.40426 0.24968 0.32625
 C598 C 0.36862 0.23052 0.34038
 C599 C 0.38073 0.19012 0.35010
 C600 C 0.40883 0.18628 0.38312
 C601 C 0.38669 0.24108 0.42434
 C602 C 0.35894 0.24413 0.39195
 H603 H 0.45864 0.25749 0.35361
 H604 H 0.40776 0.26440 0.29231
 H605 H 0.36716 0.16654 0.33499
 H606 H 0.41948 0.15968 0.39482
 H607 H 0.38333 0.24926 0.46187
 H608 H 0.33181 0.25399 0.40276
 C609 C 0.71520 0.92051 0.91106
 C610 C 0.67871 0.90584 0.89160
 C611 C 0.68314 0.87618 0.86153
 C612 C 0.72380 0.86464 0.85246
 C613 C 0.74231 0.89990 0.83535
 C614 C 0.73795 0.92883 0.86580
 C615 C 0.73395 0.88694 0.93472
 C616 C 0.73750 0.85765 0.90482
 H617 H 0.65186 0.91589 0.90318
 H618 H 0.65980 0.86060 0.84946
 H619 H 0.75725 0.90198 0.80137
 H620 H 0.74910 0.95557 0.85782
 H621 H 0.74159 0.88549 0.97281
 H622 H 0.74737 0.83116 0.91808
 C623 C 0.22337 0.42047 0.40162
 C624 C 0.18737 0.40611 0.38026
 C625 C 0.19254 0.37754 0.34865
 C626 C 0.23340 0.36649 0.34035
 C627 C 0.25188 0.40230 0.32546
 C628 C 0.24677 0.43030 0.35735
 C629 C 0.24213 0.38643 0.42393
 C630 C 0.24675 0.35818 0.39251
 H631 H 0.16024 0.41604 0.39085
 H632 H 0.16955 0.36289 0.33364
 H633 H 0.26730 0.40544 0.29203
 H634 H 0.25780 0.45734 0.35111
 H635 H 0.24919 0.38389 0.46204
 H636 H 0.25723 0.33157 0.40447
 C637 C 0.27711 0.08328 0.91073
 C638 C 0.25360 0.11258 0.93690
 C639 C 0.24901 0.14427 0.91169
 C640 C 0.26975 0.14517 0.86271
 C641 C 0.30971 0.13431 0.87543
 C642 C 0.31364 0.10213 0.90026
 C643 C 0.25866 0.07923 0.86085
 C644 C 0.25441 0.11156 0.83611
 H645 H 0.23866 0.10760 0.97036
 H646 H 0.22805 0.16387 0.92313
 H647 H 0.33310 0.15075 0.86561
 H648 H 0.34037 0.09133 0.91134
 H649 H 0.24834 0.05352 0.84709
 H650 H 0.23958 0.11331 0.80197
 C651 C 0.77882 0.57385 0.40393
 C652 C 0.81566 0.58692 0.38333
 C653 C 0.81179 0.61474 0.34984
 C654 C 0.77132 0.62638 0.33945
 C655 C 0.75262 0.59048 0.32562
 C656 C 0.75636 0.56331 0.35913
 C657 C 0.76026 0.60880 0.42356
 C658 C 0.75719 0.63626 0.39073
 H659 H 0.84228 0.57662 0.39550
 H660 H 0.83538 0.62843 0.33479
 H661 H 0.73820 0.58659 0.29156
 H662 H 0.74514 0.53627 0.35360
 H663 H 0.75188 0.61238 0.46099
 H664 H 0.74704 0.66336 0.40106
 C665 C 0.08649 0.72189 0.90582
 C666 C 0.07894 0.73943 0.85598
 C667 C 0.10969 0.74369 0.82853
 C668 C 0.14547 0.72926 0.85259
 C669 C 0.14599 0.75062 0.90109
 C670 C 0.11569 0.74614 0.92897
 C671 C 0.10693 0.68547 0.89480
 C672 C 0.13766 0.68943 0.86733
 H673 H 0.05192 0.74870 0.84384
 H674 H 0.10877 0.75709 0.79330
 H675 H 0.16579 0.77102 0.91098
 H676 H 0.11169 0.76100 0.96280
 H677 H 0.09841 0.65885 0.90782
 H678 H 0.15514 0.66621 0.85716
 C679 C 0.58179 0.22847 0.41563
 C680 C 0.60444 0.19263 0.41152
 C681 C 0.63515 0.19552 0.38388
 C682 C 0.64096 0.23387 0.36214
 C683 C 0.60478 0.24372 0.33533
 C684 C 0.57390 0.24033 0.36303
 C685 C 0.60892 0.25679 0.43431
 C686 C 0.63907 0.26043 0.40595
 H687 H 0.59718 0.16709 0.42903
 H688 H 0.65391 0.17243 0.37797
 H689 H 0.60365 0.25443 0.29855
 H690 H 0.54663 0.24728 0.34947
 H691 H 0.60298 0.27547 0.46412
 H692 H 0.65630 0.28402 0.41065
 C693 C 0.91622 0.27968 0.91115
 C694 C 0.92470 0.25861 0.86420
 C695 C 0.89497 0.25405 0.83512
 C696 C 0.85903 0.27091 0.85520
 C697 C 0.85498 0.25500 0.90684
 C698 C 0.88495 0.25882 0.93534
 C699 C 0.89812 0.31605 0.89454
 C700 C 0.86793 0.31152 0.86586
 H701 H 0.95195 0.24850 0.85437
 H702 H 0.89684 0.24000 0.80047
 H703 H 0.82996 0.24322 0.92081
 H704 H 0.88570 0.24907 0.97260
 H705 H 0.90684 0.34287 0.90641
 H706 H 0.85069 0.33469 0.85481
 C707 C 0.42287 0.77467 0.39701
 C708 C 0.40966 0.81027 0.37170
 C709 C 0.38082 0.80535 0.34056
 C710 C 0.36835 0.76505 0.33681
 C711 C 0.40352 0.74308 0.32418
 C712 C 0.43176 0.74799 0.35547
 C713 C 0.38827 0.76000 0.42122
 C714 C 0.35973 0.75580 0.39032
 H715 H 0.42056 0.83712 0.37935
 H716 H 0.36688 0.82840 0.32307
 H717 H 0.40610 0.72552 0.29251
 H718 H 0.45844 0.73466 0.35045
 H719 H 0.38567 0.75547 0.46005
 H720 H 0.33275 0.74830 0.40330
 C721 C 0.27993 0.91660 0.09156
 C722 C 0.24135 0.90714 0.10969
 C723 C 0.24042 0.87598 0.13650
 C724 C 0.27780 0.85557 0.14162
 C725 C 0.29279 0.85106 0.08978
 C726 C 0.29358 0.88261 0.06374
 C727 C 0.30336 0.91725 0.13799
 C728 C 0.30191 0.88553 0.16465
 H729 H 0.21716 0.92471 0.10505
 H730 H 0.21551 0.86755 0.15467
 H731 H 0.30229 0.82497 0.07493
 H732 H 0.30361 0.88338 0.02662
 H733 H 0.31762 0.94130 0.15054
 H734 H 0.31412 0.88356 0.20049
 C735 C 0.76595 0.41976 0.60683
 C736 C 0.79340 0.38766 0.59955
 C737 C 0.78861 0.35930 0.63111
 C738 C 0.75733 0.36574 0.66820
 C739 C 0.76545 0.40283 0.69209
 C740 C 0.77003 0.43092 0.66013
 C741 C 0.72820 0.40179 0.60362
 C742 C 0.72384 0.37349 0.63491
 H743 H 0.81377 0.38659 0.57080
 H744 H 0.80463 0.33393 0.62853
 H745 H 0.76737 0.40661 0.73109
 H746 H 0.77588 0.45862 0.67178
 H747 H 0.70797 0.40806 0.57568
 H748 H 0.70060 0.35567 0.63094
 C749 C 0.71644 0.07795 0.10832
 C750 C 0.75494 0.08411 0.12924
 C751 C 0.75713 0.11436 0.15746
 C752 C 0.72119 0.13740 0.16091
 C753 C 0.70824 0.14405 0.10848
 C754 C 0.70609 0.11335 0.08120
 C755 C 0.69139 0.07786 0.15329
 C756 C 0.69422 0.10875 0.18136
 H757 H 0.77790 0.06483 0.12562
 H758 H 0.78186 0.12042 0.17771
 H759 H 0.70072 0.17097 0.09422
 H760 H 0.69669 0.11412 0.04378
 H761 H 0.67552 0.05442 0.16437
 H762 H 0.68179 0.11014 0.21708
 C763 C 0.21912 0.58469 0.59035
 C764 C 0.19805 0.58302 0.63858
 C765 C 0.19990 0.61455 0.66538
 C766 C 0.22194 0.64551 0.64079
 C767 C 0.25952 0.62632 0.63222
 C768 C 0.25819 0.59531 0.60535
 C769 C 0.20318 0.61856 0.56405
 C770 C 0.20442 0.65002 0.59030
 H771 H 0.18528 0.55840 0.65216
 H772 H 0.18969 0.61557 0.70232
 H773 H 0.28504 0.63540 0.64815
 H774 H 0.28270 0.57869 0.59843
 H775 H 0.19123 0.61773 0.52795
 H776 H 0.19349 0.67596 0.57656
 C777 C 0.92004 0.71532 0.08723
 C778 C 0.92438 0.69484 0.13583
 C779 C 0.89323 0.69567 0.16379
 C780 C 0.86008 0.71609 0.13986
 C781 C 0.87605 0.75429 0.12997
 C782 C 0.90655 0.75398 0.10188
 C783 C 0.88707 0.69776 0.06250
 C784 C 0.85611 0.69788 0.08990
 H785 H 0.95027 0.68312 0.14865
 H786 H 0.89354 0.68561 0.20087
 H787 H 0.86537 0.77950 0.14607
 H788 H 0.92105 0.77900 0.09397
 H789 H 0.88820 0.68545 0.02665
 H790 H 0.83089 0.68564 0.07738
 C791 C 0.41819 0.22681 0.60609
 C792 C 0.42385 0.25483 0.64688
 C793 C 0.39548 0.25704 0.67905
 C794 C 0.36298 0.23214 0.66699
 C795 C 0.35316 0.24023 0.61365
 C796 C 0.38169 0.23777 0.58240
 C797 C 0.41060 0.19088 0.63330
 C798 C 0.38234 0.19380 0.66592
 H799 H 0.44909 0.26965 0.65206
 H800 H 0.39705 0.27327 0.71198
 H801 H 0.32550 0.24695 0.60129
 H802 H 0.37828 0.24244 0.54383
 H803 H 0.42908 0.16714 0.63256
 H804 H 0.38021 0.17334 0.69422
 C805 C 0.07862 0.28024 0.10152
 C806 C 0.09100 0.24098 0.11538
 C807 C 0.12278 0.23924 0.14090
 C808 C 0.14067 0.27668 0.14929
 C809 C 0.14336 0.29468 0.09901
 C810 C 0.11126 0.29627 0.07411
 C811 C 0.07723 0.30080 0.15010
 C812 C 0.10951 0.29852 0.17558
 H813 H 0.07499 0.21670 0.10886
 H814 H 0.13320 0.21358 0.15616
 H815 H 0.16860 0.30548 0.08433
 H816 H 0.10919 0.30832 0.03809
 H817 H 0.05252 0.31378 0.16465
 H818 H 0.11147 0.30884 0.21238
 C819 C 0.58270 0.77684 0.59272
 C820 C 0.60654 0.81115 0.59473
 C821 C 0.63617 0.80743 0.62498
 C822 C 0.63851 0.77037 0.65246
 C823 C 0.60069 0.76606 0.67637
 C824 C 0.57177 0.76928 0.64537
 C825 C 0.61008 0.74589 0.57933
 C826 C 0.63934 0.74292 0.60968
 H827 H 0.60262 0.83478 0.57113
 H828 H 0.65778 0.82747 0.62525
 H829 H 0.59705 0.76092 0.71490
 H830 H 0.54352 0.76700 0.65741
 H831 H 0.60831 0.72969 0.54641
 H832 H 0.66266 0.72516 0.60080
   
