data_POSCAR
  _audit_creation_date              2014-09-24
  _audit_creation_method            'ToBaCCo'
  _symmetry_space_group_name_H-M    'P1'
  _symmetry_Int_Tables_number       1
  _symmetry_cell_setting            triclinic
  loop_
  _symmetry_equiv_pos_as_xyz
 x,y,z
_cell_length_a 55.9302
_cell_length_b 56.1153
_cell_length_c 20.6204
_cell_angle_alpha 90.117600
_cell_angle_beta 89.696100
_cell_angle_gamma 120.000500
loop_
  _atom_site_label
  _atom_site_type_symbol
  _atom_site_fract_x
  _atom_site_fract_y
  _atom_site_fract_z
O1 O 0.20987 0.46982 0.43420
 O2 O 0.25446 0.46268 0.55500
 O3 O 0.21240 0.47073 0.55967
 O4 O 0.25222 0.46245 0.42786
 O5 O 0.28006 0.50747 0.42645
 O6 O 0.24059 0.51573 0.55838
 O7 O 0.28265 0.50762 0.55316
 O8 O 0.23772 0.51488 0.43380
 Cu9 Cu 0.22953 0.46187 0.49445
 Cu10 Cu 0.26325 0.51591 0.49278
 C11 C 0.21602 0.49364 0.41420
 C12 C 0.27610 0.48391 0.57493
 C13 C 0.21943 0.49465 0.58057
 C14 C 0.27282 0.48370 0.40428
 O15 O 0.55575 -0.23704 0.45318
 O16 O 0.53856 -0.19987 0.57619
 O17 O 0.54188 -0.24481 0.57571
 O18 O 0.55096 -0.19319 0.45299
 O19 O 0.50676 -0.21825 0.42845
 O20 O 0.49783 -0.26957 0.54973
 O21 O 0.49449 -0.22472 0.55036
 O22 O 0.51165 -0.26192 0.42788
 Cu23 Cu 0.55122 -0.21626 0.51726
 Cu24 Cu 0.49828 -0.24616 0.48671
 C25 C 0.53664 -0.25581 0.41949
 C26 C 0.51362 -0.20573 0.58355
 C27 C 0.51828 -0.26615 0.58307
 C28 C 0.53020 -0.19694 0.42023
 O29 O 1.26286 0.77654 0.42297
 O30 O 1.21734 0.74020 0.56054
 O31 O 1.26664 0.78309 0.54804
 O32 O 1.21653 0.72988 0.43684
 O33 O 1.23830 0.70645 0.44902
 O34 O 1.28668 0.75806 0.56135
 O35 O 1.23725 0.71503 0.57260
 O36 O 1.28485 0.75342 0.43657
 Cu37 Cu 1.23872 0.75978 0.49080
 Cu38 Cu 1.26376 0.73079 0.50596
 C39 C 1.28206 0.77185 0.40725
 C40 C 1.21911 0.72128 0.58963
 C41 C 1.28537 0.77950 0.57312
 C42 C 1.21898 0.70894 0.42459
 O43 O 0.72789 0.49758 0.55961
 O44 O 0.77481 0.49641 0.43478
 O45 O 0.72745 0.49519 0.43376
 O46 O 0.77367 0.49596 0.56108
 O47 O 0.75034 0.45052 0.56316
 O48 O 0.70461 0.44973 0.43539
 O49 O 0.75207 0.45098 0.43744
 O50 O 0.70437 0.45216 0.56050
 Cu51 Cu 0.75328 0.50084 0.49703
 Cu52 Cu 0.72559 0.44631 0.49930
 C53 C 0.70788 0.47512 0.58066
 C54 C 0.77166 0.47351 0.41546
 C55 C 0.70791 0.47229 0.41362
 C56 C 0.76990 0.47325 0.58343
 O57 O 0.45781 0.22025 0.57444
 O58 O 0.46726 0.26920 0.44373
 O59 O 0.45366 0.21720 0.44929
 O60 O 0.47196 0.27201 0.56906
 O61 O 0.51590 0.28364 0.56209
 O62 O 0.49784 0.23025 0.43781
 O63 O 0.51152 0.28197 0.43761
 O64 O 0.50146 0.23130 0.56413
 Cu65 Cu 0.45826 0.24348 0.50989
 Cu66 Cu 0.51107 0.25785 0.49964
 C67 C 0.47790 0.21710 0.59092
 C68 C 0.49116 0.28435 0.41950
 C69 C 0.47269 0.21443 0.42316
 C70 C 0.49697 0.28728 0.58563
 O71 O 0.74630 0.21029 0.43241
 O72 O 0.78461 0.24626 0.57785
 O73 O 0.73726 0.20225 0.55710
 O74 O 0.79036 0.25795 0.45453
 O75 O 0.76626 0.27934 0.45913
 O76 O 0.71480 0.22530 0.56183
 O77 O 0.76258 0.26969 0.58245
 O78 O 0.72200 0.23143 0.43778
 Cu79 Cu 0.76692 0.22697 0.50481
 Cu80 Cu 0.73913 0.25362 0.51076
 C81 C 0.72731 0.21410 0.41093
 C82 C 0.78069 0.26438 0.60445
 C83 C 0.71686 0.20454 0.57651
 C84 C 0.78724 0.27829 0.44014
 N85 N 0.97386 0.52712 0.05942
 N86 N 0.95400 0.53311 0.06830
 N87 N 1.03039 0.53466 0.10217
 N88 N 1.04967 0.54798 0.14618
 N89 N 1.03164 0.55171 0.05695
 N90 N 1.05162 0.57696 0.06892
 N91 N 0.97239 0.50969 0.10393
 N92 N 0.95145 0.50317 0.14369
 C93 C 0.94020 0.51797 0.12104
 C94 C 1.06287 0.57427 0.12416
 N95 N 1.02295 0.46272 0.05801
 N96 N 1.04142 0.45499 0.06767
 N97 N 0.96742 0.45595 0.10506
 N98 N 0.94956 0.44270 0.15224
 N99 N 0.96534 0.43866 0.05939
 N100 N 0.94620 0.41335 0.07418
 N101 N 1.02533 0.48074 0.10208
 N102 N 1.04556 0.48586 0.14257
 Mn103 Mn 0.99893 0.49531 0.10406
 C104 C 1.05546 0.46972 0.12032
 C105 C 0.93628 0.41622 0.13157
 N106 N 1.03183 0.55135 -0.08294
 N107 N 1.05513 0.57499 -0.09128
 N108 N 0.97201 0.50947 -0.12528
 N109 N 0.95098 0.50312 -0.16399
 N110 N 0.97383 0.52706 -0.08085
 N111 N 0.95426 0.53343 -0.08846
 N112 N 1.02983 0.53334 -0.12650
 N113 N 1.05159 0.54397 -0.16502
 Mn114 Mn 1.00280 0.53963 -0.01187
 C115 C 1.06709 0.56994 -0.14302
 C116 C 0.94018 0.51826 -0.14045
 N117 N 0.96419 0.43823 -0.08037
 N118 N 0.94069 0.41471 -0.08691
 N119 N 1.02414 0.47964 -0.12608
 N120 N 1.04466 0.48500 -0.16631
 N121 N 1.02202 0.46204 -0.08150
 N122 N 1.04083 0.45472 -0.09026
 N123 N 0.96626 0.45590 -0.12482
 N124 N 0.94432 0.44512 -0.16226
 Mn125 Mn 0.99356 0.45014 -0.01118
 Mn126 Mn 0.99810 0.49461 -0.12635
 Cl127 Cl 0.99835 0.49493 -0.01120
 C128 C 0.92864 0.41944 -0.13852
 C129 C 1.05481 0.46927 -0.14312
 N130 N 0.47624 0.45571 0.06383
 N131 N 0.46707 0.42916 0.07177
 N132 N 0.47047 0.50413 0.11492
 N133 N 0.45887 0.51316 0.15651
 N134 N 0.45328 0.49022 0.06802
 N135 N 0.42928 0.48900 0.07706
 N136 N 0.49406 0.47006 0.10927
 N137 N 0.49758 0.45371 0.14918
 C138 C 0.48074 0.42827 0.12487
 C139 C 0.43325 0.50350 0.13249
 N140 N 0.54199 0.56891 0.07932
 N141 N 0.54671 0.59419 0.09035
 N142 N 0.54847 0.51824 0.11559
 N143 N 0.56031 0.50869 0.15489
 N144 N 0.56654 0.53572 0.07396
 N145 N 0.59112 0.53863 0.08368
 N146 N 0.52411 0.55163 0.12159
 N147 N 0.51588 0.56443 0.16160
 Mn148 Mn 0.50935 0.51092 0.11600
 C149 C 0.53028 0.59091 0.14229
 C150 C 0.58688 0.52157 0.13397
 N151 N 0.45516 0.49340 -0.07303
 N152 N 0.43074 0.49040 -0.08745
 N153 N 0.49723 0.47533 -0.11711
 N154 N 0.50304 0.46068 -0.15782
 N155 N 0.47834 0.45919 -0.07508
 N156 N 0.47069 0.43322 -0.08593
 N157 N 0.47388 0.50976 -0.11516
 N158 N 0.46295 0.51876 -0.15831
 Mn159 Mn 0.46540 0.47445 -0.00408
 C160 C 0.43613 0.50662 -0.14054
 C161 C 0.48627 0.43447 -0.13739
 N162 N 0.56871 0.53885 -0.06505
 N163 N 0.59339 0.54165 -0.07404
 N164 N 0.52784 0.55738 -0.10839
 N165 N 0.52333 0.57313 -0.14797
 N166 N 0.54433 0.57209 -0.06118
 N167 N 0.55180 0.59830 -0.06778
 N168 N 0.55171 0.52344 -0.11078
 N169 N 0.56429 0.51522 -0.15189
 Mn170 Mn 0.55566 0.55425 0.00681
 Mn171 Mn 0.51273 0.51644 -0.11362
 Cl172 Cl 0.51076 0.51402 0.00123
 C173 C 0.59026 0.52668 -0.12820
 C174 C 0.53840 0.59855 -0.12192
 N175 N 0.43069 -0.02396 0.06410
 N176 N 0.40547 -0.04562 0.06578
 N177 N 0.47479 0.03341 0.11201
 N178 N 0.47987 0.05393 0.15134
 N179 N 0.46175 0.03425 0.06015
 N180 N 0.45790 0.05563 0.06226
 N181 N 0.44501 -0.02434 0.11396
 N182 N 0.43011 -0.04614 0.15058
 C183 C 0.40545 -0.05917 0.12021
 C184 C 0.46928 0.06759 0.11957
 N185 N 0.54400 0.03243 0.09374
 N186 N 0.56861 0.05380 0.10665
 N187 N 0.49535 -0.02521 0.13422
 N188 N 0.48592 -0.04545 0.17686
 N189 N 0.51432 -0.02551 0.09709
 N190 N 0.51845 -0.04585 0.11351
 N191 N 0.52510 0.03267 0.13143
 N192 N 0.53617 0.05413 0.17040
 Mn193 Mn 0.48499 0.00406 0.12356
 C194 C 0.56325 0.06707 0.15475
 C195 C 0.50055 -0.05808 0.16323
 N196 N 0.46845 0.03257 -0.07862
 N197 N 0.46587 0.05393 -0.09548
 N198 N 0.45552 -0.02699 -0.11126
 N199 N 0.44282 -0.04655 -0.15499
 N200 N 0.43745 -0.02512 -0.07392
 N201 N 0.41205 -0.04321 -0.09109
 N202 N 0.48661 0.03087 -0.11610
 N203 N 0.49707 0.05107 -0.15880
 Mn204 Mn 0.44933 0.00454 -0.00709
 C205 C 0.48394 0.06522 -0.14565
 C206 C 0.41573 -0.05658 -0.14117
 N207 N 0.52089 -0.02775 -0.04104
 N208 N 0.52787 -0.04698 -0.04624
 N209 N 0.53644 0.02905 -0.09639
 N210 N 0.55281 0.04596 -0.14164
 N211 N 0.55078 0.02991 -0.04531
 N212 N 0.57734 0.04728 -0.05474
 N213 N 0.50592 -0.02866 -0.09093
 N214 N 0.50227 -0.04852 -0.13117
 Mn215 Mn 0.53282 0.00236 0.02634
 Mn216 Mn 0.49607 0.00095 -0.10428
 Cl217 Cl 0.49083 0.00299 0.00950
 C218 C 0.51583 -0.05996 -0.10233
 C219 C 0.57818 0.05737 -0.11471
 C220 C 1.19761 0.49713 0.36925
 C221 C 1.17515 0.47493 0.33949
 C222 C 1.15505 0.47834 0.30045
 N223 N 1.13616 0.45714 0.26402
 N224 N 1.11723 0.45964 0.23038
 C225 C 1.11636 0.48340 0.23233
 N226 N 1.13518 0.50456 0.26890
 N227 N 1.15422 0.50212 0.30215
 C228 C 1.09485 0.48617 0.19788
 C229 C 1.07794 0.46744 0.15102
 H230 H 1.17201 0.45438 0.34546
 H231 H 1.09237 0.50364 0.20964
 H232 H 1.20159 0.51783 0.36036
 H233 H 1.08131 0.45084 0.13607
 C234 C 0.54339 0.73012 0.37350
 C235 C 0.52333 0.70850 0.33661
 C236 C 0.52966 0.69181 0.29201
 N237 N 0.50864 0.66815 0.26778
 N238 N 0.51369 0.65199 0.22963
 C239 C 0.53998 0.65892 0.21369
 N240 N 0.56107 0.68288 0.23692
 N241 N 0.55601 0.69900 0.27556
 C242 C 0.54549 0.63997 0.17495
 C243 C 0.52574 0.61213 0.17197
 H244 H 0.50177 0.70242 0.34308
 H245 H 0.56576 0.64730 0.15385
 H246 H 0.56486 0.73576 0.36778
 H247 H 0.50656 0.60478 0.19857
 C248 C 0.30218 -0.21110 0.35681
 C249 C 0.29858 -0.19223 0.31999
 C250 C 0.32094 -0.17018 0.28139
 N251 N 0.31547 -0.15382 0.24308
 N252 N 0.33577 -0.13235 0.21201
 C253 C 0.36238 -0.12630 0.21851
 N254 N 0.36783 -0.14272 0.25656
 N255 N 0.34752 -0.16428 0.28731
 C256 C 0.38540 -0.10147 0.18887
 C257 C 0.38178 -0.08520 0.14319
 H258 H 0.27908 -0.19253 0.32255
 H259 H 0.40610 -0.09557 0.20446
 H260 H 0.32101 -0.21198 0.35189
 H261 H 0.36148 -0.09167 0.12380
 C262 C 0.79130 0.47273 0.36870
 C263 C 0.81189 0.49632 0.33794
 C264 C 0.83376 0.49604 0.29812
 N265 N 0.85127 0.51852 0.26264
 N266 N 0.87190 0.51897 0.22879
 C267 C 0.87588 0.49699 0.22956
 N268 N 0.85839 0.47455 0.26504
 N269 N 0.83769 0.47403 0.29851
 C270 C 0.89937 0.49747 0.19552
 C271 C 0.91593 0.51762 0.15043
 H272 H 0.81239 0.51572 0.34433
 H273 H 0.90372 0.48113 0.20644
 H274 H 0.78999 0.45308 0.35977
 H275 H 0.91093 0.53315 0.13597
 C276 C 0.49600 0.30580 0.37171
 C277 C 0.47469 0.30847 0.34448
 C278 C 0.48019 0.33249 0.30458
 N279 N 0.45961 0.33227 0.26948
 N280 N 0.46410 0.35434 0.23550
 C281 C 0.48930 0.37755 0.23584
 N282 N 0.50983 0.37779 0.27110
 N283 N 0.50541 0.35566 0.30461
 C284 C 0.49431 0.40265 0.20152
 C285 C 0.47642 0.40258 0.15463
 H286 H 0.45342 0.29287 0.35364
 H287 H 0.51277 0.42180 0.21345
 H288 H 0.51721 0.32058 0.35936
 H289 H 0.45890 0.38332 0.13913
 C290 C 0.71115 0.19731 0.35546
 C291 C 0.68489 0.19278 0.34098
 C292 C 0.66652 0.17103 0.29538
 N293 N 0.63940 0.16340 0.29267
 N294 N 0.62213 0.14252 0.25514
 C295 C 0.63132 0.12848 0.21868
 N296 N 0.65854 0.13639 0.22056
 N297 N 0.67580 0.15721 0.25832
 C298 C 0.61202 0.10434 0.17981
 C299 C 0.58356 0.09258 0.18715
 H300 H 0.67658 0.20354 0.36825
 H301 H 0.62027 0.09478 0.14801
 H302 H 0.71887 0.18559 0.33007
 H303 H 0.57550 0.10166 0.22092
 C304 C 0.47354 0.19744 -0.36192
 C305 C 0.49385 0.19114 -0.34431
 C306 C 0.48843 0.16853 -0.29933
 N307 N 0.50757 0.16061 -0.29265
 N308 N 0.50281 0.13968 -0.25400
 C309 C 0.47875 0.12588 -0.22017
 N310 N 0.45971 0.13400 -0.22622
 N311 N 0.46442 0.15488 -0.26520
 C312 C 0.47305 0.10210 -0.17881
 C313 C 0.48953 0.08998 -0.18226
 H314 H 0.51409 0.20211 -0.36680
 H315 H 0.45496 0.09322 -0.14773
 H316 H 0.45317 0.18590 -0.34026
 H317 H 0.50679 0.09817 -0.21583
 C318 C 0.68900 0.47532 -0.37500
 C319 C 0.69191 0.49960 -0.34858
 C320 C 0.67021 0.50005 -0.30858
 N321 N 0.67597 0.52293 -0.27408
 N322 N 0.65626 0.52416 -0.24010
 C323 C 0.62997 0.50262 -0.23985
 N324 N 0.62420 0.47978 -0.27452
 N325 N 0.64395 0.47846 -0.30804
 C326 C 0.60764 0.50418 -0.20537
 C327 C 0.61278 0.52422 -0.15876
 H328 H 0.71052 0.51904 -0.35800
 H329 H 0.58650 0.48898 -0.21677
 H330 H 0.67118 0.45583 -0.36159
 H331 H 0.63376 0.53827 -0.14369
 C332 C 0.79728 0.27869 -0.34296
 C333 C 0.79818 0.30187 -0.31554
 C334 C 0.81997 0.31923 -0.26900
 N335 N 0.82686 0.34588 -0.26040
 N336 N 0.84814 0.36247 -0.22302
 C337 C 0.86323 0.35300 -0.19239
 N338 N 0.85590 0.32617 -0.19965
 N339 N 0.83475 0.30963 -0.23746
 C340 C 0.88819 0.37175 -0.15543
 C341 C 0.90157 0.40002 -0.16597
 H342 H 0.78488 0.30920 -0.33384
 H343 H 0.89762 0.36314 -0.12469
 H344 H 0.81181 0.27263 -0.32619
 H345 H 0.89299 0.40828 -0.20031
 C346 C 0.50650 -0.19000 -0.37068
 C347 C 0.52567 -0.17042 -0.32829
 C348 C 0.51929 -0.15232 -0.28877
 N349 N 0.53712 -0.13609 -0.24221
 N350 N 0.53218 -0.11876 -0.20813
 C351 C 0.50927 -0.11689 -0.21966
 N352 N 0.49147 -0.13310 -0.26623
 N353 N 0.49632 -0.15054 -0.29999
 C354 C 0.50420 -0.09676 -0.18528
 C355 C 0.51929 -0.08210 -0.13116
 H356 H 0.54614 -0.16787 -0.32483
 H357 H 0.48822 -0.09311 -0.20385
 H358 H 0.48564 -0.19344 -0.37177
 H359 H 0.53427 -0.08660 -0.10999
 C360 C 0.29257 0.48081 -0.37886
 C361 C 0.31716 0.50297 -0.35596
 C362 C 0.33493 0.49980 -0.30816
 N363 N 0.36050 0.52130 -0.29612
 N364 N 0.37714 0.51884 -0.25405
 C365 C 0.36881 0.49482 -0.22191
 N366 N 0.34308 0.47337 -0.23333
 N367 N 0.32646 0.47578 -0.27576
 C368 C 0.38761 0.49168 -0.17711
 C369 C 0.41586 0.51052 -0.17726
 H370 H 0.32426 0.52342 -0.37512
 H371 H 0.37953 0.47338 -0.14729
 H372 H 0.28605 0.46032 -0.36084
 H373 H 0.42402 0.52776 -0.21055
 C374 C 1.20035 0.70726 -0.36036
 C375 C 1.19812 0.68410 -0.32956
 C376 C 1.17547 0.66766 -0.28352
 N377 N 1.16904 0.64154 -0.26910
 N378 N 1.14752 0.62580 -0.23099
 C379 C 1.13170 0.63562 -0.20534
 N380 N 1.13848 0.66195 -0.21860
 N381 N 1.15989 0.67764 -0.25716
 C382 C 1.10669 0.61765 -0.16692
 C383 C 1.09408 0.58915 -0.17185
 H384 H 1.21172 0.67640 -0.34357
 H385 H 1.09670 0.62678 -0.13960
 H386 H 1.18576 0.71390 -0.34768
 H387 H 1.10313 0.58030 -0.20344
 C388 C 0.78890 0.47283 -0.36853
 C389 C 0.81016 0.49680 -0.34153
 C390 C 0.83218 0.49645 -0.30389
 N391 N 0.85095 0.51937 -0.27207
 N392 N 0.87187 0.51963 -0.24080
 C393 C 0.87484 0.49703 -0.24075
 N394 N 0.85608 0.47415 -0.27258
 N395 N 0.83509 0.47384 -0.30343
 C396 C 0.89847 0.49730 -0.20969
 C397 C 0.91595 0.51808 -0.16759
 H398 H 0.81139 0.51640 -0.35054
 H399 H 0.90212 0.48044 -0.22009
 H400 H 0.78694 0.45312 -0.35676
 H401 H 0.91154 0.53407 -0.15330
 C402 C 0.50430 0.31019 -0.36944
 C403 C 0.48395 0.31311 -0.33751
 C404 C 0.48980 0.33823 -0.30270
 N405 N 0.46959 0.33842 -0.26670
 N406 N 0.47383 0.36138 -0.23763
 C407 C 0.49837 0.38509 -0.24392
 N408 N 0.51864 0.38495 -0.28011
 N409 N 0.51444 0.36189 -0.30896
 C410 C 0.50267 0.41058 -0.21321
 C411 C 0.48393 0.40981 -0.16755
 H412 H 0.46262 0.29675 -0.34011
 H413 H 0.52070 0.42998 -0.22619
 H414 H 0.52584 0.32569 -0.36411
 H415 H 0.46685 0.39020 -0.15203
 C416 C 0.69441 0.18294 -0.38543
 C417 C 0.69630 0.16246 -0.35206
 C418 C 0.67211 0.14162 -0.31615
 N419 N 0.67503 0.12851 -0.26419
 N420 N 0.65297 0.11073 -0.22991
 C421 C 0.62729 0.10540 -0.24681
 N422 N 0.62440 0.11811 -0.29940
 N423 N 0.64639 0.13597 -0.33323
 C424 C 0.60264 0.08629 -0.20996
 C425 C 0.60372 0.07664 -0.14867
 H426 H 0.71570 0.16259 -0.34965
 H427 H 0.58276 0.08033 -0.23133
 H428 H 0.67551 0.18382 -0.38209
 H429 H 0.62337 0.08318 -0.12544
 C430 C 1.20231 0.49842 -0.37114
 C431 C 1.17946 0.47617 -0.34281
 C432 C 1.15873 0.47962 -0.30676
 N433 N 1.13858 0.45812 -0.27331
 N434 N 1.11870 0.46050 -0.24356
 C435 C 1.11812 0.48439 -0.24676
 N436 N 1.13824 0.50587 -0.28034
 N437 N 1.15823 0.50354 -0.30971
 C438 C 1.09572 0.48687 -0.21632
 C439 C 1.07785 0.46754 -0.17179
 H440 H 1.17587 0.45550 -0.34999
 H441 H 1.09347 0.50441 -0.22856
 H442 H 1.20671 0.51919 -0.36107
 H443 H 1.08114 0.45099 -0.15616
 C444 C 0.51444 0.71336 -0.37334
 C445 C 0.53556 0.71490 -0.33477
 C446 C 0.53173 0.69107 -0.29695
 N447 N 0.55149 0.69365 -0.25502
 N448 N 0.54867 0.67182 -0.22279
 C449 C 0.52604 0.64662 -0.23170
 N450 N 0.50631 0.64407 -0.27360
 N451 N 0.50907 0.66589 -0.30552
 C452 C 0.52311 0.62208 -0.19923
 C453 C 0.54065 0.62357 -0.14988
 H454 H 0.55557 0.73350 -0.33390
 H455 H 0.50665 0.60217 -0.21498
 H456 H 0.49420 0.69505 -0.37117
 H457 H 0.55624 0.64333 -0.13127
 C458 C 0.30667 -0.19955 -0.38530
 C459 C 0.30677 -0.17574 -0.36619
 C460 C 0.33011 -0.15429 -0.32965
 N461 N 0.32749 -0.13460 -0.29756
 N462 N 0.34860 -0.11525 -0.26402
 C463 C 0.37312 -0.11477 -0.26187
 N464 N 0.37585 -0.13422 -0.29469
 N465 N 0.35470 -0.15368 -0.32778
 C466 C 0.39648 -0.09367 -0.22481
 C467 C 0.39272 -0.07794 -0.17819
 H468 H 0.28948 -0.17289 -0.37762
 H469 H 0.41679 -0.09113 -0.23277
 H470 H 0.32337 -0.20281 -0.37042
 H471 H 0.37217 -0.08159 -0.16753
 C472 C 0.53323 -0.17606 0.37313
 C473 C 0.51007 -0.17637 0.34758
 C474 C 0.51207 -0.15434 0.30596
 N475 N 0.48945 -0.15183 0.29682
 N476 N 0.49098 -0.13144 0.26086
 C477 C 0.51517 -0.11298 0.23234
 N478 N 0.53771 -0.11572 0.24064
 N479 N 0.53624 -0.13599 0.27709
 C480 C 0.51723 -0.09008 0.19393
 C481 C 0.49759 -0.08187 0.19911
 H482 H 0.48962 -0.19234 0.36217
 H483 H 0.53536 -0.07850 0.16373
 H484 H 0.55373 -0.15932 0.36178
 H485 H 0.48038 -0.09221 0.23249
 C486 C 0.28854 0.48059 0.35096
 C487 C 0.31213 0.50318 0.32593
 C488 C 0.32992 0.50043 0.27762
 N489 N 0.35560 0.52195 0.26673
 N490 N 0.37278 0.51946 0.22614
 C491 C 0.36484 0.49542 0.19450
 N492 N 0.33890 0.47404 0.20420
 N493 N 0.32175 0.47647 0.24525
 C494 C 0.38456 0.49194 0.15408
 C495 C 0.41277 0.50858 0.16399
 H496 H 0.31894 0.52349 0.34556
 H497 H 0.37698 0.47456 0.12135
 H498 H 0.28200 0.46012 0.33279
 H499 H 0.42014 0.52447 0.20079
 C500 C 1.19905 0.68654 0.38345
 C501 C 1.17796 0.68754 0.35050
 C502 C 1.15717 0.66349 0.31450
 N503 N 1.14058 0.66628 0.27119
 N504 N 1.12170 0.64453 0.23849
 C505 C 1.11858 0.61918 0.24831
 N506 N 1.13496 0.61634 0.29215
 N507 N 1.15397 0.63812 0.32447
 C508 C 1.09767 0.59502 0.21294
 C509 C 1.08492 0.59789 0.15828
 H510 H 1.17678 0.70623 0.35063
 H511 H 1.09255 0.57469 0.22956
 H512 H 1.20086 0.66823 0.38006
 H513 H 1.09115 0.61822 0.13966
 C514 C 0.46521 0.19171 0.37782
 C515 C 0.48387 0.19209 0.33250
 C516 C 0.47846 0.16695 0.29851
 N517 N 0.49048 0.16836 0.24024
 N518 N 0.48682 0.14554 0.21120
 C519 C 0.47139 0.12063 0.24005
 N520 N 0.45958 0.11927 0.29849
 N521 N 0.46288 0.14200 0.32700
 C522 C 0.46898 0.09565 0.21150
 C523 C 0.46982 0.09221 0.14499
 H524 H 0.50315 0.21092 0.32335
 H525 H 0.46562 0.07906 0.24391
 H526 H 0.44477 0.17378 0.38176
 H527 H 0.46985 0.10709 0.11160
 C528 C 0.68798 0.47156 0.36666
 C529 C 0.69098 0.49540 0.33852
 C530 C 0.66855 0.49541 0.30200
 N531 N 0.67345 0.51810 0.26815
 N532 N 0.65301 0.51892 0.23743
 C533 C 0.62686 0.49716 0.23994
 N534 N 0.62193 0.47449 0.27399
 N535 N 0.64243 0.47360 0.30436
 C536 C 0.60406 0.49832 0.20809
 C537 C 0.60911 0.51885 0.16348
 H538 H 0.70987 0.51482 0.34546
 H539 H 0.58303 0.48273 0.21961
 H540 H 0.66971 0.45193 0.35693
 H541 H 0.63010 0.53342 0.14900
 C542 C 0.80807 0.30166 0.40267
 C543 C 0.83019 0.30177 0.37145
 C544 C 0.85043 0.32627 0.33559
 N545 N 0.86643 0.32411 0.28902
 N546 N 0.88407 0.34612 0.25483
 C547 C 0.88649 0.37110 0.26633
 N548 N 0.87087 0.37335 0.31371
 N549 N 0.85307 0.35130 0.34750
 C550 C 0.90555 0.39538 0.22821
 C551 C 0.91602 0.39260 0.16929
 H552 H 0.83197 0.28342 0.37089
 H553 H 0.91086 0.41562 0.24589
 H554 H 0.80557 0.31956 0.39901
 H555 H 0.90947 0.37227 0.15010
   
