data_POSCAR
  _audit_creation_date              2014-09-24
  _audit_creation_method            'ToBaCCo'
  _symmetry_space_group_name_H-M    'P1'
  _symmetry_Int_Tables_number       1
  _symmetry_cell_setting            triclinic
  loop_
  _symmetry_equiv_pos_as_xyz
 x,y,z
_cell_length_a 46.3498
_cell_length_b 35.1803
_cell_length_c 44.2764
_cell_angle_alpha 89.341000
_cell_angle_beta 90.023000
_cell_angle_gamma 90.035500
loop_
  _atom_site_label
  _atom_site_type_symbol
  _atom_site_fract_x
  _atom_site_fract_y
  _atom_site_fract_z
C1 C 0.29168 0.29692 0.23675
 H2 H 0.29308 0.29843 0.26110
 C3 C 0.31012 0.31893 0.21871
 H4 H 0.32572 0.33759 0.22915
 C5 C 0.26990 0.27048 0.19328
 H6 H 0.25455 0.25116 0.18340
 C7 C 0.28792 0.29195 0.17445
 H8 H 0.28615 0.28938 0.15016
 N9 N 0.27180 0.27369 0.22383
 C10 C 0.20358 0.25912 0.29090
 H11 H 0.20208 0.22843 0.29156
 C12 C 0.18556 0.28086 0.30913
 H13 H 0.17016 0.26693 0.32397
 C14 C 0.22558 0.31486 0.27090
 H15 H 0.24098 0.32803 0.25579
 C16 C 0.20795 0.33767 0.28876
 H17 H 0.21006 0.36832 0.28758
 Zn18 Zn 0.24763 0.24439 0.24958
 N19 N 0.22345 0.27629 0.27269
 C20 C 0.27015 0.21897 0.30589
 N21 N 0.27185 0.21520 0.27538
 C22 C 0.29170 0.19182 0.26261
 C23 C 0.31039 0.17037 0.28079
 C24 C 0.28841 0.19807 0.32485
 C25 C 0.20342 0.22999 0.20847
 C26 C 0.18520 0.20848 0.19026
 C27 C 0.20759 0.15142 0.21012
 C28 C 0.22542 0.17402 0.22799
 N29 N 0.22336 0.21260 0.22645
 H30 H 0.25485 0.23841 0.31564
 H31 H 0.29296 0.18990 0.23828
 H32 H 0.32604 0.15169 0.27049
 H33 H 0.28685 0.20119 0.34911
 H34 H 0.20198 0.26069 0.20802
 H35 H 0.16972 0.22260 0.17563
 H36 H 0.20962 0.12075 0.21110
 H37 H 0.24092 0.16067 0.24290
 C38 C 0.18795 0.32048 0.30822
 C39 C 0.30811 0.31650 0.18728
 C40 C 0.18747 0.16885 0.19092
 C41 C 0.30865 0.17350 0.31220
 C42 C 0.79083 0.80421 0.23627
 H43 H 0.79231 0.80607 0.26060
 C44 C 0.80910 0.82614 0.21796
 H45 H 0.82462 0.84508 0.22822
 C46 C 0.76909 0.77684 0.19316
 H47 H 0.75388 0.75716 0.18352
 C48 C 0.78692 0.79818 0.17405
 H49 H 0.78506 0.79509 0.14979
 N50 N 0.77107 0.78053 0.22366
 C51 C 0.70326 0.76476 0.29107
 H52 H 0.70201 0.73404 0.29152
 C53 C 0.68509 0.78603 0.30948
 H54 H 0.66986 0.77170 0.32428
 C55 C 0.72475 0.82102 0.27140
 H56 H 0.74004 0.83456 0.25636
 C57 C 0.70697 0.84338 0.28947
 H58 H 0.70884 0.87406 0.28852
 Zn59 Zn 0.74726 0.75096 0.24962
 N60 N 0.72295 0.78241 0.27294
 C61 C 0.77010 0.72522 0.30575
 N62 N 0.77179 0.72193 0.27519
 C63 C 0.79169 0.69886 0.26218
 C64 C 0.81038 0.67711 0.28013
 C65 C 0.78837 0.70401 0.32449
 C66 C 0.70294 0.73597 0.20873
 C67 C 0.68488 0.71418 0.19056
 C68 C 0.70780 0.65746 0.21036
 C69 C 0.72547 0.68031 0.22818
 N70 N 0.72310 0.71887 0.22663
 H71 H 0.75473 0.74441 0.31570
 H72 H 0.79293 0.69729 0.23783
 H73 H 0.82601 0.65859 0.26963
 H74 H 0.78677 0.70665 0.34879
 H75 H 0.70126 0.76664 0.20827
 H76 H 0.66925 0.72807 0.17597
 H77 H 0.71009 0.62682 0.21133
 H78 H 0.74111 0.66719 0.24305
 C79 C 0.68715 0.82568 0.30885
 C80 C 0.80704 0.82315 0.18654
 C81 C 0.68750 0.67460 0.19121
 C82 C 0.80860 0.67963 0.31158
 C83 C 0.79502 0.30668 0.73815
 H84 H 0.79645 0.30788 0.76251
 C85 C 0.81350 0.32885 0.72027
 H86 H 0.82915 0.34733 0.73083
 C87 C 0.77322 0.28078 0.69449
 H88 H 0.75787 0.26159 0.68447
 C89 C 0.79126 0.30242 0.67582
 H90 H 0.78951 0.30010 0.65151
 N91 N 0.77513 0.28362 0.72507
 C92 C 0.70690 0.26742 0.79190
 H93 H 0.70540 0.23672 0.79194
 C94 C 0.68876 0.28857 0.81042
 H95 H 0.67327 0.27417 0.82487
 C96 C 0.72896 0.32376 0.77309
 H97 H 0.74445 0.33739 0.75832
 C98 C 0.71121 0.34600 0.79128
 H99 H 0.71328 0.37667 0.79069
 Zn100 Zn 0.75095 0.25384 0.75049
 N101 N 0.72684 0.28516 0.77412
 C102 C 0.77332 0.22670 0.80638
 N103 N 0.77509 0.22388 0.77580
 C104 C 0.79480 0.20067 0.76263
 C105 C 0.81319 0.17826 0.78041
 C106 C 0.79127 0.20485 0.82500
 C107 C 0.70665 0.24051 0.70920
 C108 C 0.68841 0.21944 0.69069
 C109 C 0.71066 0.16191 0.70983
 C110 C 0.72852 0.18406 0.72801
 N111 N 0.72657 0.22267 0.72695
 H112 H 0.75813 0.24602 0.81647
 H113 H 0.79610 0.19950 0.73826
 H114 H 0.82862 0.15965 0.76964
 H115 H 0.78949 0.20725 0.84933
 H116 H 0.70529 0.27121 0.70914
 H117 H 0.67298 0.23392 0.67622
 H118 H 0.71263 0.13123 0.71041
 H119 H 0.74398 0.17035 0.74276
 C120 C 0.69109 0.32819 0.81027
 C121 C 0.81150 0.32676 0.68881
 C122 C 0.69060 0.17981 0.69084
 C123 C 0.81132 0.18027 0.81193
 C124 C 0.29319 0.80275 0.73930
 H125 H 0.29415 0.80376 0.76370
 C126 C 0.31213 0.82487 0.72192
 H127 H 0.32765 0.84314 0.73290
 C128 C 0.27213 0.77732 0.69507
 H129 H 0.25690 0.75832 0.68464
 C130 C 0.29065 0.79892 0.67689
 H131 H 0.28936 0.79677 0.65253
 N132 N 0.27345 0.77994 0.72570
 C133 C 0.20407 0.76363 0.79126
 H134 H 0.20247 0.73295 0.79117
 C135 C 0.18581 0.78478 0.80965
 H136 H 0.17011 0.77040 0.82386
 C137 C 0.22658 0.81993 0.77299
 H138 H 0.24230 0.83356 0.75850
 C139 C 0.20871 0.84217 0.79105
 H140 H 0.21092 0.87283 0.79064
 Zn141 Zn 0.24876 0.75009 0.75051
 N142 N 0.22431 0.78134 0.77383
 C143 C 0.27020 0.72244 0.80669
 N144 N 0.27247 0.71995 0.77612
 C145 C 0.29248 0.69702 0.76314
 C146 C 0.31071 0.67463 0.78111
 C147 C 0.28800 0.70057 0.82545
 C148 C 0.20527 0.73691 0.70819
 C149 C 0.18748 0.71587 0.68918
 C150 C 0.20942 0.65832 0.70870
 C151 C 0.22682 0.68044 0.72737
 N152 N 0.22483 0.71905 0.72637
 H153 H 0.25477 0.74154 0.81664
 H154 H 0.29419 0.69610 0.73879
 H155 H 0.32646 0.65627 0.77063
 H156 H 0.28597 0.70262 0.84976
 H157 H 0.20386 0.76760 0.70817
 H158 H 0.17236 0.73035 0.67437
 H159 H 0.21144 0.62764 0.70925
 H160 H 0.24198 0.66671 0.74245
 C161 C 0.18832 0.82438 0.80972
 C162 C 0.31075 0.82298 0.69042
 C163 C 0.18976 0.67624 0.68926
 C164 C 0.30836 0.67637 0.81255
 C165 C -0.03364 -0.01954 0.02185
 C166 C -0.01778 -0.00189 -0.00133
 C167 C -0.03228 0.01615 -0.02531
 C168 C -0.06256 0.01709 -0.02612
 C169 C -0.07818 -0.00109 -0.00290
 C170 C -0.06394 -0.01977 0.02105
 C171 C 0.01403 -0.00260 -0.00068
 C172 C 0.02942 -0.01929 -0.02432
 C173 C 0.05971 -0.02041 -0.02382
 C174 C 0.07447 -0.00373 0.00041
 C175 C 0.05932 0.01351 0.02411
 C176 C 0.02901 0.01350 0.02353
 H177 H -0.02229 -0.03414 0.03997
 H178 H -0.01990 0.02956 -0.04325
 H179 H 0.01772 -0.03152 -0.04305
 H180 H 0.01699 0.02623 0.04180
 H181 H -0.10153 0.00011 -0.00305
 H182 H 0.09783 -0.00412 0.00081
 C183 C -0.02805 0.48582 0.52266
 C184 C -0.01315 0.50261 0.49841
 C185 C -0.02861 0.51984 0.47474
 C186 C -0.05890 0.52080 0.47526
 C187 C -0.07358 0.50344 0.49955
 C188 C -0.05835 0.48567 0.52327
 C189 C 0.01866 0.50208 0.49779
 C190 C 0.03323 0.48447 0.47401
 C191 C 0.06352 0.48349 0.47335
 C192 C 0.07908 0.50128 0.49651
 C193 C 0.06474 0.51952 0.52027
 C194 C 0.03444 0.51932 0.52091
 H195 H -0.01597 0.47267 0.54096
 H196 H -0.01696 0.53263 0.45598
 H197 H 0.02089 0.47136 0.45612
 H198 H 0.02302 0.53357 0.53888
 H199 H -0.09694 0.50373 0.49997
 H200 H 0.10243 0.50006 0.49648
 C201 C 0.47215 -0.01523 0.52646
 C202 C 0.48672 0.00206 0.50219
 C203 C 0.47094 0.01931 0.47874
 C204 C 0.44065 0.01991 0.47960
 C205 C 0.42633 0.00194 0.50383
 C206 C 0.44186 -0.01583 0.52731
 C207 C 0.51852 0.00250 0.50153
 C208 C 0.53340 -0.01521 0.47799
 C209 C 0.56370 -0.01558 0.47752
 C210 C 0.57892 0.00312 0.50046
 C211 C 0.56427 0.02147 0.52394
 C212 C 0.53398 0.02052 0.52451
 H213 H 0.48447 -0.02832 0.54460
 H214 H 0.48236 0.03332 0.46038
 H215 H 0.52131 -0.02974 0.46063
 H216 H 0.52232 0.03476 0.54232
 H217 H 0.40297 0.00098 0.50402
 H218 H 0.60229 0.00333 0.50007
 C219 C 0.46900 0.47969 0.02416
 C220 C 0.48421 0.49746 0.00056
 C221 C 0.46905 0.51486 -0.02325
 C222 C 0.43875 0.51504 -0.02349
 C223 C 0.42377 0.49673 0.00015
 C224 C 0.43871 0.47879 0.02399
 C225 C 0.51603 0.49789 0.00078
 C226 C 0.53148 0.48161 -0.02299
 C227 C 0.56178 0.48154 -0.02286
 C228 C 0.57648 0.49888 0.00112
 C229 C 0.56124 0.51573 0.02493
 C230 C 0.53095 0.51467 0.02473
 H231 H 0.48084 0.46644 0.04258
 H232 H 0.48093 0.52842 -0.04149
 H233 H 0.51982 0.46884 -0.04152
 H234 H 0.51888 0.52709 0.04311
 H235 H 0.40041 0.49646 -0.00001
 H236 H 0.59984 0.49928 0.00124
 C237 C 0.11723 -0.04220 -0.08217
 C238 C 0.10767 -0.07720 -0.09307
 C239 C 0.08211 -0.09319 -0.08189
 C240 C 0.06631 -0.07447 -0.05966
 C241 C 0.17052 -0.15349 -0.17049
 C242 C 0.10147 -0.02343 -0.05992
 C243 C 0.12453 -0.09733 -0.11500
 C244 C 0.13884 -0.11462 -0.13294
 C245 C 0.15582 -0.13536 -0.15344
 C246 C 0.07592 -0.03950 -0.04827
 H247 H 0.13698 -0.02956 -0.09068
 H248 H 0.07459 -0.12037 -0.09005
 H249 H 0.04694 -0.08780 -0.05088
 H250 H 0.10921 0.00368 -0.05190
 C251 C 0.08409 0.40788 0.41683
 C252 C 0.10937 0.42321 0.40443
 C253 C 0.11928 0.45870 0.41396
 C254 C 0.10417 0.47860 0.43606
 C255 C 0.17044 0.34329 0.32780
 C256 C 0.06894 0.42773 0.43892
 C257 C 0.12564 0.40195 0.38270
 C258 C 0.13952 0.38378 0.36495
 C259 C 0.15606 0.36211 0.34467
 C260 C 0.07893 0.46320 0.44895
 H261 H 0.07631 0.38035 0.40974
 H262 H 0.13882 0.47084 0.40450
 H263 H 0.11220 0.50604 0.44305
 H264 H 0.04980 0.41490 0.44869
 C265 C 0.58543 -0.05364 0.40083
 C266 C 0.60974 -0.07534 0.40843
 C267 C 0.61894 -0.07750 0.43849
 C268 C 0.60396 -0.05807 0.46090
 C269 C 0.66961 -0.15206 0.32880
 C270 C 0.57038 -0.03416 0.42326
 C271 C 0.62535 -0.09559 0.38559
 C272 C 0.63890 -0.11298 0.36708
 C273 C 0.65526 -0.13383 0.34611
 C274 C 0.57953 -0.03611 0.45355
 H275 H 0.57815 -0.05174 0.37761
 H276 H 0.63765 -0.09434 0.44465
 H277 H 0.61127 -0.06065 0.48407
 H278 H 0.55182 -0.01720 0.41687
 C279 C 0.61910 0.46119 -0.08176
 C280 C 0.61010 0.42578 -0.09235
 C281 C 0.58497 0.40904 -0.08079
 C282 C 0.56904 0.42742 -0.05850
 C283 C 0.67333 0.35031 -0.16992
 C284 C 0.60320 0.47963 -0.05944
 C285 C 0.62713 0.40599 -0.11433
 C286 C 0.64154 0.38891 -0.13230
 C287 C 0.65860 0.36835 -0.15284
 C288 C 0.57809 0.46281 -0.04741
 H289 H 0.63852 0.47441 -0.09056
 H290 H 0.57790 0.38154 -0.08872
 H291 H 0.55003 0.41353 -0.04941
 H292 H 0.61051 0.50706 -0.05165
 C293 C -0.08339 0.09357 -0.08322
 C294 C -0.10865 0.07831 -0.09548
 C295 C -0.11834 0.04252 -0.08580
 C296 C -0.10310 0.02229 -0.06361
 C297 C -0.17193 0.15942 -0.17084
 C298 C -0.06810 0.07338 -0.06104
 C299 C -0.12526 0.10002 -0.11706
 C300 C -0.13958 0.11848 -0.13458
 C301 C -0.15681 0.14041 -0.15444
 C302 C -0.07794 0.03765 -0.05078
 H303 H -0.07578 0.12135 -0.09043
 H304 H -0.13787 0.03044 -0.09514
 H305 H -0.11101 -0.00535 -0.05646
 H306 H -0.04902 0.08616 -0.05134
 C307 C -0.11677 0.54393 0.41720
 C308 C -0.10747 0.57940 0.40636
 C309 C -0.08188 0.59519 0.41737
 C310 C -0.06583 0.57585 0.43942
 C311 C -0.17260 0.65743 0.33070
 C312 C -0.10076 0.52455 0.43927
 C313 C -0.12474 0.60020 0.38479
 C314 C -0.13951 0.61796 0.36723
 C315 C -0.15719 0.63910 0.34725
 C316 C -0.07523 0.54045 0.45081
 H317 H -0.13655 0.53144 0.40883
 H318 H -0.07456 0.62272 0.40925
 H319 H -0.04646 0.58903 0.44812
 H320 H -0.10835 0.49713 0.44730
 C321 C 0.38376 0.08062 0.44085
 C322 C 0.39174 0.07773 0.41050
 C323 C 0.41582 0.05597 0.40261
 C324 C 0.43182 0.03714 0.42503
 C325 C 0.32758 0.15188 0.33161
 C326 C 0.39968 0.06184 0.46325
 C327 C 0.37508 0.09724 0.38769
 C328 C 0.36058 0.11403 0.36929
 C329 C 0.34302 0.13421 0.34858
 C330 C 0.42387 0.03980 0.45561
 H331 H 0.36523 0.09751 0.44722
 H332 H 0.42216 0.05350 0.37917
 H333 H 0.45017 0.02010 0.41843
 H334 H 0.39327 0.06495 0.48660
 C335 C 0.41607 0.59046 -0.08064
 C336 C 0.39095 0.57441 -0.09256
 C337 C 0.38189 0.53845 -0.08257
 C338 C 0.39767 0.51882 -0.06046
 C339 C 0.32679 0.65367 -0.16831
 C340 C 0.43188 0.57088 -0.05854
 C341 C 0.37390 0.59545 -0.11416
 C342 C 0.35933 0.61346 -0.13175
 C343 C 0.34194 0.63497 -0.15174
 C344 C 0.42272 0.53497 -0.04801
 H345 H 0.42319 0.61837 -0.08810
 H346 H 0.36248 0.52576 -0.09165
 H347 H 0.39028 0.49102 -0.05309
 H348 H 0.45086 0.58426 -0.04913
 C349 C -0.08848 -0.05763 0.09759
 C350 C -0.11269 -0.07906 0.08950
 C351 C -0.12095 -0.08100 0.05917
 C352 C -0.10513 -0.06166 0.03698
 C353 C -0.17552 -0.15582 0.16805
 C354 C -0.07258 -0.03824 0.07539
 C355 C -0.12910 -0.09931 0.11210
 C356 C -0.14331 -0.11671 0.13040
 C357 C -0.16046 -0.13758 0.15106
 C358 C -0.08077 -0.04003 0.04482
 H359 H -0.08192 -0.05589 0.12102
 H360 H -0.13958 -0.09763 0.05263
 H361 H -0.11172 -0.06409 0.01361
 H362 H -0.05411 -0.02151 0.08216
 C363 C -0.08057 0.41137 0.58156
 C364 C -0.10560 0.42761 0.59346
 C365 C -0.11469 0.46340 0.58314
 C366 C -0.09907 0.48264 0.56069
 C367 C -0.16988 0.34929 0.66973
 C368 C -0.06491 0.43056 0.55912
 C369 C -0.12259 0.40687 0.61530
 C370 C -0.13717 0.38908 0.63303
 C371 C -0.15463 0.36781 0.65314
 C372 C -0.07414 0.46626 0.54823
 H373 H -0.07343 0.38358 0.58926
 H374 H -0.13404 0.47624 0.59220
 H375 H -0.10650 0.51029 0.55305
 H376 H -0.04602 0.41700 0.54972
 C377 C 0.42024 -0.09096 0.58522
 C378 C 0.39505 -0.07517 0.59714
 C379 C 0.38575 -0.03936 0.58708
 C380 C 0.40129 -0.01969 0.56481
 C381 C 0.32983 -0.15449 0.67184
 C382 C 0.43584 -0.07132 0.56295
 C383 C 0.37799 -0.09640 0.61862
 C384 C 0.36323 -0.11446 0.63601
 C385 C 0.34543 -0.13590 0.65566
 C386 C 0.42634 -0.03564 0.55226
 H387 H 0.42754 -0.11875 0.59272
 H388 H 0.36628 -0.02687 0.59615
 H389 H 0.39366 0.00793 0.55732
 H390 H 0.45483 -0.08453 0.55348
 C391 C 0.41628 0.40304 0.08101
 C392 C 0.39086 0.41860 0.09258
 C393 C 0.38149 0.45432 0.08240
 C394 C 0.39727 0.47422 0.06044
 C395 C 0.32663 0.33902 0.16809
 C396 C 0.43210 0.42289 0.05905
 C397 C 0.37383 0.39732 0.11406
 C398 C 0.35926 0.37920 0.13158
 C399 C 0.34183 0.35766 0.15153
 C400 C 0.42264 0.45857 0.04833
 H401 H 0.42364 0.37532 0.08862
 H402 H 0.36185 0.46664 0.09122
 H403 H 0.38965 0.50184 0.05293
 H404 H 0.45133 0.40990 0.04991
 C405 C 0.08165 0.08627 0.08226
 C406 C 0.10666 0.06968 0.09422
 C407 C 0.11576 0.03418 0.08393
 C408 C 0.10013 0.01556 0.06148
 C409 C 0.16967 0.14635 0.17136
 C410 C 0.06598 0.06770 0.05983
 C411 C 0.12355 0.08977 0.11618
 C412 C 0.13790 0.10711 0.13408
 C413 C 0.15494 0.12801 0.15446
 C414 C 0.07518 0.03227 0.04900
 H415 H 0.07450 0.11383 0.08995
 H416 H 0.13509 0.02107 0.09303
 H417 H 0.10754 -0.01190 0.05388
 H418 H 0.04710 0.08153 0.05040
 C419 C 0.08855 0.55603 0.59679
 C420 C 0.11273 0.57778 0.58883
 C421 C 0.12135 0.58020 0.55859
 C422 C 0.10584 0.56109 0.53635
 C423 C 0.17255 0.65420 0.66882
 C424 C 0.07297 0.53688 0.57456
 C425 C 0.12862 0.59799 0.61150
 C426 C 0.14221 0.61534 0.63004
 C427 C 0.15842 0.63610 0.65121
 C428 C 0.08144 0.53925 0.54407
 H429 H 0.08171 0.55391 0.62014
 H430 H 0.13997 0.59708 0.55216
 H431 H 0.11266 0.56393 0.51304
 H432 H 0.05448 0.51995 0.58124
 C433 C 0.62013 0.08396 0.56159
 C434 C 0.61183 0.08134 0.59192
 C435 C 0.58794 0.05917 0.60013
 C436 C 0.57241 0.03965 0.57806
 C437 C 0.67290 0.15776 0.67087
 C438 C 0.60467 0.06449 0.53953
 C439 C 0.62790 0.10160 0.61443
 C440 C 0.64175 0.11894 0.63276
 C441 C 0.65838 0.13968 0.65359
 C442 C 0.58064 0.04206 0.54751
 H443 H 0.63851 0.10117 0.55497
 H444 H 0.58136 0.05690 0.62356
 H445 H 0.55419 0.02231 0.58493
 H446 H 0.61127 0.06739 0.51616
 C447 C 0.58264 0.58933 0.08279
 C448 C 0.60801 0.57355 0.09458
 C449 C 0.61772 0.53837 0.08423
 C450 C 0.60232 0.51923 0.06189
 C451 C 0.66993 0.65181 0.17164
 C452 C 0.56719 0.57024 0.06047
 C453 C 0.62460 0.59413 0.11649
 C454 C 0.63869 0.61187 0.13436
 C455 C 0.65543 0.63317 0.15474
 C456 C 0.57698 0.53511 0.04960
 H457 H 0.57501 0.61664 0.09052
 H458 H 0.63734 0.52589 0.09321
 H459 H 0.61019 0.49201 0.05426
 H460 H 0.54798 0.58343 0.05118
   
