data_POSCAR
  _audit_creation_date              2014-09-24
  _audit_creation_method            'ToBaCCo'
  _symmetry_space_group_name_H-M    'P1'
  _symmetry_Int_Tables_number       1
  _symmetry_cell_setting            triclinic
  loop_
  _symmetry_equiv_pos_as_xyz
 x,y,z
_cell_length_a 33.3807
_cell_length_b 33.3282
_cell_length_c 45.3473
_cell_angle_alpha 90.068000
_cell_angle_beta 89.300600
_cell_angle_gamma 89.698700
loop_
  _atom_site_label
  _atom_site_type_symbol
  _atom_site_fract_x
  _atom_site_fract_y
  _atom_site_fract_z
C1 C -0.00012 0.50151 0.98593
 C2 C 0.00088 0.50140 1.01598
 C3 C -0.00099 0.53922 1.03335
 C4 C 0.00384 0.46345 1.03300
 C5 C -0.00325 0.46372 0.96869
 C6 C 0.00187 0.53941 0.96875
 C7 C 0.02854 0.54721 1.05431
 C8 C 0.02730 0.58275 1.07067
 C9 C -0.00371 0.61061 1.06643
 C10 C -0.03364 0.60252 1.04585
 C11 C -0.03239 0.56692 1.02951
 C12 C 0.03491 0.43575 1.02733
 C13 C 0.03708 0.39996 1.04332
 C14 C 0.00847 0.39171 1.06529
 C15 C -0.02212 0.41951 1.07138
 C16 C -0.02434 0.45525 1.05540
 C17 C -0.03446 0.43647 0.97419
 C18 C -0.03684 0.40088 0.95796
 C19 C -0.00831 0.39239 0.93590
 C20 C 0.02244 0.41975 0.93000
 C21 C 0.02487 0.45529 0.94622
 C22 C -0.02762 0.54793 0.94781
 C23 C -0.02618 0.58352 0.93159
 C24 C 0.00490 0.61084 0.93596
 C25 C 0.03475 0.60229 0.95649
 C26 C 0.03337 0.56666 0.97272
 H27 H 0.05284 0.52611 1.05771
 H28 H 0.05063 0.58845 1.08655
 H29 H -0.05797 0.62361 1.04240
 H30 H -0.05589 0.56094 1.01387
 H31 H 0.05740 0.44185 1.01054
 H32 H 0.06100 0.37876 1.03853
 H33 H -0.04836 0.47633 1.06023
 H34 H -0.05691 0.44278 0.99103
 H35 H -0.06088 0.38002 0.96260
 H36 H 0.04460 0.41353 0.91292
 H37 H 0.04899 0.47603 0.94153
 H38 H -0.05199 0.52720 0.94429
 H39 H -0.04937 0.58978 0.91570
 H40 H 0.05906 0.62312 0.95994
 H41 H 0.05684 0.56029 0.98834
 H42 H -0.04434 0.41347 1.08840
 C43 C 0.50010 -0.00184 0.48467
 C44 C 0.49967 -0.00176 0.51474
 C45 C 0.46162 -0.00421 0.53199
 C46 C 0.53721 0.00088 0.53191
 C47 C 0.53817 -0.00431 0.46740
 C48 C 0.46252 0.00065 0.46751
 C49 C 0.45287 0.02476 0.55367
 C50 C 0.41705 0.02301 0.56987
 C51 C 0.38974 -0.00788 0.56474
 C52 C 0.39855 -0.03725 0.54349
 C53 C 0.43440 -0.03556 0.52728
 C54 C 0.56447 0.03228 0.52709
 C55 C 0.59980 0.03424 0.54328
 C56 C 0.60801 0.00508 0.56461
 C57 C 0.58066 -0.02588 0.56983
 C58 C 0.54537 -0.02789 0.55365
 C59 C 0.56579 -0.03557 0.47216
 C60 C 0.60165 -0.03731 0.45593
 C61 C 0.61005 -0.00808 0.43460
 C62 C 0.58235 0.02272 0.42943
 C63 C 0.54653 0.02451 0.44566
 C64 C 0.45467 -0.02828 0.44582
 C65 C 0.41935 -0.02641 0.42965
 C66 C 0.39164 0.00457 0.43483
 C67 C 0.39955 0.03387 0.45610
 C68 C 0.43491 0.03206 0.47227
 H69 H 0.47356 0.04902 0.55775
 H70 H 0.41058 0.04583 0.58632
 H71 H 0.37772 -0.06141 0.53945
 H72 H 0.44095 -0.05864 0.51107
 H73 H 0.55836 0.05522 0.51084
 H74 H 0.62066 0.05845 0.53918
 H75 H 0.52462 -0.05217 0.55781
 H76 H 0.55956 -0.05854 0.48843
 H77 H 0.62279 -0.06139 0.46000
 H78 H 0.58850 0.04541 0.41292
 H79 H 0.52552 0.04868 0.44153
 H80 H 0.47570 -0.05256 0.44169
 H81 H 0.41358 -0.04917 0.41318
 H82 H 0.37842 0.05809 0.46017
 H83 H 0.44077 0.05511 0.48848
 H84 H 0.58667 -0.04852 0.58634
 C85 C 0.08624 0.00377 0.25976
 H86 H 0.08790 0.00465 0.23593
 C87 C 0.12128 0.00535 0.27622
 H88 H 0.15009 0.00729 0.26508
 C89 C 0.04665 0.00062 0.30349
 H90 H 0.01752 -0.00061 0.31406
 C91 C 0.08097 0.00215 0.32079
 H92 H 0.07818 0.00167 0.34461
 N93 N 0.04991 0.00096 0.27354
 C94 C -0.02831 -0.05400 0.20869
 H95 H -0.05234 -0.03211 0.20819
 C96 C -0.03055 -0.08877 0.19156
 H97 H -0.05629 -0.09366 0.17771
 C98 C 0.03429 -0.07486 0.22775
 H99 H 0.05916 -0.06973 0.24225
 C100 C 0.03322 -0.11001 0.21099
 H101 H 0.05748 -0.13162 0.21241
 Zn102 Zn 0.00401 -0.00036 0.24944
 N103 N 0.00395 -0.04752 0.22610
 C104 C 0.00550 0.04317 0.19536
 N105 N 0.00553 0.04596 0.22532
 C106 C 0.00812 0.08213 0.23911
 C107 C 0.00978 0.11749 0.22267
 C108 C 0.00712 0.07782 0.17808
 C109 C -0.05000 -0.03337 0.29029
 C110 C -0.08486 -0.03584 0.30754
 C111 C -0.10594 0.02826 0.28808
 C112 C -0.07069 0.02956 0.27121
 N113 N -0.04338 -0.00082 0.27283
 H114 H 0.00442 0.01416 0.18479
 H115 H 0.00875 0.08342 0.26294
 H116 H 0.01152 0.14617 0.23382
 H117 H 0.00686 0.07542 0.15426
 H118 H -0.02812 -0.05741 0.29077
 H119 H -0.08985 -0.06178 0.32146
 H120 H -0.12751 0.05257 0.28671
 H121 H -0.06544 0.05466 0.25667
 C122 C 0.00054 -0.11698 0.19271
 C123 C 0.11860 0.00440 0.30701
 C124 C -0.11303 -0.00469 0.30644
 C125 C 0.00913 0.11530 0.19188
 C126 C -0.00891 0.08387 0.76032
 H127 H -0.00957 0.08515 0.73650
 C128 C -0.01070 0.11925 0.77682
 H129 H -0.01259 0.14795 0.76571
 C130 C -0.00603 0.04493 0.80401
 H131 H -0.00479 0.01593 0.81455
 C132 C -0.00778 0.07960 0.82134
 H133 H -0.00745 0.07721 0.84516
 N134 N -0.00610 0.04769 0.77406
 C135 C 0.04998 -0.03205 0.70907
 H136 H 0.02830 -0.05606 0.70865
 C137 C 0.08483 -0.03470 0.69180
 H138 H 0.09001 -0.06072 0.67791
 C139 C 0.07016 0.03094 0.72806
 H140 H 0.06473 0.05613 0.74258
 C141 C 0.10540 0.02947 0.71115
 H142 H 0.12676 0.05374 0.71248
 Zn143 Zn -0.00424 0.00128 0.74994
 N144 N 0.04311 0.00060 0.72651
 C145 C -0.04698 0.00206 0.69593
 N146 N -0.05020 0.00257 0.72589
 C147 C -0.08654 0.00549 0.73968
 C148 C -0.12162 0.00700 0.72325
 C149 C -0.08133 0.00353 0.67866
 C150 C 0.02866 -0.05217 0.79069
 C151 C 0.03117 -0.08671 0.80799
 C152 C -0.03254 -0.10794 0.78880
 C153 C -0.03389 -0.07299 0.77186
 N154 N -0.00372 -0.04575 0.77333
 H155 H -0.01785 0.00074 0.68535
 H156 H -0.08819 0.00650 0.76352
 H157 H -0.15044 0.00902 0.73441
 H158 H -0.07857 0.00290 0.65483
 H159 H 0.05253 -0.03035 0.79106
 H160 H 0.05697 -0.09152 0.82184
 H161 H -0.05668 -0.12945 0.78755
 H162 H -0.05886 -0.06792 0.75740
 C163 C 0.11274 -0.00360 0.69283
 C164 C -0.00997 0.11708 0.80760
 C165 C 0.00024 -0.11479 0.80706
 C166 C -0.11897 0.00587 0.69246
 C167 C -0.00503 -0.28884 0.11256
 N168 N 0.00009 -0.28999 0.14217
 N169 N 0.00072 -0.25614 0.15783
 C170 C -0.00373 -0.22012 0.14435
 N171 N -0.00887 -0.21896 0.11474
 N172 N -0.00950 -0.25282 0.09908
 C173 C -0.00500 -0.32528 0.09568
 C174 C -0.00458 -0.35600 0.08160
 C175 C -0.00251 -0.18369 0.16120
 C176 C -0.00124 -0.15321 0.17549
 C177 C 0.01213 0.28709 0.11180
 N178 N -0.00077 0.25242 0.09953
 N179 N -0.00082 0.21849 0.11505
 C180 C 0.01202 0.21821 0.14331
 N181 N 0.02494 0.25287 0.15557
 N182 N 0.02499 0.28680 0.14005
 C183 C 0.01136 0.32379 0.09531
 C184 C 0.01030 0.35472 0.08157
 C185 C 0.01129 0.18185 0.16021
 C186 C 0.01042 0.15143 0.17457
 C187 C 0.28492 -0.01003 0.61188
 N188 N 0.28451 -0.02207 0.64044
 N189 N 0.25051 -0.02142 0.65616
 C190 C 0.21591 -0.00869 0.64380
 N191 N 0.21631 0.00332 0.61523
 N192 N 0.25031 0.00266 0.59951
 C193 C 0.32169 -0.00984 0.59517
 C194 C 0.35267 -0.00922 0.58124
 C195 C 0.17948 -0.00724 0.66090
 C196 C 0.14899 -0.00572 0.67539
 C197 C -0.28884 0.00851 0.61184
 N198 N -0.28992 0.01840 0.64086
 N199 N -0.25642 0.01838 0.65655
 C200 C -0.22083 0.00845 0.64370
 N201 N -0.21973 -0.00142 0.61467
 N202 N -0.25324 -0.00139 0.59898
 C203 C -0.32502 0.00778 0.59510
 C204 C -0.35551 0.00678 0.58114
 C205 C -0.18488 0.00781 0.66072
 C206 C -0.15478 0.00704 0.67513
 C207 C 0.00655 -0.28529 0.88850
 N208 N -0.00732 -0.25059 0.90061
 N209 N -0.00803 -0.21694 0.88477
 C210 C 0.00510 -0.21697 0.85635
 N211 N 0.01899 -0.25166 0.84425
 N212 N 0.01970 -0.28531 0.86008
 C213 C 0.00649 -0.32171 0.90534
 C214 C 0.00602 -0.35241 0.91936
 C215 C 0.00368 -0.18091 0.83913
 C216 C 0.00223 -0.15072 0.82457
 C217 C -0.01259 0.28838 0.88858
 N218 N -0.00250 0.25293 0.90121
 N219 N -0.00258 0.21915 0.88545
 C220 C -0.01275 0.21980 0.85659
 N221 N -0.02287 0.25525 0.84397
 N222 N -0.02278 0.28903 0.85972
 C223 C -0.01163 0.32488 0.90536
 C224 C -0.01037 0.35562 0.91934
 C225 C -0.01212 0.18357 0.83947
 C226 C -0.01128 0.15321 0.82499
 C227 C -0.28523 -0.01046 0.38731
 N228 N -0.28523 -0.01993 0.35822
 N229 N -0.25125 -0.01939 0.34249
 C230 C -0.21625 -0.00934 0.35538
 N231 N -0.21624 0.00011 0.38448
 N232 N -0.25022 -0.00044 0.40021
 C233 C -0.32196 -0.01018 0.40408
 C234 C -0.35291 -0.00949 0.41805
 C235 C -0.17981 -0.00803 0.33831
 C236 C -0.14930 -0.00664 0.32384
 C237 C 0.28842 0.00759 0.38764
 N238 N 0.28921 0.01829 0.35880
 N239 N 0.25571 0.01815 0.34311
 C240 C 0.22040 0.00729 0.35580
 N241 N 0.21959 -0.00338 0.38466
 N242 N 0.25310 -0.00324 0.40034
 C243 C 0.32463 0.00700 0.40436
 C244 C 0.35514 0.00612 0.41831
 C245 C 0.18446 0.00653 0.33878
 C246 C 0.15437 0.00567 0.32436
   
