data_POSCAR
  _audit_creation_date              2014-09-24
  _audit_creation_method            'ToBaCCo'
  _symmetry_space_group_name_H-M    'P1'
  _symmetry_Int_Tables_number       1
  _symmetry_cell_setting            triclinic
  loop_
  _symmetry_equiv_pos_as_xyz
 x,y,z
_cell_length_a 74.8043
_cell_length_b 40.6424
_cell_length_c 24.6567
_cell_angle_alpha 89.953600
_cell_angle_beta 89.888600
_cell_angle_gamma 90.136600
loop_
  _atom_site_label
  _atom_site_type_symbol
  _atom_site_fract_x
  _atom_site_fract_y
  _atom_site_fract_z
C1 C 0.74981 0.25013 0.47549
 C2 C 0.74971 0.25053 0.53082
 C3 C 0.73489 0.26591 0.56195
 C4 C 0.76443 0.23565 0.56283
 C5 C 0.76564 0.23869 0.44431
 C6 C 0.73410 0.26114 0.44354
 C7 C 0.72983 0.29866 0.55216
 C8 C 0.71551 0.31255 0.58049
 C9 C 0.70623 0.29396 0.61938
 C10 C 0.71151 0.26154 0.63022
 C11 C 0.72581 0.24766 0.60182
 C12 C 0.77344 0.25455 0.60186
 C13 C 0.78771 0.24114 0.63085
 C14 C 0.79302 0.20863 0.62144
 C15 C 0.78382 0.18939 0.58352
 C16 C 0.76953 0.20276 0.55455
 C17 C 0.76370 0.21379 0.40529
 C18 C 0.77859 0.20215 0.37693
 C19 C 0.79554 0.21548 0.38694
 C20 C 0.79751 0.24083 0.42490
 C21 C 0.78262 0.25252 0.45324
 C22 C 0.71708 0.24748 0.45275
 C23 C 0.70229 0.25885 0.42375
 C24 C 0.70440 0.28370 0.38489
 C25 C 0.72139 0.29682 0.37459
 C26 C 0.73619 0.28550 0.40360
 H27 H 0.73689 0.31334 0.52231
 H28 H 0.71166 0.33771 0.57173
 H29 H 0.70451 0.24682 0.66024
 H30 H 0.72960 0.22245 0.61017
 H31 H 0.76964 0.27988 0.60903
 H32 H 0.79473 0.25622 0.66015
 H33 H 0.76254 0.18759 0.52534
 H34 H 0.75071 0.20295 0.39760
 H35 H 0.77692 0.18257 0.34757
 H36 H 0.81055 0.25142 0.43279
 H37 H 0.78435 0.27218 0.48241
 H38 H 0.71525 0.22823 0.48266
 H39 H 0.68921 0.24844 0.43189
 H40 H 0.72317 0.31602 0.34454
 H41 H 0.74921 0.29619 0.39570
 H42 H 0.78778 0.16417 0.57607
 C43 C 0.24967 0.74853 0.47276
 C44 C 0.24979 0.74886 0.52809
 C45 C 0.23512 0.76429 0.55975
 C46 C 0.26463 0.73394 0.55957
 C47 C 0.26537 0.73708 0.44105
 C48 C 0.23387 0.75974 0.44136
 C49 C 0.23011 0.79711 0.55030
 C50 C 0.21591 0.81102 0.57913
 C51 C 0.20672 0.79241 0.61807
 C52 C 0.21194 0.75997 0.62861
 C53 C 0.22612 0.74602 0.59976
 C54 C 0.27377 0.75280 0.59838
 C55 C 0.28813 0.73935 0.62695
 C56 C 0.29339 0.70683 0.61735
 C57 C 0.28407 0.68764 0.57963
 C58 C 0.26969 0.70105 0.55107
 C59 C 0.26330 0.71211 0.40223
 C60 C 0.27810 0.70040 0.37350
 C61 C 0.29508 0.71375 0.38295
 C62 C 0.29717 0.73920 0.42065
 C63 C 0.28238 0.75096 0.44936
 C64 C 0.21684 0.74626 0.45107
 C65 C 0.20198 0.75782 0.42257
 C66 C 0.20403 0.78268 0.38368
 C67 C 0.22103 0.79563 0.37290
 C68 C 0.23589 0.78412 0.40141
 H69 H 0.23710 0.81181 0.52034
 H70 H 0.21202 0.83618 0.57081
 H71 H 0.20493 0.74538 0.65872
 H72 H 0.22986 0.72076 0.60786
 H73 H 0.27000 0.77812 0.60573
 H74 H 0.29523 0.75440 0.65611
 H75 H 0.26260 0.68591 0.52206
 H76 H 0.25028 0.70125 0.39502
 H77 H 0.27633 0.68074 0.34434
 H78 H 0.31024 0.74980 0.42810
 H79 H 0.28420 0.77067 0.47837
 H80 H 0.21505 0.72700 0.48099
 H81 H 0.18890 0.74754 0.43109
 H82 H 0.22277 0.81483 0.34283
 H83 H 0.24892 0.79469 0.39313
 H84 H 0.28799 0.66241 0.57205
 C85 C 0.25027 0.24822 -0.47384
 C86 C 0.25043 0.24801 -0.52917
 C87 C 0.26530 0.26312 -0.56061
 C88 C 0.23575 0.23266 -0.56088
 C89 C 0.23439 0.23704 -0.44247
 C90 C 0.26596 0.25963 -0.44209
 C91 C 0.27037 0.29602 -0.55188
 C92 C 0.28473 0.30967 -0.58055
 C93 C 0.29404 0.29070 -0.61865
 C94 C 0.28877 0.25814 -0.62843
 C95 C 0.27443 0.24448 -0.59973
 C96 C 0.22686 0.25101 -0.60080
 C97 C 0.21267 0.23713 -0.62974
 C98 C 0.20733 0.20466 -0.61937
 C99 C 0.21642 0.18598 -0.58045
 C100 C 0.23062 0.19984 -0.55156
 C101 C 0.23626 0.21259 -0.40263
 C102 C 0.22132 0.20117 -0.37406
 C103 C 0.20438 0.21427 -0.38471
 C104 C 0.20249 0.23921 -0.42354
 C105 C 0.21743 0.25066 -0.45207
 C106 C 0.28297 0.24591 -0.45065
 C107 C 0.29774 0.25763 -0.42187
 C108 C 0.29564 0.28290 -0.38385
 C109 C 0.27866 0.29609 -0.37416
 C110 C 0.26387 0.28442 -0.40296
 H111 H 0.26329 0.31100 -0.52263
 H112 H 0.28860 0.33494 -0.57272
 H113 H 0.29582 0.24318 -0.65786
 H114 H 0.27064 0.21915 -0.60726
 H115 H 0.23069 0.27627 -0.60879
 H116 H 0.20579 0.25187 -0.65979
 H117 H 0.23753 0.18509 -0.52165
 H118 H 0.24923 0.20193 -0.39443
 H119 H 0.22300 0.18191 -0.34406
 H120 H 0.18948 0.24968 -0.43206
 H121 H 0.21576 0.26997 -0.48191
 H122 H 0.28479 0.22633 -0.47990
 H123 H 0.31081 0.24716 -0.42952
 H124 H 0.27688 0.31561 -0.34475
 H125 H 0.25086 0.29516 -0.39554
 H126 H 0.21249 0.16078 -0.57215
 C127 C -0.25072 0.75204 -0.47414
 C128 C -0.25079 0.75225 -0.52947
 C129 C -0.23609 0.76772 -0.56116
 C130 C -0.26556 0.73700 -0.56093
 C131 C -0.26644 0.74050 -0.44242
 C132 C -0.23492 0.76336 -0.44274
 C133 C -0.23105 0.80058 -0.55189
 C134 C -0.21680 0.81453 -0.58066
 C135 C -0.20758 0.79590 -0.61941
 C136 C -0.21284 0.76340 -0.62977
 C137 C -0.22707 0.74944 -0.60096
 C138 C -0.27468 0.75556 -0.60011
 C139 C -0.28895 0.74177 -0.62878
 C140 C -0.29415 0.70917 -0.61889
 C141 C -0.28484 0.69028 -0.58074
 C142 C -0.27056 0.70406 -0.55211
 C143 C -0.26436 0.71572 -0.40324
 C144 C -0.27916 0.70391 -0.37445
 C145 C -0.29617 0.71697 -0.38422
 C146 C -0.29826 0.74225 -0.42235
 C147 C -0.28346 0.75408 -0.45109
 C148 C -0.21791 0.74989 -0.45225
 C149 C -0.20305 0.76150 -0.42372
 C150 C -0.20508 0.78641 -0.38500
 C151 C -0.22206 0.79935 -0.37441
 C152 C -0.23692 0.78779 -0.40296
 H153 H -0.23806 0.81528 -0.52209
 H154 H -0.21294 0.83975 -0.57237
 H155 H -0.20585 0.74872 -0.65970
 H156 H -0.23083 0.72414 -0.60890
 H157 H -0.27096 0.78092 -0.60770
 H158 H -0.29600 0.75666 -0.65825
 H159 H -0.26347 0.68914 -0.52281
 H160 H -0.25133 0.70508 -0.39576
 H161 H -0.27734 0.68440 -0.34500
 H162 H -0.31133 0.75269 -0.43017
 H163 H -0.28528 0.77364 -0.48040
 H164 H -0.21614 0.73059 -0.48203
 H165 H -0.18999 0.75122 -0.43207
 H166 H -0.22378 0.81858 -0.34446
 H167 H -0.24994 0.79833 -0.39482
 H168 H -0.28866 0.66498 -0.57283
 N169 N 0.01910 1.03538 0.09688
 N170 N 0.03285 1.03899 0.12985
 N171 N -0.01847 1.05879 0.06015
 N172 N -0.03186 1.07941 0.06770
 N173 N -0.01851 1.03579 0.09761
 N174 N -0.03193 1.04011 0.13173
 N175 N 0.01916 1.05840 0.05945
 N176 N 0.03297 1.07833 0.06589
 C177 C 0.04129 1.06587 0.10996
 C178 C -0.04007 1.06736 0.11243
 N179 N -0.01877 1.03639 -0.09450
 N180 N -0.03246 1.04050 -0.12748
 N181 N 0.01898 1.05887 -0.05739
 N182 N 0.03247 1.07940 -0.06477
 N183 N 0.01884 1.03613 -0.09521
 N184 N 0.03224 1.04054 -0.12941
 N185 N -0.01865 1.05914 -0.05670
 N186 N -0.03228 1.07940 -0.06289
 Mn187 Mn 0.00025 1.05920 0.00138
 C188 C -0.04068 1.06741 -0.10721
 C189 C 0.04056 1.06756 -0.10976
 N190 N -0.01881 0.96494 0.09697
 N191 N -0.03252 0.96120 0.13022
 N192 N 0.01866 0.94178 0.05857
 N193 N 0.03202 0.92102 0.06547
 N194 N 0.01880 0.96452 0.09638
 N195 N 0.03225 0.95988 0.13010
 N196 N -0.01898 0.94219 0.05916
 N197 N -0.03281 0.92232 0.06562
 Mn198 Mn 0.00015 1.00016 0.09760
 C199 C -0.04103 0.93452 0.11013
 C200 C 0.04032 0.93272 0.11016
 N201 N 0.01858 0.96527 -0.09571
 N202 N 0.03219 0.96138 -0.12923
 N203 N -0.01908 0.94253 -0.05770
 N204 N -0.03257 0.92201 -0.06503
 N205 N -0.01903 0.96553 -0.09515
 N206 N -0.03248 0.96132 -0.12904
 N207 N 0.01856 0.94224 -0.05829
 N208 N 0.03216 0.92203 -0.06529
 Mn209 Mn -0.00009 1.00083 -0.09578
 Mn210 Mn -0.00021 0.94178 0.00043
 Cl211 Cl 0.00003 1.00049 0.00091
 C212 C 0.04046 0.93433 -0.10970
 C213 C -0.04076 0.93415 -0.10958
 N214 N 0.48144 0.53501 -0.09604
 N215 N 0.46781 0.53901 -0.12929
 N216 N 0.51907 0.55800 -0.05861
 N217 N 0.53250 0.57868 -0.06584
 N218 N 0.51905 0.53524 -0.09640
 N219 N 0.53248 0.53979 -0.13044
 N220 N 0.48143 0.55779 -0.05829
 N221 N 0.46778 0.57796 -0.06479
 C222 C 0.45949 0.56587 -0.10922
 C223 C 0.54069 0.56691 -0.11071
 N224 N 0.51913 0.53466 0.09573
 N225 N 0.53276 0.53861 0.12904
 N226 N 0.48150 0.55751 0.05856
 N227 N 0.46801 0.57794 0.06587
 N228 N 0.48151 0.53456 0.09607
 N229 N 0.46803 0.53870 0.13000
 N230 N 0.51914 0.55765 0.05824
 N231 N 0.53279 0.57790 0.06500
 Mn232 Mn 0.50029 0.55814 -0.00002
 C233 C 0.54108 0.56565 0.10930
 C234 C 0.45980 0.56581 0.11051
 N235 N 0.51908 0.46438 -0.09677
 N236 N 0.53269 0.46058 -0.13029
 N237 N 0.48148 0.44117 -0.05899
 N238 N 0.46803 0.42056 -0.06618
 N239 N 0.48146 0.46414 -0.09650
 N240 N 0.46800 0.45981 -0.13030
 N241 N 0.51912 0.44139 -0.05929
 N242 N 0.53278 0.42129 -0.06626
 Mn243 Mn 0.50026 0.49969 -0.09706
 C244 C 0.54104 0.43364 -0.11069
 C245 C 0.45980 0.43259 -0.11073
 N246 N 0.48149 0.46370 0.09561
 N247 N 0.46784 0.45967 0.12896
 N248 N 0.51910 0.44103 0.05758
 N249 N 0.53252 0.42044 0.06466
 N250 N 0.51911 0.46380 0.09536
 N251 N 0.53253 0.45934 0.12924
 N252 N 0.48146 0.44091 0.05786
 N253 N 0.46777 0.42072 0.06446
 Mn254 Mn 0.50031 0.49918 0.09633
 Mn255 Mn 0.50029 0.44073 -0.00071
 Cl256 Cl 0.50029 0.49943 -0.00037
 C257 C 0.45948 0.43279 0.10897
 C258 C 0.54072 0.43227 0.10942
 C259 C 0.30836 0.30365 0.35456
 C260 C 0.32117 0.31492 0.33121
 C261 C 0.33659 0.32816 0.30381
 C262 C 0.33626 0.36018 0.28295
 C263 C 0.35137 0.37319 0.25712
 C264 C 0.36702 0.35429 0.25183
 C265 C 0.36717 0.32206 0.27272
 C266 C 0.35206 0.30912 0.29855
 C267 C 0.38318 0.36823 0.22522
 C268 C 0.39371 0.34878 0.19045
 C269 C 0.40908 0.36180 0.16614
 C270 C 0.41414 0.39438 0.17625
 C271 C 0.40372 0.41398 0.21054
 C272 C 0.38834 0.40103 0.23486
 C273 C 0.43012 0.40766 0.15197
 C274 C 0.44352 0.41898 0.13208
 H275 H 0.32435 0.37511 0.28671
 H276 H 0.35076 0.39792 0.24087
 H277 H 0.37908 0.30706 0.26996
 H278 H 0.35248 0.28434 0.31474
 H279 H 0.38997 0.32359 0.18168
 H280 H 0.41703 0.34644 0.13955
 H281 H 0.40755 0.43921 0.21878
 H282 H 0.38067 0.41649 0.26197
 C283 C -0.19332 0.80910 0.35384
 C284 C -0.18056 0.82060 0.33059
 C285 C -0.16517 0.83411 0.30339
 C286 C -0.15645 0.86165 0.32484
 C287 C -0.14124 0.87435 0.29922
 C288 C -0.13453 0.85959 0.25176
 C289 C -0.14346 0.83201 0.23035
 C290 C -0.15868 0.81937 0.25603
 C291 C -0.11817 0.87270 0.22514
 C292 C -0.10515 0.85117 0.20432
 C293 C -0.08959 0.86353 0.18017
 C294 C -0.08685 0.89752 0.17645
 C295 C -0.09977 0.91915 0.19672
 C296 C -0.11532 0.90685 0.22092
 C297 C -0.07070 0.91026 0.15254
 C298 C -0.05715 0.92117 0.13295
 H299 H -0.16132 0.87315 0.36163
 H300 H -0.13453 0.89532 0.31711
 H301 H -0.13876 0.82037 0.19353
 H302 H -0.16535 0.79805 0.23906
 H303 H -0.10683 0.82477 0.20761
 H304 H -0.07965 0.84657 0.16479
 H305 H -0.09779 0.94551 0.19395
 H306 H -0.12519 0.92405 0.23592
 C307 C 0.69159 0.69609 0.35437
 C308 C 0.67885 0.68468 0.33108
 C309 C 0.66350 0.67125 0.30374
 C310 C 0.64849 0.69096 0.29461
 C311 C 0.63344 0.67785 0.26889
 C312 C 0.63319 0.64479 0.25200
 C313 C 0.64839 0.62522 0.26115
 C314 C 0.66344 0.63839 0.28685
 C315 C 0.61708 0.63070 0.22557
 C316 C 0.61118 0.59875 0.23866
 C317 C 0.59585 0.58568 0.21443
 C318 C 0.58622 0.60430 0.17678
 C319 C 0.59201 0.63603 0.16326
 C320 C 0.60733 0.64917 0.18748
 C321 C 0.57032 0.59091 0.15247
 C322 C 0.55697 0.57951 0.13253
 H323 H 0.64837 0.71640 0.30771
 H324 H 0.62187 0.69342 0.26311
 H325 H 0.64871 0.59981 0.24802
 H326 H 0.67500 0.62293 0.29365
 H327 H 0.61824 0.58408 0.26836
 H328 H 0.59146 0.56112 0.22532
 H329 H 0.58467 0.65063 0.13406
 H330 H 0.61165 0.67366 0.17604
 C331 C 0.19313 1.19154 0.35369
 C332 C 0.18043 1.18013 0.33022
 C333 C 0.16511 1.16674 0.30273
 C334 C 0.15807 1.13628 0.31860
 C335 C 0.14291 1.12362 0.29286
 C336 C 0.13457 1.14132 0.25089
 C337 C 0.14182 1.17183 0.23501
 C338 C 0.15699 1.18443 0.26080
 C339 C 0.11824 1.12820 0.22433
 C340 C 0.10393 1.14924 0.21153
 C341 C 0.08842 1.13678 0.18748
 C342 C 0.08700 1.10319 0.17586
 C343 C 0.10119 1.08209 0.18812
 C344 C 0.11671 1.09449 0.21219
 C345 C 0.07089 1.09027 0.15213
 C346 C 0.05737 1.07926 0.13267
 H347 H 0.16420 1.12246 0.35120
 H348 H 0.13751 1.10029 0.30650
 H349 H 0.13585 1.18583 0.20240
 H350 H 0.16235 1.20802 0.24817
 H351 H 0.10460 1.17522 0.22103
 H352 H 0.07748 1.15331 0.17835
 H353 H 0.10024 1.05605 0.17920
 H354 H 0.12757 1.07775 0.22092
 C355 C 0.69251 0.30660 -0.35523
 C356 C 0.67973 0.31809 -0.33220
 C357 C 0.66434 0.33164 -0.30526
 C358 C 0.65770 0.36237 -0.32087
 C359 C 0.64248 0.37520 -0.29569
 C360 C 0.63368 0.35742 -0.25449
 C361 C 0.64054 0.32664 -0.23882
 C362 C 0.65576 0.31385 -0.26409
 C363 C 0.61730 0.37075 -0.22846
 C364 C 0.61454 0.36742 -0.17224
 C365 C 0.59908 0.37992 -0.14791
 C366 C 0.58617 0.39583 -0.17942
 C367 C 0.58879 0.39924 -0.23535
 C368 C 0.60424 0.38680 -0.25974
 C369 C 0.57028 0.40884 -0.15452
 C370 C 0.55693 0.41999 -0.13421
 H371 H 0.66425 0.37637 -0.35264
 H372 H 0.63767 0.39914 -0.30815
 H373 H 0.63395 0.31218 -0.20774
 H374 H 0.66075 0.28997 -0.25185
 H375 H 0.62444 0.35554 -0.14698
 H376 H 0.59721 0.37725 -0.10454
 H377 H 0.57887 0.41146 -0.26015
 H378 H 0.60585 0.38934 -0.30320
 C379 C 0.19171 0.80635 -0.35362
 C380 C 0.17899 0.81787 -0.33042
 C381 C 0.16365 0.83149 -0.30334
 C382 C 0.15793 0.86335 -0.31580
 C383 C 0.14274 0.87631 -0.29061
 C384 C 0.13306 0.85751 -0.25258
 C385 C 0.13901 0.82558 -0.24001
 C386 C 0.15420 0.81267 -0.26529
 C387 C 0.11671 0.87099 -0.22670
 C388 C 0.11319 0.86546 -0.17134
 C389 C 0.09773 0.87808 -0.14719
 C390 C 0.08558 0.89632 -0.17803
 C391 C 0.08896 0.90194 -0.23310
 C392 C 0.10440 0.88938 -0.25732
 C393 C 0.06968 0.90940 -0.15332
 C394 C 0.05634 0.92061 -0.13313
 H395 H 0.16516 0.87814 -0.34515
 H396 H 0.13864 0.90111 -0.30059
 H397 H 0.13173 0.81036 -0.21143
 H398 H 0.15848 0.78792 -0.25552
 H399 H 0.12251 0.85174 -0.14657
 H400 H 0.09527 0.87368 -0.10447
 H401 H 0.07962 0.91596 -0.25738
 H402 H 0.10659 0.89365 -0.30017
 C403 C 0.30858 0.69343 -0.35461
 C404 C 0.32144 0.68242 -0.33156
 C405 C 0.33695 0.66950 -0.30453
 C406 C 0.33516 0.64414 -0.26645
 C407 C 0.35028 0.63147 -0.24057
 C408 C 0.36739 0.64403 -0.25246
 C409 C 0.36903 0.66958 -0.29071
 C410 C 0.35390 0.68220 -0.31655
 C411 C 0.38350 0.63039 -0.22549
 C412 C 0.39742 0.65132 -0.20847
 C413 C 0.41272 0.63839 -0.18399
 C414 C 0.41432 0.60442 -0.17619
 C415 C 0.40051 0.58342 -0.19267
 C416 C 0.38520 0.59628 -0.21712
 C417 C 0.43023 0.59106 -0.15204
 C418 C 0.44358 0.57969 -0.13225
 H419 H 0.32209 0.63419 -0.25675
 H420 H 0.34856 0.61208 -0.21085
 H421 H 0.38203 0.67946 -0.30131
 H422 H 0.35545 0.70175 -0.34610
 H423 H 0.39641 0.67770 -0.21369
 H424 H 0.42331 0.65488 -0.17128
 H425 H 0.40165 0.55706 -0.18701
 H426 H 0.37483 0.57950 -0.23040
 C427 C -0.19185 1.19529 -0.35022
 C428 C -0.17901 1.18433 -0.32698
 C429 C -0.16352 1.17145 -0.29984
 C430 C -0.16504 1.14387 -0.26613
 C431 C -0.14992 1.13114 -0.24040
 C432 C -0.13305 1.14588 -0.24809
 C433 C -0.13169 1.17369 -0.28189
 C434 C -0.14683 1.18636 -0.30758
 C435 C -0.11691 1.13213 -0.22151
 C436 C -0.10381 1.15312 -0.19953
 C437 C -0.08845 1.14014 -0.17546
 C438 C -0.08599 1.10605 -0.17304
 C439 C -0.09898 1.08496 -0.19449
 C440 C -0.11435 1.09788 -0.21855
 C441 C -0.07002 1.09269 -0.14928
 C442 C -0.05663 1.08130 -0.12983
 H443 H -0.17791 1.13218 -0.25978
 H444 H -0.15143 1.10996 -0.21412
 H445 H -0.11887 1.18531 -0.28922
 H446 H -0.14549 1.20765 -0.33375
 H447 H -0.10550 1.17956 -0.20057
 H448 H -0.07849 1.15668 -0.15889
 H449 H -0.09717 1.05853 -0.19301
 H450 H -0.12407 1.08110 -0.23573
 C451 C 0.68932 0.70469 -0.35749
 C452 C 0.67647 0.69353 -0.33424
 C453 C 0.66112 0.67989 -0.30701
 C454 C 0.64392 0.69021 -0.32120
 C455 C 0.62898 0.67647 -0.29559
 C456 C 0.63105 0.65215 -0.25543
 C457 C 0.64841 0.64206 -0.24128
 C458 C 0.66334 0.65586 -0.26692
 C459 C 0.61516 0.63716 -0.22884
 C460 C 0.61457 0.60315 -0.21821
 C461 C 0.59952 0.58898 -0.19381
 C462 C 0.58488 0.60859 -0.17966
 C463 C 0.58537 0.64246 -0.18985
 C464 C 0.60040 0.65668 -0.21428
 C465 C 0.56932 0.59392 -0.15512
 C466 C 0.55626 0.58159 -0.13476
 H467 H 0.64206 0.70869 -0.35236
 H468 H 0.61579 0.68443 -0.30790
 H469 H 0.65045 0.62370 -0.21006
 H470 H 0.67660 0.64772 -0.25559
 H471 H 0.62561 0.58741 -0.22958
 H472 H 0.59925 0.56272 -0.18626
 H473 H 0.57413 0.65787 -0.17894
 H474 H 0.60054 0.68298 -0.22131
 C475 C 0.18976 1.20238 -0.35808
 C476 C 0.17682 1.19155 -0.33486
 C477 C 0.16138 1.17830 -0.30755
 C478 C 0.16350 1.15558 -0.26539
 C479 C 0.14850 1.14214 -0.23960
 C480 C 0.13116 1.15126 -0.25569
 C481 C 0.12919 1.17428 -0.29793
 C482 C 0.14420 1.18766 -0.32368
 C483 C 0.11521 1.13660 -0.22893
 C484 C 0.10017 1.15606 -0.21699
 C485 C 0.08510 1.14213 -0.19234
 C486 C 0.08484 1.10860 -0.17933
 C487 C 0.09974 1.08906 -0.19090
 C488 C 0.11484 1.10294 -0.21550
 C489 C 0.06924 1.09420 -0.15455
 C490 C 0.05616 1.08206 -0.13400
 H491 H 0.17674 1.14819 -0.25254
 H492 H 0.15047 1.12482 -0.20676
 H493 H 0.11603 1.18147 -0.31172
 H494 H 0.14241 1.20513 -0.35644
 H495 H 0.10014 1.18211 -0.22620
 H496 H 0.07365 1.15749 -0.18346
 H497 H 0.09966 1.06306 -0.18117
 H498 H 0.12610 1.08723 -0.22483
 C499 C 0.31094 0.29578 -0.35562
 C500 C 0.32378 0.30690 -0.33243
 C501 C 0.33911 0.32050 -0.30527
 C502 C 0.33708 0.34714 -0.26989
 C503 C 0.35202 0.36088 -0.24444
 C504 C 0.36920 0.34812 -0.25406
 C505 C 0.37108 0.32119 -0.28945
 C506 C 0.35613 0.30751 -0.31489
 C507 C 0.38512 0.36303 -0.22776
 C508 C 0.39894 0.34305 -0.20764
 C509 C 0.41401 0.35716 -0.18345
 C510 C 0.41547 0.39138 -0.17908
 C511 C 0.40178 0.41148 -0.19880
 C512 C 0.38670 0.39742 -0.22296
 C513 C 0.43108 0.40590 -0.15476
 C514 C 0.44418 0.41808 -0.13459
 H515 H 0.32396 0.35736 -0.26211
 H516 H 0.35011 0.38131 -0.21689
 H517 H 0.38415 0.31109 -0.29824
 H518 H 0.35786 0.28698 -0.34240
 H519 H 0.39802 0.31650 -0.21011
 H520 H 0.42452 0.34137 -0.16819
 H521 H 0.40281 0.43801 -0.19578
 H522 H 0.37640 0.41348 -0.23870
 C523 C -0.18971 0.79913 -0.35689
 C524 C -0.17683 0.81010 -0.33371
 C525 C -0.16147 0.82353 -0.30645
 C526 C -0.16353 0.84933 -0.26944
 C527 C -0.14858 0.86286 -0.24374
 C528 C -0.13135 0.85073 -0.25475
 C529 C -0.12943 0.82465 -0.29181
 C530 C -0.14440 0.81118 -0.31750
 C531 C -0.11542 0.86542 -0.22812
 C532 C -0.10138 0.84533 -0.20977
 C533 C -0.08631 0.85924 -0.18524
 C534 C -0.08507 0.89338 -0.17876
 C535 C -0.09898 0.91357 -0.19674
 C536 C -0.11407 0.89971 -0.22123
 C537 C -0.06947 0.90771 -0.15410
 C538 C -0.05637 0.91975 -0.13366
 H539 H -0.17669 0.85905 -0.26055
 H540 H -0.15052 0.88262 -0.21490
 H541 H -0.11633 0.81506 -0.30168
 H542 H -0.14265 0.79130 -0.34626
 H543 H -0.10212 0.81884 -0.21387
 H544 H -0.07563 0.84338 -0.17137
 H545 H -0.09813 0.94003 -0.19210
 H546 H -0.12453 0.91587 -0.23558
 C547 C 0.31040 0.70085 0.35482
 C548 C 0.32326 0.68976 0.33174
 C549 C 0.33864 0.67623 0.30473
 C550 C 0.33683 0.64839 0.27182
 C551 C 0.35183 0.63479 0.24649
 C552 C 0.36885 0.64891 0.25376
 C553 C 0.37051 0.67701 0.28670
 C554 C 0.35550 0.69054 0.31202
 C555 C 0.38484 0.63420 0.22756
 C556 C 0.39819 0.65439 0.20475
 C557 C 0.41333 0.64050 0.18063
 C558 C 0.41532 0.60629 0.17901
 C559 C 0.40210 0.58599 0.20142
 C560 C 0.38695 0.59982 0.22552
 C561 C 0.43099 0.59202 0.15468
 C562 C 0.44413 0.58006 0.13446
 H563 H 0.32384 0.63713 0.26586
 H564 H 0.35009 0.61341 0.22085
 H565 H 0.38346 0.68817 0.29368
 H566 H 0.35706 0.71201 0.33762
 H567 H 0.39685 0.68091 0.20507
 H568 H 0.42346 0.65644 0.16327
 H569 H 0.40354 0.55947 0.20053
 H570 H 0.37703 0.58363 0.24335
 C571 C -0.18906 1.20271 0.35901
 C572 C -0.17616 1.19170 0.33599
 C573 C -0.16077 1.17823 0.30891
 C574 C -0.16284 1.15275 0.27129
 C575 C -0.14787 1.13918 0.24575
 C576 C -0.13060 1.15096 0.25752
 C577 C -0.12867 1.17671 0.29521
 C578 C -0.14366 1.19022 0.32073
 C579 C -0.11467 1.13625 0.23101
 C580 C -0.10041 1.15628 0.21347
 C581 C -0.08534 1.14234 0.18900
 C582 C -0.08431 1.10825 0.18176
 C583 C -0.09844 1.08813 0.19892
 C584 C -0.11352 1.10200 0.22335
 C585 C -0.06872 1.09389 0.15710
 C586 C -0.05565 1.08181 0.13662
 H587 H -0.17603 1.14331 0.26179
 H588 H -0.14982 1.11969 0.21643
 H589 H -0.11555 1.18601 0.30568
 H590 H -0.14190 1.20984 0.34997
 H591 H -0.10098 1.18274 0.21816
 H592 H -0.07450 1.15816 0.17575
 H593 H -0.09776 1.06169 0.19366
 H594 H -0.12416 1.08589 0.23706
 C595 C 0.68909 0.29624 0.35640
 C596 C 0.67626 0.30709 0.33296
 C597 C 0.66095 0.32042 0.30549
 C598 C 0.66321 0.34433 0.26518
 C599 C 0.64832 0.35791 0.23942
 C600 C 0.63094 0.34772 0.25369
 C601 C 0.62882 0.32350 0.29403
 C602 C 0.64373 0.30998 0.31976
 C603 C 0.61509 0.36257 0.22710
 C604 C 0.60031 0.34295 0.21273
 C605 C 0.58530 0.35704 0.18836
 C606 C 0.58485 0.39089 0.17805
 C607 C 0.59950 0.41060 0.19200
 C608 C 0.61452 0.39656 0.21634
 C609 C 0.56931 0.40545 0.15360
 C610 C 0.55627 0.41768 0.13333
 H611 H 0.67649 0.35257 0.25379
 H612 H 0.65040 0.37620 0.20806
 H613 H 0.61562 0.31546 0.30641
 H614 H 0.64183 0.29158 0.35109
 H615 H 0.60043 0.31666 0.21987
 H616 H 0.57405 0.34155 0.17760
 H617 H 0.59926 0.43686 0.18436
 H618 H 0.62558 0.41238 0.22757
 C619 C 0.18867 0.79536 0.35560
 C620 C 0.17582 0.80634 0.33245
 C621 C 0.16047 0.81980 0.30525
 C622 C 0.16275 0.84246 0.26304
 C623 C 0.14786 0.85614 0.23743
 C624 C 0.13045 0.84731 0.25375
 C625 C 0.12831 0.82434 0.29603
 C626 C 0.14323 0.81071 0.32160
 C627 C 0.11461 0.86226 0.22726
 C628 C 0.09941 0.84309 0.21557
 C629 C 0.08442 0.85731 0.19128
 C630 C 0.08441 0.89085 0.17836
 C631 C 0.09948 0.91011 0.18963
 C632 C 0.11449 0.89594 0.21388
 C633 C 0.06888 0.90556 0.15403
 C634 C 0.05585 0.91793 0.13389
 H635 H 0.17605 0.84964 0.25002
 H636 H 0.14995 0.87343 0.20457
 H637 H 0.11511 0.81737 0.31002
 H638 H 0.14132 0.79330 0.35441
 H639 H 0.09917 0.81703 0.22474
 H640 H 0.07284 0.84216 0.18262
 H641 H 0.09959 0.93612 0.17997
 H642 H 0.12588 0.91144 0.22302
   
