data_POSCAR
  _audit_creation_date              2014-09-24
  _audit_creation_method            'ToBaCCo'
  _symmetry_space_group_name_H-M    'P1'
  _symmetry_Int_Tables_number       1
  _symmetry_cell_setting            triclinic
  loop_
  _symmetry_equiv_pos_as_xyz
 x,y,z
_cell_length_a 57.0940
_cell_length_b 56.9866
_cell_length_c 56.9665
_cell_angle_alpha 90.014200
_cell_angle_beta 89.940400
_cell_angle_gamma 89.924100
loop_
  _atom_site_label
  _atom_site_type_symbol
  _atom_site_fract_x
  _atom_site_fract_y
  _atom_site_fract_z
C1 C 0.60740 0.64197 0.62519
 C2 C 0.60660 0.62355 0.64155
 C3 C 0.62459 0.60658 0.64250
 C4 C 0.64285 0.60779 0.62585
 C5 C 0.64338 0.62560 0.60880
 C6 C 0.62588 0.64292 0.60897
 H7 H 0.59237 0.62306 0.65414
 H8 H 0.65667 0.59475 0.62596
 H9 H 0.62620 0.65679 0.59596
 C10 C 0.89338 0.35693 0.12548
 C11 C 0.87482 0.35621 0.10920
 C12 C 0.85769 0.37393 0.10872
 C13 C 0.85855 0.39198 0.12547
 C14 C 0.87654 0.39277 0.14222
 C15 C 0.89414 0.37554 0.14177
 H16 H 0.87410 0.34231 0.09624
 H17 H 0.84516 0.40546 0.12547
 H18 H 0.90800 0.37622 0.15473
 C19 C 0.39260 0.14252 -0.12487
 C20 C 0.37514 0.14236 -0.10747
 C21 C 0.35767 0.12502 -0.10734
 C22 C 0.35779 0.10769 -0.12488
 C23 C 0.37511 0.10755 -0.14241
 C24 C 0.39243 0.12504 -0.14227
 H25 H 0.37515 0.15578 -0.09400
 H26 H 0.34437 0.09427 -0.12488
 H27 H 0.40584 0.12504 -0.15574
 C28 C 0.10684 0.85698 0.37481
 C29 C 0.10612 0.87554 0.35848
 C30 C 0.12365 0.89281 0.35810
 C31 C 0.14153 0.89206 0.37495
 C32 C 0.14242 0.87400 0.39166
 C33 C 0.12535 0.85627 0.39115
 H34 H 0.09230 0.87618 0.34548
 H35 H 0.15489 0.90554 0.37502
 H36 H 0.12607 0.84238 0.40410
 N37 N 0.09766 0.16337 0.11681
 N38 N 0.08721 0.15256 0.13433
 C39 C 0.06760 0.16439 0.14012
 C40 C 0.06601 0.18379 0.12573
 C41 C 0.08533 0.18270 0.11120
 H42 H 0.05560 0.15957 0.15401
 H43 H 0.08977 0.19479 0.09727
 Cu44 Cu 0.10089 0.12459 0.14808
 Cu45 Cu 0.12564 0.15092 0.10163
 Cu46 Cu 0.14944 0.10017 0.12547
 N47 N 0.11459 0.09664 0.16184
 N48 N 0.13400 0.08761 0.15323
 C49 C 0.14029 0.06895 0.16624
 C50 C 0.12379 0.06601 0.18369
 C51 C 0.10765 0.08376 0.18040
 H52 H 0.15555 0.05815 0.16309
 H53 H 0.09226 0.08718 0.19097
 N54 N 0.16237 0.11572 0.09748
 N55 N 0.15375 0.13542 0.08882
 C56 C 0.16677 0.14195 0.07022
 C57 C 0.18418 0.12546 0.06694
 C58 C 0.18090 0.10905 0.08443
 H59 H 0.16366 0.15735 0.05958
 H60 H 0.19142 0.09356 0.08751
 H61 H 0.12020 0.11606 0.11094
 H62 H 0.13878 0.13417 0.13087
 N63 N 0.40217 0.83677 0.61579
 N64 N 0.41268 0.84771 0.63317
 C65 C 0.43215 0.83571 0.63912
 C66 C 0.43368 0.81616 0.62485
 C67 C 0.41438 0.81730 0.61032
 H68 H 0.44409 0.84050 0.65304
 H69 H 0.40982 0.80509 0.59654
 Cu70 Cu 0.39887 0.87579 0.64684
 Cu71 Cu 0.37405 0.84912 0.60069
 Cu72 Cu 0.35005 0.89978 0.62458
 N73 N 0.38503 0.90372 0.66076
 N74 N 0.36546 0.91253 0.65231
 C75 C 0.35889 0.93098 0.66552
 C76 C 0.37531 0.93400 0.68302
 C77 C 0.39169 0.91646 0.67953
 H78 H 0.34342 0.94154 0.66254
 H79 H 0.40702 0.91306 0.69014
 N80 N 0.33718 0.88417 0.59660
 N81 N 0.34588 0.86451 0.58793
 C82 C 0.33296 0.85797 0.56927
 C83 C 0.31552 0.87443 0.56598
 C84 C 0.31869 0.89082 0.58351
 H85 H 0.33617 0.84260 0.55861
 H86 H 0.30815 0.90630 0.58657
 H87 H 0.37922 0.88390 0.60993
 H88 H 0.36098 0.86571 0.63019
 N89 N 0.90255 0.66392 0.38347
 N90 N 0.91296 0.65311 0.36590
 C91 C 0.93253 0.66494 0.36006
 C92 C 0.93412 0.68434 0.37448
 C93 C 0.91485 0.68324 0.38906
 H94 H 0.94452 0.66011 0.34617
 H95 H 0.91043 0.69532 0.40303
 Cu96 Cu 0.89931 0.62511 0.35216
 Cu97 Cu 0.87465 0.65146 0.39875
 Cu98 Cu 0.85101 0.60064 0.37502
 N99 N 0.88566 0.59711 0.33841
 N100 N 0.86640 0.58797 0.34719
 C101 C 0.86021 0.56923 0.33427
 C102 C 0.87657 0.56636 0.31664
 C103 C 0.89255 0.58426 0.31978
 H104 H 0.84506 0.55833 0.33755
 H105 H 0.90782 0.58775 0.30911
 N106 N 0.83804 0.61625 0.40304
 N107 N 0.84661 0.63597 0.41165
 C108 C 0.83360 0.64255 0.43028
 C109 C 0.81623 0.62605 0.43363
 C110 C 0.81955 0.60961 0.41615
 H111 H 0.83668 0.65798 0.44087
 H112 H 0.80907 0.59411 0.41312
 H113 H 0.88027 0.61668 0.38949
 H114 H 0.86154 0.63474 0.36961
 N115 N 0.59727 0.33768 -0.11495
 N116 N 0.58843 0.34690 -0.13417
 C117 C 0.56974 0.33416 -0.14091
 C118 C 0.56658 0.31626 -0.12486
 C119 C 0.58428 0.31903 -0.10859
 H120 H 0.55906 0.33768 -0.15618
 H121 H 0.58760 0.30810 -0.09343
 Cu122 Cu 0.60222 0.37487 -0.14812
 Cu123 Cu 0.62533 0.35005 -0.09990
 Cu124 Cu 0.65023 0.39967 -0.12486
 N125 N 0.61595 0.40301 -0.16176
 N126 N 0.63518 0.41216 -0.15296
 C127 C 0.64154 0.43079 -0.16603
 C128 C 0.62531 0.43357 -0.18378
 C129 C 0.60927 0.41571 -0.18056
 H130 H 0.65669 0.44166 -0.16273
 H131 H 0.59410 0.41213 -0.19132
 N132 N 0.66280 0.38444 -0.09644
 N133 N 0.65368 0.36521 -0.08732
 C134 C 0.66655 0.35869 -0.06860
 C135 C 0.68439 0.37474 -0.06568
 C136 C 0.68150 0.39086 -0.08354
 H137 H 0.66311 0.34355 -0.05770
 H138 H 0.69242 0.40597 -0.08697
 H139 H 0.62057 0.38434 -0.11071
 H140 H 0.63946 0.36533 -0.12961
 C141 C -0.05557 0.30559 0.12556
 N142 N -0.05287 0.32539 0.13848
 N143 N -0.06943 0.34187 0.13860
 C144 C -0.08919 0.33942 0.12550
 N145 N -0.09168 0.31959 0.11243
 N146 N -0.07530 0.30293 0.11261
 C147 C -0.03747 0.28736 0.12562
 N148 N -0.04321 0.26456 0.12188
 N149 N -0.02677 0.24794 0.12217
 C150 C -0.00399 0.25362 0.12580
 N151 N 0.00178 0.27644 0.12932
 N152 N -0.01470 0.29301 0.12944
 C153 C 0.01414 0.23544 0.12582
 N154 N 0.03629 0.24058 0.11891
 N155 N 0.05278 0.22404 0.11872
 C156 C 0.04778 0.20188 0.12583
 N157 N 0.02567 0.19676 0.13293
 N158 N 0.00908 0.21322 0.13274
 C159 C 0.55557 0.69422 0.62519
 N160 N 0.55052 0.67213 0.63251
 N161 N 0.56700 0.65554 0.63262
 C162 C 0.58907 0.66035 0.62513
 N163 N 0.59405 0.68244 0.61769
 N164 N 0.57764 0.69910 0.61784
 C165 C 0.53743 0.71251 0.62517
 N166 N 0.54340 0.73557 0.62538
 N167 N 0.52691 0.75215 0.62551
 C168 C 0.50388 0.74626 0.62509
 N169 N 0.49793 0.72321 0.62471
 N170 N 0.51440 0.70663 0.62492
 C171 C 0.48569 0.76447 0.62502
 N172 N 0.46406 0.75981 0.61633
 N173 N 0.44753 0.77634 0.61616
 C174 C 0.45194 0.79800 0.62500
 N175 N 0.47351 0.80262 0.63385
 N176 N 0.49015 0.78619 0.63371
 C177 C 1.05570 0.80587 0.37469
 N178 N 1.05306 0.82567 0.36176
 N179 N 1.06965 0.84207 0.36166
 C180 C 1.08940 0.83953 0.37478
 N181 N 1.09183 0.81971 0.38786
 N182 N 1.07541 0.80313 0.38767
 C183 C 1.03758 0.78770 0.37458
 N184 N 1.04330 0.76487 0.37825
 N185 N 1.02685 0.74832 0.37792
 C186 C 1.00407 0.75408 0.37430
 N187 N 0.99832 0.77693 0.37083
 N188 N 1.01482 0.79344 0.37077
 C189 C 0.98593 0.73594 0.37426
 N190 N 0.96379 0.74112 0.38124
 N191 N 0.94732 0.72459 0.38147
 C192 C 0.95233 0.70242 0.37434
 N193 N 0.97442 0.69728 0.36716
 N194 N 0.99100 0.71372 0.36731
 C195 C 0.44461 0.19455 -0.12492
 N196 N 0.43254 0.18953 -0.10501
 N197 N 0.41597 0.17308 -0.10501
 C198 C 0.41095 0.16088 -0.12488
 N199 N 0.42313 0.16588 -0.14476
 N200 N 0.43957 0.18246 -0.14481
 C201 C 0.46280 0.21275 -0.12495
 N202 N 0.47127 0.22138 -0.14549
 N203 N 0.48769 0.23799 -0.14552
 C204 C 0.49639 0.24641 -0.12501
 N205 N 0.48801 0.23769 -0.10448
 N206 N 0.47144 0.22124 -0.10445
 C207 C 0.51460 0.26460 -0.12501
 N208 N 0.52730 0.26891 -0.10535
 N209 N 0.54393 0.28530 -0.10536
 C210 C 0.54829 0.29814 -0.12494
 N211 N 0.53550 0.29392 -0.14457
 N212 N 0.51903 0.27736 -0.14465
 C213 C 0.12364 -0.05526 0.30589
 N214 N 0.10432 -0.06856 0.30972
 N215 N 0.10430 -0.08499 0.32632
 C216 C 0.12352 -0.08865 0.33988
 N217 N 0.14281 -0.07524 0.33604
 N218 N 0.14290 -0.05890 0.31934
 C219 C 0.12366 -0.03723 0.28757
 N220 N 0.14404 -0.02733 0.28035
 N221 N 0.14404 -0.01096 0.26367
 C222 C 0.12363 -0.00375 0.25381
 N223 N 0.10325 -0.01359 0.26108
 N224 N 0.10328 -0.03013 0.27759
 C225 C 0.12362 0.01437 0.23560
 N226 N 0.10368 0.02626 0.23034
 N227 N 0.10374 0.04285 0.21387
 C228 C 0.12367 0.04792 0.20193
 N229 N 0.14356 0.03595 0.20710
 N230 N 0.14357 0.01955 0.22375
 C231 C 0.62459 0.55528 -0.30624
 N232 N 0.60558 0.56921 -0.30942
 N233 N 0.60559 0.58580 -0.32591
 C234 C 0.62449 0.58893 -0.34014
 N235 N 0.64342 0.57476 -0.33697
 N236 N 0.64354 0.55839 -0.32027
 C237 C 0.62468 0.53713 -0.28792
 N238 N 0.64519 0.52845 -0.27955
 N239 N 0.64527 0.51205 -0.26287
 C240 C 0.62484 0.50352 -0.25416
 N241 N 0.60432 0.51210 -0.26263
 N242 N 0.60424 0.52871 -0.27911
 C243 C 0.62494 0.48531 -0.23589
 N244 N 0.60542 0.47245 -0.23146
 N245 N 0.60558 0.45586 -0.21497
 C246 C 0.62518 0.45170 -0.20214
 N247 N 0.64466 0.46463 -0.20651
 N248 N 0.64458 0.48104 -0.22316
 C249 C 0.37513 1.05550 0.80545
 N250 N 0.39494 1.06766 0.81039
 N251 N 0.39490 1.08425 0.82687
 C252 C 0.37510 1.08919 0.83919
 N253 N 0.35532 1.07691 0.83427
 N254 N 0.35530 1.06045 0.81765
 C255 C 0.37516 1.03731 0.78720
 N256 N 0.35470 1.02868 0.77871
 N257 N 0.35473 1.01227 0.76205
 C258 C 0.37522 1.00372 0.75346
 N259 N 0.39568 1.01227 0.76203
 N260 N 0.39565 1.02885 0.77852
 C261 C 0.37525 0.98556 0.73520
 N262 N 0.39496 0.97303 0.73054
 N263 N 0.39494 0.95647 0.71403
 C264 C 0.37528 0.95203 0.70142
 N265 N 0.35561 0.96463 0.70600
 N266 N 0.35556 0.98102 0.72267
 C267 C 0.87668 0.44473 0.19443
 N268 N 0.89664 0.43299 0.18894
 N269 N 0.89661 0.41652 0.17235
 C270 C 0.87668 0.41131 0.16044
 N271 N 0.85674 0.42317 0.16591
 N272 N 0.85672 0.43951 0.18263
 C273 C 0.87670 0.46281 0.21276
 N274 N 0.85624 0.47114 0.22164
 N275 N 0.85628 0.48755 0.23830
 C276 C 0.87677 0.49638 0.24650
 N277 N 0.89722 0.48812 0.23756
 N278 N 0.89719 0.47155 0.22106
 C279 C 0.87678 0.51456 0.26472
 N280 N 0.89635 0.52737 0.26904
 N281 N 0.89628 0.54398 0.28551
 C282 C 0.87671 0.54819 0.29839
 N283 N 0.85719 0.53531 0.29415
 N284 N 0.85719 0.51888 0.27753
 C285 C 0.30569 0.12500 -0.05521
 N286 N 0.31061 0.10516 -0.06745
 N287 N 0.32704 0.10519 -0.08407
 C288 C 0.33933 0.12501 -0.08895
 N289 N 0.33443 0.14482 -0.07660
 N290 N 0.31786 0.14484 -0.06011
 C291 C 0.28753 0.12501 -0.03698
 N292 N 0.27914 0.14554 -0.02827
 N293 N 0.26258 0.14557 -0.01178
 C294 C 0.25399 0.12507 -0.00325
 N295 N 0.26245 0.10454 -0.01188
 N296 N 0.27886 0.10450 -0.02854
 C297 C 0.23584 0.12514 0.01497
 N298 N 0.23117 0.10542 0.02748
 N299 N 0.21477 0.10555 0.04413
 C300 C 0.20231 0.12534 0.04869
 N301 N 0.20690 0.14502 0.03611
 N302 N 0.22346 0.14496 0.01962
 C303 C 0.69506 0.62577 0.55632
 N304 N 0.69010 0.60585 0.56837
 N305 N 0.67388 0.60588 0.58520
 C306 C 0.66188 0.62579 0.59054
 N307 N 0.66681 0.64569 0.57837
 N308 N 0.68317 0.64571 0.56167
 C309 C 0.71302 0.62576 0.53785
 N310 N 0.72150 0.64628 0.52926
 N311 N 0.73798 0.64629 0.51268
 C312 C 0.74640 0.62578 0.50393
 N313 N 0.73780 0.60526 0.51241
 N314 N 0.72148 0.60525 0.52915
 C315 C 0.76457 0.62583 0.48567
 N316 N 0.76920 0.60612 0.47309
 N317 N 0.78561 0.60623 0.45643
 C318 C 0.79812 0.62596 0.45193
 N319 N 0.79358 0.64562 0.46461
 N320 N 0.77702 0.64559 0.48111
 C321 C 0.80582 0.37406 0.05656
 N322 N 0.81117 0.39403 0.06836
 N323 N 0.82748 0.39392 0.08506
 C324 C 0.83920 0.37387 0.09051
 N325 N 0.83386 0.35392 0.07860
 N326 N 0.81742 0.35399 0.06202
 C327 C 0.78777 0.37418 0.03821
 N328 N 0.77889 0.35372 0.02988
 N329 N 0.76238 0.35383 0.01337
 C330 C 0.75432 0.37439 0.00442
 N331 N 0.76330 0.39484 0.01266
 N332 N 0.77965 0.39474 0.02933
 C333 C 0.73616 0.37449 -0.01381
 N334 N 0.73197 0.39411 -0.02666
 N335 N 0.71556 0.39416 -0.04327
 C336 C 0.70258 0.37466 -0.04746
 N337 N 0.70668 0.35508 -0.03453
 N338 N 0.72325 0.35496 -0.01808
 C339 C 0.19442 0.87417 0.44364
 N340 N 0.18274 0.85413 0.43835
 N341 N 0.16623 0.85405 0.42184
 C342 C 0.16092 0.87395 0.40985
 N343 N 0.17271 0.89396 0.41513
 N344 N 0.18909 0.89409 0.43176
 C345 C 0.21249 0.87430 0.46191
 N346 N 0.22080 0.89487 0.47056
 N347 N 0.23716 0.89496 0.48722
 C348 C 0.24595 0.87449 0.49566
 N349 N 0.23771 0.85393 0.48694
 N350 N 0.22120 0.85383 0.47044
 C351 C 0.26406 0.87454 0.51389
 N352 N 0.27663 0.85483 0.51845
 N353 N 0.29312 0.85484 0.53496
 C354 C 0.29747 0.87450 0.54767
 N355 N 0.28484 0.89419 0.54320
 N356 N 0.26850 0.89425 0.52652
   
