data_POSCAR
  _audit_creation_date              2014-09-24
  _audit_creation_method            'ToBaCCo'
  _symmetry_space_group_name_H-M    'P1'
  _symmetry_Int_Tables_number       1
  _symmetry_cell_setting            triclinic
  loop_
  _symmetry_equiv_pos_as_xyz
 x,y,z
_cell_length_a 19.0239
_cell_length_b 19.0434
_cell_length_c 19.0805
_cell_angle_alpha 90.018700
_cell_angle_beta 89.914200
_cell_angle_gamma 90.181600
loop_
  _atom_site_label
  _atom_site_type_symbol
  _atom_site_fract_x
  _atom_site_fract_y
  _atom_site_fract_z
C1 C 0.30354 1.07726 -0.45955
 C2 C 0.30568 1.07976 -0.53148
 C3 C 0.35593 1.03162 -0.55238
 N4 N 0.38671 1.00206 -0.49606
 C5 C 0.35416 1.02923 -0.43941
 C6 C 0.37192 1.01217 -0.62188
 C7 C 0.44139 0.98957 -0.63728
 C8 C 0.46210 0.94850 -0.69380
 C9 C 0.53445 0.94587 -0.69249
 C10 C 0.55580 0.98418 -0.63448
 N11 N 0.49889 1.00896 -0.60013
 C12 C 0.62621 0.99934 -0.61574
 C13 C 0.64360 1.00738 -0.54398
 C14 C 0.70330 1.03978 -0.51713
 C15 C 0.70119 1.03078 -0.44581
 C16 C 0.63974 0.99446 -0.43143
 N17 N 0.60429 0.98077 -0.49124
 C18 C 0.61754 0.97173 -0.36463
 C19 C 0.54546 0.95957 -0.35096
 C20 C 0.51777 0.92458 -0.29332
 C21 C 0.44609 0.93536 -0.29443
 C22 C 0.43232 0.97603 -0.35300
 N23 N 0.49279 0.98938 -0.38767
 C24 C 0.36721 1.00650 -0.37050
 H25 H 0.26936 1.10776 -0.42600
 H26 H 0.27393 1.11305 -0.56467
 H27 H 0.49865 1.02512 -0.42870
 H28 H 0.42881 0.92313 -0.73219
 H29 H 0.56760 0.91871 -0.72976
 H30 H 0.74374 1.06804 -0.54542
 H31 H 0.73959 1.05028 -0.40876
 H32 H 0.40873 0.91671 -0.25581
 H33 H 0.49997 1.04372 -0.55780
 H34 H 0.54628 0.89607 -0.25347
 C35 C -0.70824 1.54160 -0.07900
 C36 C -0.70910 1.46968 -0.07948
 C37 C -0.65203 1.44826 -0.03985
 N38 N -0.61567 1.50448 -0.01619
 C39 C -0.65088 1.56163 -0.03880
 C40 C -0.63458 1.37817 -0.02318
 C41 C -0.56380 1.36155 -0.00804
 C42 C -0.54050 1.30583 0.03244
 C43 C -0.46823 1.30540 0.02737
 C44 C -0.44967 1.36072 -0.01629
 N45 N -0.50811 1.39576 -0.03588
 C46 C -0.38151 1.37619 -0.04184
 C47 C -0.36523 1.44581 -0.06186
 C48 C -0.30852 1.46786 -0.10217
 C49 C -0.30741 1.54013 -0.09860
 C50 C -0.36351 1.55917 -0.05664
 N51 N -0.39923 1.50182 -0.03522
 C52 C -0.37864 1.62703 -0.03219
 C53 C -0.44703 1.64414 -0.00913
 C54 C -0.46476 1.70124 0.03231
 C55 C -0.53708 1.70244 0.03607
 C56 C -0.56133 1.64664 -0.00412
 N57 N -0.50604 1.61054 -0.03003
 C58 C -0.63235 1.63123 -0.02038
 H59 H -0.74506 1.57513 -0.10614
 H60 H -0.74664 1.43707 -0.10704
 H61 H -0.50874 1.56983 -0.06657
 H62 H -0.57224 1.26921 0.06226
 H63 H -0.43361 1.26851 0.05297
 H64 H -0.27129 1.43545 -0.13023
 H65 H -0.26968 1.57468 -0.12358
 H66 H -0.56812 1.74038 0.06472
 H67 H -0.51053 1.43615 -0.07280
 H68 H -0.42938 1.73844 0.05683
 C69 C 0.06534 0.54471 0.30226
 C70 C 0.07347 0.47315 0.30307
 C71 C 0.03920 0.44857 0.36266
 N72 N 0.01320 0.50320 0.39961
 C73 C 0.02906 0.56176 0.36272
 C74 C 0.02654 0.37710 0.38018
 C75 C 0.00704 0.35935 0.44996
 C76 C -0.03261 0.30125 0.46950
 C77 C -0.03665 0.30185 0.54143
 C78 C 0.00030 0.36047 0.56418
 N79 N 0.02529 0.39626 0.50801
 C80 C 0.01261 0.37843 0.63538
 C81 C 0.02391 0.44959 0.65487
 C82 C 0.05216 0.47281 0.71780
 C83 C 0.04624 0.54444 0.71833
 C84 C 0.01746 0.56346 0.65434
 N85 N 0.00352 0.50519 0.61595
 C86 C -0.00281 0.63226 0.63438
 C87 C -0.02055 0.64832 0.56388
 C88 C -0.05026 0.71069 0.54021
 C89 C -0.04693 0.70971 0.46826
 C90 C -0.01470 0.64736 0.44965
 N91 N 0.00068 0.61016 0.50788
 C92 C 0.00712 0.62980 0.38120
 H93 H 0.08424 0.58010 0.26202
 H94 H 0.10091 0.44290 0.26366
 H95 H 0.03327 0.56640 0.50942
 H96 H -0.05719 0.26288 0.43555
 H97 H -0.06438 0.26380 0.57336
 H98 H 0.07446 0.44178 0.75963
 H99 H 0.06095 0.57778 0.76173
 H100 H -0.06358 0.75160 0.43379
 H101 H 0.05872 0.43979 0.50963
 H102 H -0.06959 0.75437 0.57064
 O103 O -0.10324 0.99393 -0.17236
 O104 O -0.09800 1.00535 0.18750
 O105 O -0.18548 0.90720 0.00399
 O106 O -0.18749 1.09714 0.00382
 O107 O -0.10250 1.18371 0.00458
 O108 O -0.09979 0.82164 0.00454
 O109 O -0.18511 1.00624 0.10346
 O110 O -0.18768 0.99562 -0.08551
 Zr111 Zr -0.12917 1.00268 0.00796
 O112 O -0.06960 1.06747 0.07136
 O113 O -0.06942 0.93888 -0.05553
 C114 C -0.16781 0.99036 -0.15037
 C115 C -0.16329 1.00711 0.16787
 C116 C -0.16465 0.84241 0.00170
 C117 C -0.16736 1.16238 0.00099
 H118 H -0.09764 0.90943 0.10099
 O119 O -0.06799 0.93956 0.07071
 H120 H -0.10034 1.09391 -0.08821
 O121 O -0.07027 1.06562 -0.05694
 O122 O 0.09194 1.00402 0.18505
 O123 O 0.08693 1.00583 -0.17526
 O124 O -0.00214 0.82242 0.10187
 O125 O -0.00452 1.18389 0.10192
 O126 O -0.00494 1.18310 -0.08927
 O127 O -0.00645 0.82160 -0.08769
 O128 O 0.17591 0.91012 0.00369
 O129 O 0.17389 1.09954 -0.00176
 O130 O 0.09086 0.82358 0.00669
 O131 O 0.08769 1.18455 0.00003
 O132 O 0.00245 0.90889 0.18660
 O133 O -0.00897 0.90725 -0.17342
 O134 O -0.00479 1.09708 -0.17461
 O135 O -0.00062 1.09817 0.18729
 O136 O 0.17642 1.00550 0.09831
 O137 O 0.17368 1.00881 -0.09104
 Zr138 Zr -0.00369 1.00372 0.12938
 Zr139 Zr -0.00732 1.00234 -0.11700
 Zr140 Zr -0.00478 0.87941 0.00698
 Zr141 Zr -0.00708 1.12699 0.00601
 Zr142 Zr 0.11776 1.00421 0.00433
 O143 O 0.05610 1.06691 -0.05802
 O144 O 0.05987 0.93989 0.06945
 C145 C 0.15662 1.00573 0.16349
 C146 C 0.15207 1.00963 -0.15546
 C147 C 0.00180 0.84384 0.16629
 C148 C 0.00022 1.16316 0.16686
 C149 C -0.00287 1.16206 -0.15400
 C150 C -0.00826 0.84257 -0.15237
 C151 C 0.15568 0.84498 0.00387
 C152 C 0.15267 1.16417 -0.00392
 H153 H 0.08725 0.91082 -0.08837
 O154 O 0.05729 0.94002 -0.05773
 H155 H 0.08901 1.09774 0.09585
 O156 O 0.05796 1.06729 0.06757
 C157 C 0.24709 1.00511 0.33940
 C158 C 0.31910 1.01476 0.32522
 C159 C 0.33531 1.02748 0.25337
 C160 C 0.28299 1.02449 0.20053
 C161 C 0.21186 1.01078 0.21749
 C162 C 0.19684 1.00413 0.28853
 C163 C 0.13868 0.98531 0.33717
 C164 C 0.19509 0.98315 0.39455
 H165 H 0.38827 1.04081 0.23736
 H166 H 0.29850 1.03322 0.14660
 H167 H 0.11422 0.93371 0.32618
 H168 H 0.10075 1.02910 0.34364
 H169 H 0.20541 0.92924 0.41432
 H170 H 0.18530 1.02298 0.43578
 C171 C -0.25083 0.98834 0.34419
 C172 C -0.32133 1.00589 0.33143
 C173 C -0.33686 1.03261 0.26384
 C174 C -0.28539 1.03448 0.21070
 C175 C -0.21673 1.01030 0.22367
 C176 C -0.20000 0.99106 0.29223
 C177 C -0.16434 0.92651 0.31848
 C178 C -0.22018 0.92333 0.37543
 H179 H -0.38892 1.05176 0.25151
 H180 H -0.29986 1.05340 0.15920
 H181 H -0.11087 0.93794 0.33904
 H182 H -0.16729 0.88206 0.28073
 H183 H -0.19862 0.93256 0.42876
 H184 H -0.25579 0.87715 0.37072
 C185 C -0.34483 0.98885 -0.23933
 C186 C -0.32992 0.96484 -0.30697
 C187 C -0.26197 0.93722 -0.31862
 C188 C -0.20892 0.94452 -0.26746
 C189 C -0.22337 0.97757 -0.20281
 C190 C -0.29352 0.99382 -0.18827
 C191 C -0.32523 1.05898 -0.15868
 C192 C -0.38128 1.05361 -0.21514
 H193 H -0.24863 0.91413 -0.36875
 H194 H -0.15632 0.92648 -0.27945
 H195 H -0.29041 1.10563 -0.16463
 H196 H -0.34655 1.04990 -0.10521
 H197 H -0.37869 1.09676 -0.25432
 H198 H -0.43454 1.04226 -0.19387
 C199 C 0.24130 0.99837 -0.33166
 C200 C 0.31144 1.01464 -0.31645
 C201 C 0.32648 1.04034 -0.24875
 C202 C 0.27431 1.04033 -0.19627
 C203 C 0.20576 1.01580 -0.21085
 C204 C 0.18971 0.99940 -0.28046
 C205 C 0.15363 0.93647 -0.31055
 C206 C 0.21032 0.93561 -0.36688
 H207 H 0.37917 1.05745 -0.23558
 H208 H 0.28836 1.05713 -0.14393
 H209 H 0.10064 0.94930 -0.33130
 H210 H 0.15544 0.89021 -0.27503
 H211 H 0.19004 0.94823 -0.42001
 H212 H 0.24512 0.88889 -0.36411
 C213 C 0.24226 1.34102 -0.00655
 C214 C 0.31255 1.32531 -0.02296
 C215 C 0.32697 1.25488 -0.04194
 C216 C 0.27496 1.20246 -0.03658
 C217 C 0.20673 1.21891 -0.01293
 C218 C 0.19084 1.28961 -0.00219
 C219 C 0.15575 1.32443 0.05856
 C220 C 0.21220 1.38093 0.05386
 H221 H 0.37849 1.23979 -0.06069
 H222 H 0.28876 1.14892 -0.04957
 H223 H 0.15855 1.29269 0.10741
 H224 H 0.10243 1.34387 0.04502
 H225 H 0.24793 1.38203 0.09992
 H226 H 0.19123 1.43287 0.03776
 C227 C 0.24467 0.66851 -0.00410
 C228 C 0.31535 0.68447 -0.01874
 C229 C 0.33049 0.75569 -0.03448
 C230 C 0.27893 0.80812 -0.02682
 C231 C 0.21031 0.79086 -0.00443
 C232 C 0.19365 0.71969 0.00179
 C233 C 0.15607 0.68097 0.05863
 C234 C 0.21240 0.62482 0.05251
 H235 H 0.38211 0.77142 -0.05261
 H236 H 0.29322 0.86211 -0.03774
 H237 H 0.10324 0.66253 0.04175
 H238 H 0.15715 0.70936 0.10935
 H239 H 0.19168 0.57400 0.03254
 H240 H 0.24644 0.62092 0.09967
 C241 C -0.26540 0.67165 0.01991
 C242 C -0.32201 0.68064 -0.02626
 C243 C -0.33080 0.74787 -0.05609
 C244 C -0.28052 0.80125 -0.04532
 C245 C -0.21982 0.78846 -0.00498
 C246 C -0.21550 0.72391 0.02958
 C247 C -0.15687 0.67295 0.03771
 C248 C -0.21131 0.61517 0.02739
 H249 H -0.37616 0.75874 -0.08851
 H250 H -0.28769 0.85144 -0.07100
 H251 H -0.13430 0.67342 0.09128
 H252 H -0.11790 0.67621 -0.00569
 H253 H -0.21991 0.58286 0.07517
 H254 H -0.20153 0.58472 -0.02109
 C255 C -0.25513 1.33834 -0.02820
 C256 C -0.32537 1.32107 -0.04179
 C257 C -0.34056 1.24897 -0.05146
 C258 C -0.29005 1.19728 -0.03553
 C259 C -0.22170 1.21613 -0.01376
 C260 C -0.20457 1.28755 -0.01596
 C261 C -0.16977 1.33204 0.03799
 C262 C -0.22447 1.38790 0.02386
 H263 H -0.39262 1.23212 -0.06709
 H264 H -0.30524 1.14272 -0.03814
 H265 H -0.11592 1.34791 0.02178
 H266 H -0.17545 1.30868 0.09077
 H267 H -0.20199 1.43570 -0.00109
 H268 H -0.26006 1.39777 0.06908
 C269 C 0.01066 1.34005 0.25714
 C270 C 0.02833 1.32437 0.32679
 C271 C 0.04659 1.25344 0.34037
 C272 C 0.03812 1.20085 0.28866
 C273 C 0.01222 1.21760 0.22137
 C274 C 0.00373 1.28863 0.20607
 C275 C -0.05770 1.32431 0.17424
 C276 C -0.05001 1.38094 0.22943
 H277 H 0.06606 1.23798 0.39135
 H278 H 0.05040 1.14704 0.30202
 H279 H -0.10629 1.29256 0.18089
 H280 H -0.04552 1.34311 0.12055
 H281 H -0.09488 1.38304 0.26679
 H282 H -0.03380 1.43240 0.20710
 C283 C -0.01242 1.33795 -0.24402
 C284 C 0.01201 1.32494 -0.31233
 C285 C 0.03827 1.25650 -0.32538
 C286 C 0.03360 1.20324 -0.27420
 C287 C 0.00335 1.21694 -0.20812
 C288 C -0.01571 1.28609 -0.19329
 C289 C -0.08266 1.31409 -0.16363
 C290 C -0.07921 1.37094 -0.21945
 H291 H 0.06236 1.24377 -0.37522
 H292 H 0.05306 1.15131 -0.28664
 H293 H -0.07560 1.33477 -0.10961
 H294 H -0.12767 1.27728 -0.17033
 H295 H -0.07059 1.42427 -0.19735
 H296 H -0.12204 1.36703 -0.25888
 C297 C -0.06447 0.72381 -0.29930
 C298 C -0.00300 0.68652 -0.31519
 C299 C 0.05939 0.70751 -0.28081
 C300 C 0.05761 0.75811 -0.22702
 C301 C -0.00637 0.78913 -0.20718
 C302 C -0.06603 0.77450 -0.24705
 C303 C -0.13765 0.75255 -0.22340
 C304 C -0.13597 0.69718 -0.28083
 H305 H 0.10920 0.68368 -0.29445
 H306 H 0.10580 0.77205 -0.20014
 H307 H -0.17754 0.79401 -0.23267
 H308 H -0.13779 0.73008 -0.16958
 H309 H -0.17466 0.70702 -0.32328
 H310 H -0.13514 0.64249 -0.26043
 C311 C 0.05475 0.73953 0.32611
 C312 C 0.00518 0.68504 0.32664
 C313 C -0.04959 0.68689 0.27724
 C314 C -0.05075 0.73903 0.22506
 C315 C 0.00285 0.78998 0.22131
 C316 C 0.05393 0.79090 0.27407
 C317 C 0.13221 0.78813 0.26635
 C318 C 0.13287 0.73381 0.32438
 H319 H -0.09060 0.64734 0.27835
 H320 H -0.09312 0.73937 0.18733
 H321 H 0.15932 0.83745 0.28113
 H322 H 0.14889 0.76676 0.21490
 H323 H 0.15721 0.75339 0.37360
 H324 H 0.15159 0.68146 0.30682
   
