data_POSCAR
  _audit_creation_date              2014-09-24
  _audit_creation_method            'ToBaCCo'
  _symmetry_space_group_name_H-M    'P1'
  _symmetry_Int_Tables_number       1
  _symmetry_cell_setting            triclinic
  loop_
  _symmetry_equiv_pos_as_xyz
 x,y,z
_cell_length_a 31.6975
_cell_length_b 28.8686
_cell_length_c 28.7785
_cell_angle_alpha 90.346000
_cell_angle_beta 89.970700
_cell_angle_gamma 89.750500
loop_
  _atom_site_label
  _atom_site_type_symbol
  _atom_site_fract_x
  _atom_site_fract_y
  _atom_site_fract_z
O1 O 0.33940 0.40211 0.06388
 O2 O 0.37116 0.34303 -0.04546
 O3 O 0.31201 0.40666 -0.02270
 O4 O 0.40475 0.36021 0.03661
 O5 O 0.36972 0.29697 0.05560
 O6 O 0.27435 0.34675 -0.00014
 O7 O 0.33121 0.28427 -0.02475
 O8 O 0.30259 0.34062 0.08420
 Cu9 Cu 0.35984 0.38344 0.00491
 Cu10 Cu 0.31602 0.31110 0.03011
 C11 C 0.31649 0.38061 0.09312
 C12 C 0.35653 0.30266 -0.05304
 C13 C 0.27710 0.38555 -0.02095
 C14 C 0.40316 0.32150 0.05690
 O15 O 0.68740 0.59641 0.03852
 O16 O 0.60308 0.65408 -0.02810
 O17 O 0.67327 0.60582 -0.04887
 O18 O 0.62300 0.64699 0.06083
 O19 O 0.66554 0.70730 0.05862
 O20 O 0.70279 0.67432 -0.05726
 O21 O 0.63839 0.71986 -0.02524
 O22 O 0.72771 0.65777 0.02816
 Cu23 Cu 0.64233 0.61954 0.00528
 Cu24 Cu 0.68748 0.69608 0.00057
 C25 C 0.72227 0.61714 0.04387
 C26 C 0.60575 0.69711 -0.03643
 C27 C 0.69620 0.63357 -0.07198
 C28 C 0.63747 0.68388 0.07914
 O29 O 0.63623 0.42165 0.94799
 O30 O 0.61291 0.34387 1.04679
 O31 O 0.66822 0.40695 1.03441
 O32 O 0.57544 0.36034 0.97299
 O33 O 0.61644 0.31068 0.93522
 O34 O 0.70865 0.35559 0.99850
 O35 O 0.65241 0.28987 1.01344
 O36 O 0.67764 0.36780 0.91751
 Cu37 Cu 0.61993 0.38985 1.00214
 Cu38 Cu 0.66778 0.32554 0.96314
 C39 C 0.66169 0.40802 0.91646
 C40 C 0.62763 0.30279 1.04567
 C41 C 0.70437 0.38928 1.02682
 C42 C 0.58003 0.32687 0.94467
 O43 O 0.33317 0.60269 0.94541
 O44 O 0.42029 0.63661 1.02245
 O45 O 0.35312 0.58161 1.02746
 O46 O 0.39454 0.66333 0.94170
 O47 O 0.35239 0.71675 0.97176
 O48 O 0.31748 0.63745 1.06311
 O49 O 0.38043 0.69137 1.05409
 O50 O 0.29188 0.65301 0.98194
 Cu51 Cu 0.37980 0.61578 0.98132
 Cu52 Cu 0.33194 0.68116 1.01990
 C53 C 0.29689 0.61961 0.95344
 C54 C 0.41536 0.67001 1.05073
 C55 C 0.32692 0.59501 1.05835
 C56 C 0.38021 0.70441 0.94244
 O57 O -0.04532 0.38283 0.34079
 O58 O 0.04278 0.36298 0.42149
 O59 O 0.02871 0.41143 0.34772
 O60 O -0.03166 0.31933 0.40637
 O61 O -0.00141 0.26742 0.36052
 O62 O 0.05991 0.35808 0.30399
 O63 O 0.06715 0.30782 0.37499
 O64 O -0.01904 0.32945 0.29350
 Cu65 Cu -0.00447 0.37286 0.38484
 Cu66 Cu 0.02797 0.31083 0.32775
 C67 C -0.04624 0.36071 0.30262
 C68 C 0.06976 0.33172 0.41205
 C69 C 0.05421 0.40010 0.31537
 C70 C -0.02651 0.27743 0.39338
 O71 O 0.03602 0.68363 0.60333
 O72 O -0.03506 0.59991 0.66022
 O73 O -0.04556 0.67847 0.61692
 O74 O 0.04704 0.60826 0.65146
 O75 O 0.05150 0.64794 0.71713
 O76 O -0.04002 0.71799 0.68252
 O77 O -0.02943 0.63870 0.72635
 O78 O 0.04056 0.72293 0.66921
 Cu79 Cu 0.00004 0.63853 0.62646
 Cu80 Cu 0.00584 0.68581 0.70535
 C81 C 0.05040 0.71752 0.62668
 C82 C -0.04389 0.60481 0.70299
 C83 C -0.05788 0.71106 0.64367
 C84 C 0.06500 0.61628 0.69021
 O85 O 0.97414 0.64791 0.41950
 O86 O 1.04829 0.60694 0.33081
 O87 O 1.04585 0.66572 0.39667
 O88 O 0.96710 0.58220 0.35279
 O89 O 0.94720 0.63097 0.29827
 O90 O 1.01620 0.71880 0.35208
 O91 O 1.02429 0.66007 0.28254
 O92 O 0.94177 0.69133 0.36724
 Cu93 Cu 1.01009 0.61824 0.37830
 Cu94 Cu 0.97978 0.67987 0.31943
 C95 C 0.94700 0.67852 0.40899
 C96 C 1.05040 0.62820 0.29238
 C97 C 1.04179 0.70771 0.38429
 C98 C 0.94432 0.59192 0.31788
 O99 O 0.95992 0.30404 0.60944
 O100 O 1.02513 0.38890 0.67053
 O101 O 1.04130 0.31620 0.61680
 O102 O 0.94587 0.37204 0.66860
 O103 O 0.95279 0.32534 0.72871
 O104 O 1.05084 0.27792 0.68215
 O105 O 1.02961 0.34367 0.73221
 O106 O 0.96844 0.25596 0.66803
 Cu107 Cu 0.99264 0.34965 0.63488
 Cu108 Cu 0.99979 0.29435 0.70732
 C109 C 0.95315 0.26535 0.62835
 C110 C 1.03723 0.38160 0.71185
 C111 C 1.06322 0.28893 0.64189
 C112 C 0.93375 0.35820 0.70835
 O113 O 0.39290 0.04688 0.33206
 O114 O 0.32830 -0.04535 0.38282
 O115 O 0.39021 -0.04398 0.32254
 O116 O 0.32456 0.04563 0.38276
 O117 O 0.28017 0.04310 0.32367
 O118 O 0.35013 -0.03516 0.26043
 O119 O 0.28940 -0.04700 0.31913
 O120 O 0.34688 0.05417 0.27483
 Cu121 Cu 0.36330 0.00044 0.36111
 Cu122 Cu 0.31246 0.00389 0.28851
 C123 C 0.37976 0.06758 0.29615
 C124 C 0.29889 -0.06300 0.35888
 C125 C 0.38111 -0.05415 0.28056
 C126 C 0.29091 0.05943 0.36279
 O127 O 0.59171 0.05157 0.66245
 O128 O 0.64778 -0.03038 0.58618
 O129 O 0.60597 -0.03932 0.66405
 O130 O 0.63886 0.05718 0.58765
 O131 O 0.69821 0.06157 0.62779
 O132 O 0.66160 -0.02635 0.70830
 O133 O 0.70436 -0.02591 0.63100
 O134 O 0.65128 0.06451 0.70007
 Cu135 Cu 0.61465 0.00866 0.62160
 Cu136 Cu 0.68422 0.01896 0.67190
 C137 C 0.61277 0.07404 0.69238
 C138 C 0.68571 -0.04115 0.59505
 C139 C 0.62860 -0.04913 0.69918
 C140 C 0.67549 0.07407 0.59384
 O141 O 0.43203 0.96136 0.62467
 O142 O 0.35164 1.02533 0.55835
 O143 O 0.41634 1.04703 0.60978
 O144 O 0.37233 0.93857 0.56435
 O145 O 0.32438 0.93870 0.62005
 O146 O 0.37668 1.04131 0.67263
 O147 O 0.31069 1.02673 0.62063
 O148 O 0.38577 0.95232 0.68139
 Cu149 Cu 0.39736 0.99296 0.58316
 Cu150 Cu 0.34515 0.98904 0.65476
 C151 C 0.42247 0.94682 0.66486
 C152 C 0.31772 1.03731 0.57878
 C153 C 0.40539 1.06174 0.64959
 C154 C 0.33946 0.92169 0.58261
 O155 O 0.58881 0.94891 0.37531
 O156 O 0.67555 1.02832 0.40455
 O157 O 0.59938 1.03767 0.36868
 O158 O 0.66277 0.93859 0.40752
 O159 O 0.69302 0.93342 0.33846
 O160 O 0.62325 1.02797 0.29710
 O161 O 0.69782 1.02541 0.33190
 O162 O 0.61675 0.93950 0.30545
 Cu163 Cu 0.62943 0.98975 0.39636
 Cu164 Cu 0.66087 0.98063 0.31125
 C165 C 0.58884 0.92985 0.33549
 C166 C 0.70031 1.04185 0.37274
 C167 C 0.59954 1.04892 0.32605
 C168 C 0.68785 0.91849 0.37953
 C169 C 0.84810 0.78215 0.49643
 C170 C 0.84175 0.79757 0.54305
 C171 C 0.81002 0.83062 0.55186
 C172 C 0.78399 0.84725 0.51637
 C173 C 0.78752 0.82818 0.47126
 C174 C 0.81978 0.79645 0.46157
 H175 H 0.82289 0.78316 0.42644
 H176 H 0.80537 0.84383 0.58677
 C177 C 0.17836 0.24206 0.49679
 C178 C 0.18022 0.22584 0.54322
 C179 C 0.20410 0.18554 0.55221
 C180 C 0.22268 0.15953 0.51629
 C181 C 0.21969 0.17502 0.47008
 C182 C 0.19877 0.21678 0.46135
 H183 H 0.19687 0.22893 0.42582
 H184 H 0.20537 0.17154 0.58700
 C185 C 0.15642 0.79661 0.52305
 C186 C 0.14810 0.79246 0.47497
 C187 C 0.17853 0.80653 0.44292
 C188 C 0.21719 0.82534 0.45690
 C189 C 0.22660 0.82797 0.50499
 C190 C 0.19596 0.81386 0.53730
 H191 H 0.20318 0.81603 0.57405
 H192 H 0.17052 0.80546 0.40630
 C193 C 0.85140 0.18973 0.51914
 C194 C 0.86163 0.18971 0.47154
 C195 C 0.83237 0.17263 0.43935
 C196 C 0.79272 0.15587 0.45315
 C197 C 0.78115 0.15985 0.50069
 C198 C 0.81096 0.17622 0.53287
 H199 H 0.80294 0.17748 0.56951
 H200 H 0.84217 0.16975 0.40341
 C201 C 0.50004 0.84794 0.77810
 C202 C 0.54264 0.83705 0.78854
 C203 C 0.55116 0.80352 0.82246
 C204 C 0.51878 0.78354 0.84875
 C205 C 0.47631 0.79476 0.83839
 C206 C 0.46766 0.82533 0.80193
 H207 H 0.43515 0.83403 0.79401
 H208 H 0.58367 0.79562 0.83115
 C209 C 0.48013 0.18136 0.22587
 C210 C 0.52302 0.16836 0.23054
 C211 C 0.55286 0.18652 0.19945
 C212 C 0.54150 0.21909 0.16543
 C213 C 0.49883 0.23378 0.16273
 C214 C 0.46894 0.21424 0.19241
 H215 H 0.43614 0.22429 0.18853
 H216 H 0.58560 0.17588 0.20234
 C217 C 0.51257 0.18554 0.77164
 C218 C 0.46990 0.17746 0.75965
 C219 C 0.43786 0.19658 0.78755
 C220 C 0.44686 0.22465 0.82645
 C221 C 0.48962 0.23403 0.83755
 C222 C 0.52146 0.21404 0.81003
 H223 H 0.55398 0.21894 0.82033
 H224 H 0.40525 0.19022 0.77821
 C225 C 0.51032 0.80691 0.25230
 C226 C 0.47240 0.81092 0.22715
 C227 C 0.46496 0.77947 0.19080
 C228 C 0.49679 0.74971 0.17401
 C229 C 0.53680 0.74945 0.19621
 C230 C 0.54143 0.77553 0.23731
 H231 H 0.57133 0.77484 0.25562
 H232 H 0.43517 0.78124 0.17236
 C233 C 0.75450 0.49233 0.80605
 C234 C 0.76744 0.53934 0.80490
 C235 C 0.80594 0.55009 0.78274
 C236 C 0.83351 0.51544 0.76610
 C237 C 0.82137 0.46853 0.76946
 C238 C 0.78134 0.45813 0.78736
 H239 H 0.77154 0.42222 0.78861
 H240 H 0.81688 0.58557 0.78250
 C241 C 0.22725 0.47549 0.18844
 C242 C 0.22636 0.51874 0.16558
 C243 C 0.19472 0.55083 0.17685
 C244 C 0.16181 0.53897 0.20713
 C245 C 0.15901 0.49279 0.22380
 C246 C 0.19296 0.46220 0.21587
 H247 H 0.19243 0.42754 0.23005
 H248 H 0.19549 0.58503 0.16157
 C249 C 0.80676 0.51216 0.14715
 C250 C 0.80172 0.46414 0.13933
 C251 C 0.82134 0.43286 0.16953
 C252 C 0.84719 0.44768 0.20634
 C253 C 0.84915 0.49583 0.21655
 C254 C 0.82909 0.52720 0.18659
 H255 H 0.83197 0.56405 0.19337
 H256 H 0.81881 0.39611 0.16202
 C257 C 0.19779 0.51937 0.86303
 C258 C 0.18368 0.47376 0.87186
 C259 C 0.15388 0.45406 0.84148
 C260 C 0.13831 0.47872 0.80334
 C261 C 0.15589 0.52209 0.79217
 C262 C 0.18491 0.54234 0.82254
 H263 H 0.19604 0.57713 0.81575
 H264 H 0.14150 0.41984 0.84819
 N265 N 0.30387 0.45954 0.18658
 N266 N 0.32837 0.43497 0.15860
 C267 C 0.30461 0.40297 0.13701
 C268 C 0.26350 0.40615 0.15315
 C269 C 0.26387 0.44414 0.18276
 H270 H 0.23597 0.39063 0.13728
 H271 H 0.31331 0.49021 0.20290
 H272 H 0.35962 0.44330 0.15086
 N273 N 0.81791 0.58336 0.10037
 N274 N 0.79580 0.61128 0.07346
 C275 C 0.75666 0.59402 0.06891
 C276 C 0.75368 0.55324 0.09387
 C277 C 0.79334 0.54765 0.11330
 H278 H 0.72581 0.53261 0.09941
 H279 H 0.84916 0.58916 0.11022
 H280 H 0.80724 0.64200 0.05931
 N281 N 0.67799 0.49713 0.83173
 N282 N 0.65367 0.47535 0.86200
 C283 C 0.67554 0.43935 0.87950
 C284 C 0.71522 0.43826 0.85986
 C285 C 0.71608 0.47599 0.83055
 H286 H 0.74097 0.41503 0.86828
 H287 H 0.66891 0.52662 0.81335
 H288 H 0.62297 0.48540 0.87077
 N289 N 0.19604 0.56978 0.93249
 N290 N 0.22118 0.59942 0.95372
 C291 C 0.25961 0.59699 0.93386
 C292 C 0.25897 0.56434 0.89835
 C293 C 0.21805 0.54774 0.89900
 H294 H 0.28445 0.55421 0.87534
 H295 H 0.16405 0.56565 0.94008
 H296 H 0.21227 0.62010 0.98201
 N297 N 0.14701 0.32274 0.50268
 N298 N 0.11751 0.34646 0.48031
 C299 C 0.10378 0.32043 0.44440
 C300 C 0.12495 0.27882 0.44394
 C301 C 0.15155 0.28109 0.48166
 H302 H 0.12007 0.24973 0.42065
 H303 H 0.16297 0.33459 0.53215
 H304 H 0.10687 0.37946 0.48983
 N305 N 0.12055 0.81034 0.59915
 N306 N 0.09308 0.78956 0.62640
 C307 C 0.07911 0.75106 0.60487
 C308 C 0.09838 0.74734 0.56161
 C309 C 0.12472 0.78572 0.55942
 H310 H 0.09552 0.71926 0.53682
 H311 H 0.13659 0.84063 0.60811
 H312 H 0.08479 0.80123 0.65962
 N313 N 0.92402 0.75819 0.49929
 N314 N 0.94915 0.72827 0.47813
 C315 C 0.92668 0.70479 0.44618
 C316 C 0.88533 0.72009 0.44715
 C317 C 0.88465 0.75322 0.48233
 H318 H 0.85993 0.70998 0.42417
 H319 H 0.93433 0.78289 0.52334
 H320 H 0.98179 0.72665 0.48301
 N321 N 0.88905 0.17024 0.59234
 N322 N 0.91584 0.18999 0.62138
 C323 C 0.92678 0.23143 0.60408
 C324 C 0.90643 0.23827 0.56206
 C325 C 0.88282 0.19857 0.55588
 H326 H 0.90676 0.26898 0.54076
 H327 H 0.87465 0.13827 0.59795
 H328 H 0.92537 0.17579 0.65300
 N329 N 0.40934 0.18187 0.26413
 N330 N 0.38248 0.15152 0.28103
 C331 C 0.40097 0.10957 0.28084
 C332 C 0.44140 0.11301 0.26315
 C333 C 0.44547 0.15971 0.25262
 H334 H 0.46353 0.08513 0.25638
 H335 H 0.40253 0.21703 0.25999
 H336 H 0.35194 0.15949 0.29226
 N337 N 0.58792 0.18248 0.74585
 N338 N 0.61454 0.15236 0.72736
 C339 C 0.59340 0.11353 0.71652
 C340 C 0.55137 0.11892 0.72878
 C341 C 0.54912 0.16340 0.74758
 H342 H 0.52660 0.09341 0.72584
 H343 H 0.59651 0.21565 0.75687
 H344 H 0.64649 0.15880 0.72144
 N345 N 0.50301 0.92910 0.74834
 N346 N 0.48373 0.95433 0.71664
 C347 C 0.45517 0.92770 0.69471
 C348 C 0.45602 0.88367 0.71321
 C349 C 0.48772 0.88564 0.74632
 H350 H 0.43546 0.85491 0.70508
 H351 H 0.52507 0.94206 0.77197
 H352 H 0.48832 0.98984 0.71212
 N353 N 0.51109 0.84062 0.33250
 N354 N 0.53177 0.87381 0.35457
 C355 C 0.55712 0.89512 0.32384
 C356 C 0.55226 0.87511 0.28059
 C357 C 0.52264 0.84113 0.28749
 H358 H 0.56931 0.88267 0.24894
 H359 H 0.49054 0.81731 0.34829
 H360 H 0.52977 0.88029 0.39026
 N361 N 0.37790 0.21250 0.86537
 N362 N 0.35364 0.23326 0.89641
 C363 C 0.36999 0.27509 0.90649
 C364 C 0.40579 0.28182 0.87968
 C365 C 0.41055 0.24040 0.85516
 H366 H 0.42716 0.31092 0.88105
 H367 H 0.37345 0.17851 0.85379
 H368 H 0.32777 0.21770 0.91239
 N369 N 0.52023 0.77218 0.93432
 N370 N 0.54426 0.75038 0.96472
 C371 C 0.57037 0.72144 0.94172
 C372 C 0.56344 0.72571 0.89447
 C373 C 0.53113 0.75821 0.89118
 H374 H 0.58177 0.71055 0.86647
 H375 H 0.49919 0.79885 0.94290
 H376 H 0.54459 0.75751 1.00031
 N377 N 0.50804 0.72537 0.09108
 N378 N 0.48686 0.70218 0.05904
 C379 C 0.45106 0.68629 0.07809
 C380 C 0.44955 0.69913 0.12428
 C381 C 0.48682 0.72290 0.13160
 H382 H 0.42357 0.69488 0.14829
 H383 H 0.53501 0.74487 0.08442
 H384 H 0.49502 0.70047 0.02394
 N385 N 0.59981 0.20160 0.10966
 N386 N 0.62328 0.22340 0.07883
 C387 C 0.61352 0.26881 0.08019
 C388 C 0.58280 0.27622 0.11357
 C389 C 0.57417 0.23251 0.13098
 H390 H 0.56898 0.30909 0.12268
 H391 H 0.60021 0.16578 0.11458
 H392 H 0.64426 0.20699 0.05600
 N393 N 0.23237 0.07400 0.50764
 N394 N 0.25878 0.04208 0.52292
 C395 C 0.28531 0.06216 0.55332
 C396 C 0.27550 0.10852 0.55820
 C397 C 0.24225 0.11479 0.52784
 H398 H 0.29113 0.13424 0.57952
 H399 H 0.20853 0.06796 0.48333
 H400 H 0.25844 0.00726 0.51282
 N401 N 0.77111 0.13659 0.37154
 N402 N 0.74766 0.10248 0.34906
 C403 C 0.72938 0.07653 0.38202
 C404 C 0.74154 0.09214 0.42555
 C405 C 0.76749 0.13014 0.41783
 H406 H 0.73382 0.07603 0.45826
 H407 H 0.78795 0.16238 0.35444
 H408 H 0.74359 0.09988 0.31312
 N409 N 0.74813 0.92249 0.49955
 N410 N 0.72081 0.95069 0.51964
 C411 C 0.70963 0.93263 0.56071
 C412 C 0.73050 0.89103 0.56727
 C413 C 0.75391 0.88524 0.52687
 H414 H 0.72972 0.86897 0.59753
 H415 H 0.76489 0.93082 0.46963
 H416 H 0.71229 0.98320 0.50683
 N417 N 0.24499 0.83012 0.37573
 N418 N 0.26450 0.86066 0.34950
 C419 C 0.27659 0.89638 0.37643
 C420 C 0.26430 0.88844 0.42188
 C421 C 0.24393 0.84592 0.41999
 H422 H 0.26719 0.91181 0.45123
 H423 H 0.23183 0.79946 0.36302
 H424 H 0.26922 0.85704 0.31374
 N425 N 0.06793 0.48716 0.76554
 N426 N 0.04218 0.46188 0.74010
 C427 C 0.05806 0.41878 0.73704
 C428 C 0.09561 0.41611 0.76139
 C429 C 0.10128 0.46081 0.77792
 H430 H 0.11649 0.38658 0.76493
 H431 H 0.06217 0.52162 0.77471
 H432 H 0.01390 0.47383 0.72579
 N433 N 0.11438 0.60688 0.19200
 N434 N 0.08495 0.63057 0.21456
 C435 C 0.08294 0.61493 0.25851
 C436 C 0.11286 0.58058 0.26452
 C437 C 0.13140 0.57557 0.22116
 H438 H 0.11835 0.55998 0.29526
 H439 H 0.12101 0.61059 0.15667
 H440 H 0.06544 0.65551 0.19942
 N441 N 0.89431 0.37857 0.19915
 N442 N 0.92180 0.35503 0.22416
 C443 C 0.92252 0.37311 0.26725
 C444 C 0.89406 0.40946 0.26996
 C445 C 0.87686 0.41244 0.22566
 H446 H 0.88828 0.43045 0.30023
 H447 H 0.88929 0.37271 0.16374
 H448 H 0.94097 0.32844 0.21114
 N449 N 0.91201 0.51575 0.77387
 N450 N 0.94405 0.54043 0.75835
 C451 C 0.92972 0.57020 0.72615
 C452 C 0.88657 0.56464 0.72114
 C453 C 0.87654 0.52954 0.75203
 H454 H 0.86522 0.58476 0.69986
 H455 H 0.91419 0.49148 0.80053
 H456 H 0.97500 0.53762 0.77049
 N457 N 0.74788 0.62254 0.81871
 N458 N 0.72963 0.64892 0.85419
 C459 C 0.71501 0.61951 0.88645
 C460 C 0.72441 0.57438 0.87318
 C461 C 0.74507 0.57744 0.83041
 H462 H 0.72016 0.54393 0.89433
 H463 H 0.76203 0.63640 0.78916
 H464 H 0.72793 0.68507 0.85481
 N465 N 0.17595 0.41213 0.93212
 N466 N 0.20255 0.38641 0.96075
 C467 C 0.24145 0.40462 0.95768
 C468 C 0.24048 0.44246 0.92772
 C469 C 0.19903 0.44554 0.91174
 H470 H 0.26720 0.46244 0.91596
 H471 H 0.14415 0.40471 0.92652
 H472 H 0.19347 0.35727 0.97957
 N473 N 0.26891 0.49833 0.09541
 N474 N 0.30032 0.51831 0.06856
 C475 C 0.30509 0.56216 0.08363
 C476 C 0.27827 0.57059 0.12114
 C477 C 0.25707 0.52925 0.12820
 H478 H 0.27422 0.60272 0.14022
 H479 H 0.25467 0.46672 0.08778
 H480 H 0.31334 0.50323 0.03870
 N481 N 0.80719 0.41783 0.06705
 N482 N 0.77977 0.39439 0.03742
 C483 C 0.74014 0.40697 0.04888
 C484 C 0.74133 0.43848 0.08576
 C485 C 0.78393 0.44433 0.09607
 H486 H 0.71465 0.45208 0.10502
 H487 H 0.83972 0.41216 0.06871
 H488 H 0.78909 0.37076 0.01173
 N489 N 0.87554 0.80731 0.62126
 N490 N 0.90236 0.78228 0.65022
 C491 C 0.91030 0.74129 0.62941
 C492 C 0.88721 0.73819 0.58852
 C493 C 0.86705 0.78092 0.58354
 H494 H 0.88706 0.70927 0.56445
 H495 H 0.86697 0.84184 0.62690
 H496 H 0.91683 0.79567 0.67998
 N497 N 0.92813 0.17146 0.43031
 N498 N 0.95830 0.19653 0.40599
 C499 C 0.95154 0.24180 0.41501
 C500 C 0.91769 0.24663 0.44541
 C501 C 0.90376 0.20186 0.45385
 H502 H 0.90235 0.27861 0.45586
 H503 H 0.92286 0.13596 0.42637
 H504 H 0.98040 0.18211 0.38311
 N505 N 0.16567 0.24047 0.62750
 N506 N 0.13197 0.25545 0.65483
 C507 C 0.10170 0.27127 0.62621
 C508 C 0.11469 0.26574 0.58043
 C509 C 0.15503 0.24597 0.58244
 H510 H 0.09535 0.27151 0.55008
 H511 H 0.19364 0.22665 0.64075
 H512 H 0.13137 0.25489 0.69112
 N513 N 0.08275 0.81171 0.43288
 N514 N 0.05571 0.78789 0.40310
 C515 C 0.06369 0.74235 0.40791
 C516 C 0.09545 0.73610 0.44063
 C517 C 0.10665 0.78032 0.45539
 H518 H 0.11092 0.70386 0.44954
 H519 H 0.08716 0.84754 0.43273
 H520 H 0.03376 0.80344 0.38099
 N521 N 0.61134 0.87765 0.79647
 N522 N 0.63392 0.90791 0.77311
 C523 C 0.61643 0.91370 0.73095
 C524 C 0.58216 0.88450 0.72650
 C525 C 0.57891 0.86344 0.76970
 H526 H 0.56065 0.88219 0.69741
 H527 H 0.61641 0.86976 0.83140
 H528 H 0.65920 0.92641 0.78711
 N529 N 0.42648 0.87228 0.19360
 N530 N 0.40342 0.90791 0.20731
 C531 C 0.40564 0.91150 0.25387
 C532 C 0.43118 0.87623 0.27074
 C533 C 0.44383 0.85186 0.23108
 H534 H 0.43769 0.86857 0.30670
 H535 H 0.43060 0.86268 0.15883
 H536 H 0.38637 0.92932 0.18491
 N537 N 0.52461 0.14128 0.31307
 N538 N 0.54496 0.11019 0.33814
 C539 C 0.57177 0.08665 0.31028
 C540 C 0.56844 0.10359 0.26545
 C541 C 0.53786 0.13802 0.26864
 H542 H 0.58560 0.09233 0.23486
 H543 H 0.50258 0.16479 0.32654
 H544 H 0.54058 0.10546 0.37377
 N545 N 0.47487 0.15600 0.67538
 N546 N 0.45727 0.12613 0.64642
 C547 C 0.42793 0.10168 0.66955
 C548 C 0.42666 0.11681 0.71534
 C549 C 0.45742 0.15087 0.71771
 H550 H 0.40764 0.10343 0.74343
 H551 H 0.49867 0.17913 0.66622
 H552 H 0.46597 0.12201 0.61162
 N553 N 0.61260 0.75550 0.17596
 N554 N 0.63938 0.73818 0.14541
 C555 C 0.62132 0.70203 0.12366
 C556 C 0.58164 0.69471 0.14281
 C557 C 0.57640 0.73108 0.17457
 H558 H 0.55854 0.66968 0.13140
 H559 H 0.61791 0.78636 0.19412
 H560 H 0.66821 0.75344 0.13707
 N561 N 0.49104 0.31427 0.13375
 N562 N 0.46576 0.33721 0.10556
 C563 C 0.43987 0.30692 0.08433
 C564 C 0.44971 0.26256 0.09895
 C565 C 0.48325 0.26865 0.12949
 H566 H 0.43286 0.23088 0.09137
 H567 H 0.51038 0.33006 0.15851
 H568 H 0.46402 0.37331 0.10392
 N569 N 0.48804 0.25999 0.92152
 N570 N 0.51137 0.28610 0.94926
 C571 C 0.54286 0.30470 0.92422
 C572 C 0.53916 0.29037 0.87860
 C573 C 0.50355 0.26253 0.87792
 H574 H 0.56084 0.29711 0.85039
 H575 H 0.46374 0.23865 0.93309
 H576 H 0.50758 0.28825 0.98528
 N577 N 0.40701 0.80546 0.87820
 N578 N 0.38137 0.78166 0.90508
 C579 C 0.39743 0.73883 0.91051
 C580 C 0.43502 0.73509 0.88612
 C581 C 0.44019 0.77841 0.86644
 H582 H 0.45627 0.70568 0.88447
 H583 H 0.40246 0.84022 0.86959
 H584 H 0.35399 0.79509 0.92035
 N585 N 0.71465 0.81875 0.44345
 N586 N 0.68769 0.84326 0.41876
 C587 C 0.70887 0.87610 0.39546
 C588 C 0.75164 0.87139 0.40478
 C589 C 0.75371 0.83546 0.43673
 H590 H 0.77629 0.89584 0.39656
 H591 H 0.70583 0.79441 0.46831
 H592 H 0.65493 0.84054 0.42163
 N593 N 0.30544 0.83430 0.50263
 N594 N 0.33520 0.85843 0.52374
 C595 C 0.31753 0.88395 0.55800
 C596 C 0.27446 0.87553 0.55882
 C597 C 0.26799 0.84446 0.52247
 H598 H 0.25077 0.89275 0.57989
 H599 H 0.31072 0.81230 0.47425
 H600 H 0.36682 0.85871 0.51352
 N601 N 0.20943 0.14078 0.39148
 N602 N 0.22749 0.10984 0.36398
 C603 C 0.26365 0.09526 0.38374
 C604 C 0.26932 0.11863 0.42549
 C605 C 0.23355 0.14665 0.42957
 H606 H 0.29495 0.11457 0.44997
 H607 H 0.18013 0.15610 0.38497
 H608 H 0.21461 0.09828 0.33261
 N609 N 0.70192 0.14992 0.50000
 N610 N 0.67373 0.12693 0.52478
 C611 C 0.69373 0.10682 0.56076
 C612 C 0.73608 0.11730 0.55881
 C613 C 0.74026 0.14395 0.51951
 H614 H 0.76097 0.10461 0.58120
 H615 H 0.69507 0.16816 0.46967
 H616 H 0.64178 0.12422 0.51641
 N617 N 0.86210 0.50884 0.30130
 N618 N 0.88757 0.53357 0.32792
 C619 C 0.91369 0.55788 0.30051
 C620 C 0.90474 0.54787 0.25437
 C621 C 0.87267 0.51535 0.25648
 H622 H 0.91916 0.56246 0.22369
 H623 H 0.83738 0.48851 0.31369
 H624 H 0.88592 0.53506 0.36415
 N625 N 0.85173 0.39114 0.78720
 N626 N 0.88054 0.36220 0.77106
 C627 C 0.89800 0.38033 0.73267
 C628 C 0.87943 0.42321 0.72394
 C629 C 0.85019 0.42881 0.75979
 H630 H 0.88680 0.44712 0.69631
 H631 H 0.83426 0.38550 0.81742
 H632 H 0.88852 0.33084 0.78678
 N633 N 0.14177 0.52719 0.70726
 N634 N 0.11659 0.55169 0.68020
 C635 C 0.10090 0.58750 0.70501
 C636 C 0.11776 0.58647 0.74948
 C637 C 0.14280 0.54703 0.74978
 H638 H 0.10817 0.60715 0.77918
 H639 H 0.15513 0.49535 0.69785
 H640 H 0.10795 0.54192 0.64653
 N641 N 0.08061 0.48923 0.23604
 N642 N 0.05345 0.46635 0.26189
 C643 C 0.07486 0.43617 0.28837
 C644 C 0.11760 0.43992 0.27922
 C645 C 0.12012 0.47504 0.24652
 H646 H 0.14300 0.41949 0.29378
 H647 H 0.07173 0.51276 0.21039
 H648 H 0.02069 0.46964 0.25944
   
