data_POSCAR
  _audit_creation_date              2014-09-24
  _audit_creation_method            'ToBaCCo'
  _symmetry_space_group_name_H-M    'P1'
  _symmetry_Int_Tables_number       1
  _symmetry_cell_setting            triclinic
  loop_
  _symmetry_equiv_pos_as_xyz
 x,y,z
_cell_length_a 60.6353
_cell_length_b 60.5534
_cell_length_c 24.5339
_cell_angle_alpha 90.085100
_cell_angle_beta 89.923800
_cell_angle_gamma 119.952300
loop_
  _atom_site_label
  _atom_site_type_symbol
  _atom_site_fract_x
  _atom_site_fract_y
  _atom_site_fract_z
C1 C 0.18926 0.49806 0.49600
 C2 C 0.20024 0.49662 0.44649
 C3 C 0.22454 0.49895 0.44835
 C4 C 0.23844 0.50431 0.49746
 C5 C 0.22706 0.50656 0.54576
 C6 C 0.20198 0.50227 0.54624
 C7 C 0.26447 0.50692 0.49840
 C8 C 0.27450 0.50253 0.54661
 C9 C 0.29877 0.50495 0.54729
 C10 C 0.31273 0.51062 0.49877
 C11 C 0.30306 0.51445 0.45013
 C12 C 0.27943 0.51340 0.45060
 H13 H 0.17147 0.49809 0.49512
 H14 H 0.23206 0.49536 0.41163
 H15 H 0.23740 0.51065 0.58352
 H16 H 0.26344 0.49648 0.58372
 H17 H 0.33113 0.51174 0.49875
 H18 H 0.27304 0.51783 0.41325
 C19 C 0.49697 -0.31062 0.49555
 C20 C 0.49941 -0.29754 0.44661
 C21 C 0.49836 -0.27485 0.44917
 C22 C 0.49359 -0.26595 0.49872
 C23 C 0.49018 -0.28039 0.54643
 C24 C 0.49329 -0.30194 0.54607
 C25 C 0.49341 -0.24112 0.50109
 C26 C 0.49773 -0.22753 0.55070
 C27 C 0.49816 -0.20416 0.55278
 C28 C 0.49570 -0.19340 0.50438
 C29 C 0.49225 -0.20589 0.45442
 C30 C 0.48995 -0.23012 0.45335
 H31 H 0.49592 -0.32896 0.49398
 H32 H 0.50273 -0.26350 0.41271
 H33 H 0.48630 -0.27420 0.58454
 H34 H 0.50165 -0.23432 0.58805
 H35 H 0.49625 -0.17524 0.50555
 H36 H 0.48613 -0.23980 0.41461
 C37 C 1.31153 0.80642 0.50145
 C38 C 1.29834 0.79778 0.45168
 C39 C 1.27468 0.77483 0.45219
 C40 C 1.26506 0.75982 0.49985
 C41 C 1.27955 0.76881 0.54804
 C42 C 1.30211 0.79234 0.54952
 C43 C 1.23995 0.73517 0.49946
 C44 C 1.22617 0.72449 0.54828
 C45 C 1.20322 0.70081 0.54869
 C46 C 1.19293 0.68927 0.49810
 C47 C 1.20554 0.69997 0.44909
 C48 C 1.22945 0.72207 0.45017
 H49 H 1.32962 0.82392 0.50332
 H50 H 1.26318 0.76948 0.41582
 H51 H 1.27376 0.75770 0.58503
 H52 H 1.23370 0.73414 0.58635
 H53 H 1.17444 0.67219 0.49603
 H54 H 1.23935 0.72905 0.41193
 C55 C 0.80773 0.50031 0.50451
 C56 C 0.79505 0.49611 0.45468
 C57 C 0.77021 0.49220 0.45390
 C58 C 0.75848 0.49433 0.50203
 C59 C 0.77221 0.49936 0.55150
 C60 C 0.79636 0.50158 0.55315
 C61 C 0.73237 0.49166 0.50061
 C62 C 0.71766 0.48643 0.54863
 C63 C 0.69366 0.48491 0.54870
 C64 C 0.68350 0.48653 0.49825
 C65 C 0.69720 0.49084 0.44969
 C66 C 0.72184 0.49434 0.45140
 H67 H 0.82639 0.50201 0.50550
 H68 H 0.76048 0.48781 0.41522
 H69 H 0.76471 0.50215 0.58920
 H70 H 0.72429 0.48245 0.58607
 H71 H 0.66548 0.48613 0.49631
 H72 H 0.73244 0.49898 0.41377
 C73 C 0.50670 0.31276 0.50251
 C74 C 0.50989 0.30292 0.45344
 C75 C 0.51075 0.28028 0.45390
 C76 C 0.50656 0.26614 0.50228
 C77 C 0.50234 0.27605 0.55103
 C78 C 0.50367 0.30005 0.55239
 C79 C 0.50733 0.24161 0.50181
 C80 C 0.51210 0.23185 0.54997
 C81 C 0.51341 0.20922 0.54979
 C82 C 0.51162 0.19735 0.49931
 C83 C 0.50738 0.20680 0.45090
 C84 C 0.50412 0.22810 0.45271
 H85 H 0.50525 0.32985 0.50093
 H86 H 0.51516 0.27426 0.41599
 H87 H 0.49904 0.26560 0.58842
 H88 H 0.51618 0.24245 0.58752
 H89 H 0.51194 0.17967 0.49720
 H90 H 0.49953 0.23413 0.41510
 C91 C 0.68577 0.19670 0.50263
 C92 C 0.69485 0.21003 0.45360
 C93 C 0.71809 0.23305 0.45332
 C94 C 0.73326 0.24220 0.50074
 C95 C 0.72377 0.22800 0.54940
 C96 C 0.69991 0.20564 0.55078
 C97 C 0.75901 0.26595 0.49886
 C98 C 0.77063 0.28011 0.54666
 C99 C 0.79552 0.30141 0.54588
 C100 C 0.80773 0.30961 0.49500
 C101 C 0.79637 0.29647 0.44686
 C102 C 0.77248 0.27438 0.44920
 H103 H 0.66770 0.17906 0.50324
 H104 H 0.72401 0.24369 0.41566
 H105 H 0.73498 0.23357 0.58628
 H106 H 0.76065 0.27396 0.58489
 H107 H 0.82575 0.32718 0.49185
 H108 H 0.76491 0.26373 0.41192
 O109 O 0.96515 0.44375 0.09707
 O110 O 0.93683 0.45011 0.04728
 C111 C 0.94219 0.43821 0.08433
 O112 O 1.03687 0.55761 0.09648
 O113 O 1.06483 0.55083 0.04606
 C114 C 1.05976 0.56319 0.08257
 O115 O 0.96592 0.51998 0.10329
 O116 O 0.93727 0.48707 0.04971
 C117 C 0.94285 0.50318 0.08945
 O118 O 1.03604 0.47672 0.09140
 O119 O 1.06453 0.51234 0.04411
 C120 C 1.05907 0.49402 0.07854
 Zr121 Zr 1.00066 0.47204 0.06623
 O122 O 1.00303 0.47156 0.15230
 O123 O 0.99917 0.43654 0.05872
 Zr124 Zr 1.00116 0.52815 0.06893
 O125 O 1.00248 0.53144 0.15480
 O126 O 1.00028 0.56246 0.06154
 O127 O 0.97834 0.48885 0.07873
 O128 O 1.02300 0.51088 0.07779
 O129 O 1.03592 0.47807 -0.09685
 O130 O 1.06439 0.51309 -0.04784
 C131 C 1.05895 0.49532 -0.08369
 O132 O 0.96566 0.52228 -0.09833
 O133 O 0.93709 0.48794 -0.04789
 C134 C 0.94262 0.50511 -0.08531
 O135 O 1.03662 0.55928 -0.09332
 O136 O 1.06479 0.55165 -0.04613
 C137 C 1.05957 0.56460 -0.08080
 O138 O 0.96483 0.44522 -0.10199
 O139 O 0.93677 0.45095 -0.04945
 C140 C 0.94193 0.43964 -0.08826
 Zr141 Zr 1.00046 0.47304 -0.07046
 O142 O 1.00325 0.47499 -0.15656
 O143 O 0.99770 0.43679 -0.07139
 Zr144 Zr 1.00098 0.52906 -0.06752
 O145 O 1.00368 0.53153 -0.15356
 O146 O 0.99875 0.56284 -0.06389
 Zr147 Zr 0.96254 0.48168 -0.00032
 Zr148 Zr 1.03891 0.51932 -0.00082
 O149 O 1.02283 0.51202 -0.07935
 O150 O 0.97800 0.48993 -0.07970
 O151 O 1.02338 0.47951 -0.00243
 O152 O 0.97858 0.52152 0.00121
 O153 O 0.97812 0.45746 -0.00211
 O154 O 1.02405 0.54421 0.00084
 H155 H 1.03439 0.51616 0.10993
 H156 H 0.96698 0.52862 0.00217
 H157 H 1.03420 0.51785 -0.11159
 H158 H 0.96647 0.43877 -0.00278
 H159 H 0.99999 0.56818 0.09926
 H160 H 1.01254 0.57490 -0.03955
 H161 H 0.99013 0.51515 -0.16841
 H162 H 0.98917 0.47719 -0.17043
 H163 H 1.01004 0.43726 -0.04437
 H164 H 0.99920 0.43067 0.09639
 H165 H 0.98955 0.47450 0.16731
 H166 H 1.00380 0.51692 0.16909
 O167 O 0.51900 0.55390 -0.10362
 O168 O 0.48588 0.54943 -0.05054
 C169 C 0.50213 0.56012 -0.08981
 O170 O 0.47529 0.43973 -0.09040
 O171 O 0.51100 0.44718 -0.04326
 C172 C 0.49273 0.43417 -0.07759
 O173 O 0.44290 0.47818 -0.09843
 O174 O 0.44900 0.51285 -0.04857
 C175 C 0.43734 0.49567 -0.08601
 O176 O 0.55569 0.51921 -0.09871
 O177 O 0.54917 0.48496 -0.04697
 C178 C 0.56119 0.50186 -0.08452
 Zr179 Zr 0.52639 0.52587 -0.07114
 O180 O 0.52694 0.52346 -0.15721
 O181 O 0.56009 0.56190 -0.07288
 Zr182 Zr 0.47032 0.47035 -0.06509
 O183 O 0.46696 0.46473 -0.15039
 O184 O 0.43504 0.43673 -0.05265
 O185 O 0.48710 0.50942 -0.07952
 O186 O 0.50902 0.48671 -0.07809
 O187 O 0.55838 0.52280 0.09211
 O188 O 0.55048 0.48668 0.04570
 C189 C 0.56351 0.50495 0.08008
 O190 O 0.44523 0.48173 0.10385
 O191 O 0.45028 0.51457 0.04903
 C192 C 0.43956 0.49891 0.08928
 O193 O 0.47795 0.44315 0.09965
 O194 O 0.51228 0.44895 0.04904
 C195 C 0.49509 0.43720 0.08620
 O196 O 0.52176 0.55737 0.09540
 O197 O 0.48712 0.55111 0.04558
 C198 C 0.50452 0.56314 0.08227
 Zr199 Zr 0.52832 0.52839 0.06565
 O200 O 0.53145 0.52918 0.15165
 O201 O 0.56190 0.56440 0.06017
 Zr202 Zr 0.47226 0.47295 0.07115
 O203 O 0.47376 0.47206 0.15723
 O204 O 0.43596 0.43961 0.07151
 Zr205 Zr 0.48054 0.51889 -0.00064
 Zr206 Zr 0.51813 0.48009 0.00066
 O207 O 0.51127 0.48964 0.07897
 O208 O 0.48932 0.51244 0.07885
 O209 O 0.54301 0.51980 -0.00278
 O210 O 0.45619 0.47918 0.00287
 O211 O 0.52037 0.54247 -0.00349
 O212 O 0.47837 0.45575 0.00379
 H213 H 0.51403 0.48034 -0.11031
 H214 H 0.43757 0.47248 0.00378
 H215 H 0.51723 0.48447 0.11152
 H216 H 0.52768 0.56120 -0.00484
 H217 H 0.42825 0.43007 -0.08945
 H218 H 0.43727 0.42652 0.04979
 H219 H 0.47847 0.48926 0.17062
 H220 H 0.51532 0.52686 0.16685
 H221 H 0.57480 0.56199 0.04050
 H222 H 0.57344 0.56024 -0.05331
 H223 H 0.51095 0.52198 -0.17118
 H224 H 0.47916 0.48123 -0.16703
 O225 O 0.47705 0.03518 0.09715
 O226 O 0.51169 0.06333 0.04696
 C227 C 0.49452 0.05812 0.08414
 O228 O 0.51944 -0.03624 0.09997
 O229 O 0.48507 -0.06445 0.04929
 C230 C 0.50224 -0.05922 0.08629
 O231 O 0.55272 0.03503 0.10510
 O232 O 0.54825 0.06318 0.05036
 C233 C 0.55869 0.05800 0.09076
 O234 O 0.43946 -0.03591 0.09232
 O235 O 0.44694 -0.06443 0.04593
 C236 C 0.43398 -0.05897 0.08011
 Zr237 Zr 0.46993 -0.00039 0.06654
 O238 O 0.46651 -0.00307 0.15253
 O239 O 0.43669 0.00263 0.06117
 Zr240 Zr 0.52557 -0.00062 0.07184
 O241 O 0.52398 -0.00329 0.15788
 O242 O 0.56189 0.00237 0.07208
 O243 O 0.50894 0.02220 0.07983
 O244 O 0.48652 -0.02256 0.07958
 O245 O 0.44241 -0.03665 -0.09787
 O246 O 0.44828 -0.06471 -0.04576
 C247 C 0.43655 -0.05960 -0.08351
 O248 O 0.55595 0.03435 -0.09625
 O249 O 0.54980 0.06298 -0.04674
 C250 C 0.56160 0.05742 -0.08377
 O251 O 0.52217 -0.03673 -0.09005
 O252 O 0.48624 -0.06484 -0.04318
 C253 C 0.50452 -0.05968 -0.07750
 O254 O 0.48020 0.03480 -0.10365
 O255 O 0.51309 0.06306 -0.04961
 C256 C 0.49721 0.05779 -0.08949
 Zr257 Zr 0.47190 -0.00074 -0.07016
 O258 O 0.47049 -0.00369 -0.15622
 O259 O 0.43860 0.00227 -0.07011
 Zr260 Zr 0.52756 -0.00095 -0.06486
 O261 O 0.52824 -0.00396 -0.15080
 O262 O 0.56374 0.00188 -0.05905
 Zr263 Zr 0.51793 0.03758 0.00044
 Zr264 Zr 0.47960 -0.03878 0.00118
 O265 O 0.48882 -0.02292 -0.07756
 O266 O 0.51127 0.02179 -0.07866
 O267 O 0.45509 -0.02347 -0.00198
 O268 O 0.54181 0.02165 0.00366
 O269 O 0.47819 0.02186 -0.00239
 O270 O 0.51932 -0.02376 0.00411
 H271 H 0.48031 -0.03386 0.11188
 H272 H 0.56047 0.03333 0.00490
 H273 H 0.48363 -0.03432 -0.10975
 H274 H 0.47126 0.03361 -0.00371
 H275 H 0.56014 -0.01312 0.05446
 H276 H 0.56150 -0.01338 -0.03951
 H277 H 0.52510 0.00925 -0.16658
 H278 H 0.48760 0.00860 -0.17018
 H279 H 0.42485 -0.01343 -0.05329
 H280 H 0.42377 -0.01241 0.04088
 H281 H 0.48283 0.01027 0.16799
 H282 H 0.51954 0.00936 0.17164
 C283 C 1.16144 0.49191 0.29886
 C284 C 1.14775 0.48078 0.34646
 C285 C 1.16041 0.48152 0.39445
 C286 C 1.18728 0.49359 0.39624
 C287 C 1.20076 0.50365 0.34689
 C288 C 1.18793 0.50297 0.29885
 C289 C 1.14790 0.49276 0.25140
 C290 C 1.13498 0.49302 0.21433
 C291 C 1.11764 0.49253 0.17360
 C292 C 1.09383 0.47057 0.16804
 C293 C 1.07521 0.47078 0.13508
 C294 C 1.08009 0.49303 0.10702
 C295 C 1.10450 0.51471 0.11060
 C296 C 1.12313 0.51449 0.14405
 H297 H 1.12718 0.47181 0.34678
 H298 H 1.14885 0.47217 0.42985
 H299 H 1.22134 0.51355 0.34565
 H300 H 1.19875 0.51169 0.26215
 H301 H 1.08929 0.45351 0.19092
 H302 H 1.05668 0.45372 0.13296
 H303 H 1.10881 0.53214 0.08967
 H304 H 1.14143 0.53169 0.14842
 C305 C 0.50411 0.66814 0.29919
 C306 C 0.49368 0.68418 0.29872
 C307 C 0.49309 0.69651 0.34673
 C308 C 0.50250 0.69255 0.39635
 C309 C 0.51404 0.67723 0.39495
 C310 C 0.51474 0.66519 0.34709
 C311 C 0.50328 0.65355 0.25203
 C312 C 0.50327 0.64005 0.21581
 C313 C 0.50433 0.62283 0.17675
 C314 C 0.48353 0.60749 0.14316
 C315 C 0.48383 0.58858 0.11059
 C316 C 0.50484 0.58465 0.11192
 C317 C 0.52591 0.60074 0.14456
 C318 C 0.52563 0.61964 0.17661
 H319 H 0.48540 0.68662 0.26173
 H320 H 0.48374 0.70775 0.34529
 H321 H 0.52299 0.67467 0.43065
 H322 H 0.52328 0.65316 0.34774
 H323 H 0.46683 0.60963 0.14332
 H324 H 0.46733 0.57654 0.08589
 H325 H 0.54247 0.59841 0.14633
 H326 H 0.54176 0.63125 0.20270
 C327 C 0.33296 -0.16131 0.30607
 C328 C 0.33801 -0.14855 0.35590
 C329 C 0.32612 -0.16178 0.40347
 C330 C 0.30882 -0.18834 0.40255
 C331 C 0.30321 -0.20077 0.35126
 C332 C 0.31530 -0.18738 0.30366
 C333 C 0.34674 -0.14740 0.25831
 C334 C 0.35935 -0.13442 0.22063
 C335 C 0.37550 -0.11725 0.17881
 C336 C 0.37698 -0.09358 0.17305
 C337 C 0.39520 -0.07510 0.13873
 C338 C 0.41233 -0.07998 0.10954
 C339 C 0.40988 -0.10431 0.11331
 C340 C 0.39165 -0.12279 0.14809
 H341 H 0.35138 -0.12826 0.35815
 H342 H 0.33022 -0.15076 0.44058
 H343 H 0.29063 -0.22113 0.34777
 H344 H 0.31129 -0.19750 0.26524
 H345 H 0.36473 -0.08899 0.19677
 H346 H 0.39643 -0.05666 0.13656
 H347 H 0.42278 -0.10865 0.09147
 H348 H 0.39080 -0.14099 0.15254
 C349 C 0.83518 0.49652 0.30996
 C350 C 0.80965 0.47763 0.31668
 C351 C 0.79622 0.47765 0.36323
 C352 C 0.80833 0.49647 0.40358
 C353 C 0.83377 0.51564 0.39568
 C354 C 0.84706 0.51564 0.34928
 C355 C 0.85004 0.49602 0.26471
 C356 C 0.86421 0.49677 0.22934
 C357 C 0.88302 0.49903 0.19048
 C358 C 0.87745 0.48007 0.15144
 C359 C 0.89672 0.48172 0.11714
 C360 C 0.92180 0.50224 0.12204
 C361 C 0.92694 0.52146 0.16053
 C362 C 0.90770 0.51985 0.19438
 H363 H 0.80030 0.46269 0.28655
 H364 H 0.77668 0.46261 0.36846
 H365 H 0.84345 0.53059 0.42566
 H366 H 0.86679 0.53036 0.34449
 H367 H 0.85842 0.46379 0.14827
 H368 H 0.89213 0.46663 0.08788
 H369 H 0.94596 0.53761 0.16523
 H370 H 0.91223 0.53460 0.22455
 C371 C 0.50965 0.34126 0.30677
 C372 C 0.52505 0.35523 0.35066
 C373 C 0.52592 0.34271 0.39767
 C374 C 0.51134 0.31601 0.40137
 C375 C 0.49666 0.30203 0.35628
 C376 C 0.49575 0.31462 0.30930
 C377 C 0.50658 0.35453 0.26148
 C378 C 0.50372 0.36646 0.22567
 C379 C 0.50012 0.38173 0.18570
 C380 C 0.51891 0.39539 0.14668
 C381 C 0.51674 0.41265 0.11243
 C382 C 0.49581 0.41660 0.11719
 C383 C 0.47655 0.40201 0.15512
 C384 C 0.47872 0.38471 0.18910
 H385 H 0.53584 0.37586 0.34917
 H386 H 0.53757 0.35390 0.43159
 H387 H 0.48503 0.28147 0.35829
 H388 H 0.48361 0.30363 0.27572
 H389 H 0.53563 0.39332 0.14392
 H390 H 0.53193 0.42358 0.08374
 H391 H 0.46015 0.40448 0.15973
 H392 H 0.46409 0.37429 0.21929
 C393 C 0.65337 0.17144 0.30969
 C394 C 0.68001 0.18427 0.30941
 C395 C 0.69361 0.19800 0.35536
 C396 C 0.68068 0.19889 0.40225
 C397 C 0.65396 0.18688 0.40119
 C398 C 0.64041 0.17322 0.35522
 C399 C 0.63920 0.15440 0.26592
 C400 C 0.62685 0.13898 0.23136
 C401 C 0.61149 0.11935 0.19276
 C402 C 0.59948 0.12432 0.14969
 C403 C 0.58294 0.10452 0.11517
 C404 C 0.57805 0.07947 0.12365
 C405 C 0.59081 0.07489 0.16618
 C406 C 0.60738 0.09469 0.20040
 H407 H 0.69022 0.18285 0.27455
 H408 H 0.71416 0.20682 0.35523
 H409 H 0.64353 0.18748 0.43649
 H410 H 0.61980 0.16330 0.35596
 H411 H 0.60249 0.14334 0.14349
 H412 H 0.57350 0.10874 0.08277
 H413 H 0.58760 0.05590 0.17379
 H414 H 0.61656 0.09063 0.23366
 C415 C 0.51460 0.17082 -0.30674
 C416 C 0.50458 0.18719 -0.30503
 C417 C 0.50530 0.20092 -0.35154
 C418 C 0.51566 0.19810 -0.40106
 C419 C 0.52684 0.18245 -0.40082
 C420 C 0.52623 0.16898 -0.35428
 C421 C 0.51128 0.15418 -0.26186
 C422 C 0.50816 0.13890 -0.22698
 C423 C 0.50414 0.11931 -0.18858
 C424 C 0.52162 0.12420 -0.14665
 C425 C 0.51894 0.10434 -0.11314
 C426 C 0.49884 0.07927 -0.12157
 C427 C 0.48099 0.07474 -0.16288
 C428 C 0.48365 0.09463 -0.19608
 H429 H 0.49536 0.18863 -0.26841
 H430 H 0.49602 0.21221 -0.34930
 H431 H 0.53634 0.18059 -0.43641
 H432 H 0.53431 0.15655 -0.35586
 H433 H 0.53765 0.14322 -0.14070
 H434 H 0.53299 0.10850 -0.08166
 H435 H 0.46525 0.05573 -0.17039
 H436 H 0.47007 0.09061 -0.22858
 C437 C 0.65500 0.48431 -0.30630
 C438 C 0.64124 0.47286 -0.35365
 C439 C 0.65377 0.47211 -0.40078
 C440 C 0.68053 0.48294 -0.40180
 C441 C 0.69396 0.49326 -0.35253
 C442 C 0.68130 0.49409 -0.30549
 C443 C 0.64214 0.48763 -0.26039
 C444 C 0.63055 0.49084 -0.22422
 C445 C 0.61569 0.49499 -0.18400
 C446 C 0.60166 0.47633 -0.14495
 C447 C 0.58476 0.47912 -0.11055
 C448 C 0.58154 0.50051 -0.11526
 C449 C 0.59653 0.51963 -0.15315
 C450 C 0.61346 0.51685 -0.18722
 H451 H 0.62080 0.46499 -0.35458
 H452 H 0.64219 0.46272 -0.43614
 H453 H 0.71450 0.50242 -0.35076
 H454 H 0.69218 0.50318 -0.26907
 H455 H 0.60314 0.45926 -0.14230
 H456 H 0.57352 0.46404 -0.08187
 H457 H 0.59463 0.53638 -0.15772
 H458 H 0.62416 0.53138 -0.21741
 C459 C 0.83475 0.34068 -0.31031
 C460 C 0.80815 0.32777 -0.31127
 C461 C 0.79500 0.31457 -0.35827
 C462 C 0.80833 0.31427 -0.40550
 C463 C 0.83523 0.32716 -0.40289
 C464 C 0.84816 0.34016 -0.35604
 C465 C 0.84894 0.35503 -0.26347
 C466 C 0.86280 0.36783 -0.22710
 C467 C 0.88145 0.38384 -0.18749
 C468 C 0.87643 0.39833 -0.15025
 C469 C 0.89585 0.41591 -0.11626
 C470 C 0.92057 0.41936 -0.11974
 C471 C 0.92511 0.40409 -0.15614
 C472 C 0.90570 0.38649 -0.18965
 H473 H 0.79757 0.32817 -0.27603
 H474 H 0.77449 0.30571 -0.35786
 H475 H 0.84662 0.32660 -0.43625
 H476 H 0.86878 0.34983 -0.35552
 H477 H 0.85775 0.39655 -0.14850
 H478 H 0.89173 0.42733 -0.08861
 H479 H 0.94383 0.40609 -0.15966
 H480 H 0.90983 0.37546 -0.21848
 C481 C 0.50327 -0.16416 -0.29873
 C482 C 0.48765 -0.19069 -0.30108
 C483 C 0.48670 -0.20393 -0.34874
 C484 C 0.50120 -0.19070 -0.39467
 C485 C 0.51740 -0.16417 -0.39122
 C486 C 0.51840 -0.15103 -0.34362
 C487 C 0.50292 -0.14989 -0.25202
 C488 C 0.50312 -0.13654 -0.21521
 C489 C 0.50420 -0.11888 -0.17440
 C490 C 0.48265 -0.12403 -0.14364
 C491 C 0.48309 -0.10519 -0.10962
 C492 C 0.50500 -0.08093 -0.10651
 C493 C 0.52685 -0.07640 -0.13584
 C494 C 0.52641 -0.09523 -0.16946
 H495 H 0.47576 -0.20103 -0.26668
 H496 H 0.47391 -0.22433 -0.35046
 H497 H 0.52900 -0.15354 -0.42570
 H498 H 0.53057 -0.13050 -0.34230
 H499 H 0.46526 -0.14222 -0.14748
 H500 H 0.46596 -0.10921 -0.08778
 H501 H 0.54408 -0.05801 -0.13423
 H502 H 0.54314 -0.09097 -0.19329
 C503 C 0.33538 0.49940 -0.30782
 C504 C 0.33518 0.48643 -0.35526
 C505 C 0.32250 0.48750 -0.40175
 C506 C 0.30981 0.50159 -0.40154
 C507 C 0.30930 0.51384 -0.35315
 C508 C 0.32212 0.51283 -0.30656
 C509 C 0.35029 0.49961 -0.26193
 C510 C 0.36363 0.49921 -0.22594
 C511 C 0.38033 0.49772 -0.18625
 C512 C 0.38331 0.47628 -0.18614
 C513 C 0.40131 0.47539 -0.15227
 C514 C 0.41671 0.49601 -0.11776
 C515 C 0.41302 0.51719 -0.11662
 C516 C 0.39500 0.51809 -0.15096
 H517 H 0.34529 0.47590 -0.35666
 H518 H 0.32291 0.47759 -0.43818
 H519 H 0.29980 0.52497 -0.35202
 H520 H 0.32217 0.52296 -0.27010
 H521 H 0.37217 0.46046 -0.21340
 H522 H 0.40347 0.45870 -0.15401
 H523 H 0.42453 0.53333 -0.09051
 H524 H 0.39297 0.53487 -0.15094
 C525 C 1.16484 0.66373 -0.30485
 C526 C 1.18017 0.69027 -0.30588
 C527 C 1.19310 0.70265 -0.35371
 C528 C 1.19070 0.68866 -0.40184
 C529 C 1.17537 0.66179 -0.39928
 C530 C 1.16266 0.64960 -0.35152
 C531 C 1.15016 0.65066 -0.25730
 C532 C 1.13661 0.63845 -0.21993
 C533 C 1.11887 0.62258 -0.17862
 C534 C 1.09502 0.62082 -0.17553
 C535 C 1.07614 0.60275 -0.14165
 C536 C 1.08080 0.58606 -0.11026
 C537 C 1.10525 0.58877 -0.11151
 C538 C 1.12413 0.60685 -0.14579
 H539 H 1.18178 0.70145 -0.27005
 H540 H 1.20386 0.72324 -0.35308
 H541 H 1.17370 0.64979 -0.43352
 H542 H 1.15097 0.62901 -0.35112
 H543 H 1.09066 0.63277 -0.20095
 H544 H 1.05760 0.60130 -0.14147
 H545 H 1.10944 0.57621 -0.08798
 H546 H 1.14246 0.60789 -0.14818
 C547 C 0.83655 0.50532 -0.30020
 C548 C 0.84922 0.52216 -0.34314
 C549 C 0.83591 0.52175 -0.38988
 C550 C 0.80968 0.50443 -0.39438
 C551 C 0.79683 0.48831 -0.35012
 C552 C 0.81024 0.48867 -0.30335
 C553 C 0.85120 0.50419 -0.25524
 C554 C 0.86501 0.50393 -0.22023
 C555 C 0.88341 0.50480 -0.18195
 C556 C 0.90819 0.52552 -0.18371
 C557 C 0.92715 0.52582 -0.15115
 C558 C 0.92169 0.50533 -0.11605
 C559 C 0.89650 0.48486 -0.11312
 C560 C 0.87748 0.48455 -0.14618
 H561 H 0.86957 0.53513 -0.34117
 H562 H 0.84623 0.53455 -0.42311
 H563 H 0.77667 0.47463 -0.35277
 H564 H 0.80026 0.47546 -0.27047
 H565 H 0.91304 0.54123 -0.21138
 H566 H 0.94625 0.54196 -0.15434
 H567 H 0.89166 0.46883 -0.08650
 H568 H 0.85836 0.46832 -0.14472
 C569 C 0.49984 0.33514 -0.30015
 C570 C 0.48807 0.30858 -0.30322
 C571 C 0.48942 0.29682 -0.35140
 C572 C 0.50237 0.31149 -0.39782
 C573 C 0.51444 0.33834 -0.39315
 C574 C 0.51313 0.34991 -0.34507
 C575 C 0.49752 0.34769 -0.25240
 C576 C 0.49578 0.35966 -0.21498
 C577 C 0.49370 0.37548 -0.17376
 C578 C 0.47185 0.37770 -0.17191
 C579 C 0.47109 0.39599 -0.13849
 C580 C 0.49226 0.41242 -0.10641
 C581 C 0.51369 0.40918 -0.10637
 C582 C 0.51445 0.39090 -0.14014
 H583 H 0.47747 0.29694 -0.26875
 H584 H 0.47916 0.27622 -0.35250
 H585 H 0.52579 0.35078 -0.42593
 H586 H 0.52247 0.37052 -0.34306
 H587 H 0.45576 0.36602 -0.19803
 H588 H 0.45423 0.39786 -0.13933
 H589 H 0.53031 0.42153 -0.08227
 H590 H 0.53157 0.38951 -0.14164
 C591 C 0.66447 0.16351 -0.30361
 C592 C 0.67682 0.19019 -0.30293
 C593 C 0.68936 0.20407 -0.34971
 C594 C 0.68945 0.19136 -0.39770
 C595 C 0.67775 0.16463 -0.39727
 C596 C 0.66537 0.15085 -0.35058
 C597 C 0.64957 0.14870 -0.25782
 C598 C 0.63618 0.13486 -0.22198
 C599 C 0.61936 0.11662 -0.18250
 C600 C 0.60455 0.12229 -0.14753
 C601 C 0.58631 0.10332 -0.11362
 C602 C 0.58253 0.07841 -0.11487
 C603 C 0.59807 0.07322 -0.14901
 C604 C 0.61629 0.09216 -0.18248
 H605 H 0.67620 0.20019 -0.26684
 H606 H 0.69808 0.22464 -0.34912
 H607 H 0.67782 0.15438 -0.43343
 H608 H 0.65595 0.13022 -0.35155
 H609 H 0.60662 0.14113 -0.14752
 H610 H 0.57467 0.10793 -0.08783
 H611 H 0.59582 0.05434 -0.15084
 H612 H 0.62750 0.08749 -0.20958
 C613 C 1.16375 0.50072 -0.30712
 C614 C 1.15006 0.48662 -0.35240
 C615 C 1.16266 0.48712 -0.40028
 C616 C 1.18948 0.50190 -0.40432
 C617 C 1.20309 0.51576 -0.35759
 C618 C 1.19028 0.51523 -0.30960
 C619 C 1.14995 0.50053 -0.25930
 C620 C 1.13656 0.49949 -0.22193
 C621 C 1.11860 0.49732 -0.18104
 C622 C 1.09456 0.47539 -0.17993
 C623 C 1.07546 0.47432 -0.14639
 C624 C 1.08015 0.49523 -0.11338
 C625 C 1.10476 0.51675 -0.11269
 C626 C 1.12384 0.51784 -0.14666
 H627 H 1.12948 0.47512 -0.35075
 H628 H 1.15116 0.47505 -0.43338
 H629 H 1.22353 0.52802 -0.35826
 H630 H 1.20105 0.52640 -0.27475
 H631 H 1.09027 0.45946 -0.20660
 H632 H 1.05680 0.45741 -0.14762
 H633 H 1.10896 0.53316 -0.08777
 H634 H 1.14234 0.53498 -0.14753
 C635 C 0.49415 0.65990 -0.30936
 C636 C 0.48025 0.67263 -0.31047
 C637 C 0.47996 0.68547 -0.35777
 C638 C 0.49339 0.68549 -0.40506
 C639 C 0.50763 0.67281 -0.40226
 C640 C 0.50793 0.66021 -0.35515
 C641 C 0.49422 0.64572 -0.26254
 C642 C 0.49542 0.63287 -0.22654
 C643 C 0.49809 0.61661 -0.18776
 C644 C 0.47935 0.60324 -0.14845
 C645 C 0.48102 0.58537 -0.11515
 C646 C 0.50131 0.58051 -0.12137
 C647 C 0.52038 0.59463 -0.15998
 C648 C 0.51876 0.61253 -0.19284
 H649 H 0.46938 0.67236 -0.27514
 H650 H 0.46823 0.69427 -0.35752
 H651 H 0.51947 0.67324 -0.43577
 H652 H 0.51902 0.65066 -0.35448
 H653 H 0.46318 0.60614 -0.14445
 H654 H 0.46608 0.57490 -0.08566
 H655 H 0.53636 0.59154 -0.16562
 H656 H 0.53331 0.62271 -0.22334
 C657 C 0.34099 -0.17106 -0.30286
 C658 C 0.31436 -0.18386 -0.30475
 C659 C 0.30162 -0.19688 -0.35205
 C660 C 0.31542 -0.19702 -0.39809
 C661 C 0.34209 -0.18500 -0.39495
 C662 C 0.35477 -0.17208 -0.34763
 C663 C 0.35440 -0.15475 -0.25760
 C664 C 0.36635 -0.13985 -0.22195
 C665 C 0.38152 -0.12074 -0.18236
 C666 C 0.39499 -0.12566 -0.14254
 C667 C 0.41214 -0.10600 -0.10851
 C668 C 0.41607 -0.08114 -0.11421
 C669 C 0.40167 -0.07669 -0.15305
 C670 C 0.38449 -0.09638 -0.18675
 H671 H 0.30352 -0.18300 -0.27049
 H672 H 0.28107 -0.20580 -0.35356
 H673 H 0.35316 -0.18508 -0.42953
 H674 H 0.37538 -0.16213 -0.34661
 H675 H 0.39281 -0.14448 -0.13890
 H676 H 0.42297 -0.11010 -0.07925
 H677 H 0.40421 -0.05781 -0.15854
 H678 H 0.37411 -0.09241 -0.21740
 C679 C 0.49393 -0.16645 0.30777
 C680 C 0.51187 -0.15396 0.34891
 C681 C 0.51129 -0.16694 0.39622
 C682 C 0.49268 -0.19268 0.40324
 C683 C 0.47495 -0.20534 0.36127
 C684 C 0.47552 -0.19222 0.31378
 C685 C 0.49418 -0.15203 0.26107
 C686 C 0.49550 -0.13815 0.22452
 C687 C 0.49825 -0.11965 0.18443
 C688 C 0.51996 -0.09545 0.18577
 C689 C 0.52168 -0.07607 0.15223
 C690 C 0.50166 -0.08063 0.11668
 C691 C 0.48036 -0.10537 0.11373
 C692 C 0.47862 -0.12474 0.14770
 H693 H 0.52619 -0.13404 0.34467
 H694 H 0.52549 -0.15684 0.42737
 H695 H 0.46040 -0.22515 0.36571
 H696 H 0.46147 -0.20202 0.28223
 H697 H 0.53523 -0.09129 0.21419
 H698 H 0.53841 -0.05734 0.15532
 H699 H 0.46465 -0.10952 0.08673
 H700 H 0.46168 -0.14340 0.14655
 C701 C 0.34416 0.51796 0.30523
 C702 C 0.35713 0.53318 0.35014
 C703 C 0.34367 0.53313 0.39641
 C704 C 0.31702 0.51777 0.39834
 C705 C 0.30403 0.50351 0.35198
 C706 C 0.31755 0.50354 0.30575
 C707 C 0.35835 0.51509 0.26154
 C708 C 0.37077 0.51197 0.22723
 C709 C 0.38624 0.50763 0.18915
 C710 C 0.39868 0.52470 0.14645
 C711 C 0.41543 0.52142 0.11264
 C712 C 0.42009 0.50113 0.12153
 C713 C 0.40691 0.48370 0.16366
 C714 C 0.39012 0.48695 0.19716
 H715 H 0.37774 0.54433 0.35023
 H716 H 0.35413 0.54449 0.43131
 H717 H 0.28354 0.49128 0.35258
 H718 H 0.30734 0.49152 0.27138
 H719 H 0.39587 0.54082 0.14003
 H720 H 0.42520 0.53514 0.08051
 H721 H 0.40993 0.46782 0.17155
 H722 H 0.38061 0.47365 0.23019
 C723 C 1.16721 0.66433 0.30018
 C724 C 1.19284 0.67134 0.30680
 C725 C 1.20569 0.68349 0.35483
 C726 C 1.19286 0.68843 0.39671
 C727 C 1.16734 0.68185 0.38895
 C728 C 1.15464 0.66988 0.34108
 C729 C 1.15286 0.64998 0.25354
 C730 C 1.13900 0.63713 0.21728
 C731 C 1.12045 0.62090 0.17780
 C732 C 1.12535 0.60565 0.14257
 C733 C 1.10588 0.58753 0.10955
 C734 C 1.08123 0.58432 0.11201
 C735 C 1.07685 0.60044 0.14606
 C736 C 1.09632 0.61858 0.17865
 H737 H 1.20269 0.66700 0.27542
 H738 H 1.22535 0.68836 0.35994
 H739 H 1.15717 0.68585 0.42018
 H740 H 1.13481 0.66454 0.33638
 H741 H 1.14393 0.60719 0.14191
 H742 H 1.10987 0.57542 0.08376
 H743 H 1.05817 0.59861 0.14868
 H744 H 1.09229 0.63021 0.20596
 C745 C 0.50460 0.16782 0.30251
 C746 C 0.48630 0.17505 0.31223
 C747 C 0.48743 0.18836 0.35989
 C748 C 0.50676 0.19430 0.39844
 C749 C 0.52539 0.18754 0.38750
 C750 C 0.52429 0.17438 0.33993
 C751 C 0.50222 0.15179 0.25698
 C752 C 0.50029 0.13724 0.22127
 C753 C 0.49774 0.11849 0.18188
 C754 C 0.51731 0.12374 0.14471
 C755 C 0.51590 0.10435 0.11114
 C756 C 0.49499 0.07943 0.11485
 C757 C 0.47508 0.07464 0.15111
 C758 C 0.47647 0.09403 0.18430
 H759 H 0.47082 0.16983 0.28375
 H760 H 0.47277 0.19322 0.36750
 H761 H 0.54068 0.19220 0.41616
 H762 H 0.53847 0.16878 0.33298
 H763 H 0.53396 0.14259 0.14278
 H764 H 0.53154 0.10866 0.08372
 H765 H 0.45865 0.05574 0.15494
 H766 H 0.46129 0.08972 0.21313
 C767 C 0.66169 0.49498 0.30147
 C768 C 0.64818 0.47528 0.33875
 C769 C 0.65996 0.47371 0.38626
 C770 C 0.68548 0.49189 0.39732
 C771 C 0.69918 0.51127 0.35898
 C772 C 0.68729 0.51286 0.31139
 C773 C 0.64850 0.49767 0.25543
 C774 C 0.63634 0.49977 0.21899
 C775 C 0.62062 0.50229 0.17834
 C776 C 0.60553 0.48198 0.14334
 C777 C 0.58775 0.48328 0.10911
 C778 C 0.58470 0.50485 0.10993
 C779 C 0.60072 0.52556 0.14363
 C780 C 0.61850 0.52424 0.17758
 H781 H 0.62834 0.46140 0.33164
 H782 H 0.64906 0.45839 0.41470
 H783 H 0.71878 0.52564 0.36664
 H784 H 0.69787 0.52832 0.28303
 H785 H 0.60686 0.46479 0.14391
 H786 H 0.57571 0.46699 0.08378
 H787 H 0.59898 0.54250 0.14518
 H788 H 0.62993 0.54001 0.20472
 C789 C 0.83605 0.33208 0.29913
 C790 C 0.80973 0.32232 0.30251
 C791 C 0.79646 0.30953 0.34967
 C792 C 0.80949 0.30664 0.39405
 C793 C 0.83573 0.31562 0.38930
 C794 C 0.84888 0.32824 0.34218
 C795 C 0.85058 0.34770 0.25386
 C796 C 0.86434 0.36169 0.21866
 C797 C 0.88270 0.37917 0.18023
 C798 C 0.87707 0.39422 0.14602
 C799 C 0.89616 0.41298 0.11314
 C800 C 0.92113 0.41703 0.11476
 C801 C 0.92628 0.40127 0.14819
 C802 C 0.90724 0.38254 0.18055
 H803 H 0.79962 0.32527 0.26952
 H804 H 0.77629 0.30294 0.35249
 H805 H 0.84616 0.31341 0.42263
 H806 H 0.86924 0.33570 0.34001
 H807 H 0.85815 0.39188 0.14571
 H808 H 0.89158 0.42474 0.08778
 H809 H 0.94520 0.40367 0.15021
 H810 H 0.91185 0.37111 0.20703
   
