data_POSCAR
  _audit_creation_date              2014-09-24
  _audit_creation_method            'ToBaCCo'
  _symmetry_space_group_name_H-M    'P1'
  _symmetry_Int_Tables_number       1
  _symmetry_cell_setting            triclinic
  loop_
  _symmetry_equiv_pos_as_xyz
 x,y,z
_cell_length_a 31.9599
_cell_length_b 31.2650
_cell_length_c 29.3496
_cell_angle_alpha 90.003900
_cell_angle_beta 89.995800
_cell_angle_gamma 83.347400
loop_
  _atom_site_label
  _atom_site_type_symbol
  _atom_site_fract_x
  _atom_site_fract_y
  _atom_site_fract_z
C1 C 0.08903 0.30825 -0.04054
 C2 C 0.10732 0.31525 0.00205
 C3 C 0.08426 0.31719 0.04251
 C4 C 0.04041 0.31524 0.04086
 C5 C 0.02079 0.30738 -0.00118
 C6 C 0.04509 0.30333 -0.04203
 C7 C 0.02562 0.28989 -0.08177
 C8 C -0.01668 0.28353 -0.08238
 C9 C -0.04158 0.28870 -0.04288
 C10 C -0.02242 0.29987 -0.00154
 C11 C 0.01605 0.31937 0.08075
 C12 C -0.02570 0.31131 0.08056
 C13 C -0.04539 0.30037 0.04007
 C14 C -0.08595 0.28620 0.04049
 C15 C -0.10379 0.27450 -0.00050
 C16 C -0.08356 0.27785 -0.04251
 H17 H 0.04307 0.28160 -0.11258
 H18 H -0.02885 0.27163 -0.11372
 H19 H 0.02952 0.32756 0.11299
 H20 H -0.04173 0.31227 0.11301
 H21 H 0.14076 0.31808 0.00420
 H22 H -0.13550 0.26525 0.00030
 C23 C 0.39830 0.81668 0.54260
 C24 C 0.37636 0.81739 0.50128
 C25 C 0.39716 0.81744 0.45932
 C26 C 0.44143 0.81802 0.45849
 C27 C 0.46422 0.81702 0.50005
 C28 C 0.44253 0.81728 0.54223
 C29 C 0.46559 0.81861 0.58290
 C30 C 0.50931 0.81656 0.58231
 C31 C 0.53173 0.81305 0.54103
 C32 C 0.50891 0.81482 0.49944
 C33 C 0.46349 0.82003 0.41725
 C34 C 0.50722 0.81786 0.41662
 C35 C 0.53066 0.81370 0.45723
 C36 C 0.57525 0.80912 0.45683
 C37 C 0.59723 0.80704 0.49817
 C38 C 0.57635 0.80850 0.54015
 H39 H 0.45002 0.82140 0.61567
 H40 H 0.52532 0.81790 0.61465
 H41 H 0.44711 0.82344 0.38496
 H42 H 0.52246 0.81965 0.38388
 H43 H 0.34273 0.81519 0.50178
 H44 H 0.63139 0.80211 0.49764
 C45 C 1.08946 0.69454 -0.04027
 C46 C 1.11071 0.69465 0.00135
 C47 C 1.08958 0.69422 0.04333
 C48 C 1.04553 0.69074 0.04316
 C49 C 1.02353 0.69042 0.00106
 C50 C 1.04563 0.69180 -0.04070
 C51 C 1.02355 0.68929 -0.08184
 C52 C 0.98021 0.68795 -0.08213
 C53 C 0.95713 0.68919 -0.04129
 C54 C 0.97920 0.68879 0.00071
 C55 C 1.02333 0.68461 0.08361
 C56 C 0.98002 0.68313 0.08328
 C57 C 0.95704 0.68704 0.04239
 C58 C 0.91261 0.68818 0.04204
 C59 C 0.89129 0.68914 0.00030
 C60 C 0.91268 0.68998 -0.04129
 H61 H 1.03966 0.68793 -0.11433
 H62 H 0.96507 0.68552 -0.11483
 H63 H 1.03930 0.68012 0.11603
 H64 H 0.96478 0.67834 0.11550
 H65 H 1.14391 0.69895 0.00073
 H66 H 0.85716 0.69146 0.00023
 C67 C 0.42034 0.19543 0.53892
 C68 C 0.39934 0.19624 0.49704
 C69 C 0.42117 0.19506 0.45563
 C70 C 0.46570 0.19192 0.45583
 C71 C 0.48753 0.19145 0.49793
 C72 C 0.46492 0.19237 0.53961
 C73 C 0.48753 0.18960 0.58080
 C74 C 0.53113 0.18901 0.58121
 C75 C 0.55388 0.19088 0.54042
 C76 C 0.53208 0.19071 0.49833
 C77 C 0.48899 0.18863 0.41509
 C78 C 0.53259 0.18789 0.41548
 C79 C 0.55464 0.19033 0.45664
 C80 C 0.59876 0.19165 0.45730
 C81 C 0.61967 0.19210 0.49912
 C82 C 0.59799 0.19214 0.54053
 H83 H 0.47176 0.18767 0.61322
 H84 H 0.54684 0.18682 0.61391
 H85 H 0.47376 0.18637 0.38241
 H86 H 0.54885 0.18516 0.38310
 H87 H 0.36516 0.20018 0.49664
 H88 H 0.65329 0.19439 0.49945
 C89 C 0.69388 0.08851 0.04098
 C90 C 0.69085 0.11133 -0.00010
 C91 C 0.68705 0.09072 -0.04223
 C92 C 0.68152 0.04618 -0.04214
 C93 C 0.68518 0.02233 -0.00079
 C94 C 0.69187 0.04351 0.04077
 C95 C 0.69653 0.01912 0.08097
 C96 C 0.69600 -0.02524 0.08030
 C97 C 0.68733 -0.04710 0.04002
 C98 C 0.68265 -0.02294 -0.00119
 C99 C 0.66974 0.02543 -0.08177
 C100 C 0.66733 -0.01860 -0.08224
 C101 C 0.67685 -0.04395 -0.04318
 C102 C 0.67856 -0.08948 -0.04476
 C103 C 0.68119 -0.11240 -0.00354
 C104 C 0.68594 -0.09259 0.03891
 H105 H 0.70134 0.03388 0.11357
 H106 H 0.70342 -0.04185 0.11197
 H107 H 0.66178 0.04320 -0.11281
 H108 H 0.65769 -0.03265 -0.11369
 H109 H 0.69558 0.14511 0.00084
 H110 H 0.68146 -0.14708 -0.00457
 C111 C 0.17580 0.42589 0.46046
 C112 C 0.17697 0.40403 0.50216
 C113 C 0.17525 0.42607 0.54378
 C114 C 0.17102 0.47162 0.54400
 C115 C 0.17030 0.49430 0.50216
 C116 C 0.17148 0.47152 0.46027
 C117 C 0.16816 0.49502 0.41936
 C118 C 0.16766 0.53957 0.41943
 C119 C 0.17042 0.56235 0.46042
 C120 C 0.16986 0.53979 0.50224
 C121 C 0.16744 0.49511 0.58496
 C122 C 0.16723 0.53962 0.58503
 C123 C 0.17034 0.56239 0.54413
 C124 C 0.17373 0.60716 0.54398
 C125 C 0.17461 0.62884 0.50234
 C126 C 0.17359 0.60711 0.46072
 H127 H 0.16605 0.47916 0.38682
 H128 H 0.16527 0.55598 0.38692
 H129 H 0.16499 0.47926 0.61745
 H130 H 0.16470 0.55602 0.61755
 H131 H 0.18217 0.36912 0.50226
 H132 H 0.17895 0.66275 0.50229
 C133 C 0.32000 1.09141 -0.04438
 C134 C 0.31668 1.11471 -0.00341
 C135 C 0.31175 1.09523 0.03916
 C136 C 0.31101 1.04967 0.04070
 C137 C 0.31641 1.02513 -0.00023
 C138 C 0.32211 1.04586 -0.04242
 C139 C 0.33196 1.02026 -0.08125
 C140 C 0.33033 0.97609 -0.08030
 C141 C 0.31908 0.95545 -0.04039
 C142 C 0.31475 0.97973 0.00066
 C143 C 0.30230 1.02805 0.08113
 C144 C 0.30255 0.98361 0.08228
 C145 C 0.30818 0.95883 0.04242
 C146 C 0.30721 0.91371 0.04315
 C147 C 0.31117 0.89040 0.00243
 C148 C 0.31467 0.91065 -0.03991
 H149 H 0.34134 1.03418 -0.11287
 H150 H 0.33854 0.95812 -0.11117
 H151 H 0.29426 1.04492 0.11252
 H152 H 0.29761 0.96905 0.11496
 H153 H 0.31604 1.14942 -0.00477
 H154 H 0.30720 0.85644 0.00377
 C155 C 0.82283 0.57587 0.45892
 C156 C 0.82141 0.59769 0.50065
 C157 C 0.82383 0.57567 0.54230
 C158 C 0.82893 0.53006 0.54247
 C159 C 0.82996 0.50735 0.50060
 C160 C 0.82802 0.53021 0.45870
 C161 C 0.83168 0.50677 0.41777
 C162 C 0.83339 0.46209 0.41780
 C163 C 0.83146 0.43909 0.45878
 C164 C 0.83163 0.46168 0.50063
 C165 C 0.83328 0.50652 0.58337
 C166 C 0.83477 0.46185 0.58339
 C167 C 0.83207 0.43892 0.54252
 C168 C 0.83003 0.39384 0.54235
 C169 C 0.82945 0.37220 0.50062
 C170 C 0.82952 0.39407 0.45900
 H171 H 0.83320 0.52276 0.38522
 H172 H 0.83613 0.44574 0.38526
 H173 H 0.83547 0.52246 0.61586
 H174 H 0.83802 0.44543 0.61587
 H175 H 0.81562 0.63257 0.50078
 H176 H 0.82594 0.33810 0.50052
 O177 O 0.25315 0.19633 0.22180
 O178 O 0.20994 0.27626 0.30706
 O179 O 0.18995 0.25562 0.22410
 O180 O 0.27390 0.21676 0.30449
 O181 O 0.31395 0.26319 0.27619
 O182 O 0.22882 0.30387 0.19736
 O183 O 0.25065 0.32272 0.28009
 O184 O 0.29141 0.24425 0.19278
 Cu185 Cu 0.22781 0.23155 0.26730
 Cu186 Cu 0.27538 0.28815 0.23395
 C187 C 0.27847 0.20737 0.19186
 C188 C 0.22342 0.31292 0.30861
 C189 C 0.19524 0.28577 0.19641
 C190 C 0.30811 0.23373 0.30453
 O191 O 0.74264 0.80746 0.22279
 O192 O 0.78678 0.72682 0.30703
 O193 O 0.80615 0.74890 0.22411
 O194 O 0.72264 0.78652 0.30562
 O195 O 0.68252 0.74016 0.27735
 O196 O 0.76724 0.70078 0.19717
 O197 O 0.74608 0.68042 0.27996
 O198 O 0.70427 0.75962 0.19379
 Cu199 Cu 0.76846 0.77205 0.26795
 Cu200 Cu 0.72087 0.71557 0.23452
 C201 C 0.71726 0.79647 0.19287
 C202 C 0.77352 0.69003 0.30832
 C203 C 0.80063 0.71923 0.19591
 C204 C 0.68842 0.76957 0.30575
 O205 O 0.82179 0.22783 0.22086
 O206 O 0.74456 0.19965 0.30529
 O207 O 0.76446 0.17728 0.22156
 O208 O 0.80372 0.25055 0.30532
 O209 O 0.75713 0.30324 0.28115
 O210 O 0.71894 0.23043 0.19617
 O211 O 0.69867 0.25245 0.28001
 O212 O 0.77683 0.28233 0.19710
 Cu213 Cu 0.78824 0.20861 0.26607
 Cu214 Cu 0.73328 0.27245 0.23615
 C215 C 0.81213 0.25927 0.19403
 C216 C 0.70843 0.22133 0.30726
 C217 C 0.73574 0.19160 0.19379
 C218 C 0.78674 0.28927 0.30802
 O219 O 0.25343 0.80244 0.30473
 O220 O 0.17952 0.76642 0.21978
 O221 O 0.19700 0.74887 0.30507
 O222 O 0.23350 0.82223 0.22002
 O223 O 0.28316 0.77149 0.19801
 O224 O 0.24588 0.69760 0.28254
 O225 O 0.22896 0.71577 0.19720
 O226 O 0.30192 0.75081 0.28219
 Cu227 Cu 0.21099 0.79018 0.26468
 Cu228 Cu 0.26985 0.72880 0.23767
 C229 C 0.29018 0.78218 0.30842
 C230 C 0.19195 0.73513 0.19354
 C231 C 0.21542 0.71083 0.30871
 C232 C 0.26420 0.80935 0.19413
 O233 O 0.80169 0.24838 0.69453
 O234 O 0.75865 0.17623 0.77805
 O235 O 0.74213 0.19799 0.69355
 O236 O 0.82045 0.22228 0.77802
 O237 O 0.77728 0.27797 0.80240
 O238 O 0.69770 0.25207 0.71876
 O239 O 0.71547 0.23120 0.80350
 O240 O 0.75682 0.30228 0.71928
 Cu241 Cu 0.78516 0.20587 0.73331
 Cu242 Cu 0.73246 0.27137 0.76342
 C243 C 0.78596 0.28764 0.69221
 C244 C 0.73022 0.19176 0.80575
 C245 C 0.70661 0.22070 0.69151
 C246 C 0.81188 0.25361 0.80512
 O247 O 0.30588 0.74908 0.72163
 O248 O 0.23173 0.71466 0.80629
 O249 O 0.24930 0.69637 0.72128
 O250 O 0.28876 0.76773 0.80702
 O251 O 0.24152 0.82067 0.78486
 O252 O 0.20116 0.74882 0.69989
 O253 O 0.18427 0.76780 0.78513
 O254 O 0.25813 0.80167 0.69967
 Cu255 Cu 0.27371 0.72675 0.76633
 Cu256 Cu 0.21647 0.79004 0.74029
 C257 C 0.29447 0.78079 0.69562
 C258 C 0.19538 0.73550 0.81043
 C259 C 0.21879 0.71044 0.69559
 C260 C 0.27179 0.80638 0.81079
 O261 O 0.19189 0.25344 0.77750
 O262 O 0.27283 0.21619 0.69215
 O263 O 0.25442 0.19305 0.77481
 O264 O 0.20915 0.27593 0.69447
 O265 O 0.25054 0.32125 0.72249
 O266 O 0.29687 0.23781 0.80180
 O267 O 0.31400 0.26210 0.71936
 O268 O 0.23450 0.29750 0.80606
 Cu269 Cu 0.22790 0.23014 0.73184
 Cu270 Cu 0.27810 0.28433 0.76509
 C271 C 0.20014 0.28086 0.80711
 C272 C 0.30699 0.23336 0.69070
 C273 C 0.28276 0.20147 0.80266
 C274 C 0.22258 0.31257 0.69427
 O275 O 0.72530 0.78643 0.69101
 O276 O 0.80732 0.75104 0.77539
 O277 O 0.78944 0.72693 0.69271
 O278 O 0.74370 0.80955 0.77344
 O279 O 0.70346 0.76342 0.80199
 O280 O 0.74849 0.68116 0.72066
 O281 O 0.76731 0.70438 0.80333
 O282 O 0.68484 0.74039 0.71931
 Cu283 Cu 0.77050 0.77301 0.73013
 Cu284 Cu 0.72199 0.71769 0.76411
 C285 C 0.69118 0.76923 0.69043
 C286 C 0.80099 0.72238 0.80446
 C287 C 0.77623 0.69013 0.69234
 C288 C 0.71648 0.80030 0.80225
 C289 C 0.27731 0.16131 0.07414
 C290 C 0.30491 0.12276 0.07770
 C291 C 0.32602 0.11387 0.11953
 C292 C 0.31771 0.14124 0.15716
 C293 C 0.28953 0.17883 0.15302
 C294 C 0.26990 0.18894 0.11123
 H295 H 0.26001 0.16950 0.04300
 H296 H 0.34932 0.08602 0.12305
 H297 H 0.33348 0.13335 0.18924
 H298 H 0.24782 0.21780 0.10767
 C299 C 0.78120 0.59489 0.61240
 C300 C 0.81537 0.60171 0.58433
 C301 C 0.83816 0.63651 0.59358
 C302 C 0.82642 0.66453 0.62971
 C303 C 0.79174 0.65813 0.65733
 C304 C 0.76981 0.62249 0.64885
 H305 H 0.76244 0.56898 0.60518
 H306 H 0.86432 0.64264 0.57201
 H307 H 0.84387 0.69175 0.63537
 H308 H 0.74267 0.61694 0.66916
 C309 C 0.71943 0.84137 0.07477
 C310 C 0.69219 0.88020 0.07777
 C311 C 0.67089 0.88973 0.11941
 C312 C 0.67872 0.86268 0.15738
 C313 C 0.70657 0.82479 0.15377
 C314 C 0.72633 0.81407 0.11218
 H315 H 0.73687 0.83270 0.04383
 H316 H 0.64785 0.91784 0.12251
 H317 H 0.66285 0.87106 0.18930
 H318 H 0.74816 0.78499 0.10902
 C319 C 0.21865 0.40657 0.61315
 C320 C 0.18391 0.40015 0.58576
 C321 C 0.16039 0.36616 0.59592
 C322 C 0.17193 0.33853 0.63238
 C323 C 0.20715 0.34455 0.65934
 C324 C 0.22985 0.37939 0.64992
 H325 H 0.23791 0.43190 0.60518
 H326 H 0.13376 0.36040 0.57488
 H327 H 0.15392 0.31187 0.63878
 H328 H 0.25744 0.38453 0.66970
 C329 C 0.87655 0.31485 0.10895
 C330 C 0.89165 0.28003 0.08075
 C331 C 0.88105 0.23872 0.09109
 C332 C 0.85684 0.23207 0.12934
 C333 C 0.84102 0.26686 0.15681
 C334 C 0.85076 0.30838 0.14637
 H335 H 0.88332 0.34718 0.10096
 H336 H 0.89191 0.21144 0.06965
 H337 H 0.84904 0.19992 0.13650
 H338 H 0.83834 0.33564 0.16702
 C339 C 0.33816 0.83836 0.59574
 C340 C 0.37429 0.81032 0.58487
 C341 C 0.38501 0.77362 0.61186
 C342 C 0.35995 0.76497 0.64895
 C343 C 0.32319 0.79244 0.65928
 C344 C 0.31283 0.82954 0.63263
 H345 H 0.32910 0.86659 0.57501
 H346 H 0.41219 0.75101 0.60341
 H347 H 0.36861 0.73594 0.66854
 H348 H 0.28468 0.85128 0.63968
 C349 C 0.15416 0.68044 0.08876
 C350 C 0.11282 0.70096 0.08336
 C351 C 0.09724 0.73174 0.11618
 C352 C 0.12239 0.74198 0.15272
 C353 C 0.16380 0.72185 0.15737
 C354 C 0.17910 0.69045 0.12540
 H355 H 0.16731 0.65637 0.06455
 H356 H 0.06641 0.74978 0.11229
 H357 H 0.10980 0.76661 0.17656
 H358 H 0.21086 0.67427 0.12795
 C359 C 0.61369 0.23319 0.61056
 C360 C 0.62255 0.19675 0.58272
 C361 C 0.65775 0.16709 0.59242
 C362 C 0.68426 0.17418 0.62876
 C363 C 0.67612 0.21119 0.65605
 C364 C 0.64008 0.24021 0.64714
 H365 H 0.58710 0.25688 0.60304
 H366 H 0.66528 0.13899 0.57106
 H367 H 0.71171 0.15117 0.63479
 H368 H 0.63310 0.26912 0.66737
 C369 C 0.67733 0.15796 0.91333
 C370 C 0.69343 0.11418 0.91735
 C371 C 0.72001 0.09579 0.88235
 C372 C 0.73076 0.12050 0.84533
 C373 C 0.71536 0.16432 0.84219
 C374 C 0.68787 0.18251 0.87616
 H375 H 0.65639 0.17337 0.93901
 H376 H 0.73474 0.06290 0.88485
 H377 H 0.75232 0.10558 0.81995
 H378 H 0.67536 0.21619 0.87479
 C379 C 0.15604 0.66962 0.40809
 C380 C 0.18148 0.63135 0.41881
 C381 C 0.21703 0.61841 0.39194
 C382 C 0.22712 0.64341 0.35503
 C383 C 0.20226 0.68227 0.34481
 C384 C 0.16630 0.69487 0.37137
 H385 H 0.12875 0.68035 0.42876
 H386 H 0.23762 0.58949 0.40032
 H387 H 0.25521 0.63302 0.33549
 H388 H 0.14657 0.72469 0.36438
 C389 C 0.32553 0.84288 0.91663
 C390 C 0.30867 0.88650 0.92008
 C391 C 0.28136 0.90385 0.88526
 C392 C 0.27045 0.87823 0.84909
 C393 C 0.28650 0.83454 0.84660
 C394 C 0.31488 0.81741 0.88024
 H395 H 0.34706 0.82828 0.94223
 H396 H 0.26610 0.93658 0.88735
 H397 H 0.24834 0.89238 0.82382
 H398 H 0.32794 0.78388 0.87926
 C399 C 0.84687 0.33104 0.40669
 C400 C 0.82163 0.36957 0.41716
 C401 C 0.78600 0.38232 0.39033
 C402 C 0.77572 0.35704 0.35374
 C403 C 0.80033 0.31794 0.34382
 C404 C 0.83631 0.30541 0.37035
 H405 H 0.87419 0.32037 0.42733
 H406 H 0.76544 0.41131 0.39855
 H407 H 0.74757 0.36738 0.33428
 H408 H 0.85583 0.27541 0.36358
 C409 C 0.10534 0.32219 0.87842
 C410 C 0.11628 0.30301 0.92103
 C411 C 0.15629 0.27888 0.92526
 C412 C 0.18351 0.27286 0.88818
 C413 C 0.17152 0.29033 0.84571
 C414 C 0.13238 0.31513 0.84083
 H415 H 0.07605 0.34298 0.87423
 H416 H 0.16612 0.26298 0.95693
 H417 H 0.21363 0.25342 0.89233
 H418 H 0.12302 0.32931 0.80819
 C419 C 0.63241 0.82847 0.40510
 C420 C 0.60046 0.80250 0.41439
 C421 C 0.59585 0.76729 0.38586
 C422 C 0.62318 0.75779 0.34910
 C423 C 0.65613 0.78288 0.34071
 C424 C 0.65999 0.81878 0.36863
 H425 H 0.63672 0.85555 0.42694
 H426 H 0.57199 0.74628 0.39301
 H427 H 0.61961 0.72972 0.32848
 H428 H 0.68504 0.83873 0.36306
 C429 C 0.88956 0.73148 0.88821
 C430 C 0.88687 0.69569 0.91650
 C431 C 0.85680 0.66763 0.90660
 C432 C 0.82965 0.67546 0.86935
 C433 C 0.83218 0.71146 0.84119
 C434 C 0.86288 0.73899 0.85064
 H435 H 0.91173 0.75420 0.89585
 H436 H 0.85386 0.64009 0.92827
 H437 H 0.80620 0.65378 0.86307
 H438 H 0.86526 0.76733 0.83001
 C439 C 0.39988 0.23715 0.38515
 C440 C 0.39583 0.20156 0.41331
 C441 C 0.36450 0.17496 0.40363
 C442 C 0.33700 0.18437 0.36704
 C443 C 0.34039 0.22057 0.33944
 C444 C 0.37272 0.24632 0.34827
 H445 H 0.42323 0.25865 0.39265
 H446 H 0.36063 0.14758 0.42521
 H447 H 0.31238 0.16397 0.36112
 H448 H 0.37585 0.27467 0.32793
 C449 C 0.71080 0.89729 0.87979
 C450 C 0.68277 0.88665 0.91399
 C451 C 0.66326 0.84875 0.90847
 C452 C 0.67251 0.82183 0.87094
 C453 C 0.70173 0.83183 0.83802
 C454 C 0.71992 0.87041 0.84225
 H455 H 0.72808 0.92491 0.88343
 H456 H 0.64096 0.83965 0.93344
 H457 H 0.65778 0.79241 0.86855
 H458 H 0.74292 0.87885 0.81772
 C459 C 0.21948 0.40633 0.39105
 C460 C 0.18487 0.39967 0.41857
 C461 C 0.16197 0.36508 0.40868
 C462 C 0.17376 0.33740 0.37223
 C463 C 0.20860 0.34392 0.34491
 C464 C 0.23090 0.37910 0.35430
 H465 H 0.23840 0.43200 0.39879
 H466 H 0.13550 0.35900 0.42980
 H467 H 0.15602 0.31052 0.36589
 H468 H 0.25819 0.38472 0.33426
 C469 C 0.33587 0.15273 0.90868
 C470 C 0.31621 0.11495 0.91419
 C471 C 0.28832 0.10426 0.87988
 C472 C 0.27930 0.13116 0.84233
 C473 C 0.29756 0.16971 0.83818
 C474 C 0.32681 0.17961 0.87111
 H475 H 0.35806 0.16184 0.93378
 H476 H 0.27102 0.07664 0.88350
 H477 H 0.25632 0.12278 0.81776
 H478 H 0.34159 0.20901 0.86880
 C479 C 0.83587 0.63729 0.40757
 C480 C 0.81354 0.60217 0.41706
 C481 C 0.77912 0.59525 0.38937
 C482 C 0.76723 0.62285 0.35300
 C483 C 0.78889 0.65862 0.34412
 C484 C 0.82364 0.66529 0.37151
 H485 H 0.86220 0.64358 0.42881
 H486 H 0.76062 0.56916 0.39676
 H487 H 0.74006 0.61704 0.33287
 H488 H 0.84093 0.69258 0.36558
 C489 C 0.10274 0.73890 0.89137
 C490 C 0.11381 0.70203 0.91798
 C491 C 0.15087 0.67514 0.90773
 C492 C 0.17681 0.68534 0.87194
 C493 C 0.16622 0.72274 0.84581
 C494 C 0.12850 0.74900 0.85541
 H495 H 0.07477 0.76060 0.89937
 H496 H 0.16019 0.64681 0.92820
 H497 H 0.20562 0.66443 0.86540
 H498 H 0.11956 0.77813 0.83609
 C499 C 0.61463 0.23218 0.38699
 C500 C 0.62398 0.19631 0.41550
 C501 C 0.66011 0.16749 0.40680
 C502 C 0.68690 0.17484 0.37071
 C503 C 0.67806 0.21122 0.34265
 C504 C 0.64121 0.23939 0.35068
 H505 H 0.58741 0.25532 0.39372
 H506 H 0.66809 0.13987 0.42871
 H507 H 0.71503 0.15255 0.36543
 H508 H 0.63366 0.26786 0.32991
 C509 C 0.89077 0.29987 0.88108
 C510 C 0.89366 0.27028 0.91757
 C511 C 0.87006 0.23496 0.91538
 C512 C 0.84457 0.22925 0.87789
 C513 C 0.84098 0.25937 0.84248
 C514 C 0.86415 0.29471 0.84405
 H515 H 0.90747 0.32809 0.88225
 H516 H 0.87171 0.21135 0.94254
 H517 H 0.82674 0.20181 0.87702
 H518 H 0.86140 0.31832 0.81689
 C519 C 0.33504 0.83899 0.40845
 C520 C 0.37202 0.81150 0.41766
 C521 C 0.38259 0.77545 0.38972
 C522 C 0.35674 0.76698 0.35328
 C523 C 0.31922 0.79389 0.34449
 C524 C 0.30885 0.83029 0.37217
 H525 H 0.32602 0.86667 0.42997
 H526 H 0.41033 0.75315 0.39691
 H527 H 0.36550 0.73846 0.33292
 H528 H 0.28012 0.85155 0.36636
 C529 C 0.32633 0.85467 0.09946
 C530 C 0.29812 0.88975 0.08488
 C531 C 0.25936 0.89899 0.10730
 C532 C 0.24911 0.87381 0.14401
 C533 C 0.27695 0.83818 0.15815
 C534 C 0.31581 0.82902 0.13574
 H535 H 0.35610 0.84667 0.08206
 H536 H 0.23669 0.92517 0.09571
 H537 H 0.21871 0.88131 0.16024
 H538 H 0.33781 0.80169 0.14583
 C539 C 0.84653 0.32947 0.59349
 C540 C 0.82238 0.36902 0.58424
 C541 C 0.78749 0.38223 0.61198
 C542 C 0.77685 0.35652 0.64809
 C543 C 0.80026 0.31642 0.65672
 C544 C 0.83556 0.30337 0.62935
 H545 H 0.87325 0.31833 0.57216
 H546 H 0.76759 0.41191 0.60476
 H547 H 0.74923 0.36738 0.66818
 H548 H 0.85417 0.27264 0.63508
 C549 C 0.67504 0.14839 0.09656
 C550 C 0.70283 0.11269 0.08268
 C551 C 0.74088 0.10256 0.10624
 C552 C 0.75068 0.12723 0.14356
 C553 C 0.72318 0.16332 0.15716
 C554 C 0.68517 0.17361 0.13341
 H555 H 0.64583 0.15711 0.07831
 H556 H 0.76330 0.07591 0.09524
 H557 H 0.78053 0.11898 0.16072
 H558 H 0.66353 0.20139 0.14300
 C559 C 0.21743 0.61768 0.61294
 C560 C 0.18217 0.63139 0.58591
 C561 C 0.15792 0.67053 0.59629
 C562 C 0.16904 0.69575 0.63275
 C563 C 0.20469 0.68230 0.65945
 C564 C 0.22835 0.64264 0.64956
 H565 H 0.23724 0.58816 0.60485
 H566 H 0.13090 0.68195 0.57552
 H567 H 0.15022 0.72618 0.63944
 H568 H 0.25619 0.63149 0.66918
 C569 C 0.89038 0.72780 0.11376
 C570 C 0.88684 0.69304 0.08429
 C571 C 0.85614 0.66543 0.09315
 C572 C 0.82905 0.67284 0.13050
 C573 C 0.83224 0.70800 0.15970
 C574 C 0.86370 0.73493 0.15133
 H575 H 0.91312 0.75013 0.10697
 H576 H 0.85261 0.63868 0.07057
 H577 H 0.80498 0.65168 0.13590
 H578 H 0.86665 0.76262 0.17276
 C579 C 0.36228 0.17599 0.58973
 C580 C 0.39411 0.20224 0.58068
 C581 C 0.39800 0.23772 0.60902
 C582 C 0.37068 0.24677 0.64578
 C583 C 0.33822 0.22109 0.65438
 C584 C 0.33454 0.18534 0.62622
 H585 H 0.35841 0.14876 0.56794
 H586 H 0.42158 0.25908 0.60196
 H587 H 0.37408 0.27482 0.66651
 H588 H 0.30981 0.16502 0.63191
 C589 C 0.10508 0.27853 0.11490
 C590 C 0.10843 0.31369 0.08590
 C591 C 0.13863 0.34167 0.09552
 C592 C 0.16580 0.33384 0.13275
 C593 C 0.16309 0.29795 0.16105
 C594 C 0.13173 0.27105 0.15236
 H595 H 0.08287 0.25580 0.10748
 H596 H 0.14208 0.36870 0.07330
 H597 H 0.18975 0.35507 0.13854
 H598 H 0.12911 0.24287 0.17316
 C599 C 0.63496 0.82719 0.59043
 C600 C 0.60268 0.80141 0.58182
 C601 C 0.59853 0.76614 0.61042
 C602 C 0.62627 0.75669 0.64683
 C603 C 0.65928 0.78183 0.65481
 C604 C 0.66300 0.81751 0.62654
 H605 H 0.63899 0.85428 0.56850
 H606 H 0.57449 0.74520 0.60376
 H607 H 0.62278 0.72877 0.66771
 H608 H 0.68810 0.83748 0.63177
   
