data_POSCAR
  _audit_creation_date              2014-09-24
  _audit_creation_method            'ToBaCCo'
  _symmetry_space_group_name_H-M    'P1'
  _symmetry_Int_Tables_number       1
  _symmetry_cell_setting            triclinic
  loop_
  _symmetry_equiv_pos_as_xyz
 x,y,z
_cell_length_a 48.9002
_cell_length_b 24.7139
_cell_length_c 15.2368
_cell_angle_alpha 90.538700
_cell_angle_beta 89.768400
_cell_angle_gamma 90.081100
loop_
  _atom_site_label
  _atom_site_type_symbol
  _atom_site_fract_x
  _atom_site_fract_y
  _atom_site_fract_z
C1 C 0.72609 0.25116 0.54458
 C2 C 0.73199 0.26410 0.45592
 C3 C 0.75444 0.24047 0.41355
 C4 C 0.77070 0.20188 0.45527
 C5 C 0.76516 0.18846 0.54471
 C6 C 0.74192 0.21140 0.58625
 H7 H 0.73810 0.20359 0.65511
 H8 H 0.75787 0.24888 0.34460
 C9 C 0.23181 0.77558 0.54689
 C10 C 0.23571 0.78312 0.45599
 C11 C 0.25878 0.76062 0.41516
 C12 C 0.27768 0.73004 0.46267
 C13 C 0.27383 0.72208 0.55433
 C14 C 0.25041 0.74448 0.59445
 H15 H 0.24736 0.74088 0.66469
 H16 H 0.26138 0.76466 0.34479
 C17 C 0.27157 0.26225 -0.55972
 C18 C 0.27615 0.26000 -0.46857
 C19 C 0.25477 0.24500 -0.41248
 C20 C 0.22877 0.22997 -0.44443
 C21 C 0.22389 0.23293 -0.53713
 C22 C 0.24580 0.24817 -0.59266
 H23 H 0.24243 0.25285 -0.66245
 H24 H 0.25927 0.24147 -0.34316
 C25 C -0.24546 0.85377 -0.52470
 C26 C -0.24772 0.83967 -0.43548
 C27 C -0.27019 0.80962 -0.40669
 C28 C -0.29081 0.79263 -0.46506
 C29 C -0.28831 0.80593 -0.55595
 C30 C -0.26609 0.83798 -0.58330
 H31 H -0.26360 0.84735 -0.65229
 H32 H -0.27185 0.80075 -0.33729
 O33 O -0.04259 0.91543 0.17700
 O34 O -0.06989 0.95981 0.07888
 C35 C -0.06625 0.93001 0.14722
 O36 O 0.04311 1.09407 0.12317
 O37 O 0.07037 1.02904 0.05945
 C38 C 0.06694 1.07334 0.10399
 O39 O -0.03462 1.10198 0.12810
 O40 O -0.06632 1.04813 0.05817
 C41 C -0.05966 1.08816 0.10935
 O42 O 0.03351 0.89917 0.17706
 O43 O 0.06614 0.93721 0.08844
 C44 C 0.05876 0.90692 0.15353
 Zr45 Zr -0.00303 0.93162 0.12590
 O46 O -0.00064 0.94945 0.26189
 O47 O -0.00940 0.84866 0.15251
 Zr48 Zr 0.00309 1.06575 0.08892
 O49 O 0.00568 1.08029 0.22576
 O50 O 0.00381 1.15001 0.06545
 O51 O -0.02438 1.00440 0.12247
 O52 O 0.02372 0.99650 0.12471
 O53 O 0.03491 0.86680 -0.12541
 O54 O 0.06652 0.92169 -0.05824
 C55 C 0.05984 0.88053 -0.10670
 O56 O -0.03324 1.06363 -0.19051
 O57 O -0.06577 1.03265 -0.09452
 C58 C -0.05849 1.05745 -0.16554
 O59 O 0.04330 1.05634 -0.18135
 O60 O 0.07091 1.01275 -0.08314
 C61 C 0.06705 1.04142 -0.15272
 O62 O -0.04083 0.88353 -0.14047
 O63 O -0.06902 0.94512 -0.07296
 C64 C -0.06474 0.90427 -0.12523
 Zr65 Zr -0.00209 0.90689 -0.09239
 O66 O 0.00104 0.88900 -0.22820
 O67 O -0.00897 0.82415 -0.06443
 Zr68 Zr 0.00376 1.04175 -0.12898
 O69 O 0.00549 1.03620 -0.26736
 O70 O 0.00485 1.12714 -0.13973
 Zr71 Zr -0.04014 0.99291 -0.00505
 Zr72 Zr 0.04095 0.97972 0.00059
 O73 O 0.02428 0.96867 -0.12543
 O74 O -0.02312 0.97628 -0.12982
 O75 O 0.02136 0.90487 0.02134
 O76 O -0.02007 1.06722 -0.02449
 O77 O -0.02670 0.91339 0.01727
 O78 O 0.02831 1.06002 -0.02159
 H79 H 0.03602 1.00022 0.17593
 H80 H -0.03142 1.09981 -0.03400
 H81 H 0.03638 0.96059 -0.17613
 H82 H -0.04036 0.88403 0.02376
 H83 H 0.01930 1.15716 0.02524
 H84 H 0.02372 1.13926 -0.12672
 H85 H 0.00683 0.99733 -0.28236
 H86 H -0.01124 0.91418 -0.25917
 H87 H 0.00716 0.81065 -0.03239
 H88 H 0.00352 0.82788 0.11524
 H89 H -0.01678 0.97160 0.27790
 H90 H -0.01037 1.06286 0.25333
 O91 O 0.45958 0.42925 0.18096
 O92 O 0.43356 0.47975 0.08735
 C93 C 0.43648 0.44895 0.15498
 O94 O 0.55009 0.59451 0.13962
 O95 O 0.57541 0.52738 0.07320
 C96 C 0.57301 0.57011 0.12258
 O97 O 0.47378 0.61364 0.14646
 O98 O 0.44023 0.56743 0.07198
 C99 C 0.44836 0.60428 0.12693
 O100 O 0.53451 0.39970 0.17203
 O101 O 0.56823 0.43645 0.08604
 C102 C 0.55991 0.40502 0.14844
 Zr103 Zr 0.49899 0.43825 0.12502
 O104 O 0.50169 0.44282 0.26344
 O105 O 0.49075 0.35432 0.12791
 Zr106 Zr 0.50971 0.57324 0.10265
 O107 O 0.51294 0.58190 0.24060
 O108 O 0.51333 0.65802 0.08736
 O109 O 0.48048 0.51434 0.13082
 O110 O 0.52767 0.49964 0.13067
 O111 O 0.53406 0.37806 -0.12990
 O112 O 0.56788 0.42737 -0.06179
 C113 C 0.55958 0.38786 -0.11149
 O114 O 0.47327 0.58955 -0.17272
 O115 O 0.43979 0.55743 -0.08104
 C116 C 0.44786 0.58481 -0.14872
 O117 O 0.54965 0.57388 -0.16054
 O118 O 0.57558 0.51933 -0.07307
 C119 C 0.57298 0.55504 -0.13433
 O120 O 0.45783 0.40727 -0.14140
 O121 O 0.43313 0.47104 -0.06518
 C122 C 0.43493 0.43132 -0.12062
 Zr123 Zr 0.49841 0.42299 -0.09504
 O124 O 0.50116 0.41217 -0.23276
 O125 O 0.48889 0.34009 -0.07910
 Zr126 Zr 0.50938 0.55746 -0.11755
 O127 O 0.51264 0.54692 -0.25524
 O128 O 0.51261 0.64226 -0.13315
 Zr129 Zr 0.46409 0.51070 0.00328
 Zr130 Zr 0.54431 0.48583 0.00490
 O131 O 0.52735 0.48199 -0.12182
 O132 O 0.47991 0.49659 -0.12386
 O133 O 0.52212 0.41308 0.01727
 O134 O 0.48681 0.58245 -0.00976
 O135 O 0.47428 0.42852 0.01640
 O136 O 0.53447 0.56836 -0.00859
 H137 H 0.53981 0.49925 0.18258
 H138 H 0.47687 0.61713 -0.01561
 H139 H 0.53958 0.47515 -0.17271
 H140 H 0.45936 0.40153 0.02151
 H141 H 0.52978 0.66484 0.05110
 H142 H 0.52832 0.65474 -0.09762
 H143 H 0.49603 0.52761 -0.27513
 H144 H 0.48791 0.43716 -0.25973
 H145 H 0.50148 0.32583 -0.03421
 H146 H 0.49007 0.34444 0.19075
 H147 H 0.49232 0.47646 0.28202
 H148 H 0.49588 0.56762 0.26679
 C149 C 0.30659 0.33070 0.39336
 C150 C 0.32852 0.34638 0.33967
 C151 C 0.33640 0.31312 0.26791
 C152 C 0.32205 0.26498 0.25088
 C153 C 0.30062 0.24910 0.30593
 C154 C 0.29305 0.28125 0.37845
 C155 C 0.35875 0.32801 0.21532
 C156 C 0.37367 0.37517 0.23468
 C157 C 0.36576 0.40844 0.30654
 C158 C 0.34307 0.39410 0.35798
 C159 C 0.38100 0.45505 0.32667
 C160 C 0.40410 0.46815 0.27695
 C161 C 0.41196 0.43541 0.20572
 C162 C 0.39668 0.38918 0.18427
 H163 H 0.30044 0.35627 0.44815
 H164 H 0.32776 0.23907 0.19608
 H165 H 0.29033 0.21100 0.29319
 H166 H 0.36485 0.30242 0.16044
 H167 H 0.33711 0.41946 0.41331
 H168 H 0.37527 0.48095 0.38149
 H169 H 0.41595 0.50370 0.29430
 H170 H 0.40296 0.36388 0.12926
 C171 C -0.20517 0.85180 0.37533
 C172 C -0.18011 0.87240 0.34591
 C173 C -0.16985 0.92133 0.38175
 C174 C -0.18508 0.94891 0.44635
 C175 C -0.21027 0.92836 0.47453
 C176 C -0.22027 0.87928 0.44012
 C177 C -0.14465 0.94177 0.35223
 C178 C -0.12978 0.91404 0.28679
 C179 C -0.14012 0.86484 0.25176
 C180 C -0.16511 0.84435 0.28173
 C181 C -0.12545 0.83706 0.18637
 C182 C -0.10097 0.85823 0.15452
 C183 C -0.09072 0.90712 0.18795
 C184 C -0.10494 0.93487 0.25462
 H185 H -0.21269 0.81360 0.34935
 H186 H -0.17752 0.98625 0.47517
 H187 H -0.22175 0.95029 0.52424
 H188 H -0.13676 0.97931 0.37958
 H189 H -0.17299 0.80671 0.25460
 H190 H -0.13310 0.79940 0.15891
 H191 H -0.09018 0.83687 0.10250
 H192 H -0.09691 0.97276 0.28011
 C193 C 0.68757 0.72797 0.38014
 C194 C 0.66839 0.70646 0.32124
 C195 C 0.65546 0.74077 0.26050
 C196 C 0.66341 0.79523 0.25571
 C197 C 0.68305 0.81613 0.31335
 C198 C 0.69435 0.78342 0.37910
 C199 C 0.63456 0.72026 0.20663
 C200 C 0.62688 0.66560 0.21163
 C201 C 0.64116 0.63057 0.26833
 C202 C 0.66163 0.65133 0.32334
 C203 C 0.63432 0.57548 0.27045
 C204 C 0.61288 0.55557 0.21926
 C205 C 0.59764 0.59056 0.16664
 C206 C 0.60486 0.64545 0.16211
 H207 H 0.69716 0.70154 0.42734
 H208 H 0.65406 0.82193 0.20851
 H209 H 0.68806 0.85878 0.31011
 H210 H 0.62406 0.74692 0.16181
 H211 H 0.67196 0.62479 0.36876
 H212 H 0.64522 0.54800 0.31284
 H213 H 0.60735 0.51323 0.22376
 H214 H 0.59315 0.67235 0.12087
 C215 C 0.19561 1.19701 0.34293
 C216 C 0.17002 1.18464 0.30681
 C217 C 0.14583 1.20010 0.35132
 C218 C 0.14780 1.23005 0.42962
 C219 C 0.17344 1.24267 0.46501
 C220 C 0.19777 1.22446 0.42414
 C221 C 0.12021 1.18451 0.31754
 C222 C 0.11863 1.15329 0.24004
 C223 C 0.14301 1.13958 0.19458
 C224 C 0.16841 1.15550 0.22790
 C225 C 0.14177 1.10868 0.11750
 C226 C 0.11680 1.08925 0.08746
 C227 C 0.09237 1.10055 0.13326
 C228 C 0.09329 1.13401 0.20848
 H229 H 0.21382 1.18213 0.30993
 H230 H 0.12953 1.24332 0.46399
 H231 H 0.17416 1.26659 0.52484
 H232 H 0.10165 1.19551 0.35251
 H233 H 0.18701 1.14397 0.19347
 H234 H 0.16023 1.09827 0.08156
 H235 H 0.11673 1.06421 0.02873
 H236 H 0.07462 1.14295 0.24431
 C237 C 0.68662 0.25521 -0.35390
 C238 C 0.66577 0.28565 -0.31246
 C239 C 0.66608 0.34276 -0.31831
 C240 C 0.68646 0.36837 -0.36743
 C241 C 0.70606 0.33789 -0.41221
 C242 C 0.70644 0.28101 -0.40665
 C243 C 0.64574 0.37356 -0.27646
 C244 C 0.62418 0.34810 -0.23229
 C245 C 0.62297 0.29098 -0.22945
 C246 C 0.64413 0.26008 -0.26784
 C247 C 0.60037 0.26595 -0.18927
 C248 C 0.57928 0.29726 -0.15236
 C249 C 0.58093 0.35393 -0.15266
 C250 C 0.60350 0.37906 -0.19236
 H251 H 0.68636 0.21143 -0.34984
 H252 H 0.68695 0.41207 -0.37268
 H253 H 0.72143 0.35909 -0.45012
 H254 H 0.64633 0.41738 -0.28009
 H255 H 0.64340 0.21628 -0.26478
 H256 H 0.59891 0.22224 -0.18707
 H257 H 0.56199 0.27731 -0.12193
 H258 H 0.60462 0.42290 -0.19377
 C259 C 0.18878 0.77290 -0.36468
 C260 C 0.16752 0.79921 -0.31950
 C261 C 0.16762 0.85638 -0.31248
 C262 C 0.18854 0.88624 -0.35254
 C263 C 0.20927 0.85974 -0.39894
 C264 C 0.20956 0.80311 -0.40485
 C265 C 0.14678 0.88284 -0.26594
 C266 C 0.12546 0.85305 -0.22816
 C267 C 0.12477 0.79607 -0.23740
 C268 C 0.14604 0.76941 -0.28209
 C269 C 0.10261 0.76695 -0.20266
 C270 C 0.08125 0.79414 -0.15969
 C271 C 0.08228 0.85050 -0.14869
 C272 C 0.10450 0.87964 -0.18258
 H273 H 0.18901 0.72912 -0.37008
 H274 H 0.18880 0.93004 -0.34824
 H275 H 0.22527 0.88333 -0.42977
 H276 H 0.14698 0.92664 -0.25994
 H277 H 0.14573 0.72566 -0.28858
 H278 H 0.10162 0.72333 -0.20973
 H279 H 0.06408 0.77126 -0.13442
 H280 H 0.10501 0.92337 -0.17589
 C281 C 0.32146 0.70343 -0.40500
 C282 C 0.34073 0.67772 -0.35198
 C283 C 0.33191 0.64298 -0.28445
 C284 C 0.30384 0.63477 -0.27116
 C285 C 0.28472 0.66073 -0.32422
 C286 C 0.29321 0.69480 -0.39302
 C287 C 0.35127 0.61773 -0.23069
 C288 C 0.37934 0.62724 -0.24343
 C289 C 0.38803 0.66213 -0.31115
 C290 C 0.36871 0.68705 -0.36494
 C291 C 0.41596 0.67167 -0.32410
 C292 C 0.43523 0.64686 -0.27070
 C293 C 0.42699 0.61201 -0.20302
 C294 C 0.39888 0.60249 -0.18965
 H295 H 0.32859 0.73261 -0.45231
 H296 H 0.29665 0.60837 -0.21957
 H297 H 0.26322 0.65277 -0.31282
 H298 H 0.34452 0.59103 -0.17879
 H299 H 0.37546 0.71378 -0.41684
 H300 H 0.42294 0.69829 -0.37571
 H301 H 0.45667 0.65504 -0.28272
 H302 H 0.39220 0.57553 -0.13810
 C303 C -0.18728 1.16971 -0.41557
 C304 C -0.16770 1.14309 -0.36545
 C305 C -0.17597 1.10696 -0.29929
 C306 C -0.20401 1.09787 -0.28541
 C307 C -0.22356 1.12451 -0.33646
 C308 C -0.21547 1.16015 -0.40362
 C309 C -0.15608 1.08158 -0.24741
 C310 C -0.12811 1.09245 -0.26105
 C311 C -0.12011 1.12809 -0.32864
 C312 C -0.13990 1.15304 -0.38023
 C313 C -0.09240 1.13888 -0.34324
 C314 C -0.07259 1.11538 -0.29058
 C315 C -0.08004 1.08062 -0.22193
 C316 C -0.10795 1.06895 -0.20789
 H317 H -0.18034 1.19992 -0.46165
 H318 H -0.21083 1.07028 -0.23496
 H319 H -0.24498 1.11595 -0.32485
 H320 H -0.16233 1.05409 -0.19599
 H321 H -0.13366 1.18064 -0.43158
 H322 H -0.08602 1.16594 -0.39502
 H323 H -0.05135 1.12512 -0.30318
 H324 H -0.11400 1.04192 -0.15566
 C325 C 0.68854 0.72553 -0.36688
 C326 C 0.66547 0.69788 -0.33536
 C327 C 0.63919 0.71231 -0.36547
 C328 C 0.63637 0.75395 -0.42630
 C329 C 0.65937 0.78081 -0.45805
 C330 C 0.68583 0.76646 -0.43021
 C331 C 0.61608 0.68517 -0.33400
 C332 C 0.61885 0.64373 -0.27262
 C333 C 0.64507 0.62863 -0.24302
 C334 C 0.66827 0.65578 -0.27471
 C335 C 0.64752 0.58711 -0.18135
 C336 C 0.62416 0.56186 -0.14759
 C337 C 0.59797 0.57757 -0.17530
 C338 C 0.59562 0.61796 -0.23918
 H339 H 0.70868 0.71342 -0.34505
 H340 H 0.61634 0.76586 -0.44927
 H341 H 0.65637 0.81365 -0.50356
 H342 H 0.59592 0.69660 -0.35674
 H343 H 0.68842 0.64445 -0.25179
 H344 H 0.66746 0.57481 -0.15811
 H345 H 0.62660 0.53082 -0.09855
 H346 H 0.57561 0.63056 -0.26154
 C347 C 0.19357 1.16264 -0.40463
 C348 C 0.17339 1.14393 -0.34655
 C349 C 0.16997 1.16938 -0.26380
 C350 C 0.18699 1.21268 -0.24027
 C351 C 0.20655 1.23198 -0.29928
 C352 C 0.20964 1.20839 -0.38349
 C353 C 0.14926 1.15189 -0.20664
 C354 C 0.13140 1.11023 -0.23229
 C355 C 0.13490 1.08464 -0.31514
 C356 C 0.15612 1.10109 -0.37107
 C357 C 0.11663 1.04397 -0.34171
 C358 C 0.09463 1.02986 -0.28788
 C359 C 0.09096 1.05530 -0.20612
 C360 C 0.10959 1.09478 -0.17764
 H361 H 0.19656 1.14171 -0.46674
 H362 H 0.18470 1.23262 -0.17703
 H363 H 0.21837 1.26722 -0.28014
 H364 H 0.14657 1.17164 -0.14330
 H365 H 0.15865 1.08170 -0.43477
 H366 H 0.11900 1.02391 -0.40482
 H367 H 0.08038 0.99909 -0.31006
 H368 H 0.10652 1.11461 -0.11460
 C369 C 0.30526 0.31378 -0.36632
 C370 C 0.33071 0.32784 -0.33098
 C371 C 0.35456 0.30002 -0.35843
 C372 C 0.35237 0.25831 -0.42120
 C373 C 0.32686 0.24465 -0.45644
 C374 C 0.30320 0.27258 -0.42963
 C375 C 0.38008 0.31446 -0.32273
 C376 C 0.38194 0.35644 -0.26010
 C377 C 0.35790 0.38407 -0.23354
 C378 C 0.33256 0.36963 -0.26895
 C379 C 0.35943 0.42593 -0.17171
 C380 C 0.38446 0.44049 -0.13586
 C381 C 0.40875 0.41366 -0.16088
 C382 C 0.40733 0.37145 -0.22347
 H383 H 0.28703 0.33554 -0.34590
 H384 H 0.37036 0.23642 -0.44318
 H385 H 0.32555 0.21247 -0.50499
 H386 H 0.39839 0.29314 -0.34363
 H387 H 0.31424 0.39100 -0.24820
 H388 H 0.34120 0.44751 -0.15089
 H389 H 0.38462 0.47317 -0.08804
 H390 H 0.42580 0.35049 -0.24361
 C391 C -0.20058 0.82971 -0.37688
 C392 C -0.17937 0.84683 -0.32166
 C393 C -0.18399 0.88921 -0.26028
 C394 C -0.21002 0.91279 -0.25388
 C395 C -0.23109 0.89526 -0.30899
 C396 C -0.22630 0.85439 -0.37161
 C397 C -0.16247 0.90768 -0.20721
 C398 C -0.13644 0.88418 -0.21465
 C399 C -0.13205 0.84117 -0.27496
 C400 C -0.15351 0.82280 -0.32805
 C401 C -0.10611 0.81764 -0.28215
 C402 C -0.08449 0.83727 -0.23162
 C403 C -0.08836 0.88081 -0.17276
 C404 C -0.11460 0.90360 -0.16379
 H405 H -0.19702 0.79807 -0.42539
 H406 H -0.21396 0.94523 -0.20721
 H407 H -0.25091 0.91463 -0.30473
 H408 H -0.16590 0.94062 -0.16092
 H409 H -0.15002 0.79024 -0.37500
 H410 H -0.10243 0.78454 -0.32781
 H411 H -0.06456 0.81882 -0.23998
 H412 H -0.11796 0.93715 -0.11872
 C413 C 0.32112 0.72773 0.37592
 C414 C 0.34162 0.69889 0.33112
 C415 C 0.33861 0.64246 0.31743
 C416 C 0.31571 0.61558 0.35156
 C417 C 0.29604 0.64425 0.39949
 C418 C 0.29865 0.70028 0.41182
 C419 C 0.35867 0.61368 0.27087
 C420 C 0.38227 0.64011 0.24112
 C421 C 0.38597 0.69596 0.25838
 C422 C 0.36532 0.72528 0.30166
 C423 C 0.41043 0.72126 0.23288
 C424 C 0.43106 0.69140 0.19098
 C425 C 0.42707 0.63639 0.17140
 C426 C 0.40251 0.61118 0.19576
 H427 H 0.32307 0.77105 0.38608
 H428 H 0.31321 0.57232 0.34226
 H429 H 0.27866 0.62285 0.42666
 H430 H 0.35618 0.57056 0.25927
 H431 H 0.36792 0.76829 0.31387
 H432 H 0.41373 0.76391 0.24626
 H433 H 0.44991 0.71142 0.17252
 H434 H 0.39944 0.56861 0.18114
 C435 C -0.19012 1.20278 0.35441
 C436 C -0.16901 1.17520 0.31003
 C437 C -0.16895 1.11799 0.30801
 C438 C -0.18922 1.08943 0.35341
 C439 C -0.20883 1.11708 0.40318
 C440 C -0.20966 1.17400 0.40383
 C441 C -0.14823 1.09019 0.26263
 C442 C -0.12652 1.11868 0.22428
 C443 C -0.12576 1.17580 0.22992
 C444 C -0.14744 1.20380 0.27053
 C445 C -0.10305 1.20377 0.19629
 C446 C -0.08121 1.17534 0.15819
 C447 C -0.08225 1.11878 0.15030
 C448 C -0.10512 1.09077 0.18247
 H449 H -0.19019 1.24667 0.35587
 H450 H -0.18955 1.04568 0.35185
 H451 H -0.22386 1.09394 0.43947
 H452 H -0.14853 1.04634 0.25953
 H453 H -0.14709 1.24766 0.27385
 H454 H -0.10200 1.24750 0.20068
 H455 H -0.06372 1.19752 0.13348
 H456 H -0.10587 1.04704 0.17707
 C457 C 0.68466 0.27882 0.40085
 C458 C 0.66569 0.30619 0.34925
 C459 C 0.67439 0.34960 0.29613
 C460 C 0.70204 0.36493 0.29616
 C461 C 0.72086 0.33748 0.34840
 C462 C 0.71224 0.29453 0.40151
 C463 C 0.65531 0.37677 0.24398
 C464 C 0.62767 0.36122 0.24500
 C465 C 0.61909 0.31801 0.29881
 C466 C 0.63815 0.29065 0.35019
 C467 C 0.59148 0.30303 0.30098
 C468 C 0.57238 0.33101 0.25121
 C469 C 0.58057 0.37412 0.19755
 C470 C 0.60839 0.38859 0.19393
 H471 H 0.67803 0.24492 0.44034
 H472 H 0.70911 0.39807 0.25587
 H473 H 0.74210 0.34989 0.34786
 H474 H 0.66192 0.41007 0.20311
 H475 H 0.63153 0.25747 0.39133
 H476 H 0.58459 0.27002 0.34187
 H477 H 0.55112 0.31886 0.25493
 H478 H 0.61496 0.42183 0.15298
 C479 C 0.18753 0.79383 0.40452
 C480 C 0.16767 0.81945 0.35361
 C481 C 0.17531 0.86211 0.29736
 C482 C 0.20279 0.87849 0.29359
 C483 C 0.22245 0.85292 0.34519
 C484 C 0.21494 0.81072 0.40148
 C485 C 0.15540 0.88746 0.24582
 C486 C 0.12794 0.87080 0.25029
 C487 C 0.12041 0.82837 0.30725
 C488 C 0.14030 0.80291 0.35823
 C489 C 0.09303 0.81208 0.31261
 C490 C 0.07317 0.83760 0.26233
 C491 C 0.08027 0.87973 0.20514
 C492 C 0.10783 0.89600 0.19917
 H493 H 0.18173 0.76038 0.44620
 H494 H 0.20906 0.91108 0.25088
 H495 H 0.24352 0.86631 0.34175
 H496 H 0.16124 0.92011 0.20248
 H497 H 0.13445 0.77033 0.40174
 H498 H 0.08693 0.77968 0.35597
 H499 H 0.05217 0.82406 0.26810
 H500 H 0.11358 0.92869 0.15584
   
