data_POSCAR
  _audit_creation_date              2014-09-24
  _audit_creation_method            'ToBaCCo'
  _symmetry_space_group_name_H-M    'P1'
  _symmetry_Int_Tables_number       1
  _symmetry_cell_setting            triclinic
  loop_
  _symmetry_equiv_pos_as_xyz
 x,y,z
_cell_length_a 15.0690
_cell_length_b 14.1493
_cell_length_c 15.2833
_cell_angle_alpha 89.005600
_cell_angle_beta 88.906100
_cell_angle_gamma 90.005600
loop_
  _atom_site_label
  _atom_site_type_symbol
  _atom_site_fract_x
  _atom_site_fract_y
  _atom_site_fract_z
C1 C 0.16521 0.15413 0.27651
 C2 C 0.14287 0.24950 0.26568
 C3 C 0.17614 0.29995 0.19270
 C4 C 0.24743 0.25912 0.14220
 C5 C 0.26951 0.16243 0.15356
 C6 C 0.22271 0.11019 0.21741
 H7 H 0.09205 0.28030 0.30739
 H8 H 0.27695 0.29818 0.08743
 H9 H 0.23633 0.03528 0.22592
 C10 C -0.21203 0.83467 0.31556
 C11 C -0.15623 0.77040 0.27043
 C12 C -0.17590 0.74000 0.18657
 C13 C -0.25721 0.76651 0.15031
 C14 C -0.31688 0.82699 0.19515
 C15 C -0.29454 0.85861 0.27924
 H16 H -0.09333 0.74880 0.29764
 H17 H -0.27118 0.74530 0.08442
 H18 H -0.33647 0.91010 0.31144
 C19 C -0.18860 0.17120 -0.29509
 C20 C -0.26687 0.14463 -0.25086
 C21 C -0.28724 0.17643 -0.16478
 C22 C -0.22898 0.23884 -0.12467
 C23 C -0.15270 0.27116 -0.16978
 C24 C -0.13458 0.23977 -0.25529
 H25 H -0.30916 0.09372 -0.28168
 H26 H -0.24293 0.26257 -0.05931
 H27 H -0.07457 0.26484 -0.28840
 C28 C 0.18015 0.84421 -0.29883
 C29 C 0.12421 0.78583 -0.24902
 C30 C 0.15819 0.72986 -0.18212
 C31 C 0.24590 0.74170 -0.15638
 C32 C 0.30005 0.80842 -0.20082
 C33 C 0.26979 0.85102 -0.27841
 H34 H 0.05457 0.78307 -0.26351
 H35 H 0.26864 0.70621 -0.09751
 H36 H 0.31096 0.90236 -0.31368
 C37 C 0.19107 1.18670 0.68700
 C38 C 0.15431 1.26555 0.72696
 C39 C 0.18301 1.29280 0.80954
 C40 C 0.24687 1.23848 0.85353
 C41 C 0.28405 1.16014 0.81282
 C42 C 0.26084 1.13845 0.72783
 H43 H 0.09983 1.30229 0.69586
 H44 H 0.26536 1.25488 0.91975
 H45 H 0.29029 1.07643 0.69832
 C46 C 0.83092 0.83210 0.70716
 C47 C 0.86644 0.75273 0.75065
 C48 C 0.83235 0.72151 0.83432
 C49 C 0.75946 0.76828 0.87041
 C50 C 0.71868 0.84098 0.82301
 C51 C 0.75400 0.87259 0.74248
 H52 H 0.92419 0.71937 0.72182
 H53 H 0.73395 0.74825 0.93470
 H54 H 0.72566 0.93439 0.71104
 C55 C 0.18690 0.80319 1.31413
 C56 C 0.14368 0.72963 1.27196
 C57 C 0.17426 0.69856 1.19009
 C58 C 0.25144 0.74062 1.15222
 C59 C 0.29907 0.81149 1.19677
 C60 C 0.26882 0.83730 1.27972
 H61 H 0.08029 0.70433 1.29773
 H62 H 0.27088 0.72229 1.08605
 H63 H 0.30335 0.89386 1.31184
 C64 C 0.82751 1.16643 1.30259
 C65 C 0.74771 1.13228 1.26846
 C66 C 0.71667 1.16584 1.18765
 C67 C 0.76062 1.24077 1.14451
 C68 C 0.84149 1.27349 1.17521
 C69 C 0.87565 1.23464 1.25312
 H70 H 0.71621 1.07073 1.29865
 H71 H 0.73664 1.26665 1.08254
 H72 H 0.94111 1.25522 1.27364
 O73 O 0.57358 0.89884 0.83899
 O74 O 0.39484 0.94991 1.17605
 O75 O 0.62645 0.88672 1.06389
 O76 O 0.37660 0.84637 0.92542
 O77 O 0.56109 0.93564 1.17766
 O78 O 0.40886 0.92538 0.81306
 O79 O 0.38334 0.85560 1.07284
 O80 O 0.67698 0.95173 0.92561
 C81 C 0.65209 0.89832 0.86569
 C82 C 0.36699 0.87172 1.14942
 C83 C 0.61586 0.88000 1.14360
 C84 C 0.37034 0.85663 0.84639
 O85 O 0.42475 1.10028 0.83370
 O86 O 0.57980 1.11593 1.12176
 O87 O 0.62901 1.12436 0.96466
 O88 O 0.30934 1.03457 1.07106
 O89 O 0.41344 1.12878 1.10842
 O90 O 0.59018 1.07938 0.83841
 O91 O 0.31501 1.03296 0.91088
 O92 O 0.70511 1.04287 1.08335
 Co93 Co 0.49867 1.00009 0.84723
 Co94 Co 0.48695 1.02839 1.13207
 Co95 Co 0.61661 1.00480 1.01664
 Co96 Co 0.35613 0.94666 0.99515
 O97 O 0.48635 0.99203 0.99202
 C98 C 0.34476 1.09673 0.85760
 C99 C 0.66309 1.10258 1.13490
 C100 C 0.63734 1.13029 0.88309
 C101 C 0.33232 1.11245 1.10251
 O102 O 0.04824 0.40732 0.18373
 O103 O 0.09816 0.57973 -0.15853
 O104 O 0.14287 0.37938 -0.06754
 O105 O 0.10054 0.65759 0.06057
 O106 O 0.06900 0.40357 -0.17846
 O107 O 0.06042 0.58305 0.17572
 O108 O 0.04391 0.69718 -0.08001
 O109 O 0.13432 0.39472 0.07666
 C110 C 0.12130 0.37739 0.15359
 C111 C 0.09880 0.66513 -0.13608
 C112 C 0.13348 0.36604 -0.14494
 C113 C 0.11227 0.64045 0.13873
 O114 O -0.11205 0.59878 0.12566
 O115 O -0.09426 0.42380 -0.15556
 O116 O -0.03313 0.31146 0.08575
 O117 O -0.12103 0.64402 -0.03662
 O118 O -0.06978 0.60194 -0.16110
 O119 O -0.11935 0.42544 0.12351
 O120 O -0.05225 0.73470 0.08033
 O121 O -0.03273 0.31007 -0.07526
 Co122 Co -0.02687 0.50357 0.13854
 Co123 Co 0.00133 0.50246 -0.14700
 Co124 Co 0.04883 0.35933 0.00467
 Co125 Co -0.00985 0.63853 0.01553
 O126 O 0.00602 0.49736 -0.00213
 C127 C -0.10740 0.68875 0.13417
 C128 C -0.09148 0.33880 -0.12951
 C129 C -0.10398 0.33951 0.12153
 C130 C -0.12213 0.65100 -0.11861
 O131 O 1.15337 0.10921 0.41926
 O132 O 0.80765 0.05206 0.59508
 O133 O 0.92212 0.04581 0.33141
 O134 O 1.06990 0.15273 0.60517
 O135 O 0.85407 0.10531 0.44183
 O136 O 1.18554 0.07854 0.58076
 O137 O 0.91932 0.13704 0.60261
 O138 O 1.08049 0.02867 0.32148
 C139 C 1.12771 0.09916 0.34217
 C140 C 0.84332 0.12217 0.62989
 C141 C 0.87162 0.10749 0.36174
 C142 C 1.14932 0.14405 0.61782
 O143 O 1.16927 -0.09361 0.56395
 O144 O 0.77897 -0.05748 0.43671
 O145 O 1.06202 -0.15200 0.39423
 O146 O 0.92550 -0.04410 0.67401
 O147 O 0.86670 -0.11736 0.56589
 O148 O 1.17711 -0.06989 0.40214
 O149 O 1.08748 -0.03267 0.67103
 O150 O 0.90341 -0.12728 0.40718
 Co151 Co 1.15381 0.00663 0.49198
 Co152 Co 0.86857 -0.00645 0.50132
 Co153 Co 0.99342 -0.04745 0.37410
 Co154 Co 1.00131 0.04970 0.62907
 O155 O 1.00737 0.00345 0.50243
 C156 C 1.14400 -0.09258 0.64282
 C157 C 0.82264 -0.11659 0.38732
 C158 C 1.14204 -0.14293 0.37693
 C159 C 0.88081 -0.11300 0.64629
   
