data_POSCAR
  _audit_creation_date              2014-09-24
  _audit_creation_method            'ToBaCCo'
  _symmetry_space_group_name_H-M    'P1'
  _symmetry_Int_Tables_number       1
  _symmetry_cell_setting            triclinic
  loop_
  _symmetry_equiv_pos_as_xyz
 x,y,z
_cell_length_a 48.0925
_cell_length_b 47.4410
_cell_length_c 48.1338
_cell_angle_alpha 89.891900
_cell_angle_beta 89.990000
_cell_angle_gamma 89.995900
loop_
  _atom_site_label
  _atom_site_type_symbol
  _atom_site_fract_x
  _atom_site_fract_y
  _atom_site_fract_z
N1 N 0.59343 0.66982 0.61306
 N2 N 0.58290 0.65863 0.63577
 C3 C 0.56030 0.67353 0.64341
 C4 C 0.55670 0.69504 0.62448
 C5 C 0.57795 0.69220 0.60549
 H6 H 0.54743 0.66914 0.66133
 H7 H 0.58182 0.70541 0.58756
 Cu8 Cu 0.59971 0.62569 0.65308
 Cu9 Cu 0.62637 0.65456 0.59501
 Cu10 Cu 0.65614 0.59520 0.62479
 N11 N 0.61630 0.59201 0.66919
 N12 N 0.63838 0.58019 0.65802
 C13 C 0.64555 0.55737 0.67309
 C14 C 0.62693 0.55494 0.69471
 C15 C 0.60863 0.57709 0.69178
 H16 H 0.66294 0.54363 0.66866
 H17 H 0.59112 0.58189 0.70507
 N18 N 0.67109 0.61346 0.59116
 N19 N 0.65975 0.63608 0.57981
 C20 C 0.67466 0.64352 0.55725
 C21 C 0.69624 0.62468 0.55443
 C22 C 0.69352 0.60592 0.57611
 H23 H 0.67023 0.66129 0.54386
 H24 H 0.70691 0.58816 0.58055
 H25 H 0.62069 0.61358 0.60856
 H26 H 0.64367 0.63653 0.63010
 N27 N 0.90797 0.33057 0.11183
 N28 N 0.91917 0.34239 0.13387
 C29 C 0.94173 0.32744 0.14158
 C30 C 0.94462 0.30529 0.12333
 C31 C 0.92300 0.30774 0.10471
 H32 H 0.95503 0.33223 0.15906
 H33 H 0.91854 0.29400 0.08736
 Cu34 Cu 0.90312 0.37608 0.15037
 Cu35 Cu 0.87478 0.34561 0.09403
 Cu36 Cu 0.84509 0.40500 0.12365
 N37 N 0.88585 0.40903 0.16710
 N38 N 0.86316 0.42023 0.15655
 C39 C 0.85561 0.44261 0.17198
 C40 C 0.87460 0.44543 0.19322
 C41 C 0.89351 0.42392 0.18966
 H42 H 0.83770 0.45582 0.16808
 H43 H 0.91141 0.41951 0.20255
 N44 N 0.82987 0.38653 0.09033
 N45 N 0.84118 0.36390 0.07904
 C46 C 0.82612 0.35637 0.05664
 C47 C 0.80447 0.37514 0.05387
 C48 C 0.80732 0.39398 0.07540
 H49 H 0.83053 0.33861 0.04330
 H50 H 0.79395 0.41176 0.07978
 H51 H 0.88018 0.38694 0.10642
 H52 H 0.85855 0.36400 0.12942
 N53 N 0.40674 0.16994 -0.11248
 N54 N 0.41762 0.15841 -0.13482
 C55 C 0.44023 0.17331 -0.14250
 C56 C 0.44349 0.19515 -0.12396
 C57 C 0.42202 0.19253 -0.10518
 H58 H 0.45333 0.16869 -0.16017
 H59 H 0.41786 0.20602 -0.08757
 Cu60 Cu 0.40111 0.12510 -0.15159
 Cu61 Cu 0.37363 0.15485 -0.09452
 Cu62 Cu 0.34387 0.09545 -0.12412
 N63 N 0.38425 0.09179 -0.16802
 N64 N 0.36184 0.08030 -0.15714
 C65 C 0.35449 0.05770 -0.17235
 C66 C 0.37331 0.05503 -0.19376
 C67 C 0.39192 0.07686 -0.19055
 H68 H 0.33683 0.04423 -0.16817
 H69 H 0.40965 0.08144 -0.20363
 N70 N 0.32877 0.11386 -0.09070
 N71 N 0.34010 0.13649 -0.07942
 C72 C 0.32510 0.14399 -0.05697
 C73 C 0.30347 0.12519 -0.05415
 C74 C 0.30626 0.10638 -0.07571
 H75 H 0.32952 0.16175 -0.04363
 H76 H 0.29288 0.08862 -0.08008
 H77 H 0.37909 0.11366 -0.10734
 H78 H 0.35683 0.13661 -0.12969
 N79 N 0.09258 0.82907 0.38743
 N80 N 0.08201 0.84029 0.36474
 C81 C 0.05944 0.82536 0.35706
 C82 C 0.05593 0.80381 0.37596
 C83 C 0.07716 0.80662 0.39497
 H84 H 0.04656 0.82978 0.33915
 H85 H 0.08108 0.79339 0.41287
 Cu86 Cu 0.09875 0.87332 0.34751
 Cu87 Cu 0.12548 0.84436 0.40550
 Cu88 Cu 0.15510 0.90388 0.37586
 N89 N 0.11525 0.90708 0.33149
 N90 N 0.13729 0.91893 0.34268
 C91 C 0.14440 0.94179 0.32765
 C92 C 0.12580 0.94426 0.30602
 C93 C 0.10756 0.92205 0.30893
 H94 H 0.16175 0.95556 0.33209
 H95 H 0.09009 0.91724 0.29563
 N96 N 0.17010 0.88556 0.40943
 N97 N 0.15881 0.86288 0.42073
 C98 C 0.17374 0.85543 0.44326
 C99 C 0.19528 0.87431 0.44612
 C100 C 0.19250 0.89313 0.42449
 H101 H 0.16936 0.83762 0.45661
 H102 H 0.20585 0.91093 0.42009
 H103 H 0.11969 0.88537 0.39205
 H104 H 0.14273 0.86253 0.37045
 C105 C 0.10323 0.14608 0.12517
 C106 C 0.10337 0.12534 0.14593
 C107 C 0.12408 0.10457 0.14610
 C108 C 0.14466 0.10455 0.12549
 C109 C 0.14453 0.12528 0.10472
 C110 C 0.12381 0.14604 0.10457
 H111 H 0.08744 0.12536 0.16188
 H112 H 0.16070 0.08848 0.12561
 H113 H 0.12371 0.16210 0.08850
 C114 C 0.39561 0.85400 0.62540
 C115 C 0.37498 0.85395 0.60485
 C116 C 0.35416 0.87460 0.60500
 C117 C 0.35397 0.89531 0.62571
 C118 C 0.37459 0.89538 0.64626
 C119 C 0.39540 0.87472 0.64610
 H120 H 0.37514 0.83791 0.58882
 H121 H 0.33785 0.91130 0.62583
 H122 H 0.41137 0.87477 0.66201
 C123 C 0.89637 0.64561 0.37496
 C124 C 0.87577 0.64554 0.39555
 C125 C 0.85500 0.62483 0.39538
 C126 C 0.85483 0.60419 0.37459
 C127 C 0.87542 0.60425 0.35399
 C128 C 0.89618 0.62497 0.35419
 H129 H 0.87591 0.66151 0.41164
 H130 H 0.83876 0.58816 0.37445
 H131 H 0.91212 0.62502 0.33825
 C132 C 0.60412 0.35456 -0.12534
 C133 C 0.62470 0.35453 -0.10474
 C134 C 0.64549 0.37522 -0.10490
 C135 C 0.64568 0.39595 -0.12567
 C136 C 0.62511 0.39600 -0.14628
 C137 C 0.60433 0.37530 -0.14610
 H138 H 0.62454 0.33848 -0.08867
 H139 H 0.66177 0.41197 -0.12580
 H140 H 0.58840 0.37533 -0.16205
 C141 C 0.00417 0.24549 0.12414
 C142 C 0.01710 0.24002 0.09549
 C143 C 0.03724 0.21980 0.09573
 C144 C 0.04247 0.20704 0.12458
 C145 C 0.01395 0.19636 0.13434
 C146 C -0.00618 0.21658 0.13410
 C147 C 0.02884 0.25252 0.14314
 C148 C 0.04897 0.23230 0.14338
 C149 C -0.01750 0.26724 0.12387
 C150 C -0.03531 0.28513 0.12363
 C151 C 0.06414 0.18529 0.12483
 C152 C 0.08196 0.16741 0.12500
 H153 H 0.01099 0.25105 0.07668
 H154 H 0.04837 0.21352 0.07711
 H155 H 0.00993 0.17482 0.14086
 H156 H -0.02745 0.21235 0.14042
 H157 H 0.03035 0.27168 0.15534
 H158 H 0.06773 0.23415 0.15578
 C159 C 0.49542 0.75537 0.62476
 C160 C 0.47510 0.75259 0.64921
 C161 C 0.45480 0.77263 0.64933
 C162 C 0.45680 0.79348 0.62499
 C163 C 0.45674 0.77505 0.59880
 C164 C 0.47705 0.75502 0.59868
 C165 C 0.50663 0.78561 0.62654
 C166 C 0.48632 0.80564 0.62666
 C167 C 0.51728 0.73381 0.62464
 C168 C 0.53527 0.71611 0.62456
 C169 C 0.43495 0.81505 0.62512
 C170 C 0.41701 0.83280 0.62524
 H171 H 0.47654 0.73632 0.66504
 H172 H 0.43884 0.77353 0.66527
 H173 H 0.44205 0.77753 0.58185
 H174 H 0.47975 0.74033 0.58163
 H175 H 0.52858 0.79083 0.62761
 H176 H 0.49088 0.82802 0.62784
 C177 C 0.99593 0.74448 0.37564
 C178 C 1.00269 0.71909 0.35711
 C179 C 0.98243 0.69901 0.35699
 C180 C 0.95739 0.70629 0.37541
 C181 C 0.94744 0.73522 0.36509
 C182 C 0.96770 0.75530 0.36521
 C183 C 0.98997 0.73189 0.40443
 C184 C 0.96971 0.71181 0.40431
 C185 C 1.01774 0.76609 0.37576
 C186 C 1.03569 0.78383 0.37586
 C187 C 0.93559 0.68466 0.37528
 C188 C 0.91770 0.66687 0.37515
 H189 H 1.02172 0.71705 0.34514
 H190 H 0.98410 0.67977 0.34492
 H191 H 0.92634 0.73955 0.35829
 H192 H 0.96396 0.77683 0.35851
 H193 H 1.00071 0.73820 0.42326
 H194 H 0.96309 0.70092 0.42304
 C195 C 0.50457 0.25568 -0.12452
 C196 C 0.50425 0.27470 -0.09875
 C197 C 0.52450 0.29480 -0.09892
 C198 C 0.54308 0.29390 -0.12483
 C199 C 0.52296 0.29606 -0.14950
 C200 C 0.50271 0.27597 -0.14933
 C201 C 0.53414 0.24357 -0.12569
 C202 C 0.55439 0.26366 -0.12586
 C203 C 0.48277 0.23406 -0.12433
 C204 C 0.46484 0.21630 -0.12417
 C205 C 0.56487 0.31553 -0.12502
 C206 C 0.58277 0.33332 -0.12516
 H207 H 0.48943 0.27257 -0.08186
 H208 H 0.52702 0.30988 -0.08217
 H209 H 0.52448 0.31197 -0.16567
 H210 H 0.48688 0.27467 -0.16536
 H211 H 0.53877 0.22118 -0.12634
 H212 H 0.57637 0.25849 -0.12665
 C213 C 0.12503 0.00521 0.24529
 C214 C 0.14531 -0.00067 0.22136
 C215 C 0.14509 0.01955 0.20121
 C216 C 0.12461 0.04366 0.20695
 C217 C 0.13268 0.05486 0.23575
 C218 C 0.13290 0.03465 0.25590
 C219 C 0.09657 0.00901 0.23133
 C220 C 0.09635 0.02923 0.21118
 C221 C 0.12528 -0.01655 0.26698
 C222 C 0.12550 -0.03443 0.28480
 C223 C 0.12439 0.06541 0.18526
 C224 C 0.12423 0.08327 0.16741
 H225 H 0.15867 -0.01908 0.22034
 H226 H 0.15826 0.01845 0.18292
 H227 H 0.13777 0.07674 0.23994
 H228 H 0.13818 0.03921 0.27735
 H229 H 0.07821 -0.00310 0.23680
 H230 H 0.07780 0.03443 0.19938
 C231 C 0.62620 0.49522 -0.24559
 C232 C 0.61326 0.50517 -0.21815
 C233 C 0.61303 0.48499 -0.19796
 C234 C 0.62576 0.45685 -0.20719
 C235 C 0.65505 0.46432 -0.21755
 C236 C 0.65528 0.48449 -0.23774
 C237 C 0.60976 0.46872 -0.25357
 C238 C 0.60953 0.44854 -0.23338
 C239 C 0.62646 0.51694 -0.26732
 C240 C 0.62668 0.53480 -0.28517
 C241 C 0.62551 0.43514 -0.18546
 C242 C 0.62532 0.41729 -0.16760
 H243 H 0.60500 0.52620 -0.21487
 H244 H 0.60457 0.48874 -0.17738
 H245 H 0.67393 0.45462 -0.20971
 H246 H 0.67437 0.49207 -0.24720
 H247 H 0.59922 0.46603 -0.27334
 H248 H 0.59879 0.42857 -0.23585
 C249 C 0.37380 0.99441 0.74541
 C250 C 0.38160 1.00577 0.71656
 C251 C 0.38175 0.98565 0.69639
 C252 C 0.37409 0.95613 0.70705
 C253 C 0.34573 0.95975 0.72124
 C254 C 0.34558 0.97987 0.74140
 C255 C 0.39444 0.97036 0.75097
 C256 C 0.39458 0.95024 0.73080
 C257 C 0.37364 1.01607 0.76712
 C258 C 0.37350 1.03385 0.78497
 C259 C 0.37425 0.93447 0.68535
 C260 C 0.37440 0.91665 0.66753
 H261 H 0.38657 1.02769 0.71234
 H262 H 0.38685 0.99033 0.67489
 H263 H 0.32737 0.94757 0.71591
 H264 H 0.32710 0.98493 0.75336
 H265 H 0.40776 0.96924 0.76915
 H266 H 0.40803 0.93188 0.73171
 C267 C 0.87485 0.50570 0.25439
 C268 C 0.85582 0.53090 0.24810
 C269 C 0.85592 0.55092 0.26837
 C270 C 0.87502 0.54378 0.29294
 C271 C 0.90372 0.53862 0.27995
 C272 C 0.90363 0.51860 0.25968
 C273 C 0.86521 0.49468 0.28282
 C274 C 0.86530 0.51471 0.30308
 C275 C 0.87475 0.48415 0.23257
 C276 C 0.87468 0.46647 0.21462
 C277 C 0.87513 0.56533 0.31474
 C278 C 0.87525 0.58307 0.33265
 H279 H 0.84338 0.53284 0.22938
 H280 H 0.84355 0.57002 0.26701
 H281 H 0.92247 0.54971 0.28612
 H282 H 0.92230 0.51254 0.24850
 H283 H 0.85887 0.47307 0.28669
 H284 H 0.85904 0.51024 0.32431
 C285 C 0.24307 0.12522 0.00621
 C286 C 0.22920 0.15406 0.01035
 C287 C 0.20916 0.15406 0.03037
 C288 C 0.20495 0.12523 0.04429
 C289 C 0.23382 0.11682 0.05509
 C290 C 0.25386 0.11681 0.03507
 C291 C 0.21903 0.10481 0.00030
 C292 C 0.19899 0.10481 0.02032
 C293 C 0.26464 0.12521 -0.01534
 C294 C 0.28236 0.12520 -0.03305
 C295 C 0.18339 0.12524 0.06584
 C296 C 0.16567 0.12525 0.08356
 H297 H 0.23463 0.17281 -0.00140
 H298 H 0.19743 0.17282 0.03577
 H299 H 0.23814 0.11134 0.07657
 H300 H 0.27535 0.11134 0.03940
 H301 H 0.21785 0.09152 -0.01800
 H302 H 0.18065 0.09153 0.01917
 C303 C 0.75654 0.62467 0.49397
 C304 C 0.77764 0.64877 0.49692
 C305 C 0.79765 0.64878 0.47687
 C306 C 0.79460 0.62470 0.45583
 C307 C 0.76497 0.62763 0.44433
 C308 C 0.74496 0.62762 0.46439
 C309 C 0.77411 0.59766 0.49346
 C310 C 0.79412 0.59768 0.47341
 C311 C 0.73500 0.62466 0.51555
 C312 C 0.71731 0.62467 0.53329
 C313 C 0.81614 0.62473 0.43425
 C314 C 0.83385 0.62477 0.41653
 H315 H 0.77692 0.66444 0.51332
 H316 H 0.81407 0.66446 0.47609
 H317 H 0.76012 0.62955 0.42238
 H318 H 0.72297 0.62952 0.45961
 H319 H 0.77109 0.58007 0.50760
 H320 H 0.80824 0.58010 0.47037
 C321 C 0.74402 0.37514 -0.00642
 C322 C 0.75534 0.38031 -0.03581
 C323 C 0.73530 0.38032 -0.05582
 C324 C 0.70590 0.37515 -0.04449
 C325 C 0.70164 0.39785 -0.02220
 C326 C 0.72168 0.39784 -0.00218
 C327 C 0.72792 0.34727 -0.00835
 C328 C 0.70788 0.34728 -0.02836
 C329 C 0.76559 0.37513 0.01512
 C330 C 0.78333 0.37513 0.03281
 C331 C 0.68434 0.37517 -0.06603
 C332 C 0.66662 0.37519 -0.08375
 H333 H 0.77718 0.38368 -0.04049
 H334 H 0.73997 0.38369 -0.07765
 H335 H 0.68440 0.41262 -0.02214
 H336 H 0.72160 0.41261 0.01502
 H337 H 0.73191 0.32913 0.00484
 H338 H 0.69470 0.32914 -0.03231
 C339 C 0.25560 0.87440 0.50654
 C340 C 0.24407 0.87779 0.53609
 C341 C 0.26410 0.87783 0.55612
 C342 C 0.29369 0.87447 0.54463
 C343 C 0.29696 0.89828 0.52324
 C344 C 0.27693 0.89824 0.50321
 C345 C 0.27290 0.84722 0.50742
 C346 C 0.29293 0.84726 0.52745
 C347 C 0.23405 0.87437 0.48498
 C348 C 0.21635 0.87434 0.46725
 C349 C 0.31525 0.87451 0.56618
 C350 C 0.33298 0.87454 0.58388
 H351 H 0.22211 0.87997 0.54087
 H352 H 0.25930 0.88004 0.57804
 H353 H 0.31353 0.91380 0.52377
 H354 H 0.27635 0.91373 0.48659
 H355 H 0.26970 0.82950 0.49354
 H356 H 0.30688 0.82957 0.53072
   
