data_POSCAR
  _audit_creation_date              2014-09-24
  _audit_creation_method            'ToBaCCo'
  _symmetry_space_group_name_H-M    'P1'
  _symmetry_Int_Tables_number       1
  _symmetry_cell_setting            triclinic
  loop_
  _symmetry_equiv_pos_as_xyz
 x,y,z
_cell_length_a 45.1330
_cell_length_b 45.0084
_cell_length_c 45.1186
_cell_angle_alpha 89.923700
_cell_angle_beta 89.998200
_cell_angle_gamma 90.078000
loop_
  _atom_site_label
  _atom_site_type_symbol
  _atom_site_fract_x
  _atom_site_fract_y
  _atom_site_fract_z
N1 N 0.59010 0.67220 0.61287
 N2 N 0.57844 0.66002 0.63665
 C3 C 0.55453 0.67590 0.64488
 C4 C 0.55092 0.69933 0.62515
 C5 C 0.57405 0.69615 0.60516
 H6 H 0.54082 0.67076 0.66385
 H7 H 0.57900 0.71014 0.58633
 Cu8 Cu 0.59603 0.62465 0.65432
 Cu9 Cu 0.62525 0.65621 0.59358
 Cu10 Cu 0.65658 0.59321 0.62504
 N11 N 0.61361 0.58926 0.67197
 N12 N 0.63736 0.57715 0.66033
 C13 C 0.64515 0.55328 0.67650
 C14 C 0.62518 0.55001 0.69975
 C15 C 0.60546 0.57347 0.69603
 H16 H 0.66403 0.53946 0.67148
 H17 H 0.58660 0.57879 0.70976
 N18 N 0.67275 0.61273 0.58931
 N19 N 0.66084 0.63666 0.57735
 C20 C 0.67686 0.64461 0.55343
 C21 C 0.70006 0.62474 0.55004
 C22 C 0.69665 0.60485 0.57328
 H23 H 0.67195 0.66353 0.53955
 H24 H 0.71055 0.58599 0.57826
 H25 H 0.61935 0.61281 0.60697
 H26 H 0.64321 0.63671 0.63082
 N27 N 0.91046 0.32706 0.11270
 N28 N 0.92209 0.33918 0.13647
 C29 C 0.94610 0.32344 0.14464
 C30 C 0.94978 0.29999 0.12492
 C31 C 0.92657 0.30321 0.10493
 H32 H 0.95979 0.32879 0.16353
 H33 H 0.92155 0.28940 0.08603
 Cu34 Cu 0.90453 0.37448 0.15407
 Cu35 Cu 0.87527 0.34299 0.09344
 Cu36 Cu 0.84397 0.40595 0.12480
 N37 N 0.88696 0.40978 0.17165
 N38 N 0.86324 0.42195 0.15997
 C39 C 0.85554 0.44586 0.17605
 C40 C 0.87552 0.44903 0.19920
 C41 C 0.89520 0.42563 0.19559
 H42 H 0.83673 0.45983 0.17110
 H43 H 0.91414 0.42049 0.20930
 N44 N 0.82774 0.38642 0.08921
 N45 N 0.83964 0.36249 0.07729
 C46 C 0.82362 0.35460 0.05337
 C47 C 0.80043 0.37448 0.04998
 C48 C 0.80385 0.39434 0.07319
 H49 H 0.82856 0.33574 0.03947
 H50 H 0.79000 0.41324 0.07811
 H51 H 0.88124 0.38637 0.10681
 H52 H 0.85731 0.36245 0.13069
 N53 N 0.40978 0.17252 -0.11254
 N54 N 0.42139 0.16036 -0.13624
 C55 C 0.44546 0.17610 -0.14446
 C56 C 0.44908 0.19955 -0.12484
 C57 C 0.42591 0.19645 -0.10487
 H58 H 0.45918 0.17093 -0.16338
 H59 H 0.42102 0.21043 -0.08609
 Cu60 Cu 0.40387 0.12506 -0.15392
 Cu61 Cu 0.37454 0.15662 -0.09335
 Cu62 Cu 0.34310 0.09362 -0.12470
 N63 N 0.38615 0.08977 -0.17141
 N64 N 0.36239 0.07759 -0.15981
 C65 C 0.35464 0.05373 -0.17599
 C66 C 0.37470 0.05060 -0.19908
 C67 C 0.39444 0.07396 -0.19536
 H68 H 0.33578 0.03978 -0.17114
 H69 H 0.41335 0.07920 -0.20911
 N70 N 0.32691 0.11319 -0.08912
 N71 N 0.33887 0.13713 -0.07722
 C72 C 0.32285 0.14509 -0.05335
 C73 C 0.29959 0.12524 -0.04995
 C74 C 0.30296 0.10533 -0.07312
 H75 H 0.32782 0.16399 -0.03950
 H76 H 0.28902 0.08646 -0.07805
 H77 H 0.38034 0.11322 -0.10668
 H78 H 0.35658 0.13709 -0.13061
 N79 N 0.08959 0.82731 0.38720
 N80 N 0.07795 0.83948 0.36345
 C81 C 0.05393 0.82367 0.35526
 C82 C 0.05025 0.80013 0.37497
 C83 C 0.07348 0.80338 0.39496
 H84 H 0.04024 0.82903 0.33638
 H85 H 0.07851 0.78949 0.41384
 Cu86 Cu 0.09556 0.87491 0.34589
 Cu87 Cu 0.12485 0.84339 0.40643
 Cu88 Cu 0.15619 0.90655 0.37513
 N89 N 0.11312 0.91034 0.32835
 N90 N 0.13685 0.92254 0.34000
 C91 C 0.14453 0.94654 0.32397
 C92 C 0.12454 0.94972 0.30085
 C93 C 0.10486 0.92626 0.30443
 H94 H 0.16333 0.96055 0.32891
 H95 H 0.08593 0.92111 0.29073
 N96 N 0.17244 0.88695 0.41069
 N97 N 0.16055 0.86296 0.42261
 C98 C 0.17660 0.85506 0.44651
 C99 C 0.19979 0.87501 0.44990
 C100 C 0.19634 0.89492 0.42669
 H101 H 0.17168 0.83615 0.46041
 H102 H 0.21017 0.91388 0.42176
 H103 H 0.11902 0.88696 0.39305
 H104 H 0.14292 0.86318 0.36918
 C105 C 0.10198 0.12556 0.14749
 C106 C 0.08013 0.14767 0.14734
 C107 C 0.08022 0.16967 0.12536
 C108 C 0.10210 0.16975 0.10335
 C109 C 0.12412 0.14780 0.10317
 C110 C 0.12410 0.12558 0.12533
 C111 C 0.10212 0.10342 0.16939
 C112 C 0.12406 0.08146 0.16931
 C113 C 0.14603 0.08142 0.14740
 C114 C 0.14622 0.10338 0.12533
 C115 C 0.16809 0.10356 0.10326
 C116 C 0.16805 0.12560 0.08132
 C117 C 0.14616 0.14764 0.08126
 H118 H 0.06306 0.14781 0.16427
 H119 H 0.10194 0.18688 0.08642
 H120 H 0.08521 0.10325 0.18648
 H121 H 0.16292 0.06430 0.14757
 H122 H 0.18514 0.08660 0.10311
 H123 H 0.14634 0.16461 0.06416
 C124 C 0.39747 0.87500 0.64750
 C125 C 0.41934 0.85289 0.64736
 C126 C 0.41928 0.83092 0.62539
 C127 C 0.39737 0.83089 0.60339
 C128 C 0.37533 0.85283 0.60320
 C129 C 0.37533 0.87501 0.62534
 C130 C 0.39731 0.89711 0.66939
 C131 C 0.37536 0.91908 0.66931
 C132 C 0.35338 0.91914 0.64738
 C133 C 0.35321 0.89720 0.62532
 C134 C 0.33132 0.89705 0.60325
 C135 C 0.33137 0.87506 0.58132
 C136 C 0.35327 0.85302 0.58128
 H137 H 0.43640 0.85273 0.66429
 H138 H 0.39753 0.81379 0.58647
 H139 H 0.41422 0.89727 0.68647
 H140 H 0.33648 0.93625 0.64753
 H141 H 0.31426 0.91401 0.60309
 H142 H 0.35311 0.83608 0.56421
 C143 C 0.89787 0.62494 0.35243
 C144 C 0.91974 0.64713 0.35254
 C145 C 0.91965 0.66917 0.37444
 C146 C 0.89770 0.66918 0.39642
 C147 C 0.87565 0.64716 0.39663
 C148 C 0.87570 0.62492 0.37455
 C149 C 0.89776 0.60277 0.33060
 C150 C 0.87581 0.58072 0.33070
 C151 C 0.85380 0.58067 0.35259
 C152 C 0.85357 0.60267 0.37459
 C153 C 0.83164 0.60282 0.39662
 C154 C 0.83163 0.62489 0.41849
 C155 C 0.85355 0.64697 0.41851
 H156 H 0.93683 0.64729 0.33564
 H157 H 0.89783 0.68632 0.41329
 H158 H 0.91469 0.60262 0.31354
 H159 H 0.83689 0.56351 0.35245
 H160 H 0.81458 0.58582 0.39680
 H161 H 0.85336 0.66395 0.43555
 C162 C 0.60278 0.37512 -0.14755
 C163 C 0.58087 0.35300 -0.14737
 C164 C 0.58094 0.33098 -0.12540
 C165 C 0.60287 0.33087 -0.10345
 C166 C 0.62495 0.35282 -0.10330
 C167 C 0.62495 0.37507 -0.12544
 C168 C 0.60292 0.39730 -0.16943
 C169 C 0.62490 0.41930 -0.16941
 C170 C 0.64694 0.41929 -0.14752
 C171 C 0.64713 0.39727 -0.12546
 C172 C 0.66906 0.39703 -0.10342
 C173 C 0.66900 0.37494 -0.08151
 C174 C 0.64704 0.35292 -0.08144
 H175 H 0.56376 0.35286 -0.16426
 H176 H 0.60270 0.31372 -0.08653
 H177 H 0.58597 0.39748 -0.18647
 H178 H 0.66388 0.43640 -0.14769
 H179 H 0.68617 0.41398 -0.10327
 H180 H 0.64718 0.33592 -0.06437
 C181 C 0.01628 0.23366 0.12540
 C182 C -0.00556 0.23359 0.10348
 C183 C -0.02749 0.25546 0.10327
 C184 C -0.02801 0.27791 0.12511
 C185 C -0.00576 0.27761 0.14713
 C186 C 0.01614 0.25567 0.14721
 C187 C 0.03885 0.21115 0.12545
 C188 C 0.05772 0.19225 0.12541
 H189 H -0.00565 0.21661 0.08648
 H190 H -0.04391 0.25447 0.08588
 H191 H -0.00499 0.29417 0.16443
 H192 H 0.03299 0.25587 0.16433
 C193 C 0.48326 0.76680 0.62540
 C194 C 0.50513 0.76684 0.60346
 C195 C 0.52709 0.74496 0.60337
 C196 C 0.52753 0.72262 0.62528
 C197 C 0.50535 0.72284 0.64727
 C198 C 0.48341 0.74477 0.64729
 C199 C 0.46068 0.78937 0.62543
 C200 C 0.44181 0.80830 0.62542
 H201 H 0.50521 0.78379 0.58637
 H202 H 0.54362 0.74570 0.58605
 H203 H 0.50478 0.70615 0.66450
 H204 H 0.46654 0.74453 0.66437
 C205 C 0.98368 0.73350 0.37445
 C206 C 0.98384 0.75562 0.35267
 C207 C 1.00575 0.77764 0.35277
 C208 C 1.02803 0.77795 0.37477
 C209 C 1.02750 0.75540 0.39658
 C210 C 1.00555 0.73346 0.39637
 C211 C 0.96109 0.71086 0.37436
 C212 C 0.94220 0.69187 0.37438
 H213 H 0.96701 0.75586 0.33555
 H214 H 1.00497 0.79427 0.33549
 H215 H 1.04392 0.75442 0.41398
 H216 H 1.00567 0.71642 0.41335
 C217 C 0.51690 0.26690 -0.12527
 C218 C 0.49501 0.26699 -0.10336
 C219 C 0.47301 0.24513 -0.10321
 C220 C 0.47255 0.22277 -0.12504
 C221 C 0.49476 0.22293 -0.14699
 C222 C 0.51675 0.24485 -0.14707
 C223 C 0.53950 0.28944 -0.12536
 C224 C 0.55840 0.30837 -0.12539
 H225 H 0.49495 0.28397 -0.08635
 H226 H 0.45644 0.24591 -0.08593
 H227 H 0.49529 0.20623 -0.16418
 H228 H 0.53364 0.24460 -0.16414
 C229 C 0.12413 0.01731 0.23326
 C230 C 0.10230 -0.00476 0.23339
 C231 C 0.10237 -0.02674 0.25531
 C232 C 0.12435 -0.02695 0.27749
 C233 C 0.14622 -0.00457 0.27706
 C234 C 0.14607 0.01736 0.25511
 C235 C 0.12405 0.03989 0.21071
 C236 C 0.12404 0.05884 0.19183
 H237 H 0.08522 -0.00499 0.21651
 H238 H 0.08518 -0.04347 0.25474
 H239 H 0.16354 -0.00383 0.29359
 H240 H 0.16311 0.03435 0.25518
 C241 C 0.62482 0.48351 -0.23354
 C242 C 0.60301 0.50553 -0.23372
 C243 C 0.60306 0.52750 -0.25569
 C244 C 0.62503 0.52786 -0.27799
 C245 C 0.64686 0.50540 -0.27744
 C246 C 0.64670 0.48350 -0.25544
 C247 C 0.62479 0.46092 -0.21090
 C248 C 0.62484 0.44197 -0.19197
 H249 H 0.58590 0.50572 -0.21687
 H250 H 0.58576 0.54407 -0.25493
 H251 H 0.66424 0.50444 -0.29388
 H252 H 0.66369 0.46651 -0.25556
 C253 C 0.37526 0.98316 0.73327
 C254 C 0.35325 0.98310 0.75507
 C255 C 0.35307 1.00498 0.77702
 C256 C 0.37495 1.02734 0.77752
 C257 C 0.39701 1.02714 0.75541
 C258 C 0.39712 1.00520 0.73347
 C259 C 0.37536 0.96060 0.71071
 C260 C 0.37538 0.94167 0.69184
 H261 H 0.33621 0.96612 0.75513
 H262 H 0.33571 1.00423 0.79351
 H263 H 0.41423 1.04384 0.75489
 H264 H 0.41428 1.00543 0.71667
 C265 C 0.87585 0.51646 0.26686
 C266 C 0.89769 0.49445 0.26674
 C267 C 0.89765 0.47252 0.24479
 C268 C 0.87570 0.47230 0.22259
 C269 C 0.85382 0.49460 0.22301
 C270 C 0.85393 0.51647 0.24498
 C271 C 0.87590 0.53907 0.28940
 C272 C 0.87588 0.55805 0.30823
 H273 H 0.91476 0.49424 0.28363
 H274 H 0.91486 0.45584 0.24537
 H275 H 0.83652 0.49533 0.20647
 H276 H 0.83688 0.53341 0.24487
 C277 C 0.23203 0.12548 0.01741
 C278 C 0.23205 0.10349 -0.00444
 C279 C 0.25397 0.10338 -0.02633
 C280 C 0.27626 0.12532 -0.02668
 C281 C 0.27597 0.14734 -0.00451
 C282 C 0.25402 0.14738 0.01735
 C283 C 0.20947 0.12555 0.03992
 C284 C 0.19057 0.12560 0.05878
 H285 H 0.21511 0.08640 -0.00457
 H286 H 0.25329 0.08604 -0.04287
 H287 H 0.29262 0.16461 -0.00387
 H288 H 0.25421 0.16451 0.03420
 C289 C 0.76755 0.62481 0.48246
 C290 C 0.74564 0.64675 0.48252
 C291 C 0.72373 0.64677 0.50444
 C292 C 0.72339 0.62478 0.52671
 C293 C 0.74560 0.60280 0.52637
 C294 C 0.76747 0.60285 0.50441
 C295 C 0.79012 0.62485 0.45990
 C296 C 0.80903 0.62487 0.44102
 H297 H 0.74548 0.66387 0.46561
 H298 H 0.70716 0.66407 0.50379
 H299 H 0.74624 0.58549 0.54298
 H300 H 0.78434 0.58574 0.50458
 C301 C 0.73296 0.37462 -0.01752
 C302 C 0.75484 0.35264 -0.01747
 C303 C 0.77676 0.35256 0.00442
 C304 C 0.77713 0.37451 0.02666
 C305 C 0.75494 0.39650 0.02634
 C306 C 0.73305 0.39652 0.00442
 C307 C 0.71045 0.37472 -0.04009
 C308 C 0.69157 0.37483 -0.05899
 H309 H 0.75496 0.33556 -0.03437
 H310 H 0.79332 0.33525 0.00377
 H311 H 0.75432 0.41378 0.04294
 H312 H 0.71620 0.41364 0.00459
 C313 C 0.26735 0.87512 0.51734
 C314 C 0.24546 0.85310 0.51729
 C315 C 0.22351 0.85305 0.49543
 C316 C 0.22311 0.87507 0.47321
 C317 C 0.24531 0.89713 0.47353
 C318 C 0.26722 0.89712 0.49543
 C319 C 0.28993 0.87511 0.53987
 C320 C 0.30883 0.87509 0.55875
 H321 H 0.24535 0.83596 0.53417
 H322 H 0.20696 0.83569 0.49608
 H323 H 0.24591 0.91447 0.45695
 H324 H 0.28408 0.91428 0.49527
   
