data_POSCAR
  _audit_creation_date              2014-09-24
  _audit_creation_method            'ToBaCCo'
  _symmetry_space_group_name_H-M    'P1'
  _symmetry_Int_Tables_number       1
  _symmetry_cell_setting            triclinic
  loop_
  _symmetry_equiv_pos_as_xyz
 x,y,z
_cell_length_a 30.9256
_cell_length_b 30.9074
_cell_length_c 22.0402
_cell_angle_alpha 89.937600
_cell_angle_beta 90.027400
_cell_angle_gamma 91.495700
loop_
  _atom_site_label
  _atom_site_type_symbol
  _atom_site_fract_x
  _atom_site_fract_y
  _atom_site_fract_z
C1 C -0.04446 0.27714 0.02927
 C2 C -0.04262 0.27447 -0.03627
 C3 C -0.00140 0.26951 -0.06295
 C4 C 0.03831 0.27461 -0.03173
 C5 C 0.03599 0.27770 0.03352
 C6 C -0.00475 0.28489 0.05960
 H7 H -0.00561 0.29403 0.10697
 H8 H -0.00013 0.26085 -0.11048
 C9 C 0.46044 0.77911 0.53139
 C10 C 0.46176 0.77631 0.46623
 C11 C 0.50267 0.77365 0.43856
 C12 C 0.54228 0.77888 0.46975
 C13 C 0.54059 0.78124 0.53491
 C14 C 0.49994 0.78718 0.56173
 H15 H 0.49900 0.79571 0.60927
 H16 H 0.50382 0.76629 0.39068
 C17 C 1.04040 0.72682 0.03316
 C18 C 1.04047 0.72163 -0.03191
 C19 C 1.00034 0.72406 -0.06216
 C20 C 0.96006 0.72935 -0.03320
 C21 C 0.95937 0.72309 0.03177
 C22 C 0.99966 0.72283 0.06202
 H23 H 0.99932 0.72077 0.11070
 H24 H 1.00065 0.72282 -0.11091
 C25 C 0.53768 0.22255 0.52918
 C26 C 0.53515 0.22031 0.46399
 C27 C 0.49395 0.21376 0.43803
 C28 C 0.45500 0.22081 0.46927
 C29 C 0.45712 0.22329 0.53443
 C30 C 0.49851 0.22675 0.56124
 H31 H 0.50043 0.23397 0.60913
 H32 H 0.49216 0.20531 0.39049
 C33 C 0.72568 -0.03792 0.03403
 C34 C 0.72034 -0.03984 -0.03105
 C35 C 0.72123 -0.00011 -0.06281
 C36 C 0.72475 0.04098 -0.03516
 C37 C 0.71841 0.04251 0.02947
 C38 C 0.71990 0.00292 0.06140
 H39 H 0.71792 0.00412 0.11013
 H40 H 0.72046 -0.00119 -0.11159
 C41 C 0.22445 0.45658 0.53526
 C42 C 0.21829 0.45509 0.47054
 C43 C 0.21931 0.49500 0.43923
 C44 C 0.22405 0.53585 0.46739
 C45 C 0.21929 0.53705 0.53236
 C46 C 0.22058 0.49722 0.56355
 H47 H 0.21992 0.49793 0.61233
 H48 H 0.21768 0.49422 0.39049
 C49 C 0.27593 1.03853 0.03565
 C50 C 0.28192 1.04004 -0.02966
 C51 C 0.28102 0.99985 -0.06047
 C52 C 0.27669 0.95911 -0.03193
 C53 C 0.28263 0.95812 0.03278
 C54 C 0.28158 0.99795 0.06382
 H55 H 0.28324 0.99721 0.11262
 H56 H 0.28216 1.00016 -0.10927
 C57 C 0.78485 0.54294 0.53178
 C58 C 0.78922 0.54462 0.46666
 C59 C 0.78821 0.50482 0.43539
 C60 C 0.78351 0.46402 0.46364
 C61 C 0.78965 0.46254 0.52850
 C62 C 0.78998 0.50235 0.55981
 H63 H 0.79210 0.50165 0.60854
 H64 H 0.78904 0.50562 0.38658
 O65 O 0.21200 0.27301 0.17893
 O66 O 0.31022 0.25526 0.26754
 O67 O 0.27106 0.21480 0.17834
 O68 O 0.24960 0.31134 0.27065
 O69 O 0.21233 0.27073 0.33561
 O70 O 0.23297 0.17459 0.24279
 O71 O 0.27274 0.21500 0.33266
 O72 O 0.17356 0.23345 0.24383
 Cu73 Cu 0.26449 0.26755 0.21733
 Cu74 Cu 0.21910 0.21914 0.29497
 C75 C 0.17607 0.25644 0.19601
 C76 C 0.30822 0.23293 0.31582
 C77 C 0.25512 0.17824 0.19446
 C78 C 0.22799 0.30732 0.31950
 O79 O 0.76559 0.82498 0.24051
 O80 O 0.78622 0.72872 0.33218
 O81 O 0.82063 0.76296 0.23558
 O82 O 0.72609 0.78542 0.33150
 O83 O 0.68485 0.74656 0.26929
 O84 O 0.77863 0.72408 0.17427
 O85 O 0.74543 0.68880 0.27067
 O86 O 0.72473 0.78587 0.17808
 Cu87 Cu 0.77861 0.77963 0.29102
 Cu88 Cu 0.72890 0.73252 0.21730
 C89 C 0.74275 0.82183 0.19284
 C90 C 0.76955 0.69235 0.31733
 C91 C 0.81550 0.73994 0.18814
 C92 C 0.68937 0.76896 0.31714
 O93 O 0.81200 0.24432 0.23170
 O94 O 0.71264 0.22605 0.32048
 O95 O 0.74933 0.18745 0.22950
 O96 O 0.77428 0.28494 0.32047
 O97 O 0.73775 0.32405 0.25525
 O98 O 0.71377 0.22698 0.16359
 O99 O 0.67590 0.26448 0.25463
 O100 O 0.77614 0.28360 0.16587
 Cu101 Cu 0.76563 0.23187 0.28220
 Cu102 Cu 0.72226 0.27898 0.20357
 C103 C 0.81090 0.26610 0.18289
 C104 C 0.67735 0.24200 0.30294
 C105 C 0.72825 0.19081 0.18025
 C106 C 0.75966 0.32110 0.30377
 O107 O 0.25997 0.67695 0.25754
 O108 O 0.28337 0.77447 0.16787
 O109 O 0.31922 0.73810 0.26125
 O110 O 0.21968 0.71916 0.17027
 O111 O 0.18312 0.75683 0.23699
 O112 O 0.28143 0.77664 0.32557
 O113 O 0.24639 0.81344 0.23269
 O114 O 0.22375 0.71524 0.32395
 Cu115 Cu 0.27407 0.72303 0.20786
 Cu116 Cu 0.22974 0.76919 0.28617
 C117 C 0.23935 0.67951 0.30704
 C118 C 0.26847 0.81043 0.18423
 C119 C 0.31692 0.76061 0.30946
 C120 C 0.18465 0.73614 0.18747
 O121 O 0.76257 0.18019 0.75278
 O122 O 0.78548 0.27757 0.66162
 O123 O 0.82089 0.24134 0.75559
 O124 O 0.72353 0.21911 0.66231
 O125 O 0.68481 0.25713 0.72609
 O126 O 0.78150 0.27969 0.81826
 O127 O 0.74705 0.31635 0.72485
 O128 O 0.72414 0.21844 0.81670
 Cu129 Cu 0.77678 0.22566 0.70155
 Cu130 Cu 0.73013 0.27170 0.77739
 C131 C 0.74091 0.18292 0.80145
 C132 C 0.77027 0.31357 0.67746
 C133 C 0.81739 0.26371 0.80367
 C134 C 0.68764 0.23496 0.67791
 O135 O 0.31763 0.74090 0.73632
 O136 O 0.22103 0.71704 0.82657
 O137 O 0.25616 0.68199 0.73210
 O138 O 0.27684 0.77999 0.82449
 O139 O 0.23879 0.81777 0.75938
 O140 O 0.21777 0.72048 0.66823
 O141 O 0.18179 0.75489 0.76292
 O142 O 0.27938 0.77833 0.67106
 Cu143 Cu 0.27201 0.72627 0.78604
 Cu144 Cu 0.22566 0.77180 0.70904
 C145 C 0.31510 0.76261 0.68770
 C146 C 0.18514 0.73253 0.81115
 C147 C 0.23367 0.68478 0.68393
 C148 C 0.26019 0.81542 0.80830
 O149 O 0.28287 0.22220 0.83761
 O150 O 0.26226 0.31855 0.74597
 O151 O 0.22245 0.27915 0.83693
 O152 O 0.31908 0.25871 0.74308
 O153 O 0.27832 0.21920 0.68099
 O154 O 0.18239 0.23985 0.77383
 O155 O 0.22243 0.27908 0.68269
 O156 O 0.24313 0.18219 0.77493
 Cu157 Cu 0.27549 0.27366 0.79731
 Cu158 Cu 0.22722 0.22616 0.72222
 C159 C 0.26661 0.18577 0.82215
 C160 C 0.24011 0.31511 0.69768
 C161 C 0.18598 0.26244 0.82172
 C162 C 0.31483 0.23591 0.69529
 O163 O 0.71898 0.77886 0.67586
 O164 O 0.81800 0.76393 0.76465
 O165 O 0.77933 0.72175 0.67585
 O166 O 0.75542 0.81795 0.76788
 O167 O 0.71913 0.77646 0.83285
 O168 O 0.74235 0.68092 0.74076
 O169 O 0.78136 0.72307 0.82997
 O170 O 0.68163 0.73854 0.74106
 Cu171 Cu 0.77164 0.77460 0.71448
 Cu172 Cu 0.72750 0.72531 0.79234
 C173 C 0.68342 0.76159 0.69324
 C174 C 0.81644 0.74187 0.81322
 C175 C 0.76424 0.68491 0.69228
 C176 C 0.73383 0.81339 0.81669
 C177 C 0.26838 0.07503 0.07715
 C178 C 0.24258 0.06362 0.13598
 C179 C 0.23912 0.09707 0.17591
 C180 C 0.26052 0.13970 0.15352
 C181 C 0.30739 0.12850 0.14022
 C182 C 0.31148 0.09477 0.10119
 C183 C 0.24195 0.11294 0.05323
 C184 C 0.24005 0.14714 0.09138
 H185 H 0.22513 0.03315 0.14357
 H186 H 0.22038 0.09398 0.21738
 H187 H 0.33509 0.14495 0.16095
 H188 H 0.34292 0.08261 0.08889
 H189 H 0.22004 0.11123 0.01552
 H190 H 0.22196 0.17535 0.08013
 C191 C 0.77748 0.58142 0.57566
 C192 C 0.82071 0.60225 0.59722
 C193 C 0.81678 0.63615 0.63610
 C194 C 0.76992 0.64633 0.65145
 C195 C 0.74786 0.65285 0.59016
 C196 C 0.74993 0.61855 0.55220
 C197 C 0.75352 0.56974 0.63567
 C198 C 0.75011 0.60335 0.67527
 H199 H 0.85205 0.59072 0.58335
 H200 H 0.84457 0.65344 0.65523
 H201 H 0.72910 0.68068 0.57925
 H202 H 0.72818 0.61630 0.51432
 H203 H 0.73707 0.53892 0.64443
 H204 H 0.73249 0.60004 0.71766
 C205 C 0.73240 0.92543 0.07545
 C206 C 0.75612 0.93672 0.13601
 C207 C 0.75871 0.90305 0.17577
 C208 C 0.73882 0.86034 0.15143
 C209 C 0.69227 0.87093 0.13497
 C210 C 0.68893 0.90495 0.09633
 C211 C 0.76017 0.88809 0.05251
 C212 C 0.76213 0.85371 0.09093
 H213 H 0.77328 0.96714 0.14489
 H214 H 0.77626 0.90601 0.21828
 H215 H 0.66412 0.85394 0.15365
 H216 H 0.65773 0.91682 0.08225
 H217 H 0.78312 0.89105 0.01597
 H218 H 0.78396 0.82734 0.08295
 C219 C 0.23114 0.41777 0.57885
 C220 C 0.18742 0.39886 0.60130
 C221 C 0.19028 0.36513 0.64052
 C222 C 0.23671 0.35327 0.65571
 C223 C 0.25870 0.34528 0.59454
 C224 C 0.25701 0.37926 0.55543
 C225 C 0.25610 0.42891 0.63829
 C226 C 0.25833 0.39557 0.67857
 H227 H 0.15646 0.41159 0.58777
 H228 H 0.16195 0.34916 0.66032
 H229 H 0.27914 0.31788 0.58605
 H230 H 0.27866 0.38081 0.51727
 H231 H 0.27422 0.45895 0.64598
 H232 H 0.27667 0.39841 0.72044
 C233 C 0.91705 0.27246 0.06869
 C234 C 0.92561 0.25028 0.13083
 C235 C 0.89122 0.24916 0.16947
 C236 C 0.85027 0.26888 0.14264
 C237 C 0.86415 0.31486 0.12409
 C238 C 0.89902 0.31675 0.08650
 C239 C 0.87817 0.24462 0.04592
 C240 C 0.84311 0.24412 0.08316
 H241 H 0.95473 0.23318 0.14169
 H242 H 0.89243 0.23280 0.21302
 H243 H 0.84871 0.34368 0.14069
 H244 H 0.91319 0.34741 0.07134
 H245 H 0.88007 0.22031 0.01130
 H246 H 0.81554 0.22231 0.07545
 C247 C 0.42032 0.77301 0.57320
 C248 C 0.43017 0.75183 0.63540
 C249 C 0.39594 0.74938 0.67413
 C250 C 0.35403 0.76708 0.64721
 C251 C 0.36581 0.81348 0.62810
 C252 C 0.40052 0.81659 0.59032
 C253 C 0.38263 0.74364 0.55062
 C254 C 0.34774 0.74172 0.58807
 H255 H 0.46025 0.73648 0.64648
 H256 H 0.39809 0.73363 0.71803
 H257 H 0.34914 0.84167 0.64439
 H258 H 0.41344 0.84762 0.57460
 H259 H 0.38548 0.71974 0.51561
 H260 H 0.32095 0.71892 0.58052
 C261 C 0.07845 0.73144 0.07323
 C262 C 0.09518 0.68689 0.09245
 C263 C 0.13015 0.68827 0.12985
 C264 C 0.14535 0.73407 0.14695
 C265 C 0.15307 0.75790 0.08672
 C266 C 0.11793 0.75789 0.04950
 C267 C 0.07056 0.75484 0.13463
 C268 C 0.10501 0.75540 0.17320
 H269 H 0.08016 0.65642 0.07812
 H270 H 0.14483 0.65923 0.14718
 H271 H 0.18134 0.77861 0.07817
 H272 H 0.11658 0.78129 0.01341
 H273 H 0.04220 0.77348 0.14485
 H274 H 0.10445 0.77271 0.21600
 C275 C 0.57924 0.22304 0.56877
 C276 C 0.59377 0.26964 0.58454
 C277 C 0.62989 0.27299 0.61925
 C278 C 0.64823 0.22944 0.63801
 C279 C 0.61015 0.20471 0.66799
 C280 C 0.57435 0.20085 0.63176
 C281 C 0.61937 0.20070 0.54337
 C282 C 0.65549 0.20503 0.57839
 H283 H 0.57620 0.29794 0.57053
 H284 H 0.64324 0.30405 0.63406
 H285 H 0.61194 0.18954 0.71233
 H286 H 0.54623 0.18152 0.64551
 H287 H 0.61818 0.17682 0.50792
 H288 H 0.68446 0.18724 0.56857
 C289 C 0.73142 0.07996 0.92083
 C290 C 0.68776 0.09679 0.89836
 C291 C 0.69075 0.13062 0.85901
 C292 C 0.73724 0.14463 0.84364
 C293 C 0.75937 0.15372 0.90476
 C294 C 0.75754 0.11973 0.94403
 C295 C 0.75619 0.06986 0.86136
 C296 C 0.75856 0.10325 0.82094
 H297 H 0.65676 0.08263 0.91200
 H298 H 0.66249 0.14525 0.83923
 H299 H 0.77982 0.18219 0.91327
 H300 H 0.77899 0.11936 0.98247
 H301 H 0.77417 0.04068 0.85373
 H302 H 0.77684 0.10118 0.77906
 C303 C 0.23043 0.57512 0.42387
 C304 C 0.18665 0.59312 0.40393
 C305 C 0.18941 0.62747 0.36545
 C306 C 0.23575 0.64071 0.34826
 C307 C 0.25954 0.64852 0.40846
 C308 C 0.25795 0.61402 0.44681
 C309 C 0.25349 0.56527 0.36298
 C310 C 0.25561 0.59917 0.32339
 H311 H 0.15572 0.57929 0.41847
 H312 H 0.16102 0.64290 0.34736
 H313 H 0.28094 0.67634 0.41659
 H314 H 0.28057 0.61254 0.48381
 H315 H 0.27064 0.53581 0.35368
 H316 H 0.27278 0.59728 0.28058
 C317 C 0.26982 0.91973 0.92490
 C318 C 0.31343 0.90201 0.90390
 C319 C 0.31037 0.86770 0.86551
 C320 C 0.26389 0.85416 0.84947
 C321 C 0.24095 0.84615 0.91025
 C322 C 0.24282 0.88063 0.94853
 C323 C 0.24586 0.92945 0.86457
 C324 C 0.24343 0.89557 0.82507
 H325 H 0.34448 0.91598 0.91768
 H326 H 0.33862 0.85246 0.84674
 H327 H 0.21974 0.81824 0.91884
 H328 H 0.22055 0.88197 0.98591
 H329 H 0.22837 0.95879 0.85571
 H330 H 0.22564 0.89736 0.78272
 C331 C 0.77510 0.42520 0.42001
 C332 C 0.74998 0.43567 0.36092
 C333 C 0.74579 0.40191 0.32138
 C334 C 0.76603 0.35996 0.34439
 C335 C 0.81317 0.37252 0.35805
 C336 C 0.81787 0.40658 0.39685
 C337 C 0.74796 0.38664 0.44438
 C338 C 0.74517 0.35224 0.40647
 H339 H 0.73330 0.46560 0.35289
 H340 H 0.72728 0.40429 0.27971
 H341 H 0.84057 0.35666 0.33789
 H342 H 0.84949 0.41969 0.40963
 H343 H 0.72693 0.38771 0.48302
 H344 H 0.72690 0.32329 0.41823
 C345 C 0.07773 0.27404 0.93068
 C346 C 0.11884 0.29720 0.95553
 C347 C 0.15485 0.29280 0.92075
 C348 C 0.14666 0.26776 0.86155
 C349 C 0.12643 0.22420 0.88101
 C350 C 0.09037 0.22743 0.91552
 C351 C 0.07395 0.29576 0.86719
 C352 C 0.10961 0.29186 0.83110
 H353 H 0.11856 0.32199 0.98973
 H354 H 0.18443 0.31128 0.93005
 H355 H 0.13851 0.19315 0.86673
 H356 H 0.07165 0.19900 0.92981
 H357 H 0.04680 0.31491 0.85300
 H358 H 0.11212 0.30676 0.78657
 C359 C 0.58326 0.77919 0.42925
 C360 C 0.62459 0.80207 0.45368
 C361 C 0.66002 0.79834 0.41764
 C362 C 0.65091 0.77395 0.35816
 C363 C 0.63123 0.73007 0.37726
 C364 C 0.59576 0.73282 0.41292
 C365 C 0.57825 0.80148 0.36653
 C366 C 0.61335 0.79821 0.32931
 H367 H 0.62485 0.82571 0.48946
 H368 H 0.68985 0.81645 0.42678
 H369 H 0.64325 0.69922 0.36206
 H370 H 0.57738 0.70422 0.42740
 H371 H 0.55063 0.82041 0.35366
 H372 H 0.61506 0.81349 0.28498
 C373 C 0.92250 0.73525 0.92670
 C374 C 0.90246 0.69116 0.90761
 C375 C 0.86768 0.69336 0.87025
 C376 C 0.85583 0.73948 0.85315
 C377 C 0.84993 0.76340 0.91336
 C378 C 0.88510 0.76260 0.95045
 C379 C 0.93208 0.75851 0.86518
 C380 C 0.89760 0.75993 0.82668
 H381 H 0.91518 0.66035 0.92195
 H382 H 0.85091 0.66466 0.85292
 H383 H 0.82331 0.78483 0.92182
 H384 H 0.88833 0.78610 0.98627
 H385 H 0.96181 0.77647 0.85488
 H386 H 0.89928 0.77721 0.78382
 C387 C 0.41453 0.22586 0.42830
 C388 C 0.42417 0.24748 0.36596
 C389 C 0.38956 0.24895 0.32789
 C390 C 0.34757 0.22986 0.35554
 C391 C 0.35863 0.18378 0.37427
 C392 C 0.39363 0.18169 0.41143
 C393 C 0.37766 0.25400 0.45172
 C394 C 0.34241 0.25490 0.41491
 H395 H 0.45453 0.26368 0.35433
 H396 H 0.39155 0.26480 0.28398
 H397 H 0.34120 0.15507 0.35823
 H398 H 0.40601 0.15103 0.42691
 H399 H 0.38130 0.27779 0.48696
 H400 H 0.31612 0.27678 0.42311
 C401 C 0.72029 0.91925 0.92819
 C402 C 0.76687 0.90945 0.90922
 C403 C 0.77080 0.87413 0.87366
 C404 C 0.72770 0.85187 0.85714
 C405 C 0.70542 0.84165 0.91806
 C406 C 0.70044 0.87690 0.95403
 C407 C 0.69584 0.92251 0.86670
 C408 C 0.70039 0.88762 0.82939
 H409 H 0.79478 0.92933 0.92246
 H410 H 0.80195 0.86374 0.85715
 H411 H 0.68964 0.81078 0.92866
 H412 H 0.67829 0.87532 0.99172
 H413 H 0.67368 0.94796 0.85544
 H414 H 0.68342 0.88440 0.78644
 C415 C 0.21729 0.41414 0.43004
 C416 C 0.19305 0.41774 0.36846
 C417 C 0.19665 0.38249 0.33160
 C418 C 0.22289 0.34611 0.35981
 C419 C 0.26656 0.36729 0.37625
 C420 C 0.26357 0.40294 0.41145
 C421 C 0.19632 0.37249 0.45641
 C422 C 0.20030 0.33685 0.42080
 H423 H 0.17151 0.44364 0.35687
 H424 H 0.17958 0.37946 0.28870
 H425 H 0.29741 0.35584 0.36017
 H426 H 0.29199 0.42197 0.42493
 H427 H 0.17456 0.37179 0.49461
 H428 H 0.18392 0.30637 0.43187
 C429 C 0.28166 0.07868 0.93143
 C430 C 0.23491 0.08830 0.91279
 C431 C 0.23052 0.12406 0.87822
 C432 C 0.27334 0.14675 0.86157
 C433 C 0.29621 0.15644 0.92221
 C434 C 0.30191 0.12083 0.95731
 C435 C 0.30576 0.07616 0.86944
 C436 C 0.30063 0.11142 0.83273
 H437 H 0.20715 0.06808 0.92574
 H438 H 0.19921 0.13428 0.86213
 H439 H 0.31201 0.18724 0.93302
 H440 H 0.32456 0.12203 0.99454
 H441 H 0.32822 0.05115 0.85750
 H442 H 0.31734 0.11526 0.78967
 C443 C 0.78758 0.58542 0.42592
 C444 C 0.74034 0.59453 0.40936
 C445 C 0.73484 0.63019 0.37483
 C446 C 0.77710 0.65335 0.35658
 C447 C 0.80092 0.66324 0.41653
 C448 C 0.80748 0.62773 0.45147
 C449 C 0.81034 0.58306 0.36313
 C450 C 0.80422 0.61829 0.32674
 H451 H 0.71314 0.57404 0.42367
 H452 H 0.70311 0.64011 0.36001
 H453 H 0.81612 0.69435 0.42728
 H454 H 0.83004 0.62918 0.48881
 H455 H 0.83247 0.55803 0.35018
 H456 H 0.81989 0.62218 0.28293
 C457 C 0.08040 0.72059 0.92576
 C458 C 0.12139 0.69908 0.94960
 C459 C 0.15631 0.70347 0.91248
 C460 C 0.14687 0.72688 0.85244
 C461 C 0.10852 0.70103 0.82536
 C462 C 0.07402 0.69701 0.86387
 C463 C 0.09369 0.76708 0.90747
 C464 C 0.12857 0.77040 0.87068
 H465 H 0.12172 0.67626 0.98656
 H466 H 0.18591 0.68646 0.92152
 H467 H 0.10967 0.68439 0.78206
 H468 H 0.04678 0.67550 0.85325
 H469 H 0.07647 0.79541 0.92216
 H470 H 0.14122 0.80143 0.85449
 C471 C 0.57298 0.22719 0.41853
 C472 C 0.60916 0.25853 0.43966
 C473 C 0.64325 0.26211 0.40136
 C474 C 0.63798 0.23620 0.34269
 C475 C 0.62863 0.18935 0.36251
 C476 C 0.59450 0.18464 0.40109
 C477 C 0.56108 0.24724 0.35602
 C478 C 0.59493 0.25144 0.31636
 H479 H 0.60495 0.28279 0.47401
 H480 H 0.66755 0.28731 0.40716
 H481 H 0.64612 0.16191 0.34543
 H482 H 0.58286 0.15308 0.41657
 H483 H 0.52987 0.26026 0.34504
 H484 H 0.59164 0.26639 0.27207
 C485 C 0.92067 0.27447 0.92158
 C486 C 0.90528 0.22800 0.90649
 C487 C 0.87093 0.22513 0.86847
 C488 C 0.85537 0.26885 0.84586
 C489 C 0.84622 0.29527 0.90327
 C490 C 0.88057 0.29937 0.94138
 C491 C 0.92958 0.29500 0.85799
 C492 C 0.89561 0.29139 0.81837
 H493 H 0.92072 0.19937 0.92396
 H494 H 0.85703 0.19420 0.85397
 H495 H 0.81770 0.31455 0.90928
 H496 H 0.88097 0.32409 0.97583
 H497 H 0.95871 0.31349 0.84628
 H498 H 0.89644 0.30570 0.77337
 C499 C 0.42252 0.77457 0.42278
 C500 C 0.42977 0.79451 0.35864
 C501 C 0.39505 0.78978 0.32046
 C502 C 0.35587 0.76654 0.34986
 C503 C 0.37298 0.72344 0.37253
 C504 C 0.40805 0.72760 0.40921
 C505 C 0.38225 0.79836 0.44403
 C506 C 0.34729 0.79319 0.40733
 H507 H 0.45835 0.81334 0.34545
 H508 H 0.39471 0.80351 0.27511
 H509 H 0.35960 0.69207 0.35903
 H510 H 0.42470 0.69966 0.42657
 H511 H 0.38268 0.82285 0.47880
 H512 H 0.31831 0.81155 0.41462
 C513 C 0.28258 0.91742 0.07368
 C514 C 0.30631 0.92193 0.13570
 C515 C 0.30158 0.88664 0.17275
 C516 C 0.27482 0.84943 0.14422
 C517 C 0.23176 0.86919 0.12686
 C518 C 0.23586 0.90485 0.09150
 C519 C 0.30298 0.87643 0.04803
 C520 C 0.29786 0.84076 0.08373
 H521 H 0.32835 0.94851 0.14746
 H522 H 0.31818 0.88418 0.21598
 H523 H 0.20050 0.85687 0.14253
 H524 H 0.20797 0.92304 0.07747
 H525 H 0.32548 0.87642 0.01071
 H526 H 0.31396 0.81088 0.07333
 C527 C 0.78828 0.42162 0.56921
 C528 C 0.74120 0.41057 0.58703
 C529 C 0.73578 0.37456 0.62139
 C530 C 0.77802 0.35299 0.63832
 C531 C 0.80086 0.34426 0.57770
 C532 C 0.80734 0.38018 0.54285
 C533 C 0.81197 0.42471 0.63139
 C534 C 0.80599 0.38907 0.66768
 H535 H 0.71404 0.43004 0.57368
 H536 H 0.70414 0.36335 0.63703
 H537 H 0.81554 0.31380 0.56637
 H538 H 0.82932 0.37979 0.50485
 H539 H 0.83462 0.45058 0.64391
 H540 H 0.82226 0.38565 0.71101
 C541 C 0.71724 0.08359 0.06956
 C542 C 0.76348 0.09689 0.08877
 C543 C 0.76648 0.13262 0.12406
 C544 C 0.72286 0.15186 0.13987
 C545 C 0.70077 0.16015 0.07854
 C546 C 0.69678 0.12432 0.04284
 C547 C 0.69251 0.07894 0.13077
 C548 C 0.69613 0.11433 0.16768
 H549 H 0.79188 0.07922 0.07558
 H550 H 0.79733 0.14548 0.14051
 H551 H 0.68465 0.18989 0.06731
 H552 H 0.67522 0.12406 0.00441
 H553 H 0.67069 0.05205 0.14200
 H554 H 0.67877 0.11661 0.21032
 C555 C 0.21966 0.57784 0.57315
 C556 C 0.26645 0.59065 0.59044
 C557 C 0.27060 0.62627 0.62586
 C558 C 0.22755 0.64579 0.64375
 C559 C 0.20410 0.65444 0.58350
 C560 C 0.19894 0.61881 0.54778
 C561 C 0.19636 0.57314 0.63545
 C562 C 0.20116 0.60838 0.67248
 H563 H 0.29433 0.57264 0.57604
 H564 H 0.30189 0.63873 0.64121
 H565 H 0.18782 0.68427 0.57326
 H566 H 0.17621 0.61882 0.51073
 H567 H 0.17457 0.54641 0.64748
 H568 H 0.18485 0.61063 0.71593
 C569 C 0.91930 0.72381 0.07401
 C570 C 0.92324 0.70021 0.13614
 C571 C 0.88904 0.70577 0.17432
 C572 C 0.85322 0.73302 0.14676
 C573 C 0.87555 0.77567 0.12827
 C574 C 0.91025 0.77081 0.09184
 C575 C 0.87647 0.70389 0.05008
 C576 C 0.84185 0.70984 0.08687
 H577 H 0.94815 0.67739 0.14707
 H578 H 0.88611 0.68919 0.21764
 H579 H 0.86570 0.80719 0.14407
 H580 H 0.93014 0.79833 0.07708
 H581 H 0.87414 0.68112 0.01317
 H582 H 0.81071 0.69420 0.07766
 C583 C 0.41833 0.22406 0.57874
 C584 C 0.42580 0.20418 0.64263
 C585 C 0.39175 0.20812 0.68171
 C586 C 0.35285 0.23059 0.65346
 C587 C 0.37104 0.27408 0.63036
 C588 C 0.40548 0.27071 0.59278
 C589 C 0.37692 0.19947 0.55849
 C590 C 0.34260 0.20385 0.59618
 H591 H 0.45395 0.18588 0.65503
 H592 H 0.39160 0.19427 0.72699
 H593 H 0.35875 0.30517 0.64410
 H594 H 0.42268 0.29903 0.57490
 H595 H 0.37601 0.17525 0.52333
 H596 H 0.31281 0.18510 0.58956
 C597 C 0.07323 0.27082 0.07940
 C598 C 0.10797 0.23950 0.05886
 C599 C 0.14162 0.23611 0.09760
 C600 C 0.13722 0.26207 0.15607
 C601 C 0.13032 0.30888 0.13616
 C602 C 0.09669 0.31346 0.09718
 C603 C 0.05996 0.25074 0.14177
 C604 C 0.09332 0.24669 0.18191
 H605 H 0.10261 0.21479 0.02516
 H606 H 0.16441 0.21065 0.09255
 H607 H 0.14893 0.33641 0.15368
 H608 H 0.08654 0.34501 0.08183
 H609 H 0.02809 0.23759 0.15230
 H610 H 0.08905 0.23174 0.22616
 C611 C 0.57863 0.77486 0.57950
 C612 C 0.60174 0.81777 0.59685
 C613 C 0.63604 0.81355 0.63483
 C614 C 0.64400 0.76677 0.65408
 C615 C 0.60069 0.75059 0.68104
 C616 C 0.56663 0.75432 0.64202
 C617 C 0.61357 0.74427 0.55749
 C618 C 0.64793 0.74123 0.59513
 H619 H 0.59106 0.84918 0.58168
 H620 H 0.65464 0.84126 0.65178
 H621 H 0.59731 0.73539 0.72525
 H622 H 0.53509 0.74066 0.65340
 H623 H 0.60829 0.72009 0.52299
 H624 H 0.67151 0.71668 0.58853
   
