data_POSCAR
  _audit_creation_date              2014-09-24
  _audit_creation_method            'ToBaCCo'
  _symmetry_space_group_name_H-M    'P1'
  _symmetry_Int_Tables_number       1
  _symmetry_cell_setting            triclinic
  loop_
  _symmetry_equiv_pos_as_xyz
 x,y,z
_cell_length_a 36.0524
_cell_length_b 35.3055
_cell_length_c 35.3936
_cell_angle_alpha 90.059000
_cell_angle_beta 90.451600
_cell_angle_gamma 90.139300
loop_
  _atom_site_label
  _atom_site_type_symbol
  _atom_site_fract_x
  _atom_site_fract_y
  _atom_site_fract_z
N1 N 0.17297 0.16530 0.16239
 N2 N -0.16081 0.83539 0.16229
 N3 N -0.16644 0.15998 -0.16693
 N4 N 0.16246 0.83952 -0.16597
 N5 N 0.16112 1.15349 0.84671
 N6 N 0.83315 0.83269 0.82621
 N7 N 0.18005 0.82180 1.17841
 N8 N 0.80842 1.19229 1.18203
 O9 O 0.45561 1.06492 1.06406
 O10 O 0.41196 1.02834 1.03361
 C11 C 0.42156 1.05534 1.05658
 O12 O 0.55012 1.05675 0.92399
 O13 O 0.59259 1.02274 0.95857
 C14 C 0.58383 1.04702 0.93253
 O15 O 0.44681 1.06124 0.93242
 O16 O 0.40767 1.02671 0.96993
 C17 C 0.41404 1.05192 0.94416
 O18 O 0.55981 1.05831 1.06194
 O19 O 0.59726 1.02228 1.02405
 C20 C 0.59216 1.04702 1.05050
 Zr21 Zr 0.50578 1.04152 1.04387
 O22 O 0.51152 1.10119 1.04279
 O23 O 0.50516 1.04227 1.10369
 Zr24 Zr 0.49942 1.03984 0.94868
 O25 O 0.50450 1.09962 0.94854
 O26 O 0.49177 1.03930 0.88931
 O27 O 0.46961 1.04873 0.99807
 O28 O 0.53494 1.04698 0.99429
 O29 O 0.55611 0.92801 1.06527
 O30 O 0.59536 0.95997 1.02572
 C31 C 0.58891 0.93696 1.05348
 O32 O 0.44423 0.92351 0.93523
 O33 O 0.40660 0.96111 0.97131
 C34 C 0.41185 0.93433 0.94687
 O35 O 0.54825 0.92574 0.92552
 O36 O 0.59179 0.95938 0.95940
 C37 C 0.58231 0.93513 0.93352
 O38 O 0.45244 0.92625 1.06703
 O39 O 0.41006 0.96243 1.03455
 C40 C 0.41877 0.93663 1.05912
 Zr41 Zr 0.50359 0.94570 1.04525
 O42 O 0.50664 0.88581 1.04389
 O43 O 0.50315 0.94487 1.10502
 Zr44 Zr 0.49781 0.94406 0.95022
 O45 O 0.50119 0.88423 0.95225
 O46 O 0.48979 0.94213 0.89095
 Zr47 Zr 0.44638 0.99389 1.00032
 Zr48 Zr 0.55678 0.99177 0.99384
 O49 O 0.53296 0.93738 0.99604
 O50 O 0.46736 0.93816 0.99978
 O51 O 0.53802 0.99306 1.05010
 O52 O 0.46607 0.99239 0.94446
 O53 O 0.47301 0.99442 1.05344
 O54 O 0.53113 0.99129 0.94008
 H55 H 0.55217 1.06885 0.99314
 H56 H 0.44815 0.99221 0.92310
 H57 H 0.54958 0.91509 0.99549
 H58 H 0.45775 0.99524 1.07659
 H59 H 0.51122 1.02294 0.87851
 H60 H 0.50876 0.95871 0.87950
 H61 H 0.48023 0.87502 0.96763
 H62 H 0.48320 0.87623 1.03270
 H63 H 0.52155 0.96377 1.11384
 H64 H 0.52694 1.02780 1.11274
 H65 H 0.49090 1.11130 1.02726
 H66 H 0.48351 1.11002 0.96305
 O67 O -0.06659 0.54867 0.06062
 O68 O -0.03635 0.59146 0.02301
 C69 C -0.05973 0.58289 0.04932
 O70 O 0.07515 0.45585 0.06395
 O71 O 0.04369 0.40959 0.03116
 C72 C 0.06849 0.42067 0.05549
 O73 O 0.06290 0.56159 0.06119
 O74 O 0.02531 0.59792 0.02321
 C75 C 0.05024 0.59398 0.04947
 O76 O -0.06110 0.44246 0.06092
 O77 O -0.02083 0.40314 0.02995
 C78 C -0.04829 0.40913 0.05251
 Zr79 Zr -0.04373 0.49675 0.04212
 O80 O -0.04244 0.49509 0.10192
 O81 O -0.10242 0.49564 0.04248
 Zr82 Zr 0.04960 0.50585 0.04320
 O83 O 0.04840 0.50483 0.10300
 O84 O 0.10758 0.51539 0.04435
 O85 O -0.00013 0.53535 0.04831
 O86 O 0.00578 0.46887 0.05129
 O87 O -0.05901 0.43581 -0.06881
 O88 O -0.01993 0.40034 -0.03160
 C89 C -0.04588 0.40366 -0.05676
 O90 O 0.06258 0.55383 -0.07719
 O91 O 0.02629 0.59406 -0.04255
 C92 C 0.05030 0.58727 -0.06876
 O93 O 0.07594 0.44868 -0.06716
 O94 O 0.04312 0.40611 -0.03165
 C95 C 0.06857 0.41449 -0.05588
 O96 O -0.06563 0.54251 -0.07703
 O97 O -0.03546 0.58868 -0.04284
 C98 C -0.05882 0.57772 -0.06866
 Zr99 Zr -0.04321 0.49205 -0.05340
 O100 O -0.04200 0.48501 -0.11279
 O101 O -0.10192 0.49051 -0.05420
 Zr102 Zr 0.05033 0.50078 -0.05229
 O103 O 0.05197 0.49326 -0.11158
 O104 O 0.10823 0.51098 -0.05094
 Zr105 Zr -0.00171 0.55502 -0.00793
 Zr106 Zr 0.00831 0.44314 -0.00219
 O107 O 0.00650 0.46348 -0.05805
 O108 O 0.00063 0.52964 -0.06188
 O109 O -0.04766 0.46029 -0.00406
 O110 O 0.05380 0.53668 -0.00623
 O111 O -0.05307 0.52649 -0.00732
 O112 O 0.06029 0.47051 -0.00273
 H113 H 0.00695 0.45254 0.07402
 H114 H 0.07395 0.55579 -0.00709
 H115 H 0.00818 0.44533 -0.07933
 H116 H -0.07630 0.54140 -0.00832
 H117 H 0.11914 0.49542 0.02879
 H118 H 0.11980 0.49066 -0.03570
 H119 H 0.03292 0.51006 -0.12273
 H120 H -0.03031 0.50789 -0.12361
 H121 H -0.10978 0.46872 -0.03863
 H122 H -0.11048 0.47507 0.02528
 H123 H -0.03051 0.51876 0.11083
 H124 H 0.03296 0.52633 0.11138
 O125 O 1.07351 -0.05786 0.54156
 O126 O 1.03680 -0.03056 0.58662
 C127 C 1.06402 -0.05207 0.57640
 O128 O 1.06262 0.08641 0.45118
 O129 O 1.02921 0.05375 0.40634
 C130 C 1.05309 0.07939 0.41643
 O131 O 1.06618 0.07287 0.55607
 O132 O 1.03310 0.03253 0.59395
 C133 C 1.05732 0.05923 0.58881
 O134 O 1.06660 -0.05099 0.43532
 O135 O 1.03120 -0.01120 0.39865
 C136 C 1.05561 -0.03768 0.40284
 Zr137 Zr 1.05006 -0.03583 0.49096
 O138 O 1.10842 -0.03224 0.48580
 O139 O 1.05289 -0.09570 0.48917
 Zr140 Zr 1.04548 0.05924 0.50159
 O141 O 1.10395 0.06306 0.49786
 O142 O 1.04156 0.11819 0.51185
 O143 O 1.05558 0.00844 0.52980
 O144 O 1.05403 0.01558 0.46368
 O145 O 0.93983 -0.05759 0.43583
 O146 O 0.97046 -0.01437 0.39896
 C147 C 0.94857 -0.04309 0.40330
 O148 O 0.92952 0.06365 0.55607
 O149 O 0.96820 0.02840 0.59384
 C150 C 0.94030 0.05095 0.58870
 O151 O 0.93253 0.08028 0.45182
 O152 O 0.96702 0.05086 0.40619
 C153 C 0.94201 0.07485 0.41698
 O154 O 0.93720 -0.06591 0.54187
 O155 O 0.97151 -0.03439 0.58688
 C156 C 0.94669 -0.05906 0.57666
 Zr157 Zr 0.95650 -0.04086 0.49125
 O158 O 0.89792 -0.04303 0.48688
 O159 O 0.95930 -0.10071 0.48901
 Zr160 Zr 0.95200 0.05415 0.50187
 O161 O 0.89344 0.05279 0.49748
 O162 O 0.95044 0.11301 0.51332
 Zr163 Zr 1.00193 0.00304 0.55265
 Zr164 Zr 1.00004 0.01550 0.44067
 O165 O 0.94684 0.00990 0.46397
 O166 O 0.94757 0.00252 0.53006
 O167 O 1.00307 -0.04192 0.45688
 O168 O 0.99885 0.05994 0.53528
 O169 O 1.00418 -0.04875 0.52316
 O170 O 0.99785 0.06791 0.46901
 H171 H 1.07552 0.01821 0.44660
 H172 H 0.99774 0.08004 0.55480
 H173 H 0.92491 0.01058 0.44693
 H174 H 1.00563 -0.07262 0.53778
 H175 H 1.02744 0.12949 0.49062
 H176 H 0.96370 0.12606 0.49270
 H177 H 0.88464 0.03189 0.51371
 H178 H 0.88772 -0.03217 0.51037
 H179 H 0.97482 -0.10754 0.46713
 H180 H 1.03782 -0.10428 0.46731
 H181 H 1.11793 -0.01812 0.50800
 H182 H 1.11461 0.04562 0.51689
 C183 C 1.14813 0.15385 0.19190
 C184 C 1.16092 0.13684 0.22505
 C185 C 1.13597 0.12681 0.25654
 C186 C 1.15032 0.12554 0.29346
 C187 C 1.12759 0.11567 0.32376
 C188 C 1.09001 0.10652 0.31758
 C189 C 1.07583 0.10729 0.28057
 C190 C 1.09847 0.11745 0.25034
 C191 C 1.06581 0.09298 0.34836
 C192 C 1.07247 0.10040 0.38658
 H193 H 1.19052 0.13320 0.22905
 H194 H 1.17924 0.13214 0.29887
 H195 H 1.13988 0.11413 0.35169
 H196 H 1.04718 0.09963 0.27498
 H197 H 1.08672 0.11696 0.22212
 H198 H 1.04226 0.07544 0.34050
 H199 H 1.11919 0.16170 0.18955
 H200 H 1.09407 0.12008 0.39498
 C201 C 0.84972 -0.14496 0.19642
 C202 C 0.86641 -0.16362 0.22692
 C203 C 0.87702 -0.14447 0.26274
 C204 C 0.88202 -0.10501 0.26509
 C205 C 0.89281 -0.08806 0.29912
 C206 C 0.89953 -0.11020 0.33147
 C207 C 0.89402 -0.14949 0.32931
 C208 C 0.88315 -0.16648 0.29522
 C209 C 0.91264 -0.09315 0.36748
 C210 C 0.93315 -0.05962 0.36845
 H211 H 0.87034 -0.19397 0.22508
 H212 H 0.87837 -0.08697 0.24070
 H213 H 0.89567 -0.05757 0.29986
 H214 H 0.89881 -0.16716 0.35387
 H215 H 0.87957 -0.19694 0.29422
 H216 H 0.90837 -0.10868 0.39348
 H217 H 0.84217 -0.11548 0.19918
 H218 H 0.94023 -0.04560 0.34230
 C219 C 0.85591 0.14321 0.80378
 C220 C 0.84454 0.11119 0.78353
 C221 C 0.86687 0.09548 0.75250
 C222 C 0.84880 0.08012 0.72079
 C223 C 0.86929 0.06685 0.69020
 C224 C 0.90826 0.06813 0.69119
 C225 C 0.92637 0.08160 0.72373
 C226 C 0.90586 0.09552 0.75406
 C227 C 0.93038 0.05574 0.65860
 C228 C 0.91878 0.06281 0.62163
 H229 H 0.81720 0.09937 0.78810
 H230 H 0.81879 0.07925 0.71931
 H231 H 0.85465 0.05551 0.66586
 H232 H 0.95639 0.08225 0.72525
 H233 H 0.92050 0.10616 0.77871
 H234 H 0.95747 0.04347 0.66378
 H235 H 0.88079 0.15734 0.79445
 H236 H 0.89337 0.07837 0.61657
 C237 C 1.14211 -0.14419 0.80287
 C238 C 1.15941 -0.13073 0.77034
 C239 C 1.13851 -0.11400 0.73825
 C240 C 1.15401 -0.11475 0.70201
 C241 C 1.13498 -0.09920 0.67112
 C242 C 1.10000 -0.08232 0.67599
 C243 C 1.08498 -0.08079 0.71243
 C244 C 1.10393 -0.09642 0.74322
 C245 C 1.07880 -0.06486 0.64448
 C246 C 1.08580 -0.07111 0.60617
 H247 H 1.18895 -0.13481 0.76712
 H248 H 1.18089 -0.12758 0.69755
 H249 H 1.14814 -0.10000 0.64381
 H250 H 1.05840 -0.06738 0.71713
 H251 H 1.09166 -0.09401 0.77091
 H252 H 1.05585 -0.04663 0.65200
 H253 H 1.11213 -0.14463 0.80396
 H254 H 1.10755 -0.09017 0.59749
 C255 C 0.20358 1.14135 1.15212
 C256 C 0.23409 1.15560 1.13256
 C257 C 0.26512 1.13197 1.11894
 C258 C 0.29895 1.14963 1.11051
 C259 C 0.32846 1.12877 1.09594
 C260 C 0.32463 1.08968 1.08928
 C261 C 0.29064 1.07206 1.09722
 C262 C 0.26117 1.09290 1.11206
 C263 C 0.35478 1.06703 1.07238
 C264 C 0.39220 1.07696 1.07544
 H265 H 0.23578 1.18585 1.12777
 H266 H 0.30248 1.17980 1.11493
 H267 H 0.35377 1.14363 1.08898
 H268 H 0.28683 1.04210 1.09177
 H269 H 0.23517 1.07850 1.11706
 H270 H 0.34726 1.04107 1.05782
 H271 H 0.20335 1.11203 1.16100
 H272 H 0.40051 1.10103 1.09249
 C273 C 0.19713 0.85622 0.84616
 C274 C 0.20626 0.86054 0.88439
 C275 C 0.24183 0.87673 0.89810
 C276 C 0.24359 0.89179 0.93477
 C277 C 0.27671 0.90686 0.94903
 C278 C 0.30902 0.90659 0.92720
 C279 C 0.30743 0.89133 0.89048
 C280 C 0.27419 0.87643 0.87612
 C281 C 0.34323 0.92367 0.94323
 C282 C 0.37896 0.91536 0.93068
 H283 H 0.18560 0.85375 0.90536
 H284 H 0.21915 0.89214 0.95239
 H285 H 0.27715 0.91859 0.97733
 H286 H 0.33154 0.89131 0.87251
 H287 H 0.27415 0.86429 0.84805
 H288 H 0.34008 0.94293 0.96685
 H289 H 0.21539 0.86823 0.82527
 H290 H 0.38318 0.89428 0.90894
 C291 C 0.81035 0.85062 1.13836
 C292 C 0.78024 0.87029 1.15321
 C293 C 0.74932 0.88512 1.12985
 C294 C 0.71517 0.89197 1.14722
 C295 C 0.68512 0.90572 1.12631
 C296 C 0.68865 0.91304 1.08745
 C297 C 0.72313 0.90741 1.07028
 C298 C 0.75321 0.89344 1.09119
 C299 C 0.65724 0.92766 1.06467
 C300 C 0.62041 0.92007 1.07382
 H301 H 0.77799 0.87276 1.18361
 H302 H 0.71165 0.88648 1.17710
 H303 H 0.65940 0.91116 1.14088
 H304 H 0.72671 0.91356 1.04054
 H305 H 0.77946 0.88981 1.07709
 H306 H 0.66332 0.94396 1.03952
 H307 H 0.81097 0.84441 1.10843
 H308 H 0.61416 0.90139 1.09715
 C309 C 0.80562 1.13736 0.85125
 C310 C 0.77060 1.15169 0.85964
 C311 C 0.74042 1.12837 0.87582
 C312 C 0.70371 1.14085 0.87176
 C313 C 0.67436 1.11971 0.88641
 C314 C 0.68115 1.08544 0.90553
 C315 C 0.71793 1.07340 0.91036
 C316 C 0.74731 1.09457 0.89571
 C317 C 0.65095 1.06265 0.92241
 C318 C 0.61371 1.06616 0.91191
 H319 H 0.76407 1.18042 0.85132
 H320 H 0.69768 1.16709 0.85713
 H321 H 0.64663 1.13087 0.88329
 H322 H 0.72399 1.04752 0.92562
 H323 H 0.77525 1.08460 0.90068
 H324 H 0.65840 1.04243 0.94419
 H325 H 0.81109 1.10752 0.85524
 H326 H 0.60571 1.08465 0.88895
 C327 C 0.16275 0.19669 0.13860
 C328 C 0.14480 0.22838 0.15324
 C329 C 0.13227 0.26065 0.12985
 C330 C 0.12612 0.29569 0.14739
 C331 C 0.11249 0.32638 0.12668
 C332 C 0.10451 0.32248 0.08791
 C333 C 0.11049 0.28738 0.07040
 C334 C 0.12434 0.25675 0.09106
 C335 C 0.08741 0.35336 0.06568
 C336 C 0.08989 0.39155 0.07566
 H337 H 0.14075 0.23008 0.18349
 H338 H 0.13150 0.29922 0.17735
 H339 H 0.10713 0.35260 0.14145
 H340 H 0.10398 0.28352 0.04070
 H341 H 0.12763 0.22988 0.07679
 H342 H 0.07219 0.34558 0.04029
 H343 H 0.17081 0.19630 0.10921
 H344 H 0.10760 0.40043 0.09887
 C345 C -0.15984 0.19835 -0.15418
 C346 C -0.12488 0.21547 -0.15588
 C347 C -0.11666 0.25438 -0.14249
 C348 C -0.07955 0.26400 -0.13516
 C349 C -0.07013 0.29995 -0.12190
 C350 C -0.09771 0.32727 -0.11558
 C351 C -0.13470 0.31842 -0.12450
 C352 C -0.14421 0.28219 -0.13773
 C353 C -0.08802 0.36470 -0.09935
 C354 C -0.05963 0.36785 -0.07262
 H355 H -0.10142 0.19877 -0.16470
 H356 H -0.05768 0.24345 -0.13933
 H357 H -0.04115 0.30632 -0.11670
 H358 H -0.15631 0.33926 -0.12048
 H359 H -0.17298 0.27631 -0.14436
 H360 H -0.10421 0.38935 -0.10709
 H361 H -0.18187 0.21332 -0.14008
 H362 H -0.04620 0.34232 -0.06256
 C363 C 0.14643 0.80861 -0.14493
 C364 C 0.12017 0.78402 -0.16083
 C365 C 0.10432 0.75177 -0.13977
 C366 C 0.09351 0.71907 -0.15956
 C367 C 0.07885 0.68795 -0.14035
 C368 C 0.07424 0.68926 -0.10096
 C369 C 0.08378 0.72246 -0.08136
 C370 C 0.09894 0.75338 -0.10049
 C371 C 0.05889 0.65684 -0.07980
 C372 C 0.06483 0.61934 -0.09060
 H373 H 0.11291 0.78682 -0.19044
 H374 H 0.09683 0.71746 -0.18992
 H375 H 0.07066 0.66317 -0.15643
 H376 H 0.07990 0.72430 -0.05109
 H377 H 0.10591 0.77865 -0.08459
 H378 H 0.04468 0.66261 -0.05355
 H379 H 0.15719 0.80194 -0.11713
 H380 H 0.08189 0.61317 -0.11487
 C381 C -0.13858 0.80448 0.14874
 C382 C -0.15390 0.77573 0.12642
 C383 C -0.13203 0.74398 0.11101
 C384 C -0.15020 0.70988 0.10226
 C385 C -0.13066 0.67953 0.08682
 C386 C -0.09253 0.68291 0.07944
 C387 C -0.07452 0.71731 0.08738
 C388 C -0.09399 0.74754 0.10324
 C389 C -0.07131 0.65168 0.06217
 C390 C -0.08050 0.61364 0.06738
 H391 H -0.18359 0.77560 0.12145
 H392 H -0.17963 0.70671 0.10740
 H393 H -0.14568 0.65384 0.07990
 H394 H -0.04529 0.72075 0.08136
 H395 H -0.07937 0.77385 0.10850
 H396 H -0.04671 0.65882 0.04625
 H397 H -0.10986 0.80262 0.15772
 H398 H -0.10287 0.60596 0.08612
 C399 C 1.14744 0.13261 0.81682
 C400 C 1.12418 0.14778 0.78871
 C401 C 1.11040 0.12568 0.75588
 C402 C 1.10185 0.14501 0.72235
 C403 C 1.08863 0.12543 0.69071
 C404 C 1.08340 0.08597 0.69199
 C405 C 1.09088 0.06670 0.72585
 C406 C 1.10449 0.08629 0.75751
 C407 C 1.06878 0.06486 0.65890
 C408 C 1.07528 0.07672 0.62193
 H409 H 1.11876 0.17792 0.78841
 H410 H 1.10555 0.17542 0.72058
 H411 H 1.08183 0.14145 0.66555
 H412 H 1.08638 0.03640 0.72771
 H413 H 1.10964 0.07067 0.78329
 H414 H 1.05306 0.03914 0.66376
 H415 H 1.15646 0.10365 0.81305
 H416 H 1.09367 0.10044 0.61691
 C417 C 0.84563 -0.14378 0.79555
 C418 C 0.86607 -0.15866 0.76566
 C419 C 0.88121 -0.13550 0.73449
 C420 C 0.89011 -0.15341 0.70035
 C421 C 0.90576 -0.13292 0.67069
 C422 C 0.91310 -0.09398 0.67470
 C423 C 0.90473 -0.07614 0.70903
 C424 C 0.88880 -0.09659 0.73863
 C425 C 0.93092 -0.07171 0.64439
 C426 C 0.92813 -0.08126 0.60617
 H427 H 0.87020 -0.18902 0.76443
 H428 H 0.88511 -0.18347 0.69668
 H429 H 0.91293 -0.14791 0.64511
 H430 H 0.91064 -0.04628 0.71300
 H431 H 0.88342 -0.08203 0.76491
 H432 H 0.94552 -0.04601 0.65237
 H433 H 0.83767 -0.11425 0.79509
 H434 H 0.91080 -0.10476 0.59732
 C435 C 1.17167 -0.16190 0.21469
 C436 C 1.13519 -0.15582 0.22603
 C437 C 1.12534 -0.13820 0.26256
 C438 C 1.09073 -0.12055 0.26576
 C439 C 1.08040 -0.10319 0.29951
 C440 C 1.10452 -0.10325 0.33096
 C441 C 1.13858 -0.12211 0.32827
 C442 C 1.14904 -0.13933 0.29436
 C443 C 1.09413 -0.08489 0.36696
 C444 C 1.07058 -0.05367 0.36785
 H445 H 1.11294 -0.16164 0.20611
 H446 H 1.07166 -0.11996 0.24195
 H447 H 1.05324 -0.09032 0.30099
 H448 H 1.15727 -0.12321 0.35236
 H449 H 1.17537 -0.15389 0.29341
 H450 H 1.10564 -0.09581 0.39312
 H451 H 1.19403 -0.15207 0.23264
 H452 H 1.06134 -0.04102 0.34157
 C453 C 0.82885 0.16814 0.20749
 C454 C 0.84438 0.18212 0.24098
 C455 C 0.86650 0.15913 0.26793
 C456 C 0.87274 0.17361 0.30434
 C457 C 0.89314 0.15307 0.33095
 C458 C 0.90771 0.11733 0.32176
 C459 C 0.90267 0.10338 0.28496
 C460 C 0.88223 0.12399 0.25824
 C461 C 0.92839 0.09432 0.34981
 C462 C 0.92243 0.09771 0.38856
 H463 H 0.83842 0.21110 0.24887
 H464 H 0.86164 0.20094 0.31234
 H465 H 0.89773 0.16559 0.35850
 H466 H 0.91420 0.07625 0.27698
 H467 H 0.87927 0.11234 0.23013
 H468 H 0.94720 0.07277 0.33964
 H469 H 0.83153 0.13848 0.20064
 H470 H 0.90168 0.11718 0.39884
 C471 C 0.14248 0.18515 -0.14124
 C472 C 0.15920 0.21414 -0.11988
 C473 C 0.13858 0.24783 -0.10683
 C474 C 0.15756 0.28224 -0.10177
 C475 C 0.13890 0.31444 -0.08896
 C476 C 0.10090 0.31258 -0.08053
 C477 C 0.08214 0.27796 -0.08484
 C478 C 0.10068 0.24592 -0.09800
 C479 C 0.08033 0.34542 -0.06550
 C480 C 0.09030 0.38315 -0.07186
 H481 H 0.18892 0.21396 -0.11529
 H482 H 0.18691 0.28424 -0.10784
 H483 H 0.15449 0.34036 -0.08489
 H484 H 0.05299 0.27568 -0.07795
 H485 H 0.08547 0.21955 -0.10041
 H486 H 0.05517 0.33950 -0.04999
 H487 H 0.11403 0.18953 -0.15018
 H488 H 0.11360 0.38996 -0.08972
 C489 C -0.17642 0.22891 0.17286
 C490 C -0.17695 0.24278 0.13597
 C491 C -0.15734 0.27786 0.12510
 C492 C -0.14238 0.28050 0.08877
 C493 C -0.12251 0.31266 0.07798
 C494 C -0.11765 0.34306 0.10327
 C495 C -0.13393 0.34112 0.13906
 C496 C -0.15338 0.30866 0.15007
 C497 C -0.09672 0.37731 0.09231
 C498 C -0.06649 0.37541 0.06809
 H499 H -0.18859 0.22527 0.11368
 H500 H -0.14559 0.25736 0.06887
 H501 H -0.11141 0.31386 0.04968
 H502 H -0.13112 0.36452 0.15870
 H503 H -0.16558 0.30791 0.17790
 H504 H -0.10480 0.40435 0.10413
 H505 H -0.16014 0.24398 0.19384
 H506 H -0.05651 0.34802 0.05891
 C507 C -0.14388 0.80184 -0.16106
 C508 C -0.15879 0.77007 -0.14320
 C509 C -0.13584 0.73808 -0.12954
 C510 C -0.15222 0.70222 -0.12552
 C511 C -0.13159 0.67161 -0.11172
 C512 C -0.09414 0.67645 -0.10132
 C513 C -0.07792 0.71242 -0.10489
 C514 C -0.09844 0.74292 -0.11895
 C515 C -0.07190 0.64554 -0.08438
 C516 C -0.07981 0.60705 -0.08918
 H517 H -0.18864 0.76782 -0.14075
 H518 H -0.18113 0.69791 -0.13296
 H519 H -0.14540 0.64462 -0.10827
 H520 H -0.04930 0.71703 -0.09648
 H521 H -0.08516 0.77038 -0.12048
 H522 H -0.04784 0.65358 -0.06763
 H523 H -0.11459 0.80244 -0.16756
 H524 H -0.10181 0.59807 -0.10815
 C525 C 0.15901 0.78956 0.16514
 C526 C 0.17406 0.76313 0.14025
 C527 C 0.15368 0.72903 0.12743
 C528 C 0.11483 0.72862 0.12354
 C529 C 0.09652 0.69610 0.11051
 C530 C 0.11676 0.66345 0.10119
 C531 C 0.15547 0.66384 0.10546
 C532 C 0.17379 0.69648 0.11798
 C533 C 0.09851 0.62854 0.08729
 C534 C 0.06563 0.62880 0.06624
 H535 H 0.20277 0.76607 0.13197
 H536 H 0.09857 0.75351 0.12991
 H537 H 0.06657 0.69650 0.10819
 H538 H 0.17164 0.63899 0.09854
 H539 H 0.20375 0.69619 0.12062
 H540 H 0.11315 0.60201 0.09100
 H541 H 0.13229 0.78350 0.17747
 H542 H 0.05237 0.65541 0.05931
 C543 C 0.19129 1.14073 0.86694
 C544 C 0.21806 1.11623 0.85211
 C545 C 0.25058 1.10335 0.87431
 C546 C 0.28379 1.09565 0.85550
 C547 C 0.31502 1.08329 0.87554
 C548 C 0.31346 1.07796 0.91487
 C549 C 0.27995 1.08468 0.93358
 C550 C 0.24881 1.09751 0.91357
 C551 C 0.34570 1.06356 0.93653
 C552 C 0.38223 1.07029 0.92559
 H553 H 0.21743 1.10923 0.82232
 H554 H 0.28563 1.09938 0.82519
 H555 H 0.34002 1.07711 0.86001
 H556 H 0.27791 1.08009 0.96375
 H557 H 0.22326 1.10207 0.92874
 H558 H 0.34047 1.04762 0.96210
 H559 H 0.19634 1.15156 0.89517
 H560 H 0.38781 1.08893 0.90203
 C561 C 0.20746 0.83884 1.15419
 C562 C 0.23759 0.85971 1.16807
 C563 C 0.26614 0.87673 1.14348
 C564 C 0.30148 0.88374 1.15877
 C565 C 0.32935 0.89961 1.13665
 C566 C 0.32240 0.90898 1.09864
 C567 C 0.28672 0.90318 1.08362
 C568 C 0.25881 0.88705 1.10574
 C569 C 0.35157 0.92576 1.07466
 C570 C 0.38912 0.91819 1.08061
 H571 H 0.24225 0.86149 1.19821
 H572 H 0.30764 0.87672 1.18794
 H573 H 0.35610 0.90505 1.14965
 H574 H 0.28051 0.91086 1.05462
 H575 H 0.23152 0.88332 1.09336
 H576 H 0.34322 0.94347 1.05111
 H577 H 0.20529 0.83382 1.12408
 H578 H 0.39740 0.89796 1.10201
 C579 C 0.77425 1.17993 1.16422
 C580 C 0.75882 1.14399 1.16976
 C581 C 0.72427 1.13138 1.15073
 C582 C 0.71987 1.09284 1.14217
 C583 C 0.68782 1.07984 1.12388
 C584 C 0.65925 1.10517 1.11420
 C585 C 0.66301 1.14350 1.12398
 C586 C 0.69535 1.15662 1.14185
 C587 C 0.62514 1.09198 1.09474
 C588 C 0.62573 1.06230 1.06875
 H589 H 0.77330 1.12330 1.18679
 H590 H 0.74149 1.07276 1.14931
 H591 H 0.68525 1.04988 1.11786
 H592 H 0.64106 1.16339 1.11737
 H593 H 0.69734 1.18631 1.14920
 H594 H 0.59945 1.10699 1.09968
 H595 H 0.75978 1.19948 1.14579
 H596 H 0.65201 1.04969 1.06116
 C597 C 0.80234 0.84461 0.84898
 C598 C 0.77231 0.86441 0.83364
 C599 C 0.74076 0.87798 0.85652
 C600 C 0.70631 0.88401 0.83883
 C601 C 0.67617 0.89773 0.85937
 C602 C 0.68007 0.90606 0.89808
 C603 C 0.71471 0.90066 0.91560
 C604 C 0.74473 0.88662 0.89515
 C605 C 0.64938 0.92220 0.92047
 C606 C 0.61190 0.91714 0.91141
 H607 H 0.77111 0.86872 0.80336
 H608 H 0.70271 0.87815 0.80897
 H609 H 0.65025 0.90266 0.84461
 H610 H 0.71859 0.90746 0.94523
 H611 H 0.77116 0.88351 0.90948
 H612 H 0.65668 0.93780 0.94587
 H613 H 0.80174 0.83629 0.87841
 H614 H 0.60385 0.89917 0.88794
   
