data_POSCAR
  _audit_creation_date              2014-09-24
  _audit_creation_method            'ToBaCCo'
  _symmetry_space_group_name_H-M    'P1'
  _symmetry_Int_Tables_number       1
  _symmetry_cell_setting            triclinic
  loop_
  _symmetry_equiv_pos_as_xyz
 x,y,z
_cell_length_a 56.7172
_cell_length_b 56.7499
_cell_length_c 56.7364
_cell_angle_alpha 90.005700
_cell_angle_beta 89.972900
_cell_angle_gamma 90.006200
loop_
  _atom_site_label
  _atom_site_type_symbol
  _atom_site_fract_x
  _atom_site_fract_y
  _atom_site_fract_z
C1 C 0.21353 0.51785 1.02904
 H2 H 0.21298 0.53138 1.01562
 C3 C 0.19748 0.51836 1.04769
 H4 H 0.18458 0.53241 1.04870
 C5 C 0.23059 0.48261 1.04372
 H6 H 0.24317 0.46846 1.04184
 C7 C 0.21484 0.48245 1.06267
 H8 H 0.21554 0.46825 1.07543
 N9 N 0.22972 0.50022 1.02745
 C10 C 0.28565 0.52850 0.98290
 H11 H 0.28622 0.51508 0.96937
 C12 C 0.30167 0.54717 0.98236
 H13 H 0.31460 0.54821 0.96833
 C14 C 0.26858 0.54322 1.01813
 H15 H 0.25599 0.54136 1.03230
 C16 C 0.28431 0.56217 1.01826
 H17 H 0.28365 0.57498 1.03241
 Zn18 Zn 0.24960 0.50013 1.00065
 N19 N 0.26945 0.52693 1.00053
 C20 C 0.23063 0.51758 0.95755
 N21 N 0.22975 0.50000 0.97385
 C22 C 0.21358 0.48236 0.97227
 C23 C 0.19758 0.48179 0.95359
 C24 C 0.21493 0.51769 0.93857
 C25 C 0.28566 0.47178 1.01839
 C26 C 0.30169 0.45312 1.01891
 C27 C 0.28436 0.43812 0.98301
 C28 C 0.26862 0.45707 0.98315
 N29 N 0.26948 0.47335 1.00076
 H30 H 0.24320 0.53175 0.95941
 H31 H 0.21300 0.46884 0.98571
 H32 H 0.18467 0.46776 0.95254
 H33 H 0.21559 0.53182 0.92576
 H34 H 0.28621 0.48520 1.03192
 H35 H 0.31461 0.45208 1.03294
 H36 H 0.28372 0.42533 0.96885
 H37 H 0.25605 0.45893 0.96898
 C38 C 0.30103 0.56411 1.00024
 C39 C 0.19811 0.50046 1.06464
 C40 C 0.30107 0.43619 1.00103
 C41 C 0.19824 0.49965 0.93663
 C42 C 0.78599 0.51793 -0.02812
 H43 H 0.78658 0.53143 -0.01466
 C44 C 0.80201 0.51848 -0.04680
 H45 H 0.81495 0.53249 -0.04783
 C46 C 0.76889 0.48275 -0.04287
 H47 H 0.75630 0.46859 -0.04102
 C48 C 0.78460 0.48263 -0.06185
 H49 H 0.78393 0.46850 -0.07468
 N50 N 0.76979 0.50031 -0.02655
 C51 C 0.71397 0.52851 0.01817
 H52 H 0.71342 0.51506 0.03168
 C53 C 0.69795 0.54717 0.01877
 H54 H 0.68504 0.54818 0.03282
 C55 C 0.73098 0.54328 -0.01707
 H56 H 0.74354 0.54144 -0.03126
 C57 C 0.71525 0.56223 -0.01713
 H58 H 0.71588 0.57506 -0.03126
 Zn59 Zn 0.74996 0.50015 0.00028
 N60 N 0.73013 0.52696 0.00050
 C61 C 0.76905 0.51748 0.04338
 N62 N 0.76986 0.49993 0.02703
 C63 C 0.78602 0.48227 0.02852
 C64 C 0.80208 0.48166 0.04715
 C65 C 0.78481 0.51753 0.06231
 C66 C 0.71386 0.47188 -0.01749
 C67 C 0.69781 0.45324 -0.01806
 C68 C 0.71518 0.43810 0.01776
 C69 C 0.73094 0.45704 0.01767
 N70 N 0.73006 0.47339 0.00012
 H71 H 0.75648 0.53166 0.04159
 H72 H 0.78655 0.46879 0.01505
 H73 H 0.81498 0.46762 0.04812
 H74 H 0.78420 0.53164 0.07516
 H75 H 0.71329 0.48535 -0.03098
 H76 H 0.68487 0.45225 -0.03207
 H77 H 0.71584 0.42526 0.03187
 H78 H 0.74353 0.45885 0.03182
 C79 C 0.69856 0.56414 0.00092
 C80 C 0.80134 0.50063 -0.06378
 C81 C 0.69845 0.43624 -0.00025
 C82 C 0.80150 0.49948 0.06415
 C83 C -0.01788 0.28647 0.47106
 H84 H -0.03132 0.28703 0.48459
 C85 C -0.01855 0.30249 0.45241
 H86 H -0.03263 0.31538 0.45152
 C87 C 0.01727 0.26944 0.45610
 H88 H 0.03146 0.25687 0.45787
 C89 C 0.01728 0.28516 0.43714
 H90 H 0.03139 0.28446 0.42426
 N91 N -0.00022 0.27031 0.47252
 C92 C -0.02819 0.21442 0.51726
 H93 H -0.01467 0.21387 0.53070
 C94 C -0.04684 0.19838 0.51791
 H95 H -0.04779 0.18547 0.53194
 C96 C -0.04314 0.23145 0.48212
 H97 H -0.04137 0.24402 0.46794
 C98 C -0.06209 0.21571 0.48211
 H99 H -0.07498 0.21634 0.46804
 Zn100 Zn 0.00007 0.25046 0.49931
 N101 N -0.02673 0.23060 0.49961
 C102 C -0.01712 0.26943 0.54254
 N103 N 0.00036 0.27031 0.52610
 C104 C 0.01801 0.28649 0.52755
 C105 C 0.01870 0.30248 0.54624
 C106 C -0.01710 0.28512 0.56153
 C107 C 0.02836 0.21443 0.48139
 C108 C 0.04702 0.19839 0.48077
 C109 C 0.06220 0.21574 0.51659
 C110 C 0.04325 0.23148 0.51654
 N111 N 0.02687 0.23061 0.49903
 H112 H -0.03130 0.25686 0.54079
 H113 H 0.03144 0.28707 0.51401
 H114 H 0.03274 0.31539 0.54718
 H115 H -0.03114 0.28445 0.57445
 H116 H 0.01487 0.21386 0.46793
 H117 H 0.04798 0.18547 0.46675
 H118 H 0.07507 0.21639 0.53068
 H119 H 0.04146 0.24406 0.53072
 C120 C -0.06390 0.19900 0.50014
 C121 C -0.00077 0.30187 0.43531
 C122 C 0.06405 0.19903 0.49857
 C123 C 0.00096 0.30182 0.56334
 C124 C 0.98207 0.71386 0.52806
 H125 H 0.96866 0.71327 0.51452
 C126 C 0.98138 0.69786 0.54674
 H127 H 0.96735 0.68494 0.54768
 C128 C 1.01718 0.73095 0.54305
 H129 H 1.03136 0.74353 0.54129
 C130 C 1.01715 0.71525 0.56203
 H131 H 1.03120 0.71593 0.57495
 N132 N 0.99972 0.73005 0.52661
 C133 C 0.97177 0.78584 0.48178
 H134 H 0.98529 0.78638 0.46834
 C135 C 0.95311 0.80187 0.48112
 H136 H 0.95218 0.81477 0.46708
 C137 C 0.95681 0.76885 0.51695
 H138 H 0.95858 0.75630 0.53115
 C139 C 0.93786 0.78458 0.51695
 H140 H 0.92497 0.78397 0.53103
 Zn141 Zn 1.00004 0.74986 0.49980
 N142 N 0.97323 0.76969 0.49945
 C143 C 0.98295 0.73079 0.45659
 N144 N 1.00041 0.72997 0.47303
 C145 C 1.01808 0.71381 0.47164
 C146 C 1.01880 0.69776 0.45301
 C147 C 0.98301 0.71503 0.43766
 C148 C 1.02825 0.78594 0.51772
 C149 C 1.04689 0.80199 0.51837
 C150 C 1.06220 0.78463 0.48260
 C151 C 1.04326 0.76887 0.48261
 N152 N 1.02682 0.76974 0.50010
 H153 H 0.96875 0.74335 0.45830
 H154 H 1.03149 0.71329 0.48518
 H155 H 1.03286 0.68486 0.45211
 H156 H 0.96897 0.71564 0.42473
 H157 H 1.01471 0.78650 0.53115
 H158 H 1.04780 0.81493 0.53238
 H159 H 1.07511 0.78398 0.46853
 H160 H 1.04152 0.75628 0.46845
 C161 C 0.93605 0.80127 0.49890
 C162 C 0.99912 0.69854 0.56383
 C163 C 1.06397 0.80136 0.50061
 C164 C 1.00108 0.69834 0.43591
 C165 C 0.47180 -0.01847 0.28560
 H166 H 0.48531 -0.03193 0.28616
 C167 C 0.45314 -0.01909 0.30165
 H168 H 0.45218 -0.03311 0.31458
 C169 C 0.45690 0.01667 0.26856
 H170 H 0.45869 0.03084 0.25598
 C171 C 0.43794 0.01671 0.28430
 H172 H 0.42507 0.03080 0.28366
 N173 N 0.47329 -0.00084 0.26942
 C174 C 0.51809 -0.02877 0.21354
 H175 H 0.53152 -0.01524 0.21299
 C176 C 0.51878 -0.04742 0.19750
 H177 H 0.53287 -0.04829 0.18461
 C178 C 0.48294 -0.04375 0.23057
 H179 H 0.46875 -0.04200 0.24314
 C180 C 0.48296 -0.06270 0.21484
 H181 H 0.46886 -0.07559 0.21553
 Zn182 Zn 0.50010 -0.00055 0.24957
 N183 N 0.50043 -0.02733 0.22971
 C184 C 0.54331 -0.01771 0.26857
 N185 N 0.52689 -0.00023 0.26943
 C186 C 0.52832 0.01742 0.28561
 C187 C 0.54697 0.01809 0.30165
 C188 C 0.56226 -0.01770 0.28432
 C189 C 0.48215 0.02768 0.21353
 C190 C 0.48146 0.04635 0.19754
 C191 C 0.51723 0.06166 0.21490
 C192 C 0.51727 0.04268 0.23060
 N193 N 0.49980 0.02624 0.22971
 H194 H 0.54156 -0.03188 0.25600
 H195 H 0.51480 0.03084 0.28616
 H196 H 0.54790 0.03212 0.31457
 H197 H 0.57516 -0.03176 0.28368
 H198 H 0.46874 0.01414 0.21296
 H199 H 0.46742 0.04729 0.18463
 H200 H 0.53127 0.07458 0.21557
 H201 H 0.53144 0.04093 0.24317
 C202 C 0.50102 -0.06451 0.19812
 C203 C 0.43610 -0.00130 0.30102
 C204 C 0.49919 0.06346 0.19820
 C205 C 0.56405 0.00033 0.30102
 C206 C 0.52832 -0.01805 0.71405
 H207 H 0.51482 -0.03151 0.71350
 C208 C 0.54700 -0.01868 0.69802
 H209 H 0.54796 -0.03271 0.68510
 C210 C 0.54322 0.01710 0.73109
 H211 H 0.54142 0.03128 0.74366
 C212 C 0.56218 0.01714 0.71536
 H213 H 0.57506 0.03123 0.71599
 N214 N 0.52683 -0.00041 0.73023
 C215 C 0.48199 -0.02831 0.78610
 H216 H 0.46857 -0.01477 0.78664
 C217 C 0.48129 -0.04695 0.80214
 H218 H 0.46724 -0.04787 0.81504
 C219 C 0.51714 -0.04331 0.76909
 H220 H 0.53134 -0.04157 0.75652
 C221 C 0.51710 -0.06225 0.78483
 H222 H 0.53115 -0.07517 0.78420
 Zn223 Zn 0.50001 -0.00011 0.75007
 N224 N 0.49967 -0.02688 0.76993
 C225 C 0.45681 -0.01729 0.73106
 N226 N 0.47323 0.00019 0.73019
 C227 C 0.47178 0.01783 0.71401
 C228 C 0.45313 0.01849 0.69798
 C229 C 0.43786 -0.01730 0.71532
 C230 C 0.51793 0.02814 0.78610
 C231 C 0.51860 0.04680 0.80212
 C232 C 0.48282 0.06207 0.78475
 C233 C 0.48282 0.04311 0.76903
 N234 N 0.50029 0.02669 0.76992
 H235 H 0.45856 -0.03146 0.74363
 H236 H 0.48531 0.03127 0.71346
 H237 H 0.45220 0.03251 0.68506
 H238 H 0.42496 -0.03136 0.71596
 H239 H 0.53136 0.01461 0.78668
 H240 H 0.53263 0.04775 0.81504
 H241 H 0.46877 0.07499 0.78408
 H242 H 0.46864 0.04135 0.75645
 C243 C 0.49903 -0.06403 0.80152
 C244 C 0.56403 -0.00089 0.69865
 C245 C 0.50085 0.06388 0.80146
 C246 C 0.43606 0.00073 0.69861
 C247 C 0.28609 0.01788 0.47150
 H248 H 0.28667 0.03141 0.48492
 C249 C 0.30212 0.01838 0.45283
 H250 H 0.31507 0.03239 0.45179
 C251 C 0.26899 -0.01733 0.45680
 H252 H 0.25639 -0.03147 0.45867
 C253 C 0.28473 -0.01749 0.43784
 H254 H 0.28406 -0.03165 0.42504
 N255 N 0.26988 0.00027 0.47309
 C256 C 0.21398 0.02861 0.51763
 H257 H 0.21340 0.01519 0.53117
 C258 C 0.19798 0.04728 0.51816
 H259 H 0.18505 0.04835 0.53218
 C260 C 0.23107 0.04328 0.48239
 H261 H 0.24366 0.04140 0.46823
 C262 C 0.21536 0.06225 0.48225
 H263 H 0.21603 0.07504 0.46809
 Zn264 Zn 0.25000 0.00019 0.49988
 N265 N 0.23018 0.02700 0.50000
 C266 C 0.26900 0.01762 0.54298
 N267 N 0.26985 0.00004 0.52667
 C268 C 0.28601 -0.01761 0.52823
 C269 C 0.30203 -0.01819 0.54690
 C270 C 0.28473 0.01772 0.56194
 C271 C 0.21392 -0.02813 0.48212
 C272 C 0.19789 -0.04679 0.48157
 C273 C 0.21521 -0.06183 0.51746
 C274 C 0.23095 -0.04288 0.51735
 N275 N 0.23010 -0.02657 0.49976
 H276 H 0.25645 0.03180 0.54113
 H277 H 0.28656 -0.03113 0.51480
 H278 H 0.31493 -0.03223 0.54793
 H279 H 0.28409 0.03186 0.57475
 H280 H 0.21338 -0.01470 0.46861
 H281 H 0.18498 -0.04782 0.46754
 H282 H 0.21586 -0.07464 0.53159
 H283 H 0.24352 -0.04103 0.53151
 C284 C 0.19864 0.06421 0.50027
 C285 C 0.30146 0.00050 0.43589
 C286 C 0.19852 -0.06375 0.49943
 C287 C 0.30141 -0.00033 0.56386
 C288 C 0.71407 0.01792 0.52815
 H289 H 0.71349 0.03142 0.51470
 C290 C 0.69805 0.01848 0.54683
 H291 H 0.68512 0.03249 0.54786
 C292 C 0.73116 -0.01726 0.54291
 H293 H 0.74375 -0.03141 0.54106
 C294 C 0.71544 -0.01737 0.56188
 H295 H 0.71611 -0.03150 0.57471
 N296 N 0.73027 0.00031 0.52659
 C297 C 0.78612 0.02848 0.48189
 H298 H 0.78669 0.01502 0.46840
 C299 C 0.80214 0.04715 0.48128
 H300 H 0.81505 0.04816 0.46723
 C301 C 0.76909 0.04328 0.51710
 H302 H 0.75652 0.04146 0.53129
 C303 C 0.78481 0.06225 0.51716
 H304 H 0.78416 0.07509 0.53127
 Zn305 Zn 0.75011 0.00014 0.49976
 N306 N 0.76996 0.02694 0.49955
 C307 C 0.73107 0.01747 0.45664
 N308 N 0.73022 -0.00007 0.47300
 C309 C 0.71404 -0.01771 0.47149
 C310 C 0.69801 -0.01833 0.45284
 C311 C 0.71534 0.01752 0.43769
 C312 C 0.78619 -0.02816 0.51753
 C313 C 0.80222 -0.04682 0.51809
 C314 C 0.78483 -0.06192 0.48225
 C315 C 0.76910 -0.04297 0.48236
 N316 N 0.76999 -0.02663 0.49992
 H317 H 0.74365 0.03165 0.45845
 H318 H 0.71349 -0.03119 0.48497
 H319 H 0.68510 -0.03236 0.45186
 H320 H 0.71598 0.03162 0.42484
 H321 H 0.78677 -0.01470 0.53102
 H322 H 0.81515 -0.04783 0.53210
 H323 H 0.78416 -0.07476 0.46814
 H324 H 0.75651 -0.04115 0.46821
 C325 C 0.80150 0.06415 0.49910
 C326 C 0.69872 0.00064 0.56381
 C327 C 0.80155 -0.06382 0.50026
 C328 C 0.69864 -0.00052 0.43583
 C329 C 0.48182 0.21399 1.02823
 H330 H 0.46838 0.21345 1.01471
 C331 C 0.48116 0.19793 1.04686
 H332 H 0.46713 0.18500 1.04777
 C333 C 0.51694 0.23103 1.04323
 H334 H 0.53112 0.24362 1.04149
 C335 C 0.51695 0.21526 1.06215
 H336 H 0.53101 0.21589 1.07505
 N337 N 0.49946 0.23018 1.02681
 C338 C 0.47146 0.28609 0.98215
 H339 H 0.48497 0.28667 0.96870
 C340 C 0.45279 0.30211 0.98154
 H341 H 0.45183 0.31504 0.96753
 C342 C 0.45654 0.26901 1.01729
 H343 H 0.45833 0.25643 1.03146
 C344 C 0.43758 0.28473 1.01735
 H345 H 0.42470 0.28407 1.03144
 Zn346 Zn 0.49976 0.25007 1.00005
 N347 N 0.47294 0.26990 0.99978
 C348 C 0.48262 0.23110 0.95681
 N349 N 0.50009 0.23024 0.97324
 C350 C 0.51776 0.21408 0.97179
 C351 C 0.51846 0.19807 0.95313
 C352 C 0.48265 0.21538 0.93785
 C353 C 0.52800 0.28609 1.01804
 C354 C 0.54666 0.30213 1.01870
 C355 C 0.56191 0.28485 0.98286
 C356 C 0.54295 0.26911 0.98286
 N357 N 0.52655 0.26994 1.00037
 H358 H 0.46842 0.24366 0.95857
 H359 H 0.53118 0.21353 0.98532
 H360 H 0.53251 0.18517 0.95220
 H361 H 0.46860 0.21601 0.92494
 H362 H 0.51449 0.28663 1.03149
 H363 H 0.54760 0.31503 1.03275
 H364 H 0.57480 0.28423 0.96878
 H365 H 0.54119 0.25656 0.96867
 C366 C 0.43575 0.30146 0.99934
 C367 C 0.49892 0.19854 1.06392
 C368 C 0.56372 0.30153 1.00092
 C369 C 0.50071 0.19869 0.93605
 C370 C 0.48185 0.78620 -0.02777
 H371 H 0.46843 0.78679 -0.01423
 C372 C 0.48117 0.80219 -0.04646
 H373 H 0.46714 0.81511 -0.04740
 C374 C 0.51696 0.76911 -0.04277
 H375 H 0.53113 0.75653 -0.04101
 C376 C 0.51694 0.78480 -0.06175
 H377 H 0.53099 0.78412 -0.07468
 N378 N 0.49949 0.77002 -0.02632
 C379 C 0.47150 0.71422 0.01852
 H380 H 0.48502 0.71367 0.03196
 C381 C 0.45283 0.69821 0.01920
 H382 H 0.45187 0.68531 0.03324
 C383 C 0.45657 0.73122 -0.01664
 H384 H 0.45835 0.74377 -0.03083
 C385 C 0.43760 0.71550 -0.01662
 H386 H 0.42471 0.71613 -0.03069
 Zn387 Zn 0.49980 0.75020 0.00050
 N388 N 0.47298 0.73037 0.00085
 C389 C 0.48267 0.76926 0.04372
 N390 N 0.50014 0.77010 0.02726
 C391 C 0.51780 0.78627 0.02865
 C392 C 0.51852 0.80231 0.04729
 C393 C 0.48273 0.78501 0.06266
 C394 C 0.52804 0.71413 -0.01742
 C395 C 0.54670 0.69810 -0.01807
 C396 C 0.56196 0.71550 0.01770
 C397 C 0.54300 0.73123 0.01768
 N398 N 0.52659 0.73034 0.00020
 H399 H 0.46848 0.75670 0.04201
 H400 H 0.53122 0.78680 0.01510
 H401 H 0.53257 0.81521 0.04819
 H402 H 0.46869 0.78439 0.07560
 H403 H 0.51451 0.71355 -0.03085
 H404 H 0.54764 0.68517 -0.03208
 H405 H 0.57486 0.71616 0.03176
 H406 H 0.54124 0.74382 0.03184
 C407 C 0.43577 0.69882 0.00143
 C408 C 0.49891 0.80151 -0.06356
 C409 C 0.56377 0.69877 -0.00031
 C410 C 0.50079 0.80170 0.06441
 C411 C 1.02873 0.48151 0.21399
 H412 H 1.01523 0.46805 0.21343
 C413 C 1.04739 0.48089 0.19795
 H414 H 1.04836 0.46688 0.18502
 C415 C 1.04362 0.51666 0.23103
 H416 H 1.04183 0.53084 0.24361
 C417 C 1.06258 0.51671 0.21529
 H418 H 1.07544 0.53081 0.21592
 N419 N 1.02724 0.49914 0.23017
 C420 C 0.98243 0.47122 0.28606
 H421 H 0.96901 0.48476 0.28662
 C422 C 0.98173 0.45257 0.30209
 H423 H 0.96768 0.45165 0.31500
 C424 C 1.01756 0.45622 0.26902
 H425 H 1.03176 0.45796 0.25645
 C426 C 1.01753 0.43727 0.28475
 H427 H 1.03157 0.42435 0.28411
 Zn428 Zn 1.00042 0.49943 0.25003
 N429 N 1.00009 0.47265 0.26988
 C430 C 0.95721 0.48226 0.23104
 N431 N 0.97363 0.49974 0.23017
 C432 C 0.97218 0.51738 0.21399
 C433 C 0.95351 0.51806 0.19798
 C434 C 0.93824 0.48227 0.21533
 C435 C 1.01836 0.52767 0.28607
 C436 C 1.01903 0.54634 0.30208
 C437 C 0.98325 0.56161 0.28473
 C438 C 0.98324 0.54264 0.26901
 N439 N 1.00072 0.52622 0.26989
 H440 H 0.95897 0.46809 0.24361
 H441 H 0.98571 0.53081 0.21343
 H442 H 0.95257 0.53209 0.18507
 H443 H 0.92533 0.46822 0.21598
 H444 H 1.03179 0.51415 0.28663
 H445 H 1.03307 0.54728 0.31499
 H446 H 0.96919 0.57451 0.28407
 H447 H 0.96906 0.54088 0.25644
 C448 C 0.99947 0.43548 0.30146
 C449 C 1.06442 0.49870 0.19857
 C450 C 1.00129 0.56342 0.30143
 C451 C 0.93643 0.50031 0.19863
 C452 C -0.02827 0.48199 0.78598
 H453 H -0.01476 0.46855 0.78655
 C454 C -0.04695 0.48135 0.80200
 H455 H -0.04792 0.46733 0.81492
 C456 C -0.04318 0.51714 0.76894
 H457 H -0.04138 0.53132 0.75638
 C458 C -0.06215 0.51716 0.78467
 H459 H -0.07503 0.53124 0.78403
 N460 N -0.02678 0.49964 0.76981
 C461 C 0.01810 0.47177 0.71396
 H462 H 0.03153 0.48530 0.71344
 C463 C 0.01881 0.45314 0.69791
 H464 H 0.03286 0.45224 0.68500
 C465 C -0.01706 0.45676 0.73094
 H466 H -0.03127 0.45849 0.74350
 C467 C -0.01702 0.43783 0.71518
 H468 H -0.03108 0.42493 0.71578
 Zn469 Zn 0.00006 0.49996 0.74999
 N470 N 0.00042 0.47319 0.73012
 C471 C 0.04324 0.48281 0.76904
 N472 N 0.02682 0.50029 0.76988
 C473 C 0.02824 0.51793 0.78607
 C474 C 0.04686 0.51859 0.80214
 C475 C 0.06216 0.48281 0.78482
 C476 C -0.01787 0.52817 0.71394
 C477 C -0.01856 0.54682 0.69793
 C478 C 0.01719 0.56216 0.71531
 C479 C 0.01721 0.54320 0.73103
 N480 N -0.00024 0.52675 0.73014
 H481 H 0.04151 0.46863 0.75646
 H482 H 0.01471 0.53136 0.78661
 H483 H 0.04776 0.53261 0.81506
 H484 H 0.07507 0.46874 0.78420
 H485 H -0.03128 0.51462 0.71337
 H486 H -0.03258 0.54774 0.68500
 H487 H 0.03123 0.57509 0.71598
 H488 H 0.03138 0.54147 0.74362
 C489 C 0.00105 0.43607 0.69849
 C490 C -0.06400 0.49913 0.80137
 C491 C -0.00083 0.56393 0.69859
 C492 C 0.06393 0.50083 0.80153
 C493 C 0.11672 0.14930 0.49915
 C494 C 0.12768 0.14459 0.47485
 C495 C 0.14465 0.12760 0.47507
 C496 C 0.14901 0.11697 0.49957
 C497 C 0.12477 0.10823 0.50784
 C498 C 0.10781 0.12521 0.50762
 C499 C 0.13766 0.15512 0.51527
 C500 C 0.15465 0.13811 0.51550
 C501 C 0.09830 0.16744 0.49892
 C502 C 0.08285 0.18202 0.49875
 C503 C 0.16712 0.09853 0.49981
 C504 C 0.18167 0.08305 0.50002
 H505 H 0.12256 0.15381 0.45888
 H506 H 0.15408 0.12225 0.45930
 H507 H 0.12124 0.09026 0.51340
 H508 H 0.08975 0.12179 0.51299
 H509 H 0.13904 0.17117 0.52559
 H510 H 0.17057 0.13960 0.52600
 C511 C 0.64885 0.61683 0.00042
 C512 C 0.64440 0.62795 0.02468
 C513 C 0.62740 0.64492 0.02452
 C514 C 0.61652 0.64911 0.00011
 C515 C 0.60766 0.62484 -0.00789
 C516 C 0.62465 0.60788 -0.00773
 C517 C 0.65451 0.63764 -0.01593
 C518 C 0.63750 0.65462 -0.01609
 C519 C 0.66698 0.59841 0.00059
 C520 C 0.68156 0.58295 0.00074
 C521 C 0.59807 0.66722 -0.00006
 C522 C 0.58260 0.68178 -0.00018
 H523 H 0.65379 0.62295 0.04058
 H524 H 0.62223 0.65446 0.04028
 H525 H 0.58963 0.62128 -0.01322
 H526 H 0.62116 0.58980 -0.01292
 H527 H 0.67046 0.63893 -0.02643
 H528 H 0.63888 0.67046 -0.02673
 C529 C 0.88341 -0.14897 0.49935
 C530 C 0.89313 -0.12396 0.49592
 C531 C 0.87619 -0.10696 0.49610
 C532 C 0.85116 -0.11660 0.49969
 C533 C 0.85238 -0.13090 0.52263
 C534 C 0.86934 -0.14792 0.52245
 C535 C 0.86481 -0.15201 0.47993
 C536 C 0.84785 -0.13498 0.48011
 C537 C 0.90181 -0.16712 0.49917
 C538 C 0.91726 -0.18171 0.49904
 C539 C 0.83307 -0.09814 0.49989
 C540 C 0.81853 -0.08265 0.50006
 H541 H 0.91170 -0.11995 0.49354
 H542 H 0.88025 -0.08839 0.49388
 H543 H 0.84092 -0.12794 0.53767
 H544 H 0.87240 -0.15954 0.53734
 H545 H 0.86494 -0.16627 0.46719
 H546 H 0.83345 -0.13466 0.46752
 C547 C 0.35074 0.38347 1.00034
 C548 C 0.34972 0.36688 1.02169
 C549 C 0.36671 0.34988 1.02147
 C550 C 0.38304 0.35115 0.99992
 C551 C 0.39292 0.37633 1.00008
 C552 C 0.37595 0.39331 1.00030
 C553 C 0.34953 0.36722 0.97874
 C554 C 0.36651 0.35022 0.97852
 C555 C 0.33262 0.40190 1.00058
 C556 C 0.31806 0.41737 1.00079
 C557 C 0.40147 0.33303 0.99969
 C558 C 0.41693 0.31845 0.99952
 H559 H 0.33679 0.36833 1.03573
 H560 H 0.36832 0.33678 1.03532
 H561 H 0.41161 0.38047 1.00001
 H562 H 0.38011 0.41198 1.00043
 H563 H 0.33647 0.36890 0.96486
 H564 H 0.36801 0.33734 0.96445
 C565 C 0.88341 0.14927 0.49978
 C566 C 0.86607 0.15109 0.52048
 C567 C 0.84909 0.13408 0.52035
 C568 C 0.85114 0.11693 0.49952
 C569 C 0.87631 0.10713 0.50094
 C570 C 0.89327 0.12412 0.50107
 C571 C 0.86792 0.14960 0.47760
 C572 C 0.85094 0.13259 0.47746
 C573 C 0.90183 0.16741 0.49991
 C574 C 0.91729 0.18200 0.50002
 C575 C 0.83303 0.09847 0.49938
 C576 C 0.81848 0.08299 0.49926
 H577 H 0.86703 0.16456 0.53404
 H578 H 0.83551 0.13298 0.53379
 H579 H 0.88047 0.08847 0.50176
 H580 H 0.91194 0.12001 0.50201
 H581 H 0.87008 0.16210 0.46327
 H582 H 0.83856 0.13052 0.46302
 C583 C 0.35071 0.61685 0.00079
 C584 C 0.36666 0.61643 -0.02107
 C585 C 0.38364 0.63340 -0.02092
 C586 C 0.38302 0.64915 0.00107
 C587 C 0.38460 0.63206 0.02198
 C588 C 0.36761 0.61509 0.02183
 C589 C 0.34082 0.64201 0.00181
 C590 C 0.35783 0.65901 0.00195
 C591 C 0.33258 0.59841 0.00062
 C592 C 0.31801 0.58294 0.00046
 C593 C 0.40146 0.66727 0.00122
 C594 C 0.41694 0.68183 0.00133
 H595 H 0.36476 0.60391 -0.03542
 H596 H 0.39629 0.63543 -0.03515
 H597 H 0.39787 0.63321 0.03571
 H598 H 0.36634 0.60170 0.03544
 H599 H 0.32214 0.64612 0.00236
 H600 H 0.35371 0.67768 0.00263
 C601 C 0.11663 -0.14888 0.50020
 C602 C 0.11366 -0.13078 0.48033
 C603 C 0.13061 -0.11378 0.48019
 C604 C 0.14890 -0.11653 0.49993
 C605 C 0.15869 -0.14159 0.49699
 C606 C 0.14171 -0.15861 0.49713
 C607 C 0.11750 -0.13427 0.52295
 C608 C 0.13446 -0.11726 0.52281
 C609 C 0.09822 -0.16704 0.50036
 C610 C 0.08277 -0.18163 0.50048
 C611 C 0.16700 -0.09807 0.49977
 C612 C 0.18155 -0.08259 0.49962
 H613 H 0.09948 -0.13128 0.46749
 H614 H 0.13096 -0.09972 0.46722
 H615 H 0.17729 -0.14560 0.49498
 H616 H 0.14577 -0.17721 0.49524
 H617 H 0.10583 -0.13704 0.53787
 H618 H 0.13732 -0.10547 0.53761
 C619 C 0.64876 0.38352 1.00025
 C620 C 0.64399 0.37318 1.02480
 C621 C 0.62699 0.35620 1.02495
 C622 C 0.61644 0.35122 1.00054
 C623 C 0.63764 0.34522 0.98480
 C624 C 0.65464 0.36221 0.98466
 C625 C 0.62467 0.39219 0.99151
 C626 C 0.60769 0.37522 0.99166
 C627 C 0.66689 0.40196 1.00009
 C628 C 0.68146 0.41742 0.99994
 C629 C 0.59800 0.33310 1.00069
 C630 C 0.58253 0.31853 1.00080
 H631 H 0.65316 0.37869 1.04066
 H632 H 0.62161 0.34716 1.04093
 H633 H 0.63917 0.32905 0.97469
 H634 H 0.67073 0.36060 0.97441
 H635 H 0.62125 0.41010 0.98570
 H636 H 0.58973 0.37859 0.98597
 C637 C 0.49921 0.11633 1.14870
 C638 C 0.51663 0.11162 1.12853
 C639 C 0.51659 0.12865 1.11162
 C640 C 0.49914 0.14873 1.11650
 C641 C 0.50571 0.15792 1.14110
 C642 C 0.50574 0.14087 1.15804
 C643 C 0.47520 0.11956 1.13664
 C644 C 0.47517 0.13659 1.11972
 C645 C 0.49923 0.09784 1.16676
 C646 C 0.49923 0.08233 1.18127
 C647 C 0.49909 0.16691 1.09813
 C648 C 0.49902 0.18152 1.08270
 H649 H 0.52802 0.09627 1.12763
 H650 H 0.52795 0.12788 1.09622
 H651 H 0.50995 0.17619 1.14487
 H652 H 0.51002 0.14453 1.17632
 H653 H 0.45960 0.10937 1.14102
 H654 H 0.45953 0.14100 1.10960
 C655 C -0.00075 0.64894 0.61662
 C656 C -0.01161 0.65706 0.64005
 C657 C -0.01160 0.64008 0.65705
 C658 C -0.00073 0.61666 0.64893
 C659 C 0.02400 0.62309 0.64002
 C660 C 0.02399 0.64006 0.62302
 C661 C -0.01463 0.62675 0.60978
 C662 C -0.01462 0.60979 0.62676
 C663 C -0.00077 0.66705 0.59817
 C664 C -0.00081 0.68159 0.58268
 C665 C -0.00073 0.59823 0.66706
 C666 C -0.00076 0.58276 0.68162
 H667 H -0.01866 0.67460 0.64302
 H668 H -0.01864 0.64306 0.67459
 H669 H 0.04011 0.61504 0.64650
 H670 H 0.04009 0.64655 0.61495
 H671 H -0.02369 0.62456 0.59307
 H672 H -0.02367 0.59307 0.62459
 C673 C 0.49909 0.88330 -0.14875
 C674 C 0.48741 0.89114 -0.12563
 C675 C 0.48740 0.87420 -0.10863
 C676 C 0.49906 0.85106 -0.11639
 C677 C 0.52385 0.85811 -0.12465
 C678 C 0.52387 0.87506 -0.14166
 C679 C 0.48596 0.86076 -0.15594
 C680 C 0.48595 0.84380 -0.13892
 C681 C 0.49910 0.90171 -0.16690
 C682 C 0.49908 0.91716 -0.18148
 C683 C 0.49903 0.83298 -0.09792
 C684 C 0.49899 0.81845 -0.08242
 H685 H 0.47981 0.90848 -0.12286
 H686 H 0.47978 0.87703 -0.09130
 H687 H 0.53998 0.85043 -0.11776
 H688 H 0.54001 0.88191 -0.14935
 H689 H 0.47745 0.85833 -0.17290
 H690 H 0.47742 0.82684 -0.14130
 C691 C 0.99944 0.35055 0.38351
 C692 C 0.98222 0.37083 0.38841
 C693 C 0.98226 0.38778 0.37141
 C694 C 0.99950 0.38280 0.35116
 C695 C 0.99266 0.35828 0.34199
 C696 C 0.99263 0.34131 0.35901
 C697 C 1.02351 0.36243 0.38010
 C698 C 1.02355 0.37938 0.36309
 C699 C 0.99939 0.33246 0.40198
 C700 C 0.99932 0.31793 0.41748
 C701 C 0.99953 0.40120 0.33302
 C702 C 0.99952 0.41666 0.31844
 H703 H 0.97097 0.37179 0.40387
 H704 H 0.97104 0.40325 0.37231
 H705 H 0.98824 0.35457 0.32374
 H706 H 0.98818 0.32307 0.35535
 H707 H 1.03917 0.35790 0.39013
 H708 H 1.03923 0.38937 0.35856
 C709 C 0.50085 0.88373 0.14939
 C710 C 0.50758 0.89289 0.12484
 C711 C 0.50754 0.87591 0.10789
 C712 C 0.50078 0.85140 0.11711
 C713 C 0.47675 0.85478 0.12911
 C714 C 0.47679 0.87178 0.14608
 C715 C 0.51813 0.86350 0.15430
 C716 C 0.51810 0.84649 0.13732
 C717 C 0.50089 0.90218 0.16749
 C718 C 0.50094 0.91767 0.18204
 C719 C 0.50076 0.83326 0.09869
 C720 C 0.50076 0.81869 0.08323
 H721 H 0.51199 0.91113 0.12110
 H722 H 0.51193 0.87960 0.08963
 H723 H 0.46110 0.84470 0.12468
 H724 H 0.46116 0.87626 0.15620
 H725 H 0.52938 0.86260 0.16974
 H726 H 0.52932 0.83102 0.13822
 C727 C 0.00090 0.35130 0.61624
 C728 C 0.01694 0.34550 0.63724
 C729 C 0.01696 0.36243 0.65430
 C730 C 0.00093 0.38349 0.64866
 C731 C -0.02349 0.37273 0.64411
 C732 C -0.02350 0.35580 0.62706
 C733 C 0.00928 0.37549 0.60749
 C734 C 0.00929 0.39240 0.62452
 C735 C 0.00089 0.33325 0.59774
 C736 C 0.00091 0.31874 0.58222
 C737 C 0.00095 0.40186 0.66685
 C738 C 0.00099 0.41728 0.68146
 H739 H 0.02735 0.32951 0.63860
 H740 H 0.02738 0.36094 0.67027
 H741 H -0.03936 0.37792 0.65347
 H742 H -0.03938 0.34650 0.62182
 H743 H 0.01473 0.37902 0.58949
 H744 H 0.01476 0.41041 0.62111
 C745 C 0.50068 0.11667 0.85107
 C746 C 0.48450 0.13760 0.84540
 C747 C 0.48448 0.15461 0.86238
 C748 C 0.50064 0.14900 0.88334
 C749 C 0.52503 0.14460 0.87244
 C750 C 0.52505 0.12760 0.85547
 C751 C 0.49248 0.10782 0.87528
 C752 C 0.49245 0.12481 0.89224
 C753 C 0.50072 0.09821 0.83297
 C754 C 0.50077 0.08273 0.81842
 C755 C 0.50064 0.16714 0.90176
 C756 C 0.50066 0.18171 0.91722
 H757 H 0.47400 0.13894 0.82947
 H758 H 0.47396 0.17053 0.86099
 H759 H 0.54087 0.15402 0.87757
 H760 H 0.54091 0.12245 0.84607
 H761 H 0.48714 0.08978 0.87880
 H762 H 0.48710 0.12132 0.91028
 C763 C 1.00106 0.64859 0.38326
 C764 C 0.99458 0.62403 0.39255
 C765 C 0.99460 0.60702 0.37561
 C766 C 1.00112 0.61622 0.35102
 C767 C 1.02508 0.62839 0.35418
 C768 C 1.02506 0.64541 0.37114
 C769 C 0.98359 0.65331 0.36315
 C770 C 0.98362 0.63629 0.34619
 C771 C 1.00104 0.66674 0.40166
 C772 C 1.00105 0.68133 0.41711
 C773 C 1.00116 0.59775 0.33293
 C774 C 1.00121 0.58226 0.31839
 H775 H 0.99032 0.62031 0.41084
 H776 H 0.99038 0.58875 0.37939
 H777 H 1.04070 0.62403 0.34400
 H778 H 1.04064 0.65563 0.37547
 H779 H 0.97222 0.66868 0.36229
 H780 H 0.97227 0.63707 0.33080
 C781 C 1.14936 0.49973 0.11643
 C782 C 1.13470 0.47700 0.11681
 C783 C 1.11773 0.47677 0.13382
 C784 C 1.11709 0.49930 0.14879
 C785 C 1.11432 0.51947 0.13098
 C786 C 1.13127 0.51970 0.11398
 C787 C 1.15918 0.50219 0.14152
 C788 C 1.14220 0.50196 0.15855
 C789 C 1.16746 0.49999 0.09796
 C790 C 1.18201 0.50021 0.08246
 C791 C 1.09868 0.49906 0.16695
 C792 C 1.08322 0.49888 0.18154
 H793 H 1.13741 0.46236 0.10480
 H794 H 1.10592 0.46194 0.13637
 H795 H 1.10027 0.53245 0.13168
 H796 H 1.13175 0.53287 0.10011
 H797 H 1.17780 0.50395 0.14556
 H798 H 1.14627 0.50353 0.17718
 C799 C 0.61675 -0.00036 0.64892
 C800 C 0.61011 0.01422 0.62713
 C801 C 0.62708 0.01442 0.61014
 C802 C 0.64905 0.00002 0.61658
 C803 C 0.63976 -0.02473 0.62233
 C804 C 0.62278 -0.02493 0.63933
 C805 C 0.64035 0.00989 0.65730
 C806 C 0.65735 0.01009 0.64029
 C807 C 0.59832 -0.00057 0.66706
 C808 C 0.58285 -0.00073 0.68164
 C809 C 0.66717 0.00023 0.59813
 C810 C 0.68173 0.00042 0.58265
 H811 H 0.59353 0.02359 0.62522
 H812 H 0.62504 0.02396 0.59368
 H813 H 0.64599 -0.04070 0.61382
 H814 H 0.61446 -0.04107 0.64538
 H815 H 0.64345 0.01641 0.67502
 H816 H 0.67500 0.01677 0.64344
 C817 C -0.14901 0.50001 0.88344
 C818 C -0.12720 0.48542 0.89004
 C819 C -0.11024 0.48522 0.87305
 C820 C -0.11672 0.49963 0.85109
 C821 C -0.12246 0.52438 0.86040
 C822 C -0.13943 0.52458 0.87740
 C823 C -0.15743 0.48975 0.85985
 C824 C -0.14044 0.48956 0.84284
 C825 C -0.16713 0.50022 0.90189
 C826 C -0.18168 0.50041 0.91738
 C827 C -0.09829 0.49943 0.83295
 C828 C -0.08282 0.49928 0.81837
 H829 H -0.12526 0.47605 0.90661
 H830 H -0.09377 0.47569 0.87506
 H831 H -0.11396 0.54035 0.85416
 H832 H -0.14547 0.54071 0.88573
 H833 H -0.17517 0.48324 0.85679
 H834 H -0.14362 0.48288 0.82519
 C835 C 0.38342 -0.00070 0.35078
 C836 C 0.39330 -0.00075 0.37596
 C837 C 0.37634 -0.00051 0.39295
 C838 C 0.35113 -0.00024 0.38312
 C839 C 0.34975 -0.02174 0.36675
 C840 C 0.36674 -0.02198 0.34974
 C841 C 0.36724 0.02096 0.34964
 C842 C 0.35026 0.02120 0.36665
 C843 C 0.40184 -0.00095 0.33263
 C844 C 0.41730 -0.00113 0.31804
 C845 C 0.33302 0.00002 0.40158
 C846 C 0.31845 0.00024 0.41706
 H847 H 0.41199 -0.00096 0.38008
 H848 H 0.38050 -0.00051 0.41163
 H849 H 0.33660 -0.03554 0.36837
 H850 H 0.36813 -0.03599 0.33678
 H851 H 0.36896 0.03486 0.33661
 H852 H 0.33743 0.03531 0.36819
 C853 C 0.14871 0.50015 0.88377
 C854 C 0.12373 0.49588 0.89326
 C855 C 0.10681 0.49603 0.87624
 C856 C 0.11650 0.50043 0.85137
 C857 C 0.13538 0.48140 0.84770
 C858 C 0.15232 0.48125 0.86475
 C859 C 0.14717 0.52353 0.87024
 C860 C 0.13024 0.52368 0.85320
 C861 C 0.16677 0.49998 0.90226
 C862 C 0.18130 0.49984 0.91777
 C863 C 0.09812 0.50059 0.83319
 C864 C 0.08270 0.50071 0.81858
 H865 H 0.11968 0.49298 0.91174
 H866 H 0.08827 0.49326 0.88015
 H867 H 0.13545 0.46914 0.83302
 H868 H 0.16691 0.46886 0.86466
 H869 H 0.15841 0.53862 0.87372
 H870 H 0.12696 0.53890 0.84209
 C871 C 0.61673 0.00003 0.35074
 C872 C 0.63925 -0.01311 0.34348
 C873 C 0.65623 -0.01322 0.36049
 C874 C 0.64901 -0.00017 0.38307
 C875 C 0.62583 -0.01180 0.39081
 C876 C 0.60887 -0.01169 0.37382
 C877 C 0.62504 0.02476 0.35791
 C878 C 0.64201 0.02466 0.37491
 C879 C 0.59831 0.00014 0.33261
 C880 C 0.58285 0.00023 0.31803
 C881 C 0.66712 -0.00028 0.40152
 C882 C 0.68167 -0.00038 0.41700
 H883 H 0.64165 -0.02158 0.32649
 H884 H 0.67318 -0.02177 0.35806
 H885 H 0.62299 -0.01946 0.40811
 H886 H 0.59151 -0.01927 0.37658
 H887 H 0.61821 0.04092 0.35029
 H888 H 0.64972 0.04073 0.38184
 C889 C 0.85127 0.49985 0.11679
 C890 C 0.84285 0.50981 0.14051
 C891 C 0.85987 0.50991 0.15747
 C892 C 0.88363 0.50004 0.14904
 C893 C 0.88999 0.51470 0.12722
 C894 C 0.87299 0.51461 0.11027
 C895 C 0.86097 0.47526 0.12254
 C896 C 0.87798 0.47536 0.13949
 C897 C 0.83311 0.49974 0.09839
 C898 C 0.81852 0.49963 0.08295
 C899 C 0.90209 0.50014 0.16713
 C900 C 0.91758 0.50022 0.18167
 H901 H 0.82509 0.51621 0.14369
 H902 H 0.85670 0.51639 0.17519
 H903 H 0.90642 0.52434 0.12525
 H904 H 0.87485 0.52416 0.09380
 H905 H 0.85498 0.45919 0.11406
 H906 H 0.88657 0.45937 0.14554
 C907 C 0.38335 0.00038 0.64892
 C908 C 0.35842 -0.00395 0.65855
 C909 C 0.34143 -0.00407 0.64155
 C910 C 0.35106 0.00014 0.61661
 C911 C 0.37004 -0.01881 0.61310
 C912 C 0.38701 -0.01869 0.63008
 C913 C 0.38163 0.02359 0.63515
 C914 C 0.36466 0.02347 0.61817
 C915 C 0.40178 0.00051 0.66705
 C916 C 0.41724 0.00061 0.68161
 C917 C 0.33294 -0.00001 0.59817
 C918 C 0.31838 -0.00014 0.58269
 H919 H 0.35446 -0.00667 0.67708
 H920 H 0.32291 -0.00690 0.64551
 H921 H 0.37014 -0.03126 0.59856
 H922 H 0.40164 -0.03103 0.63008
 H923 H 0.39276 0.03881 0.63847
 H924 H 0.36124 0.03858 0.60694
   
