data_POSCAR
  _audit_creation_date              2014-09-24
  _audit_creation_method            'ToBaCCo'
  _symmetry_space_group_name_H-M    'P1'
  _symmetry_Int_Tables_number       1
  _symmetry_cell_setting            triclinic
  loop_
  _symmetry_equiv_pos_as_xyz
 x,y,z
_cell_length_a 49.9443
_cell_length_b 50.9138
_cell_length_c 27.1957
_cell_angle_alpha 91.780100
_cell_angle_beta 87.222300
_cell_angle_gamma 89.899500
loop_
  _atom_site_label
  _atom_site_type_symbol
  _atom_site_fract_x
  _atom_site_fract_y
  _atom_site_fract_z
C1 C 1.27691 0.21690 0.25849
 C2 C 1.25460 0.23026 0.24194
 C3 C 1.23297 0.21591 0.22424
 C4 C 1.23327 0.18840 0.22283
 C5 C 1.25564 0.17527 0.23988
 C6 C 1.27799 0.18914 0.25740
 C7 C 1.25420 0.25930 0.24023
 C8 C 1.27607 0.27291 0.21855
 C9 C 1.27436 0.30014 0.21084
 C10 C 1.25063 0.31340 0.22687
 C11 C 1.22930 0.30028 0.25014
 C12 C 1.23106 0.27327 0.25692
 H13 H 1.29376 0.22843 0.27018
 H14 H 1.21630 0.22629 0.20961
 H15 H 1.29354 0.26187 0.20473
 H16 H 1.21427 0.26309 0.27435
 H17 H 1.25493 0.15407 0.24116
 H18 H 1.24900 0.33452 0.22409
 C19 C 0.77636 -0.28169 0.28045
 C20 C 0.75700 -0.26745 0.25628
 C21 C 0.73794 -0.28087 0.22893
 C22 C 0.73868 -0.30830 0.22429
 C23 C 0.75771 -0.32229 0.24910
 C24 C 0.77657 -0.30947 0.27830
 C25 C 0.75740 -0.23844 0.25766
 C26 C 0.78045 -0.22528 0.24058
 C27 C 0.78084 -0.19778 0.23887
 C28 C 0.75790 -0.18345 0.25568
 C29 C 0.73461 -0.19631 0.27377
 C30 C 0.73459 -0.22396 0.27418
 H31 H 0.79030 -0.27086 0.30252
 H32 H 0.72327 -0.26993 0.20969
 H33 H 0.79801 -0.23657 0.22793
 H34 H 0.71707 -0.23437 0.28816
 H35 H 0.75808 -0.34344 0.24390
 H36 H 0.75796 -0.16227 0.25311
 C37 C 0.77413 0.21766 -0.23767
 C38 C 0.75318 0.23027 -0.26025
 C39 C 0.73151 0.21551 -0.27678
 C40 C 0.73037 0.18827 -0.27096
 C41 C 0.75127 0.17593 -0.24747
 C42 C 0.77319 0.19042 -0.23048
 C43 C 0.75339 0.25895 -0.26697
 C44 C 0.77480 0.27103 -0.29309
 C45 C 0.77278 0.29752 -0.30637
 C46 C 0.74960 0.31178 -0.29071
 C47 C 0.72911 0.30041 -0.26194
 C48 C 0.73091 0.27393 -0.25049
 H49 H 0.79066 0.22919 -0.22443
 H50 H 0.71587 0.22530 -0.29561
 H51 H 0.79200 0.25928 -0.30591
 H52 H 0.71464 0.26486 -0.22938
 H53 H 0.75053 0.15492 -0.24257
 H54 H 0.74816 0.33256 -0.29781
 C55 C 1.27301 -0.28494 -0.21118
 C56 C 1.25547 -0.27012 -0.23844
 C57 C 1.23673 -0.28294 -0.26745
 C58 C 1.23569 -0.31040 -0.26998
 C59 C 1.25239 -0.32492 -0.24112
 C60 C 1.27109 -0.31262 -0.21092
 C61 C 1.25687 -0.24115 -0.23750
 C62 C 1.28043 -0.22865 -0.25405
 C63 C 1.28155 -0.20116 -0.25616
 C64 C 1.25880 -0.18623 -0.24039
 C65 C 1.23504 -0.19844 -0.22280
 C66 C 1.23432 -0.22605 -0.22192
 H67 H 1.28697 -0.27464 -0.18829
 H68 H 1.22362 -0.27156 -0.28929
 H69 H 1.29778 -0.24044 -0.26598
 H70 H 1.21639 -0.23595 -0.20834
 H71 H 1.25129 -0.34615 -0.24395
 H72 H 1.25938 -0.16508 -0.24339
 C73 C 0.21773 0.28307 0.73105
 C74 C 0.22955 0.25982 0.74593
 C75 C 0.21315 0.23906 0.76219
 C76 C 0.18483 0.24181 0.76557
 C77 C 0.17373 0.26556 0.74986
 C78 C 0.18995 0.28627 0.73354
 C79 C 0.25907 0.25918 0.74963
 C80 C 0.27146 0.28050 0.77327
 C81 C 0.29952 0.28252 0.77417
 C82 C 0.31505 0.26207 0.75103
 C83 C 0.30305 0.24045 0.72743
 C84 C 0.27493 0.23886 0.72753
 H85 H 0.23038 0.29926 0.71957
 H86 H 0.22277 0.22188 0.77584
 H87 H 0.25873 0.29518 0.79224
 H88 H 0.26550 0.22260 0.70849
 H89 H 0.15226 0.26808 0.74893
 H90 H 0.33670 0.26320 0.74920
 C91 C 0.71136 0.77053 0.73712
 C92 C 0.72647 0.75060 0.75734
 C93 C 0.71388 0.72720 0.77158
 C94 C 0.68655 0.72277 0.76441
 C95 C 0.67188 0.74302 0.74385
 C96 C 0.68390 0.76670 0.72878
 C97 C 0.75611 0.75217 0.75769
 C98 C 0.76931 0.77345 0.78024
 C99 C 0.79745 0.77314 0.78280
 C100 C 0.81210 0.75179 0.76134
 C101 C 0.79924 0.73085 0.73768
 C102 C 0.77130 0.73124 0.73607
 H103 H 0.72167 0.78789 0.72427
 H104 H 0.72621 0.71181 0.78530
 H105 H 0.75772 0.78962 0.79718
 H106 H 0.76123 0.71528 0.71726
 H107 H 0.65040 0.74105 0.74230
 H108 H 0.83372 0.75151 0.76307
 C109 C 0.71581 0.28102 0.23384
 C110 C 0.72849 0.25798 0.24790
 C111 C 0.71283 0.23688 0.26483
 C112 C 0.68470 0.23927 0.26950
 C113 C 0.67247 0.26258 0.25538
 C114 C 0.68787 0.28362 0.23775
 C115 C 0.75805 0.25781 0.25000
 C116 C 0.77039 0.27888 0.27444
 C117 C 0.79832 0.28092 0.27424
 C118 C 0.81408 0.26149 0.24914
 C119 C 0.80219 0.24010 0.22470
 C120 C 0.77402 0.23809 0.22593
 H121 H 0.72795 0.29746 0.22177
 H122 H 0.72255 0.21938 0.27713
 H123 H 0.75807 0.29374 0.29397
 H124 H 0.76461 0.22197 0.20645
 H125 H 0.65083 0.26436 0.25832
 H126 H 0.83573 0.26311 0.24823
 C127 C 0.20997 0.76999 0.23377
 C128 C 0.22557 0.75006 0.25272
 C129 C 0.21355 0.72620 0.26573
 C130 C 0.18629 0.72133 0.25856
 C131 C 0.17109 0.74159 0.23921
 C132 C 0.18253 0.76581 0.22553
 C133 C 0.25519 0.75219 0.25284
 C134 C 0.26803 0.77316 0.27709
 C135 C 0.29618 0.77320 0.27955
 C136 C 0.31117 0.75259 0.25627
 C137 C 0.29866 0.73202 0.23088
 C138 C 0.27071 0.73201 0.22939
 H139 H 0.21992 0.78771 0.22177
 H140 H 0.22628 0.71083 0.27839
 H141 H 0.25617 0.78874 0.29542
 H142 H 0.26089 0.71632 0.20940
 H143 H 0.14966 0.73911 0.23767
 H144 H 0.33280 0.75257 0.25803
 O145 O 1.04956 -0.03255 0.08059
 O146 O 1.02557 -0.06361 0.03851
 C147 C 1.04353 -0.05676 0.06951
 O148 O 0.95219 0.03969 0.08663
 O149 O 0.97628 0.06792 0.03760
 C150 C 0.95778 0.06303 0.07139
 O151 O 0.95657 -0.03264 0.09641
 O152 O 0.97944 -0.06349 0.04727
 C153 C 0.96264 -0.05676 0.08351
 O154 O 1.05293 0.04016 0.06775
 O155 O 1.02519 0.06838 0.02968
 C156 C 1.04589 0.06342 0.05508
 Zr157 Zr 1.03573 0.00318 0.05310
 O158 O 1.03686 0.00877 0.13044
 O159 O 1.07802 0.00142 0.04452
 Zr160 Zr 0.96882 0.00288 0.06451
 O161 O 0.97429 0.00699 0.14092
 O162 O 0.92667 0.00079 0.07524
 O163 O 1.00273 -0.02038 0.06966
 O164 O 1.00222 0.02668 0.06649
 O165 O 1.04886 0.03485 -0.09611
 O166 O 1.02366 0.06549 -0.05066
 C167 C 1.04259 0.05895 -0.08326
 O168 O 0.95189 -0.03871 -0.08181
 O169 O 0.97738 -0.06636 -0.03813
 C170 C 0.95859 -0.06195 -0.06834
 O171 O 0.94888 0.03435 -0.08074
 O172 O 0.97492 0.06543 -0.04340
 C173 C 0.95520 0.05856 -0.07052
 O174 O 1.04689 -0.03814 -0.09678
 O175 O 1.02365 -0.06615 -0.04601
 C176 C 1.04124 -0.06148 -0.08149
 Zr177 Zr 1.03275 -0.00089 -0.07074
 O178 O 1.02833 -0.00049 -0.14780
 O179 O 1.07493 -0.00267 -0.08131
 Zr180 Zr 0.96579 -0.00126 -0.05936
 O181 O 0.96447 -0.00115 -0.13706
 O182 O 0.92356 -0.00257 -0.04959
 Zr183 Zr 1.00121 -0.03850 -0.00088
 Zr184 Zr 1.00027 0.04052 -0.00524
 O185 O 0.99882 0.02193 -0.07520
 O186 O 0.99935 -0.02519 -0.07333
 O187 O 1.03919 0.02436 -0.01096
 O188 O 0.96254 -0.02201 0.00475
 O189 O 1.03953 -0.02159 -0.00827
 O190 O 0.96172 0.02404 0.00210
 H191 H 1.00284 0.03984 0.09405
 H192 H 0.94667 -0.03356 0.00833
 H193 H 0.99814 0.03317 -0.10423
 H194 H 1.05570 -0.03293 -0.00997
 H195 H 0.91905 0.00725 0.04494
 H196 H 0.91649 -0.00353 -0.08304
 H197 H 0.97472 -0.01663 -0.15045
 H198 H 1.02138 -0.01785 -0.15833
 H199 H 1.08236 0.00512 -0.05112
 H200 H 1.08486 0.00258 0.07814
 H201 H 1.02509 -0.00469 0.14556
 H202 H 0.95607 0.00743 0.15707
 O203 O 1.03476 0.55360 0.58316
 O204 O 1.06600 0.52850 0.53836
 C205 C 1.05926 0.54796 0.56853
 O206 O 0.96535 0.45526 0.60387
 O207 O 0.93420 0.47569 0.55880
 C208 C 0.94099 0.45879 0.59081
 O209 O 1.03930 0.46319 0.60357
 O210 O 1.06813 0.48352 0.54866
 C211 C 1.06321 0.46885 0.58625
 O212 O 0.96026 0.55377 0.58120
 O213 O 0.93143 0.52329 0.54950
 C214 C 0.93644 0.54536 0.57233
 Zr215 Zr 0.99814 0.53709 0.56259
 O216 O 0.99485 0.54234 0.64019
 O217 O 0.99801 0.57810 0.55218
 Zr218 Zr 1.00144 0.47246 0.57748
 O219 O 0.99921 0.48256 0.65349
 O220 O 1.00560 0.43205 0.59126
 O221 O 1.02407 0.50661 0.57723
 O222 O 0.97583 0.50441 0.58120
 O223 O 0.96062 0.54072 0.41956
 O224 O 0.93186 0.51745 0.46995
 C225 C 0.93675 0.53470 0.43656
 O226 O 1.03934 0.44901 0.42576
 O227 O 1.06823 0.47681 0.46447
 C228 C 1.06323 0.45695 0.43518
 O229 O 0.96537 0.44221 0.44228
 O230 O 0.93391 0.47013 0.47953
 C231 C 0.94087 0.44858 0.45553
 O232 O 1.03531 0.54016 0.40688
 O233 O 1.06608 0.52155 0.45530
 C234 C 1.05973 0.53626 0.41949
 Zr235 Zr 0.99847 0.52692 0.43887
 O236 O 0.99544 0.51768 0.36287
 O237 O 0.99855 0.56753 0.42490
 Zr238 Zr 1.00156 0.46219 0.45385
 O239 O 0.99799 0.45639 0.37701
 O240 O 1.00564 0.42140 0.46435
 Zr241 Zr 1.04011 0.50140 0.50445
 Zr242 Zr 0.95965 0.49789 0.51199
 O243 O 0.97616 0.49280 0.43972
 O244 O 1.02431 0.49484 0.43456
 O245 O 0.97454 0.53609 0.50181
 O246 O 1.02495 0.46340 0.51451
 O247 O 1.02119 0.53793 0.49759
 O248 O 0.97827 0.46119 0.51898
 H249 H 0.96313 0.50609 0.61029
 H250 H 1.03744 0.44840 0.51677
 H251 H 0.96358 0.48995 0.41299
 H252 H 1.03201 0.55405 0.49322
 H253 H 1.00047 0.42240 0.56101
 H254 H 1.00566 0.41271 0.43120
 H255 H 1.01293 0.46589 0.36033
 H256 H 1.01323 0.51137 0.34986
 H257 H 0.99256 0.57664 0.45619
 H258 H 0.99752 0.58666 0.58547
 H259 H 1.01007 0.53288 0.65361
 H260 H 0.99989 0.46573 0.67070
 O261 O 0.54875 -0.03404 0.58343
 O262 O 0.52455 -0.06515 0.54208
 C263 C 0.54269 -0.05824 0.57264
 O264 O 0.45110 0.03777 0.59059
 O265 O 0.47503 0.06608 0.54146
 C266 C 0.45663 0.06115 0.57542
 O267 O 0.45564 -0.03468 0.60003
 O268 O 0.47839 -0.06546 0.55048
 C269 C 0.46171 -0.05879 0.58695
 O270 O 0.55168 0.03833 0.57077
 O271 O 0.52399 0.06661 0.53279
 C272 C 0.54472 0.06161 0.55816
 Zr273 Zr 0.53458 0.00140 0.55581
 O274 O 0.53611 0.00691 0.63311
 O275 O 0.57684 -0.00023 0.54611
 Zr276 Zr 0.46772 0.00096 0.56819
 O277 O 0.47350 0.00498 0.64451
 O278 O 0.42560 -0.00121 0.57962
 O279 O 0.50170 -0.02226 0.57274
 O280 O 0.50109 0.02483 0.56979
 O281 O 0.54695 0.03320 0.40654
 O282 O 0.52183 0.06380 0.45222
 C283 C 0.54055 0.05730 0.41916
 O284 O 0.45031 -0.04045 0.42198
 O285 O 0.47594 -0.06822 0.46518
 C286 C 0.45706 -0.06372 0.43517
 O287 O 0.44728 0.03254 0.42321
 O288 O 0.47331 0.06366 0.46043
 C289 C 0.45361 0.05675 0.43329
 O290 O 0.54516 -0.03985 0.40576
 O291 O 0.52219 -0.06797 0.45677
 C292 C 0.53960 -0.06322 0.42102
 Zr293 Zr 0.53113 -0.00262 0.43216
 O294 O 0.52649 -0.00218 0.35516
 O295 O 0.57330 -0.00434 0.42100
 Zr296 Zr 0.46420 -0.00303 0.44456
 O297 O 0.46233 -0.00288 0.36695
 O298 O 0.42201 -0.00433 0.45519
 Zr299 Zr 0.49992 -0.04039 0.50223
 Zr300 Zr 0.49886 0.03875 0.49818
 O301 O 0.49715 0.02015 0.42825
 O302 O 0.49773 -0.02692 0.42994
 O303 O 0.53779 0.02265 0.49182
 O304 O 0.46124 -0.02390 0.50851
 O305 O 0.53818 -0.02339 0.49441
 O306 O 0.46034 0.02222 0.50605
 H307 H 0.50180 0.03795 0.59739
 H308 H 0.44538 -0.03546 0.51223
 H309 H 0.49631 0.03135 0.39920
 H310 H 0.55436 -0.03473 0.49248
 H311 H 0.41782 0.00529 0.54950
 H312 H 0.41473 -0.00531 0.42191
 H313 H 0.47287 -0.01811 0.35326
 H314 H 0.51947 -0.01952 0.34469
 H315 H 0.58085 0.00371 0.45084
 H316 H 0.58396 0.00101 0.57951
 H317 H 0.52419 -0.00637 0.64840
 H318 H 0.45534 0.00540 0.66089
 O319 O 0.53700 0.55402 0.08118
 O320 O 0.56823 0.52776 0.03899
 C321 C 0.56153 0.54742 0.06876
 O322 O 0.46388 0.45861 0.09713
 O323 O 0.43459 0.48024 0.04998
 C324 C 0.43994 0.46340 0.08305
 O325 O 0.53808 0.46332 0.10129
 O326 O 0.56875 0.48265 0.04835
 C327 C 0.56250 0.46805 0.08551
 O328 O 0.46303 0.55651 0.07392
 O329 O 0.43391 0.52719 0.03957
 C330 C 0.43917 0.54894 0.06326
 Zr331 Zr 0.50064 0.53885 0.05694
 O332 O 0.49606 0.54550 0.13410
 O333 O 0.50215 0.57949 0.04305
 Zr334 Zr 0.50121 0.47409 0.07273
 O335 O 0.49798 0.48428 0.14867
 O336 O 0.50338 0.43356 0.08692
 O337 O 0.52499 0.50746 0.07381
 O338 O 0.47690 0.50696 0.07436
 O339 O 0.46645 0.54277 -0.09003
 O340 O 0.43583 0.52132 -0.04019
 C341 C 0.44210 0.53800 -0.07400
 O342 O 0.54139 0.44922 -0.07629
 O343 O 0.57042 0.47594 -0.03548
 C344 C 0.56531 0.45637 -0.06534
 O345 O 0.46716 0.44494 -0.06513
 O346 O 0.43589 0.47365 -0.02973
 C347 C 0.44266 0.45186 -0.05321
 O348 O 0.54126 0.53910 -0.09747
 O349 O 0.57022 0.52052 -0.04541
 C350 C 0.56517 0.53461 -0.08286
 Zr351 Zr 0.50325 0.52858 -0.06634
 O352 O 0.50158 0.52210 -0.14340
 O353 O 0.50455 0.56989 -0.07220
 Zr354 Zr 0.50358 0.46366 -0.05083
 O355 O 0.50139 0.45782 -0.12798
 O356 O 0.50590 0.42278 -0.03976
 Zr357 Zr 0.54245 0.50155 0.00219
 Zr358 Zr 0.46188 0.50083 0.00406
 O359 O 0.47979 0.49514 -0.06698
 O360 O 0.52779 0.49549 -0.06873
 O361 O 0.47823 0.53851 -0.00532
 O362 O 0.52564 0.46413 0.01142
 O363 O 0.52530 0.53873 -0.00630
 O364 O 0.47888 0.46352 0.01272
 H365 H 0.46383 0.50921 0.10280
 H366 H 0.53743 0.44866 0.01454
 H367 H 0.46783 0.49265 -0.09477
 H368 H 0.53707 0.55425 -0.01014
 H369 H 0.49824 0.42410 0.05649
 H370 H 0.50642 0.41403 -0.07288
 H371 H 0.51723 0.46635 -0.14376
 H372 H 0.51710 0.51091 -0.15428
 H373 H 0.50547 0.57335 -0.10791
 H374 H 0.50139 0.58877 0.07567
 H375 H 0.50908 0.53395 0.14930
 H376 H 0.49763 0.46744 0.16598
 C377 C 1.21579 0.15046 0.17280
 C378 C 1.19482 0.13647 0.15237
 C379 C 1.16820 0.14517 0.15969
 C380 C 1.16290 0.16811 0.18871
 C381 C 1.18394 0.18204 0.20958
 C382 C 1.21067 0.17340 0.20180
 C383 C 1.14688 0.12900 0.13777
 C384 C 1.12229 0.13768 0.12808
 C385 C 1.10231 0.12031 0.10465
 C386 C 1.07468 0.12488 0.11400
 C387 C 1.05569 0.10721 0.09575
 C388 C 1.06425 0.08477 0.06812
 C389 C 1.09163 0.08117 0.05614
 C390 C 1.11042 0.09888 0.07352
 H391 H 1.23610 0.14346 0.16521
 H392 H 1.19948 0.11884 0.13026
 H393 H 1.14261 0.17506 0.19632
 H394 H 1.17923 0.19939 0.23242
 H395 H 1.15223 0.10878 0.12856
 H396 H 1.11631 0.15762 0.13824
 H397 H 1.06785 0.14155 0.13700
 H398 H 1.03458 0.11033 0.10517
 H399 H 1.09855 0.06423 0.03392
 H400 H 1.13131 0.09543 0.06288
 C401 C 1.22654 0.65395 0.66816
 C402 C 1.20862 0.63804 0.64324
 C403 C 1.18099 0.64326 0.64723
 C404 C 1.17186 0.66579 0.67481
 C405 C 1.18988 0.68176 0.69959
 C406 C 1.21722 0.67549 0.69768
 C407 C 1.16272 0.62349 0.62564
 C408 C 1.13608 0.62639 0.62533
 C409 C 1.11770 0.60502 0.61117
 C410 C 1.09142 0.60603 0.63148
 C411 C 1.07295 0.58682 0.61916
 C412 C 1.08018 0.56616 0.58557
 C413 C 1.10665 0.56482 0.56558
 C414 C 1.12529 0.58413 0.57817
 H415 H 1.24766 0.64895 0.66563
 H416 H 1.21632 0.62103 0.62214
 H417 H 1.15089 0.67080 0.67953
 H418 H 1.18227 0.69821 0.72237
 H419 H 1.17164 0.60505 0.61242
 H420 H 1.12672 0.64445 0.63907
 H421 H 1.08508 0.62185 0.65702
 H422 H 1.05276 0.58857 0.63530
 H423 H 1.11276 0.54933 0.53922
 H424 H 1.14524 0.58301 0.56091
 C425 C 0.71251 0.14788 0.68670
 C426 C 0.69156 0.13355 0.66695
 C427 C 0.66538 0.14374 0.66862
 C428 C 0.66046 0.16855 0.69150
 C429 C 0.68145 0.18286 0.71166
 C430 C 0.70778 0.17275 0.70927
 C431 C 0.64410 0.12734 0.64713
 C432 C 0.62043 0.13630 0.63277
 C433 C 0.60079 0.11860 0.60917
 C434 C 0.57313 0.12413 0.61429
 C435 C 0.55435 0.10636 0.59553
 C436 C 0.56316 0.08288 0.57163
 C437 C 0.59074 0.07826 0.56383
 C438 C 0.60933 0.09600 0.58173
 H439 H 0.73254 0.13965 0.68340
 H440 H 0.69594 0.11447 0.64965
 H441 H 0.64047 0.17681 0.69477
 H442 H 0.67700 0.20175 0.72962
 H443 H 0.64872 0.10663 0.64208
 H444 H 0.61499 0.15676 0.63879
 H445 H 0.56604 0.14170 0.63436
 H446 H 0.53312 0.11032 0.60172
 H447 H 0.59795 0.06052 0.54443
 H448 H 0.63038 0.09171 0.57431
 C449 C 0.72881 0.65679 0.16134
 C450 C 0.71074 0.63999 0.13884
 C451 C 0.68306 0.64300 0.14859
 C452 C 0.67380 0.66414 0.17981
 C453 C 0.69194 0.68105 0.20208
 C454 C 0.71956 0.67701 0.19418
 C455 C 0.66505 0.62249 0.12876
 C456 C 0.63831 0.62464 0.13019
 C457 C 0.62018 0.60306 0.11599
 C458 C 0.59387 0.60384 0.13620
 C459 C 0.57538 0.58490 0.12268
 C460 C 0.58261 0.56474 0.08801
 C461 C 0.60921 0.56337 0.06876
 C462 C 0.62787 0.58244 0.08245
 H463 H 0.75011 0.65347 0.15437
 H464 H 0.71849 0.62403 0.11493
 H465 H 0.65278 0.66719 0.18941
 H466 H 0.68441 0.69635 0.22769
 H467 H 0.67438 0.60444 0.11449
 H468 H 0.62875 0.64252 0.14443
 H469 H 0.58747 0.61940 0.16227
 H470 H 0.55511 0.58657 0.13852
 H471 H 0.61536 0.54815 0.04186
 H472 H 0.64786 0.58142 0.06536
 C473 C 0.81854 -0.19402 0.17505
 C474 C 0.84120 -0.18125 0.15539
 C475 C 0.85108 -0.15858 0.17880
 C476 C 0.83742 -0.14861 0.22198
 C477 C 0.81464 -0.16130 0.24147
 C478 C 0.80500 -0.18419 0.21830
 C479 C 0.87448 -0.14499 0.15545
 C480 C 0.89089 -0.12928 0.18058
 C481 C 0.91203 -0.11288 0.15673
 C482 C 0.91924 -0.08945 0.18106
 C483 C 0.93681 -0.07184 0.15814
 C484 C 0.94800 -0.07748 0.11058
 C485 C 0.94233 -0.10176 0.08744
 C486 C 0.92441 -0.11930 0.11021
 H487 H 0.81132 -0.21138 0.15591
 H488 H 0.85104 -0.18911 0.12172
 H489 H 0.84380 -0.13067 0.24023
 H490 H 0.80462 -0.15328 0.27484
 H491 H 0.87773 -0.14773 0.11600
 H492 H 0.88762 -0.12676 0.22008
 H493 H 0.91030 -0.08417 0.21712
 H494 H 0.94099 -0.05338 0.17709
 H495 H 0.95071 -0.10662 0.05082
 H496 H 0.92006 -0.13760 0.09099
 C497 C 0.78737 0.33010 0.63384
 C498 C 0.80734 0.34606 0.61361
 C499 C 0.83382 0.34324 0.62687
 C500 C 0.84063 0.32242 0.65666
 C501 C 0.82071 0.30569 0.67565
 C502 C 0.79355 0.31035 0.66685
 C503 C 0.85329 0.36346 0.61171
 C504 C 0.86956 0.37473 0.64383
 C505 C 0.88628 0.39793 0.63241
 C506 C 0.90917 0.40257 0.65918
 C507 C 0.92617 0.42350 0.64788
 C508 C 0.92040 0.44044 0.60989
 C509 C 0.89654 0.43681 0.58525
 C510 C 0.87962 0.41580 0.59640
 H511 H 0.76693 0.33349 0.62395
 H512 H 0.80183 0.36166 0.58981
 H513 H 0.86119 0.31959 0.66639
 H514 H 0.82641 0.29073 0.70060
 H515 H 0.85192 0.37104 0.57519
 H516 H 0.87048 0.36689 0.68033
 H517 H 0.91442 0.38942 0.68778
 H518 H 0.94437 0.42579 0.66766
 H519 H 0.89150 0.44947 0.55575
 H520 H 0.86151 0.41362 0.57643
 C521 C 0.32004 -0.19831 0.68121
 C522 C 0.34276 -0.18560 0.66153
 C523 C 0.35237 -0.16262 0.68429
 C524 C 0.33852 -0.15240 0.72708
 C525 C 0.31572 -0.16504 0.74659
 C526 C 0.30618 -0.18810 0.72384
 C527 C 0.37556 -0.14886 0.66054
 C528 C 0.39154 -0.13245 0.68515
 C529 C 0.41218 -0.11564 0.66085
 C530 C 0.41890 -0.09196 0.68486
 C531 C 0.43604 -0.07406 0.66167
 C532 C 0.44728 -0.07962 0.61413
 C533 C 0.44205 -0.10408 0.59123
 C534 C 0.42457 -0.12193 0.61428
 H535 H 0.31295 -0.21582 0.66237
 H536 H 0.35277 -0.19368 0.62818
 H537 H 0.34466 -0.13426 0.74488
 H538 H 0.30549 -0.15672 0.77951
 H539 H 0.37890 -0.15196 0.62118
 H540 H 0.38820 -0.12962 0.72457
 H541 H 0.40994 -0.08675 0.72094
 H542 H 0.43988 -0.05547 0.68045
 H543 H 0.45047 -0.10890 0.55461
 H544 H 0.42058 -0.14037 0.59524
 C545 C 0.32276 0.30767 0.19514
 C546 C 0.34348 0.32443 0.17955
 C547 C 0.33775 0.34797 0.15661
 C548 C 0.31118 0.35333 0.14564
 C549 C 0.29054 0.33693 0.16167
 C550 C 0.29578 0.31441 0.18867
 C551 C 0.35968 0.36666 0.14516
 C552 C 0.35542 0.39257 0.14154
 C553 C 0.37703 0.41143 0.13005
 C554 C 0.37110 0.43379 0.10372
 C555 C 0.39131 0.45142 0.09008
 C556 C 0.41779 0.44719 0.10335
 C557 C 0.42337 0.42550 0.13204
 C558 C 0.40321 0.40777 0.14521
 H559 H 0.32795 0.29060 0.21546
 H560 H 0.36394 0.31956 0.18737
 H561 H 0.30609 0.37026 0.12489
 H562 H 0.27037 0.34194 0.15232
 H563 H 0.37988 0.35888 0.14105
 H564 H 0.33531 0.40049 0.14584
 H565 H 0.35093 0.43717 0.09227
 H566 H 0.38632 0.46792 0.06803
 H567 H 0.44352 0.42169 0.14309
 H568 H 0.40821 0.39123 0.16711
 C569 C 0.78859 0.15683 -0.17236
 C570 C 0.80884 0.14272 -0.15127
 C571 C 0.83594 0.14845 -0.16193
 C572 C 0.84239 0.16910 -0.19362
 C573 C 0.82204 0.18320 -0.21499
 C574 C 0.79490 0.17691 -0.20524
 C575 C 0.85645 0.13084 -0.14284
 C576 C 0.88248 0.13678 -0.13911
 C577 C 0.90196 0.11706 -0.12330
 C578 C 0.92364 0.12482 -0.09520
 C579 C 0.94147 0.10603 -0.07866
 C580 C 0.93807 0.07918 -0.09055
 C581 C 0.91699 0.07173 -0.12049
 C582 C 0.89927 0.09037 -0.13670
 H583 H 0.76792 0.15182 -0.16323
 H584 H 0.80329 0.12692 -0.12704
 H585 H 0.86303 0.17372 -0.20362
 H586 H 0.82757 0.19837 -0.24058
 H587 H 0.84949 0.11184 -0.13076
 H588 H 0.88957 0.15644 -0.14623
 H589 H 0.92637 0.14535 -0.08503
 H590 H 0.95759 0.11247 -0.05599
 H591 H 0.91386 0.05133 -0.13109
 H592 H 0.88345 0.08380 -0.15994
 C593 C 0.82093 0.68541 0.31380
 C594 C 0.84005 0.66936 0.33406
 C595 C 0.83408 0.64324 0.34542
 C596 C 0.80827 0.63370 0.33738
 C597 C 0.78920 0.64963 0.31732
 C598 C 0.79533 0.67555 0.30348
 C599 C 0.85572 0.62603 0.36170
 C600 C 0.85126 0.60296 0.38326
 C601 C 0.87306 0.58478 0.39483
 C602 C 0.86867 0.56707 0.43287
 C603 C 0.88897 0.54988 0.44515
 C604 C 0.91403 0.54997 0.41926
 C605 C 0.91799 0.56694 0.37980
 C606 C 0.89772 0.58408 0.36756
 H607 H 0.82707 0.70492 0.30349
 H608 H 0.85987 0.67718 0.33965
 H609 H 0.80272 0.61367 0.34488
 H610 H 0.76947 0.64136 0.31330
 H611 H 0.87612 0.63273 0.35541
 H612 H 0.83107 0.59726 0.39432
 H613 H 0.84969 0.56696 0.45391
 H614 H 0.88531 0.53718 0.47597
 H615 H 0.93697 0.56733 0.35882
 H616 H 0.90144 0.59664 0.33661
 C617 C 0.30754 0.15021 0.25250
 C618 C 0.32989 0.13659 0.26720
 C619 C 0.34640 0.14740 0.30272
 C620 C 0.34045 0.17269 0.32246
 C621 C 0.31815 0.18657 0.30739
 C622 C 0.30097 0.17547 0.27248
 C623 C 0.36922 0.13123 0.31767
 C624 C 0.38185 0.13456 0.35995
 C625 C 0.40135 0.11494 0.37637
 C626 C 0.42124 0.12263 0.40871
 C627 C 0.43888 0.10401 0.42643
 C628 C 0.43664 0.07728 0.41263
 C629 C 0.41673 0.06974 0.38024
 C630 C 0.39928 0.08820 0.36266
 H631 H 0.29613 0.14105 0.22388
 H632 H 0.33416 0.11727 0.25081
 H633 H 0.35290 0.18195 0.34939
 H634 H 0.31396 0.20557 0.32498
 H635 H 0.37483 0.11471 0.29331
 H636 H 0.37729 0.15135 0.38425
 H637 H 0.42304 0.14305 0.42045
 H638 H 0.45389 0.11046 0.45151
 H639 H 0.41415 0.04935 0.36900
 H640 H 0.38359 0.08114 0.33963
 C641 C 0.27841 0.64750 -0.16473
 C642 C 0.29543 0.63056 -0.14175
 C643 C 0.32230 0.63712 -0.13641
 C644 C 0.33140 0.66198 -0.15086
 C645 C 0.31420 0.67929 -0.17313
 C646 C 0.28769 0.67182 -0.18249
 C647 C 0.34026 0.61723 -0.11702
 C648 C 0.36584 0.61443 -0.13352
 C649 C 0.38367 0.59289 -0.11934
 C650 C 0.40708 0.58771 -0.14867
 C651 C 0.42536 0.56870 -0.13555
 C652 C 0.42061 0.55437 -0.09271
 C653 C 0.39676 0.55886 -0.06412
 C654 C 0.37854 0.57805 -0.07703
 H655 H 0.25780 0.64145 -0.16805
 H656 H 0.28777 0.61180 -0.12970
 H657 H 0.35191 0.66790 -0.14572
 H658 H 0.32240 0.69765 -0.18591
 H659 H 0.33120 0.60290 -0.09292
 H660 H 0.37375 0.62760 -0.16117
 H661 H 0.41153 0.59879 -0.18143
 H662 H 0.44363 0.56580 -0.15818
 H663 H 0.39282 0.54855 -0.03029
 H664 H 0.36114 0.58176 -0.05263
 C665 C 1.21425 -0.15780 -0.18167
 C666 C 1.19198 -0.14227 -0.16714
 C667 C 1.16591 -0.15103 -0.17536
 C668 C 1.16253 -0.17572 -0.19880
 C669 C 1.18487 -0.19115 -0.21401
 C670 C 1.21108 -0.18235 -0.20583
 C671 C 1.14309 -0.13309 -0.16192
 C672 C 1.11800 -0.14102 -0.15025
 C673 C 1.09627 -0.12185 -0.13647
 C674 C 1.07693 -0.12742 -0.09902
 C675 C 1.05793 -0.10836 -0.08254
 C676 C 1.05773 -0.08351 -0.10382
 C677 C 1.07597 -0.07878 -0.14364
 C678 C 1.09498 -0.09766 -0.15970
 H679 H 1.23399 -0.15053 -0.17377
 H680 H 1.19515 -0.12329 -0.14927
 H681 H 1.14274 -0.18277 -0.20689
 H682 H 1.18159 -0.20968 -0.23335
 H683 H 1.14759 -0.11228 -0.15940
 H684 H 1.11367 -0.16177 -0.14753
 H685 H 1.07731 -0.14609 -0.08099
 H686 H 1.04419 -0.11268 -0.05183
 H687 H 1.07624 -0.06005 -0.16147
 H688 H 1.10898 -0.09312 -0.18987
 C689 C 1.19197 0.33051 0.23398
 C690 C 1.17228 0.34848 0.25076
 C691 C 1.16626 0.35228 0.30136
 C692 C 1.17906 0.33655 0.33489
 C693 C 1.19855 0.31824 0.31795
 C694 C 1.20553 0.31561 0.26750
 C695 C 1.14620 0.37243 0.31748
 C696 C 1.14663 0.38582 0.36067
 C697 C 1.12586 0.40550 0.37653
 C698 C 1.13166 0.42533 0.41148
 C699 C 1.11174 0.44314 0.42909
 C700 C 1.08562 0.44110 0.41240
 C701 C 1.08014 0.42163 0.37655
 C702 C 1.09987 0.40395 0.35916
 H703 H 1.19723 0.32873 0.19490
 H704 H 1.16237 0.36009 0.22426
 H705 H 1.17418 0.33847 0.37405
 H706 H 1.20898 0.30697 0.34426
 H707 H 1.13155 0.37739 0.29120
 H708 H 1.16299 0.38284 0.38465
 H709 H 1.15152 0.42682 0.42565
 H710 H 1.11655 0.45787 0.45680
 H711 H 1.06023 0.41938 0.36289
 H712 H 1.09423 0.38850 0.33355
 C713 C 0.71313 -0.15625 0.31578
 C714 C 0.69059 -0.14125 0.33089
 C715 C 0.66467 -0.15064 0.32338
 C716 C 0.66171 -0.17545 0.30017
 C717 C 0.68432 -0.19034 0.28430
 C718 C 0.71038 -0.18088 0.29166
 C719 C 0.64152 -0.13322 0.33719
 C720 C 0.61685 -0.14174 0.35047
 C721 C 0.59478 -0.12303 0.36470
 C722 C 0.57647 -0.12848 0.40389
 C723 C 0.55731 -0.10967 0.42081
 C724 C 0.55596 -0.08521 0.39829
 C725 C 0.57309 -0.08069 0.35680
 C726 C 0.59223 -0.09933 0.34024
 H727 H 0.73275 -0.14850 0.32315
 H728 H 0.69342 -0.12218 0.34865
 H729 H 0.64202 -0.18299 0.29272
 H730 H 0.68133 -0.20896 0.26507
 H731 H 0.64541 -0.11228 0.33866
 H732 H 0.61322 -0.16256 0.35428
 H733 H 0.57783 -0.14678 0.42292
 H734 H 0.54447 -0.11379 0.45285
 H735 H 0.57241 -0.06226 0.33805
 H736 H 0.60540 -0.09496 0.30875
 C737 C 0.69311 0.33302 -0.27470
 C738 C 0.67410 0.35125 -0.25610
 C739 C 0.66849 0.35411 -0.20521
 C740 C 0.68118 0.33738 -0.17325
 C741 C 0.70001 0.31887 -0.19199
 C742 C 0.70650 0.31697 -0.24275
 C743 C 0.64867 0.37409 -0.18720
 C744 C 0.64890 0.38602 -0.14257
 C745 C 0.62797 0.40514 -0.12499
 C746 C 0.63367 0.42445 -0.08898
 C747 C 0.61368 0.44196 -0.07054
 C748 C 0.58759 0.44014 -0.08748
 C749 C 0.58212 0.42096 -0.12390
 C750 C 0.60193 0.40360 -0.14212
 H751 H 0.69777 0.33173 -0.31403
 H752 H 0.66422 0.36363 -0.28143
 H753 H 0.67660 0.33852 -0.13394
 H754 H 0.71021 0.30669 -0.16678
 H755 H 0.63411 0.38003 -0.21295
 H756 H 0.66511 0.38223 -0.11869
 H757 H 0.65356 0.42585 -0.07490
 H758 H 0.61845 0.45642 -0.04229
 H759 H 0.56224 0.41884 -0.13771
 H760 H 0.59641 0.38845 -0.16846
 C761 C 1.14244 0.22867 -0.19165
 C762 C 1.12540 0.20953 -0.17222
 C763 C 1.13284 0.18301 -0.17435
 C764 C 1.15830 0.17607 -0.19532
 C765 C 1.17554 0.19529 -0.21478
 C766 C 1.16782 0.22203 -0.21406
 C767 C 1.11365 0.16369 -0.15293
 C768 C 1.11423 0.13783 -0.16420
 C769 C 1.09446 0.11869 -0.14374
 C770 C 1.09307 0.09371 -0.16679
 C771 C 1.07562 0.07462 -0.14808
 C772 C 1.05902 0.08004 -0.10575
 C773 C 1.06007 0.10512 -0.08289
 C774 C 1.07770 0.12418 -0.10139
 H775 H 1.13577 0.24884 -0.18691
 H776 H 1.10620 0.21559 -0.15530
 H777 H 1.16520 0.15591 -0.19649
 H778 H 1.19449 0.18877 -0.23190
 H779 H 1.09755 0.17163 -0.12893
 H780 H 1.12912 0.13026 -0.19123
 H781 H 1.10574 0.08881 -0.19925
 H782 H 1.07540 0.05546 -0.16649
 H783 H 1.04794 0.10975 -0.04964
 H784 H 1.07853 0.14279 -0.08134
 C785 C 1.15246 0.68724 0.24289
 C786 C 1.14084 0.66295 0.25274
 C787 C 1.15062 0.64709 0.28904
 C788 C 1.17300 0.65572 0.31444
 C789 C 1.18481 0.68001 0.30446
 C790 C 1.17458 0.69650 0.26883
 C791 C 1.13637 0.62218 0.29947
 C792 C 1.13702 0.60990 0.34236
 C793 C 1.11875 0.58803 0.35599
 C794 C 1.12503 0.57227 0.39533
 C795 C 1.10657 0.55401 0.41394
 C796 C 1.08124 0.55139 0.39395
 C797 C 1.07548 0.56621 0.35302
 C798 C 1.09392 0.58437 0.33435
 H799 H 1.14445 0.69815 0.21340
 H800 H 1.12385 0.65665 0.23209
 H801 H 1.18157 0.64387 0.34202
 H802 H 1.20129 0.68612 0.32644
 H803 H 1.12339 0.61482 0.27152
 H804 H 1.15025 0.61688 0.37021
 H805 H 1.14392 0.57475 0.41288
 H806 H 1.11164 0.54297 0.44560
 H807 H 1.05614 0.56475 0.33677
 H808 H 1.08778 0.59647 0.30493
 C809 C 0.64778 0.22515 0.32818
 C810 C 0.63114 0.20591 0.34855
 C811 C 0.63391 0.17951 0.33288
 C812 C 0.65449 0.17257 0.29751
 C813 C 0.67137 0.19186 0.27743
 C814 C 0.66790 0.21839 0.29206
 C815 C 0.61541 0.15995 0.35530
 C816 C 0.60870 0.13736 0.33241
 C817 C 0.59010 0.11771 0.35453
 C818 C 0.59142 0.09175 0.33576
 C819 C 0.57492 0.07234 0.35599
 C820 C 0.55641 0.07845 0.39534
 C821 C 0.55442 0.10463 0.41319
 C822 C 0.57102 0.12408 0.39299
 H823 H 0.64498 0.24539 0.34086
 H824 H 0.61575 0.21175 0.37622
 H825 H 0.65784 0.15230 0.28569
 H826 H 0.68684 0.18613 0.24987
 H827 H 0.60664 0.16492 0.39153
 H828 H 0.61749 0.13260 0.29606
 H829 H 0.60567 0.08632 0.30585
 H830 H 0.57695 0.05243 0.34107
 H831 H 0.54034 0.11004 0.44336
 H832 H 0.56863 0.14399 0.40751
 C833 C 0.65163 0.68949 -0.24921
 C834 C 0.63915 0.66586 -0.23777
 C835 C 0.64878 0.65003 -0.20133
 C836 C 0.67142 0.65833 -0.17640
 C837 C 0.68401 0.68209 -0.18776
 C838 C 0.67420 0.69838 -0.22412
 C839 C 0.63335 0.62615 -0.18867
 C840 C 0.64277 0.60594 -0.16401
 C841 C 0.62521 0.58399 -0.14826
 C842 C 0.62993 0.57162 -0.10409
 C843 C 0.61130 0.55383 -0.08435
 C844 C 0.58763 0.54821 -0.10852
 C845 C 0.58417 0.55878 -0.15487
 C846 C 0.60287 0.57629 -0.17478
 H847 H 0.64384 0.70020 -0.27915
 H848 H 0.62181 0.65987 -0.25774
 H849 H 0.67899 0.64711 -0.14692
 H850 H 0.70059 0.68809 -0.16593
 H851 H 0.61277 0.62578 -0.19942
 H852 H 0.66308 0.60622 -0.15190
 H853 H 0.64724 0.57685 -0.08342
 H854 H 0.61462 0.54582 -0.04876
 H855 H 0.56640 0.55436 -0.17486
 H856 H 0.59928 0.58436 -0.21020
 C857 C 0.80724 -0.17886 -0.20284
 C858 C 0.82378 -0.15894 -0.18476
 C859 C 0.84562 -0.16496 -0.15625
 C860 C 0.84955 -0.19124 -0.14369
 C861 C 0.83308 -0.21109 -0.16181
 C862 C 0.81220 -0.20522 -0.19261
 C863 C 0.86376 -0.14340 -0.14080
 C864 C 0.88908 -0.14717 -0.12754
 C865 C 0.90737 -0.12534 -0.11434
 C866 C 0.92836 -0.13010 -0.08313
 C867 C 0.94566 -0.10982 -0.06924
 C868 C 0.94245 -0.08436 -0.08673
 C869 C 0.92208 -0.07994 -0.11957
 C870 C 0.90482 -0.10014 -0.13329
 H871 H 0.79132 -0.17378 -0.22652
 H872 H 0.82004 -0.13883 -0.19446
 H873 H 0.86529 -0.19672 -0.12008
 H874 H 0.83696 -0.23121 -0.15235
 H875 H 0.85599 -0.12358 -0.14196
 H876 H 0.89699 -0.16687 -0.12582
 H877 H 0.93103 -0.14945 -0.06859
 H878 H 0.96114 -0.11397 -0.04403
 H879 H 0.91914 -0.06069 -0.13430
 H880 H 0.88967 -0.09589 -0.15902
 C881 C 0.80074 0.32914 0.29592
 C882 C 0.81292 0.35049 0.31935
 C883 C 0.83536 0.34671 0.34742
 C884 C 0.84564 0.32108 0.35098
 C885 C 0.83350 0.29978 0.32751
 C886 C 0.81097 0.30356 0.29965
 C887 C 0.84879 0.36995 0.36921
 C888 C 0.86452 0.36842 0.40752
 C889 C 0.88255 0.38986 0.42237
 C890 C 0.90786 0.38293 0.43783
 C891 C 0.92661 0.40221 0.44835
 C892 C 0.92020 0.42892 0.44495
 C893 C 0.89438 0.43609 0.43202
 C894 C 0.87571 0.41663 0.42015
 H895 H 0.78363 0.33271 0.27403
 H896 H 0.80489 0.37004 0.31533
 H897 H 0.86350 0.31734 0.37061
 H898 H 0.84176 0.28029 0.33117
 H899 H 0.84663 0.38854 0.35145
 H900 H 0.86660 0.34993 0.42555
 H901 H 0.91348 0.36245 0.44022
 H902 H 0.94622 0.39622 0.45932
 H903 H 0.88895 0.45662 0.42987
 H904 H 0.85605 0.42249 0.40938
 C905 C 0.30548 -0.17903 0.29770
 C906 C 0.32194 -0.15940 0.31711
 C907 C 0.34386 -0.16591 0.34506
 C908 C 0.34791 -0.19243 0.35580
 C909 C 0.33153 -0.21199 0.33636
 C910 C 0.31062 -0.20559 0.30600
 C911 C 0.36201 -0.14458 0.36158
 C912 C 0.38732 -0.14854 0.37473
 C913 C 0.40567 -0.12683 0.38838
 C914 C 0.42663 -0.13177 0.41959
 C915 C 0.44398 -0.11159 0.43377
 C916 C 0.44088 -0.08606 0.41655
 C917 C 0.42056 -0.08148 0.38368
 C918 C 0.40325 -0.10156 0.36970
 H919 H 0.28954 -0.17354 0.27441
 H920 H 0.31808 -0.13911 0.30881
 H921 H 0.36372 -0.19834 0.37890
 H922 H 0.33555 -0.23230 0.34430
 H923 H 0.35429 -0.12472 0.36118
 H924 H 0.39522 -0.16828 0.37584
 H925 H 0.42923 -0.15119 0.43387
 H926 H 0.45942 -0.11586 0.45899
 H927 H 0.41770 -0.06217 0.36912
 H928 H 0.38816 -0.09718 0.34392
 C929 C 0.29874 0.32955 -0.19991
 C930 C 0.31098 0.35145 -0.17841
 C931 C 0.33620 0.34923 -0.15870
 C932 C 0.34934 0.32475 -0.16199
 C933 C 0.33731 0.30289 -0.18379
 C934 C 0.31170 0.30474 -0.20320
 C935 C 0.34922 0.37292 -0.13779
 C936 C 0.36668 0.37136 -0.10216
 C937 C 0.38450 0.39307 -0.08763
 C938 C 0.40986 0.38627 -0.07226
 C939 C 0.42843 0.40560 -0.06131
 C940 C 0.42192 0.43232 -0.06433
 C941 C 0.39609 0.43941 -0.07738
 C942 C 0.37752 0.41985 -0.08959
 H943 H 0.27965 0.33264 -0.21597
 H944 H 0.30073 0.37025 -0.17734
 H945 H 0.36923 0.32243 -0.14862
 H946 H 0.34800 0.28441 -0.18375
 H947 H 0.34514 0.39166 -0.15367
 H948 H 0.37016 0.35250 -0.08617
 H949 H 0.41564 0.36583 -0.07004
 H950 H 0.44801 0.39959 -0.05022
 H951 H 0.39056 0.45992 -0.07927
 H952 H 0.35783 0.42567 -0.10025
 C953 C 1.14484 -0.22304 0.17465
 C954 C 1.12888 -0.20464 0.15278
 C955 C 1.13386 -0.17776 0.15865
 C956 C 1.15597 -0.16956 0.18529
 C957 C 1.17232 -0.18801 0.20671
 C958 C 1.16675 -0.21517 0.20269
 C959 C 1.11592 -0.15907 0.13541
 C960 C 1.11033 -0.13500 0.15457
 C961 C 1.09206 -0.11595 0.13271
 C962 C 1.09311 -0.08961 0.14911
 C963 C 1.07694 -0.07064 0.12934
 C964 C 1.05906 -0.07751 0.09270
 C965 C 1.05734 -0.10400 0.07712
 C966 C 1.07363 -0.12306 0.09690
 H967 H 1.14036 -0.24356 0.16765
 H968 H 1.11236 -0.21149 0.13144
 H969 H 1.16087 -0.14893 0.18927
 H970 H 1.18862 -0.18070 0.22801
 H971 H 1.10641 -0.16605 0.10265
 H972 H 1.11975 -0.12865 0.18794
 H973 H 1.10685 -0.08356 0.17690
 H974 H 1.07875 -0.05046 0.14252
 H975 H 1.04371 -0.10998 0.04912
 H976 H 1.07148 -0.14320 0.08404
 C977 C 1.15737 0.32282 0.75403
 C978 C 1.14658 0.34741 0.74516
 C979 C 1.15590 0.36174 0.70457
 C980 C 1.17681 0.35112 0.67342
 C981 C 1.18768 0.32648 0.68242
 C982 C 1.17795 0.31201 0.72265
 C983 C 1.14267 0.38717 0.69599
 C984 C 1.14256 0.39839 0.65199
 C985 C 1.12443 0.42041 0.64127
 C986 C 1.12957 0.43457 0.59832
 C987 C 1.11055 0.45220 0.58229
 C988 C 1.08584 0.45569 0.60864
 C989 C 1.08147 0.44289 0.65331
 C990 C 1.10043 0.42540 0.66938
 H991 H 1.14988 0.31241 0.78596
 H992 H 1.13060 0.35514 0.76989
 H993 H 1.18506 0.36174 0.64243
 H994 H 1.20361 0.31867 0.65773
 H995 H 1.13092 0.39583 0.72679
 H996 H 1.15464 0.39015 0.62121
 H997 H 1.14782 0.43108 0.57587
 H998 H 1.11450 0.46176 0.54772
 H999 H 1.06266 0.44519 0.67456
 H1000 H 1.09515 0.41463 0.70204
 C1001 C 0.64691 -0.22262 0.67614
 C1002 C 0.63106 -0.20444 0.65352
 C1003 C 0.63588 -0.17753 0.65913
 C1004 C 0.65786 -0.16907 0.68591
 C1005 C 0.67418 -0.18734 0.70792
 C1006 C 0.66857 -0.21449 0.70458
 C1007 C 0.61778 -0.15905 0.63588
 C1008 C 0.61129 -0.13540 0.65603
 C1009 C 0.59251 -0.11669 0.63468
 C1010 C 0.59274 -0.09048 0.65198
 C1011 C 0.57608 -0.07179 0.63266
 C1012 C 0.55849 -0.07884 0.59563
 C1013 C 0.55752 -0.10526 0.57928
 C1014 C 0.57433 -0.12403 0.59859
 H1015 H 0.64250 -0.24321 0.66968
 H1016 H 0.61465 -0.21146 0.63206
 H1017 H 0.66257 -0.14839 0.68968
 H1018 H 0.69037 -0.17990 0.72938
 H1019 H 0.60873 -0.16592 0.60258
 H1020 H 0.62030 -0.12921 0.68992
 H1021 H 0.60625 -0.08428 0.68007
 H1022 H 0.57731 -0.05167 0.64643
 H1023 H 0.54413 -0.11136 0.55095
 H1024 H 0.57279 -0.14413 0.58514
 C1025 C 0.65411 0.31938 0.25743
 C1026 C 0.64253 0.34354 0.24775
 C1027 C 0.65146 0.35783 0.20680
 C1028 C 0.67269 0.34753 0.17602
 C1029 C 0.68426 0.32331 0.18572
 C1030 C 0.67504 0.30893 0.22642
 C1031 C 0.63757 0.38291 0.19762
 C1032 C 0.63883 0.39500 0.15438
 C1033 C 0.62109 0.41724 0.14297
 C1034 C 0.62763 0.43212 0.10144
 C1035 C 0.60942 0.45035 0.08473
 C1036 C 0.58411 0.45382 0.10899
 C1037 C 0.57825 0.44015 0.15228
 C1038 C 0.59640 0.42201 0.16898
 H1039 H 0.64693 0.30907 0.28969
 H1040 H 0.62634 0.35100 0.27226
 H1041 H 0.68070 0.35800 0.14469
 H1042 H 0.70037 0.31576 0.16115
 H1043 H 0.62461 0.39081 0.22749
 H1044 H 0.65217 0.38766 0.12462
 H1045 H 0.64644 0.42881 0.08058
 H1046 H 0.61452 0.46048 0.05117
 H1047 H 0.55894 0.44236 0.17188
 H1048 H 0.59007 0.41073 0.20043
 C1049 C 0.84088 0.22885 0.16580
 C1050 C 0.85884 0.21069 0.14295
 C1051 C 0.85624 0.18380 0.15166
 C1052 C 0.83435 0.17526 0.18167
 C1053 C 0.81616 0.19345 0.20409
 C1054 C 0.81961 0.22047 0.19721
 C1055 C 0.87660 0.16532 0.12885
 C1056 C 0.88398 0.14339 0.15083
 C1057 C 0.90439 0.12418 0.13024
 C1058 C 0.90629 0.10008 0.15346
 C1059 C 0.92424 0.08073 0.13522
 C1060 C 0.94104 0.08495 0.09323
 C1061 C 0.93998 0.10941 0.07082
 C1062 C 0.92182 0.12885 0.08904
 H1063 H 0.84376 0.24956 0.15931
 H1064 H 0.87526 0.21774 0.11947
 H1065 H 0.83122 0.15458 0.18785
 H1066 H 0.79987 0.18649 0.22796
 H1067 H 0.88632 0.17077 0.09431
 H1068 H 0.87442 0.13901 0.18622
 H1069 H 0.89341 0.09593 0.18548
 H1070 H 0.92460 0.06221 0.15373
 H1071 H 0.95268 0.11330 0.03849
 H1072 H 0.92161 0.14730 0.07049
 C1073 C 0.83940 0.71328 0.68864
 C1074 C 0.85473 0.69242 0.66824
 C1075 C 0.84596 0.66641 0.67284
 C1076 C 0.82141 0.66159 0.69841
 C1077 C 0.80609 0.68253 0.71916
 C1078 C 0.81502 0.70859 0.71471
 C1079 C 0.86384 0.64520 0.65240
 C1080 C 0.85597 0.62075 0.64009
 C1081 C 0.87528 0.60088 0.61864
 C1082 C 0.87103 0.57399 0.62659
 C1083 C 0.89042 0.55531 0.61015
 C1084 C 0.91429 0.56349 0.58608
 C1085 C 0.91772 0.59006 0.57556
 C1086 C 0.89830 0.60849 0.59090
 H1087 H 0.84661 0.73313 0.68385
 H1088 H 0.87358 0.69665 0.64870
 H1089 H 0.81433 0.64179 0.70380
 H1090 H 0.78758 0.67829 0.73975
 H1091 H 0.88474 0.65043 0.64688
 H1092 H 0.83533 0.61488 0.64661
 H1093 H 0.85316 0.56759 0.64692
 H1094 H 0.88731 0.53477 0.61791
 H1095 H 0.93563 0.59662 0.55548
 H1096 H 0.90160 0.62871 0.58122
 C1097 C 0.34152 0.22819 0.66877
 C1098 C 0.35927 0.20965 0.64654
 C1099 C 0.35661 0.18293 0.65667
 C1100 C 0.33488 0.17492 0.68765
 C1101 C 0.31687 0.19350 0.70946
 C1102 C 0.32038 0.22036 0.70101
 C1103 C 0.37664 0.16405 0.63399
 C1104 C 0.38392 0.14218 0.65628
 C1105 C 0.40393 0.12266 0.63534
 C1106 C 0.40484 0.09810 0.65716
 C1107 C 0.42249 0.07857 0.63852
 C1108 C 0.43998 0.08307 0.59758
 C1109 C 0.43987 0.10796 0.57661
 C1110 C 0.42202 0.12758 0.59522
 H1111 H 0.34442 0.24876 0.66105
 H1112 H 0.37557 0.21629 0.62229
 H1113 H 0.33167 0.15437 0.69496
 H1114 H 0.30066 0.18697 0.73397
 H1115 H 0.38613 0.16907 0.59899
 H1116 H 0.37453 0.13801 0.69190
 H1117 H 0.39142 0.09376 0.68834
 H1118 H 0.42209 0.05972 0.65593
 H1119 H 0.45316 0.11212 0.54521
 H1120 H 0.42263 0.14642 0.57799
 C1121 C 0.33929 0.71605 0.18118
 C1122 C 0.35517 0.69580 0.15993
 C1123 C 0.34688 0.66956 0.16266
 C1124 C 0.32220 0.66388 0.18704
 C1125 C 0.30634 0.68419 0.20869
 C1126 C 0.31484 0.71048 0.20632
 C1127 C 0.36546 0.64894 0.14227
 C1128 C 0.35810 0.62473 0.12732
 C1129 C 0.37798 0.60507 0.10703
 C1130 C 0.37261 0.57806 0.11082
 C1131 C 0.39212 0.55931 0.09536
 C1132 C 0.41728 0.56750 0.07651
 C1133 C 0.42202 0.59432 0.07021
 C1134 C 0.40251 0.61286 0.08448
 H1135 H 0.34618 0.73610 0.17796
 H1136 H 0.37412 0.70067 0.14136
 H1137 H 0.31550 0.64383 0.19099
 H1138 H 0.28780 0.67925 0.22852
 H1139 H 0.38638 0.65440 0.13953
 H1140 H 0.33731 0.61885 0.13102
 H1141 H 0.35364 0.57153 0.12705
 H1142 H 0.38797 0.53862 0.09970
 H1143 H 0.44097 0.60099 0.05402
 H1144 H 0.40690 0.63326 0.07781
   
