data_POSCAR
  _audit_creation_date              2014-09-24
  _audit_creation_method            'ToBaCCo'
  _symmetry_space_group_name_H-M    'P1'
  _symmetry_Int_Tables_number       1
  _symmetry_cell_setting            triclinic
  loop_
  _symmetry_equiv_pos_as_xyz
 x,y,z
_cell_length_a 14.8272
_cell_length_b 15.1358
_cell_length_c 38.3281
_cell_angle_alpha 86.290800
_cell_angle_beta 95.082700
_cell_angle_gamma 119.168200
loop_
  _atom_site_label
  _atom_site_type_symbol
  _atom_site_fract_x
  _atom_site_fract_y
  _atom_site_fract_z
C1 C -0.09439 0.10226 0.50811
 C2 C -0.18073 0.02537 0.48367
 C3 C -0.15234 -0.03288 0.46676
 C4 C -0.03845 -0.00721 0.47558
 C5 C -0.05911 0.03924 0.53253
 C6 C -0.03003 -0.01824 0.51561
 C7 C -0.00468 0.16380 0.48454
 C8 C 0.02514 0.10687 0.46755
 H9 H -0.25791 0.01677 0.48047
 H10 H -0.01260 -0.05244 0.46187
 H11 H -0.05784 0.04012 0.56081
 H12 H 0.03303 0.24552 0.48249
 C13 C 1.00343 -0.15991 0.19664
 C14 C 1.07287 -0.17257 0.17223
 C15 C 1.13001 -0.08751 0.15238
 C16 C 1.10995 0.00159 0.15866
 C17 C 1.07292 -0.07173 0.21689
 C18 C 1.13161 0.01735 0.19626
 C19 C 0.93720 -0.12742 0.17196
 C20 C 0.99210 -0.04363 0.15178
 H21 H 1.07746 -0.24158 0.17113
 H22 H 1.15342 0.07092 0.14245
 H23 H 1.07744 -0.07327 0.24527
 H24 H 0.85344 -0.16844 0.17086
 C25 C 0.10516 1.02601 0.84908
 C26 C 0.12430 1.11419 0.82313
 C27 C 0.03651 1.10268 0.80428
 C28 C -0.06189 1.00259 0.81296
 C29 C 0.02079 1.01753 0.87135
 C30 C -0.06616 1.00623 0.85267
 C31 C 0.05359 0.93264 0.82633
 C32 C -0.03437 0.91897 0.80762
 H33 H 0.19945 1.18030 0.82055
 H34 H -0.13451 0.98935 0.79790
 H35 H 0.03081 1.02317 0.89963
 H36 H 0.09093 0.88797 0.82285
 O37 O 0.48806 0.02819 0.03793
 O38 O 0.65520 0.05065 -0.03176
 O39 O 0.49318 0.07375 -0.02906
 O40 O 0.66052 0.01924 0.03600
 O41 O 0.56301 -0.14409 0.02632
 O42 O 0.39877 -0.08988 -0.03850
 O43 O 0.55956 -0.11306 -0.04109
 O44 O 0.39251 -0.13510 0.02791
 Cu45 Cu 0.58407 0.05942 0.00438
 Cu46 Cu 0.46892 -0.13680 -0.00723
 C47 C 0.41082 -0.05766 0.04448
 C48 C 0.63555 -0.02767 -0.04829
 C49 C 0.41740 0.00070 -0.04492
 C50 C 0.64022 -0.07192 0.04203
 O51 O 0.05213 0.63956 0.70118
 O52 O 0.06585 0.51315 0.62538
 O53 O 0.03273 0.66537 0.63302
 O54 O 0.08117 0.48832 0.69267
 O55 O -0.08763 0.38752 0.69327
 O56 O -0.13550 0.56085 0.63323
 O57 O -0.10221 0.40766 0.62521
 O58 O -0.11745 0.54066 0.70060
 Cu59 Cu 0.07476 0.58757 0.66278
 Cu60 Cu -0.12773 0.46367 0.66279
 C61 C -0.03387 0.61160 0.71404
 C62 C -0.01470 0.43746 0.61291
 C63 C -0.06004 0.64325 0.62335
 C64 C 0.00429 0.40814 0.70349
 O65 O 0.44505 0.36775 0.30205
 O66 O 0.58921 0.56682 0.36604
 O67 O 0.41095 0.39987 0.36402
 O68 O 0.62109 0.53970 0.30318
 O69 O 0.53873 0.62155 0.28141
 O70 O 0.33204 0.48336 0.34061
 O71 O 0.50862 0.64978 0.34379
 O72 O 0.36614 0.45040 0.27809
 Cu73 Cu 0.52439 0.45982 0.33597
 Cu74 Cu 0.42787 0.55894 0.30861
 C75 C 0.38031 0.37386 0.27941
 C76 C 0.57470 0.64291 0.36568
 C77 C 0.33584 0.41873 0.36250
 C78 C 0.61603 0.60689 0.28263
 C79 C -0.12517 0.16519 0.52809
 C80 C -0.05334 0.24434 0.54626
 C81 C -0.07893 0.30048 0.56997
 C82 C -0.00208 0.38341 0.58488
 H83 H 0.02759 0.26620 0.54463
 H84 H -0.15828 0.27198 0.57643
 H85 H -0.20650 0.14046 0.53023
 H86 H 0.07637 0.41063 0.57756
 C87 C 0.93642 0.74881 0.21913
 C88 C 0.86973 0.75520 0.23886
 C89 C 0.78642 0.66912 0.25686
 C90 C 0.70133 0.67554 0.26115
 H91 H 0.87090 0.82743 0.23933
 H92 H 0.79474 0.60458 0.26670
 H93 H 0.93544 0.67742 0.21675
 H94 H 0.69499 0.73948 0.24918
 C95 C 0.19705 0.03216 -0.12854
 C96 C 0.18330 -0.04772 -0.10773
 C97 C 0.26288 -0.05690 -0.08466
 C98 C 0.34896 0.02043 -0.07069
 H99 H 0.10770 -0.11471 -0.10848
 H100 H 0.24404 -0.13374 -0.07682
 H101 H 0.27171 0.09977 -0.12934
 H102 H 0.36676 0.09787 -0.07677
 C103 C 0.00158 0.91138 0.53393
 C104 C -0.04468 0.85827 0.56236
 C105 C -0.01586 0.78686 0.58117
 C106 C -0.08321 0.71423 0.60170
 H107 H -0.10806 0.86514 0.57153
 H108 H 0.05923 0.79343 0.57825
 H109 H 0.05880 0.89871 0.52276
 H110 H -0.16011 0.70541 0.60255
 C111 C 0.20548 0.10980 0.21080
 C112 C 0.25364 0.11322 0.24418
 C113 C 0.31895 0.20074 0.26260
 C114 C 0.32210 0.29441 0.25650
 H115 H 0.24538 0.04337 0.25643
 H116 H 0.36134 0.19076 0.28565
 H117 H 0.23202 0.17827 0.19470
 H118 H 0.27141 0.30296 0.23605
 C119 C 0.84804 0.00619 -0.13064
 C120 C 0.86780 0.06826 -0.10417
 C121 C 0.78904 0.06430 -0.08234
 C122 C 0.70250 -0.02131 -0.07554
 H123 H 0.94691 0.12521 -0.09750
 H124 H 0.80997 0.13170 -0.06799
 H125 H 0.76938 -0.04420 -0.14026
 H126 H 0.68394 -0.09056 -0.08825
 C127 C 0.20261 -0.08465 0.12761
 C128 C 0.27810 0.00206 0.11467
 C129 C 0.35121 0.00870 0.08930
 C130 C 0.33956 -0.06927 0.07107
 H131 H 0.29037 0.07366 0.12351
 H132 H 0.41566 0.08329 0.08455
 H133 H 0.19465 -0.15654 0.12101
 H134 H 0.27423 -0.14387 0.07446
 C135 C 0.77325 0.88700 0.44284
 C136 C 0.78549 0.80857 0.43511
 C137 C 0.71383 0.72573 0.41160
 C138 C 0.63687 0.72561 0.39025
 H139 H 0.85013 0.80129 0.44738
 H140 H 0.72923 0.66284 0.41110
 H141 H 0.70498 0.89132 0.43284
 H142 H 0.62154 0.78862 0.38928
 C143 C 0.03732 0.18103 0.77884
 C144 C -0.04909 0.18624 0.76894
 C145 C -0.05718 0.25937 0.74314
 C146 C 0.02214 0.33883 0.72841
 H147 H -0.12090 0.13382 0.78027
 H148 H -0.13511 0.24668 0.73656
 H149 H 0.11063 0.23547 0.76882
 H150 H 0.10114 0.35552 0.73509
 C151 C 0.94259 -0.00387 0.12462
 C152 C 0.85001 -0.06518 0.10881
 C153 C 0.79463 -0.02945 0.08291
 C154 C 0.70441 -0.09747 0.06757
 H155 H 0.81297 -0.14562 0.11491
 H156 H 0.82618 0.05067 0.07677
 H157 H 0.98361 0.07554 0.11702
 H158 H 0.67567 -0.17729 0.07380
 C159 C 0.11200 0.14963 0.44417
 C160 C 0.14483 0.24023 0.42810
 C161 C 0.23215 0.28409 0.40521
 C162 C 0.25136 0.36792 0.38623
 H163 H 0.10519 0.28306 0.43113
 H164 H 0.27941 0.24812 0.40366
 H165 H 0.14763 0.10419 0.43937
 H166 H 0.20058 0.40030 0.38734
 C167 C -0.08691 0.84138 0.78036
 C168 C -0.07560 0.75872 0.78119
 C169 C -0.09557 0.69850 0.74999
 C170 C -0.03305 0.66007 0.74595
 H171 H -0.03796 0.74181 0.80413
 H172 H -0.15200 0.69445 0.72924
 H173 H -0.12670 0.85741 0.75786
 H174 H 0.02981 0.67441 0.76550
   
