data_POSCAR
  _audit_creation_date              2014-09-24
  _audit_creation_method            'ToBaCCo'
  _symmetry_space_group_name_H-M    'P1'
  _symmetry_Int_Tables_number       1
  _symmetry_cell_setting            triclinic
  loop_
  _symmetry_equiv_pos_as_xyz
 x,y,z
_cell_length_a 27.4944
_cell_length_b 27.3369
_cell_length_c 27.6265
_cell_angle_alpha 90.144700
_cell_angle_beta 89.932700
_cell_angle_gamma 89.453000
loop_
  _atom_site_label
  _atom_site_type_symbol
  _atom_site_fract_x
  _atom_site_fract_y
  _atom_site_fract_z
C1 C 0.28458 0.23064 0.21695
 N2 N 0.28091 0.19493 0.25066
 C3 C 0.24586 0.19722 0.28527
 N4 N 0.21421 0.23585 0.28621
 C5 C 0.21774 0.27190 0.25252
 N6 N 0.25287 0.26899 0.21805
 C7 C 0.72681 -0.24667 0.22210
 N8 N 0.72358 -0.21047 0.25582
 C9 C 0.75435 -0.20954 0.29403
 N10 N 0.78855 -0.24524 0.29878
 C11 C 0.79257 -0.28146 0.26539
 N12 N 0.76156 -0.28210 0.22692
 C13 C 0.71993 0.25319 0.79332
 N14 N 0.71536 0.22309 0.75447
 C15 C 0.74346 0.22945 0.71467
 N16 N 0.77639 0.26591 0.71392
 C17 C 0.78125 0.29646 0.75244
 N18 N 0.75275 0.29004 0.79211
 C19 C 0.28180 -0.23548 0.81501
 N20 N 0.24683 -0.27003 0.81699
 C21 C 0.21229 -0.27282 0.78220
 N22 N 0.21243 -0.24031 0.74504
 C23 C 0.24708 -0.20513 0.74280
 N24 N 0.28181 -0.20301 0.77775
 C25 C 0.70640 -0.24697 0.78587
 N26 N 0.70376 -0.21258 0.75048
 C27 C 0.73757 -0.21172 0.71458
 N28 N 0.77419 -0.24519 0.71436
 C29 C 0.77751 -0.27958 0.74946
 N30 N 0.74344 -0.28045 0.78521
 C31 C 0.28804 0.26926 0.77210
 N32 N 0.28600 0.22784 0.74482
 C33 C 0.25159 0.22320 0.70976
 N34 N 0.21889 0.26027 0.70236
 C35 C 0.22103 0.30178 0.72956
 N36 N 0.25571 0.30596 0.76405
 C37 C 0.28382 -0.25465 0.21629
 N38 N 0.24996 -0.29032 0.21324
 C39 C 0.21483 -0.29468 0.24744
 N40 N 0.21369 -0.26266 0.28533
 C41 C 0.24748 -0.22680 0.28905
 N42 N 0.28249 -0.22294 0.25437
 C43 C 0.70702 0.25397 0.21772
 N44 N 0.70628 0.22299 0.25600
 C45 C 0.74425 0.22084 0.28727
 N46 N 0.78331 0.24977 0.27984
 C47 C 0.78477 0.28080 0.24157
 N48 N 0.74641 0.28287 0.21044
 O49 O 0.20711 0.03850 0.46181
 O50 O 0.20867 -0.05525 0.55796
 O51 O 0.20964 0.04075 0.55543
 O52 O 0.20529 -0.05707 0.46290
 O53 O 0.28551 -0.05887 0.46006
 O54 O 0.28990 0.03808 0.55338
 O55 O 0.28890 -0.05743 0.55507
 O56 O 0.28741 0.03610 0.45965
 Cu57 Cu 0.19963 -0.00839 0.50990
 Cu58 Cu 0.29591 -0.01104 0.50691
 C59 C 0.24722 0.05355 0.44474
 C60 C 0.24916 -0.07211 0.57303
 C61 C 0.25057 0.05664 0.56957
 C62 C 0.24460 -0.07406 0.44509
 O63 O 0.78224 0.05746 0.55145
 O64 O 0.78163 -0.04219 0.46263
 O65 O 0.78315 0.05277 0.45746
 O66 O 0.78076 -0.03698 0.55610
 O67 O 0.70039 -0.03574 0.55531
 O68 O 0.70283 0.05515 0.45702
 O69 O 0.70131 -0.04013 0.46125
 O70 O 0.70187 0.05880 0.55158
 Cu71 Cu 0.79004 0.00768 0.50684
 Cu72 Cu 0.69343 0.00985 0.50606
 C73 C 0.74223 0.07454 0.56724
 C74 C 0.74146 -0.05836 0.44699
 C75 C 0.74347 0.06929 0.44042
 C76 C 0.74034 -0.05163 0.57254
 O77 O 0.45455 0.18630 0.04587
 O78 O 0.55275 0.19479 -0.04502
 O79 O 0.54893 0.19453 0.04894
 O80 O 0.45979 0.17964 -0.04847
 O81 O 0.44958 0.25979 -0.05181
 O82 O 0.54018 0.27487 0.04584
 O83 O 0.54224 0.27499 -0.04751
 O84 O 0.44518 0.26651 0.04279
 Cu85 Cu 0.50490 0.18079 0.00076
 Cu86 Cu 0.49292 0.27704 -0.00269
 C87 C 0.43317 0.22529 0.05981
 C88 C 0.56407 0.23654 -0.06169
 C89 C 0.56050 0.23687 0.06341
 C90 C 0.43995 0.21703 -0.06727
 O91 O 0.55497 0.79022 0.06170
 O92 O 0.45949 0.79488 -0.03156
 O93 O 0.46018 0.79046 0.06313
 O94 O 0.55399 0.79501 -0.03243
 O95 O 0.55534 0.71428 -0.03585
 O96 O 0.46120 0.70978 0.05896
 O97 O 0.46058 0.71417 -0.03529
 O98 O 0.55604 0.70952 0.05802
 Cu99 Cu 0.50701 0.80075 0.01566
 Cu100 Cu 0.50829 0.70386 0.01107
 C101 C 0.57183 0.74919 0.07572
 C102 C 0.44399 0.75516 -0.04953
 C103 C 0.44479 0.74922 0.07737
 C104 C 0.57073 0.75544 -0.05029
 O105 O 0.05162 0.43820 0.19561
 O106 O -0.04286 0.53237 0.18107
 O107 O 0.05132 0.53433 0.19215
 O108 O -0.04367 0.43890 0.19221
 O109 O -0.04822 0.44526 0.27183
 O110 O 0.04531 0.53987 0.27164
 O111 O -0.04895 0.53912 0.26056
 O112 O 0.04617 0.44361 0.27519
 Cu113 Cu 0.00516 0.48519 0.18237
 Cu114 Cu -0.00166 0.49271 0.27773
 C115 C 0.06458 0.42421 0.23738
 C116 C -0.06258 0.55130 0.21817
 C117 C 0.06389 0.55386 0.23204
 C118 C -0.06260 0.42658 0.23241
 O119 O 0.04267 0.56089 0.76566
 O120 O -0.04542 0.46141 0.77979
 O121 O 0.04843 0.46545 0.77065
 O122 O -0.05156 0.55554 0.77543
 O123 O -0.05808 0.55182 0.69582
 O124 O 0.04112 0.46002 0.69121
 O125 O -0.05273 0.45743 0.70026
 O126 O 0.03610 0.55605 0.68616
 Cu127 Cu -0.00040 0.51141 0.78084
 Cu128 Cu -0.00887 0.50598 0.68531
 C129 C 0.05421 0.57562 0.72362
 C130 C -0.06438 0.44276 0.74227
 C131 C 0.06120 0.44667 0.73049
 C132 C -0.07226 0.56860 0.73642
 C133 C 0.32316 0.22737 0.17994
 C134 C 0.32968 0.26252 0.14688
 C135 C 0.36890 0.26225 0.11026
 C136 C 0.39421 0.22240 0.09634
 H137 H 0.30652 0.29478 0.14761
 H138 H 0.37613 0.29704 0.09314
 H139 H 0.34722 0.19587 0.18116
 H140 H 0.38618 0.18683 0.11121
 C141 C 0.69458 0.75202 0.18298
 C142 C 0.66092 0.78725 0.17571
 C143 C 0.62532 0.78739 0.13577
 C144 C 0.60990 0.74704 0.11312
 H145 H 0.65967 0.81903 0.19920
 H146 H 0.60893 0.82246 0.12704
 H147 H 0.69769 0.72170 0.15785
 H148 H 0.62391 0.71138 0.12321
 C149 C 0.68838 0.24729 -0.16414
 C150 C 0.66002 0.20803 -0.15860
 C151 C 0.62453 0.20296 -0.11891
 C152 C 0.60252 0.24150 -0.09816
 H153 H 0.66280 0.17782 -0.18393
 H154 H 0.61346 0.16627 -0.10949
 H155 H 0.68850 0.27606 -0.13714
 H156 H 0.61107 0.27824 -0.10974
 C157 C 0.31730 0.76509 -0.14891
 C158 C 0.35315 0.79798 -0.14681
 C159 C 0.39092 0.79711 -0.10870
 C160 C 0.40618 0.75579 -0.08718
 H161 H 0.35423 0.82785 -0.17248
 H162 H 0.40814 0.83147 -0.09992
 H163 H 0.31487 0.73733 -0.12112
 H164 H 0.39170 0.72083 -0.09827
 C165 C 0.18384 0.31395 0.25168
 C166 C 0.14878 0.32141 0.28476
 C167 C 0.11364 0.36283 0.28231
 C168 C 0.10123 0.38475 0.24067
 H169 H 0.14606 0.29707 0.31549
 H170 H 0.09552 0.37352 0.31558
 H171 H 0.18870 0.33985 0.22256
 H172 H 0.11661 0.37203 0.20679
 C173 C 0.17535 0.68883 0.78598
 C174 C 0.14694 0.67556 0.74916
 C175 C 0.11208 0.63551 0.75541
 C176 C 0.08875 0.61602 0.71774
 H177 H 0.15023 0.69325 0.71424
 H178 H 0.10613 0.62114 0.79147
 H179 H 0.17286 0.66944 0.82007
 H180 H 0.09551 0.62968 0.68157
 C181 C -0.17116 0.68310 0.27150
 C182 C -0.16067 0.64873 0.23856
 C183 C -0.12090 0.61346 0.24730
 C184 C -0.10218 0.58704 0.21105
 H185 H -0.18022 0.64737 0.20451
 H186 H -0.10610 0.60990 0.28351
 H187 H -0.14950 0.68472 0.30427
 H188 H -0.11604 0.59206 0.17465
 C189 C -0.18487 0.33418 0.75161
 C190 C -0.15676 0.34268 0.71275
 C191 C -0.12081 0.38219 0.70961
 C192 C -0.10046 0.40386 0.74799
 H193 H -0.16109 0.32101 0.68018
 H194 H -0.10940 0.39229 0.67348
 H195 H -0.18231 0.35732 0.78332
 H196 H -0.10957 0.39271 0.78440
 C197 C 0.24377 0.15783 0.32144
 C198 C 0.20952 0.15541 0.35589
 C199 C 0.20836 0.11615 0.39272
 C200 C 0.24824 0.09169 0.40729
 H201 H 0.18018 0.18212 0.35654
 H202 H 0.17373 0.10903 0.40991
 H203 H 0.27142 0.12952 0.31874
 H204 H 0.28355 0.10084 0.39275
 C205 C 0.73979 0.19673 0.67274
 C206 C 0.70556 0.16241 0.66920
 C207 C 0.70374 0.12713 0.62885
 C208 C 0.74356 0.11253 0.60467
 H209 H 0.67725 0.16014 0.69637
 H210 H 0.66908 0.11019 0.62142
 H211 H 0.76616 0.20144 0.64405
 H212 H 0.77896 0.12651 0.61430
 C213 C 0.24776 -0.16922 0.70301
 C214 C 0.21185 -0.16549 0.67032
 C215 C 0.21094 -0.12885 0.63092
 C216 C 0.25101 -0.10877 0.61206
 H217 H 0.18021 -0.18855 0.67365
 H218 H 0.17569 -0.11964 0.61584
 H219 H 0.27806 -0.14428 0.70190
 H220 H 0.28663 -0.11985 0.62483
 C221 C 0.75053 -0.16951 0.32941
 C222 C 0.78331 -0.16369 0.36471
 C223 C 0.78180 -0.12296 0.39968
 C224 C 0.74103 -0.09867 0.41184
 H225 H 0.81436 -0.18826 0.36696
 H226 H 0.81576 -0.11409 0.41733
 H227 H 0.72103 -0.14345 0.32485
 H228 H 0.70626 -0.10910 0.39691
 C229 C 0.67101 0.75289 -0.17775
 C230 C 0.66963 0.71901 -0.14265
 C231 C 0.63174 0.71796 -0.10465
 C232 C 0.60816 0.75792 -0.08839
 H233 H 0.69564 0.68899 -0.14272
 H234 H 0.62477 0.68284 -0.08810
 H235 H 0.64307 0.78104 -0.17915
 H236 H 0.61713 0.79370 -0.10230
 C237 C 0.32419 0.27545 -0.18917
 C238 C 0.35022 0.23848 -0.17080
 C239 C 0.38377 0.24707 -0.13014
 C240 C 0.40593 0.20985 -0.10774
 H241 H 0.34584 0.20170 -0.18481
 H242 H 0.39002 0.28428 -0.11813
 H243 H 0.32782 0.31171 -0.17366
 H244 H 0.39923 0.17271 -0.11969
 C245 C 0.31941 0.74815 0.18020
 C246 C 0.35383 0.78267 0.17894
 C247 C 0.39127 0.78528 0.14038
 C248 C 0.40731 0.74613 0.11543
 H249 H 0.35377 0.81166 0.20575
 H250 H 0.40753 0.82062 0.13400
 H251 H 0.31799 0.72109 0.15156
 H252 H 0.39368 0.71010 0.12374
 C253 C 0.66552 0.25401 0.18414
 C254 C 0.66089 0.28529 0.14713
 C255 C 0.62035 0.28278 0.11199
 C256 C 0.59833 0.24071 0.10074
 H257 H 0.68698 0.31436 0.14261
 H258 H 0.61093 0.31587 0.09253
 H259 H 0.63766 0.22709 0.19069
 H260 H 0.61033 0.20681 0.11723
 C261 C -0.18393 0.68691 0.74771
 C262 C -0.17622 0.65235 0.78129
 C263 C -0.13476 0.61754 0.77909
 C264 C -0.11324 0.60355 0.73762
 H265 H -0.19947 0.65054 0.81291
 H266 H -0.12305 0.60148 0.81299
 H267 H -0.15871 0.69031 0.71780
 H268 H -0.12683 0.61657 0.70319
 C269 C -0.17440 0.31021 0.23580
 C270 C -0.16853 0.34179 0.19913
 C271 C -0.12623 0.37484 0.19564
 C272 C -0.10213 0.39080 0.23468
 H273 H -0.19493 0.34341 0.17009
 H274 H -0.11711 0.38897 0.16022
 H275 H -0.14615 0.30660 0.26287
 H276 H -0.11351 0.37983 0.27052
 C277 C 0.18567 0.34218 0.72426
 C278 C 0.14817 0.34171 0.69337
 C279 C 0.11110 0.38144 0.69184
 C280 C 0.09960 0.40881 0.73070
 H281 H 0.14453 0.31181 0.66788
 H282 H 0.09081 0.38606 0.65856
 H283 H 0.19088 0.37345 0.74773
 H284 H 0.11712 0.40188 0.76510
 C285 C 0.18097 0.66762 0.24290
 C286 C 0.14575 0.65944 0.27552
 C287 C 0.11058 0.61875 0.27249
 C288 C 0.10024 0.59335 0.23209
 H289 H 0.14326 0.68220 0.30760
 H290 H 0.09108 0.61067 0.30556
 H291 H 0.18472 0.64367 0.21186
 H292 H 0.11727 0.60228 0.19799
 C293 C 0.73606 -0.17485 0.67599
 C294 C 0.70082 -0.14090 0.67209
 C295 C 0.70025 -0.10375 0.63328
 C296 C 0.74084 -0.08777 0.61179
 H297 H 0.67026 -0.14122 0.69685
 H298 H 0.66532 -0.08807 0.62346
 H299 H 0.76502 -0.17661 0.64947
 H300 H 0.77615 -0.10085 0.62358
 C301 C 0.24561 -0.19264 0.33072
 C302 C 0.28098 -0.16028 0.33958
 C303 C 0.28153 -0.12565 0.38104
 C304 C 0.24208 -0.11133 0.40625
 H305 H 0.31264 -0.15985 0.31623
 H306 H 0.31628 -0.10924 0.38919
 H307 H 0.21496 -0.19544 0.35511
 H308 H 0.20656 -0.12519 0.39698
 C309 C 0.74418 0.18707 0.32871
 C310 C 0.70634 0.15820 0.33884
 C311 C 0.70543 0.12323 0.37958
 C312 C 0.74550 0.10513 0.40086
 H313 H 0.67360 0.16087 0.31722
 H314 H 0.67003 0.11039 0.39083
 H315 H 0.77615 0.18674 0.35147
 H316 H 0.78123 0.11557 0.38844
 C317 C 0.25089 0.17819 0.67996
 C318 C 0.21557 0.16887 0.64784
 C319 C 0.21403 0.12468 0.61662
 C320 C 0.25321 0.09764 0.60441
 H321 H 0.18515 0.19413 0.64473
 H322 H 0.17919 0.11626 0.60050
 H323 H 0.28007 0.15196 0.68545
 H324 H 0.28884 0.10733 0.61771
   
