data_POSCAR
  _audit_creation_date              2014-09-24
  _audit_creation_method            'ToBaCCo'
  _symmetry_space_group_name_H-M    'P1'
  _symmetry_Int_Tables_number       1
  _symmetry_cell_setting            triclinic
  loop_
  _symmetry_equiv_pos_as_xyz
 x,y,z
_cell_length_a 55.2664
_cell_length_b 33.6699
_cell_length_c 17.9840
_cell_angle_alpha 90.147900
_cell_angle_beta 90.181200
_cell_angle_gamma 89.777100
loop_
  _atom_site_label
  _atom_site_type_symbol
  _atom_site_fract_x
  _atom_site_fract_y
  _atom_site_fract_z
C1 C 0.73176 0.28065 0.53624
 C2 C 0.73306 0.27694 0.45757
 C3 C 0.75274 0.25740 0.42498
 C4 C 0.77232 0.24318 0.46748
 C5 C 0.77157 0.24760 0.54659
 C6 C 0.75162 0.26735 0.57893
 H7 H 0.75032 0.26840 0.63901
 H8 H 0.75367 0.25637 0.36476
 C9 C 0.23162 0.77144 0.54182
 C10 C 0.23378 0.78078 0.46540
 C11 C 0.25431 0.76799 0.42636
 C12 C 0.27284 0.74641 0.46144
 C13 C 0.27109 0.73765 0.53862
 C14 C 0.25015 0.74984 0.57700
 H15 H 0.24847 0.74370 0.63590
 H16 H 0.25566 0.77422 0.36737
 C17 C 0.26856 0.26083 -0.53728
 C18 C 0.26826 0.25967 -0.45896
 C19 C 0.24801 0.24427 -0.42231
 C20 C 0.22779 0.22966 -0.46196
 C21 C 0.22868 0.22925 -0.54169
 C22 C 0.24885 0.24598 -0.57733
 H23 H 0.24996 0.24571 -0.63752
 H24 H 0.24778 0.24529 -0.36207
 C25 C -0.22949 0.76140 -0.53355
 C26 C -0.23143 0.75898 -0.45536
 C27 C -0.25118 0.73919 -0.42394
 C28 C -0.26981 0.72288 -0.46825
 C29 C -0.26762 0.72498 -0.54758
 C30 C -0.24774 0.74515 -0.57820
 H31 H -0.24534 0.74568 -0.63802
 H32 H -0.25279 0.73919 -0.36388
 N33 N -0.02656 0.93104 -0.08854
 N34 N -0.04513 0.90734 -0.10064
 N35 N 0.02459 0.95965 -0.13321
 N36 N 0.04192 0.95382 -0.18235
 N37 N 0.02435 0.93085 -0.08415
 N38 N 0.04164 0.90477 -0.09833
 N39 N -0.02627 0.95998 -0.13731
 N40 N -0.04467 0.95673 -0.18393
 C41 C -0.05626 0.92366 -0.16044
 C42 C 0.05254 0.91963 -0.15958
 N43 N 0.02412 1.07131 -0.06985
 N44 N 0.04261 1.09584 -0.07445
 N45 N -0.02621 1.04532 -0.12895
 N46 N -0.04407 1.05123 -0.17634
 N47 N -0.02690 1.07163 -0.07500
 N48 N -0.04536 1.09623 -0.08437
 N49 N 0.02462 1.04533 -0.12440
 N50 N 0.04339 1.05172 -0.16799
 Mn51 Mn -0.00079 1.00262 -0.13183
 C52 C 0.05447 1.08334 -0.13602
 C53 C -0.05590 1.08306 -0.14801
 N54 N 0.02300 0.92669 0.07586
 N55 N 0.04173 0.90260 0.08361
 N56 N -0.02839 0.95289 0.12538
 N57 N -0.04698 0.94667 0.16952
 N58 N -0.02802 0.92684 0.07102
 N59 N -0.04652 0.90231 0.07633
 N60 N 0.02245 0.95289 0.13000
 N61 N 0.04081 0.94738 0.17600
 Mn62 Mn -0.00179 0.92836 -0.00646
 C63 C 0.05267 0.91582 0.14647
 C64 C -0.05817 0.91506 0.13821
 N65 N -0.02819 1.06746 0.08525
 N66 N -0.04627 1.09244 0.09671
 N67 N 0.02210 1.03806 0.13849
 N68 N 0.04033 1.04085 0.18559
 N69 N 0.02270 1.06702 0.08984
 N70 N 0.04144 1.09033 0.10257
 N71 N -0.02879 1.03825 0.13342
 N72 N -0.04742 1.04237 0.17858
 Mn73 Mn -0.00208 1.06988 0.00758
 Mn74 Mn -0.00318 0.99551 0.13267
 Cl75 Cl -0.00195 0.99909 0.00045
 C76 C -0.05816 1.07634 0.15501
 C77 C 0.05223 1.07362 0.16268
 N78 N 0.52655 0.53664 0.13375
 N79 N 0.54559 0.53847 0.17783
 N80 N 0.47599 0.56924 0.08732
 N81 N 0.45801 0.59446 0.09892
 N82 N 0.47582 0.54089 0.13725
 N83 N 0.45781 0.54604 0.18422
 N84 N 0.52701 0.56524 0.08437
 N85 N 0.54651 0.58733 0.09351
 C86 C 0.55790 0.57024 0.15223
 C87 C 0.44685 0.57961 0.15978
 N88 N 0.47384 0.54518 -0.12593
 N89 N 0.45569 0.55289 -0.17157
 N90 N 0.52583 0.56787 -0.07525
 N91 N 0.54502 0.59064 -0.08265
 N92 N 0.52478 0.54146 -0.12901
 N93 N 0.54322 0.54584 -0.17489
 N94 N 0.47504 0.57208 -0.07307
 N95 N 0.45786 0.59905 -0.08175
 Mn96 Mn 0.50095 0.56912 0.00588
 C97 C 0.44587 0.58657 -0.14329
 C98 C 0.55569 0.57668 -0.14511
 N99 N 0.47348 0.45580 0.13215
 N100 N 0.45606 0.45102 0.18110
 N101 N 0.52291 0.42467 0.07565
 N102 N 0.54115 0.39939 0.08049
 N103 N 0.52427 0.45156 0.12840
 N104 N 0.54351 0.44536 0.17052
 N105 N 0.47206 0.42894 0.07932
 N106 N 0.45358 0.40498 0.09116
 Mn107 Mn 0.50004 0.49622 0.13367
 C108 C 0.44373 0.41931 0.15487
 C109 C 0.55383 0.41261 0.14007
 N110 N 0.52239 0.45571 -0.13395
 N111 N 0.54162 0.45184 -0.17678
 N112 N 0.47102 0.43142 -0.08121
 N113 N 0.45220 0.40805 -0.09176
 N114 N 0.47140 0.45979 -0.13114
 N115 N 0.45272 0.45662 -0.17675
 N116 N 0.52191 0.42744 -0.08378
 N117 N 0.54087 0.40383 -0.09079
 Mn118 Mn 0.49810 0.50052 -0.13103
 Mn119 Mn 0.49691 0.42762 -0.00262
 Cl120 Cl 0.49897 0.49838 0.00140
 C121 C 0.55291 0.41918 -0.14941
 C122 C 0.44089 0.42416 -0.15149
 C123 C 0.30113 0.25336 0.36759
 C124 C 0.32027 0.26872 0.32630
 C125 C 0.32808 0.30788 0.33762
 C126 C 0.31598 0.33174 0.39030
 C127 C 0.29678 0.31637 0.43143
 C128 C 0.28931 0.27700 0.42071
 C129 C 0.34822 0.32312 0.29172
 C130 C 0.36276 0.35263 0.31418
 C131 C 0.38310 0.36889 0.27001
 C132 C 0.39415 0.40382 0.29567
 C133 C 0.41364 0.42028 0.25771
 C134 C 0.42263 0.40212 0.19308
 C135 C 0.41164 0.36731 0.16677
 C136 C 0.39210 0.35071 0.20489
 H137 H 0.29552 0.22296 0.35823
 H138 H 0.32912 0.24987 0.28563
 H139 H 0.32080 0.36252 0.39869
 H140 H 0.28748 0.33538 0.47079
 H141 H 0.35119 0.30863 0.23888
 H142 H 0.35982 0.36585 0.36834
 H143 H 0.38770 0.41849 0.34555
 H144 H 0.42173 0.44720 0.27933
 H145 H 0.41832 0.35263 0.11722
 H146 H 0.38458 0.32345 0.18338
 C147 C -0.18450 0.76672 0.45033
 C148 C -0.16428 0.78399 0.41743
 C149 C -0.16709 0.81241 0.36123
 C150 C -0.19053 0.82372 0.33896
 C151 C -0.21078 0.80702 0.37299
 C152 C -0.20795 0.77866 0.42954
 C153 C -0.14533 0.83110 0.32954
 C154 C -0.14393 0.84260 0.25846
 C155 C -0.12197 0.86139 0.22814
 C156 C -0.11496 0.85327 0.15473
 C157 C -0.09406 0.87042 0.12539
 C158 C -0.08020 0.89674 0.16855
 C159 C -0.08759 0.90566 0.24133
 C160 C -0.10821 0.88801 0.27103
 H161 H -0.18184 0.74422 0.49250
 H162 H -0.14638 0.77490 0.43545
 H163 H -0.19323 0.84622 0.29683
 H164 H -0.22867 0.81673 0.35612
 H165 H -0.12955 0.83368 0.36516
 H166 H -0.15869 0.83623 0.22052
 H167 H -0.12547 0.83314 0.12052
 H168 H -0.08884 0.86336 0.06886
 H169 H -0.07731 0.92606 0.27561
 H170 H -0.11355 0.89565 0.32716
 C171 C 0.70858 0.72310 0.33680
 C172 C 0.69135 0.70471 0.29143
 C173 C 0.68190 0.66755 0.31048
 C174 C 0.69135 0.64771 0.37295
 C175 C 0.70852 0.66607 0.41840
 C176 C 0.71661 0.70480 0.40291
 C177 C 0.66190 0.65091 0.26520
 C178 C 0.64526 0.62644 0.29376
 C179 C 0.62382 0.61172 0.25261
 C180 C 0.61191 0.57819 0.28031
 C181 C 0.59074 0.56446 0.24683
 C182 C 0.58084 0.58422 0.18512
 C183 C 0.59279 0.61757 0.15661
 C184 C 0.61407 0.63132 0.19009
 H185 H 0.71445 0.75274 0.32233
 H186 H 0.68467 0.72030 0.24285
 H187 H 0.68555 0.61805 0.38715
 H188 H 0.71541 0.64992 0.46602
 H189 H 0.66023 0.66101 0.20837
 H190 H 0.64696 0.61699 0.35102
 H191 H 0.61893 0.56269 0.32856
 H192 H 0.58195 0.53861 0.26997
 H193 H 0.58548 0.63339 0.10918
 H194 H 0.62229 0.65788 0.16813
 C195 C 0.20317 1.22705 0.34618
 C196 C 0.18507 1.20898 0.30375
 C197 C 0.17467 1.17319 0.32675
 C198 C 0.18372 1.15452 0.39099
 C199 C 0.20183 1.17252 0.43345
 C200 C 0.21125 1.20979 0.41321
 C201 C 0.15444 1.15647 0.28257
 C202 C 0.13742 1.13308 0.31213
 C203 C 0.11624 1.11791 0.27030
 C204 C 0.10433 1.08430 0.29764
 C205 C 0.08369 1.06974 0.26213
 C206 C 0.07436 1.08878 0.19884
 C207 C 0.08619 1.12245 0.17123
 C208 C 0.10691 1.13700 0.20667
 H209 H 0.20990 1.25563 0.32829
 H210 H 0.17865 1.22369 0.25389
 H211 H 0.17709 1.12586 0.40847
 H212 H 0.20858 1.15706 0.48205
 H213 H 0.15314 1.16528 0.22490
 H214 H 0.13875 1.12459 0.36999
 H215 H 0.11101 1.06923 0.34680
 H216 H 0.07494 1.04371 0.28470
 H217 H 0.07928 1.13780 0.12269
 H218 H 0.11508 1.16369 0.18508
 C219 C 0.68741 0.28661 -0.45481
 C220 C 0.66681 0.30326 -0.42265
 C221 C 0.66872 0.32785 -0.36013
 C222 C 0.69171 0.33520 -0.32957
 C223 C 0.71247 0.31901 -0.36254
 C224 C 0.71074 0.29539 -0.42732
 C225 C 0.64647 0.34662 -0.33074
 C226 C 0.64324 0.35545 -0.25881
 C227 C 0.62029 0.37266 -0.23115
 C228 C 0.61164 0.36133 -0.16117
 C229 C 0.58961 0.37622 -0.13481
 C230 C 0.57614 0.40345 -0.17734
 C231 C 0.58515 0.41572 -0.24641
 C232 C 0.60697 0.40034 -0.27329
 H233 H 0.68491 0.26632 -0.50091
 H234 H 0.64925 0.29663 -0.44646
 H235 H 0.69380 0.35462 -0.28194
 H236 H 0.72992 0.32688 -0.33940
 H237 H 0.63163 0.35109 -0.36941
 H238 H 0.65695 0.34725 -0.21844
 H239 H 0.62171 0.34034 -0.12749
 H240 H 0.58320 0.36661 -0.08094
 H241 H 0.57522 0.43694 -0.27997
 H242 H 0.61352 0.41043 -0.32666
 C243 C 0.21416 0.80546 -0.34671
 C244 C 0.19446 0.81893 -0.30513
 C245 C 0.17075 0.81204 -0.32978
 C246 C 0.16702 0.78974 -0.39503
 C247 C 0.18675 0.77559 -0.43587
 C248 C 0.21050 0.78421 -0.41307
 C249 C 0.15035 0.82835 -0.28628
 C250 C 0.13024 0.84247 -0.31868
 C251 C 0.11060 0.86191 -0.27627
 C252 C 0.09742 0.89272 -0.30985
 C253 C 0.07880 0.91189 -0.27140
 C254 C 0.07264 0.89994 -0.19917
 C255 C 0.08555 0.86867 -0.16585
 C256 C 0.10445 0.84989 -0.20390
 H257 H 0.23230 0.81227 -0.32779
 H258 H 0.19773 0.83572 -0.25464
 H259 H 0.14891 0.78296 -0.41414
 H260 H 0.18349 0.75827 -0.48569
 H261 H 0.15289 0.83201 -0.22690
 H262 H 0.12892 0.84268 -0.37882
 H263 H 0.10175 0.90229 -0.36571
 H264 H 0.06903 0.93574 -0.29859
 H265 H 0.08107 0.85877 -0.11033
 H266 H 0.11392 0.82558 -0.17719
 C267 C 0.28423 0.68859 -0.36855
 C268 C 0.30264 0.66828 -0.33089
 C269 C 0.32696 0.67775 -0.34311
 C270 C 0.33264 0.70759 -0.39453
 C271 C 0.31430 0.72740 -0.43326
 C272 C 0.28977 0.71791 -0.42166
 C273 C 0.34607 0.65503 -0.30401
 C274 C 0.36694 0.67152 -0.28212
 C275 C 0.38633 0.64868 -0.24465
 C276 C 0.40106 0.66773 -0.19197
 C277 C 0.42009 0.64727 -0.15763
 C278 C 0.42510 0.60765 -0.17689
 C279 C 0.41047 0.58861 -0.22996
 C280 C 0.39117 0.60885 -0.26329
 H281 H 0.26567 0.67998 -0.35840
 H282 H 0.29787 0.64516 -0.29188
 H283 H 0.35128 0.71523 -0.40585
 H284 H 0.31938 0.75095 -0.47089
 H285 H 0.34234 0.62437 -0.29011
 H286 H 0.36958 0.70317 -0.28904
 H287 H 0.39777 0.69850 -0.17725
 H288 H 0.43119 0.66269 -0.11717
 H289 H 0.41400 0.55809 -0.24590
 H290 H 0.38050 0.59364 -0.30505
 C291 C -0.20278 1.24882 -0.34115
 C292 C -0.18483 1.23152 -0.29654
 C293 C -0.17515 1.19418 -0.31459
 C294 C -0.18484 1.17333 -0.37556
 C295 C -0.20265 1.19059 -0.42021
 C296 C -0.21130 1.22923 -0.40547
 C297 C -0.15510 1.17769 -0.26894
 C298 C -0.13864 1.15245 -0.29710
 C299 C -0.11808 1.13511 -0.25490
 C300 C -0.10641 1.10179 -0.28535
 C301 C -0.08644 1.08481 -0.24999
 C302 C -0.07748 1.10095 -0.18341
 C303 C -0.08909 1.13423 -0.15237
 C304 C -0.10921 1.15127 -0.18779
 H305 H -0.20904 1.27844 -0.32726
 H306 H -0.17799 1.24788 -0.24903
 H307 H -0.17892 1.14349 -0.38876
 H308 H -0.20989 1.17331 -0.46596
 H309 H -0.15364 1.18773 -0.21196
 H310 H -0.14013 1.14360 -0.35483
 H311 H -0.11276 1.08880 -0.33699
 H312 H -0.07790 1.05914 -0.27530
 H313 H -0.08246 1.14733 -0.10119
 H314 H -0.11729 1.17744 -0.16319
 C315 C 0.68584 0.71579 -0.46063
 C316 C 0.66543 0.69870 -0.42842
 C317 C 0.66762 0.67466 -0.36529
 C318 C 0.69070 0.66842 -0.33421
 C319 C 0.71119 0.68521 -0.36685
 C320 C 0.70921 0.70813 -0.43217
 C321 C 0.64565 0.65528 -0.33559
 C322 C 0.64310 0.64516 -0.26403
 C323 C 0.62075 0.62680 -0.23492
 C324 C 0.61367 0.63523 -0.16176
 C325 C 0.59250 0.61894 -0.13280
 C326 C 0.57825 0.59316 -0.17596
 C327 C 0.58567 0.58373 -0.24850
 C328 C 0.60668 0.60055 -0.27793
 H329 H 0.68324 0.73506 -0.50811
 H330 H 0.64782 0.70437 -0.45292
 H331 H 0.69314 0.64938 -0.28637
 H332 H 0.72874 0.67825 -0.34314
 H333 H 0.63060 0.65112 -0.37351
 H334 H 0.65707 0.65293 -0.22429
 H335 H 0.62434 0.65502 -0.12734
 H336 H 0.58733 0.62644 -0.07642
 H337 H 0.57510 0.56372 -0.28272
 H338 H 0.61204 0.59258 -0.33387
 C339 C 0.18345 1.22796 -0.44742
 C340 C 0.16293 1.21289 -0.41252
 C341 C 0.16510 1.18908 -0.34908
 C342 C 0.18828 1.18165 -0.31962
 C343 C 0.20889 1.19641 -0.35500
 C344 C 0.20687 1.21839 -0.42145
 C345 C 0.14305 1.17025 -0.31882
 C346 C 0.14069 1.15902 -0.24779
 C347 C 0.11858 1.13928 -0.22015
 C348 C 0.11083 1.14662 -0.14720
 C349 C 0.08991 1.12858 -0.11995
 C350 C 0.07668 1.10209 -0.16468
 C351 C 0.08478 1.09389 -0.23702
 C352 C 0.10547 1.11244 -0.26468
 H353 H 0.18093 1.24673 -0.49565
 H354 H 0.14526 1.21951 -0.43575
 H355 H 0.19068 1.16285 -0.27144
 H356 H 0.22645 1.18818 -0.33292
 H357 H 0.12787 1.16655 -0.35649
 H358 H 0.15470 1.16617 -0.20780
 H359 H 0.12079 1.16684 -0.11163
 H360 H 0.08417 1.13516 -0.06370
 H361 H 0.07500 1.07340 -0.27248
 H362 H 0.11138 1.10529 -0.32048
 C363 C 0.31163 0.25569 -0.41959
 C364 C 0.33153 0.27094 -0.38096
 C365 C 0.32921 0.30550 -0.33771
 C366 C 0.30633 0.32370 -0.33138
 C367 C 0.28635 0.30808 -0.36920
 C368 C 0.28896 0.27437 -0.41446
 C369 C 0.35082 0.32129 -0.29894
 C370 C 0.35430 0.36020 -0.28704
 C371 C 0.37647 0.37605 -0.25136
 C372 C 0.38481 0.41382 -0.27165
 C373 C 0.40581 0.42946 -0.23951
 C374 C 0.41861 0.40789 -0.18533
 C375 C 0.40996 0.37051 -0.16368
 C376 C 0.38914 0.35466 -0.19646
 H377 H 0.31392 0.22954 -0.45409
 H378 H 0.34890 0.25620 -0.38610
 H379 H 0.30381 0.34975 -0.29684
 H380 H 0.26894 0.32277 -0.36452
 H381 H 0.36502 0.30037 -0.28462
 H382 H 0.34127 0.38143 -0.30845
 H383 H 0.37522 0.43102 -0.31327
 H384 H 0.41197 0.45849 -0.25682
 H385 H 0.41936 0.35335 -0.12163
 H386 H 0.38282 0.32597 -0.17796
 C387 C -0.20146 0.75643 -0.35056
 C388 C -0.18317 0.77397 -0.30792
 C389 C -0.17660 0.81372 -0.31960
 C390 C -0.18965 0.83630 -0.37198
 C391 C -0.20801 0.81882 -0.41427
 C392 C -0.21361 0.77847 -0.40537
 C393 C -0.15613 0.83048 -0.27634
 C394 C -0.14200 0.85973 -0.30218
 C395 C -0.12047 0.87579 -0.26261
 C396 C -0.11001 0.91093 -0.28934
 C397 C -0.08926 0.92667 -0.25598
 C398 C -0.07842 0.90749 -0.19516
 C399 C -0.08883 0.87244 -0.16804
 C400 C -0.10956 0.85663 -0.20143
 H401 H -0.20561 0.72534 -0.34245
 H402 H -0.17363 0.75610 -0.26721
 H403 H -0.18583 0.86745 -0.38039
 H404 H -0.21759 0.83660 -0.45501
 H405 H -0.15221 0.81677 -0.22342
 H406 H -0.14602 0.87241 -0.35609
 H407 H -0.11789 0.92627 -0.33651
 H408 H -0.08164 0.95377 -0.27806
 H409 H -0.08080 0.85693 -0.12134
 H410 H -0.11647 0.82907 -0.17967
 C411 C 0.30712 0.75436 0.37183
 C412 C 0.32617 0.73836 0.33028
 C413 C 0.33061 0.69724 0.32986
 C414 C 0.31484 0.67223 0.36937
 C415 C 0.29591 0.68826 0.41115
 C416 C 0.29221 0.72947 0.41391
 C417 C 0.35164 0.68166 0.28747
 C418 C 0.36230 0.64670 0.30274
 C419 C 0.38395 0.63073 0.26381
 C420 C 0.39570 0.59760 0.29481
 C421 C 0.41608 0.58108 0.26093
 C422 C 0.42525 0.59733 0.19507
 C423 C 0.41351 0.63026 0.16336
 C424 C 0.39299 0.64674 0.19709
 H425 H 0.30438 0.78623 0.37275
 H426 H 0.33779 0.75825 0.29955
 H427 H 0.31686 0.64029 0.36796
 H428 H 0.28419 0.66852 0.44185
 H429 H 0.35921 0.70093 0.24569
 H430 H 0.35563 0.62926 0.34868
 H431 H 0.38913 0.58443 0.34577
 H432 H 0.42470 0.55559 0.28654
 H433 H 0.42009 0.64312 0.11216
 H434 H 0.38428 0.67156 0.16992
 C435 C -0.18351 1.24007 0.44970
 C436 C -0.16334 1.22511 0.41206
 C437 C -0.16619 1.19797 0.35352
 C438 C -0.18963 1.18733 0.33093
 C439 C -0.20985 1.20286 0.36751
 C440 C -0.20711 1.22864 0.42886
 C441 C -0.14450 1.18190 0.31586
 C442 C -0.14329 1.14436 0.29123
 C443 C -0.12134 1.12763 0.25607
 C444 C -0.11542 1.08760 0.26803
 C445 C -0.09474 1.07098 0.23569
 C446 C -0.07998 1.09388 0.18922
 C447 C -0.08621 1.13370 0.17579
 C448 C -0.10662 1.15054 0.20931
 H449 H -0.18062 1.26120 0.49432
 H450 H -0.14542 1.23430 0.42943
 H451 H -0.19238 1.16725 0.28459
 H452 H -0.22764 1.19335 0.34956
 H453 H -0.12863 1.20062 0.31303
 H454 H -0.15825 1.12442 0.30142
 H455 H -0.12664 1.06932 0.30332
 H456 H -0.09043 1.04011 0.24647
 H457 H -0.07517 1.15194 0.13991
 H458 H -0.11108 1.18124 0.19765
 C459 C 0.71097 0.33825 0.41677
 C460 C 0.69297 0.35689 0.37481
 C461 C 0.67944 0.33538 0.32233
 C462 C 0.68533 0.29515 0.30959
 C463 C 0.70335 0.27648 0.35179
 C464 C 0.71576 0.29759 0.40730
 C465 C 0.65909 0.35592 0.28431
 C466 C 0.64063 0.33704 0.25120
 C467 C 0.61913 0.35804 0.22129
 C468 C 0.60592 0.34043 0.16328
 C469 C 0.58485 0.35842 0.13616
 C470 C 0.57638 0.39407 0.16749
 C471 C 0.58951 0.41169 0.22571
 C472 C 0.61066 0.39386 0.25247
 H473 H 0.72070 0.35527 0.45832
 H474 H 0.68909 0.38799 0.38505
 H475 H 0.67607 0.27777 0.26778
 H476 H 0.70704 0.24521 0.34293
 H477 H 0.65878 0.38804 0.28739
 H478 H 0.64073 0.30504 0.24640
 H479 H 0.61194 0.31265 0.13891
 H480 H 0.57506 0.34417 0.09124
 H481 H 0.58332 0.43910 0.25108
 H482 H 0.61988 0.40764 0.29894
 C483 C 0.20667 0.84023 0.44846
 C484 C 0.18748 0.85931 0.41218
 C485 C 0.17598 0.84145 0.35091
 C486 C 0.18484 0.80471 0.32470
 C487 C 0.20392 0.78558 0.36126
 C488 C 0.21467 0.80276 0.42428
 C489 C 0.15503 0.86213 0.31613
 C490 C 0.13843 0.84372 0.27371
 C491 C 0.11701 0.86390 0.24102
 C492 C 0.10594 0.84690 0.17825
 C493 C 0.08520 0.86399 0.14703
 C494 C 0.07489 0.89823 0.17858
 C495 C 0.08584 0.91527 0.24155
 C496 C 0.10667 0.89829 0.27262
 H497 H 0.21501 0.85434 0.49621
 H498 H 0.18130 0.88782 0.43292
 H499 H 0.17729 0.79052 0.27598
 H500 H 0.21001 0.75688 0.34118
 H501 H 0.15303 0.89350 0.32783
 H502 H 0.14033 0.81240 0.26170
 H503 H 0.11340 0.82025 0.15319
 H504 H 0.07712 0.85016 0.09856
 H505 H 0.07820 0.94158 0.26725
 H506 H 0.11416 0.91163 0.32232
   
