data_POSCAR
  _audit_creation_date              2014-09-24
  _audit_creation_method            'ToBaCCo'
  _symmetry_space_group_name_H-M    'P1'
  _symmetry_Int_Tables_number       1
  _symmetry_cell_setting            triclinic
  loop_
  _symmetry_equiv_pos_as_xyz
 x,y,z
_cell_length_a 16.3020
_cell_length_b 16.2967
_cell_length_c 26.3728
_cell_angle_alpha 80.733300
_cell_angle_beta 98.845300
_cell_angle_gamma 84.722700
loop_
  _atom_site_label
  _atom_site_type_symbol
  _atom_site_fract_x
  _atom_site_fract_y
  _atom_site_fract_z
O1 O -0.06534 0.59736 0.93751
 O2 O -0.09433 0.41359 1.03172
 O3 O -0.09272 0.57209 1.03300
 O4 O -0.06695 0.43613 0.93611
 O5 O 0.06929 0.41468 0.96504
 O6 O 0.04367 0.55028 1.06176
 O7 O 0.04203 0.39209 1.06049
 O8 O 0.07091 0.57555 0.96643
 Cu9 Cu -0.09354 0.50703 0.98133
 Cu10 Cu 0.07031 0.48102 1.01601
 C11 C 0.00756 0.61839 0.93677
 C12 C -0.03101 0.37214 1.06219
 C13 C -0.02881 0.58378 1.06385
 C14 C 0.00541 0.40127 0.93485
 O15 O 0.56412 0.06671 0.43363
 O16 O 0.42735 0.09281 0.53045
 O17 O 0.58557 0.09436 0.52897
 O18 O 0.40278 0.06517 0.43523
 O19 O 0.42441 -0.07125 0.46479
 O20 O 0.60690 -0.04220 0.55838
 O21 O 0.44898 -0.04376 0.55984
 O22 O 0.58537 -0.06969 0.46319
 Cu23 Cu 0.49272 0.09348 0.47870
 Cu24 Cu 0.51852 -0.07060 0.51414
 C25 C 0.59914 -0.00577 0.43275
 C26 C 0.41556 0.02887 0.56167
 C27 C 0.62666 0.03098 0.55973
 C28 C 0.38173 -0.00782 0.43495
 C29 C -0.05242 -0.13530 0.22163
 C30 C -0.12144 -0.13129 0.25480
 C31 C -0.12102 -0.06518 0.28065
 C32 C -0.05162 -0.00924 0.27114
 C33 C -0.06451 -0.04990 0.18566
 C34 C -0.06388 0.01594 0.21151
 C35 C 0.02945 -0.13612 0.25925
 C36 C 0.02988 -0.06995 0.28503
 H37 H -0.16698 -0.17583 0.25713
 H38 H -0.05158 0.04448 0.29231
 H39 H -0.06732 -0.04238 0.14369
 H40 H 0.08365 -0.18219 0.26305
 C41 C 0.13538 0.05282 0.72073
 C42 C 0.13590 -0.02934 0.75852
 C43 C 0.06965 -0.02982 0.78445
 C44 C 0.00914 0.05186 0.77051
 C45 C 0.05027 0.06522 0.68492
 C46 C -0.01566 0.06450 0.71091
 C47 C 0.13128 0.12170 0.75377
 C48 C 0.06508 0.12117 0.77977
 H49 H 0.18201 -0.08356 0.76246
 H50 H -0.04466 0.05177 0.79178
 H51 H 0.04299 0.06821 0.64296
 H52 H 0.17598 0.16705 0.75605
 C53 C -0.03811 -0.36249 0.10106
 C54 C -0.04425 -0.31534 0.13141
 C55 C -0.04937 -0.25715 0.16527
 C56 C -0.05186 -0.20420 0.19217
 C57 C -0.04116 0.30394 0.09651
 C58 C -0.04890 0.24173 0.12605
 C59 C -0.05618 0.16632 0.15877
 C60 C -0.06071 0.09928 0.18442
 C61 C 0.36196 0.03834 0.59908
 C62 C 0.31502 0.04459 0.62968
 C63 C 0.25708 0.04980 0.66387
 C64 C 0.20427 0.05231 0.69105
 C65 C -0.30199 0.04182 0.59605
 C66 C -0.24027 0.04954 0.62561
 C67 C -0.16538 0.05682 0.65834
 C68 C -0.09870 0.06135 0.68396
 C69 C 0.01855 -0.30662 0.90284
 C70 C 0.02861 -0.24282 0.87545
 C71 C 0.04152 -0.16788 0.84404
 C72 C 0.05366 -0.10441 0.81720
 C73 C 0.01521 0.34360 0.89974
 C74 C 0.02453 0.29340 0.87148
 C75 C 0.03688 0.23344 0.83932
 C76 C 0.04885 0.18206 0.81222
 C77 C -0.34570 -0.01508 0.39974
 C78 C -0.29500 -0.02436 0.37164
 C79 C -0.23438 -0.03671 0.33973
 C80 C -0.18247 -0.04876 0.31286
 C81 C 0.30681 -0.01882 0.40144
 C82 C 0.24300 -0.02887 0.37448
 C83 C 0.16799 -0.04176 0.34362
 C84 C 0.10448 -0.05390 0.31725
   
