data_POSCAR
  _audit_creation_date              2014-09-24
  _audit_creation_method            'ToBaCCo'
  _symmetry_space_group_name_H-M    'P1'
  _symmetry_Int_Tables_number       1
  _symmetry_cell_setting            triclinic
  loop_
  _symmetry_equiv_pos_as_xyz
 x,y,z
_cell_length_a 32.4733
_cell_length_b 33.2193
_cell_length_c 31.5276
_cell_angle_alpha 84.030300
_cell_angle_beta 96.736300
_cell_angle_gamma 93.089400
loop_
  _atom_site_label
  _atom_site_type_symbol
  _atom_site_fract_x
  _atom_site_fract_y
  _atom_site_fract_z
C1 C 0.20785 0.28339 0.27677
 C2 C 0.23687 0.30820 0.24811
 C3 C 0.26153 0.28566 0.22849
 C4 C 0.25487 0.23976 0.23970
 C5 C 0.18372 0.25378 0.24770
 C6 C 0.20810 0.23098 0.22809
 C7 C 0.23644 0.25590 0.30808
 C8 C 0.26162 0.23369 0.28896
 H9 H 0.23853 0.34099 0.24516
 H10 H 0.27469 0.22099 0.22415
 H11 H 0.15019 0.25111 0.24320
 H12 H 0.23523 0.25222 0.34240
 C13 C 0.71794 0.79439 0.28177
 C14 C 0.74135 0.82034 0.24873
 C15 C 0.76490 0.79923 0.22645
 C16 C 0.76320 0.75332 0.23992
 C17 C 0.69332 0.76212 0.25647
 C18 C 0.71672 0.74068 0.23428
 C19 C 0.75150 0.77035 0.31049
 C20 C 0.77536 0.74911 0.28875
 H21 H 0.74001 0.85302 0.24452
 H22 H 0.78261 0.73568 0.22263
 H23 H 0.66006 0.75727 0.25583
 H24 H 0.75375 0.76687 0.34515
 C25 C 0.71285 0.28933 0.79198
 C26 C 0.73464 0.31563 0.76156
 C27 C 0.76041 0.29549 0.73720
 C28 C 0.75931 0.25156 0.74840
 C29 C 0.68907 0.25747 0.76557
 C30 C 0.71288 0.23789 0.74195
 C31 C 0.74692 0.26516 0.82003
 C32 C 0.77153 0.24558 0.79738
 H33 H 0.73433 0.34825 0.76090
 H34 H 0.77859 0.23487 0.73028
 H35 H 0.65629 0.25045 0.76685
 H36 H 0.74967 0.26075 0.85463
 C37 C 0.21262 0.78449 0.76789
 C38 C 0.23579 0.81134 0.73523
 C39 C 0.25837 0.79075 0.71172
 C40 C 0.25571 0.74468 0.72253
 C41 C 0.18671 0.75389 0.74140
 C42 C 0.20895 0.73309 0.71742
 C43 C 0.24628 0.75872 0.79475
 C44 C 0.26880 0.73801 0.77102
 H45 H 0.23561 0.84413 0.73228
 H46 H 0.27456 0.72821 0.70338
 H47 H 0.15341 0.74980 0.74130
 H48 H 0.24952 0.75353 0.82935
 C49 C 0.06519 0.04818 0.01583
 H50 H 0.06706 0.05413 -0.01830
 C51 C 0.08553 0.07458 0.04398
 H52 H 0.10277 0.10093 0.03107
 C53 C 0.03803 0.00807 0.07351
 H54 H 0.01851 -0.01698 0.08505
 C55 C 0.05822 0.03331 0.10277
 H56 H 0.05489 0.02627 0.13653
 N57 N 0.04193 0.01570 0.03091
 C58 C 0.02896 -0.06874 -0.06774
 H59 H -0.00452 -0.07222 -0.07301
 C60 C 0.05344 -0.09113 -0.08937
 H61 H 0.03850 -0.11203 -0.11112
 C62 C 0.08888 -0.03847 -0.03140
 H63 H 0.10254 -0.01834 -0.00833
 C64 C 0.11457 -0.06027 -0.05237
 H65 H 0.14791 -0.05604 -0.04578
 Zn66 Zn 0.01129 -0.01594 -0.00979
 N67 N 0.04691 -0.04295 -0.03954
 C68 C -0.02079 0.02409 -0.09102
 N69 N -0.02199 0.02021 -0.04778
 C70 C -0.04671 0.04331 -0.02919
 C71 C -0.07216 0.07118 -0.05428
 C72 C -0.04592 0.05163 -0.11743
 C73 C -0.00527 -0.08316 0.04893
 C74 C -0.02996 -0.10991 0.07338
 C75 C -0.09066 -0.08342 0.03005
 C76 C -0.06485 -0.05654 0.00720
 N77 N -0.02306 -0.05585 0.01799
 H78 H -0.00033 0.00601 -0.10509
 H79 H -0.04679 0.03979 0.00530
 H80 H -0.09222 0.08863 -0.03881
 H81 H -0.04455 0.05450 -0.15176
 H82 H 0.02816 -0.08272 0.05611
 H83 H -0.01506 -0.12929 0.09980
 H84 H -0.12383 -0.08311 0.02097
 H85 H -0.07838 -0.03583 -0.01874
 C86 C 0.09689 -0.08714 -0.08173
 C87 C 0.08189 0.06749 0.08815
 C88 C -0.07345 -0.10955 0.06484
 C89 C -0.07205 0.07563 -0.09904
 C90 C 0.05129 0.54861 0.51604
 H91 H 0.05005 0.55499 0.48157
 C92 C 0.07289 0.57545 0.54287
 H93 H 0.08779 0.60263 0.52860
 C94 C 0.03123 0.50651 0.57610
 H95 H 0.01436 0.48015 0.58913
 C96 C 0.05286 0.53220 0.60408
 H97 H 0.05307 0.52444 0.63831
 N98 N 0.03102 0.51489 0.53292
 C99 C 0.01899 0.42638 0.43854
 H100 H -0.01426 0.42041 0.43481
 C101 C 0.04441 0.40522 0.41662
 H102 H 0.03047 0.38258 0.39640
 C103 C 0.07750 0.46223 0.47073
 H104 H 0.09035 0.48426 0.49208
 C105 C 0.10403 0.44193 0.44932
 H106 H 0.13706 0.44913 0.45399
 Zn107 Zn -0.00009 0.48176 0.49399
 N108 N 0.03581 0.45439 0.46480
 C109 C -0.03281 0.51804 0.41155
 N110 N -0.03358 0.51666 0.45475
 C111 C -0.05722 0.54187 0.47196
 C112 C -0.08173 0.56962 0.44549
 C113 C -0.05702 0.54534 0.38380
 C114 C -0.01565 0.41451 0.55337
 C115 C -0.03970 0.38819 0.57900
 C116 C -0.10124 0.41798 0.54070
 C117 C -0.07603 0.44396 0.51616
 N118 N -0.03399 0.44275 0.52382
 H119 H -0.01318 0.49832 0.39853
 H120 H -0.05691 0.54039 0.50644
 H121 H -0.10074 0.58903 0.45988
 H122 H -0.05579 0.54638 0.34953
 H123 H 0.01784 0.41360 0.55825
 H124 H -0.02432 0.36750 0.60392
 H125 H -0.13460 0.41990 0.53438
 H126 H -0.09019 0.46557 0.49154
 C127 C 0.08760 0.41288 0.42188
 C128 C 0.07378 0.56749 0.58763
 C129 C -0.08314 0.39041 0.57355
 C130 C -0.08174 0.57172 0.40077
 C131 C 0.53349 0.07288 0.52485
 H132 H 0.51071 0.08220 0.49843
 C133 C 0.55276 0.10199 0.55016
 H134 H 0.54443 0.13327 0.54267
 C135 C 0.57329 0.02157 0.56531
 H136 H 0.58173 -0.00974 0.57058
 C137 C 0.59323 0.04976 0.59170
 H138 H 0.61607 0.03954 0.61787
 N139 N 0.54311 0.03327 0.53336
 C140 C 0.53335 -0.06275 0.44712
 H141 H 0.50058 -0.07079 0.44567
 C142 C 0.55878 -0.08406 0.42548
 H143 H 0.54533 -0.10885 0.40797
 C144 C 0.59069 -0.02108 0.47227
 H145 H 0.60289 0.00380 0.49013
 C146 C 0.61731 -0.04169 0.45117
 H147 H 0.64990 -0.03241 0.45299
 Zn148 Zn 0.51318 -0.00533 0.49927
 N149 N 0.54960 -0.03210 0.47014
 C150 C 0.47825 0.02744 0.41630
 N151 N 0.47399 0.02220 0.45897
 C152 C 0.44163 0.03744 0.47491
 C153 C 0.41274 0.06029 0.44787
 C154 C 0.44975 0.04997 0.38794
 C155 C 0.49375 -0.05336 0.57612
 C156 C 0.46957 -0.08115 0.60002
 C157 C 0.42332 -0.08988 0.53556
 C158 C 0.44868 -0.06245 0.51279
 N159 N 0.48299 -0.04449 0.53325
 H160 H 0.50428 0.01505 0.40439
 H161 H 0.43893 0.03256 0.50896
 H162 H 0.38752 0.07273 0.46125
 H163 H 0.45408 0.05497 0.35423
 H164 H 0.52064 -0.03865 0.59217
 H165 H 0.47812 -0.08737 0.63424
 H166 H 0.39581 -0.10343 0.51886
 H167 H 0.44043 -0.05480 0.47879
 C168 C 0.60140 -0.07372 0.42748
 C169 C 0.58247 0.09053 0.58471
 C170 C 0.43361 -0.09934 0.57976
 C171 C 0.41698 0.06732 0.40391
 C172 C 0.56334 0.55812 0.02960
 H173 H 0.56404 0.56471 -0.00465
 C174 C 0.58574 0.58326 0.05773
 H175 H 0.60316 0.60934 0.04457
 C176 C 0.53712 0.51775 0.08763
 H177 H 0.51729 0.49308 0.09938
 C178 C 0.55963 0.54160 0.11695
 H179 H 0.55762 0.53382 0.15085
 N180 N 0.53944 0.52619 0.04481
 C181 C 0.52194 0.44240 -0.05489
 H182 H 0.48850 0.44102 -0.06185
 C183 C 0.54600 0.41810 -0.07505
 H184 H 0.53070 0.39789 -0.09734
 C185 C 0.58219 0.46916 -0.01581
 H186 H 0.59621 0.48867 0.00770
 C187 C 0.60739 0.44563 -0.03535
 H188 H 0.64069 0.44809 -0.02719
 Zn189 Zn 0.50643 0.49736 0.00308
 N190 N 0.54030 0.46722 -0.02585
 C191 C 0.47805 0.54114 -0.07806
 N192 N 0.47778 0.53716 -0.03470
 C193 C 0.45671 0.56272 -0.01501
 C194 C 0.43417 0.59342 -0.03897
 C195 C 0.45567 0.57156 -0.10344
 C196 C 0.47928 0.43270 0.06111
 C197 C 0.44996 0.40999 0.08381
 C198 C 0.39564 0.44300 0.03601
 C199 C 0.42592 0.46571 0.01504
 N200 N 0.46686 0.46141 0.02886
 H201 H 0.49545 0.52077 -0.09298
 H202 H 0.45716 0.55889 0.01953
 H203 H 0.41690 0.61277 -0.02255
 H204 H 0.45612 0.57449 -0.13791
 H205 H 0.51204 0.42881 0.07061
 H206 H 0.46074 0.38942 0.11125
 H207 H 0.36332 0.44731 0.02440
 H208 H 0.41650 0.48725 -0.01195
 C209 C 0.58939 0.41934 -0.06517
 C210 C 0.58390 0.57535 0.10217
 C211 C 0.40735 0.41580 0.07207
 C212 C 0.43337 0.59820 -0.08380
 C213 C 0.15135 -0.17198 -0.23084
 C214 C 0.18656 -0.19046 -0.20824
 C215 C 0.19768 -0.18297 -0.16505
 C216 C 0.17319 -0.15910 -0.14459
 C217 C 0.13739 -0.14178 -0.16752
 C218 C 0.12689 -0.14821 -0.21070
 C219 C 0.11284 -0.11807 -0.14701
 C220 C 0.12349 -0.11144 -0.10367
 C221 C 0.15936 -0.12863 -0.08124
 C222 C 0.18401 -0.15217 -0.10150
 H223 H 0.22559 -0.19473 -0.14715
 H224 H 0.09982 -0.13476 -0.22897
 H225 H 0.08566 -0.10446 -0.16492
 H226 H 0.21135 -0.16522 -0.08336
 H227 H 0.14274 -0.17592 -0.26444
 H228 H 0.16801 -0.12447 -0.04770
 C229 C 0.14382 0.32498 0.27539
 C230 C 0.18096 0.31017 0.29776
 C231 C 0.19364 0.32244 0.33896
 C232 C 0.16803 0.34547 0.35893
 C233 C 0.12983 0.35821 0.33694
 C234 C 0.11837 0.34842 0.29488
 C235 C 0.10386 0.38059 0.35734
 C236 C 0.11546 0.39015 0.39970
 C237 C 0.15377 0.37749 0.42104
 C238 C 0.17988 0.35557 0.40080
 H239 H 0.22343 0.31426 0.35583
 H240 H 0.08960 0.35868 0.27713
 H241 H 0.07477 0.39072 0.34019
 H242 H 0.20906 0.34596 0.41817
 H243 H 0.13423 0.31837 0.24272
 H244 H 0.16329 0.38387 0.45382
 C245 C 0.65317 -0.16647 0.28302
 C246 C 0.69129 -0.17999 0.30429
 C247 C 0.70514 -0.16665 0.34479
 C248 C 0.68019 -0.14292 0.36479
 C249 C 0.64117 -0.13136 0.34381
 C250 C 0.62818 -0.14287 0.30273
 C251 C 0.61587 -0.10829 0.36414
 C252 C 0.62900 -0.09661 0.40534
 C253 C 0.66820 -0.10769 0.42564
 C254 C 0.69359 -0.13060 0.40554
 H255 H 0.73548 -0.17401 0.36080
 H256 H 0.59871 -0.13358 0.28578
 H257 H 0.58603 -0.09929 0.34782
 H258 H 0.72347 -0.13911 0.42210
 H259 H 0.64258 -0.17417 0.25091
 H260 H 0.67887 -0.09937 0.45753
 C261 C 0.64931 0.33069 -0.20929
 C262 C 0.68445 0.31321 -0.18529
 C263 C 0.69336 0.32081 -0.14187
 C264 C 0.66733 0.34434 -0.12283
 C265 C 0.63213 0.36130 -0.14737
 C266 C 0.62341 0.35425 -0.19059
 C267 C 0.60664 0.38554 -0.12848
 C268 C 0.61581 0.39305 -0.08517
 C269 C 0.65069 0.37549 -0.06099
 C270 C 0.67624 0.35154 -0.07963
 H271 H 0.72086 0.30962 -0.12268
 H272 H 0.59672 0.36723 -0.21006
 H273 H 0.58021 0.39921 -0.14775
 H274 H 0.70297 0.33861 -0.06020
 H275 H 0.64212 0.32638 -0.24298
 H276 H 0.65812 0.37999 -0.02738
 C277 C -0.17058 0.23168 -0.14393
 C278 C -0.19444 0.22006 -0.18120
 C279 C -0.18673 0.18329 -0.19655
 C280 C -0.15677 0.15767 -0.17410
 C281 C -0.13383 0.16923 -0.13606
 C282 C -0.14050 0.20657 -0.12164
 C283 C -0.10530 0.14288 -0.11251
 C284 C -0.09962 0.10474 -0.12609
 C285 C -0.12183 0.09396 -0.16457
 C286 C -0.15013 0.12020 -0.18839
 H287 H -0.20507 0.17371 -0.22481
 H288 H -0.12297 0.21605 -0.09269
 H289 H -0.08786 0.15185 -0.08328
 H290 H -0.16742 0.11082 -0.21749
 H291 H -0.17537 0.26020 -0.13182
 H292 H -0.11826 0.06467 -0.17558
 C293 C -0.16780 0.73371 0.34784
 C294 C -0.19253 0.72206 0.31114
 C295 C -0.18793 0.68375 0.29750
 C296 C -0.16014 0.65671 0.32137
 C297 C -0.13627 0.66844 0.35888
 C298 C -0.13982 0.70722 0.37141
 C299 C -0.10996 0.64093 0.38387
 C300 C -0.10738 0.60147 0.37233
 C301 C -0.13042 0.59037 0.33441
 C302 C -0.15656 0.61776 0.30913
 H303 H -0.20716 0.67432 0.26949
 H304 H -0.12155 0.71677 0.39991
 H305 H -0.09177 0.65010 0.41261
 H306 H -0.17458 0.60821 0.28049
 H307 H -0.17041 0.76331 0.35855
 H308 H -0.12912 0.56009 0.32495
 C309 C 0.31288 0.21836 0.35338
 C310 C 0.29294 0.20718 0.31401
 C311 C 0.30304 0.17082 0.29922
 C312 C 0.33200 0.14553 0.32403
 C313 C 0.35095 0.15684 0.36399
 C314 C 0.34148 0.19341 0.37816
 C315 C 0.37889 0.13129 0.38942
 C316 C 0.38841 0.09439 0.37567
 C317 C 0.37026 0.08364 0.33550
 C318 C 0.34211 0.10895 0.30994
 H319 H 0.28775 0.16168 0.26910
 H320 H 0.35608 0.20267 0.40852
 H321 H 0.39337 0.14017 0.42001
 H322 H 0.32802 0.09978 0.27936
 H323 H 0.30654 0.24666 0.36505
 H324 H 0.37720 0.05528 0.32435
 C325 C 0.30289 0.67181 -0.22619
 C326 C 0.30028 0.70900 -0.20934
 C327 C 0.32704 0.71783 -0.17285
 C328 C 0.35525 0.68942 -0.15264
 C329 C 0.35688 0.65160 -0.16908
 C330 C 0.33089 0.64330 -0.20620
 C331 C 0.38362 0.62237 -0.14748
 C332 C 0.40851 0.63039 -0.10941
 C333 C 0.40761 0.66870 -0.09434
 C334 C 0.38127 0.69792 -0.11572
 H335 H 0.32565 0.74670 -0.15999
 H336 H 0.33170 0.61451 -0.21931
 H337 H 0.38379 0.59289 -0.15929
 H338 H 0.38072 0.72690 -0.10293
 H339 H 0.28234 0.66420 -0.25408
 H340 H 0.42704 0.67592 -0.06558
 C341 C -0.22390 -0.14460 0.16884
 C342 C -0.21065 -0.18080 0.19251
 C343 C -0.17369 -0.19712 0.18396
 C344 C -0.14987 -0.17697 0.15312
 C345 C -0.16290 -0.13989 0.13092
 C346 C -0.20013 -0.12421 0.13867
 C347 C -0.13822 -0.11862 0.10179
 C348 C -0.10068 -0.13402 0.09367
 C349 C -0.08865 -0.17167 0.11495
 C350 C -0.11287 -0.19281 0.14456
 H351 H -0.16268 -0.22473 0.20203
 H352 H -0.21085 -0.09606 0.12148
 H353 H -0.14779 -0.08933 0.08660
 H354 H -0.10253 -0.22142 0.16093
 H355 H -0.25279 -0.13182 0.17352
 H356 H -0.06040 -0.18484 0.10890
 C357 C -0.22531 0.35642 0.68889
 C358 C -0.21556 0.31667 0.70637
 C359 C -0.18131 0.29926 0.69229
 C360 C -0.15759 0.32101 0.66229
 C361 C -0.16780 0.36080 0.64594
 C362 C -0.20175 0.37810 0.65930
 C363 C -0.14370 0.38293 0.61676
 C364 C -0.10930 0.36588 0.60327
 C365 C -0.09954 0.32603 0.61945
 C366 C -0.12341 0.30384 0.64871
 H367 H -0.17142 0.26960 0.70560
 H368 H -0.21028 0.40849 0.64670
 H369 H -0.15122 0.41388 0.60540
 H370 H -0.11507 0.27327 0.66077
 H371 H -0.25200 0.37096 0.69678
 H372 H -0.07355 0.31190 0.60934
 C373 C 0.26885 -0.15723 0.65066
 C374 C 0.28476 -0.18840 0.68059
 C375 C 0.32662 -0.19773 0.68255
 C376 C 0.35291 -0.17485 0.65601
 C377 C 0.33665 -0.14331 0.62614
 C378 C 0.29447 -0.13513 0.62330
 C379 C 0.36304 -0.11966 0.60048
 C380 C 0.40574 -0.12631 0.60500
 C381 C 0.42169 -0.15769 0.63471
 C382 C 0.39542 -0.18205 0.65972
 H383 H 0.33907 -0.22146 0.70605
 H384 H 0.28154 -0.11104 0.60064
 H385 H 0.35064 -0.09510 0.57805
 H386 H 0.40845 -0.20599 0.68252
 H387 H 0.23656 -0.14982 0.64873
 H388 H 0.45452 -0.16334 0.63848
 C389 C 0.32869 0.28372 0.19641
 C390 C 0.29238 0.30385 0.19994
 C391 C 0.28591 0.34169 0.17621
 C392 C 0.31539 0.35942 0.15007
 C393 C 0.35156 0.33881 0.14653
 C394 C 0.35780 0.30086 0.16970
 C395 C 0.38106 0.35670 0.12033
 C396 C 0.37537 0.39550 0.09830
 C397 C 0.33925 0.41571 0.10262
 C398 C 0.30944 0.39771 0.12780
 H399 H 0.25786 0.35743 0.17780
 H400 H 0.38552 0.28471 0.16771
 H401 H 0.40833 0.34034 0.11715
 H402 H 0.28205 0.41411 0.13047
 H403 H 0.33523 0.25505 0.21490
 H404 H 0.33425 0.44599 0.08726
 C405 C 0.21196 0.19251 0.16426
 C406 C 0.19088 0.20048 0.19878
 C407 C 0.15289 0.17950 0.20480
 C408 C 0.13577 0.15171 0.17640
 C409 C 0.15714 0.14396 0.14177
 C410 C 0.19535 0.16437 0.13614
 C411 C 0.13978 0.11617 0.11327
 C412 C 0.10101 0.09635 0.11865
 C413 C 0.08006 0.10469 0.15318
 C414 C 0.09737 0.13183 0.18189
 H415 H 0.13658 0.18455 0.23172
 H416 H 0.21213 0.15897 0.10967
 H417 H 0.15658 0.10983 0.08715
 H418 H 0.08044 0.13766 0.20811
 H419 H 0.24089 0.20863 0.15831
 H420 H 0.04979 0.09073 0.15769
 C421 C 0.20659 0.69590 0.65167
 C422 C 0.18965 0.70236 0.68933
 C423 C 0.15369 0.67967 0.69966
 C424 C 0.13443 0.65176 0.67244
 C425 C 0.15166 0.64557 0.63466
 C426 C 0.18791 0.66762 0.62472
 C427 C 0.13216 0.61771 0.60735
 C428 C 0.09521 0.59632 0.61697
 C429 C 0.07838 0.60305 0.65466
 C430 C 0.09792 0.63024 0.68223
 H431 H 0.14061 0.68351 0.72898
 H432 H 0.20149 0.66344 0.59577
 H433 H 0.14592 0.61257 0.57878
 H434 H 0.08414 0.63483 0.71094
 H435 H 0.23377 0.71332 0.64238
 H436 H 0.04956 0.58781 0.66258
 C437 C 0.71960 0.17731 0.70122
 C438 C 0.69509 0.20738 0.71244
 C439 C 0.65312 0.20830 0.69492
 C440 C 0.63584 0.17933 0.66790
 C441 C 0.66077 0.14914 0.65731
 C442 C 0.70267 0.14855 0.67399
 C443 C 0.64340 0.12019 0.63016
 C444 C 0.60124 0.12095 0.61354
 C445 C 0.57676 0.15109 0.62465
 C446 C 0.59390 0.18006 0.65137
 H447 H 0.63372 0.23181 0.70171
 H448 H 0.72235 0.12568 0.66619
 H449 H 0.66281 0.09748 0.62155
 H450 H 0.57425 0.20287 0.65935
 H451 H 0.75184 0.17530 0.71363
 H452 H 0.54406 0.15201 0.61308
 C453 C 0.71703 0.70155 0.17026
 C454 C 0.69868 0.70892 0.20682
 C455 C 0.66229 0.68651 0.21627
 C456 C 0.64379 0.65828 0.18901
 C457 C 0.66238 0.65126 0.15231
 C458 C 0.69925 0.67276 0.14347
 C459 C 0.64343 0.62340 0.12471
 C460 C 0.60545 0.60311 0.13269
 C461 C 0.58736 0.61055 0.16944
 C462 C 0.60652 0.63750 0.19749
 H463 H 0.64811 0.69101 0.24474
 H464 H 0.71386 0.66796 0.11533
 H465 H 0.65825 0.61770 0.09700
 H466 H 0.59168 0.64275 0.22535
 H467 H 0.74455 0.71873 0.16154
 H468 H 0.55776 0.59629 0.17614
   
