data_POSCAR
  _audit_creation_date              2014-09-24
  _audit_creation_method            'ToBaCCo'
  _symmetry_space_group_name_H-M    'P1'
  _symmetry_Int_Tables_number       1
  _symmetry_cell_setting            triclinic
  loop_
  _symmetry_equiv_pos_as_xyz
 x,y,z
_cell_length_a 22.4864
_cell_length_b 22.4668
_cell_length_c 38.2365
_cell_angle_alpha 90.364300
_cell_angle_beta 91.300900
_cell_angle_gamma 89.809400
loop_
  _atom_site_label
  _atom_site_type_symbol
  _atom_site_fract_x
  _atom_site_fract_y
  _atom_site_fract_z
C1 C -0.00278 0.31139 0.98326
 C2 C -0.00651 0.31175 1.01896
 C3 C -0.00510 0.37098 1.02956
 N4 N -0.00070 0.40652 1.00137
 C5 C 0.00069 0.37037 0.97300
 C6 C -0.00551 0.39060 1.06485
 C7 C -0.00345 0.45108 1.07573
 C8 C 0.00509 0.46964 1.11019
 C9 C 0.00451 0.53073 1.11016
 C10 C -0.00429 0.54836 1.07567
 N11 N -0.01001 0.49944 1.05495
 C12 C -0.00714 0.60855 1.06468
 C13 C -0.00552 0.62729 1.02941
 C14 C -0.00628 0.68628 1.01875
 C15 C -0.00113 0.68574 0.98312
 C16 C 0.00236 0.62648 0.97294
 N17 N -0.00026 0.59102 1.00130
 C18 C 0.00650 0.60678 0.93785
 C19 C 0.00640 0.54644 0.92684
 C20 C 0.00240 0.52807 0.89214
 C21 C 0.00155 0.46695 0.89214
 C22 C 0.00513 0.44927 0.92684
 N23 N 0.00912 0.49804 0.94775
 C24 C 0.00391 0.38919 0.93785
 H25 H -0.00282 0.27205 0.96678
 H26 H -0.00948 0.27271 1.03527
 H27 H 0.01681 0.49828 0.97449
 H28 H 0.01159 0.44200 1.13306
 H29 H 0.01056 0.55900 1.13299
 H30 H -0.00964 0.72574 1.03499
 H31 H -0.00039 0.72467 0.96661
 H32 H -0.00220 0.43880 0.86913
 H33 H -0.02269 0.49911 1.02874
 H34 H -0.00065 0.55579 0.86912
 C35 C 0.68902 0.00392 0.51554
 C36 C 0.68689 0.00642 0.47975
 C37 C 0.62715 0.00639 0.46967
 N38 N 0.59304 0.00403 0.49828
 C39 C 0.63059 0.00253 0.52638
 C40 C 0.60573 0.00650 0.43453
 C41 C 0.54472 0.00536 0.42414
 C42 C 0.52426 -0.00281 0.38989
 C43 C 0.46324 -0.00196 0.39047
 C44 C 0.44762 0.00660 0.42504
 N45 N 0.49757 0.01205 0.44529
 C46 C 0.38820 0.00892 0.43654
 C47 C 0.37124 0.00767 0.47192
 C48 C 0.31283 0.00726 0.48286
 C49 C 0.31508 0.00317 0.51860
 C50 C 0.37480 0.00147 0.52851
 N51 N 0.40887 0.00419 0.49990
 C52 C 0.39621 -0.00082 0.56355
 C53 C 0.45702 0.00058 0.57405
 C54 C 0.47708 0.00738 0.60843
 C55 C 0.53812 0.00816 0.60791
 C56 C 0.55405 0.00172 0.57323
 N57 N 0.50430 -0.00388 0.55286
 C58 C 0.61353 0.00142 0.56176
 H59 H 0.72916 0.00344 0.53171
 H60 H 0.72508 0.00775 0.46305
 H61 H 0.50277 -0.01432 0.52647
 H62 H 0.55058 -0.00940 0.36682
 H63 H 0.43374 -0.00786 0.36797
 H64 H 0.27264 0.00917 0.46678
 H65 H 0.27696 0.00199 0.53537
 H66 H 0.56739 0.01364 0.63056
 H67 H 0.49931 0.02416 0.47145
 H68 H 0.45051 0.01224 0.63153
 C69 C 0.11095 0.00713 0.26503
 H70 H 0.11444 0.00719 0.23686
 C71 C 0.16239 0.00907 0.28624
 H72 H 0.20570 0.01043 0.27443
 C73 C 0.05036 0.00569 0.31499
 H74 H 0.00675 0.00525 0.32618
 C75 C 0.10057 0.00765 0.33710
 H76 H 0.09538 0.00804 0.36520
 N77 N 0.05637 0.00448 0.27964
 C78 C -0.05965 -0.08030 0.20102
 H79 H -0.09611 -0.04876 0.20025
 C80 C -0.06131 -0.13061 0.17938
 H81 H -0.09907 -0.13784 0.16179
 C82 C 0.03449 -0.10920 0.22459
 H83 H 0.07154 -0.10104 0.24240
 C84 C 0.03458 -0.16010 0.20340
 H85 H 0.07200 -0.19057 0.20469
 Zn86 Zn -0.01171 0.00117 0.24951
 N87 N -0.01165 -0.06988 0.22249
 C88 C -0.00926 0.06137 0.18450
 N89 N -0.00965 0.06846 0.21988
 C90 C -0.00683 0.12354 0.23487
 C91 C -0.00543 0.17439 0.21401
 C92 C -0.00787 0.11094 0.16273
 C93 C -0.09125 -0.04611 0.29704
 C94 C -0.14065 -0.04752 0.31848
 C95 C -0.17141 0.04785 0.29532
 C96 C -0.12139 0.04751 0.27429
 N97 N -0.08185 0.00153 0.27608
 H98 H -0.00981 0.01737 0.17302
 H99 H -0.00609 0.12789 0.26308
 H100 H -0.00382 0.21810 0.22611
 H101 H -0.00803 0.10487 0.13460
 H102 H -0.05954 -0.08244 0.29758
 H103 H -0.14702 -0.08495 0.33571
 H104 H -0.20202 0.08517 0.29432
 H105 H -0.11402 0.08427 0.25689
 C106 C -0.01347 -0.17052 0.18034
 C107 C 0.15706 0.00896 0.32261
 C108 C -0.18072 0.00020 0.31788
 C109 C -0.00628 0.16793 0.17760
 C110 C 0.00618 0.11813 0.76532
 H111 H 0.00576 0.12234 0.73714
 C112 C 0.00446 0.16908 0.78647
 H113 H 0.00293 0.21274 0.77462
 C114 C 0.00814 0.05621 0.81535
 H115 H 0.00860 0.01228 0.82659
 C116 C 0.00640 0.10589 0.83739
 H117 H 0.00626 0.09996 0.86548
 N118 N 0.00896 0.06311 0.78001
 C119 C 0.09171 -0.05253 0.70270
 H120 H 0.06027 -0.08889 0.70208
 C121 C 0.14107 -0.05419 0.68121
 H122 H 0.14770 -0.09187 0.66389
 C123 C 0.12111 0.04150 0.72560
 H124 H 0.11345 0.07854 0.74306
 C125 C 0.17108 0.04160 0.70454
 H126 H 0.20136 0.07901 0.70557
 Zn127 Zn 0.01162 -0.00448 0.75013
 N128 N 0.08193 -0.00456 0.72373
 C129 C -0.04982 -0.00066 0.68450
 N130 N -0.05622 -0.00148 0.71982
 C131 C -0.11100 0.00139 0.73422
 C132 C -0.16220 0.00312 0.71281
 C133 C -0.09978 0.00108 0.66220
 C134 C 0.05982 -0.08515 0.79848
 C135 C 0.06145 -0.13470 0.82034
 C136 C -0.03450 -0.16427 0.79649
 C137 C -0.03437 -0.11413 0.77506
 N138 N 0.01178 -0.07507 0.77701
 H139 H -0.00607 -0.00123 0.67348
 H140 H -0.11481 0.00179 0.76238
 H141 H -0.20566 0.00465 0.72444
 H142 H -0.09425 0.00115 0.63413
 H143 H 0.09625 -0.05380 0.79915
 H144 H 0.09918 -0.14158 0.83799
 H145 H -0.07197 -0.19447 0.79538
 H146 H -0.07146 -0.10623 0.75727
 C147 C 0.18071 -0.00637 0.68185
 C148 C 0.00492 0.16279 0.82284
 C149 C 0.01353 -0.17421 0.81962
 C150 C -0.15644 0.00259 0.67647
 C151 C -0.00881 -0.34795 0.09004
 C152 C -0.01023 -0.30881 0.11174
 C153 C -0.01170 -0.26182 0.13638
 C154 C -0.01270 -0.22072 0.15677
 C155 C -0.00547 0.34760 0.09021
 C156 C -0.00543 0.30850 0.11168
 C157 C -0.00546 0.26107 0.13569
 C158 C -0.00568 0.21926 0.15529
 C159 C 0.35227 -0.00206 0.59075
 C160 C 0.31469 -0.00318 0.61272
 C161 C 0.26938 -0.00447 0.63763
 C162 C 0.22957 -0.00545 0.65820
 C163 C -0.33921 0.00225 0.58824
 C164 C -0.29892 0.00279 0.60959
 C165 C -0.25055 0.00316 0.63374
 C166 C -0.20820 0.00314 0.65364
 C167 C 0.00836 -0.34793 0.91100
 C168 C 0.00987 -0.30952 0.88917
 C169 C 0.01147 -0.26354 0.86425
 C170 C 0.01259 -0.22335 0.84355
 C171 C 0.00377 0.34317 0.91104
 C172 C 0.00372 0.30372 0.88952
 C173 C 0.00381 0.25610 0.86530
 C174 C 0.00413 0.21421 0.84546
 C175 C -0.35272 0.00518 0.40877
 C176 C -0.31511 0.00394 0.38678
 C177 C -0.26969 0.00247 0.36192
 C178 C -0.22974 0.00133 0.34143
 C179 C 0.34082 0.00949 0.41013
 C180 C 0.30035 0.00983 0.38890
 C181 C 0.25169 0.00996 0.36494
 C182 C 0.20909 0.00974 0.34523
   
