data_POSCAR
  _audit_creation_date              2014-09-24
  _audit_creation_method            'ToBaCCo'
  _symmetry_space_group_name_H-M    'P1'
  _symmetry_Int_Tables_number       1
  _symmetry_cell_setting            triclinic
  loop_
  _symmetry_equiv_pos_as_xyz
 x,y,z
_cell_length_a 21.7131
_cell_length_b 22.0196
_cell_length_c 22.4340
_cell_angle_alpha 86.947900
_cell_angle_beta 94.038400
_cell_angle_gamma 87.460400
loop_
  _atom_site_label
  _atom_site_type_symbol
  _atom_site_fract_x
  _atom_site_fract_y
  _atom_site_fract_z
C1 C 0.04256 0.39293 0.16616
 H2 H 0.07780 0.39050 0.20281
 C3 C 0.03684 0.34352 0.12999
 H4 H 0.06782 0.30375 0.13942
 C5 C -0.04384 0.44506 0.11303
 H6 H -0.07601 0.48422 0.10745
 C7 C -0.05195 0.39598 0.07640
 H8 H -0.09060 0.39757 0.04297
 N9 N 0.00079 0.44120 0.15906
 C10 C -0.03443 0.61798 0.23478
 H11 H -0.04507 0.60117 0.27883
 C12 C -0.03661 0.68075 0.22095
 H13 H -0.04927 0.71192 0.25428
 C14 C -0.00044 0.59817 0.13930
 H15 H 0.01569 0.56591 0.10847
 C16 C -0.00114 0.66060 0.12395
 H17 H 0.01441 0.67606 0.08116
 Zn18 Zn 0.00071 0.49567 0.22279
 N19 N -0.01564 0.57816 0.19451
 C20 C 0.12617 0.51684 0.22568
 N21 N 0.08359 0.49187 0.26032
 C22 C 0.10110 0.46621 0.31587
 C23 C 0.16243 0.46876 0.33964
 C24 C 0.18789 0.51989 0.24747
 C25 C -0.11864 0.45826 0.24565
 C26 C -0.17140 0.44989 0.27701
 C27 C -0.11307 0.47390 0.36724
 C28 C -0.06150 0.48301 0.33386
 N29 N -0.06467 0.47452 0.27397
 H30 H 0.11194 0.53553 0.18108
 H31 H 0.06788 0.44389 0.34195
 H32 H 0.17528 0.45035 0.38475
 H33 H 0.22046 0.54194 0.22010
 H34 H -0.12197 0.45400 0.19796
 H35 H -0.21426 0.43966 0.25274
 H36 H -0.10985 0.48192 0.41455
 H37 H -0.02009 0.49962 0.35555
 C38 C -0.01798 0.70265 0.16566
 C39 C -0.01353 0.34284 0.08739
 C40 C -0.16916 0.45710 0.33883
 C41 C 0.20623 0.49705 0.30568
 C42 C 0.01047 0.57849 0.87109
 H43 H 0.00268 0.53722 0.89718
 C44 C 0.00442 0.63484 0.89674
 H45 H -0.00885 0.63698 0.94226
 C46 C 0.03625 0.62685 0.77980
 H47 H 0.04841 0.62324 0.73413
 C48 C 0.03100 0.68398 0.80374
 H49 H 0.03847 0.72459 0.77629
 N50 N 0.02503 0.57565 0.81320
 C51 C -0.03977 0.42858 0.84339
 H52 H -0.07103 0.46844 0.84080
 C53 C -0.06314 0.37111 0.85198
 H54 H -0.11154 0.36723 0.85960
 C55 C 0.05929 0.38467 0.82804
 H56 H 0.10560 0.38988 0.81447
 C57 C 0.03791 0.32649 0.83690
 H58 H 0.06930 0.28750 0.83424
 Zn59 Zn 0.03122 0.50028 0.77598
 N60 N 0.01945 0.43392 0.82835
 C61 C 0.16085 0.50131 0.78095
 N62 N 0.10962 0.49164 0.74469
 C63 C 0.11397 0.47762 0.68683
 C64 C 0.17149 0.47475 0.66279
 C65 C 0.21939 0.49940 0.75851
 C66 C -0.07690 0.54012 0.70275
 C67 C -0.13423 0.52922 0.67423
 C68 C -0.10396 0.42234 0.67484
 C69 C -0.04607 0.43585 0.70076
 N70 N -0.03464 0.49340 0.71668
 H71 H 0.15590 0.51243 0.82682
 H72 H 0.07270 0.47024 0.65886
 H73 H 0.17427 0.46620 0.61592
 H74 H 0.25955 0.51022 0.78666
 H75 H -0.06776 0.58522 0.71679
 H76 H -0.16772 0.56721 0.66553
 H77 H -0.11171 0.37609 0.66301
 H78 H -0.01167 0.39930 0.71221
 C79 C -0.02473 0.31934 0.84562
 C80 C 0.01422 0.68823 0.86256
 C81 C -0.15026 0.46898 0.66301
 C82 C 0.22468 0.48699 0.69850
 C83 C 0.12772 0.01803 0.43170
 H84 H 0.10043 0.01818 0.46992
 C85 C 0.09738 0.02085 0.37383
 H86 H 0.04736 0.02284 0.36866
 C87 C 0.22455 0.02033 0.39017
 H88 H 0.27418 0.01972 0.39565
 C89 C 0.19653 0.02162 0.33227
 H90 H 0.22504 0.02303 0.29452
 N91 N 0.19078 0.01661 0.43917
 C92 C 0.23741 0.01448 0.63901
 H93 H 0.28349 0.02966 0.63420
 C94 C 0.21587 0.01024 0.69616
 H95 H 0.24540 0.02243 0.73419
 C96 C 0.14243 -0.01686 0.59592
 H97 H 0.11450 -0.03018 0.55767
 C98 C 0.11805 -0.01954 0.65257
 H99 H 0.07064 -0.03161 0.65654
 Zn100 Zn 0.24218 0.01024 0.51495
 N101 N 0.20074 0.00225 0.58955
 C102 C 0.27183 0.12859 0.55113
 N103 N 0.28885 0.08285 0.51625
 C104 C 0.33519 0.09026 0.47898
 C105 C 0.36229 0.14656 0.47199
 C106 C 0.30105 0.18387 0.54888
 C107 C 0.29750 -0.09490 0.46605
 C108 C 0.33620 -0.14705 0.46621
 C109 C 0.36879 -0.13291 0.56916
 C110 C 0.33325 -0.07828 0.56550
 N111 N 0.29746 -0.06041 0.51474
 H112 H 0.23439 0.12311 0.57990
 H113 H 0.35033 0.05305 0.45329
 H114 H 0.39606 0.15210 0.43912
 H115 H 0.28765 0.21875 0.57835
 H116 H 0.26656 -0.08373 0.42716
 H117 H 0.33578 -0.17325 0.42665
 H118 H 0.39276 -0.14850 0.61153
 H119 H 0.33282 -0.05180 0.60433
 C120 C 0.15485 -0.00480 0.70331
 C121 C 0.13215 0.02284 0.32318
 C122 C 0.37225 -0.16711 0.51839
 C123 C 0.34406 0.19520 0.50607
 C124 C 0.87663 0.03129 0.57318
 H125 H 0.86254 0.07408 0.54921
 C126 C 0.89604 0.03090 0.63359
 H127 H 0.89708 0.07331 0.65580
 C128 C 0.88404 -0.07659 0.57631
 H129 H 0.87649 -0.11868 0.55543
 C130 C 0.90468 -0.07908 0.63643
 H131 H 0.91299 -0.12282 0.66081
 N132 N 0.86544 -0.02212 0.54763
 C133 C 0.77358 -0.03008 0.37176
 H134 H 0.72664 -0.03136 0.38490
 C135 C 0.78491 -0.02990 0.31174
 H136 H 0.74629 -0.02846 0.27829
 C137 C 0.88071 -0.02570 0.40062
 H138 H 0.91721 -0.02400 0.43578
 C139 C 0.89428 -0.02558 0.34122
 H140 H 0.94186 -0.02230 0.33016
 Zn141 Zn 0.79773 -0.01933 0.49018
 N142 N 0.82088 -0.02446 0.41385
 C143 C 0.74802 0.09845 0.44743
 N144 N 0.75218 0.05677 0.49503
 C145 C 0.73402 0.07231 0.54919
 C146 C 0.71138 0.13155 0.55711
 C147 C 0.72324 0.15758 0.45284
 C148 C 0.78474 -0.14041 0.48172
 C149 C 0.75787 -0.19632 0.48138
 C150 C 0.66687 -0.14877 0.51858
 C151 C 0.69614 -0.09346 0.51926
 N152 N 0.75423 -0.09055 0.50099
 H153 H 0.76489 0.08656 0.40525
 H154 H 0.73943 0.03931 0.58683
 H155 H 0.69735 0.14321 0.60062
 H156 H 0.71827 0.18945 0.41415
 H157 H 0.82983 -0.13639 0.46472
 H158 H 0.78254 -0.23514 0.46498
 H159 H 0.61970 -0.15022 0.53035
 H160 H 0.67204 -0.05281 0.53237
 C161 C 0.84540 -0.02244 0.29613
 C162 C 0.90572 -0.02505 0.66617
 C163 C 0.69801 -0.20080 0.49913
 C164 C 0.70399 0.17450 0.50805
 C165 C 0.54387 0.17603 0.96851
 H166 H 0.50164 0.15464 0.95536
 C167 C 0.60037 0.14779 0.95782
 H168 H 0.60170 0.10426 0.93749
 C169 C 0.59475 0.25874 1.01035
 H170 H 0.59211 0.30260 1.02974
 C171 C 0.65222 0.23198 1.00069
 H172 H 0.69408 0.25437 1.01383
 N173 N 0.54211 0.22980 0.99577
 C174 C 0.36025 0.25030 1.05918
 H175 H 0.35517 0.29907 1.05081
 C176 C 0.31685 0.22045 1.09067
 H177 H 0.27974 0.24738 1.10719
 C178 C 0.42032 0.15864 1.05562
 H179 H 0.46323 0.13547 1.04679
 C180 C 0.37503 0.12626 1.08279
 H181 H 0.38250 0.07752 1.09007
 Zn182 Zn 0.46633 0.27058 1.00895
 N183 N 0.40940 0.21878 1.03977
 C184 C 0.43244 0.26799 0.88844
 N185 N 0.43652 0.30818 0.93257
 C186 C 0.43359 0.36920 0.91862
 C187 C 0.43352 0.39102 0.85873
 C188 C 0.43671 0.28758 0.82861
 C189 C 0.50832 0.28307 1.12142
 C190 C 0.50809 0.30043 1.17991
 C191 C 0.44592 0.39049 1.14402
 C192 C 0.44704 0.37109 1.08568
 N193 N 0.47916 0.31859 1.07539
 H194 H 0.43268 0.21982 0.90012
 H195 H 0.43755 0.40096 0.95343
 H196 H 0.43600 0.43949 0.84870
 H197 H 0.44171 0.25411 0.79540
 H198 H 0.52956 0.23934 1.11298
 H199 H 0.53341 0.27266 1.21562
 H200 H 0.42245 0.43341 1.15203
 H201 H 0.41962 0.39616 1.04984
 C202 C 0.31876 0.15674 1.09347
 C203 C 0.65492 0.17587 0.97452
 C204 C 0.47696 0.35469 1.19154
 C205 C 0.44228 0.34957 0.81393
 C206 C 0.43068 0.84904 0.97251
 H207 H 0.47459 0.86852 0.98367
 C208 C 0.37697 0.88664 0.96196
 H209 H 0.38127 0.93470 0.96716
 C210 C 0.37293 0.76200 0.95662
 H211 H 0.37192 0.71306 0.95463
 C212 C 0.31897 0.79789 0.94317
 H213 H 0.27771 0.77514 0.93010
 N214 N 0.42703 0.78774 0.97211
 C215 C 0.60824 0.75957 1.05168
 H216 H 0.59204 0.73379 1.08934
 C217 C 0.66738 0.78278 1.05631
 H218 H 0.69579 0.77617 1.09800
 C219 C 0.59144 0.79984 0.95147
 H220 H 0.56187 0.80578 0.91054
 C221 C 0.65021 0.82336 0.95405
 H222 H 0.66530 0.84830 0.91520
 Zn223 Zn 0.49435 0.73115 0.99002
 N224 N 0.57154 0.76860 0.99981
 C225 C 0.52802 0.62912 0.92022
 N226 N 0.49730 0.68422 0.92164
 C227 C 0.47229 0.71424 0.87026
 C228 C 0.47572 0.68876 0.81544
 C229 C 0.53218 0.60149 0.86578
 C230 C 0.45926 0.72663 1.10557
 C231 C 0.45488 0.70475 1.16457
 C232 C 0.48630 0.60450 1.13593
 C233 C 0.48881 0.62812 1.07694
 N234 N 0.47802 0.68888 1.06347
 H235 H 0.55159 0.60776 0.96037
 H236 H 0.45223 0.75984 0.87077
 H237 H 0.45730 0.71436 0.77502
 H238 H 0.55773 0.55826 0.86448
 H239 H 0.45101 0.77475 1.09403
 H240 H 0.44392 0.73616 1.19828
 H241 H 0.49965 0.55707 1.14723
 H242 H 0.50257 0.59832 1.04324
 C243 C 0.68912 0.81464 1.00682
 C244 C 0.31910 0.86075 0.95077
 C245 C 0.47163 0.64370 1.18074
 C246 C 0.50663 0.63234 0.81274
 B247 B 0.96900 1.08247 0.01975
 B248 B 1.01717 1.02636 0.06290
 B249 B 0.93812 1.01869 0.05645
 B250 B 0.90859 1.04404 -0.01814
 B251 B 0.97120 1.06912 -0.05616
 B252 B 1.04151 1.05609 -0.00838
 B253 B 0.98958 0.94100 -0.02852
 B254 B 0.94321 0.99743 -0.06903
 B255 B 1.02440 1.00729 -0.06131
 B256 B 1.04962 0.97781 0.01599
 B257 B 0.98749 0.95380 0.05039
 B258 B 0.92143 0.96408 0.00128
 B259 B 0.58949 0.48165 0.46878
 B260 B 0.59284 0.47871 0.54801
 B261 B 0.57343 0.55174 0.50449
 B262 B 0.52673 0.53435 0.44076
 B263 B 0.51966 0.45570 0.44170
 B264 B 0.55859 0.42081 0.51087
 B265 B 0.46043 0.49896 0.54543
 B266 B 0.45769 0.50382 0.46404
 B267 B 0.47680 0.43439 0.50490
 B268 B 0.52253 0.45062 0.57234
 B269 B 0.53391 0.52888 0.57047
 B270 B 0.49734 0.56515 0.50812
 C271 C 1.00035 1.19846 0.01186
 C272 C 1.00951 1.25804 0.02751
 C273 C 0.97039 1.28677 0.06452
 C274 C 0.91852 1.25559 0.08188
 C275 C 0.91240 1.19296 0.06815
 C276 C 0.95943 1.15920 0.03757
 C277 C 0.86054 1.16637 0.08820
 N278 N 0.81817 1.19642 0.11857
 N279 N 0.82436 1.25389 0.13156
 C280 C 0.87371 1.28417 0.11534
 H281 H 1.02146 1.18332 -0.02610
 H282 H 1.04568 1.28308 0.00797
 H283 H 0.85802 1.12027 0.08664
 H284 H 0.87695 1.32999 0.12934
 C285 C 0.94364 0.86975 0.12958
 C286 C 0.93993 0.81030 0.15429
 C287 C 0.99000 0.76885 0.15357
 C288 C 1.04812 0.79249 0.14634
 C289 C 1.05248 0.85638 0.13275
 C290 C 0.99746 0.89245 0.10589
 C291 C 1.10834 0.87933 0.15751
 N292 N 1.15841 0.84190 0.17476
 N293 N 1.15605 0.78182 0.17501
 C294 C 1.10223 0.75562 0.16167
 H295 H 0.90040 0.89151 0.11952
 H296 H 0.89523 0.79450 0.16504
 H297 H 1.11570 0.92639 0.16155
 H298 H 1.10158 0.70672 0.16832
 C299 C 0.91523 1.18205 -0.08146
 C300 C 0.91823 1.24259 -0.10023
 C301 C 0.95186 1.25751 -0.14816
 C302 C 0.96447 1.21119 -0.18688
 C303 C 0.96173 1.14884 -0.16594
 C304 C 0.95238 1.13411 -0.10337
 C305 C 0.96799 1.10572 -0.20870
 N306 N 0.97823 1.12231 -0.26615
 N307 N 0.98234 1.18031 -0.28456
 C308 C 0.97640 1.22549 -0.24653
 H309 H 0.88704 1.17569 -0.04501
 H310 H 0.89884 1.27728 -0.07357
 H311 H 0.96837 1.05936 -0.19627
 H312 H 0.97836 1.27221 -0.26364
 C313 C 1.04279 0.83817 -0.07205
 C314 C 1.05147 0.78031 -0.09252
 C315 C 1.00227 0.74883 -0.11358
 C316 C 0.94363 0.77828 -0.11778
 C317 C 0.93493 0.83860 -0.09619
 C318 C 0.98678 0.86999 -0.06509
 C319 C 0.87406 0.86285 -0.10703
 N320 N 0.82777 0.83240 -0.13364
 N321 N 0.83697 0.77680 -0.15188
 C322 C 0.89340 0.74858 -0.14464
 H323 H 1.08311 0.85824 -0.06529
 H324 H 1.09806 0.76078 -0.09383
 H325 H 0.86124 0.90508 -0.09285
 H326 H 0.89849 0.70334 -0.16073
 C327 C 1.03220 0.99298 0.18324
 C328 C 1.05850 0.98950 0.24214
 C329 C 1.10263 1.02939 0.26063
 C330 C 1.11401 1.07817 0.22040
 C331 C 1.08779 1.08043 0.15960
 C332 C 1.05100 1.03249 0.13591
 C333 C 1.08837 1.13626 0.12869
 N334 N 1.11361 1.18525 0.15304
 N335 N 1.14170 1.18163 0.20759
 C336 C 1.14375 1.12928 0.24186
 H337 H 0.99410 0.96488 0.17762
 H338 H 1.04349 0.95520 0.27367
 H339 H 1.06519 1.14117 0.08655
 H340 H 1.16390 1.13022 0.28716
 C341 C 1.10289 0.96214 -0.14164
 C342 C 1.12546 0.95475 -0.19762
 C343 C 1.12810 1.00389 -0.23797
 C344 C 1.11588 1.06203 -0.21739
 C345 C 1.09034 1.06918 -0.16012
 C346 C 1.07195 1.01507 -0.12375
 C347 C 1.08750 1.13061 -0.14340
 N348 N 1.10753 1.17708 -0.17767
 N349 N 1.12836 1.16912 -0.23079
 C350 C 1.13115 1.11354 -0.25262
 H351 H 1.10917 0.92413 -0.11322
 H352 H 1.14298 0.91015 -0.20855
 H353 H 1.06491 1.14537 -0.10610
 H354 H 1.14723 1.11034 -0.29685
 C355 C 0.85278 0.98550 0.13313
 C356 C 0.83191 0.97132 0.18893
 C357 C 0.85601 0.99929 0.23848
 C358 C 0.89008 1.05100 0.22941
 C359 C 0.91604 1.06198 0.17379
 C360 C 0.90219 1.02359 0.12316
 C361 C 0.95434 1.11126 0.17255
 N362 N 0.96170 1.14899 0.21797
 N363 N 0.93276 1.14092 0.26752
 C364 C 0.89658 1.09339 0.27459
 H365 H 0.83124 0.96164 0.09871
 H366 H 0.79984 0.93529 0.19349
 H367 H 0.97798 1.12087 0.13542
 H368 H 0.87239 1.08965 0.31505
 C369 C 0.96299 0.95067 -0.17421
 C370 C 0.95892 0.94890 -0.23577
 C371 C 0.90655 0.97243 -0.26842
 C372 C 0.85355 0.98612 -0.23810
 C373 C 0.85831 0.98692 -0.17435
 C374 C 0.91843 0.98018 -0.14095
 C375 C 0.80237 0.99187 -0.14735
 N376 N 0.74734 0.99953 -0.17993
 N377 N 0.74379 1.00152 -0.23934
 C378 C 0.79514 0.99531 -0.26961
 H379 H 1.00305 0.92838 -0.15374
 H380 H 0.99771 0.93024 -0.25794
 H381 H 0.80261 0.99279 -0.10103
 H382 H 0.78950 0.99508 -0.31782
 C383 C 1.12768 1.16121 0.00601
 C384 C 1.19307 1.17820 0.06030
 C385 C 1.26345 1.12718 0.08377
 C386 C 1.27364 1.04694 0.05530
 C387 C 1.18085 1.02529 -0.03029
 C388 C 1.11360 1.08639 -0.02922
 C389 C 1.17370 0.95623 -0.02420
 N390 N 1.21839 0.91405 0.04475
 N391 N 1.26624 0.92968 0.08954
 C392 C 1.29526 0.98867 0.09800
 H393 H 1.11049 1.20260 -0.01814
 H394 H 1.19301 1.22550 0.07021
 H395 H 1.19531 0.93207 0.01082
 H396 H 1.28350 1.02852 0.07319
 C397 C 0.79624 1.07800 0.01470
 C398 C 0.73971 1.10836 0.01666
 C399 C 0.71496 1.14445 -0.03146
 C400 C 0.74568 1.14685 -0.08422
 C401 C 0.80356 1.11320 -0.08706
 C402 C 0.83456 1.07999 -0.03334
 C403 C 0.82661 1.11542 -0.14396
 N404 N 0.79852 1.14925 -0.19124
 N405 N 0.74652 1.18199 -0.18672
 C406 C 0.71903 1.18186 -0.13469
 H407 H 0.80837 1.04963 0.05275
 H408 H 0.71503 1.10343 0.05691
 H409 H 0.86668 1.08980 -0.15175
 H410 H 0.67624 1.20871 -0.13341
 C411 C 1.12879 0.87029 0.02430
 C412 C 1.19383 0.84716 -0.02342
 C413 C 1.26397 0.89323 -0.03864
 C414 C 1.27319 0.97138 -0.00905
 C415 C 1.18224 1.00065 0.06575
 C416 C 1.11621 0.94624 0.05659
 C417 C 1.17384 1.07038 0.05842
 N418 N 1.21659 1.10888 -0.00509
 N419 N 1.26333 1.08882 -0.04454
 C420 C 1.29206 1.02682 -0.04893
 H421 H 1.09461 0.83711 0.03146
 H422 H 1.19200 0.80135 -0.03776
 H423 H 1.19452 1.09287 0.02596
 H424 H 1.32191 1.01900 -0.08460
 C425 C 0.80202 0.93677 -0.00129
 C426 C 0.74834 0.90599 0.00101
 C427 C 0.74975 0.84395 0.01097
 C428 C 0.80785 0.81238 0.01916
 C429 C 0.86446 0.84496 0.01941
 C430 C 0.86281 0.91210 0.00954
 C431 C 0.91908 0.80720 0.02506
 N432 N 0.91790 0.74568 0.02801
 N433 N 0.86548 0.71704 0.02711
 C434 C 0.81049 0.74833 0.02330
 H435 H 0.79289 0.98143 -0.01341
 H436 H 0.70439 0.93154 -0.00738
 H437 H 0.96376 0.82498 0.02821
 H438 H 0.76923 0.72259 0.02188
 C439 C 0.70113 0.51106 0.42823
 C440 C 0.75595 0.50650 0.40043
 C441 C 0.77302 0.45515 0.37185
 C442 C 0.73251 0.40666 0.37151
 C443 C 0.67475 0.41100 0.39990
 C444 C 0.65790 0.46469 0.43342
 C445 C 0.63671 0.36104 0.39196
 N446 N 0.65457 0.31222 0.36202
 N447 N 0.70887 0.30825 0.33861
 C448 C 0.74868 0.35333 0.34312
 H449 H 0.69566 0.55389 0.44697
 H450 H 0.78500 0.54533 0.39998
 H451 H 0.59455 0.35714 0.41262
 H452 H 0.79280 0.34680 0.32435
 C453 C 0.36380 0.46250 0.38463
 C454 C 0.31037 0.45882 0.34688
 C455 C 0.26869 0.50825 0.33388
 C456 C 0.28054 0.56371 0.35988
 C457 C 0.33135 0.56698 0.40294
 C458 C 0.38201 0.51430 0.41397
 C459 C 0.32292 0.61619 0.44590
 N460 N 0.27777 0.66072 0.43423
 N461 N 0.23801 0.66049 0.38654
 C462 C 0.23759 0.61385 0.34964
 H463 H 0.38714 0.42099 0.39683
 H464 H 0.29959 0.41494 0.33015
 H465 H 0.40367 0.58531 0.53773
 H466 H 0.20125 0.61508 0.31409
 C467 C 0.71194 0.49246 0.56325
 C468 C 0.77051 0.49673 0.58921
 C469 C 0.79253 0.45856 0.63758
 C470 C 0.75307 0.41202 0.65625
 C471 C 0.69070 0.41044 0.62860
 C472 C 0.66599 0.45778 0.58362
 C473 C 0.65579 0.36272 0.64908
 N474 N 0.67773 0.32244 0.69406
 N475 N 0.73336 0.32653 0.72163
 C476 C 0.77116 0.37054 0.70516
 H477 H 0.69963 0.52255 0.52942
 H478 H 0.79938 0.53033 0.56960
 H479 H 0.60986 0.35921 0.63238
 H480 H 0.81424 0.37299 0.73166
 C481 C 0.36763 0.45168 0.61997
 C482 C 0.32091 0.44770 0.65943
 C483 C 0.28259 0.49753 0.66925
 C484 C 0.28898 0.55233 0.63618
 C485 C 0.33373 0.55562 0.59324
 C486 C 0.38602 0.50445 0.59009
 C487 C 0.32247 0.60829 0.54807
 N488 N 0.27904 0.65313 0.55527
 N489 N 0.24344 0.65059 0.60092
 C490 C 0.24694 0.60237 0.64115
 H491 H 0.37806 0.41019 0.60217
 H492 H 0.31023 0.40307 0.67757
 H493 H 0.40424 0.59264 0.46745
 H494 H 0.21488 0.60262 0.67592
 C495 C 0.46725 0.55557 0.32841
 C496 C 0.45046 0.58132 0.27124
 C497 C 0.48597 0.62399 0.24472
 C498 C 0.54088 0.63936 0.27588
 C499 C 0.55844 0.61195 0.33446
 C500 C 0.51825 0.57109 0.36691
 C501 C 0.61833 0.62268 0.35593
 N502 N 0.65555 0.66025 0.32716
 N503 N 0.63741 0.68793 0.27461
 C504 C 0.58140 0.67856 0.24778
 H505 H 0.44512 0.51489 0.33585
 H506 H 0.41133 0.56415 0.24569
 H507 H 0.63435 0.60218 0.39608
 H508 H 0.57024 0.70063 0.20403
 C509 C 0.47649 0.58344 0.65650
 C510 C 0.46783 0.60141 0.71376
 C511 C 0.51803 0.61014 0.75354
 C512 C 0.57746 0.60666 0.73281
 C513 C 0.58582 0.58420 0.67542
 C514 C 0.53414 0.56539 0.63669
 C515 C 0.64602 0.58089 0.65883
 N516 N 0.69425 0.59927 0.69385
 N517 N 0.68590 0.62198 0.74648
 C518 C 0.62902 0.62635 0.76725
 H519 H 0.43721 0.58968 0.62671
 H520 H 0.42120 0.61142 0.72605
 H521 H 0.65348 0.56088 0.61943
 H522 H 0.62475 0.64598 0.80996
 C523 C 0.47787 0.37871 0.35599
 C524 C 0.46349 0.35733 0.29971
 C525 C 0.49039 0.38028 0.25008
 C526 C 0.53634 0.42192 0.25747
 C527 C 0.54982 0.44618 0.31476
 C528 C 0.51654 0.42731 0.36839
 C529 C 0.59714 0.48744 0.31413
 N530 N 0.62828 0.50196 0.26561
 N531 N 0.61568 0.47793 0.21377
 C532 C 0.57054 0.43853 0.20793
 H533 H 0.45371 0.35637 0.38801
 H534 H 0.43078 0.32175 0.29506
 H535 H 0.60903 0.51099 0.35089
 H536 H 0.56285 0.42003 0.16458
 C537 C 0.47067 0.37026 0.64859
 C538 C 0.44713 0.34942 0.70222
 C539 C 0.46940 0.36962 0.75689
 C540 C 0.52241 0.40396 0.75710
 C541 C 0.54291 0.42871 0.70189
 C542 C 0.51331 0.41629 0.64352
 C543 C 0.59665 0.45965 0.70775
 N544 N 0.62874 0.46603 0.76081
 N545 N 0.61031 0.44188 0.81140
 C546 C 0.55850 0.41047 0.81132
 H547 H 0.45051 0.35151 0.60935
 H548 H 0.41007 0.31806 0.70036
 H549 H 0.61448 0.47706 0.66957
 H550 H 0.54827 0.38848 0.85332
 C551 C 0.66504 0.63475 0.52388
 C552 C 0.69303 0.68999 0.52468
 C553 C 0.66718 0.74091 0.49300
 C554 C 0.61362 0.73568 0.45585
 C555 C 0.58056 0.68027 0.45739
 C556 C 0.60695 0.62381 0.49331
 C557 C 0.52263 0.68681 0.42256
 N558 N 0.50410 0.73745 0.38796
 N559 N 0.53844 0.78532 0.38424
 C560 C 0.59269 0.78596 0.41673
 H561 H 0.69154 0.60490 0.55361
 H562 H 0.73558 0.69340 0.55255
 H563 H 0.48964 0.65307 0.42093
 H564 H 0.61906 0.82613 0.41141
 C565 C 0.66516 0.34429 0.51447
 C566 C 0.69795 0.28863 0.50835
 C567 C 0.66887 0.23359 0.51315
 C568 C 0.60884 0.23491 0.53225
 C569 C 0.58024 0.29132 0.54637
 C570 C 0.60054 0.34941 0.52277
 C571 C 0.53555 0.28845 0.58743
 N572 N 0.51383 0.23186 0.60424
 N573 N 0.53255 0.17931 0.57937
 C574 C 0.57841 0.18051 0.54221
 H575 H 0.69223 0.38331 0.50991
 H576 H 0.74622 0.28891 0.49904
 H577 H 0.50975 0.25949 0.61480
 H578 H 0.59342 0.13817 0.52429
 C579 C 0.39729 0.66463 0.50556
 C580 C 0.37141 0.72398 0.50391
 C581 C 0.40592 0.77214 0.52110
 C582 C 0.46696 0.76046 0.54625
 C583 C 0.49538 0.69996 0.55034
 C584 C 0.46658 0.64981 0.52069
 C585 C 0.55175 0.69327 0.58440
 N586 N 0.57901 0.74044 0.61001
 N587 N 0.55438 0.79663 0.60226
 C588 C 0.50059 0.80855 0.56910
 H589 H 0.35614 0.55177 0.49798
 H590 H 0.32289 0.73355 0.49263
 H591 H 0.57641 0.65182 0.58824
 H592 H 0.48462 0.85561 0.56182
 C593 C 0.45839 0.31834 0.48501
 C594 C 0.43126 0.26224 0.48625
 C595 C 0.36963 0.25728 0.49756
 C596 C 0.33335 0.31210 0.49807
 C597 C 0.36221 0.36961 0.50013
 C598 C 0.42923 0.37351 0.49894
 C599 C 0.32149 0.42059 0.49971
 N600 N 0.25936 0.41656 0.49661
 N601 N 0.23336 0.36349 0.49250
 C602 C 0.26820 0.31128 0.49226
 H603 H 0.50300 0.31845 0.46770
 H604 H 0.45972 0.22233 0.47841
 H605 H 0.33835 0.46371 0.50063
 H606 H 0.24433 0.27004 0.48511
   
