data_POSCAR
  _audit_creation_date              2014-09-24
  _audit_creation_method            'ToBaCCo'
  _symmetry_space_group_name_H-M    'P1'
  _symmetry_Int_Tables_number       1
  _symmetry_cell_setting            triclinic
  loop_
  _symmetry_equiv_pos_as_xyz
 x,y,z
_cell_length_a 44.4748
_cell_length_b 49.3155
_cell_length_c 31.9929
_cell_angle_alpha 89.858000
_cell_angle_beta 89.998300
_cell_angle_gamma 90.046500
loop_
  _atom_site_label
  _atom_site_type_symbol
  _atom_site_fract_x
  _atom_site_fract_y
  _atom_site_fract_z
C1 C 1.27603 0.22083 0.26645
 C2 C 1.25103 0.23516 0.25122
 C3 C 1.22605 0.22078 0.23606
 C4 C 1.22615 0.19243 0.23597
 C5 C 1.25104 0.17826 0.25134
 C6 C 1.27596 0.19245 0.26668
 C7 C 1.25102 0.26509 0.25107
 C8 C 1.27599 0.27947 0.23576
 C9 C 1.27585 0.30785 0.23537
 C10 C 1.25091 0.32200 0.25064
 C11 C 1.22605 0.30778 0.26609
 C12 C 1.22601 0.27942 0.26616
 H13 H 1.29526 0.23177 0.27869
 H14 H 1.20679 0.23163 0.22372
 H15 H 1.29523 0.26856 0.22353
 H16 H 1.20675 0.26854 0.27852
 H17 H 1.25097 0.15625 0.25133
 H18 H 1.25078 0.34400 0.25050
 C19 C 0.77510 -0.27991 0.26574
 C20 C 0.75003 -0.26554 0.25084
 C21 C 0.72501 -0.27988 0.23574
 C22 C 0.72514 -0.30822 0.23538
 C23 C 0.75011 -0.32245 0.25040
 C24 C 0.77508 -0.30829 0.26566
 C25 C 0.75000 -0.23562 0.25095
 C26 C 0.77503 -0.22118 0.23597
 C27 C 0.77490 -0.19283 0.23587
 C28 C 0.74992 -0.17873 0.25100
 C29 C 0.72498 -0.19298 0.26612
 C30 C 0.72493 -0.22134 0.26596
 H31 H 0.79437 -0.26900 0.27796
 H32 H 0.70569 -0.26901 0.22362
 H33 H 0.79435 -0.23198 0.22377
 H34 H 0.70563 -0.23225 0.27810
 H35 H 0.75008 -0.34445 0.25016
 H36 H 0.74989 -0.15673 0.25101
 C37 C 0.77550 0.22122 -0.23541
 C38 C 0.75045 0.23548 -0.25061
 C39 C 0.72547 0.22104 -0.26558
 C40 C 0.72563 0.19270 -0.26551
 C41 C 0.75059 0.17860 -0.25018
 C42 C 0.77548 0.19288 -0.23506
 C43 C 0.75038 0.26540 -0.25084
 C44 C 0.77536 0.27979 -0.26607
 C45 C 0.77521 0.30816 -0.26643
 C46 C 0.75022 0.32229 -0.25126
 C47 C 0.72535 0.30804 -0.23591
 C48 C 0.72534 0.27970 -0.23584
 H49 H 0.79477 0.23215 -0.22326
 H50 H 0.70616 0.23183 -0.27790
 H51 H 0.79464 0.26889 -0.27822
 H52 H 0.70609 0.26880 -0.22351
 H53 H 0.75064 0.15660 -0.25002
 H54 H 0.75009 0.34430 -0.25136
 C55 C 1.27507 -0.27995 -0.23384
 C56 C 1.25000 -0.26555 -0.24861
 C57 C 1.22487 -0.27983 -0.26344
 C58 C 1.22489 -0.30816 -0.26362
 C59 C 1.24986 -0.32244 -0.24876
 C60 C 1.27494 -0.30832 -0.23381
 C61 C 1.25007 -0.23564 -0.24860
 C62 C 1.27518 -0.22129 -0.26350
 C63 C 1.27514 -0.19295 -0.26366
 C64 C 1.25018 -0.17876 -0.24870
 C65 C 1.22516 -0.19294 -0.23370
 C66 C 1.22502 -0.22128 -0.23375
 H67 H 1.29443 -0.26908 -0.22180
 H68 H 1.20555 -0.26892 -0.27547
 H69 H 1.29449 -0.23215 -0.27560
 H70 H 1.20566 -0.23212 -0.22165
 H71 H 1.24974 -0.34445 -0.24890
 H72 H 1.25021 -0.15676 -0.24876
 C73 C 0.21740 0.27214 0.73460
 C74 C 0.23351 0.24996 0.75090
 C75 C 0.21762 0.22764 0.76724
 C76 C 0.18606 0.22757 0.76764
 C77 C 0.17026 0.24969 0.75094
 C78 C 0.18586 0.27191 0.73425
 C79 C 0.26688 0.25011 0.75082
 C80 C 0.28281 0.27239 0.76706
 C81 C 0.31438 0.27247 0.76729
 C82 C 0.33014 0.25040 0.75052
 C83 C 0.31449 0.22822 0.73392
 C84 C 0.28296 0.22799 0.73445
 H85 H 0.22940 0.28933 0.72157
 H86 H 0.22987 0.21057 0.78022
 H87 H 0.27060 0.28942 0.78009
 H88 H 0.27093 0.21084 0.72147
 H89 H 0.14586 0.24965 0.75089
 H90 H 0.35454 0.25045 0.75032
 C91 C 0.71653 0.77236 0.73390
 C92 C 0.73250 0.75010 0.75023
 C93 C 0.71648 0.72784 0.76650
 C94 C 0.68491 0.72791 0.76684
 C95 C 0.66924 0.75009 0.75012
 C96 C 0.68497 0.77228 0.73345
 C97 C 0.76588 0.75011 0.75024
 C98 C 0.78190 0.77230 0.76660
 C99 C 0.81344 0.77226 0.76687
 C100 C 0.82912 0.75020 0.75003
 C101 C 0.81342 0.72810 0.73329
 C102 C 0.78188 0.72797 0.73377
 H103 H 0.72872 0.78948 0.72093
 H104 H 0.72862 0.71072 0.77950
 H105 H 0.76982 0.78937 0.77971
 H106 H 0.76978 0.71089 0.72068
 H107 H 0.64482 0.75009 0.75008
 H108 H 0.85351 0.75025 0.74991
 C109 C 0.71776 0.27231 0.23312
 C110 C 0.73373 0.25005 0.24938
 C111 C 0.71771 0.22780 0.26569
 C112 C 0.68618 0.22793 0.26612
 C113 C 0.67051 0.25010 0.24950
 C114 C 0.68623 0.27224 0.23282
 C115 C 0.76707 0.25005 0.24938
 C116 C 0.78308 0.27226 0.26565
 C117 C 0.81461 0.27217 0.26601
 C118 C 0.83029 0.25007 0.24937
 C119 C 0.81459 0.22796 0.23273
 C120 C 0.78306 0.22785 0.23310
 H121 H 0.72985 0.28946 0.22010
 H122 H 0.72977 0.21065 0.27869
 H123 H 0.77101 0.28936 0.27865
 H124 H 0.77097 0.21073 0.22009
 H125 H 0.64612 0.25012 0.24957
 H126 H 0.85468 0.25008 0.24936
 C127 C 0.21672 0.77218 0.23317
 C128 C 0.23272 0.74995 0.24950
 C129 C 0.21676 0.72773 0.26596
 C130 C 0.18521 0.72780 0.26650
 C131 C 0.16947 0.74995 0.24978
 C132 C 0.18516 0.77210 0.23292
 C133 C 0.26608 0.74998 0.24941
 C134 C 0.28208 0.77211 0.26593
 C135 C 0.31362 0.77205 0.26624
 C136 C 0.32931 0.75005 0.24928
 C137 C 0.31360 0.72800 0.23238
 C138 C 0.28206 0.72787 0.23283
 H139 H 0.22887 0.78928 0.22008
 H140 H 0.22895 0.71064 0.27898
 H141 H 0.27000 0.78914 0.27915
 H142 H 0.26996 0.71082 0.21965
 H143 H 0.14506 0.74995 0.24990
 H144 H 0.35370 0.75008 0.24921
 N145 N 1.05395 0.02822 0.04513
 N146 N 1.07413 0.04725 0.05230
 N147 N 1.03316 -0.02885 0.07435
 N148 N 1.03824 -0.04843 0.10173
 N149 N 1.05390 -0.02879 0.04512
 N150 N 1.07367 -0.04830 0.05179
 N151 N 1.03320 0.02821 0.07434
 N152 N 1.03869 0.04724 0.10227
 C153 C 1.06406 0.05905 0.08769
 C154 C 1.06346 -0.06042 0.08699
 N155 N 0.94749 -0.02857 0.04529
 N156 N 0.92734 -0.04764 0.05252
 N157 N 0.96832 0.02839 0.07452
 N158 N 0.96334 0.04793 0.10187
 N159 N 0.94750 0.02842 0.04539
 N160 N 0.92780 0.04794 0.05208
 N161 N 0.96830 -0.02865 0.07442
 N162 N 0.96288 -0.04779 0.10235
 Mn163 Mn 1.00074 -0.00022 0.07488
 C164 C 0.93750 -0.05956 0.08784
 C165 C 0.93810 0.05997 0.08720
 N166 N 1.05366 -0.02845 -0.04491
 N167 N 1.07356 -0.04770 -0.05197
 N168 N 1.03311 0.02867 -0.07404
 N169 N 1.03825 0.04825 -0.10144
 N170 N 1.05392 0.02855 -0.04490
 N171 N 1.07378 0.04800 -0.05165
 N172 N 1.03284 -0.02838 -0.07402
 N173 N 1.03799 -0.04758 -0.10177
 Mn174 Mn 1.05416 -0.00012 0.00010
 C175 C 1.06324 -0.05955 -0.08719
 C176 C 1.06357 0.06016 -0.08680
 N177 N 0.94748 0.02849 -0.04460
 N178 N 0.92745 0.04766 -0.05164
 N179 N 0.96799 -0.02849 -0.07400
 N180 N 0.96277 -0.04792 -0.10147
 N181 N 0.94726 -0.02852 -0.04475
 N182 N 0.92739 -0.04793 -0.05148
 N183 N 0.96824 0.02858 -0.07381
 N184 N 0.96290 0.04781 -0.10159
 Mn185 Mn 0.94714 -0.00005 0.00033
 Mn186 Mn 1.00055 0.00010 -0.07444
 Cl187 Cl 1.00065 -0.00007 0.00022
 C188 C 0.93762 0.05964 -0.08692
 C189 C 0.93750 -0.05991 -0.08675
 N190 N 1.05286 0.52869 0.54528
 N191 N 1.07285 0.54786 0.55261
 N192 N 1.03209 0.47156 0.57420
 N193 N 1.03710 0.45198 0.60163
 N194 N 1.05301 0.47169 0.54521
 N195 N 1.07281 0.45224 0.55209
 N196 N 1.03194 0.52860 0.57426
 N197 N 1.03712 0.54771 0.60218
 C198 C 1.06248 0.55964 0.58783
 C199 C 1.06245 0.44007 0.58717
 N200 N 0.94657 0.47176 0.54424
 N201 N 0.92644 0.45262 0.55118
 N202 N 0.96711 0.52872 0.57382
 N203 N 0.96193 0.54821 0.60119
 N204 N 0.94646 0.52877 0.54446
 N205 N 0.92668 0.54826 0.55102
 N206 N 0.96723 0.47166 0.57357
 N207 N 0.96173 0.45245 0.60135
 Mn208 Mn 0.99959 0.50013 0.57444
 C209 C 0.93646 0.44065 0.58655
 C210 C 0.93676 0.56025 0.58631
 N211 N 1.05333 0.47207 0.45518
 N212 N 1.07348 0.45302 0.44815
 N213 N 1.03274 0.52916 0.42590
 N214 N 1.03797 0.54873 0.39854
 N215 N 1.05340 0.52908 0.45525
 N216 N 1.07324 0.54857 0.44870
 N217 N 1.03268 0.47210 0.42583
 N218 N 1.03822 0.45306 0.39794
 Mn219 Mn 1.05345 0.50039 0.50024
 C220 C 1.06350 0.44123 0.41270
 C221 C 1.06317 0.56070 0.41343
 N222 N 0.94698 0.52886 0.45443
 N223 N 0.92685 0.54790 0.44706
 N224 N 0.96781 0.47193 0.42525
 N225 N 0.96288 0.45242 0.39783
 N226 N 0.94689 0.47188 0.45424
 N227 N 0.92717 0.45236 0.44737
 N228 N 0.96788 0.52897 0.42542
 N229 N 0.96254 0.54810 0.39744
 Mn230 Mn 0.94643 0.50032 0.49934
 Mn231 Mn 1.00028 0.50054 0.42512
 Cl232 Cl 0.99994 0.50034 0.49978
 C233 C 0.93711 0.55983 0.41180
 C234 C 0.93758 0.44037 0.41229
 N235 N 0.55334 0.02816 0.54506
 N236 N 0.57348 0.04726 0.55199
 N237 N 0.53259 -0.02882 0.57471
 N238 N 0.53772 -0.04833 0.60222
 N239 N 0.55329 -0.02886 0.54542
 N240 N 0.57305 -0.04835 0.55216
 N241 N 0.53263 0.02824 0.57432
 N242 N 0.53811 0.04741 0.60203
 C243 C 0.56343 0.05919 0.58726
 C244 C 0.56291 -0.06037 0.58748
 N245 N 0.44689 -0.02854 0.54589
 N246 N 0.42690 -0.04775 0.55310
 N247 N 0.46777 0.02849 0.57475
 N248 N 0.46282 0.04807 0.60203
 N249 N 0.44690 0.02846 0.54569
 N250 N 0.42720 0.04800 0.55238
 N251 N 0.46776 -0.02856 0.57494
 N252 N 0.46255 -0.04779 0.60278
 Mn253 Mn 0.50019 -0.00016 0.57515
 C254 C 0.43722 -0.05967 0.58833
 C255 C 0.43756 0.06009 0.58742
 N256 N 0.55291 -0.02875 0.45538
 N257 N 0.57293 -0.04789 0.44821
 N258 N 0.53230 0.02831 0.42600
 N259 N 0.53734 0.04786 0.39855
 N260 N 0.55318 0.02824 0.45506
 N261 N 0.57298 0.04772 0.44820
 N262 N 0.53206 -0.02874 0.42631
 N263 N 0.53732 -0.04789 0.39849
 Mn264 Mn 0.55348 -0.00030 0.50023
 C265 C 0.56265 -0.05976 0.41299
 C266 C 0.56266 0.05981 0.41306
 N267 N 0.44673 0.02829 0.45567
 N268 N 0.42667 0.04743 0.44857
 N269 N 0.46721 -0.02877 0.42657
 N270 N 0.46197 -0.04826 0.39923
 N271 N 0.44650 -0.02871 0.45586
 N272 N 0.42661 -0.04814 0.44927
 N273 N 0.46744 0.02829 0.42639
 N274 N 0.46202 0.04744 0.39848
 Mn275 Mn 0.44645 -0.00013 0.50078
 Mn276 Mn 0.49975 -0.00022 0.42584
 Cl277 Cl 0.49997 -0.00020 0.50050
 C278 C 0.43675 0.05930 0.41315
 C279 C 0.43671 -0.06021 0.41406
 N280 N 0.55256 0.52862 0.04383
 N281 N 0.57267 0.54771 0.05105
 N282 N 0.53202 0.47154 0.07328
 N283 N 0.53717 0.45205 0.10079
 N284 N 0.55283 0.47164 0.04414
 N285 N 0.57270 0.45224 0.05098
 N286 N 0.53176 0.52858 0.07297
 N287 N 0.53715 0.54764 0.10089
 C288 C 0.56249 0.55951 0.08637
 C289 C 0.56249 0.44016 0.08621
 N290 N 0.44639 0.47140 0.04394
 N291 N 0.42629 0.45229 0.05124
 N292 N 0.46690 0.52851 0.07294
 N293 N 0.46179 0.54810 0.10015
 N294 N 0.44614 0.52841 0.04373
 N295 N 0.42634 0.54789 0.05025
 N296 N 0.46715 0.47145 0.07315
 N297 N 0.46173 0.45237 0.10119
 Mn298 Mn 0.49946 0.50002 0.07356
 C299 C 0.43641 0.44049 0.08668
 C300 C 0.43653 0.56003 0.08535
 N301 N 0.55282 0.47173 -0.04587
 N302 N 0.57297 0.45267 -0.05290
 N303 N 0.53201 0.52868 -0.07543
 N304 N 0.53707 0.54823 -0.10291
 N305 N 0.55275 0.52874 -0.04621
 N306 N 0.57249 0.54829 -0.05296
 N307 N 0.53206 0.47161 -0.07506
 N308 N 0.53751 0.45248 -0.10282
 Mn309 Mn 0.55304 0.50018 -0.00103
 C310 C 0.56286 0.44074 -0.08816
 C311 C 0.56227 0.56031 -0.08823
 N312 N 0.44635 0.52822 -0.04628
 N313 N 0.42633 0.54738 -0.05341
 N314 N 0.46719 0.47124 -0.07524
 N315 N 0.46211 0.45173 -0.10262
 N316 N 0.44639 0.47122 -0.04609
 N317 N 0.42660 0.45173 -0.05280
 N318 N 0.46716 0.52830 -0.07541
 N319 N 0.46187 0.54751 -0.10324
 Mn320 Mn 0.44602 0.49981 -0.00118
 Mn321 Mn 0.49960 0.49996 -0.07577
 Cl322 Cl 0.49953 0.49999 -0.00110
 C323 C 0.43656 0.55933 -0.08868
 C324 C 0.43684 0.43970 -0.08795
 C325 C 1.20103 0.17779 0.21914
 C326 C 1.18046 0.16510 0.20451
 C327 C 1.15670 0.14933 0.18638
 C328 C 1.14405 0.12777 0.20889
 C329 C 1.12291 0.11084 0.18988
 C330 C 1.11437 0.11546 0.14833
 C331 C 1.12645 0.13743 0.12617
 C332 C 1.14759 0.15436 0.14518
 C333 C 1.09526 0.09636 0.12742
 C334 C 1.08038 0.07966 0.10945
 H335 H 1.15111 0.12363 0.24069
 H336 H 1.11387 0.09375 0.20714
 H337 H 1.12017 0.14102 0.09391
 H338 H 1.15740 0.17090 0.12746
 C339 C 1.19958 0.67735 0.71991
 C340 C 1.17881 0.66488 0.70549
 C341 C 1.15481 0.64941 0.68747
 C342 C 1.14241 0.62757 0.70960
 C343 C 1.12114 0.61085 0.69048
 C344 C 1.11224 0.61596 0.64922
 C345 C 1.12401 0.63824 0.62750
 C346 C 1.14528 0.65497 0.64662
 C347 C 1.09324 0.59696 0.62800
 C348 C 1.07853 0.58028 0.60980
 H349 H 1.14981 0.62304 0.74112
 H350 H 1.11234 0.59350 0.70737
 H351 H 1.11745 0.64219 0.59544
 H352 H 1.15490 0.67173 0.62920
 C353 C 0.70050 0.17800 0.71787
 C354 C 0.67990 0.16532 0.70339
 C355 C 0.65608 0.14958 0.68539
 C356 C 0.64352 0.12800 0.70794
 C357 C 0.62233 0.11108 0.68901
 C358 C 0.61367 0.11575 0.64753
 C359 C 0.62565 0.13776 0.62534
 C360 C 0.64683 0.15467 0.64427
 C361 C 0.59457 0.09663 0.62668
 C362 C 0.57972 0.07989 0.60882
 H363 H 0.65069 0.12382 0.73967
 H364 H 0.61337 0.09396 0.70627
 H365 H 0.61926 0.14136 0.59312
 H366 H 0.65657 0.17123 0.62653
 C367 C 0.69996 0.67721 0.21861
 C368 C 0.67931 0.66466 0.20398
 C369 C 0.65542 0.64909 0.18580
 C370 C 0.64281 0.62739 0.20804
 C371 C 0.62154 0.61066 0.18891
 C372 C 0.61284 0.61561 0.14751
 C373 C 0.62487 0.63773 0.12564
 C374 C 0.64614 0.65446 0.14477
 C375 C 0.59367 0.59666 0.12640
 C376 C 0.57878 0.58006 0.10828
 H377 H 0.64999 0.62300 0.23970
 H378 H 0.61254 0.59346 0.20593
 H379 H 0.61847 0.64156 0.09349
 H380 H 0.65591 0.67111 0.12726
 C381 C 0.80008 -0.17814 0.21925
 C382 C 0.82073 -0.16547 0.20477
 C383 C 0.84462 -0.14974 0.18676
 C384 C 0.85694 -0.12799 0.20902
 C385 C 0.87819 -0.11112 0.19003
 C386 C 0.88717 -0.11598 0.14876
 C387 C 0.87542 -0.13814 0.12688
 C388 C 0.85417 -0.15502 0.14587
 C389 C 0.90633 -0.09690 0.12775
 C390 C 0.92121 -0.08021 0.10970
 H391 H 0.84953 -0.12367 0.24057
 H392 H 0.88696 -0.09387 0.20705
 H393 H 0.88204 -0.14191 0.09482
 H394 H 0.84462 -0.17171 0.12834
 C395 C 0.79900 0.32203 0.71765
 C396 C 0.81967 0.33465 0.70305
 C397 C 0.84355 0.35030 0.68494
 C398 C 0.85240 0.34552 0.64360
 C399 C 0.87365 0.36239 0.62460
 C400 C 0.88611 0.38404 0.64694
 C401 C 0.87785 0.38838 0.68863
 C402 C 0.85659 0.37152 0.70763
 C403 C 0.90526 0.40317 0.62606
 C404 C 0.92014 0.41993 0.60816
 H405 H 0.84228 0.32924 0.62576
 H406 H 0.87972 0.35904 0.59223
 H407 H 0.88718 0.40524 0.70602
 H408 H 0.84974 0.37545 0.73954
 C409 C 0.30041 -0.17838 0.71982
 C410 C 0.32114 -0.16582 0.70537
 C411 C 0.34509 -0.15022 0.68735
 C412 C 0.35424 -0.15528 0.64622
 C413 C 0.37546 -0.13840 0.62717
 C414 C 0.38755 -0.11647 0.64925
 C415 C 0.37901 -0.11187 0.69076
 C416 C 0.35779 -0.12874 0.70981
 C417 C 0.40651 -0.09729 0.62819
 C418 C 0.42118 -0.08046 0.61013
 H419 H 0.34438 -0.17175 0.62855
 H420 H 0.38174 -0.14194 0.59492
 H421 H 0.38805 -0.09479 0.70792
 H422 H 0.35068 -0.12460 0.74154
 C423 C 0.29960 0.32174 0.21926
 C424 C 0.32017 0.33441 0.20450
 C425 C 0.34393 0.35016 0.18620
 C426 C 0.35665 0.37169 0.20855
 C427 C 0.37777 0.38861 0.18937
 C428 C 0.38623 0.38402 0.14782
 C429 C 0.37408 0.36208 0.12582
 C430 C 0.35296 0.34516 0.14500
 C431 C 0.40532 0.40313 0.12672
 C432 C 0.42015 0.41985 0.10861
 H433 H 0.34965 0.37581 0.24035
 H434 H 0.38686 0.40568 0.20650
 H435 H 0.38030 0.35852 0.09355
 H436 H 0.34309 0.32865 0.12740
 C437 C 0.80068 0.17836 -0.21826
 C438 C 0.82134 0.16580 -0.20364
 C439 C 0.84522 0.15017 -0.18550
 C440 C 0.85832 0.12902 -0.20822
 C441 C 0.87952 0.11214 -0.18919
 C442 C 0.88764 0.11639 -0.14743
 C443 C 0.87513 0.13799 -0.12505
 C444 C 0.85394 0.15488 -0.14408
 C445 C 0.90668 0.09722 -0.12651
 C446 C 0.92146 0.08041 -0.10859
 H447 H 0.85156 0.12514 -0.24019
 H448 H 0.88889 0.09533 -0.20661
 H449 H 0.88110 0.14128 -0.09262
 H450 H 0.84377 0.17109 -0.12621
 C451 C 0.79899 0.67785 0.28122
 C452 C 0.81977 0.66527 0.29549
 C453 C 0.84382 0.64966 0.31325
 C454 C 0.85597 0.62785 0.29098
 C455 C 0.87738 0.61107 0.30978
 C456 C 0.88668 0.61609 0.35087
 C457 C 0.87511 0.63832 0.37274
 C458 C 0.85370 0.65510 0.35394
 C459 C 0.90593 0.59708 0.37179
 C460 C 0.92085 0.58043 0.38984
 H461 H 0.84831 0.62340 0.25959
 H462 H 0.88601 0.59378 0.29278
 H463 H 0.88197 0.64220 0.40467
 H464 H 0.84428 0.67183 0.37147
 C465 C 0.29976 0.17859 0.28260
 C466 C 0.32039 0.16591 0.29713
 C467 C 0.34422 0.15012 0.31511
 C468 C 0.35697 0.12880 0.29237
 C469 C 0.37814 0.11180 0.31123
 C470 C 0.38662 0.11611 0.35285
 C471 C 0.37445 0.13786 0.37524
 C472 C 0.35327 0.15486 0.35638
 C473 C 0.40571 0.09688 0.37361
 C474 C 0.42054 0.08006 0.39146
 H475 H 0.34995 0.12489 0.26052
 H476 H 0.38724 0.09488 0.29379
 H477 H 0.38068 0.14119 0.40757
 H478 H 0.34339 0.17120 0.37429
 C479 C 0.29888 0.67781 -0.21841
 C480 C 0.31969 0.66524 -0.20426
 C481 C 0.34376 0.64965 -0.18662
 C482 C 0.35603 0.62800 -0.20910
 C483 C 0.37741 0.61117 -0.19037
 C484 C 0.38654 0.61599 -0.14916
 C485 C 0.37488 0.63810 -0.12709
 C486 C 0.35351 0.65493 -0.14582
 C487 C 0.40565 0.59686 -0.12832
 C488 C 0.42043 0.58008 -0.11039
 H489 H 0.34847 0.62369 -0.24058
 H490 H 0.38612 0.59396 -0.20752
 H491 H 0.38162 0.64181 -0.09506
 H492 H 0.34398 0.67155 -0.12814
 C493 C 1.19991 -0.17835 -0.21735
 C494 C 1.17918 -0.16578 -0.20308
 C495 C 1.15524 -0.15016 -0.18530
 C496 C 1.14283 -0.12853 -0.20786
 C497 C 1.12161 -0.11164 -0.18904
 C498 C 1.11278 -0.11637 -0.14764
 C499 C 1.12458 -0.13845 -0.12547
 C500 C 1.14578 -0.15534 -0.14430
 C501 C 1.09385 -0.09718 -0.12677
 C502 C 1.07921 -0.08035 -0.10884
 H503 H 1.15016 -0.12429 -0.23951
 H504 H 1.11280 -0.09446 -0.20627
 H505 H 1.11807 -0.14210 -0.09330
 H506 H 1.15542 -0.17193 -0.12655
 C507 C 1.20086 0.32239 0.28273
 C508 C 1.18024 0.33506 0.29716
 C509 C 1.15640 0.35084 0.31502
 C510 C 1.14390 0.37238 0.29233
 C511 C 1.12268 0.38932 0.31109
 C512 C 1.11392 0.38474 0.35256
 C513 C 1.12585 0.36279 0.37490
 C514 C 1.14707 0.34585 0.35613
 C515 C 1.09475 0.40387 0.37326
 C516 C 1.07984 0.42059 0.39106
 H517 H 1.15113 0.37649 0.26060
 H518 H 1.11376 0.40639 0.29370
 H519 H 1.11940 0.35924 0.40711
 H520 H 1.15676 0.32933 0.37400
 C521 C 0.69974 -0.17844 0.28266
 C522 C 0.67905 -0.16584 0.29705
 C523 C 0.65513 -0.15016 0.31490
 C524 C 0.64264 -0.12859 0.29229
 C525 C 0.62140 -0.11170 0.31110
 C526 C 0.61262 -0.11637 0.35254
 C527 C 0.62453 -0.13838 0.37478
 C528 C 0.64576 -0.15527 0.35596
 C529 C 0.59355 -0.09723 0.37335
 C530 C 0.57877 -0.08047 0.39126
 H531 H 0.64991 -0.12440 0.26060
 H532 H 0.61251 -0.09458 0.29380
 H533 H 0.61806 -0.14199 0.40697
 H534 H 0.65545 -0.17181 0.37376
 C535 C 0.70016 0.32259 -0.21925
 C536 C 0.67950 0.33515 -0.20472
 C537 C 0.65562 0.35076 -0.18666
 C538 C 0.64289 0.37225 -0.20919
 C539 C 0.62166 0.38905 -0.19020
 C540 C 0.61313 0.38438 -0.14867
 C541 C 0.62527 0.36246 -0.12649
 C542 C 0.64650 0.34565 -0.14549
 C543 C 0.59401 0.40342 -0.12774
 C544 C 0.57915 0.42011 -0.10981
 H545 H 0.64996 0.37643 -0.24097
 H546 H 0.61257 0.40611 -0.20746
 H547 H 0.61899 0.35885 -0.09423
 H548 H 0.65638 0.32916 -0.12776
 C549 C 1.17071 0.20625 -0.21524
 C550 C 1.15701 0.18756 -0.19981
 C551 C 1.14059 0.16540 -0.18102
 C552 C 1.15532 0.14711 -0.15441
 C553 C 1.13934 0.12582 -0.13571
 C554 C 1.10851 0.12266 -0.14347
 C555 C 1.09378 0.14091 -0.17016
 C556 C 1.10977 0.16222 -0.18886
 C557 C 1.09211 0.10076 -0.12390
 C558 C 1.07879 0.08232 -0.10718
 H559 H 1.17911 0.14935 -0.14802
 H560 H 1.15100 0.11187 -0.11515
 H561 H 1.06996 0.13872 -0.17642
 H562 H 1.09810 0.17624 -0.20932
 C563 C 1.16983 0.70658 0.28383
 C564 C 1.15615 0.68796 0.29947
 C565 C 1.13980 0.66585 0.31851
 C566 C 1.15518 0.64597 0.34142
 C567 C 1.13932 0.62470 0.36036
 C568 C 1.10796 0.62317 0.35654
 C569 C 1.09257 0.64303 0.33355
 C570 C 1.10845 0.66431 0.31460
 C571 C 1.09169 0.60129 0.37633
 C572 C 1.07843 0.58286 0.39313
 H573 H 1.17940 0.64695 0.34474
 H574 H 1.15149 0.60950 0.37805
 H575 H 1.06834 0.64209 0.33036
 H576 H 1.09628 0.67957 0.29703
 C577 C 0.66981 0.20553 0.28425
 C578 C 0.65591 0.18701 0.29975
 C579 C 0.63917 0.16510 0.31860
 C580 C 0.61894 0.17041 0.35117
 C581 C 0.60287 0.14915 0.36980
 C582 C 0.60691 0.12246 0.35595
 C583 C 0.62706 0.11717 0.32328
 C584 C 0.64313 0.13842 0.30465
 C585 C 0.59084 0.10049 0.37576
 C586 C 0.57773 0.08200 0.39261
 H587 H 0.61567 0.19094 0.36225
 H588 H 0.58742 0.15351 0.39509
 H589 H 0.63044 0.09662 0.31236
 H590 H 0.65870 0.13405 0.27952
 C591 C 0.66942 0.70665 -0.21608
 C592 C 0.65553 0.68805 -0.20070
 C593 C 0.63879 0.66603 -0.18202
 C594 C 0.61775 0.67130 -0.15044
 C595 C 0.60168 0.64996 -0.13199
 C596 C 0.60653 0.62320 -0.14501
 C597 C 0.62750 0.61793 -0.17669
 C598 C 0.64357 0.63928 -0.19514
 C599 C 0.59045 0.60113 -0.12536
 C600 C 0.57734 0.58258 -0.10861
 H601 H 0.61384 0.69188 -0.13998
 H602 H 0.58560 0.65432 -0.10747
 H603 H 0.63153 0.59734 -0.18699
 H604 H 0.65977 0.63491 -0.21950
 C605 C 0.82979 -0.20532 -0.21508
 C606 C 0.84363 -0.18675 -0.19971
 C607 C 0.86023 -0.16469 -0.18105
 C608 C 0.84502 -0.14183 -0.16597
 C609 C 0.86108 -0.12061 -0.14736
 C610 C 0.89245 -0.12209 -0.14368
 C611 C 0.90767 -0.14491 -0.15887
 C612 C 0.89161 -0.16614 -0.17749
 C613 C 0.90887 -0.10031 -0.12397
 C614 C 0.92221 -0.08196 -0.10718
 H615 H 0.82078 -0.14046 -0.16846
 H616 H 0.84902 -0.10311 -0.13571
 H617 H 0.93190 -0.14634 -0.15619
 H618 H 0.90364 -0.18371 -0.18897
 C619 C 0.83095 0.29456 0.28403
 C620 C 0.84482 0.31309 0.29941
 C621 C 0.86150 0.33503 0.31811
 C622 C 0.85597 0.36190 0.30597
 C623 C 0.87197 0.38318 0.32451
 C624 C 0.89359 0.37772 0.35527
 C625 C 0.89920 0.35085 0.36729
 C626 C 0.88321 0.32957 0.34876
 C627 C 0.90958 0.39970 0.37503
 C628 C 0.92261 0.41818 0.39186
 H629 H 0.83925 0.36639 0.28234
 H630 H 0.86737 0.40387 0.31501
 H631 H 0.91580 0.34636 0.39110
 H632 H 0.88768 0.30889 0.35843
 C633 C 0.32992 -0.20560 0.28452
 C634 C 0.34365 -0.18706 0.30013
 C635 C 0.36007 -0.16503 0.31909
 C636 C 0.39146 -0.16635 0.32277
 C637 C 0.40734 -0.14513 0.34167
 C638 C 0.39193 -0.12245 0.35703
 C639 C 0.36056 -0.12111 0.35325
 C640 C 0.34469 -0.14232 0.33435
 C641 C 0.40818 -0.10065 0.37690
 C642 C 0.42143 -0.08229 0.39374
 H643 H 0.40362 -0.18381 0.31116
 H644 H 0.43157 -0.14644 0.34442
 H645 H 0.34838 -0.10371 0.36501
 H646 H 0.32044 -0.14106 0.33176
 C647 C 0.32977 0.29375 -0.21574
 C648 C 0.34353 0.31241 -0.20048
 C649 C 0.36005 0.33455 -0.18194
 C650 C 0.34481 0.35758 -0.16757
 C651 C 0.36078 0.37888 -0.14904
 C652 C 0.39210 0.37731 -0.14473
 C653 C 0.40737 0.35431 -0.15920
 C654 C 0.39139 0.33300 -0.17775
 C655 C 0.40842 0.39916 -0.12507
 C656 C 0.42168 0.41757 -0.10832
 H657 H 0.32060 0.35903 -0.17056
 H658 H 0.34870 0.39652 -0.13794
 H659 H 0.43156 0.35281 -0.15603
 H660 H 0.40345 0.31530 -0.18866
 C661 C 1.16973 -0.20666 0.21581
 C662 C 1.15601 -0.18801 0.20039
 C663 C 1.13959 -0.16586 0.18165
 C664 C 1.15437 -0.14157 0.17171
 C665 C 1.13855 -0.12022 0.15298
 C666 C 1.10784 -0.12301 0.14404
 C667 C 1.09303 -0.14727 0.15410
 C668 C 1.10886 -0.16863 0.17284
 C669 C 1.09171 -0.10109 0.12420
 C670 C 1.07857 -0.08262 0.10736
 H671 H 1.17812 -0.13918 0.17830
 H672 H 1.15028 -0.10160 0.14533
 H673 H 1.06932 -0.14971 0.14732
 H674 H 1.09718 -0.18730 0.18031
 C675 C 1.16944 0.29430 0.71618
 C676 C 1.15556 0.31286 0.70076
 C677 C 1.13890 0.33488 0.68203
 C678 C 1.11132 0.32984 0.66228
 C679 C 1.09534 0.35112 0.64359
 C680 C 1.10683 0.37759 0.64455
 C681 C 1.13435 0.38264 0.66444
 C682 C 1.15033 0.36136 0.68312
 C683 C 1.09069 0.39948 0.62461
 C684 C 1.07754 0.41792 0.60768
 H685 H 1.10224 0.30946 0.66117
 H686 H 1.07413 0.34692 0.62826
 H687 H 1.14352 0.40299 0.66535
 H688 H 1.17163 0.36554 0.69824
 C689 C 0.66956 -0.20646 0.71632
 C690 C 0.65579 -0.18784 0.70089
 C691 C 0.63923 -0.16575 0.68216
 C692 C 0.61096 -0.17046 0.66417
 C693 C 0.59505 -0.14913 0.64550
 C694 C 0.60730 -0.12293 0.64469
 C695 C 0.63553 -0.11821 0.66281
 C696 C 0.65144 -0.13954 0.68148
 C697 C 0.59119 -0.10100 0.62481
 C698 C 0.57804 -0.08254 0.60793
 H699 H 0.60128 -0.19063 0.66444
 H700 H 0.57329 -0.15308 0.63155
 H701 H 0.64529 -0.09807 0.66235
 H702 H 0.67327 -0.13561 0.69522
 C703 C 0.66992 0.29470 0.21486
 C704 C 0.65608 0.31330 0.19954
 C705 C 0.63945 0.33534 0.18092
 C706 C 0.65364 0.36020 0.17288
 C707 C 0.63760 0.38144 0.15424
 C708 C 0.60728 0.37797 0.14350
 C709 C 0.59306 0.35314 0.15167
 C710 C 0.60910 0.33189 0.17032
 C711 C 0.59098 0.39975 0.12364
 C712 C 0.57771 0.41810 0.10673
 H713 H 0.67709 0.36312 0.18087
 H714 H 0.64887 0.40052 0.14803
 H715 H 0.56966 0.35017 0.14347
 H716 H 0.59789 0.31276 0.17632
 C717 C 0.83092 0.20560 0.21466
 C718 C 0.84481 0.18713 0.19920
 C719 C 0.86153 0.16529 0.18036
 C720 C 0.87177 0.16767 0.13908
 C721 C 0.88791 0.14648 0.12064
 C722 C 0.89395 0.12277 0.14339
 C723 C 0.88378 0.12041 0.18472
 C724 C 0.86763 0.14161 0.20316
 C725 C 0.91003 0.10072 0.12402
 C726 C 0.92311 0.08219 0.10744
 H727 H 0.86721 0.18586 0.12112
 H728 H 0.89557 0.14853 0.08865
 H729 H 0.88823 0.10216 0.20260
 H730 H 0.85985 0.13952 0.23510
 C731 C 0.82974 0.70580 0.71494
 C732 C 0.84356 0.68735 0.69926
 C733 C 0.86019 0.66550 0.68015
 C734 C 0.86966 0.66767 0.63848
 C735 C 0.88570 0.64649 0.61982
 C736 C 0.89241 0.62298 0.64269
 C737 C 0.88300 0.62082 0.68440
 C738 C 0.86695 0.64201 0.70308
 C739 C 0.90849 0.60095 0.62315
 C740 C 0.92162 0.58245 0.60652
 H741 H 0.86459 0.68570 0.62041
 H742 H 0.89278 0.64840 0.58754
 H743 H 0.88798 0.60274 0.70242
 H744 H 0.85978 0.64007 0.73531
 C745 C 0.33088 0.20592 0.71569
 C746 C 0.34474 0.18746 0.70010
 C747 C 0.36139 0.16560 0.68111
 C748 C 0.37123 0.16786 0.63961
 C749 C 0.38725 0.14664 0.62102
 C750 C 0.39358 0.12301 0.64380
 C751 C 0.38382 0.12076 0.68535
 C752 C 0.36778 0.14199 0.70394
 C753 C 0.40957 0.10093 0.62430
 C754 C 0.42259 0.08237 0.60766
 H755 H 0.36644 0.18599 0.62161
 H756 H 0.39459 0.14862 0.58887
 H757 H 0.38849 0.10259 0.70328
 H758 H 0.36032 0.13998 0.73604
 C759 C 0.32990 0.70572 0.21396
 C760 C 0.34366 0.68727 0.19820
 C761 C 0.36015 0.66540 0.17899
 C762 C 0.36101 0.66307 0.13535
 C763 C 0.37699 0.64188 0.11662
 C764 C 0.39225 0.62288 0.14139
 C765 C 0.39145 0.62522 0.18505
 C766 C 0.37546 0.64642 0.20379
 C767 C 0.40833 0.60082 0.12198
 C768 C 0.42144 0.58228 0.10544
 H769 H 0.34930 0.67761 0.11582
 H770 H 0.37738 0.64029 0.08285
 H771 H 0.40310 0.61064 0.20456
 H772 H 0.37500 0.64799 0.23755
   
