data_POSCAR
  _audit_creation_date              2014-09-24
  _audit_creation_method            'ToBaCCo'
  _symmetry_space_group_name_H-M    'P1'
  _symmetry_Int_Tables_number       1
  _symmetry_cell_setting            triclinic
  loop_
  _symmetry_equiv_pos_as_xyz
 x,y,z
_cell_length_a 38.2199
_cell_length_b 37.8488
_cell_length_c 8.6011
_cell_angle_alpha 89.714600
_cell_angle_beta 90.000200
_cell_angle_gamma 89.999800
loop_
  _atom_site_label
  _atom_site_type_symbol
  _atom_site_fract_x
  _atom_site_fract_y
  _atom_site_fract_z
C1 C 0.32241 0.28122 0.31348
 C2 C 0.34014 0.24914 0.32876
 C3 C 0.32263 0.21694 0.31316
 C4 C 0.28631 0.21653 0.28105
 C5 C 0.26804 0.24901 0.26526
 C6 C 0.28617 0.28151 0.28146
 C7 C 0.26759 0.31339 0.26552
 C8 C 0.23185 0.31339 0.23424
 C9 C 0.21335 0.28152 0.21784
 C10 C 0.23156 0.24902 0.23358
 C11 C 0.26775 0.18465 0.26462
 C12 C 0.23202 0.18465 0.23333
 C13 C 0.21338 0.21654 0.21733
 C14 C 0.17705 0.21694 0.18523
 C15 C 0.15946 0.24915 0.17008
 C16 C 0.17710 0.28123 0.18581
 H17 H 0.28056 0.33867 0.27706
 H18 H 0.21881 0.33867 0.22306
 H19 H 0.28078 0.15936 0.27579
 H20 H 0.21906 0.15936 0.22180
 H21 H 0.36799 0.24932 0.35406
 H22 H 0.13161 0.24932 0.14478
 C23 C 0.82242 0.28181 0.18614
 C24 C 0.84009 0.24973 0.17063
 C25 C 0.82253 0.21755 0.18589
 C26 C 0.78626 0.21710 0.21776
 C27 C 0.76801 0.24952 0.23383
 C28 C 0.78616 0.28205 0.21805
 C29 C 0.76759 0.31388 0.23430
 C30 C 0.73184 0.31379 0.26550
 C31 C 0.71333 0.28187 0.28147
 C32 C 0.73154 0.24942 0.26538
 C33 C 0.76779 0.18516 0.23366
 C34 C 0.73203 0.18505 0.26482
 C35 C 0.71337 0.21688 0.28116
 C36 C 0.67704 0.21718 0.31316
 C37 C 0.65944 0.24934 0.32868
 C38 C 0.67708 0.28148 0.31342
 H39 H 0.78058 0.33919 0.22308
 H40 H 0.71880 0.33904 0.27696
 H41 H 0.78086 0.15993 0.22220
 H42 H 0.71909 0.15971 0.27598
 H43 H 0.86793 0.24981 0.14546
 H44 H 0.63159 0.24944 0.35393
 C45 C 0.82319 0.78167 0.81453
 C46 C 0.84083 0.74954 0.82978
 C47 C 0.82323 0.71738 0.81427
 C48 C 0.78690 0.71708 0.78228
 C49 C 0.76873 0.74962 0.76652
 C50 C 0.78694 0.78207 0.78261
 C51 C 0.76843 0.81400 0.76667
 C52 C 0.73268 0.81409 0.73548
 C53 C 0.71411 0.78226 0.71921
 C54 C 0.73226 0.74972 0.73497
 C55 C 0.76824 0.68525 0.76592
 C56 C 0.73248 0.68537 0.73474
 C57 C 0.71401 0.71730 0.71885
 C58 C 0.67775 0.71776 0.68693
 C59 C 0.66018 0.74993 0.67170
 C60 C 0.67784 0.78201 0.68727
 H61 H 0.78147 0.83924 0.77814
 H62 H 0.71969 0.83939 0.72428
 H63 H 0.78118 0.65991 0.77707
 H64 H 0.71942 0.66014 0.72325
 H65 H 0.86868 0.74963 0.85499
 H66 H 0.63234 0.75001 0.64648
 C67 C 0.32183 0.78226 0.68727
 C68 C 0.33940 0.75014 0.67163
 C69 C 0.32175 0.71801 0.68687
 C70 C 0.28549 0.71766 0.71887
 C71 C 0.26732 0.75013 0.73510
 C72 C 0.28557 0.78260 0.71933
 C73 C 0.26710 0.81448 0.73569
 C74 C 0.23137 0.81451 0.76702
 C75 C 0.21270 0.78263 0.78306
 C76 C 0.23084 0.75013 0.76679
 C77 C 0.26694 0.68578 0.73474
 C78 C 0.23120 0.68574 0.76600
 C79 C 0.21261 0.71762 0.78251
 C80 C 0.17629 0.71796 0.81461
 C81 C 0.15872 0.75012 0.83036
 C82 C 0.17639 0.78229 0.81520
 H83 H 0.28017 0.83975 0.72448
 H84 H 0.21844 0.83982 0.77854
 H85 H 0.27994 0.66051 0.72315
 H86 H 0.21821 0.66043 0.77711
 H87 H 0.36723 0.75014 0.64635
 H88 H 0.13086 0.75012 0.85569
 O89 O 1.03498 0.03972 -0.09098
 O90 O 0.96703 -0.02741 -0.15874
 O91 O 0.96700 0.03969 -0.09085
 O92 O 1.03494 -0.02746 -0.15862
 O93 O 1.03496 -0.04002 0.09200
 O94 O 0.96702 0.02712 0.15976
 O95 O 0.96702 -0.03998 0.09187
 O96 O 1.03495 0.02717 0.15964
 Cu97 Cu 1.00100 0.00752 -0.14948
 Cu98 Cu 1.00100 -0.00779 0.15052
 C99 C 1.04640 0.04520 0.04549
 C100 C 0.95557 -0.04543 -0.04459
 C101 C 0.95554 0.04512 0.04559
 C102 C 1.04636 -0.04552 -0.04449
 O103 O 0.53356 0.45999 0.59165
 O104 O 0.46561 0.52711 0.65971
 O105 O 0.46561 0.45998 0.59169
 O106 O 0.53355 0.52710 0.65974
 O107 O 0.53357 0.53973 0.40919
 O108 O 0.46563 0.47261 0.34114
 O109 O 0.46559 0.53974 0.40915
 O110 O 0.53354 0.47262 0.34110
 Cu111 Cu 0.49958 0.49217 0.65041
 Cu112 Cu 0.49958 0.50756 0.35045
 C113 C 0.54499 0.45456 0.45516
 C114 C 0.45415 0.54515 0.54563
 C115 C 0.45418 0.45455 0.45520
 C116 C 0.54502 0.54514 0.54567
 O117 O -0.03393 0.54022 0.09018
 O118 O 0.03402 0.47295 0.15894
 O119 O 0.03406 0.54024 0.09034
 O120 O -0.03390 0.47299 0.15908
 O121 O -0.03391 0.46087 -0.09140
 O122 O 0.03403 0.52814 -0.16015
 O123 O 0.03405 0.46085 -0.09155
 O124 O -0.03391 0.52810 -0.16030
 Cu125 Cu 0.00007 0.50794 0.14923
 Cu126 Cu 0.00008 0.49315 -0.15046
 C127 C -0.04538 0.54590 -0.04631
 C128 C 0.04545 0.45511 0.04496
 C129 C 0.04548 0.54597 -0.04616
 C130 C -0.04536 0.45517 0.04510
 O131 O 0.53398 1.02805 0.33961
 O132 O 0.46601 0.96083 0.40887
 O133 O 0.46602 1.02804 0.33961
 O134 O 0.53399 0.96083 0.40886
 O135 O 0.53397 0.97305 0.65924
 O136 O 0.46600 1.04027 0.58999
 O137 O 0.46603 0.97306 0.65925
 O138 O 0.53400 1.04027 0.59000
 Cu139 Cu 0.50000 0.99309 0.34963
 Cu140 Cu 0.50000 1.00801 0.64922
 C141 C 0.54546 1.04589 0.45347
 C142 C 0.45456 0.95520 0.54541
 C143 C 0.45453 1.04588 0.45347
 C144 C 0.54543 0.95519 0.54540
 C145 C 1.11894 0.13000 0.12140
 C146 C 1.10676 0.10997 0.24750
 C147 C 1.08376 0.08179 0.22285
 C148 C 1.15810 0.18664 0.16581
 C149 C 1.08556 0.09328 -0.05462
 C150 C 1.10855 0.12137 -0.02966
 C151 C 1.14066 0.16047 0.14678
 C152 C 1.07257 0.07340 0.07152
 H153 H 1.11456 0.11651 0.36501
 H154 H 1.07422 0.06705 0.32240
 H155 H 1.07750 0.08752 -0.17252
 H156 H 1.11774 0.13677 -0.12806
 C157 C 0.61807 0.62947 0.62187
 C158 C 0.60755 0.62101 0.47081
 C159 C 0.58435 0.59308 0.44576
 C160 C 0.65763 0.68580 0.66652
 C161 C 0.58262 0.58145 0.72312
 C162 C 0.60582 0.60946 0.74788
 C163 C 0.64002 0.65976 0.64739
 C164 C 0.57131 0.57322 0.57180
 H165 H 0.61680 0.63640 0.37250
 H166 H 0.57621 0.58744 0.32787
 H167 H 0.57304 0.56671 0.82259
 H168 H 0.61371 0.61587 0.86538
 C169 C -0.11820 0.37048 0.12148
 C170 C -0.10774 0.37934 -0.02961
 C171 C -0.08464 0.40740 -0.05470
 C172 C -0.15756 0.31389 0.16598
 C173 C -0.08284 0.41836 0.22268
 C174 C -0.10596 0.39022 0.24748
 C175 C -0.14004 0.34004 0.14698
 C176 C -0.07160 0.42699 0.07133
 H177 H -0.11698 0.36417 -0.12792
 H178 H -0.07655 0.41335 -0.17262
 H179 H -0.07327 0.43288 0.32214
 H180 H -0.11380 0.38349 0.36501
 C181 C 0.38150 0.87072 0.62231
 C182 C 0.39201 0.87949 0.47118
 C183 C 0.41520 0.90746 0.44593
 C184 C 0.34194 0.81428 0.66705
 C185 C 0.41699 0.91852 0.72323
 C186 C 0.39379 0.89047 0.74819
 C187 C 0.35955 0.84037 0.64797
 C188 C 0.42827 0.92706 0.57183
 H189 H 0.38274 0.86430 0.37297
 H190 H 0.42332 0.91334 0.32798
 H191 H 0.42659 0.93307 0.82259
 H192 H 0.38591 0.88382 0.86575
 C193 C -0.11841 0.63044 -0.12244
 C194 C -0.10793 0.62158 0.02862
 C195 C -0.08476 0.59358 0.05362
 C196 C -0.15781 0.68703 -0.16667
 C197 C -0.08294 0.58267 -0.22380
 C198 C -0.10613 0.61076 -0.24850
 C199 C -0.14029 0.66086 -0.14782
 C200 C -0.07168 0.57404 -0.07247
 H201 H -0.11720 0.63672 0.12698
 H202 H -0.07666 0.58763 0.17152
 H203 H -0.07334 0.56818 -0.32330
 H204 H -0.11398 0.61749 -0.36601
 C205 C 0.38129 1.13021 0.37681
 C206 C 0.39182 1.12146 0.52791
 C207 C 0.41508 1.09354 0.55307
 C208 C 0.34169 1.18665 0.33230
 C209 C 0.41689 1.08250 0.27575
 C210 C 0.39361 1.11051 0.25088
 C211 C 0.35930 1.16054 0.35126
 C212 C 0.42819 1.07398 0.42711
 H213 H 0.38253 1.13661 0.62617
 H214 H 0.42322 1.08766 0.67100
 H215 H 0.42651 1.06799 0.17634
 H216 H 0.38572 1.11716 0.13334
 C217 C 1.11857 -0.13058 -0.12067
 C218 C 1.10826 -0.12191 0.03044
 C219 C 1.08539 -0.09371 0.05550
 C220 C 1.15750 -0.18737 -0.16526
 C221 C 1.08357 -0.08222 -0.22197
 C222 C 1.10645 -0.11050 -0.24672
 C223 C 1.14016 -0.16114 -0.14615
 C224 C 1.07246 -0.07379 -0.07060
 H225 H 1.11741 -0.13734 0.12880
 H226 H 1.07738 -0.08792 0.17342
 H227 H 1.07407 -0.06744 -0.32148
 H228 H 1.11420 -0.11707 -0.36426
 C229 C 0.61771 0.36997 0.37871
 C230 C 0.60551 0.39002 0.25275
 C231 C 0.58243 0.41813 0.27759
 C232 C 0.65704 0.31348 0.33391
 C233 C 0.58420 0.40651 0.55496
 C234 C 0.60726 0.37848 0.52982
 C235 C 0.63953 0.33958 0.35311
 C236 C 0.57120 0.42641 0.42896
 H237 H 0.61335 0.38357 0.13521
 H238 H 0.57289 0.43291 0.17815
 H239 H 0.57611 0.41219 0.67288
 H240 H 0.61648 0.36306 0.62809
 C241 C 0.88268 -0.12990 -0.12056
 C242 C 0.89317 -0.12139 0.03049
 C243 C 0.91630 -0.09341 0.05547
 C244 C 0.84325 -0.18633 -0.16510
 C245 C 0.91804 -0.08183 -0.22193
 C246 C 0.89490 -0.10989 -0.24662
 C247 C 0.86080 -0.16025 -0.14601
 C248 C 0.92931 -0.07354 -0.07063
 H249 H 0.88394 -0.13678 0.12884
 H250 H 0.92442 -0.08772 0.17335
 H251 H 0.92760 -0.06708 -0.32145
 H252 H 0.88703 -0.11634 -0.36412
 C253 C 0.38157 0.36986 0.37877
 C254 C 0.39197 0.37842 0.52989
 C255 C 0.41500 0.40648 0.55502
 C256 C 0.34237 0.31328 0.33399
 C257 C 0.41679 0.41806 0.27763
 C258 C 0.39376 0.38992 0.25279
 C259 C 0.35982 0.33943 0.35318
 C260 C 0.42799 0.42638 0.42900
 H261 H 0.38277 0.36299 0.62818
 H262 H 0.42306 0.41219 0.67295
 H263 H 0.42634 0.43283 0.17817
 H264 H 0.38595 0.38343 0.13524
 C265 C 0.11809 0.63089 -0.12227
 C266 C 0.10587 0.61117 -0.24837
 C267 C 0.08284 0.58295 -0.22368
 C268 C 0.15731 0.68761 -0.16638
 C269 C 0.08469 0.59378 0.05379
 C270 C 0.10771 0.62192 0.02880
 C271 C 0.13985 0.66140 -0.14759
 C272 C 0.07167 0.57422 -0.07233
 H273 H 0.11365 0.61797 -0.36589
 H274 H 0.07327 0.56844 -0.32321
 H275 H 0.07666 0.58776 0.17171
 H276 H 0.11693 0.63707 0.12720
 C277 C 0.61860 1.13031 0.37679
 C278 C 0.60628 1.11060 0.25085
 C279 C 0.58305 1.08256 0.27573
 C280 C 0.65806 1.18684 0.33228
 C281 C 0.58489 1.09356 0.55307
 C282 C 0.60811 1.12152 0.52790
 C283 C 0.64052 1.16069 0.35123
 C284 C 0.57178 1.07400 0.42711
 H285 H 0.61415 1.11729 0.13330
 H286 H 0.57343 1.06806 0.17632
 H287 H 0.57678 1.08766 0.67101
 H288 H 0.61739 1.13667 0.62617
 C289 C 0.11788 0.37004 0.12134
 C290 C 0.10570 0.38981 0.24737
 C291 C 0.08273 0.41808 0.22259
 C292 C 0.15706 0.31332 0.16571
 C293 C 0.08458 0.40720 -0.05485
 C294 C 0.10753 0.37902 -0.02977
 C295 C 0.13960 0.33951 0.14677
 C296 C 0.07160 0.42682 0.07121
 H297 H 0.11347 0.38301 0.36492
 H298 H 0.07319 0.43262 0.32207
 H299 H 0.07656 0.41323 -0.17279
 H300 H 0.11673 0.36383 -0.12812
 C301 C 0.61839 0.87062 0.62233
 C302 C 0.60611 0.89038 0.74821
 C303 C 0.58295 0.91847 0.72324
 C304 C 0.65782 0.81409 0.66707
 C305 C 0.58477 0.90743 0.44592
 C306 C 0.60792 0.87942 0.47119
 C307 C 0.64028 0.84022 0.64799
 C308 C 0.57170 0.92704 0.57183
 H309 H 0.61396 0.88369 0.86578
 H310 H 0.57335 0.93301 0.82261
 H311 H 0.57668 0.91334 0.32796
 H312 H 0.61718 0.86423 0.37296
 C313 C 0.88231 0.12932 0.12129
 C314 C 0.89460 0.10937 0.24740
 C315 C 0.91786 0.08141 0.22281
 C316 C 0.84267 0.18561 0.16562
 C317 C 0.91614 0.09298 -0.05459
 C318 C 0.89288 0.12086 -0.02971
 C319 C 0.86031 0.15958 0.14663
 C320 C 0.92920 0.07317 0.07156
 H321 H 0.88667 0.11579 0.36486
 H322 H 0.92745 0.06670 0.32237
 H323 H 0.92431 0.08733 -0.17244
 H324 H 0.88362 0.13621 -0.12810
 C325 C 0.38121 0.62957 0.62182
 C326 C 0.39169 0.62108 0.47074
 C327 C 0.41484 0.59311 0.44570
 C328 C 0.34178 0.68601 0.66645
 C329 C 0.41661 0.58152 0.72309
 C330 C 0.39345 0.60956 0.74784
 C331 C 0.35932 0.65992 0.64732
 C332 C 0.42788 0.57325 0.57176
 H333 H 0.38245 0.63647 0.37242
 H334 H 0.42295 0.58744 0.32780
 H335 H 0.42618 0.56678 0.82257
 H336 H 0.38559 0.61601 0.86535
   
