data_POSCAR
  _audit_creation_date              2014-09-24
  _audit_creation_method            'ToBaCCo'
  _symmetry_space_group_name_H-M    'P1'
  _symmetry_Int_Tables_number       1
  _symmetry_cell_setting            triclinic
  loop_
  _symmetry_equiv_pos_as_xyz
 x,y,z
_cell_length_a 27.8450
_cell_length_b 28.1763
_cell_length_c 26.2798
_cell_angle_alpha 88.516300
_cell_angle_beta 88.699900
_cell_angle_gamma 90.523500
loop_
  _atom_site_label
  _atom_site_type_symbol
  _atom_site_fract_x
  _atom_site_fract_y
  _atom_site_fract_z
N1 N 0.23683 0.23946 0.22406
 N2 N -0.20959 0.79126 0.22536
 N3 N -0.23248 0.23090 -0.24544
 N4 N 0.24544 0.74943 -0.24107
 N5 N 0.20204 1.20381 0.82635
 N6 N 0.76306 0.76684 0.77989
 N7 N 0.18804 0.80234 1.17938
 N8 N 0.78971 1.19712 1.19628
 O9 O 0.53132 0.93589 0.92889
 O10 O 0.45119 0.94795 1.09081
 O11 O 0.59783 0.98742 1.04365
 O12 O 0.37789 0.97634 0.95617
 O13 O 0.54323 0.94866 1.09130
 O14 O 0.44374 0.94409 0.92554
 O15 O 0.42961 0.93206 1.01505
 O16 O 0.59174 0.97936 0.95179
 C17 C 0.57548 0.94085 0.93493
 C18 C 0.42940 0.92157 1.06126
 C19 C 0.58627 0.95488 1.07645
 C20 C 0.39818 0.94848 0.92266
 O21 O 0.45690 1.03808 0.90104
 O22 O 0.54240 1.03853 1.10216
 O23 O 0.55202 1.07079 0.94817
 O24 O 0.39667 1.01231 1.04971
 O25 O 0.45367 1.04182 1.09404
 O26 O 0.54497 1.02220 0.89087
 O27 O 0.42114 1.05493 0.97090
 O28 O 0.56396 1.07760 1.03457
 Co29 Co 0.49435 0.98723 0.92016
 Co30 Co 0.49724 0.99467 1.08573
 Co31 Co 0.57060 1.02674 0.99423
 Co32 Co 0.42940 0.99418 0.99206
 O33 O 0.50030 1.00234 1.00215
 C34 C 0.43044 1.06544 0.92578
 C35 C 0.56172 1.07432 1.08148
 C36 C 0.55877 1.06209 0.90338
 C37 C 0.41045 1.04094 1.08237
 O38 O 0.03712 0.45784 0.09927
 O39 O 0.02092 0.54303 -0.10658
 O40 O 0.05212 0.42303 -0.02448
 O41 O 0.07343 0.56397 0.03846
 O42 O 0.03423 0.45606 -0.09522
 O43 O 0.03169 0.54624 0.10515
 O44 O 0.06876 0.55077 -0.04765
 O45 O 0.00873 0.40070 0.05475
 C46 C 0.03771 0.41521 0.08697
 C47 C 0.06147 0.55549 -0.09306
 C48 C 0.06207 0.43043 -0.07004
 C49 C 0.06828 0.56488 0.08510
 O50 O -0.05843 0.54500 0.09125
 O51 O -0.06048 0.44447 -0.07089
 O52 O -0.07279 0.43068 0.01899
 O53 O -0.02288 0.59125 -0.04867
 O54 O -0.06794 0.53209 -0.07041
 O55 O -0.05739 0.45394 0.09418
 O56 O -0.01826 0.59821 0.04321
 O57 O -0.02703 0.37998 -0.03872
 Co58 Co -0.01114 0.50020 0.08856
 Co59 Co -0.01644 0.49430 -0.07727
 Co60 Co -0.00969 0.43123 -0.00382
 Co61 Co 0.02316 0.57042 -0.00384
 O62 O -0.00209 0.50143 0.00488
 C63 C -0.05223 0.58717 0.07490
 C64 C -0.05512 0.39939 -0.07295
 C65 C -0.08333 0.43090 0.06525
 C66 C -0.06183 0.57582 -0.06612
 O67 O 1.10675 0.05079 0.45851
 O68 O 0.94089 0.06114 0.53496
 O69 O 0.95686 0.06694 0.44471
 O70 O 1.05369 0.01373 0.61214
 O71 O 0.89304 0.02577 0.46500
 O72 O 1.10112 0.04971 0.55456
 O73 O 0.96621 0.02565 0.60347
 O74 O 1.04025 0.08469 0.44462
 C75 C 1.08460 0.08623 0.44305
 C76 C 0.94538 0.06046 0.58220
 C77 C 0.91318 0.05833 0.43567
 C78 C 1.08553 0.04498 0.59979
 O79 O 1.10767 -0.04054 0.55487
 O80 O 0.93997 -0.05185 0.47213
 O81 O 1.06060 -0.00136 0.40302
 O82 O 0.96114 -0.06572 0.56586
 O83 O 0.90425 -0.02025 0.55374
 O84 O 1.10145 -0.04128 0.45951
 O85 O 1.04201 -0.07583 0.57535
 O86 O 0.97522 -0.02004 0.40659
 Co87 Co 1.09566 0.00443 0.50671
 Co88 Co 0.94350 0.00517 0.50212
 Co89 Co 1.00891 0.02992 0.43162
 Co90 Co 1.00624 -0.02316 0.58305
 O91 O 1.01646 0.00230 0.50803
 C92 C 1.08626 -0.07576 0.57357
 C93 C 0.95001 -0.05308 0.42592
 C94 C 1.08819 -0.03527 0.41459
 C95 C 0.91832 -0.05742 0.57442
 C96 C 1.16416 0.18149 0.34459
 C97 C 1.18792 0.15424 0.38116
 C98 C 1.16155 0.12607 0.41635
 C99 C 1.21290 0.22025 0.26665
 C100 C 1.08735 0.15490 0.38075
 C101 C 1.11388 0.18303 0.34543
 C102 C 1.19108 0.20341 0.30296
 C103 C 1.11106 0.12467 0.41513
 H104 H 1.22681 0.15284 0.38081
 H105 H 1.18075 0.10326 0.44257
 H106 H 1.04854 0.15437 0.37880
 H107 H 1.09519 0.20402 0.31713
 C108 C 0.87511 -0.14250 0.32468
 C109 C 0.86304 -0.14396 0.37676
 C110 C 0.88969 -0.11747 0.41078
 C111 C 0.81957 -0.18543 0.25908
 C112 C 0.94198 -0.08981 0.34099
 C113 C 0.91538 -0.11635 0.30713
 C114 C 0.84500 -0.16593 0.28893
 C115 C 0.92861 -0.08901 0.39294
 H116 H 0.83204 -0.16424 0.39082
 H117 H 0.87829 -0.11727 0.45045
 H118 H 0.97172 -0.06823 0.32607
 H119 H 0.92525 -0.11515 0.26700
 C120 C 0.86073 0.15472 0.67118
 C121 C 0.86298 0.16047 0.61816
 C122 C 0.89295 0.13164 0.58921
 C123 C 0.79895 0.20436 0.72545
 C124 C 0.92019 0.09257 0.66650
 C125 C 0.89015 0.12149 0.69538
 C126 C 0.82705 0.18175 0.70056
 C127 C 0.92096 0.09655 0.61303
 H128 H 0.84054 0.18628 0.59910
 H129 H 0.89264 0.13549 0.54810
 H130 H 0.94125 0.06584 0.68591
 H131 H 0.88885 0.11697 0.73646
 C132 C 1.16826 -0.17773 0.65632
 C133 C 1.19127 -0.14565 0.62223
 C134 C 1.16423 -0.11415 0.59308
 C135 C 1.21945 -0.22650 0.72233
 C136 C 1.09082 -0.14835 0.63024
 C137 C 1.11802 -0.17982 0.65949
 C138 C 1.19624 -0.20507 0.69139
 C139 C 1.11380 -0.11427 0.59787
 H140 H 1.23013 -0.14371 0.61962
 H141 H 1.18292 -0.08843 0.56830
 H142 H 1.05205 -0.14916 0.63477
 H143 H 1.09994 -0.20449 0.68600
 C144 C 0.31547 1.14132 1.15152
 C145 C 0.36252 1.13621 1.16813
 C146 C 0.39285 1.10299 1.14612
 C147 C 0.26197 1.20569 1.19692
 C148 C 0.32909 1.07898 1.09073
 C149 C 0.29865 1.11249 1.11291
 C150 C 0.28518 1.17618 1.17497
 C151 C 0.37665 1.07408 1.10701
 H152 H 0.37591 1.15817 1.19806
 H153 H 0.42923 1.10024 1.15956
 H154 H 0.31569 1.05746 1.06051
 H155 H 0.26223 1.11607 1.09981
 C156 C 0.31641 0.84379 0.84390
 C157 C 0.29268 0.87725 0.87376
 C158 C 0.31902 0.91202 0.89877
 C159 C 0.26864 0.78054 0.79082
 C160 C 0.39286 0.88027 0.86376
 C161 C 0.36655 0.84565 0.83889
 C162 C 0.28970 0.80887 0.81631
 C163 C 0.36947 0.91380 0.89413
 H164 H 0.25387 0.87654 0.87764
 H165 H 0.29995 0.93719 0.92200
 H166 H 0.43163 0.88054 0.85946
 H167 H 0.38540 0.82033 0.81558
 C168 C 0.69530 0.87165 1.14895
 C169 C 0.70834 0.90555 1.11105
 C170 C 0.67291 0.93208 1.08647
 C171 C 0.75941 0.82037 1.19843
 C172 C 0.61139 0.89027 1.13715
 C173 C 0.64675 0.86391 1.16155
 C174 C 0.73115 0.84450 1.17534
 C175 C 0.62400 0.92500 1.09961
 H176 H 0.74582 0.91173 1.10080
 H177 H 0.68382 0.95851 1.05775
 H178 H 0.57416 0.88383 1.14825
 H179 H 0.63618 0.83766 1.19064
 C180 C 0.65985 1.15154 0.81978
 C181 C 0.63516 1.16840 0.86244
 C182 C 0.60029 1.14007 0.88773
 C183 C 0.73068 1.20363 0.77733
 C184 C 0.61289 1.07820 0.82665
 C185 C 0.64802 1.10669 0.80134
 C186 C 0.69836 1.17977 0.79642
 C187 C 0.58945 1.09426 0.87081
 H188 H 0.64376 1.20300 0.87702
 H189 H 0.58293 1.15342 0.92171
 H190 H 0.60563 1.04295 0.81306
 H191 H 0.66683 1.09325 0.76826
 C192 C 0.14402 0.32271 0.14928
 C193 C 0.11211 0.30565 0.11348
 C194 C 0.07689 0.33549 0.09358
 C195 C 0.20635 0.26706 0.19502
 C196 C 0.10543 0.39933 0.14553
 C197 C 0.14053 0.36952 0.16528
 C198 C 0.17852 0.29185 0.17240
 C199 C 0.07317 0.38265 0.10952
 H200 H 0.11427 0.26930 0.10122
 H201 H 0.05281 0.32174 0.06561
 H202 H 0.10370 0.43551 0.15837
 H203 H 0.16477 0.38291 0.19335
 C204 C -0.15303 0.31292 -0.15533
 C205 C -0.11833 0.29169 -0.12471
 C206 C -0.08615 0.31980 -0.09826
 C207 C -0.20763 0.25920 -0.21224
 C208 C -0.12319 0.39070 -0.13297
 C209 C -0.15533 0.36250 -0.15943
 C210 C -0.18391 0.28382 -0.18523
 C211 C -0.08822 0.36962 -0.10214
 H212 H -0.11581 0.25337 -0.12169
 H213 H -0.05968 0.30250 -0.07482
 H214 H -0.12572 0.42896 -0.13665
 H215 H -0.18167 0.37936 -0.18346
 C216 C 0.16067 0.64744 -0.17483
 C217 C 0.17549 0.62075 -0.13262
 C218 C 0.14385 0.58840 -0.10824
 C219 C 0.21752 0.71439 -0.21644
 C220 C 0.08281 0.60736 -0.16966
 C221 C 0.11465 0.63995 -0.19405
 C222 C 0.19204 0.68372 -0.19706
 C223 C 0.09678 0.58224 -0.12567
 H224 H 0.21100 0.62599 -0.11756
 H225 H 0.15559 0.56953 -0.07437
 H226 H 0.04667 0.60367 -0.18353
 H227 H 0.10286 0.66037 -0.22688
 C228 C -0.13809 0.69545 0.14234
 C229 C -0.14862 0.64753 0.15277
 C230 C -0.12165 0.61235 0.12947
 C231 C -0.18490 0.75954 0.19524
 C232 C -0.07424 0.67290 0.08372
 C233 C -0.10130 0.70814 0.10726
 C234 C -0.16352 0.73106 0.17009
 C235 C -0.08359 0.62461 0.09535
 H236 H -0.17700 0.63733 0.17988
 H237 H -0.12994 0.57554 0.13915
 H238 H -0.04521 0.68347 0.05760
 H239 H -0.09283 0.74518 0.09899
 C240 C 1.14323 0.13484 0.71376
 C241 C 1.10579 0.10284 0.72647
 C242 C 1.08667 0.07383 0.68939
 C243 C 1.18278 0.18317 0.78735
 C244 C 1.14205 0.10916 0.62646
 C245 C 1.16114 0.13808 0.66362
 C246 C 1.16476 0.16229 0.75292
 C247 C 1.10485 0.07639 0.63901
 H248 H 1.09178 0.09986 0.76523
 H249 H 1.05794 0.04919 0.70028
 H250 H 1.15683 0.11212 0.58802
 H251 H 1.19026 0.16250 0.65338
 C252 C 0.83536 -0.14910 0.67663
 C253 C 0.88165 -0.16164 0.66069
 C254 C 0.90781 -0.13223 0.62641
 C255 C 0.78820 -0.20436 0.74451
 C256 C 0.84123 -0.07756 0.62272
 C257 C 0.81500 -0.10716 0.65725
 C258 C 0.80949 -0.17907 0.71351
 C259 C 0.88813 -0.08965 0.60737
 H260 H 0.89782 -0.19392 0.67528
 H261 H 0.94390 -0.14250 0.61542
 H262 H 0.82533 -0.04489 0.60890
 H263 H 0.77915 -0.09705 0.66930
 C264 C 1.14145 -0.12508 0.29697
 C265 C 1.15791 -0.13094 0.34663
 C266 C 1.14055 -0.10182 0.38516
 C267 C 1.17385 -0.17560 0.22035
 C268 C 1.09019 -0.06107 0.32428
 C269 C 1.10748 -0.09022 0.28598
 C270 C 1.15976 -0.15367 0.25648
 C271 C 1.10666 -0.06639 0.37427
 H272 H 1.18427 -0.15778 0.35551
 H273 H 1.15382 -0.10686 0.42332
 H274 H 1.06395 -0.03435 0.31468
 H275 H 1.09452 -0.08537 0.24764
 C276 C 0.84066 0.14282 0.32399
 C277 C 0.81699 0.10367 0.34756
 C278 C 0.83966 0.07691 0.38559
 C279 C 0.80568 0.18217 0.24042
 C280 C 0.90910 0.12930 0.37739
 C281 C 0.88641 0.15598 0.33964
 C282 C 0.82087 0.16576 0.27971
 C283 C 0.88638 0.08895 0.40001
 H284 H 0.78177 0.09281 0.33527
 H285 H 0.82149 0.04591 0.40226
 H286 H 0.94509 0.13952 0.38781
 H287 H 0.90529 0.18583 0.32135
 C288 C 0.15709 0.33123 -0.13682
 C289 C 0.16113 0.34195 -0.08538
 C290 C 0.13340 0.37790 -0.06440
 C291 C 0.18922 0.24767 -0.16505
 C292 C 0.10054 0.39559 -0.14729
 C293 C 0.12810 0.35925 -0.16818
 C294 C 0.17599 0.28696 -0.15434
 C295 C 0.10119 0.40362 -0.09468
 H296 H 0.18317 0.32034 -0.06064
 H297 H 0.13461 0.38320 -0.02376
 H298 H 0.07577 0.41457 -0.17144
 H299 H 0.12435 0.35103 -0.20794
 C300 C -0.16804 0.32093 0.13651
 C301 C -0.15333 0.35948 0.16488
 C302 C -0.12980 0.39808 0.14060
 C303 C -0.19670 0.23960 0.17983
 C304 C -0.13873 0.36114 0.05898
 C305 C -0.16234 0.32261 0.08337
 C306 C -0.18429 0.27762 0.16168
 C307 C -0.12032 0.39827 0.08769
 H308 H -0.15769 0.35860 0.20596
 H309 H -0.11609 0.42619 0.16375
 H310 H -0.13176 0.36010 0.01830
 H311 H -0.17371 0.29289 0.06105
 C312 C -0.15568 0.67500 -0.13961
 C313 C -0.11857 0.69134 -0.10937
 C314 C -0.08934 0.65901 -0.08360
 C315 C -0.20828 0.73576 -0.19263
 C316 C -0.13522 0.59368 -0.11682
 C317 C -0.16440 0.62612 -0.14260
 C318 C -0.18413 0.70826 -0.16842
 C319 C -0.09677 0.60977 -0.08778
 H320 H -0.11162 0.72906 -0.10651
 H321 H -0.06012 0.67258 -0.06148
 H322 H -0.14181 0.55606 -0.12097
 H323 H -0.19314 0.61302 -0.16571
 C324 C 0.14863 0.67008 0.15900
 C325 C 0.16702 0.65068 0.11422
 C326 C 0.14323 0.61288 0.09225
 C327 C 0.17582 0.75747 0.17738
 C328 C 0.08530 0.61069 0.16264
 C329 C 0.10896 0.64886 0.18435
 C330 C 0.16419 0.71671 0.17203
 C331 C 0.10076 0.59418 0.11497
 H332 H 0.19750 0.66717 0.09412
 H333 H 0.15599 0.60070 0.05563
 H334 H 0.05259 0.59699 0.18091
 H335 H 0.09418 0.66399 0.21873
 C336 C 0.33281 1.16295 0.86066
 C337 C 0.35919 1.13315 0.82884
 C338 C 0.39553 1.10472 0.84894
 C339 C 0.24701 1.19326 0.83488
 C340 C 0.38146 1.13859 0.93174
 C341 C 0.34553 1.16717 0.91154
 C342 C 0.28735 1.18140 0.84479
 C343 C 0.40508 1.10537 0.90123
 H344 H 0.34930 1.12921 0.78952
 H345 H 0.41289 1.07919 0.82469
 H346 H 0.38808 1.13983 0.97216
 H347 H 0.32514 1.18976 0.93664
 C348 C 0.31789 0.83479 1.12581
 C349 C 0.35379 0.85183 1.15703
 C350 C 0.39353 0.87595 1.13539
 C351 C 0.23222 0.81158 1.16378
 C352 C 0.36340 0.86240 1.05104
 C353 C 0.32373 0.83823 1.07280
 C354 C 0.27210 0.82078 1.14756
 C355 C 0.39731 0.88369 1.08231
 H356 H 0.34949 0.84937 1.19810
 H357 H 0.41917 0.89182 1.16043
 H358 H 0.36530 0.86779 1.01008
 H359 H 0.29599 0.82519 1.04834
 C360 C 0.65856 1.16034 1.16087
 C361 C 0.63460 1.12290 1.18689
 C362 C 0.59892 1.09742 1.16264
 C363 C 0.74469 1.18687 1.18807
 C364 C 0.60857 1.14948 1.08803
 C365 C 0.64395 1.17504 1.11246
 C366 C 0.70418 1.17625 1.17800
 C367 C 0.58769 1.10888 1.11190
 H368 H 0.64608 1.11100 1.22418
 H369 H 0.58330 1.06634 1.18194
 H370 H 0.60032 1.15927 1.04909
 H371 H 0.66266 1.20375 1.09191
 C372 C 0.67305 0.84300 0.86715
 C373 C 0.62349 0.83478 0.86537
 C374 C 0.59161 0.86525 0.88975
 C375 C 0.73233 0.79240 0.81085
 C376 C 0.65893 0.91121 0.91959
 C377 C 0.69074 0.88066 0.89517
 C378 C 0.70543 0.81498 0.83722
 C379 C 0.60898 0.90454 0.91602
 H380 H 0.60944 0.80573 0.84375
 H381 H 0.55338 0.85914 0.88629
 H382 H 0.67341 0.94103 0.93966
 H383 H 0.72905 0.88733 0.89678
   
