data_POSCAR
  _audit_creation_date              2014-09-24
  _audit_creation_method            'ToBaCCo'
  _symmetry_space_group_name_H-M    'P1'
  _symmetry_Int_Tables_number       1
  _symmetry_cell_setting            triclinic
  loop_
  _symmetry_equiv_pos_as_xyz
 x,y,z
_cell_length_a 30.2846
_cell_length_b 31.1988
_cell_length_c 39.4496
_cell_angle_alpha 90.003900
_cell_angle_beta 89.509300
_cell_angle_gamma 79.169700
loop_
  _atom_site_label
  _atom_site_type_symbol
  _atom_site_fract_x
  _atom_site_fract_y
  _atom_site_fract_z
C1 C 1.22640 0.21503 0.19983
 C2 C 1.24972 0.24822 0.18236
 C3 C 1.27216 0.27071 0.20355
 C4 C 1.26935 0.25782 0.24115
 C5 C 1.26346 0.18591 0.22010
 C6 C 1.28509 0.20793 0.24251
 C7 C 1.19650 0.24105 0.22730
 C8 C 1.21868 0.26342 0.24900
 H9 H 1.24823 0.25371 0.15523
 H10 H 1.28784 0.27608 0.25848
 H11 H 1.26691 0.15085 0.22127
 H12 H 1.16117 0.23990 0.23024
 C13 C 0.72347 -0.27517 0.20526
 C14 C 0.75087 -0.24805 0.18473
 C15 C 0.77597 -0.22538 0.20364
 C16 C 0.77114 -0.23169 0.24218
 C17 C 0.75771 -0.30396 0.22812
 C18 C 0.78274 -0.28147 0.24747
 C19 C 0.69569 -0.24294 0.23010
 C20 C 0.72030 -0.22058 0.24990
 H21 H 0.75054 -0.24717 0.15727
 H22 H 0.79186 -0.21327 0.25749
 H23 H 0.75761 -0.33819 0.23241
 H24 H 0.65989 -0.24095 0.23363
 C25 C 0.71940 0.22747 -0.29523
 C26 C 0.74338 0.25512 -0.31455
 C27 C 0.76899 0.27994 -0.29471
 C28 C 0.76430 0.27286 -0.25789
 C29 C 0.75324 0.20085 -0.27411
 C30 C 0.77832 0.22541 -0.25326
 C31 C 0.69164 0.25642 -0.27132
 C32 C 0.71575 0.28117 -0.24985
 H33 H 0.74061 0.25786 -0.34188
 H34 H 0.78439 0.29182 -0.24270
 H35 H 0.75202 0.16725 -0.26813
 H36 H 0.65570 0.25824 -0.26965
 C37 C 1.23251 -0.28231 -0.30245
 C38 C 1.25760 -0.24911 -0.31839
 C39 C 1.27790 -0.22667 -0.29569
 C40 C 1.27219 -0.24002 -0.25855
 C41 C 1.26861 -0.31155 -0.28148
 C42 C 1.28810 -0.28992 -0.25753
 C43 C 1.20059 -0.25634 -0.27627
 C44 C 1.22107 -0.23444 -0.25313
 H45 H 1.25977 -0.24387 -0.34544
 H46 H 1.28923 -0.22193 -0.24010
 H47 H 1.27624 -0.34670 -0.28377
 H48 H 1.16485 -0.25647 -0.27574
 C49 C 0.22103 0.22821 0.79332
 C50 C 0.24632 0.25059 0.81570
 C51 C 0.27411 0.27673 0.79919
 C52 C 0.27063 0.27584 0.76200
 C53 C 0.19444 0.26385 0.77092
 C54 C 0.22006 0.28815 0.75354
 C55 C 0.25587 0.20230 0.76879
 C56 C 0.28207 0.22694 0.75229
 H57 H 0.24185 0.24967 0.84295
 H58 H 0.29184 0.29573 0.74843
 H59 H 0.15907 0.26563 0.76583
 H60 H 0.25546 0.16897 0.76144
 C61 C 0.72587 0.71302 0.79455
 C62 C 0.74591 0.74224 0.81544
 C63 C 0.77084 0.76946 0.79707
 C64 C 0.77037 0.76208 0.76022
 C65 C 0.69854 0.74089 0.76994
 C66 C 0.72260 0.76840 0.75063
 C67 C 0.76260 0.68866 0.77423
 C68 C 0.78744 0.71521 0.75481
 H69 H 0.74562 0.74026 0.84287
 H70 H 0.78975 0.78294 0.74631
 H71 H 0.66335 0.74020 0.76634
 H72 H 0.76290 0.65510 0.76715
 C73 C 0.73258 0.21296 0.29435
 C74 C 0.75291 0.24414 0.31652
 C75 C 0.77358 0.27240 0.29908
 C76 C 0.77204 0.26700 0.26035
 C77 C 0.70147 0.24253 0.26992
 C78 C 0.72183 0.27082 0.25201
 C79 C 0.77147 0.19050 0.27147
 C80 C 0.79175 0.21866 0.25333
 H81 H 0.75167 0.24327 0.34397
 H82 H 0.78940 0.28974 0.24606
 H83 H 0.66674 0.23974 0.26617
 H84 H 0.77647 0.15633 0.26467
 C85 C 0.21294 0.73869 0.29679
 C86 C 0.24509 0.76116 0.31663
 C87 C 0.27096 0.78279 0.29717
 C88 C 0.26174 0.78061 0.25873
 C89 C 0.18554 0.77564 0.27576
 C90 C 0.21062 0.79651 0.25475
 C91 C 0.24282 0.71000 0.27085
 C92 C 0.26798 0.73152 0.25052
 H93 H 0.24731 0.75993 0.34403
 H94 H 0.28262 0.79853 0.24289
 H95 H 0.14935 0.78380 0.27606
 H96 H 0.24266 0.67547 0.26837
 O97 O 1.06989 0.01792 0.03297
 O98 O 0.92181 -0.01642 0.03947
 O99 O 0.96900 0.07671 0.03512
 O100 O 1.02471 -0.07632 0.03817
 O101 O 0.90751 0.05747 0.02174
 O102 O 1.08368 -0.05721 0.01865
 O103 O 0.94989 -0.07838 0.01951
 O104 O 1.04106 0.07773 0.01053
 C105 C 1.06274 0.05805 0.03421
 C106 C 0.93025 -0.05633 0.04337
 C107 C 0.92977 0.07487 0.04255
 C108 C 1.06395 -0.07193 0.04270
 O109 O 1.07131 -0.03472 -0.04860
 O110 O 0.91403 0.02920 -0.04522
 O111 O 1.00781 0.06858 -0.05147
 O112 O 0.97726 -0.07554 -0.04562
 O113 O 0.91354 -0.04251 -0.02684
 O114 O 1.07310 0.03759 -0.03538
 O115 O 1.05432 -0.09094 -0.02645
 O116 O 0.93304 0.08632 -0.02726
 Co117 Co 1.06700 -0.00838 -0.00775
 Co118 Co 0.92166 0.00625 -0.00299
 Co119 Co 0.98833 0.06957 -0.00807
 Co120 Co 1.00093 -0.07257 -0.00383
 O121 O 0.99448 -0.00133 -0.00569
 C122 C 1.07041 -0.07380 -0.05096
 C123 C 0.91636 0.06763 -0.05028
 C124 C 1.04870 0.05934 -0.05715
 C125 C 0.93604 -0.06547 -0.04938
 O126 O 1.07419 0.51694 0.53594
 O127 O 0.92672 0.48273 0.54574
 O128 O 0.97226 0.57736 0.53863
 O129 O 1.02906 0.42342 0.54267
 O130 O 0.91112 0.55629 0.52695
 O131 O 1.08762 0.44172 0.52178
 O132 O 0.95399 0.42054 0.52579
 O133 O 1.04420 0.57678 0.51374
 C134 C 1.06622 0.55711 0.53731
 C135 C 0.93465 0.44280 0.54972
 C136 C 0.93340 0.57502 0.54680
 C137 C 1.06866 0.42711 0.54624
 O138 O 1.07312 0.46393 0.45473
 O139 O 0.91572 0.52691 0.46052
 O140 O 1.01048 0.56735 0.45178
 O141 O 0.97922 0.42321 0.45975
 O142 O 0.91640 0.45573 0.48001
 O143 O 1.07575 0.53625 0.46784
 O144 O 1.05677 0.40781 0.47752
 O145 O 0.93559 0.58445 0.47678
 Co146 Co 1.07009 0.49041 0.49551
 Co147 Co 0.92493 0.50478 0.50291
 Co148 Co 0.99124 0.56881 0.49545
 Co149 Co 1.00411 0.42653 0.50113
 O150 O 0.99758 0.49764 0.49876
 C151 C 1.07258 0.42475 0.45276
 C152 C 0.91860 0.56497 0.45441
 C153 C 1.05142 0.55810 0.44613
 C154 C 0.93796 0.43390 0.45659
 O155 O 0.57883 0.04104 0.52521
 O156 O 0.41781 -0.04152 0.52802
 O157 O 0.43894 0.08710 0.52173
 O158 O 0.55798 -0.08827 0.52987
 O159 O 0.41912 0.03193 0.54350
 O160 O 0.57620 -0.02920 0.54599
 O161 O 0.48111 -0.07189 0.54774
 O162 O 0.51425 0.07217 0.54249
 C163 C 0.55522 0.06419 0.54683
 C164 C 0.44001 -0.06135 0.55172
 C165 C 0.42256 0.07052 0.54637
 C166 C 0.57515 -0.06776 0.55182
 O167 O 0.58881 -0.06171 0.48187
 O168 O 0.41062 0.05485 0.47599
 O169 O 0.54456 0.07397 0.47745
 O170 O 0.45522 -0.08106 0.48259
 O171 O 0.42491 -0.02042 0.46117
 O172 O 0.57413 0.01084 0.46027
 O173 O 0.53036 -0.08158 0.46373
 O174 O 0.47144 0.07133 0.45773
 Co175 Co 0.57176 -0.00899 0.50318
 Co176 Co 0.42578 0.00552 0.50228
 Co177 Co 0.49296 0.06855 0.50022
 Co178 Co 0.50557 -0.07314 0.50565
 O179 O 0.49899 -0.00207 0.50284
 C180 C 0.56988 -0.07840 0.45879
 C181 C 0.43160 0.06998 0.45282
 C182 C 0.56680 0.05052 0.45541
 C183 C 0.43465 -0.06054 0.45850
 O184 O 0.57567 0.54119 0.02661
 O185 O 0.41438 0.45959 0.02887
 O186 O 0.43574 0.58827 0.02367
 O187 O 0.55498 0.41227 0.02944
 O188 O 0.41517 0.53272 0.04423
 O189 O 0.57270 0.47104 0.04618
 O190 O 0.47789 0.42867 0.04831
 O191 O 0.51131 0.57235 0.04453
 C192 C 0.55236 0.56398 0.04862
 C193 C 0.43666 0.43898 0.05227
 C194 C 0.41839 0.57127 0.04763
 C195 C 0.57154 0.43254 0.05182
 O196 O 0.58508 0.43959 -0.01877
 O197 O 0.40749 0.55629 -0.02298
 O198 O 0.54142 0.57556 -0.02045
 O199 O 0.45127 0.42049 -0.01649
 O200 O 0.42160 0.48087 -0.03836
 O201 O 0.57019 0.51284 -0.03891
 O202 O 0.52580 0.42063 -0.03610
 O203 O 0.46833 0.57389 -0.04021
 Co204 Co 0.56825 0.49188 0.00368
 Co205 Co 0.42232 0.50664 0.00299
 Co206 Co 0.48983 0.56985 0.00219
 Co207 Co 0.50200 0.42804 0.00604
 O208 O 0.49556 0.49907 0.00378
 C209 C 0.56515 0.42374 -0.04177
 C210 C 0.42876 0.57202 -0.04566
 C211 C 0.56283 0.55265 -0.04316
 C212 C 0.43132 0.44074 -0.04090
 C213 C 1.15014 0.15168 0.12993
 C214 C 1.13442 0.19517 0.13968
 C215 C 1.15977 0.21539 0.16170
 C216 C 1.20015 0.19229 0.17509
 C217 C 1.21508 0.14901 0.16410
 N218 N 1.18991 0.13012 0.14236
 C219 C 1.12518 0.12859 0.10622
 N220 N 1.13363 0.08411 0.10595
 C221 C 1.11328 0.06065 0.08393
 C222 C 1.08290 0.08218 0.06009
 C223 C 1.07343 0.12792 0.06013
 C224 C 1.09453 0.15120 0.08296
 H225 H 1.14748 0.24912 0.16867
 H226 H 1.24684 0.13010 0.17203
 H227 H 1.12154 0.02536 0.08464
 H228 H 1.05033 0.14581 0.04202
 H229 H 1.10266 0.21347 0.13097
 H230 H 1.08777 0.18641 0.08143
 C231 C 1.15492 0.65256 0.63023
 C232 C 1.16094 0.69506 0.62278
 C233 C 1.18626 0.71587 0.64439
 C234 C 1.20702 0.69413 0.67292
 C235 C 1.19891 0.65201 0.67992
 N236 N 1.17400 0.63242 0.65849
 C237 C 1.12929 0.62872 0.60778
 N238 N 1.13973 0.58431 0.60679
 C239 C 1.11898 0.56039 0.58542
 C240 C 1.08604 0.58143 0.56319
 C241 C 1.07350 0.62698 0.56483
 C242 C 1.09484 0.65070 0.58715
 H243 H 1.18911 0.74918 0.63879
 H244 H 1.21142 0.63475 0.70265
 H245 H 1.12916 0.52523 0.58516
 H246 H 1.04756 0.64437 0.54854
 H247 H 1.14681 0.71209 0.60034
 H248 H 1.08433 0.68579 0.58811
 C249 C 0.64373 0.15842 0.64097
 C250 C 0.62807 0.20272 0.64787
 C251 C 0.65339 0.22521 0.66821
 C252 C 0.69389 0.20366 0.68293
 C253 C 0.70951 0.15973 0.67332
 N254 N 0.68431 0.13870 0.65317
 C255 C 0.61896 0.13325 0.61885
 N256 N 0.64259 0.09895 0.60111
 C257 C 0.62262 0.07542 0.57901
 C258 C 0.57614 0.08621 0.57362
 C259 C 0.55076 0.12024 0.59268
 C260 C 0.57204 0.14385 0.61533
 H261 H 0.64115 0.25972 0.67243
 H262 H 0.74192 0.14193 0.68111
 H263 H 0.64327 0.04897 0.56512
 H264 H 0.51472 0.12929 0.58946
 H265 H 0.59724 0.22028 0.63699
 H266 H 0.55193 0.17003 0.62979
 C267 C 0.64337 0.65623 0.14247
 C268 C 0.62770 0.70031 0.15042
 C269 C 0.65398 0.72246 0.17024
 C270 C 0.69542 0.70073 0.18298
 C271 C 0.71074 0.65718 0.17291
 N272 N 0.68466 0.63640 0.15335
 C273 C 0.61783 0.63144 0.12062
 N274 N 0.64093 0.59732 0.10241
 C275 C 0.62038 0.57420 0.08040
 C276 C 0.57381 0.58530 0.07554
 C277 C 0.54896 0.61909 0.09512
 C278 C 0.57083 0.64224 0.11773
 H279 H 0.64186 0.75672 0.17552
 H280 H 0.74355 0.63961 0.18004
 H281 H 0.64065 0.54791 0.06611
 H282 H 0.51288 0.62835 0.09233
 H283 H 0.59615 0.71797 0.14076
 H284 H 0.55110 0.66824 0.13257
 C285 C 0.85406 -0.14745 0.14897
 C286 C 0.83049 -0.13005 0.17833
 C287 C 0.80663 -0.15613 0.19753
 C288 C 0.80610 -0.19908 0.18736
 C289 C 0.83198 -0.21577 0.15904
 N290 N 0.85466 -0.18993 0.14083
 C291 C 0.87668 -0.12145 0.12518
 N292 N 0.90574 -0.14349 0.10184
 C293 C 0.92446 -0.12318 0.07658
 C294 C 0.91343 -0.07771 0.07306
 C295 C 0.88459 -0.05390 0.09732
 C296 C 0.86608 -0.07561 0.12341
 H297 H 0.78712 -0.14226 0.21936
 H298 H 0.83317 -0.24907 0.15080
 H299 H 0.94695 -0.14281 0.05871
 H300 H 0.87525 -0.01873 0.09551
 H301 H 0.82984 -0.09676 0.18624
 H302 H 0.84241 -0.05668 0.14084
 C303 C 0.85151 0.35375 0.65277
 C304 C 0.83631 0.36692 0.68565
 C305 C 0.81046 0.34169 0.70417
 C306 C 0.79846 0.30436 0.68943
 C307 C 0.81612 0.29199 0.65693
 N308 N 0.84157 0.31636 0.64002
 C309 C 0.87734 0.37852 0.63041
 N310 N 0.90306 0.35605 0.60540
 C311 C 0.92332 0.37589 0.58072
 C312 C 0.91709 0.42154 0.57931
 C313 C 0.89190 0.44565 0.60543
 C314 C 0.87206 0.42425 0.63113
 H315 H 0.79803 0.35283 0.72906
 H316 H 0.81079 0.26228 0.64488
 H317 H 0.94283 0.35587 0.56143
 H318 H 0.88644 0.48093 0.60542
 H319 H 0.84419 0.39618 0.69690
 H320 H 0.85110 0.44337 0.65015
 C321 C 0.34480 -0.13474 0.65660
 C322 C 0.29762 -0.12894 0.65558
 C323 C 0.27561 -0.15717 0.67358
 C324 C 0.30010 -0.19102 0.69282
 C325 C 0.34671 -0.19428 0.69510
 N326 N 0.36774 -0.16693 0.67666
 C327 C 0.37028 -0.11095 0.63300
 N328 N 0.41390 -0.12867 0.62544
 C329 C 0.43773 -0.11203 0.60093
 C330 C 0.41710 -0.07626 0.58149
 C331 C 0.37301 -0.05620 0.58986
 C332 C 0.34975 -0.07295 0.61583
 H333 H 0.23957 -0.15417 0.67096
 H334 H 0.36662 -0.22042 0.70950
 H335 H 0.47199 -0.12805 0.59558
 H336 H 0.35629 -0.02788 0.57598
 H337 H 0.27770 -0.10504 0.63937
 H338 H 0.31587 -0.05653 0.62167
 C339 C 0.33974 0.36154 0.15403
 C340 C 0.29301 0.36511 0.15057
 C341 C 0.27070 0.33718 0.16863
 C342 C 0.29441 0.30567 0.19033
 C343 C 0.34052 0.30444 0.19465
 N344 N 0.36193 0.33150 0.17615
 C345 C 0.36571 0.38599 0.13130
 N346 N 0.40978 0.36918 0.12444
 C347 C 0.43402 0.38689 0.10075
 C348 C 0.41345 0.42293 0.08150
 C349 C 0.36885 0.44201 0.08927
 C350 C 0.34513 0.42412 0.11434
 H351 H 0.23509 0.33883 0.16450
 H352 H 0.35991 0.28021 0.21100
 H353 H 0.46860 0.37153 0.09584
 H354 H 0.35201 0.47038 0.07551
 H355 H 0.27393 0.38720 0.13262
 H356 H 0.31082 0.43974 0.11974
 C357 C 0.84905 0.15877 -0.17164
 C358 C 0.84712 0.13730 -0.20261
 C359 C 0.82569 0.16009 -0.22997
 C360 C 0.80618 0.20464 -0.22711
 C361 C 0.81266 0.22587 -0.19649
 N362 N 0.83291 0.20253 -0.16977
 C363 C 0.86667 0.13443 -0.14082
 N364 N 0.88410 0.15556 -0.11545
 C365 C 0.89997 0.13505 -0.08633
 C366 C 0.89837 0.09076 -0.08136
 C367 C 0.88004 0.06856 -0.10696
 C368 C 0.86408 0.09021 -0.13656
 H369 H 0.82439 0.14243 -0.25346
 H370 H 0.79883 0.26004 -0.19258
 H371 H 0.91387 0.15335 -0.06715
 H372 H 0.87797 0.03445 -0.10409
 H373 H 0.86158 0.10308 -0.20576
 H374 H 0.84903 0.07253 -0.15550
 C375 C 0.85208 0.65214 0.33158
 C376 C 0.85455 0.63129 0.29992
 C377 C 0.83386 0.65376 0.27203
 C378 C 0.81081 0.69699 0.27548
 C379 C 0.81142 0.71752 0.30709
 N380 N 0.83149 0.69479 0.33404
 C381 C 0.86994 0.62853 0.36253
 N382 N 0.88403 0.65117 0.38852
 C383 C 0.89961 0.63165 0.41802
 C384 C 0.90093 0.58683 0.42282
 C385 C 0.88608 0.56297 0.39654
 C386 C 0.87062 0.58363 0.36641
 H387 H 0.83507 0.63701 0.24790
 H388 H 0.79400 0.75076 0.31093
 H389 H 0.91080 0.65119 0.43771
 H390 H 0.88651 0.52834 0.39924
 H391 H 0.87189 0.59789 0.29669
 H392 H 0.85841 0.56474 0.34677
 C393 C 0.34544 0.14702 0.33226
 C394 C 0.30874 0.13250 0.31783
 C395 C 0.28960 0.15210 0.28849
 C396 C 0.30723 0.18574 0.27282
 C397 C 0.34417 0.19920 0.28780
 N398 N 0.36231 0.17959 0.31667
 C399 C 0.36641 0.12723 0.36371
 N400 N 0.41049 0.12799 0.36955
 C401 C 0.43196 0.10985 0.39768
 C402 C 0.40876 0.08958 0.42208
 C403 C 0.36324 0.08888 0.41680
 C404 C 0.34192 0.10780 0.38782
 H405 H 0.26030 0.14136 0.27853
 H406 H 0.35859 0.22514 0.27658
 H407 H 0.46710 0.11134 0.40094
 H408 H 0.34405 0.07393 0.43512
 H409 H 0.29494 0.10603 0.32878
 H410 H 0.30648 0.10770 0.38478
 C411 C 0.34716 0.64762 -0.16804
 C412 C 0.31420 0.63024 -0.18519
 C413 C 0.29591 0.65007 -0.21473
 C414 C 0.31058 0.68700 -0.22770
 C415 C 0.34421 0.70295 -0.21019
 N416 N 0.36160 0.68301 -0.18125
 C417 C 0.36682 0.62800 -0.13620
 N418 N 0.40945 0.63191 -0.12813
 C419 C 0.42977 0.61432 -0.09944
 C420 C 0.40675 0.59142 -0.07673
 C421 C 0.36259 0.58750 -0.08427
 C422 C 0.34247 0.60579 -0.11389
 H423 H 0.26931 0.63703 -0.22682
 H424 H 0.35656 0.73122 -0.21939
 H425 H 0.46386 0.61830 -0.09444
 H426 H 0.34364 0.57032 -0.06731
 H427 H 0.30264 0.60152 -0.17610
 H428 H 0.30803 0.60308 -0.11885
 C429 C 1.15343 -0.17041 -0.16625
 C430 C 1.14016 -0.20790 -0.17917
 C431 C 1.16208 -0.22859 -0.20759
 C432 C 1.19700 -0.21200 -0.22341
 C433 C 1.20905 -0.17430 -0.20991
 N434 N 1.18711 -0.15461 -0.18218
 C435 C 1.13121 -0.14689 -0.13628
 N436 N 1.13301 -0.10391 -0.13241
 C437 C 1.11369 -0.08004 -0.10557
 C438 C 1.09115 -0.09950 -0.08032
 C439 C 1.08911 -0.14381 -0.08357
 C440 C 1.10914 -0.16765 -0.11143
 H441 H 1.15203 -0.25795 -0.21686
 H442 H 1.23543 -0.16016 -0.22158
 H443 H 1.11617 -0.04593 -0.10395
 H444 H 1.07221 -0.16005 -0.06454
 H445 H 1.11281 -0.22095 -0.16793
 H446 H 1.10799 -0.20202 -0.11294
 C447 C 1.15605 0.32663 0.33808
 C448 C 1.14354 0.28815 0.32642
 C449 C 1.16415 0.26755 0.29753
 C450 C 1.19700 0.28519 0.27988
 C451 C 1.20875 0.32355 0.29235
 N452 N 1.18803 0.34322 0.32058
 C453 C 1.13436 0.35046 0.36816
 N454 N 1.13443 0.39392 0.37098
 C455 C 1.11484 0.41817 0.39759
 C456 C 1.09367 0.39866 0.42364
 C457 C 1.09354 0.35385 0.42151
 C458 C 1.11393 0.32962 0.39394
 H459 H 1.15452 0.23757 0.28920
 H460 H 1.23370 0.33835 0.27936
 H461 H 1.11591 0.45264 0.39835
 H462 H 1.07788 0.33751 0.44120
 H463 H 1.11753 0.27435 0.33890
 H464 H 1.11420 0.29493 0.39332
 C465 C 0.66265 -0.15279 0.33882
 C466 C 0.69831 -0.13832 0.32202
 C467 C 0.71733 -0.16029 0.29288
 C468 C 0.70072 -0.19627 0.28048
 C469 C 0.66545 -0.20980 0.29839
 N470 N 0.64753 -0.18793 0.32641
 C471 C 0.63995 -0.13126 0.36933
 N472 N 0.59757 -0.13748 0.37659
 C473 C 0.57455 -0.12068 0.40471
 C474 C 0.59453 -0.09646 0.42800
 C475 C 0.63822 -0.08953 0.42116
 C476 C 0.66104 -0.10677 0.39182
 H477 H 0.74437 -0.14873 0.27979
 H478 H 0.65241 -0.23821 0.29064
 H479 H 0.54089 -0.12671 0.40895
 H480 H 0.65476 -0.07089 0.43851
 H481 H 0.71081 -0.11000 0.33071
 H482 H 0.69504 -0.10188 0.38742
 C483 C 0.65277 0.34720 -0.16321
 C484 C 0.63385 0.31516 -0.17927
 C485 C 0.65471 0.29381 -0.20754
 C486 C 0.69521 0.30356 -0.22063
 C487 C 0.71417 0.33487 -0.20277
 N488 N 0.69269 0.35569 -0.17504
 C489 C 0.62990 0.37053 -0.13324
 N490 N 0.65434 0.38327 -0.10753
 C491 C 0.63459 0.40135 -0.07834
 C492 C 0.58778 0.40658 -0.07368
 C493 C 0.56207 0.39520 -0.10039
 C494 C 0.58282 0.37769 -0.13016
 H495 H 0.63935 0.26811 -0.21772
 H496 H 0.74511 0.34405 -0.21122
 H497 H 0.65548 0.41056 -0.05851
 H498 H 0.52579 0.39970 -0.09827
 H499 H 0.60357 0.30559 -0.16962
 H500 H 0.56202 0.36956 -0.15046
 C501 C 1.13820 0.15270 -0.15167
 C502 C 1.12257 0.19739 -0.15699
 C503 C 1.14952 0.22162 -0.17450
 C504 C 1.19168 0.20148 -0.18760
 C505 C 1.20665 0.15695 -0.18053
 N506 N 1.17994 0.13413 -0.16305
 C507 C 1.11263 0.12619 -0.13105
 N508 N 1.13585 0.09138 -0.11396
 C509 C 1.11553 0.06778 -0.09191
 C510 C 1.06918 0.07936 -0.08557
 C511 C 1.04406 0.11344 -0.10439
 C512 C 1.06566 0.13692 -0.12722
 H513 H 1.13750 0.25633 -0.17745
 H514 H 1.23979 0.14027 -0.18815
 H515 H 1.13596 0.04117 -0.07832
 H516 H 1.00811 0.12308 -0.10047
 H517 H 1.09067 0.21398 -0.14674
 H518 H 1.04584 0.16351 -0.14117
 C519 C 1.14362 0.65436 0.35563
 C520 C 1.18987 0.65277 0.35979
 C521 C 1.21140 0.68081 0.34117
 C522 C 1.18722 0.71125 0.31869
 C523 C 1.14076 0.71185 0.31547
 N524 N 1.12054 0.68404 0.33390
 C525 C 1.11906 0.62582 0.37529
 N526 N 1.07447 0.63967 0.38218
 C527 C 1.05085 0.61682 0.40263
 C528 C 1.07264 0.57820 0.41809
 C529 C 1.11774 0.56203 0.40964
 C530 C 1.14094 0.58549 0.38810
 H531 H 1.24731 0.67847 0.34409
 H532 H 1.12022 0.73320 0.29797
 H533 H 1.01595 0.63017 0.40835
 H534 H 1.13554 0.53194 0.42064
 H535 H 1.20938 0.63062 0.37752
 H536 H 1.17580 0.57240 0.38216
 C537 C 0.66109 0.13349 0.35596
 C538 C 0.70204 0.11395 0.34077
 C539 C 0.72551 0.13908 0.32068
 C540 C 0.70818 0.18364 0.31533
 C541 C 0.66766 0.20193 0.33171
 N542 N 0.64556 0.17685 0.35116
 C543 C 0.63557 0.10981 0.37920
 N544 N 0.60437 0.13388 0.40001
 C545 C 0.58085 0.11548 0.42348
 C546 C 0.58856 0.07005 0.42736
 C547 C 0.61924 0.04428 0.40538
 C548 C 0.64273 0.06400 0.38116
 H549 H 0.75764 0.12350 0.31033
 H550 H 0.65369 0.23635 0.32926
 H551 H 0.55703 0.13652 0.43963
 H552 H 0.62572 0.00904 0.40735
 H553 H 0.71684 0.08011 0.34504
 H554 H 0.66613 0.04342 0.36449
 C555 C 0.65413 0.63725 -0.14320
 C556 C 0.69783 0.61929 -0.15403
 C557 C 0.72145 0.64387 -0.17430
 C558 C 0.70141 0.68627 -0.18503
 C559 C 0.65818 0.70356 -0.17195
 N560 N 0.63607 0.67899 -0.15193
 C561 C 0.62870 0.61362 -0.11997
 N562 N 0.59721 0.63728 -0.09917
 C563 C 0.57451 0.61829 -0.07548
 C564 C 0.58348 0.57282 -0.07143
 C565 C 0.61429 0.54755 -0.09357
 C566 C 0.63691 0.56782 -0.11795
 H567 H 0.75588 0.62964 -0.18069
 H568 H 0.64209 0.73686 -0.17721
 H569 H 0.55040 0.63887 -0.05924
 H570 H 0.62167 0.51231 -0.09152
 H571 H 0.71454 0.58726 -0.14591
 H572 H 0.66063 0.54776 -0.13475
 C573 C 0.84344 -0.15014 -0.14843
 C574 C 0.85778 -0.16372 -0.18132
 C575 C 0.83304 -0.18901 -0.20018
 C576 C 0.79449 -0.20169 -0.18609
 C577 C 0.78081 -0.18579 -0.15344
 N578 N 0.80507 -0.16095 -0.13596
 C579 C 0.86864 -0.12518 -0.12613
 N580 N 0.84562 -0.10013 -0.10113
 C581 C 0.86630 -0.07943 -0.07743
 C582 C 0.91332 -0.08441 -0.07726
 C583 C 0.93789 -0.10947 -0.10314
 C584 C 0.91569 -0.12975 -0.12771
 H585 H 0.84590 -0.20038 -0.22488
 H586 H 0.75034 -0.19228 -0.14174
 H587 H 0.84598 -0.06031 -0.05808
 H588 H 0.97425 -0.11417 -0.10393
 H589 H 0.88776 -0.15513 -0.19236
 H590 H 0.93532 -0.15023 -0.14666
 C591 C 0.83963 0.35731 0.35652
 C592 C 0.79481 0.35457 0.36402
 C593 C 0.77282 0.32830 0.34426
 C594 C 0.79503 0.30479 0.31684
 C595 C 0.83918 0.30953 0.30923
 N596 N 0.86042 0.33474 0.32936
 C597 C 0.86544 0.38105 0.37942
 N598 N 0.91042 0.36634 0.38342
 C599 C 0.93490 0.38384 0.40676
 C600 C 0.91381 0.41754 0.42831
 C601 C 0.86804 0.43447 0.42346
 C602 C 0.84390 0.41662 0.39899
 H603 H 0.73874 0.32541 0.35094
 H604 H 0.85746 0.29152 0.28841
 H605 H 0.97034 0.37030 0.40934
 H606 H 0.85065 0.46112 0.43897
 H607 H 0.77739 0.37074 0.38590
 H608 H 0.80860 0.43025 0.39587
 C609 C 0.35966 -0.15418 0.35408
 C610 C 0.36201 -0.19948 0.35691
 C611 C 0.33516 -0.22025 0.33649
 C612 C 0.30581 -0.19643 0.31305
 C613 C 0.30584 -0.15171 0.30960
 N614 N 0.33184 -0.13182 0.33032
 C615 C 0.38308 -0.12985 0.37861
 N616 N 0.36709 -0.08651 0.38402
 C617 C 0.38404 -0.06324 0.40836
 C618 C 0.41849 -0.08389 0.42972
 C619 C 0.43661 -0.12800 0.42376
 C620 C 0.41951 -0.15087 0.39812
 H621 H 0.33577 -0.25479 0.34006
 H622 H 0.28324 -0.13221 0.29202
 H623 H 0.36950 -0.02906 0.41179
 H624 H 0.46389 -0.14494 0.43912
 H625 H 0.38221 -0.21870 0.37593
 H626 H 0.43469 -0.18470 0.39406
 C627 C 0.35469 0.34447 -0.14166
 C628 C 0.34289 0.30597 -0.12962
 C629 C 0.31714 0.28360 -0.14950
 C630 C 0.30267 0.29888 -0.18193
 C631 C 0.31667 0.33700 -0.19364
 N632 N 0.34114 0.35902 -0.17320
 C633 C 0.37954 0.36981 -0.11930
 N634 N 0.36720 0.41407 -0.11719
 C635 C 0.38474 0.43788 -0.09349
 C636 C 0.41572 0.41689 -0.06961
 C637 C 0.43043 0.37168 -0.07260
 C638 C 0.41268 0.34818 -0.09738
 H639 H 0.30963 0.25357 -0.13932
 H640 H 0.30626 0.35073 -0.21810
 H641 H 0.37310 0.47285 -0.09243
 H642 H 0.45496 0.35425 -0.05524
 H643 H 0.35244 0.29366 -0.10455
 H644 H 0.42392 0.31316 -0.09877
 C645 C 1.15281 -0.13622 0.16608
 C646 C 1.19141 -0.12455 0.18025
 C647 C 1.21002 -0.14569 0.20965
 C648 C 1.19014 -0.17806 0.22500
 C649 C 1.15143 -0.18829 0.20999
 N650 N 1.13418 -0.16746 0.18160
 C651 C 1.13113 -0.11662 0.13471
 N652 N 1.08833 -0.12190 0.12842
 C653 C 1.06624 -0.10752 0.09960
 C654 C 1.08760 -0.08686 0.07445
 C655 C 1.13165 -0.08065 0.08032
 C656 C 1.15357 -0.09545 0.11039
 H657 H 1.23972 -0.13659 0.22038
 H658 H 1.13544 -0.21387 0.21998
 H659 H 1.03222 -0.11280 0.09625
 H660 H 1.14927 -0.06467 0.06158
 H661 H 1.20694 -0.09931 0.16914
 H662 H 1.18789 -0.09133 0.11390
 C663 C 1.16454 0.35542 0.66449
 C664 C 1.19698 0.37247 0.68288
 C665 C 1.21595 0.35044 0.71188
 C666 C 1.20247 0.31185 0.72236
 C667 C 1.17140 0.29527 0.70226
 N668 N 1.15322 0.31737 0.67471
 C669 C 1.14063 0.37733 0.63491
 N670 N 1.09901 0.36910 0.62811
 C671 C 1.07522 0.38538 0.60051
 C672 C 1.09370 0.41092 0.57708
 C673 C 1.13651 0.42020 0.58354
 C674 C 1.16003 0.40366 0.61256
 H675 H 1.24015 0.36400 0.72651
 H676 H 1.16140 0.26462 0.70826
 H677 H 1.04231 0.37751 0.59658
 H678 H 1.15186 0.43995 0.56606
 H679 H 1.20656 0.40292 0.67564
 H680 H 1.19339 0.41024 0.61678
 C681 C 0.66353 -0.15595 0.66786
 C682 C 0.70243 -0.14615 0.68267
 C683 C 0.72202 -0.17083 0.71011
 C684 C 0.70302 -0.20542 0.72320
 C685 C 0.66386 -0.21379 0.70730
 N686 N 0.64587 -0.18958 0.68050
 C687 C 0.64156 -0.13194 0.63826
 N688 N 0.61590 -0.15228 0.61775
 C689 C 0.59434 -0.13255 0.59019
 C690 C 0.59766 -0.08954 0.58202
 C691 C 0.62327 -0.06762 0.60312
 C692 C 0.64528 -0.08865 0.63118
 H693 H 0.75119 -0.16149 0.72137
 H694 H 0.64818 -0.24067 0.71480
 H695 H 0.57460 -0.15048 0.57477
 H696 H 0.62643 -0.03424 0.59789
 H697 H 0.71817 -0.12022 0.67300
 H698 H 0.66420 -0.07081 0.64733
 C699 C 0.65827 0.34635 0.16922
 C700 C 0.69022 0.36258 0.18872
 C701 C 0.71055 0.33825 0.21604
 C702 C 0.69930 0.29785 0.22398
 C703 C 0.66759 0.28262 0.20366
 N704 N 0.64834 0.30680 0.17722
 C705 C 0.63587 0.36997 0.13956
 N706 N 0.61641 0.34727 0.11627
 C707 C 0.59535 0.36637 0.08828
 C708 C 0.59305 0.41104 0.08243
 C709 C 0.61212 0.43526 0.10639
 C710 C 0.63335 0.41500 0.13495
 H711 H 0.73491 0.35113 0.23096
 H712 H 0.65880 0.25106 0.20817
 H713 H 0.58074 0.34660 0.07058
 H714 H 0.61061 0.46998 0.10310
 H715 H 0.70032 0.39317 0.18280
 H716 H 0.64689 0.43476 0.15322
 C717 C 0.85497 0.16499 0.16235
 C718 C 0.82258 0.20346 0.16093
 C719 C 0.80419 0.22288 0.19095
 C720 C 0.81748 0.20359 0.22224
 C721 C 0.85130 0.16610 0.22262
 N722 N 0.86909 0.14797 0.19303
 C723 C 0.87306 0.14195 0.13124
 N724 N 0.91766 0.12450 0.12917
 C725 C 0.93624 0.10274 0.10115
 C726 C 0.90924 0.09677 0.07344
 C727 C 0.86300 0.11342 0.07540
 C728 C 0.84484 0.13646 0.10416
 H729 H 0.77799 0.25163 0.18954
 H730 H 0.86244 0.15048 0.24636
 H731 H 0.97206 0.09000 0.10059
 H732 H 0.84119 0.10940 0.05449
 H733 H 0.81122 0.21800 0.13686
 H734 H 0.80907 0.14930 0.10546
 C735 C 0.85995 0.65737 0.66982
 C736 C 0.85516 0.63196 0.69822
 C737 C 0.83415 0.65176 0.72718
 C738 C 0.81622 0.69693 0.72781
 C739 C 0.82503 0.72160 0.69932
 N740 N 0.84595 0.70136 0.67136
 C741 C 0.87782 0.63653 0.63791
 N742 N 0.91223 0.65042 0.62155
 C743 C 0.93039 0.63131 0.59237
 C744 C 0.91311 0.59684 0.57782
 C745 C 0.87688 0.58291 0.59385
 C746 C 0.85954 0.60231 0.62417
 H747 H 0.83157 0.63114 0.74887
 H748 H 0.81286 0.75633 0.69782
 H749 H 0.95815 0.64314 0.58050
 H750 H 0.86259 0.55659 0.58328
 H751 H 0.86715 0.59699 0.69784
 H752 H 0.83183 0.59105 0.63665
 C753 C 0.35442 0.16931 0.66511
 C754 C 0.33485 0.21392 0.66459
 C755 C 0.31323 0.23357 0.69366
 C756 C 0.31107 0.20896 0.72318
 C757 C 0.33290 0.16505 0.72306
 N758 N 0.35310 0.14653 0.69439
 C759 C 0.37321 0.14527 0.63427
 N760 N 0.37351 0.10160 0.63252
 C761 C 0.38891 0.07719 0.60484
 C762 C 0.40546 0.09667 0.57660
 C763 C 0.40632 0.14148 0.57804
 C764 C 0.39021 0.16589 0.60675
 H765 H 0.29617 0.26727 0.69237
 H766 H 0.33262 0.14502 0.74543
 H767 H 0.38821 0.04263 0.60497
 H768 H 0.41945 0.15766 0.55699
 H769 H 0.33407 0.23300 0.64164
 H770 H 0.39167 0.20025 0.60742
 C771 C 0.33921 0.66887 0.16396
 C772 C 0.35510 0.70330 0.17989
 C773 C 0.33201 0.72393 0.20817
 C774 C 0.29334 0.71029 0.22061
 C775 C 0.27855 0.67602 0.20363
 N776 N 0.30159 0.65645 0.17643
 C777 C 0.36196 0.64474 0.13437
 N778 N 0.35476 0.60361 0.12840
 C779 C 0.37276 0.57953 0.10125
 C780 C 0.39930 0.59698 0.07759
 C781 C 0.40724 0.63934 0.08310
 C782 C 0.38877 0.66330 0.11148
 H783 H 0.34494 0.74986 0.22062
 H784 H 0.24827 0.66501 0.21150
 H785 H 0.36581 0.54700 0.09801
 H786 H 0.42761 0.65398 0.06544
 H787 H 0.38542 0.71362 0.17123
 H788 H 0.39453 0.69621 0.11481
   
