data_POSCAR
  _audit_creation_date              2014-09-24
  _audit_creation_method            'ToBaCCo'
  _symmetry_space_group_name_H-M    'P1'
  _symmetry_Int_Tables_number       1
  _symmetry_cell_setting            triclinic
  loop_
  _symmetry_equiv_pos_as_xyz
 x,y,z
_cell_length_a 53.5118
_cell_length_b 53.4108
_cell_length_c 55.0996
_cell_angle_alpha 89.810500
_cell_angle_beta 89.860800
_cell_angle_gamma 88.168900
loop_
  _atom_site_label
  _atom_site_type_symbol
  _atom_site_fract_x
  _atom_site_fract_y
  _atom_site_fract_z
C1 C -0.05406 0.31034 -0.02228
 C2 C -0.06623 0.31096 0.00036
 C3 C -0.05315 0.30914 0.02242
 C4 C -0.02653 0.30861 0.02183
 C5 C -0.01374 0.30837 -0.00080
 C6 C -0.02746 0.30986 -0.02281
 C7 C -0.01418 0.31320 -0.04461
 C8 C 0.01177 0.31195 -0.04521
 C9 C 0.02582 0.30757 -0.02401
 C10 C 0.01295 0.30748 -0.00142
 C11 C -0.01233 0.31050 0.04321
 C12 C 0.01362 0.30956 0.04262
 C13 C 0.02666 0.30732 0.02057
 C14 C 0.05309 0.30623 0.01992
 C15 C 0.06547 0.30569 -0.00244
 C16 C 0.05246 0.30566 -0.02458
 H17 H -0.02369 0.31759 -0.06145
 H18 H 0.02067 0.31539 -0.06249
 H19 H -0.02109 0.31350 0.06070
 H20 H 0.02335 0.31125 0.05969
 H21 H -0.08644 0.31004 0.00076
 H22 H 0.08571 0.30363 -0.00240
 C23 C 0.43415 0.80858 0.48062
 C24 C 0.42218 0.80817 0.50321
 C25 C 0.43572 0.80804 0.52491
 C26 C 0.46213 0.80907 0.52412
 C27 C 0.47458 0.80926 0.50137
 C28 C 0.46056 0.80935 0.47954
 C29 C 0.47331 0.81072 0.45726
 C30 C 0.49929 0.81053 0.45634
 C31 C 0.51361 0.80910 0.47768
 C32 C 0.50114 0.80923 0.50044
 C33 C 0.47637 0.81043 0.54545
 C34 C 0.50235 0.81056 0.54454
 C35 C 0.51517 0.80925 0.52226
 C36 C 0.54162 0.80850 0.52117
 C37 C 0.55361 0.80814 0.49858
 C38 C 0.54007 0.80809 0.47689
 H39 H 0.46332 0.81213 0.44024
 H40 H 0.50802 0.81177 0.43867
 H41 H 0.46757 0.81168 0.56312
 H42 H 0.51226 0.81187 0.56155
 H43 H 0.40200 0.80686 0.50390
 H44 H 0.57387 0.80690 0.49787
 C45 C 0.93917 0.70313 0.01908
 C46 C 0.92821 0.70620 -0.00379
 C47 C 0.94276 0.70804 -0.02480
 C48 C 0.96918 0.70681 -0.02304
 C49 C 0.98060 0.70274 -0.00011
 C50 C 0.96551 0.70052 0.02094
 C51 C 0.97709 0.69502 0.04323
 C52 C 1.00295 0.69348 0.04516
 C53 C 1.01843 0.69773 0.02496
 C54 C 1.00716 0.70088 0.00180
 C55 C 0.98446 0.70957 -0.04354
 C56 C 1.01037 0.70818 -0.04163
 C57 C 1.02227 0.70249 -0.01940
 C58 C 1.04880 0.69986 -0.01742
 C59 C 1.05938 0.69757 0.00587
 C60 C 1.04488 0.69739 0.02713
 H61 H 0.96625 0.69150 0.05942
 H62 H 1.01066 0.68842 0.06269
 H63 H 0.97659 0.71311 -0.06132
 H64 H 1.02083 0.71215 -0.05789
 H65 H 0.90801 0.70796 -0.00521
 H66 H 1.07955 0.69629 0.00752
 C67 C 0.45036 0.19452 0.51912
 C68 C 0.43889 0.19627 0.49637
 C69 C 0.45291 0.19794 0.47499
 C70 C 0.47937 0.19756 0.47622
 C71 C 0.49132 0.19517 0.49910
 C72 C 0.47679 0.19336 0.52059
 C73 C 0.48907 0.18998 0.54294
 C74 C 0.51500 0.18979 0.54437
 C75 C 0.52975 0.19282 0.52350
 C76 C 0.51788 0.19473 0.50054
 C77 C 0.49418 0.19931 0.45522
 C78 C 0.52014 0.19930 0.45666
 C79 C 0.53247 0.19660 0.47907
 C80 C 0.55894 0.19626 0.48075
 C81 C 0.57021 0.19484 0.50364
 C82 C 0.55610 0.19362 0.52497
 H83 H 0.47875 0.18723 0.55959
 H84 H 0.52339 0.18698 0.56206
 H85 H 0.48588 0.20078 0.43738
 H86 H 0.53034 0.20163 0.43990
 H87 H 0.41864 0.19731 0.49533
 H88 H 0.59042 0.19526 0.50493
 C89 C 0.71445 0.05023 0.02514
 C90 C 0.71561 0.06432 0.00383
 C91 C 0.71680 0.05310 -0.01924
 C92 C 0.71723 0.02638 -0.02053
 C93 C 0.71413 0.01191 0.00093
 C94 C 0.71315 0.02392 0.02382
 C95 C 0.71156 0.00929 0.04490
 C96 C 0.71105 -0.01661 0.04366
 C97 C 0.71050 -0.02914 0.02123
 C98 C 0.71309 -0.01474 -0.00041
 C99 C 0.72322 0.01358 -0.04213
 C100 C 0.72278 -0.01237 -0.04340
 C101 C 0.71607 -0.02691 -0.02321
 C102 C 0.71485 -0.05344 -0.02463
 C103 C 0.71186 -0.06706 -0.00303
 C104 C 0.70960 -0.05572 0.01984
 H105 H 0.71106 0.01767 0.06275
 H106 H 0.71188 -0.02654 0.06073
 H107 H 0.72937 0.02337 -0.05816
 H108 H 0.72868 -0.02088 -0.06032
 H109 H 0.71513 0.08455 0.00548
 H110 H 0.70935 -0.08708 -0.00422
 C111 C 0.19506 0.55252 0.48237
 C112 C 0.19531 0.56326 0.50550
 C113 C 0.19627 0.54861 0.52655
 C114 C 0.19626 0.52220 0.52466
 C115 C 0.19566 0.51088 0.50140
 C116 C 0.19536 0.52605 0.48015
 C117 C 0.19597 0.51428 0.45736
 C118 C 0.19584 0.48834 0.45540
 C119 C 0.19603 0.47296 0.47614
 C120 C 0.19581 0.48431 0.49940
 C121 C 0.19682 0.50683 0.54539
 C122 C 0.19723 0.48088 0.54342
 C123 C 0.19618 0.46916 0.52065
 C124 C 0.19613 0.44270 0.51847
 C125 C 0.19609 0.43193 0.49535
 C126 C 0.19643 0.44652 0.47425
 H127 H 0.19671 0.52491 0.44068
 H128 H 0.19559 0.48049 0.43733
 H129 H 0.19697 0.51468 0.56346
 H130 H 0.19856 0.47021 0.56008
 H131 H 0.19529 0.58350 0.50716
 H132 H 0.19639 0.41168 0.49373
 C133 C 0.30896 1.04834 -0.02478
 C134 C 0.30807 1.06214 -0.00315
 C135 C 0.30529 1.05091 0.01980
 C136 C 0.30312 1.02438 0.02105
 C137 C 0.30533 1.00987 -0.00051
 C138 C 0.30887 1.02178 -0.02331
 C139 C 0.31365 1.00670 -0.04382
 C140 C 0.31206 0.98083 -0.04267
 C141 C 0.30612 0.96881 -0.02083
 C142 C 0.30357 0.98331 0.00062
 C143 C 0.29728 1.01198 0.04287
 C144 C 0.29607 0.98604 0.04403
 C145 C 0.29911 0.97130 0.02314
 C146 C 0.29774 0.94486 0.02410
 C147 C 0.29986 0.93096 0.00268
 C148 C 0.30334 0.94256 -0.01980
 H149 H 0.31908 1.01472 -0.06102
 H150 H 0.31586 0.97030 -0.05909
 H151 H 0.29300 1.02209 0.05937
 H152 H 0.29242 0.97774 0.06156
 H153 H 0.30902 1.08234 -0.00423
 H154 H 0.29782 0.91083 0.00345
 C155 C 0.80874 0.55395 0.51833
 C156 C 0.80989 0.56552 0.49552
 C157 C 0.81105 0.55164 0.47408
 C158 C 0.81212 0.52518 0.47533
 C159 C 0.81053 0.51304 0.49821
 C160 C 0.80876 0.52743 0.51982
 C161 C 0.80646 0.51488 0.54215
 C162 C 0.80657 0.48884 0.54335
 C163 C 0.80803 0.47423 0.52219
 C164 C 0.81016 0.48644 0.49941
 C165 C 0.81502 0.51055 0.45430
 C166 C 0.81483 0.48457 0.45550
 C167 C 0.81167 0.47214 0.47776
 C168 C 0.81037 0.44574 0.47897
 C169 C 0.80889 0.43395 0.50160
 C170 C 0.80756 0.44773 0.52315
 H171 H 0.80436 0.52499 0.55902
 H172 H 0.80538 0.48031 0.56113
 H173 H 0.81767 0.51906 0.43668
 H174 H 0.81735 0.47431 0.43873
 H175 H 0.80912 0.58581 0.49441
 H176 H 0.80770 0.41373 0.50240
 O177 O 0.23431 0.26378 0.27356
 O178 O 0.25769 0.21568 0.23054
 O179 O 0.27062 0.23032 0.27364
 O180 O 0.22107 0.24887 0.23042
 O181 O 0.24570 0.27670 0.21412
 O182 O 0.29560 0.25767 0.25706
 O183 O 0.28205 0.24343 0.21368
 O184 O 0.25943 0.29111 0.25716
 Cu185 Cu 0.24342 0.23693 0.25370
 Cu186 Cu 0.27321 0.26995 0.23384
 C187 C 0.24315 0.28559 0.27293
 C188 C 0.27363 0.22148 0.21452
 C189 C 0.29151 0.24094 0.27291
 C190 C 0.22492 0.26583 0.21475
 O191 O 0.69991 0.74236 0.26201
 O192 O 0.74882 0.72356 0.21780
 O193 O 0.73671 0.70933 0.26153
 O194 O 0.71207 0.75615 0.21801
 O195 O 0.73649 0.78444 0.23363
 O196 O 0.76177 0.73724 0.27674
 O197 O 0.77347 0.75185 0.23299
 O198 O 0.72493 0.77025 0.27734
 Cu199 Cu 0.72184 0.73003 0.23837
 Cu200 Cu 0.75165 0.76373 0.25675
 C201 C 0.70413 0.75945 0.27734
 C202 C 0.76940 0.73480 0.21762
 C203 C 0.75341 0.71524 0.27662
 C204 C 0.72028 0.77820 0.21815
 O205 O 0.75450 0.28136 0.26867
 O206 O 0.73627 0.23212 0.22625
 O207 O 0.72257 0.24564 0.26971
 O208 O 0.76794 0.26787 0.22481
 O209 O 0.79684 0.24196 0.23993
 O210 O 0.75192 0.22086 0.28583
 O211 O 0.76498 0.20641 0.24204
 O212 O 0.78401 0.25604 0.28365
 Cu213 Cu 0.74243 0.25934 0.24583
 Cu214 Cu 0.77733 0.22872 0.26440
 C215 C 0.77227 0.27709 0.28353
 C216 C 0.74762 0.21087 0.22677
 C217 C 0.72961 0.22974 0.28568
 C218 C 0.79004 0.25845 0.22442
 O219 O 0.25703 0.76467 0.22650
 O220 O 0.23640 0.71833 0.27139
 O221 O 0.22284 0.73128 0.22778
 O222 O 0.27101 0.75135 0.27021
 O223 O 0.24476 0.78004 0.28515
 O224 O 0.19596 0.75900 0.24337
 O225 O 0.21060 0.74689 0.28735
 O226 O 0.22996 0.79260 0.24145
 Cu227 Cu 0.24951 0.73862 0.24743
 Cu228 Cu 0.21763 0.77246 0.26584
 C229 C 0.24675 0.78646 0.22605
 C230 C 0.22026 0.72486 0.28729
 C231 C 0.20118 0.74169 0.22822
 C232 C 0.26613 0.76896 0.28509
 O233 O 0.71095 0.25640 0.73951
 O234 O 0.75896 0.27769 0.78186
 O235 O 0.74433 0.29065 0.73827
 O236 O 0.72564 0.24371 0.78327
 O237 O 0.75230 0.21605 0.76719
 O238 O 0.77190 0.26348 0.72292
 O239 O 0.78602 0.24997 0.76657
 O240 O 0.73832 0.22933 0.72366
 Cu241 Cu 0.73222 0.26985 0.76225
 Cu242 Cu 0.76487 0.23699 0.74349
 C243 C 0.71649 0.23938 0.72417
 C244 C 0.78060 0.26719 0.78173
 C245 C 0.76126 0.28510 0.72284
 C246 C 0.73591 0.22194 0.78306
 O247 O 0.24074 0.71626 0.78751
 O248 O 0.28609 0.73825 0.74248
 O249 O 0.27307 0.75138 0.78640
 O250 O 0.25408 0.70279 0.74355
 O251 O 0.22551 0.72896 0.72824
 O252 O 0.24393 0.77726 0.77164
 O253 O 0.25740 0.76460 0.72766
 O254 O 0.21171 0.74176 0.77191
 Cu255 Cu 0.26636 0.72453 0.76650
 Cu256 Cu 0.23176 0.75577 0.74837
 C257 C 0.21850 0.72535 0.78748
 C258 C 0.27947 0.75511 0.72727
 C259 C 0.26158 0.77257 0.78653
 C260 C 0.23676 0.70765 0.72836
 O261 O 0.24602 0.27843 0.73065
 O262 O 0.27020 0.23144 0.77461
 O263 O 0.28277 0.24549 0.73091
 O264 O 0.23404 0.26500 0.77450
 O265 O 0.20871 0.23734 0.75928
 O266 O 0.25801 0.21726 0.71578
 O267 O 0.24493 0.20369 0.75946
 O268 O 0.22154 0.25018 0.71503
 Cu269 Cu 0.26077 0.25786 0.75420
 Cu270 Cu 0.23074 0.22433 0.73591
 C271 C 0.22997 0.27213 0.71503
 C272 C 0.26148 0.20958 0.77471
 C273 C 0.27874 0.22826 0.71572
 C274 C 0.21310 0.25447 0.77453
 O275 O 0.73844 0.78138 0.71128
 O276 O 0.78941 0.76400 0.75363
 O277 O 0.77620 0.74971 0.71001
 O278 O 0.75175 0.79581 0.75432
 O279 O 0.72866 0.76676 0.77084
 O280 O 0.75322 0.72064 0.72666
 O281 O 0.76603 0.73495 0.76971
 O282 O 0.71521 0.75233 0.72754
 Cu283 Cu 0.76634 0.77558 0.73063
 Cu284 Cu 0.73837 0.74080 0.75026
 C285 C 0.71814 0.76970 0.71207
 C286 C 0.78628 0.74670 0.76915
 C287 C 0.76876 0.72737 0.71065
 C288 C 0.73630 0.78904 0.77040
 C289 C 0.30312 0.10025 0.08035
 C290 C 0.31693 0.07750 0.08164
 C291 C 0.31789 0.06122 0.06174
 C292 C 0.30427 0.06689 0.04040
 C293 C 0.29057 0.08989 0.03937
 C294 C 0.29012 0.10632 0.05897
 C295 C 0.30206 0.11781 0.10101
 N296 N 0.29829 0.14273 0.09703
 N297 N 0.29618 0.15863 0.11551
 C298 C 0.29753 0.15026 0.13877
 N299 N 0.30141 0.12532 0.14280
 N300 N 0.30378 0.10940 0.12427
 C301 C 0.29361 0.16798 0.15909
 C302 C 0.28410 0.15985 0.18146
 C303 C 0.27802 0.17716 0.19974
 C304 C 0.28181 0.20283 0.19613
 C305 C 0.29232 0.21077 0.17414
 C306 C 0.29794 0.19356 0.15574
 H307 H 0.32748 0.07259 0.09781
 H308 H 0.32982 0.04450 0.06287
 H309 H 0.27951 0.09499 0.02357
 H310 H 0.27914 0.12365 0.05753
 H311 H 0.28050 0.14025 0.18451
 H312 H 0.27003 0.17051 0.21655
 H313 H 0.29540 0.23043 0.17080
 H314 H 0.30538 0.20035 0.13874
 C315 C 0.80222 0.60473 0.57865
 C316 C 0.82137 0.58611 0.57835
 C317 C 0.82357 0.56944 0.55883
 C318 C 0.80611 0.57058 0.53982
 C319 C 0.78680 0.58899 0.54039
 C320 C 0.78500 0.60602 0.55948
 C321 C 0.80016 0.62305 0.59859
 N322 N 0.79101 0.64663 0.59423
 N323 N 0.78841 0.66311 0.61219
 C324 C 0.79460 0.65660 0.63529
 N325 N 0.80379 0.63301 0.63968
 N326 N 0.80668 0.61659 0.62164
 C327 C 0.79026 0.67460 0.65525
 C328 C 0.78399 0.66618 0.67859
 C329 C 0.77739 0.68336 0.69679
 C330 C 0.77758 0.70923 0.69213
 C331 C 0.78491 0.71763 0.66910
 C332 C 0.79091 0.70047 0.65074
 H333 H 0.83499 0.58491 0.59284
 H334 H 0.83897 0.55579 0.55846
 H335 H 0.77322 0.59032 0.52585
 H336 H 0.76999 0.62011 0.55936
 H337 H 0.78325 0.64633 0.68249
 H338 H 0.77188 0.67642 0.71444
 H339 H 0.78511 0.73747 0.66501
 H340 H 0.79579 0.70744 0.63293
 C341 C 0.70029 0.89531 0.08002
 C342 C 0.71725 0.88922 0.06139
 C343 C 0.72038 0.90549 0.04189
 C344 C 0.70640 0.92830 0.04023
 C345 C 0.68853 0.93372 0.05852
 C346 C 0.68593 0.91769 0.07847
 C347 C 0.69818 0.87834 0.10103
 N348 N 0.69409 0.88749 0.12372
 N349 N 0.69436 0.87216 0.14288
 C350 C 0.69843 0.84709 0.14001
 N351 N 0.70203 0.83796 0.11727
 N352 N 0.70204 0.85329 0.09818
 C353 C 0.70086 0.83013 0.16115
 C354 C 0.69652 0.80449 0.15854
 C355 C 0.70167 0.78781 0.17757
 C356 C 0.71175 0.79637 0.19943
 C357 C 0.71527 0.82214 0.20237
 C358 C 0.70962 0.83892 0.18347
 H359 H 0.72867 0.87212 0.06222
 H360 H 0.73441 0.90048 0.02839
 H361 H 0.67619 0.95014 0.05722
 H362 H 0.67235 0.92251 0.09243
 H363 H 0.68965 0.79724 0.14157
 H364 H 0.69881 0.76805 0.17476
 H365 H 0.72293 0.82925 0.21908
 H366 H 0.71324 0.85859 0.18593
 C367 C 0.19966 0.39147 0.57895
 C368 C 0.21748 0.38992 0.56025
 C369 C 0.21644 0.40686 0.54093
 C370 C 0.19730 0.42541 0.53967
 C371 C 0.17899 0.42650 0.55800
 C372 C 0.18045 0.40998 0.57776
 C373 C 0.20131 0.37374 0.59951
 N374 N 0.19476 0.38104 0.62231
 N375 N 0.19739 0.36521 0.64097
 C376 C 0.20635 0.34141 0.63745
 N377 N 0.21260 0.33407 0.61460
 N378 N 0.21027 0.34996 0.59603
 C379 C 0.21023 0.32398 0.65803
 C380 C 0.20852 0.29808 0.65450
 C381 C 0.21394 0.28133 0.67341
 C382 C 0.22179 0.29013 0.69605
 C383 C 0.22310 0.31606 0.69975
 C384 C 0.21704 0.33288 0.68097
 H385 H 0.23251 0.37585 0.56079
 H386 H 0.23064 0.40552 0.52690
 H387 H 0.16368 0.44023 0.55706
 H388 H 0.16634 0.41133 0.59186
 H389 H 0.20320 0.29076 0.63701
 H390 H 0.21290 0.26142 0.67003
 H391 H 0.22906 0.32330 0.71706
 H392 H 0.21861 0.35278 0.68410
 C393 C 0.90287 0.29819 0.08586
 C394 C 0.92494 0.28379 0.08195
 C395 C 0.93956 0.28756 0.06128
 C396 C 0.93276 0.30612 0.04406
 C397 C 0.91043 0.32029 0.04795
 C398 C 0.89582 0.31650 0.06861
 C399 C 0.88698 0.29369 0.10745
 N400 N 0.86483 0.30647 0.11047
 N401 N 0.85026 0.30197 0.12952
 C402 C 0.85720 0.28453 0.14641
 N403 N 0.87942 0.27187 0.14347
 N404 N 0.89399 0.27635 0.12441
 C405 C 0.84055 0.27888 0.16717
 C406 C 0.84792 0.26102 0.18477
 C407 C 0.83174 0.25480 0.20365
 C408 C 0.80779 0.26625 0.20537
 C409 C 0.80061 0.28449 0.18809
 C410 C 0.81681 0.29076 0.16923
 H411 H 0.93076 0.26924 0.09464
 H412 H 0.95578 0.27527 0.05839
 H413 H 0.90447 0.33477 0.03522
 H414 H 0.87891 0.32792 0.07099
 H415 H 0.86609 0.25156 0.18381
 H416 H 0.83786 0.24068 0.21667
 H417 H 0.78230 0.29370 0.18890
 H418 H 0.81052 0.30463 0.15604
 C419 C 0.39281 0.79726 0.59008
 C420 C 0.41234 0.78025 0.58371
 C421 C 0.42646 0.78398 0.56274
 C422 C 0.42164 0.80496 0.54790
 C423 C 0.40227 0.82205 0.55421
 C424 C 0.38801 0.81827 0.57513
 C425 C 0.37711 0.79263 0.61175
 N426 N 0.35621 0.80699 0.61624
 N427 N 0.34162 0.80221 0.63522
 C428 C 0.34734 0.78291 0.65056
 N429 N 0.36836 0.76869 0.64617
 N430 N 0.38291 0.77343 0.62717
 C431 C 0.33057 0.77687 0.67108
 C432 C 0.33736 0.75785 0.68774
 C433 C 0.32101 0.75120 0.70631
 C434 C 0.29743 0.76333 0.70861
 C435 C 0.29084 0.78270 0.69230
 C436 C 0.30725 0.78944 0.67378
 H437 H 0.41644 0.76378 0.59468
 H438 H 0.44100 0.77031 0.55789
 H439 H 0.39812 0.83822 0.54284
 H440 H 0.37311 0.83171 0.57947
 H441 H 0.35522 0.74785 0.68628
 H442 H 0.32667 0.73621 0.71859
 H443 H 0.27284 0.79246 0.69361
 H444 H 0.30141 0.80419 0.66130
 C445 C 0.08520 0.70341 0.09315
 C446 C 0.06316 0.71786 0.08928
 C447 C 0.04952 0.71541 0.06786
 C448 C 0.05743 0.69830 0.04976
 C449 C 0.07943 0.68371 0.05388
 C450 C 0.09299 0.68610 0.07531
 C451 C 0.10065 0.70713 0.11507
 N452 N 0.12210 0.69332 0.11855
 N453 N 0.13672 0.69748 0.13752
 C454 C 0.13056 0.71563 0.15388
 N455 N 0.10897 0.72928 0.15056
 N456 N 0.09432 0.72511 0.13157
 C457 C 0.14770 0.72118 0.17413
 C458 C 0.14194 0.74059 0.19061
 C459 C 0.15902 0.74689 0.20862
 C460 C 0.18221 0.73393 0.21048
 C461 C 0.18764 0.71408 0.19445
 C462 C 0.17059 0.70776 0.17653
 H463 H 0.05673 0.73154 0.10253
 H464 H 0.03336 0.72780 0.06502
 H465 H 0.08606 0.67011 0.04061
 H466 H 0.10984 0.67460 0.07768
 H467 H 0.12445 0.75127 0.18934
 H468 H 0.15427 0.76226 0.22072
 H469 H 0.20529 0.70364 0.19546
 H470 H 0.17563 0.69264 0.16424
 C471 C 0.59830 0.20059 0.59085
 C472 C 0.57863 0.21776 0.58534
 C473 C 0.56455 0.21510 0.56424
 C474 C 0.56960 0.19506 0.54839
 C475 C 0.58894 0.17767 0.55399
 C476 C 0.60313 0.18036 0.57504
 C477 C 0.61436 0.20444 0.61234
 N478 N 0.63518 0.18974 0.61614
 N479 N 0.65030 0.19402 0.63474
 C480 C 0.64523 0.21314 0.65037
 N481 N 0.62427 0.22766 0.64672
 N482 N 0.60917 0.22342 0.62810
 C483 C 0.66276 0.21875 0.67030
 C484 C 0.65705 0.23800 0.68697
 C485 C 0.67424 0.24431 0.70482
 C486 C 0.69758 0.23158 0.70637
 C487 C 0.70306 0.21196 0.69008
 C488 C 0.68584 0.20558 0.67230
 H489 H 0.57446 0.23363 0.59701
 H490 H 0.55001 0.22900 0.56000
 H491 H 0.59326 0.16220 0.54186
 H492 H 0.61812 0.16679 0.57871
 H493 H 0.63942 0.24848 0.68603
 H494 H 0.66943 0.25951 0.71711
 H495 H 0.72085 0.20172 0.69084
 H496 H 0.69086 0.19063 0.65980
 C497 C 0.71654 0.10228 0.91975
 C498 C 0.73001 0.10784 0.94072
 C499 C 0.73043 0.09146 0.96049
 C500 C 0.71712 0.06906 0.96003
 C501 C 0.70310 0.06394 0.93903
 C502 C 0.70319 0.08012 0.91900
 C503 C 0.71653 0.11973 0.89890
 N504 N 0.71407 0.11129 0.87582
 N505 N 0.71518 0.12705 0.85705
 C506 C 0.71849 0.15188 0.86067
 N507 N 0.72064 0.16031 0.88376
 N508 N 0.71979 0.14454 0.90248
 C509 C 0.72084 0.16936 0.84001
 C510 C 0.71527 0.19503 0.84309
 C511 C 0.71925 0.21195 0.82421
 C512 C 0.72938 0.20363 0.80202
 C513 C 0.73447 0.17788 0.79872
 C514 C 0.72998 0.16086 0.81747
 H515 H 0.74068 0.12470 0.94171
 H516 H 0.74187 0.09612 0.97591
 H517 H 0.69142 0.04778 0.93830
 H518 H 0.69228 0.07563 0.90316
 H519 H 0.70807 0.20208 0.86023
 H520 H 0.71523 0.23169 0.82730
 H521 H 0.74222 0.17096 0.78175
 H522 H 0.73452 0.14118 0.81463
 C523 C 0.19649 0.60426 0.42233
 C524 C 0.21476 0.60466 0.44053
 C525 C 0.21445 0.58748 0.45964
 C526 C 0.19561 0.56983 0.46120
 C527 C 0.17692 0.56985 0.44333
 C528 C 0.17764 0.58661 0.42376
 C529 C 0.19727 0.62234 0.40207
 N530 N 0.19026 0.61580 0.37933
 N531 N 0.19208 0.63190 0.36092
 C532 C 0.20065 0.65525 0.36462
 N533 N 0.20735 0.66186 0.38741
 N534 N 0.20583 0.64567 0.40573
 C535 C 0.20365 0.67291 0.34424
 C536 C 0.20138 0.69884 0.34821
 C537 C 0.20585 0.71569 0.32938
 C538 C 0.21329 0.70694 0.30639
 C539 C 0.21524 0.68100 0.30230
 C540 C 0.21012 0.66412 0.32099
 H541 H 0.22954 0.61804 0.43978
 H542 H 0.22894 0.58797 0.47332
 H543 H 0.16182 0.55687 0.44453
 H544 H 0.16319 0.58616 0.41005
 H545 H 0.19633 0.70608 0.36596
 H546 H 0.20434 0.73560 0.33303
 H547 H 0.22089 0.67380 0.28470
 H548 H 0.21211 0.64420 0.31752
 C549 C 0.29662 0.89509 0.91768
 C550 C 0.28089 0.91649 0.92058
 C551 C 0.28345 0.93210 0.94064
 C552 C 0.30195 0.92685 0.95810
 C553 C 0.31782 0.90565 0.95521
 C554 C 0.31524 0.88995 0.93516
 C555 C 0.29300 0.87787 0.89699
 N556 N 0.30700 0.85632 0.89486
 N557 N 0.30308 0.84044 0.87676
 C558 C 0.28501 0.84544 0.85999
 N559 N 0.27115 0.86709 0.86202
 N560 N 0.27505 0.88295 0.88012
 C561 C 0.27992 0.82731 0.84040
 C562 C 0.26100 0.83250 0.82326
 C563 C 0.25536 0.81492 0.80551
 C564 C 0.26849 0.79174 0.80448
 C565 C 0.28773 0.78674 0.82130
 C566 C 0.29339 0.80432 0.83904
 H567 H 0.26627 0.92099 0.90758
 H568 H 0.27070 0.94812 0.94279
 H569 H 0.33207 0.90116 0.96861
 H570 H 0.32765 0.87363 0.93353
 H571 H 0.25028 0.85003 0.82370
 H572 H 0.24045 0.81938 0.79281
 H573 H 0.29823 0.76907 0.82099
 H574 H 0.30810 0.79970 0.85190
 C575 C 0.80366 0.39859 0.41627
 C576 C 0.82365 0.39478 0.43257
 C577 C 0.82605 0.41029 0.45278
 C578 C 0.80861 0.42996 0.45698
 C579 C 0.78860 0.43376 0.44084
 C580 C 0.78623 0.41836 0.42061
 C581 C 0.80056 0.38173 0.39524
 N582 N 0.78178 0.38600 0.37906
 N583 N 0.77846 0.37045 0.36058
 C584 C 0.79378 0.34995 0.35747
 N585 N 0.81268 0.34576 0.37356
 N586 N 0.81602 0.36133 0.39203
 C587 C 0.78935 0.33204 0.33754
 C588 C 0.80383 0.30970 0.33561
 C589 C 0.79865 0.29212 0.31773
 C590 C 0.77891 0.29650 0.30132
 C591 C 0.76487 0.31913 0.30281
 C592 C 0.77001 0.33668 0.32072
 H593 H 0.83736 0.37971 0.42982
 H594 H 0.84147 0.40693 0.46518
 H595 H 0.77469 0.44857 0.44406
 H596 H 0.77052 0.42176 0.40857
 H597 H 0.81891 0.30553 0.34821
 H598 H 0.80986 0.27490 0.31705
 H599 H 0.74955 0.32309 0.29043
 H600 H 0.75855 0.35373 0.32160
 C601 C 0.09630 0.29415 0.91162
 C602 C 0.07392 0.28149 0.91487
 C603 C 0.05929 0.28550 0.93566
 C604 C 0.06652 0.30246 0.95371
 C605 C 0.08913 0.31488 0.95042
 C606 C 0.10366 0.31095 0.92961
 C607 C 0.11227 0.28948 0.88994
 N608 N 0.13351 0.30232 0.88663
 N609 N 0.14830 0.29773 0.86760
 C610 C 0.14254 0.28008 0.85102
 N611 N 0.12121 0.26731 0.85422
 N612 N 0.10638 0.27193 0.87327
 C613 C 0.15969 0.27439 0.83042
 C614 C 0.15466 0.25526 0.81380
 C615 C 0.17168 0.24911 0.79524
 C616 C 0.19409 0.26195 0.79294
 C617 C 0.19879 0.28146 0.80919
 C618 C 0.18182 0.28761 0.82766
 H619 H 0.06782 0.26818 0.90152
 H620 H 0.04273 0.27459 0.93797
 H621 H 0.09538 0.32818 0.96372
 H622 H 0.12081 0.32101 0.92777
 H623 H 0.13776 0.24473 0.81534
 H624 H 0.16751 0.23399 0.78300
 H625 H 0.21583 0.29180 0.80790
 H626 H 0.18630 0.30252 0.84002
 C627 C 0.58408 0.79807 0.41198
 C628 C 0.56587 0.78077 0.41831
 C629 C 0.55128 0.78428 0.43915
 C630 C 0.55436 0.80531 0.45391
 C631 C 0.57234 0.82273 0.44758
 C632 C 0.58702 0.81919 0.42679
 C633 C 0.60050 0.79365 0.39059
 N634 N 0.61978 0.80889 0.38589
 N635 N 0.63513 0.80436 0.36726
 C636 C 0.63187 0.78443 0.35248
 N637 N 0.61245 0.76931 0.35704
 N638 N 0.59711 0.77382 0.37571
 C639 C 0.64964 0.77880 0.33238
 C640 C 0.64562 0.75893 0.31632
 C641 C 0.66305 0.75292 0.29812
 C642 C 0.68493 0.76659 0.29566
 C643 C 0.68871 0.78673 0.31143
 C644 C 0.67126 0.79281 0.32953
 H645 H 0.56318 0.76423 0.40743
 H646 H 0.53781 0.77039 0.44400
 H647 H 0.57514 0.83895 0.45889
 H648 H 0.60087 0.83288 0.42249
 H649 H 0.62914 0.74780 0.31793
 H650 H 0.65959 0.73730 0.28625
 H651 H 0.70533 0.79770 0.30998
 H652 H 0.67496 0.80825 0.34154
 C653 C 0.90214 0.71700 0.90832
 C654 C 0.90166 0.69441 0.92151
 C655 C 0.91517 0.69150 0.94304
 C656 C 0.92949 0.71102 0.95177
 C657 C 0.93007 0.73361 0.93875
 C658 C 0.91663 0.73653 0.91712
 C659 C 0.88698 0.72032 0.88596
 N660 N 0.88826 0.74147 0.87229
 N661 N 0.87394 0.74472 0.85270
 C662 C 0.85771 0.72697 0.84597
 N663 N 0.85659 0.70576 0.85954
 N664 N 0.87093 0.70249 0.87907
 C665 C 0.84071 0.73108 0.82501
 C666 C 0.82126 0.71458 0.82074
 C667 C 0.80403 0.71933 0.80218
 C668 C 0.80592 0.74060 0.78729
 C669 C 0.82586 0.75665 0.79095
 C670 C 0.84302 0.75200 0.80968
 H671 H 0.89070 0.67900 0.91532
 H672 H 0.91437 0.67402 0.95301
 H673 H 0.94079 0.74899 0.94545
 H674 H 0.91731 0.75421 0.90751
 H675 H 0.81892 0.69826 0.83213
 H676 H 0.78894 0.70654 0.79977
 H677 H 0.82779 0.77321 0.77980
 H678 H 0.85785 0.76502 0.81239
 C679 C 0.41009 0.20723 0.40940
 C680 C 0.42609 0.22605 0.41704
 C681 C 0.44028 0.22292 0.43818
 C682 C 0.43902 0.20080 0.45185
 C683 C 0.42321 0.18194 0.44424
 C684 C 0.40892 0.18508 0.42320
 C685 C 0.39412 0.21096 0.38764
 N686 N 0.37629 0.19436 0.38215
 N687 N 0.36129 0.19813 0.36315
 C688 C 0.36351 0.21864 0.34875
 N689 N 0.38148 0.23514 0.35410
 N690 N 0.39645 0.23139 0.37315
 C691 C 0.34602 0.22339 0.32829
 C692 C 0.34956 0.24336 0.31206
 C693 C 0.33223 0.24865 0.29363
 C694 C 0.31090 0.23420 0.29112
 C695 C 0.30766 0.21390 0.30699
 C696 C 0.32505 0.20851 0.32529
 H697 H 0.42734 0.24340 0.40696
 H698 H 0.45207 0.23786 0.44404
 H699 H 0.42183 0.16484 0.45473
 H700 H 0.39680 0.17022 0.41788
 H701 H 0.36555 0.25513 0.31378
 H702 H 0.33526 0.26443 0.28170
 H703 H 0.29147 0.20235 0.30550
 H704 H 0.32173 0.19297 0.33743
 C705 C 0.71499 0.90297 0.91089
 C706 C 0.70225 0.92634 0.91145
 C707 C 0.70229 0.94094 0.93253
 C708 C 0.71576 0.93286 0.95328
 C709 C 0.72878 0.90948 0.95225
 C710 C 0.72827 0.89475 0.93146
 C711 C 0.71436 0.88678 0.88924
 N712 N 0.71693 0.86154 0.89171
 N713 N 0.71737 0.84675 0.87233
 C714 C 0.71544 0.85659 0.84965
 N715 N 0.71274 0.88186 0.84714
 N716 N 0.71205 0.89668 0.86658
 C717 C 0.71783 0.84002 0.82828
 C718 C 0.72673 0.84913 0.80604
 C719 C 0.73200 0.83269 0.78686
 C720 C 0.72805 0.80692 0.78944
 C721 C 0.71787 0.79807 0.81124
 C722 C 0.71301 0.81441 0.83052
 H723 H 0.69157 0.93292 0.89589
 H724 H 0.69092 0.95808 0.93284
 H725 H 0.73976 0.90262 0.96751
 H726 H 0.73853 0.87694 0.93143
 H727 H 0.73066 0.86877 0.80382
 H728 H 0.73974 0.84004 0.77021
 H729 H 0.71464 0.77831 0.81379
 H730 H 0.70597 0.80689 0.84739
 C731 C 0.20428 0.40428 0.40816
 C732 C 0.22234 0.42160 0.41472
 C733 C 0.21951 0.43572 0.43591
 C734 C 0.19838 0.43316 0.45073
 C735 C 0.18016 0.41619 0.44408
 C736 C 0.18305 0.40190 0.42299
 C737 C 0.20812 0.38812 0.38655
 N738 N 0.19324 0.36841 0.38252
 N739 N 0.19743 0.35319 0.36373
 C740 C 0.21662 0.35707 0.34813
 N741 N 0.23133 0.37692 0.35203
 N742 N 0.22719 0.39209 0.37084
 C743 C 0.22211 0.33947 0.32789
 C744 C 0.24048 0.34486 0.31054
 C745 C 0.24680 0.32764 0.29234
 C746 C 0.23500 0.30455 0.29111
 C747 C 0.21619 0.29938 0.30808
 C748 C 0.20976 0.31669 0.32623
 H749 H 0.23899 0.42380 0.40383
 H750 H 0.23403 0.44835 0.44101
 H751 H 0.16386 0.41376 0.45543
 H752 H 0.16879 0.38877 0.41848
 H753 H 0.25028 0.36228 0.31118
 H754 H 0.26136 0.33223 0.27953
 H755 H 0.20670 0.28178 0.30760
 H756 H 0.19550 0.31193 0.33928
 C757 C 0.30299 0.09141 0.91028
 C758 C 0.31969 0.09799 0.92864
 C759 C 0.32215 0.08347 0.94969
 C760 C 0.30819 0.06175 0.95291
 C761 C 0.29165 0.05512 0.93430
 C762 C 0.28921 0.06964 0.91324
 C763 C 0.29911 0.10774 0.88869
 N764 N 0.28299 0.10141 0.87091
 N765 N 0.27857 0.11664 0.85211
 C766 C 0.29007 0.13888 0.85028
 N767 N 0.30638 0.14511 0.86795
 N768 N 0.31081 0.12986 0.88674
 C769 C 0.28409 0.15641 0.83002
 C770 C 0.29465 0.18018 0.82902
 C771 C 0.28774 0.19727 0.81076
 C772 C 0.27015 0.19097 0.79308
 C773 C 0.26010 0.16698 0.79372
 C774 C 0.26698 0.14992 0.81196
 H775 H 0.33068 0.11458 0.92694
 H776 H 0.33531 0.08915 0.96336
 H777 H 0.27964 0.03931 0.93645
 H778 H 0.27596 0.06414 0.89959
 H779 H 0.30792 0.18580 0.84260
 H780 H 0.29586 0.21558 0.81076
 H781 H 0.24654 0.16150 0.78034
 H782 H 0.25854 0.13176 0.81209
 C783 C 0.80134 0.59532 0.40883
 C784 C 0.82163 0.59939 0.42436
 C785 C 0.82529 0.58467 0.44517
 C786 C 0.80878 0.56560 0.45081
 C787 C 0.78867 0.56135 0.43523
 C788 C 0.78510 0.57590 0.41435
 C789 C 0.79639 0.61188 0.38762
 N790 N 0.77797 0.60673 0.37164
 N791 N 0.77261 0.62221 0.35326
 C792 C 0.78538 0.64355 0.35008
 N793 N 0.80395 0.64860 0.36592
 N794 N 0.80936 0.63308 0.38429
 C795 C 0.77841 0.66138 0.33036
 C796 C 0.78929 0.68496 0.32887
 C797 C 0.78151 0.70232 0.31116
 C798 C 0.76275 0.69644 0.29450
 C799 C 0.75234 0.67264 0.29561
 C800 C 0.76004 0.65534 0.31334
 H801 H 0.83449 0.61418 0.42065
 H802 H 0.84078 0.58841 0.45711
 H803 H 0.77539 0.54709 0.43953
 H804 H 0.76919 0.57233 0.40291
 H805 H 0.80350 0.69023 0.34167
 H806 H 0.78995 0.72047 0.31075
 H807 H 0.73788 0.66749 0.28302
 H808 H 0.75132 0.63733 0.31387
 C809 C 0.09940 0.69878 0.92282
 C810 C 0.07722 0.68553 0.92161
 C811 C 0.06061 0.68558 0.94130
 C812 C 0.06533 0.69969 0.96232
 C813 C 0.08785 0.71268 0.96335
 C814 C 0.10465 0.71212 0.94397
 C815 C 0.11703 0.69912 0.90216
 N816 N 0.14170 0.70276 0.90601
 N817 N 0.15752 0.70435 0.88744
 C818 C 0.14930 0.70260 0.86424
 N819 N 0.12463 0.69883 0.86036
 N820 N 0.10882 0.69698 0.87897
 C821 C 0.16673 0.70616 0.84375
 C822 C 0.15793 0.71539 0.82134
 C823 C 0.17473 0.72120 0.80282
 C824 C 0.20059 0.71738 0.80621
 C825 C 0.20929 0.70712 0.82823
 C826 C 0.19255 0.70180 0.84690
 H827 H 0.07296 0.67471 0.90564
 H828 H 0.04433 0.67410 0.94023
 H829 H 0.09225 0.72405 0.97892
 H830 H 0.12154 0.72268 0.94533
 H831 H 0.13813 0.71902 0.81843
 H832 H 0.16751 0.72899 0.78597
 H833 H 0.22913 0.70404 0.83136
 H834 H 0.19984 0.69457 0.86394
 C835 C 0.60958 0.20149 0.42020
 C836 C 0.59171 0.18278 0.42064
 C837 C 0.57521 0.18095 0.44028
 C838 C 0.57570 0.19837 0.45932
 C839 C 0.59345 0.21716 0.45870
 C840 C 0.61036 0.21858 0.43946
 C841 C 0.62756 0.20322 0.39995
 N842 N 0.65078 0.21187 0.40389
 N843 N 0.66693 0.21404 0.38565
 C844 C 0.66042 0.20789 0.36268
 N845 N 0.63719 0.19924 0.35871
 N846 N 0.62111 0.19678 0.37703
 C847 C 0.67806 0.21152 0.34241
 C848 C 0.66922 0.21789 0.31914
 C849 C 0.68599 0.22349 0.30053
 C850 C 0.71189 0.22217 0.30470
 C851 C 0.72073 0.21482 0.32771
 C852 C 0.70396 0.20986 0.34646
 H853 H 0.59093 0.16923 0.40611
 H854 H 0.56212 0.16590 0.44069
 H855 H 0.59431 0.23069 0.47326
 H856 H 0.62388 0.23324 0.43951
 H857 H 0.64933 0.21941 0.31557
 H858 H 0.67872 0.22905 0.28292
 H859 H 0.74060 0.21379 0.33143
 H860 H 0.71125 0.20488 0.36422
 C861 C 0.89960 0.30228 0.91569
 C862 C 0.92195 0.28797 0.91809
 C863 C 0.93734 0.29081 0.93828
 C864 C 0.93102 0.30833 0.95657
 C865 C 0.90843 0.32244 0.95417
 C866 C 0.89306 0.31959 0.93396
 C867 C 0.88289 0.29868 0.89462
 N868 N 0.86080 0.31179 0.89273
 N869 N 0.84546 0.30803 0.87418
 C870 C 0.85156 0.29101 0.85669
 N871 N 0.87373 0.27803 0.85849
 N872 N 0.88906 0.28179 0.87705
 C873 C 0.83402 0.28607 0.83658
 C874 C 0.84016 0.26804 0.81881
 C875 C 0.82306 0.26235 0.80066
 C876 C 0.79941 0.27455 0.79984
 C877 C 0.79349 0.29301 0.81722
 C878 C 0.81059 0.29872 0.83537
 H879 H 0.92741 0.27418 0.90456
 H880 H 0.95378 0.27858 0.93997
 H881 H 0.90283 0.33616 0.96773
 H882 H 0.87596 0.33091 0.93276
 H883 H 0.85805 0.25799 0.81911
 H884 H 0.82822 0.24804 0.78753
 H885 H 0.77544 0.30278 0.81710
 H886 H 0.80525 0.31276 0.84869
 C887 C 0.38697 0.80135 0.41803
 C888 C 0.38381 0.82198 0.43368
 C889 C 0.39938 0.82452 0.45382
 C890 C 0.41842 0.80655 0.45863
 C891 C 0.42153 0.78587 0.44317
 C892 C 0.40610 0.78338 0.42297
 C893 C 0.37009 0.79821 0.39703
 N894 N 0.37436 0.77937 0.38090
 N895 N 0.35884 0.77604 0.36242
 C896 C 0.33835 0.79136 0.35927
 N897 N 0.33415 0.81030 0.37532
 N898 N 0.34971 0.81368 0.39378
 C899 C 0.32053 0.78687 0.33930
 C900 C 0.29780 0.80073 0.33768
 C901 C 0.28035 0.79534 0.31972
 C902 C 0.28529 0.77603 0.30295
 C903 C 0.30831 0.76267 0.30414
 C904 C 0.32569 0.76800 0.32211
 H905 H 0.36925 0.83614 0.43046
 H906 H 0.39654 0.84047 0.46572
 H907 H 0.43582 0.77155 0.44687
 H908 H 0.40895 0.76716 0.41144
 H909 H 0.29322 0.81543 0.35058
 H910 H 0.26280 0.80601 0.31927
 H911 H 0.31272 0.74770 0.29148
 H912 H 0.34305 0.75703 0.32272
 C913 C 0.28531 0.90154 0.08874
 C914 C 0.30801 0.89910 0.07589
 C915 C 0.31214 0.91359 0.05520
 C916 C 0.29374 0.93083 0.04696
 C917 C 0.27105 0.93333 0.05965
 C918 C 0.26694 0.91897 0.08047
 C919 C 0.28061 0.88551 0.11020
 N920 N 0.26000 0.88953 0.12426
 N921 N 0.25548 0.87472 0.14316
 C922 C 0.27135 0.85520 0.14878
 N923 N 0.29202 0.85124 0.13478
 N924 N 0.29657 0.86610 0.11592
 C925 C 0.26586 0.83818 0.16930
 C926 C 0.27990 0.81571 0.17261
 C927 C 0.27394 0.79909 0.19125
 C928 C 0.25394 0.80463 0.20712
 C929 C 0.24027 0.82734 0.20416
 C930 C 0.24610 0.84388 0.18542
 H931 H 0.32255 0.88588 0.08172
 H932 H 0.32966 0.91123 0.04545
 H933 H 0.25645 0.94623 0.05327
 H934 H 0.24919 0.92121 0.08981
 H935 H 0.29523 0.81072 0.16054
 H936 H 0.28487 0.78177 0.19307
 H937 H 0.22473 0.83216 0.21606
 H938 H 0.23498 0.86105 0.18348
 C939 C 0.79761 0.40367 0.58777
 C940 C 0.81961 0.40099 0.57386
 C941 C 0.82305 0.41576 0.55321
 C942 C 0.80463 0.43355 0.54611
 C943 C 0.78269 0.43635 0.55994
 C944 C 0.77928 0.42170 0.58069
 C945 C 0.79346 0.38721 0.60905
 N946 N 0.77334 0.39112 0.62379
 N947 N 0.76918 0.37584 0.64242
 C948 C 0.78493 0.35596 0.64709
 N949 N 0.80513 0.35213 0.63243
 N950 N 0.80932 0.36745 0.61383
 C951 C 0.77973 0.33839 0.66725
 C952 C 0.79380 0.31585 0.66984
 C953 C 0.78807 0.29871 0.68810
 C954 C 0.76822 0.30378 0.70429
 C955 C 0.75452 0.32656 0.70206
 C956 C 0.76015 0.34363 0.68372
 H957 H 0.83410 0.38730 0.57877
 H958 H 0.83998 0.41315 0.54259
 H959 H 0.76805 0.44965 0.55445
 H960 H 0.76205 0.42416 0.59087
 H961 H 0.80901 0.31120 0.65749
 H962 H 0.79902 0.28136 0.68937
 H963 H 0.73911 0.33104 0.71423
 H964 H 0.74899 0.36084 0.68233
 C965 C 0.71873 0.09235 0.09130
 C966 C 0.69799 0.09556 0.07580
 C967 C 0.69635 0.08148 0.05456
 C968 C 0.71532 0.06389 0.04847
 C969 C 0.73597 0.06054 0.06390
 C970 C 0.73759 0.07450 0.08520
 C971 C 0.72117 0.10819 0.11315
 N972 N 0.74049 0.10429 0.12880
 N973 N 0.74334 0.11922 0.14784
 C974 C 0.72701 0.13872 0.15203
 N975 N 0.70756 0.14249 0.13651
 N976 N 0.70468 0.12753 0.11750
 C977 C 0.73104 0.15623 0.17237
 C978 C 0.71613 0.17825 0.17471
 C979 C 0.72113 0.19569 0.19276
 C980 C 0.74107 0.19147 0.20897
 C981 C 0.75547 0.16908 0.20716
 C982 C 0.75054 0.15168 0.18903
 H983 H 0.68315 0.10914 0.07992
 H984 H 0.68039 0.08445 0.04272
 H985 H 0.75098 0.04731 0.05925
 H986 H 0.75388 0.07164 0.09661
 H987 H 0.70093 0.18234 0.16224
 H988 H 0.70963 0.21272 0.19372
 H989 H 0.77095 0.16525 0.21938
 H990 H 0.76232 0.13487 0.18784
 C991 C 0.20363 0.59007 0.59281
 C992 C 0.22242 0.57261 0.58557
 C993 C 0.21981 0.55876 0.56430
 C994 C 0.19822 0.56181 0.55006
 C995 C 0.17931 0.57896 0.55735
 C996 C 0.18194 0.59293 0.57855
 C997 C 0.20705 0.60590 0.61454
 N998 N 0.19057 0.62502 0.61972
 N999 N 0.19421 0.63996 0.63860
 C1000 C 0.21447 0.63641 0.65316
 N1001 N 0.23083 0.61714 0.64813
 N1002 N 0.22721 0.60222 0.62921
 C1003 C 0.21918 0.65381 0.67345
 C1004 C 0.23917 0.64916 0.68953
 C1005 C 0.24449 0.66632 0.70776
 C1006 C 0.23003 0.68860 0.71023
 C1007 C 0.20971 0.69300 0.69452
 C1008 C 0.20430 0.67577 0.67639
 H1009 H 0.23941 0.57003 0.59603
 H1010 H 0.23480 0.54592 0.55870
 H1011 H 0.16263 0.58174 0.54644
 H1012 H 0.16711 0.60618 0.58356
 H1013 H 0.25096 0.63239 0.68786
 H1014 H 0.26028 0.66238 0.71958
 H1015 H 0.19815 0.70995 0.69599
 H1016 H 0.18875 0.67996 0.66435
 C1017 C 0.89038 0.70806 0.08128
 C1018 C 0.88708 0.68952 0.06358
 C1019 C 0.90303 0.68774 0.04345
 C1020 C 0.92262 0.70437 0.04072
 C1021 C 0.92580 0.72302 0.05821
 C1022 C 0.90997 0.72476 0.07834
 C1023 C 0.87331 0.71036 0.10247
 N1024 N 0.87740 0.72748 0.12008
 N1025 N 0.86183 0.73006 0.13885
 C1026 C 0.84147 0.71565 0.14085
 N1027 N 0.83743 0.69842 0.12331
 N1028 N 0.85304 0.69581 0.10453
 C1029 C 0.82367 0.71931 0.16132
 C1030 C 0.80153 0.70586 0.16252
 C1031 C 0.78414 0.71044 0.18111
 C1032 C 0.78854 0.72854 0.19894
 C1033 C 0.81096 0.74151 0.19809
 C1034 C 0.82830 0.73696 0.17951
 H1035 H 0.87215 0.67640 0.06522
 H1036 H 0.90014 0.67337 0.03001
 H1037 H 0.94053 0.73632 0.05618
 H1038 H 0.91298 0.73938 0.09148
 H1039 H 0.79737 0.69210 0.14885
 H1040 H 0.76705 0.70012 0.18126
 H1041 H 0.81496 0.75555 0.21155
 H1042 H 0.84519 0.74759 0.17925
 C1043 C 0.40168 0.19952 0.58140
 C1044 C 0.39940 0.17999 0.56453
 C1045 C 0.41543 0.17814 0.54447
 C1046 C 0.43406 0.19569 0.54095
 C1047 C 0.43625 0.21529 0.55762
 C1048 C 0.42037 0.21708 0.57772
 C1049 C 0.38439 0.20199 0.60241
 N1050 N 0.38794 0.21965 0.61962
 N1051 N 0.37211 0.22244 0.63816
 C1052 C 0.35201 0.20770 0.64032
 N1053 N 0.34851 0.18991 0.62318
 N1054 N 0.36439 0.18709 0.60464
 C1055 C 0.33388 0.21164 0.66048
 C1056 C 0.31163 0.19835 0.66147
 C1057 C 0.29393 0.20328 0.67972
 C1058 C 0.29813 0.22157 0.69742
 C1059 C 0.32068 0.23435 0.69679
 C1060 C 0.33831 0.22946 0.67856
 H1061 H 0.38519 0.16618 0.56677
 H1062 H 0.41329 0.16303 0.53165
 H1063 H 0.45018 0.22932 0.55494
 H1064 H 0.42255 0.23247 0.59020
 H1065 H 0.30762 0.18446 0.64787
 H1066 H 0.27675 0.19310 0.67970
 H1067 H 0.32455 0.24852 0.71016
 H1068 H 0.35529 0.23996 0.67847
 C1069 C 0.10047 0.29868 0.08277
 C1070 C 0.08205 0.28109 0.07817
 C1071 C 0.06642 0.28376 0.05798
 C1072 C 0.06864 0.30422 0.04217
 C1073 C 0.08686 0.32189 0.04677
 C1074 C 0.10260 0.31919 0.06689
 C1075 C 0.11782 0.29524 0.10358
 N1076 N 0.13740 0.31051 0.10652
 N1077 N 0.15346 0.30688 0.12473
 C1078 C 0.15060 0.28786 0.14083
 N1079 N 0.13091 0.27271 0.13799
 N1080 N 0.11488 0.27631 0.11976
 C1081 C 0.16900 0.28320 0.16057
 C1082 C 0.16524 0.26433 0.17793
 C1083 C 0.18314 0.25908 0.19583
 C1084 C 0.20528 0.27251 0.19675
 C1085 C 0.20884 0.29171 0.17970
 C1086 C 0.19089 0.29703 0.16185
 H1087 H 0.07997 0.26500 0.08991
 H1088 H 0.05277 0.26967 0.05448
 H1089 H 0.08900 0.33769 0.03464
 H1090 H 0.11656 0.33308 0.06986
 H1091 H 0.14857 0.25337 0.17757
 H1092 H 0.17980 0.24417 0.20869
 H1093 H 0.22567 0.30244 0.17993
 H1094 H 0.19440 0.31171 0.14880
 C1095 C 0.59020 0.80128 0.58310
 C1096 C 0.59154 0.82209 0.56746
 C1097 C 0.57540 0.82467 0.54764
 C1098 C 0.55755 0.80660 0.54313
 C1099 C 0.55612 0.78585 0.55868
 C1100 C 0.57216 0.78329 0.57857
 C1101 C 0.60801 0.79795 0.60353
 N1102 N 0.60598 0.77857 0.61937
 N1103 N 0.62247 0.77507 0.63723
 C1104 C 0.64173 0.79077 0.64000
 N1105 N 0.64367 0.81023 0.62425
 N1106 N 0.62716 0.81376 0.60641
 C1107 C 0.66066 0.78625 0.65927
 C1108 C 0.68205 0.80082 0.66045
 C1109 C 0.70051 0.79572 0.67784
 C1110 C 0.69798 0.77599 0.69452
 C1111 C 0.67635 0.76177 0.69369
 C1112 C 0.65793 0.76681 0.67625
 H1113 H 0.60521 0.83628 0.57038
 H1114 H 0.57694 0.84068 0.53567
 H1115 H 0.54277 0.77147 0.55521
 H1116 H 0.57069 0.76697 0.59013
 H1117 H 0.68477 0.81595 0.64768
 H1118 H 0.71692 0.80707 0.67802
 H1119 H 0.67381 0.74644 0.70628
 H1120 H 0.64167 0.75526 0.67594
   
