data_POSCAR
  _audit_creation_date              2014-09-24
  _audit_creation_method            'ToBaCCo'
  _symmetry_space_group_name_H-M    'P1'
  _symmetry_Int_Tables_number       1
  _symmetry_cell_setting            triclinic
  loop_
  _symmetry_equiv_pos_as_xyz
 x,y,z
_cell_length_a 43.3549
_cell_length_b 40.1952
_cell_length_c 36.8527
_cell_angle_alpha 90.404900
_cell_angle_beta 89.729900
_cell_angle_gamma 122.113400
loop_
  _atom_site_label
  _atom_site_type_symbol
  _atom_site_fract_x
  _atom_site_fract_y
  _atom_site_fract_z
O1 O -0.01322 0.50510 -0.05536
 O2 O 0.06167 0.50767 -0.00550
 O3 O 0.01615 0.46252 -0.05581
 O4 O 0.03539 0.55156 -0.00708
 O5 O -0.00328 0.51522 0.03610
 O6 O -0.02575 0.42588 -0.01528
 O7 O 0.02252 0.46929 0.03636
 O8 O -0.05138 0.46946 -0.01158
 Cu9 Cu 0.02875 0.51026 -0.03535
 Cu10 Cu -0.01797 0.46624 0.01599
 C11 C -0.04523 0.48624 -0.04209
 C12 C 0.05493 0.48955 0.02443
 C13 C -0.00930 0.42906 -0.04495
 C14 C 0.02020 0.54865 0.02324
 O15 O 0.53464 0.45186 0.03293
 O16 O 0.45174 0.42375 0.08555
 O17 O 0.46772 0.39048 0.03435
 O18 O 0.51886 0.48360 0.08454
 O19 O 0.50273 0.51201 0.04420
 O20 O 0.45297 0.41892 -0.00708
 O21 O 0.43642 0.45257 0.04488
 O22 O 0.51863 0.47966 -0.00819
 Cu23 Cu 0.49461 0.43434 0.06337
 Cu24 Cu 0.47588 0.46843 0.01433
 C25 C 0.54086 0.47086 0.00359
 C26 C 0.43034 0.43406 0.07447
 C27 C 0.45212 0.38878 0.00469
 C28 C 0.51959 0.51365 0.07293
 O29 O 0.47987 0.99655 -0.05467
 O30 O 0.53375 0.97085 0.00109
 O31 O 0.54443 1.00771 -0.05985
 O32 O 0.46688 0.95425 0.00425
 O33 O 0.44661 0.90086 -0.02925
 O34 O 0.52450 0.95230 -0.08981
 O35 O 0.51148 0.91477 -0.02878
 O36 O 0.45972 0.94277 -0.08756
 Cu37 Cu 0.50811 0.98779 -0.02414
 Cu38 Cu 0.48353 0.92241 -0.06228
 C39 C 0.46119 0.97472 -0.08098
 C40 C 0.53148 0.93837 -0.00382
 C41 C 0.54789 0.98862 -0.08561
 C42 C 0.44392 0.91787 -0.00147
 O43 O 0.95412 0.53488 0.50342
 O44 O 1.02893 0.52824 0.46505
 O45 O 0.98117 0.49255 0.51682
 O46 O 1.00533 0.57430 0.45430
 O47 O 1.03797 0.61658 0.49754
 O48 O 1.02086 0.53530 0.55621
 O49 O 1.06710 0.57409 0.50330
 O50 O 0.99010 0.57442 0.54679
 Cu51 Cu 0.98863 0.52834 0.48073
 Cu52 Cu 1.03296 0.57940 0.52991
 C53 C 0.95869 0.55417 0.53247
 C54 C 1.06106 0.55090 0.47677
 C55 C 0.99680 0.50024 0.54756
 C56 C 1.02590 0.60957 0.46531
 O57 O 0.52666 0.54028 0.48367
 O58 O 0.47622 0.45697 0.54547
 O59 O 0.46011 0.47808 0.48533
 O60 O 0.54032 0.51876 0.54462
 O61 O 0.52176 0.55259 0.57490
 O62 O 0.44176 0.51233 0.51529
 O63 O 0.45616 0.48937 0.57581
 O64 O 0.50704 0.57347 0.51343
 Cu65 Cu 0.50265 0.49524 0.51146
 Cu66 Cu 0.47973 0.53522 0.54801
 C67 C 0.52561 0.57102 0.48796
 C68 C 0.45805 0.45905 0.57149
 C69 C 0.43741 0.48856 0.49009
 C70 C 0.54451 0.54219 0.57016
 O71 O 0.52929 -0.01082 0.46647
 O72 O 0.47967 0.02196 0.52238
 O73 O 0.46218 -0.03197 0.47285
 O74 O 0.54711 0.04155 0.51771
 O75 O 0.55399 0.08614 0.47835
 O76 O 0.47180 0.00993 0.42942
 O77 O 0.48510 0.06213 0.47870
 O78 O 0.54120 0.03520 0.42644
 Cu79 Cu 0.50374 0.00094 0.49911
 Cu80 Cu 0.51411 0.05278 0.44898
 C81 C 0.54375 0.00674 0.43690
 C82 C 0.47342 0.04715 0.50975
 C83 C 0.45264 -0.02419 0.44313
 C84 C 0.56460 0.07667 0.50638
 O85 O 0.18875 0.46055 0.23225
 O86 O 0.23163 0.44066 0.30822
 O87 O 0.19063 0.47034 0.30337
 O88 O 0.23073 0.43245 0.23917
 O89 O 0.27926 0.49231 0.23367
 O90 O 0.23954 0.52982 0.29799
 O91 O 0.28012 0.50065 0.30334
 O92 O 0.23777 0.51998 0.22697
 Cu93 Cu 0.20520 0.44517 0.27127
 Cu94 Cu 0.26381 0.51681 0.26500
 C95 C 0.20642 0.49328 0.21595
 C96 C 0.26351 0.46709 0.31822
 C97 C 0.20870 0.50648 0.31228
 C98 C 0.26217 0.45591 0.22597
 O99 O 0.63050 0.85578 0.27513
 O100 O 0.62645 0.77753 0.21906
 O101 O 0.62778 0.84204 0.20595
 O102 O 0.62743 0.78985 0.28791
 O103 O 0.56736 0.75712 0.28907
 O104 O 0.56775 0.80969 0.20739
 O105 O 0.56637 0.74539 0.21952
 O106 O 0.57042 0.82260 0.27738
 Cu107 Cu 0.63407 0.81968 0.24695
 Cu108 Cu 0.56195 0.78056 0.24850
 C109 C 0.60115 0.85253 0.28583
 C110 C 0.59576 0.74804 0.20986
 C111 C 0.59780 0.83476 0.19264
 C112 C 0.59730 0.76402 0.30210
 O113 O 0.17807 0.80174 0.26218
 O114 O 0.24810 0.82963 0.19098
 O115 O 0.17634 0.79122 0.19202
 O116 O 0.24891 0.83854 0.26172
 O117 O 0.24312 0.78130 0.27109
 O118 O 0.17630 0.73649 0.19798
 O119 O 0.24599 0.77437 0.20079
 O120 O 0.17281 0.74415 0.26673
 Cu121 Cu 0.21331 0.82110 0.22579
 Cu122 Cu 0.20954 0.75366 0.23502
 C123 C 0.16316 0.76775 0.27608
 C124 C 0.25887 0.80644 0.18378
 C125 C 0.16431 0.75574 0.18313
 C126 C 0.25750 0.81736 0.27904
 O127 O 0.75200 0.56059 0.81447
 O128 O 0.80145 0.56352 0.73138
 O129 O 0.75060 0.57833 0.74630
 O130 O 0.80278 0.54690 0.79940
 O131 O 0.75927 0.48506 0.78975
 O132 O 0.70987 0.51623 0.73352
 O133 O 0.75948 0.50123 0.72091
 O134 O 0.70839 0.49960 0.80136
 Cu135 Cu 0.78096 0.56866 0.77393
 Cu136 Cu 0.73016 0.49427 0.76032
 C137 C 0.72168 0.52958 0.82191
 C138 C 0.78867 0.53271 0.71193
 C139 C 0.72156 0.55246 0.73038
 C140 C 0.78934 0.51046 0.80429
 O141 O 0.36135 0.12314 0.77401
 O142 O 0.36200 0.20554 0.72911
 O143 O 0.36431 0.14473 0.70711
 O144 O 0.35848 0.18325 0.79647
 O145 O 0.41852 0.22173 0.79744
 O146 O 0.42414 0.17676 0.71290
 O147 O 0.42210 0.23892 0.72872
 O148 O 0.42100 0.16058 0.78067
 Cu149 Cu 0.35543 0.16073 0.75133
 Cu150 Cu 0.42746 0.20331 0.75519
 C151 C 0.39118 0.12807 0.78535
 C152 C 0.39232 0.23599 0.72057
 C153 C 0.39530 0.15315 0.69556
 C154 C 0.38769 0.20932 0.81187
 O155 O 0.77313 0.19403 0.68449
 O156 O 0.84021 0.22338 0.75833
 O157 O 0.77201 0.16549 0.74794
 O158 O 0.84090 0.24962 0.69464
 O159 O 0.82491 0.28732 0.72218
 O160 O 0.75190 0.20149 0.77059
 O161 O 0.81875 0.25662 0.78459
 O162 O 0.75723 0.23380 0.70716
 Cu163 Cu 0.80817 0.20410 0.71907
 Cu164 Cu 0.78597 0.24824 0.74846
 C165 C 0.75434 0.20975 0.68284
 C166 C 0.84127 0.24560 0.78369
 C167 C 0.74980 0.16884 0.76781
 C168 C 0.84542 0.28307 0.70047
 C169 C 0.10790 0.48040 0.10075
 C170 C 0.14276 0.50960 0.09157
 C171 C 0.15090 0.53140 0.05996
 C172 C 0.12184 0.52329 0.03718
 C173 C 0.08541 0.49407 0.04647
 C174 C 0.07853 0.47200 0.07861
 O175 O 0.10605 0.46346 0.13218
 C176 C 0.14047 0.48255 0.14316
 C177 C 0.16396 0.51124 0.11939
 C178 C 0.20105 0.53563 0.12606
 C179 C 0.21457 0.52998 0.15841
 C180 C 0.19107 0.50006 0.18313
 C181 C 0.15340 0.47605 0.17529
 H182 H 0.17858 0.55426 0.05335
 H183 H 0.12769 0.54070 0.01290
 H184 H 0.05111 0.44972 0.08667
 H185 H 0.21893 0.55824 0.10708
 H186 H 0.24347 0.54847 0.16385
 H187 H 0.13473 0.45314 0.19365
 C188 C 0.54546 0.60874 0.11915
 C189 C 0.57887 0.61947 0.13328
 C190 C 0.59434 0.59703 0.12850
 C191 C 0.57448 0.56204 0.10844
 C192 C 0.54029 0.55078 0.09315
 C193 C 0.52574 0.57465 0.09832
 O194 O 0.53469 0.63291 0.12861
 C195 C 0.56194 0.65957 0.14901
 C196 C 0.58982 0.65294 0.15242
 C197 C 0.62086 0.67711 0.17290
 C198 C 0.62309 0.70923 0.19085
 C199 C 0.59421 0.71603 0.18855
 C200 C 0.56330 0.69089 0.16711
 H201 H 0.62041 0.60576 0.14033
 H202 H 0.58573 0.54380 0.10463
 H203 H 0.49935 0.56623 0.08749
 H204 H 0.64241 0.67124 0.17524
 H205 H 0.64680 0.72810 0.20737
 H206 H 0.54084 0.69533 0.16487
 C207 C 0.37365 0.88493 0.07373
 C208 C 0.36027 0.84530 0.07318
 C209 C 0.37252 0.82801 0.04931
 C210 C 0.39980 0.85253 0.02480
 C211 C 0.41460 0.89369 0.02471
 C212 C 0.40142 0.91022 0.04976
 O213 O 0.35742 0.89481 0.09850
 C214 C 0.33348 0.86063 0.11381
 C215 C 0.33446 0.82962 0.09930
 C216 C 0.31230 0.79126 0.11120
 C217 C 0.28790 0.78437 0.13932
 C218 C 0.28576 0.81556 0.15473
 C219 C 0.30890 0.85436 0.14167
 H220 H 0.36141 0.79669 0.04947
 H221 H 0.40974 0.83935 0.00616
 H222 H 0.41212 0.94145 0.05028
 H223 H 0.31376 0.76745 0.09926
 H224 H 0.27029 0.75451 0.14874
 H225 H 0.30797 0.87875 0.15296
 C226 C 0.89891 0.56115 0.60327
 C227 C 0.86508 0.53583 0.58863
 C228 C 0.86017 0.51799 0.55493
 C229 C 0.89138 0.52588 0.53580
 C230 C 0.92669 0.55095 0.55069
 C231 C 0.93038 0.56939 0.58473
 O232 O 0.89746 0.57362 0.63635
 C233 C 0.86194 0.55556 0.64279
 C234 C 0.84098 0.53192 0.61449
 C235 C 0.80324 0.50824 0.61630
 C236 C 0.78637 0.50888 0.64863
 C237 C 0.80728 0.53329 0.67812
 C238 C 0.84564 0.55730 0.67497
 H239 H 0.83323 0.49792 0.54412
 H240 H 0.88788 0.51132 0.50995
 H241 H 0.95679 0.58817 0.59718
 H242 H 0.78740 0.48940 0.59388
 H243 H 0.75700 0.49044 0.65068
 H244 H 0.86228 0.57566 0.69729
 C245 C 0.43758 0.37176 0.62775
 C246 C 0.40561 0.36274 0.64446
 C247 C 0.38964 0.38461 0.63901
 C248 C 0.40729 0.41687 0.61530
 C249 C 0.43980 0.42599 0.59717
 C250 C 0.45504 0.40300 0.60365
 O251 O 0.44888 0.34815 0.63702
 C252 C 0.42342 0.32345 0.65997
 C253 C 0.39610 0.33075 0.66529
 C254 C 0.36636 0.30761 0.68777
 C255 C 0.36488 0.27587 0.70550
 C256 C 0.39323 0.26843 0.70097
 C257 C 0.42287 0.29269 0.67783
 H258 H 0.36461 0.37723 0.65262
 H259 H 0.39539 0.43428 0.61060
 H260 H 0.48008 0.40953 0.59058
 H261 H 0.34502 0.31366 0.69145
 H262 H 0.34206 0.25756 0.72321
 H263 H 0.44474 0.28756 0.67355
 C264 C 0.64392 0.12370 0.57130
 C265 C 0.65282 0.16204 0.57093
 C266 C 0.63535 0.17476 0.54855
 C267 C 0.60725 0.14671 0.52606
 C268 C 0.59680 0.10673 0.52689
 C269 C 0.61579 0.09531 0.54963
 O270 O 0.66331 0.11741 0.59487
 C271 C 0.68477 0.15246 0.60996
 C272 C 0.67925 0.18077 0.59655
 C273 C 0.69739 0.21898 0.61016
 C274 C 0.72213 0.22830 0.63873
 C275 C 0.72867 0.19974 0.65255
 C276 C 0.70986 0.16136 0.63769
 H277 H 0.64273 0.20506 0.54877
 H278 H 0.59280 0.15583 0.50902
 H279 H 0.60841 0.06503 0.55098
 H280 H 0.69225 0.24063 0.59959
 H281 H 0.73633 0.25776 0.64996
 H282 H 0.71382 0.13878 0.64817
 C283 C 0.43714 0.04031 0.87111
 C284 C 0.40602 0.01334 0.85284
 C285 C 0.39172 -0.02695 0.85456
 C286 C 0.41019 -0.03978 0.87608
 C287 C 0.44189 -0.01236 0.89570
 C288 C 0.45539 0.02822 0.89302
 O289 O 0.44715 0.07721 0.86515
 C290 C 0.42175 0.07364 0.84272
 C291 C 0.39570 0.03523 0.83449
 C292 C 0.36655 0.02518 0.81150
 C293 C 0.36449 0.05595 0.79620
 C294 C 0.39169 0.09576 0.80363
 C295 C 0.42054 0.10451 0.82745
 H296 H 0.36740 -0.04771 0.83971
 H297 H 0.39959 -0.07093 0.87785
 H298 H 0.47981 0.04996 0.90721
 H299 H 0.34627 -0.00520 0.80539
 H300 H 0.34234 0.04882 0.77785
 H301 H 0.44166 0.13455 0.83377
 C302 C 0.60611 0.49155 0.92673
 C303 C 0.63879 0.51058 0.94498
 C304 C 0.64110 0.51633 0.98241
 C305 C 0.60841 0.50212 1.00171
 C306 C 0.57458 0.48353 0.98325
 C307 C 0.57344 0.47824 0.94523
 O308 O 0.60969 0.48773 0.89143
 C309 C 0.64541 0.50497 0.88721
 C310 C 0.66454 0.51992 0.91904
 C311 C 0.70238 0.53988 0.92054
 C312 C 0.72117 0.54419 0.88799
 C313 C 0.70189 0.52780 0.85515
 C314 C 0.66347 0.50803 0.85480
 H315 H 0.66707 0.53101 0.99626
 H316 H 0.60944 0.50636 1.03084
 H317 H 0.54787 0.46380 0.93062
 H318 H 0.71688 0.55161 0.94584
 H319 H 0.75059 0.55920 0.88852
 H320 H 0.64814 0.49540 0.83003
 C321 C 0.92917 0.33606 0.90671
 C322 C 0.95205 0.33730 0.88000
 C323 C 0.98873 0.36683 0.87839
 C324 C 1.00208 0.39679 0.90468
 C325 C 0.97909 0.39607 0.93274
 C326 C 0.94242 0.36408 0.93449
 O327 O 0.89427 0.31030 0.89977
 C328 C 0.89507 0.29485 0.86810
 C329 C 0.92983 0.30975 0.85517
 C330 C 0.93682 0.30034 0.82094
 C331 C 0.90684 0.27557 0.79875
 C332 C 0.87089 0.26195 0.81061
 C333 C 0.86494 0.27089 0.84617
 H334 H 1.00589 0.36822 0.85627
 H335 H 1.03010 0.42106 0.90258
 H336 H 0.92355 0.36348 0.95425
 H337 H 0.96437 0.31309 0.81101
 H338 H 0.91177 0.26964 0.77131
 H339 H 0.83786 0.26189 0.85546
 C340 C 0.56406 0.93961 0.38546
 C341 C 0.59556 0.96633 0.36760
 C342 C 0.61177 1.00675 0.37160
 C343 C 0.59465 1.02006 0.39479
 C344 C 0.56254 0.99293 0.41388
 C345 C 0.54728 0.95217 0.40936
 O346 O 0.55177 0.90264 0.37630
 C347 C 0.57610 0.90600 0.35225
 C348 C 0.60369 0.94429 0.34620
 C349 C 0.63189 0.95435 0.32180
 C350 C 0.63144 0.92369 0.30273
 C351 C 0.60266 0.88412 0.30779
 C352 C 0.57471 0.87525 0.33306
 H353 H 0.63621 1.02726 0.35682
 H354 H 0.60632 1.05135 0.39794
 H355 H 0.52228 0.93088 0.42297
 H356 H 0.65331 0.98466 0.31743
 H357 H 0.65289 0.93084 0.28329
 H358 H 0.55245 0.84531 0.33752
 C359 C 0.36660 0.48562 0.42957
 C360 C 0.34796 0.44704 0.41826
 C361 C 0.35734 0.42050 0.42939
 C362 C 0.38710 0.43439 0.45310
 C363 C 0.40608 0.47384 0.46561
 C364 C 0.39547 0.49966 0.45383
 O365 O 0.35510 0.50677 0.41408
 C366 C 0.32848 0.48099 0.39262
 C367 C 0.32265 0.44387 0.39444
 C368 C 0.29632 0.41261 0.37368
 C369 C 0.27560 0.42011 0.34973
 C370 C 0.28215 0.45852 0.34651
 C371 C 0.30873 0.48922 0.36859
 H372 H 0.34274 0.39045 0.41965
 H373 H 0.39523 0.41449 0.46190
 H374 H 0.41005 0.53015 0.46238
 H375 H 0.29224 0.38367 0.37546
 H376 H 0.25553 0.39645 0.33269
 H377 H 0.31440 0.51884 0.36658
 C378 C 0.05446 0.66658 0.38053
 C379 C 0.07204 0.70430 0.39415
 C380 C 0.07252 0.71230 0.43097
 C381 C 0.05528 0.68025 0.45472
 C382 C 0.03733 0.64098 0.44134
 C383 C 0.03556 0.63434 0.40340
 O384 O 0.06255 0.66490 0.34612
 C385 C 0.08577 0.70223 0.33782
 C386 C 0.09210 0.72771 0.36603
 C387 C 0.11854 0.76769 0.36436
 C388 C 0.14002 0.78166 0.33282
 C389 C 0.13531 0.75536 0.30448
 C390 C 0.10705 0.71540 0.30659
 H391 H 0.08766 0.74212 0.44130
 H392 H 0.05709 0.68617 0.48360
 H393 H 0.02355 0.60502 0.39217
 H394 H 0.12368 0.78703 0.38720
 H395 H 0.16200 0.81220 0.33166
 H396 H 0.10357 0.69457 0.28571
 C397 C 0.89750 0.50406 0.89345
 C398 C 0.86432 0.46970 0.89796
 C399 C 0.85892 0.44044 0.92176
 C400 C 0.88899 0.44678 0.94173
 C401 C 0.92373 0.48164 0.93722
 C402 C 0.92807 0.51066 0.91254
 O403 O 0.89628 0.52848 0.87023
 C404 C 0.86164 0.50896 0.85982
 C405 C 0.84109 0.47271 0.87579
 C406 C 0.80425 0.44718 0.86871
 C407 C 0.78775 0.45963 0.84432
 C408 C 0.80806 0.49727 0.82804
 C409 C 0.84564 0.52224 0.83588
 H410 H 0.83246 0.41379 0.92498
 H411 H 0.88535 0.42417 0.96028
 H412 H 0.95421 0.53760 0.90873
 H413 H 0.78872 0.41876 0.88162
 H414 H 0.75896 0.44029 0.83880
 H415 H 0.86185 0.55107 0.82384
 C416 C 0.41171 0.31936 0.92726
 C417 C 0.40643 0.28569 0.94277
 C418 C 0.41456 0.28396 0.97887
 C419 C 0.42918 0.31846 0.99971
 C420 C 0.43483 0.35374 0.98444
 C421 C 0.42498 0.35361 0.94776
 O422 O 0.40616 0.31614 0.89169
 C423 C 0.39712 0.27963 0.88458
 C424 C 0.39645 0.25954 0.91499
 C425 C 0.38997 0.22172 0.91340
 C426 C 0.38465 0.20423 0.87901
 C427 C 0.38643 0.22495 0.84738
 C428 C 0.39227 0.26292 0.85016
 H429 H 0.41105 0.25740 0.99025
 H430 H 0.43645 0.31766 1.02762
 H431 H 0.42974 0.38002 0.93473
 H432 H 0.39020 0.20676 0.93760
 H433 H 0.38092 0.17541 0.87679
 H434 H 0.39481 0.27961 0.82616
 C435 C 0.62986 0.06578 0.86530
 C436 C 0.63480 0.04281 0.84109
 C437 C 0.61217 0.00223 0.83981
 C438 C 0.58312 -0.01552 0.86443
 C439 C 0.57743 0.00729 0.89024
 C440 C 0.60159 0.04871 0.89068
 O441 O 0.65356 0.10396 0.86079
 C442 C 0.67391 0.10499 0.83322
 C443 C 0.66371 0.06832 0.82042
 C444 C 0.68110 0.06249 0.79156
 C445 C 0.71010 0.09590 0.77499
 C446 C 0.72070 0.13415 0.78711
 C447 C 0.70235 0.13865 0.81682
 H448 H 0.61641 -0.01514 0.82021
 H449 H 0.56524 -0.04719 0.86337
 H450 H 0.59806 0.06725 0.90950
 H451 H 0.67250 0.03329 0.78197
 H452 H 0.72371 0.09195 0.75218
 H453 H 0.70979 0.16742 0.82670
 C454 C 0.11321 0.52382 0.41339
 C455 C 0.14811 0.55539 0.41822
 C456 C 0.15666 0.58535 0.44307
 C457 C 0.12798 0.58295 0.46334
 C458 C 0.09156 0.55116 0.45819
 C459 C 0.08432 0.52100 0.43302
 O460 O 0.11074 0.49866 0.38826
 C461 C 0.14483 0.51477 0.37680
 C462 C 0.16873 0.54963 0.39409
 C463 C 0.20557 0.57200 0.38544
 C464 C 0.21829 0.55776 0.35804
 C465 C 0.19430 0.52154 0.34013
 C466 C 0.15697 0.49979 0.34980
 H467 H 0.18435 0.60995 0.44639
 H468 H 0.13403 0.60641 0.48224
 H469 H 0.05689 0.49638 0.42828
 H470 H 0.22385 0.59951 0.39919
 H471 H 0.24696 0.57474 0.35116
 H472 H 0.13789 0.47223 0.33655
 C473 C 0.54970 0.65295 0.42240
 C474 C 0.58450 0.66358 0.41285
 C475 C 0.60157 0.64550 0.42717
 C476 C 0.58190 0.61511 0.45220
 C477 C 0.54623 0.60406 0.46287
 C478 C 0.53006 0.62357 0.44804
 O479 O 0.53754 0.67182 0.40371
 C480 C 0.56529 0.69494 0.38200
 C481 C 0.59482 0.69133 0.38678
 C482 C 0.62647 0.71214 0.36625
 C483 C 0.62756 0.73733 0.33937
 C484 C 0.59704 0.74070 0.33309
 C485 C 0.56559 0.71941 0.35509
 H486 H 0.62871 0.65386 0.41874
 H487 H 0.59437 0.60014 0.46330
 H488 H 0.50252 0.61500 0.45513
 H489 H 0.64929 0.70865 0.37038
 H490 H 0.65171 0.75312 0.32262
 H491 H 0.54178 0.72113 0.35088
 C492 C 0.37781 0.92323 0.37577
 C493 C 0.36007 0.88605 0.39007
 C494 C 0.37096 0.87698 0.42189
 C495 C 0.40158 0.90743 0.43973
 C496 C 0.42113 0.94622 0.42541
 C497 C 0.40868 0.95403 0.39285
 O498 O 0.36286 0.92538 0.34515
 C499 C 0.33522 0.88867 0.34000
 C500 C 0.33254 0.86349 0.36667
 C501 C 0.30642 0.82353 0.36622
 C502 C 0.28201 0.80881 0.33704
 C503 C 0.28380 0.83410 0.30927
 C504 C 0.31074 0.87475 0.31095
 H505 H 0.35645 0.84742 0.43257
 H506 H 0.41027 0.90040 0.46447
 H507 H 0.42262 0.98306 0.38097
 H508 H 0.30506 0.80430 0.38743
 H509 H 0.26147 0.77770 0.33625
 H510 H 0.31298 0.89468 0.29001
 C511 C 0.55264 0.88548 0.06588
 C512 C 0.58874 0.91306 0.07262
 C513 C 0.60790 0.94854 0.05416
 C514 C 0.58893 0.95612 0.02808
 C515 C 0.55182 0.92804 0.02054
 C516 C 0.53357 0.89196 0.03930
 O517 O 0.53878 0.85511 0.08828
 C518 C 0.56672 0.86364 0.10956
 C519 C 0.59800 0.89861 0.10093
 C520 C 0.63019 0.91367 0.12041
 C521 C 0.63010 0.89189 0.15008
 C522 C 0.59796 0.85612 0.16006
 C523 C 0.56588 0.84178 0.13923
 H524 H 0.63608 0.97012 0.06042
 H525 H 0.60288 0.98404 0.01412
 H526 H 0.50491 0.87065 0.03480
 H527 H 0.65441 0.94141 0.11326
 H528 H 0.65482 0.90340 0.16580
 H529 H 0.54088 0.81467 0.14616
 C530 C 0.36146 0.44675 0.12462
 C531 C 0.34142 0.41108 0.14179
 C532 C 0.34881 0.38151 0.13769
 C533 C 0.37812 0.38916 0.11515
 C534 C 0.39869 0.42548 0.09675
 C535 C 0.38994 0.45449 0.10132
 O536 O 0.35180 0.47189 0.13405
 C537 C 0.32497 0.45165 0.15756
 C538 C 0.31722 0.41412 0.16299
 C539 C 0.29047 0.38821 0.18708
 C540 C 0.27128 0.40172 0.20666
 C541 C 0.27966 0.44075 0.20238
 C542 C 0.30671 0.46586 0.17717
 H543 H 0.33315 0.35395 0.15199
 H544 H 0.38484 0.36691 0.11199
 H545 H 0.40583 0.48284 0.08830
 H546 H 0.28492 0.35886 0.19104
 H547 H 0.25087 0.38229 0.22609
 H548 H 0.31382 0.49584 0.17341
 C549 C 0.08147 0.64550 0.06922
 C550 C 0.05728 0.64852 0.09117
 C551 C 0.02005 0.62037 0.09108
 C552 C 0.00747 0.58777 0.06774
 C553 C 0.03206 0.58446 0.04477
 C554 C 0.06942 0.61420 0.04513
 O555 O 0.11600 0.67204 0.07658
 C556 C 0.11376 0.69243 0.10373
 C557 C 0.07847 0.67970 0.11349
 C558 C 0.07017 0.69500 0.14339
 C559 C 0.09934 0.72356 0.16459
 C560 C 0.13563 0.73544 0.15586
 C561 C 0.14294 0.72034 0.12458
 H562 H 0.00161 0.62253 0.10942
 H563 H -0.02113 0.56481 0.06803
 H564 H 0.08900 0.61158 0.02900
 H565 H 0.04225 0.68402 0.15110
 H566 H 0.09359 0.73424 0.18917
 H567 H 0.17035 0.72787 0.11829
 C568 C 0.44342 0.08300 0.58844
 C569 C 0.41711 0.08726 0.57237
 C570 C 0.40775 0.07852 0.53594
 C571 C 0.42642 0.06509 0.51532
 C572 C 0.45310 0.05986 0.53166
 C573 C 0.46144 0.06862 0.56879
 O574 O 0.44982 0.09497 0.62270
 C575 C 0.42696 0.10686 0.62851
 C576 C 0.40597 0.10240 0.59879
 C577 C 0.38013 0.11297 0.59929
 C578 C 0.37597 0.12893 0.63169
 C579 C 0.39820 0.13481 0.66216
 C580 C 0.42391 0.12347 0.66049
 H581 H 0.38738 0.08263 0.52367
 H582 H 0.42010 0.05864 0.48677
 H583 H 0.48229 0.06568 0.58164
 H584 H 0.36384 0.10913 0.57563
 H585 H 0.35621 0.13758 0.63281
 H586 H 0.44099 0.12737 0.68351
 C587 C 0.61903 0.54556 0.62477
 C588 C 0.63140 0.57931 0.64490
 C589 C 0.61686 0.60280 0.64138
 C590 C 0.58837 0.59078 0.61631
 C591 C 0.57550 0.55616 0.59519
 C592 C 0.59144 0.53359 0.59938
 O593 O 0.63462 0.52598 0.63347
 C594 C 0.65744 0.54777 0.65963
 C595 C 0.65691 0.58095 0.66760
 C596 C 0.67840 0.60725 0.69490
 C597 C 0.70089 0.59862 0.71491
 C598 C 0.70080 0.56385 0.70769
 C599 C 0.67904 0.53846 0.67933
 H600 H 0.62656 0.62893 0.65783
 H601 H 0.57627 0.60825 0.61347
 H602 H 0.58173 0.50658 0.58430
 H603 H 0.67751 0.63313 0.70088
 H604 H 0.71736 0.61821 0.73669
 H605 H 0.67841 0.51173 0.67312
 C606 C 0.94001 0.40443 0.59716
 C607 C 0.95645 0.41474 0.63067
 C608 C 0.98790 0.45091 0.63765
 C609 C 1.00244 0.47806 0.60921
 C610 C 0.98522 0.46882 0.57470
 C611 C 0.95405 0.43096 0.56844
 O612 O 0.90913 0.36954 0.59686
 C613 C 0.90586 0.35774 0.63099
 C614 C 0.93404 0.38448 0.65282
 C615 C 0.93465 0.37965 0.69009
 C616 C 0.90502 0.34583 0.70547
 C617 C 0.87600 0.31775 0.68341
 C618 C 0.87650 0.32348 0.64563
 H619 H 1.00010 0.45847 0.66436
 H620 H 1.02619 0.50687 0.61463
 H621 H 0.93979 0.42319 0.54275
 H622 H 0.95673 0.40150 0.70681
 H623 H 0.90456 0.34142 0.73449
 H624 H 0.85419 0.30262 0.62850
   
