data_POSCAR
  _audit_creation_date              2014-09-24
  _audit_creation_method            'ToBaCCo'
  _symmetry_space_group_name_H-M    'P1'
  _symmetry_Int_Tables_number       1
  _symmetry_cell_setting            triclinic
  loop_
  _symmetry_equiv_pos_as_xyz
 x,y,z
_cell_length_a 26.3424
_cell_length_b 27.1598
_cell_length_c 9.1176
_cell_angle_alpha 88.941100
_cell_angle_beta 90.057300
_cell_angle_gamma 89.508500
loop_
  _atom_site_label
  _atom_site_type_symbol
  _atom_site_fract_x
  _atom_site_fract_y
  _atom_site_fract_z
O1 O 0.22290 0.28494 0.15785
 O2 O 0.29806 0.19176 0.34770
 O3 O 0.20614 0.19301 0.23818
 O4 O 0.30390 0.28765 0.32888
 O5 O 0.26213 0.30137 0.53423
 O6 O 0.17100 0.20832 0.45206
 O7 O 0.26165 0.20854 0.55934
 O8 O 0.18113 0.30220 0.36035
 Cu9 Cu 0.26125 0.23808 0.24820
 Cu10 Cu 0.21411 0.25728 0.49342
 C11 C 0.18910 0.30924 0.22336
 C12 C 0.29415 0.18451 0.48447
 C13 C 0.17217 0.18426 0.33504
 C14 C 0.29950 0.30954 0.45139
 O15 O 0.77843 0.22464 0.03016
 O16 O 0.69355 0.30884 0.22836
 O17 O 0.78653 0.31221 0.13500
 O18 O 0.68399 0.22139 0.11913
 O19 O 0.70799 0.19010 0.33361
 O20 O 0.81204 0.27973 0.34680
 O21 O 0.71998 0.27670 0.43969
 O22 O 0.80264 0.19094 0.24144
 Cu23 Cu 0.73301 0.26976 0.10707
 Cu24 Cu 0.76348 0.23062 0.36106
 C25 C 0.80526 0.19368 0.10247
 C26 C 0.69281 0.30744 0.36771
 C27 C 0.81637 0.31174 0.24432
 C28 C 0.67780 0.19095 0.22481
 O29 O 0.79265 0.80918 0.76663
 O30 O 0.69636 0.71382 0.67300
 O31 O 0.77592 0.71735 0.85035
 O32 O 0.70220 0.80929 0.65134
 O33 O 0.74125 0.79240 0.44365
 O34 O 0.81885 0.69840 0.65148
 O35 O 0.73960 0.69963 0.47048
 O36 O 0.83098 0.79212 0.55837
 Cu37 Cu 0.73823 0.76363 0.75516
 Cu38 Cu 0.78777 0.74332 0.51451
 C39 C 0.82779 0.81725 0.67301
 C40 C 0.70154 0.69178 0.55099
 C41 C 0.80990 0.69221 0.78837
 C42 C 0.70786 0.81652 0.51512
 O43 O 0.31784 0.78192 0.87936
 O44 O 0.21464 0.69144 0.86883
 O45 O 0.30723 0.69436 0.77201
 O46 O 0.22371 0.77886 0.97313
 O47 O 0.19870 0.81291 0.76327
 O48 O 0.27981 0.72647 0.56173
 O49 O 0.18807 0.72418 0.65847
 O50 O 0.29245 0.81335 0.66626
 Cu51 Cu 0.26859 0.73367 0.89433
 Cu52 Cu 0.23689 0.77289 0.64192
 C53 C 0.32329 0.81236 0.77336
 C54 C 0.18412 0.69216 0.76104
 C55 C 0.30724 0.69567 0.63270
 C56 C 0.19666 0.81009 0.90239
 O57 O 1.03279 -0.06120 0.11957
 O58 O 0.93502 0.03609 0.08800
 O59 O 0.94286 -0.05433 -0.00193
 O60 O 1.02318 0.02864 0.20936
 O61 O 1.06051 0.05633 0.00766
 O62 O 0.97928 -0.02624 -0.20455
 O63 O 0.97097 0.06395 -0.11569
 O64 O 1.06816 -0.03398 -0.08573
 Cu65 Cu 0.97992 -0.01557 0.12403
 Cu66 Cu 1.02334 0.01782 -0.12014
 C67 C 1.06693 -0.06426 0.02185
 C68 C 0.93659 0.06676 -0.01859
 C69 C 0.94770 -0.05436 -0.14029
 C70 C 1.05493 0.05672 0.14590
 O71 O 0.44926 0.45049 0.39333
 O72 O 0.54605 0.54702 0.36343
 O73 O 0.54765 0.45144 0.38158
 O74 O 0.44745 0.54656 0.37513
 O75 O 0.45204 0.55164 0.61629
 O76 O 0.55217 0.45656 0.62276
 O77 O 0.55048 0.55250 0.60449
 O78 O 0.45380 0.45602 0.63435
 Cu79 Cu 0.49720 0.49855 0.35440
 Cu80 Cu 0.50249 0.50457 0.64339
 C81 C 0.43522 0.43677 0.52050
 C82 C 0.56472 0.56610 0.47743
 C83 C 0.56676 0.43768 0.50354
 C84 C 0.43286 0.56539 0.49444
 O85 O 0.06082 0.47070 0.13564
 O86 O -0.04149 0.56302 0.09066
 O87 O -0.03325 0.47455 0.20474
 O88 O 0.05475 0.55994 0.01934
 O89 O 0.03296 0.53022 -0.19550
 O90 O -0.05531 0.44517 -0.01034
 O91 O -0.06132 0.53417 -0.12692
 O92 O 0.04055 0.44154 -0.08120
 Cu93 Cu 0.01234 0.52052 0.13379
 Cu94 Cu -0.01281 0.48444 -0.12482
 C95 C 0.06741 0.43981 0.03466
 C96 C -0.06838 0.56465 -0.02517
 C97 C -0.05864 0.44482 0.12872
 C98 C 0.05825 0.56008 -0.11968
 O99 O 0.51845 1.04003 0.29429
 O100 O 0.44703 0.94382 0.49276
 O101 O 0.43237 1.03673 0.43251
 O102 O 0.53426 0.94712 0.35136
 O103 O 0.57161 0.96563 0.56000
 O104 O 0.46996 1.05543 0.64064
 O105 O 0.48560 0.96281 0.69918
 O106 O 0.55741 1.05874 0.50034
 Cu107 Cu 0.47914 0.98984 0.37215
 Cu108 Cu 0.52511 1.01271 0.62051
 C109 C 0.55040 1.06548 0.36352
 C110 C 0.45370 0.93734 0.62983
 C111 C 0.43357 1.06102 0.55023
 C112 C 0.57049 0.94136 0.44224
 N113 N 1.07033 0.10031 0.37546
 N114 N 1.10243 0.13645 0.42664
 C115 C 1.13521 0.14827 0.31828
 C116 C 1.12474 0.12022 0.19548
 C117 C 1.08361 0.09094 0.23642
 H118 H 1.14355 0.12171 0.09002
 H119 H 1.04007 0.08522 0.43440
 H120 H 1.10042 0.15128 0.53142
 N121 N 0.62467 0.61535 0.32900
 N122 N 0.66059 0.64794 0.34930
 C123 C 0.66329 0.65820 0.49318
 C124 C 0.62724 0.63079 0.56881
 C125 C 0.60387 0.60378 0.45960
 H126 H 0.62024 0.62941 0.68574
 H127 H 0.61543 0.60068 0.22738
 H128 H 0.68316 0.66258 0.26531
 N129 N -0.08736 0.39661 0.34750
 N130 N -0.11930 0.36056 0.37739
 C131 C -0.14402 0.34920 0.25335
 C132 C -0.12699 0.37907 0.13919
 C133 C -0.09096 0.40853 0.20373
 H134 H -0.13871 0.37901 0.02538
 H135 H -0.06294 0.41204 0.42402
 H136 H -0.12414 0.34436 0.48117
 N137 N 0.43178 0.88627 0.85053
 N138 N 0.39726 0.85341 0.88867
 C139 C 0.36621 0.84651 0.77352
 C140 C 0.38179 0.87590 0.65658
 C141 C 0.42355 0.90045 0.71003
 H142 H 0.36506 0.87906 0.54830
 H143 H 0.46040 0.89862 0.91984
 H144 H 0.39503 0.83632 0.99200
 N145 N -0.13345 0.62048 0.07595
 N146 N -0.16805 0.65539 0.02249
 C147 C -0.16265 0.65854 -0.12457
 C148 C -0.12558 0.62515 -0.16865
 C149 C -0.10842 0.60224 -0.03957
 H150 H -0.11213 0.61900 -0.27901
 H151 H -0.12862 0.61059 0.18636
 H152 H -0.19259 0.67593 0.08784
 N153 N 0.38218 1.11642 0.71133
 N154 N 0.34392 1.14807 0.69515
 C155 C 0.32932 1.14868 0.55346
 C156 C 0.35910 1.11572 0.47691
 C157 C 0.39225 1.09624 0.58033
 H158 H 0.35857 1.10887 0.36031
 H159 H 0.40155 1.10961 0.80973
 H160 H 0.32980 1.17032 0.77823
 N161 N 1.11707 -0.12851 0.15729
 N162 N 1.15437 -0.16324 0.12333
 C163 C 1.16380 -0.15908 -0.02163
 C164 C 1.13391 -0.12161 -0.08247
 C165 C 1.10534 -0.10358 0.03271
 H166 H 1.13224 -0.10974 -0.19641
 H167 H 1.10145 -0.12349 0.26122
 H168 H 1.16995 -0.18895 0.19745
 N169 N 0.62648 0.37975 0.63091
 N170 N 0.65942 0.34513 0.59477
 C171 C 0.66039 0.34187 0.44765
 C172 C 0.62663 0.37583 0.38692
 C173 C 0.60591 0.39903 0.50716
 H174 H 0.61816 0.38250 0.27203
 H175 H 0.61819 0.38962 0.73851
 H176 H 0.68079 0.32417 0.66973
 N177 N 0.92711 -0.09515 -0.37215
 N178 N 0.89589 -0.12885 -0.42029
 C179 C 0.86558 -0.14375 -0.30934
 C180 C 0.87811 -0.11826 -0.18386
 C181 C 0.91762 -0.08785 -0.22935
 H182 H 0.86192 -0.12214 -0.07528
 H183 H 0.95530 -0.07840 -0.43558
 H184 H 0.89588 -0.14170 -0.52759
 N185 N 0.37691 0.38632 0.67051
 N186 N 0.34144 0.35321 0.65147
 C187 C 0.33790 0.34331 0.50750
 C188 C 0.37294 0.37154 0.43043
 C189 C 0.39659 0.39862 0.53904
 H190 H 0.37910 0.37338 0.31314
 H191 H 0.38664 0.40079 0.77202
 H192 H 0.31970 0.33799 0.73641
 N193 N 0.08681 0.60801 -0.33895
 N194 N 0.11901 0.64374 -0.36980
 C195 C 0.14417 0.65500 -0.24641
 C196 C 0.12712 0.62540 -0.13158
 C197 C 0.09064 0.59620 -0.19516
 H198 H 0.13917 0.62544 -0.01804
 H199 H 0.06209 0.59269 -0.41487
 H200 H 0.12374 0.65979 -0.47383
 N201 N 0.56885 1.11928 0.14658
 N202 N 0.60472 1.15471 0.10811
 C203 C 0.63707 1.15859 0.22187
 C204 C 0.62264 1.12656 0.33456
 C205 C 0.57982 1.10294 0.28340
 H206 H 0.64071 1.12133 0.44048
 H207 H 0.53882 1.10834 0.08014
 H208 H 0.60557 1.17419 0.00830
 N209 N 0.12764 0.37849 -0.06404
 N210 N 0.15965 0.34462 -0.01382
 C211 C 0.15891 0.34444 0.13404
 C212 C 0.12530 0.38053 0.18063
 C213 C 0.10636 0.40119 0.05063
 H214 H 0.11525 0.38966 0.29199
 H215 H 0.12059 0.38573 -0.17516
 H216 H 0.18110 0.32152 -0.08037
 N217 N 0.62174 0.88501 0.28323
 N218 N 0.65955 0.85293 0.30131
 C219 C 0.67379 0.85272 0.44331
 C220 C 0.64429 0.88638 0.51794
 C221 C 0.61164 0.90585 0.41330
 H222 H 0.64452 0.89357 0.63435
 H223 H 0.60259 0.89157 0.18434
 H224 H 0.67346 0.83005 0.21949
 N225 N 0.88964 0.13474 -0.14853
 N226 N 0.85442 0.16783 -0.11687
 C227 C 0.84059 0.16132 0.02437
 C228 C 0.86775 0.12213 0.08502
 C229 C 0.89845 0.10639 -0.02828
 H230 H 0.86654 0.10809 0.19685
 H231 H 0.90756 0.13211 -0.25026
 H232 H 0.84124 0.19515 -0.18984
 N233 N 0.37232 0.62285 0.36804
 N234 N 0.33944 0.65745 0.40487
 C235 C 0.33922 0.66106 0.55190
 C236 C 0.37338 0.62735 0.61187
 C237 C 0.39358 0.60394 0.49131
 H238 H 0.38246 0.62100 0.72651
 H239 H 0.38010 0.61273 0.26034
 H240 H 0.31757 0.67813 0.33049
   
