data_POSCAR
  _audit_creation_date              2014-09-24
  _audit_creation_method            'ToBaCCo'
  _symmetry_space_group_name_H-M    'P1'
  _symmetry_Int_Tables_number       1
  _symmetry_cell_setting            triclinic
  loop_
  _symmetry_equiv_pos_as_xyz
 x,y,z
_cell_length_a 43.7764
_cell_length_b 45.7145
_cell_length_c 42.1562
_cell_angle_alpha 90.894300
_cell_angle_beta 89.730300
_cell_angle_gamma 91.914400
loop_
  _atom_site_label
  _atom_site_type_symbol
  _atom_site_fract_x
  _atom_site_fract_y
  _atom_site_fract_z
N1 N 0.21678 0.20578 0.21872
 N2 N -0.22048 0.78566 0.18717
 N3 N -0.22162 0.23195 -0.24635
 N4 N 0.20430 0.78536 -0.21233
 N5 N 0.22023 1.22261 0.78716
 N6 N 0.79963 0.77949 0.82690
 N7 N 0.22037 0.79029 1.20806
 N8 N 0.77872 1.21313 1.22284
 O9 O 0.53038 0.97960 0.93956
 O10 O 0.47097 0.97403 1.02546
 O11 O 0.56114 1.00576 1.02623
 O12 O 0.43733 1.00702 0.96199
 O13 O 0.52525 0.97387 1.03054
 O14 O 0.47178 0.97726 0.94571
 O15 O 0.43685 1.00543 1.01908
 O16 O 0.56504 1.00382 0.96804
 C17 C 0.55724 0.98281 0.94961
 C18 C 0.44355 0.97956 1.02424
 C19 C 0.55297 0.97975 1.03049
 C20 C 0.44438 0.98234 0.95083
 O21 O 0.47128 1.03251 0.92647
 O22 O 0.52492 1.02835 1.05915
 O23 O 0.55162 1.05931 0.96482
 O24 O 0.46565 1.05941 1.02168
 O25 O 0.46993 1.02678 1.05657
 O26 O 0.52801 1.03526 0.92623
 O27 O 0.46288 1.06203 0.96497
 O28 O 0.54045 1.05983 1.02429
 Co29 Co 0.50011 1.00712 0.94005
 Co30 Co 0.49800 1.00224 1.03871
 Co31 Co 0.54931 1.03100 0.99569
 Co32 Co 0.45480 1.03218 0.99202
 O33 O 0.50078 1.01811 0.99125
 C34 C 0.46394 1.05739 0.93603
 C35 C 0.53513 1.05370 1.05251
 C36 C 0.54528 1.05617 0.93602
 C37 C 0.46426 1.05260 1.04992
 O38 O 0.03715 0.46559 0.07091
 O39 O 0.01961 0.52103 -0.05732
 O40 O 0.02470 0.43561 -0.01553
 O41 O 0.06018 0.52980 0.03232
 O42 O 0.04208 0.47435 -0.03788
 O43 O 0.03768 0.52063 0.07600
 O44 O 0.05160 0.52663 -0.02151
 O45 O 0.01319 0.43235 0.04120
 C46 C 0.03369 0.43956 0.06131
 C47 C 0.04441 0.53226 -0.04904
 C48 C 0.04486 0.44805 -0.03209
 C49 C 0.06046 0.53064 0.06157
 O50 O -0.02116 0.51997 0.07184
 O51 O -0.00828 0.47068 -0.06756
 O52 O -0.04309 0.45333 0.02941
 O53 O -0.00699 0.54786 -0.01329
 O54 O -0.03138 0.50890 -0.03166
 O55 O -0.02207 0.46466 0.07389
 O56 O 0.00383 0.55247 0.04315
 O57 O -0.03272 0.45523 -0.02599
 Co58 Co 0.00804 0.49268 0.06758
 Co59 Co 0.00511 0.49071 -0.03283
 Co60 Co -0.00777 0.44827 0.00781
 Co61 Co 0.02571 0.53570 0.01032
 O62 O 0.00885 0.49288 0.01526
 C63 C -0.01761 0.54570 0.06225
 C64 C -0.02801 0.45220 -0.05556
 C65 C -0.04414 0.45359 0.05876
 C66 C -0.03076 0.53592 -0.02567
 O67 O 1.03120 0.02980 0.48003
 O68 O 0.93541 0.01213 0.53110
 O69 O 0.96241 -0.00636 0.43394
 O70 O 1.01595 0.00172 0.57948
 O71 O 0.93132 0.00940 0.47166
 O72 O 1.03430 0.02334 0.53734
 O73 O 0.98083 0.02739 0.54361
 O74 O 1.01804 0.00345 0.43847
 C75 C 1.02794 0.02744 0.45062
 C76 C 0.95307 0.03207 0.54169
 C77 C 0.94052 0.00939 0.44320
 C78 C 1.03656 0.01959 0.56711
 O79 O 1.04900 -0.03345 0.52653
 O80 O 0.92972 -0.04655 0.47318
 O81 O 1.02256 -0.05404 0.45954
 O82 O 0.96084 -0.02183 0.56731
 O83 O 0.93847 -0.04713 0.53089
 O84 O 1.05526 -0.02101 0.46954
 O85 O 1.00748 -0.04682 0.55012
 O86 O 0.97026 -0.06213 0.45060
 Co87 Co 1.03719 -0.00220 0.50317
 Co88 Co 0.93886 -0.01776 0.50197
 Co89 Co 0.99345 -0.02849 0.44998
 Co90 Co 0.99461 -0.01011 0.54480
 O91 O 0.98855 -0.01599 0.49803
 C92 C 1.03454 -0.05161 0.54342
 C93 C 0.94243 -0.06463 0.45562
 C94 C 1.04950 -0.04608 0.45932
 C95 C 0.94362 -0.04301 0.55963
 C96 C 1.16633 0.19459 0.28992
 C97 C 1.16403 0.16401 0.29088
 C98 C 1.18069 0.14721 0.26927
 C99 C 1.19897 0.16091 0.24623
 C100 C 1.20074 0.19160 0.24456
 C101 C 1.18460 0.20831 0.26691
 C102 C 1.14356 0.14983 0.31305
 C103 C 1.12620 0.13754 0.33111
 C104 C 1.10599 0.12245 0.35177
 C105 C 1.08917 0.10870 0.36913
 C106 C 1.07005 0.09104 0.38963
 C107 C 1.05180 0.06815 0.37674
 C108 C 1.03652 0.04835 0.39670
 C109 C 1.03944 0.05117 0.42984
 C110 C 1.05646 0.07519 0.44259
 C111 C 1.07176 0.09494 0.42257
 H112 H 1.15353 0.20779 0.30651
 H113 H 1.17899 0.12352 0.26976
 H114 H 1.21086 0.14760 0.22902
 H115 H 1.18568 0.23198 0.26602
 H116 H 1.05034 0.06492 0.35127
 H117 H 1.02350 0.03016 0.38617
 H118 H 1.05918 0.07794 0.46800
 H119 H 1.08589 0.11255 0.43278
 C120 C 0.80255 -0.16348 0.25417
 C121 C 0.80972 -0.18342 0.27767
 C122 C 0.80487 -0.21346 0.27207
 C123 C 0.79375 -0.22357 0.24272
 C124 C 0.78749 -0.20373 0.21861
 C125 C 0.79148 -0.17356 0.22481
 C126 C 0.82433 -0.17305 0.30639
 C127 C 0.83765 -0.16370 0.32955
 C128 C 0.85431 -0.15174 0.35548
 C129 C 0.86926 -0.14039 0.37651
 C130 C 0.88772 -0.12524 0.40007
 C131 C 0.91961 -0.12524 0.39755
 C132 C 0.93766 -0.10677 0.41705
 C133 C 0.92396 -0.08792 0.43923
 C134 C 0.89196 -0.08929 0.44280
 C135 C 0.87397 -0.10778 0.42325
 H136 H 0.80644 -0.14019 0.25819
 H137 H 0.81047 -0.22909 0.29002
 H138 H 0.79078 -0.24690 0.23843
 H139 H 0.78718 -0.15789 0.20649
 H140 H 0.93049 -0.13856 0.37955
 H141 H 0.96222 -0.10622 0.41369
 H142 H 0.88071 -0.07507 0.45964
 H143 H 0.84929 -0.10748 0.42528
 C144 C 0.81177 0.17225 0.70384
 C145 C 0.82750 0.18853 0.68073
 C146 C 0.82541 0.21900 0.68046
 C147 C 0.80825 0.23321 0.70375
 C148 C 0.79307 0.21706 0.72757
 C149 C 0.79467 0.18641 0.72714
 C150 C 0.84672 0.17381 0.65828
 C151 C 0.86280 0.16046 0.64032
 C152 C 0.88114 0.14340 0.62019
 C153 C 0.89595 0.12743 0.60368
 C154 C 0.91212 0.10651 0.58477
 C155 C 0.94282 0.10104 0.59091
 C156 C 0.95694 0.07763 0.57561
 C157 C 0.94026 0.05935 0.55434
 C158 C 0.90991 0.06590 0.54728
 C159 C 0.89596 0.08931 0.56240
 H160 H 0.81333 0.14866 0.70431
 H161 H 0.83751 0.23180 0.66268
 H162 H 0.80734 0.25685 0.70372
 H163 H 0.78360 0.17354 0.74551
 H164 H 0.95546 0.11412 0.60837
 H165 H 0.98033 0.07301 0.58153
 H166 H 0.89658 0.05230 0.53082
 H167 H 0.87217 0.09327 0.55758
 C168 C 1.19179 -0.17898 0.70926
 C169 C 1.16001 -0.18239 0.70624
 C170 C 1.14294 -0.19660 0.72991
 C171 C 1.15749 -0.20725 0.75656
 C172 C 1.18937 -0.20386 0.75989
 C173 C 1.20641 -0.18967 0.73595
 C174 C 1.14458 -0.17024 0.67967
 C175 C 1.13100 -0.15948 0.65820
 C176 C 1.11450 -0.14593 0.63413
 C177 C 1.10007 -0.13329 0.61463
 C178 C 1.08263 -0.11664 0.59287
 C179 C 1.05117 -0.11405 0.59765
 C180 C 1.03496 -0.09416 0.58000
 C181 C 1.05012 -0.07648 0.55746
 C182 C 1.08137 -0.08047 0.55149
 C183 C 1.09754 -0.10038 0.56919
 H184 H 1.20520 -0.16787 0.69115
 H185 H 1.11832 -0.19914 0.72796
 H186 H 1.14383 -0.21780 0.77484
 H187 H 1.23099 -0.18693 0.73797
 H188 H 1.03943 -0.12642 0.61603
 H189 H 1.01093 -0.09155 0.58517
 H190 H 1.09365 -0.06720 0.53426
 H191 H 1.12191 -0.10212 0.56538
 C192 C 0.29580 1.17593 1.21888
 C193 C 0.30178 1.17356 1.18630
 C194 C 0.28003 1.18237 1.16451
 C195 C 0.25231 1.19323 1.17515
 C196 C 0.24592 1.19547 1.20781
 C197 C 0.26803 1.18687 1.22959
 C198 C 0.32945 1.16090 1.17478
 C199 C 0.35174 1.14974 1.16365
 C200 C 0.37656 1.13600 1.14886
 C201 C 0.39646 1.12364 1.13470
 C202 C 0.41836 1.10808 1.11593
 C203 C 0.42692 1.11860 1.08607
 C204 C 0.44360 1.10119 1.06520
 C205 C 0.45178 1.07294 1.07391
 C206 C 0.44476 1.06327 1.10469
 C207 C 0.42800 1.08071 1.12552
 H208 H 0.31243 1.16906 1.23595
 H209 H 0.28431 1.18043 1.13924
 H210 H 0.23558 1.19934 1.15784
 H211 H 0.26369 1.18851 1.25485
 H212 H 0.41944 1.13968 1.07833
 H213 H 0.44878 1.10929 1.04170
 H214 H 0.45081 1.04163 1.11207
 H215 H 0.42133 1.07227 1.14850
 C216 C 0.27431 0.80783 0.83443
 C217 C 0.27037 0.83794 0.83839
 C218 C 0.24497 0.85082 0.82502
 C219 C 0.22347 0.83366 0.80801
 C220 C 0.22712 0.80336 0.80413
 C221 C 0.25283 0.79064 0.81742
 C222 C 0.29236 0.85563 0.85611
 C223 C 0.31084 0.87056 0.87073
 C224 C 0.33266 0.88822 0.88739
 C225 C 0.35159 0.90350 0.90096
 C226 C 0.37464 0.92202 0.91609
 C227 C 0.36651 0.94750 0.93249
 C228 C 0.38918 0.96675 0.94474
 C229 C 0.42029 0.96077 0.94062
 C230 C 0.42817 0.93459 0.92509
 C231 C 0.40549 0.91542 0.91286
 H232 H 0.29392 0.79764 0.84458
 H233 H 0.24168 0.87410 0.82794
 H234 H 0.20370 0.84392 0.79833
 H235 H 0.25617 0.76738 0.81463
 H236 H 0.34270 0.95283 0.93515
 H237 H 0.38239 0.98662 0.95677
 H238 H 0.45189 0.92928 0.92163
 H239 H 0.41205 0.89577 0.90021
 C240 C 0.70872 0.82504 1.16595
 C241 C 0.71416 0.83093 1.13389
 C242 C 0.74071 0.82113 1.11914
 C243 C 0.76195 0.80583 1.13647
 C244 C 0.75689 0.80017 1.16882
 C245 C 0.72994 0.80973 1.18332
 C246 C 0.69310 0.84806 1.11653
 C247 C 0.67563 0.86297 1.10247
 C248 C 0.65527 0.88107 1.08674
 C249 C 0.63786 0.89708 1.07412
 C250 C 0.61699 0.91685 1.06025
 C251 C 0.62731 0.94487 1.05139
 C252 C 0.60657 0.96512 1.04080
 C253 C 0.57521 0.95758 1.03901
 C254 C 0.56518 0.92905 1.04693
 C255 C 0.58596 0.90885 1.05757
 H256 H 0.68826 0.83258 1.17762
 H257 H 0.74523 0.82571 1.09439
 H258 H 0.78267 0.79899 1.12483
 H259 H 0.72549 0.80550 1.20814
 H260 H 0.65127 0.95131 1.05341
 H261 H 0.61497 0.98688 1.03472
 H262 H 0.54118 0.92258 1.04569
 H263 H 0.57772 0.88724 1.06443
 C264 C 0.72010 1.20437 0.81261
 C265 C 0.69734 1.19253 0.79254
 C266 C 0.70063 1.19493 0.75963
 C267 C 0.72687 1.20864 0.74684
 C268 C 0.75018 1.22000 0.76685
 C269 C 0.74632 1.21800 0.79990
 C270 C 0.67167 1.17653 0.80603
 C271 C 0.65122 1.16266 0.81865
 C272 C 0.62865 1.14604 0.83508
 C273 C 0.61071 1.13165 0.85064
 C274 C 0.59113 1.11442 0.87116
 C275 C 0.57412 1.09013 0.85941
 C276 C 0.55803 1.07167 0.88035
 C277 C 0.55908 1.07721 0.91328
 C278 C 0.57535 1.10227 0.92462
 C279 C 0.59122 1.12068 0.90372
 H280 H 0.71789 1.20247 0.83811
 H281 H 0.68322 1.18575 0.74386
 H282 H 0.72931 1.20998 0.72133
 H283 H 0.76403 1.22616 0.81587
 H284 H 0.57402 1.08499 0.83424
 H285 H 0.54572 1.05255 0.87090
 H286 H 0.57651 1.10729 0.94979
 H287 H 0.60437 1.13934 0.91310
 C288 C 0.20256 0.27558 0.17621
 C289 C 0.17164 0.27151 0.16834
 C290 C 0.15578 0.24570 0.17676
 C291 C 0.17065 0.22409 0.19316
 C292 C 0.20160 0.22806 0.20142
 C293 C 0.21750 0.25392 0.19265
 C294 C 0.15579 0.29393 0.15226
 C295 C 0.14173 0.31246 0.13923
 C296 C 0.12454 0.33394 0.12457
 C297 C 0.10939 0.35227 0.11258
 C298 C 0.09094 0.37423 0.09899
 C299 C 0.09371 0.40319 0.11006
 C300 C 0.07513 0.42446 0.09773
 C301 C 0.05344 0.41700 0.07417
 C302 C 0.05097 0.38785 0.06300
 C303 C 0.06962 0.36660 0.07538
 H304 H 0.21502 0.29552 0.16985
 H305 H 0.13186 0.24234 0.17077
 H306 H 0.15806 0.20419 0.19937
 H307 H 0.24133 0.25737 0.19887
 H308 H 0.11009 0.40930 0.12838
 H309 H 0.07766 0.44671 0.10678
 H310 H 0.03461 0.38145 0.04478
 H311 H 0.06728 0.34421 0.06670
 C312 C -0.20409 0.30321 -0.20351
 C313 C -0.17279 0.30088 -0.19765
 C314 C -0.15766 0.27600 -0.20803
 C315 C -0.17367 0.25349 -0.22411
 C316 C -0.20508 0.25557 -0.23013
 C317 C -0.22018 0.28063 -0.21969
 C318 C -0.15602 0.32348 -0.18038
 C319 C -0.14110 0.34160 -0.16565
 C320 C -0.12285 0.36192 -0.14802
 C321 C -0.10683 0.37860 -0.13255
 C322 C -0.08745 0.39777 -0.11350
 C323 C -0.06352 0.41413 -0.12751
 C324 C -0.04411 0.43198 -0.10869
 C325 C -0.04846 0.43359 -0.07566
 C326 C -0.07260 0.41713 -0.06183
 C327 C -0.09195 0.39934 -0.08066
 H328 H -0.21603 0.32235 -0.19547
 H329 H -0.13350 0.27390 -0.20345
 H330 H -0.16162 0.23422 -0.23152
 H331 H -0.24436 0.28263 -0.22410
 H332 H -0.05975 0.41293 -0.15291
 H333 H -0.02564 0.44436 -0.11993
 H334 H -0.07650 0.41795 -0.03645
 H335 H -0.11032 0.38667 -0.06957
 C336 C 0.17659 0.72901 -0.15418
 C337 C 0.17021 0.70499 -0.17435
 C338 C 0.17629 0.70708 -0.20688
 C339 C 0.18822 0.73327 -0.21926
 C340 C 0.19411 0.75769 -0.19924
 C341 C 0.18848 0.75521 -0.16653
 C342 C 0.15608 0.67880 -0.16171
 C343 C 0.14360 0.65748 -0.15043
 C344 C 0.12838 0.63332 -0.13626
 C345 C 0.11497 0.61344 -0.12318
 C346 C 0.09862 0.59075 -0.10624
 C347 C 0.07094 0.57882 -0.11796
 C348 C 0.05364 0.55891 -0.09981
 C349 C 0.06383 0.55087 -0.06971
 C350 C 0.09206 0.56231 -0.05855
 C351 C 0.10931 0.58213 -0.07671
 H352 H 0.17182 0.72767 -0.12899
 H353 H 0.17137 0.68864 -0.22270
 H354 H 0.19249 0.73471 -0.24452
 H355 H 0.19250 0.77381 -0.15071
 H356 H 0.06238 0.58549 -0.14071
 H357 H 0.03192 0.55047 -0.10889
 H358 H 0.10042 0.55652 -0.03541
 H359 H 0.13060 0.59135 -0.06734
 C360 C -0.15415 0.74038 0.16312
 C361 C -0.16890 0.71724 0.14661
 C362 C -0.20070 0.71688 0.14292
 C363 C -0.21770 0.73951 0.15599
 C364 C -0.20303 0.76262 0.17294
 C365 C -0.17107 0.76294 0.17617
 C366 C -0.15119 0.69380 0.13403
 C367 C -0.13553 0.67449 0.12411
 C368 C -0.11642 0.65227 0.11311
 C369 C -0.09958 0.63355 0.10408
 C370 C -0.07904 0.61147 0.09361
 C371 C -0.08322 0.58264 0.10382
 C372 C -0.06305 0.56124 0.09391
 C373 C -0.03838 0.56848 0.07366
 C374 C -0.03430 0.59758 0.06365
 C375 C -0.05454 0.61891 0.07356
 H376 H -0.12956 0.74090 0.16605
 H377 H -0.21232 0.69904 0.13018
 H378 H -0.24230 0.73887 0.15332
 H379 H -0.15926 0.78071 0.18882
 H380 H -0.10209 0.57668 0.11942
 H381 H -0.06687 0.53903 0.10194
 H382 H -0.01557 0.60386 0.04805
 H383 H -0.05106 0.64119 0.06559
 C384 C 1.19846 0.17921 0.71526
 C385 C 1.16701 0.17508 0.72002
 C386 C 1.15296 0.18844 0.74608
 C387 C 1.17041 0.20516 0.76787
 C388 C 1.20244 0.20863 0.76412
 C389 C 1.21600 0.19585 0.73697
 C390 C 1.14956 0.15579 0.69911
 C391 C 1.13535 0.13899 0.68195
 C392 C 1.11901 0.11879 0.66218
 C393 C 1.10518 0.10129 0.64551
 C394 C 1.08863 0.08026 0.62578
 C395 C 1.07108 0.05766 0.63962
 C396 C 1.05452 0.03755 0.62052
 C397 C 1.05528 0.03986 0.58730
 C398 C 1.07331 0.06239 0.57357
 C399 C 1.08985 0.08247 0.59271
 H400 H 1.20958 0.16907 0.69508
 H401 H 1.12861 0.18527 0.75007
 H402 H 1.15905 0.21404 0.78857
 H403 H 1.24035 0.19852 0.73274
 H404 H 1.07002 0.05569 0.66518
 H405 H 1.04089 0.02040 0.63176
 H406 H 1.07434 0.06472 0.54806
 H407 H 1.10340 0.09984 0.58173
 C408 C 0.83527 -0.16238 0.77541
 C409 C 0.84343 -0.17873 0.74854
 C410 C 0.83784 -0.20910 0.74777
 C411 C 0.82383 -0.22298 0.77370
 C412 C 0.81522 -0.20657 0.80058
 C413 C 0.82130 -0.17618 0.80125
 C414 C 0.85704 -0.16398 0.72177
 C415 C 0.86819 -0.15061 0.69991
 C416 C 0.88105 -0.13392 0.67498
 C417 C 0.89199 -0.11891 0.65427
 C418 C 0.90511 -0.10018 0.63028
 C419 C 0.89834 -0.10522 0.59819
 C420 C 0.91079 -0.08658 0.57510
 C421 C 0.93013 -0.06264 0.58390
 C422 C 0.93679 -0.05780 0.61621
 C423 C 0.92436 -0.07645 0.63920
 H424 H 0.83954 -0.13890 0.77631
 H425 H 0.84404 -0.22197 0.72708
 H426 H 0.81922 -0.24638 0.77265
 H427 H 0.81511 -0.16314 0.82181
 H428 H 0.88341 -0.12350 0.59102
 H429 H 0.90529 -0.09090 0.55041
 H430 H 0.95162 -0.03961 0.62376
 H431 H 0.92970 -0.07230 0.66397
 C432 C 1.19172 -0.19702 0.29009
 C433 C 1.18605 -0.16710 0.28945
 C434 C 1.19213 -0.15139 0.26184
 C435 C 1.20365 -0.16545 0.23490
 C436 C 1.20940 -0.19572 0.23492
 C437 C 1.20329 -0.21122 0.26316
 C438 C 1.17278 -0.15259 0.31653
 C439 C 1.16084 -0.14002 0.33845
 C440 C 1.14572 -0.12498 0.36315
 C441 C 1.13159 -0.11206 0.38328
 C442 C 1.11303 -0.09672 0.40597
 C443 C 1.12176 -0.06856 0.41689
 C444 C 1.10171 -0.05242 0.43574
 C445 C 1.07262 -0.06424 0.44358
 C446 C 1.06464 -0.09299 0.43360
 C447 C 1.08469 -0.10906 0.41494
 H448 H 1.18706 -0.20943 0.31136
 H449 H 1.18752 -0.12828 0.26094
 H450 H 1.20717 -0.15274 0.21366
 H451 H 1.20789 -0.23429 0.26456
 H452 H 1.14359 -0.05872 0.40996
 H453 H 1.10841 -0.03032 0.44302
 H454 H 1.04242 -0.10271 0.43932
 H455 H 1.07763 -0.13077 0.40656
 C456 C 0.80906 0.14651 0.25881
 C457 C 0.82893 0.15880 0.28158
 C458 C 0.83226 0.18925 0.28467
 C459 C 0.81567 0.20738 0.26514
 C460 C 0.79528 0.19534 0.24212
 C461 C 0.79244 0.16450 0.23928
 C462 C 0.84545 0.13998 0.30201
 C463 C 0.85873 0.12379 0.31911
 C464 C 0.87364 0.10449 0.33928
 C465 C 0.88582 0.08787 0.35680
 C466 C 0.89967 0.06803 0.37824
 C467 C 0.88830 0.06535 0.40915
 C468 C 0.90146 0.04613 0.43016
 C469 C 0.92624 0.02921 0.42053
 C470 C 0.93752 0.03199 0.38935
 C471 C 0.92429 0.05129 0.36835
 H472 H 0.80641 0.12296 0.25610
 H473 H 0.84749 0.19901 0.30235
 H474 H 0.81822 0.23086 0.26853
 H475 H 0.77780 0.15422 0.22141
 H476 H 0.86924 0.07817 0.41706
 H477 H 0.89224 0.04460 0.45398
 H478 H 0.95665 0.01940 0.38124
 H479 H 0.93328 0.05318 0.34446
 C480 C 0.17961 0.29105 -0.19504
 C481 C 0.18577 0.29494 -0.16269
 C482 C 0.20405 0.27515 -0.14728
 C483 C 0.21585 0.25136 -0.16395
 C484 C 0.20956 0.24677 -0.19658
 C485 C 0.19137 0.26728 -0.21184
 C486 C 0.17207 0.31833 -0.14489
 C487 C 0.15988 0.33726 -0.12966
 C488 C 0.14459 0.35861 -0.11156
 C489 C 0.13047 0.37599 -0.09600
 C490 C 0.11208 0.39554 -0.07745
 C491 C 0.09500 0.38455 -0.05188
 C492 C 0.07422 0.40221 -0.03606
 C493 C 0.07019 0.43117 -0.04561
 C494 C 0.08848 0.44254 -0.07035
 C495 C 0.10923 0.42475 -0.08627
 H496 H 0.16545 0.30624 -0.20723
 H497 H 0.20870 0.27775 -0.12215
 H498 H 0.22896 0.23591 -0.15092
 H499 H 0.18643 0.26505 -0.23692
 H500 H 0.09697 0.36200 -0.04485
 H501 H 0.06054 0.39286 -0.01703
 H502 H 0.08577 0.46472 -0.07830
 H503 H 0.12226 0.43346 -0.10610
 C504 C -0.16382 0.26569 0.18930
 C505 C -0.18179 0.28979 0.18374
 C506 C -0.21268 0.28876 0.19236
 C507 C -0.22570 0.26354 0.20597
 C508 C -0.20806 0.23869 0.21113
 C509 C -0.17671 0.24044 0.20287
 C510 C -0.16857 0.31511 0.16826
 C511 C -0.15683 0.33574 0.15485
 C512 C -0.14207 0.35918 0.13879
 C513 C -0.12841 0.37849 0.12494
 C514 C -0.11058 0.40054 0.10841
 C515 C -0.11131 0.40160 0.07524
 C516 C -0.09084 0.42022 0.05897
 C517 C -0.06924 0.43785 0.07574
 C518 C -0.06973 0.43767 0.10912
 C519 C -0.09023 0.41910 0.12531
 H520 H -0.13989 0.26620 0.18256
 H521 H -0.22679 0.30735 0.18830
 H522 H -0.24963 0.26348 0.21258
 H523 H -0.16237 0.22182 0.20566
 H524 H -0.12687 0.38723 0.06191
 H525 H -0.09097 0.41978 0.03327
 H526 H -0.05342 0.45098 0.12272
 H527 H -0.08937 0.41839 0.15097
 C528 C -0.14651 0.72344 -0.14436
 C529 C -0.16693 0.70218 -0.13221
 C530 C -0.19845 0.70613 -0.13409
 C531 C -0.20946 0.73135 -0.14785
 C532 C -0.18906 0.75296 -0.15986
 C533 C -0.15746 0.74865 -0.15808
 C534 C -0.15525 0.67682 -0.11710
 C535 C -0.14434 0.65624 -0.10426
 C536 C -0.13005 0.63304 -0.08906
 C537 C -0.11636 0.61421 -0.07601
 C538 C -0.09801 0.59316 -0.06048
 C539 C -0.07735 0.60291 -0.03710
 C540 C -0.05646 0.58378 -0.02471
 C541 C -0.05593 0.55453 -0.03548
 C542 C -0.07775 0.54444 -0.05784
 C543 C -0.09860 0.56375 -0.07041
 H544 H -0.12207 0.72069 -0.14291
 H545 H -0.21447 0.68984 -0.12474
 H546 H -0.23389 0.73408 -0.14910
 H547 H -0.14124 0.76505 -0.16679
 H548 H -0.07661 0.62561 -0.02928
 H549 H -0.04000 0.59219 -0.00749
 H550 H -0.07777 0.52206 -0.06666
 H551 H -0.11440 0.55599 -0.08862
 C552 C 0.16964 0.72445 0.19605
 C553 C 0.18941 0.70565 0.18027
 C554 C 0.21992 0.71445 0.17539
 C555 C 0.23047 0.74224 0.18546
 C556 C 0.21059 0.76197 0.20050
 C557 C 0.18008 0.75228 0.20617
 C558 C 0.17779 0.67821 0.16719
 C559 C 0.16735 0.65588 0.15537
 C560 C 0.15406 0.63059 0.14072
 C561 C 0.14154 0.60985 0.12766
 C562 C 0.12494 0.58630 0.11162
 C563 C 0.12735 0.58292 0.07864
 C564 C 0.10763 0.56328 0.06237
 C565 C 0.08509 0.54693 0.07893
 C566 C 0.08402 0.54927 0.11225
 C567 C 0.10378 0.56889 0.12845
 H568 H 0.14588 0.71793 0.19972
 H569 H 0.23545 0.70005 0.16324
 H570 H 0.25423 0.74843 0.18131
 H571 H 0.16381 0.76675 0.21700
 H572 H 0.14354 0.59641 0.06535
 H573 H 0.10897 0.56204 0.03672
 H574 H 0.06694 0.53698 0.12567
 H575 H 0.10160 0.57141 0.15395
 C576 C 0.27941 1.16892 0.80418
 C577 C 0.30413 1.18744 0.81275
 C578 C 0.30112 1.21780 0.81231
 C579 C 0.27335 1.22961 0.80354
 C580 C 0.24798 1.21118 0.79512
 C581 C 0.25168 1.18057 0.79547
 C582 C 0.33182 1.17487 0.82369
 C583 C 0.35396 1.16316 0.83377
 C584 C 0.37850 1.14822 0.84687
 C585 C 0.39807 1.13458 0.85941
 C586 C 0.41951 1.11741 0.87622
 C587 C 0.42827 1.12600 0.90692
 C588 C 0.44443 1.10706 0.92577
 C589 C 0.45195 1.07918 0.91417
 C590 C 0.44475 1.07141 0.88260
 C591 C 0.42844 1.09040 0.86379
 H592 H 0.28137 1.14537 0.80481
 H593 H 0.32013 1.23234 0.81902
 H594 H 0.27176 1.25318 0.80302
 H595 H 0.23273 1.16553 0.79003
 H596 H 0.42134 1.14677 0.91686
 H597 H 0.44979 1.11372 0.94994
 H598 H 0.45023 1.05009 0.87304
 H599 H 0.42158 1.08344 0.84011
 C600 C 0.28302 0.83986 1.17938
 C601 C 0.28001 0.83629 1.14652
 C602 C 0.25740 0.81711 1.13417
 C603 C 0.23772 0.80165 1.15456
 C604 C 0.24023 0.80510 1.18786
 C605 C 0.26338 0.82446 1.19987
 C606 C 0.29992 0.85266 1.12556
 C607 C 0.31674 0.86676 1.10850
 C608 C 0.33675 0.88378 1.08938
 C609 C 0.35428 0.89882 1.07407
 C610 C 0.37583 0.91745 1.05736
 C611 C 0.36702 0.94465 1.04642
 C612 C 0.38889 0.96443 1.03412
 C613 C 0.41986 0.95725 1.03283
 C614 C 0.42825 0.92930 1.04240
 C615 C 0.40636 0.90958 1.05468
 H616 H 0.30056 0.85460 1.18919
 H617 H 0.25477 0.81431 1.10875
 H618 H 0.21989 0.78760 1.14423
 H619 H 0.26656 0.82734 1.22520
 H620 H 0.34345 0.95099 1.04844
 H621 H 0.38174 0.98573 1.02676
 H622 H 0.45191 0.92311 1.04158
 H623 H 0.41344 0.88861 1.06316
 C624 C 0.71028 1.19817 1.17294
 C625 C 0.69122 1.18283 1.19406
 C626 C 0.70065 1.17892 1.22529
 C627 C 0.72939 1.18969 1.23518
 C628 C 0.74941 1.20445 1.21387
 C629 C 0.73902 1.20893 1.18267
 C630 C 0.66322 1.16911 1.18266
 C631 C 0.64082 1.15687 1.17156
 C632 C 0.61609 1.14176 1.15660
 C633 C 0.59650 1.12829 1.14197
 C634 C 0.57537 1.11168 1.12215
 C635 C 0.56493 1.08365 1.13095
 C636 C 0.54967 1.06527 1.10889
 C637 C 0.54514 1.07468 1.07770
 C638 C 0.55389 1.10355 1.06981
 C639 C 0.56894 1.12189 1.09189
 H640 H 0.70332 1.20103 1.14858
 H641 H 0.68608 1.16702 1.24184
 H642 H 0.73611 1.18635 1.25951
 H643 H 0.75372 1.21949 1.16526
 H644 H 0.57000 1.07544 1.15425
 H645 H 0.54317 1.04316 1.11563
 H646 H 0.55050 1.11148 1.04604
 H647 H 0.57705 1.14346 1.08475
 C648 C 0.74924 0.81434 0.88804
 C649 C 0.72720 0.82654 0.86873
 C650 C 0.72809 0.82173 0.83588
 C651 C 0.75133 0.80544 0.82227
 C652 C 0.77401 0.79376 0.84136
 C653 C 0.77252 0.79798 0.87444
 C654 C 0.70462 0.84529 0.88220
 C655 C 0.68590 0.86167 0.89266
 C656 C 0.66414 0.88144 0.90399
 C657 C 0.64557 0.89866 0.91292
 C658 C 0.62331 0.91947 0.92273
 C659 C 0.59383 0.91760 0.91004
 C660 C 0.57236 0.93824 0.91872
 C661 C 0.58014 0.96115 0.94018
 C662 C 0.60983 0.96279 0.95292
 C663 C 0.63125 0.94206 0.94425
 H664 H 0.74885 0.81804 0.91348
 H665 H 0.71120 0.83111 0.82070
 H666 H 0.75205 0.80238 0.79676
 H667 H 0.78995 0.78946 0.88954
 H668 H 0.58747 0.90025 0.89330
 H669 H 0.54971 0.93628 0.90853
 H670 H 0.61651 0.98007 0.96959
 H671 H 0.65403 0.94375 0.95418
   
