data_POSCAR
  _audit_creation_date              2014-09-24
  _audit_creation_method            'ToBaCCo'
  _symmetry_space_group_name_H-M    'P1'
  _symmetry_Int_Tables_number       1
  _symmetry_cell_setting            triclinic
  loop_
  _symmetry_equiv_pos_as_xyz
 x,y,z
_cell_length_a 28.4313
_cell_length_b 26.9499
_cell_length_c 36.1060
_cell_angle_alpha 89.935000
_cell_angle_beta 89.997600
_cell_angle_gamma 90.155200
loop_
  _atom_site_label
  _atom_site_type_symbol
  _atom_site_fract_x
  _atom_site_fract_y
  _atom_site_fract_z
B1 B 0.27516 0.22716 0.21485
 B2 B 0.29156 0.28622 0.22201
 B3 B 0.23644 0.27383 0.20801
 B4 B 0.21846 0.22019 0.22837
 B5 B 0.26349 0.20047 0.25554
 B6 B 0.30901 0.24168 0.25175
 B7 B 0.23455 0.29118 0.28147
 B8 B 0.21804 0.23202 0.27443
 B9 B 0.27324 0.24386 0.28831
 B10 B 0.29119 0.29777 0.26815
 B11 B 0.24612 0.31763 0.24062
 B12 B 0.20064 0.27626 0.24458
 B13 B 0.74221 0.77288 0.21400
 B14 B 0.73178 0.71321 0.22628
 B15 B 0.78708 0.73208 0.21676
 B16 B 0.79442 0.79060 0.23270
 B17 B 0.74276 0.80733 0.25281
 B18 B 0.70344 0.75973 0.24818
 B19 B 0.77690 0.72749 0.29085
 B20 B 0.78718 0.78666 0.27932
 B21 B 0.73186 0.76850 0.28830
 B22 B 0.72448 0.70995 0.27251
 B23 B 0.77639 0.69300 0.25269
 B24 B 0.81536 0.74113 0.25670
 B25 B 0.72215 0.23060 -0.28988
 B26 B 0.77788 0.22063 -0.27625
 B27 B 0.76011 0.27893 -0.28439
 B28 B 0.70363 0.28467 -0.27082
 B29 B 0.68687 0.22879 -0.25297
 B30 B 0.73315 0.18851 -0.25632
 B31 B 0.75926 0.26449 -0.21054
 B32 B 0.70381 0.27502 -0.22452
 B33 B 0.72139 0.21662 -0.21599
 B34 B 0.77807 0.21054 -0.22986
 B35 B 0.79463 0.26639 -0.24740
 B36 B 0.74854 0.30671 -0.24410
 B37 B 0.26524 0.76218 -0.28967
 B38 B 0.20884 0.77143 -0.27756
 B39 B 0.22882 0.71319 -0.28254
 B40 B 0.28504 0.71064 -0.26728
 B41 B 0.29913 0.76847 -0.25218
 B42 B 0.25173 0.80662 -0.25861
 B43 B 0.22626 0.73397 -0.20959
 B44 B 0.28264 0.72472 -0.22149
 B45 B 0.26274 0.78312 -0.21677
 B46 B 0.20658 0.78543 -0.23187
 B47 B 0.19244 0.72759 -0.24705
 B48 B 0.23981 0.68951 -0.24067
 B49 B 1.24216 1.27869 0.71548
 B50 B 1.22779 1.22002 0.72726
 B51 B 1.28323 1.23366 0.71407
 B52 B 1.29734 1.29075 0.73039
 B53 B 1.24988 1.31158 0.75468
 B54 B 1.20634 1.26784 0.75207
 B55 B 1.28138 1.22738 0.78855
 B56 B 1.29530 1.28581 0.77719
 B57 B 1.23991 1.27219 0.79014
 B58 B 1.22580 1.21528 0.77375
 B59 B 1.27351 1.19449 0.75008
 B60 B 1.31677 1.23853 0.75183
 B61 B 0.77687 0.73382 0.78307
 B62 B 0.72138 0.71579 0.77311
 B63 B 0.73247 0.77539 0.78449
 B64 B 0.78521 0.79189 0.76613
 B65 B 0.80604 0.74140 0.74324
 B66 B 0.76621 0.69414 0.74763
 B67 B 0.72338 0.76903 0.71004
 B68 B 0.77872 0.78676 0.71945
 B69 B 0.76789 0.72735 0.70891
 B70 B 0.71489 0.71120 0.72693
 B71 B 0.69407 0.76199 0.75001
 B72 B 0.73413 0.80886 0.74508
 B73 B 1.22274 0.71185 0.28219
 B74 B 1.20528 0.77099 0.27762
 B75 B 1.26142 0.75900 0.28906
 B76 B 1.27851 0.70664 0.26637
 B77 B 1.23188 0.68786 0.24021
 B78 B 1.18636 0.72817 0.24709
 B79 B 1.25866 0.78034 0.21612
 B80 B 1.27592 0.72099 0.22060
 B81 B 1.21980 0.73309 0.20925
 B82 B 1.20280 0.78542 0.23186
 B83 B 1.24936 0.80418 0.25814
 B84 B 1.29490 0.76375 0.25121
 B85 B 0.76183 1.28475 0.28464
 B86 B 0.78123 1.22685 0.27783
 B87 B 0.72475 1.23546 0.28994
 B88 B 0.70569 1.28838 0.26985
 B89 B 0.75126 1.31113 0.24396
 B90 B 0.79813 1.27221 0.24863
 B91 B 0.72749 1.22023 0.21601
 B92 B 0.70763 1.27818 0.22400
 B93 B 0.76407 1.26901 0.21101
 B94 B 0.78355 1.21583 0.23146
 B95 B 0.73833 1.19315 0.25726
 B96 B 0.69093 1.23158 0.25206
 O97 O 0.45156 1.08282 0.03475
 O98 O 0.54448 0.89346 0.03161
 O99 O 0.40332 0.93443 0.02052
 O100 O 0.59312 1.04388 0.02520
 O101 O 0.46356 0.90472 0.04548
 O102 O 0.53085 1.07042 0.04938
 O103 O 0.57807 0.96102 0.04954
 O104 O 0.41848 1.01408 0.04972
 C105 C 0.42565 1.05838 0.05625
 C106 C 0.57088 0.91608 0.05398
 C107 C 0.42083 0.91194 0.04674
 C108 C 0.57381 1.06601 0.05097
 O109 O 0.55459 1.07984 -0.02532
 O110 O 0.44264 0.90213 -0.03046
 O111 O 0.41002 1.05570 -0.01666
 O112 O 0.58749 0.92578 -0.01845
 O113 O 0.52400 0.90406 -0.04363
 O114 O 0.47424 1.07657 -0.04065
 O115 O 0.58144 1.00952 -0.04330
 O116 O 0.41723 0.97473 -0.04515
 Co117 Co 0.50238 1.06935 0.00433
 Co118 Co 0.49404 0.90918 0.00098
 Co119 Co 0.42135 0.99427 0.00222
 Co120 Co 0.57589 0.98563 0.00317
 O121 O 0.49849 0.98960 0.00266
 C122 C 0.57774 1.05473 -0.04816
 C123 C 0.41950 0.92985 -0.05179
 C124 C 0.43103 1.07634 -0.04223
 C125 C 0.56728 0.90583 -0.04481
 O126 O 0.95298 0.58318 0.53503
 O127 O 1.04655 0.39594 0.53196
 O128 O 0.90527 0.43414 0.52064
 O129 O 1.09443 0.54634 0.52290
 O130 O 0.96636 0.40553 0.54505
 O131 O 1.03308 0.57227 0.54836
 O132 O 1.07925 0.46427 0.54939
 O133 O 0.91943 0.51437 0.55001
 C134 C 0.92646 0.55886 0.55626
 C135 C 1.07208 0.41945 0.55443
 C136 C 0.92348 0.41126 0.54636
 C137 C 1.07603 0.56740 0.54936
 O138 O 1.05436 0.58071 0.47266
 O139 O 0.94541 0.40290 0.46929
 O140 O 0.91008 0.55574 0.48404
 O141 O 1.08906 0.42714 0.48243
 O142 O 1.02668 0.40681 0.45582
 O143 O 0.97342 0.57795 0.45925
 O144 O 1.08208 0.50994 0.45600
 O145 O 0.91796 0.47490 0.45518
 Co146 Co 1.00320 0.57062 0.50372
 Co147 Co 0.99662 0.41066 0.50063
 Co148 Co 0.92242 0.49435 0.50250
 Co149 Co 1.07717 0.48737 0.50268
 O150 O 0.99984 0.49077 0.50240
 C151 C 1.07788 0.55492 0.45037
 C152 C 0.92115 0.43014 0.44845
 C153 C 0.93014 0.57697 0.45830
 C154 C 1.06990 0.40968 0.45486
 O155 O 1.05632 0.46631 0.05972
 O156 O 1.05375 0.52362 -0.06697
 O157 O 1.05675 0.40955 -0.02200
 O158 O 1.05465 0.58077 0.01590
 O159 O 1.03151 0.43839 -0.07327
 O160 O 1.03153 0.55028 0.06733
 O161 O 1.02505 0.59045 -0.04616
 O162 O 1.02887 0.39814 0.04025
 C163 C 1.06055 0.42094 0.05672
 C164 C 1.05669 0.56914 -0.06345
 C165 C 1.06203 0.41479 -0.05573
 C166 C 1.05957 0.57732 0.04979
 O167 O 0.93946 0.52019 0.06114
 O168 O 0.93847 0.46477 -0.06587
 O169 O 0.93902 0.40720 0.01631
 O170 O 0.93651 0.57873 -0.02126
 O171 O 0.96073 0.54964 -0.07273
 O172 O 0.96408 0.43625 0.06753
 O173 O 0.96589 0.58840 0.04063
 O174 O 0.96746 0.39749 -0.04626
 Co175 Co 0.99780 0.49324 0.05733
 Co176 Co 0.99617 0.49397 -0.06318
 Co177 Co 0.99788 0.41241 -0.00293
 Co178 Co 0.99566 0.57517 -0.00274
 O179 O 0.99688 0.49370 -0.00289
 C180 C 0.93539 0.56556 0.05821
 C181 C 0.93520 0.41931 -0.06269
 C182 C 0.93412 0.41147 0.05018
 C183 C 0.93180 0.57531 -0.05514
 O184 O 0.52868 0.93999 0.56598
 O185 O 0.53222 1.05069 0.42746
 O186 O 0.51938 0.89899 0.45247
 O187 O 0.52395 1.09216 0.54101
 O188 O 0.55005 0.96557 0.43331
 O189 O 0.55147 1.02431 0.56014
 O190 O 0.55592 1.07992 0.47932
 O191 O 0.55104 0.90838 0.51453
 C192 C 0.55691 0.91346 0.54829
 C193 C 0.56157 1.07567 0.44549
 C194 C 0.55172 0.92003 0.43581
 C195 C 0.55496 1.06984 0.55821
 O196 O 0.45796 1.05169 0.56558
 O197 O 0.45550 0.94246 0.42704
 O198 O 0.46335 0.89954 0.54049
 O199 O 0.46931 1.09413 0.45265
 O200 O 0.43705 1.02849 0.43351
 O201 O 0.43528 0.96712 0.55983
 O202 O 0.43675 1.08357 0.51394
 O203 O 0.43239 0.91143 0.47855
 Co204 Co 0.49335 0.99585 0.55658
 Co205 Co 0.49360 0.99674 0.43664
 Co206 Co 0.49177 0.91429 0.49651
 Co207 Co 0.49621 1.07765 0.49673
 O208 O 0.49369 0.99609 0.49661
 C209 C 0.43047 1.07877 0.54760
 C210 C 0.42693 0.91598 0.44472
 C211 C 0.43211 0.92154 0.55768
 C212 C 0.43643 1.07418 0.43595
 O213 O 1.09512 1.04410 0.46069
 O214 O 0.92546 1.06329 0.54148
 O215 O 0.95100 1.03980 0.42897
 O216 O 1.06680 1.02973 0.57307
 O217 O 0.93215 1.07875 0.47673
 O218 O 1.09226 1.06197 0.52438
 O219 O 0.99359 1.07653 0.56605
 O220 O 1.02974 1.07087 0.43859
 C221 C 1.07275 1.07455 0.44092
 C222 C 0.95170 1.08819 0.56273
 C223 C 0.93421 1.07732 0.44266
 C224 C 1.08930 1.06322 0.55837
 O225 O 1.08818 0.95918 0.54052
 O226 O 0.91599 0.97714 0.46291
 O227 O 1.05974 0.97973 0.42877
 O228 O 0.94807 0.99296 0.57500
 O229 O 0.91975 0.96153 0.52680
 O230 O 1.07909 0.94263 0.47711
 O231 O 1.02042 0.94637 0.56578
 O232 O 0.98034 0.94884 0.43958
 Co233 Co 1.08144 1.00277 0.50077
 Co234 Co 0.93073 1.01952 0.50191
 Co235 Co 1.00540 1.00990 0.44147
 Co236 Co 1.00720 1.01137 0.56284
 O237 O 1.00620 1.01089 0.50186
 C238 C 1.06168 0.93354 0.56112
 C239 C 0.93721 0.94594 0.44303
 C240 C 1.07613 0.94239 0.44311
 C241 C 0.92340 0.96089 0.56073
 O242 O 0.60432 0.52722 -0.03584
 O243 O 0.40746 0.53822 0.03184
 O244 O 0.46862 0.58800 -0.04135
 O245 O 0.55264 0.57565 0.05915
 O246 O 0.41008 0.53950 -0.03627
 O247 O 0.60476 0.52598 0.03445
 O248 O 0.46597 0.58487 0.04645
 O249 O 0.55315 0.58355 -0.04707
 C250 C 0.59404 0.56890 -0.04899
 C251 C 0.42314 0.57715 0.04676
 C252 C 0.42655 0.58021 -0.04681
 C253 C 0.59405 0.56199 0.05528
 O254 O 0.57232 0.43520 0.03463
 O255 O 0.44424 0.44563 -0.03607
 O256 O 0.54567 0.49281 -0.07797
 O257 O 0.45437 0.49325 0.07371
 O258 O 0.43915 0.44252 0.03040
 O259 O 0.56600 0.43759 -0.03698
 O260 O 0.53890 0.48210 0.07696
 O261 O 0.46173 0.49957 -0.07713
 Co262 Co 0.57894 0.48425 -0.00122
 Co263 Co 0.43172 0.49352 -0.00235
 Co264 Co 0.50683 0.53872 -0.05588
 Co265 Co 0.50268 0.53220 0.05787
 O266 O 0.50549 0.51147 -0.00039
 C267 C 0.56009 0.44313 0.06739
 C268 C 0.44855 0.45689 -0.06912
 C269 C 0.55904 0.44968 -0.06986
 C270 C 0.44239 0.45108 0.06390
 C271 C 0.34827 1.13414 0.13223
 C272 C 0.37347 1.16028 0.15885
 C273 C 0.35009 1.18953 0.18445
 C274 C 0.30049 1.19358 0.18416
 C275 C 0.27514 1.16716 0.15713
 C276 C 0.29899 1.13758 0.13119
 C277 C 0.37427 1.10550 0.10569
 C278 C 0.39800 1.08324 0.08366
 H279 H 0.41154 1.15834 0.15971
 H280 H 0.37161 1.20946 0.20417
 H281 H 0.23716 1.16933 0.15603
 H282 H 0.27914 1.11759 0.11037
 C283 C 0.84359 0.63906 0.62562
 C284 C 0.79567 0.62959 0.63186
 C285 C 0.76996 0.65977 0.65625
 C286 C 0.79204 0.69966 0.67451
 C287 C 0.83998 0.70918 0.66671
 C288 C 0.86515 0.67953 0.64245
 C289 C 0.87187 0.60795 0.60228
 C290 C 0.89725 0.58439 0.58226
 H291 H 0.77856 0.59832 0.61866
 H292 H 0.73359 0.65059 0.66197
 H293 H 0.85919 0.73852 0.68047
 H294 H 0.90208 0.68741 0.63768
 C295 C 0.66004 0.84571 0.12539
 C296 C 0.68003 0.87380 0.15379
 C297 C 0.70997 0.85156 0.17954
 C298 C 0.72011 0.80022 0.17795
 C299 C 0.70320 0.77366 0.14703
 C300 C 0.67304 0.79599 0.12126
 C301 C 0.62655 0.86851 0.10064
 C302 C 0.59965 0.88930 0.07992
 H303 H 0.67141 0.91274 0.15673
 H304 H 0.72322 0.87467 0.20170
 H305 H 0.71218 0.73527 0.14289
 H306 H 0.65909 0.77413 0.09860
 C307 C 1.15961 0.35184 0.62779
 C308 C 1.17070 0.37720 0.66026
 C309 C 1.19998 0.35548 0.68655
 C310 C 1.21867 0.30748 0.68109
 C311 C 1.20998 0.28397 0.64692
 C312 C 1.18034 0.30581 0.62059
 C313 C 1.12680 0.37359 0.60226
 C314 C 1.10031 0.39364 0.58098
 H315 H 1.15556 0.41330 0.66581
 H316 H 1.20586 0.37588 0.71190
 H317 H 1.22322 0.24719 0.64138
 H318 H 1.17243 0.28608 0.59521
 C319 C 0.65230 1.12786 -0.12805
 C320 C 0.70138 1.13384 -0.12758
 C321 C 0.72390 1.16177 -0.15537
 C322 C 0.69746 1.18408 -0.18378
 C323 C 0.64811 1.17738 -0.18364
 C324 C 0.62600 1.14974 -0.15616
 C325 C 0.62767 1.10059 -0.09966
 C326 C 0.60496 1.07905 -0.07639
 H327 H 0.72215 1.11714 -0.10575
 H328 H 0.76174 1.16596 -0.15455
 H329 H 0.62582 1.19406 -0.20445
 H330 H 0.58806 1.14573 -0.15674
 C331 C 1.15458 0.62117 0.36890
 C332 C 1.20281 0.63187 0.37174
 C333 C 1.22563 0.65857 0.34348
 C334 C 1.20007 0.67551 0.31258
 C335 C 1.15205 0.66220 0.30972
 C336 C 1.12976 0.63556 0.33754
 C337 C 1.12896 0.59724 0.39821
 C338 C 1.10542 0.57795 0.42194
 H339 H 1.22243 0.62055 0.39602
 H340 H 1.26252 0.66760 0.34649
 H341 H 1.13050 0.67338 0.28653
 H342 H 1.09258 0.62722 0.33494
 C343 C 0.33407 0.87291 -0.13166
 C344 C 0.28735 0.85786 -0.12557
 C345 C 0.26240 0.83293 -0.15361
 C346 C 0.28486 0.82124 -0.18725
 C347 C 0.33032 0.84097 -0.19370
 C348 C 0.35454 0.86608 -0.16619
 C349 C 0.36302 0.89298 -0.10270
 C350 C 0.38930 0.90940 -0.07959
 H351 H 0.27091 0.86375 -0.09888
 H352 H 0.22718 0.81959 -0.14800
 H353 H 0.34882 0.83557 -0.21951
 H354 H 0.39022 0.87851 -0.17148
 C355 C 0.83437 0.37183 0.37057
 C356 C 0.85343 0.36760 0.33536
 C357 C 0.82882 0.34297 0.30792
 C358 C 0.78442 0.32108 0.31511
 C359 C 0.76326 0.33003 0.34970
 C360 C 0.78864 0.35449 0.37768
 C361 C 0.86381 0.39209 0.39896
 C362 C 0.89056 0.40902 0.42140
 H363 H 0.88829 0.38191 0.32936
 H364 H 0.84617 0.34002 0.28140
 H365 H 0.72872 0.31534 0.35589
 H366 H 0.77329 0.35848 0.40496
 C367 C 1.15803 0.34250 0.11604
 C368 C 1.19626 0.36713 0.13186
 C369 C 1.22375 0.34356 0.15858
 C370 C 1.21400 0.29439 0.17002
 C371 C 1.17717 0.26881 0.15214
 C372 C 1.14932 0.29278 0.12545
 C373 C 1.12516 0.37019 0.09355
 C374 C 1.09660 0.39399 0.07623
 H375 H 1.20331 0.40562 0.12509
 H376 H 1.25080 0.36543 0.17193
 H377 H 1.16788 0.23143 0.16040
 H378 H 1.11960 0.27329 0.11353
 C379 C 0.64502 0.83564 0.61586
 C380 C 0.64657 0.78374 0.61966
 C381 C 0.67175 0.76193 0.64907
 C382 C 0.69523 0.79185 0.67520
 C383 C 0.69335 0.84392 0.67057
 C384 C 0.66886 0.86530 0.64131
 C385 C 0.61596 0.86001 0.58848
 C386 C 0.59032 0.88368 0.56842
 H387 H 0.62775 0.76026 0.60034
 H388 H 0.67232 0.72192 0.65163
 H389 H 0.71104 0.86885 0.68948
 H390 H 0.66773 0.90538 0.63901
 C391 C 1.14858 0.65719 -0.12075
 C392 C 1.19039 0.63753 -0.13422
 C393 C 1.21712 0.66408 -0.15974
 C394 C 1.20332 0.71175 -0.17218
 C395 C 1.16249 0.73259 -0.15659
 C396 C 1.13522 0.70539 -0.13114
 C397 C 1.11763 0.62551 -0.09956
 C398 C 1.09100 0.59850 -0.08293
 H399 H 1.20100 0.60024 -0.12673
 H400 H 1.24686 0.64501 -0.17163
 H401 H 1.14991 0.76840 -0.16585
 H402 H 1.10261 0.72097 -0.12098
 C403 C 0.65079 1.16127 0.38314
 C404 C 0.68916 1.13876 0.36602
 C405 C 0.71396 1.16355 0.33824
 C406 C 0.70164 1.21216 0.32705
 C407 C 0.66385 1.23527 0.34539
 C408 C 0.63864 1.20999 0.37319
 C409 C 0.62127 1.13196 0.40756
 C410 C 0.59538 1.10608 0.42600
 H411 H 0.69870 1.10096 0.37295
 H412 H 0.74179 1.14339 0.32451
 H413 H 0.65240 1.27194 0.33718
 H414 H 0.60854 1.22774 0.38587
 C415 C 0.85958 0.65047 0.12828
 C416 C 0.86928 0.64070 0.16533
 C417 C 0.84932 0.66963 0.19285
 C418 C 0.81799 0.70856 0.18403
 C419 C 0.81207 0.72114 0.14651
 C420 C 0.83226 0.69176 0.11867
 C421 C 0.88117 0.61933 0.10102
 C422 C 0.90340 0.59318 0.08057
 H423 H 0.89185 0.61003 0.17307
 H424 H 0.85692 0.65948 0.22122
 H425 H 0.79186 0.75312 0.13853
 H426 H 0.82645 0.70106 0.08984
 C427 C 0.35097 1.16167 0.61712
 C428 C 0.34531 1.13656 0.65051
 C429 C 0.32520 1.16007 0.68073
 C430 C 0.30831 1.20926 0.67833
 C431 C 0.31625 1.23536 0.64504
 C432 C 0.33709 1.21153 0.61443
 C433 C 0.37529 1.13579 0.58792
 C434 C 0.39855 1.11039 0.56740
 H435 H 0.35733 1.09861 0.65349
 H436 H 0.32306 1.13873 0.70603
 H437 H 0.30665 1.27404 0.64268
 H438 H 0.34288 1.23206 0.58902
 C439 C 0.83806 0.33779 -0.12059
 C440 C 0.79913 0.36104 -0.13644
 C441 C 0.77151 0.33603 -0.16244
 C442 C 0.78185 0.28678 -0.17310
 C443 C 0.81949 0.26268 -0.15523
 C444 C 0.84739 0.28804 -0.12926
 C445 C 0.87086 0.36669 -0.09872
 C446 C 0.89935 0.39130 -0.08182
 H447 H 0.79157 0.39954 -0.13026
 H448 H 0.74390 0.35685 -0.17591
 H449 H 0.82939 0.22537 -0.16298
 H450 H 0.87763 0.26958 -0.11734
 C451 C 0.33831 0.82904 0.38259
 C452 C 0.35040 0.78084 0.37118
 C453 C 0.32397 0.75637 0.34360
 C454 C 0.28512 0.77983 0.32687
 C455 C 0.27307 0.82783 0.33965
 C456 C 0.29885 0.85164 0.36724
 C457 C 0.36848 0.85821 0.40665
 C458 C 0.39407 0.88463 0.42496
 H459 H 0.38133 0.76299 0.38247
 H460 H 0.33547 0.72034 0.33403
 H461 H 0.24511 0.84893 0.32697
 H462 H 0.28932 0.88905 0.37521
 C463 C 1.13295 1.15489 0.35887
 C464 C 1.12840 1.14076 0.32159
 C465 C 1.15308 1.16676 0.29391
 C466 C 1.18266 1.20663 0.30358
 C467 C 1.18518 1.22036 0.34129
 C468 C 1.16042 1.19532 0.36834
 C469 C 1.11245 1.12701 0.38844
 C470 C 1.09572 1.10410 0.41372
 H471 H 1.10701 1.10900 0.31411
 H472 H 1.15056 1.15446 0.26545
 H473 H 1.20970 1.24738 0.35124
 H474 H 1.16481 1.20604 0.39709
 C475 C 0.65854 0.63242 -0.13611
 C476 C 0.63262 0.67018 -0.15312
 C477 C 0.64991 0.69339 -0.18492
 C478 C 0.69399 0.67979 -0.19930
 C479 C 0.71654 0.63762 -0.18466
 C480 C 0.69935 0.61461 -0.15283
 C481 C 0.64162 0.61064 -0.10250
 C482 C 0.62326 0.59204 -0.07597
 H483 H 0.59993 0.68293 -0.14104
 H484 H 0.63075 0.72464 -0.19614
 H485 H 0.74866 0.62365 -0.19662
 H486 H 0.71843 0.58379 -0.14082
 C487 C 0.88160 1.16250 0.64300
 C488 C 0.88802 1.15299 0.68096
 C489 C 0.85531 1.17086 0.70701
 C490 C 0.81554 1.19757 0.69518
 C491 C 0.81035 1.20634 0.65682
 C492 C 0.84283 1.18939 0.63129
 C493 C 0.91054 1.14032 0.61494
 C494 C 0.93085 1.11922 0.59032
 H495 H 0.91776 1.13130 0.69031
 H496 H 0.86096 1.16353 0.73615
 H497 H 0.78068 1.22582 0.64569
 H498 H 0.83685 1.19620 0.60206
 C499 C 0.35605 0.64811 0.13066
 C500 C 0.32790 0.68881 0.12335
 C501 C 0.30481 0.71253 0.15202
 C502 C 0.30933 0.69695 0.18924
 C503 C 0.33915 0.65650 0.19663
 C504 C 0.36239 0.63214 0.16741
 C505 C 0.37739 0.62315 0.09981
 C506 C 0.39618 0.60294 0.07405
 H507 H 0.32228 0.70127 0.09513
 H508 H 0.28023 0.74040 0.14383
 H509 H 0.34327 0.64272 0.22461
 H510 H 0.38446 0.60043 0.17338
 C511 C 1.11838 0.84218 0.63830
 C512 C 1.11329 0.85514 0.67570
 C513 C 1.14003 0.83103 0.70294
 C514 C 1.17248 0.79407 0.69291
 C515 C 1.17554 0.78065 0.65520
 C516 C 1.14876 0.80420 0.62833
 C517 C 1.09708 0.87129 0.60961
 C518 C 1.08089 0.89781 0.58607
 H519 H 1.09001 0.88505 0.68365
 H520 H 1.13666 0.84281 0.73146
 H521 H 1.20133 0.75483 0.64544
 H522 H 1.15372 0.79453 0.59946
 C523 C 0.61145 0.35742 0.14954
 C524 C 0.60750 0.30592 0.15282
 C525 C 0.63569 0.28063 0.17828
 C526 C 0.66969 0.30640 0.19920
 C527 C 0.66929 0.35864 0.19834
 C528 C 0.64095 0.38383 0.17330
 C529 C 0.58910 0.38377 0.12008
 C530 C 0.57415 0.40928 0.09555
 H531 H 0.58368 0.28529 0.13515
 H532 H 0.63130 0.24099 0.18086
 H533 H 0.69215 0.38042 0.21595
 H534 H 0.64341 0.42391 0.17150
 C535 C 0.86571 0.87127 0.36376
 C536 C 0.87594 0.87895 0.32614
 C537 C 0.85024 0.85358 0.29883
 C538 C 0.81420 0.82050 0.30911
 C539 C 0.80449 0.81428 0.34729
 C540 C 0.82975 0.83937 0.37409
 C541 C 0.89134 0.89579 0.39248
 C542 C 0.91190 0.91696 0.41680
 H543 H 0.90394 0.90402 0.31799
 H544 H 0.85914 0.85909 0.26996
 H545 H 0.77843 0.78839 0.35726
 H546 H 0.82163 0.83313 0.40307
 C547 C 0.38724 0.37060 -0.14717
 C548 C 0.35370 0.33793 -0.13324
 C549 C 0.32479 0.31180 -0.15719
 C550 C 0.32876 0.31737 -0.19594
 C551 C 0.36310 0.35019 -0.20987
 C552 C 0.39212 0.37690 -0.18552
 C553 C 0.41312 0.40002 -0.12117
 C554 C 0.43107 0.42507 -0.09755
 H555 H 0.34928 0.33318 -0.10362
 H556 H 0.29931 0.28711 -0.14481
 H557 H 0.36739 0.35547 -0.23940
 H558 H 0.41780 0.40276 -0.19653
 C559 C 1.15941 0.34095 -0.11830
 C560 C 1.19175 0.36889 -0.13871
 C561 C 1.21895 0.34644 -0.16617
 C562 C 1.21482 0.29519 -0.17375
 C563 C 1.18344 0.26696 -0.15203
 C564 C 1.15591 0.28971 -0.12458
 C565 C 1.12679 0.36609 -0.09395
 C566 C 1.09821 0.38827 -0.07547
 H567 H 1.19465 0.40858 -0.13445
 H568 H 1.24216 0.36991 -0.18229
 H569 H 1.17851 0.22777 -0.15725
 H570 H 1.13066 0.26763 -0.10923
 C571 C 0.64446 0.84053 0.37396
 C572 C 0.64330 0.78861 0.37051
 C573 C 0.67210 0.76480 0.34433
 C574 C 0.70194 0.79287 0.32129
 C575 C 0.70289 0.84501 0.32586
 C576 C 0.67482 0.86829 0.35194
 C577 C 0.61255 0.86693 0.39768
 C578 C 0.58553 0.89137 0.41571
 H579 H 0.61949 0.76675 0.38737
 H580 H 0.67014 0.72486 0.34151
 H581 H 0.72517 0.86857 0.30905
 H582 H 0.67592 0.90838 0.35421
 C583 C 0.85348 0.66111 -0.12431
 C584 C 0.85383 0.64125 -0.15988
 C585 C 0.83181 0.66589 -0.18886
 C586 C 0.80718 0.71077 -0.18309
 C587 C 0.81023 0.73269 -0.14775
 C588 C 0.83264 0.70764 -0.11833
 C589 C 0.87734 0.63345 -0.09561
 C590 C 0.90023 0.60727 -0.07523
 H591 H 0.87115 0.60622 -0.16533
 H592 H 0.83332 0.64835 -0.21575
 H593 H 0.79533 0.76888 -0.14271
 H594 H 0.83376 0.72451 -0.09114
 C595 C 0.34785 1.16454 0.37773
 C596 C 0.36055 1.21375 0.36936
 C597 C 0.33426 1.24146 0.34357
 C598 C 0.29516 1.22010 0.32565
 C599 C 0.28221 1.17111 0.33587
 C600 C 0.30778 1.14417 0.36174
 C601 C 0.37783 1.13251 0.39939
 C602 C 0.40338 1.10473 0.41625
 H603 H 0.39192 1.22990 0.38143
 H604 H 0.34628 1.27825 0.33600
 H605 H 0.25406 1.15149 0.32211
 H606 H 0.29776 1.10611 0.36756
 C607 C 1.14497 0.66477 0.11386
 C608 C 1.18270 0.64088 0.13068
 C609 C 1.20742 0.66382 0.15920
 C610 C 1.19614 0.71228 0.17143
 C611 C 1.15886 0.73690 0.15349
 C612 C 1.13339 0.71325 0.12495
 C613 C 1.11576 0.63637 0.08866
 C614 C 1.09113 0.60981 0.06972
 H615 H 1.19171 0.60321 0.12299
 H616 H 1.23432 0.64202 0.17264
 H617 H 1.14799 0.77337 0.16258
 H618 H 1.10366 0.73202 0.11255
 C619 C 0.64597 1.15293 0.62047
 C620 C 0.68515 1.13126 0.63701
 C621 C 0.71121 1.15746 0.66323
 C622 C 0.69921 1.20654 0.67338
 C623 C 0.66084 1.22889 0.65526
 C624 C 0.63442 1.20224 0.62902
 C625 C 0.61559 1.12284 0.59747
 C626 C 0.58909 1.09751 0.57929
 H627 H 0.69436 1.09313 0.63093
 H628 H 0.73950 1.13789 0.67689
 H629 H 0.64970 1.26594 0.66270
 H630 H 0.60387 1.21941 0.61655
 C631 C 0.84042 0.33431 0.11506
 C632 C 0.80655 0.36173 0.13407
 C633 C 0.78058 0.34010 0.16275
 C634 C 0.78726 0.29011 0.17316
 C635 C 0.82012 0.26206 0.15277
 C636 C 0.84652 0.28401 0.12406
 C637 C 0.87189 0.35976 0.08958
 C638 C 0.89926 0.38296 0.07037
 H639 H 0.80173 0.40076 0.12795
 H640 H 0.75737 0.36396 0.17804
 H641 H 0.82686 0.22372 0.15994
 H642 H 0.87292 0.26224 0.10987
 C643 C 0.34159 0.83690 0.61942
 C644 C 0.30029 0.85721 0.63345
 C645 C 0.27410 0.83146 0.65985
 C646 C 0.28798 0.78403 0.67268
 C647 C 0.32845 0.76272 0.65687
 C648 C 0.35507 0.78901 0.63047
 C649 C 0.37192 0.86741 0.59663
 C650 C 0.39819 0.89329 0.57862
 H651 H 0.28958 0.89429 0.62550
 H652 H 0.24456 0.85076 0.67189
 H653 H 0.34114 0.72710 0.66644
 H654 H 0.38727 0.77290 0.61996
 C655 C 0.35558 1.14928 -0.12105
 C656 C 0.38028 1.17777 -0.14662
 C657 C 0.35642 1.20268 -0.17447
 C658 C 0.30683 1.20018 -0.17739
 C659 C 0.28199 1.17165 -0.15124
 C660 C 0.30632 1.14630 -0.12313
 C661 C 0.38188 1.12316 -0.09324
 C662 C 0.40512 1.10191 -0.07033
 H663 H 0.41829 1.18049 -0.14525
 H664 H 0.37750 1.22412 -0.19364
 H665 H 0.24411 1.16833 -0.15279
 H666 H 0.28685 1.12413 -0.10330
 C667 C 0.85114 0.65104 0.38208
 C668 C 0.87393 0.68655 0.36067
 C669 C 0.84963 0.71170 0.33321
 C670 C 0.80128 0.70262 0.32652
 C671 C 0.77805 0.66756 0.34895
 C672 C 0.80293 0.64183 0.37664
 C673 C 0.87860 0.62403 0.40878
 C674 C 0.90299 0.60258 0.43088
 H675 H 0.91106 0.69415 0.36463
 H676 H 0.86965 0.73785 0.31680
 H677 H 0.74126 0.65905 0.34443
 H678 H 0.78489 0.61424 0.39326
 C679 C 0.65606 1.13450 0.12839
 C680 C 0.68170 1.17709 0.11890
 C681 C 0.70742 1.20270 0.14592
 C682 C 0.70751 1.18630 0.18301
 C683 C 0.68355 1.14178 0.19158
 C684 C 0.65806 1.11628 0.16455
 C685 C 0.62630 1.11041 0.10151
 C686 C 0.60153 1.09020 0.07891
 H687 H 0.68046 1.19153 0.09091
 H688 H 0.72423 1.23704 0.13804
 H689 H 0.68242 1.12758 0.21961
 H690 H 0.63864 1.08317 0.17220
 C691 C 1.15831 0.62496 0.63104
 C692 C 1.20458 0.64143 0.62500
 C693 C 1.22917 0.66611 0.65331
 C694 C 1.20691 0.67593 0.68734
 C695 C 1.16185 0.65518 0.69364
 C696 C 1.13789 0.63038 0.66576
 C697 C 1.12999 0.60466 0.60179
 C698 C 1.10473 0.58798 0.57808
 H699 H 1.22099 0.63669 0.59817
 H700 H 1.26408 0.68029 0.64775
 H701 H 1.14357 0.65944 0.71968
 H702 H 1.10252 0.61695 0.67098
 C703 C 0.65186 0.84356 -0.12366
 C704 C 0.66202 0.87070 -0.15563
 C705 C 0.69066 0.85054 -0.18319
 C706 C 0.70970 0.80232 -0.17965
 C707 C 0.70176 0.77689 -0.14606
 C708 C 0.67285 0.79712 -0.11848
 C709 C 0.62008 0.86387 -0.09637
 C710 C 0.59452 0.88226 -0.07343
 H711 H 0.64680 0.90711 -0.15975
 H712 H 0.69597 0.87248 -0.20793
 H713 H 0.71578 0.74018 -0.14160
 H714 H 0.66596 0.77594 -0.09354
 C715 C 1.15452 0.36630 0.36964
 C716 C 1.13459 0.35897 0.33493
 C717 C 1.16128 0.33919 0.30636
 C718 C 1.20879 0.32538 0.31191
 C719 C 1.23005 0.33770 0.34592
 C720 C 1.20274 0.35730 0.37491
 C721 C 1.12422 0.38102 0.39964
 C722 C 1.09816 0.39327 0.42434
 H723 H 1.09768 0.36678 0.33024
 H724 H 1.14320 0.33271 0.28050
 H725 H 1.26653 0.32859 0.35101
 H726 H 1.21877 0.36366 0.40171
 C727 C 0.33475 0.86294 0.12933
 C728 C 0.28698 0.85162 0.12388
 C729 C 0.26061 0.82966 0.15256
 C730 C 0.28255 0.81704 0.18623
 C731 C 0.32927 0.83360 0.19210
 C732 C 0.35497 0.85579 0.16394
 C733 C 0.36465 0.87973 0.09972
 C734 C 0.39114 0.89364 0.07579
 H735 H 0.27068 0.85799 0.09719
 H736 H 0.22452 0.81898 0.14735
 H737 H 0.34761 0.82763 0.21792
 H738 H 0.39146 0.86556 0.16881
 C739 C 0.83808 0.35631 0.62713
 C740 C 0.79188 0.34028 0.62020
 C741 C 0.76496 0.31912 0.64883
 C742 C 0.78472 0.31246 0.68422
 C743 C 0.82985 0.33274 0.69107
 C744 C 0.85617 0.35395 0.66282
 C745 C 0.86816 0.37451 0.59814
 C746 C 0.89438 0.39040 0.57475
 H747 H 0.77720 0.34286 0.59259
 H748 H 0.73007 0.30531 0.64272
 H749 H 0.84632 0.33094 0.71801
 H750 H 0.89139 0.36729 0.66871
 C751 C 1.15203 1.14335 0.63876
 C752 C 1.19058 1.12058 0.65562
 C753 C 1.21134 1.14191 0.68676
 C754 C 1.19495 1.18737 0.70074
 C755 C 1.15261 1.20662 0.68644
 C756 C 1.13166 1.18511 0.65521
 C757 C 1.13153 1.12082 0.60648
 C758 C 1.11352 1.09747 0.58185
 H759 H 1.20510 1.08666 0.64436
 H760 H 1.24141 1.12365 0.69880
 H761 H 1.13781 1.24057 0.69735
 H762 H 1.10049 1.20182 0.64335
 C763 C 0.66699 0.62474 0.13848
 C764 C 0.71118 0.61143 0.15194
 C765 C 0.72980 0.63597 0.18265
 C766 C 0.70517 0.67535 0.19943
 C767 C 0.65856 0.68437 0.18829
 C768 C 0.63986 0.65958 0.15767
 C769 C 0.64803 0.60187 0.10583
 C770 C 0.62712 0.58340 0.08037
 H771 H 0.73165 0.58297 0.13826
 H772 H 0.76436 0.62537 0.19208
 H773 H 0.63790 0.71331 0.20115
 H774 H 0.60484 0.66891 0.14815
 C775 C 1.12446 0.84621 0.36581
 C776 C 1.15097 0.80442 0.37398
 C777 C 1.17416 0.77935 0.34581
 C778 C 1.17125 0.79502 0.30846
 C779 C 1.14248 0.83597 0.30027
 C780 C 1.11938 0.86153 0.32883
 C781 C 1.10698 0.87614 0.39572
 C782 C 1.09333 0.90393 0.41948
 H783 H 1.15594 0.79273 0.40244
 H784 H 1.19759 0.75040 0.35445
 H785 H 1.13955 0.84969 0.27218
 H786 H 1.09908 0.89433 0.32223
 C787 C 0.61061 0.35742 -0.14867
 C788 C 0.63933 0.31968 -0.13521
 C789 C 0.66741 0.29268 -0.15934
 C790 C 0.66722 0.30247 -0.19772
 C791 C 0.63672 0.33944 -0.21124
 C792 C 0.60875 0.36694 -0.18678
 C793 C 0.58810 0.38954 -0.12243
 C794 C 0.57299 0.41664 -0.09881
 H795 H 0.64168 0.31256 -0.10572
 H796 H 0.69108 0.26597 -0.14722
 H797 H 0.63561 0.34839 -0.24045
 H798 H 0.58697 0.39662 -0.19744
 C799 C 0.87390 1.16331 0.36428
 C800 C 0.83882 1.19662 0.37345
 C801 C 0.81065 1.21645 0.34600
 C802 C 0.81684 1.20438 0.30821
 C803 C 0.85344 1.17169 0.29893
 C804 C 0.88167 1.15091 0.32695
 C805 C 0.89696 1.13759 0.39393
 C806 C 0.91404 1.11303 0.41824
 H807 H 0.83165 1.20561 0.40217
 H808 H 0.78221 1.23918 0.35537
 H809 H 0.85941 1.16121 0.27038
 H810 H 0.90855 1.12426 0.31963
 C811 C 0.36618 0.65488 -0.13230
 C812 C 0.37247 0.63902 -0.16904
 C813 C 0.34839 0.66280 -0.19812
 C814 C 0.31763 0.70238 -0.19056
 C815 C 0.31331 0.71803 -0.15338
 C816 C 0.33739 0.69503 -0.12486
 C817 C 0.38659 0.62915 -0.10140
 C818 C 0.40342 0.60786 -0.07527
 H819 H 0.39483 0.60757 -0.17506
 H820 H 0.35232 0.64896 -0.22608
 H821 H 0.28796 0.74501 -0.14502
 H822 H 0.33162 0.70719 -0.09661
 C823 C 0.85317 0.87681 0.63547
 C824 C 0.82135 0.84052 0.62473
 C825 C 0.79796 0.81285 0.65132
 C826 C 0.80564 0.82069 0.68960
 C827 C 0.83772 0.85778 0.70024
 C828 C 0.86142 0.88575 0.67322
 C829 C 0.87700 0.90456 0.60733
 C830 C 0.89726 0.92869 0.58433
 H831 H 0.81475 0.83328 0.59565
 H832 H 0.77435 0.78457 0.64122
 H833 H 0.84469 0.86497 0.72922
 H834 H 0.88621 0.91414 0.68172
 C835 C 0.38551 0.36162 0.14237
 C836 C 0.35522 0.32429 0.13055
 C837 C 0.32658 0.30003 0.15588
 C838 C 0.32775 0.31212 0.19392
 C839 C 0.35959 0.34886 0.20582
 C840 C 0.38818 0.37369 0.18008
 C841 C 0.40897 0.39095 0.11484
 C842 C 0.42547 0.41692 0.09106
 H843 H 0.35224 0.31528 0.10139
 H844 H 0.30207 0.27321 0.14488
 H845 H 0.36150 0.35942 0.23470
 H846 H 0.41123 0.40321 0.18940
   
