data_POSCAR
  _audit_creation_date              2014-09-24
  _audit_creation_method            'ToBaCCo'
  _symmetry_space_group_name_H-M    'P1'
  _symmetry_Int_Tables_number       1
  _symmetry_cell_setting            triclinic
  loop_
  _symmetry_equiv_pos_as_xyz
 x,y,z
_cell_length_a 56.6514
_cell_length_b 56.5706
_cell_length_c 56.3872
_cell_angle_alpha 89.687800
_cell_angle_beta 89.773500
_cell_angle_gamma 89.214000
loop_
  _atom_site_label
  _atom_site_type_symbol
  _atom_site_fract_x
  _atom_site_fract_y
  _atom_site_fract_z
N1 N 0.26841 0.22193 0.19861
 N2 N 0.25951 0.24178 0.19003
 C3 C 0.27291 0.24895 0.17160
 C4 C 0.29102 0.23264 0.16849
 C5 C 0.28764 0.21572 0.18588
 H6 H 0.26975 0.26476 0.16117
 H7 H 0.29851 0.20020 0.18915
 Cu8 Cu 0.23117 0.25618 0.20364
 Cu9 Cu 0.25485 0.20592 0.22601
 Cu10 Cu 0.20398 0.23068 0.25017
 N11 N 0.20207 0.26928 0.21692
 N12 N 0.19164 0.25931 0.23521
 C13 C 0.17222 0.27201 0.24101
 C14 C 0.17034 0.29088 0.22547
 C15 C 0.18952 0.28864 0.21039
 H16 H 0.16034 0.26787 0.25546
 H17 H 0.19402 0.30035 0.19589
 N18 N 0.21909 0.20175 0.26285
 N19 N 0.23856 0.19235 0.25376
 C20 C 0.24476 0.17314 0.26668
 C21 C 0.22837 0.17036 0.28464
 C22 C 0.21236 0.18873 0.28169
 H23 H 0.26013 0.16207 0.26343
 H24 H 0.19710 0.19246 0.29271
 H25 H 0.22071 0.21778 0.22014
 H26 H 0.23898 0.23542 0.24091
 N27 N 0.72930 -0.22095 0.20262
 N28 N 0.74232 -0.23347 0.18782
 C29 C 0.72978 -0.23775 0.16812
 C30 C 0.70767 -0.22740 0.17081
 C31 C 0.70793 -0.21694 0.19294
 H32 H 0.73616 -0.24784 0.15311
 H33 H 0.69369 -0.20716 0.20139
 Cu34 Cu 0.77397 -0.24387 0.19618
 Cu35 Cu 0.74105 -0.21133 0.23349
 Cu36 Cu 0.80173 -0.21694 0.24051
 N37 N 0.80279 -0.25702 0.20968
 N38 N 0.81399 -0.24631 0.22686
 C39 C 0.83337 -0.25912 0.23268
 C40 C 0.83412 -0.27903 0.21848
 C41 C 0.81448 -0.27707 0.20406
 H42 H 0.84567 -0.25451 0.24648
 H43 H 0.80895 -0.28944 0.19068
 N44 N 0.78196 -0.19575 0.26002
 N45 N 0.75874 -0.19461 0.25820
 C46 C 0.75020 -0.17938 0.27449
 C47 C 0.76898 -0.17046 0.28700
 C48 C 0.78886 -0.18118 0.27739
 H49 H 0.73175 -0.17468 0.27670
 H50 H 0.80696 -0.17875 0.28278
 H51 H 0.77329 -0.20683 0.21834
 H52 H 0.77060 -0.23332 0.23798
 N53 N 0.74310 0.21414 0.80169
 N54 N 0.75190 0.23318 0.81136
 C55 C 0.73863 0.23925 0.83033
 C56 C 0.72060 0.22316 0.83255
 C57 C 0.72396 0.20748 0.81412
 H58 H 0.74156 0.25442 0.84149
 H59 H 0.71309 0.19253 0.80991
 Cu60 Cu 0.77936 0.24853 0.79762
 Cu61 Cu 0.75658 0.19978 0.77333
 Cu62 Cu 0.80535 0.22692 0.74842
 N63 N 0.80684 0.26351 0.78353
 N64 N 0.81683 0.25505 0.76421
 C65 C 0.83506 0.26884 0.75801
 C66 C 0.83655 0.28692 0.77433
 C67 C 0.81840 0.28299 0.79031
 H68 H 0.84631 0.26602 0.74272
 H69 H 0.81389 0.29367 0.80557
 N70 N 0.79117 0.19828 0.73506
 N71 N 0.77267 0.18788 0.74463
 C72 C 0.76707 0.16901 0.73142
 C73 C 0.78275 0.16751 0.71267
 C74 C 0.79778 0.18630 0.71549
 H75 H 0.75252 0.15731 0.73496
 H76 H 0.81233 0.19093 0.70398
 H77 H 0.79058 0.21159 0.77822
 H78 H 0.77069 0.23044 0.75952
 N79 N 0.26195 -0.21889 0.79954
 N80 N 0.25220 -0.23731 0.80977
 C81 C 0.26538 -0.24396 0.82858
 C82 C 0.28432 -0.22890 0.83008
 C83 C 0.28162 -0.21325 0.81140
 H84 H 0.26167 -0.25870 0.84019
 H85 H 0.29317 -0.19885 0.80681
 Cu86 Cu 0.22365 -0.25091 0.79688
 Cu87 Cu 0.24851 -0.20347 0.77167
 Cu88 Cu 0.19707 -0.22695 0.74907
 N89 N 0.19486 -0.26406 0.78409
 N90 N 0.18455 -0.25461 0.76537
 C91 C 0.16547 -0.26738 0.75982
 C92 C 0.16380 -0.28584 0.77590
 C93 C 0.18269 -0.28317 0.79107
 H94 H 0.15388 -0.26375 0.74500
 H95 H 0.18737 -0.29456 0.80583
 N96 N 0.21259 -0.19907 0.73514
 N97 N 0.23228 -0.19030 0.74366
 C98 C 0.23869 -0.17170 0.73023
 C99 C 0.22223 -0.16859 0.71248
 C100 C 0.20592 -0.18620 0.71606
 H101 H 0.25421 -0.16118 0.73304
 H102 H 0.19049 -0.18947 0.70540
 H103 H 0.21394 -0.21315 0.77810
 H104 H 0.23180 -0.23289 0.75835
 N105 N 0.73077 -0.21848 0.80048
 N106 N 0.74110 -0.23691 0.81051
 C107 C 0.72826 -0.24364 0.82949
 C108 C 0.70901 -0.22851 0.83145
 C109 C 0.71113 -0.21276 0.81279
 H110 H 0.73260 -0.25830 0.84114
 H111 H 0.69926 -0.19823 0.80853
 Cu112 Cu 0.77045 -0.25004 0.79794
 Cu113 Cu 0.74363 -0.20311 0.77240
 Cu114 Cu 0.79614 -0.22595 0.74979
 N115 N 0.79924 -0.26337 0.78434
 N116 N 0.80933 -0.25381 0.76563
 C117 C 0.82854 -0.26678 0.75964
 C118 C 0.83052 -0.28548 0.77545
 C119 C 0.81169 -0.28275 0.79091
 H120 H 0.83997 -0.26314 0.74468
 H121 H 0.80722 -0.29425 0.80559
 N122 N 0.77992 -0.19798 0.73620
 N123 N 0.75943 -0.18991 0.74424
 C124 C 0.75225 -0.17163 0.73054
 C125 C 0.76915 -0.16787 0.71329
 C126 C 0.78647 -0.18478 0.71739
 H127 H 0.73603 -0.16162 0.73296
 H128 H 0.80240 -0.18752 0.70708
 H129 H 0.76160 -0.23246 0.75938
 H130 H 0.77850 -0.21218 0.77884
 N131 N 0.26414 0.21209 0.80463
 N132 N 0.25488 0.23109 0.81453
 C133 C 0.26791 0.23684 0.83355
 C134 C 0.28628 0.22062 0.83554
 C135 C 0.28336 0.20517 0.81693
 H136 H 0.26460 0.25189 0.84489
 H137 H 0.29458 0.19019 0.81251
 Cu138 Cu 0.22721 0.24676 0.80099
 Cu139 Cu 0.25106 0.19807 0.77616
 Cu140 Cu 0.20139 0.22539 0.75217
 N141 N 0.19910 0.26174 0.78756
 N142 N 0.18907 0.25318 0.76851
 C143 C 0.17028 0.26681 0.76275
 C144 C 0.16848 0.28490 0.77902
 C145 C 0.18701 0.28119 0.79454
 H146 H 0.15893 0.26398 0.74768
 H147 H 0.19140 0.29200 0.80960
 N148 N 0.21646 0.19710 0.73823
 N149 N 0.23527 0.18656 0.74743
 C150 C 0.24143 0.16798 0.73375
 C151 C 0.22578 0.16690 0.71509
 C152 C 0.21021 0.18557 0.71844
 H153 H 0.25635 0.15628 0.73688
 H154 H 0.19555 0.19045 0.70712
 H155 H 0.23607 0.22881 0.76267
 H156 H 0.21681 0.20993 0.78163
 N157 N 0.26158 -0.22081 0.20003
 N158 N 0.25551 -0.24225 0.19382
 C159 C 0.26815 -0.24885 0.17465
 C160 C 0.28293 -0.23055 0.16857
 C161 C 0.27830 -0.21301 0.18500
 H162 H 0.26696 -0.26580 0.16600
 H163 H 0.28698 -0.19616 0.18632
 Cu164 Cu 0.23207 -0.25974 0.21152
 Cu165 Cu 0.24882 -0.20547 0.22825
 Cu166 Cu 0.20778 -0.23724 0.26085
 N167 N 0.20274 -0.27180 0.22439
 N168 N 0.19336 -0.26309 0.24388
 C169 C 0.17383 -0.27525 0.24943
 C170 C 0.17077 -0.29238 0.23237
 C171 C 0.18940 -0.28970 0.21672
 H172 H 0.16281 -0.27200 0.26482
 H173 H 0.19316 -0.30021 0.20116
 N174 N 0.21882 -0.20585 0.27022
 N175 N 0.23399 -0.19344 0.25760
 C176 C 0.23795 -0.17289 0.26880
 C177 C 0.22457 -0.17242 0.28933
 C178 C 0.21264 -0.19352 0.28966
 H179 H 0.25000 -0.15945 0.26277
 H180 H 0.20051 -0.19954 0.30320
 H181 H 0.24182 -0.23584 0.24637
 H182 H 0.21694 -0.22322 0.22860
 N183 N 0.73752 0.21766 0.19782
 N184 N 0.74245 0.23991 0.19344
 C185 C 0.72837 0.24808 0.17597
 C186 C 0.71399 0.22991 0.16892
 C187 C 0.72026 0.21083 0.18309
 H188 H 0.72865 0.26586 0.16882
 H189 H 0.71250 0.19347 0.18302
 Cu190 Cu 0.76696 0.25625 0.21051
 Cu191 Cu 0.75282 0.19988 0.22331
 Cu192 Cu 0.80171 0.22559 0.24834
 N193 N 0.79726 0.26809 0.22067
 N194 N 0.81090 0.25604 0.23533
 C195 C 0.83062 0.26837 0.23938
 C196 C 0.82923 0.28920 0.22652
 C197 C 0.80785 0.28847 0.21484
 H198 H 0.84486 0.26269 0.25088
 H199 H 0.80055 0.30178 0.20302
 N200 N 0.78942 0.19493 0.25900
 N201 N 0.77074 0.18506 0.24949
 C202 C 0.76588 0.16505 0.26154
 C203 C 0.78230 0.16230 0.27943
 C204 C 0.79697 0.18148 0.27729
 H205 H 0.75104 0.15376 0.25813
 H206 H 0.81152 0.18573 0.28879
 H207 H 0.76547 0.22775 0.24294
 H208 H 0.78409 0.21734 0.21736
 C209 C 0.23193 0.01281 0.47666
 C210 C 0.23106 -0.01216 0.47745
 C211 C 0.23087 -0.02354 0.49965
 C212 C 0.23140 -0.01081 0.52090
 C213 C 0.23192 0.01417 0.52010
 C214 C 0.23216 0.02557 0.49791
 H215 H 0.23234 0.04473 0.49712
 H216 H 0.23008 -0.04268 0.50050
 C217 C 0.76585 -0.01225 0.47725
 C218 C 0.77314 0.01156 0.47649
 C219 C 0.77684 0.02358 0.49786
 C220 C 0.77329 0.01259 0.51995
 C221 C 0.76596 -0.01122 0.52060
 C222 C 0.76184 -0.02313 0.49929
 H223 H 0.75696 -0.04160 0.49989
 H224 H 0.78183 0.04200 0.49726
 C225 C 0.48184 0.23096 -0.01402
 C226 C 0.48195 0.23697 0.01026
 C227 C 0.50347 0.24035 0.02184
 C228 C 0.52507 0.23723 0.00993
 C229 C 0.52514 0.23135 -0.01443
 C230 C 0.50350 0.22827 -0.02601
 H231 H 0.50350 0.22425 -0.04479
 H232 H 0.50340 0.24412 0.04068
 C233 C 0.51743 0.76349 0.01475
 C234 C 0.51880 0.76352 -0.01034
 C235 C 0.49798 0.76346 -0.02372
 C236 C 0.47564 0.76312 -0.01290
 C237 C 0.47425 0.76274 0.01211
 C238 C 0.49501 0.76301 0.02553
 H239 H 0.49357 0.76311 0.04472
 H240 H 0.49927 0.76383 -0.04292
 C241 C 0.00867 0.47997 0.23073
 C242 C -0.01629 0.48039 0.22965
 C243 C -0.02817 0.50237 0.22934
 C244 C -0.01599 0.52382 0.23005
 C245 C 0.00893 0.52321 0.23126
 C246 C 0.02087 0.50134 0.23141
 H247 H 0.04002 0.50096 0.23175
 H248 H -0.04729 0.50283 0.22846
 C249 C 0.01271 0.47923 0.77151
 C250 C -0.01224 0.47922 0.77066
 C251 C -0.02467 0.50083 0.77036
 C252 C -0.01293 0.52252 0.77040
 C253 C 0.01203 0.52259 0.77109
 C254 C 0.02442 0.50094 0.77181
 H255 H 0.04355 0.50101 0.77263
 H256 H -0.04382 0.50077 0.77026
 C257 C 0.34554 0.23420 0.11827
 N258 N 0.34248 0.21495 0.13237
 N259 N 0.32510 0.21448 0.14833
 C260 C 0.31005 0.23319 0.15071
 N261 N 0.31303 0.25242 0.13655
 N262 N 0.33050 0.25295 0.12065
 C263 C 0.36500 0.23472 0.10098
 N264 N 0.37036 0.25495 0.08917
 N265 N 0.38841 0.25542 0.07393
 C266 C 0.40163 0.23565 0.06984
 N267 N 0.39615 0.21541 0.08154
 N268 N 0.37821 0.21498 0.09687
 C269 C 0.42190 0.23612 0.05353
 N270 N 0.43330 0.21572 0.04761
 N271 N 0.45216 0.21605 0.03345
 C272 C 0.46035 0.23678 0.02477
 N273 N 0.44904 0.25722 0.03068
 N274 N 0.43006 0.25688 0.04474
 C275 C 0.65272 0.77153 0.12353
 N276 N 0.65027 0.78262 0.14471
 N277 N 0.66810 0.78302 0.16002
 C278 C 0.68906 0.77231 0.15474
 N279 N 0.69151 0.76124 0.13354
 N280 N 0.67367 0.76086 0.11821
 C281 C 0.63295 0.77090 0.10680
 N282 N 0.63540 0.76012 0.08545
 N283 N 0.61733 0.75933 0.07042
 C284 C 0.59615 0.76927 0.07623
 N285 N 0.59372 0.78007 0.09756
 N286 N 0.61179 0.78089 0.11255
 C287 C 0.57603 0.76808 0.05996
 N288 N 0.55470 0.77716 0.06642
 N289 N 0.53628 0.77579 0.05193
 C290 C 0.53843 0.76537 0.03035
 N291 N 0.55982 0.75629 0.02395
 N292 N 0.57828 0.75762 0.03845
 C293 C 0.66507 0.22355 -0.11831
 N294 N 0.66627 0.20700 -0.13564
 N295 N 0.68407 0.20680 -0.15114
 C296 C 0.70131 0.22316 -0.14993
 N297 N 0.70017 0.23968 -0.13256
 N298 N 0.68237 0.23986 -0.11702
 C299 C 0.64503 0.22400 -0.10167
 N300 N 0.64379 0.24014 -0.08395
 N301 N 0.62528 0.24079 -0.06927
 C302 C 0.60733 0.22534 -0.07183
 N303 N 0.60863 0.20918 -0.08951
 N304 N 0.62714 0.20850 -0.10413
 C305 C 0.58647 0.22643 -0.05627
 N306 N 0.56789 0.21212 -0.06026
 N307 N 0.54862 0.21349 -0.04672
 C308 C 0.54720 0.22912 -0.02856
 N309 N 0.56583 0.24345 -0.02457
 N310 N 0.58511 0.24212 -0.03815
 C311 C 0.33961 0.76936 -0.12100
 N312 N 0.32122 0.75437 -0.11863
 N313 N 0.30354 0.75490 -0.13418
 C314 C 0.30361 0.77048 -0.15259
 N315 N 0.32193 0.78553 -0.15485
 N316 N 0.33962 0.78495 -0.13938
 C317 C 0.35938 0.76868 -0.10423
 N318 N 0.37852 0.78237 -0.10802
 N319 N 0.39667 0.78165 -0.09310
 C320 C 0.39632 0.76727 -0.07376
 N321 N 0.37713 0.75363 -0.06987
 N322 N 0.35899 0.75430 -0.08486
 C323 C 0.41660 0.76635 -0.05764
 N324 N 0.41597 0.75333 -0.03736
 N325 N 0.43459 0.75242 -0.02298
 C326 C 0.45451 0.76448 -0.02832
 N327 N 0.45509 0.77738 -0.04870
 N328 N 0.43648 0.77837 -0.06303
 C329 C 0.11871 0.34444 0.22532
 N330 N 0.11892 0.32760 0.24257
 N331 N 0.13529 0.31046 0.24254
 C332 C 0.15208 0.30958 0.22531
 N333 N 0.15186 0.32639 0.20805
 N334 N 0.13545 0.34349 0.20804
 C335 C 0.10097 0.36362 0.22555
 N336 N 0.10020 0.37978 0.20768
 N337 N 0.08452 0.39753 0.20810
 C338 C 0.06905 0.39981 0.22643
 N339 N 0.06976 0.38361 0.24427
 N340 N 0.08542 0.36581 0.24382
 C341 C 0.05241 0.41994 0.22720
 N342 N 0.03829 0.42359 0.24640
 N343 N 0.02390 0.44241 0.24737
 C344 C 0.02290 0.45806 0.22905
 N345 N 0.03715 0.45450 0.20997
 N346 N 0.05157 0.43574 0.20902
 C347 C 0.11560 0.66056 0.77661
 N348 N 0.13284 0.66141 0.79321
 N349 N 0.14835 0.67889 0.79307
 C350 C 0.14722 0.69619 0.77630
 N351 N 0.12986 0.69543 0.75979
 N352 N 0.11434 0.67793 0.75993
 C353 C 0.09899 0.64083 0.77643
 N354 N 0.08199 0.63950 0.75959
 N355 N 0.06737 0.62124 0.75917
 C356 C 0.06924 0.60365 0.77557
 N357 N 0.08616 0.60506 0.79247
 N358 N 0.10075 0.62331 0.79289
 C359 C 0.05369 0.58311 0.77480
 N360 N 0.05638 0.56524 0.79074
 N361 N 0.04280 0.54625 0.78973
 C362 C 0.02589 0.54447 0.77286
 N363 N 0.02334 0.56227 0.75680
 N364 N 0.03693 0.58129 0.75778
 C365 C -0.11822 0.66560 0.22010
 N366 N -0.13651 0.66575 0.20465
 N367 N -0.15181 0.68380 0.20405
 C368 C -0.14945 0.70242 0.21890
 N369 N -0.13107 0.70234 0.23432
 N370 N -0.11572 0.68426 0.23491
 C371 C -0.10184 0.64526 0.22101
 N372 N -0.08331 0.64474 0.23622
 N373 N -0.06890 0.62592 0.23726
 C374 C -0.07256 0.60694 0.22314
 N375 N -0.09104 0.60753 0.20790
 N376 N -0.10539 0.62633 0.20684
 C377 C -0.05729 0.58580 0.22460
 N378 N -0.06234 0.56642 0.21160
 N379 N -0.04900 0.54694 0.21322
 C380 C -0.02997 0.54607 0.22779
 N381 N -0.02494 0.56548 0.24082
 N382 N -0.03832 0.58499 0.23925
 C383 C -0.11639 0.34157 0.77452
 N384 N -0.13300 0.33969 0.79183
 N385 N -0.14820 0.32192 0.79180
 C386 C -0.14736 0.30535 0.77448
 N387 N -0.13069 0.30719 0.75721
 N388 N -0.11550 0.32498 0.75722
 C389 C -0.09992 0.36142 0.77439
 N390 N -0.08385 0.36389 0.75664
 N391 N -0.06922 0.38215 0.75636
 C392 C -0.07011 0.39857 0.77382
 N393 N -0.08612 0.39604 0.79160
 N394 N -0.10076 0.37781 0.79187
 C395 C -0.05441 0.41904 0.77330
 N396 N -0.05554 0.43544 0.79077
 N397 N -0.04176 0.45431 0.79009
 C398 C -0.02617 0.45740 0.77203
 N399 N -0.02521 0.44115 0.75442
 N400 N -0.03899 0.42224 0.75510
 C401 C 0.22814 0.11938 0.33864
 N402 N 0.24611 0.12002 0.32265
 N403 N 0.24614 0.13614 0.30531
 C404 C 0.22823 0.15223 0.30340
 N405 N 0.21026 0.15155 0.31936
 N406 N 0.21020 0.13542 0.33665
 C407 C 0.22824 0.10204 0.35812
 N408 N 0.20987 0.10122 0.37361
 N409 N 0.21011 0.08598 0.39170
 C410 C 0.22875 0.07101 0.39499
 N411 N 0.24710 0.07173 0.37945
 N412 N 0.24684 0.08696 0.36131
 C413 C 0.22927 0.05491 0.41552
 N414 N 0.24847 0.04096 0.41996
 N415 N 0.24917 0.02709 0.43914
 C416 C 0.23058 0.02649 0.45440
 N417 N 0.21150 0.04057 0.45006
 N418 N 0.21081 0.05445 0.43092
 C419 C 0.78287 0.11823 0.65761
 N420 N 0.79888 0.13587 0.65791
 N421 N 0.79894 0.15148 0.67552
 C422 C 0.78296 0.15004 0.69346
 N423 N 0.76699 0.13237 0.69320
 N424 N 0.76695 0.11674 0.67560
 C425 C 0.78247 0.10136 0.63788
 N426 N 0.76660 0.08359 0.63762
 N427 N 0.76587 0.06867 0.61944
 C428 C 0.78097 0.07099 0.60084
 N429 N 0.79690 0.08871 0.60115
 N430 N 0.79765 0.10360 0.61934
 C431 C 0.77965 0.05512 0.58035
 N432 N 0.79375 0.05850 0.56116
 N433 N 0.79199 0.04471 0.54220
 C434 C 0.77617 0.02689 0.54173
 N435 N 0.76208 0.02351 0.56098
 N436 N 0.76381 0.03733 0.57994
 C437 C 0.22318 -0.11786 0.65827
 N438 N 0.20504 -0.13321 0.66017
 N439 N 0.20468 -0.14933 0.67748
 C440 C 0.22244 -0.15066 0.69354
 N441 N 0.24054 -0.13527 0.69168
 N442 N 0.24092 -0.11918 0.67435
 C443 C 0.22383 -0.10048 0.63883
 N444 N 0.24259 -0.08601 0.63607
 N445 N 0.24341 -0.07068 0.61806
 C446 C 0.22547 -0.06922 0.60220
 N447 N 0.20666 -0.08360 0.60506
 N448 N 0.20586 -0.09895 0.62303
 C449 C 0.22664 -0.05299 0.58183
 N450 N 0.20862 -0.05178 0.56606
 N451 N 0.20996 -0.03782 0.54704
 C452 C 0.22927 -0.02439 0.54316
 N453 N 0.24740 -0.02573 0.55881
 N454 N 0.24605 -0.03968 0.57788
 C455 C 0.76638 -0.12092 0.34176
 N456 N 0.78728 -0.12707 0.33148
 N457 N 0.78810 -0.14290 0.31409
 C458 C 0.76805 -0.15305 0.30623
 N459 N 0.74713 -0.14684 0.31643
 N460 N 0.74632 -0.13113 0.33395
 C461 C 0.76559 -0.10373 0.36118
 N462 N 0.74570 -0.10067 0.37438
 N463 N 0.74521 -0.08544 0.39233
 C464 C 0.76454 -0.07258 0.39760
 N465 N 0.78436 -0.07551 0.38428
 N466 N 0.78491 -0.09086 0.36645
 C467 C 0.76429 -0.05621 0.41773
 N468 N 0.78241 -0.04114 0.42100
 N469 N 0.78261 -0.02679 0.43965
 C470 C 0.76472 -0.02699 0.45574
 N471 N 0.74666 -0.04218 0.45254
 N472 N 0.74638 -0.05643 0.43380
 C473 C 0.65556 0.77037 -0.11725
 N474 N 0.67227 0.75295 -0.11790
 N475 N 0.68938 0.75334 -0.13418
 C476 C 0.69032 0.77109 -0.15045
 N477 N 0.67360 0.78849 -0.14979
 N478 N 0.65656 0.78815 -0.13347
 C479 C 0.63642 0.76988 -0.09963
 N480 N 0.62067 0.78811 -0.09824
 N481 N 0.60289 0.78751 -0.08276
 C482 C 0.60015 0.76862 -0.06811
 N483 N 0.61594 0.75039 -0.06941
 N484 N 0.63380 0.75104 -0.08487
 C485 C 0.57987 0.76765 -0.05187
 N486 N 0.57544 0.74785 -0.03895
 N487 N 0.55632 0.74670 -0.02515
 C488 C 0.54115 0.76541 -0.02355
 N489 N 0.54551 0.78512 -0.03656
 N490 N 0.56457 0.78626 -0.05039
 C491 C 0.34154 0.22033 -0.11548
 N492 N 0.34096 0.20410 -0.13310
 N493 N 0.32323 0.20408 -0.14855
 C494 C 0.30546 0.22033 -0.14699
 N495 N 0.30597 0.23652 -0.12931
 N496 N 0.32369 0.23651 -0.11382
 C497 C 0.36153 0.22073 -0.09896
 N498 N 0.36197 0.23643 -0.08084
 N499 N 0.38048 0.23720 -0.06636
 C500 C 0.39924 0.22232 -0.06951
 N501 N 0.39873 0.20657 -0.08756
 N502 N 0.38021 0.20575 -0.10199
 C503 C 0.42016 0.22380 -0.05430
 N504 N 0.43979 0.21071 -0.05926
 N505 N 0.45917 0.21272 -0.04619
 C506 C 0.45967 0.22779 -0.02753
 N507 N 0.43996 0.24080 -0.02251
 N508 N 0.42057 0.23885 -0.03564
 C509 C 0.33516 0.76934 0.11600
 N510 N 0.32163 0.75002 0.11962
 N511 N 0.30476 0.75016 0.13616
 C512 C 0.30087 0.76961 0.14971
 N513 N 0.31431 0.78896 0.14600
 N514 N 0.33114 0.78883 0.12944
 C515 C 0.35442 0.76888 0.09852
 N516 N 0.36796 0.78822 0.09507
 N517 N 0.38610 0.78755 0.07998
 C518 C 0.39138 0.76752 0.06780
 N519 N 0.37775 0.74822 0.07112
 N520 N 0.35959 0.74890 0.08620
 C521 C 0.41213 0.76652 0.05215
 N522 N 0.41845 0.74613 0.04106
 N523 N 0.43797 0.74500 0.02780
 C524 C 0.45171 0.76430 0.02503
 N525 N 0.44545 0.78464 0.03618
 N526 N 0.42597 0.78575 0.04943
 C527 C 0.66085 0.23315 0.11771
 N528 N 0.67054 0.25323 0.12614
 N529 N 0.68763 0.25216 0.14228
 C530 C 0.69549 0.23099 0.15076
 N531 N 0.68578 0.21090 0.14239
 N532 N 0.66883 0.21196 0.12607
 C533 C 0.64172 0.23436 0.10024
 N534 N 0.63515 0.21473 0.08834
 N535 N 0.61745 0.21574 0.07286
 C536 C 0.60555 0.23636 0.06887
 N537 N 0.61212 0.25599 0.08076
 N538 N 0.62996 0.25503 0.09608
 C539 C 0.58536 0.23720 0.05263
 N540 N 0.56988 0.25573 0.05305
 N541 N 0.55091 0.25596 0.03915
 C542 C 0.54692 0.23782 0.02408
 N543 N 0.56246 0.21934 0.02359
 N544 N 0.58131 0.21901 0.03764
 C545 C -0.12045 0.66035 0.77526
 N546 N -0.13770 0.66127 0.79201
 N547 N -0.15349 0.67892 0.79212
 C548 C -0.15265 0.69633 0.77548
 N549 N -0.13532 0.69547 0.75876
 N550 N -0.11952 0.67779 0.75865
 C551 C -0.10343 0.64054 0.77495
 N552 N -0.08643 0.63907 0.75795
 N553 N -0.07136 0.62076 0.75750
 C554 C -0.07276 0.60329 0.77404
 N555 N -0.08971 0.60482 0.79106
 N556 N -0.10476 0.62310 0.79151
 C557 C -0.05661 0.58277 0.77335
 N558 N -0.05853 0.56526 0.78975
 N559 N -0.04433 0.54633 0.78894
 C560 C -0.02753 0.54428 0.77182
 N561 N -0.02574 0.56169 0.75527
 N562 N -0.03996 0.58065 0.75607
 C563 C -0.12182 0.34384 0.22459
 N564 N -0.14207 0.34540 0.21185
 N565 N -0.15759 0.32794 0.21239
 C566 C -0.15345 0.30828 0.22571
 N567 N -0.13318 0.30667 0.23842
 N568 N -0.11764 0.32414 0.23788
 C569 C -0.10503 0.36338 0.22430
 N570 N -0.08483 0.36215 0.23718
 N571 N -0.06994 0.38020 0.23728
 C572 C -0.07473 0.40010 0.22451
 N573 N -0.09487 0.40126 0.21158
 N574 N -0.10973 0.38324 0.21147
 C575 C -0.05888 0.42041 0.22517
 N576 N -0.06457 0.44057 0.21326
 N577 N -0.05077 0.45937 0.21445
 C578 C -0.03066 0.45877 0.22749
 N579 N -0.02497 0.43855 0.23938
 N580 N -0.03880 0.41971 0.23823
 C581 C 0.11919 0.34060 0.77922
 N582 N 0.11791 0.32316 0.76284
 N583 N 0.13354 0.30535 0.76286
 C584 C 0.15100 0.30432 0.77927
 N585 N 0.15223 0.32170 0.79570
 N586 N 0.13662 0.33953 0.79566
 C587 C 0.10231 0.36054 0.77886
 N588 N 0.10448 0.37863 0.79438
 N589 N 0.08955 0.39701 0.79372
 C590 C 0.07186 0.39795 0.77756
 N591 N 0.06960 0.37981 0.76211
 N592 N 0.08457 0.36143 0.76274
 C593 C 0.05588 0.41859 0.77646
 N594 N 0.03786 0.41954 0.76066
 N595 N 0.02383 0.43861 0.75930
 C596 C 0.02722 0.45738 0.77374
 N597 N 0.04533 0.45642 0.78944
 N598 N 0.05933 0.43737 0.79085
 C599 C 0.11867 0.65606 0.23025
 N600 N 0.11937 0.67165 0.24845
 N601 N 0.13585 0.68822 0.24904
 C602 C 0.15224 0.68975 0.23149
 N603 N 0.15149 0.67421 0.21327
 N604 N 0.13499 0.65768 0.21265
 C605 C 0.10097 0.63735 0.22985
 N606 N 0.10022 0.62204 0.21142
 N607 N 0.08466 0.60461 0.21129
 C608 C 0.06929 0.60182 0.22958
 N609 N 0.06996 0.61719 0.24798
 N610 N 0.08551 0.63466 0.24810
 C611 C 0.05277 0.58205 0.22971
 N612 N 0.03830 0.57822 0.24856
 N613 N 0.02393 0.55976 0.24891
 C614 C 0.02335 0.54464 0.23032
 N615 N 0.03797 0.54836 0.21159
 N616 N 0.05234 0.56678 0.21125
 C617 C 0.76725 -0.11740 0.65888
 N618 N 0.78783 -0.12848 0.66477
 N619 N 0.78844 -0.14458 0.68210
 C620 C 0.76853 -0.15000 0.69431
 N621 N 0.74798 -0.13880 0.68855
 N622 N 0.74732 -0.12288 0.67105
 C623 C 0.76651 -0.10013 0.63938
 N624 N 0.74567 -0.09381 0.62919
 N625 N 0.74510 -0.07868 0.61099
 C626 C 0.76533 -0.06912 0.60253
 N627 N 0.78614 -0.07528 0.61287
 N628 N 0.78673 -0.09060 0.63089
 C629 C 0.76490 -0.05306 0.58200
 N630 N 0.78398 -0.03979 0.57663
 N631 N 0.78402 -0.02595 0.55744
 C632 C 0.76502 -0.02499 0.54286
 N633 N 0.74596 -0.03834 0.54817
 N634 N 0.74583 -0.05199 0.56750
 C635 C 0.22339 -0.12089 0.34222
 N636 N 0.23696 -0.11805 0.32252
 N637 N 0.23720 -0.13435 0.30552
 C638 C 0.22389 -0.15404 0.30763
 N639 N 0.21025 -0.15679 0.32725
 N640 N 0.21001 -0.14053 0.34423
 C641 C 0.22356 -0.10347 0.36142
 N642 N 0.21065 -0.10717 0.38138
 N643 N 0.21122 -0.09187 0.39921
 C644 C 0.22471 -0.07228 0.39776
 N645 N 0.23756 -0.06848 0.37774
 N646 N 0.23701 -0.08382 0.35989
 C647 C 0.22583 -0.05601 0.41791
 N648 N 0.23908 -0.03621 0.41687
 N649 N 0.24053 -0.02200 0.43559
 C650 C 0.22877 -0.02702 0.45600
 N651 N 0.21554 -0.04685 0.45694
 N652 N 0.21405 -0.06102 0.43827
 C653 C 0.78304 0.11212 0.33415
 N654 N 0.79967 0.12913 0.33299
 N655 N 0.79959 0.14487 0.31536
 C656 C 0.78288 0.14420 0.29821
 N657 N 0.76632 0.12709 0.29924
 N658 N 0.76640 0.11132 0.31690
 C659 C 0.78263 0.09552 0.35425
 N660 N 0.76584 0.07868 0.35592
 N661 N 0.76502 0.06430 0.37471
 C662 C 0.78095 0.06627 0.39250
 N663 N 0.79781 0.08301 0.39074
 N664 N 0.79864 0.09735 0.37197
 C665 C 0.77951 0.05125 0.41376
 N666 N 0.79448 0.05457 0.43213
 N667 N 0.79268 0.04167 0.45186
 C668 C 0.77591 0.02485 0.45395
 N669 N 0.76093 0.02154 0.43554
 N670 N 0.76271 0.03447 0.41580
 C671 C 0.22658 0.11934 0.65858
 N672 N 0.21068 0.13749 0.65924
 N673 N 0.21037 0.15254 0.67732
 C674 C 0.22599 0.15003 0.69538
 N675 N 0.24189 0.13187 0.69474
 N676 N 0.24216 0.11676 0.67668
 C677 C 0.22704 0.10302 0.63841
 N678 N 0.24201 0.08406 0.63811
 N679 N 0.24253 0.06948 0.61961
 C680 C 0.22816 0.07339 0.60074
 N681 N 0.21320 0.09233 0.60107
 N682 N 0.21262 0.10685 0.61957
 C683 C 0.22893 0.05767 0.58011
 N684 N 0.21599 0.06292 0.56054
 N685 N 0.21686 0.04894 0.54163
 C686 C 0.23056 0.02905 0.54161
 N687 N 0.24358 0.02386 0.56117
 N688 N 0.24277 0.03789 0.58008
   
