data_POSCAR
  _audit_creation_date              2014-09-24
  _audit_creation_method            'ToBaCCo'
  _symmetry_space_group_name_H-M    'P1'
  _symmetry_Int_Tables_number       1
  _symmetry_cell_setting            triclinic
  loop_
  _symmetry_equiv_pos_as_xyz
 x,y,z
_cell_length_a 40.9766
_cell_length_b 40.6871
_cell_length_c 43.7904
_cell_angle_alpha 90.054900
_cell_angle_beta 89.852200
_cell_angle_gamma 92.990700
loop_
  _atom_site_label
  _atom_site_type_symbol
  _atom_site_fract_x
  _atom_site_fract_y
  _atom_site_fract_z
C1 C -0.09401 0.31613 0.00840
 C2 C -0.07785 0.31879 0.03674
 C3 C -0.04350 0.31735 0.03700
 C4 C -0.02578 0.31074 0.01019
 C5 C -0.04337 0.30551 -0.01716
 C6 C -0.07722 0.30948 -0.01879
 C7 C 0.01086 0.30901 0.01045
 C8 C 0.02919 0.31346 -0.01676
 C9 C 0.06285 0.30884 -0.01762
 C10 C 0.07921 0.30304 0.00970
 C11 C 0.06211 0.30040 0.03744
 C12 C 0.02794 0.30222 0.03751
 H13 H -0.12041 0.31558 0.00784
 H14 H -0.03063 0.32256 0.05807
 H15 H -0.03051 0.29941 -0.03768
 H16 H 0.01771 0.32052 -0.03775
 H17 H 0.10521 0.29934 0.00931
 H18 H 0.01503 0.29832 0.05884
 C19 C 0.41689 0.82150 0.49503
 C20 C 0.43490 0.82604 0.52196
 C21 C 0.46909 0.82701 0.52056
 C22 C 0.48568 0.82031 0.49317
 C23 C 0.46682 0.81499 0.46642
 C24 C 0.43258 0.81652 0.46704
 C25 C 0.52220 0.81768 0.49302
 C26 C 0.54056 0.82143 0.46581
 C27 C 0.57442 0.81742 0.46550
 C28 C 0.59054 0.81177 0.49305
 C29 C 0.57315 0.80869 0.52054
 C30 C 0.53906 0.81060 0.52018
 H31 H 0.39043 0.82026 0.49606
 H32 H 0.48239 0.83274 0.54132
 H33 H 0.47838 0.80938 0.44499
 H34 H 0.52892 0.82755 0.44460
 H35 H 0.61658 0.80832 0.49297
 H36 H 0.52602 0.80642 0.54138
 C37 C 1.08981 0.67897 -0.00483
 C38 C 1.07176 0.67675 0.02256
 C39 C 1.03766 0.67897 0.02097
 C40 C 1.02184 0.68645 -0.00656
 C41 C 1.04107 0.69024 -0.03322
 C42 C 1.07498 0.68559 -0.03302
 C43 C 0.98555 0.69091 -0.00720
 C44 C 0.96741 0.68768 -0.03459
 C45 C 0.93382 0.69313 -0.03523
 C46 C 0.91761 0.69965 -0.00784
 C47 C 0.93473 0.70222 0.01975
 C48 C 0.96864 0.69899 0.01971
 H49 H 1.11616 0.67921 -0.00376
 H50 H 1.02344 0.67381 0.04134
 H51 H 1.02948 0.69604 -0.05443
 H52 H 0.97888 0.68066 -0.05567
 H53 H 0.89174 0.70397 -0.00812
 H54 H 0.98151 0.70274 0.04101
 C55 C 0.57913 0.17854 0.50446
 C56 C 0.56437 0.18303 0.53294
 C57 C 0.53026 0.18490 0.53465
 C58 C 0.51049 0.18060 0.50843
 C59 C 0.52613 0.17463 0.48028
 C60 C 0.56030 0.17501 0.47793
 C61 C 0.47405 0.18370 0.51006
 C62 C 0.45630 0.19146 0.48369
 C63 C 0.42233 0.19394 0.48455
 C64 C 0.40587 0.19070 0.51251
 C65 C 0.42288 0.18444 0.53944
 C66 C 0.45666 0.17992 0.53791
 H67 H 0.60555 0.17941 0.50277
 H68 H 0.51955 0.19005 0.55656
 H69 H 0.51216 0.16982 0.45974
 H70 H 0.46852 0.19573 0.46209
 H71 H 0.37990 0.19445 0.51341
 H72 H 0.46893 0.17333 0.55865
 C73 C 0.68877 -0.08758 -0.00024
 C74 C 0.69188 -0.06955 0.02710
 C75 C 0.69161 -0.03503 0.02532
 C76 C 0.68611 -0.01868 -0.00251
 C77 C 0.68432 -0.03759 -0.02956
 C78 C 0.68717 -0.07189 -0.02872
 C79 C 0.68296 0.01803 -0.00286
 C80 C 0.69101 0.03722 -0.02893
 C81 C 0.68885 0.07193 -0.02897
 C82 C 0.68104 0.08711 -0.00095
 C83 C 0.67470 0.06865 0.02557
 C84 C 0.67327 0.03435 0.02373
 H85 H 0.68986 -0.11405 0.00026
 H86 H 0.69472 -0.02086 0.04599
 H87 H 0.68138 -0.02578 -0.05138
 H88 H 0.70076 0.02519 -0.04863
 H89 H 0.67975 0.11339 0.00092
 H90 H 0.66533 0.02067 0.04379
 C91 C 0.17515 0.40607 0.51021
 C92 C 0.17150 0.42462 0.53690
 C93 C 0.17091 0.45896 0.53471
 C94 C 0.17753 0.47536 0.50687
 C95 C 0.18343 0.45612 0.48078
 C96 C 0.18118 0.42148 0.48188
 C97 C 0.17957 0.51232 0.50529
 C98 C 0.17481 0.52879 0.47744
 C99 C 0.17825 0.56322 0.47556
 C100 C 0.18462 0.58166 0.50212
 C101 C 0.18881 0.56609 0.53025
 C102 C 0.18701 0.53153 0.53150
 H103 H 0.17426 0.37955 0.51185
 H104 H 0.16565 0.47262 0.55515
 H105 H 0.19089 0.46793 0.45963
 H106 H 0.16833 0.51518 0.45693
 H107 H 0.18783 0.60821 0.50062
 H108 H 0.19169 0.51992 0.55309
 C109 C 0.31369 1.08883 0.00906
 C110 C 0.32048 1.07170 0.03586
 C111 C 0.32374 1.03759 0.03459
 C112 C 0.31802 1.01993 0.00724
 C113 C 0.30942 1.03767 -0.01902
 C114 C 0.30831 1.07228 -0.01888
 C115 C 0.32012 0.98311 0.00602
 C116 C 0.32560 0.96704 -0.02197
 C117 C 0.32439 0.93244 -0.02438
 C118 C 0.32123 0.91394 0.00275
 C119 C 0.31725 0.92923 0.03113
 C120 C 0.31576 0.96361 0.03246
 H121 H 0.31013 1.11495 0.01071
 H122 H 0.33073 1.02521 0.05519
 H123 H 0.30441 1.02452 -0.03997
 H124 H 0.33175 0.98142 -0.04206
 H125 H 0.31928 0.88734 0.00192
 H126 H 0.31099 0.97482 0.05426
 C127 C 0.82555 0.59306 0.49491
 C128 C 0.82209 0.57662 0.52293
 C129 C 0.82208 0.54211 0.52352
 C130 C 0.82724 0.52385 0.49667
 C131 C 0.83209 0.54128 0.46901
 C132 C 0.82990 0.57559 0.46773
 C133 C 0.82596 0.48686 0.49724
 C134 C 0.81741 0.46850 0.47080
 C135 C 0.81542 0.43395 0.47115
 C136 C 0.82057 0.41745 0.49863
 C137 C 0.82806 0.43497 0.52549
 C138 C 0.83176 0.46945 0.52443
 H139 H 0.82324 0.61945 0.49417
 H140 H 0.81766 0.52980 0.54509
 H141 H 0.83734 0.52845 0.44810
 H142 H 0.81182 0.48077 0.44975
 H143 H 0.81709 0.39088 0.49944
 H144 H 0.83904 0.48235 0.54510
 O145 O 0.23230 0.27630 0.22122
 O146 O 0.29325 0.25468 0.27845
 O147 O 0.28157 0.23857 0.22146
 O148 O 0.24535 0.29359 0.27749
 O149 O 0.21392 0.25183 0.29474
 O150 O 0.24809 0.19764 0.23673
 O151 O 0.26075 0.21281 0.29343
 O152 O 0.19895 0.23591 0.23787
 Cu153 Cu 0.26639 0.26987 0.24793
 Cu154 Cu 0.22695 0.22043 0.26707
 C155 C 0.20522 0.25970 0.21966
 C156 C 0.28711 0.23037 0.29614
 C157 C 0.27082 0.20882 0.21921
 C158 C 0.22442 0.28171 0.29642
 O159 O 0.76475 0.80566 0.23021
 O160 O 0.79601 0.74667 0.28545
 O161 O 0.81012 0.76388 0.22896
 O162 O 0.75040 0.78897 0.28640
 O163 O 0.71479 0.75086 0.26927
 O164 O 0.77448 0.72558 0.21224
 O165 O 0.76039 0.70850 0.26847
 O166 O 0.72937 0.76719 0.21330
 Cu167 Cu 0.78393 0.78005 0.25958
 Cu168 Cu 0.74122 0.73410 0.23930
 C169 C 0.74209 0.79629 0.21191
 C170 C 0.78333 0.71751 0.28657
 C171 C 0.80218 0.74096 0.21025
 C172 C 0.72231 0.77424 0.28760
 O173 O 0.78194 0.24951 0.23174
 O174 O 0.72349 0.21299 0.28751
 O175 O 0.73731 0.20159 0.23042
 O176 O 0.76640 0.26199 0.28814
 O177 O 0.72946 0.29584 0.27279
 O178 O 0.70035 0.23543 0.21511
 O179 O 0.68638 0.24680 0.27247
 O180 O 0.74497 0.28322 0.21618
 Cu181 Cu 0.75597 0.22811 0.26091
 Cu182 Cu 0.71157 0.26869 0.24258
 C183 C 0.77348 0.27243 0.21425
 C184 C 0.69514 0.22393 0.28995
 C185 C 0.71404 0.20827 0.21269
 C186 C 0.75265 0.28916 0.29056
 O187 O 0.27901 0.75166 0.21355
 O188 O 0.24552 0.69189 0.27049
 O189 O 0.23435 0.70413 0.21296
 O190 O 0.29244 0.73731 0.27030
 O191 O 0.25695 0.77307 0.28502
 O192 O 0.19828 0.73939 0.22754
 O193 O 0.21000 0.72772 0.28501
 O194 O 0.24302 0.78689 0.22832
 Cu195 Cu 0.26641 0.71771 0.24038
 Cu196 Cu 0.22352 0.76032 0.25795
 C197 C 0.26629 0.77938 0.21091
 C198 C 0.22221 0.69986 0.28777
 C199 C 0.20659 0.71622 0.21009
 C200 C 0.28462 0.76057 0.28774
 O201 O 0.79281 0.26431 0.71178
 O202 O 0.75739 0.20504 0.76766
 O203 O 0.74422 0.22040 0.71142
 O204 O 0.80380 0.25054 0.76936
 O205 O 0.77002 0.28825 0.78347
 O206 O 0.70993 0.25672 0.72748
 O207 O 0.72462 0.24267 0.78426
 O208 O 0.75820 0.30097 0.72645
 Cu209 Cu 0.77801 0.23147 0.73837
 Cu210 Cu 0.73715 0.27582 0.75674
 C211 C 0.78135 0.29258 0.70920
 C212 C 0.73579 0.21418 0.78620
 C213 C 0.71681 0.23352 0.70957
 C214 C 0.79668 0.27417 0.78680
 O215 O 0.30842 0.75820 0.72790
 O216 O 0.24963 0.72278 0.78444
 O217 O 0.26569 0.70892 0.72824
 O218 O 0.29484 0.76955 0.78519
 O219 O 0.25834 0.80383 0.76971
 O220 O 0.22896 0.74263 0.71220
 O221 O 0.21308 0.75676 0.76853
 O222 O 0.27152 0.79207 0.71250
 Cu223 Cu 0.28331 0.73647 0.75797
 Cu224 Cu 0.23928 0.77719 0.73918
 C225 C 0.29979 0.78099 0.71025
 C226 C 0.22137 0.73417 0.78643
 C227 C 0.24273 0.71538 0.71018
 C228 C 0.28140 0.79682 0.78760
 O229 O 0.19244 0.24401 0.77865
 O230 O 0.25164 0.21511 0.72231
 O231 O 0.23597 0.20006 0.77882
 O232 O 0.20681 0.25810 0.72189
 O233 O 0.24329 0.29591 0.73800
 O234 O 0.27229 0.23793 0.79514
 O235 O 0.28820 0.25270 0.73869
 O236 O 0.22909 0.28170 0.79474
 Cu237 Cu 0.21811 0.22553 0.74874
 Cu238 Cu 0.26195 0.27085 0.76810
 C239 C 0.20083 0.26747 0.79667
 C240 C 0.28005 0.22915 0.72074
 C241 C 0.25860 0.20926 0.79718
 C242 C 0.22011 0.28693 0.72012
 O243 O 0.73595 0.78352 0.71023
 O244 O 0.79639 0.75793 0.76640
 O245 O 0.78259 0.74317 0.70977
 O246 O 0.75005 0.79933 0.76685
 O247 O 0.71630 0.75910 0.78356
 O248 O 0.74750 0.70361 0.72512
 O249 O 0.76196 0.71785 0.78188
 O250 O 0.70100 0.74433 0.72654
 Cu251 Cu 0.76966 0.77503 0.73677
 Cu252 Cu 0.72810 0.72732 0.75584
 C253 C 0.70837 0.76788 0.70834
 C254 C 0.78946 0.73363 0.78391
 C255 C 0.77026 0.71400 0.70728
 C256 C 0.72830 0.78843 0.78543
 C257 C 0.31274 0.12779 0.11869
 C258 C 0.29783 0.09568 0.11647
 C259 C 0.30239 0.07663 0.09019
 C260 C 0.32098 0.08936 0.06555
 C261 C 0.33686 0.12058 0.06831
 C262 C 0.33300 0.13952 0.09456
 C263 C 0.30480 0.14845 0.14588
 C264 C 0.31736 0.18111 0.14974
 C265 C 0.30705 0.20025 0.17407
 C266 C 0.28408 0.18739 0.19529
 C267 C 0.27257 0.15442 0.19244
 C268 C 0.28260 0.13500 0.16795
 C269 C 0.27727 0.08332 0.13983
 C270 C 0.26977 0.10257 0.16497
 H271 H 0.26606 0.05866 0.13824
 H272 H 0.25305 0.09214 0.18202
 H273 H 0.28975 0.05264 0.08812
 H274 H 0.35163 0.13075 0.04970
 H275 H 0.31657 0.22552 0.17580
 H276 H 0.25499 0.14407 0.20880
 H277 H 0.34529 0.16359 0.09503
 H278 H 0.33463 0.19261 0.13395
 C279 C 0.80716 0.63402 0.60421
 C280 C 0.78831 0.60435 0.59916
 C281 C 0.79362 0.58543 0.57293
 C282 C 0.81741 0.59569 0.55137
 C283 C 0.83639 0.62480 0.55670
 C284 C 0.83145 0.64370 0.58272
 C285 C 0.79979 0.65422 0.63182
 C286 C 0.81659 0.68447 0.63851
 C287 C 0.80755 0.70330 0.66349
 C288 C 0.78168 0.69245 0.68262
 C289 C 0.76556 0.66179 0.67682
 C290 C 0.77425 0.64278 0.65156
 C291 C 0.76389 0.59404 0.61998
 C292 C 0.75701 0.61284 0.64561
 H293 H 0.74955 0.57126 0.61620
 H294 H 0.73755 0.60399 0.66079
 H295 H 0.77855 0.56316 0.56887
 H296 H 0.85522 0.63298 0.54061
 H297 H 0.82054 0.72677 0.66749
 H298 H 0.74553 0.65310 0.69142
 H299 H 0.84673 0.66589 0.58536
 H300 H 0.83642 0.69438 0.62452
 C301 C 0.70846 0.87979 0.11055
 C302 C 0.68871 0.86489 0.08744
 C303 C 0.68281 0.88197 0.06036
 C304 C 0.69629 0.91415 0.05541
 C305 C 0.71485 0.92921 0.07918
 C306 C 0.72088 0.91235 0.10618
 C307 C 0.71580 0.85988 0.13831
 C308 C 0.73671 0.87170 0.16186
 C309 C 0.74443 0.85139 0.18622
 C310 C 0.73134 0.81889 0.18790
 C311 C 0.70956 0.80732 0.16516
 C312 C 0.70201 0.82733 0.14036
 C313 C 0.67518 0.83283 0.09126
 C314 C 0.68158 0.81451 0.11720
 H315 H 0.65974 0.82151 0.07370
 H316 H 0.67090 0.78963 0.11883
 H317 H 0.66689 0.87015 0.04346
 H318 H 0.72657 0.95348 0.07655
 H319 H 0.76125 0.86099 0.20348
 H320 H 0.69931 0.78222 0.16611
 H321 H 0.73585 0.92513 0.12307
 H322 H 0.74795 0.89625 0.16160
 C323 C 0.18383 0.37341 0.62182
 C324 C 0.16275 0.35957 0.59911
 C325 C 0.15698 0.37718 0.57223
 C326 C 0.17237 0.40839 0.56730
 C327 C 0.19190 0.42266 0.59056
 C328 C 0.19745 0.40558 0.61748
 C329 C 0.19185 0.35264 0.64880
 C330 C 0.21412 0.36340 0.67166
 C331 C 0.22264 0.34228 0.69509
 C332 C 0.20908 0.30996 0.69656
 C333 C 0.18597 0.29938 0.67454
 C334 C 0.17752 0.32028 0.65063
 C335 C 0.14849 0.32779 0.60285
 C336 C 0.15564 0.30861 0.62810
 H337 H 0.13209 0.31727 0.58563
 H338 H 0.14448 0.28392 0.62959
 H339 H 0.14134 0.36613 0.55468
 H340 H 0.20433 0.44656 0.58737
 H341 H 0.24037 0.35120 0.71186
 H342 H 0.17526 0.27446 0.67541
 H343 H 0.21328 0.41767 0.63411
 H344 H 0.22578 0.38776 0.67159
 C345 C 0.86201 0.31384 0.11623
 C346 C 0.89366 0.30151 0.11679
 C347 C 0.91447 0.30551 0.09131
 C348 C 0.90380 0.32043 0.06428
 C349 C 0.87294 0.33426 0.06475
 C350 C 0.85252 0.33120 0.09023
 C351 C 0.83942 0.30631 0.14266
 C352 C 0.80712 0.31665 0.14391
 C353 C 0.78614 0.30653 0.16769
 C354 C 0.79674 0.28586 0.19086
 C355 C 0.82932 0.27669 0.19058
 C356 C 0.85061 0.28668 0.16675
 C357 C 0.90377 0.28371 0.14213
 C358 C 0.88268 0.27634 0.16650
 H359 H 0.92807 0.27441 0.14273
 H360 H 0.89140 0.26165 0.18512
 H361 H 0.93779 0.29415 0.09185
 H362 H 0.86430 0.34772 0.04532
 H363 H 0.76122 0.31418 0.16742
 H364 H 0.83795 0.26103 0.20853
 H365 H 0.82905 0.34188 0.08870
 H366 H 0.79730 0.33198 0.12649
 C367 C 0.38123 0.81958 0.60662
 C368 C 0.41062 0.80317 0.60300
 C369 C 0.42882 0.80692 0.57596
 C370 C 0.41793 0.82631 0.55192
 C371 C 0.38938 0.84338 0.55587
 C372 C 0.37132 0.84025 0.58290
 C373 C 0.36118 0.81275 0.63483
 C374 C 0.33114 0.82707 0.64026
 C375 C 0.31193 0.81762 0.66541
 C376 C 0.32215 0.79379 0.68593
 C377 C 0.35284 0.78070 0.68167
 C378 C 0.37228 0.78986 0.65630
 C379 C 0.42101 0.78202 0.62581
 C380 C 0.40219 0.77542 0.65184
 H381 H 0.44363 0.76964 0.62311
 H382 H 0.41088 0.75817 0.66842
 H383 H 0.45061 0.79323 0.57296
 H384 H 0.38070 0.85877 0.53776
 H385 H 0.28850 0.82841 0.66827
 H386 H 0.36115 0.76245 0.69749
 H387 H 0.34929 0.85354 0.58435
 H388 H 0.32164 0.84506 0.62505
 C389 C 0.12522 0.67979 0.10592
 C390 C 0.09431 0.69357 0.10420
 C391 C 0.07569 0.69037 0.07734
 C392 C 0.08800 0.67493 0.05113
 C393 C 0.11825 0.66020 0.05361
 C394 C 0.13642 0.66237 0.08051
 C395 C 0.14546 0.68600 0.13407
 C396 C 0.17657 0.67342 0.13795
 C397 C 0.19572 0.68235 0.16321
 C398 C 0.18447 0.70403 0.18536
 C399 C 0.15282 0.71534 0.18255
 C400 C 0.13329 0.70645 0.15719
 C401 C 0.08288 0.71202 0.12869
 C402 C 0.10206 0.71857 0.15447
 H403 H 0.05915 0.72251 0.12749
 H404 H 0.09250 0.73385 0.17233
 H405 H 0.05289 0.70266 0.07625
 H406 H 0.12810 0.64661 0.03475
 H407 H 0.21989 0.67295 0.16489
 H408 H 0.14365 0.73177 0.19970
 H409 H 0.15958 0.65097 0.08053
 H410 H 0.18687 0.65713 0.12152
 C411 C 0.62733 0.19709 0.61117
 C412 C 0.60023 0.21688 0.60724
 C413 C 0.57934 0.21175 0.58212
 C414 C 0.58504 0.18712 0.56060
 C415 C 0.61139 0.16699 0.56499
 C416 C 0.63224 0.17180 0.58990
 C417 C 0.65001 0.20449 0.63740
 C418 C 0.67839 0.18715 0.64262
 C419 C 0.69962 0.19614 0.66643
 C420 C 0.69309 0.22247 0.68580
 C421 C 0.66442 0.23928 0.68133
 C422 C 0.64308 0.23071 0.65726
 C423 C 0.59444 0.24207 0.62806
 C424 C 0.61535 0.24876 0.65259
 H425 H 0.57360 0.25710 0.62518
 H426 H 0.60999 0.26877 0.66786
 H427 H 0.55924 0.22766 0.57880
 H428 H 0.61596 0.14744 0.54897
 H429 H 0.72151 0.18267 0.66939
 H430 H 0.65908 0.25973 0.69610
 H431 H 0.65214 0.15563 0.59185
 H432 H 0.68498 0.16695 0.62833
 C433 C 0.70549 0.12915 0.88962
 C434 C 0.70684 0.14429 0.91863
 C435 C 0.70267 0.12527 0.94519
 C436 C 0.69497 0.09097 0.94391
 C437 C 0.69260 0.07646 0.91457
 C438 C 0.69803 0.09508 0.88803
 C439 C 0.71167 0.15029 0.86191
 C440 C 0.71504 0.13729 0.83226
 C441 C 0.72220 0.15808 0.80744
 C442 C 0.72519 0.19226 0.81148
 C443 C 0.72138 0.20548 0.84072
 C444 C 0.71566 0.18480 0.86598
 C445 C 0.71189 0.17852 0.92112
 C446 C 0.71541 0.19840 0.89534
 H447 H 0.71258 0.19023 0.94337
 H448 H 0.71886 0.22478 0.89849
 H449 H 0.70645 0.13783 0.96671
 H450 H 0.68523 0.05079 0.91150
 H451 H 0.72562 0.14744 0.78504
 H452 H 0.72474 0.23187 0.84406
 H453 H 0.69539 0.08245 0.86643
 H454 H 0.71327 0.11115 0.82794
 C455 C 0.18450 0.61722 0.39114
 C456 C 0.20062 0.58748 0.39440
 C457 C 0.19678 0.56894 0.42132
 C458 C 0.17782 0.58005 0.44558
 C459 C 0.16113 0.60898 0.44200
 C460 C 0.16420 0.62725 0.41510
 C461 C 0.19127 0.63759 0.36307
 C462 C 0.17687 0.66776 0.35787
 C463 C 0.18615 0.68725 0.33282
 C464 C 0.20993 0.67721 0.31217
 C465 C 0.22317 0.64640 0.31624
 C466 C 0.21409 0.62661 0.34147
 C467 C 0.22163 0.57718 0.37142
 C468 C 0.22837 0.59641 0.34562
 H469 H 0.23383 0.55432 0.37384
 H470 H 0.24554 0.58779 0.32892
 H471 H 0.21010 0.54679 0.42410
 H472 H 0.14617 0.61784 0.46038
 H473 H 0.17523 0.71074 0.33011
 H474 H 0.24133 0.63819 0.30029
 H475 H 0.15123 0.64960 0.41397
 H476 H 0.15886 0.67712 0.37311
 C477 C 0.31484 0.88211 0.89045
 C478 C 0.33050 0.86740 0.91531
 C479 C 0.33486 0.88456 0.94297
 C480 C 0.32400 0.91667 0.94661
 C481 C 0.31064 0.93189 0.92087
 C482 C 0.30604 0.91491 0.89337
 C483 C 0.30769 0.86176 0.86242
 C484 C 0.28909 0.87281 0.83775
 C485 C 0.28119 0.85202 0.81312
 C486 C 0.29195 0.81989 0.81225
 C487 C 0.31130 0.80903 0.83627
 C488 C 0.31870 0.82938 0.86145
 C489 C 0.34130 0.83543 0.91264
 C490 C 0.33587 0.81698 0.88615
 H491 H 0.35378 0.82430 0.93149
 H492 H 0.34436 0.79220 0.88538
 H493 H 0.34710 0.87272 0.96154
 H494 H 0.30144 0.95629 0.92223
 H495 H 0.26621 0.86100 0.79491
 H496 H 0.31948 0.78411 0.83606
 H497 H 0.29490 0.92774 0.87489
 H498 H 0.27963 0.89704 0.83739
 C499 C 0.78921 0.37733 0.39063
 C500 C 0.81453 0.36761 0.41005
 C501 C 0.82320 0.38646 0.43592
 C502 C 0.80683 0.41492 0.44310
 C503 C 0.78191 0.42466 0.42372
 C504 C 0.77320 0.40621 0.39782
 C505 C 0.78017 0.35601 0.36365
 C506 C 0.75527 0.36335 0.34298
 C507 C 0.74690 0.34200 0.31895
 C508 C 0.76313 0.31280 0.31479
 C509 C 0.78856 0.30570 0.33476
 C510 C 0.79712 0.32695 0.35905
 C511 C 0.83080 0.33893 0.40382
 C512 C 0.82223 0.31900 0.37893
 H513 H 0.85025 0.33155 0.41865
 H514 H 0.83532 0.29684 0.37532
 H515 H 0.84276 0.37894 0.45056
 H516 H 0.76858 0.44627 0.42895
 H517 H 0.72726 0.34818 0.30384
 H518 H 0.80141 0.28329 0.33175
 H519 H 0.75363 0.41480 0.38403
 H520 H 0.74171 0.38524 0.34508
 C521 C 0.11559 0.29789 0.89787
 C522 C 0.12986 0.31668 0.92210
 C523 C 0.11220 0.32127 0.94921
 C524 C 0.08034 0.30736 0.95267
 C525 C 0.06584 0.28987 0.92816
 C526 C 0.08311 0.28523 0.90112
 C527 C 0.13608 0.29149 0.87025
 C528 C 0.12490 0.27137 0.84579
 C529 C 0.14566 0.26436 0.82156
 C530 C 0.17800 0.27743 0.82086
 C531 C 0.18902 0.29844 0.84457
 C532 C 0.16854 0.30521 0.86931
 C533 C 0.16188 0.33017 0.91941
 C534 C 0.18073 0.32471 0.89353
 H535 H 0.17273 0.34481 0.93781
 H536 H 0.20554 0.33532 0.89277
 H537 H 0.12345 0.33526 0.96783
 H538 H 0.04138 0.27865 0.93027
 H539 H 0.13647 0.24816 0.80355
 H540 H 0.21402 0.30859 0.84441
 H541 H 0.07073 0.27115 0.88336
 H542 H 0.10049 0.26017 0.84518
 C543 C 0.63105 0.80621 0.38354
 C544 C 0.64360 0.82611 0.40778
 C545 C 0.62441 0.83115 0.43381
 C546 C 0.59275 0.81646 0.43627
 C547 C 0.57978 0.79817 0.41157
 C548 C 0.59856 0.79315 0.38551
 C549 C 0.65332 0.79904 0.35739
 C550 C 0.64396 0.77767 0.33324
 C551 C 0.66622 0.77016 0.31043
 C552 C 0.69833 0.78390 0.31088
 C553 C 0.70765 0.80594 0.33435
 C554 C 0.68559 0.81329 0.35768
 C555 C 0.67552 0.84011 0.40631
 C556 C 0.69600 0.83400 0.38171
 H557 H 0.68503 0.85562 0.42472
 H558 H 0.72065 0.84503 0.38188
 H559 H 0.63442 0.84584 0.45258
 H560 H 0.55547 0.78645 0.41293
 H561 H 0.65830 0.75320 0.29253
 H562 H 0.73243 0.81665 0.33501
 H563 H 0.58741 0.77833 0.36757
 H564 H 0.61980 0.76597 0.33180
 C565 C 0.87868 0.70381 0.88193
 C566 C 0.86548 0.68452 0.90634
 C567 C 0.88407 0.67988 0.93276
 C568 C 0.91587 0.69417 0.93537
 C569 C 0.92948 0.71187 0.91055
 C570 C 0.91122 0.71664 0.88417
 C571 C 0.85704 0.71042 0.85522
 C572 C 0.86691 0.73136 0.83087
 C573 C 0.84519 0.73829 0.80748
 C574 C 0.81316 0.72432 0.80750
 C575 C 0.80337 0.70274 0.83120
 C576 C 0.82481 0.69607 0.85514
 C577 C 0.83357 0.67056 0.90456
 C578 C 0.81378 0.67600 0.87941
 H579 H 0.82357 0.65552 0.92309
 H580 H 0.78913 0.66494 0.87933
 H581 H 0.87355 0.66566 0.95162
 H582 H 0.95393 0.72323 0.91202
 H583 H 0.85342 0.75500 0.78948
 H584 H 0.77860 0.69198 0.83164
 H585 H 0.92285 0.73095 0.86610
 H586 H 0.89104 0.74320 0.82976
 C587 C 0.36946 0.20988 0.40131
 C588 C 0.35784 0.18591 0.42270
 C589 C 0.37508 0.18114 0.44983
 C590 C 0.40399 0.19983 0.45613
 C591 C 0.41554 0.22353 0.43495
 C592 C 0.39854 0.22857 0.40790
 C593 C 0.34998 0.21451 0.37282
 C594 C 0.35903 0.23802 0.35028
 C595 C 0.33917 0.24241 0.32488
 C596 C 0.30993 0.22336 0.32116
 C597 C 0.30131 0.19912 0.34293
 C598 C 0.32087 0.19473 0.36868
 C599 C 0.32909 0.16683 0.41697
 C600 C 0.31101 0.17115 0.39054
 H601 H 0.32029 0.14841 0.43330
 H602 H 0.28875 0.15597 0.38732
 H603 H 0.36624 0.16247 0.46593
 H604 H 0.43766 0.23847 0.43946
 H605 H 0.34644 0.26128 0.30843
 H606 H 0.27874 0.18425 0.34038
 H607 H 0.40857 0.24723 0.39259
 H608 H 0.38100 0.25365 0.35203
 C609 C 0.69980 0.87045 0.88918
 C610 C 0.71557 0.86266 0.91673
 C611 C 0.71188 0.88214 0.94271
 C612 C 0.69101 0.90849 0.94275
 C613 C 0.67461 0.91570 0.91561
 C614 C 0.67908 0.89709 0.88909
 C615 C 0.70572 0.84960 0.86158
 C616 C 0.69448 0.85718 0.83208
 C617 C 0.70154 0.83722 0.80706
 C618 C 0.71912 0.80900 0.81120
 C619 C 0.73027 0.80116 0.84026
 C620 C 0.72449 0.82158 0.86523
 C621 C 0.73461 0.83515 0.91850
 C622 C 0.73836 0.81463 0.89348
 H623 H 0.74639 0.82906 0.93974
 H624 H 0.75300 0.79337 0.89613
 H625 H 0.72562 0.87666 0.96302
 H626 H 0.65798 0.93549 0.91490
 H627 H 0.69327 0.84376 0.78450
 H628 H 0.74463 0.77970 0.84315
 H629 H 0.66574 0.90355 0.86894
 H630 H 0.68091 0.87873 0.82782
 C631 C 0.19501 0.36353 0.40008
 C632 C 0.20301 0.35109 0.42910
 C633 C 0.19953 0.37042 0.45533
 C634 C 0.18610 0.40151 0.45367
 C635 C 0.17675 0.41305 0.42487
 C636 C 0.18143 0.39456 0.39844
 C637 C 0.20089 0.34278 0.37247
 C638 C 0.19840 0.35461 0.34232
 C639 C 0.20548 0.33459 0.31741
 C640 C 0.21410 0.30214 0.32203
 C641 C 0.21631 0.29000 0.35181
 C642 C 0.21086 0.31034 0.37698
 C643 C 0.21386 0.31915 0.43190
 C644 C 0.21684 0.29891 0.40648
 H645 H 0.21957 0.30942 0.45418
 H646 H 0.22490 0.27423 0.40990
 H647 H 0.20749 0.36101 0.47704
 H648 H 0.16530 0.43630 0.42267
 H649 H 0.20435 0.34448 0.29450
 H650 H 0.22416 0.26523 0.35537
 H651 H 0.17362 0.40463 0.37704
 H652 H 0.19208 0.37950 0.33759
 C653 C 0.28843 0.12588 0.89993
 C654 C 0.30795 0.14046 0.92337
 C655 C 0.31425 0.12271 0.95000
 C656 C 0.30161 0.09005 0.95406
 C657 C 0.28248 0.07571 0.93032
 C658 C 0.27596 0.09327 0.90384
 C659 C 0.28166 0.14602 0.87217
 C660 C 0.26170 0.13418 0.84794
 C661 C 0.25499 0.15444 0.82326
 C662 C 0.26815 0.18693 0.82190
 C663 C 0.28883 0.19863 0.84546
 C664 C 0.29543 0.17862 0.87056
 C665 C 0.32119 0.17272 0.92014
 C666 C 0.31512 0.19135 0.89430
 H667 H 0.33634 0.18385 0.93801
 H668 H 0.32572 0.21628 0.89306
 H669 H 0.33022 0.13424 0.96701
 H670 H 0.27102 0.05128 0.93244
 H671 H 0.23899 0.14474 0.80539
 H672 H 0.29906 0.22374 0.84478
 H673 H 0.26081 0.08085 0.88686
 H674 H 0.25060 0.10958 0.84778
 C675 C 0.81833 0.62924 0.38391
 C676 C 0.83817 0.64293 0.40762
 C677 C 0.84345 0.62466 0.43421
 C678 C 0.82883 0.59291 0.43788
 C679 C 0.81039 0.57890 0.41376
 C680 C 0.80529 0.59667 0.38711
 C681 C 0.81095 0.65054 0.35709
 C682 C 0.79006 0.63984 0.33315
 C683 C 0.78192 0.66137 0.30993
 C684 C 0.79452 0.69410 0.30973
 C685 C 0.81642 0.70465 0.33279
 C686 C 0.82445 0.68329 0.35651
 C687 C 0.85172 0.67514 0.40511
 C688 C 0.84506 0.69486 0.38008
 H689 H 0.86715 0.68555 0.42311
 H690 H 0.85560 0.71984 0.37956
 H691 H 0.85821 0.63554 0.45247
 H692 H 0.79857 0.55458 0.41601
 H693 H 0.76516 0.65245 0.29233
 H694 H 0.82636 0.72987 0.33291
 H695 H 0.79032 0.58473 0.36974
 H696 H 0.77914 0.61518 0.33220
 C697 C 0.13522 0.69731 0.88753
 C698 C 0.10586 0.71393 0.88990
 C699 C 0.08564 0.70943 0.91569
 C700 C 0.09424 0.68873 0.93993
 C701 C 0.12316 0.67164 0.93677
 C702 C 0.14320 0.67577 0.91113
 C703 C 0.15699 0.70419 0.86042
 C704 C 0.18720 0.68963 0.85635
 C705 C 0.20757 0.69858 0.83179
 C706 C 0.19835 0.72211 0.81055
 C707 C 0.16774 0.73576 0.81372
 C708 C 0.14721 0.72717 0.83847
 C709 C 0.09719 0.73570 0.86688
 C710 C 0.11740 0.74217 0.84174
 H711 H 0.07462 0.74836 0.86856
 H712 H 0.10981 0.75963 0.82483
 H713 H 0.06430 0.72391 0.91740
 H714 H 0.13022 0.65413 0.95381
 H715 H 0.23098 0.68755 0.82986
 H716 H 0.16023 0.75391 0.79743
 H717 H 0.16492 0.66194 0.91041
 H718 H 0.19591 0.67178 0.87214
 C719 C 0.61328 0.18304 0.39290
 C720 C 0.58418 0.19981 0.39715
 C721 C 0.56598 0.19543 0.42418
 C722 C 0.57661 0.17503 0.44759
 C723 C 0.60472 0.15744 0.44286
 C724 C 0.62275 0.16121 0.41585
 C725 C 0.63350 0.19064 0.36490
 C726 C 0.66345 0.17627 0.35908
 C727 C 0.68277 0.18630 0.33414
 C728 C 0.67276 0.21078 0.31419
 C729 C 0.64222 0.22408 0.31891
 C730 C 0.62270 0.21438 0.34410
 C731 C 0.57414 0.22192 0.37500
 C732 C 0.59300 0.22908 0.34908
 H733 H 0.55174 0.23457 0.37814
 H734 H 0.58454 0.24701 0.33303
 H735 H 0.54449 0.20944 0.42774
 H736 H 0.61319 0.14124 0.46043
 H737 H 0.70608 0.17538 0.33095
 H738 H 0.63408 0.24290 0.30360
 H739 H 0.64445 0.14748 0.41384
 H740 H 0.67280 0.15778 0.37382
 C741 C 0.87162 0.30157 0.89655
 C742 C 0.89919 0.28286 0.90168
 C743 C 0.91623 0.28577 0.92942
 C744 C 0.90583 0.30656 0.95298
 C745 C 0.87796 0.32461 0.94766
 C746 C 0.86127 0.32229 0.92000
 C747 C 0.85383 0.29742 0.86684
 C748 C 0.82692 0.31588 0.85913
 C749 C 0.80947 0.30926 0.83237
 C750 C 0.81841 0.28422 0.81245
 C751 C 0.84640 0.26706 0.81896
 C752 C 0.86415 0.27351 0.84591
 C753 C 0.90907 0.26063 0.87944
 C754 C 0.89170 0.25577 0.85232
 H755 H 0.93016 0.24620 0.88334
 H756 H 0.89986 0.23769 0.83620
 H757 H 0.93651 0.27022 0.93303
 H758 H 0.86945 0.34174 0.96447
 H759 H 0.78823 0.32323 0.82779
 H760 H 0.85377 0.24787 0.80360
 H761 H 0.84017 0.33682 0.91763
 H762 H 0.81857 0.33517 0.87362
 C763 C 0.37146 0.80011 0.38761
 C764 C 0.39890 0.78095 0.39232
 C765 C 0.41925 0.78688 0.41776
 C766 C 0.41267 0.81168 0.43887
 C767 C 0.38602 0.83122 0.43363
 C768 C 0.36571 0.82561 0.40842
 C769 C 0.34937 0.79185 0.36106
 C770 C 0.32070 0.80847 0.35509
 C771 C 0.30011 0.79876 0.33095
 C772 C 0.30760 0.77239 0.31198
 C773 C 0.33654 0.75625 0.31726
 C774 C 0.35722 0.76555 0.34166
 C775 C 0.40555 0.75560 0.37193
 C776 C 0.38524 0.74816 0.34711
 H777 H 0.42664 0.74104 0.37539
 H778 H 0.39131 0.72807 0.33221
 H779 H 0.43960 0.77142 0.42166
 H780 H 0.38074 0.85092 0.44925
 H781 H 0.27800 0.81171 0.32741
 H782 H 0.34264 0.73576 0.30285
 H783 H 0.34554 0.84135 0.40585
 H784 H 0.31339 0.82867 0.36903
 C785 C 0.30316 0.86714 0.11055
 C786 C 0.28405 0.89482 0.10648
 C787 C 0.28915 0.91535 0.08094
 C788 C 0.31311 0.90878 0.05914
 C789 C 0.33256 0.88182 0.06365
 C790 C 0.32774 0.86129 0.08895
 C791 C 0.29579 0.84490 0.13732
 C792 C 0.31245 0.81601 0.14281
 C793 C 0.30343 0.79522 0.16713
 C794 C 0.27774 0.80273 0.18673
 C795 C 0.26168 0.83195 0.18199
 C796 C 0.27028 0.85283 0.15744
 C797 C 0.25957 0.90158 0.12759
 C798 C 0.25291 0.88110 0.15257
 H799 H 0.24508 0.92287 0.12460
 H800 H 0.23345 0.88722 0.16805
 H801 H 0.27373 0.93588 0.07757
 H802 H 0.35159 0.87653 0.04743
 H803 H 0.31629 0.77288 0.17025
 H804 H 0.24174 0.83808 0.19692
 H805 H 0.34335 0.84088 0.09098
 H806 H 0.33210 0.80867 0.12833
 C807 C 0.82138 0.37780 0.60812
 C808 C 0.80661 0.40843 0.60626
 C809 C 0.81079 0.42799 0.57999
 C810 C 0.82882 0.41713 0.55499
 C811 C 0.84441 0.38738 0.55729
 C812 C 0.84096 0.36802 0.58353
 C813 C 0.81399 0.35639 0.63544
 C814 C 0.82675 0.32514 0.63916
 C815 C 0.81693 0.30498 0.66365
 C816 C 0.79423 0.31541 0.68517
 C817 C 0.78258 0.34712 0.68248
 C818 C 0.79219 0.36755 0.65786
 C819 C 0.78652 0.41870 0.62998
 C820 C 0.77936 0.39865 0.65515
 H821 H 0.77537 0.44224 0.62864
 H822 H 0.76296 0.40737 0.67248
 H823 H 0.79831 0.45077 0.57826
 H824 H 0.85868 0.37867 0.53836
 H825 H 0.82655 0.28075 0.66526
 H826 H 0.76526 0.35563 0.69910
 H827 H 0.85301 0.34510 0.58366
 H828 H 0.84383 0.31548 0.62315
 C829 C 0.68211 0.12030 0.11149
 C830 C 0.66334 0.13293 0.08749
 C831 C 0.65917 0.11519 0.06007
 C832 C 0.67388 0.08507 0.05595
 C833 C 0.69114 0.07200 0.08039
 C834 C 0.69506 0.08918 0.10778
 C835 C 0.68860 0.14128 0.13921
 C836 C 0.70875 0.13181 0.16338
 C837 C 0.71621 0.15326 0.18752
 C838 C 0.70358 0.18462 0.18847
 C839 C 0.68241 0.19381 0.16516
 C840 C 0.67515 0.17260 0.14047
 C841 C 0.64979 0.16366 0.09063
 C842 C 0.65547 0.18301 0.11659
 H843 H 0.63513 0.17324 0.07244
 H844 H 0.64497 0.20689 0.11762
 H845 H 0.64526 0.12530 0.04161
 H846 H 0.70306 0.04901 0.07789
 H847 H 0.73242 0.14542 0.20528
 H848 H 0.67251 0.21801 0.16559
 H849 H 0.70914 0.07799 0.12533
 H850 H 0.71966 0.10828 0.16381
 C851 C 0.21071 0.62504 0.61050
 C852 C 0.18676 0.63446 0.58946
 C853 C 0.17947 0.61490 0.56367
 C854 C 0.19597 0.58607 0.55813
 C855 C 0.21965 0.57679 0.57904
 C856 C 0.22692 0.59590 0.60488
 C857 C 0.21822 0.64697 0.63743
 C858 C 0.24149 0.63974 0.65973
 C859 C 0.24868 0.66161 0.68361
 C860 C 0.23287 0.69129 0.68608
 C861 C 0.20890 0.69828 0.66453
 C862 C 0.20151 0.67643 0.64031
 C863 C 0.17053 0.66353 0.59403
 C864 C 0.17784 0.68413 0.61882
 H865 H 0.15215 0.67071 0.57795
 H866 H 0.16490 0.70657 0.62107
 H867 H 0.16086 0.62215 0.54784
 H868 H 0.23315 0.55498 0.57512
 H869 H 0.26716 0.65542 0.69997
 H870 H 0.19639 0.72105 0.66621
 H871 H 0.24560 0.58758 0.61988
 H872 H 0.25468 0.61751 0.65906
 C873 C 0.88337 0.71830 0.10422
 C874 C 0.87072 0.69520 0.08251
 C875 C 0.88758 0.69027 0.05510
 C876 C 0.91705 0.70804 0.04872
 C877 C 0.92965 0.73083 0.07025
 C878 C 0.91308 0.73597 0.09763
 C879 C 0.86421 0.72323 0.13298
 C880 C 0.87437 0.74583 0.15592
 C881 C 0.85475 0.75073 0.18150
 C882 C 0.82461 0.73314 0.18500
 C883 C 0.81488 0.70971 0.16284
 C884 C 0.83425 0.70477 0.13694
 C885 C 0.84124 0.67726 0.08814
 C886 C 0.82338 0.68197 0.11474
 H887 H 0.83163 0.65950 0.07157
 H888 H 0.80050 0.66775 0.11784
 H889 H 0.87789 0.67226 0.03876
 H890 H 0.95221 0.74508 0.06574
 H891 H 0.86293 0.76892 0.19826
 H892 H 0.79166 0.69590 0.16524
 H893 H 0.92388 0.75397 0.11317
 H894 H 0.89707 0.76036 0.15437
 C895 C 0.36884 0.19557 0.62309
 C896 C 0.35538 0.17601 0.59901
 C897 C 0.37377 0.17092 0.57245
 C898 C 0.40553 0.18523 0.56928
 C899 C 0.41943 0.20311 0.59382
 C900 C 0.40143 0.20819 0.62040
 C901 C 0.34733 0.20289 0.64982
 C902 C 0.35755 0.22400 0.67390
 C903 C 0.33591 0.23184 0.69717
 C904 C 0.30356 0.21868 0.69730
 C905 C 0.29345 0.19678 0.67396
 C906 C 0.31486 0.18913 0.65016
 C907 C 0.32334 0.16243 0.60116
 C908 C 0.30360 0.16869 0.62625
 H909 H 0.31314 0.14717 0.58287
 H910 H 0.27880 0.15801 0.62656
 H911 H 0.36302 0.15655 0.55382
 H912 H 0.44384 0.21451 0.59194
 H913 H 0.34446 0.24870 0.71493
 H914 H 0.26849 0.18651 0.67370
 H915 H 0.41324 0.22273 0.63818
 H916 H 0.38191 0.23532 0.67488
 C917 C 0.11697 0.28444 0.11961
 C918 C 0.12778 0.30870 0.09819
 C919 C 0.10942 0.31400 0.07185
 C920 C 0.08028 0.29541 0.06618
 C921 C 0.06915 0.27187 0.08768
 C922 C 0.08722 0.26639 0.11407
 C923 C 0.13812 0.27865 0.14682
 C924 C 0.13021 0.25447 0.16906
 C925 C 0.15160 0.24894 0.19310
 C926 C 0.18133 0.26743 0.19572
 C927 C 0.18894 0.29225 0.17424
 C928 C 0.16779 0.29783 0.14986
 C929 C 0.15704 0.32729 0.10291
 C930 C 0.17660 0.32200 0.12820
 H931 H 0.16518 0.34600 0.08659
 H932 H 0.19924 0.33676 0.13060
 H933 H 0.11790 0.33264 0.05557
 H934 H 0.04681 0.25709 0.08374
 H935 H 0.14503 0.22969 0.20938
 H936 H 0.21182 0.30675 0.17598
 H937 H 0.07764 0.24770 0.12958
 H938 H 0.10793 0.23920 0.16808
 C939 C 0.62504 0.79245 0.60453
 C940 C 0.63709 0.81624 0.58317
 C941 C 0.61991 0.82144 0.55605
 C942 C 0.59073 0.80321 0.54959
 C943 C 0.57863 0.77987 0.57089
 C944 C 0.59549 0.77451 0.59799
 C945 C 0.64472 0.78703 0.63282
 C946 C 0.63527 0.76362 0.65532
 C947 C 0.65541 0.75825 0.68035
 C948 C 0.68539 0.77616 0.68375
 C949 C 0.69439 0.80039 0.66208
 C950 C 0.67449 0.80581 0.63671
 C951 C 0.66637 0.83450 0.58878
 C952 C 0.68467 0.82938 0.61494
 H953 H 0.67550 0.85281 0.57248
 H954 H 0.70740 0.84385 0.61799
 H955 H 0.62923 0.83987 0.53993
 H956 H 0.55632 0.76526 0.56633
 H957 H 0.64776 0.73945 0.69673
 H958 H 0.71746 0.81446 0.66441
 H959 H 0.58511 0.75603 0.61330
 H960 H 0.61275 0.74880 0.65379
   
