data_POSCAR
  _audit_creation_date              2014-09-24
  _audit_creation_method            'ToBaCCo'
  _symmetry_space_group_name_H-M    'P1'
  _symmetry_Int_Tables_number       1
  _symmetry_cell_setting            triclinic
  loop_
  _symmetry_equiv_pos_as_xyz
 x,y,z
_cell_length_a 38.7539
_cell_length_b 38.7772
_cell_length_c 38.8796
_cell_angle_alpha 90.033400
_cell_angle_beta 90.055800
_cell_angle_gamma 89.939300
loop_
  _atom_site_label
  _atom_site_type_symbol
  _atom_site_fract_x
  _atom_site_fract_y
  _atom_site_fract_z
C1 C 0.33193 0.38306 1.35927
 C2 C 0.35660 0.38463 1.33296
 C3 C 0.38262 0.36013 1.33131
 C4 C 0.38427 0.33376 1.35594
 C5 C 0.35988 0.33223 1.38194
 C6 C 0.33356 0.35701 1.38362
 C7 C 0.30305 0.40252 1.36640
 N8 N 0.28744 0.38881 1.39438
 C9 C 0.30566 0.36102 1.40518
 C10 C 0.36694 0.30333 1.40127
 N11 N 0.39493 0.28757 1.38754
 C12 C 0.40581 0.30574 1.35985
 C13 C 0.40197 0.36718 1.30248
 N14 N 0.38826 0.39525 1.28688
 C15 C 0.36056 0.40619 1.30510
 H16 H 0.29374 0.42455 1.35198
 H17 H 0.29877 0.34464 1.42666
 H18 H 0.35247 0.29410 1.42324
 H19 H 0.42731 0.29874 1.34348
 H20 H 0.42395 0.35268 1.29316
 H21 H 0.34422 0.42778 1.29821
 C22 C 1.16853 0.61840 0.86140
 C23 C 1.14372 0.61676 0.83517
 C24 C 1.11763 0.64118 0.83362
 C25 C 1.11603 0.66754 0.85827
 C26 C 1.14056 0.66917 0.88420
 C27 C 1.16697 0.64446 0.88578
 C28 C 1.19747 0.59900 0.86840
 N29 N 1.21322 0.61273 0.89633
 C30 C 1.19501 0.64049 0.90724
 C31 C 1.13348 0.69807 0.90357
 N32 N 1.10535 0.71370 0.88993
 C33 C 1.09441 0.69548 0.86227
 C34 C 1.09816 0.63406 0.80484
 N35 N 1.11187 0.60603 0.78917
 C36 C 1.13969 0.59518 0.80730
 H37 H 1.20673 0.57698 0.85392
 H38 H 1.20199 0.65688 0.92871
 H39 H 1.14801 0.70736 0.92550
 H40 H 1.07280 0.70238 0.84597
 H41 H 1.07609 0.64850 0.79560
 H42 H 1.15606 0.57364 0.80034
 C43 C 0.66864 -0.11796 0.13864
 C44 C 0.64387 -0.11636 0.16486
 C45 C 0.61784 -0.14079 0.16635
 C46 C 0.61626 -0.16710 0.14165
 C47 C 0.64075 -0.16868 0.11572
 C48 C 0.66710 -0.14397 0.11420
 C49 C 0.69753 -0.09854 0.13169
 N50 N 0.71327 -0.11223 0.10374
 C51 C 0.69511 -0.13997 0.09277
 C52 C 0.63371 -0.19756 0.09632
 N53 N 0.60564 -0.21323 0.10994
 C54 C 0.59471 -0.19504 0.13762
 C55 C 0.59841 -0.13375 0.19514
 N56 N 0.61209 -0.10576 0.21088
 C57 C 0.63985 -0.09486 0.19279
 H58 H 0.70677 -0.07655 0.14622
 H59 H 0.70210 -0.15631 0.07127
 H60 H 0.64823 -0.20684 0.07439
 H61 H 0.57315 -0.20197 0.15391
 H62 H 0.57639 -0.14823 0.20434
 H63 H 0.65619 -0.07334 0.19981
 C64 C -0.16853 1.11702 -0.35950
 C65 C -0.14384 1.11547 -0.33315
 C66 C -0.11781 1.13990 -0.33154
 C67 C -0.11616 1.16617 -0.35625
 C68 C -0.14056 1.16770 -0.38230
 C69 C -0.16690 1.14299 -0.38394
 C70 C -0.19741 1.09760 -0.36659
 N71 N -0.21304 1.11125 -0.39463
 C72 C -0.19483 1.13897 -0.40551
 C73 C -0.13348 1.19653 -0.40171
 N74 N -0.10546 1.21223 -0.38798
 C75 C -0.09459 1.19411 -0.36022
 C76 C -0.09846 1.13289 -0.30266
 N77 N -0.11219 1.10491 -0.28699
 C78 C -0.13990 1.09400 -0.30521
 H79 H -0.20670 1.07564 -0.35211
 H80 H -0.20173 1.15528 -0.42705
 H81 H -0.14794 1.20574 -0.42372
 H82 H -0.07307 1.20109 -0.34384
 H83 H -0.07647 1.14737 -0.29336
 H84 H -0.15626 1.07248 -0.29827
 C85 C 0.66731 0.61847 0.63912
 C86 C 0.64253 0.61704 0.66533
 C87 C 0.61655 0.64157 0.66679
 C88 C 0.61504 0.66783 0.64205
 C89 C 0.63954 0.66924 0.61614
 C90 C 0.66584 0.64442 0.61467
 C91 C 0.69619 0.59895 0.63223
 N92 N 0.71200 0.61250 0.60430
 C93 C 0.69387 0.64026 0.59329
 C94 C 0.63259 0.69810 0.59669
 N95 N 0.60456 0.71393 0.61027
 C96 C 0.59355 0.69587 0.63796
 C97 C 0.59711 0.63467 0.69560
 N98 N 0.61074 0.60666 0.71136
 C99 C 0.63848 0.59561 0.69327
 H100 H 0.70541 0.57698 0.64677
 H101 H 0.70094 0.65652 0.57179
 H102 H 0.64716 0.70725 0.57476
 H103 H 0.57200 0.70295 0.65423
 H104 H 0.57512 0.64926 0.70479
 H105 H 0.65479 0.57405 0.70031
 C106 C 0.83128 0.38250 0.14118
 C107 C 0.85599 0.38385 0.16752
 C108 C 0.88193 0.35926 0.16904
 C109 C 0.88347 0.33303 0.14424
 C110 C 0.85904 0.33170 0.11820
 C111 C 0.83280 0.35658 0.11666
 C112 C 0.80248 0.40212 0.13414
 N113 N 0.78680 0.38863 0.10605
 C114 C 0.80490 0.36082 0.09509
 C115 C 0.86603 0.30289 0.09868
 N116 N 0.89400 0.28700 0.11232
 C117 C 0.90494 0.30498 0.14015
 C118 C 0.90135 0.36612 0.19791
 N119 N 0.88777 0.39416 0.21367
 C120 C 0.86007 0.40527 0.19551
 H121 H 0.79328 0.42412 0.14868
 H122 H 0.79794 0.34460 0.07348
 H123 H 0.85153 0.29383 0.07663
 H124 H 0.92646 0.29786 0.15648
 H125 H 0.92332 0.35151 0.20713
 H126 H 0.84382 0.42689 0.20251
 C127 C 0.33075 0.11661 0.85868
 C128 C 0.35542 0.11517 0.83235
 C129 C 0.38139 0.13967 0.83085
 C130 C 0.38300 0.16590 0.85564
 C131 C 0.35863 0.16732 0.88165
 C132 C 0.33235 0.14254 0.88320
 C133 C 0.30192 0.09712 0.86571
 N134 N 0.28630 0.11069 0.89379
 C135 C 0.30447 0.13842 0.90475
 C136 C 0.36568 0.19612 0.90114
 N137 N 0.39363 0.21194 0.88750
 C138 C 0.40449 0.19388 0.85972
 C139 C 0.40075 0.13276 0.80198
 N140 N 0.38710 0.10477 0.78620
 C141 C 0.35941 0.09375 0.80435
 H142 H 0.29265 0.07516 0.85117
 H143 H 0.29758 0.15469 0.92634
 H144 H 0.35124 0.20528 0.92317
 H145 H 0.42598 0.20096 0.84341
 H146 H 0.42271 0.14730 0.79277
 H147 H 0.34312 0.07220 0.79733
 C148 C 0.16853 0.88237 0.36103
 C149 C 0.14366 0.88390 0.33485
 C150 C 0.11765 0.85945 0.33342
 C151 C 0.11620 0.83316 0.35812
 C152 C 0.14079 0.83164 0.38399
 C153 C 0.16712 0.85638 0.38546
 C154 C 0.19745 0.90180 0.36789
 N155 N 0.21332 0.88816 0.39580
 C156 C 0.19522 0.86042 0.40682
 C157 C 0.13385 0.80277 0.40339
 N158 N 0.10577 0.78703 0.38984
 C159 C 0.09472 0.80520 0.36220
 C160 C 0.09811 0.86641 0.30464
 N161 N 0.11171 0.89439 0.28887
 C162 C 0.13952 0.90535 0.30692
 H163 H 0.20661 0.92377 0.35334
 H164 H 0.20232 0.84410 0.42829
 H165 H 0.14846 0.79351 0.42528
 H166 H 0.07310 0.79819 0.34598
 H167 H 0.07609 0.85189 0.29547
 H168 H 0.15583 0.92687 0.29986
 Zn169 Zn 0.04161 0.97917 0.00856
 Zn170 Zn 0.00747 1.04188 -0.02027
 Zn171 Zn -0.02712 0.97302 -0.02631
 Zn172 Zn -0.02137 1.00788 0.04228
 O173 O 0.00011 1.00046 0.00104
 O174 O 0.07754 1.00358 -0.00710
 O175 O -0.01351 1.04456 -0.06115
 O176 O -0.00627 0.93337 -0.03820
 O177 O 0.05218 1.05012 -0.02851
 O178 O 0.04446 0.93813 -0.01222
 O179 O -0.03913 0.99368 -0.06590
 O180 O -0.06234 0.98687 0.04490
 O181 O -0.00821 1.07786 0.00412
 O182 O -0.06680 0.96097 -0.00577
 O183 O -0.02970 1.05259 0.05050
 O184 O 0.00307 0.99232 0.07821
 O185 O 0.04986 0.97108 0.05318
 C186 C 0.07900 1.03249 -0.02220
 C187 C -0.03206 1.02334 -0.07765
 C188 C 0.02338 0.92158 -0.03089
 C189 C -0.07873 0.96815 0.02375
 C190 C -0.02333 1.07938 0.03298
 C191 C 0.03213 0.97739 0.07983
 Zn192 Zn 0.47904 0.00818 0.45714
 Zn193 Zn 0.47318 -0.02659 0.52571
 Zn194 Zn 0.54195 -0.02056 0.49107
 Zn195 Zn 0.50782 0.04222 0.51981
 O196 O 0.50047 0.00079 0.49846
 O197 O 0.43804 -0.01277 0.45440
 O198 O 0.49397 -0.06623 0.53767
 O199 O 0.55023 -0.02874 0.44648
 O200 O 0.43352 -0.03863 0.50504
 O201 O 0.50351 -0.00746 0.42129
 O202 O 0.54476 -0.06156 0.51190
 O203 O 0.55254 0.05045 0.52815
 O204 O 0.46112 -0.00589 0.56525
 O205 O 0.57789 0.00389 0.50677
 O206 O 0.48679 0.04497 0.56064
 O207 O 0.49221 0.07817 0.49537
 O208 O 0.47081 0.05289 0.44889
 C209 C 0.42162 -0.03145 0.47550
 C210 C 0.52363 -0.07805 0.53049
 C211 C 0.53255 -0.02245 0.41977
 C212 C 0.57936 0.03283 0.52186
 C213 C 0.46818 0.02377 0.57705
 C214 C 0.47718 0.07969 0.46645
 Zn215 Zn 1.00828 0.45716 0.48024
 Zn216 Zn 1.04224 0.51992 0.50911
 Zn217 Zn 0.97353 0.52598 0.47416
 Zn218 Zn 0.97932 0.49124 0.54279
 O219 O 1.00081 0.49860 0.50155
 O220 O 1.05302 0.44894 0.47203
 O221 O 1.04500 0.56093 0.48832
 O222 O 0.96158 0.50526 0.43458
 O223 O 1.07824 0.49550 0.49349
 O224 O 0.98732 0.45439 0.43934
 O225 O 0.99429 0.56561 0.46228
 O226 O 0.93829 0.51223 0.54535
 O227 O 1.05043 0.52810 0.55373
 O228 O 0.93382 0.53806 0.49468
 O229 O 1.00369 0.50688 0.57875
 O230 O 0.97109 0.44654 0.55100
 O231 O 0.99267 0.42122 0.50463
 C232 C 1.07980 0.46658 0.47838
 C233 C 1.02390 0.57743 0.46962
 C234 C 0.96871 0.47558 0.42284
 C235 C 0.92188 0.53091 0.52418
 C236 C 1.03270 0.52185 0.58038
 C237 C 0.97753 0.41973 0.53347
 Zn238 Zn 0.50787 0.45862 1.02052
 Zn239 Zn 0.47324 0.52751 1.02658
 Zn240 Zn 0.54191 0.52126 0.99166
 Zn241 Zn 0.47885 0.49266 0.95798
 O242 O 0.50044 0.50005 0.99921
 O243 O 0.48698 0.45595 1.06140
 O244 O 0.49410 0.56713 1.03845
 O245 O 0.57790 0.49677 1.00725
 O246 O 0.46134 0.50687 1.06617
 O247 O 0.55261 0.45031 1.02873
 O248 O 0.54478 0.56227 1.01247
 O249 O 0.50316 0.50825 0.92204
 O250 O 0.43349 0.53962 1.00605
 O251 O 0.55000 0.52941 0.94704
 O252 O 0.43784 0.51368 0.95541
 O253 O 0.47059 0.44796 0.94974
 O254 O 0.49217 0.42267 0.99613
 C255 C 0.46844 0.47719 1.07792
 C256 C 0.52374 0.57886 1.03113
 C257 C 0.57942 0.46786 1.02236
 C258 C 0.53219 0.52318 0.92040
 C259 C 0.42149 0.53242 0.97656
 C260 C 0.47702 0.42117 0.96727
 C261 C 1.25805 0.39981 0.40796
 C262 C 1.23120 0.40977 0.42008
 C263 C 1.19955 0.42142 0.43378
 C264 C 1.17235 0.43145 0.44497
 C265 C 1.14028 0.44338 0.45742
 C266 C 1.11274 0.45380 0.46739
 C267 C 0.24270 0.60170 0.90977
 C268 C 0.26963 0.59162 0.92164
 C269 C 0.30138 0.57966 0.93490
 C270 C 0.32867 0.56925 0.94559
 C271 C 0.36084 0.55679 0.95732
 C272 C 0.38846 0.54585 0.96656
 C273 C -0.25728 0.89882 0.09036
 C274 C -0.23039 0.90893 0.07853
 C275 C -0.19867 0.92091 0.06532
 C276 C -0.17142 0.93133 0.05467
 C277 C -0.13930 0.94381 0.04298
 C278 C -0.11171 0.95474 0.03375
 C279 C 0.75756 0.10023 0.59180
 C280 C 0.73071 0.09022 0.57974
 C281 C 0.69906 0.07845 0.56614
 C282 C 0.67186 0.06830 0.55505
 C283 C 0.63980 0.05622 0.54271
 C284 C 0.61228 0.04569 0.53281
 C285 C 0.40843 0.25812 0.39851
 C286 C 0.42037 0.23122 0.40853
 C287 C 0.43376 0.19951 0.42039
 C288 C 0.44464 0.17227 0.43065
 C289 C 0.45672 0.14018 0.44287
 C290 C 0.46642 0.11263 0.45350
 C291 C 0.90808 0.24161 0.60101
 C292 C 0.92011 0.26844 0.59099
 C293 C 0.93363 0.30007 0.57918
 C294 C 0.94465 0.32726 0.56899
 C295 C 0.95688 0.35930 0.55688
 C296 C 0.96669 0.38681 0.54632
 C297 C 0.09176 0.74311 -0.09907
 C298 C 0.07970 0.76997 -0.08908
 C299 C 0.06617 0.80165 -0.07728
 C300 C 0.05521 0.82888 -0.06706
 C301 C 0.04316 0.86099 -0.05483
 C302 C 0.03365 0.88858 -0.04410
 C303 C 0.59212 0.75736 1.09895
 C304 C 0.58009 0.73049 1.08898
 C305 C 0.56657 0.69881 1.07726
 C306 C 0.55560 0.67156 1.06711
 C307 C 0.54354 0.63945 1.05497
 C308 C 0.53402 0.61186 1.04429
 C309 C 0.39988 0.40958 1.25590
 C310 C 0.40991 0.42156 1.22912
 C311 C 0.42176 0.43497 1.19752
 C312 C 0.43205 0.44581 1.17036
 C313 C 0.44436 0.45770 1.13834
 C314 C 0.45517 0.46708 1.11083
 C315 C 0.60039 -0.09150 0.24188
 C316 C 0.59033 -0.07956 0.26869
 C317 C 0.57847 -0.06612 0.30029
 C318 C 0.56824 -0.05518 0.32745
 C319 C 0.55607 -0.04302 0.35945
 C320 C 0.54547 -0.03326 0.38692
 C321 C -0.10058 1.09067 -0.25593
 C322 C -0.09057 1.07876 -0.22908
 C323 C -0.07875 1.06542 -0.19742
 C324 C -0.06848 1.05463 -0.17021
 C325 C -0.05618 1.04279 -0.13813
 C326 C -0.04537 1.03344 -0.11059
 C327 C 1.10016 0.59166 0.75821
 C328 C 1.09010 0.57960 0.73144
 C329 C 1.07829 0.56601 0.69987
 C330 C 1.06811 0.55492 0.67273
 C331 C 1.05603 0.54261 0.64074
 C332 C 1.04551 0.53274 0.61326
 C333 C 0.74313 0.60069 0.59023
 C334 C 0.77005 0.59047 0.57850
 C335 C 0.80180 0.57837 0.56542
 C336 C 0.82909 0.56787 0.55487
 C337 C 0.86125 0.55532 0.54330
 C338 C 0.88886 0.54434 0.53414
 C339 C 0.75746 0.39986 1.09248
 C340 C 0.73066 0.41004 1.08040
 C341 C 0.69907 0.42197 1.06675
 C342 C 0.67190 0.43222 1.05560
 C343 C 0.63988 0.44438 1.04322
 C344 C 0.61236 0.45496 1.03329
 C345 C 0.25696 1.09960 -0.09264
 C346 C 0.23016 1.08957 -0.08054
 C347 C 0.19857 1.07783 -0.06685
 C348 C 0.17142 1.06774 -0.05565
 C349 C 0.13941 1.05575 -0.04320
 C350 C 0.11191 1.04529 -0.03321
 C351 C 0.24283 -0.10077 0.40909
 C352 C 0.26978 -0.09065 0.42084
 C353 C 0.30155 -0.07865 0.43395
 C354 C 0.32885 -0.06822 0.44455
 C355 C 0.36102 -0.05574 0.45619
 C356 C 0.38862 -0.04482 0.46543
 C357 C 0.59114 -0.25662 0.59919
 C358 C 0.57923 -0.22972 0.58911
 C359 C 0.56589 -0.19801 0.57721
 C360 C 0.55509 -0.17075 0.56689
 C361 C 0.54322 -0.13863 0.55456
 C362 C 0.53382 -0.11104 0.54376
 C363 C 1.09156 0.75595 0.40151
 C364 C 1.07964 0.72908 0.41153
 C365 C 1.06626 0.69738 0.42332
 C366 C 1.05542 0.67014 0.43352
 C367 C 1.04349 0.63801 0.44572
 C368 C 1.03408 0.61043 0.45644
 C369 C -0.09254 1.25760 0.10117
 C370 C -0.08059 1.23074 0.09101
 C371 C -0.06714 1.19909 0.07905
 C372 C -0.05618 1.17189 0.06874
 C373 C -0.04399 1.13984 0.05650
 C374 C -0.03419 1.11231 0.04588
 C375 C 0.40789 0.24298 0.89927
 C376 C 0.41983 0.26983 0.90939
 C377 C 0.43327 0.30147 0.92130
 C378 C 0.44422 0.32867 0.93157
 C379 C 0.45640 0.36072 0.94377
 C380 C 0.46618 0.38825 0.95437
 C381 C 0.59907 0.59249 0.74238
 C382 C 0.58907 0.58057 0.76921
 C383 C 0.57737 0.56710 0.80083
 C384 C 0.56730 0.55610 0.82800
 C385 C 0.55534 0.54386 0.86002
 C386 C 0.54492 0.53403 0.88751
 C387 C 0.39879 0.09061 0.75515
 C388 C 0.40891 0.07879 0.72831
 C389 C 0.42092 0.06558 0.69666
 C390 C 0.43135 0.05491 0.66947
 C391 C 0.44383 0.04318 0.63743
 C392 C 0.45477 0.03388 0.60993
 C393 C 0.09994 0.90858 0.25786
 C394 C 0.08984 0.92047 0.23104
 C395 C 0.07797 0.93386 0.19942
 C396 C 0.06774 0.94478 0.17224
 C397 C 0.05559 0.95690 0.14022
 C398 C 0.04502 0.96663 0.11272
 C399 C 0.89953 0.40833 0.24471
 C400 C 0.90967 0.42019 0.27154
 C401 C 0.92166 0.43347 0.30318
 C402 C 0.93206 0.44423 0.33036
 C403 C 0.94448 0.45606 0.36241
 C404 C 0.95536 0.46542 0.38992
   
