data_POSCAR
  _audit_creation_date              2014-09-24
  _audit_creation_method            'ToBaCCo'
  _symmetry_space_group_name_H-M    'P1'
  _symmetry_Int_Tables_number       1
  _symmetry_cell_setting            triclinic
  loop_
  _symmetry_equiv_pos_as_xyz
 x,y,z
_cell_length_a 33.0687
_cell_length_b 33.0995
_cell_length_c 32.6962
_cell_angle_alpha 91.271500
_cell_angle_beta 90.717000
_cell_angle_gamma 89.010600
loop_
  _atom_site_label
  _atom_site_type_symbol
  _atom_site_fract_x
  _atom_site_fract_y
  _atom_site_fract_z
N1 N 0.59024 0.68328 0.60073
 N2 N 0.56551 0.65568 0.61353
 C3 C 0.52817 0.67203 0.61725
 C4 C 0.52980 0.71220 0.60702
 C5 C 0.56964 0.71843 0.59667
 H6 H 0.50210 0.65632 0.62807
 H7 H 0.58262 0.74624 0.58661
 Cu8 Cu 0.58490 0.60226 0.62833
 Cu9 Cu 0.64707 0.67131 0.58987
 Cu10 Cu 0.67761 0.57176 0.60052
 N11 N 0.61290 0.55789 0.65536
 N12 N 0.65008 0.54714 0.64572
 C13 C 0.66304 0.51765 0.67061
 C14 C 0.63209 0.50915 0.69697
 C15 C 0.60055 0.53519 0.68633
 H16 H 0.69266 0.50329 0.66941
 H17 H 0.57139 0.53852 0.70074
 N18 N 0.70808 0.61009 0.56878
 N19 N 0.69748 0.64857 0.56601
 C20 C 0.72317 0.66655 0.54072
 C21 C 0.75074 0.63781 0.52658
 C22 C 0.74045 0.60238 0.54523
 H23 H 0.72047 0.69758 0.53121
 H24 H 0.75466 0.57293 0.54116
 H25 H 0.63429 0.61261 0.57524
 H26 H 0.65546 0.62242 0.62785
 N27 N 0.91227 0.30472 0.09848
 N28 N 0.92531 0.32166 0.13280
 C29 C 0.95787 0.30072 0.14651
 C30 C 0.96597 0.26945 0.11875
 C31 C 0.93664 0.27310 0.08857
 H32 H 0.97507 0.30844 0.17383
 H33 H 0.93292 0.25371 0.06177
 Cu34 Cu 0.90002 0.37091 0.15482
 Cu35 Cu 0.86350 0.32351 0.07041
 Cu36 Cu 0.81728 0.41083 0.10881
 N37 N 0.87534 0.42153 0.17405
 N38 N 0.84194 0.43594 0.15718
 C39 C 0.82999 0.46956 0.17792
 C40 C 0.85788 0.47710 0.20876
 C41 C 0.88631 0.44613 0.20551
 H42 H 0.80322 0.48747 0.17093
 H43 H 0.91228 0.44134 0.22534
 N44 N 0.79696 0.38107 0.06011
 N45 N 0.81384 0.34707 0.04632
 C46 C 0.79192 0.33289 0.01427
 C47 C 0.76037 0.35965 0.00706
 C48 C 0.76438 0.38989 0.03658
 H49 H 0.79847 0.30530 -0.00289
 H50 H 0.74444 0.41579 0.04112
 H51 H 0.86996 0.38361 0.08777
 H52 H 0.83695 0.35251 0.12020
 N53 N 0.41556 0.18672 -0.09332
 N54 N 0.43184 0.17044 -0.12641
 C55 C 0.46371 0.19252 -0.13707
 C56 C 0.46774 0.22397 -0.10885
 C57 C 0.43694 0.21926 -0.08136
 H58 H 0.48279 0.18611 -0.16312
 H59 H 0.42996 0.23869 -0.05527
 Cu60 Cu 0.41001 0.12168 -0.15183
 Cu61 Cu 0.36608 0.16634 -0.07023
 Cu62 Cu 0.33179 0.07495 -0.10982
 N63 N 0.38675 0.07371 -0.17741
 N64 N 0.35574 0.05601 -0.16106
 C65 C 0.34463 0.02458 -0.18520
 C66 C 0.37043 0.02206 -0.21802
 C67 C 0.39687 0.05366 -0.21223
 H68 H 0.31972 0.00486 -0.17931
 H69 H 0.42102 0.06184 -0.23227
 N70 N 0.31124 0.09991 -0.05874
 N71 N 0.32277 0.13573 -0.04486
 C72 C 0.30133 0.14578 -0.01126
 C73 C 0.27540 0.11460 -0.00358
 C74 C 0.28267 0.08594 -0.03395
 H75 H 0.30472 0.17339 0.00665
 H76 H 0.26743 0.05748 -0.03817
 H77 H 0.38043 0.10745 -0.08619
 H78 H 0.34396 0.13393 -0.12101
 N79 N 0.07729 0.81837 0.41094
 N80 N 0.06180 0.83190 0.37653
 C81 C 0.03164 0.80754 0.36398
 C82 C 0.02773 0.77753 0.39251
 C83 C 0.05693 0.78556 0.42201
 H84 H 0.01343 0.81187 0.33669
 H85 H 0.06351 0.76815 0.44898
 Cu86 Cu 0.08141 0.88098 0.35233
 Cu87 Cu 0.12439 0.84257 0.43730
 Cu88 Cu 0.16023 0.92989 0.39506
 N89 N 0.10039 0.93153 0.33070
 N90 N 0.13222 0.94956 0.34660
 C91 C 0.13997 0.98263 0.32499
 C92 C 0.11110 0.98572 0.29424
 C93 C 0.08627 0.95308 0.29890
 H94 H 0.16424 1.00334 0.33162
 H95 H 0.06025 0.94541 0.28011
 N96 N 0.18456 0.90539 0.44406
 N97 N 0.17178 0.87141 0.45942
 C98 C 0.19592 0.86137 0.49128
 C99 C 0.22480 0.89081 0.49636
 C100 C 0.21657 0.91833 0.46624
 H101 H 0.19258 0.83492 0.50967
 H102 H 0.23335 0.94533 0.46049
 H103 H 0.11109 0.90047 0.41831
 H104 H 0.14670 0.86948 0.38606
 C105 C 0.10810 0.17056 0.13210
 C106 C 0.14373 0.15538 0.11427
 C107 C 0.16349 0.12218 0.13067
 C108 C 0.14815 0.10406 0.16547
 C109 C 0.11295 0.11904 0.18312
 C110 C 0.09303 0.15283 0.16660
 C111 C 0.08249 0.20223 0.12246
 N112 N 0.05272 0.20440 0.15063
 C113 C 0.05898 0.17467 0.17796
 C114 C 0.10498 0.09525 0.21600
 N115 N 0.13474 0.06662 0.21881
 C116 C 0.16145 0.07197 0.18838
 C117 C 0.19692 0.11395 0.10702
 N118 N 0.19797 0.14164 0.07701
 C119 C 0.16583 0.16727 0.08138
 H120 H 0.08557 0.22264 0.09731
 H121 H 0.03998 0.16923 0.20393
 H122 H 0.07986 0.09890 0.23676
 H123 H 0.18842 0.05363 0.18320
 H124 H 0.21918 0.09007 0.11170
 H125 H 0.15896 0.19254 0.06185
 C126 C 0.40864 0.83979 0.60957
 C127 C 0.36946 0.85276 0.59858
 C128 C 0.35320 0.88771 0.61619
 C129 C 0.37548 0.90964 0.64557
 C130 C 0.41438 0.89726 0.65594
 C131 C 0.43116 0.86221 0.63763
 C132 C 0.43212 0.80697 0.59765
 N133 N 0.46827 0.80911 0.61774
 C134 C 0.46810 0.84289 0.64197
 C135 C 0.42838 0.92379 0.68569
 N136 N 0.39857 0.95125 0.69416
 C137 C 0.36622 0.94313 0.66951
 C138 C 0.31575 0.89412 0.59852
 N139 N 0.30898 0.86391 0.57062
 C140 C 0.34131 0.83814 0.57084
 H141 H 0.42370 0.78351 0.57572
 H142 H 0.49288 0.85234 0.66170
 H143 H 0.45745 0.92234 0.70124
 H144 H 0.33785 0.95996 0.66948
 H145 H 0.29523 0.91923 0.60496
 H146 H 0.34472 0.81165 0.55108
 C147 C 0.90265 0.66085 0.38070
 C148 C 0.87113 0.64060 0.39943
 C149 C 0.85546 0.60611 0.38105
 C150 C 0.87072 0.59161 0.34362
 C151 C 0.90185 0.61151 0.32516
 C152 C 0.91759 0.64664 0.34357
 C153 C 0.92400 0.69487 0.39159
 N154 N 0.95095 0.70180 0.36166
 C155 C 0.94713 0.67274 0.33207
 C156 C 0.91176 0.58964 0.29025
 N157 N 0.88686 0.55759 0.28684
 C158 C 0.86162 0.55849 0.31929
 C159 C 0.82601 0.59228 0.40624
 N160 N 0.82291 0.61783 0.43907
 C161 C 0.85044 0.64752 0.43532
 H162 H 0.91975 0.71368 0.41876
 H163 H 0.96469 0.67075 0.30435
 H164 H 0.93550 0.59630 0.26904
 H165 H 0.83922 0.53598 0.32536
 H166 H 0.80795 0.56563 0.40105
 H167 H 0.85558 0.67186 0.45733
 C168 C 0.59342 0.34155 -0.12566
 C169 C 0.62735 0.36108 -0.10898
 C170 C 0.64240 0.39470 -0.12772
 C171 C 0.62420 0.40875 -0.16380
 C172 C 0.59070 0.38949 -0.18021
 C173 C 0.57545 0.35550 -0.16123
 C174 C 0.57206 0.30845 -0.11395
 N175 N 0.54202 0.30190 -0.14191
 C176 C 0.54401 0.33026 -0.17104
 C177 C 0.57866 0.41019 -0.21443
 N178 N 0.60457 0.44087 -0.21960
 C179 C 0.63256 0.44037 -0.18886
 C180 C 0.67462 0.40804 -0.10435
 N181 N 0.67991 0.38288 -0.07250
 C182 C 0.65118 0.35405 -0.07497
 H183 H 0.57842 0.28998 -0.08765
 H184 H 0.52397 0.33232 -0.19738
 H185 H 0.55308 0.40341 -0.23426
 H186 H 0.65664 0.46188 -0.18468
 H187 H 0.69304 0.43398 -0.11014
 H188 H 0.64746 0.33026 -0.05320
 C189 C -0.00281 0.24054 0.11935
 C190 C 0.02075 0.23405 0.15221
 H191 H 0.00165 0.22162 0.09224
 H192 H 0.01459 0.24934 0.18114
 C193 C 0.49592 0.74155 0.60813
 C194 C 0.50168 0.78112 0.61426
 H195 H 0.46548 0.73004 0.60657
 H196 H 0.53197 0.79215 0.61971
 C197 C 1.00061 0.74565 0.39268
 C198 C 0.97782 0.73516 0.36015
 H199 H 0.99928 0.72763 0.41990
 H200 H 0.98144 0.74984 0.33119
 C201 C 0.49784 0.25616 -0.10807
 C202 C 0.51382 0.26952 -0.14249
 H203 H 0.50521 0.27075 -0.07902
 H204 H 0.50339 0.25764 -0.17184
 C205 C 0.10685 0.01725 0.26341
 C206 C 0.13890 0.03659 0.24954
 H207 H 0.07715 0.02323 0.25033
 H208 H 0.16905 0.02778 0.25965
 C209 C 0.63385 0.48091 -0.27194
 C210 C 0.60127 0.46992 -0.25128
 H211 H 0.66273 0.46639 -0.26524
 H212 H 0.57138 0.48082 -0.25996
 C213 C 0.36856 0.99227 0.74802
 C214 C 0.40081 0.98217 0.72548
 H215 H 0.34046 0.97648 0.74302
 H216 H 0.42995 0.99508 0.73289
 C217 C 0.85589 0.50982 0.23982
 C218 C 0.88924 0.52645 0.25579
 H219 H 0.82641 0.52151 0.24869
 H220 H 0.91867 0.51756 0.24407
 C221 C 0.24587 0.11185 0.02945
 C222 C 0.22820 0.14472 0.04626
 H223 H 0.23656 0.08211 0.03829
 H224 H 0.23463 0.17430 0.03460
 C225 C 0.78147 0.64347 0.49505
 C226 C 0.79546 0.61244 0.47206
 H227 H 0.79049 0.67397 0.48876
 H228 H 0.78369 0.58250 0.47629
 C229 C 0.72868 0.35540 -0.02461
 C230 C 0.71008 0.38747 -0.04097
 H231 H 0.72199 0.32533 -0.03626
 H232 H 0.71954 0.41767 -0.03222
 C233 C 0.25776 0.89333 0.52684
 C234 C 0.27476 0.86054 0.54348
 H235 H 0.27030 0.92278 0.53352
 H236 H 0.26500 0.83071 0.53377
   
