data_POSCAR
  _audit_creation_date              2014-09-24
  _audit_creation_method            'ToBaCCo'
  _symmetry_space_group_name_H-M    'P1'
  _symmetry_Int_Tables_number       1
  _symmetry_cell_setting            triclinic
  loop_
  _symmetry_equiv_pos_as_xyz
 x,y,z
_cell_length_a 60.4039
_cell_length_b 34.8445
_cell_length_c 19.6055
_cell_angle_alpha 89.983700
_cell_angle_beta 90.034700
_cell_angle_gamma 90.024500
loop_
  _atom_site_label
  _atom_site_type_symbol
  _atom_site_fract_x
  _atom_site_fract_y
  _atom_site_fract_z
C1 C 0.73313 0.26858 0.53785
 C2 C 0.73300 0.26717 0.46541
 C3 C 0.75035 0.24895 0.43083
 C4 C 0.76831 0.23215 0.46542
 C5 C 0.76825 0.23219 0.53839
 C6 C 0.75077 0.25080 0.57273
 H7 H 0.75075 0.25110 0.62798
 H8 H 0.75011 0.24923 0.37551
 C9 C 0.23113 0.76170 0.53746
 C10 C 0.23074 0.76054 0.46540
 C11 C 0.24811 0.74265 0.43049
 C12 C 0.26576 0.72537 0.46539
 C13 C 0.26604 0.72541 0.53813
 C14 C 0.24872 0.74436 0.57268
 H15 H 0.24836 0.74462 0.62795
 H16 H 0.24801 0.74254 0.37517
 C17 C 0.26746 0.26564 -0.53516
 C18 C 0.26586 0.27042 -0.46391
 C19 C 0.24745 0.25567 -0.42929
 C20 C 0.23039 0.23583 -0.46363
 C21 C 0.23164 0.23227 -0.53639
 C22 C 0.25050 0.24669 -0.57021
 H23 H 0.25167 0.24491 -0.62530
 H24 H 0.24710 0.25822 -0.37419
 C25 C -0.23370 0.76935 -0.53426
 C26 C -0.23538 0.77435 -0.46304
 C27 C -0.25384 0.75964 -0.42860
 C28 C -0.27082 0.73961 -0.46300
 C29 C -0.26951 0.73590 -0.53571
 C30 C -0.25062 0.75029 -0.56939
 H31 H -0.24938 0.74839 -0.62445
 H32 H -0.25429 0.76234 -0.37353
 O33 O -0.03076 0.93286 0.12732
 O34 O -0.05526 0.96759 0.06287
 C35 C -0.05072 0.94285 0.11027
 O36 O 0.03135 1.06968 0.11923
 O37 O 0.05540 1.03271 0.05729
 C38 C 0.05119 1.05954 0.10125
 O39 O -0.03051 1.06652 0.12735
 O40 O -0.05515 1.03226 0.06258
 C41 C -0.05052 1.05694 0.10997
 O42 O 0.03102 0.92881 0.11909
 O43 O 0.05524 0.96550 0.05721
 C44 C 0.05091 0.93876 0.10127
 Zr45 Zr 0.00009 0.95100 0.08734
 O46 O 0.00298 0.95102 0.19498
 O47 O -0.00257 0.89041 0.08652
 Zr48 Zr 0.00029 1.04792 0.08758
 O49 O 0.00317 1.04745 0.19523
 O50 O -0.00205 1.10854 0.08750
 O51 O -0.01955 0.99957 0.10158
 O52 O 0.01950 0.99933 0.09942
 O53 O 0.03049 0.92997 -0.11905
 O54 O 0.05508 0.96660 -0.05819
 C55 C 0.05049 0.94009 -0.10238
 O56 O -0.03139 1.06616 -0.12314
 O57 O -0.05550 1.03213 -0.05617
 C58 C -0.05126 1.05644 -0.10444
 O59 O 0.03095 1.06924 -0.11773
 O60 O 0.05535 1.03235 -0.05655
 C61 C 0.05091 1.05900 -0.10065
 O62 O -0.03170 0.93388 -0.12402
 O63 O -0.05566 0.96778 -0.05644
 C64 C -0.05152 0.94371 -0.10517
 Zr65 Zr -0.00051 0.95116 -0.08465
 O66 O 0.00160 0.94993 -0.19238
 O67 O -0.00321 0.89057 -0.08206
 Zr68 Zr -0.00026 1.04814 -0.08438
 O69 O 0.00194 1.04910 -0.19213
 O70 O -0.00266 1.10877 -0.08241
 Zr71 Zr -0.03320 0.99976 0.00257
 Zr72 Zr 0.03293 0.99931 0.00045
 O73 O 0.01876 0.99955 -0.09770
 O74 O -0.02018 0.99980 -0.09729
 O75 O 0.01960 0.94338 0.00066
 O76 O -0.01927 1.05515 0.00217
 O77 O -0.01956 0.94420 0.00189
 O78 O 0.01984 1.05541 0.00101
 H79 H 0.02964 0.99924 0.13917
 H80 H -0.02922 1.07775 0.00237
 H81 H 0.02851 0.99964 -0.13830
 H82 H -0.02967 0.92180 0.00199
 H83 H 0.01006 1.11850 0.05855
 H84 H 0.01052 1.11871 -0.05818
 H85 H -0.01007 1.03265 -0.21008
 H86 H -0.00978 0.96769 -0.21024
 H87 H 0.01020 0.88045 -0.05932
 H88 H 0.00957 0.88038 0.05781
 H89 H -0.00924 0.96685 0.21330
 H90 H -0.00935 1.03232 0.21347
 O91 O 0.46986 0.43108 0.12541
 O92 O 0.44520 0.46535 0.06080
 C93 C 0.44985 0.44063 0.10814
 O94 O 0.53097 0.56931 0.11986
 O95 O 0.55540 0.53317 0.05781
 C96 C 0.55091 0.55972 0.10202
 O97 O 0.46911 0.56468 0.12679
 O98 O 0.44485 0.52991 0.06148
 C99 C 0.44921 0.55455 0.10916
 O100 O 0.53170 0.42844 0.11783
 O101 O 0.55579 0.46598 0.05696
 C102 C 0.55155 0.43891 0.10048
 Zr103 Zr 0.50062 0.45003 0.08599
 O104 O 0.50335 0.44964 0.19366
 O105 O 0.49840 0.38939 0.08447
 Zr106 Zr 0.50013 0.54687 0.08748
 O107 O 0.50283 0.54586 0.19517
 O108 O 0.49731 0.60743 0.08835
 O109 O 0.48060 0.49806 0.10049
 O110 O 0.51968 0.49871 0.09901
 O111 O 0.53170 0.43027 -0.11944
 O112 O 0.55589 0.46703 -0.05721
 C113 C 0.55161 0.44070 -0.10202
 O114 O 0.46863 0.56526 -0.12345
 O115 O 0.44465 0.53042 -0.05739
 C116 C 0.44880 0.55505 -0.10524
 O117 O 0.53068 0.56993 -0.11787
 O118 O 0.55524 0.53331 -0.05709
 C119 C 0.55067 0.56005 -0.10082
 O120 O 0.46941 0.43273 -0.12577
 O121 O 0.44504 0.46612 -0.05875
 C122 C 0.44947 0.44220 -0.10747
 Zr123 Zr 0.50039 0.45073 -0.08589
 O124 O 0.50274 0.45011 -0.19360
 O125 O 0.49816 0.39007 -0.08439
 Zr126 Zr 0.49982 0.54768 -0.08460
 O127 O 0.50214 0.54865 -0.19234
 O128 O 0.49693 0.60823 -0.08223
 Zr129 Zr 0.46712 0.49827 0.00124
 Zr130 Zr 0.53330 0.49941 0.00027
 O131 O 0.51929 0.49960 -0.09809
 O132 O 0.48033 0.49893 -0.09837
 O133 O 0.52036 0.44318 -0.00032
 O134 O 0.48064 0.55396 0.00178
 O135 O 0.48120 0.44304 0.00017
 O136 O 0.51974 0.55516 0.00123
 H137 H 0.52975 0.49870 0.13892
 H138 H 0.47052 0.57633 0.00211
 H139 H 0.52915 0.49996 -0.13847
 H140 H 0.47126 0.42041 -0.00011
 H141 H 0.50935 0.61781 0.05958
 H142 H 0.50983 0.61839 -0.05691
 H143 H 0.49010 0.53236 -0.21050
 H144 H 0.49109 0.46734 -0.21145
 H145 H 0.51150 0.38017 -0.06095
 H146 H 0.51071 0.37972 0.05601
 H147 H 0.49104 0.46525 0.21201
 H148 H 0.49025 0.53070 0.21300
 C149 C 0.32238 0.31323 0.35363
 C150 C 0.32600 0.28567 0.40486
 C151 C 0.30817 0.26956 0.44015
 C152 C 0.28642 0.28097 0.42529
 C153 C 0.28272 0.30791 0.37335
 C154 C 0.30052 0.32395 0.33793
 C155 C 0.34129 0.33124 0.31735
 C156 C 0.34019 0.33831 0.24685
 C157 C 0.35781 0.35599 0.21299
 C158 C 0.37694 0.36700 0.24886
 C159 C 0.37808 0.35976 0.31932
 C160 C 0.36046 0.34208 0.35318
 C161 C 0.39561 0.38598 0.21293
 C162 C 0.41762 0.37632 0.22863
 C163 C 0.43520 0.39408 0.19473
 C164 C 0.43119 0.42194 0.14432
 C165 C 0.40916 0.43169 0.12876
 C166 C 0.39159 0.41389 0.16266
 H167 H 0.34262 0.27640 0.41737
 H168 H 0.31133 0.24842 0.47948
 H169 H 0.26605 0.31718 0.36135
 H170 H 0.29720 0.34543 0.29934
 H171 H 0.32579 0.32976 0.21766
 H172 H 0.35658 0.36059 0.15850
 H173 H 0.39245 0.36843 0.34856
 H174 H 0.36165 0.33760 0.40772
 H175 H 0.42125 0.35459 0.26650
 H176 H 0.45194 0.38579 0.20792
 H177 H 0.40545 0.45315 0.09045
 H178 H 0.37482 0.42234 0.15011
 C179 C -0.17879 0.81737 0.35539
 C180 C -0.17515 0.78964 0.40632
 C181 C -0.19298 0.77333 0.44129
 C182 C -0.21474 0.78464 0.42624
 C183 C -0.21845 0.81159 0.37435
 C184 C -0.20065 0.82787 0.33934
 C185 C -0.15989 0.83574 0.31970
 C186 C -0.16018 0.87528 0.30553
 C187 C -0.14246 0.89267 0.27178
 C188 C -0.12403 0.87092 0.25148
 C189 C -0.12369 0.83140 0.26585
 C190 C -0.14142 0.81399 0.29961
 C191 C -0.10524 0.88943 0.21543
 C192 C -0.08330 0.87946 0.23133
 C193 C -0.06562 0.89686 0.19740
 C194 C -0.06947 0.92460 0.14665
 C195 C -0.09143 0.93461 0.13083
 C196 C -0.10911 0.91723 0.16486
 H197 H -0.15850 0.78119 0.42018
 H198 H -0.18982 0.75234 0.48086
 H199 H -0.23513 0.82060 0.36192
 H200 H -0.20400 0.84866 0.29960
 H201 H -0.17399 0.89293 0.32147
 H202 H -0.14304 0.92329 0.26247
 H203 H -0.10985 0.81379 0.24998
 H204 H -0.14085 0.78339 0.30901
 H205 H -0.07980 0.85852 0.27069
 H206 H -0.04892 0.88854 0.21104
 H207 H -0.09502 0.95580 0.09195
 H208 H -0.12584 0.92517 0.15090
 C209 C 0.67798 0.68989 0.34482
 C210 C 0.70013 0.68194 0.32845
 C211 C 0.71737 0.69762 0.36693
 C212 C 0.71294 0.72126 0.42370
 C213 C 0.69067 0.73028 0.43822
 C214 C 0.67345 0.71464 0.39956
 C215 C 0.65967 0.67176 0.30584
 C216 C 0.64068 0.69287 0.28831
 C217 C 0.62323 0.67541 0.25318
 C218 C 0.62436 0.63644 0.23491
 C219 C 0.64344 0.61544 0.25197
 C220 C 0.66089 0.63291 0.28699
 C221 C 0.60554 0.61751 0.19947
 C222 C 0.60935 0.59060 0.14738
 C223 C 0.59164 0.57204 0.11541
 C224 C 0.56970 0.57999 0.13479
 C225 C 0.56590 0.60721 0.18642
 C226 C 0.58361 0.62571 0.21839
 H227 H 0.70415 0.66342 0.28587
 H228 H 0.73418 0.68971 0.35390
 H229 H 0.68650 0.74976 0.47925
 H230 H 0.65654 0.72138 0.41338
 H231 H 0.63940 0.72299 0.30127
 H232 H 0.60891 0.69252 0.23982
 H233 H 0.64467 0.58523 0.23967
 H234 H 0.67515 0.61574 0.30075
 H235 H 0.62604 0.58405 0.13098
 H236 H 0.59517 0.55142 0.07556
 H237 H 0.54924 0.61397 0.20278
 H238 H 0.58014 0.64589 0.25897
 C239 C 0.17903 1.18710 0.34377
 C240 C 0.17456 1.21177 0.39866
 C241 C 0.19182 1.22709 0.43755
 C242 C 0.21405 1.21781 0.42305
 C243 C 0.21842 1.19421 0.36620
 C244 C 0.20115 1.17884 0.32751
 C245 C 0.16068 1.16940 0.30446
 C246 C 0.16167 1.13053 0.28559
 C247 C 0.14414 1.11345 0.25035
 C248 C 0.12524 1.13486 0.23310
 C249 C 0.12437 1.17386 0.25128
 C250 C 0.14189 1.19093 0.28664
 C251 C 0.10629 1.11632 0.19778
 C252 C 0.08444 1.12500 0.21686
 C253 C 0.06658 1.10683 0.18514
 C254 C 0.07015 1.07946 0.13362
 C255 C 0.09201 1.07102 0.11405
 C256 C 0.10987 1.08926 0.14578
 H257 H 0.15767 1.21872 0.41237
 H258 H 0.18771 1.24655 0.47868
 H259 H 0.23521 1.18612 0.35322
 H260 H 0.20510 1.16035 0.28484
 H261 H 0.17578 1.11306 0.29954
 H262 H 0.14516 1.08320 0.23808
 H263 H 0.11019 1.19128 0.23775
 H264 H 0.14081 1.22108 0.29962
 H265 H 0.08114 1.14529 0.25741
 H266 H 0.04998 1.11396 0.20165
 H267 H 0.09536 1.05026 0.07427
 H268 H 0.12650 1.08234 0.12930
 C269 C 0.68124 0.32130 -0.34920
 C270 C 0.69007 0.33947 -0.40705
 C271 C 0.70737 0.32259 -0.44363
 C272 C 0.71619 0.28681 -0.42382
 C273 C 0.70779 0.26948 -0.36416
 C274 C 0.69046 0.28634 -0.32777
 C275 C 0.66233 0.33851 -0.31169
 C276 C 0.64488 0.31530 -0.28824
 C277 C 0.62695 0.33144 -0.25351
 C278 C 0.62611 0.37114 -0.24124
 C279 C 0.64359 0.39434 -0.26452
 C280 C 0.66148 0.37822 -0.29947
 C281 C 0.60702 0.38833 -0.20455
 C282 C 0.61039 0.41726 -0.15574
 C283 C 0.59244 0.43389 -0.12196
 C284 C 0.57065 0.42205 -0.13633
 C285 C 0.56730 0.39287 -0.18478
 C286 C 0.58529 0.37617 -0.21842
 H287 H 0.68339 0.36655 -0.42469
 H288 H 0.71410 0.33809 -0.48672
 H289 H 0.71388 0.24189 -0.34705
 H290 H 0.68423 0.27194 -0.28274
 H291 H 0.64494 0.28467 -0.29754
 H292 H 0.61384 0.31277 -0.23567
 H293 H 0.64330 0.42508 -0.25647
 H294 H 0.67476 0.39679 -0.31639
 H295 H 0.62696 0.42687 -0.14326
 H296 H 0.59567 0.45622 -0.08485
 H297 H 0.55076 0.38310 -0.19720
 H298 H 0.58215 0.35422 -0.25630
 C299 C 0.17859 0.81542 -0.34913
 C300 C 0.19049 0.83634 -0.39835
 C301 C 0.20779 0.81915 -0.43447
 C302 C 0.21337 0.78063 -0.42258
 C303 C 0.20179 0.75989 -0.37271
 C304 C 0.18456 0.77708 -0.33637
 C305 C 0.15987 0.83336 -0.31169
 C306 C 0.14054 0.81227 -0.29783
 C307 C 0.12288 0.82913 -0.26297
 C308 C 0.12408 0.86751 -0.24128
 C309 C 0.14342 0.88860 -0.25508
 C310 C 0.16111 0.87172 -0.28983
 C311 C 0.10520 0.88556 -0.20484
 C312 C 0.10893 0.91084 -0.15017
 C313 C 0.09119 0.92829 -0.11663
 C314 C 0.06926 0.92079 -0.13684
 C315 C 0.06552 0.89521 -0.19108
 C316 C 0.08328 0.87786 -0.22474
 H317 H 0.18618 0.86579 -0.40985
 H318 H 0.21669 0.83580 -0.47219
 H319 H 0.20590 0.73016 -0.36260
 H320 H 0.17599 0.76039 -0.29802
 H321 H 0.13894 0.78282 -0.31469
 H322 H 0.10832 0.81196 -0.25251
 H323 H 0.14479 0.91837 -0.23979
 H324 H 0.17585 0.88863 -0.29907
 H325 H 0.12560 0.91691 -0.13287
 H326 H 0.09469 0.94765 -0.07479
 H327 H 0.04886 0.88892 -0.20821
 H328 H 0.07984 0.85894 -0.26725
 C329 C 0.31783 0.67185 -0.34961
 C330 C 0.30883 0.65393 -0.40739
 C331 C 0.29143 0.67093 -0.44325
 C332 C 0.28282 0.70684 -0.42328
 C333 C 0.29130 0.72382 -0.36337
 C334 C 0.30864 0.70665 -0.32731
 C335 C 0.33697 0.65457 -0.31341
 C336 C 0.33775 0.65385 -0.24179
 C337 C 0.35589 0.63780 -0.20792
 C338 C 0.37371 0.62236 -0.24495
 C339 C 0.37295 0.62317 -0.31656
 C340 C 0.35475 0.63900 -0.35042
 C341 C 0.39298 0.60534 -0.20903
 C342 C 0.41467 0.61273 -0.23145
 C343 C 0.43281 0.59662 -0.19764
 C344 C 0.42965 0.57258 -0.14086
 C345 C 0.40793 0.56517 -0.11857
 C346 C 0.38982 0.58145 -0.15216
 H347 H 0.31513 0.62648 -0.42452
 H348 H 0.28447 0.65542 -0.48597
 H349 H 0.28538 0.75149 -0.34609
 H350 H 0.31533 0.72125 -0.28311
 H351 H 0.32422 0.66539 -0.21196
 H352 H 0.35611 0.63786 -0.15269
 H353 H 0.38634 0.61117 -0.34642
 H354 H 0.35471 0.63952 -0.40565
 H355 H 0.41761 0.63136 -0.27473
 H356 H 0.44930 0.60291 -0.21619
 H357 H 0.40485 0.54675 -0.07509
 H358 H 0.37329 0.57489 -0.13422
 C359 C -0.18192 1.17476 -0.34747
 C360 C -0.19140 1.15720 -0.40491
 C361 C -0.20828 1.17543 -0.44122
 C362 C -0.21582 1.21218 -0.42197
 C363 C -0.20701 1.22872 -0.36216
 C364 C -0.19020 1.21033 -0.32569
 C365 C -0.16302 1.15658 -0.31156
 C366 C -0.16197 1.15643 -0.23997
 C367 C -0.14386 1.14013 -0.20638
 C368 C -0.12635 1.12388 -0.24367
 C369 C -0.12742 1.12398 -0.31525
 C370 C -0.14559 1.14006 -0.34884
 C371 C -0.10705 1.10681 -0.20799
 C372 C -0.08541 1.11349 -0.23146
 C373 C -0.06725 1.09739 -0.19770
 C374 C -0.07037 1.07408 -0.13997
 C375 C -0.09206 1.06741 -0.11663
 C376 C -0.11017 1.08367 -0.15016
 H377 H -0.18575 1.12927 -0.42174
 H378 H -0.21544 1.16068 -0.48454
 H379 H -0.21216 1.25698 -0.34554
 H380 H -0.18312 1.22466 -0.28180
 H381 H -0.17523 1.16872 -0.20996
 H382 H -0.14339 1.14074 -0.15117
 H383 H -0.11427 1.11132 -0.34527
 H384 H -0.14584 1.14016 -0.40407
 H385 H -0.08251 1.13156 -0.27552
 H386 H -0.05078 1.10309 -0.21705
 H387 H -0.09510 1.04958 -0.07236
 H388 H -0.12667 1.07767 -0.13138
 C389 C 0.67870 0.68589 -0.34558
 C390 C 0.68854 0.66649 -0.40051
 C391 C 0.70537 0.68382 -0.43843
 C392 C 0.71264 0.72131 -0.42312
 C393 C 0.70327 0.74001 -0.36625
 C394 C 0.68643 0.72264 -0.32840
 C395 C 0.66020 0.66807 -0.30705
 C396 C 0.64181 0.69013 -0.28727
 C397 C 0.62414 0.67325 -0.25240
 C398 C 0.62447 0.63393 -0.23644
 C399 C 0.64293 0.61193 -0.25579
 C400 C 0.66059 0.62881 -0.29073
 C401 C 0.60554 0.61580 -0.20041
 C402 C 0.60922 0.58822 -0.14938
 C403 C 0.59142 0.57047 -0.11662
 C404 C 0.56949 0.57987 -0.13415
 C405 C 0.56581 0.60780 -0.18466
 C406 C 0.58364 0.62555 -0.21742
 H407 H 0.68298 0.63809 -0.41499
 H408 H 0.71283 0.66758 -0.47949
 H409 H 0.70823 0.76888 -0.35259
 H410 H 0.67941 0.73806 -0.28564
 H411 H 0.64091 0.72036 -0.29976
 H412 H 0.61026 0.69103 -0.23757
 H413 H 0.64357 0.58149 -0.24487
 H414 H 0.67461 0.61114 -0.30469
 H415 H 0.62590 0.58051 -0.13443
 H416 H 0.59490 0.54924 -0.07771
 H417 H 0.54916 0.61567 -0.19955
 H418 H 0.58026 0.64637 -0.25710
 C419 C 0.17963 1.18264 -0.34630
 C420 C 0.18937 1.16319 -0.40135
 C421 C 0.20629 1.18032 -0.43922
 C422 C 0.21378 1.21767 -0.42373
 C423 C 0.20452 1.23639 -0.36670
 C424 C 0.18758 1.21924 -0.32893
 C425 C 0.16102 1.16507 -0.30783
 C426 C 0.14276 1.18741 -0.28784
 C427 C 0.12500 1.17079 -0.25297
 C428 C 0.12510 1.13144 -0.23717
 C429 C 0.14342 1.10915 -0.25675
 C430 C 0.16116 1.12577 -0.29173
 C431 C 0.10608 1.11361 -0.20102
 C432 C 0.10962 1.08590 -0.15009
 C433 C 0.09174 1.06851 -0.11711
 C434 C 0.06985 1.07838 -0.13432
 C435 C 0.06631 1.10639 -0.18478
 C436 C 0.08422 1.12380 -0.21773
 H437 H 0.18365 1.13491 -0.41599
 H438 H 0.21365 1.16403 -0.48041
 H439 H 0.20965 1.26514 -0.35286
 H440 H 0.18065 1.23470 -0.28607
 H441 H 0.14204 1.21768 -0.30015
 H442 H 0.11124 1.18880 -0.23799
 H443 H 0.14389 1.07869 -0.24597
 H444 H 0.17507 1.10787 -0.30585
 H445 H 0.12626 1.07784 -0.13535
 H446 H 0.09512 1.04720 -0.07826
 H447 H 0.04969 1.11463 -0.19944
 H448 H 0.08094 1.14472 -0.25732
 C449 C 0.31905 0.32430 -0.35374
 C450 C 0.30752 0.34464 -0.40455
 C451 C 0.28985 0.32758 -0.43920
 C452 C 0.28350 0.28977 -0.42409
 C453 C 0.29459 0.26975 -0.37226
 C454 C 0.31221 0.28681 -0.33748
 C455 C 0.33832 0.34184 -0.31844
 C456 C 0.35725 0.31983 -0.30392
 C457 C 0.37538 0.33620 -0.27051
 C458 C 0.37501 0.37498 -0.25086
 C459 C 0.35613 0.39705 -0.26571
 C460 C 0.33800 0.38068 -0.29914
 C461 C 0.39415 0.39222 -0.21439
 C462 C 0.39071 0.41781 -0.16007
 C463 C 0.40866 0.43391 -0.12543
 C464 C 0.43051 0.42478 -0.14420
 C465 C 0.43396 0.39917 -0.19856
 C466 C 0.41598 0.38307 -0.23325
 H467 H 0.31249 0.37343 -0.41864
 H468 H 0.28137 0.34360 -0.47868
 H469 H 0.28989 0.24058 -0.35978
 H470 H 0.32050 0.27065 -0.29780
 H471 H 0.35814 0.28997 -0.31894
 H472 H 0.38957 0.31833 -0.25921
 H473 H 0.35544 0.42712 -0.25195
 H474 H 0.32360 0.39831 -0.30910
 H475 H 0.37411 0.42500 -0.14365
 H476 H 0.40535 0.45347 -0.08375
 H477 H 0.45055 0.39165 -0.21458
 H478 H 0.41917 0.36383 -0.27546
 C479 C -0.18262 0.82855 -0.35114
 C480 C -0.19339 0.84831 -0.40415
 C481 C -0.21095 0.83123 -0.43934
 C482 C -0.21780 0.79383 -0.42295
 C483 C -0.20737 0.77438 -0.36913
 C484 C -0.18996 0.79158 -0.33349
 C485 C -0.16356 0.84610 -0.31502
 C486 C -0.16177 0.84347 -0.24372
 C487 C -0.14362 0.85942 -0.20979
 C488 C -0.12678 0.87806 -0.24649
 C489 C -0.12855 0.88068 -0.31781
 C490 C -0.14681 0.86501 -0.35170
 C491 C -0.10745 0.89476 -0.21039
 C492 C -0.08590 0.88969 -0.23582
 C493 C -0.06769 0.90527 -0.20146
 C494 C -0.07068 0.92653 -0.14122
 C495 C -0.09228 0.93166 -0.11599
 C496 C -0.11043 0.91583 -0.15005
 H497 H -0.18828 0.87705 -0.41813
 H498 H -0.21902 0.84699 -0.47995
 H499 H -0.21236 0.74547 -0.35579
 H500 H -0.18185 0.77557 -0.29328
 H501 H -0.17452 0.82929 -0.21414
 H502 H -0.14259 0.85671 -0.15485
 H503 H -0.11591 0.89518 -0.34730
 H504 H -0.14767 0.86713 -0.40675
 H505 H -0.08311 0.87326 -0.28189
 H506 H -0.05130 0.90085 -0.22235
 H507 H -0.09521 0.94788 -0.06975
 H508 H -0.12687 0.92052 -0.12967
 C509 C 0.32008 0.67896 0.35009
 C510 C 0.32375 0.70819 0.39827
 C511 C 0.30605 0.72400 0.43450
 C512 C 0.28441 0.71059 0.42378
 C513 C 0.28061 0.68233 0.37418
 C514 C 0.29828 0.66658 0.33781
 C515 C 0.33896 0.66083 0.31393
 C516 C 0.33933 0.62096 0.30306
 C517 C 0.35719 0.60371 0.26985
 C518 C 0.37512 0.62592 0.24689
 C519 C 0.37476 0.66579 0.25771
 C520 C 0.35687 0.68306 0.29083
 C521 C 0.39412 0.60753 0.21187
 C522 C 0.41592 0.61892 0.22656
 C523 C 0.43381 0.60159 0.19358
 C524 C 0.43029 0.57256 0.14496
 C525 C 0.40846 0.56113 0.13040
 C526 C 0.39059 0.57839 0.16355
 H527 H 0.34035 0.71815 0.40925
 H528 H 0.30928 0.74610 0.47206
 H529 H 0.26401 0.67181 0.36487
 H530 H 0.29489 0.64463 0.30015
 H531 H 0.32598 0.60296 0.32137
 H532 H 0.35716 0.57286 0.26321
 H533 H 0.38819 0.68371 0.23968
 H534 H 0.35693 0.71390 0.29760
 H535 H 0.41916 0.64095 0.26422
 H536 H 0.45040 0.61106 0.20612
 H537 H 0.40512 0.53889 0.09321
 H538 H 0.37396 0.56930 0.15063
 C539 C -0.17796 1.18690 0.35092
 C540 C -0.17397 1.21026 0.40796
 C541 C -0.19158 1.22597 0.44473
 C542 C -0.21369 1.21834 0.42593
 C543 C -0.21753 1.19652 0.36652
 C544 C -0.19991 1.18074 0.32997
 C545 C -0.15935 1.16817 0.31444
 C546 C -0.16105 1.12969 0.29368
 C547 C -0.14342 1.11166 0.26055
 C548 C -0.12370 1.13172 0.24724
 C549 C -0.12204 1.17029 0.26780
 C550 C -0.13966 1.18829 0.30114
 C551 C -0.10494 1.11244 0.21226
 C552 C -0.08300 1.11929 0.23294
 C553 C -0.06535 1.10119 0.19998
 C554 C -0.06922 1.07574 0.14562
 C555 C -0.09118 1.06876 0.12514
 C556 C -0.10881 1.08693 0.15801
 H557 H -0.15722 1.21566 0.42520
 H558 H -0.18784 1.24412 0.48807
 H559 H -0.23422 1.18989 0.35010
 H560 H -0.20347 1.16339 0.28546
 H561 H -0.17587 1.11325 0.30431
 H562 H -0.14510 1.08176 0.24646
 H563 H -0.10721 1.18672 0.25733
 H564 H -0.13798 1.21811 0.31580
 H565 H -0.07948 1.13832 0.27523
 H566 H -0.04867 1.10711 0.21730
 H567 H -0.09478 1.04947 0.08326
 H568 H -0.12549 1.08143 0.14023
 C569 C 0.67940 0.31339 0.34637
 C570 C 0.70130 0.32555 0.33524
 C571 C 0.71867 0.31007 0.37330
 C572 C 0.71450 0.28228 0.42346
 C573 C 0.69274 0.26929 0.43353
 C574 C 0.67533 0.28483 0.39552
 C575 C 0.66087 0.33100 0.30765
 C576 C 0.64321 0.30844 0.28368
 C577 C 0.62567 0.32525 0.24802
 C578 C 0.62541 0.36497 0.23554
 C579 C 0.64311 0.38749 0.25923
 C580 C 0.66063 0.37070 0.29492
 C581 C 0.60655 0.38306 0.19914
 C582 C 0.61020 0.41227 0.15099
 C583 C 0.59238 0.43011 0.11835
 C584 C 0.57050 0.41918 0.13328
 C585 C 0.56689 0.38963 0.18088
 C586 C 0.58471 0.37177 0.21337
 H587 H 0.70501 0.34701 0.29696
 H588 H 0.73537 0.32026 0.36451
 H589 H 0.68924 0.24757 0.47156
 H590 H 0.65863 0.27509 0.40565
 H591 H 0.64309 0.27770 0.29183
 H592 H 0.61240 0.30709 0.22957
 H593 H 0.64319 0.41825 0.25146
 H594 H 0.67379 0.38896 0.31377
 H595 H 0.62686 0.42123 0.13831
 H596 H 0.59579 0.45264 0.08177
 H597 H 0.55027 0.38049 0.19367
 H598 H 0.58135 0.34968 0.25082
 C599 C 0.17773 0.81102 0.34919
 C600 C 0.19982 0.82204 0.33784
 C601 C 0.21700 0.80540 0.37530
 C602 C 0.21243 0.77756 0.42506
 C603 C 0.19044 0.76607 0.43590
 C604 C 0.17324 0.78273 0.39850
 C605 C 0.15945 0.82914 0.31004
 C606 C 0.14154 0.80706 0.28641
 C607 C 0.12419 0.82424 0.25042
 C608 C 0.12436 0.86389 0.23722
 C609 C 0.14234 0.88593 0.26038
 C610 C 0.15968 0.86875 0.29641
 C611 C 0.10562 0.88235 0.20072
 C612 C 0.10944 0.91124 0.15207
 C613 C 0.09172 0.92925 0.11913
 C614 C 0.06977 0.91884 0.13428
 C615 C 0.06599 0.88965 0.18246
 C616 C 0.08370 0.87163 0.21524
 H617 H 0.20385 0.84333 0.29955
 H618 H 0.23387 0.81454 0.36602
 H619 H 0.18660 0.74433 0.47356
 H620 H 0.15640 0.77389 0.40890
 H621 H 0.14105 0.77638 0.29511
 H622 H 0.11073 0.80641 0.23234
 H623 H 0.14278 0.91663 0.25197
 H624 H 0.17307 0.88665 0.31483
 H625 H 0.12616 0.91978 0.13917
 H626 H 0.09526 0.95152 0.08214
 H627 H 0.04931 0.88092 0.19549
 H628 H 0.08020 0.84983 0.25309
   
