data_POSCAR
  _audit_creation_date              2014-09-24
  _audit_creation_method            'ToBaCCo'
  _symmetry_space_group_name_H-M    'P1'
  _symmetry_Int_Tables_number       1
  _symmetry_cell_setting            triclinic
  loop_
  _symmetry_equiv_pos_as_xyz
 x,y,z
_cell_length_a 39.9530
_cell_length_b 38.3012
_cell_length_c 39.5837
_cell_angle_alpha 88.075400
_cell_angle_beta 89.769600
_cell_angle_gamma 88.074200
loop_
  _atom_site_label
  _atom_site_type_symbol
  _atom_site_fract_x
  _atom_site_fract_y
  _atom_site_fract_z
N1 N 0.58900 0.68631 0.61845
 N2 N 0.57809 0.66989 0.64583
 C3 C 0.55080 0.68732 0.65747
 C4 C 0.54409 0.71588 0.63597
 C5 C 0.56870 0.71434 0.61140
 H6 H 0.53656 0.67960 0.67961
 H7 H 0.57186 0.73262 0.59030
 Cu8 Cu 0.60012 0.62692 0.66319
 Cu9 Cu 0.62935 0.67093 0.59478
 Cu10 Cu 0.67116 0.59642 0.62697
 N11 N 0.62415 0.58530 0.68098
 N12 N 0.65258 0.57433 0.66755
 C13 C 0.66453 0.54614 0.68545
 C14 C 0.64210 0.53873 0.71133
 C15 C 0.61673 0.56407 0.70757
 H16 H 0.68744 0.53180 0.67951
 H17 H 0.59474 0.56702 0.72338
 N18 N 0.68600 0.62238 0.58610
 N19 N 0.67060 0.65131 0.57439
 C20 C 0.68706 0.66326 0.54681
 C21 C 0.71381 0.64052 0.54068
 C22 C 0.71230 0.61484 0.56591
 H23 H 0.67969 0.68630 0.53176
 H24 H 0.72929 0.59243 0.56930
 H25 H 0.62675 0.61845 0.60835
 H26 H 0.65175 0.64588 0.63638
 N27 N 0.92138 0.32036 0.09521
 N28 N 0.93507 0.33094 0.12306
 C29 C 0.96139 0.30947 0.13124
 C30 C 0.96473 0.28443 0.10691
 C31 C 0.93888 0.29224 0.08433
 H32 H 0.97729 0.31204 0.15300
 H33 H 0.93267 0.27820 0.06211
 Cu34 Cu 0.91776 0.37243 0.14519
 Cu35 Cu 0.88089 0.34273 0.07609
 Cu36 Cu 0.84876 0.41586 0.11604
 N37 N 0.89999 0.41398 0.16688
 N38 N 0.87239 0.43019 0.15594
 C39 C 0.86489 0.45708 0.17596
 C40 C 0.88935 0.45811 0.20043
 C41 C 0.91129 0.43041 0.19395
 H42 H 0.84345 0.47487 0.17278
 H43 H 0.93341 0.42249 0.20826
 N44 N 0.82846 0.39733 0.07535
 N45 N 0.84014 0.36894 0.06068
 C46 C 0.82003 0.36210 0.03464
 C47 C 0.79487 0.38769 0.03253
 C48 C 0.80097 0.40963 0.05866
 H49 H 0.82342 0.34026 0.01821
 H50 H 0.78600 0.43237 0.06546
 H51 H 0.88962 0.39200 0.09305
 H52 H 0.86305 0.36349 0.12045
 N53 N 0.40947 0.18611 -0.11948
 N54 N 0.41948 0.17210 -0.14781
 C55 C 0.44648 0.18885 -0.15959
 C56 C 0.45391 0.21444 -0.13722
 C57 C 0.43005 0.21185 -0.11198
 H58 H 0.46009 0.18257 -0.18237
 H59 H 0.42763 0.22785 -0.09005
 Cu60 Cu 0.39687 0.13261 -0.16584
 Cu61 Cu 0.36993 0.17067 -0.09502
 Cu62 Cu 0.32871 0.10081 -0.12729
 N63 N 0.37388 0.09315 -0.18342
 N64 N 0.34672 0.08140 -0.16873
 C65 C 0.33541 0.05475 -0.18634
 C66 C 0.35686 0.04934 -0.21334
 C67 C 0.38105 0.07403 -0.21062
 H68 H 0.31362 0.04000 -0.17963
 H69 H 0.40211 0.07782 -0.22742
 N70 N 0.31438 0.12403 -0.08568
 N71 N 0.32948 0.15128 -0.07398
 C72 C 0.31316 0.16200 -0.04614
 C73 C 0.28682 0.14020 -0.03983
 C74 C 0.28844 0.11634 -0.06522
 H75 H 0.32023 0.18366 -0.03118
 H76 H 0.27161 0.09523 -0.06866
 H77 H 0.37327 0.11953 -0.11012
 H78 H 0.34603 0.15059 -0.13595
 N79 N 0.07850 0.80547 0.40593
 N80 N 0.06782 0.81621 0.37587
 C81 C 0.04139 0.79747 0.36741
 C82 C 0.03488 0.77395 0.39377
 C83 C 0.05895 0.77989 0.41789
 H84 H 0.02773 0.80083 0.34392
 H85 H 0.06269 0.76611 0.44192
 Cu86 Cu 0.08906 0.85384 0.35064
 Cu87 Cu 0.11829 0.82384 0.42618
 Cu88 Cu 0.15208 0.89618 0.38596
 N89 N 0.10425 0.89813 0.33193
 N90 N 0.12971 0.91384 0.34495
 C91 C 0.13608 0.94265 0.32592
 C92 C 0.11303 0.94542 0.29996
 C93 C 0.09313 0.91678 0.30455
 H94 H 0.15580 0.96049 0.33072
 H95 H 0.07265 0.90961 0.28870
 N96 N 0.17097 0.87427 0.42774
 N97 N 0.15857 0.84614 0.44258
 C98 C 0.17775 0.83642 0.46940
 C99 C 0.20317 0.85980 0.47173
 C100 C 0.19802 0.88356 0.44509
 H101 H 0.17344 0.81414 0.48615
 H102 H 0.21337 0.90550 0.43848
 H103 H 0.10932 0.87320 0.40446
 H104 H 0.14069 0.84410 0.38288
 C105 C 0.10728 0.14346 0.13275
 C106 C 0.10917 0.11794 0.15901
 C107 C 0.13392 0.09111 0.15865
 C108 C 0.15671 0.08973 0.13161
 C109 C 0.15488 0.11496 0.10505
 C110 C 0.13013 0.14180 0.10581
 H111 H 0.09141 0.11900 0.17976
 H112 H 0.17587 0.06903 0.13125
 H113 H 0.12867 0.16145 0.08546
 C114 C 0.40320 0.86226 0.61675
 C115 C 0.37626 0.86332 0.59407
 C116 C 0.35081 0.88932 0.59605
 C117 C 0.35234 0.91429 0.62113
 C118 C 0.37917 0.91351 0.64397
 C119 C 0.40440 0.88725 0.64177
 H120 H 0.37507 0.84389 0.57486
 H121 H 0.33265 0.93431 0.62291
 H122 H 0.42503 0.88624 0.65951
 C123 C 0.89274 0.64433 0.36735
 C124 C 0.89111 0.62035 0.34139
 C125 C 0.86657 0.59498 0.34201
 C126 C 0.84381 0.59341 0.36908
 C127 C 0.84540 0.61703 0.39535
 C128 C 0.86984 0.64250 0.39427
 H129 H 0.90894 0.62138 0.32071
 H130 H 0.82489 0.57377 0.36973
 H131 H 0.87109 0.66086 0.41444
 C132 C 0.59670 0.34737 -0.11730
 C133 C 0.62394 0.34455 -0.09495
 C134 C 0.64978 0.36850 -0.09734
 C135 C 0.64815 0.39545 -0.12225
 C136 C 0.62105 0.39854 -0.14466
 C137 C 0.59549 0.37433 -0.14219
 H138 H 0.62500 0.32377 -0.07569
 H139 H 0.66795 0.41410 -0.12414
 H140 H 0.57462 0.37652 -0.15963
 C141 C 0.03351 0.22514 0.13359
 C142 C 0.03755 0.20420 0.10536
 N143 N 0.01714 0.20990 0.07828
 C144 C -0.00716 0.23565 0.07806
 C145 C -0.01096 0.25724 0.10609
 N146 N 0.00972 0.25128 0.13314
 N147 N 0.05321 0.21877 0.16112
 C148 C 0.07686 0.19239 0.16168
 C149 C 0.08140 0.17177 0.13321
 N150 N 0.06160 0.17830 0.10563
 H151 H -0.02282 0.23939 0.05594
 H152 H 0.09235 0.18788 0.18388
 C153 C 0.48107 0.78509 0.61088
 C154 C 0.46591 0.79259 0.64197
 N155 N 0.47617 0.77463 0.67043
 C156 C 0.50099 0.74950 0.66923
 C157 C 0.51664 0.74234 0.63822
 N158 N 0.50624 0.76046 0.60976
 N159 N 0.47026 0.80244 0.58230
 C160 C 0.44497 0.82704 0.58339
 C161 C 0.43009 0.83505 0.61456
 N162 N 0.44107 0.81759 0.64318
 H163 H 0.50877 0.73573 0.69234
 H164 H 0.43698 0.84067 0.56026
 C165 C 0.96707 0.72046 0.36631
 C166 C 0.96049 0.70043 0.39574
 N167 N 0.97869 0.70501 0.42401
 C168 C 1.00328 0.72871 0.42424
 C169 C 1.00980 0.74924 0.39485
 N170 N 0.99124 0.74451 0.36663
 N171 N 0.94949 0.71523 0.33774
 C172 C 0.92560 0.69078 0.33727
 C173 C 0.91866 0.67090 0.36684
 N174 N 0.93629 0.67640 0.39546
 H175 H 1.01716 0.73157 0.44731
 H176 H 0.91185 0.68721 0.31421
 C177 C 0.51812 0.27602 -0.11162
 C178 C 0.53260 0.28551 -0.14282
 N179 N 0.52144 0.27140 -0.17150
 C180 C 0.49639 0.24820 -0.17045
 C181 C 0.48146 0.23903 -0.13931
 N182 N 0.49273 0.25332 -0.11060
 N183 N 0.52981 0.28952 -0.08285
 C184 C 0.55535 0.31215 -0.08384
 C185 C 0.56958 0.32214 -0.11511
 N186 N 0.55769 0.30855 -0.14390
 H187 H 0.48791 0.23752 -0.19375
 H188 H 0.56402 0.32274 -0.06056
 C189 C 0.13843 0.01449 0.23809
 C190 C 0.10806 0.02320 0.22165
 N191 N 0.07998 0.00628 0.23089
 C192 C 0.08086 -0.01902 0.25585
 C193 C 0.11111 -0.02747 0.27271
 N194 N 0.13919 -0.01033 0.26340
 N195 N 0.16672 0.03067 0.22819
 C196 C 0.16604 0.05521 0.20254
 C197 C 0.13559 0.06437 0.18633
 N198 N 0.10725 0.04814 0.19644
 H199 H 0.05807 -0.03203 0.26275
 H200 H 0.18892 0.06781 0.19517
 C201 C 0.61753 0.48026 -0.21917
 C202 C 0.64639 0.45871 -0.21492
 N203 N 0.67324 0.46379 -0.23537
 C204 C 0.67261 0.48949 -0.25996
 C205 C 0.64389 0.51164 -0.26401
 N206 N 0.61708 0.50632 -0.24326
 N207 N 0.59030 0.47456 -0.19939
 C208 C 0.59063 0.44823 -0.17546
 C209 C 0.61969 0.42693 -0.17075
 N210 N 0.64697 0.43282 -0.19062
 H211 H 0.69456 0.49271 -0.27566
 H212 H 0.56863 0.44428 -0.15992
 C213 C 0.38280 0.98969 0.71876
 C214 C 0.35275 0.97347 0.71172
 N215 N 0.32466 0.98201 0.72943
 C216 C 0.32522 1.00609 0.75391
 C217 C 0.35519 1.02273 0.76074
 N218 N 0.38327 1.01408 0.74283
 N219 N 0.41106 0.98068 0.70155
 C220 C 0.41067 0.95609 0.67758
 C221 C 0.38055 0.93999 0.67017
 N222 N 0.35223 0.94927 0.68744
 H223 H 0.30240 1.01248 0.76748
 H224 H 0.43353 0.94959 0.66407
 C225 C 0.86287 0.52329 0.26323
 C226 C 0.89338 0.53036 0.27863
 N227 N 0.92194 0.51354 0.26849
 C228 C 0.92140 0.48992 0.24361
 C229 C 0.89095 0.48313 0.22778
 N230 N 0.86239 0.50016 0.23802
 N231 N 0.83418 0.53945 0.27392
 C232 C 0.83459 0.56240 0.29938
 C233 C 0.86516 0.56991 0.31459
 N234 N 0.89389 0.55370 0.30367
 H235 H 0.94457 0.47702 0.23596
 H236 H 0.81138 0.57507 0.30732
 C237 C 0.22420 0.11208 0.02403
 C238 C 0.21662 0.14339 0.04030
 N239 N 0.23221 0.17296 0.03034
 C240 C 0.25510 0.17268 0.00482
 C241 C 0.26244 0.14147 -0.01186
 N242 N 0.24663 0.11190 -0.00182
 N243 N 0.20924 0.08231 0.03456
 C244 C 0.18704 0.08240 0.06070
 C245 C 0.17907 0.11380 0.07680
 N246 N 0.19406 0.14362 0.06603
 H247 H 0.26703 0.19669 -0.00266
 H248 H 0.17536 0.05834 0.06851
 C249 C 0.77659 0.61299 0.47679
 C250 C 0.78369 0.64492 0.46029
 N251 N 0.76779 0.67476 0.47018
 C252 C 0.74504 0.67414 0.49583
 C253 C 0.73816 0.64227 0.51270
 N254 N 0.75429 0.61243 0.50274
 N255 N 0.79185 0.58303 0.46635
 C256 C 0.81390 0.58352 0.44009
 C257 C 0.82137 0.61550 0.42374
 N258 N 0.80609 0.64551 0.43442
 H259 H 0.73282 0.69835 0.50323
 H260 H 0.82583 0.55927 0.43235
 C261 C 0.73112 0.36209 -0.02901
 C262 C 0.71469 0.39425 -0.03700
 N263 N 0.72458 0.42359 -0.02213
 C264 C 0.75019 0.42225 0.00045
 C265 C 0.76700 0.39015 0.00824
 N266 N 0.75703 0.36081 -0.00686
 N267 N 0.72067 0.33261 -0.04325
 C268 C 0.69445 0.33382 -0.06512
 C269 C 0.67814 0.36606 -0.07348
 N270 N 0.68885 0.39556 -0.05921
 H271 H 0.75760 0.44608 0.01183
 H272 H 0.68672 0.30997 -0.07625
 C273 C 0.27104 0.89032 0.52600
 C274 C 0.28204 0.85911 0.54264
 N275 N 0.26681 0.82889 0.53630
 C276 C 0.24106 0.82841 0.51398
 C277 C 0.23036 0.85950 0.49678
 N278 N 0.24575 0.88975 0.50324
 N279 N 0.28579 0.92068 0.53293
 C280 C 0.31113 0.92125 0.55573
 C281 C 0.32262 0.88993 0.57202
 N282 N 0.30773 0.85956 0.56493
 H283 H 0.22955 0.80388 0.50927
 H284 H 0.32265 0.94575 0.56059
   
