data_POSCAR
  _audit_creation_date              2014-09-24
  _audit_creation_method            'ToBaCCo'
  _symmetry_space_group_name_H-M    'P1'
  _symmetry_Int_Tables_number       1
  _symmetry_cell_setting            triclinic
  loop_
  _symmetry_equiv_pos_as_xyz
 x,y,z
_cell_length_a 58.7854
_cell_length_b 59.0772
_cell_length_c 59.1535
_cell_angle_alpha 90.026200
_cell_angle_beta 90.001300
_cell_angle_gamma 90.046500
loop_
  _atom_site_label
  _atom_site_type_symbol
  _atom_site_fract_x
  _atom_site_fract_y
  _atom_site_fract_z
N1 N 0.28562 0.24020 0.22274
 N2 N 0.27594 0.25799 0.21356
 C3 C 0.28798 0.26425 0.19522
 C4 C 0.30622 0.24958 0.19271
 C5 C 0.30410 0.23453 0.21058
 H6 H 0.28369 0.27840 0.18448
 H7 H 0.31517 0.22051 0.21458
 Cu8 Cu 0.24857 0.27128 0.22647
 Cu9 Cu 0.27357 0.22567 0.24975
 Cu10 Cu 0.22547 0.24954 0.27379
 N11 N 0.22192 0.28481 0.24057
 N12 N 0.21300 0.27625 0.25904
 C13 C 0.19490 0.28876 0.26516
 C14 C 0.19223 0.30621 0.24970
 C15 C 0.20978 0.30310 0.23433
 H16 H 0.18453 0.28536 0.27985
 H17 H 0.21346 0.31332 0.21964
 N18 N 0.24055 0.22249 0.28622
 N19 N 0.25886 0.21340 0.27708
 C20 C 0.26502 0.19520 0.28932
 C21 C 0.24987 0.19261 0.30710
 C22 C 0.23459 0.21029 0.30452
 H23 H 0.27948 0.18461 0.28550
 H24 H 0.22013 0.21404 0.31513
 H25 H 0.24014 0.23550 0.24530
 H26 H 0.25849 0.25447 0.26279
 N27 N 0.71382 -0.24094 0.22289
 N28 N 0.72284 -0.25937 0.21432
 C29 C 0.71080 -0.26561 0.19597
 C30 C 0.69316 -0.25027 0.19278
 C31 C 0.69575 -0.23483 0.21035
 H32 H 0.71471 -0.28025 0.18575
 H33 H 0.68537 -0.22018 0.21390
 Cu34 Cu 0.74948 -0.27340 0.22794
 Cu35 Cu 0.72612 -0.22620 0.24969
 Cu36 Cu 0.77415 -0.25016 0.27375
 N37 N 0.77683 -0.28627 0.24133
 N38 N 0.78636 -0.27712 0.25921
 C39 C 0.80485 -0.28923 0.26494
 C40 C 0.80720 -0.30710 0.24981
 C41 C 0.78897 -0.30455 0.23504
 H42 H 0.81570 -0.28517 0.27911
 H43 H 0.78476 -0.31511 0.22075
 N44 N 0.75930 -0.22288 0.28600
 N45 N 0.74103 -0.21376 0.27684
 C46 C 0.73498 -0.19545 0.28900
 C47 C 0.75017 -0.19284 0.30675
 C48 C 0.76535 -0.21062 0.30423
 H49 H 0.72056 -0.18482 0.28517
 H50 H 0.77975 -0.21443 0.31489
 H51 H 0.75921 -0.23706 0.24494
 H52 H 0.74079 -0.25470 0.26370
 N53 N 0.71430 0.24050 0.77698
 N54 N 0.72366 0.25866 0.78581
 C55 C 0.71162 0.26496 0.80413
 C56 C 0.69368 0.24994 0.80699
 C57 C 0.69602 0.23464 0.78935
 H58 H 0.71566 0.27940 0.81460
 H59 H 0.68525 0.22028 0.78567
 Cu60 Cu 0.75068 0.27224 0.77244
 Cu61 Cu 0.72648 0.22576 0.75011
 Cu62 Cu 0.77461 0.24968 0.72602
 N63 N 0.77770 0.28552 0.75875
 N64 N 0.78694 0.27660 0.74062
 C65 C 0.80524 0.28892 0.73464
 C66 C 0.80774 0.30668 0.74987
 C67 C 0.78981 0.30385 0.76496
 H68 H 0.81582 0.28509 0.72023
 H69 H 0.78578 0.31429 0.77940
 N70 N 0.75962 0.22244 0.71375
 N71 N 0.74132 0.21335 0.72291
 C72 C 0.73521 0.19505 0.71074
 C73 C 0.75039 0.19242 0.69299
 C74 C 0.76563 0.21017 0.69551
 H75 H 0.72076 0.18444 0.71458
 H76 H 0.78006 0.21393 0.68487
 H77 H 0.75976 0.23612 0.75464
 H78 H 0.74139 0.25434 0.73645
 N79 N 0.28578 -0.24030 0.77731
 N80 N 0.27640 -0.25844 0.78615
 C81 C 0.28845 -0.26473 0.80446
 C82 C 0.30640 -0.24974 0.80731
 C83 C 0.30408 -0.23444 0.78967
 H84 H 0.28440 -0.27916 0.81491
 H85 H 0.31486 -0.22010 0.78598
 Cu86 Cu 0.24936 -0.27200 0.77280
 Cu87 Cu 0.27361 -0.22559 0.75043
 Cu88 Cu 0.22543 -0.24950 0.72638
 N89 N 0.22233 -0.28527 0.75915
 N90 N 0.21308 -0.27639 0.74101
 C91 C 0.19475 -0.28869 0.73508
 C92 C 0.19223 -0.30640 0.75035
 C93 C 0.21018 -0.30356 0.76540
 H94 H 0.18414 -0.28486 0.72067
 H95 H 0.21421 -0.31396 0.77986
 N96 N 0.24044 -0.22230 0.71408
 N97 N 0.25876 -0.21321 0.72323
 C98 C 0.26488 -0.19494 0.71104
 C99 C 0.24970 -0.19233 0.69329
 C100 C 0.23444 -0.21005 0.69584
 H101 H 0.27935 -0.18435 0.71486
 H102 H 0.21999 -0.21382 0.68521
 H103 H 0.24032 -0.23591 0.75498
 H104 H 0.25866 -0.25417 0.73679
 N105 N 0.71459 -0.24020 0.77707
 N106 N 0.72427 -0.25796 0.78630
 C107 C 0.71223 -0.26418 0.80465
 C108 C 0.69398 -0.24951 0.80712
 C109 C 0.69611 -0.23450 0.78921
 H110 H 0.71651 -0.27832 0.81540
 H111 H 0.68506 -0.22047 0.78519
 Cu112 Cu 0.75164 -0.27126 0.77345
 Cu113 Cu 0.72662 -0.22573 0.75005
 Cu114 Cu 0.77472 -0.24965 0.72608
 N115 N 0.77826 -0.28483 0.75937
 N116 N 0.78718 -0.27632 0.74089
 C117 C 0.80528 -0.28883 0.73478
 C118 C 0.80799 -0.30629 0.75029
 C119 C 0.79038 -0.30310 0.76567
 H120 H 0.81561 -0.28532 0.72010
 H121 H 0.78656 -0.31324 0.78036
 N122 N 0.75963 -0.22263 0.71360
 N123 N 0.74133 -0.21353 0.72273
 C124 C 0.73518 -0.19535 0.71046
 C125 C 0.75033 -0.19280 0.69268
 C126 C 0.76560 -0.21048 0.69528
 H127 H 0.72074 -0.18474 0.71429
 H128 H 0.78005 -0.21425 0.68467
 H129 H 0.74170 -0.25457 0.73710
 H130 H 0.76006 -0.23554 0.75453
 N131 N 0.28573 0.24045 0.77734
 N132 N 0.27601 0.25823 0.78652
 C133 C 0.28809 0.26460 0.80480
 C134 C 0.30640 0.25001 0.80727
 C135 C 0.30428 0.23490 0.78945
 H136 H 0.28379 0.27878 0.81549
 H137 H 0.31535 0.22087 0.78546
 Cu138 Cu 0.24854 0.27135 0.77372
 Cu139 Cu 0.27364 0.22577 0.75044
 Cu140 Cu 0.22533 0.24933 0.72657
 N141 N 0.22181 0.28473 0.75967
 N142 N 0.21284 0.27604 0.74127
 C143 C 0.19470 0.28847 0.73514
 C144 C 0.19207 0.30601 0.75051
 C145 C 0.20967 0.30303 0.76585
 H146 H 0.18426 0.28492 0.72054
 H147 H 0.21345 0.31341 0.78041
 N148 N 0.24046 0.22230 0.71417
 N149 N 0.25886 0.21335 0.72324
 C150 C 0.26506 0.19515 0.71100
 C151 C 0.24984 0.19244 0.69330
 C152 C 0.23448 0.21004 0.69592
 H153 H 0.27962 0.18466 0.71475
 H154 H 0.21994 0.21368 0.68538
 H155 H 0.25839 0.25447 0.73741
 H156 H 0.24019 0.23546 0.75503
 N157 N 0.28579 -0.23979 0.22271
 N158 N 0.27602 -0.25752 0.21347
 C159 C 0.28805 -0.26382 0.19515
 C160 C 0.30639 -0.24924 0.19271
 C161 C 0.30433 -0.23419 0.21059
 H162 H 0.28370 -0.27794 0.18438
 H163 H 0.31550 -0.22024 0.21465
 Cu164 Cu 0.24859 -0.27076 0.22629
 Cu165 Cu 0.27381 -0.22526 0.24973
 Cu166 Cu 0.22568 -0.24911 0.27374
 N167 N 0.22197 -0.28428 0.24043
 N168 N 0.21313 -0.27577 0.25897
 C169 C 0.19504 -0.28829 0.26511
 C170 C 0.19230 -0.30570 0.24961
 C171 C 0.20979 -0.30255 0.23418
 H172 H 0.18474 -0.28495 0.27986
 H173 H 0.21339 -0.31273 0.21944
 N174 N 0.24083 -0.22210 0.28620
 N175 N 0.25915 -0.21302 0.27706
 C176 C 0.26534 -0.19482 0.28932
 C177 C 0.25020 -0.19223 0.30710
 C178 C 0.23489 -0.20991 0.30451
 H179 H 0.27981 -0.18422 0.28549
 H180 H 0.22042 -0.21366 0.31512
 H181 H 0.25866 -0.25410 0.26264
 H182 H 0.24034 -0.23502 0.24527
 N183 N 0.71386 0.23986 0.22299
 N184 N 0.72318 0.25804 0.21417
 C185 C 0.71115 0.26428 0.19583
 C186 C 0.69328 0.24920 0.19295
 C187 C 0.69562 0.23392 0.21059
 H188 H 0.71516 0.27872 0.18538
 H189 H 0.68490 0.21953 0.21426
 Cu190 Cu 0.75010 0.27173 0.22756
 Cu191 Cu 0.72602 0.22521 0.24988
 Cu192 Cu 0.77402 0.24934 0.27406
 N193 N 0.77702 0.28510 0.24128
 N194 N 0.78627 0.27625 0.25945
 C195 C 0.80454 0.28863 0.26540
 C196 C 0.80697 0.30629 0.25014
 C197 C 0.78912 0.30343 0.23505
 H198 H 0.81522 0.28495 0.27979
 H199 H 0.78517 0.31389 0.22061
 N200 N 0.75910 0.22210 0.28631
 N201 N 0.74085 0.21292 0.27711
 C202 C 0.73479 0.19463 0.28928
 C203 C 0.74993 0.19210 0.30707
 C204 C 0.76511 0.20989 0.30457
 H205 H 0.72039 0.18394 0.28541
 H206 H 0.77949 0.21375 0.31525
 H207 H 0.74080 0.25388 0.26354
 H208 H 0.75927 0.23569 0.24541
 C209 C 0.26114 0.06956 0.51181
 C210 C 0.26114 0.06958 0.48862
 C211 C 0.25441 0.04812 0.48190
 N212 N 0.25024 0.03503 0.50017
 C213 C 0.25441 0.04808 0.51847
 C214 C 0.25090 0.04133 0.45928
 C215 C 0.24698 0.01858 0.45292
 C216 C 0.23876 0.01177 0.43202
 C217 C 0.23876 -0.01151 0.43203
 C218 C 0.24699 -0.01828 0.45293
 N219 N 0.25200 0.00016 0.46555
 C220 C 0.25094 -0.04101 0.45928
 C221 C 0.25444 -0.04782 0.48189
 C222 C 0.26117 -0.06929 0.48856
 C223 C 0.26113 -0.06932 0.51176
 C224 C 0.25439 -0.04786 0.51846
 N225 N 0.25025 -0.03478 0.50019
 C226 C 0.25085 -0.04108 0.54109
 C227 C 0.24692 -0.01834 0.54744
 C228 C 0.23866 -0.01154 0.56832
 C229 C 0.23866 0.01173 0.56831
 C230 C 0.24692 0.01852 0.54743
 N231 N 0.25195 0.00009 0.53481
 C232 C 0.25087 0.04126 0.54108
 H233 H 0.26550 0.08376 0.52253
 H234 H 0.26550 0.08381 0.47794
 H235 H 0.26077 0.00010 0.51959
 H236 H 0.23343 0.02245 0.41814
 H237 H 0.23345 -0.02222 0.41814
 H238 H 0.26554 -0.08349 0.47785
 H239 H 0.26549 -0.08353 0.52244
 H240 H 0.23332 0.02243 0.58219
 H241 H 0.26079 0.00017 0.48079
 H242 H 0.23331 -0.02223 0.58219
 C243 C 0.76071 0.06916 0.48840
 C244 C 0.76074 0.06917 0.51159
 C245 C 0.75403 0.04770 0.51828
 N246 N 0.74984 0.03462 0.50000
 C247 C 0.75399 0.04768 0.48171
 C248 C 0.75056 0.04089 0.54090
 C249 C 0.74665 0.01814 0.54723
 C250 C 0.73845 0.01132 0.56813
 C251 C 0.73845 -0.01196 0.56809
 C252 C 0.74665 -0.01872 0.54716
 N253 N 0.75165 -0.00027 0.53457
 C254 C 0.75060 -0.04144 0.54077
 C255 C 0.75412 -0.04824 0.51815
 C256 C 0.76087 -0.06970 0.51145
 C257 C 0.76086 -0.06971 0.48826
 C258 C 0.75410 -0.04826 0.48158
 N259 N 0.74992 -0.03519 0.49987
 C260 C 0.75056 -0.04147 0.45897
 C261 C 0.74659 -0.01873 0.45265
 C262 C 0.73833 -0.01193 0.43177
 C263 C 0.73828 0.01134 0.43182
 C264 C 0.74652 0.01813 0.45272
 N265 N 0.75158 -0.00030 0.46531
 C266 C 0.75045 0.04087 0.45910
 H267 H 0.76506 0.08337 0.47769
 H268 H 0.76511 0.08339 0.52228
 H269 H 0.76039 -0.00029 0.48053
 H270 H 0.73315 0.02199 0.58204
 H271 H 0.73315 -0.02267 0.58196
 H272 H 0.76527 -0.08389 0.52215
 H273 H 0.76524 -0.08391 0.47756
 H274 H 0.73294 0.02204 0.41795
 H275 H 0.76043 -0.00025 0.51932
 H276 H 0.73301 -0.02262 0.41788
 C277 C 0.51159 0.24011 0.06921
 C278 C 0.48825 0.24020 0.06922
 C279 C 0.48155 0.24706 0.04783
 N280 N 0.49997 0.25123 0.03480
 C281 C 0.51835 0.24692 0.04781
 C282 C 0.45881 0.25068 0.04105
 C283 C 0.45246 0.25474 0.01836
 C284 C 0.43147 0.26303 0.01159
 C285 C 0.43151 0.26314 -0.01165
 C286 C 0.45252 0.25492 -0.01845
 N287 N 0.46517 0.24981 -0.00006
 C288 C 0.45891 0.25105 -0.04117
 C289 C 0.48166 0.24749 -0.04798
 C290 C 0.48835 0.24080 -0.06943
 C291 C 0.51169 0.24072 -0.06944
 C292 C 0.51846 0.24736 -0.04799
 N293 N 0.50008 0.25156 -0.03492
 C294 C 0.54123 0.25074 -0.04118
 C295 C 0.54761 0.25455 -0.01845
 C296 C 0.56867 0.26264 -0.01160
 C297 C 0.56863 0.26255 0.01164
 C298 C 0.54756 0.25440 0.01836
 N299 N 0.53486 0.24953 -0.00008
 C300 C 0.54112 0.25038 0.04104
 H301 H 0.52234 0.23563 0.08336
 H302 H 0.47747 0.23580 0.08338
 H303 H 0.51949 0.24082 -0.00013
 H304 H 0.41751 0.26830 0.02228
 H305 H 0.41757 0.26852 -0.02233
 H306 H 0.47756 0.23651 -0.08362
 H307 H 0.52243 0.23634 -0.08364
 H308 H 0.58261 0.26774 0.02237
 H309 H 0.48047 0.24099 -0.00009
 H310 H 0.58267 0.26793 -0.02224
 C311 C 0.48893 0.74786 0.07134
 C312 C 0.51221 0.74910 0.07132
 C313 C 0.51896 0.74941 0.04887
 N314 N 0.50053 0.74859 0.03524
 C315 C 0.48213 0.74769 0.04889
 C316 C 0.54187 0.74989 0.04153
 C317 C 0.54886 0.74954 0.01859
 C318 C 0.57119 0.74636 0.01169
 C319 C 0.57114 0.74640 -0.01150
 C320 C 0.54878 0.74960 -0.01830
 N321 N 0.53535 0.75188 0.00018
 C322 C 0.54169 0.75003 -0.04121
 C323 C 0.51877 0.74960 -0.04851
 C324 C 0.51197 0.74931 -0.07096
 C325 C 0.48870 0.74806 -0.07094
 C326 C 0.48194 0.74785 -0.04848
 N327 N 0.50036 0.74874 -0.03485
 C328 C 0.45903 0.74751 -0.04115
 C329 C 0.45205 0.74792 -0.01821
 C330 C 0.42976 0.75133 -0.01131
 C331 C 0.42981 0.75131 0.01188
 C332 C 0.45213 0.74788 0.01868
 N333 N 0.46554 0.74545 0.00021
 C334 C 0.45921 0.74740 0.04160
 H335 H 0.47827 0.74731 0.08624
 H336 H 0.52290 0.74960 0.08621
 H337 H 0.48251 0.74079 0.00018
 H338 H 0.58600 0.74383 0.02225
 H339 H 0.58591 0.74391 -0.02213
 H340 H 0.52264 0.74982 -0.08586
 H341 H 0.47801 0.74751 -0.08583
 H342 H 0.41506 0.75396 0.02251
 H343 H 0.51833 0.75635 0.00021
 H344 H 0.41497 0.75401 -0.02187
 C345 C 0.06944 0.51192 0.23805
 C346 C 0.06945 0.48869 0.23808
 C347 C 0.04787 0.48198 0.24473
 N348 N 0.03472 0.50028 0.24883
 C349 C 0.04784 0.51860 0.24468
 C350 C 0.04104 0.45933 0.24825
 C351 C 0.01818 0.45298 0.25216
 C352 C 0.01133 0.43209 0.26041
 C353 C -0.01205 0.43209 0.26041
 C354 C -0.01886 0.45299 0.25216
 N355 N -0.00033 0.46561 0.24714
 C356 C -0.04171 0.45934 0.24822
 C357 C -0.04855 0.48196 0.24464
 C358 C -0.07013 0.48860 0.23794
 C359 C -0.07015 0.51183 0.23788
 C360 C -0.04858 0.51858 0.24454
 N361 N -0.03543 0.50030 0.24874
 C362 C -0.04176 0.54124 0.24800
 C363 C -0.01890 0.54762 0.25192
 C364 C -0.01208 0.56855 0.26009
 C365 C 0.01131 0.56854 0.26015
 C366 C 0.01814 0.54760 0.25201
 N367 N -0.00038 0.53496 0.24699
 C368 C 0.04099 0.54124 0.24815
 H369 H 0.08372 0.52264 0.23373
 H370 H 0.08375 0.47799 0.23379
 H371 H -0.00037 0.51969 0.23827
 H372 H 0.02207 0.41820 0.26574
 H373 H -0.02281 0.41821 0.26574
 H374 H -0.08441 0.47786 0.23364
 H375 H -0.08444 0.52251 0.23352
 H376 H 0.02206 0.58245 0.26545
 H377 H -0.00032 0.48084 0.23834
 H378 H -0.02282 0.58246 0.26535
 C379 C 0.07132 0.48885 0.75014
 C380 C 0.07135 0.51201 0.75142
 C381 C 0.04876 0.51875 0.75182
 N382 N 0.03501 0.50043 0.75101
 C383 C 0.04872 0.48211 0.75003
 C384 C 0.04143 0.54155 0.75233
 C385 C 0.01835 0.54854 0.75202
 C386 C 0.01145 0.57077 0.74888
 C387 C -0.01188 0.57075 0.74888
 C388 C -0.01877 0.54850 0.75201
 N389 N -0.00021 0.53511 0.75430
 C390 C -0.04185 0.54147 0.75232
 C391 C -0.04923 0.51867 0.75183
 C392 C -0.07183 0.51194 0.75138
 C393 C -0.07186 0.48878 0.75009
 C394 C -0.04927 0.48203 0.75002
 N395 N -0.03552 0.50034 0.75105
 C396 C -0.04193 0.45922 0.74965
 C397 C -0.01886 0.45226 0.75018
 C398 C -0.01196 0.43007 0.75360
 C399 C 0.01137 0.43010 0.75361
 C400 C 0.01826 0.45230 0.75019
 N401 N -0.00030 0.46567 0.74775
 C402 C 0.04133 0.45931 0.74968
 H403 H 0.08629 0.47823 0.74950
 H404 H 0.08635 0.52264 0.75187
 H405 H -0.00029 0.48256 0.74306
 H406 H 0.02211 0.58551 0.74640
 H407 H -0.02254 0.58546 0.74639
 H408 H -0.08681 0.52257 0.75179
 H409 H -0.08685 0.47816 0.74940
 H410 H 0.02203 0.41541 0.75626
 H411 H -0.00023 0.51815 0.75870
 H412 H -0.02262 0.41536 0.75624
 C413 C 0.35778 0.25040 0.14097
 C414 C 0.34164 0.26775 0.14205
 C415 C 0.32490 0.26752 0.15884
 C416 C 0.32404 0.24988 0.17485
 C417 C 0.34041 0.23253 0.17357
 C418 C 0.35713 0.23281 0.15676
 C419 C 0.37500 0.25064 0.12367
 C420 C 0.38946 0.25078 0.10922
 C421 C 0.40677 0.25088 0.09200
 C422 C 0.42394 0.26733 0.09236
 C423 C 0.44085 0.26732 0.07574
 C424 C 0.44077 0.25082 0.05864
 C425 C 0.42347 0.23442 0.05831
 C426 C 0.40655 0.23445 0.07492
 H427 H 0.34199 0.28147 0.12991
 H428 H 0.31275 0.28124 0.15923
 H429 H 0.34036 0.21861 0.18544
 H430 H 0.36954 0.21928 0.15608
 H431 H 0.42426 0.28012 0.10548
 H432 H 0.45403 0.28014 0.07618
 H433 H 0.42316 0.22158 0.04523
 H434 H 0.39335 0.22165 0.07449
 C435 C 0.64282 0.74948 0.14144
 C436 C 0.65941 0.73256 0.14200
 C437 C 0.67604 0.73260 0.15890
 C438 C 0.67640 0.74966 0.17565
 C439 C 0.65950 0.76662 0.17479
 C440 C 0.64292 0.76649 0.15786
 C441 C 0.62566 0.74938 0.12408
 C442 C 0.61124 0.74936 0.10959
 C443 C 0.59394 0.74942 0.09236
 C444 C 0.58184 0.72957 0.08749
 C445 C 0.56489 0.72968 0.07090
 C446 C 0.55990 0.74968 0.05910
 C447 C 0.57214 0.76950 0.06393
 C448 C 0.58908 0.76937 0.08052
 H449 H 0.65948 0.71928 0.12936
 H450 H 0.68850 0.71917 0.15864
 H451 H 0.65887 0.78012 0.18711
 H452 H 0.63013 0.77970 0.15758
 H453 H 0.58547 0.71405 0.09654
 H454 H 0.55562 0.71425 0.06727
 H455 H 0.56848 0.78502 0.05490
 H456 H 0.59835 0.78481 0.08414
 C457 C 0.64228 0.25061 -0.14109
 C458 C 0.64247 0.23341 -0.15734
 C459 C 0.65914 0.23317 -0.17420
 C460 C 0.67594 0.25018 -0.17507
 C461 C 0.67556 0.26741 -0.15859
 C462 C 0.65885 0.26760 -0.14176
 C463 C 0.62507 0.25082 -0.12378
 C464 C 0.61062 0.25094 -0.10932
 C465 C 0.59331 0.25102 -0.09211
 C466 C 0.59339 0.23447 -0.07516
 C467 C 0.57647 0.23441 -0.05856
 C468 C 0.55928 0.25090 -0.05877
 C469 C 0.55932 0.26752 -0.07574
 C470 C 0.57625 0.26756 -0.09234
 H471 H 0.62972 0.22017 -0.15699
 H472 H 0.65877 0.21960 -0.18645
 H473 H 0.68807 0.28082 -0.15860
 H474 H 0.65887 0.28101 -0.12926
 H475 H 0.60650 0.22159 -0.07482
 H476 H 0.57667 0.22147 -0.04559
 H477 H 0.54624 0.28042 -0.07608
 H478 H 0.57603 0.28045 -0.10536
 C479 C 0.35787 0.74946 -0.14085
 C480 C 0.34108 0.73268 -0.14134
 C481 C 0.32436 0.73292 -0.15814
 C482 C 0.32416 0.75000 -0.17477
 C483 C 0.34117 0.76680 -0.17406
 C484 C 0.35787 0.76651 -0.15723
 C485 C 0.37512 0.74915 -0.12358
 C486 C 0.38961 0.74889 -0.10914
 C487 C 0.40695 0.74859 -0.09196
 C488 C 0.41153 0.72859 -0.08008
 C489 C 0.42848 0.72826 -0.06351
 C490 C 0.44100 0.74791 -0.05872
 C491 C 0.43629 0.76795 -0.07057
 C492 C 0.41934 0.76827 -0.08715
 H493 H 0.34093 0.71938 -0.12873
 H494 H 0.31167 0.71967 -0.15801
 H495 H 0.34170 0.78024 -0.18644
 H496 H 0.37080 0.77959 -0.15702
 H497 H 0.40203 0.71328 -0.08366
 H498 H 0.43191 0.71270 -0.05444
 H499 H 0.44578 0.78325 -0.06697
 H500 H 0.41593 0.78383 -0.09622
 C501 C 0.14090 0.35821 0.24940
 C502 C 0.15819 0.35836 0.23317
 C503 C 0.17488 0.34151 0.23325
 C504 C 0.17452 0.32418 0.24961
 C505 C 0.15701 0.32424 0.26588
 C506 C 0.14035 0.34112 0.26575
 C507 C 0.12372 0.37555 0.24927
 C508 C 0.10932 0.39009 0.24913
 C509 C 0.09216 0.40744 0.24895
 C510 C 0.09244 0.42457 0.26533
 C511 C 0.07580 0.44146 0.26513
 C512 C 0.05874 0.44140 0.24850
 C513 C 0.05850 0.42416 0.23215
 C514 C 0.07514 0.40726 0.23238
 H515 H 0.15879 0.37152 0.22043
 H516 H 0.18802 0.34219 0.22049
 H517 H 0.15601 0.31127 0.27872
 H518 H 0.12702 0.34083 0.27840
 H519 H 0.10551 0.42485 0.27825
 H520 H 0.07616 0.45458 0.27793
 H521 H 0.04545 0.42387 0.21922
 H522 H 0.07476 0.39409 0.21963
 C523 C 0.14140 0.64264 0.75090
 C524 C 0.15829 0.64288 0.76752
 C525 C 0.17507 0.65967 0.76737
 C526 C 0.17528 0.67661 0.75053
 C527 C 0.15807 0.67608 0.73387
 C528 C 0.14132 0.65925 0.73410
 C529 C 0.12415 0.62533 0.75110
 C530 C 0.10972 0.61081 0.75128
 C531 C 0.09252 0.59346 0.75151
 C532 C 0.08074 0.58860 0.77152
 C533 C 0.06409 0.57168 0.77178
 C534 C 0.05913 0.55948 0.75203
 C535 C 0.07090 0.56445 0.73198
 C536 C 0.08755 0.58136 0.73174
 H537 H 0.15851 0.63008 0.78062
 H538 H 0.18777 0.65915 0.78057
 H539 H 0.15731 0.68856 0.72055
 H540 H 0.12830 0.65922 0.72113
 H541 H 0.08444 0.59787 0.78690
 H542 H 0.05509 0.56805 0.78733
 H543 H 0.06716 0.55520 0.71661
 H544 H 0.09654 0.58500 0.71617
 C545 C -0.14183 0.64217 0.24905
 C546 C -0.14152 0.65902 0.26563
 C547 C -0.15830 0.67578 0.26591
 C548 C -0.17579 0.67601 0.24954
 C549 C -0.17581 0.65884 0.23290
 C550 C -0.15898 0.64212 0.23270
 C551 C -0.12457 0.62489 0.24885
 C552 C -0.11014 0.61040 0.24871
 C553 C -0.09294 0.59307 0.24856
 C554 C -0.07593 0.59321 0.23198
 C555 C -0.05926 0.57634 0.23180
 C556 C -0.05948 0.55916 0.24820
 C557 C -0.07653 0.55913 0.26483
 C558 C -0.09319 0.57601 0.26499
 H559 H -0.12830 0.65921 0.27839
 H560 H -0.15735 0.68844 0.27906
 H561 H -0.18872 0.65810 0.21992
 H562 H -0.15938 0.62913 0.21977
 H563 H -0.07557 0.60633 0.21920
 H564 H -0.04622 0.57660 0.21886
 H565 H -0.07687 0.54606 0.27766
 H566 H -0.10625 0.57575 0.27790
 C567 C -0.14162 0.35784 0.75013
 C568 C -0.14152 0.34114 0.73340
 C569 C -0.15819 0.32424 0.73328
 C570 C -0.17537 0.32373 0.74998
 C571 C -0.17517 0.34075 0.76676
 C572 C -0.15846 0.35760 0.76679
 C573 C -0.12446 0.37524 0.75016
 C574 C -0.11009 0.38982 0.75013
 C575 C -0.09295 0.40723 0.75005
 C576 C -0.08840 0.41956 0.76977
 C577 C -0.07178 0.43651 0.76967
 C578 C -0.05963 0.44129 0.74981
 C579 C -0.06417 0.42885 0.73010
 C580 C -0.08078 0.41190 0.73022
 H581 H -0.12854 0.34117 0.72039
 H582 H -0.15741 0.31170 0.72000
 H583 H -0.18784 0.34127 0.77998
 H584 H -0.15869 0.37047 0.77984
 H585 H -0.09769 0.41607 0.78521
 H586 H -0.06837 0.44593 0.78502
 H587 H -0.05486 0.43232 0.71469
 H588 H -0.08415 0.40245 0.71488
 C589 C 0.25007 0.14107 0.35862
 C590 C 0.26677 0.14108 0.34178
 C591 C 0.26673 0.15780 0.32505
 C592 C 0.24994 0.17481 0.32490
 C593 C 0.23322 0.17460 0.34197
 C594 C 0.23331 0.15785 0.35867
 C595 C 0.25015 0.12386 0.37584
 C596 C 0.25022 0.10946 0.39028
 C597 C 0.25033 0.09230 0.40755
 C598 C 0.26698 0.07536 0.40736
 C599 C 0.26716 0.05876 0.42420
 C600 C 0.25067 0.05896 0.44137
 C601 C 0.23395 0.07593 0.44143
 C602 C 0.23380 0.09254 0.42460
 H603 H 0.27984 0.12816 0.34158
 H604 H 0.27990 0.15727 0.31231
 H605 H 0.22002 0.18730 0.34255
 H606 H 0.22029 0.15801 0.37164
 H607 H 0.27984 0.07502 0.39425
 H608 H 0.28016 0.04578 0.42391
 H609 H 0.22105 0.07626 0.45451
 H610 H 0.22083 0.10555 0.42489
 C611 C 0.75024 0.14072 0.64158
 C612 C 0.73336 0.14093 0.65823
 C613 C 0.73338 0.15769 0.67493
 C614 C 0.75034 0.17456 0.67524
 C615 C 0.76725 0.17415 0.65836
 C616 C 0.76717 0.15736 0.64168
 C617 C 0.75019 0.12347 0.62439
 C618 C 0.75017 0.10904 0.60996
 C619 C 0.75018 0.09186 0.59269
 C620 C 0.73359 0.09210 0.57570
 C621 C 0.73367 0.07549 0.55885
 C622 C 0.75038 0.05851 0.55884
 C623 C 0.76693 0.05830 0.57596
 C624 C 0.76683 0.07491 0.59281
 H625 H 0.72015 0.12812 0.65831
 H626 H 0.72006 0.15732 0.68751
 H627 H 0.78060 0.18672 0.65791
 H628 H 0.78034 0.15737 0.62887
 H629 H 0.72063 0.10512 0.57547
 H630 H 0.72073 0.07583 0.54582
 H631 H 0.77993 0.04532 0.57618
 H632 H 0.77973 0.07457 0.60587
 C633 C 0.24991 -0.14076 0.64181
 C634 C 0.23304 -0.15746 0.64184
 C635 C 0.23295 -0.17421 0.65854
 C636 C 0.24977 -0.17451 0.67551
 C637 C 0.26665 -0.15757 0.67528
 C638 C 0.26670 -0.14085 0.65855
 C639 C 0.25001 -0.12356 0.62458
 C640 C 0.25010 -0.10917 0.61012
 C641 C 0.25023 -0.09202 0.59284
 C642 C 0.23373 -0.09230 0.57576
 C643 C 0.23390 -0.07571 0.55892
 C644 C 0.25061 -0.05871 0.55899
 C645 C 0.26707 -0.05846 0.57619
 C646 C 0.26688 -0.07506 0.59304
 H647 H 0.21995 -0.15756 0.62895
 H648 H 0.21965 -0.18684 0.65803
 H649 H 0.27990 -0.15711 0.68794
 H650 H 0.27985 -0.12799 0.65869
 H651 H 0.22076 -0.10534 0.57547
 H652 H 0.22102 -0.07608 0.54583
 H653 H 0.28007 -0.04546 0.57649
 H654 H 0.27971 -0.07468 0.60618
 C655 C 0.75012 -0.14122 0.35822
 C656 C 0.76714 -0.15774 0.35798
 C657 C 0.76718 -0.17450 0.34129
 C658 C 0.75015 -0.17501 0.32453
 C659 C 0.73311 -0.15825 0.32497
 C660 C 0.73312 -0.14151 0.34169
 C661 C 0.75010 -0.12399 0.37544
 C662 C 0.75010 -0.10958 0.38989
 C663 C 0.75014 -0.09241 0.40716
 C664 C 0.76675 -0.07540 0.40701
 C665 C 0.76687 -0.05880 0.42386
 C666 C 0.75038 -0.05908 0.44104
 C667 C 0.73370 -0.07612 0.44106
 C668 C 0.73361 -0.09272 0.42421
 H669 H 0.78039 -0.15768 0.37071
 H670 H 0.78061 -0.18698 0.34162
 H671 H 0.71969 -0.15796 0.31248
 H672 H 0.71985 -0.12879 0.34172
 H673 H 0.77961 -0.07500 0.39390
 H674 H 0.77984 -0.04577 0.42361
 H675 H 0.72080 -0.07652 0.45413
 H676 H 0.72067 -0.10579 0.42447
 C677 C 0.64249 0.74986 -0.14113
 C678 C 0.65914 0.73298 -0.14163
 C679 C 0.67586 0.73314 -0.15844
 C680 C 0.67618 0.75025 -0.17503
 C681 C 0.65929 0.76714 -0.17433
 C682 C 0.64260 0.76692 -0.15751
 C683 C 0.62530 0.74971 -0.12383
 C684 C 0.61087 0.74966 -0.10936
 C685 C 0.59360 0.74969 -0.09213
 C686 C 0.58162 0.72979 -0.08720
 C687 C 0.56472 0.72986 -0.07058
 C688 C 0.55965 0.74987 -0.05882
 C689 C 0.57176 0.76974 -0.06372
 C690 C 0.58866 0.76965 -0.08034
 H691 H 0.65920 0.71968 -0.12903
 H692 H 0.68844 0.71981 -0.15833
 H693 H 0.65889 0.78062 -0.18667
 H694 H 0.62977 0.78008 -0.15727
 H695 H 0.58532 0.71425 -0.09622
 H696 H 0.55554 0.71440 -0.06689
 H697 H 0.56804 0.78527 -0.05471
 H698 H 0.59784 0.78513 -0.08402
 C699 C 0.35802 0.25108 -0.14110
 C700 C 0.34120 0.26779 -0.14151
 C701 C 0.32444 0.26749 -0.15828
 C702 C 0.32426 0.25042 -0.17492
 C703 C 0.34133 0.23371 -0.17431
 C704 C 0.35806 0.23406 -0.15753
 C705 C 0.37523 0.25134 -0.12380
 C706 C 0.38966 0.25147 -0.10934
 C707 C 0.40693 0.25151 -0.09211
 C708 C 0.42401 0.26805 -0.09228
 C709 C 0.44092 0.26796 -0.07566
 C710 C 0.44089 0.25129 -0.05875
 C711 C 0.42368 0.23480 -0.05859
 C712 C 0.40678 0.23492 -0.07521
 H713 H 0.34102 0.28105 -0.12886
 H714 H 0.31171 0.28068 -0.15810
 H715 H 0.34186 0.22027 -0.18671
 H716 H 0.37102 0.22103 -0.15736
 H717 H 0.42428 0.28097 -0.10527
 H718 H 0.45403 0.28085 -0.07596
 H719 H 0.42343 0.22183 -0.04566
 H720 H 0.39364 0.22205 -0.07493
 C721 C 0.35809 0.74960 0.14119
 C722 C 0.35731 0.76740 0.15676
 C723 C 0.34053 0.76780 0.17350
 C724 C 0.32424 0.75036 0.17492
 C725 C 0.32522 0.73252 0.15913
 C726 C 0.34202 0.73218 0.14241
 C727 C 0.37538 0.74921 0.12398
 C728 C 0.38989 0.74890 0.10959
 C729 C 0.40724 0.74855 0.09245
 C730 C 0.41958 0.76824 0.08757
 C731 C 0.43651 0.76789 0.07099
 C732 C 0.44125 0.74781 0.05921
 C733 C 0.42879 0.72814 0.06407
 C734 C 0.41186 0.72851 0.08065
 H735 H 0.36967 0.78099 0.15595
 H736 H 0.34036 0.78187 0.18519
 H737 H 0.31315 0.71873 0.15965
 H738 H 0.34249 0.71829 0.13044
 H739 H 0.41612 0.78383 0.09659
 H740 H 0.44595 0.78320 0.06732
 H741 H 0.43225 0.71256 0.05504
 H742 H 0.40239 0.71319 0.08429
 C743 C 0.64198 0.24973 0.14100
 C744 C 0.64202 0.23267 0.15737
 C745 C 0.65867 0.23247 0.17424
 C746 C 0.67557 0.24937 0.17499
 C747 C 0.67533 0.26645 0.15838
 C748 C 0.65866 0.26661 0.14153
 C749 C 0.62479 0.24994 0.12369
 C750 C 0.61035 0.25010 0.10922
 C751 C 0.59307 0.25027 0.09201
 C752 C 0.59312 0.23376 0.07501
 C753 C 0.57623 0.23383 0.05838
 C754 C 0.55913 0.25040 0.05864
 C755 C 0.55921 0.26698 0.07566
 C756 C 0.57611 0.26689 0.09228
 H757 H 0.62917 0.21951 0.15711
 H758 H 0.65819 0.21902 0.18661
 H759 H 0.68794 0.27978 0.15829
 H760 H 0.65877 0.27991 0.12893
 H761 H 0.60617 0.22083 0.07465
 H762 H 0.57639 0.22093 0.04537
 H763 H 0.54619 0.27994 0.07602
 H764 H 0.57593 0.27975 0.10535
 C765 C -0.14150 0.64257 0.75076
 C766 C -0.14167 0.65887 0.73366
 C767 C -0.15832 0.67575 0.73345
 C768 C -0.17519 0.67664 0.75043
 C769 C -0.17476 0.66000 0.76756
 C770 C -0.15807 0.64316 0.76768
 C771 C -0.12433 0.62523 0.75096
 C772 C -0.10996 0.61070 0.75115
 C773 C -0.09282 0.59334 0.75142
 C774 C -0.08775 0.58134 0.73162
 C775 C -0.07114 0.56443 0.73190
 C776 C -0.05953 0.55937 0.75200
 C777 C -0.06459 0.57146 0.77178
 C778 C -0.08120 0.58838 0.77149
 H779 H -0.12890 0.65856 0.72045
 H780 H -0.15775 0.68799 0.71990
 H781 H -0.18720 0.65977 0.78100
 H782 H -0.15809 0.63059 0.78102
 H783 H -0.09662 0.58506 0.71601
 H784 H -0.06731 0.55526 0.71650
 H785 H -0.05569 0.56775 0.78737
 H786 H -0.08498 0.59758 0.78688
 C787 C -0.14157 0.35819 0.24961
 C788 C -0.14166 0.34178 0.26664
 C789 C -0.15836 0.32492 0.26684
 C790 C -0.17527 0.32422 0.24996
 C791 C -0.17497 0.34086 0.23291
 C792 C -0.15824 0.35770 0.23276
 C793 C -0.12437 0.37553 0.24942
 C794 C -0.10998 0.39006 0.24925
 C795 C -0.09281 0.40743 0.24903
 C796 C -0.09304 0.42452 0.26543
 C797 C -0.07640 0.44143 0.26519
 C798 C -0.05941 0.44140 0.24850
 C799 C -0.05922 0.42419 0.23213
 C800 C -0.07587 0.40728 0.23239
 H801 H -0.12882 0.34201 0.27978
 H802 H -0.15792 0.31253 0.28026
 H803 H -0.18757 0.34099 0.21961
 H804 H -0.15832 0.37033 0.21949
 H805 H -0.10606 0.42477 0.27839
 H806 H -0.07671 0.45454 0.27800
 H807 H -0.04623 0.42393 0.21915
 H808 H -0.07554 0.39412 0.21963
 C809 C 0.14083 0.35805 0.75050
 C810 C 0.15714 0.35736 0.76768
 C811 C 0.17379 0.34048 0.76772
 C812 C 0.17437 0.32398 0.75052
 C813 C 0.15782 0.32487 0.73332
 C814 C 0.14120 0.34178 0.73333
 C815 C 0.12372 0.37544 0.75046
 C816 C 0.10938 0.39001 0.75038
 C817 C 0.09227 0.40740 0.75024
 C818 C 0.08759 0.41963 0.76998
 C819 C 0.07099 0.43656 0.76983
 C820 C 0.05901 0.44140 0.74989
 C821 C 0.06368 0.42906 0.73016
 C822 C 0.08027 0.41213 0.73034
 H823 H 0.15701 0.36989 0.78107
 H824 H 0.18612 0.34046 0.78127
 H825 H 0.15760 0.31260 0.71977
 H826 H 0.12864 0.34216 0.71993
 H827 H 0.09676 0.41609 0.78547
 H828 H 0.06747 0.44592 0.78518
 H829 H 0.05449 0.43260 0.71469
 H830 H 0.08375 0.40274 0.71499
 C831 C 0.14092 0.64233 0.24930
 C832 C 0.14020 0.65961 0.26545
 C833 C 0.15688 0.67649 0.26558
 C834 C 0.17458 0.67633 0.24952
 C835 C 0.17511 0.65882 0.23336
 C836 C 0.15840 0.64197 0.23328
 C837 C 0.12372 0.62500 0.24916
 C838 C 0.10932 0.61047 0.24903
 C839 C 0.09214 0.59312 0.24885
 C840 C 0.07523 0.59319 0.23217
 C841 C 0.05857 0.57629 0.23195
 C842 C 0.05870 0.55917 0.24841
 C843 C 0.07565 0.55921 0.26513
 C844 C 0.09231 0.57611 0.26533
 H845 H 0.12672 0.66006 0.27793
 H846 H 0.15574 0.68964 0.27824
 H847 H 0.18841 0.65796 0.22078
 H848 H 0.15912 0.62864 0.22070
 H849 H 0.07494 0.60627 0.21935
 H850 H 0.04560 0.57649 0.21894
 H851 H 0.07592 0.54618 0.27800
 H852 H 0.10530 0.57592 0.27832
 C853 C 0.75021 -0.14128 0.64121
 C854 C 0.73322 -0.14155 0.65775
 C855 C 0.73322 -0.15827 0.67446
 C856 C 0.75027 -0.17502 0.67488
 C857 C 0.76727 -0.17455 0.65811
 C858 C 0.76722 -0.15780 0.64142
 C859 C 0.75019 -0.12405 0.62403
 C860 C 0.75019 -0.10963 0.60963
 C861 C 0.75021 -0.09244 0.59241
 C862 C 0.73358 -0.09265 0.57546
 C863 C 0.73367 -0.07602 0.55866
 C864 C 0.75042 -0.05907 0.55865
 C865 C 0.76701 -0.05888 0.57573
 C866 C 0.76690 -0.07551 0.59253
 H867 H 0.71995 -0.12883 0.65773
 H868 H 0.71982 -0.15796 0.68696
 H869 H 0.78070 -0.18703 0.65775
 H870 H 0.78046 -0.15775 0.62868
 H871 H 0.72059 -0.10566 0.57523
 H872 H 0.72070 -0.07633 0.54565
 H873 H 0.78004 -0.04591 0.57595
 H874 H 0.77984 -0.07520 0.60558
 C875 C 0.25039 -0.14068 0.35859
 C876 C 0.26719 -0.14076 0.34185
 C877 C 0.26716 -0.15749 0.32513
 C878 C 0.25028 -0.17444 0.32489
 C879 C 0.23347 -0.17415 0.34187
 C880 C 0.23355 -0.15740 0.35856
 C881 C 0.25045 -0.12347 0.37580
 C882 C 0.25049 -0.10907 0.39024
 C883 C 0.25054 -0.09193 0.40751
 C884 C 0.26723 -0.07500 0.40743
 C885 C 0.26734 -0.05840 0.42428
 C886 C 0.25077 -0.05862 0.44136
 C887 C 0.23401 -0.07558 0.44132
 C888 C 0.23392 -0.09217 0.42447
 H889 H 0.28032 -0.12788 0.34172
 H890 H 0.28040 -0.15702 0.31246
 H891 H 0.22018 -0.18680 0.34238
 H892 H 0.22046 -0.15750 0.37146
 H893 H 0.28015 -0.07465 0.39437
 H894 H 0.28037 -0.04543 0.42408
 H895 H 0.22105 -0.07591 0.45433
 H896 H 0.22093 -0.10518 0.42468
 C897 C 0.74987 0.14054 0.35850
 C898 C 0.76694 0.15703 0.35822
 C899 C 0.76698 0.17378 0.34154
 C900 C 0.74990 0.17429 0.32483
 C901 C 0.73281 0.15757 0.32532
 C902 C 0.73281 0.14084 0.34203
 C903 C 0.74985 0.12333 0.37570
 C904 C 0.74987 0.10893 0.39013
 C905 C 0.74994 0.09178 0.40738
 C906 C 0.76665 0.07490 0.40727
 C907 C 0.76680 0.05831 0.42410
 C908 C 0.75024 0.05848 0.44120
 C909 C 0.73346 0.07539 0.44119
 C910 C 0.73334 0.09198 0.42436
 H911 H 0.78024 0.15695 0.37091
 H912 H 0.78046 0.18623 0.34183
 H913 H 0.71934 0.15729 0.31288
 H914 H 0.71950 0.12814 0.34210
 H915 H 0.77956 0.07460 0.39420
 H916 H 0.77984 0.04537 0.42388
 H917 H 0.72051 0.07569 0.45422
 H918 H 0.72032 0.10496 0.42458
 C919 C 0.25010 0.14088 0.64182
 C920 C 0.23350 0.15781 0.64158
 C921 C 0.23339 0.17456 0.65828
 C922 C 0.24993 0.17463 0.67552
 C923 C 0.26655 0.15746 0.67555
 C924 C 0.26661 0.14073 0.65883
 C925 C 0.25019 0.12368 0.62460
 C926 C 0.25027 0.10929 0.61015
 C927 C 0.25036 0.09216 0.59286
 C928 C 0.23378 0.09238 0.57586
 C929 C 0.23391 0.07579 0.55901
 C930 C 0.25067 0.05887 0.55900
 C931 C 0.26721 0.05867 0.57612
 C932 C 0.26706 0.07526 0.59297
 H933 H 0.22063 0.15808 0.62847
 H934 H 0.22033 0.18740 0.65754
 H935 H 0.27956 0.15680 0.68845
 H936 H 0.27955 0.12768 0.65917
 H937 H 0.22078 0.10537 0.57564
 H938 H 0.22097 0.07611 0.54597
 H939 H 0.28024 0.04572 0.57633
 H940 H 0.27995 0.07494 0.60605
   
