data_POSCAR
  _audit_creation_date              2014-09-24
  _audit_creation_method            'ToBaCCo'
  _symmetry_space_group_name_H-M    'P1'
  _symmetry_Int_Tables_number       1
  _symmetry_cell_setting            triclinic
  loop_
  _symmetry_equiv_pos_as_xyz
 x,y,z
_cell_length_a 35.9414
_cell_length_b 35.8284
_cell_length_c 36.1400
_cell_angle_alpha 90.034900
_cell_angle_beta 90.081400
_cell_angle_gamma 89.908000
loop_
  _atom_site_label
  _atom_site_type_symbol
  _atom_site_fract_x
  _atom_site_fract_y
  _atom_site_fract_z
C1 C 0.32729 0.37616 1.37454
 N2 N 0.34378 0.34507 1.38877
 C3 C 0.37258 0.32819 1.37097
 N4 N 0.38509 0.34312 1.33878
 C5 C 0.36970 0.37460 1.32452
 N6 N 0.34068 0.39082 1.34244
 C7 C 1.16989 0.62336 0.87762
 N8 N 1.15488 0.60758 0.84679
 C9 C 1.12382 0.62204 0.83082
 N10 N 1.10774 0.65283 0.84593
 C11 C 1.12223 0.66915 0.87671
 N12 N 1.15331 0.65412 0.89230
 C13 C 0.67403 -0.12877 0.12544
 N14 N 0.65598 -0.15805 0.10961
 C15 C 0.62429 -0.17217 0.12476
 N16 N 0.61051 -0.15627 0.15611
 C17 C 0.62833 -0.12715 0.17238
 N18 N 0.66004 -0.11378 0.15704
 C19 C -0.17189 1.12841 -0.37188
 N20 N -0.15619 1.15998 -0.38537
 C21 C -0.12445 1.17403 -0.37042
 N22 N -0.10882 1.15617 -0.34105
 C23 C -0.12433 1.12459 -0.32695
 N24 N -0.15583 1.11074 -0.34269
 C25 C 0.67452 0.63144 0.62793
 N26 N 0.65765 0.66190 0.61332
 C27 C 0.62579 0.67582 0.62820
 N28 N 0.61106 0.65883 0.65852
 C29 C 0.62806 0.62852 0.67373
 N30 N 0.65972 0.61493 0.65825
 C31 C 0.82281 0.36918 0.12947
 N32 N 0.83725 0.38538 0.16034
 C33 C 0.86751 0.37056 0.17744
 N34 N 0.88354 0.33922 0.16350
 C35 C 0.86972 0.32272 0.13249
 N36 N 0.83933 0.33791 0.11578
 C37 C 0.32645 0.12685 0.87204
 N38 N 0.34231 0.15846 0.88550
 C39 C 0.37268 0.17328 0.86890
 N40 N 0.38698 0.15648 0.83847
 C41 C 0.37170 0.12467 0.82479
 N42 N 0.34132 0.10991 0.84175
 C43 C 0.17580 0.87144 0.37378
 N44 N 0.15842 0.84144 0.38906
 C45 C 0.12832 0.82565 0.37228
 N46 N 0.11533 0.84072 0.34023
 C47 C 0.13205 0.87086 0.32494
 N48 N 0.16235 0.88580 0.34161
 Zn49 Zn -0.02180 1.00772 0.04566
 Zn50 Zn -0.02936 0.96962 -0.02827
 Zn51 Zn 0.00880 1.04398 -0.02124
 Zn52 Zn 0.04503 0.97635 0.00926
 O53 O 0.00051 0.99929 0.00122
 O54 O -0.06625 0.98645 0.04802
 O55 O -0.04090 0.99184 -0.07189
 O56 O -0.00960 1.08296 0.00385
 O57 O -0.07301 0.95808 -0.00600
 O58 O -0.02982 1.05616 0.05516
 O59 O -0.01206 1.04602 -0.06565
 O60 O 0.08371 1.00149 -0.00902
 O61 O -0.00740 0.92555 -0.03977
 O62 O 0.05709 1.05335 -0.02912
 O63 O 0.04690 0.93154 -0.01147
 O64 O 0.05490 0.96851 0.05713
 O65 O 0.00385 0.98961 0.08409
 C66 C -0.08533 0.96672 0.02588
 C67 C -0.03176 1.02367 -0.08455
 C68 C -0.02473 1.08497 0.03546
 C69 C 0.08583 1.03336 -0.02408
 C70 C 0.02440 0.91264 -0.03094
 C71 C 0.03554 0.97412 0.08591
 Zn72 Zn 0.54582 -0.02074 0.48943
 Zn73 Zn 0.47158 -0.02771 0.52696
 Zn74 Zn 0.50966 0.04658 0.52078
 Zn75 Zn 0.47872 0.01092 0.45345
 O76 O 0.50134 0.00215 0.49775
 O77 O 0.54793 -0.06543 0.51045
 O78 O 0.45951 -0.00578 0.57036
 O79 O 0.55797 0.05581 0.52898
 O80 O 0.49370 -0.07144 0.53872
 O81 O 0.58468 0.00452 0.50761
 O82 O 0.48846 0.04838 0.56501
 O83 O 0.47078 0.05948 0.44447
 O84 O 0.42816 -0.03947 0.50464
 O85 O 0.49138 0.08575 0.49600
 O86 O 0.43417 -0.01028 0.45104
 O87 O 0.50405 -0.00715 0.41479
 O88 O 0.55514 -0.02882 0.44139
 C89 C 0.52556 -0.08421 0.53013
 C90 C 0.46842 0.02596 0.58336
 C91 C 0.58677 0.03609 0.52337
 C92 C 0.47606 0.08810 0.46447
 C93 C 0.41546 -0.03044 0.47302
 C94 C 0.53554 -0.02302 0.41272
 Zn95 Zn 0.95570 0.47803 0.49224
 Zn96 Zn 1.03018 0.47095 0.52970
 Zn97 Zn 1.02241 0.50940 0.45591
 Zn98 Zn 0.99198 0.54530 0.52322
 O99 O 1.00022 0.50077 0.50038
 O100 O 0.95367 0.43348 0.51343
 O101 O 1.07395 0.45975 0.50739
 O102 O 0.99694 0.49111 0.41731
 O103 O 1.00818 0.42697 0.54127
 O104 O 0.94604 0.46986 0.44430
 O105 O 1.06717 0.48863 0.45364
 O106 O 1.01046 0.58424 0.49858
 O107 O 1.04176 0.49293 0.57343
 O108 O 1.03006 0.55795 0.44672
 O109 O 1.01270 0.54709 0.56767
 O110 O 0.94378 0.55504 0.53085
 O111 O 0.91696 0.50359 0.51016
 C112 C 0.97613 0.41445 0.53290
 C113 C 1.08641 0.46897 0.47573
 C114 C 0.96535 0.47548 0.41549
 C115 C 1.02527 0.58654 0.46687
 C116 C 1.03253 0.52467 0.58635
 C117 C 0.91495 0.53543 0.52535
 Zn118 Zn 0.50888 0.45536 1.02091
 Zn119 Zn 0.47019 0.52958 1.02807
 Zn120 Zn 0.54447 0.52308 0.99032
 Zn121 Zn 0.47747 0.49166 0.95419
 O122 O 0.50013 0.50005 0.99852
 O123 O 0.48730 0.45276 1.06495
 O124 O 0.49197 0.57368 1.03972
 O125 O 0.58351 0.49816 1.00878
 O126 O 0.45847 0.50701 1.07136
 O127 O 0.55722 0.44628 1.02914
 O128 O 0.54603 0.56791 1.01099
 O129 O 0.50255 0.51009 0.91570
 O130 O 0.42636 0.54097 1.00596
 O131 O 0.55391 0.53097 0.94230
 O132 O 0.43267 0.51233 0.95207
 O133 O 0.47004 0.44328 0.94457
 O134 O 0.49139 0.41640 0.99541
 C135 C 0.46718 0.47489 1.08369
 C136 C 0.52359 0.58671 1.03063
 C137 C 0.58577 0.46636 1.02400
 C138 C 0.53418 0.52554 0.91365
 C139 C 0.41366 0.53196 0.97432
 C140 C 0.47595 0.41435 0.96391
 C141 C 1.22913 0.41952 0.42218
 C142 C 1.24727 0.38949 0.43939
 C143 C 1.28053 0.37578 0.42414
 C144 C 1.29562 0.39176 0.39164
 C145 C 1.27731 0.42270 0.37554
 C146 C 1.24404 0.43642 0.39049
 C147 C 1.19333 0.43300 0.43710
 C148 C 1.17479 0.46233 0.41916
 C149 C 1.14021 0.47416 0.43250
 C150 C 1.12395 0.45697 0.46361
 C151 C 1.14330 0.42808 0.48186
 C152 C 1.17797 0.41579 0.46849
 C153 C 1.22496 0.46623 0.37379
 C154 C 1.19089 0.47894 0.38785
 C155 C 1.23134 0.37328 0.47106
 C156 C 1.19733 0.38623 0.48539
 H157 H 1.23622 0.47955 0.34934
 H158 H 1.17684 0.50170 0.37387
 H159 H 1.24510 0.35012 0.48468
 H160 H 1.18590 0.37270 0.50963
 H161 H 1.29407 0.35217 0.43724
 H162 H 1.28827 0.43567 0.35076
 H163 H 1.12581 0.49664 0.41838
 H164 H 1.13104 0.41465 0.50577
 C165 C 0.27049 0.58194 0.92216
 C166 C 0.25264 0.61199 0.93962
 C167 C 0.21889 0.62537 0.92512
 C168 C 0.20287 0.60890 0.89325
 C169 C 0.22110 0.57818 0.87668
 C170 C 0.25490 0.56483 0.89083
 C171 C 0.30654 0.56850 0.93656
 C172 C 0.32471 0.53904 0.91846
 C173 C 0.35941 0.52707 0.93145
 C174 C 0.37611 0.54421 0.96243
 C175 C 0.35718 0.57329 0.98079
 C176 C 0.32242 0.58574 0.96774
 C177 C 0.27370 0.53500 0.87387
 C178 C 0.30805 0.52236 0.88741
 C179 C 0.26918 0.62836 0.97096
 C180 C 0.30342 0.61542 0.98481
 H181 H 0.26193 0.52153 0.84969
 H182 H 0.32181 0.49951 0.87329
 H183 H 0.25566 0.65154 0.98477
 H184 H 0.31528 0.62900 1.00888
 H185 H 0.20545 0.64886 0.93853
 H186 H 0.20950 0.56490 0.85230
 H187 H 0.37350 0.50447 0.91724
 H188 H 0.36981 0.58670 1.00457
 C189 C -0.22611 0.91340 0.08044
 C190 C -0.24071 0.92913 0.11289
 C191 C -0.27401 0.91523 0.12739
 C192 C -0.29291 0.88545 0.10995
 C193 C -0.27779 0.87017 0.07709
 C194 C -0.24443 0.88408 0.06228
 C195 C -0.19070 0.92767 0.06547
 C196 C -0.17578 0.91186 0.03312
 C197 C -0.14163 0.92516 0.01947
 C198 C -0.12239 0.95371 0.03832
 C199 C -0.13819 0.96941 0.07047
 C200 C -0.17221 0.95655 0.08412
 C201 C -0.22882 0.86910 0.02982
 C202 C -0.19513 0.88277 0.01548
 C203 C -0.22156 0.95832 0.13049
 C204 C -0.18785 0.97178 0.11637
 H205 H -0.24267 0.84649 0.01545
 H206 H -0.18402 0.87028 -0.00949
 H207 H -0.23258 0.97072 0.15555
 H208 H -0.17382 0.99414 0.13095
 H209 H -0.28487 0.92758 0.15256
 H210 H -0.29173 0.84738 0.06306
 H211 H -0.12971 0.91281 -0.00521
 H212 H -0.12387 0.99156 0.08513
 C213 C 0.72627 0.08870 0.58118
 C214 C 0.75206 0.06289 0.59540
 C215 C 0.78526 0.07598 0.61124
 C216 C 0.79306 0.11447 0.61193
 C217 C 0.76712 0.13988 0.59704
 C218 C 0.73344 0.12719 0.58210
 C219 C 0.69095 0.07520 0.56528
 C220 C 0.66457 0.10110 0.55238
 C221 C 0.63052 0.08817 0.53841
 C222 C 0.62324 0.04963 0.53647
 C223 C 0.65035 0.02400 0.54869
 C224 C 0.68407 0.03667 0.56367
 C225 C 0.70666 0.15222 0.56834
 C226 C 0.67269 0.13941 0.55397
 C227 C 0.74409 0.02455 0.59345
 C228 C 0.71078 0.01165 0.57763
 H229 H 0.71186 0.18200 0.56898
 H230 H 0.65264 0.15967 0.54400
 H231 H 0.76379 0.00434 0.60418
 H232 H 0.70574 -0.01814 0.57665
 H233 H 0.80526 0.05631 0.62244
 H234 H 0.77284 0.16958 0.59780
 H235 H 0.60977 0.10797 0.52892
 H236 H 0.64468 -0.00570 0.54763
 C237 C 0.41930 0.22821 0.41182
 C238 C 0.42798 0.24009 0.37589
 C239 C 0.41326 0.27389 0.36290
 C240 C 0.38861 0.29518 0.38496
 C241 C 0.37996 0.28241 0.42093
 C242 C 0.39575 0.24934 0.43467
 C243 C 0.43484 0.19272 0.42563
 C244 C 0.42701 0.18134 0.46196
 C245 C 0.44184 0.14755 0.47493
 C246 C 0.46301 0.12467 0.45132
 C247 C 0.47032 0.13620 0.41488
 C248 C 0.45683 0.17063 0.40207
 C249 C 0.38836 0.23689 0.47079
 C250 C 0.40401 0.20364 0.48432
 C251 C 0.45079 0.21766 0.35343
 C252 C 0.46467 0.18334 0.36617
 H253 H 0.37038 0.25302 0.48879
 H254 H 0.39765 0.19509 0.51236
 H255 H 0.45759 0.22648 0.32558
 H256 H 0.48174 0.16666 0.34779
 H257 H 0.42015 0.28285 0.33510
 H258 H 0.36144 0.29838 0.43855
 H259 H 0.43588 0.13838 0.50289
 H260 H 0.48674 0.11855 0.39678
 C261 C 0.92131 0.27359 0.58678
 C262 C 0.88882 0.25874 0.57108
 C263 C 0.87409 0.22555 0.58520
 C264 C 0.89134 0.20698 0.61517
 C265 C 0.92426 0.22232 0.63042
 C266 C 0.93929 0.25560 0.61630
 C267 C 0.93647 0.30894 0.57230
 C268 C 0.96882 0.32415 0.58810
 C269 C 0.98258 0.35831 0.57465
 C270 C 0.96381 0.37725 0.54595
 C271 C 0.93171 0.36112 0.53022
 C272 C 0.91795 0.32711 0.54324
 C273 C 0.97179 0.27148 0.63124
 C274 C 0.98631 0.30511 0.61738
 C275 C 0.87138 0.27756 0.54169
 C276 C 0.88568 0.31119 0.52803
 H277 H 0.98603 0.25788 0.65400
 H278 H 1.01127 0.31645 0.62987
 H279 H 0.84630 0.26633 0.52932
 H280 H 0.87122 0.32498 0.50553
 H281 H 0.84890 0.21451 0.57286
 H282 H 0.93814 0.20863 0.65335
 H283 H 1.00722 0.37050 0.58702
 H284 H 0.91712 0.37521 0.50796
 C285 C 0.07686 0.76937 -0.08131
 C286 C 0.05953 0.75181 -0.11143
 C287 C 0.07425 0.71814 -0.12497
 C288 C 0.10625 0.70194 -0.10862
 C289 C 0.12264 0.71985 -0.07780
 C290 C 0.10826 0.75355 -0.06428
 C291 C 0.06228 0.80538 -0.06772
 C292 C 0.08030 0.82327 -0.03820
 C293 C 0.06721 0.85798 -0.02613
 C294 C 0.03623 0.87499 -0.04323
 C295 C 0.01791 0.85631 -0.07234
 C296 C 0.03107 0.82153 -0.08490
 C297 C 0.12510 0.77205 -0.03437
 C298 C 0.11139 0.80636 -0.02159
 C299 C 0.02812 0.76860 -0.12771
 C300 C 0.01410 0.80281 -0.11464
 H301 H 0.14933 0.76010 -0.02097
 H302 H 0.12544 0.81991 0.00130
 H303 H 0.01440 0.75531 -0.15094
 H304 H -0.00999 0.81487 -0.12818
 H305 H 0.06097 0.70494 -0.14853
 H306 H 0.14710 0.70808 -0.06460
 H307 H 0.08137 0.87187 -0.00349
 H308 H -0.00587 0.86918 -0.08573
 C309 C 0.57655 0.72961 1.08106
 C310 C 0.55980 0.74694 1.11161
 C311 C 0.57509 0.78019 1.12553
 C312 C 0.60717 0.79606 1.10922
 C313 C 0.62281 0.77854 1.07782
 C314 C 0.60783 0.74531 1.06389
 C315 C 0.56163 0.69385 1.06730
 C316 C 0.57916 0.67611 1.03742
 C317 C 0.56592 0.64150 1.02533
 C318 C 0.53531 0.62441 1.04280
 C319 C 0.51738 0.64298 1.07221
 C320 C 0.53068 0.67768 1.08477
 C321 C 0.62410 0.72704 1.03355
 C322 C 0.61004 0.69298 1.02057
 C323 C 0.52854 0.73024 1.12808
 C324 C 0.51421 0.69625 1.11487
 H325 H 0.64822 0.73891 1.02002
 H326 H 0.62370 0.67956 0.99739
 H327 H 0.51526 0.74336 1.15164
 H328 H 0.49031 0.68419 1.12861
 H329 H 0.56234 0.79313 1.14949
 H330 H 0.64726 0.79010 1.06459
 H331 H 0.57976 0.62771 1.00245
 H332 H 0.49387 0.63005 1.08586
 C333 C 0.41230 0.41967 1.22305
 C334 C 0.38387 0.43886 1.24169
 C335 C 0.36989 0.42416 1.27494
 C336 C 0.38427 0.39052 1.28949
 C337 C 0.41293 0.37186 1.27031
 C338 C 0.42696 0.38622 1.23714
 C339 C 0.42686 0.43467 1.18792
 C340 C 0.45495 0.41509 1.16921
 C341 C 0.46822 0.42892 1.13555
 C342 C 0.45370 0.46213 1.12033
 C343 C 0.42585 0.48181 1.13974
 C344 C 0.41220 0.46804 1.17356
 C345 C 0.45528 0.36764 1.21772
 C346 C 0.46902 0.38182 1.18430
 C347 C 0.36999 0.47228 1.22660
 C348 C 0.38391 0.48662 1.19315
 H349 H 0.46682 0.34182 1.22836
 H350 H 0.49075 0.36652 1.17007
 H351 H 0.34808 0.48743 1.24070
 H352 H 0.37230 0.51237 1.18245
 H353 H 0.34791 0.43887 1.28939
 H354 H 0.42431 0.34599 1.28102
 H355 H 0.48976 0.41356 1.12109
 H356 H 0.41441 0.50732 1.12828
 C357 C 0.58845 -0.08033 0.27377
 C358 C 0.62685 -0.08135 0.26680
 C359 C 0.63961 -0.09622 0.23325
 C360 C 0.61434 -0.11093 0.20725
 C361 C 0.57594 -0.11012 0.21484
 C362 C 0.56279 -0.09436 0.24791
 C363 C 0.57488 -0.06455 0.30896
 C364 C 0.53644 -0.06285 0.31566
 C365 C 0.52371 -0.04799 0.34926
 C366 C 0.54917 -0.03601 0.37643
 C367 C 0.58761 -0.03803 0.36933
 C368 C 0.60062 -0.05187 0.33540
 C369 C 0.52455 -0.09231 0.25569
 C370 C 0.51159 -0.07660 0.28889
 C371 C 0.65173 -0.06780 0.29364
 C372 C 0.63885 -0.05355 0.32748
 H373 H 0.50446 -0.10288 0.23593
 H374 H 0.48187 -0.07554 0.29379
 H375 H 0.68143 -0.06853 0.28859
 H376 H 0.65897 -0.04374 0.34758
 H377 H 0.66924 -0.09708 0.22769
 H378 H 0.55638 -0.12118 0.19479
 H379 H 0.49408 -0.04687 0.35478
 H380 H 0.60729 -0.02871 0.39012
 C381 C -0.08116 1.07688 -0.22681
 C382 C -0.11097 1.05931 -0.24485
 C383 C -0.12444 1.07437 -0.27817
 C384 C -0.10835 1.10687 -0.29335
 C385 C -0.07789 1.12352 -0.27515
 C386 C -0.06436 1.10881 -0.24183
 C387 C -0.06780 1.06210 -0.19107
 C388 C -0.03866 1.08038 -0.17269
 C389 C -0.02686 1.06711 -0.13823
 C390 C -0.04386 1.03573 -0.12191
 C391 C -0.07260 1.01717 -0.14106
 C392 C -0.08487 1.03047 -0.17563
 C393 C -0.03481 1.12589 -0.22287
 C394 C -0.02220 1.11193 -0.18885
 C395 C -0.12709 1.02745 -0.22882
 C396 C -0.11423 1.01325 -0.19485
 H397 H -0.02159 1.15051 -0.23421
 H398 H 0.00040 1.12618 -0.17491
 H399 H -0.15007 1.01355 -0.24248
 H400 H -0.12766 0.98883 -0.18335
 H401 H -0.14783 1.06117 -0.29185
 H402 H -0.06518 1.14847 -0.28637
 H403 H -0.00450 1.08148 -0.12399
 H404 H -0.08589 0.99306 -0.12876
 C405 C 1.08208 0.57678 0.72897
 C406 C 1.11151 0.55861 0.74711
 C407 C 1.12471 0.57308 0.78079
 C408 C 1.10867 0.60553 0.79626
 C409 C 1.07873 0.62293 0.77783
 C410 C 1.06548 0.60880 0.74416
 C411 C 1.06879 0.56240 0.69304
 C412 C 1.03993 0.58116 0.67464
 C413 C 1.02807 0.56815 0.64010
 C414 C 1.04474 0.53654 0.62373
 C415 C 1.07325 0.51756 0.64287
 C416 C 1.08556 0.53058 0.67752
 C417 C 1.03627 0.62645 0.72510
 C418 C 1.02374 0.61288 0.69090
 C419 C 1.12741 0.52664 0.73094
 C420 C 1.11463 0.51284 0.69678
 H421 H 1.02322 0.65116 0.73656
 H422 H 1.00136 0.62752 0.67694
 H423 H 1.15010 0.51230 0.74468
 H424 H 1.12784 0.48828 0.68521
 H425 H 1.14770 0.55931 0.79465
 H426 H 1.06609 0.64787 0.78928
 H427 H 1.00590 0.58288 0.62587
 H428 H 1.08630 0.49327 0.63052
 C429 C 0.77569 0.59024 0.58122
 C430 C 0.76844 0.62876 0.58085
 C431 C 0.73487 0.64201 0.59558
 C432 C 0.70926 0.61712 0.61158
 C433 C 0.71710 0.57863 0.61208
 C434 C 0.75011 0.56496 0.59646
 C435 C 0.81092 0.57614 0.56571
 C436 C 0.81787 0.53756 0.56546
 C437 C 0.85154 0.52432 0.55094
 C438 C 0.87855 0.54948 0.53789
 C439 C 0.87122 0.58807 0.53843
 C440 C 0.83719 0.60155 0.55191
 C441 C 0.75810 0.52657 0.59580
 C442 C 0.79131 0.51308 0.58033
 C443 C 0.79507 0.65326 0.56613
 C444 C 0.82900 0.63990 0.55215
 H445 H 0.73852 0.50679 0.60733
 H446 H 0.79642 0.48327 0.58038
 H447 H 0.78982 0.68305 0.56577
 H448 H 0.84897 0.65976 0.54144
 H449 H 0.72905 0.67172 0.59542
 H450 H 0.69728 0.55938 0.62413
 H451 H 0.85729 0.49460 0.55093
 H452 H 0.89193 0.60748 0.52826
 C453 C 0.72474 0.41208 1.08112
 C454 C 0.73771 0.37673 1.07046
 C455 C 0.77106 0.36315 1.08559
 C456 C 0.79063 0.38392 1.11261
 C457 C 0.77683 0.41936 1.12304
 C458 C 0.74432 0.43378 1.10693
 C459 C 0.68963 0.42644 1.06538
 C460 C 0.67716 0.46223 1.07534
 C461 C 0.64368 0.47567 1.06044
 C462 C 0.62213 0.45295 1.03705
 C463 C 0.63472 0.41703 1.02756
 C464 C 0.66891 0.40386 1.04115
 C465 C 0.73087 0.46939 1.11633
 C466 C 0.69804 0.48352 1.10053
 C467 C 0.71671 0.35535 1.04539
 C468 C 0.68270 0.36852 1.03128
 H469 H 0.74585 0.48651 1.13607
 H470 H 0.68865 0.51112 1.10852
 H471 H 0.72635 0.32795 1.03703
 H472 H 0.66711 0.35091 1.01247
 H473 H 0.78087 0.33578 1.07727
 H474 H 0.79151 0.43606 1.14336
 H475 H 0.63367 0.50319 1.06803
 H476 H 0.61806 0.39963 1.00944
 C477 C 0.22545 1.08640 -0.08042
 C478 C 0.23283 1.12486 -0.08039
 C479 C 0.26641 1.13772 -0.09526
 C480 C 0.29200 1.11254 -0.11104
 C481 C 0.28408 1.07408 -0.11116
 C482 C 0.25098 1.06079 -0.09541
 C483 C 0.19010 1.07276 -0.06488
 C484 C 0.18295 1.03425 -0.06433
 C485 C 0.14916 1.02146 -0.04976
 C486 C 0.12227 1.04697 -0.03692
 C487 C 0.12981 1.08548 -0.03778
 C488 C 0.16393 1.09852 -0.05133
 C489 C 0.24277 1.02248 -0.09444
 C490 C 0.20944 1.00941 -0.07894
 C491 C 0.20629 1.14973 -0.06595
 C492 C 0.17230 1.13679 -0.05189
 H493 H 0.26227 1.00242 -0.10577
 H494 H 0.20418 0.97964 -0.07876
 H495 H 0.21168 1.17948 -0.06587
 H496 H 0.15241 1.15692 -0.04140
 H497 H 0.27219 1.16741 -0.09546
 H498 H 0.30381 1.05460 -0.12312
 H499 H 0.14328 0.99178 -0.04950
 H500 H 0.10921 1.10518 -0.02777
 C501 C 0.27433 -0.08420 0.41969
 C502 C 0.25923 -0.06840 0.38750
 C503 C 0.22614 -0.08278 0.37296
 C504 C 0.20800 -0.11321 0.39004
 C505 C 0.22339 -0.12833 0.42284
 C506 C 0.25658 -0.11394 0.43769
 C507 C 0.30977 -0.06971 0.43442
 C508 C 0.32530 -0.08571 0.46640
 C509 C 0.35958 -0.07234 0.47971
 C510 C 0.37834 -0.04353 0.46085
 C511 C 0.36195 -0.02760 0.42912
 C512 C 0.32778 -0.04053 0.41581
 C513 C 0.27273 -0.12901 0.46987
 C514 C 0.30646 -0.11512 0.48400
 C515 C 0.27780 -0.03882 0.37001
 C516 C 0.31154 -0.02514 0.38392
 H517 H 0.25932 -0.15193 0.48412
 H518 H 0.31805 -0.12773 0.50870
 H519 H 0.26636 -0.02637 0.34516
 H520 H 0.32518 -0.00253 0.36940
 H521 H 0.21500 -0.07046 0.34789
 H522 H 0.20999 -0.15157 0.43660
 H523 H 0.37197 -0.08484 0.50410
 H524 H 0.37592 -0.00524 0.41450
 C525 C 0.57921 -0.22559 0.58394
 C526 C 0.56167 -0.24291 0.61404
 C527 C 0.57675 -0.27610 0.62845
 C528 C 0.60932 -0.29191 0.61299
 C529 C 0.62592 -0.27419 0.58223
 C530 C 0.61117 -0.24111 0.56783
 C531 C 0.56428 -0.19015 0.56939
 C532 C 0.58249 -0.17255 0.53987
 C533 C 0.56907 -0.13833 0.52691
 C534 C 0.53762 -0.12149 0.54314
 C535 C 0.51909 -0.13987 0.57226
 C536 C 0.53254 -0.17420 0.58568
 C537 C 0.62822 -0.22295 0.53790
 C538 C 0.61414 -0.18920 0.52418
 C539 C 0.52971 -0.22636 0.62939
 C540 C 0.51537 -0.19262 0.61543
 H541 H 0.65289 -0.23473 0.52522
 H542 H 0.62834 -0.17588 0.50131
 H543 H 0.51581 -0.23943 0.65258
 H544 H 0.49087 -0.18070 0.62828
 H545 H 0.56335 -0.28918 0.65195
 H546 H 0.65080 -0.28566 0.56964
 H547 H 0.58340 -0.12464 0.50430
 H548 H 0.49493 -0.12711 0.58499
 C549 C 1.08104 0.72668 0.41418
 C550 C 1.10568 0.74719 0.43643
 C551 C 1.12141 0.78011 0.42248
 C552 C 1.11173 0.79329 0.38689
 C553 C 1.08583 0.77276 0.36556
 C554 C 1.07112 0.73911 0.37872
 C555 C 1.06576 0.69118 0.42804
 C556 C 1.04274 0.66963 0.40495
 C557 C 1.02955 0.63514 0.41773
 C558 C 1.03821 0.62303 0.45370
 C559 C 1.06041 0.64535 0.47688
 C560 C 1.07493 0.67918 0.46390
 C561 C 1.04725 0.71727 0.35679
 C562 C 1.03359 0.68293 0.36954
 C563 C 1.11433 0.73418 0.47211
 C564 C 1.09893 0.70093 0.48574
 H565 H 1.03950 0.72653 0.32930
 H566 H 1.01570 0.66670 0.35155
 H567 H 1.13315 0.74984 0.48966
 H568 H 1.10630 0.69191 0.51341
 H569 H 1.14090 0.79553 0.43954
 H570 H 1.07807 0.78206 0.33807
 H571 H 1.01230 0.61791 0.39999
 H572 H 1.06735 0.63572 0.50449
 C573 C -0.08245 1.22385 0.09021
 C574 C -0.10793 1.24394 0.06850
 C575 C -0.12402 1.27656 0.08283
 C576 C -0.11384 1.29003 0.11819
 C577 C -0.08727 1.26987 0.13909
 C578 C -0.07217 1.23639 0.12556
 C579 C -0.06657 1.18875 0.07580
 C580 C -0.04264 1.16755 0.09829
 C581 C -0.02887 1.13340 0.08499
 C582 C -0.03788 1.12133 0.04905
 C583 C -0.06098 1.14336 0.02646
 C584 C -0.07606 1.17679 0.03999
 C585 C -0.04742 1.21488 0.14691
 C586 C -0.03321 1.18086 0.13366
 C587 C -0.11692 1.23096 0.03289
 C588 C -0.10098 1.19814 0.01874
 H589 H -0.03936 1.22416 0.17430
 H590 H -0.01463 1.16489 0.15122
 H591 H -0.13640 1.24633 0.01578
 H592 H -0.10863 1.18913 -0.00886
 H593 H -0.14400 1.29168 0.06604
 H594 H -0.07917 1.27942 0.16640
 H595 H -0.01098 1.11636 0.10231
 H596 H -0.06822 1.13375 -0.00108
 C597 C 0.42009 0.27456 0.90965
 C598 C 0.42009 0.26745 0.87144
 C599 C 0.40518 0.23382 0.85832
 C600 C 0.38936 0.20802 0.88306
 C601 C 0.38926 0.21569 0.92125
 C602 C 0.40506 0.24876 0.93477
 C603 C 0.43570 0.30989 0.92360
 C604 C 0.43627 0.31672 0.96187
 C605 C 0.45082 0.35051 0.97496
 C606 C 0.46356 0.37777 0.94999
 C607 C 0.46272 0.37055 0.91172
 C608 C 0.44923 0.33640 0.89837
 C609 C 0.40607 0.25662 0.97284
 C610 C 0.42165 0.28992 0.98619
 C611 C 0.43457 0.29431 0.84710
 C612 C 0.44865 0.32833 0.86033
 H613 H 0.39472 0.23687 0.99249
 H614 H 0.42185 0.29493 1.01576
 H615 H 0.43465 0.28917 0.81756
 H616 H 0.45914 0.34849 0.84061
 H617 H 0.40503 0.22812 0.82885
 H618 H 0.37734 0.19572 0.94037
 H619 H 0.45104 0.35617 1.00444
 H620 H 0.47265 0.39146 0.89244
 C621 C 0.58748 0.58142 0.77451
 C622 C 0.56200 0.59617 0.74884
 C623 C 0.57533 0.61177 0.71581
 C624 C 0.61371 0.61173 0.70811
 C625 C 0.63876 0.59619 0.73386
 C626 C 0.62585 0.58149 0.76736
 C627 C 0.57377 0.56605 0.80977
 C628 C 0.59939 0.55276 0.83607
 C629 C 0.58629 0.53934 0.87007
 C630 C 0.54787 0.53833 0.87738
 C631 C 0.52250 0.55093 0.85038
 C632 C 0.53535 0.56538 0.81670
 C633 C 0.65058 0.56730 0.79403
 C634 C 0.63758 0.55341 0.82793
 C635 C 0.52376 0.59511 0.75683
 C636 C 0.51065 0.57974 0.79008
 H637 H 0.68026 0.56730 0.78882
 H638 H 0.65760 0.54311 0.84792
 H639 H 0.50381 0.60624 0.73721
 H640 H 0.48095 0.57947 0.79516
 H641 H 0.55595 0.62354 0.69596
 H642 H 0.66838 0.59646 0.72825
 H643 H 0.60587 0.52951 0.89074
 H644 H 0.49289 0.55056 0.85609
 C645 C 0.41554 0.07834 0.72443
 C646 C 0.38543 0.06057 0.74171
 C647 C 0.37138 0.07528 0.77496
 C648 C 0.38730 0.10758 0.79076
 C649 C 0.41792 0.12451 0.77317
 C650 C 0.43200 0.11017 0.74004
 C651 C 0.42975 0.06379 0.68898
 C652 C 0.45929 0.08221 0.67147
 C653 C 0.47199 0.06912 0.63731
 C654 C 0.45547 0.03778 0.62043
 C655 C 0.42630 0.01907 0.63867
 C656 C 0.41313 0.03219 0.67295
 C657 C 0.46191 0.12745 0.72194
 C658 C 0.47531 0.11373 0.68819
 C659 C 0.36972 0.02878 0.72506
 C660 C 0.38337 0.01481 0.69131
 H661 H 0.47483 0.15202 0.73379
 H662 H 0.49820 0.12808 0.67492
 H663 H 0.34652 0.01472 0.73809
 H664 H 0.37027 -0.00960 0.67932
 H665 H 0.34787 0.06192 0.78818
 H666 H 0.43057 0.14930 0.78489
 H667 H 0.49465 0.08359 0.62374
 H668 H 0.41336 -0.00501 0.62588
 C669 C 0.09077 0.91743 0.22411
 C670 C 0.12922 0.91765 0.23112
 C671 C 0.14254 0.90286 0.26451
 C672 C 0.11779 0.88696 0.29019
 C673 C 0.07939 0.88656 0.28256
 C674 C 0.06565 0.90224 0.24973
 C675 C 0.07658 0.93311 0.18913
 C676 C 0.03808 0.93357 0.18244
 C677 C 0.02475 0.94831 0.14904
 C678 C 0.04972 0.96136 0.12203
 C679 C 0.08823 0.96059 0.12907
 C680 C 0.10181 0.94691 0.16284
 C681 C 0.02734 0.90308 0.24200
 C682 C 0.01377 0.91872 0.20902
 C683 C 0.15354 0.93234 0.20446
 C684 C 0.14009 0.94647 0.17077
 H685 H 0.00768 0.89159 0.26161
 H686 H -0.01598 0.91882 0.20412
 H687 H 0.18326 0.93258 0.20952
 H688 H 0.15982 0.95716 0.15078
 H689 H 0.17217 0.90297 0.27020
 H690 H 0.06023 0.87461 0.30244
 H691 H -0.00491 0.94849 0.14351
 H692 H 0.10750 0.97076 0.10836
 C693 C 0.90962 0.41885 0.27728
 C694 C 0.87119 0.41962 0.27022
 C695 C 0.85767 0.40456 0.23701
 C696 C 0.88218 0.38777 0.21157
 C697 C 0.92059 0.38695 0.21919
 C698 C 0.93454 0.40293 0.25183
 C699 C 0.92399 0.43457 0.31222
 C700 C 0.96247 0.43440 0.31899
 C701 C 0.97596 0.44912 0.35239
 C702 C 0.95112 0.46272 0.37933
 C703 C 0.91262 0.46256 0.37217
 C704 C 0.89891 0.44895 0.33840
 C705 C 0.97285 0.40320 0.25964
 C706 C 0.98660 0.41891 0.29253
 C707 C 0.84704 0.43496 0.29675
 C708 C 0.86064 0.44912 0.33038
 H709 H 0.99238 0.39116 0.24017
 H710 H 1.01634 0.41852 0.29748
 H711 H 0.81734 0.43563 0.29167
 H712 H 0.84103 0.46027 0.35028
 H713 H 0.82803 0.40495 0.23138
 H714 H 0.93957 0.37427 0.19955
 H715 H 1.00560 0.44882 0.35799
 H716 H 0.89344 0.47316 0.39280
   
