data_POSCAR
  _audit_creation_date              2014-09-24
  _audit_creation_method            'ToBaCCo'
  _symmetry_space_group_name_H-M    'P1'
  _symmetry_Int_Tables_number       1
  _symmetry_cell_setting            triclinic
  loop_
  _symmetry_equiv_pos_as_xyz
 x,y,z
_cell_length_a 40.8160
_cell_length_b 40.7822
_cell_length_c 54.8419
_cell_angle_alpha 90.352400
_cell_angle_beta 89.259500
_cell_angle_gamma 90.247600
loop_
  _atom_site_label
  _atom_site_type_symbol
  _atom_site_fract_x
  _atom_site_fract_y
  _atom_site_fract_z
C1 C -0.00086 0.50060 0.98855
 C2 C 0.00051 0.50109 1.01338
 C3 C -0.00079 0.53230 1.02748
 C4 C 0.00338 0.47043 1.02768
 C5 C -0.00377 0.46937 0.97462
 C6 C 0.00056 0.53126 0.97406
 C7 C 0.02368 0.53950 1.04448
 C8 C 0.02287 0.56883 1.05777
 C9 C -0.00259 0.59123 1.05434
 C10 C -0.02739 0.58396 1.03766
 C11 C -0.02657 0.55458 1.02439
 C12 C 0.02874 0.44801 1.02282
 C13 C 0.03097 0.41911 1.03628
 C14 C 0.00810 0.41252 1.05488
 C15 C -0.01687 0.43502 1.06008
 C16 C -0.01915 0.46388 1.04662
 C17 C -0.02918 0.44696 0.97975
 C18 C -0.03144 0.41753 0.96666
 C19 C -0.00854 0.41035 0.94818
 C20 C 0.01648 0.43283 0.94271
 C21 C 0.01878 0.46224 0.95579
 C22 C -0.02385 0.53766 0.95694
 C23 C -0.02287 0.56646 0.94328
 C24 C 0.00267 0.58905 0.94644
 C25 C 0.02737 0.58262 0.96321
 C26 C 0.02643 0.55380 0.97688
 H27 H 0.04364 0.52254 1.04722
 H28 H 0.04220 0.57399 1.07064
 H29 H -0.04737 0.60092 1.03487
 H30 H -0.04603 0.54919 1.01172
 H31 H 0.04675 0.45290 1.00862
 H32 H 0.05049 0.40194 1.03219
 H33 H -0.03874 0.48095 1.05075
 H34 H -0.04720 0.45229 0.99387
 H35 H -0.05100 0.40038 0.97095
 H36 H 0.03427 0.42755 0.92840
 H37 H 0.03841 0.47927 0.95147
 H38 H -0.04387 0.52051 0.95438
 H39 H -0.04205 0.57115 0.93029
 H40 H 0.04734 0.59986 0.96571
 H41 H 0.04585 0.54902 0.98963
 H42 H -0.03464 0.43019 1.07447
 C43 C 0.50006 -0.00121 0.48739
 C44 C 0.49990 -0.00132 0.51225
 C45 C 0.46886 -0.00328 0.52665
 C46 C 0.53074 0.00067 0.52630
 C47 C 0.53106 -0.00330 0.47295
 C48 C 0.46926 0.00115 0.47336
 C49 C 0.46218 0.02028 0.54480
 C50 C 0.43293 0.01892 0.55829
 C51 C 0.41017 -0.00613 0.55391
 C52 C 0.41690 -0.03004 0.53612
 C53 C 0.44618 -0.02873 0.52263
 C54 C 0.55331 0.02631 0.52238
 C55 C 0.58234 0.02775 0.53561
 C56 C 0.58894 0.00379 0.55303
 C57 C 0.56631 -0.02149 0.55730
 C58 C 0.53730 -0.02298 0.54407
 C59 C 0.55331 -0.02899 0.47659
 C60 C 0.58248 -0.03051 0.46299
 C61 C 0.58954 -0.00658 0.44546
 C62 C 0.56723 0.01875 0.44149
 C63 C 0.53810 0.02032 0.45509
 C64 C 0.46240 -0.02222 0.45519
 C65 C 0.43351 -0.02030 0.44189
 C66 C 0.41130 0.00513 0.44647
 C67 C 0.41819 0.02879 0.46431
 C68 C 0.44710 0.02692 0.47762
 H69 H 0.47943 0.03996 0.54828
 H70 H 0.42800 0.03749 0.57205
 H71 H 0.39953 -0.04963 0.53268
 H72 H 0.45115 -0.04751 0.50905
 H73 H 0.54841 0.04515 0.50910
 H74 H 0.59961 0.04751 0.53226
 H75 H 0.52013 -0.04280 0.54747
 H76 H 0.54805 -0.04781 0.48995
 H77 H 0.59949 -0.05032 0.46612
 H78 H 0.57241 0.03734 0.42793
 H79 H 0.52119 0.04019 0.45191
 H80 H 0.47926 -0.04214 0.45152
 H81 H 0.42847 -0.03867 0.42807
 H82 H 0.40125 0.04868 0.46791
 H83 H 0.45225 0.04556 0.49121
 H84 H 0.57114 -0.04010 0.57078
 C85 C 0.07145 0.00526 0.25840
 H86 H 0.07299 0.00601 0.23870
 C87 C 0.09998 0.00674 0.27215
 H88 H 0.12363 0.00852 0.26304
 C89 C 0.03875 0.00241 0.29441
 H90 H 0.01485 0.00121 0.30303
 C91 C 0.06669 0.00385 0.30884
 H92 H 0.06423 0.00342 0.32853
 N93 N 0.04164 0.00273 0.26965
 C94 C -0.02184 -0.04251 0.21543
 H95 H -0.04146 -0.02477 0.21503
 C96 C -0.02350 -0.07080 0.20101
 H97 H -0.04438 -0.07488 0.18937
 C98 C 0.02915 -0.05922 0.23138
 H99 H 0.04935 -0.05493 0.24353
 C100 C 0.02845 -0.08783 0.21727
 H101 H 0.04827 -0.10531 0.21841
 Zn102 Zn 0.00430 0.00141 0.24952
 N103 N 0.00438 -0.03708 0.23003
 C104 C 0.00615 0.03703 0.20497
 N105 N 0.00585 0.03931 0.22976
 C106 C 0.00785 0.06888 0.24128
 C107 C 0.00942 0.09780 0.22780
 C108 C 0.00770 0.06537 0.19080
 C109 C -0.04028 -0.02588 0.28299
 C110 C -0.06894 -0.02810 0.29709
 C111 C -0.08593 0.02410 0.28103
 C112 C -0.05695 0.02537 0.26724
 N113 N -0.03467 0.00073 0.26865
 H114 H 0.00536 0.01333 0.19613
 H115 H 0.00810 0.06994 0.26100
 H116 H 0.01077 0.12125 0.23713
 H117 H 0.00777 0.06340 0.17109
 H118 H -0.02241 -0.04538 0.28343
 H119 H -0.07317 -0.04931 0.30853
 H120 H -0.10354 0.04382 0.27984
 H121 H -0.05251 0.04589 0.25529
 C122 C 0.00192 -0.09362 0.20192
 C123 C 0.09756 0.00593 0.29759
 C124 C -0.09193 -0.00284 0.29612
 C125 C 0.00924 0.09600 0.20234
 C126 C -0.00839 0.06630 0.75957
 H127 H -0.00866 0.06758 0.73988
 C128 C -0.01012 0.09504 0.77350
 H129 H -0.01161 0.11858 0.76454
 C130 C -0.00647 0.03408 0.79539
 H131 H -0.00553 0.01028 0.80386
 C132 C -0.00818 0.06223 0.80999
 H133 H -0.00820 0.06004 0.82967
 N134 N -0.00619 0.03663 0.77064
 C135 C 0.04043 -0.02731 0.71648
 H136 H 0.02273 -0.04711 0.71578
 C137 C 0.06907 -0.02891 0.70230
 H138 H 0.07344 -0.04994 0.69055
 C139 C 0.05669 0.02409 0.73291
 H140 H 0.05208 0.04444 0.74514
 C141 C 0.08563 0.02345 0.71905
 H142 H 0.10305 0.04347 0.72047
 Zn143 Zn -0.00437 -0.00102 0.75030
 N144 N 0.03462 -0.00092 0.73119
 C145 C -0.03866 0.00001 0.70539
 N146 N -0.04166 -0.00002 0.73014
 C147 C -0.07154 0.00195 0.74135
 C148 C -0.10002 0.00324 0.72756
 C149 C -0.06654 0.00127 0.69091
 C150 C 0.02199 -0.04490 0.78374
 C151 C 0.02378 -0.07329 0.79778
 C152 C -0.02805 -0.09090 0.78125
 C153 C -0.02889 -0.06218 0.76753
 N154 N -0.00424 -0.03971 0.76921
 H155 H -0.01473 -0.00074 0.69680
 H156 H -0.07317 0.00244 0.76106
 H157 H -0.12371 0.00459 0.73663
 H158 H -0.06400 0.00114 0.67122
 H159 H 0.04151 -0.02690 0.78441
 H160 H 0.04467 -0.07717 0.80938
 H161 H -0.04778 -0.10864 0.77986
 H162 H -0.04911 -0.05807 0.75544
 C163 C 0.09182 -0.00325 0.70358
 C164 C -0.00990 0.09296 0.79893
 C165 C -0.00151 -0.09645 0.79654
 C166 C -0.09748 0.00280 0.70211
 C167 C -0.00311 -0.38122 0.06666
 C168 C -0.00327 -0.35587 0.07808
 C169 C -0.00304 -0.32569 0.09182
 C170 C 0.02504 -0.31632 0.10451
 C171 C 0.02540 -0.28706 0.11791
 C172 C -0.00238 -0.26676 0.11881
 C173 C -0.03052 -0.27641 0.10599
 C174 C -0.03081 -0.30569 0.09257
 C175 C -0.00201 -0.23573 0.13313
 C176 C -0.02952 -0.22624 0.14717
 C177 C -0.02894 -0.19725 0.16091
 C178 C -0.00092 -0.17735 0.16077
 C179 C 0.02650 -0.18648 0.14678
 C180 C 0.02599 -0.21546 0.13304
 C181 C -0.00013 -0.14775 0.17518
 C182 C 0.00071 -0.12303 0.18733
 H183 H 0.04664 -0.33168 0.10411
 H184 H 0.04726 -0.28056 0.12785
 H185 H -0.05214 -0.26112 0.10608
 H186 H -0.05265 -0.31268 0.08276
 H187 H -0.05127 -0.24152 0.14786
 H188 H -0.05026 -0.19047 0.17174
 H189 H 0.04829 -0.17121 0.14650
 H190 H 0.04738 -0.22186 0.12217
 C191 C 0.01007 0.38263 0.06858
 C192 C 0.01136 0.35763 0.08013
 C193 C 0.01251 0.32782 0.09400
 C194 C 0.00343 0.32806 0.11869
 C195 C 0.00395 0.29905 0.13211
 C196 C 0.01354 0.26935 0.12099
 C197 C 0.02276 0.26941 0.09617
 C198 C 0.02224 0.29847 0.08278
 C199 C 0.01358 0.23844 0.13516
 C200 C 0.00227 0.20897 0.12469
 C201 C 0.00178 0.17999 0.13819
 C202 C 0.01260 0.18006 0.16229
 C203 C 0.02406 0.20919 0.17284
 C204 C 0.02455 0.23819 0.15938
 C205 C 0.01160 0.15034 0.17630
 C206 C 0.01060 0.12552 0.18813
 H207 H -0.00427 0.35063 0.12752
 H208 H -0.00371 0.29974 0.15108
 H209 H 0.03064 0.24704 0.08717
 H210 H 0.02936 0.29802 0.06368
 H211 H -0.00674 0.20844 0.10621
 H212 H -0.00725 0.15759 0.12988
 H213 H 0.03256 0.20949 0.19147
 H214 H 0.03379 0.26037 0.16785
 C215 C 0.37987 -0.00709 0.56760
 C216 C 0.35454 -0.00744 0.57914
 C217 C 0.32437 -0.00737 0.59300
 C218 C 0.30936 0.02239 0.59914
 C219 C 0.28024 0.02264 0.61283
 C220 C 0.26570 -0.00693 0.62057
 C221 C 0.28091 -0.03675 0.61421
 C222 C 0.31007 -0.03694 0.60053
 C223 C 0.23490 -0.00662 0.63529
 C224 C 0.20996 -0.02976 0.63089
 C225 C 0.18092 -0.02928 0.64470
 C226 C 0.17645 -0.00573 0.66310
 C227 C 0.20113 0.01733 0.66766
 C228 C 0.23017 0.01692 0.65387
 C229 C 0.14654 -0.00511 0.67727
 C230 C 0.12156 -0.00437 0.68922
 H231 H 0.32018 0.04541 0.59335
 H232 H 0.26890 0.04596 0.61713
 H233 H 0.27055 -0.05989 0.62015
 H234 H 0.32154 -0.06012 0.59594
 H235 H 0.21271 -0.04792 0.61653
 H236 H 0.16193 -0.04720 0.64098
 H237 H 0.19797 0.03561 0.68191
 H238 H 0.24907 0.03476 0.65793
 C239 C -0.38106 0.00501 0.56651
 C240 C -0.35596 0.00570 0.57785
 C241 C -0.32606 0.00617 0.59147
 C242 C -0.31794 0.03354 0.60570
 C243 C -0.28910 0.03376 0.61920
 C244 C -0.26799 0.00656 0.61861
 C245 C -0.27633 -0.02078 0.60416
 C246 C -0.30518 -0.02095 0.59070
 C247 C -0.23757 0.00655 0.63318
 C248 C -0.20836 -0.00665 0.62345
 C249 C -0.17986 -0.00707 0.63731
 C250 C -0.18016 0.00567 0.66106
 C251 C -0.20902 0.01897 0.67088
 C252 C -0.23755 0.01944 0.65704
 C253 C -0.15094 0.00480 0.67545
 C254 C -0.12653 0.00395 0.68757
 H255 H -0.33390 0.05469 0.60639
 H256 H -0.28316 0.05533 0.62990
 H257 H -0.26084 -0.04226 0.60358
 H258 H -0.31130 -0.04232 0.57981
 H259 H -0.20748 -0.01637 0.60504
 H260 H -0.15762 -0.01736 0.62952
 H261 H -0.20954 0.02880 0.68928
 H262 H -0.25973 0.02937 0.66517
 C263 C 0.00341 -0.38121 0.93246
 C264 C 0.00369 -0.35636 0.92067
 C265 C 0.00366 -0.32679 0.90649
 C266 C 0.02875 -0.30359 0.90914
 C267 C 0.02859 -0.27482 0.89539
 C268 C 0.00331 -0.26891 0.87879
 C269 C -0.02178 -0.29242 0.87627
 C270 C -0.02159 -0.32114 0.89004
 C271 C 0.00303 -0.23836 0.86419
 C272 C -0.00614 -0.23917 0.83954
 C273 C -0.00673 -0.21036 0.82588
 C274 C 0.00181 -0.18038 0.83663
 C275 C 0.01107 -0.17930 0.86111
 C276 C 0.01170 -0.20809 0.87481
 C277 C 0.00083 -0.15072 0.82258
 C278 C -0.00016 -0.12594 0.81074
 H279 H 0.04845 -0.30776 0.92179
 H280 H 0.04846 -0.25740 0.89752
 H281 H -0.04182 -0.28838 0.86390
 H282 H -0.04119 -0.33889 0.88791
 H283 H -0.01252 -0.26213 0.83076
 H284 H -0.01386 -0.21149 0.80693
 H285 H 0.01763 -0.15619 0.86963
 H286 H 0.01846 -0.20659 0.89381
 C287 C -0.01052 0.37992 0.93486
 C288 C -0.01179 0.35445 0.92362
 C289 C -0.01287 0.32412 0.91010
 C290 C 0.01117 0.30033 0.91364
 C291 C 0.01061 0.27112 0.90018
 C292 C -0.01403 0.26535 0.88294
 C293 C -0.03820 0.28936 0.87961
 C294 C -0.03760 0.31855 0.89311
 C295 C -0.01422 0.23460 0.86827
 C296 C -0.02165 0.23527 0.84330
 C297 C -0.02121 0.20642 0.82939
 C298 C -0.01339 0.17654 0.84024
 C299 C -0.00615 0.17558 0.86510
 C300 C -0.00655 0.20440 0.87904
 C301 C -0.01238 0.14698 0.82580
 C302 C -0.01134 0.12231 0.81360
 H303 H 0.03051 0.30446 0.92668
 H304 H 0.02981 0.25333 0.90292
 H305 H -0.05771 0.28546 0.86670
 H306 H -0.05636 0.33679 0.89026
 H307 H -0.02722 0.25817 0.83441
 H308 H -0.02674 0.20746 0.81014
 H309 H -0.00012 0.15256 0.87369
 H310 H -0.00112 0.20302 0.89828
 C311 C -0.38036 -0.00787 0.43155
 C312 C -0.35521 -0.00852 0.41979
 C313 C -0.32530 -0.00884 0.40562
 C314 C -0.30011 -0.03051 0.41140
 C315 C -0.27095 -0.03054 0.39772
 C316 C -0.26664 -0.00887 0.37805
 C317 C -0.29215 0.01278 0.37239
 C318 C -0.32126 0.01278 0.38609
 C319 C -0.23563 -0.00866 0.36358
 C320 C -0.23617 -0.00515 0.33807
 C321 C -0.20696 -0.00444 0.32449
 C322 C -0.17684 -0.00723 0.33618
 C323 C -0.17603 -0.01090 0.36152
 C324 C -0.20521 -0.01164 0.37515
 C325 C -0.14681 -0.00594 0.32218
 C326 C -0.12174 -0.00464 0.31035
 H327 H -0.30301 -0.04740 0.42646
 H328 H -0.25193 -0.04776 0.40235
 H329 H -0.28942 0.03007 0.35759
 H330 H -0.34056 0.02975 0.38152
 H331 H -0.25919 -0.00324 0.32860
 H332 H -0.20787 -0.00166 0.30487
 H333 H -0.15283 -0.01298 0.37076
 H334 H -0.20396 -0.01396 0.39477
 C335 C 0.38151 0.00688 0.43280
 C336 C 0.35664 0.00802 0.42123
 C337 C 0.32705 0.00902 0.40726
 C338 C 0.29755 0.01884 0.41829
 C339 C 0.26873 0.01931 0.40477
 C340 C 0.26908 0.00996 0.38002
 C341 C 0.29891 0.00024 0.36910
 C342 C 0.32767 -0.00023 0.38265
 C343 C 0.23845 0.01004 0.36569
 C344 C 0.23870 0.02094 0.34139
 C345 C 0.20997 0.02049 0.32778
 C346 C 0.18063 0.00915 0.33825
 C347 C 0.18007 -0.00158 0.36244
 C348 C 0.20877 -0.00113 0.37609
 C349 C 0.15122 0.00818 0.32407
 C350 C 0.12670 0.00722 0.31206
 H351 H 0.29681 0.02610 0.43732
 H352 H 0.24625 0.02730 0.41361
 H353 H 0.29990 -0.00753 0.35020
 H354 H 0.35036 -0.00801 0.37397
 H355 H 0.26104 0.03008 0.33297
 H356 H 0.21066 0.02892 0.30908
 H357 H 0.15751 -0.01050 0.37070
 H358 H 0.20786 -0.01007 0.39464
   
