data_POSCAR
  _audit_creation_date              2014-09-24
  _audit_creation_method            'ToBaCCo'
  _symmetry_space_group_name_H-M    'P1'
  _symmetry_Int_Tables_number       1
  _symmetry_cell_setting            triclinic
  loop_
  _symmetry_equiv_pos_as_xyz
 x,y,z
_cell_length_a 25.8950
_cell_length_b 25.8197
_cell_length_c 33.0782
_cell_angle_alpha 89.957600
_cell_angle_beta 89.063200
_cell_angle_gamma 89.892500
loop_
  _atom_site_label
  _atom_site_type_symbol
  _atom_site_fract_x
  _atom_site_fract_y
  _atom_site_fract_z
C1 C 0.00025 0.54868 1.02234
 C2 C -0.00087 0.54859 0.97964
 C3 C -0.00175 0.50134 0.95881
 C4 C -0.00121 0.45426 0.97986
 C5 C 0.00051 0.45430 1.02245
 C6 C 0.00108 0.50150 1.04337
 H7 H 0.00218 0.50151 1.07618
 H8 H -0.00284 0.50110 0.92601
 C9 C 0.45355 -0.00373 0.52040
 C10 C 0.45418 -0.00332 0.47781
 C11 C 0.50147 -0.00341 0.45662
 C12 C 0.54822 -0.00357 0.47744
 C13 C 0.54755 -0.00340 0.52010
 C14 C 0.50021 -0.00367 0.54123
 H15 H 0.49968 -0.00370 0.57404
 H16 H 0.50180 -0.00325 0.42380
 C17 C 0.11033 0.00665 0.26417
 H18 H 0.11267 0.00858 0.23152
 C19 C 0.15543 0.00719 0.28674
 H20 H 0.19269 0.00946 0.27148
 C21 C 0.05894 0.00142 0.32406
 H22 H 0.02131 -0.00025 0.33853
 C23 C 0.10311 0.00189 0.34778
 H24 H 0.09936 0.00011 0.38041
 N25 N 0.06335 0.00296 0.28300
 C26 C -0.03638 -0.06829 0.19374
 H27 H -0.06751 -0.04033 0.19279
 C28 C -0.03841 -0.11304 0.17007
 H29 H -0.07108 -0.11956 0.15069
 C30 C 0.04393 -0.09454 0.22058
 H31 H 0.07553 -0.08775 0.24077
 C32 C 0.04340 -0.13975 0.19746
 H33 H 0.07486 -0.16728 0.19962
 Zn34 Zn 0.00445 0.00141 0.24982
 N35 N 0.00468 -0.05959 0.21798
 C36 C 0.00596 0.05763 0.17554
 N37 N 0.00679 0.06118 0.21659
 C38 C 0.01018 0.10789 0.23540
 C39 C 0.01109 0.15360 0.21282
 C40 C 0.00681 0.10243 0.15181
 C41 C -0.06635 -0.04046 0.30602
 C42 C -0.11148 -0.04281 0.32969
 C43 C -0.13733 0.03978 0.30212
 C44 C -0.09175 0.04063 0.27899
 N45 N -0.05705 0.00114 0.28168
 H46 H 0.00451 0.02020 0.16109
 H47 H 0.01154 0.10954 0.26804
 H48 H 0.01306 0.19065 0.22806
 H49 H 0.00554 0.09937 0.11918
 H50 H -0.03856 -0.07175 0.30704
 H51 H -0.11849 -0.07591 0.34916
 H52 H -0.16467 0.07143 0.29988
 H53 H -0.08448 0.07266 0.25872
 C54 C 0.00196 -0.14898 0.17190
 C55 C 0.15176 0.00445 0.32890
 C56 C -0.14719 -0.00221 0.32778
 C57 C 0.00902 0.15083 0.17066
 C58 C -0.01039 0.10659 0.76476
 H59 H -0.01160 0.10841 0.73211
 C60 C -0.01144 0.15218 0.78743
 H61 H -0.01336 0.18932 0.77226
 C62 C -0.00642 0.05601 0.82453
 H63 H -0.00502 0.01850 0.83892
 C64 C -0.00742 0.10068 0.84835
 H65 H -0.00630 0.09745 0.88098
 N66 N -0.00704 0.05977 0.78348
 C67 C 0.06655 -0.04171 0.69409
 H68 H 0.03887 -0.07300 0.69308
 C69 C 0.11164 -0.04400 0.67035
 H70 H 0.11871 -0.07704 0.65086
 C71 C 0.09169 0.03931 0.72112
 H72 H 0.08432 0.07132 0.74138
 C73 C 0.13722 0.03854 0.69792
 H74 H 0.16442 0.07020 0.70011
 Zn75 Zn -0.00445 0.00012 0.75020
 N76 N 0.05712 -0.00016 0.71844
 C77 C -0.05857 0.00054 0.67581
 N78 N -0.06322 0.00187 0.71686
 C79 C -0.11032 0.00549 0.73553
 C80 C -0.15528 0.00617 0.71280
 C81 C -0.10259 0.00115 0.65194
 C82 C 0.03637 -0.06973 0.80633
 C83 C 0.03834 -0.11441 0.83013
 C84 C -0.04339 -0.14092 0.80270
 C85 C -0.04387 -0.09578 0.77944
 N86 N -0.00465 -0.06094 0.78202
 H87 H -0.02086 -0.00106 0.66147
 H88 H -0.11285 0.00727 0.76818
 H89 H -0.19264 0.00838 0.72793
 H90 H -0.09864 -0.00047 0.61931
 H91 H 0.06746 -0.04186 0.80726
 H92 H 0.07096 -0.12097 0.84960
 H93 H -0.07484 -0.16834 0.80060
 H94 H -0.07544 -0.08892 0.75920
 C95 C 0.14717 -0.00338 0.67222
 C96 C -0.00957 0.14918 0.82959
 C97 C -0.00202 -0.15020 0.82837
 C98 C -0.15135 0.00364 0.67064
 C99 C 0.00034 -0.40616 0.04395
 C100 C 0.00028 -0.36643 0.06308
 C101 C 0.00015 -0.32005 0.08563
 C102 C 0.00012 -0.28059 0.10508
 C103 C 0.00032 -0.23458 0.12808
 C104 C 0.00083 -0.19546 0.14794
 C105 C 0.00187 0.40910 0.04394
 C106 C 0.00323 0.36927 0.06294
 C107 C 0.00490 0.32273 0.08529
 C108 C 0.00625 0.28311 0.10453
 C109 C 0.00763 0.23688 0.12728
 C110 C 0.00850 0.19756 0.14693
 C111 C 0.40560 -0.00420 0.54328
 C112 C 0.36567 -0.00464 0.56252
 C113 C 0.31907 -0.00510 0.58525
 C114 C 0.27943 -0.00530 0.60485
 C115 C 0.23320 -0.00519 0.62805
 C116 C 0.19389 -0.00466 0.64807
 C117 C -0.40529 -0.00250 0.54285
 C118 C -0.36605 -0.00150 0.56194
 C119 C -0.32026 -0.00015 0.58447
 C120 C -0.28132 0.00101 0.60390
 C121 C -0.23590 0.00225 0.62689
 C122 C -0.19728 0.00308 0.64672
 C123 C -0.00091 -0.40636 0.95785
 C124 C -0.00079 -0.36676 0.93851
 C125 C -0.00058 -0.32057 0.91567
 C126 C -0.00048 -0.28129 0.89597
 C127 C -0.00059 -0.23548 0.87267
 C128 C -0.00100 -0.19652 0.85258
 C129 C -0.00267 0.40654 0.95708
 C130 C -0.00404 0.36683 0.93800
 C131 C -0.00569 0.32046 0.91550
 C132 C -0.00702 0.28100 0.89612
 C133 C -0.00835 0.23495 0.87320
 C134 C -0.00915 0.19577 0.85343
 C135 C -0.40637 -0.00385 0.45580
 C136 C -0.36636 -0.00416 0.43664
 C137 C -0.31964 -0.00445 0.41407
 C138 C -0.27987 -0.00452 0.39463
 C139 C -0.23349 -0.00427 0.37162
 C140 C -0.19405 -0.00363 0.35176
 C141 C 0.40688 -0.00232 0.45531
 C142 C 0.36746 -0.00123 0.43644
 C143 C 0.32144 0.00021 0.41418
 C144 C 0.28230 0.00147 0.39499
 C145 C 0.23665 0.00282 0.37227
 C146 C 0.19785 0.00375 0.35263
   
