data_POSCAR
  _audit_creation_date              2014-09-24
  _audit_creation_method            'ToBaCCo'
  _symmetry_space_group_name_H-M    'P1'
  _symmetry_Int_Tables_number       1
  _symmetry_cell_setting            triclinic
  loop_
  _symmetry_equiv_pos_as_xyz
 x,y,z
_cell_length_a 20.2256
_cell_length_b 19.7836
_cell_length_c 23.4524
_cell_angle_alpha 91.137600
_cell_angle_beta 90.262900
_cell_angle_gamma 89.389600
loop_
  _atom_site_label
  _atom_site_type_symbol
  _atom_site_fract_x
  _atom_site_fract_y
  _atom_site_fract_z
C1 C 1.26058 0.25444 0.24508
 C2 C 0.75875 -0.24191 0.25293
 C3 C 0.75914 0.25337 -0.25522
 C4 C 1.25699 -0.25630 -0.24645
 C5 C 0.23961 0.25048 0.75420
 C6 C 0.74611 0.75018 0.75039
 C7 C 0.73890 0.24234 0.25260
 C8 C 0.24194 0.74784 0.24672
 O9 O 1.11117 0.03838 0.07070
 O10 O 0.88518 -0.03041 0.07155
 O11 O 0.96269 0.11894 0.07109
 O12 O 1.03224 -0.11333 0.07131
 O13 O 0.87231 0.08150 0.03836
 O14 O 1.12309 -0.07671 0.04030
 O15 O 0.92168 -0.12490 0.04047
 O16 O 1.07357 0.13091 0.03892
 C17 C 1.10617 0.10037 0.07590
 C18 C 0.89368 -0.09133 0.07909
 C19 C 0.90304 0.11011 0.07791
 C20 C 1.09212 -0.10606 0.07824
 O21 O 1.11061 -0.03828 -0.07012
 O22 O 0.88390 0.03457 -0.07102
 O23 O 1.03061 0.11450 -0.07076
 O24 O 0.96218 -0.11594 -0.07030
 O25 O 0.87171 -0.07716 -0.03767
 O26 O 1.12185 0.07633 -0.03956
 O27 O 1.07376 -0.13011 -0.03846
 O28 O 0.92045 0.12848 -0.04001
 Co29 Co 1.10505 0.00001 0.00033
 Co30 Co 0.88965 0.00201 0.00032
 Co31 Co 0.99678 0.11131 -0.00001
 Co32 Co 0.99739 -0.10916 0.00059
 O33 O 0.99730 0.00103 0.00031
 C34 C 1.10530 -0.10006 -0.07573
 C35 C 0.89198 0.09540 -0.07860
 C36 C 1.09030 0.10549 -0.07781
 C37 C 0.90209 -0.10764 -0.07658
 O38 O 1.12984 0.57780 0.53800
 O39 O 0.87973 0.42287 0.53561
 O40 O 0.92768 0.62964 0.53930
 O41 O 1.08196 0.37162 0.53457
 O42 O 0.88955 0.53669 0.56776
 O43 O 1.11686 0.46462 0.56855
 O44 O 0.97128 0.38419 0.56603
 O45 O 1.03950 0.61509 0.57165
 C46 C 1.09961 0.60637 0.57792
 C47 C 0.91151 0.39349 0.57368
 C48 C 0.89551 0.59821 0.57532
 C49 C 1.10938 0.40333 0.57440
 O50 O 1.13045 0.42208 0.45811
 O51 O 0.87870 0.57802 0.45870
 O52 O 1.08033 0.62882 0.46088
 O53 O 0.92886 0.37100 0.45650
 O54 O 0.89168 0.46352 0.42484
 O55 O 1.11712 0.53542 0.42760
 O56 O 1.04031 0.38548 0.42406
 O57 O 0.96948 0.61764 0.42976
 Co58 Co 1.11207 0.49995 0.49805
 Co59 Co 0.89662 0.50019 0.49662
 Co60 Co 1.00441 0.61073 0.50029
 Co61 Co 1.00562 0.39005 0.49531
 O62 O 1.00458 0.50029 0.49757
 C63 C 1.10034 0.39380 0.41808
 C64 C 0.90971 0.60958 0.42222
 C65 C 1.10938 0.59691 0.42176
 C66 C 0.89705 0.40155 0.41913
 O67 O 0.62047 0.07625 0.53776
 O68 O 0.36656 -0.08095 0.53768
 O69 O 0.41919 0.12613 0.54450
 O70 O 0.56848 -0.13011 0.54308
 O71 O 0.37828 0.03384 0.57226
 O72 O 0.60569 -0.03573 0.57372
 O73 O 0.45761 -0.11847 0.56948
 O74 O 0.53183 0.11119 0.57501
 C75 C 0.59256 0.10574 0.57820
 C76 C 0.39752 -0.11135 0.57571
 C77 C 0.38765 0.09489 0.58102
 C78 C 0.59790 -0.09691 0.58116
 O79 O 0.62058 -0.08351 0.46656
 O80 O 0.36663 0.07719 0.46359
 O81 O 0.56820 0.12328 0.46093
 O82 O 0.41954 -0.13126 0.45780
 O83 O 0.37879 -0.03821 0.42907
 O84 O 0.60568 0.02839 0.43053
 O85 O 0.53195 -0.11833 0.42967
 O86 O 0.45797 0.11354 0.43379
 Co87 Co 0.60109 -0.00357 0.50212
 Co88 Co 0.38458 -0.00208 0.50073
 Co89 Co 0.49438 0.10679 0.50379
 Co90 Co 0.49445 -0.11282 0.49990
 O91 O 0.49336 -0.00295 0.50157
 C92 C 0.59222 -0.11118 0.42563
 C93 C 0.39806 0.10727 0.42629
 C94 C 0.59692 0.08948 0.42265
 C95 C 0.38758 -0.09972 0.42091
 O96 O 0.64236 0.57283 0.04233
 O97 O 0.40437 0.46721 0.07160
 O98 O 0.44411 0.60089 0.07122
 O99 O 0.56758 0.36764 0.03448
 O100 O 0.36091 0.56894 0.02468
 O101 O 0.62264 0.45324 0.07011
 O102 O 0.44949 0.37448 0.04557
 O103 O 0.55414 0.61200 0.07842
 C104 C 0.61431 0.60621 0.08002
 C105 C 0.41504 0.40678 0.08089
 C106 C 0.38364 0.60350 0.06518
 C107 C 0.60212 0.39423 0.07448
 O108 O 0.63415 0.41832 -0.03649
 O109 O 0.40640 0.52908 -0.07340
 O110 O 0.56975 0.63164 -0.03722
 O111 O 0.43316 0.40771 -0.06594
 O112 O 0.34231 0.44202 -0.02422
 O113 O 0.63119 0.54215 -0.06223
 O114 O 0.54607 0.40345 -0.08127
 O115 O 0.44582 0.62486 -0.04392
 Co116 Co 0.62083 0.49664 0.00345
 Co117 Co 0.41085 0.49539 -0.00115
 Co118 Co 0.50381 0.60826 0.01533
 Co119 Co 0.50065 0.39744 -0.01500
 O120 O 0.51210 0.50286 0.00301
 C121 C 0.60668 0.40188 -0.08168
 C122 C 0.41347 0.59107 -0.08045
 C123 C 0.61341 0.60288 -0.06929
 C124 C 0.37131 0.40069 -0.06060
 C125 C 1.17618 0.24470 0.16433
 C126 C 1.22057 0.21153 0.20138
 C127 C 1.22883 0.14085 0.19413
 C128 C 1.19053 0.10457 0.15453
 C129 C 1.14449 0.13798 0.11974
 C130 C 1.13818 0.20849 0.12473
 H131 H 1.17004 0.29912 0.16695
 H132 H 1.26534 0.11301 0.21817
 H133 H 1.19790 0.05038 0.15041
 H134 H 1.10402 0.23590 0.09777
 C135 C 1.24094 0.65312 0.67600
 C136 C 1.21171 0.70099 0.71376
 C137 C 1.14342 0.71542 0.70659
 C138 C 1.10620 0.68247 0.66429
 C139 C 1.13633 0.63572 0.62680
 C140 C 1.20379 0.62056 0.63368
 H141 H 1.29348 0.64236 0.67832
 H142 H 1.11861 0.75457 0.73137
 H143 H 1.05446 0.69592 0.65929
 H144 H 1.22852 0.58487 0.60516
 C145 C 0.73539 0.19755 0.64548
 C146 C 0.71500 0.21067 0.70238
 C147 C 0.65411 0.18164 0.71876
 C148 C 0.61260 0.14922 0.67874
 C149 C 0.63282 0.14085 0.62200
 C150 C 0.69520 0.16377 0.60642
 H151 H 0.78251 0.21331 0.62955
 H152 H 0.63782 0.18513 0.76263
 H153 H 0.56557 0.12959 0.69231
 H154 H 0.71293 0.15647 0.56317
 C155 C 0.66880 0.74590 0.17795
 C156 C 0.72048 0.71502 0.20894
 C157 C 0.74034 0.64869 0.19278
 C158 C 0.70620 0.61314 0.15020
 C159 C 0.65185 0.64316 0.12323
 C160 C 0.63352 0.70969 0.13704
 H161 H 0.65490 0.79816 0.18635
 H162 H 0.78292 0.62448 0.21192
 H163 H 0.72164 0.56205 0.13879
 H164 H 0.59271 0.73416 0.11525
 C165 C 0.78261 -0.12889 0.20329
 C166 C 0.80044 -0.19645 0.21481
 C167 C 0.85154 -0.22690 0.18209
 C168 C 0.88342 -0.19169 0.13979
 C169 C 0.86476 -0.12508 0.12820
 C170 C 0.81522 -0.09338 0.16111
 H171 H 0.74131 -0.10414 0.22437
 H172 H 0.86525 -0.27936 0.18798
 H173 H 0.92134 -0.21745 0.11488
 H174 H 0.79925 -0.04231 0.15230
 C175 C 0.77912 0.35485 0.68100
 C176 C 0.80528 0.29727 0.70818
 C177 C 0.86897 0.27422 0.69110
 C178 C 0.90499 0.30799 0.65005
 C179 C 0.87731 0.36361 0.62235
 C180 C 0.81444 0.38721 0.63859
 H181 H 0.72951 0.37278 0.69013
 H182 H 0.88959 0.22721 0.70619
 H183 H 0.95281 0.28779 0.63732
 H184 H 0.79164 0.42953 0.61719
 C185 C 0.26336 -0.16624 0.67667
 C186 C 0.29704 -0.21327 0.71136
 C187 C 0.36463 -0.22587 0.69966
 C188 C 0.39731 -0.19116 0.65703
 C189 C 0.36327 -0.14448 0.62313
 C190 C 0.29600 -0.13210 0.63356
 H191 H 0.21096 -0.15682 0.68244
 H192 H 0.39254 -0.26439 0.72151
 H193 H 0.44900 -0.20275 0.64931
 H194 H 0.26830 -0.09673 0.60783
 C195 C 0.29507 0.36821 0.19945
 C196 C 0.30602 0.29823 0.20762
 C197 C 0.35564 0.26609 0.17436
 C198 C 0.39377 0.30224 0.13610
 C199 C 0.38249 0.37164 0.12839
 C200 C 0.33329 0.40437 0.16106
 H201 H 0.25510 0.39522 0.22048
 H202 H 0.36412 0.21213 0.17745
 H203 H 0.43048 0.27510 0.11084
 H204 H 0.32203 0.45740 0.15492
 C205 C 0.85746 0.22853 -0.18718
 C206 C 0.79952 0.20533 -0.21533
 C207 C 0.77753 0.14004 -0.20092
 C208 C 0.80915 0.10270 -0.15833
 C209 C 0.86293 0.12980 -0.12809
 C210 C 0.88747 0.19234 -0.14377
 H211 H 0.87965 0.27616 -0.19747
 H212 H 0.73520 0.11711 -0.22098
 H213 H 0.78971 0.05383 -0.14740
 H214 H 0.92956 0.21407 -0.12170
 C215 C 0.77331 0.66139 0.32211
 C216 C 0.80194 0.71553 0.29317
 C217 C 0.86714 0.73413 0.30813
 C218 C 0.90324 0.69769 0.34808
 C219 C 0.87427 0.64366 0.37603
 C220 C 0.80914 0.62562 0.36260
 H221 H 0.72253 0.64733 0.31378
 H222 H 0.89014 0.77810 0.29053
 H223 H 0.95291 0.71364 0.35884
 H224 H 0.78544 0.58451 0.38415
 C225 C 0.36729 0.22191 0.30116
 C226 C 0.30001 0.21058 0.28802
 C227 C 0.26578 0.16424 0.32209
 C228 C 0.29759 0.12969 0.36606
 C229 C 0.36457 0.14092 0.37803
 C230 C 0.39912 0.18681 0.34469
 H231 H 0.39552 0.25980 0.27980
 H232 H 0.21353 0.15575 0.31519
 H233 H 0.26947 0.09493 0.39126
 H234 H 0.45054 0.19749 0.35351
 C235 C 0.29268 0.62973 -0.20014
 C236 C 0.30229 0.69971 -0.20801
 C237 C 0.35072 0.73190 -0.17382
 C238 C 0.38913 0.69580 -0.13502
 C239 C 0.37943 0.62635 -0.12770
 C240 C 0.33128 0.59355 -0.16115
 H241 H 0.25364 0.60275 -0.22204
 H242 H 0.35820 0.78584 -0.17679
 H243 H 0.42507 0.72299 -0.10930
 H244 H 0.32129 0.54044 -0.15536
 C245 C 1.17189 -0.24496 -0.16680
 C246 C 1.21625 -0.21259 -0.20346
 C247 C 1.22481 -0.14218 -0.19569
 C248 C 1.18747 -0.10542 -0.15546
 C249 C 1.14206 -0.13808 -0.12056
 C250 C 1.13488 -0.20827 -0.12654
 H251 H 1.16552 -0.29920 -0.16985
 H252 H 1.26118 -0.11499 -0.21949
 H253 H 1.19534 -0.05151 -0.15075
 H254 H 1.10102 -0.23510 -0.09967
 C255 C 1.14618 0.28398 0.29027
 C256 C 1.21443 0.29764 0.28412
 C257 C 1.24281 0.34527 0.32219
 C258 C 1.20489 0.37850 0.36371
 C259 C 1.13751 0.36410 0.36961
 C260 C 1.10819 0.31752 0.33186
 H261 H 1.12203 0.24496 0.26525
 H262 H 1.29529 0.35539 0.32070
 H263 H 1.22902 0.41403 0.39248
 H264 H 1.05656 0.30463 0.33618
 C265 C 0.73616 -0.15049 0.32882
 C266 C 0.71142 -0.20297 0.29365
 C267 C 0.64610 -0.22504 0.30368
 C268 C 0.60604 -0.19295 0.34436
 C269 C 0.63113 -0.14033 0.37831
 C270 C 0.69641 -0.11921 0.37014
 H271 H 0.78694 -0.13450 0.32492
 H272 H 0.62599 -0.26881 0.28174
 H273 H 0.55653 -0.21149 0.35115
 H274 H 0.71732 -0.07930 0.39661
 C275 C 0.74965 0.33840 -0.17031
 C276 C 0.71821 0.30273 -0.21557
 C277 C 0.64982 0.31664 -0.22301
 C278 C 0.61311 0.35007 -0.18025
 C279 C 0.64456 0.37473 -0.13079
 C280 C 0.71352 0.37212 -0.12797
 H281 H 0.80236 0.34044 -0.16614
 H282 H 0.62371 0.30171 -0.26135
 H283 H 0.56010 0.35555 -0.18547
 H284 H 0.73978 0.39489 -0.09224
 C285 C 1.12754 0.21807 -0.20112
 C286 C 1.19590 0.20619 -0.20852
 C287 C 1.22741 0.15820 -0.17352
 C288 C 1.19231 0.12329 -0.13308
 C289 C 1.12482 0.13628 -0.12543
 C290 C 1.09234 0.18275 -0.16054
 H291 H 1.10139 0.25681 -0.22427
 H292 H 1.28018 0.14909 -0.17658
 H293 H 1.21861 0.08775 -0.10646
 H294 H 1.04035 0.19416 -0.15489
 C295 C 1.15589 0.73692 0.32249
 C296 C 1.20369 0.70580 0.28613
 C297 C 1.21951 0.63693 0.29648
 C298 C 1.18720 0.60099 0.33880
 C299 C 1.13984 0.63291 0.37388
 C300 C 1.12429 0.70108 0.36498
 H301 H 1.14364 0.79005 0.31855
 H302 H 1.25863 0.61068 0.27356
 H303 H 1.20121 0.54873 0.34549
 H304 H 1.08836 0.72732 0.39169
 C305 C 0.63907 0.22408 0.31689
 C306 C 0.69468 0.19583 0.28869
 C307 C 0.71481 0.12969 0.30405
 C308 C 0.68038 0.09357 0.34472
 C309 C 0.62685 0.12339 0.37367
 C310 C 0.60601 0.18861 0.35889
 H311 H 0.62332 0.27547 0.30888
 H312 H 0.76026 0.10719 0.28836
 H313 H 0.69860 0.04401 0.35633
 H314 H 0.56547 0.21328 0.38130
 C315 C 0.73903 0.65493 -0.17814
 C316 C 0.70630 0.70721 -0.20748
 C317 C 0.64233 0.72655 -0.18841
 C318 C 0.61191 0.69325 -0.14341
 C319 C 0.64451 0.63988 -0.11618
 C320 C 0.70814 0.62085 -0.13436
 H321 H 0.78955 0.64110 -0.18855
 H322 H 0.61641 0.76916 -0.20654
 H323 H 0.56297 0.70929 -0.12986
 H324 H 0.73506 0.58061 -0.11346
 C325 C 0.76209 -0.15672 -0.17444
 C326 C 0.79098 -0.20766 -0.20944
 C327 C 0.85817 -0.22466 -0.19970
 C328 C 0.89527 -0.19013 -0.15834
 C329 C 0.86569 -0.13953 -0.12418
 C330 C 0.79900 -0.12270 -0.13298
 H331 H 0.71012 -0.14401 -0.17860
 H332 H 0.88198 -0.26640 -0.22215
 H333 H 0.94633 -0.20504 -0.15145
 H334 H 0.77477 -0.08418 -0.10682
 C335 C 0.79777 0.26177 0.35027
 C336 C 0.77986 0.28718 0.29612
 C337 C 0.80752 0.35040 0.28193
 C338 C 0.84418 0.38881 0.32180
 C339 C 0.85850 0.36320 0.37580
 C340 C 0.83591 0.29889 0.38900
 H341 H 0.78337 0.21239 0.36381
 H342 H 0.80242 0.36980 0.23934
 H343 H 0.86305 0.43752 0.30980
 H344 H 0.84710 0.27721 0.43006
 C345 C 0.33597 -0.24045 0.31734
 C346 C 0.28380 -0.21022 0.28582
 C347 C 0.26720 -0.14210 0.30118
 C348 C 0.30270 -0.10583 0.34274
 C349 C 0.35435 -0.13652 0.37298
 C350 C 0.37075 -0.20420 0.35966
 H351 H 0.34902 -0.29311 0.30989
 H352 H 0.22486 -0.11652 0.28295
 H353 H 0.28762 -0.05431 0.35295
 H354 H 0.40986 -0.22971 0.38280
 C355 C 0.24028 0.34013 -0.16543
 C356 C 0.27669 0.29387 -0.20046
 C357 C 0.34303 0.28101 -0.18557
 C358 C 0.37219 0.31475 -0.13931
 C359 C 0.33601 0.36139 -0.10538
 C360 C 0.26956 0.37360 -0.11871
 H361 H 0.18840 0.34962 -0.17402
 H362 H 0.37244 0.24337 -0.20815
 H363 H 0.42368 0.30402 -0.13006
 H364 H 0.24056 0.40957 -0.09369
 C365 C 1.13214 -0.22410 0.19850
 C366 C 1.19958 -0.20979 0.21001
 C367 C 1.22936 -0.15919 0.17686
 C368 C 1.19376 -0.12401 0.13595
 C369 C 1.12730 -0.13869 0.12554
 C370 C 1.09646 -0.18818 0.15774
 H371 H 1.10698 -0.26506 0.21880
 H372 H 1.28135 -0.14783 0.18186
 H373 H 1.21891 -0.08636 0.11137
 H374 H 1.04541 -0.20140 0.14960
 C375 C 1.15530 0.26267 0.67389
 C376 C 1.19986 0.29435 0.71211
 C377 C 1.21337 0.36354 0.70420
 C378 C 1.18218 0.39964 0.66090
 C379 C 1.13823 0.36726 0.62319
 C380 C 1.12455 0.29865 0.63051
 H381 H 1.14530 0.20922 0.67700
 H382 H 1.24994 0.38980 0.72975
 H383 H 1.19438 0.45234 0.65563
 H384 H 1.09104 0.27224 0.60186
 C385 C 0.64945 -0.23531 0.68131
 C386 C 0.70146 -0.20514 0.71255
 C387 C 0.71702 -0.13728 0.70063
 C388 C 0.68100 -0.10094 0.66032
 C389 C 0.63009 -0.13195 0.62906
 C390 C 0.61409 -0.19919 0.64048
 H391 H 0.63754 -0.28791 0.68736
 H392 H 0.75898 -0.11256 0.72026
 H393 H 0.69529 -0.04957 0.65155
 H394 H 0.57538 -0.22463 0.61659
 C395 C 0.65788 0.24904 0.16625
 C396 C 0.69169 0.28267 0.21167
 C397 C 0.67820 0.35268 0.21782
 C398 C 0.64769 0.38865 0.17386
 C399 C 0.62474 0.35509 0.12432
 C400 C 0.62633 0.28457 0.12270
 H401 H 0.65570 0.19501 0.16296
 H402 H 0.69127 0.38070 0.25607
 H403 H 0.64274 0.44307 0.17840
 H404 H 0.60532 0.25680 0.08683
 C405 C 0.85240 0.22495 0.20100
 C406 C 0.78813 0.20138 0.21359
 C407 C 0.76751 0.14212 0.18398
 C408 C 0.80555 0.11225 0.14106
 C409 C 0.86715 0.13840 0.12735
 C410 C 0.89148 0.19344 0.15897
 H411 H 0.87328 0.26866 0.22188
 H412 H 0.72077 0.11871 0.19274
 H413 H 0.78589 0.06919 0.11764
 H414 H 0.93943 0.21420 0.14938
 C415 C 0.77350 0.63867 0.69397
 C416 C 0.78664 0.70738 0.70656
 C417 C 0.83440 0.73958 0.67304
 C418 C 0.87059 0.70379 0.63167
 C419 C 0.85918 0.63487 0.62126
 C420 C 0.81017 0.60270 0.65274
 H421 H 0.73403 0.61250 0.71485
 H422 H 0.84400 0.79296 0.67926
 H423 H 0.90723 0.73039 0.60743
 H424 H 0.79885 0.55009 0.64443
 C425 C 0.27016 0.13764 0.70158
 C426 C 0.28490 0.20610 0.71491
 C427 C 0.33554 0.23640 0.68341
 C428 C 0.37049 0.19972 0.64144
 C429 C 0.35536 0.13179 0.62908
 C430 C 0.30564 0.10094 0.66032
 H431 H 0.22906 0.11234 0.72083
 H432 H 0.34670 0.28936 0.69026
 H433 H 0.40830 0.22513 0.61761
 H434 H 0.29189 0.04908 0.65101
 C435 C 0.34532 0.72316 0.18854
 C436 C 0.28004 0.70677 0.20419
 C437 C 0.24737 0.65778 0.16882
 C438 C 0.27917 0.62521 0.12247
 C439 C 0.34448 0.64101 0.10924
 C440 C 0.37676 0.69044 0.14278
 H441 H 0.37227 0.76316 0.21002
 H442 H 0.19627 0.64531 0.17675
 H443 H 0.25307 0.58715 0.09765
 H444 H 0.42710 0.70452 0.13334
   
