data_POSCAR
  _audit_creation_date              2014-09-24
  _audit_creation_method            'ToBaCCo'
  _symmetry_space_group_name_H-M    'P1'
  _symmetry_Int_Tables_number       1
  _symmetry_cell_setting            triclinic
  loop_
  _symmetry_equiv_pos_as_xyz
 x,y,z
_cell_length_a 27.7394
_cell_length_b 26.3407
_cell_length_c 27.2635
_cell_angle_alpha 84.136400
_cell_angle_beta 94.515100
_cell_angle_gamma 95.424800
loop_
  _atom_site_label
  _atom_site_type_symbol
  _atom_site_fract_x
  _atom_site_fract_y
  _atom_site_fract_z
C1 C 0.31947 0.32806 0.23502
 H2 H 0.32379 0.32852 0.27476
 C3 C 0.35268 0.35726 0.20534
 H4 H 0.38275 0.37923 0.22310
 C5 C 0.27732 0.29461 0.16484
 H6 H 0.24902 0.26881 0.14924
 C7 C 0.30975 0.32299 0.13384
 H8 H 0.30587 0.31814 0.09475
 N9 N 0.28235 0.29801 0.21442
 C10 C 0.17231 0.27301 0.32290
 H11 H 0.16694 0.23162 0.32713
 C12 C 0.14513 0.30184 0.34892
 H13 H 0.11920 0.28221 0.37362
 C14 C 0.21279 0.34862 0.28571
 H15 H 0.23892 0.36687 0.26074
 C16 C 0.18651 0.37891 0.31103
 H17 H 0.19461 0.41982 0.30556
 Zn18 Zn 0.24122 0.25611 0.25730
 N19 N 0.20568 0.29669 0.29234
 C20 C 0.27958 0.21045 0.35066
 N21 N 0.28186 0.21539 0.30073
 C22 C 0.31469 0.19155 0.27899
 C23 C 0.34572 0.15984 0.30740
 C24 C 0.30984 0.17864 0.38063
 C25 C 0.16312 0.23523 0.18772
 C26 C 0.13266 0.20531 0.15656
 C27 C 0.17038 0.13067 0.19433
 C28 C 0.19992 0.16192 0.22477
 N29 N 0.19665 0.21335 0.22019
 H30 H 0.25424 0.23094 0.36740
 H31 H 0.31638 0.19690 0.23926
 H32 H 0.37148 0.14113 0.28917
 H33 H 0.30721 0.17595 0.42009
 H34 H 0.16145 0.27631 0.18465
 H35 H 0.10847 0.22425 0.12907
 H36 H 0.17602 0.09039 0.19683
 H37 H 0.22652 0.14506 0.25093
 C38 C 0.15155 0.35572 0.34297
 C39 C 0.34756 0.35594 0.15369
 C40 C 0.13578 0.15201 0.15966
 C41 C 0.34291 0.15178 0.35893
 C42 C 0.82064 0.82988 0.23378
 H43 H 0.82554 0.83026 0.27351
 C44 C 0.85345 0.85910 0.20366
 H45 H 0.88381 0.88074 0.22140
 C46 C 0.77772 0.79629 0.16416
 H47 H 0.74939 0.77027 0.14894
 C48 C 0.80964 0.82473 0.13266
 H49 H 0.80513 0.81922 0.09371
 N50 N 0.78330 0.79979 0.21368
 C51 C 0.67342 0.77409 0.32238
 H52 H 0.66811 0.73269 0.32632
 C53 C 0.64599 0.80261 0.34844
 H54 H 0.61995 0.78275 0.37289
 C55 C 0.71401 0.85000 0.28591
 H56 H 0.74034 0.86846 0.26126
 C57 C 0.68748 0.88001 0.31129
 H58 H 0.69557 0.92094 0.30622
 Zn59 Zn 0.74267 0.75773 0.25700
 N60 N 0.70693 0.79806 0.29212
 C61 C 0.78106 0.71221 0.35034
 N62 N 0.78367 0.71742 0.30044
 C63 C 0.81680 0.69388 0.27882
 C64 C 0.84774 0.66212 0.30732
 C65 C 0.81121 0.68033 0.38037
 C66 C 0.66421 0.73594 0.18810
 C67 C 0.63383 0.70571 0.15716
 C68 C 0.67264 0.63160 0.19454
 C69 C 0.70208 0.66316 0.22477
 N70 N 0.69823 0.71449 0.22027
 H71 H 0.75544 0.73242 0.36699
 H72 H 0.81873 0.69941 0.23913
 H73 H 0.87368 0.64356 0.28918
 H74 H 0.80823 0.67735 0.41978
 H75 H 0.66207 0.77696 0.18508
 H76 H 0.60925 0.72437 0.12989
 H77 H 0.67870 0.59143 0.19695
 H78 H 0.72907 0.64663 0.25068
 C79 C 0.65230 0.85650 0.34285
 C80 C 0.84766 0.85834 0.15174
 C81 C 0.63756 0.65252 0.16017
 C82 C 0.84452 0.65369 0.35878
 C83 C 0.82002 0.32805 0.73525
 H84 H 0.82441 0.32869 0.77497
 C85 C 0.85294 0.35745 0.70539
 H86 H 0.88288 0.37974 0.72300
 C87 C 0.77795 0.29404 0.66531
 H88 H 0.74983 0.26794 0.64986
 C89 C 0.81010 0.32261 0.63413
 H90 H 0.80617 0.31763 0.59506
 N91 N 0.78307 0.29763 0.71486
 C92 C 0.67416 0.27246 0.82454
 H93 H 0.66924 0.23106 0.82926
 C94 C 0.64698 0.30128 0.85059
 H95 H 0.62150 0.28165 0.87576
 C96 C 0.71342 0.34811 0.78607
 H97 H 0.73900 0.36636 0.76053
 C98 C 0.68713 0.37839 0.81139
 H99 H 0.69469 0.41932 0.80528
 Zn100 Zn 0.74227 0.25565 0.75803
 N101 N 0.70690 0.29618 0.79331
 C102 C 0.78220 0.21087 0.85115
 N103 N 0.78324 0.21501 0.80113
 C104 C 0.81511 0.19042 0.77890
 C105 C 0.84600 0.15824 0.80686
 C106 C 0.81247 0.17878 0.88078
 C107 C 0.66420 0.23454 0.68842
 C108 C 0.63378 0.20448 0.65736
 C109 C 0.67094 0.12985 0.69602
 C110 C 0.70044 0.16125 0.72634
 N111 N 0.69750 0.21275 0.72123
 H112 H 0.75789 0.23232 0.86824
 H113 H 0.81607 0.19544 0.73910
 H114 H 0.87096 0.13915 0.78791
 H115 H 0.81102 0.17747 0.92035
 H116 H 0.66273 0.27566 0.68496
 H117 H 0.60980 0.22330 0.62956
 H118 H 0.67645 0.08953 0.69893
 H119 H 0.72677 0.14442 0.75284
 C120 C 0.65280 0.35517 0.84402
 C121 C 0.84770 0.35595 0.65376
 C122 C 0.63666 0.15112 0.66093
 C123 C 0.84409 0.15012 0.85871
 C124 C 0.32003 0.82825 0.73576
 H125 H 0.32449 0.82883 0.77549
 C126 C 0.35307 0.85748 0.70590
 H127 H 0.38312 0.87960 0.72352
 C128 C 0.27776 0.79448 0.66581
 H129 H 0.24949 0.76855 0.65035
 C130 C 0.31001 0.82288 0.63463
 H131 H 0.30601 0.81795 0.59556
 N132 N 0.28293 0.79802 0.71537
 C133 C 0.17288 0.77246 0.82397
 H134 H 0.16756 0.73107 0.82807
 C135 C 0.14548 0.80113 0.84995
 H136 H 0.11945 0.78137 0.87447
 C137 C 0.21342 0.84824 0.78719
 H138 H 0.23966 0.86662 0.76242
 C139 C 0.18696 0.87836 0.81250
 H140 H 0.19508 0.91928 0.80726
 Zn141 Zn 0.24202 0.75595 0.75840
 N142 N 0.20633 0.79630 0.79358
 C143 C 0.28046 0.71014 0.85164
 N144 N 0.28286 0.71536 0.80172
 C145 C 0.31587 0.69182 0.77993
 C146 C 0.34696 0.66012 0.80828
 C147 C 0.31076 0.67832 0.88153
 C148 C 0.16384 0.73479 0.68902
 C149 C 0.13350 0.70482 0.65781
 C150 C 0.17173 0.63036 0.69521
 C151 C 0.20115 0.66166 0.72571
 N152 N 0.19756 0.71303 0.72134
 H153 H 0.25495 0.73038 0.86842
 H154 H 0.31765 0.69738 0.74022
 H155 H 0.37285 0.64162 0.79001
 H156 H 0.30801 0.67538 0.92098
 H157 H 0.16193 0.77583 0.68610
 H158 H 0.10916 0.72370 0.63044
 H159 H 0.17761 0.59014 0.69754
 H160 H 0.22792 0.64489 0.75173
 C161 C 0.15177 0.85502 0.84412
 C162 C 0.34781 0.85598 0.65426
 C163 C 0.13694 0.65158 0.66070
 C164 C 0.34401 0.65174 0.85977
 C165 C 0.03988 -0.03785 -0.04104
 C166 C 0.07034 0.00197 -0.01178
 C167 C 0.04415 0.02901 0.01524
 C168 C -0.01062 0.01215 0.01149
 C169 C 0.01173 -0.07218 -0.00210
 C170 C -0.01441 -0.04618 0.02624
 C171 C 0.00123 -0.00781 -0.07145
 C172 C -0.02621 0.01772 -0.04422
 H173 H 0.10971 0.00484 -0.00939
 H174 H -0.03165 0.03343 0.03406
 H175 H 0.00966 -0.11363 -0.00047
 H176 H -0.00273 -0.00539 -0.11154
 C177 C 0.04073 0.46264 0.45898
 C178 C 0.07140 0.50199 0.48867
 C179 C 0.04534 0.52865 0.51619
 C180 C -0.00947 0.51192 0.51246
 C181 C 0.01264 0.42787 0.49766
 C182 C -0.01334 0.45353 0.52633
 C183 C 0.00207 0.49313 0.42906
 C184 C -0.02510 0.51830 0.45683
 H185 H 0.11076 0.50495 0.49076
 H186 H -0.03039 0.53264 0.53561
 H187 H 0.01058 0.38646 0.49890
 H188 H -0.00202 0.49618 0.38895
 C189 C 0.54068 -0.03756 0.45901
 C190 C 0.57121 0.00191 0.48867
 C191 C 0.54507 0.02845 0.51621
 C192 C 0.49030 0.01149 0.51252
 C193 C 0.51272 -0.07245 0.49774
 C194 C 0.48662 -0.04689 0.52640
 C195 C 0.50188 -0.00725 0.42912
 C196 C 0.47461 0.01780 0.45691
 H197 H 0.61058 0.00499 0.49079
 H198 H 0.46932 0.03211 0.53570
 H199 H 0.51086 -0.11384 0.49902
 H200 H 0.49766 -0.00432 0.38902
 C201 C 0.54157 0.46197 -0.04024
 C202 C 0.57219 0.50148 -0.01070
 C203 C 0.54610 0.52818 0.01675
 C204 C 0.49133 0.51133 0.01313
 C205 C 0.51356 0.42726 -0.00144
 C206 C 0.48754 0.45297 0.02715
 C207 C 0.50282 0.49230 -0.07021
 C208 C 0.47561 0.51750 -0.04248
 H209 H 0.61155 0.50456 -0.00870
 H210 H 0.47043 0.53211 0.03624
 H211 H 0.51148 0.38585 -0.00016
 H212 H 0.49861 0.49514 -0.11031
 C213 C 0.12195 -0.11443 -0.12660
 C214 C 0.13608 -0.12174 -0.07079
 C215 C 0.10916 -0.09704 -0.04272
 C216 C 0.07019 -0.06673 -0.07267
 C217 C 0.09815 -0.03111 -0.11101
 C218 C 0.12487 -0.05572 -0.13929
 C219 C 0.06710 -0.13085 -0.13138
 C220 C 0.04019 -0.10621 -0.10315
 H221 H 0.16506 -0.14445 -0.05469
 H222 H 0.11509 -0.09883 -0.00278
 H223 H 0.09553 0.00996 -0.11681
 H224 H 0.14330 -0.03466 -0.16957
 H225 H 0.05068 -0.15898 -0.15553
 H226 H 0.00103 -0.11359 -0.10304
 C227 C 0.12208 0.38637 0.37248
 C228 C 0.13626 0.37855 0.42825
 C229 C 0.10959 0.40320 0.45658
 C230 C 0.07079 0.43398 0.42693
 C231 C 0.09889 0.46972 0.38879
 C232 C 0.12540 0.44516 0.36025
 C233 C 0.06716 0.37036 0.36768
 C234 C 0.04049 0.39496 0.39617
 H235 H 0.16513 0.35556 0.44413
 H236 H 0.11562 0.40109 0.49654
 H237 H 0.09659 0.51086 0.38340
 H238 H 0.14407 0.46635 0.33020
 H239 H 0.05053 0.34253 0.34332
 H240 H 0.00131 0.38784 0.39628
 C241 C 0.62256 -0.11316 0.37241
 C242 C 0.63675 -0.12097 0.42817
 C243 C 0.60990 -0.09656 0.45654
 C244 C 0.57091 -0.06600 0.42692
 C245 C 0.59884 -0.03005 0.38880
 C246 C 0.62552 -0.05438 0.36022
 C247 C 0.56769 -0.12951 0.36760
 C248 C 0.54085 -0.10516 0.39613
 H249 H 0.66575 -0.14379 0.44402
 H250 H 0.61591 -0.09871 0.49649
 H251 H 0.59625 0.01104 0.38338
 H252 H 0.64400 -0.03307 0.33009
 H253 H 0.55122 -0.15738 0.34320
 H254 H 0.50169 -0.11252 0.39624
 C255 C 0.62324 0.38580 -0.12652
 C256 C 0.63746 0.37819 -0.07075
 C257 C 0.61066 0.40278 -0.04248
 C258 C 0.57172 0.43332 -0.07220
 C259 C 0.59969 0.46908 -0.11042
 C260 C 0.62633 0.44458 -0.13889
 C261 C 0.56837 0.36953 -0.13126
 C262 C 0.54158 0.39409 -0.10285
 H263 H 0.66645 0.35540 -0.05481
 H264 H 0.61670 0.40080 -0.00253
 H265 H 0.59730 0.51020 -0.11586
 H266 H 0.64506 0.46584 -0.16885
 H267 H 0.55186 0.34153 -0.15550
 H268 H 0.50242 0.38678 -0.10269
 C269 C -0.12410 0.11507 -0.11334
 C270 C -0.13288 0.10037 -0.06104
 C271 C -0.09924 0.06626 -0.03642
 C272 C -0.06332 0.05316 -0.06853
 C273 C -0.09235 0.03201 -0.11001
 C274 C -0.12581 0.06586 -0.13450
 C275 C -0.07332 0.13593 -0.11312
 C276 C -0.04006 0.10197 -0.08856
 H277 H -0.16626 0.10480 -0.04439
 H278 H -0.10643 0.04549 -0.00094
 H279 H -0.09258 -0.00734 -0.11873
 H280 H -0.15280 0.05356 -0.16294
 H281 H -0.06140 0.17424 -0.12879
 H282 H -0.00125 0.11255 -0.08436
 C283 C -0.12233 0.61700 0.38836
 C284 C -0.13076 0.60193 0.44353
 C285 C -0.09920 0.56902 0.46676
 C286 C -0.06180 0.55413 0.43308
 C287 C -0.09322 0.53244 0.38971
 C288 C -0.12470 0.56508 0.36653
 C289 C -0.06870 0.63787 0.38813
 C290 C -0.03728 0.60521 0.41139
 H291 H -0.16104 0.61195 0.46222
 H292 H -0.10373 0.55201 0.50420
 H293 H -0.09239 0.49380 0.37944
 H294 H -0.15039 0.55411 0.33651
 H295 H -0.05651 0.67567 0.37152
 H296 H 0.00167 0.61510 0.41460
 C297 C 0.37642 0.11544 0.38849
 C298 C 0.36836 0.10065 0.44377
 C299 C 0.40024 0.06808 0.46700
 C300 C 0.43756 0.05324 0.43320
 C301 C 0.40603 0.03109 0.39014
 C302 C 0.37423 0.06338 0.36696
 C303 C 0.42993 0.13666 0.38784
 C304 C 0.46167 0.10436 0.41110
 H305 H 0.33807 0.11053 0.46254
 H306 H 0.39596 0.05125 0.50454
 H307 H 0.40705 -0.00760 0.38006
 H308 H 0.34843 0.05206 0.33716
 H309 H 0.44182 0.17444 0.37095
 H310 H 0.50058 0.11452 0.41403
 C311 C 0.37749 0.61530 -0.11077
 C312 C 0.36925 0.60015 -0.05558
 C313 C 0.40111 0.56752 -0.03243
 C314 C 0.43860 0.55298 -0.06620
 C315 C 0.40725 0.53106 -0.10950
 C316 C 0.37547 0.56341 -0.13261
 C317 C 0.43100 0.63662 -0.11114
 C318 C 0.46272 0.60424 -0.08795
 H319 H 0.33887 0.60984 -0.03684
 H320 H 0.39673 0.55044 0.00502
 H321 H 0.40834 0.49246 -0.11978
 H322 H 0.34978 0.55224 -0.16255
 H323 H 0.44289 0.67449 -0.12778
 H324 H 0.50162 0.61444 -0.08485
 C325 C -0.11665 -0.11513 0.11963
 C326 C -0.13629 -0.09828 0.06967
 C327 C -0.10016 -0.07522 0.03779
 C328 C -0.05111 -0.07221 0.06156
 C329 C -0.05415 -0.04524 0.10538
 C330 C -0.09064 -0.06837 0.13708
 C331 C -0.07875 -0.14821 0.11272
 C332 C -0.04261 -0.12465 0.08113
 H333 H -0.17472 -0.09784 0.05854
 H334 H -0.10940 -0.05830 0.00060
 H335 H -0.03231 -0.01020 0.11317
 H336 H -0.10018 -0.04953 0.16810
 H337 H -0.07564 -0.18586 0.13251
 H338 H -0.00978 -0.14279 0.07729
 C339 C -0.11492 0.38396 0.62026
 C340 C -0.13575 0.40307 0.56828
 C341 C -0.10165 0.42526 0.53775
 C342 C -0.04960 0.42725 0.56159
 C343 C -0.05188 0.45434 0.60865
 C344 C -0.08624 0.43214 0.63906
 C345 C -0.07584 0.34903 0.61128
 C346 C -0.04165 0.37149 0.58105
 H347 H -0.17421 0.40136 0.55692
 H348 H -0.11109 0.44154 0.50039
 H349 H -0.02921 0.48867 0.61702
 H350 H -0.09335 0.44900 0.67213
 H351 H -0.07412 0.31033 0.62896
 H352 H -0.01057 0.35185 0.57419
 C353 C 0.38521 -0.11618 0.62069
 C354 C 0.36423 -0.09660 0.56891
 C355 C 0.39827 -0.07456 0.53825
 C356 C 0.45045 -0.07317 0.56176
 C357 C 0.44874 -0.04630 0.60905
 C358 C 0.41445 -0.06835 0.63961
 C359 C 0.42385 -0.15143 0.61120
 C360 C 0.45799 -0.12913 0.58082
 H361 H 0.32574 -0.09795 0.55779
 H362 H 0.38874 -0.05807 0.50100
 H363 H 0.47168 -0.01215 0.61742
 H364 H 0.40770 -0.05153 0.67281
 H365 H 0.42531 -0.19025 0.62865
 H366 H 0.48877 -0.14904 0.57360
 C367 C 0.38521 0.38375 0.12041
 C368 C 0.36474 0.40299 0.06832
 C369 C 0.39909 0.42502 0.03802
 C370 C 0.45102 0.42678 0.06217
 C371 C 0.44857 0.45387 0.10919
 C372 C 0.41397 0.43182 0.13938
 C373 C 0.42422 0.34864 0.11166
 C374 C 0.45867 0.37095 0.08165
 H375 H 0.32634 0.40149 0.05673
 H376 H 0.38992 0.44134 0.00062
 H377 H 0.47134 0.48809 0.11771
 H378 H 0.40675 0.44869 0.17241
 H379 H 0.42569 0.30990 0.12933
 H380 H 0.48970 0.35116 0.07494
 C381 C 0.10883 0.11948 0.12141
 C382 C 0.09616 0.06289 0.14000
 C383 C 0.07521 0.03373 0.10441
 C384 C 0.06782 0.06335 0.05333
 C385 C 0.03883 0.10822 0.06223
 C386 C 0.05996 0.13727 0.09809
 C387 C 0.13964 0.11792 0.07728
 C388 C 0.11830 0.08911 0.04170
 H389 H 0.10088 0.04737 0.17832
 H390 H 0.06326 -0.00653 0.11235
 H391 H 0.00468 0.11659 0.04222
 H392 H 0.04261 0.16898 0.10938
 H393 H 0.17469 0.13952 0.07344
 H394 H 0.13507 0.08730 0.00736
 C395 C 0.11005 0.61904 0.62242
 C396 C 0.09760 0.56238 0.64093
 C397 C 0.07667 0.53324 0.60532
 C398 C 0.06907 0.56294 0.55431
 C399 C 0.03997 0.60765 0.56338
 C400 C 0.06107 0.63668 0.59927
 C401 C 0.14078 0.61769 0.57819
 C402 C 0.11946 0.58889 0.54258
 H403 H 0.10252 0.54679 0.67921
 H404 H 0.06497 0.49291 0.61318
 H405 H 0.00574 0.61595 0.54347
 H406 H 0.04361 0.66826 0.61068
 H407 H 0.17577 0.63941 0.57431
 H408 H 0.13618 0.58718 0.50820
 C409 C 0.60980 0.11851 0.62268
 C410 C 0.59774 0.06171 0.64095
 C411 C 0.57679 0.03269 0.60525
 C412 C 0.56876 0.06263 0.55442
 C413 C 0.53947 0.10703 0.56398
 C414 C 0.56062 0.13594 0.59994
 C415 C 0.64031 0.11767 0.57820
 C416 C 0.61896 0.08898 0.54252
 H417 H 0.60273 0.04591 0.67915
 H418 H 0.56527 -0.00770 0.61296
 H419 H 0.50514 0.11528 0.54426
 H420 H 0.54317 0.16741 0.61160
 H421 H 0.67519 0.13960 0.57423
 H422 H 0.63551 0.08757 0.50800
 C423 C 0.61067 0.61965 0.12216
 C424 C 0.59824 0.56313 0.14114
 C425 C 0.57736 0.53362 0.10580
 C426 C 0.56978 0.56285 0.05455
 C427 C 0.54064 0.60769 0.06317
 C428 C 0.56169 0.63709 0.09878
 C429 C 0.64144 0.61788 0.07804
 C430 C 0.62018 0.58872 0.04270
 H431 H 0.60320 0.54789 0.17952
 H432 H 0.56569 0.49332 0.11399
 H433 H 0.50640 0.61577 0.04317
 H434 H 0.54416 0.66877 0.10989
 H435 H 0.67641 0.63961 0.07401
 H436 H 0.63692 0.58674 0.00839
   
