data_POSCAR
  _audit_creation_date              2014-09-24
  _audit_creation_method            'ToBaCCo'
  _symmetry_space_group_name_H-M    'P1'
  _symmetry_Int_Tables_number       1
  _symmetry_cell_setting            triclinic
  loop_
  _symmetry_equiv_pos_as_xyz
 x,y,z
_cell_length_a 46.6085
_cell_length_b 46.7912
_cell_length_c 46.8473
_cell_angle_alpha 89.944800
_cell_angle_beta 90.096000
_cell_angle_gamma 89.979800
loop_
  _atom_site_label
  _atom_site_type_symbol
  _atom_site_fract_x
  _atom_site_fract_y
  _atom_site_fract_z
N1 N 0.29708 0.23923 0.21698
 N2 N 0.28557 0.26247 0.20602
 C3 C 0.30072 0.27035 0.18283
 C4 C 0.32274 0.25101 0.17927
 C5 C 0.31993 0.23155 0.20118
 H6 H 0.29615 0.28868 0.16951
 H7 H 0.33347 0.21321 0.20528
 Cu8 Cu 0.25189 0.28009 0.22310
 Cu9 Cu 0.28159 0.22067 0.25083
 Cu10 Cu 0.22094 0.25100 0.28108
 N11 N 0.21750 0.29650 0.23995
 N12 N 0.20551 0.28503 0.26264
 C13 C 0.18218 0.30040 0.26982
 C14 C 0.17954 0.32255 0.25060
 C15 C 0.20216 0.31959 0.23192
 H16 H 0.16816 0.29581 0.28762
 H17 H 0.20696 0.33319 0.21387
 N18 N 0.23970 0.21657 0.29664
 N19 N 0.26280 0.20501 0.28512
 C20 C 0.27043 0.18187 0.30051
 C21 C 0.25122 0.17888 0.32260
 C22 C 0.23203 0.20107 0.31967
 H23 H 0.28857 0.16817 0.29604
 H24 H 0.21387 0.20552 0.33330
 H25 H 0.23979 0.23428 0.24482
 H26 H 0.26300 0.25670 0.26837
 N27 N 0.70304 -0.23906 0.21652
 N28 N 0.71491 -0.26194 0.20525
 C29 C 0.69978 -0.26977 0.18198
 C30 C 0.67743 -0.25074 0.17873
 C31 C 0.67998 -0.23153 0.20086
 H32 H 0.70460 -0.28785 0.16844
 H33 H 0.66617 -0.21348 0.20521
 Cu34 Cu 0.74897 -0.27915 0.22216
 Cu35 Cu 0.71836 -0.22071 0.25061
 Cu36 Cu 0.77906 -0.25108 0.28104
 N37 N 0.78303 -0.29602 0.23940
 N38 N 0.79468 -0.28489 0.26247
 C39 C 0.81781 -0.30046 0.26998
 C40 C 0.82064 -0.32236 0.25055
 C41 C 0.79839 -0.31909 0.23142
 H42 H 0.83150 -0.29617 0.28814
 H43 H 0.79379 -0.33246 0.21316
 N44 N 0.76013 -0.21684 0.29670
 N45 N 0.73701 -0.20526 0.28511
 C46 C 0.72931 -0.18223 0.30057
 C47 C 0.74849 -0.17934 0.32277
 C48 C 0.76773 -0.20147 0.31982
 H49 H 0.71118 -0.16852 0.29606
 H50 H 0.78591 -0.20593 0.33349
 H51 H 0.76035 -0.23369 0.24495
 H52 H 0.73717 -0.25688 0.26770
 N53 N 0.70354 0.24006 0.78242
 N54 N 0.71489 0.26344 0.79319
 C55 C 0.69964 0.27139 0.81629
 C56 C 0.67773 0.25197 0.81997
 C57 C 0.68071 0.23237 0.79825
 H58 H 0.70408 0.28984 0.82946
 H59 H 0.66730 0.21392 0.79429
 Cu60 Cu 0.74851 0.28110 0.77603
 Cu61 Cu 0.71921 0.22133 0.74877
 Cu62 Cu 0.77976 0.25171 0.71840
 N63 N 0.78288 0.29753 0.75911
 N64 N 0.79499 0.28593 0.73656
 C65 C 0.81828 0.30132 0.72928
 C66 C 0.82073 0.32361 0.74832
 C67 C 0.79809 0.32074 0.76698
 H68 H 0.83236 0.29662 0.71155
 H69 H 0.79317 0.33445 0.78490
 N70 N 0.76122 0.21709 0.70310
 N71 N 0.73814 0.20551 0.71468
 C72 C 0.73065 0.18224 0.69947
 C73 C 0.74992 0.17918 0.67743
 C74 C 0.76900 0.20147 0.68022
 H75 H 0.71257 0.16850 0.70401
 H76 H 0.78715 0.20591 0.66657
 H77 H 0.76091 0.23519 0.75477
 H78 H 0.73765 0.25732 0.73094
 N79 N 0.29641 -0.24062 0.78308
 N80 N 0.28492 -0.26384 0.79404
 C81 C 0.30021 -0.27177 0.81719
 C82 C 0.32228 -0.25249 0.82069
 C83 C 0.31936 -0.23301 0.79882
 H84 H 0.29568 -0.29010 0.83053
 H85 H 0.33289 -0.21468 0.79471
 Cu86 Cu 0.25108 -0.28133 0.77702
 Cu87 Cu 0.28074 -0.22195 0.74931
 Cu88 Cu 0.21982 -0.25200 0.71920
 N89 N 0.21653 -0.29761 0.76023
 N90 N 0.20442 -0.28602 0.73761
 C91 C 0.18103 -0.30132 0.73039
 C92 C 0.17851 -0.32353 0.74955
 C93 C 0.20121 -0.32071 0.76822
 H94 H 0.16697 -0.29664 0.71260
 H95 H 0.20614 -0.33441 0.78618
 N96 N 0.23856 -0.21760 0.70365
 N97 N 0.26178 -0.20615 0.71513
 C98 C 0.26940 -0.18302 0.69974
 C99 C 0.25007 -0.17992 0.67770
 C100 C 0.23081 -0.20204 0.68066
 H101 H 0.28763 -0.16942 0.70416
 H102 H 0.21258 -0.20641 0.66705
 H103 H 0.23895 -0.23544 0.75544
 H104 H 0.26194 -0.25788 0.73176
 N105 N 0.70399 -0.23975 0.78355
 N106 N 0.71613 -0.26235 0.79516
 C107 C 0.70093 -0.27026 0.81829
 C108 C 0.67824 -0.25160 0.82113
 C109 C 0.68069 -0.23251 0.79888
 H110 H 0.70592 -0.28815 0.83206
 H111 H 0.66662 -0.21470 0.79424
 Cu112 Cu 0.75063 -0.27913 0.77894
 Cu113 Cu 0.71928 -0.22136 0.74956
 Cu114 Cu 0.78009 -0.25150 0.71950
 N115 N 0.78435 -0.29617 0.76143
 N116 N 0.79576 -0.28524 0.73817
 C117 C 0.81871 -0.30096 0.73057
 C118 C 0.82166 -0.32275 0.75012
 C119 C 0.79967 -0.31928 0.76943
 H120 H 0.83220 -0.29684 0.71225
 H121 H 0.79522 -0.33254 0.78782
 N122 N 0.76111 -0.21733 0.70373
 N123 N 0.73793 -0.20584 0.71519
 C124 C 0.73021 -0.18279 0.69971
 C125 C 0.74944 -0.17981 0.67764
 C126 C 0.76873 -0.20188 0.68067
 H127 H 0.71205 -0.16912 0.70415
 H128 H 0.78697 -0.20625 0.66711
 H129 H 0.73835 -0.25767 0.73308
 H130 H 0.76142 -0.23386 0.75540
 N131 N 0.29593 0.23846 0.78306
 N132 N 0.28385 0.26109 0.79457
 C133 C 0.29914 0.26905 0.81766
 C134 C 0.32182 0.25038 0.82058
 C135 C 0.31928 0.23123 0.79842
 H136 H 0.29423 0.28700 0.83134
 H137 H 0.33332 0.21341 0.79384
 Cu138 Cu 0.24934 0.27791 0.77826
 Cu139 Cu 0.28052 0.22005 0.74911
 Cu140 Cu 0.21970 0.25025 0.71888
 N141 N 0.21562 0.29498 0.76066
 N142 N 0.20414 0.28405 0.73743
 C143 C 0.18120 0.29981 0.72978
 C144 C 0.17832 0.32165 0.74925
 C145 C 0.20036 0.31811 0.76856
 H146 H 0.16764 0.29571 0.71148
 H147 H 0.20486 0.33139 0.78692
 N148 N 0.23858 0.21602 0.70325
 N149 N 0.26177 0.20452 0.71477
 C150 C 0.26946 0.18147 0.69936
 C151 C 0.25020 0.17850 0.67725
 C152 C 0.23092 0.20059 0.68019
 H153 H 0.28764 0.16781 0.70383
 H154 H 0.21270 0.20499 0.66656
 H155 H 0.26147 0.25637 0.73249
 H156 H 0.23841 0.23264 0.75485
 N157 N 0.29713 -0.23880 0.21679
 N158 N 0.28495 -0.26128 0.20507
 C159 C 0.30018 -0.26912 0.18193
 C160 C 0.32292 -0.25052 0.17921
 C161 C 0.32048 -0.23155 0.20153
 H162 H 0.29516 -0.28691 0.16808
 H163 H 0.33458 -0.21381 0.20626
 Cu164 Cu 0.25038 -0.27805 0.22114
 Cu165 Cu 0.28180 -0.22056 0.25082
 Cu166 Cu 0.22082 -0.25068 0.28060
 N167 N 0.21656 -0.29507 0.23847
 N168 N 0.20511 -0.28425 0.26173
 C169 C 0.18208 -0.29993 0.26916
 C170 C 0.17910 -0.32159 0.24950
 C171 C 0.20118 -0.31804 0.23031
 H172 H 0.16851 -0.29588 0.28742
 H173 H 0.20562 -0.33119 0.21186
 N174 N 0.23986 -0.21668 0.29656
 N175 N 0.26310 -0.20520 0.28522
 C176 C 0.27084 -0.18227 0.30080
 C177 C 0.25156 -0.17936 0.32283
 C178 C 0.23221 -0.20134 0.31967
 H179 H 0.28905 -0.16863 0.29647
 H180 H 0.21393 -0.20573 0.33315
 H181 H 0.26258 -0.25690 0.26711
 H182 H 0.23963 -0.23289 0.24483
 N183 N 0.70266 0.23922 0.21762
 N184 N 0.71406 0.26258 0.20686
 C185 C 0.69898 0.27047 0.18358
 C186 C 0.67714 0.25101 0.17977
 C187 C 0.67995 0.23146 0.20159
 H188 H 0.70348 0.28890 0.17038
 H189 H 0.66651 0.21304 0.20550
 Cu190 Cu 0.74748 0.28037 0.22425
 Cu191 Cu 0.71806 0.22063 0.25151
 Cu192 Cu 0.77840 0.25111 0.28229
 N193 N 0.78176 0.29676 0.24138
 N194 N 0.79374 0.28521 0.26408
 C195 C 0.81700 0.30059 0.27145
 C196 C 0.81960 0.32281 0.25233
 C197 C 0.79704 0.31990 0.23352
 H198 H 0.83100 0.29595 0.28931
 H199 H 0.79225 0.33356 0.21550
 N200 N 0.75976 0.21661 0.29759
 N201 N 0.73676 0.20498 0.28586
 C202 C 0.72919 0.18176 0.30113
 C203 C 0.74834 0.17883 0.32334
 C204 C 0.76742 0.20110 0.32062
 H205 H 0.71116 0.16799 0.29649
 H206 H 0.78550 0.20558 0.33440
 H207 H 0.73635 0.25669 0.26932
 H208 H 0.75977 0.23451 0.24578
 C209 C 0.26464 -0.01514 0.41270
 C210 C 0.26462 0.01418 0.41264
 C211 C 0.25599 0.02265 0.43963
 N212 N 0.25065 -0.00045 0.45612
 C213 C 0.25601 -0.02358 0.43973
 C214 C 0.25151 0.05125 0.44815
 C215 C 0.24640 0.05924 0.47679
 C216 C 0.23596 0.08564 0.48530
 C217 C 0.23579 0.08559 0.51464
 C218 C 0.24614 0.05916 0.52327
 N219 N 0.25260 0.04324 0.50007
 C220 C 0.25100 0.05111 0.55197
 C221 C 0.25539 0.02252 0.56063
 C222 C 0.26377 0.01408 0.58777
 C223 C 0.26376 -0.01524 0.58782
 C224 C 0.25538 -0.02371 0.56072
 N225 N 0.25019 -0.00061 0.54417
 C226 C 0.25101 -0.05231 0.55215
 C227 C 0.24618 -0.06030 0.52344
 C228 C 0.23583 -0.08670 0.51479
 C229 C 0.23596 -0.08665 0.48545
 C230 C 0.24639 -0.06022 0.47696
 N231 N 0.25261 -0.04430 0.50024
 C232 C 0.25153 -0.05217 0.44832
 H233 H 0.27025 -0.02868 0.39484
 H234 H 0.27023 0.02769 0.39474
 H235 H 0.26371 -0.02504 0.50030
 H236 H 0.22931 0.10321 0.47177
 H237 H 0.22901 0.10313 0.52809
 H238 H 0.26920 0.02762 0.60569
 H239 H 0.26920 -0.02876 0.60580
 H240 H 0.22932 -0.10418 0.47191
 H241 H 0.26371 0.02398 0.50016
 H242 H 0.22906 -0.10427 0.52823
 C243 C 0.76362 -0.01525 0.58800
 C244 C 0.76369 0.01407 0.58804
 C245 C 0.75508 0.02261 0.56101
 N246 N 0.74969 -0.00046 0.54451
 C247 C 0.75498 -0.02362 0.56094
 C248 C 0.75067 0.05123 0.55247
 C249 C 0.74553 0.05927 0.52381
 C250 C 0.73508 0.08569 0.51527
 C251 C 0.73486 0.08567 0.48592
 C252 C 0.74519 0.05925 0.47733
 N253 N 0.75168 0.04329 0.50055
 C254 C 0.74998 0.05122 0.44864
 C255 C 0.75437 0.02265 0.44002
 C256 C 0.76271 0.01424 0.41291
 C257 C 0.76269 -0.01508 0.41286
 C258 C 0.75434 -0.02358 0.43995
 N259 N 0.74918 -0.00049 0.45648
 C260 C 0.74991 -0.05218 0.44852
 C261 C 0.74508 -0.06021 0.47721
 C262 C 0.73467 -0.08659 0.48583
 C263 C 0.73478 -0.08658 0.51518
 C264 C 0.74527 -0.06019 0.52370
 N265 N 0.75155 -0.04426 0.50043
 C266 C 0.75040 -0.05218 0.55235
 H267 H 0.76917 -0.02883 0.60588
 H268 H 0.76931 0.02755 0.60596
 H269 H 0.76269 -0.02503 0.50040
 H270 H 0.72846 0.10324 0.52877
 H271 H 0.72806 0.10323 0.47245
 H272 H 0.76813 0.02781 0.39498
 H273 H 0.76809 -0.02857 0.39491
 H274 H 0.72808 -0.10411 0.52870
 H275 H 0.76278 0.02403 0.50049
 H276 H 0.72785 -0.10412 0.47238
 C277 C 0.41210 0.26504 -0.01517
 C278 C 0.41208 0.26503 0.01412
 C279 C 0.43930 0.25663 0.02262
 N280 N 0.45589 0.25144 -0.00043
 C281 C 0.43933 0.25666 -0.02356
 C282 C 0.44794 0.25222 0.05119
 C283 C 0.47678 0.24725 0.05918
 C284 C 0.48545 0.23681 0.08554
 C285 C 0.51494 0.23681 0.08552
 C286 C 0.52350 0.24725 0.05916
 N287 N 0.50011 0.25360 0.04324
 C288 C 0.55230 0.25231 0.05117
 C289 C 0.56093 0.25683 0.02265
 C290 C 0.58813 0.26535 0.01428
 C291 C 0.58814 0.26544 -0.01501
 C292 C 0.56096 0.25696 -0.02353
 N293 N 0.54439 0.25162 -0.00049
 C294 C 0.55234 0.25262 -0.05211
 C295 C 0.52352 0.24760 -0.06013
 C296 C 0.51490 0.23724 -0.08651
 C297 C 0.48541 0.23711 -0.08649
 C298 C 0.47680 0.24740 -0.06011
 N299 N 0.50016 0.25379 -0.04418
 C300 C 0.44797 0.25225 -0.05209
 H301 H 0.39407 0.27049 -0.02872
 H302 H 0.39405 0.27047 0.02759
 H303 H 0.50013 0.26482 -0.02494
 H304 H 0.47193 0.23006 0.10305
 H305 H 0.52854 0.23007 0.10303
 H306 H 0.60612 0.27083 0.02784
 H307 H 0.60615 0.27100 -0.02847
 H308 H 0.47185 0.23038 -0.10402
 H309 H 0.50008 0.26474 0.02404
 H310 H 0.52845 0.23061 -0.10404
 C311 C 0.58851 0.76170 -0.01456
 C312 C 0.58861 0.76185 0.01472
 C313 C 0.56145 0.75338 0.02326
 N314 N 0.54483 0.74796 0.00022
 C315 C 0.56130 0.75312 -0.02292
 C316 C 0.55290 0.74914 0.05185
 C317 C 0.52410 0.74418 0.05988
 C318 C 0.51553 0.73396 0.08632
 C319 C 0.48603 0.73392 0.08629
 C320 C 0.47738 0.74410 0.05983
 N321 N 0.50071 0.75035 0.04387
 C322 C 0.44855 0.74903 0.05177
 C323 C 0.43983 0.75326 0.02320
 C324 C 0.41260 0.76168 0.01473
 C325 C 0.41250 0.76149 -0.01456
 C326 C 0.43968 0.75297 -0.02298
 N327 N 0.45631 0.74786 0.00013
 C328 C 0.44824 0.74841 -0.05152
 C329 C 0.47706 0.74342 -0.05947
 C330 C 0.48566 0.73294 -0.08578
 C331 C 0.51516 0.73296 -0.08575
 C332 C 0.52378 0.74345 -0.05942
 N333 N 0.50043 0.74982 -0.04354
 C334 C 0.55260 0.74854 -0.05144
 H335 H 0.60646 0.76716 -0.02813
 H336 H 0.60664 0.76747 0.02817
 H337 H 0.50045 0.76100 -0.02439
 H338 H 0.52911 0.72740 0.10390
 H339 H 0.47250 0.72732 0.10385
 H340 H 0.39463 0.76727 0.02822
 H341 H 0.39445 0.76692 -0.02808
 H342 H 0.52871 0.72620 -0.10323
 H343 H 0.50065 0.76132 0.02456
 H344 H 0.47210 0.72615 -0.10328
 C345 C -0.01525 0.41064 0.25051
 C346 C 0.01409 0.41059 0.24877
 C347 C 0.02266 0.43896 0.24825
 N348 N -0.00054 0.45625 0.24938
 C349 C -0.02377 0.43904 0.25071
 C350 C 0.05156 0.44817 0.24758
 C351 C 0.06041 0.47717 0.24786
 C352 C 0.08858 0.48586 0.25194
 C353 C 0.08854 0.51518 0.25178
 C354 C 0.06036 0.52381 0.24762
 N355 N 0.04340 0.50047 0.24476
 C356 C 0.05146 0.55279 0.24699
 C357 C 0.02256 0.56207 0.24747
 C358 C 0.01404 0.59047 0.24771
 C359 C -0.01530 0.59051 0.24941
 C360 C -0.02387 0.56214 0.24988
 N361 N -0.00067 0.54486 0.24873
 C362 C -0.05277 0.55293 0.25064
 C363 C -0.06162 0.52393 0.25034
 C364 C -0.08981 0.51523 0.24645
 C365 C -0.08977 0.48592 0.24664
 C366 C -0.06156 0.47730 0.25065
 N367 N -0.04458 0.50064 0.25335
 C368 C -0.05266 0.44832 0.25135
 H369 H -0.02873 0.39184 0.25137
 H370 H 0.02753 0.39174 0.24813
 H371 H -0.02308 0.50066 0.25895
 H372 H 0.10725 0.47250 0.25526
 H373 H 0.10719 0.52859 0.25496
 H374 H 0.02752 0.60927 0.24693
 H375 H -0.02875 0.60936 0.25009
 H376 H -0.10844 0.47250 0.24363
 H377 H 0.02193 0.50045 0.23905
 H378 H -0.10850 0.52860 0.24325
 C379 C -0.01503 0.58788 0.73735
 C380 C 0.01441 0.58785 0.73734
 C381 C 0.02289 0.56071 0.74570
 N382 N -0.00032 0.54422 0.75090
 C383 C -0.02353 0.56076 0.74572
 C384 C 0.05160 0.55204 0.75002
 C385 C 0.05958 0.52329 0.75487
 C386 C 0.08610 0.51457 0.76515
 C387 C 0.08599 0.48519 0.76507
 C388 C 0.05941 0.47675 0.75473
 N389 N 0.04346 0.50010 0.74852
 C390 C 0.05127 0.44809 0.74963
 C391 C 0.02255 0.43957 0.74513
 C392 C 0.01404 0.41255 0.73649
 C393 C -0.01540 0.41258 0.73645
 C394 C -0.02386 0.43962 0.74506
 N395 N -0.00064 0.45605 0.75045
 C396 C -0.05256 0.44823 0.74945
 C397 C -0.06053 0.47693 0.75458
 C398 C -0.08702 0.48552 0.76492
 C399 C -0.08692 0.51490 0.76512
 C400 C -0.06036 0.52346 0.75489
 N401 N -0.04442 0.50019 0.74847
 C402 C -0.05224 0.55218 0.75008
 H403 H -0.02860 0.60586 0.73192
 H404 H 0.02799 0.60580 0.73189
 H405 H -0.02509 0.50022 0.73745
 H406 H 0.10378 0.52798 0.77185
 H407 H 0.10359 0.47159 0.77167
 H408 H 0.02760 0.39463 0.73091
 H409 H -0.02899 0.39470 0.73081
 H410 H -0.10450 0.52842 0.77183
 H411 H 0.02410 0.50020 0.73748
 H412 H -0.10469 0.47203 0.77146
 C413 C 0.38372 0.25151 0.11683
 C414 C 0.38321 0.23082 0.09525
 C415 C 0.40410 0.23103 0.07386
 C416 C 0.34420 0.25115 0.15729
 C417 C 0.42611 0.27266 0.09555
 C418 C 0.40522 0.27241 0.11694
 C419 C 0.36221 0.25130 0.13884
 C420 C 0.42566 0.25199 0.07384
 H421 H 0.36670 0.21453 0.09498
 H422 H 0.40353 0.21485 0.05734
 H423 H 0.44260 0.28896 0.09584
 H424 H 0.40582 0.28851 0.13353
 C425 C 0.61737 0.74907 0.11748
 C426 C 0.59580 0.76992 0.11745
 C427 C 0.57483 0.76995 0.09607
 C428 C 0.65706 0.74914 0.15792
 C429 C 0.59690 0.72822 0.07467
 C430 C 0.61787 0.72822 0.09605
 C431 C 0.63898 0.74909 0.13948
 C432 C 0.57526 0.74912 0.07451
 H433 H 0.59520 0.78614 0.13392
 H434 H 0.55828 0.78621 0.09625
 H435 H 0.59745 0.71193 0.05827
 H436 H 0.63444 0.71198 0.09589
 C437 C 0.61667 0.25229 -0.11765
 C438 C 0.59510 0.27314 -0.11777
 C439 C 0.57417 0.27326 -0.09642
 C440 C 0.65626 0.25209 -0.15806
 C441 C 0.59628 0.23161 -0.07475
 C442 C 0.61720 0.23152 -0.09611
 C443 C 0.63822 0.25219 -0.13964
 C444 C 0.57465 0.25252 -0.07474
 H445 H 0.59447 0.28929 -0.13435
 H446 H 0.55763 0.28952 -0.09672
 H447 H 0.59687 0.21538 -0.05826
 H448 H 0.63377 0.21527 -0.09583
 C449 C 0.38366 0.74761 -0.11703
 C450 C 0.38324 0.72698 -0.09536
 C451 C 0.40426 0.72719 -0.07403
 C452 C 0.34384 0.74742 -0.15735
 C453 C 0.42625 0.76870 -0.09598
 C454 C 0.40522 0.76845 -0.11731
 C455 C 0.36198 0.74745 -0.13896
 C456 C 0.42587 0.74811 -0.07416
 H457 H 0.36667 0.71074 -0.09496
 H458 H 0.40374 0.71108 -0.05743
 H459 H 0.44277 0.78497 -0.09639
 H460 H 0.40576 0.78451 -0.13397
 C461 C 0.11732 0.38396 0.24915
 C462 C 0.11136 0.39882 0.22384
 C463 C 0.08993 0.41974 0.22334
 C464 C 0.15768 0.34420 0.25007
 C465 C 0.08039 0.41109 0.27349
 C466 C 0.10181 0.39016 0.27397
 C467 C 0.13930 0.36234 0.24964
 C468 C 0.07428 0.42592 0.24813
 H469 H 0.12325 0.39421 0.20454
 H470 H 0.08548 0.43110 0.20366
 H471 H 0.06853 0.41574 0.29280
 H472 H 0.10626 0.37883 0.29366
 C473 C 0.11754 0.61615 0.75024
 C474 C 0.11755 0.59469 0.72942
 C475 C 0.09610 0.57380 0.72938
 C476 C 0.15785 0.65596 0.74990
 C477 C 0.07459 0.59570 0.77108
 C478 C 0.09604 0.61659 0.77109
 C479 C 0.13950 0.63779 0.75011
 C480 C 0.07443 0.57421 0.75016
 H481 H 0.13407 0.59415 0.71319
 H482 H 0.09628 0.55738 0.71310
 H483 H 0.05810 0.59624 0.78734
 H484 H 0.09584 0.63308 0.78731
 C485 C -0.11854 0.61713 0.25026
 C486 C -0.10333 0.61111 0.22521
 C487 C -0.08191 0.59018 0.22529
 C488 C -0.15877 0.65704 0.25034
 C489 C -0.09087 0.58116 0.27548
 C490 C -0.11229 0.60209 0.27538
 C491 C -0.14046 0.63882 0.25024
 C492 C -0.07550 0.57517 0.25046
 H493 H -0.10800 0.62260 0.20566
 H494 H -0.07027 0.58567 0.20581
 H495 H -0.08618 0.56967 0.29502
 H496 H -0.12394 0.60656 0.29486
 C497 C -0.11840 0.38402 0.74920
 C498 C -0.11853 0.40569 0.72855
 C499 C -0.09712 0.42662 0.72867
 C500 C -0.15865 0.34416 0.74867
 C501 C -0.07541 0.40435 0.77018
 C502 C -0.09682 0.38342 0.77003
 C503 C -0.14033 0.36236 0.74894
 C504 C -0.07537 0.42604 0.74944
 H505 H -0.13513 0.40637 0.71235
 H506 H -0.09740 0.44321 0.71253
 H507 H -0.05885 0.40367 0.78642
 H508 H -0.09652 0.36677 0.78612
 C509 C 0.25119 0.11682 0.38393
 C510 C 0.23037 0.09525 0.38341
 C511 C 0.23044 0.07390 0.40432
 C512 C 0.25118 0.15707 0.34422
 C513 C 0.27216 0.09564 0.42638
 C514 C 0.27206 0.11699 0.40547
 C515 C 0.25117 0.13874 0.36233
 C516 C 0.25138 0.07392 0.42591
 H517 H 0.21411 0.09493 0.36686
 H518 H 0.21418 0.05737 0.40373
 H519 H 0.28845 0.09596 0.44289
 H520 H 0.28826 0.13358 0.40608
 C521 C 0.75032 0.11684 0.61653
 C522 C 0.77121 0.11698 0.59507
 C523 C 0.77134 0.09560 0.57424
 C524 C 0.75008 0.15726 0.65598
 C525 C 0.72962 0.07386 0.59621
 C526 C 0.72952 0.09524 0.61704
 C527 C 0.75020 0.13884 0.63799
 C528 C 0.75057 0.07387 0.57469
 H529 H 0.78738 0.13360 0.59446
 H530 H 0.78763 0.09592 0.55778
 H531 H 0.71337 0.05733 0.59678
 H532 H 0.71324 0.09494 0.63352
 C533 C 0.25023 -0.11791 0.61634
 C534 C 0.27127 -0.11806 0.59503
 C535 C 0.27151 -0.09671 0.57413
 C536 C 0.25005 -0.15813 0.65607
 C537 C 0.22959 -0.07499 0.59572
 C538 C 0.22938 -0.09634 0.61663
 C539 C 0.25009 -0.13981 0.63795
 C540 C 0.25071 -0.07499 0.57437
 H541 H 0.28749 -0.13464 0.59460
 H542 H 0.28794 -0.09702 0.55780
 H543 H 0.21332 -0.05847 0.59614
 H544 H 0.21299 -0.09604 0.63300
 C545 C 0.74888 -0.11756 0.38423
 C546 C 0.72807 -0.09595 0.38395
 C547 C 0.72836 -0.07469 0.40490
 C548 C 0.74855 -0.15762 0.34442
 C549 C 0.77026 -0.09657 0.42653
 C550 C 0.76994 -0.11784 0.40559
 C551 C 0.74867 -0.13937 0.36258
 C552 C 0.74951 -0.07481 0.42629
 H553 H 0.71166 -0.09555 0.36755
 H554 H 0.71212 -0.05812 0.40448
 H555 H 0.78671 -0.09698 0.44289
 H556 H 0.78613 -0.13446 0.40601
 C557 C 0.61687 0.74808 -0.11691
 C558 C 0.59534 0.76896 -0.11706
 C559 C 0.57439 0.76909 -0.09574
 C560 C 0.65664 0.74817 -0.15707
 C561 C 0.59641 0.72738 -0.07409
 C562 C 0.61736 0.72728 -0.09541
 C563 C 0.63850 0.74808 -0.13877
 C564 C 0.57484 0.74834 -0.07408
 H565 H 0.59477 0.78515 -0.13361
 H566 H 0.55789 0.78539 -0.09603
 H567 H 0.59696 0.71115 -0.05759
 H568 H 0.63391 0.71102 -0.09512
 C569 C 0.38343 0.25124 -0.11751
 C570 C 0.38327 0.23041 -0.09603
 C571 C 0.40430 0.23070 -0.07472
 C572 C 0.34353 0.25071 -0.15766
 C573 C 0.42574 0.27268 -0.09633
 C574 C 0.40471 0.27236 -0.11764
 C575 C 0.36174 0.25096 -0.13937
 C576 C 0.42563 0.25188 -0.07471
 H577 H 0.36692 0.21396 -0.09575
 H578 H 0.40401 0.21444 -0.05826
 H579 H 0.44207 0.28915 -0.09661
 H580 H 0.40503 0.28856 -0.13417
 C581 C 0.38430 0.74903 0.11727
 C582 C 0.38388 0.72802 0.09601
 C583 C 0.40481 0.72797 0.07468
 C584 C 0.34455 0.74927 0.15745
 C585 C 0.42667 0.76997 0.09583
 C586 C 0.40574 0.76998 0.11716
 C587 C 0.36269 0.74914 0.13915
 C588 C 0.42630 0.74900 0.07442
 H589 H 0.36740 0.71170 0.09592
 H590 H 0.40432 0.71158 0.05837
 H591 H 0.44312 0.78632 0.09591
 H592 H 0.40626 0.78632 0.13352
 C593 C 0.61644 0.25158 0.11698
 C594 C 0.59503 0.27258 0.11694
 C595 C 0.57418 0.27285 0.09547
 C596 C 0.65580 0.25115 0.15765
 C597 C 0.59607 0.23106 0.07399
 C598 C 0.61692 0.23082 0.09546
 C599 C 0.63787 0.25132 0.13910
 C600 C 0.57458 0.25211 0.07384
 H601 H 0.59446 0.28873 0.13349
 H602 H 0.55773 0.28921 0.09565
 H603 H 0.59658 0.21483 0.05752
 H604 H 0.63338 0.21446 0.09532
 C605 C -0.11781 0.61657 0.75052
 C606 C -0.09633 0.61674 0.77146
 C607 C -0.07499 0.59575 0.77137
 C608 C -0.15786 0.65659 0.75034
 C609 C -0.09658 0.57429 0.72941
 C610 C -0.11792 0.59528 0.72953
 C611 C -0.13963 0.63831 0.75047
 C612 C -0.07494 0.57443 0.75029
 H613 H -0.09607 0.63311 0.78780
 H614 H -0.05851 0.59607 0.78770
 H615 H -0.09683 0.55798 0.71302
 H616 H -0.13444 0.59496 0.71324
 C617 C -0.11835 0.38422 0.25164
 C618 C -0.11189 0.39923 0.27669
 C619 C -0.09047 0.42013 0.27658
 C620 C -0.15861 0.34446 0.25203
 C621 C -0.08195 0.41113 0.22631
 C622 C -0.10336 0.39023 0.22645
 C623 C -0.14027 0.36261 0.25182
 C624 C -0.07535 0.42612 0.25141
 H625 H -0.12337 0.39476 0.29628
 H626 H -0.08562 0.43162 0.29606
 H627 H -0.07049 0.41565 0.20673
 H628 H -0.10822 0.37875 0.20696
 C629 C 0.11673 0.38358 0.74974
 C630 C 0.11687 0.40508 0.72892
 C631 C 0.09558 0.42612 0.72892
 C632 C 0.15670 0.34350 0.74945
 C633 C 0.07397 0.40428 0.77065
 C634 C 0.09526 0.38324 0.77062
 C635 C 0.13851 0.36180 0.74960
 C636 C 0.07395 0.42581 0.74974
 H637 H 0.13339 0.40553 0.71268
 H638 H 0.09585 0.44259 0.71266
 H639 H 0.05749 0.40383 0.78692
 H640 H 0.09497 0.36671 0.78682
 C641 C 0.11711 0.61692 0.24825
 C642 C 0.11106 0.60213 0.22296
 C643 C 0.08965 0.58122 0.22255
 C644 C 0.15734 0.65671 0.24901
 C645 C 0.08034 0.58977 0.27276
 C646 C 0.10174 0.61069 0.27314
 C647 C 0.13903 0.63855 0.24864
 C648 C 0.07414 0.57501 0.24743
 H649 H 0.12285 0.60679 0.20360
 H650 H 0.08511 0.56990 0.20290
 H651 H 0.06858 0.58508 0.29212
 H652 H 0.10628 0.62199 0.29281
 C653 C 0.74975 -0.11775 0.61645
 C654 C 0.77076 -0.11791 0.59512
 C655 C 0.77097 -0.09655 0.57424
 C656 C 0.74951 -0.15800 0.65607
 C657 C 0.72909 -0.07483 0.59594
 C658 C 0.72891 -0.09619 0.61681
 C659 C 0.74961 -0.13967 0.63800
 C660 C 0.75017 -0.07484 0.57455
 H661 H 0.78697 -0.13450 0.59465
 H662 H 0.78736 -0.09685 0.55788
 H663 H 0.71282 -0.05830 0.59638
 H664 H 0.71255 -0.09589 0.63321
 C665 C 0.25137 -0.11760 0.38421
 C666 C 0.23040 -0.09616 0.38375
 C667 C 0.23040 -0.07486 0.40464
 C668 C 0.25149 -0.15767 0.34448
 C669 C 0.27236 -0.09639 0.42656
 C670 C 0.27232 -0.11769 0.40566
 C671 C 0.25143 -0.13943 0.36262
 C672 C 0.25143 -0.07480 0.42614
 H673 H 0.21408 -0.09591 0.36726
 H674 H 0.21404 -0.05842 0.40411
 H675 H 0.28871 -0.09663 0.44301
 H676 H 0.28864 -0.13419 0.40621
 C677 C 0.74890 0.11674 0.38450
 C678 C 0.72796 0.09528 0.38431
 C679 C 0.72827 0.07394 0.40521
 C680 C 0.74846 0.15698 0.34487
 C681 C 0.77047 0.09548 0.42658
 C682 C 0.77013 0.11682 0.40568
 C683 C 0.74863 0.13864 0.36294
 C684 C 0.74958 0.07388 0.42644
 H685 H 0.71143 0.09505 0.36803
 H686 H 0.71194 0.05749 0.40489
 H687 H 0.78704 0.09572 0.44283
 H688 H 0.78641 0.13333 0.40602
 C689 C 0.25032 0.11662 0.61600
 C690 C 0.27147 0.11666 0.59480
 C691 C 0.27167 0.09532 0.57394
 C692 C 0.25019 0.15677 0.65565
 C693 C 0.22952 0.07387 0.59538
 C694 C 0.22934 0.09521 0.61624
 C695 C 0.25022 0.13848 0.63756
 C696 C 0.25074 0.07376 0.57414
 H697 H 0.28779 0.13313 0.59443
 H698 H 0.28817 0.09552 0.55768
 H699 H 0.21315 0.05745 0.59574
 H700 H 0.21288 0.09500 0.63254
   
