data_POSCAR
  _audit_creation_date              2014-09-24
  _audit_creation_method            'ToBaCCo'
  _symmetry_space_group_name_H-M    'P1'
  _symmetry_Int_Tables_number       1
  _symmetry_cell_setting            triclinic
  loop_
  _symmetry_equiv_pos_as_xyz
 x,y,z
_cell_length_a 48.9891
_cell_length_b 49.1681
_cell_length_c 30.8623
_cell_angle_alpha 89.924900
_cell_angle_beta 90.066900
_cell_angle_gamma 120.772200
loop_
  _atom_site_label
  _atom_site_type_symbol
  _atom_site_fract_x
  _atom_site_fract_y
  _atom_site_fract_z
C1 C 0.46312 0.91531 0.49948
 C2 C 0.46666 0.93153 0.53817
 C3 C 0.48140 0.96460 0.53803
 C4 C 0.49443 0.98216 0.49951
 C5 C 0.49131 0.96523 0.46101
 C6 C 0.47503 0.93210 0.46087
 C7 C 0.51105 1.01773 0.49949
 C8 C 0.51420 1.03470 0.46094
 C9 C 0.53044 1.06786 0.46080
 C10 C 0.54224 1.08458 0.49951
 C11 C 0.53865 1.06829 0.53815
 C12 C 0.52399 1.03525 0.53802
 H13 H 0.45108 0.88965 0.49934
 H14 H 0.48235 0.97627 0.56814
 H15 H 0.50148 0.97739 0.43083
 H16 H 0.50403 1.02248 0.43079
 H17 H 0.55422 1.11023 0.49964
 H18 H 0.52303 1.02364 0.56822
 C19 C 0.08509 0.54387 0.49986
 C20 C 0.06853 0.53153 0.53860
 C21 C 0.03523 0.51452 0.53863
 C22 C 0.01794 0.51105 0.50025
 C23 C 0.03527 0.52451 0.46170
 C24 C 0.06849 0.54001 0.46138
 C25 C -0.01778 0.49361 0.50041
 C26 C -0.03535 0.48024 0.46198
 C27 C -0.06860 0.46478 0.46198
 C28 C -0.08493 0.46090 0.50073
 C29 C -0.06811 0.47315 0.53927
 C30 C -0.03484 0.49009 0.53899
 H31 H 0.11087 0.55648 0.49959
 H32 H 0.02315 0.50400 0.56877
 H33 H 0.02335 0.52330 0.43164
 H34 H -0.02352 0.48151 0.43182
 H35 H -0.11071 0.44835 0.50097
 H36 H -0.02266 0.50049 0.56909
 C37 C 0.45480 0.53941 0.50058
 C38 C 0.46714 0.53542 0.53932
 C39 C 0.48446 0.51991 0.53928
 C40 C 0.48824 0.50657 0.50081
 C41 C 0.47479 0.51019 0.46224
 C42 C 0.45899 0.52720 0.46201
 C43 C 0.50601 0.48908 0.50091
 C44 C 0.51952 0.48548 0.46246
 C45 C 0.53531 0.46846 0.46245
 C46 C 0.53939 0.45621 0.50112
 C47 C 0.52699 0.46018 0.53969
 C48 C 0.50971 0.47571 0.53947
 H49 H 0.44196 0.55201 0.50037
 H50 H 0.49498 0.51858 0.56944
 H51 H 0.47625 0.49984 0.43210
 H52 H 0.51814 0.49586 0.43225
 H53 H 0.55220 0.44359 0.50121
 H54 H 0.49920 0.47700 0.56959
 O55 O 0.38180 0.65819 -0.03764
 O56 O 0.38216 0.71067 -0.05085
 C57 C 0.36744 0.72497 -0.05937
 O58 O 0.34371 0.72131 -0.03789
 O59 O 0.29061 0.66836 -0.05087
 C60 C 0.27592 0.63906 -0.05930
 O61 O 0.27925 0.61895 -0.03773
 O62 O 0.33199 0.61939 -0.05065
 C63 C 0.36140 0.63438 -0.05910
 O64 O 0.38076 0.66676 0.04871
 O65 O 0.38390 0.72063 0.03551
 C66 C 0.36448 0.72520 0.05687
 O67 O 0.33509 0.71163 0.04850
 O68 O 0.28064 0.66006 0.03552
 C69 C 0.27573 0.63593 0.05700
 O70 O 0.28897 0.62018 0.04868
 O71 O 0.34028 0.61788 0.03576
 C72 C 0.36463 0.63747 0.05716
 Cr73 Cr 0.38040 0.68821 -0.00106
 Cr74 Cr 0.31334 0.68944 -0.00117
 Cr75 Cr 0.31105 0.62085 -0.00098
 O76 O 0.33493 0.66617 -0.00104
 O77 O 0.61700 0.33989 -0.03532
 O78 O 0.61870 0.28850 -0.04882
 C79 C 0.63427 0.27509 -0.05734
 O80 O 0.65832 0.27954 -0.03582
 O81 O 0.71047 0.33353 -0.04828
 C82 C 0.72437 0.36285 -0.05648
 O83 O 0.72001 0.38230 -0.03497
 O84 O 0.66628 0.37987 -0.04809
 C85 C 0.63688 0.36413 -0.05658
 O86 O 0.61827 0.33112 0.05098
 O87 O 0.61714 0.27828 0.03746
 C88 C 0.63708 0.27449 0.05891
 O89 O 0.66651 0.28895 0.05068
 O90 O 0.72002 0.34161 0.03820
 C91 C 0.72398 0.36532 0.05979
 O92 O 0.70994 0.38031 0.05138
 O93 O 0.65759 0.38064 0.03829
 C94 C 0.63357 0.36039 0.05962
 Cr95 Cr 0.61954 0.31035 0.00108
 Cr96 Cr 0.68794 0.31176 0.00120
 Cr97 Cr 0.68758 0.37903 0.00164
 O98 O 0.66503 0.33371 0.00130
 C99 C 0.45664 0.91511 -0.42389
 C100 C 0.44842 0.90030 -0.39050
 C101 C 0.43932 0.88223 -0.35095
 C102 C 0.46251 0.88167 -0.32508
 C103 C 0.45374 0.86310 -0.28760
 C104 C 0.42159 0.84476 -0.27551
 C105 C 0.39848 0.84578 -0.30149
 C106 C 0.40732 0.86438 -0.33897
 C107 C 0.41219 0.82414 -0.23655
 C108 C 0.38516 0.79354 -0.23751
 C109 C 0.37663 0.77386 -0.20117
 C110 C 0.39495 0.78445 -0.16339
 C111 C 0.42182 0.81489 -0.16199
 C112 C 0.43042 0.83462 -0.19833
 C113 C 0.38602 0.76399 -0.12617
 C114 C 0.37795 0.74642 -0.09541
 H115 H 0.48734 0.89526 -0.33419
 H116 H 0.47204 0.86250 -0.26864
 H117 H 0.37359 0.83225 -0.29274
 H118 H 0.38918 0.86465 -0.35878
 H119 H 0.37091 0.78460 -0.26661
 H120 H 0.35581 0.75032 -0.20263
 H121 H 0.43611 0.82336 -0.13284
 H122 H 0.45114 0.85817 -0.19641
 C123 C 0.08493 0.53707 -0.42359
 C124 C 0.09989 0.54301 -0.39036
 C125 C 0.11830 0.55130 -0.35110
 C126 C 0.14737 0.55232 -0.35044
 C127 C 0.16626 0.56234 -0.31318
 C128 C 0.15634 0.57155 -0.27607
 C129 C 0.12683 0.56994 -0.27682
 C130 C 0.10798 0.55993 -0.31414
 C131 C 0.17706 0.58352 -0.23715
 C132 C 0.16405 0.57501 -0.19525
 C133 C 0.18367 0.58653 -0.15872
 C134 C 0.21648 0.60674 -0.16361
 C135 C 0.22961 0.61538 -0.20513
 C136 C 0.21007 0.60389 -0.24166
 C137 C 0.23685 0.61826 -0.12620
 C138 C 0.25442 0.62786 -0.09535
 H139 H 0.15561 0.54575 -0.37890
 H140 H 0.18864 0.56289 -0.31341
 H141 H 0.11871 0.57722 -0.24898
 H142 H 0.08562 0.55945 -0.31442
 H143 H 0.13879 0.55912 -0.19074
 H144 H 0.17328 0.57956 -0.12672
 H145 H 0.25497 0.63104 -0.20928
 H146 H 0.22074 0.61127 -0.27342
 C147 C 0.46131 0.54573 -0.42277
 C148 C 0.45517 0.55418 -0.38940
 C149 C 0.44671 0.56356 -0.34988
 C150 C 0.42629 0.54052 -0.32029
 C151 C 0.41665 0.54933 -0.28291
 C152 C 0.42729 0.58138 -0.27466
 C153 C 0.44817 0.60442 -0.30434
 C154 C 0.45779 0.59554 -0.34171
 C155 C 0.41601 0.59063 -0.23586
 C156 C 0.40790 0.61420 -0.23889
 C157 C 0.39670 0.62252 -0.20264
 C158 C 0.39344 0.60745 -0.16287
 C159 C 0.40152 0.58404 -0.15944
 C160 C 0.41272 0.57565 -0.19569
 C161 C 0.38192 0.61621 -0.12571
 C162 C 0.37241 0.62412 -0.09502
 H163 H 0.41742 0.51567 -0.32644
 H164 H 0.40025 0.53101 -0.26102
 H165 H 0.45711 0.62930 -0.29861
 H166 H 0.47359 0.61357 -0.36442
 H167 H 0.40970 0.62583 -0.26946
 H168 H 0.39046 0.64064 -0.20567
 H169 H 0.39921 0.57231 -0.12876
 H170 H 0.41910 0.55768 -0.19221
 C171 C 0.54903 0.08556 -0.42173
 C172 C 0.55697 0.10033 -0.38833
 C173 C 0.56570 0.11834 -0.34878
 C174 C 0.54234 0.11930 -0.32390
 C175 C 0.55076 0.13779 -0.28642
 C176 C 0.58273 0.15565 -0.27331
 C177 C 0.60601 0.15425 -0.29830
 C178 C 0.59752 0.13572 -0.33580
 C179 C 0.59178 0.17617 -0.23433
 C180 C 0.61914 0.20656 -0.23469
 C181 C 0.62730 0.22618 -0.19839
 C182 C 0.60827 0.21575 -0.16124
 C183 C 0.58109 0.18552 -0.16044
 C184 C 0.57286 0.16584 -0.19674
 C185 C 0.61674 0.23619 -0.12410
 C186 C 0.62438 0.25372 -0.09338
 H187 H 0.51765 0.10607 -0.33380
 H188 H 0.53234 0.13870 -0.26826
 H189 H 0.63076 0.16741 -0.28876
 H190 H 0.61580 0.13515 -0.35482
 H191 H 0.63393 0.21539 -0.26331
 H192 H 0.64836 0.24957 -0.19938
 H193 H 0.56625 0.17716 -0.13179
 H194 H 0.55187 0.14244 -0.19528
 C195 C 0.91485 0.46729 -0.42056
 C196 C 0.90018 0.46129 -0.38712
 C197 C 0.88219 0.45299 -0.34751
 C198 C 0.89298 0.44447 -0.31087
 C199 C 0.87461 0.43455 -0.27315
 C200 C 0.84514 0.43301 -0.27162
 C201 C 0.83472 0.44208 -0.30845
 C202 C 0.85312 0.45195 -0.34614
 C203 C 0.82498 0.42127 -0.23220
 C204 C 0.80811 0.43566 -0.21783
 C205 C 0.78839 0.42396 -0.18148
 C206 C 0.78526 0.39777 -0.15902
 C207 C 0.80213 0.38344 -0.17282
 C208 C 0.82188 0.39511 -0.20914
 C209 C 0.76422 0.38526 -0.12239
 C210 C 0.74623 0.37490 -0.09207
 H211 H 0.91543 0.44513 -0.31161
 H212 H 0.88346 0.42812 -0.24517
 H213 H 0.81197 0.44075 -0.30850
 H214 H 0.84443 0.45827 -0.37443
 H215 H 0.81029 0.45605 -0.23456
 H216 H 0.77547 0.43525 -0.17104
 H217 H 0.79977 0.36307 -0.15577
 H218 H 0.83420 0.38324 -0.21974
 C219 C 0.53304 0.44923 -0.42018
 C220 C 0.53918 0.44075 -0.38679
 C221 C 0.54764 0.43130 -0.34726
 C222 C 0.55755 0.45135 -0.31118
 C223 C 0.56753 0.44306 -0.27355
 C224 C 0.56774 0.41458 -0.27154
 C225 C 0.55732 0.39438 -0.30779
 C226 C 0.54738 0.40274 -0.34540
 C227 C 0.57945 0.40627 -0.23221
 C228 C 0.56405 0.37489 -0.21694
 C229 C 0.57565 0.36695 -0.18064
 C230 C 0.60276 0.39022 -0.15913
 C231 C 0.61811 0.42155 -0.17383
 C232 C 0.60654 0.42955 -0.21011
 C233 C 0.61509 0.38173 -0.12252
 C234 C 0.62522 0.37407 -0.09220
 H235 H 0.55790 0.47355 -0.31231
 H236 H 0.57503 0.45890 -0.24601
 H237 H 0.55760 0.37251 -0.30748
 H238 H 0.53998 0.38716 -0.37325
 H239 H 0.54295 0.35652 -0.23292
 H240 H 0.56356 0.34263 -0.16949
 H241 H 0.63919 0.43972 -0.15752
 H242 H 0.61917 0.45382 -0.22141
 C243 C 0.91491 0.45444 0.42410
 C244 C 0.90004 0.44597 0.39073
 C245 C 0.88191 0.43658 0.35119
 C246 C 0.88408 0.45967 0.32249
 C247 C 0.86540 0.45079 0.28505
 C248 C 0.84422 0.41863 0.27583
 C249 C 0.84251 0.39557 0.30462
 C250 C 0.86122 0.40452 0.34207
 C251 C 0.82347 0.40925 0.23693
 C252 C 0.79154 0.38463 0.23940
 C253 C 0.77180 0.37620 0.20307
 C254 C 0.78364 0.39220 0.16379
 C255 C 0.81539 0.41664 0.16090
 C256 C 0.83519 0.42514 0.19722
 C257 C 0.76312 0.38341 0.12658
 C258 C 0.74549 0.37551 0.09582
 H259 H 0.89988 0.48458 0.32939
 H260 H 0.86697 0.46911 0.26387
 H261 H 0.82674 0.37062 0.29814
 H262 H 0.85935 0.38645 0.36408
 H263 H 0.78167 0.37226 0.26962
 H264 H 0.74724 0.35729 0.20569
 H265 H 0.82483 0.42912 0.13059
 H266 H 0.85975 0.44394 0.19416
 C267 C 0.53575 0.08399 0.42283
 C268 C 0.54147 0.09865 0.38941
 C269 C 0.54946 0.11664 0.34985
 C270 C 0.55798 0.10610 0.31302
 C271 C 0.56761 0.12448 0.27533
 C272 C 0.56887 0.15372 0.27401
 C273 C 0.55982 0.16389 0.31103
 C274 C 0.55023 0.14548 0.34869
 C275 C 0.58032 0.17390 0.23462
 C276 C 0.56556 0.19050 0.22054
 C277 C 0.57696 0.21022 0.18421
 C278 C 0.60323 0.21363 0.16145
 C279 C 0.61792 0.19703 0.17495
 C280 C 0.60655 0.17727 0.21127
 C281 C 0.61541 0.23466 0.12481
 C282 C 0.62546 0.25265 0.09449
 H283 H 0.55753 0.08384 0.31360
 H284 H 0.57404 0.11583 0.24721
 H285 H 0.56095 0.18646 0.31125
 H286 H 0.54392 0.15398 0.37712
 H287 H 0.54510 0.18811 0.23750
 H288 H 0.56538 0.22294 0.17399
 H289 H 0.63835 0.19959 0.15768
 H290 H 0.61869 0.16516 0.22163
 C291 C 0.54642 0.46249 0.42244
 C292 C 0.55504 0.45638 0.38920
 C293 C 0.56468 0.44792 0.34991
 C294 C 0.54309 0.43393 0.31575
 C295 C 0.55174 0.42393 0.27856
 C296 C 0.58213 0.42771 0.27513
 C297 C 0.60384 0.44224 0.30939
 C298 C 0.59514 0.45224 0.34654
 C299 C 0.59088 0.41583 0.23648
 C300 C 0.60826 0.40042 0.24119
 C301 C 0.61622 0.38890 0.20495
 C302 C 0.60693 0.39258 0.16352
 C303 C 0.58964 0.40789 0.15843
 C304 C 0.58163 0.41942 0.19466
 C305 C 0.61557 0.38099 0.12633
 C306 C 0.62339 0.37143 0.09561
 H307 H 0.51937 0.43027 0.31816
 H308 H 0.53437 0.41248 0.25300
 H309 H 0.62755 0.44588 0.30747
 H310 H 0.61203 0.46300 0.37282
 H311 H 0.61531 0.39686 0.27296
 H312 H 0.62958 0.37706 0.20926
 H313 H 0.58247 0.41100 0.12647
 H314 H 0.56854 0.43147 0.18994
 C315 C 0.08567 0.55105 0.42122
 C316 C 0.10043 0.55960 0.38779
 C317 C 0.11847 0.56912 0.34821
 C318 C 0.14778 0.59744 0.34656
 C319 C 0.16618 0.60581 0.30889
 C320 C 0.15550 0.58588 0.27237
 C321 C 0.12580 0.55766 0.27417
 C322 C 0.10743 0.54935 0.31187
 C323 C 0.17563 0.59417 0.23298
 C324 C 0.17828 0.57076 0.21041
 C325 C 0.19796 0.57873 0.17407
 C326 C 0.21518 0.61013 0.15977
 C327 C 0.21250 0.63354 0.18175
 C328 C 0.19286 0.62564 0.21811
 C329 C 0.23610 0.61855 0.12308
 C330 C 0.25399 0.62613 0.09270
 H331 H 0.15666 0.61280 0.37462
 H332 H 0.18911 0.62748 0.30873
 H333 H 0.11676 0.54203 0.24642
 H334 H 0.08479 0.52734 0.31283
 H335 H 0.16568 0.54642 0.22140
 H336 H 0.19997 0.56045 0.15740
 H337 H 0.22570 0.65792 0.17091
 H338 H 0.19102 0.64411 0.23445
 C339 C 0.46937 0.91512 0.42074
 C340 C 0.46348 0.90049 0.38732
 C341 C 0.45525 0.88255 0.34774
 C342 C 0.44735 0.89359 0.31077
 C343 C 0.43743 0.87527 0.27307
 C344 C 0.43525 0.84561 0.27188
 C345 C 0.44370 0.83494 0.30904
 C346 C 0.45359 0.85329 0.34672
 C347 C 0.42344 0.82550 0.23250
 C348 C 0.43742 0.80815 0.21863
 C349 C 0.42563 0.78848 0.18232
 C350 C 0.39974 0.78588 0.15938
 C351 C 0.38582 0.80323 0.17267
 C352 C 0.39759 0.82293 0.20896
 C353 C 0.38711 0.76490 0.12278
 C354 C 0.37665 0.74697 0.09248
 H355 H 0.44848 0.91618 0.31124
 H356 H 0.43147 0.88429 0.24484
 H357 H 0.44187 0.81204 0.30936
 H358 H 0.45941 0.84441 0.37526
 H359 H 0.45758 0.80991 0.23574
 H360 H 0.43662 0.77519 0.17227
 H361 H 0.36568 0.80128 0.15525
 H362 H 0.38602 0.83563 0.21916
 C363 C 0.44800 0.53318 0.42185
 C364 C 0.43952 0.53928 0.38841
 C365 C 0.43010 0.54769 0.34880
 C366 C 0.40203 0.54859 0.34728
 C367 C 0.39380 0.55853 0.30958
 C368 C 0.41362 0.56779 0.27289
 C369 C 0.44159 0.56641 0.27457
 C370 C 0.44976 0.55643 0.31231
 C371 C 0.40550 0.57954 0.23344
 C372 C 0.42923 0.60581 0.21054
 C373 C 0.42144 0.61744 0.17414
 C374 C 0.38989 0.60297 0.16010
 C375 C 0.36616 0.57667 0.18242
 C376 C 0.37388 0.56501 0.21883
 C377 C 0.38166 0.61539 0.12335
 C378 C 0.37424 0.62563 0.09292
 H379 H 0.38676 0.54211 0.37546
 H380 H 0.37234 0.55974 0.30950
 H381 H 0.45713 0.57300 0.24670
 H382 H 0.47158 0.55588 0.31317
 H383 H 0.45371 0.61778 0.22131
 H384 H 0.43998 0.63789 0.15721
 H385 H 0.34166 0.56526 0.17178
 H386 H 0.35516 0.54454 0.23544
   
