data_POSCAR
  _audit_creation_date              2014-09-24
  _audit_creation_method            'ToBaCCo'
  _symmetry_space_group_name_H-M    'P1'
  _symmetry_Int_Tables_number       1
  _symmetry_cell_setting            triclinic
  loop_
  _symmetry_equiv_pos_as_xyz
 x,y,z
_cell_length_a 44.9880
_cell_length_b 45.4276
_cell_length_c 45.2623
_cell_angle_alpha 90.653700
_cell_angle_beta 89.838800
_cell_angle_gamma 89.787800
loop_
  _atom_site_label
  _atom_site_type_symbol
  _atom_site_fract_x
  _atom_site_fract_y
  _atom_site_fract_z
Si1 Si 0.24973 0.49727 1.00145
 Si2 Si 0.75076 0.50161 -0.00234
 Si3 Si -0.00110 0.25064 0.49990
 Si4 Si 1.00046 0.75054 0.49915
 Si5 Si 0.50117 0.00011 0.24846
 Si6 Si 0.49822 -0.00128 0.75114
 C7 C 0.29628 0.02278 0.46549
 H8 H 0.29672 0.03939 0.48280
 C9 C 0.31686 0.02376 0.44239
 H10 H 0.33319 0.04122 0.44181
 C11 C 0.27502 -0.02079 0.44548
 H12 H 0.25908 -0.03841 0.44707
 C13 C 0.29523 -0.02062 0.42197
 H14 H 0.29463 -0.03798 0.40537
 N15 N 0.27581 0.00083 0.46655
 C16 C 0.20399 0.03568 0.52165
 H17 H 0.20299 0.01883 0.53832
 C18 C 0.18349 0.05882 0.52217
 H19 H 0.16669 0.05992 0.53934
 C20 C 0.22643 0.05434 0.47825
 H21 H 0.24274 0.05216 0.46082
 C22 C 0.20633 0.07787 0.47796
 H23 H 0.20740 0.09389 0.46045
 Zn24 Zn 0.25012 0.00044 0.49969
 N25 N 0.22496 0.03390 0.49997
 C26 C 0.27279 0.02183 0.55457
 N27 N 0.27442 0.00003 0.53372
 C28 C 0.29481 -0.02206 0.53568
 C29 C 0.31439 -0.02302 0.55951
 C30 C 0.29201 0.02171 0.57877
 C31 C 0.20507 -0.03471 0.47618
 C32 C 0.18471 -0.05781 0.47498
 C33 C 0.20587 -0.07689 0.51994
 C34 C 0.22584 -0.05341 0.52032
 N35 N 0.22516 -0.03298 0.49855
 H36 H 0.25695 0.03957 0.55226
 H37 H 0.29596 -0.03881 0.51852
 H38 H 0.33065 -0.04061 0.56083
 H39 H 0.29077 0.03923 0.59517
 H40 H 0.20466 -0.01786 0.45948
 H41 H 0.16861 -0.05887 0.45726
 H42 H 0.20632 -0.09291 0.53748
 H43 H 0.24142 -0.05126 0.53831
 C44 C 0.18462 0.08003 0.50006
 C45 C 0.31635 0.00184 0.42048
 C46 C 0.18507 -0.07902 0.49712
 C47 C 0.31300 -0.00090 0.58120
 C48 C 0.70393 0.02313 0.53734
 H49 H 0.70286 0.03990 0.52058
 C50 C 0.68400 0.02387 0.56104
 H51 H 0.66756 0.04130 0.56266
 C52 C 0.72606 -0.02062 0.55530
 H53 H 0.74206 -0.03825 0.55267
 C54 C 0.70651 -0.02072 0.57934
 H55 H 0.70767 -0.03829 0.59529
 N56 N 0.72452 0.00120 0.53498
 C57 C 0.79435 0.03627 0.47859
 H58 H 0.79508 0.01937 0.46157
 C59 C 0.81459 0.05948 0.47800
 H60 H 0.83092 0.06057 0.46041
 C61 C 0.77291 0.05498 0.52296
 H62 H 0.75712 0.05279 0.54080
 C63 C 0.79277 0.07856 0.52319
 H64 H 0.79203 0.09462 0.54107
 Zn65 Zn 0.74929 0.00088 0.50112
 N66 N 0.77400 0.03448 0.50079
 C67 C 0.72495 0.02171 0.44714
 N68 N 0.72407 0.00013 0.46776
 C69 C 0.70379 -0.02197 0.46610
 C70 C 0.68350 -0.02315 0.44285
 C71 C 0.70504 0.02134 0.42349
 C72 C 0.79541 -0.03371 0.52289
 C73 C 0.81593 -0.05681 0.52346
 C74 C 0.79376 -0.07669 0.47897
 C75 C 0.77361 -0.05318 0.47921
 N76 N 0.77472 -0.03238 0.50108
 H77 H 0.74073 0.03947 0.44921
 H78 H 0.70326 -0.03854 0.48307
 H79 H 0.66731 -0.04072 0.44180
 H80 H 0.70570 0.03868 0.40727
 H81 H 0.79610 -0.01660 0.53969
 H82 H 0.83246 -0.05760 0.54080
 H83 H 0.79293 -0.09306 0.46140
 H84 H 0.75750 -0.05137 0.46169
 C85 C 0.81386 0.08073 0.50057
 C86 C 0.68528 0.00170 0.58217
 C87 C 0.81513 -0.07844 0.50127
 C88 C 0.68411 -0.00127 0.42140
 C89 C 0.48105 0.20475 1.03684
 H90 H 0.46408 0.20420 1.01995
 C91 C 0.48035 0.18451 1.05979
 H92 H 0.46272 0.16836 1.06071
 C93 C 0.52540 0.22578 1.05574
 H94 H 0.54326 0.24144 1.05370
 C95 C 0.52553 0.20590 1.07908
 H96 H 0.54335 0.20648 1.09512
 N97 N 0.50330 0.22489 1.03525
 C98 C 0.46848 0.29483 0.97987
 H99 H 0.48565 0.29535 0.96311
 C100 C 0.44511 0.31510 0.97918
 H101 H 0.44417 0.33126 0.96178
 C102 C 0.44916 0.27374 1.02359
 H103 H 0.45116 0.25800 1.04119
 C104 C 0.42539 0.29364 1.02372
 H105 H 0.40899 0.29301 1.04127
 Zn106 Zn 0.50374 0.24960 1.00190
 N107 N 0.47003 0.27462 1.00177
 C108 C 0.48176 0.22572 0.94781
 N109 N 0.50398 0.22467 0.96813
 C110 C 0.52613 0.20426 0.96604
 C111 C 0.52659 0.18389 0.94271
 C112 C 0.48138 0.20573 0.92412
 C113 C 0.53934 0.29460 1.02453
 C114 C 0.56253 0.31493 1.02508
 C115 C 0.58163 0.29312 0.97989
 C116 C 0.55806 0.27316 0.98017
 N117 N 0.53754 0.27424 1.00232
 H118 H 0.46397 0.24159 0.95023
 H119 H 0.54321 0.20359 0.98281
 H120 H 0.54411 0.16751 0.94140
 H121 H 0.46344 0.20643 0.90823
 H122 H 0.52240 0.29530 1.04155
 H123 H 0.56357 0.33130 1.04263
 H124 H 0.59765 0.29243 0.96197
 H125 H 0.55585 0.25733 0.96234
 C126 C 0.42342 0.31454 1.00134
 C127 C 0.50285 0.18502 1.08103
 C128 C 0.58376 0.31427 1.00247
 C129 C 0.50393 0.18457 0.92165
 C130 C 0.47332 0.79371 -0.03755
 H131 H 0.45658 0.79445 -0.02035
 C132 C 0.47230 0.81385 -0.06059
 H133 H 0.45466 0.83012 -0.06125
 C134 C 0.51751 0.77238 -0.05711
 H135 H 0.53547 0.75668 -0.05529
 C136 C 0.51731 0.79215 -0.08054
 H137 H 0.53498 0.79144 -0.09685
 N138 N 0.49567 0.77350 -0.03623
 C139 C 0.46231 0.70426 0.02077
 H140 H 0.47978 0.70393 0.03714
 C141 C 0.43917 0.68394 0.02218
 H142 H 0.43870 0.66795 0.03975
 C143 C 0.44206 0.72484 -0.02275
 H144 H 0.44361 0.74039 -0.04055
 C145 C 0.41849 0.70488 -0.02215
 H146 H 0.40181 0.70526 -0.03936
 Zn147 Zn 0.49684 0.74917 -0.00262
 N148 N 0.46330 0.72422 -0.00139
 C149 C 0.47603 0.77366 0.05191
 N150 N 0.49766 0.77449 0.03084
 C151 C 0.51971 0.79490 0.03199
 C152 C 0.52071 0.81545 0.05513
 C153 C 0.47622 0.79384 0.07545
 C154 C 0.53233 0.70388 -0.02564
 C155 C 0.55582 0.68373 -0.02671
 C156 C 0.57575 0.70617 0.01764
 C157 C 0.55186 0.72594 0.01789
 N158 N 0.53081 0.72449 -0.00363
 H159 H 0.45830 0.75777 0.05024
 H160 H 0.53631 0.79538 0.01466
 H161 H 0.53819 0.83178 0.05573
 H162 H 0.45878 0.79327 0.09199
 H163 H 0.51500 0.70290 -0.04214
 H164 H 0.55669 0.66720 -0.04413
 H165 H 0.59224 0.70721 0.03501
 H166 H 0.54989 0.74197 0.03559
 C167 C 0.41713 0.68420 0.00047
 C168 C 0.49459 0.81315 -0.08218
 C169 C 0.57764 0.68482 -0.00480
 C170 C 0.49871 0.81496 0.07698
 C171 C 1.03330 0.47403 0.20555
 H172 H 1.01615 0.45742 0.20464
 C173 C 1.05704 0.47283 0.18563
 H174 H 1.05828 0.45518 0.16935
 C175 C 1.05224 0.51786 0.22726
 H176 H 1.04997 0.53570 0.24308
 C177 C 1.07633 0.51750 0.20771
 H178 H 1.09269 0.53492 0.20870
 N179 N 1.03141 0.49622 0.22592
 C180 C 0.97401 0.46267 0.29551
 H181 H 0.95727 0.47982 0.29615
 C182 C 0.97288 0.43971 0.31571
 H183 H 0.95516 0.43906 0.33194
 C184 C 1.01824 0.44307 0.27428
 H185 H 1.03623 0.44483 0.25857
 C186 C 1.01793 0.41971 0.29410
 H187 H 1.03554 0.40339 0.29343
 Zn188 Zn 0.99741 0.49721 0.25061
 N189 N 0.99640 0.46390 0.27528
 C190 C 0.94283 0.47657 0.22636
 N191 N 0.96382 0.49807 0.22559
 C192 C 0.96241 0.52014 0.20555
 C193 C 0.93900 0.52138 0.18543
 C194 C 0.91904 0.47698 0.20657
 C195 C 1.02013 0.53208 0.29624
 C196 C 1.02119 0.55539 0.31657
 C197 C 0.97664 0.57541 0.29470
 C198 C 0.97639 0.55170 0.27476
 N199 N 0.99805 0.53073 0.27579
 H200 H 0.94472 0.45884 0.24193
 H201 H 0.97968 0.53663 0.20510
 H202 H 0.93812 0.53895 0.16946
 H203 H 0.90253 0.45969 0.20712
 H204 H 1.03675 0.51483 0.29689
 H205 H 1.03874 0.55620 0.33290
 H206 H 0.95923 0.59192 0.29393
 H207 H 0.95862 0.54986 0.25886
 C208 C 0.99510 0.41812 0.31506
 C209 C 1.07868 0.49481 0.18668
 C210 C 0.99922 0.57720 0.31581
 C211 C 0.91717 0.49957 0.18592
 C212 C -0.03235 0.48177 0.79364
 H213 H -0.01528 0.46495 0.79418
 C214 C -0.05604 0.48092 0.81359
 H215 H -0.05733 0.46334 0.82952
 C216 C -0.05121 0.52567 0.77272
 H217 H -0.04896 0.54336 0.75715
 C218 C -0.07527 0.52567 0.79233
 H219 H -0.09162 0.54321 0.79165
 N220 N -0.03047 0.50379 0.77361
 C221 C 0.02561 0.46839 0.70292
 H222 H 0.04256 0.48521 0.70224
 C223 C 0.02630 0.44509 0.68256
 H224 H 0.04387 0.44383 0.66617
 C225 C -0.01859 0.44993 0.72447
 H226 H -0.03639 0.45224 0.74039
 C227 C -0.01873 0.42624 0.70450
 H228 H -0.03648 0.41021 0.70528
 Zn229 Zn 0.00327 0.50389 0.74856
 N230 N 0.00348 0.47033 0.72341
 C231 C 0.05750 0.48184 0.77197
 N232 N 0.03717 0.50410 0.77322
 C233 C 0.03941 0.52627 0.79356
 C234 C 0.06296 0.52674 0.81359
 C235 C 0.08138 0.48146 0.79163
 C236 C -0.01944 0.53874 0.70364
 C237 C -0.02026 0.56167 0.68340
 C238 C 0.02489 0.58094 0.70487
 C239 C 0.02489 0.55761 0.72475
 N240 N 0.00285 0.53717 0.72383
 H241 H 0.05495 0.46404 0.75618
 H242 H 0.02263 0.54338 0.79441
 H243 H 0.06444 0.54433 0.82989
 H244 H 0.09729 0.46351 0.79076
 H245 H -0.03636 0.52189 0.70307
 H246 H -0.03793 0.56260 0.66722
 H247 H 0.04265 0.59698 0.70549
 H248 H 0.04280 0.55558 0.74045
 C249 C 0.00388 0.42388 0.68333
 C250 C -0.07766 0.50308 0.81294
 C251 C 0.00216 0.58289 0.68397
 C252 C 0.08405 0.50407 0.81267
 C253 C 0.12082 0.14451 0.49812
 C254 C 0.12767 0.17428 0.50462
 C255 C 0.10481 0.19598 0.50438
 C256 C 0.07527 0.18777 0.49759
 C257 C 0.06847 0.15805 0.49075
 C258 C 0.09129 0.13635 0.49109
 C259 C 0.08389 0.10675 0.48441
 C260 C 0.05480 0.09884 0.47751
 C261 C 0.03252 0.12009 0.47704
 C262 C 0.03914 0.14937 0.48357
 C263 C 0.11215 0.22557 0.51106
 C264 C 0.14127 0.23353 0.51777
 C265 C 0.16362 0.21232 0.51799
 C266 C 0.15703 0.18300 0.51151
 C267 C 0.05165 0.20960 0.49820
 C268 C 0.03124 0.22683 0.49881
 C269 C 0.14398 0.12218 0.49885
 C270 C 0.16277 0.10321 0.49943
 H271 H 0.10045 0.08942 0.48442
 H272 H 0.04954 0.07610 0.47245
 H273 H 0.00997 0.11385 0.47159
 H274 H 0.02104 0.16509 0.48282
 H275 H 0.09550 0.24284 0.51114
 H276 H 0.14650 0.25627 0.52282
 H277 H 0.18621 0.21862 0.52322
 H278 H 0.17517 0.16730 0.51196
 C279 C 0.64281 0.62166 -0.00396
 C280 C 0.63452 0.59235 0.00241
 C281 C 0.65647 0.56979 0.00293
 C282 C 0.68656 0.57663 -0.00304
 C283 C 0.69486 0.60589 -0.00949
 C284 C 0.67292 0.62849 -0.00992
 C285 C 0.68173 0.65758 -0.01640
 C286 C 0.71138 0.66415 -0.02235
 C287 C 0.73282 0.64204 -0.02197
 C288 C 0.72478 0.61320 -0.01562
 C289 C 0.64766 0.54067 0.00945
 C290 C 0.61801 0.53401 0.01516
 C291 C 0.59653 0.55605 0.01456
 C292 C 0.60456 0.58492 0.00831
 C293 C 0.70876 0.55339 -0.00283
 C294 C 0.72633 0.53333 -0.00263
 C295 C 0.62029 0.64463 -0.00442
 C296 C 0.60112 0.66324 -0.00466
 H297 H 0.66585 0.67552 -0.01697
 H298 H 0.71774 0.68653 -0.02729
 H299 H 0.75581 0.64726 -0.02663
 H300 H 0.74224 0.59674 -0.01558
 H301 H 0.66354 0.52276 0.01025
 H302 H 0.61167 0.51162 0.02009
 H303 H 0.57351 0.55077 0.01901
 H304 H 0.58703 0.60129 0.00814
 C305 C 0.87870 -0.14318 0.50086
 C306 C 0.87233 -0.17223 0.49119
 C307 C 0.89511 -0.19402 0.49107
 C308 C 0.92408 -0.18662 0.50066
 C309 C 0.93042 -0.15760 0.51047
 C310 C 0.90769 -0.13580 0.51050
 C311 C 0.91463 -0.10690 0.52022
 C312 C 0.94320 -0.09975 0.52964
 C313 C 0.96540 -0.12110 0.52971
 C314 C 0.95921 -0.14972 0.52029
 C315 C 0.88827 -0.22287 0.48123
 C316 C 0.85971 -0.23002 0.47177
 C317 C 0.83743 -0.20873 0.47190
 C318 C 0.84354 -0.18013 0.48148
 C319 C 0.94762 -0.20853 0.50001
 C320 C 0.96802 -0.22578 0.49958
 C321 C 0.85559 -0.12078 0.50080
 C322 C 0.83687 -0.10173 0.50092
 H323 H 0.89811 -0.08953 0.52063
 H324 H 0.94812 -0.07754 0.53696
 H325 H 0.98755 -0.11546 0.53709
 H326 H 0.97721 -0.16555 0.52087
 H327 H 0.90488 -0.24017 0.48075
 H328 H 0.85485 -0.25221 0.46431
 H329 H 0.81529 -0.21440 0.46453
 H330 H 0.82550 -0.16432 0.48117
 C331 C 0.35812 0.37759 1.00172
 C332 C 0.36676 0.40754 1.00132
 C333 C 0.34475 0.43005 1.00109
 C334 C 0.31424 0.42250 1.00130
 C335 C 0.30559 0.39259 1.00176
 C336 C 0.32761 0.37005 1.00197
 C337 C 0.31843 0.34029 1.00243
 C338 C 0.28837 0.33301 1.00268
 C339 C 0.26685 0.35505 1.00249
 C340 C 0.27523 0.38455 1.00203
 C341 C 0.35393 0.45984 1.00062
 C342 C 0.38397 0.46717 1.00044
 C343 C 0.40549 0.44515 1.00073
 C344 C 0.39712 0.41565 1.00114
 C345 C 0.29193 0.44563 1.00117
 C346 C 0.27426 0.46562 1.00117
 C347 C 0.38071 0.35466 1.00172
 C348 C 0.39992 0.33608 1.00161
 H349 H 0.33436 0.32239 1.00261
 H350 H 0.28173 0.31014 1.00304
 H351 H 0.24353 0.34928 1.00269
 H352 H 0.25770 0.40092 1.00190
 H353 H 0.33805 0.47778 1.00034
 H354 H 0.39059 0.49005 1.00005
 H355 H 0.42881 0.45095 1.00059
 H356 H 0.41470 0.39934 1.00133
 C357 C 0.87728 0.14515 0.50238
 C358 C 0.90675 0.13716 0.50985
 C359 C 0.92948 0.15880 0.51012
 C360 C 0.92265 0.18827 0.50274
 C361 C 0.89315 0.19632 0.49551
 C362 C 0.87038 0.17469 0.49535
 C363 C 0.84106 0.18324 0.48800
 C364 C 0.83443 0.21233 0.48100
 C365 C 0.85671 0.23346 0.48114
 C366 C 0.88578 0.22567 0.48829
 C367 C 0.95877 0.15030 0.51775
 C368 C 0.96543 0.12124 0.52479
 C369 C 0.94323 0.10006 0.52441
 C370 C 0.91419 0.10780 0.51707
 C371 C 0.94621 0.20998 0.50198
 C372 C 0.96658 0.22707 0.50123
 C373 C 0.85422 0.12287 0.50169
 C374 C 0.83554 0.10391 0.50114
 H375 H 0.82300 0.16758 0.48760
 H376 H 0.81189 0.21850 0.47544
 H377 H 0.85144 0.25602 0.47569
 H378 H 0.90235 0.24287 0.48814
 H379 H 0.97680 0.16598 0.51845
 H380 H 0.98794 0.11514 0.53057
 H381 H 0.94851 0.07750 0.52987
 H382 H 0.89769 0.09053 0.51715
 C383 C 0.35311 0.62041 0.00231
 C384 C 0.32503 0.62436 -0.01117
 C385 C 0.30384 0.60121 -0.01081
 C386 C 0.31085 0.57432 0.00307
 C387 C 0.33885 0.57043 0.01672
 C388 C 0.36005 0.59353 0.01633
 C389 C 0.38797 0.58904 0.02997
 C390 C 0.39474 0.56249 0.04358
 C391 C 0.37399 0.53991 0.04399
 C392 C 0.34634 0.54372 0.03077
 C393 C 0.27600 0.60556 -0.02461
 C394 C 0.26926 0.63204 -0.03835
 C395 C 0.28995 0.65470 -0.03866
 C396 C 0.31756 0.65102 -0.02526
 C397 C 0.28972 0.55028 0.00268
 C398 C 0.27300 0.52965 0.00229
 C399 C 0.37512 0.64369 0.00143
 C400 C 0.39396 0.66249 0.00088
 H401 H 0.40485 0.60594 0.03028
 H402 H 0.41621 0.55943 0.05387
 H403 H 0.37935 0.51932 0.05458
 H404 H 0.33094 0.52551 0.03174
 H405 H 0.25918 0.58858 -0.02493
 H406 H 0.24786 0.63500 -0.04882
 H407 H 0.28460 0.67523 -0.04935
 H408 H 0.33294 0.66926 -0.02607
 C409 C 0.12156 -0.14335 0.49693
 C410 C 0.09167 -0.13513 0.49157
 C411 C 0.06900 -0.15681 0.49171
 C412 C 0.07631 -0.18658 0.49734
 C413 C 0.10617 -0.19482 0.50260
 C414 C 0.12889 -0.17314 0.50238
 C415 C 0.15859 -0.18189 0.50773
 C416 C 0.16566 -0.21124 0.51314
 C417 C 0.14344 -0.23243 0.51337
 C418 C 0.11399 -0.22444 0.50817
 C419 C 0.03929 -0.14807 0.48619
 C420 C 0.03218 -0.11875 0.48084
 C421 C 0.05434 -0.09752 0.48081
 C422 C 0.08378 -0.10549 0.48607
 C423 C 0.05291 -0.20846 0.49802
 C424 C 0.03266 -0.22571 0.49853
 C425 C 0.14462 -0.12108 0.49697
 C426 C 0.16333 -0.10214 0.49702
 H427 H 0.17663 -0.16620 0.50778
 H428 H 0.18849 -0.21756 0.51719
 H429 H 0.14905 -0.25519 0.51758
 H430 H 0.09748 -0.24169 0.50855
 H431 H 0.02127 -0.16377 0.48587
 H432 H 0.00934 -0.11247 0.47668
 H433 H 0.04870 -0.07476 0.47665
 H434 H 0.10023 -0.08818 0.48575
 C435 C 0.64714 0.37866 0.99978
 C436 C 0.67682 0.37342 1.00872
 C437 C 0.69796 0.39659 1.00791
 C438 C 0.68930 0.42481 0.99809
 C439 C 0.65966 0.43003 0.98904
 C440 C 0.63850 0.40691 0.98995
 C441 C 0.60895 0.41274 0.98099
 C442 C 0.60055 0.44060 0.97142
 C443 C 0.62126 0.46319 0.97045
 C444 C 0.65050 0.45809 0.97911
 C445 C 0.72744 0.39091 1.01713
 C446 C 0.73583 0.36310 1.02684
 C447 C 0.71518 0.34042 1.02757
 C448 C 0.68598 0.34539 1.01863
 C449 C 0.71057 0.44873 0.99782
 C450 C 0.72739 0.46928 0.99765
 C451 C 0.62535 0.35519 1.00090
 C452 C 0.60670 0.33621 1.00170
 H453 H 0.59202 0.39589 0.98130
 H454 H 0.57785 0.44467 0.96468
 H455 H 0.61465 0.48479 0.96297
 H456 H 0.66580 0.47635 0.97788
 H457 H 0.74428 0.40786 1.01693
 H458 H 0.75847 0.35913 1.03383
 H459 H 0.72181 0.31885 1.03512
 H460 H 0.67071 0.32708 1.01961
 C461 C 0.50408 0.12151 1.14451
 C462 C 0.49709 0.12812 1.17439
 C463 C 0.49700 0.10531 1.19566
 C464 C 0.50393 0.07607 1.18691
 C465 C 0.51124 0.06951 1.15709
 C466 C 0.51124 0.09228 1.13582
 C467 C 0.51840 0.08512 1.10610
 C468 C 0.52543 0.05632 1.09767
 C469 C 0.52555 0.03409 1.11849
 C470 C 0.51857 0.04047 1.14788
 C471 C 0.48984 0.11240 1.22536
 C472 C 0.48298 0.14122 1.23384
 C473 C 0.48309 0.16353 1.21307
 C474 C 0.49004 0.15718 1.18365
 C475 C 0.50307 0.05252 1.20829
 C476 C 0.50231 0.03222 1.22515
 C477 C 0.50365 0.14462 1.12260
 C478 C 0.50329 0.16333 1.10392
 H479 H 0.51866 0.10166 1.08909
 H480 H 0.53085 0.05125 1.07485
 H481 H 0.53110 0.01176 1.11185
 H482 H 0.51907 0.02242 1.16326
 H483 H 0.48949 0.09579 1.24231
 H484 H 0.47757 0.14628 1.25667
 H485 H 0.47776 0.18588 1.21978
 H486 H 0.48984 0.17526 1.16829
 C487 C 0.00217 0.64634 0.62043
 C488 C -0.00233 0.63738 0.59071
 C489 C -0.00276 0.65869 0.56798
 C490 C 0.00145 0.68883 0.57507
 C491 C 0.00599 0.69780 0.60476
 C492 C 0.00634 0.67649 0.62752
 C493 C 0.01091 0.68597 0.65705
 C494 C 0.01503 0.71567 0.66388
 C495 C 0.01469 0.73650 0.64162
 C496 C 0.01024 0.72779 0.61235
 C497 C -0.00744 0.64920 0.53844
 C498 C -0.01144 0.61952 0.53155
 C499 C -0.01091 0.59867 0.55376
 C500 C -0.00645 0.60736 0.58304
 C501 C 0.00124 0.71039 0.55166
 C502 C 0.00099 0.72732 0.53138
 C503 C 0.00237 0.62448 0.64359
 C504 C 0.00236 0.60582 0.66232
 H505 H 0.01136 0.67057 0.67511
 H506 H 0.01850 0.72255 0.68658
 H507 H 0.01790 0.75953 0.64705
 H508 H 0.01014 0.74478 0.59578
 H509 H -0.00814 0.66458 0.52038
 H510 H -0.01500 0.61267 0.50885
 H511 H -0.01402 0.57562 0.54830
 H512 H -0.00628 0.59031 0.59953
 C513 C 0.49601 0.87707 -0.14523
 C514 C 0.49173 0.87043 -0.17556
 C515 C 0.49236 0.89336 -0.19667
 C516 C 0.49733 0.92276 -0.18731
 C517 C 0.50170 0.92940 -0.15699
 C518 C 0.50097 0.90651 -0.13588
 C519 C 0.50525 0.91373 -0.10567
 C520 C 0.51014 0.94272 -0.09660
 C521 C 0.51094 0.96510 -0.11726
 C522 C 0.50679 0.95865 -0.14712
 C523 C 0.48792 0.88624 -0.22685
 C524 C 0.48302 0.85725 -0.23593
 C525 C 0.48244 0.83481 -0.21530
 C526 C 0.48673 0.84120 -0.18543
 C527 C 0.49769 0.94634 -0.20866
 C528 C 0.49795 0.96665 -0.22551
 C529 C 0.49534 0.85376 -0.12354
 C530 C 0.49492 0.83492 -0.10500
 H531 H 0.50485 0.89710 -0.08875
 H532 H 0.51336 0.94784 -0.07342
 H533 H 0.51483 0.98758 -0.11012
 H534 H 0.50769 0.97682 -0.16233
 H535 H 0.48820 0.90295 -0.24370
 H536 H 0.47966 0.85217 -0.25911
 H537 H 0.47863 0.81233 -0.22248
 H538 H 0.48607 0.82302 -0.17020
 C539 C 0.99500 0.35452 0.37843
 C540 C 1.00230 0.32485 0.37163
 C541 C 1.00267 0.30355 0.39440
 C542 C 0.99570 0.31205 0.42380
 C543 C 0.98812 0.34166 0.43056
 C544 C 0.98784 0.36297 0.40782
 C545 C 0.98040 0.39248 0.41517
 C546 C 0.97340 0.40068 0.44414
 C547 C 0.97357 0.37982 0.46635
 C548 C 0.98080 0.35062 0.45977
 C549 C 1.01012 0.27406 0.38712
 C550 C 1.01701 0.26582 0.35814
 C551 C 1.01664 0.28664 0.33587
 C552 C 1.00939 0.31586 0.34241
 C553 C 0.99678 0.29062 0.44731
 C554 C 0.99766 0.27378 0.46764
 C555 C 0.99506 0.37646 0.35536
 C556 C 0.99509 0.39518 0.33669
 H557 H 0.97990 0.40951 0.39866
 H558 H 0.96778 0.42334 0.44936
 H559 H 0.96806 0.38627 0.48880
 H560 H 0.98051 0.33521 0.47780
 H561 H 1.01068 0.25709 0.40370
 H562 H 1.02265 0.24316 0.35294
 H563 H 1.02201 0.28013 0.31339
 H564 H 1.00941 0.33127 0.32435
 C565 C 0.49838 0.87882 0.14161
 C566 C 0.50503 0.87215 0.17136
 C567 C 0.50523 0.89496 0.19313
 C568 C 0.49872 0.92428 0.18502
 C569 C 0.49181 0.93092 0.15531
 C570 C 0.49171 0.90814 0.13353
 C571 C 0.48493 0.91536 0.10395
 C572 C 0.47836 0.94424 0.09613
 C573 C 0.47833 0.96649 0.11745
 C574 C 0.48495 0.96004 0.14673
 C575 C 0.51204 0.88781 0.22270
 C576 C 0.51845 0.85891 0.23056
 C577 C 0.51825 0.83659 0.20929
 C578 C 0.51163 0.84301 0.17999
 C579 C 0.49954 0.94780 0.20696
 C580 C 0.50022 0.96807 0.22433
 C581 C 0.49853 0.85566 0.11922
 C582 C 0.49863 0.83684 0.10021
 H583 H 0.48462 0.89882 0.08657
 H584 H 0.47322 0.94937 0.07341
 H585 H 0.47313 0.98888 0.11129
 H586 H 0.48455 0.97811 0.16250
 H587 H 0.51244 0.90442 0.24002
 H588 H 0.52360 0.85380 0.25328
 H589 H 0.52324 0.81418 0.21551
 H590 H 0.51174 0.82491 0.16423
 C591 C 0.00313 0.35855 0.62024
 C592 C -0.00395 0.32912 0.62740
 C593 C -0.00446 0.30709 0.60484
 C594 C 0.00214 0.31462 0.57529
 C595 C 0.00945 0.34400 0.56817
 C596 C 0.00987 0.36604 0.59069
 C597 C 0.01704 0.39530 0.58298
 C598 C 0.02365 0.40255 0.55386
 C599 C 0.02335 0.38098 0.53186
 C600 C 0.01637 0.35201 0.53879
 C601 C -0.01166 0.27785 0.61249
 C602 C -0.01817 0.27056 0.64162
 C603 C -0.01767 0.29210 0.66368
 C604 C -0.01066 0.32108 0.65678
 C605 C 0.00102 0.29241 0.55202
 C606 C 0.00012 0.27488 0.53189
 C607 C 0.00334 0.38120 0.64314
 C608 C 0.00356 0.40042 0.66172
 H609 H 0.01763 0.41286 0.59931
 H610 H 0.02908 0.42503 0.54836
 H611 H 0.02857 0.38670 0.50928
 H612 H 0.01654 0.33601 0.52091
 H613 H -0.01231 0.26035 0.59608
 H614 H -0.02363 0.24808 0.64709
 H615 H -0.02275 0.28632 0.68627
 H616 H -0.01056 0.33707 0.67469
 C617 C 0.50096 0.12062 0.85723
 C618 C 0.48976 0.09260 0.86485
 C619 C 0.48874 0.06969 0.84326
 C620 C 0.49903 0.07488 0.81419
 C621 C 0.51016 0.10287 0.80653
 C622 C 0.51110 0.12584 0.82811
 C623 C 0.52235 0.15365 0.81995
 C624 C 0.53245 0.15860 0.79129
 C625 C 0.53159 0.13612 0.77022
 C626 C 0.52058 0.10853 0.77762
 C627 C 0.47743 0.04187 0.85140
 C628 C 0.46753 0.03680 0.88008
 C629 C 0.46861 0.05918 0.90122
 C630 C 0.47954 0.08681 0.89382
 C631 C 0.49867 0.05113 0.79249
 C632 C 0.49842 0.03075 0.77526
 C633 C 0.50222 0.14387 0.87947
 C634 C 0.50310 0.16271 0.89843
 H635 H 0.52348 0.17180 0.83559
 H636 H 0.54101 0.18000 0.78543
 H637 H 0.53948 0.14007 0.74800
 H638 H 0.52034 0.09173 0.76047
 H639 H 0.47606 0.02377 0.83573
 H640 H 0.45899 0.01538 0.88591
 H641 H 0.46090 0.05514 0.92348
 H642 H 0.47988 0.10351 0.91105
 C643 C 1.00022 0.64275 0.37865
 C644 C 1.01194 0.63625 0.40685
 C645 C 1.01227 0.65833 0.42934
 C646 C 1.00074 0.68673 0.42355
 C647 C 0.98912 0.69327 0.39534
 C648 C 0.98888 0.67121 0.37280
 C649 C 0.97711 0.67823 0.34478
 C650 C 0.96589 0.70625 0.33918
 C651 C 0.96611 0.72781 0.36123
 C652 C 0.97757 0.72151 0.38904
 C653 C 1.02417 0.65133 0.45735
 C654 C 1.03527 0.62330 0.46302
 C655 C 1.03485 0.60168 0.44106
 C656 C 1.02340 0.60796 0.41325
 C657 C 1.00040 0.70888 0.44690
 C658 C 1.00028 0.72637 0.46709
 C659 C 0.99969 0.62003 0.35583
 C660 C 0.99939 0.60074 0.33732
 H661 H 0.97646 0.66219 0.32693
 H662 H 0.95697 0.71126 0.31762
 H663 H 0.95736 0.74954 0.35678
 H664 H 0.97729 0.73899 0.40549
 H665 H 1.02509 0.66741 0.47513
 H666 H 1.04422 0.61833 0.48458
 H667 H 1.04349 0.57992 0.44557
 H668 H 1.02362 0.59041 0.39689
 C669 C 1.14554 0.49447 0.12510
 C670 C 1.16119 0.52071 0.11902
 C671 C 1.18273 0.52107 0.09599
 C672 C 1.18850 0.49518 0.07921
 C673 C 1.17342 0.46874 0.08579
 C674 C 1.15186 0.46839 0.10880
 C675 C 1.13692 0.44175 0.11483
 C676 C 1.14312 0.41618 0.09862
 C677 C 1.16421 0.41653 0.07613
 C678 C 1.17924 0.44244 0.06968
 C679 C 1.19795 0.54761 0.09018
 C680 C 1.19207 0.57307 0.10668
 C681 C 1.17101 0.57272 0.12920
 C682 C 1.15566 0.54691 0.13539
 C683 C 1.20915 0.49596 0.05453
 C684 C 1.22576 0.49656 0.03363
 C685 C 1.12230 0.49451 0.14743
 C686 C 1.10262 0.49461 0.16555
 H687 H 1.12036 0.44036 0.13215
 H688 H 1.13150 0.39599 0.10355
 H689 H 1.16896 0.39661 0.06361
 H690 H 1.19549 0.44160 0.05201
 H691 H 1.21456 0.54895 0.07292
 H692 H 1.20393 0.59317 0.10196
 H693 H 1.16653 0.59255 0.14195
 H694 H 1.13952 0.54771 0.15315
 C695 C 0.62358 0.00036 0.64883
 C696 C 0.61310 0.02702 0.66168
 C697 C 0.58989 0.02647 0.68305
 C698 C 0.57729 -0.00073 0.69138
 C699 C 0.58834 -0.02744 0.67916
 C700 C 0.61157 -0.02690 0.65782
 C701 C 0.62212 -0.05387 0.64577
 C702 C 0.61009 -0.08061 0.65456
 C703 C 0.58737 -0.08114 0.67542
 C704 C 0.57652 -0.05492 0.68765
 C705 C 0.57965 0.05340 0.69548
 C706 C 0.59199 0.08012 0.68705
 C707 C 0.61467 0.08066 0.66614
 C708 C 0.62518 0.05448 0.65351
 C709 C 0.55222 -0.00114 0.71161
 C710 C 0.53097 -0.00134 0.72783
 C711 C 0.64598 0.00100 0.62568
 C712 C 0.66413 0.00139 0.60605
 H713 H 0.63980 -0.05460 0.62951
 H714 H 0.61844 -0.10104 0.64514
 H715 H 0.57809 -0.10197 0.68218
 H716 H 0.55886 -0.05645 0.70384
 H717 H 0.56209 0.05410 0.71187
 H718 H 0.58392 0.10050 0.69681
 H719 H 0.62418 0.10147 0.65966
 H720 H 0.64288 0.05602 0.63737
 C721 C -0.14486 0.50219 0.87413
 C722 C -0.15932 0.52865 0.88284
 C723 C -0.18097 0.52834 0.90577
 C724 C -0.18804 0.50157 0.91983
 C725 C -0.17415 0.47499 0.91061
 C726 C -0.15249 0.47530 0.88769
 C727 C -0.13875 0.44848 0.87900
 C728 C -0.14622 0.42210 0.89253
 C729 C -0.16740 0.42180 0.91493
 C730 C -0.18127 0.44788 0.92397
 C731 C -0.19498 0.55510 0.91426
 C732 C -0.18782 0.58141 0.90045
 C733 C -0.16665 0.58171 0.87802
 C734 C -0.15248 0.55571 0.86923
 C735 C -0.20872 0.50153 0.94449
 C736 C -0.22534 0.50152 0.96540
 C737 C -0.12151 0.50272 0.85193
 C738 C -0.10172 0.50299 0.83393
 H739 H -0.12216 0.44757 0.86164
 H740 H -0.13550 0.40179 0.88558
 H741 H -0.17313 0.40126 0.92537
 H742 H -0.19765 0.44652 0.94146
 H743 H -0.21163 0.55596 0.93156
 H744 H -0.19876 0.60167 0.90719
 H745 H -0.16118 0.60221 0.86736
 H746 H -0.13621 0.55704 0.85166
 C747 C 0.37974 0.00256 0.35538
 C748 C 0.40903 0.01102 0.36301
 C749 C 0.43167 0.01112 0.34107
 C750 C 0.42494 0.00262 0.31164
 C751 C 0.39565 -0.00567 0.30396
 C752 C 0.37296 -0.00569 0.32590
 C753 C 0.34385 -0.01412 0.31772
 C754 C 0.33733 -0.02230 0.28869
 C755 C 0.35952 -0.02229 0.26724
 C756 C 0.38839 -0.01409 0.27467
 C757 C 0.46077 0.01973 0.34922
 C758 C 0.46734 0.02786 0.37824
 C759 C 0.44522 0.02765 0.39972
 C760 C 0.41636 0.01939 0.39232
 C761 C 0.44843 0.00186 0.28960
 C762 C 0.46878 0.00118 0.27226
 C763 C 0.35675 0.00218 0.37796
 C764 C 0.33808 0.00196 0.39711
 H765 H 0.32585 -0.01448 0.33363
 H766 H 0.31494 -0.02869 0.28280
 H767 H 0.35434 -0.02866 0.24473
 H768 H 0.40491 -0.01439 0.25724
 H769 H 0.47873 0.02035 0.33330
 H770 H 0.48972 0.03434 0.38407
 H771 H 0.45044 0.03397 0.42224
 H772 H 0.39992 0.01965 0.40982
 C773 C 0.14957 0.50112 0.87521
 C774 C 0.16369 0.52724 0.88508
 C775 C 0.18459 0.52612 0.90854
 C776 C 0.19120 0.49890 0.92201
 C777 C 0.17771 0.47267 0.91162
 C778 C 0.15684 0.47378 0.88813
 C779 C 0.14350 0.44728 0.87824
 C780 C 0.15059 0.42047 0.89116
 C781 C 0.17098 0.41940 0.91414
 C782 C 0.18445 0.44513 0.92435
 C783 C 0.19832 0.55253 0.91814
 C784 C 0.19159 0.57929 0.90493
 C785 C 0.17112 0.58039 0.88200
 C786 C 0.15726 0.55473 0.87211
 C787 C 0.21098 0.49806 0.94725
 C788 C 0.22686 0.49754 0.96862
 C789 C 0.12687 0.50245 0.85251
 C790 C 0.10758 0.50333 0.83411
 H791 H 0.12754 0.44698 0.86039
 H792 H 0.14020 0.40042 0.88330
 H793 H 0.17642 0.39852 0.92410
 H794 H 0.20022 0.44317 0.94223
 H795 H 0.21442 0.55279 0.93586
 H796 H 0.20231 0.59927 0.91252
 H797 H 0.16597 0.60123 0.87181
 H798 H 0.14153 0.55668 0.85418
 C799 C 0.62139 -0.00227 0.35600
 C800 C 0.59163 -0.00885 0.36370
 C801 C 0.56922 -0.00898 0.34164
 C802 C 0.57666 -0.00240 0.31202
 C803 C 0.60643 0.00400 0.30427
 C804 C 0.62887 0.00404 0.32633
 C805 C 0.65847 0.01055 0.31807
 C806 C 0.66569 0.01683 0.28886
 C807 C 0.64373 0.01679 0.26730
 C808 C 0.61440 0.01046 0.27480
 C809 C 0.53963 -0.01569 0.34987
 C810 C 0.53237 -0.02195 0.37906
 C811 C 0.55426 -0.02171 0.40066
 C812 C 0.58359 -0.01529 0.39319
 C813 C 0.55347 -0.00167 0.28983
 C814 C 0.53332 -0.00100 0.27238
 C815 C 0.64415 -0.00185 0.37868
 C816 C 0.66262 -0.00155 0.39793
 H817 H 0.67631 0.01085 0.33407
 H818 H 0.68844 0.02176 0.28292
 H819 H 0.64946 0.02169 0.24464
 H820 H 0.59808 0.01067 0.25727
 H821 H 0.52182 -0.01626 0.33387
 H822 H 0.50963 -0.02701 0.38495
 H823 H 0.54851 -0.02658 0.42332
 H824 H 0.59983 -0.01545 0.41078
 C825 C 0.85139 0.50110 0.12361
 C826 C 0.84427 0.52802 0.10978
 C827 C 0.82331 0.52846 0.08635
 C828 C 0.80962 0.50199 0.07689
 C829 C 0.81613 0.47521 0.09124
 C830 C 0.83708 0.47476 0.11468
 C831 C 0.84338 0.44769 0.12857
 C832 C 0.82937 0.42181 0.11956
 C833 C 0.80889 0.42224 0.09663
 C834 C 0.80226 0.44857 0.08254
 C835 C 0.81669 0.55559 0.07271
 C836 C 0.83037 0.58155 0.08199
 C837 C 0.85087 0.58112 0.10490
 C838 C 0.85784 0.55473 0.11870
 C839 C 0.78973 0.50212 0.05171
 C840 C 0.77376 0.50207 0.03040
 C841 C 0.87417 0.50038 0.14626
 C842 C 0.89354 0.49993 0.16460
 H843 H 0.85912 0.44626 0.14654
 H844 H 0.83443 0.40130 0.13044
 H845 H 0.79806 0.40208 0.08972
 H846 H 0.78614 0.44781 0.06485
 H847 H 0.80085 0.55705 0.05483
 H848 H 0.82503 0.60211 0.07134
 H849 H 0.86144 0.60135 0.11202
 H850 H 0.87389 0.55552 0.13645
 C851 C 0.37375 -0.00112 0.64840
 C852 C 0.38375 0.02583 0.66078
 C853 C 0.40676 0.02582 0.68224
 C854 C 0.41960 -0.00113 0.69119
 C855 C 0.40900 -0.02812 0.67946
 C856 C 0.38601 -0.02812 0.65798
 C857 C 0.37594 -0.05537 0.64639
 C858 C 0.38820 -0.08187 0.65578
 C859 C 0.41067 -0.08187 0.67680
 C860 C 0.42105 -0.05537 0.68857
 C861 C 0.41657 0.05304 0.69414
 C862 C 0.40398 0.07952 0.68512
 C863 C 0.38147 0.07953 0.66414
 C864 C 0.37139 0.05306 0.65203
 C865 C 0.44449 -0.00104 0.71151
 C866 C 0.46561 -0.00106 0.72780
 C867 C 0.35165 -0.00101 0.62508
 C868 C 0.33378 -0.00094 0.60529
 H869 H 0.35847 -0.05650 0.63003
 H870 H 0.38022 -0.10251 0.64670
 H871 H 0.42012 -0.10251 0.68403
 H872 H 0.43853 -0.05651 0.70490
 H873 H 0.43398 0.05415 0.71056
 H874 H 0.41172 0.10014 0.69447
 H875 H 0.37175 0.10015 0.65721
 H876 H 0.35380 0.05419 0.63582
   
