data_POSCAR
  _audit_creation_date              2014-09-24
  _audit_creation_method            'ToBaCCo'
  _symmetry_space_group_name_H-M    'P1'
  _symmetry_Int_Tables_number       1
  _symmetry_cell_setting            triclinic
  loop_
  _symmetry_equiv_pos_as_xyz
 x,y,z
_cell_length_a 42.0958
_cell_length_b 42.4954
_cell_length_c 41.7553
_cell_angle_alpha 89.902000
_cell_angle_beta 90.110200
_cell_angle_gamma 90.008000
loop_
  _atom_site_label
  _atom_site_type_symbol
  _atom_site_fract_x
  _atom_site_fract_y
  _atom_site_fract_z
C1 C 0.16248 0.18670 0.20456
 C2 C 0.16339 0.21114 0.18190
 C3 C 0.18467 0.20976 0.15665
 C4 C 0.20582 0.18438 0.15417
 C5 C 0.20427 0.15995 0.17601
 C6 C 0.18238 0.16103 0.20120
 C7 C 0.14407 0.18137 0.23131
 N8 N 0.15213 0.15290 0.24387
 C9 C 0.17547 0.14030 0.22549
 C10 C 0.22714 0.13839 0.16772
 N11 N 0.24319 0.14954 0.14187
 C12 C 0.23018 0.17761 0.13328
 C13 C 0.17834 0.23494 0.13688
 N14 N 0.15393 0.25156 0.14960
 C15 C 0.14486 0.23747 0.17731
 H16 H 0.12577 0.19679 0.24053
 H17 H 0.18678 0.11775 0.22957
 H18 H 0.23244 0.11671 0.18032
 H19 H 0.23800 0.19217 0.11350
 H20 H 0.18983 0.24015 0.11430
 H21 H 0.12502 0.24480 0.19199
 C22 C -0.15443 0.82284 0.20322
 C23 C -0.15628 0.79788 0.18137
 C24 C -0.18301 0.79433 0.16229
 C25 C -0.20779 0.81638 0.16406
 C26 C -0.20560 0.84131 0.18522
 C27 C -0.17917 0.84411 0.20543
 C28 C -0.13195 0.83148 0.22557
 N29 N -0.14295 0.85695 0.24182
 C30 C -0.17174 0.86493 0.22947
 C31 C -0.23144 0.86042 0.18003
 N32 N -0.24941 0.84769 0.15629
 C33 C -0.23541 0.82043 0.14673
 C34 C -0.17827 0.76807 0.14360
 N35 N -0.14927 0.75592 0.15072
 C36 C -0.13561 0.77399 0.17369
 H37 H -0.10982 0.81938 0.23044
 H38 H -0.18642 0.88425 0.23761
 H39 H -0.23626 0.88249 0.19201
 H40 H -0.24370 0.80557 0.12739
 H41 H -0.19441 0.75881 0.12573
 H42 H -0.11237 0.76997 0.18408
 C43 C -0.16077 0.18156 -0.20710
 C44 C -0.16457 0.20748 -0.18676
 C45 C -0.18903 0.20795 -0.16468
 C46 C -0.20962 0.18206 -0.16219
 C47 C -0.20502 0.15589 -0.18136
 C48 C -0.18053 0.15572 -0.20412
 C49 C -0.14003 0.17548 -0.23174
 N50 N -0.14659 0.14648 -0.24373
 C51 C -0.17107 0.13402 -0.22667
 C52 C -0.22756 0.13395 -0.17285
 N53 N -0.24603 0.14635 -0.14936
 C54 C -0.23523 0.17580 -0.14274
 C55 C -0.18575 0.23515 -0.14702
 N56 N -0.15952 0.25065 -0.15747
 C57 C -0.14655 0.23403 -0.18188
 H58 H -0.12169 0.19117 -0.24046
 H59 H -0.18191 0.11130 -0.23100
 H60 H -0.23049 0.11081 -0.18326
 H61 H -0.24499 0.19140 -0.12478
 H62 H -0.20007 0.24209 -0.12671
 H63 H -0.12477 0.24012 -0.19418
 C64 C 0.16389 0.81112 -0.20887
 C65 C 0.16261 0.78834 -0.18455
 C66 C 0.18260 0.79065 -0.15824
 C67 C 0.20490 0.81516 -0.15647
 C68 C 0.20658 0.83713 -0.18086
 C69 C 0.18547 0.83556 -0.20674
 C70 C 0.14558 0.81648 -0.23573
 N71 N 0.15503 0.84406 -0.24929
 C72 C 0.17961 0.85571 -0.23183
 C73 C 0.23093 0.85744 -0.17366
 N74 N 0.24403 0.84853 -0.14531
 C75 C 0.22795 0.82292 -0.13434
 C76 C 0.17494 0.76643 -0.13772
 N77 N 0.15110 0.74940 -0.15112
 C78 C 0.14343 0.76252 -0.17976
 H79 H 0.12572 0.80230 -0.24372
 H80 H 0.19172 0.87774 -0.23642
 H81 H 0.23868 0.87716 -0.18815
 H82 H 0.23330 0.81023 -0.11247
 H83 H 0.18578 0.76159 -0.11470
 H84 H 0.12473 0.75433 -0.19552
 C85 C 0.18650 1.16506 0.79542
 C86 C 0.21119 1.16749 0.81784
 C87 C 0.20896 1.18880 0.84276
 C88 C 0.18238 1.20854 0.84507
 C89 C 0.15764 1.20563 0.82340
 C90 C 0.15962 1.18354 0.79852
 C91 C 0.18204 1.14595 0.76923
 N92 N 0.15291 1.15206 0.75658
 C93 C 0.13898 1.17498 0.77441
 C94 C 0.13501 1.22759 0.83158
 N95 N 0.14585 1.24430 0.85711
 C96 C 0.17473 1.23262 0.86565
 C97 C 0.23473 1.18389 0.86251
 N98 N 0.25251 1.16030 0.84999
 C99 C 0.23856 1.15037 0.82249
 H100 H 0.19852 1.12841 0.76047
 H101 H 0.11561 1.18480 0.77014
 H102 H 0.11285 1.23186 0.81908
 H103 H 0.18932 1.24125 0.88514
 H104 H 0.23953 1.19568 0.88497
 H105 H 0.24667 1.13081 0.80808
 C106 C 0.82280 0.84537 0.79626
 C107 C 0.79791 0.84368 0.81842
 C108 C 0.79447 0.81731 0.83761
 C109 C 0.81664 0.79272 0.83565
 C110 C 0.84159 0.79471 0.81419
 C111 C 0.84420 0.82082 0.79379
 C112 C 0.83106 0.86755 0.77374
 N113 N 0.85643 0.85663 0.75702
 C114 C 0.86476 0.82813 0.76928
 C115 C 0.86086 0.76905 0.81936
 N116 N 0.84814 0.75142 0.84332
 C117 C 0.82078 0.76546 0.85305
 C118 C 0.76819 0.82220 0.85660
 N119 N 0.75600 0.85096 0.84951
 C120 C 0.77401 0.86430 0.82627
 H121 H 0.81871 0.88944 0.76904
 H122 H 0.88408 0.81357 0.76074
 H123 H 0.88299 0.76409 0.80719
 H124 H 0.80591 0.75741 0.87256
 H125 H 0.75899 0.80634 0.87467
 H126 H 0.76995 0.88730 0.81584
 C127 C 0.17932 0.83728 1.20332
 C128 C 0.20328 0.83627 1.18007
 C129 C 0.20578 0.81056 1.15989
 C130 C 0.18362 0.78595 1.16206
 C131 C 0.15968 0.78726 1.18473
 C132 C 0.15797 0.81270 1.20594
 C133 C 0.17163 0.85899 1.22645
 N134 N 0.14660 0.84777 1.24355
 C135 C 0.13800 0.81950 1.23105
 C136 C 0.13994 0.76200 1.17953
 N137 N 0.15140 0.74532 1.15442
 C138 C 0.17830 0.75949 1.14376
 C139 C 0.23118 0.81610 1.13985
 N140 N 0.24376 0.84459 1.14729
 C141 C 0.22682 0.85715 1.17174
 H142 H 0.18392 0.88092 1.23104
 H143 H 0.11870 0.80491 1.23960
 H144 H 0.11818 0.75678 1.19226
 H145 H 0.19184 0.75214 1.12306
 H146 H 0.23954 0.80085 1.12091
 H147 H 0.23140 0.87977 1.18271
 C148 C 0.81879 1.16039 1.20746
 C149 C 0.79383 1.16019 1.18516
 C150 C 0.78890 1.18597 1.16541
 C151 C 0.80951 1.21189 1.16701
 C152 C 0.83436 1.21181 1.18875
 C153 C 0.83860 1.18626 1.20953
 C154 C 0.82904 1.13888 1.22990
 N155 N 0.85411 1.15148 1.24600
 C156 C 0.86018 1.18041 1.23356
 C157 C 0.85247 1.23807 1.18285
 N158 N 0.83917 1.25414 1.15816
 C159 C 0.81265 1.23860 1.14851
 C160 C 0.76315 1.17918 1.14626
 N161 N 0.75263 1.14990 1.15377
 C162 C 0.77128 1.13801 1.17741
 H163 H 0.81852 1.11610 1.23469
 H164 H 0.87891 1.19610 1.24140
 H165 H 0.87457 1.24423 1.19457
 H166 H 0.79810 1.24507 1.12813
 H167 H 0.75308 1.19420 1.12789
 H168 H 0.76848 1.11502 1.18825
 O169 O 0.45501 1.05652 1.05488
 O170 O 0.42039 1.02474 1.02732
 C171 C 0.42658 1.04742 1.04702
 O172 O 0.54577 1.05299 0.94427
 O173 O 0.57996 1.02281 0.97432
 C174 C 0.57406 1.04395 0.95268
 O175 O 0.45648 1.05528 0.94461
 O176 O 0.42087 1.02614 0.97394
 C177 C 0.42781 1.04771 0.95306
 O178 O 0.54427 1.05249 1.05961
 O179 O 0.57920 1.02268 1.03031
 C180 C 0.57276 1.04363 1.05187
 Zr181 Zr 0.49966 1.03709 1.04188
 O182 O 0.50346 1.08664 1.04454
 O183 O 0.49537 1.03467 1.09236
 Zr184 Zr 0.50075 1.03759 0.96081
 O185 O 0.50423 1.08730 0.96098
 O186 O 0.49840 1.03732 0.91016
 O187 O 0.47201 1.04378 1.00092
 O188 O 0.52776 1.04284 1.00177
 O189 O 0.54326 0.94096 1.05896
 O190 O 0.57874 0.97080 1.03022
 C191 C 0.57189 0.94962 1.05151
 O192 O 0.45511 0.94132 0.94413
 O193 O 0.42034 0.97065 0.97415
 C194 C 0.42666 0.94925 0.95307
 O195 O 0.54471 0.94223 0.94350
 O196 O 0.57939 0.97112 0.97420
 C197 C 0.57315 0.95059 0.95215
 O198 O 0.45407 0.93884 1.05454
 O199 O 0.41992 0.97136 1.02719
 C200 C 0.42578 0.94835 1.04674
 Zr201 Zr 0.49897 0.95751 1.04148
 O202 O 0.50175 0.90785 1.04350
 O203 O 0.49485 0.95935 1.09198
 Zr204 Zr 0.49992 0.95798 0.96040
 O205 O 0.50257 0.90822 0.96028
 O206 O 0.49748 0.95869 0.90976
 Zr207 Zr 0.45269 0.99799 1.00048
 Zr208 Zr 0.54698 0.99712 1.00181
 O209 O 0.52691 0.95176 1.00129
 O210 O 0.47115 0.95185 1.00049
 O211 O 0.52763 0.99701 1.04835
 O212 O 0.47278 0.99808 0.95439
 O213 O 0.47164 0.99751 1.04716
 O214 O 0.52874 0.99756 0.95476
 H215 H 0.54219 1.06125 1.00201
 H216 H 0.45851 0.99830 0.93550
 H217 H 0.54103 0.93311 1.00134
 H218 H 0.45685 0.99754 1.06559
 H219 H 0.51687 1.02523 0.90226
 H220 H 0.51580 0.97107 0.90193
 H221 H 0.48374 0.90013 0.97181
 H222 H 0.48826 0.89964 1.02601
 H223 H 0.51444 0.96921 1.10042
 H224 H 0.51474 1.02432 1.10074
 H225 H 0.49037 1.09537 1.02698
 H226 H 0.48573 1.09558 0.97286
 O227 O 0.05184 0.45386 -0.05581
 O228 O 0.01905 0.42011 -0.02839
 C229 C 0.04205 0.42585 -0.04810
 O230 O 0.05050 0.54259 0.05613
 O231 O 0.02140 0.57776 0.02624
 C232 C 0.04241 0.57097 0.04794
 O233 O 0.05006 0.45426 0.05499
 O234 O 0.02006 0.42006 0.02494
 C235 C 0.04171 0.42615 0.04621
 O236 O 0.04941 0.54245 -0.06065
 O237 O 0.02235 0.57746 -0.02898
 C238 C 0.04232 0.57081 -0.05154
 Zr239 Zr 0.03378 0.49853 -0.04211
 O240 O 0.08396 0.50151 -0.04292
 O241 O 0.03296 0.49434 -0.09262
 Zr242 Zr 0.03375 0.49873 0.03895
 O243 O 0.08402 0.50064 0.03896
 O244 O 0.03328 0.49602 0.08958
 O245 O 0.03945 0.47050 -0.00141
 O246 O 0.04016 0.52575 -0.00168
 O247 O -0.06161 0.54469 -0.05947
 O248 O -0.03068 0.57873 -0.03016
 C249 C -0.05209 0.57273 -0.05169
 O250 O -0.06626 0.45667 0.05311
 O251 O -0.03525 0.42140 0.02566
 C252 C -0.05777 0.42826 0.04560
 O253 O -0.06146 0.54501 0.05587
 O254 O -0.03085 0.57878 0.02599
 C255 C -0.05202 0.57301 0.04772
 O256 O -0.06608 0.45632 -0.05656
 O257 O -0.03498 0.42128 -0.02871
 C258 C -0.05747 0.42796 -0.04886
 Zr259 Zr -0.04655 0.50014 -0.04225
 O260 O -0.09661 0.50453 -0.04374
 O261 O -0.04505 0.49662 -0.09281
 Zr262 Zr -0.04660 0.50037 0.03871
 O263 O -0.09665 0.50496 0.03976
 O264 O -0.04538 0.49689 0.08930
 Zr265 Zr -0.00729 0.45265 -0.00144
 Zr266 Zr -0.00538 0.54617 -0.00179
 O267 O -0.05177 0.52768 -0.00189
 O268 O -0.05332 0.47230 -0.00167
 O269 O -0.00582 0.52743 -0.04853
 O270 O -0.00701 0.47222 0.04482
 O271 O -0.00692 0.47199 -0.04791
 O272 O -0.00584 0.52761 0.04504
 H273 H 0.05916 0.53952 -0.00177
 H274 H -0.00743 0.45796 0.06361
 H275 H -0.07016 0.54221 -0.00194
 H276 H -0.00713 0.45764 -0.06658
 H277 H 0.02096 0.51420 0.09755
 H278 H -0.03392 0.51555 0.09750
 H279 H -0.10552 0.48898 0.02506
 H280 H -0.10547 0.48864 -0.02892
 H281 H -0.03430 0.51568 -0.10106
 H282 H 0.02046 0.51222 -0.10112
 H283 H 0.09215 0.48570 -0.02759
 H284 H 0.09182 0.48219 0.02688
 O285 O 1.05921 -0.05681 0.54553
 O286 O 1.03148 -0.02547 0.58048
 C287 C 1.05161 -0.04770 0.57415
 O288 O 1.06315 0.05843 0.45605
 O289 O 1.03459 0.02847 0.42045
 C290 C 1.05522 0.05009 0.42720
 O291 O 1.06661 0.05322 0.54620
 O292 O 1.03325 0.02707 0.58060
 C293 C 1.05665 0.04600 0.57470
 O294 O 1.05731 -0.05911 0.45567
 O295 O 1.03269 -0.02544 0.42050
 C296 C 1.05090 -0.04916 0.42695
 Zr297 Zr 1.04397 -0.03960 0.50042
 O298 O 1.09420 -0.03985 0.49757
 O299 O 1.04370 -0.08928 0.50345
 Zr300 Zr 1.04823 0.03984 0.50082
 O301 O 1.09826 0.03630 0.49723
 O302 O 1.05200 0.08929 0.50529
 O303 O 1.05193 -0.00040 0.52934
 O304 O 1.05226 0.00000 0.47282
 O305 O 0.94776 -0.05141 0.45376
 O306 O 0.98005 -0.02392 0.41934
 C307 C 0.95774 -0.04408 0.42528
 O308 O 0.95078 0.05994 0.54485
 O309 O 0.97823 0.02840 0.58003
 C310 C 0.95774 0.05025 0.57356
 O311 O 0.95467 0.06311 0.45468
 O312 O 0.98098 0.03045 0.41994
 C313 C 0.96196 0.05359 0.42609
 O314 O 0.94532 -0.05074 0.54404
 O315 O 0.97591 -0.02271 0.57960
 C316 C 0.95354 -0.04256 0.57286
 Zr317 Zr 0.96367 -0.03550 0.49927
 O318 O 0.91359 -0.03239 0.49572
 O319 O 0.96099 -0.08520 0.50193
 Zr320 Zr 0.96797 0.04411 0.49983
 O321 O 0.91788 0.04624 0.49569
 O322 O 0.97032 0.09373 0.50368
 Zr323 Zr 1.00532 0.00193 0.54760
 Zr324 Zr 1.00653 0.00242 0.45252
 O325 O 0.96038 0.00476 0.47172
 O326 O 0.95923 0.00442 0.52794
 O327 O 1.00382 -0.04357 0.47134
 O328 O 1.00806 0.04755 0.52812
 O329 O 1.00318 -0.04344 0.52755
 O330 O 1.00870 0.04824 0.47181
 H331 H 1.07088 -0.00075 0.45836
 H332 H 1.00881 0.06589 0.54271
 H333 H 0.94190 0.00576 0.45701
 H334 H 1.00202 -0.06207 0.54180
 H335 H 1.03743 0.09873 0.48935
 H336 H 0.98383 0.10150 0.48600
 H337 H 0.90885 0.03418 0.51379
 H338 H 0.90603 -0.02004 0.51426
 H339 H 0.97251 -0.09382 0.48327
 H340 H 1.02601 -0.09675 0.48985
 H341 H 1.10256 -0.03123 0.51790
 H342 H 1.10570 0.02329 0.51541
 C343 C 1.11255 0.11087 0.32199
 N344 N 1.13237 0.09461 0.30252
 N345 N 1.14556 0.10850 0.27723
 C346 C 1.13897 0.13901 0.27004
 N347 N 1.11890 0.15521 0.28947
 N348 N 1.10614 0.14146 0.31513
 C349 C 1.09785 0.09527 0.34954
 N350 N 1.09134 0.11146 0.37675
 N351 N 1.07818 0.09699 0.40179
 C352 C 1.07060 0.06597 0.40023
 N353 N 1.07687 0.04988 0.37293
 N354 N 1.09055 0.06420 0.34814
 C355 C 0.89983 -0.10154 0.31848
 N356 N 0.86946 -0.09424 0.31052
 N357 N 0.85569 -0.10742 0.28513
 C358 C 0.87156 -0.12884 0.26707
 N359 N 0.90195 -0.13623 0.27522
 N360 N 0.91592 -0.12259 0.30027
 C361 C 0.91494 -0.08694 0.34638
 N362 N 0.94649 -0.08041 0.34628
 N363 N 0.96010 -0.06663 0.37144
 C364 C 0.94274 -0.05947 0.39781
 N365 N 0.91126 -0.06631 0.39806
 N366 N 0.89754 -0.07956 0.37266
 C367 C 0.89664 0.10606 0.67936
 N368 N 0.87664 0.08906 0.69808
 N369 N 0.86239 0.10228 0.72316
 C370 C 0.86810 0.13284 0.73084
 N371 N 0.88844 0.14968 0.71223
 N372 N 0.90223 0.13662 0.68682
 C373 C 0.91216 0.09157 0.65165
 N374 N 0.91919 0.10894 0.62526
 N375 N 0.93332 0.09572 0.60010
 C376 C 0.94141 0.06480 0.60071
 N377 N 0.93457 0.04752 0.62719
 N378 N 0.91994 0.06059 0.65209
 C379 C 1.11142 -0.11104 0.67644
 N380 N 1.13364 -0.09602 0.69432
 N381 N 1.14831 -0.11093 0.71820
 C382 C 1.14093 -0.14125 0.72547
 N383 N 1.11854 -0.15620 0.70759
 N384 N 1.10429 -0.14146 0.68331
 C385 C 1.09544 -0.09463 0.65010
 N386 N 1.08691 -0.11042 0.62323
 N387 N 1.07300 -0.09536 0.59898
 C388 C 1.06658 -0.06413 0.60102
 N389 N 1.07477 -0.04839 0.62805
 N390 N 1.08923 -0.06334 0.65207
 C391 C 0.32036 1.10760 1.10153
 N392 N 0.31227 1.13748 1.09337
 N393 N 0.28673 1.15106 1.10615
 C394 C 0.26866 1.13544 1.12797
 N395 N 0.27697 1.10559 1.13618
 N396 N 0.30214 1.09184 1.12297
 C397 C 0.34809 1.09228 1.08728
 N398 N 0.34775 1.06085 1.08172
 N399 N 0.37282 1.04668 1.06878
 C400 C 0.39938 1.06332 1.06155
 N401 N 0.39989 1.09474 1.06738
 N402 N 0.37455 1.10903 1.07980
 C403 C 0.32122 0.88933 0.89646
 N404 N 0.30361 0.86792 0.91281
 N405 N 0.27845 0.85440 0.89914
 C406 C 0.26959 0.86231 0.86885
 N407 N 0.28710 0.88403 0.85272
 N408 N 0.31259 0.89708 0.86616
 C409 C 0.34895 0.90416 0.91131
 N410 N 0.37487 0.91150 0.89349
 N411 N 0.39995 0.92541 0.90689
 C412 C 0.39969 0.93300 0.93844
 N413 N 0.37369 0.92585 0.95620
 N414 N 0.34886 0.91140 0.94294
 C415 C 0.67397 0.88945 1.11424
 N416 N 0.68140 0.85910 1.10747
 N417 N 0.70638 0.84534 1.12129
 C418 C 0.72449 0.86125 1.14286
 N419 N 0.71662 0.89147 1.14996
 N420 N 0.69202 0.90539 1.13570
 C421 C 0.64732 0.90506 1.09814
 N422 N 0.64900 0.93611 1.09062
 N423 N 0.62503 0.95029 1.07552
 C424 C 0.59830 0.93404 1.06797
 N425 N 0.59649 0.90306 1.07576
 N426 N 0.62071 0.88874 1.09032
 C427 C 0.67876 1.10296 0.89343
 N428 N 0.68443 1.13401 0.89839
 N429 N 0.70920 1.14811 0.88469
 C430 C 0.72893 1.13183 0.86501
 N431 N 0.72303 1.10078 0.85988
 N432 N 0.69858 1.08655 0.87406
 C433 C 0.65153 1.08748 0.90864
 N434 N 0.65306 1.05672 0.91736
 N435 N 0.62842 1.04285 0.93159
 C436 C 0.60119 1.05909 0.93701
 N437 N 0.59956 1.08975 0.92800
 N438 N 0.62439 1.10378 0.91432
 C439 C 0.10629 0.32542 0.10587
 N440 N 0.10788 0.32344 0.13829
 N441 N 0.12325 0.29974 0.15239
 C442 C 0.13808 0.27749 0.13454
 N443 N 0.13673 0.27964 0.10211
 N444 N 0.12095 0.30307 0.08802
 C445 C 0.08913 0.35138 0.09039
 N446 N 0.07690 0.34805 0.06046
 N447 N 0.06133 0.37170 0.04648
 C448 C 0.05787 0.39966 0.06177
 N449 N 0.07026 0.40301 0.09161
 N450 N 0.08538 0.37922 0.10578
 C451 C -0.11774 0.32683 -0.11203
 N452 N -0.09971 0.30509 -0.12732
 N453 N -0.11324 0.28099 -0.14243
 C454 C -0.14530 0.27748 -0.14246
 N455 N -0.16338 0.29915 -0.12704
 N456 N -0.14984 0.32356 -0.11232
 C457 C -0.10253 0.35307 -0.09512
 N458 N -0.11802 0.38076 -0.09076
 N459 N -0.10371 0.40470 -0.07599
 C460 C -0.07363 0.40159 -0.06459
 N461 N -0.05830 0.37380 -0.06868
 N462 N -0.07241 0.35006 -0.08387
 C463 C 0.10577 0.67294 -0.10975
 N464 N 0.10748 0.67572 -0.14209
 N465 N 0.12201 0.70033 -0.15542
 C466 C 0.13575 0.72278 -0.13686
 N467 N 0.13429 0.71982 -0.10453
 N468 N 0.11936 0.69546 -0.09122
 C469 C 0.08914 0.64632 -0.09492
 N470 N 0.07719 0.64898 -0.06490
 N471 N 0.06197 0.62497 -0.05131
 C472 C 0.05853 0.59727 -0.06707
 N473 N 0.07066 0.59449 -0.09704
 N474 N 0.08549 0.61870 -0.11083
 C475 C -0.10814 0.67790 0.10813
 N476 N -0.08979 0.70137 0.12011
 N477 N -0.10302 0.72631 0.13403
 C478 C -0.13510 0.72891 0.13604
 N479 N -0.15348 0.70553 0.12386
 N480 N -0.14022 0.68036 0.11035
 C481 C -0.09350 0.65049 0.09275
 N482 N -0.10932 0.62270 0.09083
 N483 N -0.09595 0.59785 0.07684
 C484 C -0.06648 0.60005 0.06386
 N485 N -0.05076 0.62789 0.06562
 N486 N -0.06393 0.65259 0.08002
 C487 C 1.11348 0.10740 0.67989
 N488 N 1.14463 0.10328 0.68714
 N489 N 1.15748 0.11776 0.71231
 C490 C 1.13980 0.13735 0.73084
 N491 N 1.10870 0.14170 0.72327
 N492 N 1.09572 0.12678 0.69844
 C493 C 1.09906 0.09098 0.65266
 N494 N 1.06797 0.08264 0.65347
 N495 N 1.05471 0.06778 0.62879
 C496 C 1.07192 0.06117 0.60219
 N497 N 1.10299 0.06969 0.60124
 N498 N 1.11642 0.08407 0.62619
 C499 C 0.89596 -0.10062 0.67933
 N500 N 0.90365 -0.13073 0.68692
 N501 N 0.89115 -0.14454 0.71265
 C502 C 0.87007 -0.12892 0.73143
 N503 N 0.86231 -0.09880 0.72364
 N504 N 0.87527 -0.08481 0.69827
 C505 C 0.90999 -0.08534 0.65127
 N506 N 0.91728 -0.05424 0.65191
 N507 N 0.93095 -0.04054 0.62675
 C508 C 0.93713 -0.05729 0.59983
 N509 N 0.92945 -0.08830 0.59902
 N510 N 0.91634 -0.10215 0.62442
 C511 C 1.10665 -0.10976 0.32104
 N512 N 1.09893 -0.13982 0.31339
 N513 N 1.11169 -0.15359 0.28781
 C514 C 1.13305 -0.13798 0.26925
 N515 N 1.14090 -0.10796 0.27716
 N516 N 1.12770 -0.09402 0.30238
 C517 C 1.09221 -0.09427 0.34872
 N518 N 1.08692 -0.06279 0.34824
 N519 N 1.07356 -0.04856 0.37319
 C520 C 1.06558 -0.06519 0.39976
 N521 N 1.07114 -0.09665 0.40042
 N522 N 1.08400 -0.11100 0.37519
 C523 C 0.90072 0.11107 0.32110
 N524 N 0.90588 0.14167 0.31344
 N525 N 0.89096 0.15475 0.28861
 C526 C 0.86989 0.13788 0.27085
 N527 N 0.86462 0.10729 0.27874
 N528 N 0.87998 0.09406 0.30321
 C529 C 0.91721 0.09652 0.34822
 N530 N 0.92483 0.06552 0.34745
 N531 N 0.93960 0.05209 0.37215
 C532 C 0.94677 0.06902 0.39872
 N533 N 0.93895 0.10000 0.39964
 N534 N 0.92468 0.11359 0.37466
 C535 C 0.10219 0.32029 -0.10295
 N536 N 0.08639 0.30164 -0.12399
 N537 N 0.10066 0.27683 -0.13710
 C538 C 0.13107 0.26935 -0.12917
 N539 N 0.14668 0.28785 -0.10775
 N540 N 0.13260 0.31300 -0.09511
 C541 C 0.08661 0.34786 -0.08891
 N542 N 0.10361 0.37407 -0.08163
 N543 N 0.08936 0.39918 -0.06904
 C544 C 0.05774 0.39871 -0.06278
 N545 N 0.04082 0.37241 -0.06982
 N546 N 0.05494 0.34754 -0.08295
 C547 C -0.11880 0.32845 0.10992
 N548 N -0.15094 0.32569 0.11075
 N549 N -0.16457 0.30184 0.12632
 C550 C -0.14652 0.28029 0.14207
 N551 N -0.11443 0.28328 0.14146
 N552 N -0.10082 0.30680 0.12551
 C553 C -0.10351 0.35420 0.09239
 N554 N -0.07353 0.35070 0.08106
 N555 N -0.05922 0.37416 0.06560
 C556 C -0.07421 0.40211 0.06133
 N557 N -0.10417 0.40568 0.07276
 N558 N -0.11868 0.38203 0.08780
 C559 C -0.11038 0.67528 -0.11440
 N560 N -0.09409 0.69293 -0.13591
 N561 N -0.10790 0.71741 -0.15026
 C562 C -0.13833 0.72552 -0.14319
 N563 N -0.15455 0.70782 -0.12154
 N564 N -0.14093 0.68298 -0.10766
 C565 C -0.09512 0.64856 -0.09835
 N566 N -0.11218 0.62253 -0.09068
 N567 N -0.09832 0.59824 -0.07608
 C568 C -0.06708 0.59938 -0.06805
 N569 N -0.05007 0.62553 -0.07544
 N570 N -0.06379 0.64959 -0.09060
 C571 C 0.10541 0.67110 0.10986
 N572 N 0.08858 0.69391 0.12491
 N573 N 0.10344 0.71748 0.13964
 C574 C 0.13564 0.71934 0.13947
 N575 N 0.15249 0.69664 0.12422
 N576 N 0.13763 0.67278 0.10991
 C577 C 0.08901 0.64512 0.09373
 N578 N 0.10351 0.61684 0.09011
 N579 N 0.08849 0.59315 0.07574
 C580 C 0.05864 0.59704 0.06403
 N581 N 0.04422 0.62540 0.06740
 N582 N 0.05905 0.64896 0.08224
 C583 C 0.32776 1.11453 0.89395
 N584 N 0.32602 1.11636 0.86153
 N585 N 0.30198 1.13134 0.84738
 C586 C 0.27915 1.14554 0.86516
 N587 N 0.28111 1.14404 0.89759
 N588 N 0.30489 1.12864 0.91174
 C589 C 0.35372 1.09722 0.90943
 N590 N 0.34989 1.08454 0.93905
 N591 N 0.37337 1.06839 0.95287
 C592 C 0.40162 1.06474 0.93770
 N593 N 0.40550 1.07760 0.90819
 N594 N 0.38187 1.09332 0.89418
 C595 C 0.32057 0.88762 1.10331
 N596 N 0.29716 0.90509 1.11675
 N597 N 0.27254 0.89123 1.13095
 C598 C 0.27018 0.85938 1.13179
 N599 N 0.29345 0.84187 1.11808
 N600 N 0.31833 0.85575 1.10429
 C601 C 0.34787 0.90308 1.08818
 N602 N 0.37610 0.88790 1.08529
 N603 N 0.40104 0.90234 1.07222
 C604 C 0.39848 0.93231 1.06118
 N605 N 0.37017 0.94736 1.06382
 N606 N 0.34539 0.93310 1.07730
 C607 C 0.67631 1.10427 1.11160
 N608 N 0.70091 1.08755 1.12401
 N609 N 0.72535 1.10221 1.13776
 C610 C 0.72629 1.13413 1.13915
 N611 N 0.70179 1.15084 1.12652
 N612 N 0.67714 1.13617 1.11319
 C613 C 0.64930 1.08821 1.09659
 N614 N 0.62063 1.10266 1.09445
 N615 N 0.59610 1.08821 1.08062
 C616 C 0.59950 1.05898 1.06806
 N617 N 0.62822 1.04457 1.07005
 N618 N 0.65263 1.05884 1.08430
 C619 C 0.67807 0.89279 0.89240
 N620 N 0.68004 0.86097 0.89016
 N621 N 0.70522 0.84746 0.87662
 C622 C 0.72908 0.86532 0.86443
 N623 N 0.72697 0.89713 0.86649
 N624 N 0.70203 0.91061 0.88044
 C625 C 0.65066 0.90777 0.90771
 N626 N 0.65339 0.93696 0.92056
 N627 N 0.62866 0.95055 0.93478
 C628 C 0.60018 0.93564 0.93621
 N629 N 0.59735 0.90656 0.92311
 N630 N 0.62223 0.89276 0.90930
   
