data_POSCAR
  _audit_creation_date              2014-09-24
  _audit_creation_method            'ToBaCCo'
  _symmetry_space_group_name_H-M    'P1'
  _symmetry_Int_Tables_number       1
  _symmetry_cell_setting            triclinic
  loop_
  _symmetry_equiv_pos_as_xyz
 x,y,z
_cell_length_a 52.7841
_cell_length_b 52.6477
_cell_length_c 48.3556
_cell_angle_alpha 90.033000
_cell_angle_beta 90.001200
_cell_angle_gamma 86.244800
loop_
  _atom_site_label
  _atom_site_type_symbol
  _atom_site_fract_x
  _atom_site_fract_y
  _atom_site_fract_z
C1 C 0.07102 0.27826 0.02116
 C2 C 0.07081 0.27928 -0.00715
 C3 C 0.04725 0.29033 -0.01482
 N4 N 0.03290 0.29561 0.00787
 C5 C 0.04746 0.28830 0.02985
 C6 C 0.03951 0.29630 -0.04226
 C7 C 0.01346 0.30111 -0.04895
 C8 C 0.00437 0.31457 -0.07195
 C9 C -0.02158 0.31371 -0.07179
 C10 C -0.02773 0.29973 -0.04871
 N11 N -0.00628 0.29246 -0.03462
 C12 C -0.05261 0.29324 -0.04169
 C13 C -0.05880 0.28662 -0.01421
 C14 C -0.07993 0.27400 -0.00635
 C15 C -0.07956 0.27270 0.02194
 C16 C -0.05805 0.28424 0.03045
 N17 N -0.04530 0.29268 0.00835
 C18 C -0.05112 0.28799 0.05827
 C19 C -0.02655 0.29445 0.06590
 C20 C -0.01978 0.30321 0.09174
 C21 C 0.00621 0.30428 0.09159
 C22 C 0.01450 0.29613 0.06566
 N23 N -0.00558 0.29037 0.05009
 C24 C 0.04013 0.29175 0.05772
 H25 H 0.08662 0.27070 0.03387
 H26 H 0.08622 0.27244 -0.02052
 H27 H -0.00470 0.28096 0.03115
 H28 H 0.01531 0.32415 -0.08722
 H29 H -0.03446 0.32251 -0.08691
 H30 H -0.09407 0.26632 -0.01961
 H31 H -0.09340 0.26402 0.03477
 H32 H 0.01774 0.30982 0.10881
 H33 H -0.00497 0.28006 -0.01781
 H34 H -0.03221 0.30777 0.10910
 C35 C 0.42391 0.77422 0.49280
 C36 C 0.42476 0.77281 0.52111
 C37 C 0.44787 0.78156 0.52910
 N38 N 0.46112 0.78828 0.50666
 C39 C 0.44656 0.78371 0.48445
 C40 C 0.45583 0.78458 0.55673
 C41 C 0.48095 0.78975 0.56381
 C42 C 0.48847 0.79844 0.58941
 C43 C 0.51448 0.79908 0.58855
 C44 C 0.52213 0.79067 0.56248
 N45 N 0.50157 0.78510 0.54752
 C46 C 0.54768 0.78638 0.55390
 C47 C 0.55473 0.78267 0.52594
 C48 C 0.57862 0.77382 0.51688
 C49 C 0.57783 0.77408 0.48851
 C50 C 0.55352 0.78319 0.48121
 N51 N 0.53946 0.78850 0.50411
 C52 C 0.54492 0.78765 0.45387
 C53 C 0.51913 0.79366 0.44743
 C54 C 0.51037 0.80405 0.42260
 C55 C 0.48429 0.80457 0.42350
 C56 C 0.47789 0.79439 0.44880
 N57 N 0.49923 0.78793 0.46332
 C58 C 0.45303 0.78914 0.45685
 H59 H 0.40844 0.76876 0.47986
 H60 H 0.41004 0.76608 0.53427
 H61 H 0.50029 0.77706 0.48129
 H62 H 0.47648 0.80351 0.60698
 H63 H 0.52642 0.80471 0.60538
 H64 H 0.59489 0.76768 0.52938
 H65 H 0.59338 0.76820 0.47488
 H66 H 0.47153 0.81120 0.40713
 H67 H 0.50186 0.77564 0.52863
 H68 H 0.52161 0.81022 0.40545
 C69 C 0.93346 0.69381 0.02200
 C70 C 0.93254 0.69366 -0.00634
 C71 C 0.95242 0.70749 -0.01548
 N72 N 0.96581 0.71552 0.00630
 C73 C 0.95411 0.70732 0.02918
 C74 C 0.95706 0.71422 -0.04331
 C75 C 0.98139 0.72161 -0.05138
 C76 C 0.98655 0.73567 -0.07479
 C77 C 1.01238 0.73762 -0.07555
 C78 C 1.02230 0.72514 -0.05236
 N79 N 1.00332 0.71556 -0.03763
 C80 C 1.04842 0.72185 -0.04596
 C81 C 1.05717 0.71649 -0.01884
 C82 C 1.08216 0.71006 -0.01166
 C83 C 1.08323 0.71051 0.01667
 C84 C 1.05868 0.71664 0.02599
 N85 N 1.04288 0.72037 0.00413
 C86 C 1.05157 0.72237 0.05371
 C87 C 1.02570 0.72611 0.06177
 C88 C 1.01693 0.73587 0.08701
 C89 C 0.99114 0.73372 0.08756
 C90 C 0.98483 0.72215 0.06301
 N91 N 1.00590 0.71766 0.04742
 C92 C 0.96059 0.71399 0.05639
 H93 H 0.92039 0.68509 0.03576
 H94 H 0.91866 0.68462 -0.01879
 H95 H 1.00708 0.70650 0.02964
 H96 H 0.97312 0.74393 -0.08969
 H97 H 1.02266 0.74741 -0.09123
 H98 H 1.09817 0.70632 -0.02537
 H99 H 1.10040 0.70753 0.02871
 H100 H 0.97864 0.73941 0.10451
 H101 H 1.00551 0.70350 -0.02058
 H102 H 1.02780 0.74312 0.10386
 C103 C 0.57461 0.21223 0.49072
 C104 C 0.57586 0.21416 0.51901
 C105 C 0.55149 0.22117 0.52804
 N106 N 0.53553 0.22403 0.50624
 C107 C 0.54961 0.21866 0.48337
 C108 C 0.54466 0.22709 0.55563
 C109 C 0.51914 0.23046 0.56451
 C110 C 0.51126 0.24104 0.58961
 C111 C 0.48544 0.23918 0.59110
 C112 C 0.47827 0.22718 0.56708
 N113 N 0.49893 0.22193 0.55099
 C114 C 0.45349 0.21997 0.56119
 C115 C 0.44601 0.21315 0.53428
 C116 C 0.42379 0.20183 0.52776
 C117 C 0.42248 0.20105 0.49942
 C118 C 0.44395 0.21191 0.48963
 N119 N 0.45834 0.21919 0.51095
 C120 C 0.44894 0.21722 0.46160
 C121 C 0.47321 0.22359 0.45255
 C122 C 0.47830 0.23464 0.42729
 C123 C 0.50422 0.23578 0.42567
 C124 C 0.51424 0.22553 0.45005
 N125 N 0.49522 0.21824 0.46636
 C126 C 0.54045 0.22168 0.45600
 H127 H 0.59043 0.20710 0.47716
 H128 H 0.59283 0.21098 0.53142
 H129 H 0.49739 0.20756 0.48443
 H130 H 0.52287 0.24905 0.60540
 H131 H 0.47341 0.24571 0.60813
 H132 H 0.40983 0.19513 0.54192
 H133 H 0.40732 0.19363 0.48741
 H134 H 0.51452 0.24328 0.40847
 H135 H 0.49964 0.21062 0.53332
 H136 H 0.46480 0.24109 0.41156
 C137 C 0.71139 -0.07666 -0.02108
 C138 C 0.71103 -0.07664 0.00726
 C139 C 0.72089 -0.05412 0.01571
 N140 N 0.72629 -0.03997 -0.00661
 C141 C 0.72050 -0.05367 -0.02918
 C142 C 0.72664 -0.04755 0.04341
 C143 C 0.73097 -0.02202 0.05048
 C144 C 0.74420 -0.01442 0.07357
 C145 C 0.74285 0.01177 0.07347
 C146 C 0.72910 0.01943 0.05020
 N147 N 0.72216 -0.00123 0.03614
 C148 C 0.72181 0.04488 0.04317
 C149 C 0.71461 0.05161 0.01594
 C150 C 0.70133 0.07406 0.00829
 C151 C 0.70087 0.07429 -0.02007
 C152 C 0.71429 0.05216 -0.02877
 N153 N 0.72233 0.03814 -0.00667
 C154 C 0.72044 0.04568 -0.05654
 C155 C 0.72818 0.02015 -0.06367
 C156 C 0.74140 0.01254 -0.08738
 C157 C 0.74308 -0.01359 -0.08755
 C158 C 0.73168 -0.02142 -0.06339
 N159 N 0.72269 -0.00067 -0.04898
 C160 C 0.72685 -0.04684 -0.05652
 H161 H 0.70593 -0.09217 -0.03394
 H162 H 0.70469 -0.09179 0.02011
 H163 H 0.71082 -0.00075 -0.03176
 H164 H 0.75394 -0.02645 0.08887
 H165 H 0.75114 0.02376 0.08875
 H166 H 0.69300 0.08875 0.02177
 H167 H 0.69186 0.08917 -0.03282
 H168 H 0.75137 -0.02522 -0.10404
 H169 H 0.70988 -0.00106 0.01923
 H170 H 0.74882 0.02449 -0.10324
 C171 C 0.20006 0.42318 0.50584
 C172 C 0.19940 0.42289 0.47750
 C173 C 0.20594 0.44667 0.46879
 N174 N 0.21101 0.46128 0.49084
 C175 C 0.20755 0.44693 0.51353
 C176 C 0.20967 0.45366 0.44097
 C177 C 0.21253 0.47900 0.43238
 C178 C 0.21944 0.48607 0.40594
 C179 C 0.21896 0.51219 0.40563
 C180 C 0.21182 0.52044 0.43192
 N181 N 0.20749 0.50011 0.44793
 C182 C 0.20823 0.54625 0.44002
 C183 C 0.20525 0.55406 0.46783
 C184 C 0.19889 0.57880 0.47637
 C185 C 0.20048 0.57880 0.50466
 C186 C 0.20819 0.55416 0.51249
 N187 N 0.21100 0.53907 0.48995
 C188 C 0.21492 0.54652 0.53969
 C189 C 0.21943 0.52069 0.54737
 C190 C 0.23142 0.51233 0.57154
 C191 C 0.23094 0.48625 0.57192
 C192 C 0.21874 0.47935 0.54793
 N193 N 0.21170 0.50045 0.53311
 C194 C 0.21357 0.45414 0.54081
 H195 H 0.19606 0.40745 0.51918
 H196 H 0.19492 0.40684 0.46486
 H197 H 0.20002 0.50119 0.51577
 H198 H 0.22400 0.47378 0.38845
 H199 H 0.22313 0.52372 0.38790
 H200 H 0.19401 0.59526 0.46360
 H201 H 0.19690 0.59523 0.51789
 H202 H 0.23882 0.47380 0.58798
 H203 H 0.19922 0.50071 0.46743
 H204 H 0.23973 0.52380 0.58729
 C205 C 0.26915 0.92039 -0.01964
 C206 C 0.27174 0.92054 0.00856
 C207 C 0.28270 0.94293 0.01518
 N208 N 0.28704 0.95643 -0.00791
 C209 C 0.27901 0.94253 -0.02930
 C210 C 0.29022 0.94991 0.04192
 C211 C 0.29599 0.97499 0.04834
 C212 C 0.30930 0.98203 0.07148
 C213 C 0.30861 1.00819 0.07143
 C214 C 0.29450 1.01637 0.04847
 N215 N 0.28729 0.99595 0.03424
 C216 C 0.28706 1.04204 0.04204
 C217 C 0.27936 1.04912 0.01485
 C218 C 0.26506 1.07123 0.00789
 C219 C 0.26247 1.07112 -0.02028
 C220 C 0.27526 1.04895 -0.02971
 N221 N 0.28531 1.03532 -0.00816
 C222 C 0.27817 1.04179 -0.05785
 C223 C 0.28434 1.01607 -0.06522
 C224 C 0.29559 1.00801 -0.08991
 C225 C 0.29646 0.98188 -0.08986
 C226 C 0.28573 0.97464 -0.06513
 N227 N 0.27884 0.99560 -0.04996
 C228 C 0.28172 0.94923 -0.05745
 H229 H 0.26092 0.90564 -0.03163
 H230 H 0.26612 0.90592 0.02258
 H231 H 0.26850 0.99604 -0.03157
 H232 H 0.31832 0.96962 0.08693
 H233 H 0.31719 1.01986 0.08680
 H234 H 0.25688 1.08572 0.02171
 H235 H 0.25195 1.08552 -0.03240
 H236 H 0.30421 0.96961 -0.10617
 H237 H 0.27452 0.99639 0.01778
 H238 H 0.30248 1.01975 -0.10629
 C239 C 0.78503 0.41736 0.50812
 C240 C 0.78253 0.41796 0.47991
 C241 C 0.78960 0.44161 0.47138
 N242 N 0.79656 0.45537 0.49337
 C243 C 0.79371 0.44061 0.51588
 C244 C 0.79055 0.44964 0.44355
 C245 C 0.79300 0.47525 0.43564
 C246 C 0.79741 0.48321 0.40886
 C247 C 0.79619 0.50938 0.40935
 C248 C 0.79147 0.51676 0.43652
 N249 N 0.78937 0.49580 0.45234
 C250 C 0.78723 0.54226 0.44565
 C251 C 0.78735 0.54951 0.47386
 C252 C 0.78146 0.57398 0.48361
 C253 C 0.78477 0.57321 0.51171
 C254 C 0.79295 0.54840 0.51826
 N255 N 0.79470 0.53400 0.49508
 C256 C 0.79960 0.53972 0.54515
 C257 C 0.80523 0.51378 0.55163
 C258 C 0.81660 0.50503 0.57599
 C259 C 0.81669 0.47891 0.57545
 C260 C 0.80540 0.47243 0.55076
 N261 N 0.79851 0.49378 0.53635
 C262 C 0.79989 0.44745 0.54319
 H263 H 0.78087 0.40160 0.52136
 H264 H 0.77605 0.40277 0.46717
 H265 H 0.78689 0.49476 0.51901
 H266 H 0.80063 0.47144 0.39068
 H267 H 0.79820 0.52145 0.39151
 H268 H 0.77556 0.59079 0.47183
 H269 H 0.78161 0.58919 0.52564
 H270 H 0.82390 0.46616 0.59158
 H271 H 0.78272 0.49565 0.47253
 H272 H 0.82374 0.51632 0.59262
 O273 O 0.22944 0.25521 0.22077
 O274 O 0.28587 0.23913 0.26381
 O275 O 0.26601 0.21974 0.21977
 O276 O 0.24931 0.27468 0.26462
 O277 O 0.22536 0.25107 0.29012
 O278 O 0.24429 0.19539 0.24683
 O279 O 0.26271 0.21647 0.29125
 O280 O 0.20710 0.23025 0.24647
 Cu281 Cu 0.25997 0.24956 0.23959
 Cu282 Cu 0.23269 0.22077 0.27132
 C283 C 0.20867 0.24530 0.22610
 C284 C 0.28374 0.22555 0.28528
 C285 C 0.25790 0.19818 0.22550
 C286 C 0.23433 0.27236 0.28489
 O287 O 0.77041 0.73566 0.28568
 O288 O 0.75610 0.79273 0.24307
 O289 O 0.73718 0.77401 0.28784
 O290 O 0.78942 0.75403 0.24040
 O291 O 0.76267 0.73393 0.21451
 O292 O 0.71114 0.75193 0.26323
 O293 O 0.72948 0.77158 0.21811
 O294 O 0.74545 0.71392 0.25919
 Cu295 Cu 0.76595 0.76622 0.26678
 Cu296 Cu 0.73440 0.74072 0.23638
 C297 C 0.76046 0.71506 0.27960
 C298 C 0.74055 0.79180 0.22311
 C299 C 0.71528 0.76604 0.28385
 C300 C 0.78482 0.74103 0.21902
 O301 O 0.73230 0.28496 0.25869
 O302 O 0.72068 0.22896 0.21612
 O303 O 0.70142 0.24863 0.26218
 O304 O 0.75144 0.26533 0.21341
 O305 O 0.77954 0.24117 0.23692
 O306 O 0.73031 0.22704 0.28735
 O307 O 0.74782 0.20540 0.24154
 O308 O 0.76171 0.26225 0.28200
 Cu309 Cu 0.72352 0.25915 0.23515
 Cu310 Cu 0.75763 0.23149 0.26432
 C311 C 0.74914 0.28327 0.27749
 C312 C 0.73237 0.20766 0.22141
 C313 C 0.70755 0.23573 0.28364
 C314 C 0.77406 0.25601 0.21678
 O315 O 0.27991 0.76537 0.21169
 O316 O 0.26772 0.70992 0.25503
 O317 O 0.24780 0.72989 0.21015
 O318 O 0.30023 0.74468 0.25620
 O319 O 0.27361 0.76831 0.28214
 O320 O 0.22133 0.75480 0.23497
 O321 O 0.24038 0.73386 0.27983
 O322 O 0.25381 0.78956 0.23766
 Cu323 Cu 0.27660 0.73509 0.23069
 Cu324 Cu 0.24464 0.76406 0.26124
 C325 C 0.26886 0.78696 0.21721
 C326 C 0.25191 0.71242 0.27482
 C327 C 0.22565 0.73998 0.21451
 C328 C 0.29589 0.75871 0.27725
 O329 O 0.71340 0.26132 0.74063
 O330 O 0.76714 0.27543 0.78572
 O331 O 0.74775 0.29434 0.74016
 O332 O 0.73212 0.24329 0.78750
 O333 O 0.75699 0.21576 0.76392
 O334 O 0.77270 0.26723 0.71621
 O335 O 0.79212 0.24823 0.76191
 O336 O 0.73846 0.23369 0.71744
 Cu337 Cu 0.73753 0.27128 0.76585
 Cu338 Cu 0.76756 0.23849 0.73748
 C339 C 0.71682 0.24515 0.72122
 C340 C 0.78885 0.26415 0.78154
 C341 C 0.76281 0.28964 0.72008
 C342 C 0.74207 0.22090 0.78410
 O343 O 0.28024 0.74514 0.73107
 O344 O 0.22708 0.73242 0.77725
 O345 O 0.24724 0.71026 0.73338
 O346 O 0.26011 0.76640 0.77509
 O347 O 0.23304 0.79008 0.74974
 O348 O 0.22276 0.73455 0.70576
 O349 O 0.20067 0.75472 0.74976
 O350 O 0.25443 0.77019 0.70572
 Cu351 Cu 0.25628 0.73606 0.75676
 Cu352 Cu 0.22505 0.76472 0.72510
 C353 C 0.27650 0.76018 0.71071
 C354 C 0.20482 0.74146 0.77143
 C355 C 0.23318 0.71291 0.71214
 C356 C 0.24853 0.78776 0.76984
 O357 O 0.24167 0.29582 0.74242
 O358 O 0.25942 0.24110 0.78710
 O359 O 0.27782 0.25967 0.74176
 O360 O 0.22245 0.27625 0.78656
 O361 O 0.19915 0.25241 0.76060
 O362 O 0.25421 0.23547 0.71649
 O363 O 0.23589 0.21682 0.76194
 O364 O 0.21898 0.27148 0.71624
 Cu365 Cu 0.25269 0.27059 0.76704
 Cu366 Cu 0.22468 0.24157 0.73638
 C367 C 0.22769 0.29292 0.72144
 C368 C 0.25053 0.21969 0.78244
 C369 C 0.27524 0.24505 0.72113
 C370 C 0.20130 0.26708 0.78118
 O371 O 0.73703 0.75856 0.71821
 O372 O 0.79397 0.74256 0.76044
 O373 O 0.77340 0.72268 0.71731
 O374 O 0.75780 0.77842 0.76169
 O375 O 0.73425 0.75523 0.78811
 O376 O 0.75145 0.69906 0.74495
 O377 O 0.77109 0.72010 0.78838
 O378 O 0.71479 0.73437 0.74491
 Cu379 Cu 0.76776 0.75293 0.73666
 Cu380 Cu 0.74067 0.72480 0.76931
 C381 C 0.71624 0.74892 0.72412
 C382 C 0.79212 0.72894 0.78193
 C383 C 0.76507 0.70131 0.72354
 C384 C 0.74341 0.77634 0.78252
 C385 C 0.29610 0.08493 0.05815
 C386 C 0.29528 0.10356 0.07878
 C387 C 0.28524 0.09864 0.10483
 C388 C 0.27632 0.07460 0.11027
 C389 C 0.27719 0.05589 0.08972
 C390 C 0.28691 0.06080 0.06320
 N391 N 0.28365 0.11857 0.12503
 N392 N 0.27381 0.11577 0.14878
 C393 C 0.27158 0.13608 0.16854
 C394 C 0.25891 0.13234 0.19348
 C395 C 0.25495 0.15232 0.21239
 C396 C 0.26375 0.17641 0.20665
 C397 C 0.27713 0.17986 0.18192
 C398 C 0.28098 0.15991 0.16301
 H399 H 0.30432 0.08929 0.03832
 H400 H 0.30231 0.12200 0.07438
 H401 H 0.26834 0.07038 0.13024
 H402 H 0.26938 0.03785 0.09431
 H403 H 0.25159 0.11405 0.19798
 H404 H 0.24461 0.14903 0.23125
 H405 H 0.28417 0.19815 0.17685
 H406 H 0.29091 0.16326 0.14390
 C407 C 0.81707 0.57813 0.56724
 C408 C 0.81619 0.59685 0.58781
 C409 C 0.79856 0.59628 0.60941
 C410 C 0.78205 0.57640 0.61052
 C411 C 0.78281 0.55778 0.58988
 C412 C 0.80010 0.55868 0.56791
 N413 N 0.79699 0.61662 0.62916
 N414 N 0.78201 0.61668 0.64979
 C415 C 0.77940 0.63749 0.66890
 C416 C 0.76335 0.63562 0.69172
 C417 C 0.75913 0.65614 0.70988
 C418 C 0.77083 0.67902 0.70536
 C419 C 0.78732 0.68068 0.68267
 C420 C 0.79162 0.66008 0.66462
 H421 H 0.83060 0.57905 0.55049
 H422 H 0.82899 0.61207 0.58671
 H423 H 0.76821 0.57555 0.62695
 H424 H 0.76957 0.54292 0.59070
 H425 H 0.75378 0.61833 0.69520
 H426 H 0.74630 0.65424 0.72712
 H427 H 0.79666 0.69801 0.67864
 H428 H 0.80408 0.66201 0.64707
 C429 C 0.74122 0.90908 0.05813
 C430 C 0.74259 0.88978 0.07794
 C431 C 0.73258 0.89414 0.10437
 C432 C 0.72110 0.91819 0.11093
 C433 C 0.71921 0.93743 0.09093
 C434 C 0.72903 0.93314 0.06403
 N435 N 0.73385 0.87363 0.12380
 N436 N 0.73065 0.87697 0.14967
 C437 C 0.73155 0.85578 0.16828
 C438 C 0.73741 0.85950 0.19616
 C439 C 0.74004 0.83875 0.21426
 C440 C 0.73607 0.81407 0.20480
 C441 C 0.72917 0.81056 0.17708
 C442 C 0.72719 0.83118 0.15889
 H443 H 0.75007 0.90520 0.03824
 H444 H 0.75171 0.87137 0.07275
 H445 H 0.71304 0.92188 0.13123
 H446 H 0.70929 0.95542 0.09629
 H447 H 0.74072 0.87838 0.20366
 H448 H 0.74531 0.84195 0.23556
 H449 H 0.72614 0.79173 0.16922
 H450 H 0.72238 0.82791 0.13748
 C451 C 0.23311 0.41252 0.55854
 C452 C 0.23474 0.39301 0.57813
 C453 C 0.22025 0.39499 0.60235
 C454 C 0.20396 0.41680 0.60682
 C455 C 0.20185 0.43609 0.58689
 C456 C 0.21628 0.43402 0.56248
 N457 N 0.22208 0.37436 0.62165
 N458 N 0.21480 0.37681 0.64666
 C459 C 0.21646 0.35564 0.66529
 C460 C 0.21817 0.36008 0.69374
 C461 C 0.22151 0.33966 0.71218
 C462 C 0.22233 0.31448 0.70240
 C463 C 0.21952 0.31006 0.67396
 C464 C 0.21691 0.33047 0.65549
 H465 H 0.24467 0.41068 0.54006
 H466 H 0.24741 0.37632 0.57452
 H467 H 0.19250 0.41865 0.62537
 H468 H 0.18879 0.45253 0.59033
 H469 H 0.21774 0.37939 0.70154
 H470 H 0.22357 0.34352 0.73404
 H471 H 0.22024 0.29082 0.66592
 H472 H 0.21536 0.32663 0.63358
 C473 C 0.93461 0.26598 0.10093
 C474 C 0.91616 0.26167 0.12081
 C475 C 0.89262 0.27554 0.12027
 C476 C 0.88788 0.29430 0.09989
 C477 C 0.90638 0.29874 0.08011
 C478 C 0.92979 0.28442 0.08030
 N479 N 0.87375 0.26981 0.14020
 N480 N 0.85137 0.28040 0.13973
 C481 C 0.83246 0.27432 0.15947
 C482 C 0.80790 0.28578 0.15695
 C483 C 0.78887 0.27988 0.17555
 C484 C 0.79417 0.26241 0.19711
 C485 C 0.81893 0.25105 0.19968
 C486 C 0.83790 0.25691 0.18101
 H487 H 0.95250 0.25466 0.10134
 H488 H 0.92003 0.24717 0.13640
 H489 H 0.86986 0.30534 0.09911
 H490 H 0.90237 0.31310 0.06440
 H491 H 0.80347 0.29922 0.14043
 H492 H 0.77002 0.28899 0.17303
 H493 H 0.82365 0.23753 0.21604
 H494 H 0.85676 0.24780 0.18340
 C495 C 0.44057 0.76309 0.59926
 C496 C 0.42195 0.75971 0.61924
 C497 C 0.39943 0.77531 0.61941
 C498 C 0.39606 0.79499 0.59983
 C499 C 0.41475 0.79850 0.57998
 C500 C 0.43694 0.78228 0.57924
 N501 N 0.37997 0.77022 0.63891
 N502 N 0.35823 0.78218 0.63835
 C503 C 0.33839 0.77684 0.65725
 C504 C 0.31454 0.78970 0.65408
 C505 C 0.29445 0.78437 0.67149
 C506 C 0.29794 0.76607 0.69257
 C507 C 0.32203 0.75338 0.69594
 C508 C 0.34209 0.75866 0.67839
 H509 H 0.45756 0.75039 0.59899
 H510 H 0.42478 0.74451 0.63422
 H511 H 0.37888 0.80740 0.59961
 H512 H 0.41170 0.81351 0.56479
 H513 H 0.31146 0.80373 0.63785
 H514 H 0.27618 0.79454 0.66838
 H515 H 0.32534 0.73919 0.71197
 H516 H 0.36038 0.74846 0.68125
 C517 C 0.07330 0.74996 0.08531
 C518 C 0.09222 0.75346 0.10487
 C519 C 0.10918 0.73317 0.11251
 C520 C 0.10690 0.70909 0.10054
 C521 C 0.08776 0.70546 0.08123
 C522 C 0.07074 0.72587 0.07341
 N523 N 0.12850 0.73756 0.13238
 N524 N 0.14673 0.72120 0.13738
 C525 C 0.16589 0.72578 0.15740
 C526 C 0.18793 0.70954 0.15826
 C527 C 0.20737 0.71405 0.17691
 C528 C 0.20482 0.73471 0.19536
 C529 C 0.18240 0.75066 0.19489
 C530 C 0.16316 0.74635 0.17594
 H531 H 0.06077 0.76613 0.07926
 H532 H 0.09387 0.77211 0.11387
 H533 H 0.11975 0.69308 0.10626
 H534 H 0.08607 0.68667 0.07255
 H535 H 0.19021 0.69359 0.14413
 H536 H 0.22437 0.70137 0.17690
 H537 H 0.17993 0.76675 0.20881
 H538 H 0.14621 0.75908 0.17577
 C539 C 0.57071 0.25589 0.58330
 C540 C 0.58941 0.25978 0.60303
 C541 C 0.60305 0.23902 0.61526
 C542 C 0.59763 0.21415 0.60764
 C543 C 0.57863 0.21026 0.58820
 C544 C 0.56508 0.23111 0.57592
 N545 N 0.62214 0.24372 0.63535
 N546 N 0.63791 0.22620 0.64404
 C547 C 0.65688 0.23096 0.66425
 C548 C 0.67709 0.21278 0.66819
 C549 C 0.69649 0.21729 0.68690
 C550 C 0.69568 0.23990 0.70245
 C551 C 0.67497 0.25782 0.69907
 C552 C 0.65582 0.25349 0.67994
 H553 H 0.56038 0.27217 0.57399
 H554 H 0.59341 0.27901 0.60872
 H555 H 0.60786 0.19781 0.61689
 H556 H 0.57445 0.19102 0.58273
 H557 H 0.67807 0.19531 0.65631
 H558 H 0.71215 0.20309 0.68917
 H559 H 0.67390 0.27544 0.71070
 H560 H 0.64027 0.26774 0.67739
 C561 C 0.71103 0.06070 0.89593
 C562 C 0.71203 0.07930 0.87539
 C563 C 0.72144 0.10287 0.88141
 C564 C 0.72998 0.10769 0.90827
 C565 C 0.72951 0.08897 0.92867
 C566 C 0.72009 0.06505 0.92289
 N567 N 0.72297 0.12133 0.85983
 N568 N 0.72571 0.14465 0.86523
 C569 C 0.72859 0.16324 0.84408
 C570 C 0.72527 0.18902 0.85103
 C571 C 0.72899 0.20774 0.83127
 C572 C 0.73671 0.20092 0.80431
 C573 C 0.74004 0.17500 0.79731
 C574 C 0.73577 0.15626 0.81699
 H575 H 0.70294 0.04293 0.89072
 H576 H 0.70529 0.07539 0.85477
 H577 H 0.73770 0.12568 0.91330
 H578 H 0.73747 0.09296 0.94873
 H579 H 0.71990 0.19461 0.87189
 H580 H 0.72648 0.22756 0.83731
 H581 H 0.74597 0.16925 0.77667
 H582 H 0.73865 0.13641 0.81126
 C583 C 0.18842 0.58012 0.40887
 C584 C 0.19066 0.59951 0.38940
 C585 C 0.21455 0.60486 0.37912
 C586 C 0.23630 0.59069 0.38870
 C587 C 0.23411 0.57165 0.40847
 C588 C 0.21018 0.56621 0.41863
 N589 N 0.21643 0.62516 0.35966
 N590 N 0.23679 0.62803 0.34626
 C591 C 0.23946 0.64882 0.32763
 C592 C 0.26070 0.64836 0.31031
 C593 C 0.26448 0.66879 0.29267
 C594 C 0.24721 0.69027 0.29246
 C595 C 0.22580 0.69065 0.30981
 C596 C 0.22185 0.67002 0.32713
 H597 H 0.16983 0.57618 0.41661
 H598 H 0.17379 0.61036 0.38227
 H599 H 0.25499 0.59461 0.38126
 H600 H 0.25107 0.56114 0.41594
 H601 H 0.27445 0.63217 0.31061
 H602 H 0.28120 0.66799 0.27964
 H603 H 0.21214 0.70693 0.31004
 H604 H 0.20536 0.67085 0.34049
 C605 C 0.29400 0.90606 0.92563
 C606 C 0.29252 0.88696 0.90580
 C607 C 0.27821 0.89134 0.88178
 C608 C 0.26580 0.91540 0.87736
 C609 C 0.26734 0.93464 0.89712
 C610 C 0.28111 0.93014 0.92185
 N611 N 0.27607 0.87078 0.86274
 N612 N 0.26242 0.87276 0.84106
 C613 C 0.26004 0.85164 0.82277
 C614 C 0.24391 0.85450 0.79986
 C615 C 0.24034 0.83386 0.78238
 C616 C 0.25294 0.80997 0.78758
 C617 C 0.26945 0.80729 0.81036
 C618 C 0.27296 0.82790 0.82780
 H619 H 0.30552 0.90208 0.94385
 H620 H 0.30234 0.86853 0.90931
 H621 H 0.25461 0.91922 0.85889
 H622 H 0.25692 0.95276 0.89354
 H623 H 0.23383 0.87269 0.79577
 H624 H 0.22752 0.83655 0.76498
 H625 H 0.27947 0.78917 0.81494
 H626 H 0.28556 0.82518 0.84537
 C627 C 0.80782 0.41000 0.41963
 C628 C 0.80562 0.39065 0.40017
 C629 C 0.78472 0.39108 0.38234
 C630 C 0.76610 0.41141 0.38386
 C631 C 0.76823 0.43074 0.40342
 C632 C 0.78900 0.43004 0.42159
 N633 N 0.78240 0.37019 0.36372
 N634 N 0.76431 0.36959 0.34639
 C635 C 0.76160 0.34820 0.32854
 C636 C 0.74197 0.34928 0.30907
 C637 C 0.73814 0.32835 0.29213
 C638 C 0.75388 0.30584 0.29455
 C639 C 0.77377 0.30491 0.31395
 C640 C 0.77764 0.32591 0.33076
 H641 H 0.82397 0.40918 0.43350
 H642 H 0.82005 0.37508 0.39923
 H643 H 0.74973 0.41212 0.37034
 H644 H 0.75350 0.44600 0.40475
 H645 H 0.72944 0.36633 0.30721
 H646 H 0.72263 0.32967 0.27744
 H647 H 0.78624 0.28788 0.31630
 H648 H 0.79293 0.32458 0.34571
 C649 C 0.08085 0.30975 0.94156
 C650 C 0.09987 0.30959 0.92148
 C651 C 0.09672 0.29755 0.89607
 C652 C 0.07385 0.28630 0.89053
 C653 C 0.05473 0.28649 0.91056
 C654 C 0.05815 0.29771 0.93668
 N655 N 0.11743 0.29600 0.87688
 N656 N 0.11626 0.28429 0.85393
 C657 C 0.13732 0.28172 0.83525
 C658 C 0.13485 0.26774 0.81092
 C659 C 0.15550 0.26339 0.79308
 C660 C 0.17908 0.27304 0.79930
 C661 C 0.18135 0.28762 0.82345
 C662 C 0.16066 0.29191 0.84131
 H663 H 0.08388 0.31938 0.96096
 H664 H 0.11733 0.31852 0.92591
 H665 H 0.07096 0.27686 0.87100
 H666 H 0.03774 0.27678 0.90604
 H667 H 0.11698 0.25978 0.80605
 H668 H 0.15308 0.25214 0.77463
 H669 H 0.19923 0.29533 0.82881
 H670 H 0.16304 0.30279 0.86002
 C671 C 0.56083 0.76751 0.40979
 C672 C 0.57855 0.76489 0.38837
 C673 C 0.59929 0.78011 0.38767
 C674 C 0.60193 0.79843 0.40848
 C675 C 0.58409 0.80118 0.42985
 C676 C 0.56355 0.78554 0.43080
 N677 N 0.61764 0.77609 0.36603
 N678 N 0.63787 0.78795 0.36505
 C679 C 0.65637 0.78329 0.34366
 C680 C 0.67927 0.79517 0.34518
 C681 C 0.69829 0.78993 0.32549
 C682 C 0.69461 0.77277 0.30377
 C683 C 0.67133 0.76134 0.30191
 C684 C 0.65240 0.76648 0.32172
 H685 H 0.54511 0.75527 0.41019
 H686 H 0.57634 0.75072 0.37247
 H687 H 0.61779 0.81047 0.40833
 H688 H 0.58639 0.81531 0.44578
 H689 H 0.68255 0.80817 0.36197
 H690 H 0.71598 0.79910 0.32747
 H691 H 0.66791 0.74802 0.28546
 H692 H 0.63482 0.75710 0.32005
 C693 C 0.91208 0.72415 0.94490
 C694 C 0.89211 0.72474 0.92599
 C695 C 0.89628 0.71673 0.89876
 C696 C 0.92074 0.70765 0.89060
 C697 C 0.94074 0.70655 0.90967
 C698 C 0.93679 0.71488 0.93720
 N699 N 0.87531 0.71811 0.87996
 N700 N 0.87807 0.71634 0.85388
 C701 C 0.85657 0.71786 0.83574
 C702 C 0.86004 0.72337 0.80774
 C703 C 0.83912 0.72670 0.79004
 C704 C 0.81443 0.72395 0.80003
 C705 C 0.81111 0.71748 0.82791
 C706 C 0.83196 0.71467 0.84569
 H707 H 0.90823 0.73164 0.96545
 H708 H 0.87335 0.73197 0.93243
 H709 H 0.92431 0.70109 0.86965
 H710 H 0.95918 0.69864 0.90298
 H711 H 0.87891 0.72581 0.79982
 H712 H 0.84222 0.73157 0.76860
 H713 H 0.79231 0.71532 0.83620
 H714 H 0.82883 0.71021 0.86722
 C715 C 0.40486 0.23225 0.44679
 C716 C 0.38472 0.23263 0.42804
 C717 C 0.38712 0.21909 0.40319
 C718 C 0.40984 0.20463 0.39745
 C719 C 0.42981 0.20370 0.41656
 C720 C 0.42757 0.21764 0.44136
 N721 N 0.36618 0.22031 0.38432
 N722 N 0.36870 0.21463 0.35883
 C723 C 0.34734 0.21587 0.34049
 C724 C 0.35130 0.21871 0.31206
 C725 C 0.33064 0.22163 0.29394
 C726 C 0.30570 0.22097 0.30397
 C727 C 0.30181 0.21713 0.33237
 C728 C 0.32244 0.21489 0.35053
 H729 H 0.40274 0.24338 0.46560
 H730 H 0.36731 0.24386 0.43267
 H731 H 0.41201 0.19385 0.37844
 H732 H 0.44706 0.19218 0.41200
 H733 H 0.37040 0.21941 0.30406
 H734 H 0.33413 0.22448 0.27213
 H735 H 0.28278 0.21668 0.34065
 H736 H 0.31894 0.21249 0.37241
 C737 C 0.75417 0.92721 0.91218
 C738 C 0.75740 0.90805 0.89226
 C739 C 0.73670 0.89493 0.88333
 C740 C 0.71247 0.90150 0.89425
 C741 C 0.70913 0.92096 0.91387
 C742 C 0.72998 0.93396 0.92316
 N743 N 0.74088 0.87495 0.86341
 N744 N 0.72418 0.85932 0.85791
 C745 C 0.72863 0.83937 0.83800
 C746 C 0.71237 0.81944 0.83731
 C747 C 0.71698 0.79902 0.81909
 C748 C 0.73773 0.79850 0.80083
 C749 C 0.75361 0.81892 0.80097
 C750 C 0.74923 0.83910 0.81955
 H751 H 0.77065 0.93657 0.91932
 H752 H 0.77617 0.90309 0.88407
 H753 H 0.69614 0.89172 0.88750
 H754 H 0.69024 0.92599 0.92173
 H755 H 0.69640 0.81946 0.85137
 H756 H 0.70437 0.78360 0.81936
 H757 H 0.76978 0.81900 0.78720
 H758 H 0.76198 0.85439 0.81957
 C759 C 0.23805 0.42575 0.41105
 C760 C 0.24204 0.40610 0.39186
 C761 C 0.22161 0.39308 0.38202
 C762 C 0.19686 0.40034 0.39111
 C763 C 0.19279 0.42039 0.40994
 C764 C 0.21342 0.43302 0.42020
 N765 N 0.22664 0.37253 0.36304
 N766 N 0.21035 0.35655 0.35733
 C767 C 0.21602 0.33612 0.33829
 C768 C 0.20040 0.31565 0.33759
 C769 C 0.20626 0.29487 0.32018
 C770 C 0.22762 0.29454 0.30277
 C771 C 0.24287 0.31543 0.30299
 C772 C 0.23725 0.33596 0.32074
 H773 H 0.25415 0.43533 0.41882
 H774 H 0.26115 0.40068 0.38497
 H775 H 0.18078 0.39060 0.38361
 H776 H 0.17368 0.42586 0.41681
 H777 H 0.18396 0.31559 0.35098
 H778 H 0.19409 0.27909 0.32032
 H779 H 0.25947 0.31568 0.28984
 H780 H 0.24952 0.35165 0.32079
 C781 C 0.26179 0.05563 0.89646
 C782 C 0.25826 0.07426 0.87597
 C783 C 0.26793 0.09815 0.87940
 C784 C 0.28141 0.10321 0.90362
 C785 C 0.28489 0.08467 0.92418
 C786 C 0.27501 0.06057 0.92106
 N787 N 0.26339 0.11706 0.85834
 N788 N 0.27220 0.13893 0.86010
 C789 C 0.26737 0.15830 0.83963
 C790 C 0.27790 0.18175 0.84327
 C791 C 0.27279 0.20151 0.82442
 C792 C 0.25695 0.19817 0.80149
 C793 C 0.24669 0.17442 0.79761
 C794 C 0.25185 0.15463 0.81652
 H795 H 0.25341 0.03760 0.89340
 H796 H 0.24771 0.07016 0.85747
 H797 H 0.28921 0.12151 0.90672
 H798 H 0.29582 0.08905 0.94233
 H799 H 0.28987 0.18481 0.86099
 H800 H 0.28101 0.21953 0.82805
 H801 H 0.23442 0.17124 0.78018
 H802 H 0.24348 0.13664 0.81328
 C803 C 0.75788 0.57479 0.42242
 C804 C 0.75339 0.59509 0.40412
 C805 C 0.77285 0.60279 0.38705
 C806 C 0.79708 0.59014 0.38863
 C807 C 0.80184 0.57038 0.40765
 C808 C 0.78223 0.56254 0.42462
 N809 N 0.76792 0.62423 0.36928
 N810 N 0.77969 0.62660 0.34656
 C811 C 0.77525 0.64890 0.32993
 C812 C 0.77623 0.64686 0.30108
 C813 C 0.77112 0.66839 0.28455
 C814 C 0.76603 0.69237 0.29679
 C815 C 0.76585 0.69451 0.32571
 C816 C 0.77002 0.67286 0.34219
 H817 H 0.74257 0.56902 0.43543
 H818 H 0.73468 0.60482 0.40316
 H819 H 0.81244 0.59609 0.37583
 H820 H 0.82079 0.56130 0.40929
 H821 H 0.78034 0.62848 0.29143
 H822 H 0.77144 0.66642 0.26225
 H823 H 0.76188 0.71285 0.33550
 H824 H 0.76947 0.67480 0.36448
 C825 C 0.08590 0.74365 0.93578
 C826 C 0.10449 0.74661 0.91571
 C827 C 0.10438 0.73269 0.89109
 C828 C 0.08537 0.71566 0.88663
 C829 C 0.06710 0.71221 0.90702
 C830 C 0.06735 0.72602 0.93190
 N831 N 0.12432 0.73554 0.87151
 N832 N 0.12263 0.72896 0.84629
 C833 C 0.14341 0.73126 0.82761
 C834 C 0.13870 0.73348 0.79919
 C835 C 0.15866 0.73678 0.78075
 C836 C 0.18372 0.73708 0.79049
 C837 C 0.18848 0.73403 0.81890
 C838 C 0.16847 0.73144 0.83736
 H839 H 0.08623 0.75482 0.95458
 H840 H 0.11902 0.75983 0.91933
 H841 H 0.08506 0.70460 0.86777
 H842 H 0.05294 0.69855 0.90358
 H843 H 0.11947 0.73325 0.79143
 H844 H 0.15454 0.73901 0.75891
 H845 H 0.20762 0.73431 0.82694
 H846 H 0.17256 0.72948 0.85922
 C847 C 0.55631 0.20579 0.40969
 C848 C 0.57345 0.20602 0.38765
 C849 C 0.59382 0.22171 0.38853
 C850 C 0.59643 0.23788 0.41134
 C851 C 0.57888 0.23823 0.43299
 C852 C 0.55889 0.22186 0.43262
 N853 N 0.61155 0.22112 0.36609
 N854 N 0.63422 0.22732 0.36964
 C855 C 0.65214 0.22786 0.34748
 C856 C 0.67802 0.22704 0.35383
 C857 C 0.69604 0.22859 0.33288
 C858 C 0.68839 0.23173 0.30519
 C859 C 0.66238 0.23251 0.29877
 C860 C 0.64436 0.23028 0.31975
 H861 H 0.54101 0.19307 0.40890
 H862 H 0.57117 0.19357 0.37012
 H863 H 0.61183 0.25047 0.41220
 H864 H 0.58096 0.25117 0.45014
 H865 H 0.68421 0.22531 0.37514
 H866 H 0.71594 0.22821 0.33845
 H867 H 0.65601 0.23499 0.27759
 H868 H 0.62440 0.23117 0.31443
 C869 C 0.90357 0.30448 0.94293
 C870 C 0.88448 0.30382 0.92299
 C871 C 0.88949 0.29242 0.89730
 C872 C 0.91416 0.28224 0.89138
 C873 C 0.93337 0.28301 0.91123
 C874 C 0.92828 0.29372 0.93756
 N875 N 0.86903 0.29072 0.87806
 N876 N 0.87175 0.27901 0.85511
 C877 C 0.85103 0.27669 0.83632
 C878 C 0.85498 0.26200 0.81242
 C879 C 0.83488 0.25820 0.79439
 C880 C 0.81039 0.26920 0.79993
 C881 C 0.80659 0.28443 0.82367
 C882 C 0.82671 0.28810 0.84176
 H883 H 0.89905 0.31364 0.96254
 H884 H 0.86559 0.31192 0.92773
 H885 H 0.91851 0.27332 0.87161
 H886 H 0.95198 0.27425 0.90636
 H887 H 0.87363 0.25310 0.80801
 H888 H 0.83847 0.24643 0.77626
 H889 H 0.78798 0.29316 0.82854
 H890 H 0.82318 0.29958 0.86010
 C891 C 0.41111 0.80542 0.43694
 C892 C 0.39207 0.80455 0.41692
 C893 C 0.39475 0.78733 0.39488
 C894 C 0.41683 0.77097 0.39298
 C895 C 0.43578 0.77171 0.41306
 C896 C 0.43303 0.78887 0.43524
 N897 N 0.37461 0.78634 0.37513
 N898 N 0.37662 0.77198 0.35396
 C899 C 0.35646 0.77008 0.33444
 C900 C 0.36064 0.75449 0.31126
 C901 C 0.34111 0.75119 0.29239
 C902 C 0.31690 0.76341 0.29648
 C903 C 0.31283 0.77940 0.31960
 C904 C 0.33246 0.78274 0.33842
 H905 H 0.40872 0.81884 0.45387
 H906 H 0.37514 0.81723 0.41863
 H907 H 0.41932 0.75741 0.37620
 H908 H 0.45251 0.75873 0.41148
 H909 H 0.37905 0.74461 0.30801
 H910 H 0.34488 0.73874 0.27483
 H911 H 0.29441 0.78908 0.32333
 H912 H 0.32877 0.79488 0.35625
 C913 C 0.30798 0.90794 0.06048
 C914 C 0.30853 0.88871 0.08042
 C915 C 0.29336 0.89144 0.10411
 C916 C 0.27793 0.91398 0.10796
 C917 C 0.27735 0.93321 0.08800
 C918 C 0.29213 0.93019 0.06395
 N919 N 0.29315 0.87070 0.12326
 N920 N 0.27957 0.87185 0.14503
 C921 C 0.27850 0.85080 0.16365
 C922 C 0.26292 0.85349 0.18700
 C923 C 0.26020 0.83291 0.20474
 C924 C 0.27305 0.80916 0.19937
 C925 C 0.28913 0.80666 0.17620
 C926 C 0.29184 0.82729 0.15848
 H927 H 0.31961 0.90534 0.04211
 H928 H 0.32048 0.87145 0.07722
 H929 H 0.26600 0.91654 0.12609
 H930 H 0.26496 0.95021 0.09100
 H931 H 0.25252 0.87150 0.19118
 H932 H 0.24768 0.83551 0.22240
 H933 H 0.29931 0.78864 0.17149
 H934 H 0.30401 0.82474 0.14053
 C935 C 0.81653 0.40575 0.56369
 C936 C 0.81528 0.38658 0.58358
 C937 C 0.79767 0.38918 0.60521
 C938 C 0.78152 0.41147 0.60703
 C939 C 0.78266 0.43054 0.58711
 C940 C 0.79997 0.42771 0.56514
 N941 N 0.79583 0.36871 0.62447
 N942 N 0.78052 0.37053 0.64480
 C943 C 0.77746 0.35019 0.66388
 C944 C 0.76080 0.35446 0.68609
 C945 C 0.75635 0.33488 0.70452
 C946 C 0.76847 0.31049 0.70098
 C947 C 0.78547 0.30629 0.67879
 C948 C 0.78997 0.32600 0.66037
 H949 H 0.83006 0.40332 0.54691
 H950 H 0.82782 0.36953 0.58194
 H951 H 0.76771 0.41395 0.62352
 H952 H 0.76972 0.44733 0.58851
 H953 H 0.75102 0.37301 0.68895
 H954 H 0.74315 0.33879 0.72137
 H955 H 0.79511 0.28773 0.67552
 H956 H 0.80290 0.32226 0.64325
 C957 C 0.73573 0.08747 0.05824
 C958 C 0.73661 0.10703 0.07764
 C959 C 0.72574 0.10463 0.10379
 C960 C 0.71359 0.08244 0.11032
 C961 C 0.71211 0.06307 0.09062
 C962 C 0.72322 0.06538 0.06437
 N963 N 0.72688 0.12525 0.12296
 N964 N 0.72377 0.12264 0.14889
 C965 C 0.72459 0.14397 0.16722
 C966 C 0.73070 0.13989 0.19513
 C967 C 0.73308 0.16057 0.21297
 C968 C 0.72860 0.18563 0.20327
 C969 C 0.72156 0.18961 0.17551
 C970 C 0.71984 0.16899 0.15757
 H971 H 0.74473 0.08962 0.03832
 H972 H 0.74603 0.12405 0.07239
 H973 H 0.70486 0.08032 0.13038
 H974 H 0.70222 0.04633 0.09580
 H975 H 0.73433 0.12070 0.20284
 H976 H 0.73846 0.15700 0.23430
 H977 H 0.71812 0.20871 0.16745
 H978 H 0.71485 0.17259 0.13615
 C979 C 0.23620 0.58530 0.55525
 C980 C 0.23900 0.60506 0.57401
 C981 C 0.22533 0.60609 0.59880
 C982 C 0.20868 0.58704 0.60472
 C983 C 0.20536 0.56757 0.58560
 C984 C 0.21898 0.56665 0.56060
 N985 N 0.22802 0.62715 0.61701
 N986 N 0.22193 0.62658 0.64245
 C987 C 0.22402 0.64838 0.65980
 C988 C 0.22703 0.64508 0.68835
 C989 C 0.23009 0.66607 0.70551
 C990 C 0.22932 0.69075 0.69435
 C991 C 0.22551 0.69408 0.66581
 C992 C 0.22318 0.67304 0.64861
 H993 H 0.24711 0.58478 0.53626
 H994 H 0.25189 0.61964 0.56927
 H995 H 0.19780 0.58761 0.62371
 H996 H 0.19198 0.55339 0.59010
 H997 H 0.22760 0.62617 0.69722
 H998 H 0.23289 0.66307 0.72748
 H999 H 0.22494 0.71291 0.65672
 H1000 H 0.22061 0.67603 0.62661
 C1001 C 0.94546 0.70106 0.10347
 C1002 C 0.92710 0.70218 0.12439
 C1003 C 0.90357 0.71547 0.12018
 C1004 C 0.89865 0.72789 0.09484
 C1005 C 0.91716 0.72730 0.07422
 C1006 C 0.94075 0.71389 0.07831
 N1007 N 0.88520 0.71683 0.14200
 N1008 N 0.86187 0.72268 0.13705
 C1009 C 0.84315 0.72562 0.15838
 C1010 C 0.81754 0.72567 0.15105
 C1011 C 0.79863 0.72989 0.17099
 C1012 C 0.80507 0.73478 0.19860
 C1013 C 0.83083 0.73465 0.20602
 C1014 C 0.84978 0.72984 0.18608
 H1015 H 0.96346 0.69049 0.10701
 H1016 H 0.93113 0.69257 0.14384
 H1017 H 0.88070 0.73853 0.09123
 H1018 H 0.91320 0.73755 0.05512
 H1019 H 0.81223 0.72260 0.12973
 H1020 H 0.77894 0.73009 0.16464
 H1021 H 0.83628 0.73837 0.22716
 H1022 H 0.86951 0.73013 0.19212
 C1023 C 0.43856 0.20829 0.60877
 C1024 C 0.42036 0.21001 0.62987
 C1025 C 0.39720 0.22405 0.62585
 C1026 C 0.39267 0.23697 0.60074
 C1027 C 0.41107 0.23582 0.57998
 C1028 C 0.43409 0.22125 0.58364
 N1029 N 0.37853 0.22515 0.64739
 N1030 N 0.35518 0.23020 0.64184
 C1031 C 0.33587 0.23255 0.66260
 C1032 C 0.31064 0.23069 0.65457
 C1033 C 0.29108 0.23397 0.67389
 C1034 C 0.29640 0.23987 0.70154
 C1035 C 0.32178 0.24178 0.70966
 C1036 C 0.34146 0.23785 0.69036
 H1037 H 0.45616 0.19694 0.61204
 H1038 H 0.42410 0.20003 0.64916
 H1039 H 0.37504 0.24822 0.59733
 H1040 H 0.40735 0.24628 0.56097
 H1041 H 0.30613 0.22678 0.63321
 H1042 H 0.27169 0.23264 0.66699
 H1043 H 0.32636 0.24635 0.73084
 H1044 H 0.36088 0.23960 0.69690
 C1045 C 0.08014 0.30638 0.07871
 C1046 C 0.09987 0.30363 0.09796
 C1047 C 0.09987 0.28467 0.11824
 C1048 C 0.07955 0.26870 0.11941
 C1049 C 0.05985 0.27139 0.10010
 C1050 C 0.06013 0.29008 0.07943
 N1051 N 0.12110 0.28145 0.13667
 N1052 N 0.12208 0.26489 0.15586
 C1053 C 0.14365 0.26102 0.17372
 C1054 C 0.14285 0.24326 0.19514
 C1055 C 0.16385 0.23835 0.21237
 C1056 C 0.18617 0.25109 0.20834
 C1057 C 0.18686 0.26908 0.18690
 C1058 C 0.16577 0.27406 0.16977
 H1059 H 0.08065 0.32094 0.06293
 H1060 H 0.11541 0.31603 0.09683
 H1061 H 0.07914 0.25387 0.13487
 H1062 H 0.04465 0.25855 0.10088
 H1063 H 0.12594 0.23305 0.19835
 H1064 H 0.16269 0.22436 0.22865
 H1065 H 0.20373 0.27924 0.18328
 H1066 H 0.16687 0.28784 0.15328
 C1067 C 0.58730 0.80267 0.57412
 C1068 C 0.60705 0.80107 0.59342
 C1069 C 0.60772 0.78252 0.61418
 C1070 C 0.58816 0.76565 0.61563
 C1071 C 0.56850 0.76714 0.59624
 C1072 C 0.56801 0.78555 0.57522
 N1073 N 0.62879 0.78066 0.63291
 N1074 N 0.62990 0.76497 0.65295
 C1075 C 0.65127 0.76231 0.67120
 C1076 C 0.65049 0.74548 0.69349
 C1077 C 0.67142 0.74150 0.71101
 C1078 C 0.69365 0.75423 0.70638
 C1079 C 0.69427 0.77141 0.68416
 C1080 C 0.67324 0.77547 0.66673
 H1081 H 0.58718 0.81705 0.55809
 H1082 H 0.62200 0.81414 0.59207
 H1083 H 0.58829 0.75109 0.63143
 H1084 H 0.55383 0.75372 0.59734
 H1085 H 0.63369 0.73520 0.69710
 H1086 H 0.67032 0.72811 0.72789
 H1087 H 0.71108 0.78153 0.68007
 H1088 H 0.67431 0.78855 0.64957
   
