data_POSCAR
  _audit_creation_date              2014-09-24
  _audit_creation_method            'ToBaCCo'
  _symmetry_space_group_name_H-M    'P1'
  _symmetry_Int_Tables_number       1
  _symmetry_cell_setting            triclinic
  loop_
  _symmetry_equiv_pos_as_xyz
 x,y,z
_cell_length_a 31.2163
_cell_length_b 31.2681
_cell_length_c 31.1491
_cell_angle_alpha 89.691300
_cell_angle_beta 90.104400
_cell_angle_gamma 89.812500
loop_
  _atom_site_label
  _atom_site_type_symbol
  _atom_site_fract_x
  _atom_site_fract_y
  _atom_site_fract_z
N1 N 0.54668 0.08786 0.01891
 N2 N 0.57800 0.11236 0.03332
 N3 N 0.45652 0.08818 -0.02439
 N4 N 0.42374 0.11000 -0.04000
 N5 N 0.45637 0.08885 0.01772
 N6 N 0.42334 0.11101 0.03197
 N7 N 0.54644 0.08764 -0.02321
 N8 N 0.57750 0.11161 -0.03860
 C9 C 0.59712 0.12676 -0.00310
 C10 C 0.40333 0.12407 -0.00444
 N11 N 0.45776 -0.01888 -0.08963
 N12 N 0.42615 -0.03353 -0.11361
 N13 N 0.54728 0.02286 -0.08742
 N14 N 0.57924 0.03827 -0.11023
 N15 N 0.54803 -0.01904 -0.08691
 N16 N 0.58260 -0.03367 -0.11111
 N17 N 0.45737 0.02307 -0.08926
 N18 N 0.42567 0.03814 -0.11303
 Mn19 Mn 0.50178 0.05573 -0.05636
 C20 C 0.40636 0.00248 -0.12799
 C21 C 0.60075 0.00347 -0.12465
 N22 N 0.45450 0.02434 0.08351
 N23 N 0.42355 0.04031 0.10740
 N24 N 0.54329 -0.01950 0.08587
 N25 N 0.57458 -0.03511 0.10989
 N26 N 0.54449 0.02243 0.08499
 N27 N 0.57850 0.03679 0.11001
 N28 N 0.45305 -0.01763 0.08359
 N29 N 0.42109 -0.03130 0.10780
 Mn30 Mn 0.50066 0.05624 0.05168
 C31 C 0.40278 0.00531 0.12227
 C32 C 0.59599 -0.00036 0.12460
 N33 N 0.54604 -0.08455 -0.02097
 N34 N 0.57717 -0.10984 -0.03447
 N35 N 0.45400 -0.08343 0.01800
 N36 N 0.42188 -0.10749 0.03138
 N37 N 0.45613 -0.08363 -0.02410
 N38 N 0.42559 -0.10750 -0.04048
 N39 N 0.54418 -0.08483 0.02115
 N40 N 0.57409 -0.11012 0.03739
 Mn41 Mn 0.50215 -0.05190 -0.05577
 Mn42 Mn 0.49846 -0.05173 0.05256
 Cl43 Cl 0.50075 0.00202 -0.00191
 C44 C 0.59460 -0.12540 0.00236
 C45 C 0.40432 -0.12210 -0.00563
 N46 N 0.09041 0.45789 0.02701
 N47 N 0.11337 0.42664 0.04404
 N48 N 0.09008 0.54651 -0.01864
 N49 N 0.11286 0.57884 -0.03366
 N50 N 0.08862 0.54759 0.02340
 N51 N 0.11016 0.58053 0.03822
 N52 N 0.09180 0.45645 -0.01503
 N53 N 0.11572 0.42411 -0.02784
 C54 C 0.12893 0.40578 0.00941
 C55 C 0.12510 0.59983 0.00234
 N56 N -0.01507 0.54190 -0.08778
 N57 N -0.02939 0.57301 -0.11301
 N58 N 0.02885 0.45290 -0.08227
 N59 N 0.04558 0.42221 -0.10586
 N60 N -0.01318 0.45170 -0.08377
 N61 N -0.02611 0.42006 -0.10859
 N62 N 0.02690 0.54251 -0.08580
 N63 N 0.04266 0.57576 -0.11091
 Mn64 Mn 0.05974 0.49961 -0.05078
 C65 C 0.00639 0.59359 -0.12702
 C66 C 0.01100 0.40174 -0.12192
 N67 N 0.02210 0.54894 0.08617
 N68 N 0.03636 0.58228 0.10746
 N69 N -0.01824 0.45853 0.08954
 N70 N -0.03254 0.42736 0.11452
 N71 N 0.02377 0.45938 0.09009
 N72 N 0.03923 0.42910 0.11528
 N73 N -0.01991 0.54875 0.08519
 N74 N -0.03545 0.58207 0.10601
 Mn75 Mn 0.05648 0.50341 0.05696
 C76 C 0.00018 0.60272 0.11967
 C77 C 0.00386 0.40922 0.13028
 N78 N -0.08078 0.45305 -0.01979
 N79 N -0.10406 0.42051 -0.03332
 N80 N -0.08359 0.54496 0.01789
 N81 N -0.10854 0.57665 0.03056
 N82 N -0.08255 0.54311 -0.02423
 N83 N -0.10676 0.57350 -0.04127
 N84 N -0.08172 0.45517 0.02232
 N85 N -0.10543 0.42426 0.03850
 Mn86 Mn -0.04833 0.49736 -0.05433
 Mn87 Mn -0.05129 0.50190 0.05410
 Cl88 Cl 0.00404 0.50053 0.00143
 C89 C -0.11911 0.40275 0.00353
 C90 C -0.12271 0.59429 -0.00671
 N91 N 0.01800 0.08503 0.45751
 N92 N 0.03212 0.10875 0.42527
 N93 N -0.02179 0.08243 0.54908
 N94 N -0.03570 0.10565 0.58138
 N95 N 0.02026 0.08179 0.54811
 N96 N 0.03606 0.10478 0.57995
 N97 N -0.02403 0.08627 0.45911
 N98 N -0.03961 0.11058 0.42812
 C99 C -0.00433 0.12444 0.40720
 C100 C 0.00062 0.11931 0.60056
 N101 N -0.09035 -0.02220 0.54621
 N102 N -0.11148 -0.03823 0.57910
 N103 N -0.09111 0.02393 0.45804
 N104 N -0.11506 0.04115 0.42754
 N105 N -0.09233 -0.01793 0.45612
 N106 N -0.11721 -0.03041 0.42430
 N107 N -0.08888 0.01964 0.54837
 N108 N -0.10915 0.03330 0.58288
 Mn109 Mn -0.05674 0.05341 0.50373
 C110 C -0.12309 -0.00328 0.60170
 C111 C -0.13107 0.00684 0.40664
 N112 N 0.08351 0.01399 0.54435
 N113 N 0.10946 0.02666 0.57525
 N114 N 0.08002 -0.02478 0.45310
 N115 N 0.10430 -0.03998 0.42209
 N116 N 0.08175 0.01719 0.45396
 N117 N 0.10750 0.03157 0.42346
 N118 N 0.08174 -0.02797 0.54322
 N119 N 0.10649 -0.04492 0.57325
 Mn120 Mn 0.05133 0.04994 0.50092
 C121 C 0.12344 -0.01046 0.59316
 C122 C 0.12110 -0.00456 0.40361
 N123 N -0.02959 -0.08512 0.45258
 N124 N -0.04624 -0.10698 0.42064
 N125 N 0.01392 -0.09086 0.54239
 N126 N 0.02788 -0.11703 0.57286
 N127 N -0.02808 -0.08919 0.54246
 N128 N -0.04386 -0.11396 0.57286
 N129 N 0.01239 -0.08723 0.45189
 N130 N 0.02548 -0.11064 0.41923
 Mn131 Mn -0.06038 -0.05387 0.49925
 Mn132 Mn 0.04739 -0.05808 0.49770
 Cl133 Cl -0.00448 -0.00211 0.50039
 C134 C -0.01156 -0.12261 0.39995
 C135 C -0.00867 -0.13105 0.59173
 C136 C -0.35044 0.17021 -0.04479
 C137 C -0.31760 0.20027 -0.04728
 C138 C -0.29969 0.21761 -0.00994
 C139 C -0.31549 0.20407 0.03028
 C140 C -0.34857 0.17394 0.03276
 C141 C -0.36656 0.15699 -0.00481
 C142 C -0.26653 0.25123 -0.01483
 C143 C -0.23852 0.26191 0.01599
 C144 C -0.20684 0.29700 0.01126
 C145 C -0.19059 0.31599 0.04856
 C146 C -0.16179 0.34999 0.04592
 C147 C -0.14826 0.36561 0.00582
 C148 C -0.16341 0.34591 -0.03161
 C149 C -0.19233 0.31185 -0.02898
 H150 H -0.36361 0.15774 -0.07436
 H151 H -0.30628 0.21021 -0.07863
 H152 H -0.30346 0.21743 0.05986
 H153 H -0.36057 0.16449 0.06398
 H154 H -0.26566 0.26780 -0.04538
 H155 H -0.23944 0.24548 0.04662
 H156 H -0.20080 0.30497 0.07994
 H157 H -0.15043 0.36431 0.07538
 H158 H -0.15312 0.35698 -0.06293
 H159 H -0.20275 0.29716 -0.05853
 C160 C 0.35395 0.83356 -0.04853
 C161 C 0.32113 0.80356 -0.05157
 C162 C 0.30124 0.78759 -0.01453
 C163 C 0.31494 0.80235 0.02591
 C164 C 0.34798 0.83234 0.02894
 C165 C 0.36798 0.84794 -0.00827
 C166 C 0.26850 0.75379 -0.01952
 C167 C 0.23828 0.74539 0.00983
 C168 C 0.20774 0.70938 0.00613
 C169 C 0.18961 0.69289 0.04386
 C170 C 0.16235 0.65766 0.04242
 C171 C 0.15231 0.63833 0.00309
 C172 C 0.16911 0.65564 -0.03494
 C173 C 0.19649 0.69094 -0.03351
 H174 H 0.36878 0.84499 -0.07781
 H175 H 0.31143 0.79254 -0.08303
 H176 H 0.30135 0.78990 0.05531
 H177 H 0.35839 0.84271 0.06038
 H178 H 0.27005 0.73500 -0.04853
 H179 H 0.23680 0.76427 0.03880
 H180 H 0.19732 0.70673 0.07473
 H181 H 0.14954 0.64525 0.07227
 H182 H 0.16139 0.64168 -0.06574
 H183 H 0.20845 0.70365 -0.06351
 C184 C 0.34641 0.16380 -0.04463
 C185 C 0.31074 0.19083 -0.04549
 C186 C 0.29264 0.20569 -0.00715
 C187 C 0.30969 0.19131 0.03226
 C188 C 0.34536 0.16427 0.03310
 C189 C 0.36442 0.15085 -0.00532
 C190 C 0.25674 0.23659 -0.00976
 C191 C 0.24844 0.26517 0.02108
 C192 C 0.21566 0.29924 0.01695
 C193 C 0.19988 0.31827 0.05444
 C194 C 0.17103 0.35241 0.05204
 C195 C 0.15775 0.36844 0.01199
 C196 C 0.17319 0.34930 -0.02559
 C197 C 0.20200 0.31513 -0.02321
 H198 H 0.36025 0.15356 -0.07475
 H199 H 0.29792 0.20106 -0.07623
 H200 H 0.29562 0.20067 0.06250
 H201 H 0.35822 0.15416 0.06385
 H202 H 0.23827 0.23709 -0.03917
 H203 H 0.26694 0.26466 0.05048
 H204 H 0.21018 0.30688 0.08572
 H205 H 0.15963 0.36662 0.08153
 H206 H 0.16364 0.36125 -0.05688
 H207 H 0.21443 0.30240 -0.05290
 C208 C -0.35480 0.82804 0.04407
 C209 C -0.32250 0.79702 0.04609
 C210 C -0.30424 0.78048 0.00847
 C211 C -0.31920 0.79582 -0.03149
 C212 C -0.35160 0.82689 -0.03349
 C213 C -0.36989 0.84310 0.00427
 C214 C -0.27140 0.74608 0.01270
 C215 C -0.24418 0.73463 -0.01862
 C216 C -0.21247 0.69921 -0.01428
 C217 C -0.19638 0.68020 -0.05173
 C218 C -0.16705 0.64634 -0.04932
 C219 C -0.15288 0.63087 -0.00932
 C220 C -0.16810 0.65043 0.02819
 C221 C -0.19744 0.68431 0.02581
 H222 H -0.36827 0.83988 0.07375
 H223 H -0.31185 0.78572 0.07729
 H224 H -0.30703 0.78330 -0.06136
 H225 H -0.36279 0.83773 -0.06463
 H226 H -0.27013 0.72952 0.04324
 H227 H -0.24548 0.75090 -0.04931
 H228 H -0.20699 0.69124 -0.08303
 H229 H -0.15568 0.63209 -0.07881
 H230 H -0.15734 0.63953 0.05947
 H231 H -0.20764 0.69892 0.05546
 C232 C 0.03921 -0.33877 0.15684
 C233 C 0.03989 -0.30303 0.18342
 C234 C 0.00170 -0.28601 0.19978
 C235 C -0.03758 -0.30428 0.18725
 C236 C -0.03824 -0.34007 0.16050
 C237 C 0.00020 -0.35804 0.14571
 C238 C 0.00458 -0.24998 0.23031
 C239 C -0.02549 -0.24164 0.25977
 C240 C -0.02058 -0.20880 0.29347
 C241 C -0.05760 -0.19221 0.31269
 C242 C -0.05456 -0.16343 0.34663
 C243 C -0.01434 -0.15103 0.36242
 C244 C 0.02283 -0.16721 0.34304
 C245 C 0.01980 -0.19593 0.30893
 H246 H 0.06935 -0.35167 0.14552
 H247 H 0.07050 -0.28933 0.19218
 H248 H -0.06782 -0.29116 0.19784
 H249 H -0.06878 -0.35399 0.15188
 H250 H 0.03375 -0.23139 0.22988
 H251 H -0.05478 -0.26002 0.26026
 H252 H -0.08904 -0.20186 0.30164
 H253 H -0.08379 -0.15149 0.36099
 H254 H 0.05422 -0.15835 0.35479
 H255 H 0.04912 -0.20901 0.29595
 C256 C 0.05414 0.35076 0.83406
 C257 C 0.05728 0.31810 0.80375
 C258 C 0.02035 0.29922 0.78659
 C259 C -0.02005 0.31397 0.80042
 C260 C -0.02317 0.34679 0.83070
 C261 C 0.01390 0.36567 0.84761
 C262 C 0.02543 0.26624 0.75276
 C263 C -0.00465 0.23714 0.74341
 C264 C -0.00124 0.20595 0.70769
 C265 C -0.03912 0.18754 0.69220
 C266 C -0.03823 0.15912 0.65781
 C267 C 0.00070 0.14803 0.63820
 C268 C 0.03890 0.16533 0.65431
 C269 C 0.03802 0.19401 0.68877
 H270 H 0.08333 0.36473 0.84643
 H271 H 0.08875 0.30766 0.79350
 H272 H -0.04937 0.30133 0.78709
 H273 H -0.05461 0.35787 0.84032
 H274 H 0.05514 0.26656 0.73498
 H275 H -0.03410 0.23681 0.76165
 H276 H -0.06975 0.19576 0.70630
 H277 H -0.06823 0.14609 0.64636
 H278 H 0.06940 0.15701 0.64005
 H279 H 0.06814 0.20631 0.70049
 C280 C 0.04549 0.35819 0.17584
 C281 C 0.04789 0.32534 0.20621
 C282 C 0.01058 0.30637 0.22233
 C283 C -0.02953 0.32116 0.20739
 C284 C -0.03192 0.35425 0.17697
 C285 C 0.00560 0.37320 0.16113
 C286 C 0.01518 0.27308 0.25613
 C287 C -0.01494 0.24399 0.26529
 C288 C -0.01067 0.21228 0.30065
 C289 C -0.04811 0.19548 0.31881
 C290 C -0.04589 0.16669 0.35314
 C291 C -0.00606 0.15370 0.36985
 C292 C 0.03156 0.16936 0.35095
 C293 C 0.02934 0.19831 0.31658
 H294 H 0.07502 0.37217 0.16425
 H295 H 0.07913 0.31480 0.21729
 H296 H -0.05912 0.30830 0.21987
 H297 H -0.06308 0.36542 0.16634
 H298 H 0.04485 0.27301 0.27413
 H299 H -0.04472 0.24409 0.24747
 H300 H -0.07929 0.20529 0.30691
 H301 H -0.07547 0.15487 0.36682
 H302 H 0.06267 0.15945 0.36288
 H303 H 0.05901 0.20924 0.30248
 C304 C 0.04538 -0.35362 0.83333
 C305 C 0.04594 -0.31936 0.80449
 C306 C 0.00780 -0.30319 0.78699
 C307 C -0.03138 -0.32121 0.80015
 C308 C -0.03206 -0.35554 0.82921
 C309 C 0.00640 -0.37260 0.84587
 C310 C 0.01072 -0.26755 0.75548
 C311 C -0.01981 -0.25841 0.72650
 C312 C -0.01549 -0.22441 0.69342
 C313 C -0.05286 -0.20683 0.67548
 C314 C -0.05049 -0.17602 0.64298
 C315 C -0.01060 -0.16243 0.62730
 C316 C 0.02693 -0.17988 0.64514
 C317 C 0.02458 -0.21067 0.67783
 H318 H 0.07582 -0.36527 0.84550
 H319 H 0.07652 -0.30586 0.79526
 H320 H -0.06165 -0.30877 0.78859
 H321 H -0.06280 -0.36872 0.83837
 H322 H 0.04007 -0.24923 0.75545
 H323 H -0.04935 -0.27637 0.72649
 H324 H -0.08408 -0.21705 0.68663
 H325 H -0.08001 -0.16320 0.62981
 H326 H 0.05809 -0.17020 0.63342
 H327 H 0.05415 -0.22438 0.68979
 C328 C 0.35040 0.04220 0.83031
 C329 C 0.31562 0.04313 0.80205
 C330 C 0.29866 0.00510 0.78550
 C331 C 0.31652 -0.03420 0.79899
 C332 C 0.35134 -0.03511 0.82738
 C333 C 0.36884 0.00310 0.84298
 C334 C 0.26240 0.00817 0.75468
 C335 C 0.25219 -0.02266 0.72666
 C336 C 0.21766 -0.01830 0.69404
 C337 C 0.20030 -0.05555 0.67613
 C338 C 0.16916 -0.05303 0.64389
 C339 C 0.15497 -0.01311 0.62856
 C340 C 0.17214 0.02423 0.64645
 C341 C 0.20325 0.02174 0.67874
 H342 H 0.36301 0.07218 0.84204
 H343 H 0.30230 0.07380 0.79256
 H344 H 0.30360 -0.06434 0.78825
 H345 H 0.36463 -0.06573 0.83703
 H346 H 0.24449 0.03784 0.75442
 H347 H 0.26983 -0.05248 0.72696
 H348 H 0.21102 -0.08677 0.68702
 H349 H 0.15658 -0.08237 0.63062
 H350 H 0.16203 0.05544 0.63501
 H351 H 0.21668 0.05126 0.69052
 C352 C -0.35376 -0.04234 0.16528
 C353 C -0.31924 -0.04445 0.19382
 C354 C -0.30006 -0.00703 0.20916
 C355 C -0.31504 0.03277 0.19399
 C356 C -0.34954 0.03500 0.16542
 C357 C -0.36983 -0.00252 0.15105
 C358 C -0.26466 -0.01098 0.24074
 C359 C -0.25469 0.01984 0.26883
 C360 C -0.22132 0.01522 0.30250
 C361 C -0.20459 0.05239 0.32115
 C362 C -0.17472 0.04970 0.35451
 C363 C -0.16121 0.00969 0.37017
 C364 C -0.17765 -0.02757 0.35146
 C365 C -0.20753 -0.02491 0.31808
 H366 H -0.36800 -0.07208 0.15479
 H367 H -0.30799 -0.07552 0.20460
 H368 H -0.30008 0.06233 0.20368
 H369 H -0.36031 0.06631 0.15484
 H370 H -0.24759 -0.04112 0.24166
 H371 H -0.27191 0.04990 0.26788
 H372 H -0.21487 0.08367 0.31001
 H373 H -0.16260 0.07896 0.36837
 H374 H -0.16799 -0.05884 0.36312
 H375 H -0.22051 -0.05437 0.30568
 C376 C 0.34994 0.04702 0.16563
 C377 C 0.31598 0.04926 0.19474
 C378 C 0.29727 0.01190 0.21129
 C379 C 0.31261 -0.02801 0.19689
 C380 C 0.34665 -0.03022 0.16771
 C381 C 0.36589 0.00727 0.15208
 C382 C 0.26177 0.01631 0.24288
 C383 C 0.24967 -0.01497 0.26994
 C384 C 0.21521 -0.01042 0.30255
 C385 C 0.19671 -0.04776 0.31933
 C386 C 0.16564 -0.04562 0.35146
 C387 C 0.15251 -0.00600 0.36803
 C388 C 0.17068 0.03155 0.35122
 C389 C 0.20179 0.02943 0.31885
 H390 H 0.36390 0.07653 0.15396
 H391 H 0.30465 0.08041 0.20483
 H392 H 0.29832 -0.05765 0.20751
 H393 H 0.35798 -0.06130 0.15746
 H394 H 0.24591 0.04707 0.24429
 H395 H 0.26550 -0.04573 0.26859
 H396 H 0.20649 -0.07887 0.30763
 H397 H 0.15231 -0.07518 0.36374
 H398 H 0.16136 0.06251 0.36358
 H399 H 0.21595 0.05898 0.30776
 C400 C -0.34872 0.04607 0.83665
 C401 C -0.31431 0.04891 0.80834
 C402 C -0.29455 0.01192 0.79261
 C403 C -0.30972 -0.02831 0.80612
 C404 C -0.34425 -0.03126 0.83448
 C405 C -0.36465 0.00592 0.84969
 C406 C -0.26060 0.01689 0.75989
 C407 C -0.23159 -0.01339 0.75086
 C408 C -0.20124 -0.00956 0.71463
 C409 C -0.18687 -0.04708 0.69480
 C410 C -0.16089 -0.04497 0.65847
 C411 C -0.14843 -0.00522 0.64151
 C412 C -0.16113 0.03236 0.66240
 C413 C -0.18721 0.03026 0.69876
 H414 H -0.36316 0.07560 0.84765
 H415 H -0.30338 0.08025 0.79827
 H416 H -0.29620 -0.05765 0.79382
 H417 H -0.35544 -0.06279 0.84362
 H418 H -0.26063 0.04656 0.74185
 H419 H -0.23155 -0.04322 0.76861
 H420 H -0.19682 -0.07811 0.70669
 H421 H -0.15114 -0.07450 0.64326
 H422 H -0.15137 0.06338 0.65035
 H423 H -0.19623 0.05984 0.71419
   
