data_POSCAR
  _audit_creation_date              2014-09-24
  _audit_creation_method            'ToBaCCo'
  _symmetry_space_group_name_H-M    'P1'
  _symmetry_Int_Tables_number       1
  _symmetry_cell_setting            triclinic
  loop_
  _symmetry_equiv_pos_as_xyz
 x,y,z
_cell_length_a 21.3064
_cell_length_b 21.3064
_cell_length_c 21.3064
_cell_angle_alpha 90.000000
_cell_angle_beta 90.000000
_cell_angle_gamma 90.000000
loop_
  _atom_site_label
  _atom_site_type_symbol
  _atom_site_fract_x
  _atom_site_fract_y
  _atom_site_fract_z
Si1 Si 0.00001 0.50000 0.24993
 Si2 Si 0.00001 0.50000 0.74993
 Si3 Si 0.25001 -0.00000 0.49993
 Si4 Si 0.75001 -0.00000 0.49993
 Si5 Si 0.50001 0.25000 0.99993
 Si6 Si 0.50001 0.75000 0.99993
 B7 B 1.00016 1.06446 0.03964
 B8 B 1.03971 1.00015 0.06440
 B9 B 0.96030 0.99985 0.06440
 B10 B 0.93555 1.03970 -0.00021
 B11 B 0.99986 1.06446 -0.03977
 B12 B 1.06447 1.03970 0.00008
 B13 B 1.00016 0.93554 -0.03977
 B14 B 0.96030 1.00015 -0.06453
 B15 B 1.03971 0.99985 -0.06453
 B16 B 1.06447 0.96030 -0.00021
 B17 B 0.99986 0.93554 0.03964
 B18 B 0.93555 0.96030 0.00008
 B19 B 0.56447 0.49985 0.46023
 B20 B 0.56447 0.50015 0.53964
 B21 B 0.53971 0.56446 0.50008
 B22 B 0.49986 0.53970 0.43547
 B23 B 0.50016 0.46030 0.43547
 B24 B 0.53971 0.43554 0.49979
 B25 B 0.43555 0.49985 0.53964
 B26 B 0.43555 0.50015 0.46023
 B27 B 0.46030 0.43554 0.50008
 B28 B 0.49986 0.46030 0.56440
 B29 B 0.50016 0.53970 0.56440
 B30 B 0.46030 0.56446 0.49979
 C31 C 0.99744 1.31136 0.15061
 N32 N 1.04283 1.35406 0.13695
 N33 N 1.04204 1.41088 0.16320
 C34 C 0.99542 1.42711 0.20341
 N35 N 0.94955 1.38487 0.21613
 N36 N 0.95041 1.32810 0.19010
 C37 C 0.99978 1.24763 0.12454
 N38 N 0.95746 1.20363 0.14278
 N39 N 0.95878 1.14610 0.11832
 C40 C 1.00235 1.13029 0.07475
 N41 N 1.04540 1.17410 0.05757
 N42 N 1.04433 1.23157 0.08206
 C43 C 1.00257 0.68864 0.15061
 N44 N 1.04961 0.67190 0.19010
 N45 N 1.05046 0.61513 0.21613
 C46 C 1.00459 0.57289 0.20341
 N47 N 0.95797 0.58912 0.16320
 N48 N 0.95718 0.64594 0.13695
 C49 C 1.00023 0.75237 0.12454
 N50 N 0.95568 0.76843 0.08206
 N51 N 0.95461 0.82590 0.05757
 C52 C 0.99766 0.86971 0.07475
 N53 N 1.04124 0.85390 0.11832
 N54 N 1.04256 0.79637 0.14278
 C55 C 1.00257 1.31136 -0.15074
 N56 N 0.95718 1.35406 -0.13708
 N57 N 0.95797 1.41088 -0.16333
 C58 C 1.00459 1.42711 -0.20354
 N59 N 1.05046 1.38487 -0.21626
 N60 N 1.04961 1.32810 -0.19023
 C61 C 1.00023 1.24763 -0.12467
 N62 N 1.04256 1.20363 -0.14291
 N63 N 1.04124 1.14610 -0.11845
 C64 C 0.99766 1.13029 -0.07488
 N65 N 0.95461 1.17410 -0.05770
 N66 N 0.95568 1.23157 -0.08219
 C67 C 0.99744 0.68864 -0.15074
 N68 N 0.95041 0.67190 -0.19023
 N69 N 0.94955 0.61513 -0.21626
 C70 C 0.99542 0.57289 -0.20354
 N71 N 1.04204 0.58912 -0.16333
 N72 N 1.04283 0.64594 -0.13708
 C73 C 0.99978 0.75237 -0.12467
 N74 N 1.04433 0.76843 -0.08219
 N75 N 1.04540 0.82590 -0.05770
 C76 C 1.00235 0.86971 -0.07488
 N77 N 0.95878 0.85390 -0.11845
 N78 N 0.95746 0.79637 -0.14291
 C79 C 1.15069 0.99743 0.31130
 N80 N 1.13702 1.04283 0.35399
 N81 N 1.16328 1.04204 0.41081
 C82 C 1.20348 0.99541 0.42704
 N83 N 1.21621 0.94955 0.38481
 N84 N 1.19017 0.95040 0.32803
 C85 C 1.12461 0.99978 0.24756
 N86 N 1.14285 0.95745 0.20356
 N87 N 1.11839 0.95877 0.14604
 C88 C 1.07482 1.00235 0.13022
 N89 N 1.05765 1.04540 0.17403
 N90 N 1.08213 1.04433 0.23151
 C91 C 1.15069 1.00257 -0.31143
 N92 N 1.19017 1.04960 -0.32816
 N93 N 1.21621 1.05045 -0.38494
 C94 C 1.20348 1.00459 -0.42717
 N95 N 1.16328 0.95796 -0.41094
 N96 N 1.13702 0.95717 -0.35412
 C97 C 1.12461 1.00022 -0.24769
 N98 N 1.08213 0.95567 -0.23164
 N99 N 1.05765 0.95460 -0.17417
 C100 C 1.07482 0.99765 -0.13035
 N101 N 1.11839 1.04123 -0.14617
 N102 N 1.14285 1.04255 -0.20369
 C103 C 0.84933 1.00257 0.31130
 N104 N 0.80984 1.04960 0.32803
 N105 N 0.78381 1.05045 0.38481
 C106 C 0.79654 1.00459 0.42704
 N107 N 0.83674 0.95796 0.41081
 N108 N 0.86299 0.95717 0.35399
 C109 C 0.87540 1.00022 0.24756
 N110 N 0.91788 0.95567 0.23151
 N111 N 0.94237 0.95460 0.17403
 C112 C 0.92519 0.99765 0.13022
 N113 N 0.88162 1.04123 0.14604
 N114 N 0.85716 1.04255 0.20356
 C115 C 0.84933 0.99743 -0.31143
 N116 N 0.80984 0.95040 -0.32816
 N117 N 0.78381 0.94955 -0.38494
 C118 C 0.79654 0.99541 -0.42717
 N119 N 0.83674 1.04204 -0.41094
 N120 N 0.86299 1.04283 -0.35412
 C121 C 0.87540 0.99978 -0.24769
 N122 N 0.91788 1.04433 -0.23164
 N123 N 0.94237 1.04540 -0.17417
 C124 C 0.92519 1.00235 -0.13035
 N125 N 0.88162 0.95877 -0.14617
 N126 N 0.85716 0.95745 -0.20369
 C127 C 1.31137 1.15068 -0.00263
 N128 N 1.32810 1.19017 -0.04967
 N129 N 1.38488 1.21620 -0.05052
 C130 C 1.42711 1.20347 -0.00465
 N131 N 1.41088 1.16327 0.04197
 N132 N 1.35407 1.13702 0.04276
 C133 C 1.24764 1.12461 -0.00029
 N134 N 1.23158 1.08212 0.04426
 N135 N 1.17411 1.05764 0.04533
 C136 C 1.13030 1.07482 0.00228
 N137 N 1.14611 1.11839 -0.04129
 N138 N 1.20364 1.14284 -0.04262
 C139 C 0.68864 1.15068 0.00250
 N140 N 0.67191 1.19017 0.04954
 N141 N 0.61514 1.21620 0.05039
 C142 C 0.57290 1.20347 0.00452
 N143 N 0.58913 1.16327 -0.04210
 N144 N 0.64595 1.13702 -0.04289
 C145 C 0.75238 1.12461 0.00016
 N146 N 0.76843 1.08212 -0.04439
 N147 N 0.82591 1.05764 -0.04546
 C148 C 0.86972 1.07482 -0.00241
 N149 N 0.85391 1.11839 0.04116
 N150 N 0.79638 1.14284 0.04248
 C151 C 1.31137 0.84932 0.00250
 N152 N 1.35407 0.86298 -0.04289
 N153 N 1.41088 0.83673 -0.04210
 C154 C 1.42711 0.79653 0.00452
 N155 N 1.38488 0.78380 0.05039
 N156 N 1.32810 0.80983 0.04954
 C157 C 1.24764 0.87539 0.00016
 N158 N 1.20364 0.85716 0.04248
 N159 N 1.14611 0.88161 0.04116
 C160 C 1.13030 0.92518 -0.00241
 N161 N 1.17411 0.94236 -0.04546
 N162 N 1.23158 0.91788 -0.04439
 C163 C 0.68864 0.84932 -0.00263
 N164 N 0.67191 0.80983 -0.04967
 N165 N 0.61514 0.78380 -0.05052
 C166 C 0.57290 0.79653 -0.00465
 N167 N 0.58913 0.83673 0.04197
 N168 N 0.64595 0.86298 0.04276
 C169 C 0.75238 0.87539 -0.00029
 N170 N 0.76843 0.91788 0.04426
 N171 N 0.82591 0.94236 0.04533
 C172 C 0.86972 0.92518 0.00228
 N173 N 0.85391 0.88161 -0.04129
 N174 N 0.79638 0.85716 -0.04262
 C175 C 0.81137 0.50257 0.34926
 N176 N 0.85407 0.45717 0.36292
 N177 N 0.91088 0.45796 0.33667
 C178 C 0.92711 0.50459 0.29646
 N179 N 0.88488 0.55045 0.28374
 N180 N 0.82810 0.54960 0.30977
 C181 C 0.74764 0.50022 0.37533
 N182 N 0.70364 0.54255 0.35709
 N183 N 0.64611 0.54123 0.38155
 C184 C 0.63030 0.49765 0.42512
 N185 N 0.67411 0.45460 0.44230
 N186 N 0.73158 0.45567 0.41781
 C187 C 0.18864 0.49743 0.34926
 N188 N 0.14595 0.54283 0.36292
 N189 N 0.08913 0.54204 0.33667
 C190 C 0.07290 0.49541 0.29646
 N191 N 0.11514 0.44955 0.28374
 N192 N 0.17191 0.45040 0.30977
 C193 C 0.25238 0.49978 0.37533
 N194 N 0.29638 0.45745 0.35709
 N195 N 0.35391 0.45877 0.38155
 C196 C 0.36972 0.50235 0.42512
 N197 N 0.32591 0.54540 0.44230
 N198 N 0.26843 0.54433 0.41781
 C199 C 0.81137 0.49743 0.65061
 N200 N 0.85407 0.54283 0.63695
 N201 N 0.91088 0.54204 0.66320
 C202 C 0.92711 0.49541 0.70341
 N203 N 0.88488 0.44955 0.71613
 N204 N 0.82810 0.45040 0.69010
 C205 C 0.74764 0.49978 0.62454
 N206 N 0.70364 0.45745 0.64278
 N207 N 0.64611 0.45877 0.61832
 C208 C 0.63030 0.50235 0.57475
 N209 N 0.67411 0.54540 0.55757
 N210 N 0.73158 0.54433 0.58206
 C211 C 0.18864 0.50257 0.65061
 N212 N 0.17191 0.54960 0.69010
 N213 N 0.11514 0.55045 0.71613
 C214 C 0.07290 0.50459 0.70341
 N215 N 0.08913 0.45796 0.66320
 N216 N 0.14595 0.45717 0.63695
 C217 C 0.25238 0.50022 0.62454
 N218 N 0.26843 0.45567 0.58206
 N219 N 0.32591 0.45460 0.55757
 C220 C 0.36972 0.49765 0.57475
 N221 N 0.35391 0.54123 0.61832
 N222 N 0.29638 0.54255 0.64278
 C223 C 0.50257 0.65068 0.18857
 N224 N 0.54961 0.69017 0.17184
 N225 N 0.55046 0.71620 0.11506
 C226 C 0.50459 0.70347 0.07283
 N227 N 0.45797 0.66327 0.08906
 N228 N 0.45718 0.63702 0.14588
 C229 C 0.50023 0.62461 0.25231
 N230 N 0.45568 0.58212 0.26836
 N231 N 0.45461 0.55764 0.32583
 C232 C 0.49766 0.57482 0.36965
 N233 N 0.54124 0.61839 0.35383
 N234 N 0.54256 0.64284 0.29631
 C235 C 0.49744 0.65068 0.81130
 N236 N 0.54283 0.63702 0.85399
 N237 N 0.54204 0.66327 0.91081
 C238 C 0.49542 0.70347 0.92704
 N239 N 0.44955 0.71620 0.88481
 N240 N 0.45041 0.69017 0.82803
 C241 C 0.49978 0.62461 0.74756
 N242 N 0.45746 0.64284 0.70356
 N243 N 0.45878 0.61839 0.64604
 C244 C 0.50235 0.57482 0.63022
 N245 N 0.54540 0.55764 0.67403
 N246 N 0.54433 0.58212 0.73151
 C247 C 0.49744 0.34932 0.18857
 N248 N 0.45041 0.30983 0.17184
 N249 N 0.44955 0.28380 0.11506
 C250 C 0.49542 0.29653 0.07283
 N251 N 0.54204 0.33673 0.08906
 N252 N 0.54283 0.36298 0.14588
 C253 C 0.49978 0.37539 0.25231
 N254 N 0.54433 0.41787 0.26836
 N255 N 0.54540 0.44236 0.32583
 C256 C 0.50235 0.42518 0.36965
 N257 N 0.45878 0.38161 0.35383
 N258 N 0.45746 0.35716 0.29631
 C259 C 0.50257 0.34932 0.81130
 N260 N 0.54961 0.30983 0.82803
 N261 N 0.55046 0.28380 0.88481
 C262 C 0.50459 0.29653 0.92704
 N263 N 0.45797 0.33673 0.91081
 N264 N 0.45718 0.36298 0.85399
 C265 C 0.50023 0.37539 0.74756
 N266 N 0.45568 0.41787 0.73151
 N267 N 0.45461 0.44236 0.67403
 C268 C 0.49766 0.42518 0.63022
 N269 N 0.54124 0.38161 0.64604
 N270 N 0.54256 0.35715 0.70356
 C271 C 0.65069 0.81136 0.49737
 N272 N 0.63702 0.85406 0.54276
 N273 N 0.66328 0.91087 0.54197
 C274 C 0.70348 0.92711 0.49535
 N275 N 0.71621 0.88487 0.44948
 N276 N 0.69018 0.82810 0.45033
 C277 C 0.62461 0.74763 0.49971
 N278 N 0.64285 0.70363 0.45738
 N279 N 0.61839 0.64610 0.45871
 C280 C 0.57482 0.63029 0.50228
 N281 N 0.55765 0.67410 0.54533
 N282 N 0.58213 0.73157 0.54426
 C283 C 0.65069 0.18864 0.50250
 N284 N 0.69017 0.17190 0.54954
 N285 N 0.71621 0.11513 0.55039
 C286 C 0.70348 0.07289 0.50452
 N287 N 0.66328 0.08912 0.45790
 N288 N 0.63702 0.14594 0.45711
 C289 C 0.62461 0.25237 0.50016
 N290 N 0.58213 0.26843 0.45561
 N291 N 0.55765 0.32590 0.45454
 C292 C 0.57482 0.36971 0.49759
 N293 N 0.61839 0.35390 0.54116
 N294 N 0.64285 0.29637 0.54248
 C295 C 0.34933 0.81136 0.50250
 N296 N 0.36299 0.85406 0.45711
 N297 N 0.33674 0.91087 0.45790
 C298 C 0.29654 0.92711 0.50452
 N299 N 0.28381 0.88487 0.55039
 N300 N 0.30984 0.82810 0.54954
 C301 C 0.37540 0.74763 0.50016
 N302 N 0.35716 0.70363 0.54248
 N303 N 0.38162 0.64610 0.54116
 C304 C 0.42519 0.63029 0.49759
 N305 N 0.44237 0.67410 0.45454
 N306 N 0.41788 0.73157 0.45561
 C307 C 0.34933 0.18864 0.49737
 N308 N 0.36299 0.14594 0.54276
 N309 N 0.33674 0.08912 0.54197
 C310 C 0.29654 0.07289 0.49535
 N311 N 0.28381 0.11513 0.44948
 N312 N 0.30984 0.17190 0.45033
 C313 C 0.37540 0.25237 0.49971
 N314 N 0.35716 0.29637 0.45738
 N315 N 0.38162 0.35390 0.45871
 C316 C 0.42519 0.36971 0.50228
 N317 N 0.44237 0.32590 0.54533
 N318 N 0.41788 0.26843 0.54426
   
