data_POSCAR
  _audit_creation_date              2014-09-24
  _audit_creation_method            'ToBaCCo'
  _symmetry_space_group_name_H-M    'P1'
  _symmetry_Int_Tables_number       1
  _symmetry_cell_setting            triclinic
  loop_
  _symmetry_equiv_pos_as_xyz
 x,y,z
_cell_length_a 29.7000
_cell_length_b 30.1999
_cell_length_c 10.2977
_cell_angle_alpha 90.243600
_cell_angle_beta 89.642400
_cell_angle_gamma 120.297200
loop_
  _atom_site_label
  _atom_site_type_symbol
  _atom_site_fract_x
  _atom_site_fract_y
  _atom_site_fract_z
C1 C 0.18796 0.47934 0.42558
 C2 C 0.19035 0.48280 0.56279
 C3 C 0.22074 0.46682 0.62975
 C4 C 0.25398 0.45430 0.56237
 C5 C 0.24907 0.44778 0.42644
 C6 C 0.21338 0.45717 0.36084
 H7 H 0.21239 0.45575 0.25561
 H8 H 0.22669 0.47448 0.73320
 C9 C 0.51589 -0.29110 0.42069
 C10 C 0.51534 -0.29383 0.55763
 C11 C 0.52094 -0.25187 0.63120
 C12 C 0.52532 -0.20839 0.57047
 C13 C 0.53059 -0.20416 0.43484
 C14 C 0.52738 -0.24492 0.36167
 H15 H 0.52718 -0.24308 0.25654
 H16 H 0.51670 -0.25512 0.73589
 C17 C 1.27905 0.81937 0.42832
 C18 C 1.27859 0.82236 0.56449
 C19 C 1.23294 0.78920 0.63402
 C20 C 1.18806 0.75260 0.56822
 C21 C 1.18824 0.75079 0.43246
 C22 C 1.23337 0.78495 0.36320
 H23 H 1.23465 0.78091 0.25878
 H24 H 1.23301 0.79040 0.73915
 C25 C 0.79949 0.53771 0.44751
 C26 C 0.80582 0.54835 0.58155
 C27 C 0.77282 0.56185 0.64445
 C28 C 0.72410 0.54668 0.59138
 C29 C 0.71643 0.53608 0.45765
 C30 C 0.75570 0.53398 0.38426
 H31 H 0.75089 0.52674 0.28079
 H32 H 0.77679 0.56711 0.74913
 C33 C 0.46575 0.26315 0.44737
 C34 C 0.46598 0.26304 0.58355
 C35 C 0.46571 0.22275 0.64934
 C36 C 0.47809 0.18958 0.58488
 C37 C 0.48132 0.19078 0.44797
 C38 C 0.47268 0.22622 0.37927
 H39 H 0.47340 0.22634 0.27414
 H40 H 0.46871 0.22497 0.75458
 C41 C 0.75428 0.18909 0.43032
 C42 C 0.75368 0.18751 0.56640
 C43 C 0.78961 0.23077 0.63682
 C44 C 0.82385 0.27687 0.57431
 C45 C 0.82518 0.27858 0.43725
 C46 C 0.79082 0.23432 0.36616
 H47 H 0.79114 0.23566 0.26107
 H48 H 0.78666 0.23041 0.74188
 O49 O 1.08127 0.49000 -0.25805
 O50 O 1.13346 0.55987 -0.13123
 C51 C 1.12611 0.52950 -0.22837
 O52 O 0.91796 0.54869 -0.22842
 O53 O 0.86750 0.47607 -0.10856
 C54 C 0.87355 0.50868 -0.19771
 O55 O 1.06422 0.63364 -0.22867
 O56 O 1.12628 0.62768 -0.11118
 C57 C 1.11236 0.64943 -0.19707
 O58 O 0.93522 0.40253 -0.24437
 O59 O 0.87497 0.40780 -0.11384
 C60 C 0.88736 0.38842 -0.21036
 Zr61 Zr 1.00716 0.46471 -0.17032
 O62 O 1.00486 0.46001 -0.37389
 O63 O 1.01685 0.40031 -0.15538
 Zr64 Zr 0.99354 0.57055 -0.15659
 O65 O 0.98978 0.57502 -0.35976
 O66 O 0.98840 0.63761 -0.13396
 O67 O 1.04572 0.54462 -0.19075
 O68 O 0.95654 0.49231 -0.18637
 O69 O 0.93952 0.39756 0.22264
 O70 O 0.87634 0.40308 0.10882
 C71 C 0.89122 0.38107 0.19283
 O72 O 1.06579 0.62788 0.24269
 O73 O 1.12700 0.62583 0.10950
 C74 C 1.11355 0.64530 0.20371
 O75 O 0.92107 0.54795 0.23944
 O76 O 0.86748 0.47735 0.11661
 C77 C 0.87535 0.51131 0.20548
 O78 O 1.08296 0.48721 0.23859
 O79 O 1.13459 0.55772 0.11327
 C80 C 1.12773 0.52659 0.20776
 Zr81 Zr 1.00902 0.46173 0.15326
 O82 O 1.00930 0.45102 0.35506
 O83 O 1.02337 0.40049 0.12313
 Zr84 Zr 0.99512 0.56661 0.16868
 O85 O 0.99228 0.56042 0.37231
 O86 O 0.99191 0.63499 0.17849
 Zr87 Zr 1.07840 0.56137 -0.00368
 Zr88 Zr 0.92384 0.47096 0.00136
 O89 O 0.95720 0.48779 0.18686
 O90 O 1.04770 0.54075 0.18514
 O91 O 0.96179 0.42777 -0.00812
 O92 O 1.03859 0.60252 0.00572
 O93 O 1.05565 0.48326 -0.01097
 O94 O 0.94636 0.54920 0.00833
 H95 H 0.93520 0.48077 -0.26621
 H96 H 1.05871 0.64050 0.00857
 H97 H 0.93368 0.47382 0.26303
 H98 H 1.08377 0.47471 -0.01433
 H99 H 0.95256 0.62693 -0.10443
 H100 H 0.96317 0.63043 0.12156
 H101 H 1.01878 0.55128 0.39612
 H102 H 0.98650 0.46276 0.39290
 H103 H 0.99055 0.37059 0.09222
 H104 H 1.01732 0.38921 -0.24578
 H105 H 1.01427 0.49466 -0.40402
 H106 H 1.01909 0.57173 -0.39398
 O107 O 0.46011 0.37883 -0.25314
 O108 O 0.52511 0.39303 -0.11071
 C109 C 0.49805 0.37259 -0.21428
 O110 O 0.52870 0.59979 -0.22148
 O111 O 0.45341 0.58169 -0.11366
 C112 C 0.49088 0.60826 -0.19577
 O113 O 0.60456 0.53104 -0.21601
 O114 O 0.59226 0.46353 -0.08934
 C115 C 0.61578 0.49643 -0.18083
 O116 O 0.37697 0.43900 -0.26589
 O117 O 0.38101 0.50417 -0.14197
 C118 C 0.36471 0.47392 -0.24209
 Zr119 Zr 0.43371 0.42684 -0.17335
 O120 O 0.43343 0.42308 -0.37750
 O121 O 0.36540 0.35406 -0.16363
 Zr122 Zr 0.54453 0.54413 -0.14537
 O123 O 0.55781 0.55761 -0.34661
 O124 O 0.61490 0.61361 -0.10910
 O125 O 0.51495 0.46643 -0.17967
 O126 O 0.46619 0.50544 -0.18951
 O127 O 0.35669 0.42760 0.20907
 O128 O 0.36851 0.49606 0.08642
 C129 C 0.34346 0.46062 0.17284
 O130 O 0.58898 0.52604 0.26543
 O131 O 0.58720 0.46309 0.13628
 C132 C 0.60625 0.49576 0.23104
 O133 O 0.51065 0.59172 0.24629
 O134 O 0.44271 0.57444 0.11032
 C135 C 0.47317 0.59869 0.20703
 O136 O 0.44100 0.36762 0.23441
 O137 O 0.51455 0.38532 0.11974
 C138 C 0.47890 0.35934 0.20523
 Zr139 Zr 0.42096 0.41975 0.14989
 O140 O 0.40501 0.40752 0.35076
 O141 O 0.35622 0.34584 0.11418
 Zr142 Zr 0.53074 0.53713 0.17829
 O143 O 0.52090 0.53504 0.38143
 O144 O 0.60172 0.60800 0.18871
 Zr145 Zr 0.52512 0.44860 0.01138
 Zr146 Zr 0.43962 0.51590 -0.00800
 O147 O 0.45021 0.49732 0.18207
 O148 O 0.50029 0.45809 0.19583
 O149 O 0.39282 0.43524 -0.01966
 O150 O 0.57063 0.52897 0.02340
 O151 O 0.44523 0.39504 -0.00887
 O152 O 0.51974 0.56994 0.01255
 H153 H 0.45875 0.51722 -0.27195
 H154 H 0.60901 0.54498 0.03008
 H155 H 0.43487 0.50584 0.25683
 H156 H 0.43445 0.35820 -0.01351
 H157 H 0.60568 0.63998 -0.08695
 H158 H 0.59662 0.63388 0.14297
 H159 H 0.50835 0.49921 0.40745
 H160 H 0.41892 0.44166 0.39114
 H161 H 0.32810 0.35038 0.07735
 H162 H 0.35744 0.34170 -0.25445
 H163 H 0.46870 0.44963 -0.40559
 H164 H 0.54570 0.52369 -0.38672
 O165 O 0.55311 -0.07794 0.22799
 O166 O 0.48126 -0.13116 0.10615
 C167 C 0.51543 -0.12295 0.19496
 O168 O 0.48016 0.07481 0.24493
 O169 O 0.54966 0.12981 0.11754
 C170 C 0.51516 0.12045 0.20851
 O171 O 0.40762 -0.06829 0.26042
 O172 O 0.41232 -0.12606 0.12422
 C173 C 0.39430 -0.11485 0.22572
 O174 O 0.63814 0.06539 0.22101
 O175 O 0.62776 0.12488 0.10763
 C176 C 0.65230 0.11241 0.18979
 Zr177 Zr 0.57333 -0.00475 0.15588
 O178 O 0.58097 -0.00254 0.35934
 O179 O 0.64007 -0.01160 0.12790
 Zr180 Zr 0.46296 0.00285 0.17232
 O181 O 0.46189 0.00659 0.37598
 O182 O 0.39069 0.00097 0.16746
 O183 O 0.49321 -0.04574 0.18906
 O184 O 0.54362 0.04332 0.18931
 O185 O 0.63250 0.06486 -0.23595
 O186 O 0.62649 0.12426 -0.10831
 C187 C 0.64863 0.11165 -0.19856
 O188 O 0.39762 -0.06420 -0.22550
 O189 O 0.40385 -0.12462 -0.10506
 C190 C 0.38190 -0.11127 -0.19312
 O191 O 0.48029 0.07933 -0.22681
 O192 O 0.55414 0.13071 -0.10922
 C193 C 0.52067 0.12363 -0.19847
 O194 O 0.54053 -0.07834 -0.25985
 O195 O 0.47309 -0.13069 -0.12418
 C196 C 0.50153 -0.12297 -0.22625
 Zr197 Zr 0.56854 -0.00510 -0.16856
 O198 O 0.57532 -0.00006 -0.37187
 O199 O 0.63234 -0.01794 -0.16317
 Zr200 Zr 0.45940 0.00534 -0.15248
 O201 O 0.45350 0.00825 -0.35547
 O202 O 0.39010 0.00812 -0.12622
 Zr203 Zr 0.47252 -0.07624 0.00030
 Zr204 Zr 0.55970 0.07604 0.00326
 O205 O 0.53917 0.04377 -0.18392
 O206 O 0.48762 -0.04439 -0.18741
 O207 O 0.60543 0.04066 -0.00704
 O208 O 0.42750 -0.04049 0.01046
 O209 O 0.55263 -0.05093 -0.00823
 O210 O 0.47945 0.05123 0.01217
 H211 H 0.55770 0.06633 0.26558
 H212 H 0.38909 -0.06268 0.01644
 H213 H 0.55196 0.06573 -0.26217
 H214 H 0.56318 -0.07721 -0.01453
 H215 H 0.39725 0.03401 0.13123
 H216 H 0.40029 0.04364 -0.10114
 H217 H 0.46089 -0.01796 -0.39067
 H218 H 0.54572 0.00338 -0.40177
 H219 H 0.66163 0.01222 -0.12066
 H220 H 0.65263 -0.01284 0.21596
 H221 H 0.54576 -0.02658 0.39383
 H222 H 0.49502 0.00982 0.40513
 N223 N 1.17671 0.50872 0.35596
 N224 N 1.17227 0.53927 0.28577
 N225 N 0.49006 0.66744 0.34980
 N226 N 0.46056 0.63166 0.27846
 N227 N 0.32326 -0.16468 0.36694
 N228 N 0.36309 -0.15686 0.30972
 N229 N 0.83870 0.53253 0.37844
 N230 N 0.83145 0.50914 0.27036
 N231 N 0.46239 0.30328 0.38166
 N232 N 0.48223 0.31924 0.26984
 N233 N 0.71294 0.14704 0.36091
 N234 N 0.69604 0.15359 0.25374
 N235 N 0.50411 0.17365 -0.34667
 N236 N 0.53397 0.16722 -0.27750
 N237 N 0.68534 0.52025 -0.32916
 N238 N 0.65371 0.49027 -0.24981
 N239 N 0.83932 0.31883 -0.35780
 N240 N 0.84451 0.35510 -0.29136
 N241 N 0.50702 -0.18276 -0.36771
 N242 N 0.48214 -0.16531 -0.31397
 N243 N 0.29950 0.46871 -0.38557
 N244 N 0.34484 0.48966 -0.34701
 N245 N 1.14542 0.71154 -0.36337
 N246 N 1.15333 0.69289 -0.26157
 N247 N 0.82218 0.52406 -0.34551
 N248 N 0.82830 0.49550 -0.27212
 N249 N 0.48825 0.30680 -0.35505
 N250 N 0.51613 0.34672 -0.29551
 N251 N 0.71065 0.14543 -0.36843
 N252 N 0.69273 0.15237 -0.26250
 N253 N 1.17717 0.51236 -0.37381
 N254 N 1.17031 0.54313 -0.31010
 N255 N 0.50895 0.66124 -0.37814
 N256 N 0.49066 0.64941 -0.26304
 N257 N 0.32506 -0.14166 -0.36912
 N258 N 0.33705 -0.15054 -0.25769
 N259 N 0.53233 -0.16139 0.37068
 N260 N 0.51148 -0.16625 0.26000
 N261 N 0.28836 0.44352 0.35436
 N262 N 0.30135 0.46108 0.23936
 N263 N 1.14607 0.70800 0.36829
 N264 N 1.15434 0.68887 0.26716
 N265 N 0.49049 0.15419 0.38112
 N266 N 0.51412 0.16232 0.27212
 N267 N 0.66863 0.52677 0.39919
 N268 N 0.65121 0.50080 0.29520
 N269 N 0.86097 0.32522 0.37138
 N270 N 0.85221 0.33624 0.25836
   
