data_POSCAR
  _audit_creation_date              2014-09-24
  _audit_creation_method            'ToBaCCo'
  _symmetry_space_group_name_H-M    'P1'
  _symmetry_Int_Tables_number       1
  _symmetry_cell_setting            triclinic
  loop_
  _symmetry_equiv_pos_as_xyz
 x,y,z
_cell_length_a 60.8225
_cell_length_b 60.7408
_cell_length_c 61.3392
_cell_angle_alpha 89.896400
_cell_angle_beta 90.013800
_cell_angle_gamma 89.989900
loop_
  _atom_site_label
  _atom_site_type_symbol
  _atom_site_fract_x
  _atom_site_fract_y
  _atom_site_fract_z
N1 N 0.27631 0.23061 0.21607
 N2 N 0.26731 0.24787 0.20667
 C3 C 0.27985 0.25401 0.18962
 C4 C 0.29758 0.23986 0.18832
 C5 C 0.29484 0.22517 0.20531
 H6 H 0.27657 0.26794 0.17911
 H7 H 0.30567 0.21175 0.20968
 Cu8 Cu 0.24064 0.26143 0.21797
 Cu9 Cu 0.26377 0.21709 0.24200
 Cu10 Cu 0.21729 0.24147 0.26381
 N11 N 0.21517 0.27547 0.23123
 N12 N 0.20606 0.26745 0.24899
 C13 C 0.18921 0.28047 0.25491
 C14 C 0.18773 0.29760 0.24017
 C15 C 0.20443 0.29397 0.22532
 H16 H 0.17899 0.27791 0.26912
 H17 H 0.20858 0.30421 0.21148
 N18 N 0.23108 0.21509 0.27654
 N19 N 0.24877 0.20578 0.26816
 C20 C 0.25467 0.18864 0.28082
 C21 C 0.24006 0.18718 0.29797
 C22 C 0.22529 0.20413 0.29478
 H23 H 0.26880 0.17820 0.27805
 H24 H 0.21160 0.20834 0.30522
 H25 H 0.23171 0.22711 0.23684
 H26 H 0.24943 0.24572 0.25354
 N27 N 0.72117 -0.23166 0.21682
 N28 N 0.73024 -0.24888 0.20740
 C29 C 0.71778 -0.25500 0.19032
 C30 C 0.69994 -0.24093 0.18902
 C31 C 0.70258 -0.22632 0.20609
 H32 H 0.72126 -0.26874 0.17967
 H33 H 0.69182 -0.21283 0.21038
 Cu34 Cu 0.75715 -0.26183 0.21883
 Cu35 Cu 0.73420 -0.21753 0.24229
 Cu36 Cu 0.78312 -0.23958 0.26166
 N37 N 0.78406 -0.27477 0.23025
 N38 N 0.79428 -0.26564 0.24685
 C39 C 0.81184 -0.27796 0.25219
 C40 C 0.81262 -0.29586 0.23833
 C41 C 0.79480 -0.29331 0.22452
 H42 H 0.82288 -0.27450 0.26558
 H43 H 0.78981 -0.30440 0.21166
 N44 N 0.76908 -0.21343 0.27455
 N45 N 0.75002 -0.20555 0.26775
 C46 C 0.74400 -0.18881 0.28086
 C47 C 0.76013 -0.18596 0.29646
 C48 C 0.77579 -0.20175 0.29196
 H49 H 0.72898 -0.17942 0.27929
 H50 H 0.79063 -0.20486 0.30117
 H51 H 0.76615 -0.22652 0.23542
 H52 H 0.75044 -0.24489 0.25419
 N53 N 0.72238 0.23116 0.78423
 N54 N 0.73145 0.24831 0.79373
 C55 C 0.71897 0.25436 0.81083
 C56 C 0.70116 0.24029 0.81207
 C57 C 0.70380 0.22576 0.79496
 H58 H 0.72242 0.26803 0.82156
 H59 H 0.69302 0.21228 0.79068
 Cu60 Cu 0.75833 0.26139 0.78238
 Cu61 Cu 0.73534 0.21721 0.75862
 Cu62 Cu 0.78426 0.23941 0.73941
 N63 N 0.78528 0.27437 0.77106
 N64 N 0.79547 0.26538 0.75440
 C65 C 0.81299 0.27779 0.74909
 C66 C 0.81378 0.29558 0.76308
 C67 C 0.79599 0.29289 0.77691
 H68 H 0.82400 0.27447 0.73563
 H69 H 0.79099 0.30387 0.78985
 N70 N 0.77018 0.21335 0.72634
 N71 N 0.75111 0.20543 0.73303
 C72 C 0.74511 0.18878 0.71978
 C73 C 0.76131 0.18602 0.70424
 C74 C 0.77694 0.20177 0.70889
 H75 H 0.73010 0.17935 0.72125
 H76 H 0.79183 0.20491 0.69977
 H77 H 0.76729 0.22618 0.76553
 H78 H 0.75157 0.24467 0.74689
 N79 N 0.27634 -0.23137 0.78516
 N80 N 0.26739 -0.24869 0.79448
 C81 C 0.27996 -0.25492 0.81148
 C82 C 0.29768 -0.24075 0.81284
 C83 C 0.29489 -0.22598 0.79592
 H84 H 0.27673 -0.26891 0.82192
 H85 H 0.30571 -0.21253 0.79159
 Cu86 Cu 0.24071 -0.26220 0.78311
 Cu87 Cu 0.26377 -0.21774 0.75929
 Cu88 Cu 0.21727 -0.24199 0.73741
 N89 N 0.21520 -0.27616 0.76982
 N90 N 0.20603 -0.26802 0.75215
 C91 C 0.18911 -0.28094 0.74621
 C92 C 0.18765 -0.29818 0.76087
 C93 C 0.20445 -0.29467 0.77568
 H94 H 0.17884 -0.27821 0.73206
 H95 H 0.20864 -0.30495 0.78949
 N96 N 0.23107 -0.21559 0.72475
 N97 N 0.24876 -0.20632 0.73317
 C98 C 0.25468 -0.18915 0.72057
 C99 C 0.24007 -0.18761 0.70341
 C100 C 0.22530 -0.20458 0.70652
 H101 H 0.26883 -0.17876 0.72335
 H102 H 0.21164 -0.20877 0.69603
 H103 H 0.23171 -0.22779 0.76443
 H104 H 0.24941 -0.24630 0.74760
 N105 N 0.72189 -0.23163 0.78356
 N106 N 0.73196 -0.24756 0.79413
 C107 C 0.72065 -0.25224 0.81242
 C108 C 0.70249 -0.23858 0.81325
 C109 C 0.70378 -0.22565 0.79472
 H110 H 0.72485 -0.26510 0.82390
 H111 H 0.69212 -0.21328 0.78945
 Cu112 Cu 0.75752 -0.26206 0.78167
 Cu113 Cu 0.73212 -0.22134 0.75517
 Cu114 Cu 0.78575 -0.23644 0.74247
 N115 N 0.78385 -0.27524 0.76936
 N116 N 0.79479 -0.26510 0.75381
 C117 C 0.81223 -0.27742 0.74808
 C118 C 0.81214 -0.29637 0.76066
 C119 C 0.79392 -0.29445 0.77403
 H120 H 0.82404 -0.27293 0.73564
 H121 H 0.78842 -0.30617 0.78615
 N122 N 0.76974 -0.21278 0.72714
 N123 N 0.74909 -0.20761 0.73141
 C124 C 0.74246 -0.19188 0.71736
 C125 C 0.75980 -0.18692 0.70368
 C126 C 0.77683 -0.20040 0.71032
 H127 H 0.72627 -0.18451 0.71714
 H128 H 0.79301 -0.20147 0.70309
 H129 H 0.75396 -0.24619 0.74524
 H130 H 0.76314 -0.22566 0.76588
 N131 N 0.27646 0.23059 0.78507
 N132 N 0.26784 0.24828 0.79399
 C133 C 0.28030 0.25437 0.81110
 C134 C 0.29762 0.23976 0.81292
 C135 C 0.29470 0.22485 0.79619
 H136 H 0.27727 0.26853 0.82132
 H137 H 0.30520 0.21104 0.79227
 Cu138 Cu 0.24175 0.26206 0.78167
 Cu139 Cu 0.26387 0.21685 0.75921
 Cu140 Cu 0.21717 0.24120 0.73730
 N141 N 0.21560 0.27575 0.76937
 N142 N 0.20603 0.26729 0.75208
 C143 C 0.18878 0.27994 0.74646
 C144 C 0.18751 0.29728 0.76093
 C145 C 0.20475 0.29417 0.77529
 H146 H 0.17812 0.27697 0.73266
 H147 H 0.20915 0.30470 0.78879
 N148 N 0.23100 0.21478 0.72470
 N149 N 0.24873 0.20549 0.73310
 C150 C 0.25464 0.18837 0.72048
 C151 C 0.24001 0.18689 0.70334
 C152 C 0.22522 0.20383 0.70649
 H153 H 0.26880 0.17797 0.72324
 H154 H 0.21153 0.20804 0.69603
 H155 H 0.24956 0.24496 0.74661
 H156 H 0.23195 0.22731 0.76436
 N157 N 0.27700 -0.23014 0.21606
 N158 N 0.26816 -0.24763 0.20697
 C159 C 0.28063 -0.25383 0.18992
 C160 C 0.29818 -0.23948 0.18830
 C161 C 0.29540 -0.22464 0.20511
 H162 H 0.27747 -0.26792 0.17962
 H163 H 0.30613 -0.21108 0.20923
 Cu164 Cu 0.24186 -0.26101 0.21919
 Cu165 Cu 0.26455 -0.21638 0.24200
 Cu166 Cu 0.21777 -0.24070 0.26390
 N167 N 0.21594 -0.27500 0.23153
 N168 N 0.20654 -0.26672 0.24900
 C169 C 0.18947 -0.27952 0.25476
 C170 C 0.18813 -0.29677 0.24020
 C171 C 0.20515 -0.29346 0.22564
 H172 H 0.17903 -0.27675 0.26876
 H173 H 0.20947 -0.30390 0.21202
 N174 N 0.23172 -0.21434 0.27656
 N175 N 0.24947 -0.20506 0.26819
 C176 C 0.25542 -0.18800 0.28087
 C177 C 0.24078 -0.18653 0.29800
 C178 C 0.22597 -0.20342 0.29480
 H179 H 0.26962 -0.17764 0.27816
 H180 H 0.21228 -0.20765 0.30525
 H181 H 0.25012 -0.24452 0.25441
 H182 H 0.23254 -0.22645 0.23709
 N183 N 0.72371 0.22954 0.21549
 N184 N 0.73269 0.24686 0.20620
 C185 C 0.72010 0.25314 0.18923
 C186 C 0.70235 0.23900 0.18787
 C187 C 0.70515 0.22418 0.20474
 H188 H 0.72336 0.26714 0.17880
 H189 H 0.69435 0.21070 0.20901
 Cu190 Cu 0.75942 0.26027 0.21753
 Cu191 Cu 0.73634 0.21581 0.24124
 Cu192 Cu 0.78266 0.24010 0.26343
 N193 N 0.78486 0.27419 0.23093
 N194 N 0.79392 0.26616 0.24872
 C195 C 0.81077 0.27917 0.25470
 C196 C 0.81228 0.29632 0.23996
 C197 C 0.79560 0.29270 0.22508
 H198 H 0.82098 0.27658 0.26891
 H199 H 0.79147 0.30296 0.21124
 N200 N 0.76883 0.21363 0.27599
 N201 N 0.75133 0.20426 0.26728
 C202 C 0.74550 0.18685 0.27957
 C203 C 0.75988 0.18526 0.29689
 C204 C 0.77450 0.20245 0.29417
 H205 H 0.73154 0.17629 0.27646
 H206 H 0.78809 0.20658 0.30478
 H207 H 0.75069 0.24443 0.25300
 H208 H 0.76854 0.22593 0.23628
 C209 C 0.24194 0.00020 0.44276
 C210 C 0.24013 0.02012 0.45381
 C211 C 0.23682 0.02007 0.47644
 C212 C 0.23577 0.00003 0.48847
 C213 C 0.23652 -0.01991 0.47633
 C214 C 0.23994 -0.01980 0.45371
 C215 C 0.23579 -0.00006 0.51330
 C216 C 0.23692 -0.02010 0.52533
 C217 C 0.24025 -0.02013 0.54796
 C218 C 0.24201 -0.00020 0.55901
 C219 C 0.23992 0.01980 0.54806
 C220 C 0.23649 0.01989 0.52544
 H221 H 0.24446 0.00026 0.42526
 H222 H 0.23601 0.03593 0.48417
 H223 H 0.23534 -0.03582 0.48396
 H224 H 0.23614 -0.03595 0.51760
 H225 H 0.24456 -0.00026 0.57651
 H226 H 0.23526 0.03579 0.51780
 C227 C 0.76709 0.00163 0.55868
 C228 C 0.76621 0.02122 0.54684
 C229 C 0.76307 0.02063 0.52421
 C230 C 0.75994 0.00037 0.51314
 C231 C 0.75884 -0.01905 0.52603
 C232 C 0.76307 -0.01849 0.54851
 C233 C 0.75836 -0.00063 0.48852
 C234 C 0.76072 -0.02092 0.47732
 C235 C 0.75908 -0.02196 0.45459
 C236 C 0.75593 -0.00281 0.44252
 C237 C 0.75430 0.01759 0.45285
 C238 C 0.75514 0.01863 0.47573
 H239 H 0.76983 0.00215 0.57615
 H240 H 0.76371 0.03612 0.51563
 H241 H 0.75511 -0.03486 0.51896
 H242 H 0.76414 -0.03611 0.48580
 H243 H 0.75519 -0.00385 0.42488
 H244 H 0.75283 0.03455 0.48310
 C245 C 0.44110 0.24208 0.00059
 C246 C 0.45218 0.24022 0.02039
 C247 C 0.47502 0.23701 0.02044
 C248 C 0.48724 0.23615 0.00065
 C249 C 0.47508 0.23705 -0.01916
 C250 C 0.45223 0.24026 -0.01917
 C251 C 0.51228 0.23611 0.00068
 C252 C 0.52453 0.23695 -0.01910
 C253 C 0.54739 0.24008 -0.01903
 C254 C 0.55844 0.24190 0.00078
 C255 C 0.54728 0.24009 0.02053
 C256 C 0.52444 0.23696 0.02051
 H257 H 0.42344 0.24449 0.00056
 H258 H 0.48276 0.23607 0.03617
 H259 H 0.48286 0.23616 -0.03487
 H260 H 0.51678 0.23606 -0.03483
 H261 H 0.57611 0.24428 0.00084
 H262 H 0.51664 0.23613 0.03622
 C263 C 0.55857 0.75718 0.00081
 C264 C 0.54740 0.75885 0.02056
 C265 C 0.52454 0.76199 0.02049
 C266 C 0.51244 0.76313 0.00064
 C267 C 0.52473 0.76252 -0.01911
 C268 C 0.54755 0.75921 -0.01901
 C269 C 0.48741 0.76321 0.00050
 C270 C 0.47530 0.76207 -0.01934
 C271 C 0.45242 0.75909 -0.01937
 C272 C 0.44124 0.75755 0.00039
 C273 C 0.45230 0.75952 0.02018
 C274 C 0.47514 0.76270 0.02025
 H275 H 0.57623 0.75479 0.00088
 H276 H 0.51670 0.76264 0.03619
 H277 H 0.51704 0.76378 -0.03485
 H278 H 0.48314 0.76255 -0.03505
 H279 H 0.42357 0.75523 0.00036
 H280 H 0.48284 0.76391 0.03598
 C281 C -0.00044 0.44205 0.24123
 C282 C 0.01945 0.45329 0.23958
 C283 C 0.01937 0.47616 0.23647
 C284 C -0.00066 0.48824 0.23534
 C285 C -0.02055 0.47593 0.23589
 C286 C -0.02043 0.45307 0.23919
 C287 C -0.00081 0.51329 0.23544
 C288 C -0.02082 0.52539 0.23676
 C289 C -0.02084 0.54825 0.23995
 C290 C -0.00090 0.55942 0.24158
 C291 C 0.01906 0.54838 0.23939
 C292 C 0.01911 0.52557 0.23595
 H293 H -0.00036 0.42437 0.24366
 H294 H 0.03520 0.48402 0.23589
 H295 H -0.03644 0.48361 0.23463
 H296 H -0.03665 0.51753 0.23626
 H297 H -0.00091 0.57708 0.24409
 H298 H 0.03497 0.51789 0.23452
 C299 C -0.00057 0.55908 0.75975
 C300 C 0.01927 0.54787 0.76204
 C301 C 0.01910 0.52504 0.76543
 C302 C -0.00093 0.51291 0.76563
 C303 C -0.02083 0.52517 0.76411
 C304 C -0.02062 0.54807 0.76110
 C305 C -0.00098 0.48786 0.76559
 C306 C -0.02098 0.47568 0.76503
 C307 C -0.02100 0.45284 0.76161
 C308 C -0.00108 0.44172 0.75957
 C309 C 0.01889 0.45280 0.76126
 C310 C 0.01896 0.47565 0.76437
 H311 H -0.00041 0.57676 0.75732
 H312 H 0.03489 0.51723 0.76703
 H313 H -0.03672 0.51741 0.76431
 H314 H -0.03680 0.48346 0.76640
 H315 H -0.00110 0.42405 0.75712
 H316 H 0.03485 0.48341 0.76488
 C317 C 0.34877 0.24260 0.14286
 N318 N 0.34882 0.22704 0.15879
 N319 N 0.33254 0.22613 0.17332
 C320 C 0.31563 0.24072 0.17241
 N321 N 0.31562 0.25626 0.15650
 N322 N 0.33186 0.25716 0.14199
 C323 C 0.36625 0.24349 0.12637
 N324 N 0.36496 0.25834 0.10988
 N325 N 0.38014 0.25878 0.09429
 C326 C 0.39729 0.24449 0.09460
 N327 N 0.39877 0.22974 0.11122
 N328 N 0.38350 0.22926 0.12684
 C329 C 0.41286 0.24429 0.07630
 N330 N 0.43098 0.23117 0.07628
 N331 N 0.44407 0.23031 0.05881
 C332 C 0.43936 0.24243 0.04074
 N333 N 0.42140 0.25568 0.04099
 N334 N 0.40848 0.25666 0.05842
 C335 C 0.65027 0.75685 0.14365
 N336 N 0.65004 0.77231 0.15962
 N337 N 0.66613 0.77308 0.17438
 C338 C 0.68301 0.75841 0.17371
 N339 N 0.68316 0.74297 0.15775
 N340 N 0.66713 0.74223 0.14299
 C341 C 0.63300 0.75604 0.12692
 N342 N 0.63462 0.74140 0.11034
 N343 N 0.61956 0.74090 0.09462
 C344 C 0.60220 0.75493 0.09491
 N345 N 0.60041 0.76950 0.11161
 N346 N 0.61556 0.77004 0.12735
 C347 C 0.58666 0.75500 0.07657
 N348 N 0.56839 0.76792 0.07650
 N349 N 0.55531 0.76866 0.05902
 C350 C 0.56015 0.75663 0.04097
 N351 N 0.57826 0.74357 0.04127
 N352 N 0.59119 0.74271 0.05871
 C353 C 0.65053 0.24253 -0.14184
 N354 N 0.66752 0.25699 -0.14100
 N355 N 0.68359 0.25623 -0.15570
 C356 C 0.68332 0.24095 -0.17180
 N357 N 0.66634 0.22644 -0.17267
 N358 N 0.65022 0.22722 -0.15795
 C359 C 0.63323 0.24329 -0.12515
 N360 N 0.61584 0.22925 -0.12565
 N361 N 0.60067 0.22970 -0.10993
 C362 C 0.60241 0.24421 -0.09319
 N363 N 0.61972 0.25829 -0.09283
 N364 N 0.63480 0.25788 -0.10852
 C365 C 0.58686 0.24403 -0.07487
 N366 N 0.59134 0.25624 -0.05696
 N367 N 0.57838 0.25531 -0.03955
 C368 C 0.56027 0.24225 -0.03936
 N369 N 0.55548 0.23028 -0.05746
 N370 N 0.56860 0.23110 -0.07490
 C371 C 0.34902 0.75638 -0.14184
 N372 N 0.33214 0.74179 -0.14099
 N373 N 0.31585 0.74272 -0.15546
 C374 C 0.31579 0.75833 -0.17130
 N375 N 0.33267 0.77295 -0.17219
 N376 N 0.34900 0.77200 -0.15771
 C377 C 0.36655 0.75547 -0.12537
 N378 N 0.38377 0.76973 -0.12584
 N379 N 0.39907 0.76924 -0.11024
 C380 C 0.39765 0.75446 -0.09365
 N381 N 0.38054 0.74014 -0.09334
 N382 N 0.36533 0.74059 -0.10891
 C383 C 0.41323 0.75470 -0.07535
 N384 N 0.40885 0.74239 -0.05743
 N385 N 0.42175 0.74345 -0.03998
 C386 C 0.43968 0.75673 -0.03974
 N387 N 0.44438 0.76880 -0.05784
 N388 N 0.43132 0.76786 -0.07533
 C389 C 0.14263 0.34954 0.24238
 N390 N 0.15817 0.34887 0.22650
 N391 N 0.17260 0.33234 0.22572
 C392 C 0.17195 0.31592 0.24077
 N393 N 0.15643 0.31664 0.25662
 N394 N 0.14203 0.33311 0.25739
 C395 C 0.12617 0.36722 0.24316
 N396 N 0.10999 0.36648 0.25834
 N397 N 0.09435 0.38177 0.25872
 C398 C 0.09431 0.39848 0.24402
 N399 N 0.11063 0.39941 0.22892
 N400 N 0.12630 0.38402 0.22849
 C401 C 0.07591 0.41413 0.24381
 N402 N 0.07564 0.43194 0.23035
 N403 N 0.05801 0.44503 0.22947
 C404 C 0.04003 0.44063 0.24191
 N405 N 0.04054 0.42300 0.25551
 N406 N 0.05814 0.41008 0.25650
 C407 C 0.14300 0.65109 0.75905
 N408 N 0.14252 0.66739 0.74390
 N409 N 0.15704 0.68376 0.74453
 C410 C 0.17258 0.68454 0.76038
 N411 N 0.17310 0.66822 0.77557
 N412 N 0.15856 0.65178 0.77493
 C413 C 0.12641 0.63352 0.75841
 N414 N 0.12652 0.61672 0.77309
 N415 N 0.11078 0.60141 0.77274
 C416 C 0.09440 0.60241 0.75770
 N417 N 0.09445 0.61911 0.74299
 N418 N 0.11016 0.63432 0.74329
 C419 C 0.07591 0.58686 0.75798
 N420 N 0.05817 0.59094 0.74525
 N421 N 0.04052 0.57811 0.74625
 C422 C 0.03989 0.56053 0.75992
 N423 N 0.05783 0.55609 0.77241
 N424 N 0.07552 0.56910 0.77152
 C425 C -0.14297 0.65323 0.24102
 N426 N -0.14159 0.67041 0.25506
 N427 N -0.15597 0.68689 0.25408
 C428 C -0.17228 0.68690 0.23898
 N429 N -0.17366 0.66972 0.22486
 N430 N -0.15925 0.65318 0.22584
 C431 C -0.12668 0.63541 0.24216
 N432 N -0.12745 0.61793 0.22836
 N433 N -0.11200 0.60232 0.22917
 C434 C -0.09529 0.60369 0.24383
 N435 N -0.09471 0.62107 0.25767
 N436 N -0.11011 0.63658 0.25689
 C437 C -0.07707 0.58781 0.24392
 N438 N -0.05913 0.59198 0.25634
 N439 N -0.04164 0.57891 0.25547
 C440 C -0.04138 0.56102 0.24228
 N441 N -0.05953 0.55649 0.23013
 N442 N -0.07707 0.56972 0.23088
 C443 C -0.14221 0.34686 0.76049
 N444 N -0.15839 0.34667 0.77575
 N445 N -0.17264 0.32999 0.77673
 C446 C -0.17118 0.31290 0.76252
 N447 N -0.15493 0.31311 0.74736
 N448 N -0.14072 0.32974 0.74639
 C449 C -0.12610 0.36486 0.75938
 N450 N -0.10962 0.36399 0.74452
 N451 N -0.09438 0.37966 0.74380
 C452 C -0.09503 0.39690 0.75783
 N453 N -0.11163 0.39794 0.77261
 N454 N -0.12692 0.38219 0.77336
 C455 C -0.07700 0.41298 0.75773
 N456 N -0.07695 0.43084 0.77109
 N457 N -0.05951 0.44420 0.77184
 C458 C -0.04151 0.44003 0.75936
 N459 N -0.04185 0.42240 0.74581
 N460 N -0.05924 0.40921 0.74496
 C461 C 0.24260 0.14231 0.34969
 N462 N 0.22672 0.15802 0.34907
 N463 N 0.22584 0.17233 0.33258
 C464 C 0.24077 0.17140 0.31613
 N465 N 0.25661 0.15570 0.31679
 N466 N 0.25748 0.14141 0.33323
 C467 C 0.24351 0.12605 0.36739
 N468 N 0.25881 0.10983 0.36681
 N469 N 0.25932 0.09439 0.38220
 C470 C 0.24463 0.09460 0.39883
 N471 N 0.22940 0.11095 0.39959
 N472 N 0.22886 0.12642 0.38413
 C473 C 0.24450 0.07638 0.41458
 N474 N 0.23077 0.07619 0.43207
 N475 N 0.22987 0.05865 0.44521
 C476 C 0.24256 0.04068 0.44118
 N477 N 0.25644 0.04112 0.42388
 N478 N 0.25746 0.05863 0.41090
 C479 C 0.76305 0.14125 0.65257
 N480 N 0.74393 0.14521 0.66331
 N481 N 0.74335 0.15935 0.67991
 C482 C 0.76183 0.17015 0.68622
 N483 N 0.78090 0.16624 0.67542
 N484 N 0.78153 0.15195 0.65899
 C485 C 0.76397 0.12531 0.63464
 N486 N 0.78358 0.11694 0.62811
 N487 N 0.78450 0.10185 0.61240
 C488 C 0.76587 0.09482 0.60242
 N489 N 0.74626 0.10340 0.60874
 N490 N 0.74532 0.11831 0.62464
 C491 C 0.76686 0.07710 0.58621
 N492 N 0.74977 0.07330 0.57246
 N493 N 0.75013 0.05615 0.55893
 C494 C 0.76752 0.04213 0.55878
 N495 N 0.78461 0.04599 0.57247
 N496 N 0.78439 0.06329 0.58576
 C497 C 0.24269 -0.14256 0.65186
 N498 N 0.22681 -0.15827 0.65238
 N499 N 0.22590 -0.17264 0.66883
 C500 C 0.24080 -0.17176 0.68531
 N501 N 0.25663 -0.15606 0.68475
 N502 N 0.25754 -0.14171 0.66835
 C503 C 0.24363 -0.12625 0.63420
 N504 N 0.25890 -0.11000 0.63487
 N505 N 0.25941 -0.09451 0.61954
 C506 C 0.24476 -0.09469 0.60286
 N507 N 0.22959 -0.11108 0.60199
 N508 N 0.22904 -0.12661 0.61741
 C509 C 0.24462 -0.07642 0.58717
 N510 N 0.23097 -0.07625 0.56960
 N511 N 0.23007 -0.05870 0.55648
 C512 C 0.24268 -0.04070 0.56060
 N513 N 0.25647 -0.04111 0.57799
 N514 N 0.25748 -0.05863 0.59094
 C515 C 0.76055 -0.14134 0.34830
 N516 N 0.77910 -0.15238 0.34270
 N517 N 0.77895 -0.16660 0.32619
 C518 C 0.76030 -0.17013 0.31454
 N519 N 0.74177 -0.15900 0.32006
 N520 N 0.74188 -0.14492 0.33669
 C521 C 0.76070 -0.12556 0.36642
 N522 N 0.74156 -0.11739 0.37437
 N523 N 0.74167 -0.10260 0.39038
 C524 C 0.76092 -0.09537 0.39896
 N525 N 0.78009 -0.10361 0.39108
 N526 N 0.77997 -0.11853 0.37517
 C527 C 0.76092 -0.07784 0.41543
 N528 N 0.77982 -0.06726 0.42084
 N529 N 0.77943 -0.05003 0.43426
 C530 C 0.76016 -0.04297 0.44294
 N531 N 0.74131 -0.05364 0.43770
 N532 N 0.74169 -0.07081 0.42424
 C533 C 0.65186 0.75889 -0.14070
 N534 N 0.66953 0.74533 -0.13911
 N535 N 0.68568 0.74628 -0.15372
 C536 C 0.68480 0.76087 -0.17046
 N537 N 0.66715 0.77448 -0.17208
 N538 N 0.65096 0.77353 -0.15744
 C539 C 0.63436 0.75777 -0.12425
 N540 N 0.61655 0.77128 -0.12515
 N541 N 0.60116 0.77046 -0.10965
 C542 C 0.60306 0.75607 -0.09277
 N543 N 0.62079 0.74253 -0.09202
 N544 N 0.63611 0.74333 -0.10746
 C545 C 0.58725 0.75584 -0.07468
 N546 N 0.59161 0.74339 -0.05686
 N547 N 0.57854 0.74410 -0.03954
 C548 C 0.56045 0.75717 -0.03932
 N549 N 0.55573 0.76934 -0.05736
 N550 N 0.56896 0.76873 -0.07474
 C551 C 0.34872 0.24238 -0.14151
 N552 N 0.34854 0.22653 -0.15711
 N553 N 0.33225 0.22563 -0.17165
 C554 C 0.31559 0.24052 -0.17108
 N555 N 0.31582 0.25634 -0.15551
 N556 N 0.33205 0.25723 -0.14098
 C557 C 0.36619 0.24327 -0.12501
 N558 N 0.36510 0.25839 -0.10881
 N559 N 0.38033 0.25891 -0.09326
 C560 C 0.39731 0.24442 -0.09334
 N561 N 0.39857 0.22939 -0.10966
 N562 N 0.38326 0.22882 -0.12524
 C563 C 0.41292 0.24430 -0.07508
 N564 N 0.43086 0.23094 -0.07488
 N565 N 0.44397 0.23010 -0.05743
 C566 C 0.43946 0.24249 -0.03954
 N567 N 0.42168 0.25598 -0.03995
 N568 N 0.40873 0.25693 -0.05738
 C569 C 0.34944 0.75739 0.14300
 N570 N 0.33256 0.74281 0.14229
 N571 N 0.31628 0.74386 0.15674
 C572 C 0.31622 0.75957 0.17241
 N573 N 0.33310 0.77420 0.17316
 N574 N 0.34944 0.77314 0.15869
 C575 C 0.36690 0.75638 0.12651
 N576 N 0.38415 0.77060 0.12681
 N577 N 0.39935 0.77004 0.11113
 C578 C 0.39778 0.75523 0.09463
 N579 N 0.38064 0.74094 0.09449
 N580 N 0.36554 0.74146 0.11015
 C581 C 0.41321 0.75544 0.07624
 N582 N 0.40866 0.74318 0.05837
 N583 N 0.42148 0.74419 0.04086
 C584 C 0.43948 0.75739 0.04052
 N585 N 0.44433 0.76941 0.05857
 N586 N 0.43135 0.76852 0.07611
 C587 C 0.65083 0.24210 0.14280
 N588 N 0.66771 0.25668 0.14194
 N589 N 0.68406 0.25568 0.15634
 C590 C 0.68419 0.24001 0.17211
 N591 N 0.66729 0.22540 0.17303
 N592 N 0.65090 0.22642 0.15862
 C593 C 0.63325 0.24309 0.12641
 N594 N 0.61605 0.22880 0.12683
 N595 N 0.60069 0.22940 0.11129
 C596 C 0.60203 0.24433 0.09482
 N597 N 0.61912 0.25868 0.09457
 N598 N 0.63439 0.25811 0.11008
 C599 C 0.58643 0.24419 0.07655
 N600 N 0.59073 0.25671 0.05875
 N601 N 0.57784 0.25573 0.04129
 C602 C 0.56002 0.24231 0.04092
 N603 N 0.55540 0.23002 0.05890
 N604 N 0.56845 0.23089 0.07640
 C605 C -0.14291 0.65315 0.75842
 N606 N -0.15999 0.65237 0.77267
 N607 N -0.17465 0.66869 0.77337
 C608 C -0.17274 0.68639 0.75990
 N609 N -0.15569 0.68709 0.74565
 N610 N -0.14107 0.67080 0.74494
 C611 C -0.12632 0.63559 0.75769
 N612 N -0.10914 0.63728 0.74369
 N613 N -0.09357 0.62191 0.74324
 C614 C -0.09458 0.60418 0.75669
 N615 N -0.11184 0.60234 0.77064
 N616 N -0.12746 0.61779 0.77111
 C617 C -0.07641 0.58825 0.75681
 N618 N -0.07682 0.56986 0.76949
 N619 N -0.05942 0.55645 0.77035
 C620 C -0.04101 0.56107 0.75863
 N621 N -0.04086 0.57927 0.74578
 N622 N -0.05820 0.59253 0.74482
 C623 C -0.14289 0.34848 0.24217
 N624 N -0.14215 0.33202 0.25715
 N625 N -0.15646 0.31548 0.25639
 C626 C -0.17203 0.31470 0.24058
 N627 N -0.17282 0.33116 0.22556
 N628 N -0.15848 0.34776 0.22633
 C629 C -0.12655 0.36627 0.24294
 N630 N -0.12687 0.38312 0.22833
 N631 N -0.11133 0.39864 0.22875
 C632 C -0.09496 0.39780 0.24381
 N633 N -0.09481 0.38105 0.25848
 N634 N -0.11032 0.36563 0.25809
 C635 C -0.07666 0.41355 0.24353
 N636 N -0.05881 0.40961 0.25616
 N637 N -0.04128 0.42261 0.25508
 C638 C -0.04091 0.44021 0.24144
 N639 N -0.05896 0.44451 0.22906
 N640 N -0.07652 0.43134 0.23002
 C641 C 0.14190 0.34877 0.75890
 N642 N 0.14092 0.33199 0.74436
 N643 N 0.15545 0.31564 0.74509
 C644 C 0.17150 0.31539 0.76044
 N645 N 0.17253 0.33216 0.77503
 N646 N 0.15797 0.34858 0.77429
 C647 C 0.12535 0.36635 0.75812
 N648 N 0.12585 0.38353 0.77229
 N649 N 0.11017 0.39891 0.77180
 C650 C 0.09349 0.39760 0.75712
 N651 N 0.09315 0.38051 0.74292
 N652 N 0.10880 0.36523 0.74337
 C653 C 0.07513 0.41329 0.75726
 N654 N 0.05720 0.40910 0.74484
 N655 N 0.03967 0.42211 0.74576
 C656 C 0.03939 0.43997 0.75901
 N657 N 0.05751 0.44449 0.77119
 N658 N 0.07508 0.43131 0.77038
 C659 C 0.14274 0.65157 0.24244
 N660 N 0.14197 0.66817 0.25719
 N661 N 0.15646 0.68456 0.25642
 C662 C 0.17224 0.68502 0.24081
 N663 N 0.17306 0.66843 0.22601
 N664 N 0.15854 0.65198 0.22680
 C665 C 0.12616 0.63402 0.24318
 N666 N 0.12644 0.61705 0.22876
 N667 N 0.11067 0.60178 0.22913
 C668 C 0.09410 0.60298 0.24394
 N669 N 0.09400 0.61983 0.25842
 N670 N 0.10974 0.63501 0.25809
 C671 C 0.07558 0.58750 0.24359
 N672 N 0.05764 0.59180 0.25595
 N673 N 0.04000 0.57896 0.25489
 C674 C 0.03959 0.56118 0.24154
 N675 N 0.05771 0.55656 0.22941
 N676 N 0.07540 0.56956 0.23036
 C677 C 0.76085 -0.14086 0.65296
 N678 N 0.74149 -0.14705 0.66214
 N679 N 0.74113 -0.16173 0.67831
 C680 C 0.76009 -0.17086 0.68576
 N681 N 0.77941 -0.16477 0.67648
 N682 N 0.77979 -0.14996 0.66045
 C683 C 0.76142 -0.12416 0.63564
 N684 N 0.78059 -0.11399 0.63050
 N685 N 0.78110 -0.09824 0.61538
 C686 C 0.76252 -0.09229 0.60462
 N687 N 0.74337 -0.10262 0.60957
 N688 N 0.74281 -0.11823 0.62488
 C689 C 0.76307 -0.07401 0.58894
 N690 N 0.74658 -0.07090 0.57429
 N691 N 0.74685 -0.05361 0.56084
 C692 C 0.76348 -0.03872 0.56177
 N693 N 0.77994 -0.04191 0.57638
 N694 N 0.77983 -0.05930 0.58958
 C695 C 0.24309 -0.14169 0.34961
 N696 N 0.25805 -0.14077 0.33322
 N697 N 0.25726 -0.15506 0.31681
 C698 C 0.24144 -0.17077 0.31614
 N699 N 0.22643 -0.17171 0.33251
 N700 N 0.22722 -0.15741 0.34897
 C701 C 0.24391 -0.12546 0.36730
 N702 N 0.22921 -0.12593 0.38399
 N703 N 0.22965 -0.11050 0.39945
 C704 C 0.24482 -0.09410 0.39872
 N705 N 0.25958 -0.09380 0.38214
 N706 N 0.25917 -0.10921 0.36677
 C707 C 0.24455 -0.07590 0.41444
 N708 N 0.25744 -0.05809 0.41079
 N709 N 0.25630 -0.04063 0.42374
 C710 C 0.24235 -0.04028 0.44100
 N711 N 0.22972 -0.05830 0.44500
 N712 N 0.23074 -0.07580 0.43187
 C713 C 0.75632 0.13906 0.34739
 N714 N 0.74271 0.13779 0.32990
 N715 N 0.74397 0.15251 0.31387
 C716 C 0.75895 0.16902 0.31463
 N717 N 0.77265 0.17032 0.33209
 N718 N 0.77135 0.15559 0.34821
 C719 C 0.75484 0.12242 0.36471
 N720 N 0.76720 0.12380 0.38313
 N721 N 0.76592 0.10821 0.39844
 C722 C 0.75226 0.09071 0.39582
 N723 N 0.73991 0.08943 0.37746
 N724 N 0.74111 0.10501 0.36225
 C725 C 0.75159 0.07260 0.41170
 N726 N 0.74113 0.05364 0.40641
 N727 N 0.74149 0.03646 0.41986
 C728 C 0.75212 0.03758 0.43927
 N729 N 0.76229 0.05671 0.44481
 N730 N 0.76208 0.07391 0.43122
 C731 C 0.24258 0.14206 0.65174
 N732 N 0.22668 0.15775 0.65232
 N733 N 0.22579 0.17206 0.66877
 C734 C 0.24074 0.17113 0.68522
 N735 N 0.25659 0.15544 0.68461
 N736 N 0.25747 0.14116 0.66820
 C737 C 0.24349 0.12581 0.63407
 N738 N 0.25876 0.10956 0.63473
 N739 N 0.25925 0.09412 0.61940
 C740 C 0.24457 0.09436 0.60275
 N741 N 0.22940 0.11076 0.60189
 N742 N 0.22888 0.12624 0.61730
 C743 C 0.24435 0.07608 0.58712
 N744 N 0.23068 0.07593 0.56957
 N745 N 0.22971 0.05836 0.55654
 C746 C 0.24223 0.04031 0.56075
 N747 N 0.25603 0.04069 0.57813
 N748 N 0.25713 0.05823 0.59099
   
