data_POSCAR
  _audit_creation_date              2014-09-24
  _audit_creation_method            'ToBaCCo'
  _symmetry_space_group_name_H-M    'P1'
  _symmetry_Int_Tables_number       1
  _symmetry_cell_setting            triclinic
  loop_
  _symmetry_equiv_pos_as_xyz
 x,y,z
_cell_length_a 26.7834
_cell_length_b 22.9631
_cell_length_c 12.5024
_cell_angle_alpha 89.087500
_cell_angle_beta 89.742800
_cell_angle_gamma 90.590700
loop_
  _atom_site_label
  _atom_site_type_symbol
  _atom_site_fract_x
  _atom_site_fract_y
  _atom_site_fract_z
O1 O 0.78036 0.17019 0.60334
 O2 O 0.68172 0.21581 0.41448
 O3 O 0.76141 0.15440 0.40260
 O4 O 0.69351 0.22459 0.62168
 O5 O 0.73060 0.30872 0.58342
 O6 O 0.80390 0.23616 0.37335
 O7 O 0.72440 0.29720 0.38248
 O8 O 0.81804 0.25546 0.58023
 Cu9 Cu 0.72527 0.18300 0.51545
 Cu10 Cu 0.77420 0.28218 0.47833
 C11 C 0.81618 0.20519 0.62289
 C12 C 0.68671 0.26471 0.36615
 C13 C 0.79334 0.18383 0.34919
 C14 C 0.69823 0.27895 0.63590
 O15 O 0.18071 0.72238 0.39698
 O16 O 0.25829 0.65028 0.59897
 O17 O 0.18095 0.71721 0.60670
 O18 O 0.26637 0.66674 0.39502
 O19 O 0.30774 0.75028 0.40116
 O20 O 0.22883 0.79556 0.62217
 O21 O 0.30571 0.72926 0.61003
 O22 O 0.22153 0.80532 0.41919
 Cu23 Cu 0.21704 0.68121 0.49686
 Cu24 Cu 0.27092 0.77775 0.51307
 C25 C 0.18606 0.77635 0.37726
 C26 C 0.29488 0.67721 0.63933
 C27 C 0.19083 0.76567 0.65035
 C28 C 0.30197 0.69999 0.36335
 O29 O 0.25583 0.34588 -0.61627
 O30 O 0.19542 0.28970 -0.37051
 O31 O 0.28005 0.33250 -0.41846
 O32 O 0.17307 0.27786 -0.57215
 O33 O 0.21143 0.19411 -0.59254
 O34 O 0.31515 0.24610 -0.42928
 O35 O 0.22933 0.20370 -0.39786
 O36 O 0.29389 0.26204 -0.63773
 Cu37 Cu 0.22205 0.31929 -0.49648
 Cu38 Cu 0.26733 0.21924 -0.52106
 C39 C 0.28629 0.31456 -0.66667
 C40 C 0.20079 0.23663 -0.34417
 C41 C 0.31496 0.29748 -0.39447
 C42 C 0.17283 0.22508 -0.60180
 O43 O -0.31001 0.78934 -0.36698
 O44 O -0.24305 0.84489 -0.60239
 O45 O -0.32010 0.77356 -0.57420
 O46 O -0.21967 0.83220 -0.40054
 O47 O -0.18165 0.74754 -0.41086
 O48 O -0.27802 0.69168 -0.58625
 O49 O -0.20151 0.76265 -0.61492
 O50 O -0.27196 0.70494 -0.38111
 Cu51 Cu -0.27680 0.81787 -0.48477
 Cu52 Cu -0.22938 0.71898 -0.49851
 C53 C -0.30379 0.73741 -0.33559
 C54 C -0.21097 0.81414 -0.64867
 C55 C -0.31611 0.72157 -0.60832
 C56 C -0.18361 0.79867 -0.37596
 N57 N -0.06202 0.93533 0.16771
 N58 N -0.10537 0.92490 0.21666
 N59 N 0.04825 0.89734 0.13653
 N60 N 0.08420 0.86144 0.16518
 N61 N 0.04205 0.93784 0.20878
 N62 N 0.07420 0.93100 0.28781
 N63 N -0.05438 0.89620 0.09393
 N64 N -0.09198 0.85901 0.08926
 C65 C -0.12289 0.87653 0.16712
 C66 C 0.10004 0.88331 0.25919
 N67 N 0.07497 0.94052 -0.16070
 N68 N 0.11182 0.92930 -0.22674
 N69 N -0.03510 0.89841 -0.13185
 N70 N -0.07369 0.86544 -0.15873
 N71 N -0.02834 0.94073 -0.20233
 N72 N -0.06225 0.93865 -0.27814
 N73 N 0.06785 0.89727 -0.09232
 N74 N 0.09868 0.85408 -0.11309
 Mn75 Mn 0.00675 0.89670 0.00204
 C76 C 0.12662 0.87603 -0.19515
 C77 C -0.08987 0.89158 -0.25007
 N78 N 0.04091 1.06486 0.20938
 N79 N 0.05859 1.08286 0.30174
 N80 N -0.05384 1.10408 0.09205
 N81 N -0.09163 1.14026 0.08710
 N82 N -0.06172 1.06352 0.16599
 N83 N -0.10496 1.07190 0.21491
 N84 N 0.04905 1.10493 0.13443
 N85 N 0.07284 1.15030 0.17456
 Mn86 Mn -0.01046 1.00021 0.18946
 C87 C 0.08019 1.13498 0.27798
 C88 C -0.12253 1.12043 0.16518
 N89 N -0.02740 1.06405 -0.20390
 N90 N -0.06089 1.06770 -0.28051
 N91 N 0.06967 1.10604 -0.09446
 N92 N 0.10347 1.14766 -0.11288
 N93 N 0.07597 1.06321 -0.16125
 N94 N 0.11483 1.07296 -0.22355
 N95 N -0.03367 1.10525 -0.13385
 N96 N -0.07141 1.13893 -0.16156
 Mn97 Mn 0.02386 1.00218 -0.18240
 Mn98 Mn 0.00795 1.10564 -0.00027
 Cl99 Cl 0.00712 1.00124 0.00290
 C100 C -0.08765 1.11457 -0.25325
 C101 C 0.13206 1.12495 -0.19170
 N102 N 0.56054 0.60931 -0.09214
 N103 N 0.59728 0.64810 -0.10407
 N104 N 0.45721 0.57220 -0.18292
 N105 N 0.41593 0.57688 -0.24044
 N106 N 0.45578 0.60829 -0.10257
 N107 N 0.41396 0.63795 -0.10305
 N108 N 0.56270 0.57073 -0.16835
 N109 N 0.60136 0.58016 -0.23108
 C110 C 0.62270 0.62784 -0.19007
 C111 C 0.39024 0.61964 -0.19130
 N112 N 0.45850 0.40121 -0.14249
 N113 N 0.42334 0.36443 -0.17348
 N114 N 0.56414 0.44789 -0.19150
 N115 N 0.59964 0.44141 -0.26394
 N116 N 0.56286 0.40300 -0.12490
 N117 N 0.59674 0.36424 -0.15151
 N118 N 0.45927 0.44780 -0.20474
 N119 N 0.42461 0.44484 -0.27869
 Mn120 Mn 0.51071 0.50986 -0.18780
 C121 C 0.40274 0.39292 -0.25789
 C122 C 0.61997 0.38960 -0.23693
 N123 N 0.44816 0.59411 0.12590
 N124 N 0.41148 0.63022 0.14809
 N125 N 0.55023 0.55160 0.20637
 N126 N 0.58126 0.55997 0.28699
 N127 N 0.55241 0.59632 0.13930
 N128 N 0.58383 0.63665 0.17320
 N129 N 0.44518 0.54746 0.18795
 N130 N 0.40630 0.54972 0.25232
 Mn131 Mn 0.50443 0.60271 0.01754
 C132 C 0.38554 0.60100 0.22582
 C133 C 0.60181 0.61304 0.26458
 N134 N 0.55415 0.38885 0.10656
 N135 N 0.58873 0.34963 0.12850
 N136 N 0.44583 0.42263 0.16682
 N137 N 0.40196 0.41459 0.21497
 N138 N 0.44985 0.38732 0.08554
 N139 N 0.40915 0.35522 0.07528
 N140 N 0.55111 0.42666 0.18413
 N141 N 0.58398 0.41556 0.25924
 Mn142 Mn 0.50657 0.39443 -0.01867
 Mn143 Mn 0.49805 0.48696 0.18752
 Cl144 Cl 0.50511 0.49843 -0.00012
 C145 C 0.60687 0.36773 0.22364
 C146 C 0.38028 0.37132 0.15795
 N147 N 0.30907 0.33593 0.24851
 N148 N 0.32882 0.35448 0.16539
 N149 N -0.18954 0.83460 0.26431
 N150 N -0.17213 0.85283 0.17867
 N151 N 0.64491 0.69598 0.32922
 N152 N 0.63830 0.64085 0.33039
 N153 N 0.13052 1.20040 0.37212
 N154 N 0.08950 1.17698 0.35843
 N155 N 0.66449 0.30709 -0.29296
 N156 N 0.65610 0.36139 -0.30233
 N157 N 0.15674 0.78993 -0.27500
 N158 N 0.16092 0.84412 -0.25751
 N159 N 0.31913 0.65214 -0.28239
 N160 N 0.33794 0.62805 -0.20388
 N161 N -0.14357 1.18696 -0.31090
 N162 N -0.12867 1.13476 -0.31508
 N163 N 0.66297 0.71296 -0.25736
 N164 N 0.66080 0.65798 -0.24818
 N165 N 0.17005 1.21155 -0.26175
 N166 N 0.16727 1.15641 -0.25597
 N167 N 0.35504 0.31674 -0.32949
 N168 N 0.36323 0.37093 -0.32112
 N169 N -0.14384 0.81863 -0.31062
 N170 N -0.13075 0.87181 -0.31237
 N171 N 0.33870 0.67893 0.29152
 N172 N 0.34597 0.62455 0.28695
 N173 N -0.18731 1.16150 0.26319
 N174 N -0.17176 1.14225 0.17807
 N175 N 0.64793 0.28579 0.29851
 N176 N 0.64545 0.34048 0.28301
 N177 N 0.15029 0.80446 0.31011
 N178 N 0.13736 0.85689 0.32486
   
