data_POSCAR
  _audit_creation_date              2014-09-24
  _audit_creation_method            'ToBaCCo'
  _symmetry_space_group_name_H-M    'P1'
  _symmetry_Int_Tables_number       1
  _symmetry_cell_setting            triclinic
  loop_
  _symmetry_equiv_pos_as_xyz
 x,y,z
_cell_length_a 30.8698
_cell_length_b 30.7440
_cell_length_c 30.7009
_cell_angle_alpha 89.914500
_cell_angle_beta 90.126300
_cell_angle_gamma 89.757400
loop_
  _atom_site_label
  _atom_site_type_symbol
  _atom_site_fract_x
  _atom_site_fract_y
  _atom_site_fract_z
C1 C 0.20014 0.14491 0.20153
 C2 C 0.18054 0.12811 0.23908
 C3 C 0.14318 0.14777 0.25645
 C4 C 0.12649 0.18569 0.23687
 C5 C 0.14595 0.20308 0.19947
 C6 C 0.18277 0.18249 0.18155
 C7 C 0.23643 0.12432 0.18325
 C8 C 0.25560 0.14080 0.14518
 C9 C 0.23864 0.17871 0.12591
 C10 C 0.20210 0.19937 0.14353
 C11 C 0.18419 0.23626 0.12337
 C12 C 0.14733 0.25655 0.14082
 C13 C 0.12876 0.24028 0.17918
 H14 H 0.19407 0.09931 0.25443
 H15 H 0.09817 0.20154 0.25047
 H16 H 0.24959 0.09552 0.19882
 H17 H 0.25357 0.19178 0.09677
 H18 H 0.19892 0.24900 0.09406
 H19 H 0.10038 0.25615 0.19268
 C20 C -0.19875 0.85509 0.20531
 C21 C -0.17780 0.87310 0.24157
 C22 C -0.13942 0.85445 0.25791
 C23 C -0.12272 0.81657 0.23845
 C24 C -0.14365 0.79783 0.20252
 C25 C -0.18171 0.81724 0.18574
 C26 C -0.23605 0.87475 0.18787
 C27 C -0.25657 0.85704 0.15106
 C28 C -0.24014 0.81864 0.13249
 C29 C -0.20258 0.79895 0.14921
 C30 C -0.18507 0.76175 0.12947
 C31 C -0.14699 0.74262 0.14579
 C32 C -0.12678 0.76039 0.18263
 H33 H -0.19098 0.90212 0.25672
 H34 H -0.09352 0.80151 0.25112
 H35 H -0.24884 0.90391 0.20296
 H36 H -0.25614 0.80456 0.10438
 H37 H -0.20099 0.74796 0.10127
 H38 H -0.09742 0.74545 0.19522
 C39 C -0.20372 0.14094 -0.19810
 C40 C -0.18466 0.12156 -0.23475
 C41 C -0.14787 0.14002 -0.25402
 C42 C -0.13058 0.17857 -0.23705
 C43 C -0.14889 0.19801 -0.20014
 C44 C -0.18564 0.17920 -0.18054
 C45 C -0.24015 0.12236 -0.17838
 C46 C -0.25836 0.14107 -0.14085
 C47 C -0.24058 0.17955 -0.12387
 C48 C -0.20418 0.19857 -0.14328
 C49 C -0.18551 0.23621 -0.12564
 C50 C -0.14828 0.25429 -0.14445
 C51 C -0.13057 0.23550 -0.18206
 H52 H -0.19838 0.09209 -0.24818
 H53 H -0.10240 0.19300 -0.25223
 H54 H -0.25409 0.09310 -0.19209
 H55 H -0.25485 0.19462 -0.09539
 H56 H -0.19944 0.25106 -0.09687
 H57 H -0.10229 0.24981 -0.19709
 C58 C 0.20605 0.85371 -0.20286
 C59 C 0.18911 0.87341 -0.24048
 C60 C 0.15040 0.85828 -0.25917
 C61 C 0.12865 0.82314 -0.23989
 C62 C 0.14555 0.80268 -0.20270
 C63 C 0.18432 0.81809 -0.18395
 C64 C 0.24392 0.86955 -0.18332
 C65 C 0.25984 0.85081 -0.14476
 C66 C 0.23879 0.81469 -0.12665
 C67 C 0.20117 0.79811 -0.14608
 C68 C 0.17974 0.76231 -0.12791
 C69 C 0.14114 0.74697 -0.14644
 C70 C 0.12417 0.76724 -0.18377
 H71 H 0.20571 0.90103 -0.25453
 H72 H 0.09850 0.81171 -0.25391
 H73 H 0.26049 0.89720 -0.19744
 H74 H 0.25138 0.79968 -0.09729
 H75 H 0.19285 0.74654 -0.09913
 H76 H 0.09457 0.75521 -0.19835
 C77 C 0.14658 1.20153 0.79842
 C78 C 0.12894 1.18179 0.76124
 C79 C 0.14619 1.14254 0.74526
 C80 C 0.18233 1.12375 0.76611
 C81 C 0.20068 1.14340 0.80296
 C82 C 0.18263 1.18231 0.81935
 C83 C 0.12841 1.23986 0.81536
 C84 C 0.14575 1.25915 0.85305
 C85 C 0.18160 1.23976 0.87374
 C86 C 0.20046 1.20181 0.85688
 C87 C 0.23673 1.18293 0.87710
 C88 C 0.25525 1.14468 0.86043
 C89 C 0.23674 1.12472 0.82381
 H90 H 0.10136 1.19668 0.74503
 H91 H 0.19648 1.09398 0.75366
 H92 H 0.10026 1.25406 0.79962
 H93 H 0.19476 1.25413 0.90315
 H94 H 0.25036 1.19791 0.90592
 H95 H 0.25071 1.09479 0.81140
 C96 C 0.85507 0.80118 0.79532
 C97 C 0.87255 0.82072 0.75803
 C98 C 0.85537 0.85999 0.74190
 C99 C 0.81904 0.87867 0.76226
 C100 C 0.80088 0.85924 0.79928
 C101 C 0.81932 0.82068 0.81628
 C102 C 0.87319 0.76283 0.81238
 C103 C 0.85627 0.74391 0.85040
 C104 C 0.82099 0.76381 0.87141
 C105 C 0.80214 0.80177 0.85438
 C106 C 0.76651 0.82126 0.87495
 C107 C 0.74775 0.85930 0.85782
 C108 C 0.76485 0.87798 0.81989
 H109 H 0.90014 0.80582 0.74201
 H110 H 0.80487 0.90838 0.74954
 H111 H 0.90099 0.74834 0.79645
 H112 H 0.80822 0.74970 0.90111
 H113 H 0.75314 0.80651 0.90399
 H114 H 0.75026 0.90732 0.80669
 C115 C 0.13943 0.80096 1.19636
 C116 C 0.12133 0.82127 1.23300
 C117 C 0.14168 0.85730 1.25204
 C118 C 0.17977 0.87383 1.23360
 C119 C 0.19802 0.85419 1.19674
 C120 C 0.17797 0.81745 1.17814
 C121 C 0.11976 0.76435 1.17777
 C122 C 0.13829 0.74378 1.14139
 C123 C 0.17616 0.76096 1.12282
 C124 C 0.19629 0.79743 1.14113
 C125 C 0.23445 0.81423 1.12306
 C126 C 0.25452 0.85065 1.14163
 C127 C 0.23598 0.87072 1.17815
 H128 H 0.09164 0.80886 1.24702
 H129 H 0.19512 0.90212 1.24772
 H130 H 0.09002 0.75195 1.19167
 H131 H 0.19008 0.74589 1.09416
 H132 H 0.24837 0.79917 1.09440
 H133 H 0.25110 0.89929 1.19204
 C134 C 0.85571 1.20200 1.19916
 C135 C 0.87509 1.18547 1.23715
 C136 C 0.85747 1.14912 1.25845
 C137 C 0.82023 1.12924 1.24134
 C138 C 0.80018 1.14574 1.20378
 C139 C 0.81816 1.18203 1.18232
 C140 C 0.87340 1.23796 1.17749
 C141 C 0.85440 1.25381 1.13902
 C142 C 0.81714 1.23379 1.12231
 C143 C 0.79879 1.19810 1.14381
 C144 C 0.76142 1.17813 1.12740
 C145 C 0.74289 1.14273 1.14928
 C146 C 0.76258 1.12638 1.18716
 H147 H 0.90426 1.20052 1.24961
 H148 H 0.80687 1.10079 1.25724
 H149 H 0.90216 1.25357 1.19032
 H150 H 0.80221 1.24605 1.09279
 H151 H 0.74661 1.19016 1.09766
 H152 H 0.74888 1.09839 1.20349
 O153 O 0.56371 0.92467 0.92386
 O154 O 0.60957 0.96388 0.96760
 C155 C 0.60204 0.93634 0.93675
 O156 O 0.43876 1.07768 0.92861
 O157 O 0.39172 1.03427 0.96669
 C158 C 0.40011 1.06512 0.93930
 O159 O 0.56096 1.07503 0.92586
 O160 O 0.60826 1.03551 0.96820
 C161 C 0.59971 1.06373 0.93809
 O162 O 0.44162 0.91903 0.92558
 O163 O 0.39318 0.95970 0.96518
 C164 C 0.40256 0.93012 0.93677
 Zr165 Zr 0.50198 0.94335 0.94813
 O166 O 0.49824 0.94312 0.87929
 O167 O 0.50807 0.87471 0.94880
 Zr168 Zr 0.49994 1.05356 0.94937
 O169 O 0.49576 1.05421 0.88052
 O170 O 0.50372 1.12229 0.95020
 O171 O 0.53956 0.99913 0.94084
 O172 O 0.46357 0.99805 0.94023
 O173 O 0.43993 0.91612 1.07757
 O174 O 0.39234 0.95783 1.03766
 C175 C 0.40113 0.92753 1.06562
 O176 O 0.55858 1.07333 1.08533
 O177 O 0.60711 1.03500 1.04359
 C178 C 0.59764 1.06263 1.07385
 O179 O 0.43663 1.07540 1.07929
 O180 O 0.39074 1.03231 1.03942
 C181 C 0.39830 1.06256 1.06764
 O182 O 0.56179 0.92163 1.08317
 O183 O 0.60864 0.96336 1.04307
 C184 C 0.60038 0.93440 1.07245
 Zr185 Zr 0.50065 0.94191 1.05830
 O186 O 0.49513 0.94136 1.12703
 O187 O 0.50667 0.87329 1.05763
 Zr188 Zr 0.49840 1.05222 1.05946
 O189 O 0.49266 1.05162 1.12816
 O190 O 0.50197 1.12099 1.05965
 Zr191 Zr 0.56443 0.99874 1.00488
 Zr192 Zr 0.43602 0.99673 1.00289
 O193 O 0.46199 0.99634 1.06633
 O194 O 0.53790 0.99756 1.06807
 O195 O 0.46285 0.93354 1.00251
 O196 O 0.53664 1.06136 1.00509
 O197 O 0.53908 0.93532 1.00368
 O198 O 0.46035 1.06073 1.00392
 H199 H 0.44433 0.99830 0.91435
 H200 H 0.55586 1.08709 1.00560
 H201 H 0.44208 0.99562 1.09159
 H202 H 0.55931 0.91021 1.00365
 H203 H 0.47934 1.13316 0.96802
 H204 H 0.47717 1.13217 1.04246
 H205 H 0.51642 1.03324 1.13972
 H206 H 0.51933 0.95872 1.13888
 H207 H 0.48353 0.86192 1.03851
 H208 H 0.48225 0.86288 0.96362
 H209 H 0.52075 0.96316 0.86840
 H210 H 0.52066 1.03733 0.86923
 O211 O -0.07946 0.43717 0.07181
 O212 O -0.03743 0.39061 0.03125
 C213 C -0.06742 0.39856 0.05956
 O214 O -0.07837 0.56087 -0.08315
 O215 O -0.04078 0.60863 -0.03995
 C216 C -0.06800 0.59983 -0.07078
 O217 O -0.08095 0.43832 -0.07888
 O218 O -0.03755 0.39128 -0.04014
 C219 C -0.06829 0.39955 -0.06766
 O220 O -0.07772 0.55989 0.07674
 O221 O -0.04035 0.60812 0.03392
 C222 C -0.06761 0.59900 0.06451
 Zr223 Zr -0.05644 0.49904 0.05176
 O224 O -0.12493 0.50293 0.05206
 O225 O -0.05575 0.49355 0.12052
 Zr226 Zr -0.05719 0.49981 -0.05857
 O227 O -0.12566 0.50401 -0.05812
 O228 O -0.05762 0.49511 -0.12735
 O229 O -0.06450 0.46064 -0.00361
 O230 O -0.06543 0.53695 -0.00319
 O231 O 0.07241 0.56180 0.07621
 O232 O 0.03204 0.60915 0.03459
 C233 C 0.06035 0.60063 0.06459
 O234 O 0.07767 0.44086 -0.08043
 O235 O 0.03760 0.39239 -0.04042
 C236 C 0.06693 0.40170 -0.06897
 O237 O 0.07255 0.56335 -0.08224
 O238 O 0.03219 0.60981 -0.03998
 C239 C 0.06046 0.60195 -0.07000
 O240 O 0.07798 0.43939 0.07216
 O241 O 0.03700 0.39174 0.03211
 C242 C 0.06689 0.40046 0.06033
 Zr243 Zr 0.05294 0.50050 0.05147
 O244 O 0.12129 0.50600 0.05109
 O245 O 0.05321 0.49533 0.12024
 Zr246 Zr 0.05244 0.50148 -0.05909
 O247 O 0.12078 0.50672 -0.05995
 O248 O 0.05097 0.49765 -0.12794
 Zr249 Zr -0.00072 0.43576 -0.00415
 Zr250 Zr -0.00319 0.56471 -0.00331
 O251 O 0.05997 0.53866 -0.00354
 O252 O 0.06203 0.46244 -0.00410
 O253 O -0.00240 0.53857 0.06026
 O254 O -0.00172 0.46297 -0.06705
 O255 O -0.00105 0.46194 0.05919
 O256 O -0.00311 0.53952 -0.06714
 H257 H -0.09125 0.55620 -0.00306
 H258 H -0.00162 0.44333 -0.09262
 H259 H 0.08512 0.55858 -0.00330
 H260 H -0.00073 0.44206 0.08462
 H261 H -0.03929 0.51885 -0.13872
 H262 H 0.03498 0.52342 -0.13886
 H263 H 0.13248 0.48347 -0.04093
 H264 H 0.13287 0.48145 0.03381
 H265 H 0.03521 0.51937 0.13175
 H266 H -0.03880 0.51825 0.13203
 H267 H -0.13594 0.47850 0.03434
 H268 H -0.13649 0.47968 -0.04013
 O269 O 1.08323 -0.07291 0.55969
 O270 O 1.04091 -0.03498 0.60805
 C271 C 1.07152 -0.06232 0.59883
 O272 O 1.07639 0.08285 0.43896
 O273 O 1.03642 0.04162 0.39137
 C274 C 1.06449 0.07153 0.39998
 O275 O 1.08022 0.07833 0.56200
 O276 O 1.03920 0.03764 0.60909
 C277 C 1.06877 0.06616 0.60086
 O278 O 1.07800 -0.07550 0.43730
 O279 O 1.03711 -0.03390 0.39041
 C280 C 1.06574 -0.06368 0.39857
 Zr281 Zr 1.05751 -0.05228 0.49898
 O282 O 1.12586 -0.05235 0.49365
 O283 O 1.05748 -0.12104 0.50317
 Zr284 Zr 1.05632 0.05785 0.50030
 O285 O 1.12474 0.05792 0.49546
 O286 O 1.05546 0.12651 0.50554
 O287 O 1.06572 0.00234 0.53840
 O288 O 1.06447 0.00331 0.46182
 O289 O 0.92707 -0.07681 0.43814
 O290 O 0.96618 -0.03449 0.39082
 C291 C 0.93857 -0.06489 0.39927
 O292 O 0.92264 0.07646 0.56267
 O293 O 0.96483 0.03604 0.60946
 C294 C 0.93447 0.06406 0.60138
 O295 O 0.92609 0.08277 0.44013
 O296 O 0.96480 0.04108 0.39178
 C297 C 0.93706 0.07135 0.40098
 O298 O 0.92422 -0.07468 0.56088
 O299 O 0.96567 -0.03505 0.60857
 C300 C 0.93582 -0.06317 0.59987
 Zr301 Zr 0.94774 -0.05305 0.49963
 O302 O 0.87927 -0.05296 0.49528
 O303 O 0.94846 -0.12180 0.50352
 Zr304 Zr 0.94663 0.05697 0.50090
 O305 O 0.87821 0.05580 0.49615
 O306 O 0.94527 0.12555 0.50678
 Zr307 Zr 1.00261 0.00141 0.56449
 Zr308 Zr 1.00151 0.00313 0.43536
 O309 O 0.93898 0.00241 0.46246
 O310 O 0.93909 0.00139 0.53907
 O311 O 1.00242 -0.06071 0.46050
 O312 O 1.00164 0.06478 0.53842
 O313 O 1.00305 -0.06119 0.53697
 O314 O 1.00109 0.06637 0.46191
 H315 H 1.08969 0.00368 0.44191
 H316 H 1.00129 0.09005 0.55841
 H317 H 0.91356 0.00254 0.44269
 H318 H 1.00353 -0.08683 0.55657
 H319 H 1.03814 0.13797 0.48090
 H320 H 0.96422 0.13747 0.48380
 H321 H 0.86726 0.03858 0.52101
 H322 H 0.86806 -0.03602 0.52022
 H323 H 0.96652 -0.13266 0.47925
 H324 H 1.04085 -0.13214 0.47798
 H325 H 1.13719 -0.03297 0.51664
 H326 H 1.13631 0.04137 0.52061
 C327 C 1.13349 0.08858 0.35048
 C328 C 1.12073 0.07968 0.30254
 C329 C 1.12230 0.12895 0.29336
 C330 C 1.13527 0.13806 0.34088
 C331 C 1.07392 0.13355 0.30488
 C332 C 1.07231 0.08416 0.31445
 C333 C 1.08529 0.09328 0.36198
 C334 C 1.08663 0.14241 0.35292
 H335 H 1.15776 0.06986 0.36966
 H336 H 1.13442 0.05349 0.28178
 H337 H 1.16139 0.16042 0.35145
 H338 H 1.04893 0.15170 0.28611
 H339 H 1.04623 0.06181 0.30373
 H340 H 1.07236 0.16795 0.37407
 C341 C 0.87206 -0.07802 0.34514
 C342 C 0.88934 -0.07641 0.29786
 C343 C 0.88198 -0.12580 0.29399
 C344 C 0.86450 -0.12759 0.34084
 C345 C 0.92839 -0.13499 0.31032
 C346 C 0.93582 -0.08539 0.31463
 C347 C 0.91827 -0.08727 0.36143
 C348 C 0.91112 -0.13654 0.35764
 H349 H 0.84918 -0.05431 0.35985
 H350 H 0.88044 -0.05162 0.27304
 H351 H 0.83498 -0.14518 0.35137
 H352 H 0.95236 -0.15804 0.29636
 H353 H 0.96538 -0.06783 0.30414
 H354 H 0.92028 -0.16100 0.38268
 C355 C 0.91921 0.06909 0.68690
 C356 C 0.92282 0.11730 0.70058
 C357 C 0.87343 0.11873 0.70754
 C358 C 0.86964 0.07060 0.69425
 C359 C 0.86632 0.13330 0.66010
 C360 C 0.91591 0.13169 0.65273
 C361 C 0.91203 0.08371 0.63950
 C362 C 0.86276 0.08494 0.64633
 H363 H 0.94127 0.04258 0.69773
 H364 H 0.94765 0.13051 0.72312
 H365 H 0.85084 0.04508 0.71135
 H366 H 0.84431 0.15992 0.64943
 H367 H 0.93522 0.15656 0.63524
 H368 H 0.83834 0.07141 0.62354
 C369 C 1.13452 -0.11281 0.63322
 C370 C 1.15428 -0.08840 0.67264
 C371 C 1.13206 -0.12092 0.70354
 C372 C 1.11265 -0.14556 0.66451
 C373 C 1.09164 -0.09162 0.70626
 C374 C 1.11357 -0.05888 0.67496
 C375 C 1.09416 -0.08355 0.63611
 C376 C 1.07200 -0.11598 0.66689
 H377 H 1.15195 -0.12134 0.60280
 H378 H 1.18822 -0.07676 0.67425
 H379 H 1.11245 -0.18142 0.66031
 H380 H 1.07412 -0.08299 0.73660
 H381 H 1.11370 -0.02301 0.67875
 H382 H 1.03790 -0.12703 0.66408
 C383 C 0.34357 1.12962 1.07885
 C384 C 0.29672 1.11186 1.07659
 C385 C 0.29203 1.11963 1.12593
 C386 C 0.33840 1.13762 1.12837
 C387 C 0.30861 1.07325 1.13567
 C388 C 0.31373 1.06541 1.08615
 C389 C 0.36007 1.08343 1.08869
 C390 C 0.35542 1.09102 1.13790
 H391 H 0.35833 1.15249 1.05519
 H392 H 0.27228 1.12038 1.05137
 H393 H 0.34828 1.16749 1.14599
 H394 H 0.29464 1.04921 1.15863
 H395 H 0.30386 1.03551 1.06854
 H396 H 0.38003 1.08228 1.16287
 C397 C 0.35126 0.91608 0.86779
 C398 C 0.34544 0.86643 0.86174
 C399 C 0.29835 0.87065 0.87755
 C400 C 0.30376 0.92009 0.88337
 C401 C 0.31267 0.86270 0.92502
 C402 C 0.36022 0.85869 0.90948
 C403 C 0.36547 0.90802 0.91511
 C404 C 0.31839 0.91231 0.93090
 H405 H 0.36751 0.93833 0.84454
 H406 H 0.35620 0.84730 0.83307
 H407 H 0.28027 0.94540 0.87265
 H408 H 0.29700 0.84102 0.94917
 H409 H 0.38391 0.83369 0.92044
 H410 H 0.30741 0.93144 0.95950
 C411 C 0.68501 0.93027 1.08958
 C412 C 0.69167 0.92519 1.13932
 C413 C 0.70661 0.87786 1.13197
 C414 C 0.70034 0.88292 1.08241
 C415 C 0.65987 0.86145 1.13696
 C416 C 0.64443 0.90902 1.14407
 C417 C 0.63828 0.91387 1.09464
 C418 C 0.65316 0.86673 1.08721
 H419 H 0.69518 0.95871 1.06982
 H420 H 0.70721 0.95001 1.16032
 H421 H 0.72351 0.87232 1.05689
 H422 H 0.64984 0.83294 1.15668
 H423 H 0.62097 0.91996 1.16915
 H424 H 0.63692 0.84295 1.06551
 C425 C 0.68478 1.07521 0.92920
 C426 C 0.69641 1.07186 0.88036
 C427 C 0.70534 1.12116 0.87968
 C428 C 0.69412 1.12459 0.92845
 C429 C 0.65799 1.13066 0.86704
 C430 C 0.64859 1.08116 0.86795
 C431 C 0.63743 1.08476 0.91654
 C432 C 0.64630 1.13388 0.91604
 H433 H 0.69562 1.05220 0.95495
 H434 H 0.71709 1.04598 0.86601
 H435 H 0.71283 1.14207 0.95384
 H436 H 0.64727 1.15370 0.84127
 H437 H 0.62943 1.06305 0.84335
 H438 H 0.62525 1.15912 0.93095
 C439 C 0.08715 0.31598 0.06378
 C440 C 0.13645 0.31119 0.07181
 C441 C 0.12702 0.29509 0.11839
 C442 C 0.07792 0.29953 0.11044
 C443 C 0.12899 0.34192 0.13586
 C444 C 0.13821 0.35847 0.08904
 C445 C 0.08921 0.36277 0.08128
 C446 C 0.07969 0.34677 0.12770
 H447 H 0.06977 0.30556 0.03388
 H448 H 0.15952 0.29679 0.04815
 H449 H 0.05312 0.27502 0.11929
 H450 H 0.14644 0.35225 0.16572
 H451 H 0.16276 0.38316 0.08003
 H452 H 0.05607 0.36181 0.15042
 C453 C -0.07603 0.31410 -0.08001
 C454 C -0.12412 0.30138 -0.07455
 C455 C -0.12703 0.29314 -0.12395
 C456 C -0.07903 0.30551 -0.12951
 C457 C -0.14106 0.34056 -0.13192
 C458 C -0.13791 0.34928 -0.08230
 C459 C -0.09006 0.36150 -0.08806
 C460 C -0.09284 0.35334 -0.13732
 H461 H -0.04904 0.30339 -0.05850
 H462 H -0.13690 0.27980 -0.04859
 H463 H -0.05424 0.28757 -0.14858
 H464 H -0.16804 0.35108 -0.15352
 H465 H -0.16185 0.36773 -0.06262
 H466 H -0.07974 0.37514 -0.16292
 C467 C 0.12910 0.65240 -0.08476
 C468 C 0.13252 0.66117 -0.13429
 C469 C 0.11856 0.70862 -0.12650
 C470 C 0.11534 0.70026 -0.07714
 C471 C 0.07059 0.69639 -0.13261
 C472 C 0.08431 0.64849 -0.14021
 C473 C 0.08127 0.64024 -0.09097
 C474 C 0.06726 0.68765 -0.08307
 H475 H 0.15290 0.63388 -0.06483
 H476 H 0.15961 0.65064 -0.15558
 H477 H 0.12804 0.72179 -0.05111
 H478 H 0.04607 0.71451 -0.15203
 H479 H 0.07133 0.62675 -0.16591
 H480 H 0.04020 0.69831 -0.06179
 C481 C -0.13764 0.63901 0.09785
 C482 C -0.12540 0.65781 0.14307
 C483 C -0.12695 0.70393 0.12359
 C484 C -0.13938 0.68556 0.07861
 C485 C -0.07850 0.70120 0.11200
 C486 C -0.07674 0.65463 0.13124
 C487 C -0.08927 0.63640 0.08642
 C488 C -0.09075 0.68251 0.06693
 H489 H -0.16172 0.61298 0.09186
 H490 H -0.13994 0.64799 0.17461
 H491 H -0.16488 0.69790 0.05621
 H492 H -0.05425 0.72711 0.11784
 H493 H -0.05073 0.64151 0.15262
 H494 H -0.07632 0.69247 0.03538
 C495 C 1.08318 0.07157 0.68636
 C496 C 1.13258 0.07428 0.69450
 C497 C 1.12697 0.12221 0.70819
 C498 C 1.07771 0.11954 0.70043
 C499 C 1.13410 0.13741 0.66097
 C500 C 1.13948 0.08924 0.64681
 C501 C 1.09037 0.08674 0.63914
 C502 C 1.08463 0.13449 0.65275
 H503 H 1.06200 0.04435 0.69667
 H504 H 1.15182 0.04874 0.71139
 H505 H 1.05213 0.13185 0.72266
 H506 H 1.15526 0.16469 0.65081
 H507 H 1.16465 0.07660 0.62432
 H508 H 1.06469 0.15902 0.63518
 C509 C 0.91895 -0.06821 0.68491
 C510 C 0.86936 -0.07161 0.69119
 C511 C 0.87520 -0.11940 0.70542
 C512 C 0.92464 -0.11603 0.69953
 C513 C 0.86988 -0.13493 0.65811
 C514 C 0.86427 -0.08691 0.64341
 C515 C 0.91358 -0.08374 0.63762
 C516 C 0.91952 -0.13133 0.65176
 H517 H 0.93941 -0.04066 0.69577
 H518 H 0.84920 -0.04626 0.70709
 H519 H 0.94960 -0.12789 0.72283
 H520 H 0.84943 -0.16254 0.64737
 H521 H 0.83972 -0.07473 0.61985
 H522 H 0.94043 -0.15561 0.63516
 C523 C 1.12556 -0.11617 0.36224
 C524 C 1.10218 -0.14691 0.33005
 C525 C 1.12230 -0.12177 0.29171
 C526 C 1.14592 -0.09124 0.32357
 C527 C 1.08302 -0.09084 0.29008
 C528 C 1.06268 -0.11569 0.32880
 C529 C 1.08637 -0.08525 0.36046
 C530 C 1.10645 -0.06009 0.32227
 H531 H 1.14287 -0.12645 0.39229
 H532 H 1.10060 -0.18286 0.33306
 H533 H 1.18032 -0.08103 0.32198
 H534 H 1.06568 -0.08055 0.26005
 H535 H 1.02826 -0.12558 0.33152
 H536 H 1.10794 -0.02411 0.31954
 C537 C 0.94009 0.11399 0.32500
 C538 C 0.90826 0.09119 0.29342
 C539 C 0.87805 0.13101 0.29597
 C540 C 0.90964 0.15411 0.32715
 C541 C 0.85374 0.11087 0.33481
 C542 C 0.88422 0.07082 0.33257
 C543 C 0.91574 0.09383 0.36364
 C544 C 0.88557 0.13361 0.36637
 H545 H 0.97583 0.11502 0.32148
 H546 H 0.91749 0.07385 0.26311
 H547 H 0.92017 0.18854 0.32540
 H548 H 0.81804 0.10975 0.33895
 H549 H 0.87406 0.03631 0.33522
 H550 H 0.87645 0.15086 0.39675
 C551 C 0.11858 0.33159 -0.06717
 C552 C 0.09419 0.29402 -0.08991
 C553 C 0.12600 0.29679 -0.12831
 C554 C 0.15071 0.33400 -0.10579
 C555 C 0.09637 0.32979 -0.15184
 C556 C 0.06433 0.32737 -0.11320
 C557 C 0.08902 0.36443 -0.09069
 C558 C 0.12081 0.36737 -0.12902
 H559 H 0.12750 0.33281 -0.03214
 H560 H 0.08328 0.26356 -0.07394
 H561 H 0.18645 0.33679 -0.10293
 H562 H 0.08715 0.32965 -0.18680
 H563 H 0.02854 0.32507 -0.11594
 H564 H 0.13163 0.39791 -0.14487
 C565 C -0.07563 0.34098 0.12409
 C566 C -0.12402 0.33795 0.13674
 C567 C -0.12588 0.29228 0.11639
 C568 C -0.07768 0.29492 0.10393
 C569 C -0.13920 0.31180 0.07204
 C570 C -0.13713 0.35789 0.09221
 C571 C -0.08900 0.36040 0.07992
 C572 C -0.09076 0.31481 0.05946
 H573 H -0.04921 0.35340 0.14522
 H574 H -0.13793 0.34715 0.16876
 H575 H -0.05330 0.26870 0.10885
 H576 H -0.16514 0.30018 0.04991
 H577 H -0.16134 0.38423 0.08721
 H578 H -0.07692 0.30565 0.02739
 C579 C -0.11975 0.66952 -0.07053
 C580 C -0.09448 0.70780 -0.09097
 C581 C -0.12437 0.70593 -0.13108
 C582 C -0.14992 0.66801 -0.11088
 C583 C -0.09343 0.67372 -0.15379
 C584 C -0.06334 0.67522 -0.11341
 C585 C -0.08888 0.63746 -0.09321
 C586 C -0.11873 0.63542 -0.13325
 H587 H -0.13034 0.66732 -0.03606
 H588 H -0.08455 0.73785 -0.07369
 H589 H -0.18574 0.66510 -0.11003
 H590 H -0.08240 0.67473 -0.18815
 H591 H -0.02750 0.67768 -0.11424
 H592 H -0.12856 0.60527 -0.15043
 C593 C 0.10947 0.67146 0.06199
 C594 C 0.08521 0.70889 0.08537
 C595 C 0.11837 0.70637 0.12275
 C596 C 0.14290 0.66928 0.09961
 C597 C 0.09006 0.67317 0.14719
 C598 C 0.05665 0.67528 0.10949
 C599 C 0.08121 0.63841 0.08638
 C600 C 0.11433 0.63577 0.12373
 H601 H 0.11719 0.67028 0.02670
 H602 H 0.07338 0.73926 0.06968
 H603 H 0.17853 0.66649 0.09562
 H604 H 0.08210 0.67350 0.18243
 H605 H 0.02095 0.67726 0.11328
 H606 H 0.12612 0.60535 0.13936
 C607 C 0.32411 1.10685 0.94355
 C608 C 0.32571 1.14735 0.91357
 C609 C 0.29442 1.12466 0.88178
 C610 C 0.29246 1.08441 0.91153
 C611 C 0.33287 1.10494 0.85662
 C612 C 0.36450 1.12735 0.88860
 C613 C 0.36240 1.08718 0.91833
 C614 C 0.33126 1.06446 0.88663
 H615 H 0.32101 1.10735 0.97955
 H616 H 0.32391 1.18159 0.92481
 H617 H 0.26249 1.06692 0.92083
 H618 H 0.33631 1.10430 0.82064
 H619 H 0.39449 1.14484 0.87931
 H620 H 0.33400 1.03010 0.87582
 C621 C 0.32742 0.88242 1.06043
 C622 C 0.32845 0.84477 1.09400
 C623 C 0.29473 0.86935 1.12163
 C624 C 0.29333 0.90672 1.08829
 C625 C 0.33105 0.89222 1.14723
 C626 C 0.36518 0.86794 1.11936
 C627 C 0.36355 0.90527 1.08606
 C628 C 0.32993 0.92980 1.11366
 H629 H 0.32649 0.87848 1.02453
 H630 H 0.32792 0.80959 1.08599
 H631 H 0.26346 0.92255 1.07564
 H632 H 0.33257 0.89613 1.18313
 H633 H 0.39511 0.85218 1.13194
 H634 H 0.33098 0.96501 1.12155
 C635 C 0.66677 1.11331 1.07104
 C636 C 0.66532 1.14622 1.10910
 C637 C 0.70305 1.12157 1.13106
 C638 C 0.70478 1.08892 1.09321
 C639 C 0.67091 1.09247 1.15588
 C640 C 0.63277 1.11686 1.13361
 C641 C 0.63475 1.08424 1.09581
 C642 C 0.67231 1.05958 1.11776
 H643 H 0.66461 1.12162 1.03588
 H644 H 0.66260 1.18207 1.10567
 H645 H 0.73472 1.07758 1.07671
 H646 H 0.67237 1.08389 1.19098
 H647 H 0.60276 1.12812 1.15002
 H648 H 0.67463 1.02373 1.12124
 C649 C 0.65520 0.92430 0.86842
 C650 C 0.70238 0.92918 0.88495
 C651 C 0.70913 0.87982 0.87946
 C652 C 0.66242 0.87475 0.86268
 C653 C 0.69423 0.87175 0.92663
 C654 C 0.68711 0.92125 0.93223
 C655 C 0.64043 0.91607 0.91544
 C656 C 0.64712 0.86684 0.91008
 H657 H 0.63873 0.94617 0.84477
 H658 H 0.72542 0.95482 0.87465
 H659 H 0.65261 0.85534 0.83387
 H660 H 0.71012 0.85047 0.95119
 H661 H 0.69705 0.94059 0.96107
 H662 H 0.62392 0.84142 0.92057
   
