data_POSCAR
  _audit_creation_date              2014-09-24
  _audit_creation_method            'ToBaCCo'
  _symmetry_space_group_name_H-M    'P1'
  _symmetry_Int_Tables_number       1
  _symmetry_cell_setting            triclinic
  loop_
  _symmetry_equiv_pos_as_xyz
 x,y,z
_cell_length_a 25.2635
_cell_length_b 25.3019
_cell_length_c 25.2612
_cell_angle_alpha 90.080100
_cell_angle_beta 90.008800
_cell_angle_gamma 90.108300
loop_
  _atom_site_label
  _atom_site_type_symbol
  _atom_site_fract_x
  _atom_site_fract_y
  _atom_site_fract_z
Zn1 Zn 0.79530 0.70736 0.79397
 Zn2 Zn 0.79347 0.78860 0.70813
 Zn3 Zn 0.71229 0.70326 0.70975
 Zn4 Zn 0.70976 0.78786 0.79173
 O5 O 0.75274 0.74678 0.75088
 O6 O 0.86438 0.72056 0.78394
 O7 O 0.78224 0.77716 0.63896
 O8 O 0.72581 0.63466 0.72063
 O9 O 0.86266 0.77874 0.71884
 O10 O 0.78682 0.63805 0.78333
 O11 O 0.72173 0.71398 0.64065
 O12 O 0.64076 0.77500 0.78118
 O13 O 0.78116 0.85783 0.71785
 O14 O 0.64303 0.71222 0.72055
 O15 O 0.71921 0.85663 0.77976
 O16 O 0.71978 0.77829 0.86092
 O17 O 0.78276 0.71781 0.86303
 C18 C 0.88827 0.75078 0.75166
 C19 C 0.75088 0.74589 0.61524
 C20 C 0.75796 0.61179 0.75165
 C21 C 0.61714 0.74232 0.75118
 C22 C 0.74879 0.88175 0.74792
 C23 C 0.75004 0.74769 0.88653
 Zn24 Zn 0.21205 0.70137 0.71217
 Zn25 Zn 0.20990 0.78584 0.79471
 Zn26 Zn 0.29549 0.70549 0.79544
 Zn27 Zn 0.29301 0.78880 0.71113
 O28 O 0.25267 0.74538 0.75321
 O29 O 0.14218 0.71021 0.72221
 O30 O 0.21891 0.77399 0.86378
 O31 O 0.28656 0.63607 0.78548
 O32 O 0.14126 0.77505 0.78126
 O33 O 0.22592 0.63255 0.72266
 O34 O 0.28433 0.71602 0.86487
 O35 O 0.36290 0.77908 0.72036
 O36 O 0.21987 0.85503 0.78542
 O37 O 0.36419 0.71725 0.78256
 O38 O 0.28025 0.85793 0.72227
 O39 O 0.28069 0.77805 0.64192
 O40 O 0.22186 0.71304 0.64316
 C41 C 0.11729 0.74320 0.75066
 C42 C 0.25044 0.74421 0.88891
 C43 C 0.25800 0.60963 0.75377
 C44 C 0.38797 0.74765 0.75039
 C45 C 0.24852 0.88111 0.75360
 C46 C 0.25003 0.74612 0.61803
 Zn47 Zn 0.70787 0.20479 0.79365
 Zn48 Zn 0.79075 0.20459 0.70978
 Zn49 Zn 0.70915 0.29103 0.71312
 Zn50 Zn 0.79284 0.28614 0.79608
 O51 O 0.75021 0.24663 0.75301
 O52 O 0.71834 0.13587 0.78261
 O53 O 0.77806 0.21656 0.64085
 O54 O 0.63939 0.28197 0.72393
 O55 O 0.77872 0.13513 0.71938
 O56 O 0.63908 0.21543 0.78089
 O57 O 0.71807 0.28025 0.64381
 O58 O 0.78421 0.35566 0.78693
 O59 O 0.86056 0.21464 0.71933
 O60 O 0.72354 0.35973 0.72424
 O61 O 0.86160 0.27468 0.78344
 O62 O 0.78136 0.27467 0.86529
 O63 O 0.71704 0.21531 0.86299
 C64 C 0.74735 0.11086 0.75025
 C65 C 0.74661 0.24819 0.61783
 C66 C 0.61477 0.24810 0.75162
 C67 C 0.75592 0.38237 0.75539
 C68 C 0.88550 0.24517 0.75054
 C69 C 0.74795 0.24538 0.88876
 Zn70 Zn 0.29071 0.20312 0.71125
 Zn71 Zn 0.20689 0.20469 0.79472
 Zn72 Zn 0.29288 0.28521 0.79640
 Zn73 Zn 0.21001 0.28843 0.71205
 O74 O 0.25015 0.24536 0.75362
 O75 O 0.27856 0.13412 0.72194
 O76 O 0.21649 0.21550 0.86383
 O77 O 0.36196 0.27161 0.78679
 O78 O 0.21656 0.13566 0.78376
 O79 O 0.35990 0.21325 0.72168
 O80 O 0.27983 0.27591 0.86554
 O81 O 0.22425 0.35712 0.72190
 O82 O 0.13793 0.21729 0.78365
 O83 O 0.28516 0.35439 0.78472
 O84 O 0.14077 0.27994 0.72304
 O85 O 0.21896 0.27649 0.64309
 O86 O 0.27918 0.21327 0.64200
 C87 C 0.24638 0.11033 0.75231
 C88 C 0.24674 0.24649 0.88923
 C89 C 0.38566 0.24124 0.75451
 C90 C 0.25667 0.38028 0.75257
 C91 C 0.11460 0.24997 0.75357
 C92 C 0.24775 0.24406 0.61800
 Zn93 Zn 0.71258 0.70538 0.20968
 Zn94 Zn 0.79483 0.78974 0.20842
 Zn95 Zn 0.71203 0.78866 0.29280
 Zn96 Zn 0.79683 0.70653 0.29261
 O97 O 0.75413 0.74758 0.25093
 O98 O 0.72144 0.71691 0.14069
 O99 O 0.78351 0.85908 0.21936
 O100 O 0.64256 0.77688 0.28294
 O101 O 0.78266 0.77944 0.13922
 O102 O 0.64379 0.71502 0.22133
 O103 O 0.72234 0.85769 0.28202
 O104 O 0.78458 0.71556 0.36210
 O105 O 0.86400 0.77898 0.21830
 O106 O 0.72262 0.77729 0.36155
 O107 O 0.86588 0.71979 0.28247
 O108 O 0.78805 0.63718 0.28019
 O109 O 0.72456 0.63650 0.21971
 C110 C 0.75066 0.74886 0.11542
 C111 C 0.75186 0.88297 0.25020
 C112 C 0.61846 0.74472 0.25276
 C113 C 0.75237 0.74551 0.38633
 C114 C 0.88970 0.75042 0.25053
 C115 C 0.75708 0.61238 0.24927
 Zn116 Zn 0.29456 0.78749 0.21081
 Zn117 Zn 0.21372 0.70001 0.21253
 Zn118 Zn 0.29665 0.70530 0.29628
 Zn119 Zn 0.21098 0.78555 0.29390
 O120 O 0.25405 0.74458 0.25324
 O121 O 0.28251 0.77600 0.14167
 O122 O 0.22771 0.63139 0.22392
 O123 O 0.36543 0.71744 0.28401
 O124 O 0.22369 0.71100 0.14344
 O125 O 0.36437 0.77819 0.22074
 O126 O 0.28808 0.63566 0.28697
 O127 O 0.21937 0.77453 0.36317
 O128 O 0.14379 0.70882 0.22209
 O129 O 0.28475 0.71655 0.36549
 O130 O 0.14248 0.77462 0.28004
 O131 O 0.22104 0.85459 0.28384
 O132 O 0.28171 0.85667 0.22095
 C133 C 0.25180 0.74393 0.11804
 C134 C 0.25966 0.60884 0.25544
 C135 C 0.38934 0.74753 0.25162
 C136 C 0.25065 0.74501 0.38891
 C137 C 0.11871 0.74228 0.24981
 C138 C 0.24985 0.88025 0.25182
 Zn139 Zn 0.70859 0.29021 0.21144
 Zn140 Zn 0.79345 0.20682 0.21194
 Zn141 Zn 0.79079 0.29044 0.29599
 Zn142 Zn 0.70850 0.20627 0.29414
 O143 O 0.75038 0.24838 0.25323
 O144 O 0.71881 0.27744 0.14274
 O145 O 0.86288 0.21974 0.22320
 O146 O 0.78240 0.35961 0.28236
 O147 O 0.78171 0.21657 0.14237
 O148 O 0.72045 0.35952 0.22034
 O149 O 0.85984 0.27863 0.28782
 O150 O 0.71638 0.21840 0.36342
 O151 O 0.78293 0.13697 0.22266
 O152 O 0.77707 0.28153 0.36512
 O153 O 0.72081 0.13747 0.28425
 O154 O 0.63952 0.21501 0.28060
 O155 O 0.63914 0.27988 0.22181
 C156 C 0.74902 0.24590 0.11804
 C157 C 0.88610 0.25050 0.25568
 C158 C 0.75266 0.38401 0.25010
 C159 C 0.74518 0.25080 0.38882
 C160 C 0.75098 0.11251 0.25289
 C161 C 0.61490 0.24655 0.25038
 Zn162 Zn 0.20975 0.28829 0.21362
 Zn163 Zn 0.29083 0.20304 0.21002
 Zn164 Zn 0.29367 0.28352 0.29669
 Zn165 Zn 0.20823 0.20243 0.29430
 O166 O 0.25062 0.24434 0.25364
 O167 O 0.21744 0.27730 0.14419
 O168 O 0.36008 0.21295 0.22004
 O169 O 0.28628 0.35295 0.28608
 O170 O 0.27843 0.21480 0.14124
 O171 O 0.22468 0.35671 0.22405
 O172 O 0.36254 0.26976 0.28653
 O173 O 0.21810 0.21238 0.36353
 O174 O 0.27918 0.13370 0.21930
 O175 O 0.28096 0.27329 0.36569
 O176 O 0.21836 0.13384 0.28226
 O177 O 0.13918 0.21424 0.28387
 O178 O 0.14065 0.28031 0.22648
 C179 C 0.24640 0.24569 0.11817
 C180 C 0.38601 0.24007 0.25347
 C181 C 0.25761 0.37937 0.25455
 C182 C 0.24818 0.24336 0.38914
 C183 C 0.24772 0.10924 0.24987
 C184 C 0.11547 0.24839 0.25593
 C185 C 0.02910 0.70250 0.76331
 C186 C -0.02598 0.70528 0.76503
 C187 C -0.05286 0.75197 0.75143
 C188 C -0.02278 0.79704 0.73587
 C189 C 0.03310 0.79303 0.73163
 C190 C 0.05909 0.74608 0.74732
 C191 C 0.06145 0.83623 0.71105
 N192 N 0.03596 0.88177 0.69928
 N193 N -0.01585 0.88705 0.70700
 C194 C -0.04597 0.84661 0.72529
 H195 H 0.04850 0.66625 0.77521
 H196 H -0.04781 0.67033 0.77683
 H197 H 0.10354 0.83398 0.70369
 H198 H -0.08729 0.85447 0.73223
 C199 C 0.79205 0.02422 0.74280
 C200 C 0.79250 -0.03083 0.74190
 C201 C 0.74538 -0.05985 0.74587
 C202 C 0.69638 -0.03248 0.74837
 C203 C 0.69596 0.02368 0.75040
 C204 C 0.74454 0.05224 0.74824
 C205 C 0.64648 0.04921 0.75249
 N206 N 0.60109 0.02062 0.75235
 N207 N 0.60150 -0.03182 0.74940
 C208 C 0.64737 -0.05929 0.74689
 H209 H 0.82944 0.04514 0.74046
 H210 H 0.83022 -0.05099 0.73923
 H211 H 0.64292 0.09150 0.75327
 H212 H 0.64457 -0.10159 0.74235
 C213 C 0.79514 0.75031 0.02841
 C214 C 0.79500 0.74865 -0.02668
 C215 C 0.74735 0.74708 -0.05501
 C216 C 0.69862 0.74637 -0.02695
 C217 C 0.69875 0.74930 0.02920
 C218 C 0.74764 0.75012 0.05699
 C219 C 0.64965 0.75226 0.05550
 N220 N 0.60393 0.74908 0.02760
 N221 N 0.60385 0.74340 -0.02476
 C222 C 0.64946 0.74175 -0.05294
 H223 H 0.83279 0.75098 0.04895
 H224 H 0.83253 0.74917 -0.04744
 H225 H 0.64686 0.75777 0.09780
 H226 H 0.64655 0.73613 -0.09522
 C227 C 0.47587 0.79001 0.75964
 C228 C 0.53098 0.78792 0.76127
 C229 C 0.55829 0.74059 0.75108
 C230 C 0.52862 0.69416 0.73908
 C231 C 0.47267 0.69726 0.73485
 C232 C 0.44624 0.74500 0.74716
 C233 C 0.44473 0.65235 0.71757
 N234 N 0.47065 0.60630 0.70907
 N235 N 0.52254 0.60214 0.71695
 C236 C 0.55229 0.64416 0.73209
 H237 H 0.45617 0.82689 0.76885
 H238 H 0.55251 0.82390 0.77034
 H239 H 0.40262 0.65364 0.71014
 H240 H 0.59373 0.63727 0.73939
 C241 C 0.29124 0.02371 0.74648
 C242 C 0.29169 -0.03132 0.74704
 C243 C 0.24471 -0.06031 0.75266
 C244 C 0.19568 -0.03270 0.75570
 C245 C 0.19518 0.02350 0.75403
 C246 C 0.24371 0.05183 0.75097
 C247 C 0.14573 0.04933 0.75334
 N248 N 0.10034 0.02098 0.75631
 N249 N 0.10080 -0.03147 0.75895
 C250 C 0.14661 -0.05918 0.75827
 H251 H 0.32861 0.04458 0.74342
 H252 H 0.32939 -0.05147 0.74410
 H253 H 0.14216 0.09157 0.74907
 H254 H 0.14360 -0.10153 0.75879
 C255 C 0.29603 0.74612 0.03081
 C256 C 0.29570 0.74488 -0.02433
 C257 C 0.24798 0.74272 -0.05254
 C258 C 0.19939 0.74078 -0.02425
 C259 C 0.19970 0.74334 0.03194
 C260 C 0.24865 0.74491 0.05957
 C261 C 0.15066 0.74526 0.05846
 N262 N 0.10489 0.74139 0.03073
 N263 N 0.10470 0.73598 -0.02167
 C264 C 0.15021 0.73534 -0.05005
 H265 H 0.33373 0.74742 0.05123
 H266 H 0.33315 0.74634 -0.04519
 H267 H 0.14795 0.75046 0.10081
 H268 H 0.14721 0.72983 -0.09232
 C269 C 0.02809 0.20463 0.76301
 C270 C -0.02701 0.20267 0.76075
 C271 C -0.05622 0.24772 0.74798
 C272 C -0.02939 0.29541 0.73614
 C273 C 0.02652 0.29837 0.74095
 C274 C 0.05578 0.25187 0.75316
 C275 C 0.05058 0.34830 0.73431
 N276 N 0.02124 0.39040 0.71900
 N277 N -0.03060 0.38638 0.71064
 C278 C -0.05690 0.34041 0.71880
 H279 H 0.04931 0.16861 0.77223
 H280 H -0.04704 0.16584 0.76967
 H281 H 0.09199 0.35509 0.74204
 H282 H -0.09898 0.33925 0.71108
 C283 C 0.71353 0.46980 0.74634
 C284 C 0.71393 0.52476 0.74494
 C285 C 0.76110 0.55326 0.75132
 C286 C 0.80942 0.52526 0.75759
 C287 C 0.80892 0.46904 0.76040
 C288 C 0.76015 0.44105 0.75481
 C289 C 0.85782 0.44305 0.76673
 N290 N 0.90343 0.47114 0.76952
 N291 N 0.90396 0.52349 0.76550
 C292 C 0.85878 0.55141 0.75908
 H293 H 0.67600 0.44951 0.74163
 H294 H 0.67669 0.54528 0.73963
 H295 H 0.86104 0.40082 0.76875
 H296 H 0.86256 0.59353 0.75385
 C297 C 0.79344 0.24442 0.03080
 C298 C 0.79309 0.24569 -0.02434
 C299 C 0.74535 0.24601 -0.05263
 C300 C 0.69670 0.24566 -0.02434
 C301 C 0.69710 0.24285 0.03184
 C302 C 0.74604 0.24362 0.05955
 C303 C 0.64818 0.23847 0.05832
 N304 N 0.60229 0.24045 0.03062
 N305 N 0.60188 0.24628 -0.02171
 C306 C 0.64732 0.24918 -0.05008
 H307 H 0.83114 0.24492 0.05124
 H308 H 0.83059 0.24598 -0.04516
 H309 H 0.64569 0.23276 0.10060
 H310 H 0.64404 0.25497 -0.09226
 C311 C 0.47184 0.28652 0.76739
 C312 C 0.52693 0.28910 0.76514
 C313 C 0.55648 0.24532 0.74901
 C314 C 0.52998 0.19836 0.73376
 C315 C 0.47414 0.19455 0.73866
 C316 C 0.44452 0.23983 0.75422
 C317 C 0.45049 0.14496 0.72865
 N318 N 0.48010 0.10430 0.71016
 N319 N 0.53182 0.10942 0.70167
 C320 C 0.55774 0.15499 0.71287
 H321 H 0.45034 0.32163 0.77919
 H322 H 0.54668 0.32538 0.77669
 H323 H 0.40920 0.13729 0.73619
 H324 H 0.59969 0.15719 0.70472
 C325 C 0.21386 0.46763 0.74469
 C326 C 0.21428 0.52261 0.74534
 C327 C 0.26139 0.55094 0.75316
 C328 C 0.30978 0.52252 0.75862
 C329 C 0.30943 0.46628 0.75664
 C330 C 0.26064 0.43873 0.75122
 C331 C 0.35841 0.43962 0.75811
 N332 N 0.40405 0.46718 0.76361
 N333 N 0.40433 0.51961 0.76677
 C334 C 0.35908 0.54811 0.76403
 H335 H 0.17628 0.44742 0.73995
 H336 H 0.17702 0.54325 0.74073
 H337 H 0.36149 0.39736 0.75359
 H338 H 0.36284 0.59035 0.76531
 C339 C 0.29108 0.24506 0.03131
 C340 C 0.29123 0.24654 -0.02377
 C341 C 0.24374 0.24793 -0.05233
 C342 C 0.19488 0.24897 -0.02449
 C343 C 0.19471 0.24632 0.03168
 C344 C 0.24345 0.24530 0.05970
 C345 C 0.14546 0.24369 0.05773
 N346 N 0.09991 0.24686 0.02958
 N347 N 0.10013 0.25220 -0.02281
 C348 C 0.14590 0.25354 -0.05076
 H349 H 0.32865 0.24426 0.05200
 H350 H 0.32886 0.24579 -0.04433
 H351 H 0.14240 0.23848 0.10003
 H352 H 0.14328 0.25887 -0.09308
 C353 C 0.03042 0.70174 0.26219
 C354 C -0.02465 0.70469 0.26381
 C355 C -0.05140 0.75141 0.25005
 C356 C -0.02116 0.79630 0.23422
 C357 C 0.03470 0.79204 0.22994
 C358 C 0.06054 0.74515 0.24603
 C359 C 0.06319 0.83494 0.20895
 N360 N 0.03789 0.88051 0.19690
 N361 N -0.01386 0.88610 0.20475
 C362 C -0.04412 0.84594 0.22342
 H363 H 0.04970 0.66552 0.27436
 H364 H -0.04656 0.66985 0.27580
 H365 H 0.10525 0.83243 0.20149
 H366 H -0.08534 0.85413 0.23050
 C367 C 0.79583 0.02555 0.24656
 C368 C 0.79612 -0.02957 0.24566
 C369 C 0.74885 -0.05851 0.24876
 C370 C 0.69993 -0.03097 0.25042
 C371 C 0.69960 0.02523 0.25219
 C372 C 0.74830 0.05377 0.25100
 C373 C 0.65011 0.05083 0.25298
 N374 N 0.60468 0.02232 0.25212
 N375 N 0.60504 -0.03015 0.24963
 C376 C 0.65089 -0.05769 0.24822
 H377 H 0.83330 0.04639 0.24489
 H378 H 0.83380 -0.04987 0.24357
 H379 H 0.64653 0.09311 0.25322
 H380 H 0.64809 -0.10004 0.24401
 C381 C 0.79673 0.74513 0.47352
 C382 C 0.79629 0.74669 0.52863
 C383 C 0.74848 0.74640 0.55675
 C384 C 0.69989 0.74524 0.52846
 C385 C 0.70038 0.74247 0.47232
 C386 C 0.74937 0.74362 0.44474
 C387 C 0.65154 0.73773 0.44574
 N388 N 0.60561 0.73903 0.47342
 N389 N 0.60508 0.74450 0.52581
 C390 C 0.65048 0.74784 0.55422
 H391 H 0.83445 0.74598 0.45311
 H392 H 0.83372 0.74758 0.54957
 H393 H 0.64917 0.73233 0.40340
 H394 H 0.64717 0.75318 0.59650
 C395 C 0.47674 0.79115 0.26049
 C396 C 0.53191 0.78979 0.26236
 C397 C 0.55970 0.74254 0.25345
 C398 C 0.53064 0.69541 0.24294
 C399 C 0.47471 0.69765 0.23845
 C400 C 0.44767 0.74544 0.24915
 C401 C 0.44744 0.65186 0.22245
 N402 N 0.47399 0.60590 0.21555
 N403 N 0.52589 0.60267 0.22376
 C404 C 0.55502 0.64555 0.23763
 H405 H 0.45657 0.82805 0.26852
 H406 H 0.55309 0.82622 0.27035
 H407 H 0.40537 0.65239 0.21472
 H408 H 0.59657 0.63955 0.24525
 C409 C 0.29269 0.02273 0.24333
 C410 C 0.29311 -0.03230 0.24421
 C411 C 0.24609 -0.06122 0.25010
 C412 C 0.19706 -0.03360 0.25279
 C413 C 0.19663 0.02256 0.25084
 C414 C 0.24516 0.05082 0.24780
 C415 C 0.14723 0.04847 0.24998
 N416 N 0.10179 0.02020 0.25299
 N417 N 0.10218 -0.03225 0.25584
 C418 C 0.14797 -0.06002 0.25537
 H419 H 0.33006 0.04360 0.24027
 H420 H 0.33079 -0.05250 0.24146
 H421 H 0.14378 0.09072 0.24557
 H422 H 0.14493 -0.10236 0.25605
 C423 C 0.29510 0.74677 0.47605
 C424 C 0.29494 0.74843 0.53117
 C425 C 0.24732 0.74718 0.55954
 C426 C 0.19862 0.74524 0.53149
 C427 C 0.19881 0.74231 0.47532
 C428 C 0.24765 0.74416 0.44744
 C429 C 0.14987 0.73654 0.44913
 N430 N 0.10412 0.73718 0.47713
 N431 N 0.10384 0.74288 0.52949
 C432 C 0.14936 0.74709 0.55759
 H433 H 0.33273 0.74818 0.45551
 H434 H 0.33246 0.74996 0.55191
 H435 H 0.14725 0.73079 0.40686
 H436 H 0.14629 0.75251 0.59989
 C437 C 0.02809 0.20526 0.24787
 C438 C -0.02703 0.20624 0.24680
 C439 C -0.05503 0.25315 0.25638
 C440 C -0.02602 0.30051 0.26693
 C441 C 0.03021 0.29917 0.26843
 C442 C 0.05718 0.25129 0.25789
 C443 C 0.05777 0.34591 0.28138
 N444 N 0.03092 0.39139 0.28983
 N445 N -0.02156 0.39330 0.28638
 C446 C -0.05079 0.34974 0.27513
 H447 H 0.04826 0.16831 0.23997
 H448 H -0.04804 0.16970 0.23891
 H449 H 0.10034 0.34683 0.28543
 H450 H -0.09284 0.35474 0.27240
 C451 C 0.70937 0.47151 0.25480
 C452 C 0.71062 0.52661 0.25487
 C453 C 0.75836 0.55405 0.24779
 C454 C 0.80546 0.52529 0.23797
 C455 C 0.80387 0.46922 0.23673
 C456 C 0.75572 0.44227 0.24705
 C457 C 0.85026 0.44193 0.22292
 N458 N 0.89556 0.46897 0.21301
 N459 N 0.89739 0.52151 0.21528
 C460 C 0.85394 0.55060 0.22708
 H461 H 0.67205 0.45152 0.26181
 H462 H 0.67413 0.54805 0.26160
 H463 H 0.85049 0.39951 0.21838
 H464 H 0.85766 0.59315 0.22679
 C465 C 0.79031 0.25196 0.47553
 C466 C 0.79074 0.24982 0.53062
 C467 C 0.74339 0.24801 0.55938
 C468 C 0.69441 0.24753 0.53178
 C469 C 0.69395 0.25057 0.47562
 C470 C 0.74253 0.25183 0.44734
 C471 C 0.64459 0.25322 0.44982
 N472 N 0.59917 0.24999 0.47820
 N473 N 0.59964 0.24454 0.53058
 C474 C 0.64555 0.24304 0.55831
 H475 H 0.82777 0.25285 0.45465
 H476 H 0.82847 0.25021 0.55104
 H477 H 0.64139 0.25850 0.40753
 H478 H 0.64316 0.23773 0.60065
 C479 C 0.47219 0.28502 0.26637
 C480 C 0.52725 0.28743 0.26417
 C481 C 0.55667 0.24357 0.24802
 C482 C 0.53011 0.19668 0.23276
 C483 C 0.47424 0.19311 0.23740
 C484 C 0.44479 0.23847 0.25302
 C485 C 0.45038 0.14370 0.22709
 N486 N 0.47992 0.10289 0.20879
 N487 N 0.53174 0.10774 0.20071
 C488 C 0.55781 0.15318 0.21209
 H489 H 0.45079 0.32017 0.27823
 H490 H 0.54710 0.32365 0.27573
 H491 H 0.40896 0.13631 0.23421
 H492 H 0.59981 0.15521 0.20424
 C493 C 0.21511 0.46692 0.24735
 C494 C 0.21570 0.52189 0.24790
 C495 C 0.26290 0.55012 0.25554
 C496 C 0.31117 0.52155 0.26121
 C497 C 0.31068 0.46528 0.25922
 C498 C 0.26181 0.43786 0.25373
 C499 C 0.35960 0.43852 0.26072
 N500 N 0.40530 0.46598 0.26635
 N501 N 0.40569 0.51840 0.26962
 C502 C 0.36051 0.54701 0.26682
 H503 H 0.17746 0.44685 0.24263
 H504 H 0.17850 0.54262 0.24321
 H505 H 0.36263 0.39627 0.25613
 H506 H 0.36434 0.58923 0.26830
 C507 C 0.29273 0.24263 0.47611
 C508 C 0.29258 0.24150 0.53121
 C509 C 0.24495 0.24248 0.55956
 C510 C 0.19621 0.24356 0.53153
 C511 C 0.19639 0.24585 0.47536
 C512 C 0.24523 0.24438 0.44756
 C513 C 0.14744 0.25063 0.44905
 N514 N 0.10166 0.24980 0.47701
 N515 N 0.10140 0.24477 0.52943
 C516 C 0.14694 0.24144 0.55760
 H517 H 0.33034 0.24155 0.45554
 H518 H 0.33013 0.24063 0.55194
 H519 H 0.14484 0.25570 0.40670
 H520 H 0.14385 0.23648 0.59993
   
