data_POSCAR
  _audit_creation_date              2014-09-24
  _audit_creation_method            'ToBaCCo'
  _symmetry_space_group_name_H-M    'P1'
  _symmetry_Int_Tables_number       1
  _symmetry_cell_setting            triclinic
  loop_
  _symmetry_equiv_pos_as_xyz
 x,y,z
_cell_length_a 27.9021
_cell_length_b 27.8961
_cell_length_c 45.7084
_cell_angle_alpha 89.602500
_cell_angle_beta 90.853900
_cell_angle_gamma 89.407800
loop_
  _atom_site_label
  _atom_site_type_symbol
  _atom_site_fract_x
  _atom_site_fract_y
  _atom_site_fract_z
O1 O 0.03948 0.45174 0.97311
 O2 O 0.03793 0.54477 1.02997
 O3 O 0.03779 0.45125 1.02991
 O4 O 0.04054 0.54524 0.97305
 O5 O -0.03871 0.54665 0.97119
 O6 O -0.04146 0.45250 1.02809
 O7 O -0.04132 0.54603 1.02811
 O8 O -0.03977 0.45317 0.97130
 Cu9 Cu 0.04693 0.49818 1.00170
 Cu10 Cu -0.04831 0.49979 0.99949
 C11 C 0.00007 0.43655 0.96275
 C12 C -0.00200 0.56116 1.03859
 C13 C -0.00226 0.43575 1.03845
 C14 C 0.00141 0.56188 0.96256
 O15 O 0.45497 0.04290 0.52773
 O16 O 0.54552 0.04226 0.46983
 O17 O 0.45206 0.04176 0.47084
 O18 O 0.54837 0.04432 0.52672
 O19 O 0.55013 -0.03495 0.52790
 O20 O 0.45368 -0.03751 0.47199
 O21 O 0.54712 -0.03700 0.47102
 O22 O 0.45674 -0.03638 0.52886
 Cu23 Cu 0.50007 0.05081 0.49866
 Cu24 Cu 0.50209 -0.04445 0.50006
 C25 C 0.44045 0.00332 0.53798
 C26 C 0.56173 0.00248 0.46073
 C27 C 0.43646 0.00173 0.46207
 C28 C 0.56562 0.00514 0.53668
 C29 C 0.09110 0.00166 0.26255
 H30 H 0.09379 0.00216 0.23897
 C31 C 0.13262 0.00266 0.28001
 H32 H 0.16746 0.00378 0.26990
 C33 C 0.04249 -0.00016 0.30467
 H34 H 0.00738 -0.00059 0.31425
 C35 C 0.08305 0.00083 0.32291
 H36 H 0.07901 0.00063 0.34645
 N37 N 0.04720 -0.00053 0.27507
 C38 C -0.04572 -0.06763 0.20983
 H39 H -0.07500 -0.04190 0.20891
 C40 C -0.04710 -0.10838 0.19227
 H41 H -0.07744 -0.11408 0.17769
 C42 C 0.02976 -0.09167 0.22984
 H43 H 0.05941 -0.08536 0.24470
 C44 C 0.02979 -0.13290 0.21266
 H45 H 0.05971 -0.15790 0.21413
 Zn46 Zn -0.00751 -0.00255 0.25003
 N47 N -0.00727 -0.05958 0.22773
 C48 C -0.00541 0.04672 0.19543
 N49 N -0.00567 0.05187 0.22502
 C50 C -0.00339 0.09597 0.23751
 C51 C -0.00234 0.13723 0.22002
 C52 C -0.00436 0.08700 0.17717
 C53 C -0.07215 -0.04029 0.29013
 C54 C -0.11274 -0.04152 0.30762
 C55 C -0.13749 0.03516 0.28726
 C56 C -0.09641 0.03497 0.27015
 N57 N -0.06429 -0.00202 0.27228
 H58 H -0.00591 0.01146 0.18587
 H59 H -0.00280 0.09902 0.26110
 H60 H -0.00110 0.17223 0.23011
 H61 H -0.00459 0.08260 0.15364
 H62 H -0.04641 -0.06956 0.29106
 H63 H -0.11830 -0.07172 0.32216
 H64 H -0.16253 0.06504 0.28578
 H65 H -0.09025 0.06448 0.25532
 C66 C -0.00879 -0.14108 0.19354
 C67 C 0.12850 0.00192 0.31047
 C68 C -0.14548 -0.00325 0.30633
 C69 C -0.00312 0.13265 0.18957
 C70 C 0.00308 0.09950 0.76239
 H71 H 0.00263 0.10309 0.73880
 C72 C 0.00154 0.14039 0.77987
 H73 H 0.00006 0.17563 0.76977
 C74 C 0.00516 0.04927 0.80448
 H75 H 0.00586 0.01379 0.81404
 C76 C 0.00363 0.08916 0.82273
 H77 H 0.00366 0.08422 0.84626
 N78 N 0.00560 0.05509 0.77489
 C79 C 0.07290 -0.03666 0.70994
 H80 H 0.04738 -0.06556 0.70903
 C81 C 0.11352 -0.03807 0.69247
 H82 H 0.11932 -0.06807 0.67797
 C83 C 0.09657 0.03791 0.72983
 H84 H 0.09016 0.06722 0.74461
 C85 C 0.13766 0.03789 0.71274
 H86 H 0.16247 0.06743 0.71419
 Zn87 Zn 0.00789 0.00118 0.74991
 N88 N 0.06473 0.00138 0.72774
 C89 C -0.04194 0.00542 0.69521
 N90 N -0.04675 0.00450 0.72481
 C91 C -0.09071 0.00705 0.73727
 C92 C -0.13217 0.00901 0.71975
 C93 C -0.08246 0.00739 0.67693
 C94 C 0.04636 -0.06528 0.79023
 C95 C 0.04787 -0.10635 0.80789
 C96 C -0.02878 -0.12935 0.78738
 C97 C -0.02888 -0.08783 0.77011
 N98 N 0.00795 -0.05633 0.77225
 H99 H -0.00679 0.00468 0.68568
 H100 H -0.09348 0.00707 0.76085
 H101 H -0.16706 0.01041 0.72983
 H102 H -0.07834 0.00762 0.65339
 H103 H 0.07549 -0.04000 0.79117
 H104 H 0.07815 -0.11275 0.82255
 H105 H -0.05856 -0.15387 0.78591
 H106 H -0.05849 -0.08081 0.75519
 C107 C 0.14596 -0.00024 0.69372
 C108 C 0.00208 0.13509 0.81032
 C109 C 0.00973 -0.13844 0.80661
 C110 C -0.12795 0.00887 0.68931
 C111 C -0.00276 -0.40204 0.06033
 C112 C -0.00367 -0.37065 0.07832
 C113 C -0.00499 -0.33264 0.09943
 C114 C -0.04835 -0.30898 0.10516
 C115 C -0.04945 -0.27101 0.12497
 C116 C -0.00720 -0.25654 0.13914
 C117 C 0.03610 -0.28045 0.13358
 C118 C 0.03720 -0.31843 0.11377
 C119 C -0.00803 -0.21638 0.15872
 C120 C -0.00854 -0.18229 0.17478
 H121 H -0.08117 -0.31960 0.09414
 H122 H -0.08310 -0.25269 0.12904
 H123 H 0.06901 -0.26948 0.14436
 H124 H 0.07095 -0.33640 0.10944
 C125 C -0.00310 0.39986 0.05862
 C126 C -0.00361 0.36726 0.07606
 C127 C -0.00399 0.32747 0.09626
 C128 C -0.01279 0.28121 0.08588
 C129 C -0.01258 0.24225 0.10527
 C130 C -0.00355 0.24931 0.13514
 C131 C 0.00516 0.29558 0.14558
 C132 C 0.00495 0.33461 0.12616
 C133 C -0.00312 0.20892 0.15490
 C134 C -0.00296 0.17446 0.17097
 H135 H -0.01966 0.27527 0.06280
 H136 H -0.01935 0.20663 0.09696
 H137 H 0.01219 0.30144 0.16865
 H138 H 0.01188 0.37023 0.13442
 C139 C 0.40440 0.00335 0.56002
 C140 C 0.37356 0.00303 0.57821
 C141 C 0.33612 0.00234 0.59952
 C142 C 0.31747 0.04544 0.61033
 C143 C 0.27988 0.04476 0.63023
 C144 C 0.26079 0.00099 0.63940
 C145 C 0.27973 -0.04212 0.62880
 C146 C 0.31732 -0.04144 0.60890
 C147 C 0.22090 0.00036 0.65899
 C148 C 0.18700 -0.00003 0.67503
 H149 H 0.33165 0.07950 0.60316
 H150 H 0.26540 0.07831 0.63823
 H151 H 0.26514 -0.07616 0.63568
 H152 H 0.33138 -0.07497 0.60062
 C153 C -0.39617 0.00626 0.55799
 C154 C -0.36360 0.00736 0.57560
 C155 C -0.32420 0.00879 0.59623
 C156 C -0.28983 0.04485 0.59403
 C157 C -0.25078 0.04559 0.61355
 C158 C -0.24592 0.01027 0.63536
 C159 C -0.28046 -0.02560 0.63771
 C160 C -0.31954 -0.02634 0.61818
 C161 C -0.20486 0.01016 0.65479
 C162 C -0.17003 0.00978 0.67072
 H163 H -0.29303 0.07213 0.57711
 H164 H -0.22420 0.07341 0.61148
 H165 H -0.27698 -0.05317 0.65444
 H166 H -0.34585 -0.05445 0.62004
 C167 C 0.00261 -0.40095 0.94076
 C168 C 0.00383 -0.36930 0.92270
 C169 C 0.00545 -0.33101 0.90149
 C170 C 0.04843 -0.30676 0.89682
 C171 C 0.04972 -0.26858 0.87687
 C172 C 0.00805 -0.25449 0.86149
 C173 C -0.03485 -0.27898 0.86599
 C174 C -0.03615 -0.31717 0.88595
 C175 C 0.00898 -0.21413 0.84174
 C176 C 0.00951 -0.17987 0.82553
 H177 H 0.08077 -0.31710 0.90877
 H178 H 0.08304 -0.24980 0.87362
 H179 H -0.06732 -0.26829 0.85427
 H180 H -0.06959 -0.33560 0.88944
 C181 C 0.00047 0.39912 0.94141
 C182 C 0.00049 0.36690 0.92397
 C183 C 0.00022 0.32760 0.90374
 C184 C -0.01105 0.28149 0.91363
 C185 C -0.01111 0.24304 0.89420
 C186 C 0.00010 0.25048 0.86475
 C187 C 0.01128 0.29660 0.85480
 C188 C 0.01134 0.33512 0.87427
 C189 C 0.00061 0.21055 0.84499
 C190 C 0.00117 0.17648 0.82892
 H191 H -0.01968 0.27527 0.93637
 H192 H -0.01973 0.20752 0.90213
 H193 H 0.02007 0.30273 0.83209
 H194 H 0.02012 0.37063 0.86639
 C195 C -0.40414 0.00210 0.43989
 C196 C -0.37330 0.00146 0.42170
 C197 C -0.33584 0.00042 0.40040
 C198 C -0.31897 0.04328 0.38839
 C199 C -0.28131 0.04233 0.36852
 C200 C -0.26038 -0.00148 0.36060
 C201 C -0.27755 -0.04437 0.37242
 C202 C -0.31520 -0.04342 0.39227
 C203 C -0.22045 -0.00232 0.34104
 C204 C -0.18653 -0.00287 0.32502
 H205 H -0.33457 0.07739 0.39458
 H206 H -0.26822 0.07572 0.35959
 H207 H -0.26153 -0.07843 0.36651
 H208 H -0.32787 -0.07676 0.40150
 C209 C 0.39806 0.00087 0.44088
 C210 C 0.36525 0.00033 0.42343
 C211 C 0.32545 -0.00017 0.40305
 C212 C 0.32463 0.03063 0.37869
 C213 C 0.28526 0.03095 0.35936
 C214 C 0.24656 0.00047 0.36434
 C215 C 0.24753 -0.03050 0.38861
 C216 C 0.28687 -0.03081 0.40792
 C217 C 0.20550 0.00137 0.34491
 C218 C 0.17064 0.00183 0.32900
 H219 H 0.35423 0.05456 0.37476
 H220 H 0.28485 0.05508 0.34068
 H221 H 0.21777 -0.05416 0.39269
 H222 H 0.28707 -0.05468 0.42672
   
