data_POSCAR
  _audit_creation_date              2014-09-24
  _audit_creation_method            'ToBaCCo'
  _symmetry_space_group_name_H-M    'P1'
  _symmetry_Int_Tables_number       1
  _symmetry_cell_setting            triclinic
  loop_
  _symmetry_equiv_pos_as_xyz
 x,y,z
_cell_length_a 51.9794
_cell_length_b 52.0053
_cell_length_c 19.5731
_cell_angle_alpha 89.961000
_cell_angle_beta 89.985900
_cell_angle_gamma 120.025600
loop_
  _atom_site_label
  _atom_site_type_symbol
  _atom_site_fract_x
  _atom_site_fract_y
  _atom_site_fract_z
C1 C 0.18154 0.50320 0.49864
 C2 C 0.19643 0.50641 0.43720
 C3 C 0.22382 0.50726 0.43707
 C4 C 0.23591 0.50312 0.49832
 C5 C 0.21978 0.49899 0.55967
 C6 C 0.19329 0.49988 0.55985
 C7 C 0.26487 0.50296 0.49821
 C8 C 0.28111 0.50702 0.55942
 C9 C 0.30748 0.50590 0.55920
 C10 C 0.31896 0.50240 0.49788
 C11 C 0.30393 0.49916 0.43679
 C12 C 0.27672 0.49860 0.43689
 H13 H 0.16060 0.50315 0.49878
 H14 H 0.23535 0.51127 0.38890
 H15 H 0.22727 0.49481 0.60768
 H16 H 0.27379 0.51117 0.60766
 H17 H 0.33969 0.50210 0.49773
 H18 H 0.26513 0.49449 0.38884
 C19 C 0.49766 -0.32116 0.49998
 C20 C 0.49881 -0.30725 0.43831
 C21 C 0.49902 -0.28019 0.43806
 C22 C 0.49704 -0.26694 0.49992
 C23 C 0.49539 -0.28203 0.56175
 C24 C 0.49623 -0.30854 0.56156
 C25 C 0.49679 -0.23787 0.50003
 C26 C 0.49858 -0.22271 0.56188
 C27 C 0.49793 -0.19611 0.56161
 C28 C 0.49654 -0.18349 0.50004
 C29 C 0.49528 -0.19744 0.43851
 C30 C 0.49489 -0.22456 0.43823
 H31 H 0.49795 -0.34191 0.50005
 H32 H 0.50093 -0.26998 0.38898
 H33 H 0.49334 -0.27384 0.61081
 H34 H 0.50076 -0.23078 0.61098
 H35 H 0.49658 -0.16259 0.49998
 H36 H 0.49307 -0.23462 0.38909
 C37 C 1.32069 0.81763 0.49799
 C38 C 1.30592 0.80567 0.43664
 C39 C 1.27860 0.77905 0.43677
 C40 C 1.26641 0.76303 0.49831
 C41 C 1.28241 0.77543 0.55964
 C42 C 1.30883 0.80287 0.55940
 C43 C 1.23741 0.73386 0.49852
 C44 C 1.22131 0.72161 0.55995
 C45 C 1.19479 0.69419 0.55990
 C46 C 1.18304 0.67936 0.49850
 C47 C 1.19793 0.69125 0.43724
 C48 C 1.22525 0.71777 0.43719
 H49 H 1.34150 0.83862 0.49809
 H50 H 1.26719 0.77142 0.38855
 H51 H 1.27493 0.76419 0.60810
 H52 H 1.22879 0.73306 0.60816
 H53 H 1.16208 0.65852 0.49818
 H54 H 1.23657 0.72528 0.38883
 C55 C 0.81921 0.50137 0.49766
 C56 C 0.80724 0.50450 0.43662
 C57 C 0.78073 0.50538 0.43733
 C58 C 0.76480 0.50139 0.49904
 C59 C 0.77716 0.49745 0.55997
 C60 C 0.80452 0.49834 0.55932
 C61 C 0.73573 0.50136 0.49986
 C62 C 0.72372 0.50528 0.56152
 C63 C 0.69632 0.50444 0.56206
 C64 C 0.68129 0.50134 0.50083
 C65 C 0.69302 0.49832 0.43932
 C66 C 0.71949 0.49745 0.43887
 H67 H 0.84010 0.50139 0.49721
 H68 H 0.77314 0.50939 0.38934
 H69 H 0.76589 0.49351 0.60844
 H70 H 0.73535 0.50924 0.60949
 H71 H 0.66040 0.50135 0.50089
 H72 H 0.72688 0.49358 0.39043
 C73 C 0.49861 0.31838 0.50007
 C74 C 0.50077 0.30589 0.43895
 C75 C 0.50159 0.27938 0.43968
 C76 C 0.49867 0.26394 0.50172
 C77 C 0.49571 0.27687 0.56289
 C78 C 0.49643 0.30417 0.56202
 C79 C 0.49855 0.23475 0.50255
 C80 C 0.50136 0.22209 0.56450
 C81 C 0.50037 0.19464 0.56490
 C82 C 0.49821 0.18011 0.50349
 C83 C 0.49612 0.19231 0.44183
 C84 C 0.49553 0.21891 0.44126
 H85 H 0.49852 0.33922 0.49927
 H86 H 0.50462 0.27143 0.39120
 H87 H 0.49257 0.26610 0.61177
 H88 H 0.50450 0.23313 0.61299
 H89 H 0.49807 0.15917 0.50356
 H90 H 0.49251 0.22657 0.39235
 C91 C 0.68223 0.18101 0.49999
 C92 C 0.69731 0.19309 0.43892
 C93 C 0.72469 0.21962 0.43960
 C94 C 0.73668 0.23546 0.50132
 C95 C 0.72040 0.22298 0.56228
 C96 C 0.69391 0.19564 0.56165
 C97 C 0.76578 0.26452 0.50221
 C98 C 0.78160 0.27649 0.56399
 C99 C 0.80819 0.30385 0.56475
 C100 C 0.82034 0.31888 0.50361
 C101 C 0.80574 0.30717 0.44194
 C102 C 0.77833 0.28076 0.44125
 H103 H 0.66133 0.16013 0.49951
 H104 H 0.73629 0.22729 0.39160
 H105 H 0.72772 0.23412 0.61082
 H106 H 0.77380 0.26486 0.61195
 H107 H 0.84124 0.33977 0.50384
 H108 H 0.76726 0.27336 0.39262
 O109 O 1.04178 0.56497 0.12328
 O110 O 1.07433 0.55841 0.05638
 C111 C 1.06835 0.57134 0.10531
 O112 O 0.95873 0.43385 0.12201
 O113 O 0.92560 0.44110 0.05890
 C114 C 0.93202 0.42736 0.10513
 O115 O 1.04225 0.47819 0.12501
 O116 O 1.07477 0.51688 0.05668
 C117 C 1.06881 0.49829 0.10647
 O118 O 0.95881 0.52668 0.11725
 O119 O 0.92555 0.48547 0.05667
 C120 C 0.93206 0.50634 0.10113
 Zr121 Zr 1.00018 0.53339 0.08176
 O122 O 0.99934 0.53793 0.18892
 O123 O 1.00158 0.57435 0.06750
 Zr124 Zr 1.00022 0.46812 0.08545
 O125 O 0.99792 0.46632 0.19345
 O126 O 1.00358 0.42919 0.08330
 O127 O 1.02640 0.51394 0.09651
 O128 O 0.97461 0.48805 0.09707
 O129 O 0.95764 0.52458 -0.12355
 O130 O 0.92507 0.48425 -0.05935
 C131 C 0.93108 0.50429 -0.10566
 O132 O 1.04094 0.47559 -0.12660
 O133 O 1.07418 0.51565 -0.06285
 C134 C 1.06767 0.49587 -0.11007
 O135 O 0.95779 0.43156 -0.11895
 O136 O 0.92505 0.43998 -0.05754
 C137 C 0.93118 0.42534 -0.10198
 O138 O 1.04091 0.56409 -0.13057
 O139 O 1.07412 0.55812 -0.06452
 C140 C 1.06765 0.57087 -0.11315
 Zr141 Zr 0.99944 0.53183 -0.08954
 O142 O 0.99589 0.53040 -0.19738
 O143 O 1.00226 0.57386 -0.08785
 Zr144 Zr 0.99945 0.46659 -0.08622
 O145 O 0.99597 0.46280 -0.19388
 O146 O 1.00290 0.42776 -0.08029
 Zr147 Zr 1.04407 0.52208 -0.00335
 Zr148 Zr 0.95537 0.47767 -0.00096
 O149 O 0.97376 0.48626 -0.09993
 O150 O 1.02569 0.51225 -0.10235
 O151 O 0.97297 0.52407 -0.00337
 O152 O 1.02589 0.47575 -0.00082
 O153 O 1.02603 0.55036 -0.00456
 O154 O 0.97305 0.44895 0.00054
 H155 H 0.96170 0.48188 0.13808
 H156 H 1.03967 0.46778 -0.00033
 H157 H 0.96055 0.47936 -0.14040
 H158 H 1.03987 0.57210 -0.00510
 H159 H 0.98522 0.41326 0.06212
 H160 H 0.98498 0.41234 -0.05652
 H161 H 1.01037 0.48242 -0.21307
 H162 H 1.01112 0.52613 -0.21546
 H163 H 0.98556 0.57189 -0.05968
 H164 H 1.00246 0.58239 0.11385
 H165 H 0.99717 0.51954 0.20907
 H166 H 1.01292 0.48612 0.21066
 O167 O 0.43540 0.47553 0.12586
 O168 O 0.44132 0.51489 0.06065
 C169 C 0.42852 0.49543 0.10881
 O170 O 0.56707 0.52446 0.11942
 O171 O 0.55950 0.48427 0.05533
 C172 C 0.57347 0.50430 0.10160
 O173 O 0.52366 0.56397 0.12653
 O174 O 0.48422 0.55783 0.06144
 C175 C 0.50354 0.57059 0.10978
 O176 O 0.47467 0.43198 0.11778
 O177 O 0.51531 0.43992 0.05453
 C178 C 0.49502 0.42572 0.10041
 Zr179 Zr 0.46731 0.46638 0.08313
 O180 O 0.46339 0.46118 0.19043
 O181 O 0.42649 0.42657 0.06972
 Zr182 Zr 0.53252 0.53163 0.08501
 O183 O 0.53481 0.53071 0.19290
 O184 O 0.57159 0.57385 0.08171
 O185 O 0.48673 0.51206 0.09843
 O186 O 0.51274 0.48616 0.09636
 O187 O 0.47455 0.43308 -0.12369
 O188 O 0.51517 0.44044 -0.06147
 C189 C 0.49470 0.42648 -0.10693
 O190 O 0.52379 0.56530 -0.12565
 O191 O 0.48426 0.55844 -0.05986
 C192 C 0.50354 0.57161 -0.10809
 O193 O 0.56762 0.52621 -0.12168
 O194 O 0.55977 0.48510 -0.06088
 C195 C 0.57407 0.50593 -0.10551
 O196 O 0.43630 0.47773 -0.13019
 O197 O 0.44174 0.51589 -0.06137
 C198 C 0.42946 0.49750 -0.11153
 Zr199 Zr 0.46750 0.46741 -0.08760
 O200 O 0.46565 0.46320 -0.19511
 O201 O 0.42526 0.42849 -0.08081
 Zr202 Zr 0.53275 0.53263 -0.08651
 O203 O 0.53565 0.53277 -0.19445
 O204 O 0.57167 0.57491 -0.08171
 Zr205 Zr 0.47774 0.52183 -0.00037
 Zr206 Zr 0.52237 0.47739 -0.00246
 O207 O 0.51298 0.48729 -0.10052
 O208 O 0.48702 0.51325 -0.10012
 O209 O 0.47595 0.44854 -0.00289
 O210 O 0.52418 0.54981 -0.00003
 O211 O 0.44957 0.47545 -0.00169
 O212 O 0.55108 0.52380 -0.00123
 H213 H 0.51928 0.47948 0.13681
 H214 H 0.53235 0.57158 0.00056
 H215 H 0.51955 0.48102 -0.14162
 H216 H 0.42782 0.46754 -0.00195
 H217 H 0.58733 0.57136 0.05957
 H218 H 0.58724 0.57242 -0.05874
 H219 H 0.51666 0.52982 -0.21307
 H220 H 0.47827 0.48337 -0.21374
 H221 H 0.42805 0.41289 -0.05891
 H222 H 0.41889 0.41920 0.11627
 H223 H 0.48235 0.47673 0.20999
 H224 H 0.51518 0.52616 0.21096
 O225 O 0.52276 -0.04126 0.12722
 O226 O 0.48389 -0.07399 0.05980
 C227 C 0.50279 -0.06787 0.10892
 O228 O 0.47420 0.04174 0.12169
 O229 O 0.51514 0.07490 0.06003
 C230 C 0.49452 0.06844 0.10513
 O231 O 0.43497 -0.04138 0.12577
 O232 O 0.44163 -0.07407 0.05956
 C233 C 0.42847 -0.06796 0.10791
 O234 O 0.56741 0.04180 0.12142
 O235 O 0.55978 0.07492 0.05932
 C236 C 0.57395 0.06851 0.10449
 Zr237 Zr 0.53287 0.00043 0.08592
 O238 O 0.53754 0.00126 0.19332
 O239 O 0.57258 -0.00086 0.07334
 Zr240 Zr 0.46754 0.00036 0.08678
 O241 O 0.46808 0.00285 0.19478
 O242 O 0.42526 -0.00290 0.08395
 O243 O 0.48710 -0.02582 0.09980
 O244 O 0.51303 0.02603 0.09948
 O245 O 0.56748 0.04271 -0.11955
 O246 O 0.55943 0.07533 -0.05664
 C247 C 0.57365 0.06928 -0.10229
 O248 O 0.43556 -0.04091 -0.12598
 O249 O 0.44208 -0.07380 -0.06007
 C250 C 0.42919 -0.06756 -0.10869
 O251 O 0.47459 0.04250 -0.11936
 O252 O 0.51516 0.07525 -0.05626
 C253 C 0.49489 0.06912 -0.10206
 O254 O 0.52346 -0.04069 -0.12618
 O255 O 0.48415 -0.07372 -0.06006
 C256 C 0.50336 -0.06737 -0.10865
 Zr257 Zr 0.53290 0.00089 -0.08545
 O258 O 0.53610 0.00406 -0.19327
 O259 O 0.57205 -0.00205 -0.08125
 Zr260 Zr 0.46755 0.00079 -0.08508
 O261 O 0.46741 0.00413 -0.19280
 O262 O 0.42517 -0.00276 -0.07991
 Zr263 Zr 0.47813 -0.04352 0.00013
 Zr264 Zr 0.52236 0.04508 0.00123
 O265 O 0.51302 0.02648 -0.09761
 O266 O 0.48713 -0.02536 -0.09919
 O267 O 0.55120 0.02749 0.00059
 O268 O 0.44988 -0.02545 0.00055
 O269 O 0.52446 -0.02552 0.00004
 O270 O 0.47591 0.02734 0.00120
 H271 H 0.51957 0.03905 0.14021
 H272 H 0.42812 -0.03924 0.00026
 H273 H 0.51952 0.03953 -0.13837
 H274 H 0.53236 -0.03936 0.00000
 H275 H 0.42753 0.01483 0.05977
 H276 H 0.42773 0.01564 -0.05871
 H277 H 0.47308 -0.00998 -0.21161
 H278 H 0.51625 -0.01000 -0.21181
 H279 H 0.58688 0.01514 -0.05445
 H280 H 0.57944 -0.00172 0.12004
 H281 H 0.52143 0.00384 0.21264
 H282 H 0.47186 -0.01278 0.21247
 C283 C 1.18327 0.50757 0.37791
 C284 C 1.16963 0.50760 0.32810
 C285 C 1.15146 0.50662 0.27338
 C286 C 1.13435 0.50513 0.22990
 C287 C 1.11272 0.50286 0.18288
 C288 C 1.09315 0.50074 0.14610
 C289 C 0.49965 0.67941 0.37905
 C290 C 0.50015 0.66592 0.32946
 C291 C 0.50060 0.64830 0.27518
 C292 C 0.50101 0.63195 0.23212
 C293 C 0.50162 0.61153 0.18559
 C294 C 0.50235 0.59322 0.14916
 C295 C 0.31884 -0.17985 0.37731
 C296 C 0.33213 -0.16587 0.32746
 C297 C 0.34975 -0.14808 0.27271
 C298 C 0.36622 -0.13166 0.22927
 C299 C 0.38691 -0.11096 0.18250
 C300 C 0.40551 -0.09202 0.14627
 C301 C 0.82232 0.50621 0.37347
 C302 C 0.83603 0.50685 0.32312
 C303 C 0.85342 0.50693 0.26747
 C304 C 0.86945 0.50671 0.22320
 C305 C 0.88970 0.50634 0.17555
 C306 C 0.90830 0.50617 0.13897
 C307 C 0.50132 0.32032 0.37560
 C308 C 0.50105 0.33347 0.32503
 C309 C 0.50014 0.35016 0.26904
 C310 C 0.49903 0.36558 0.22437
 C311 C 0.49755 0.38503 0.17612
 C312 C 0.49630 0.40288 0.13896
 C313 C 0.68390 0.17809 0.37578
 C314 C 0.67079 0.16442 0.32549
 C315 C 0.65342 0.14707 0.26999
 C316 C 0.63707 0.13111 0.22583
 C317 C 0.61635 0.11094 0.17835
 C318 C 0.59753 0.09233 0.14201
 C319 C 0.50081 0.18131 -0.37535
 C320 C 0.50055 0.16786 -0.32485
 C321 C 0.49972 0.15019 -0.26906
 C322 C 0.49870 0.13358 -0.22472
 C323 C 0.49728 0.11249 -0.17705
 C324 C 0.49607 0.09326 -0.14035
 C325 C 0.68357 0.50600 -0.37827
 C326 C 0.67055 0.50665 -0.32783
 C327 C 0.65331 0.50673 -0.27206
 C328 C 0.63708 0.50648 -0.22767
 C329 C 0.61648 0.50606 -0.17993
 C330 C 0.59769 0.50584 -0.14334
 C331 C 0.82225 0.31654 -0.37535
 C332 C 0.83564 0.32940 -0.32455
 C333 C 0.85271 0.34640 -0.26832
 C334 C 0.86854 0.36246 -0.22359
 C335 C 0.88863 0.38296 -0.17562
 C336 C 0.90723 0.40172 -0.13912
 C337 C 0.49878 -0.18109 -0.37587
 C338 C 0.49931 -0.16694 -0.32659
 C339 C 0.49988 -0.14866 -0.27265
 C340 C 0.50041 -0.13175 -0.22987
 C341 C 0.50117 -0.11055 -0.18367
 C342 C 0.50202 -0.09137 -0.14757
 C343 C 0.32276 0.50712 -0.37845
 C344 C 0.33673 0.50701 -0.32940
 C345 C 0.35429 0.50584 -0.27580
 C346 C 0.37020 0.50424 -0.23331
 C347 C 0.38987 0.50190 -0.18734
 C348 C 0.40749 0.49981 -0.15114
 C349 C 1.18015 0.68123 -0.38095
 C350 C 1.16597 0.66784 -0.33139
 C351 C 1.14792 0.65006 -0.27715
 C352 C 1.13130 0.63342 -0.23419
 C353 C 1.11047 0.61254 -0.18793
 C354 C 1.09153 0.59385 -0.15189
 C355 C 0.81847 0.49720 -0.37807
 C356 C 0.83191 0.49721 -0.32791
 C357 C 0.84958 0.49805 -0.27232
 C358 C 0.86623 0.49928 -0.22801
 C359 C 0.88744 0.50112 -0.18038
 C360 C 0.90682 0.50274 -0.14378
 C361 C 0.49539 0.31744 -0.37884
 C362 C 0.49498 0.33068 -0.32869
 C363 C 0.49495 0.34797 -0.27321
 C364 C 0.49505 0.36412 -0.22899
 C365 C 0.49516 0.38454 -0.18143
 C366 C 0.49509 0.40314 -0.14490
 C367 C 0.67884 0.18171 -0.37569
 C368 C 0.66549 0.16826 -0.32542
 C369 C 0.64882 0.15051 -0.26972
 C370 C 0.63350 0.13383 -0.22528
 C371 C 0.61419 0.11272 -0.17736
 C372 C 0.59641 0.09346 -0.14051
 C373 C 1.17878 0.49807 -0.38078
 C374 C 1.16486 0.49720 -0.33072
 C375 C 1.14718 0.49683 -0.27567
 C376 C 1.13084 0.49682 -0.23199
 C377 C 1.11027 0.49687 -0.18508
 C378 C 1.09147 0.49667 -0.14873
 C379 C 0.49621 0.67777 -0.37904
 C380 C 0.49669 0.66447 -0.32907
 C381 C 0.49773 0.64744 -0.27416
 C382 C 0.49888 0.63170 -0.23055
 C383 C 0.50044 0.61196 -0.18354
 C384 C 0.50186 0.59406 -0.14702
 C385 C 0.32376 -0.18300 -0.37804
 C386 C 0.33737 -0.16902 -0.32859
 C387 C 0.35453 -0.15049 -0.27440
 C388 C 0.37017 -0.13312 -0.23140
 C389 C 0.38959 -0.11130 -0.18489
 C390 C 0.40713 -0.09171 -0.14837
 C391 C 0.49515 -0.18298 0.37590
 C392 C 0.49563 -0.16891 0.32651
 C393 C 0.49670 -0.15043 0.27253
 C394 C 0.49789 -0.13320 0.22981
 C395 C 0.49950 -0.11157 0.18377
 C396 C 0.50098 -0.09207 0.14780
 C397 C 0.31738 0.49710 0.37432
 C398 C 0.33083 0.49622 0.32509
 C399 C 0.34873 0.49589 0.27132
 C400 C 0.36552 0.49595 0.22883
 C401 C 0.38658 0.49611 0.18313
 C402 C 0.40542 0.49605 0.14743
 C403 C 1.18396 0.67632 0.37458
 C404 C 1.17009 0.66276 0.32500
 C405 C 1.15164 0.64568 0.27065
 C406 C 1.13428 0.63011 0.22756
 C407 C 1.11239 0.61077 0.18108
 C408 C 1.09268 0.59330 0.14470
 C409 C 0.49500 0.17730 0.37915
 C410 C 0.49464 0.16378 0.32882
 C411 C 0.49468 0.14672 0.27284
 C412 C 0.49486 0.13089 0.22814
 C413 C 0.49504 0.11079 0.18005
 C414 C 0.49497 0.09220 0.14320
 C415 C 0.67805 0.49720 0.37656
 C416 C 0.66479 0.49725 0.32611
 C417 C 0.64824 0.49819 0.27002
 C418 C 0.63306 0.49949 0.22519
 C419 C 0.61388 0.50132 0.17696
 C420 C 0.59618 0.50285 0.13995
 C421 C 0.81985 0.32215 0.37935
 C422 C 0.83340 0.33552 0.32918
 C423 C 0.85111 0.35227 0.27352
 C424 C 0.86774 0.36767 0.22908
 C425 C 0.88883 0.38701 0.18116
 C426 C 0.90804 0.40473 0.14412
   
