data_POSCAR
  _audit_creation_date              2014-09-24
  _audit_creation_method            'ToBaCCo'
  _symmetry_space_group_name_H-M    'P1'
  _symmetry_Int_Tables_number       1
  _symmetry_cell_setting            triclinic
  loop_
  _symmetry_equiv_pos_as_xyz
 x,y,z
_cell_length_a 56.3937
_cell_length_b 56.2568
_cell_length_c 24.6276
_cell_angle_alpha 90.332500
_cell_angle_beta 89.736000
_cell_angle_gamma 120.296100
loop_
  _atom_site_label
  _atom_site_type_symbol
  _atom_site_fract_x
  _atom_site_fract_y
  _atom_site_fract_z
C1 C 0.14571 0.39359 0.52751
 C2 C 0.14436 0.39154 0.47199
 C3 C 0.17124 0.40510 0.45311
 N4 N 0.18896 0.41470 0.49531
 C5 C 0.17333 0.40789 0.54070
 C6 C 0.17923 0.41102 0.39789
 C7 C 0.20594 0.41743 0.38099
 C8 C 0.21894 0.43070 0.33313
 C9 C 0.24414 0.43240 0.33226
 C10 C 0.24621 0.42088 0.38023
 N11 N 0.22283 0.41159 0.40945
 C12 C 0.26896 0.41851 0.39570
 C13 C 0.27373 0.41466 0.45000
 C14 C 0.29355 0.40869 0.46695
 C15 C 0.29559 0.41237 0.52204
 C16 C 0.27732 0.42098 0.53673
 N17 N 0.26366 0.42196 0.49273
 C18 C 0.27596 0.43114 0.58859
 C19 C 0.25262 0.43268 0.60498
 C20 C 0.25155 0.44782 0.64872
 C21 C 0.22545 0.44399 0.64991
 C22 C 0.21143 0.42697 0.60645
 N23 N 0.22799 0.41999 0.57956
 C24 C 0.18380 0.41768 0.59305
 H25 H 0.12840 0.38599 0.55503
 H26 H 0.12574 0.38183 0.44809
 H27 H 0.22206 0.40576 0.54787
 H28 H 0.21145 0.43888 0.30232
 H29 H 0.25937 0.44160 0.30042
 H30 H 0.30601 0.40330 0.44209
 H31 H 0.30971 0.41009 0.54812
 H32 H 0.21790 0.45324 0.67871
 H33 H 0.21796 0.40013 0.44511
 H34 H 0.26796 0.46080 0.67632
 C35 C 0.54351 -0.14192 0.52986
 C36 C 0.54452 -0.14115 0.47426
 C37 C 0.55462 -0.15798 0.45801
 N38 N 0.56012 -0.16878 0.50181
 C39 C 0.55344 -0.15888 0.54594
 C40 C 0.55922 -0.16256 0.40347
 C41 C 0.56334 -0.18437 0.38728
 C42 C 0.57200 -0.18706 0.33612
 C43 C 0.56930 -0.21271 0.33378
 C44 C 0.55945 -0.22503 0.38405
 N45 N 0.55595 -0.20742 0.41633
 C46 C 0.55052 -0.25298 0.39678
 C47 C 0.54476 -0.26314 0.45082
 C48 C 0.53513 -0.29027 0.46609
 C49 C 0.53459 -0.29080 0.52183
 C50 C 0.54415 -0.26400 0.53891
 N51 N 0.55063 -0.24716 0.49565
 C52 C 0.54849 -0.25510 0.59347
 C53 C 0.55663 -0.22792 0.60926
 C54 C 0.56817 -0.21645 0.65907
 C55 C 0.57064 -0.19090 0.66092
 C56 C 0.56001 -0.18768 0.61257
 N57 N 0.55194 -0.21019 0.58086
 C58 C 0.55611 -0.16527 0.60043
 H59 H 0.53569 -0.13165 0.55526
 H60 H 0.53796 -0.12996 0.44871
 H61 H 0.54048 -0.21473 0.54536
 H62 H 0.57846 -0.17252 0.30300
 H63 H 0.57313 -0.22142 0.29794
 H64 H 0.52972 -0.30783 0.44010
 H65 H 0.52842 -0.30874 0.54689
 H66 H 0.57885 -0.17653 0.69454
 H67 H 0.54528 -0.21227 0.45285
 H68 H 0.57393 -0.22569 0.69101
 C69 C 1.13299 0.70552 0.48442
 C70 C 1.13217 0.70699 0.53985
 C71 C 1.15681 0.72973 0.55587
 N72 N 1.17260 0.74203 0.51178
 C73 C 1.15807 0.72736 0.46808
 C74 C 1.16623 0.73624 0.61017
 C75 C 1.19193 0.75962 0.62386
 C76 C 1.20532 0.76354 0.67314
 C77 C 1.22851 0.78898 0.67139
 C78 C 1.22840 0.80067 0.62198
 N79 N 1.20609 0.78253 0.59304
 C80 C 1.24834 0.82777 0.60567
 C81 C 1.25185 0.83611 0.55049
 C82 C 1.26740 0.86306 0.53272
 C83 C 1.26758 0.86211 0.47716
 C84 C 1.25146 0.83463 0.46228
 N85 N 1.24199 0.81881 0.50738
 C86 C 1.24835 0.82415 0.40853
 C87 C 1.22925 0.79625 0.39510
 C88 C 1.22778 0.78379 0.34533
 C89 C 1.20519 0.75777 0.34715
 C90 C 1.19314 0.75494 0.39767
 N91 N 1.20773 0.77857 0.42635
 C92 C 1.16833 0.73150 0.41441
 H93 H 1.11728 0.68952 0.45936
 H94 H 1.11577 0.69206 0.56527
 H95 H 1.20165 0.78346 0.46255
 H96 H 1.19921 0.74977 0.70742
 H97 H 1.24368 0.79779 0.70333
 H98 H 1.27794 0.88155 0.55722
 H99 H 1.27886 0.87979 0.45121
 H100 H 1.19809 0.74294 0.31427
 H101 H 1.19942 0.78673 0.55695
 H102 H 1.24100 0.79260 0.31039
 C103 C 0.86147 0.54550 0.52126
 C104 C 0.86341 0.54787 0.46582
 C105 C 0.83743 0.54039 0.44709
 N106 N 0.81976 0.53366 0.48912
 C107 C 0.83435 0.53682 0.53462
 C108 C 0.82966 0.53687 0.39194
 C109 C 0.80399 0.53273 0.37451
 C110 C 0.79322 0.52413 0.32290
 C111 C 0.76863 0.52374 0.32181
 C112 C 0.76503 0.53200 0.37287
 N113 N 0.78670 0.53758 0.40464
 C114 C 0.74320 0.53622 0.38770
 C115 C 0.73686 0.53885 0.44215
 C116 C 0.72019 0.54912 0.45819
 C117 C 0.71849 0.54731 0.51380
 C118 C 0.73351 0.53519 0.52990
 N119 N 0.74496 0.53031 0.48588
 C120 C 0.73630 0.52824 0.58404
 C121 C 0.75629 0.52081 0.59660
 C122 C 0.75518 0.50513 0.64090
 C123 C 0.77959 0.50530 0.64207
 C124 C 0.79475 0.52038 0.59747
 N125 N 0.78027 0.52959 0.56976
 C126 C 0.82238 0.52798 0.58653
 H127 H 0.87794 0.54873 0.54819
 H128 H 0.88166 0.55360 0.44191
 H129 H 0.78780 0.54408 0.53869
 H130 H 0.80219 0.51884 0.28938
 H131 H 0.75504 0.51820 0.28723
 H132 H 0.71067 0.55749 0.43253
 H133 H 0.70765 0.55447 0.53922
 H134 H 0.78552 0.49579 0.67307
 H135 H 0.79067 0.54688 0.44273
 H136 H 0.73871 0.49508 0.67017
 C137 C 0.44138 0.16377 0.47661
 C138 C 0.44518 0.16671 0.53169
 C139 C 0.43623 0.18444 0.54873
 N140 N 0.42758 0.19283 0.50555
 C141 C 0.43075 0.18019 0.46147
 C142 C 0.43564 0.19235 0.60336
 C143 C 0.43218 0.21509 0.61573
 C144 C 0.42232 0.21895 0.66474
 C145 C 0.42355 0.24391 0.66173
 C146 C 0.43408 0.25468 0.61091
 N147 N 0.43895 0.23681 0.58276
 C148 C 0.43995 0.28099 0.59277
 C149 C 0.44313 0.28795 0.53700
 C150 C 0.45503 0.31452 0.51669
 C151 C 0.45290 0.31221 0.46140
 C152 C 0.44030 0.28436 0.44953
 N153 N 0.43421 0.26953 0.49579
 C154 C 0.43318 0.27296 0.39687
 C155 C 0.42392 0.24501 0.38581
 C156 C 0.41188 0.23151 0.33768
 C157 C 0.40879 0.20567 0.34116
 C158 C 0.41934 0.20429 0.39108
 N159 N 0.42831 0.22826 0.41812
 C160 C 0.42349 0.18267 0.40778
 H161 H 0.44642 0.15138 0.45055
 H162 H 0.45396 0.15717 0.55612
 H163 H 0.44025 0.23417 0.45304
 H164 H 0.41491 0.20515 0.69912
 H165 H 0.41736 0.25309 0.69339
 H166 H 0.46448 0.33369 0.53923
 H167 H 0.45991 0.32918 0.43333
 H168 H 0.40061 0.19006 0.30970
 H169 H 0.44914 0.24058 0.54565
 H170 H 0.40653 0.23963 0.30310
 C171 C 0.70362 0.14581 0.55396
 C172 C 0.70118 0.14523 0.49859
 C173 C 0.72025 0.17127 0.48056
 N174 N 0.73424 0.18783 0.52293
 C175 C 0.72389 0.17234 0.56801
 C176 C 0.72264 0.18018 0.42643
 C177 C 0.74472 0.20547 0.40849
 C178 C 0.74494 0.21868 0.36100
 C179 C 0.77024 0.24223 0.35806
 C180 C 0.78480 0.24258 0.40365
 N181 N 0.76916 0.21998 0.43394
 C182 C 0.81224 0.26283 0.41498
 C183 C 0.82478 0.26540 0.46577
 C184 C 0.85262 0.28192 0.47581
 C185 C 0.85598 0.28103 0.53073
 C186 C 0.83003 0.26424 0.55242
 N187 N 0.81100 0.25456 0.51258
 C188 C 0.82383 0.26099 0.60846
 C189 C 0.79752 0.24178 0.62870
 C190 C 0.78782 0.24322 0.67966
 C191 C 0.76146 0.22133 0.68335
 C192 C 0.75585 0.20671 0.63487
 N193 N 0.77805 0.21936 0.60178
 C194 C 0.73065 0.18250 0.62197
 H195 H 0.69150 0.12878 0.58102
 H196 H 0.68676 0.12779 0.47439
 H197 H 0.78051 0.21208 0.56443
 H198 H 0.72852 0.21214 0.33174
 H199 H 0.77711 0.25733 0.32592
 H200 H 0.86872 0.29377 0.44670
 H201 H 0.87523 0.29217 0.55242
 H202 H 0.74784 0.21714 0.71758
 H203 H 0.77562 0.21347 0.46729
 H204 H 0.79834 0.25887 0.71044
 O205 O 0.97977 0.49932 -0.07118
 O206 O 1.04090 0.51238 0.11119
 O207 O 0.97548 0.50129 0.02613
 O208 O 1.06635 0.53473 -0.05683
 O209 O 0.99094 0.49523 0.10232
 O210 O 1.02773 0.53195 -0.07299
 O211 O 1.06817 0.53792 0.04496
 O212 O 0.94457 0.46318 -0.03846
 C213 C 0.95441 0.48175 -0.07586
 C214 C 1.06062 0.53502 0.09380
 C215 C 0.97938 0.50592 0.07607
 C216 C 1.05316 0.54579 -0.07265
 O217 O 1.03868 0.49304 -0.11107
 O218 O 0.98474 0.44412 0.07532
 O219 O 0.97134 0.43860 -0.02526
 O220 O 1.06866 0.49251 0.04994
 O221 O 1.03091 0.46130 0.08493
 O222 O 0.99020 0.45858 -0.10008
 O223 O 1.06139 0.48550 -0.04967
 O224 O 0.95341 0.45184 0.05718
 Co225 Co 1.00968 0.49501 -0.08096
 Co226 Co 1.01197 0.47920 0.08624
 Co227 Co 0.97502 0.47077 -0.00104
 Co228 Co 1.06139 0.51042 -0.00282
 O229 O 1.01647 0.48906 0.00297
 C230 C 1.05323 0.48293 -0.09734
 C231 C 0.96050 0.43753 0.08226
 C232 C 0.97629 0.43677 -0.07386
 C233 C 1.05578 0.47121 0.07741
 O234 O 0.51651 0.49783 -0.12208
 O235 O 0.49341 0.52351 0.10627
 O236 O 0.50247 0.46249 0.04119
 O237 O 0.46664 0.50360 -0.05337
 O238 O 0.51370 0.49343 0.10566
 O239 O 0.49479 0.52532 -0.11673
 O240 O 0.46491 0.50440 0.04188
 O241 O 0.49706 0.46633 -0.06070
 C242 C 0.49925 0.47345 -0.10901
 C243 C 0.46922 0.50818 0.09091
 C244 C 0.50287 0.46863 0.09027
 C245 C 0.47105 0.50763 -0.10241
 O246 O 0.54103 0.56667 -0.06793
 O247 O 0.56194 0.53492 0.07942
 O248 O 0.55166 0.49819 -0.06749
 O249 O 0.50127 0.55951 0.04369
 O250 O 0.54062 0.56530 0.06805
 O251 O 0.56314 0.54011 -0.07896
 O252 O 0.50076 0.55941 -0.05467
 O253 O 0.55495 0.49844 0.03323
 Co254 Co 0.52781 0.53143 -0.08893
 Co255 Co 0.52642 0.52862 0.08032
 Co256 Co 0.52547 0.48500 -0.01334
 Co257 Co 0.48629 0.53082 -0.00586
 O258 O 0.51678 0.51893 -0.00630
 C259 C 0.52506 0.57562 -0.06833
 C260 C 0.56927 0.51812 0.06544
 C261 C 0.56884 0.52171 -0.08411
 C262 C 0.52497 0.57472 0.06294
 O263 O 0.52370 0.04308 -0.08798
 O264 O 0.48505 -0.02798 0.10516
 O265 O 0.52526 0.05747 0.07969
 O266 O 0.48171 -0.04254 -0.06353
 O267 O 0.52007 0.01919 0.10446
 O268 O 0.51453 -0.00297 -0.08429
 O269 O 0.49365 -0.04064 0.02979
 O270 O 0.54101 0.05605 -0.00985
 C271 C 0.54454 0.05424 -0.05879
 C272 C 0.49639 -0.03879 0.07964
 C273 C 0.53449 0.04448 0.10398
 C274 C 0.50481 -0.02812 -0.08465
 O275 O 0.46057 -0.02083 -0.10308
 O276 O 0.48027 0.03344 0.11118
 O277 O 0.49881 0.06159 -0.05065
 O278 O 0.44339 -0.04898 0.05811
 O279 O 0.44631 -0.01305 0.09306
 O280 O 0.46867 0.02420 -0.08645
 O281 O 0.43607 -0.04023 -0.03385
 O282 O 0.47812 0.05157 0.03727
 Co283 Co 0.49144 0.01051 -0.08117
 Co284 Co 0.48339 0.00333 0.09405
 Co285 Co 0.50848 0.05169 0.01322
 Co286 Co 0.46602 -0.03811 -0.00158
 O287 O 0.48731 0.00683 0.00615
 C288 C 0.43730 -0.03431 -0.08243
 C289 C 0.47169 0.04671 0.08564
 C290 C 0.47806 0.04910 -0.08005
 C291 C 0.43251 -0.03808 0.08486
 C292 C 1.14565 0.42517 0.37595
 C293 C 1.12837 0.42775 0.33925
 C294 C 1.12643 0.41872 0.28555
 C295 C 1.14128 0.40597 0.26951
 C296 C 1.15820 0.40280 0.30665
 C297 C 1.16102 0.41273 0.36040
 C298 C 1.10863 0.42294 0.24784
 C299 C 1.11468 0.42901 0.19523
 C300 C 1.09873 0.43744 0.16097
 C301 C 1.11243 0.45818 0.12218
 C302 C 1.09837 0.46873 0.09373
 C303 C 1.07023 0.45839 0.10310
 C304 C 1.05621 0.43647 0.13962
 C305 C 1.07030 0.42609 0.16823
 H306 H 1.14768 0.43388 0.41616
 H307 H 1.11709 0.43765 0.35247
 H308 H 1.13954 0.39810 0.22861
 H309 H 1.16883 0.39225 0.29344
 H310 H 1.09160 0.42408 0.26552
 H311 H 1.13340 0.43093 0.17868
 H312 H 1.13429 0.46704 0.11556
 H313 H 1.10965 0.48542 0.06545
 H314 H 1.03447 0.42783 0.14730
 H315 H 1.05901 0.40948 0.19666
 C316 C 0.52028 0.70663 0.34215
 C317 C 0.51621 0.68841 0.29965
 C318 C 0.53838 0.69150 0.26798
 C319 C 0.56494 0.71342 0.28019
 C320 C 0.56899 0.73165 0.32282
 C321 C 0.54670 0.72855 0.35408
 C322 C 0.53260 0.67088 0.22425
 C323 C 0.55145 0.67120 0.19018
 C324 C 0.54499 0.64843 0.15145
 C325 C 0.56543 0.64201 0.13916
 C326 C 0.55933 0.61882 0.10782
 C327 C 0.53270 0.60178 0.08740
 C328 C 0.51277 0.60939 0.09623
 C329 C 0.51882 0.63247 0.12801
 H330 H 0.50269 0.70380 0.36545
 H331 H 0.49555 0.67176 0.29154
 H332 H 0.58280 0.71667 0.25774
 H333 H 0.58966 0.74807 0.33184
 H334 H 0.51170 0.65382 0.22171
 H335 H 0.57271 0.68721 0.19313
 H336 H 0.58586 0.65421 0.15602
 H337 H 0.57522 0.61365 0.10134
 H338 H 0.49213 0.59682 0.08062
 H339 H 0.50285 0.63745 0.13488
 C340 C 0.26496 -0.13538 0.34989
 C341 C 0.28352 -0.11760 0.31098
 C342 C 0.30355 -0.12260 0.28861
 C343 C 0.30487 -0.14563 0.30657
 C344 C 0.28642 -0.16331 0.34556
 C345 C 0.26627 -0.15838 0.36774
 C346 C 0.32378 -0.10264 0.24936
 C347 C 0.33673 -0.10969 0.21240
 C348 C 0.35915 -0.09000 0.17616
 C349 C 0.36735 -0.10073 0.13312
 C350 C 0.39041 -0.08361 0.10179
 C351 C 0.40593 -0.05526 0.11282
 C352 C 0.39712 -0.04420 0.15426
 C353 C 0.37405 -0.06137 0.18584
 H354 H 0.24957 -0.13116 0.36620
 H355 H 0.28223 -0.09988 0.29828
 H356 H 0.32063 -0.14965 0.29194
 H357 H 0.28826 -0.18055 0.35942
 H358 H 0.32758 -0.08178 0.25083
 H359 H 0.33078 -0.13117 0.20829
 H360 H 0.35634 -0.12264 0.12469
 H361 H 0.39662 -0.09274 0.07001
 H362 H 0.40879 -0.02243 0.16391
 H363 H 0.36888 -0.05220 0.21911
 C364 C 0.85375 0.51309 0.35615
 C365 C 0.87270 0.51177 0.32157
 C366 C 0.88637 0.53179 0.28141
 C367 C 0.88041 0.55318 0.27620
 C368 C 0.86143 0.55455 0.31118
 C369 C 0.84825 0.53468 0.35179
 C370 C 0.90740 0.52998 0.24811
 C371 C 0.91670 0.54210 0.19973
 C372 C 0.93615 0.53732 0.16725
 C373 C 0.93351 0.53503 0.11054
 C374 C 0.94896 0.52656 0.07993
 C375 C 0.96753 0.52052 0.10562
 C376 C 0.97182 0.52514 0.16178
 C377 C 0.95636 0.53351 0.19226
 H378 H 0.84371 0.49753 0.38716
 H379 H 0.87686 0.49509 0.32654
 H380 H 0.89088 0.56928 0.24647
 H381 H 0.85750 0.57143 0.30749
 H382 H 0.91441 0.51652 0.26317
 H383 H 0.90808 0.55345 0.18121
 H384 H 0.91837 0.53826 0.09026
 H385 H 0.94527 0.52329 0.03668
 H386 H 0.98625 0.52106 0.18268
 H387 H 0.95969 0.53619 0.23566
 C388 C 0.41355 0.29288 0.33248
 C389 C 0.41722 0.31292 0.29459
 C390 C 0.44367 0.33229 0.27653
 C391 C 0.46623 0.33021 0.29421
 C392 C 0.46249 0.30988 0.33117
 C393 C 0.43624 0.29153 0.35153
 C394 C 0.44743 0.35440 0.23912
 C395 C 0.46888 0.38009 0.24350
 C396 C 0.47439 0.40248 0.20510
 C397 C 0.49027 0.42995 0.22246
 C398 C 0.49838 0.45162 0.18577
 C399 C 0.49121 0.44616 0.13068
 C400 C 0.47465 0.41868 0.11365
 C401 C 0.46627 0.39707 0.15043
 H402 H 0.39317 0.27888 0.34800
 H403 H 0.39953 0.31394 0.28087
 H404 H 0.48676 0.34438 0.27967
 H405 H 0.48019 0.30904 0.34550
 H406 H 0.43159 0.34967 0.20928
 H407 H 0.48297 0.38513 0.27715
 H408 H 0.49691 0.43464 0.26432
 H409 H 0.51123 0.47256 0.20006
 H410 H 0.46880 0.41380 0.07144
 H411 H 0.45457 0.37617 0.13530
 C412 C 0.67428 0.16203 0.39627
 C413 C 0.65302 0.14789 0.35905
 C414 C 0.65664 0.13482 0.31367
 C415 C 0.68213 0.13634 0.30598
 C416 C 0.70354 0.15080 0.34300
 C417 C 0.69971 0.16372 0.38832
 C418 C 0.63390 0.12115 0.27408
 C419 C 0.62985 0.09991 0.24255
 C420 C 0.60628 0.08621 0.20478
 C421 C 0.59381 0.05775 0.19573
 C422 C 0.57068 0.04414 0.16234
 C423 C 0.55992 0.05889 0.13657
 C424 C 0.57314 0.08756 0.14382
 C425 C 0.59604 0.10108 0.17765
 H426 H 0.67110 0.17212 0.43081
 H427 H 0.63367 0.14719 0.36565
 H428 H 0.68585 0.12711 0.27073
 H429 H 0.72317 0.15218 0.33607
 H430 H 0.61905 0.12798 0.27317
 H431 H 0.64288 0.09104 0.24713
 H432 H 0.60155 0.04592 0.21571
 H433 H 0.56102 0.02204 0.15720
 H434 H 0.56550 0.09952 0.12410
 H435 H 0.60572 0.12318 0.18243
 C436 C 0.45530 0.19085 -0.30852
 C437 C 0.45863 0.17606 -0.26676
 C438 C 0.44504 0.14719 -0.26825
 C439 C 0.42719 0.13337 -0.31192
 C440 C 0.42394 0.14815 -0.35383
 C441 C 0.43824 0.17717 -0.35333
 C442 C 0.45032 0.13266 -0.22371
 C443 C 0.44416 0.10628 -0.22652
 C444 C 0.45147 0.09239 -0.18409
 C445 C 0.43772 0.06350 -0.18401
 C446 C 0.44557 0.04942 -0.14854
 C447 C 0.46760 0.06393 -0.11253
 C448 C 0.48084 0.09282 -0.11122
 C449 C 0.47296 0.10694 -0.14671
 H450 H 0.46689 0.21313 -0.30664
 H451 H 0.47237 0.18733 -0.23359
 H452 H 0.41536 0.11117 -0.31402
 H453 H 0.40970 0.13678 -0.38626
 H454 H 0.46054 0.14469 -0.18797
 H455 H 0.43373 0.09403 -0.26185
 H456 H 0.42116 0.05175 -0.21236
 H457 H 0.43488 0.02716 -0.15045
 H458 H 0.49797 0.10457 -0.08409
 H459 H 0.48459 0.12918 -0.14612
 C460 C 0.72968 0.53802 -0.32111
 C461 C 0.71269 0.53659 -0.27827
 C462 C 0.68465 0.52624 -0.28677
 C463 C 0.67371 0.51691 -0.33884
 C464 C 0.69056 0.51759 -0.38151
 C465 C 0.71894 0.52819 -0.37350
 C466 C 0.66705 0.52440 -0.24036
 C467 C 0.64779 0.53149 -0.24477
 C468 C 0.63031 0.53034 -0.19867
 C469 C 0.62260 0.55039 -0.19476
 C470 C 0.60412 0.54858 -0.15479
 C471 C 0.59224 0.52616 -0.11884
 C472 C 0.60051 0.50643 -0.12175
 C473 C 0.61959 0.50862 -0.16104
 H474 H 0.75143 0.54706 -0.31317
 H475 H 0.72156 0.54398 -0.23846
 H476 H 0.65195 0.50823 -0.34610
 H477 H 0.68106 0.50873 -0.42018
 H478 H 0.67129 0.51885 -0.20103
 H479 H 0.64565 0.53979 -0.28286
 H480 H 0.63056 0.56725 -0.22338
 H481 H 0.59805 0.56404 -0.15394
 H482 H 0.59155 0.48884 -0.09485
 H483 H 0.62488 0.49263 -0.16365
 C484 C 0.85417 0.30937 -0.35947
 C485 C 0.87440 0.32870 -0.32519
 C486 C 0.88529 0.32034 -0.28322
 C487 C 0.87552 0.29204 -0.27631
 C488 C 0.85535 0.27263 -0.31113
 C489 C 0.84472 0.28122 -0.35325
 C490 C 0.90719 0.34200 -0.24908
 C491 C 0.91301 0.33819 -0.19820
 C492 C 0.93264 0.36173 -0.16413
 C493 C 0.92712 0.36216 -0.10861
 C494 C 0.94265 0.38607 -0.07770
 C495 C 0.96411 0.40984 -0.10186
 C496 C 0.97121 0.40850 -0.15609
 C497 C 0.95570 0.38467 -0.18689
 H498 H 0.84603 0.31639 -0.39137
 H499 H 0.88151 0.35033 -0.33139
 H500 H 0.88379 0.28488 -0.24504
 H501 H 0.84828 0.25097 -0.30577
 H502 H 0.91751 0.36268 -0.26541
 H503 H 0.90105 0.31829 -0.17909
 H504 H 0.90971 0.34458 -0.08998
 H505 H 0.93679 0.38646 -0.03590
 H506 H 0.98795 0.42634 -0.17556
 H507 H 0.96119 0.38459 -0.22904
 C508 C 0.53817 -0.16291 -0.30987
 C509 C 0.53543 -0.14785 -0.26761
 C510 C 0.54839 -0.11907 -0.27011
 C511 C 0.56501 -0.10553 -0.31543
 C512 C 0.56777 -0.12064 -0.35786
 C513 C 0.55413 -0.14962 -0.35609
 C514 C 0.54325 -0.10450 -0.22516
 C515 C 0.54792 -0.07867 -0.22829
 C516 C 0.53866 -0.06612 -0.18618
 C517 C 0.55126 -0.03733 -0.18344
 C518 C 0.54113 -0.02482 -0.14848
 C519 C 0.51792 -0.04091 -0.11604
 C520 C 0.50584 -0.06968 -0.11744
 C521 C 0.51599 -0.08218 -0.15221
 H522 H 0.52693 -0.18517 -0.30715
 H523 H 0.52251 -0.15887 -0.23330
 H524 H 0.57615 -0.08335 -0.31846
 H525 H 0.58103 -0.10956 -0.39173
 H526 H 0.53381 -0.11633 -0.18887
 H527 H 0.55792 -0.06627 -0.26362
 H528 H 0.56862 -0.02449 -0.20936
 H529 H 0.55088 -0.00260 -0.14830
 H530 H 0.48786 -0.08264 -0.09307
 H531 H 0.50510 -0.10442 -0.15405
 C532 C 0.32569 0.46026 -0.40022
 C533 C 0.34930 0.47050 -0.36868
 C534 C 0.34759 0.46265 -0.31438
 C535 C 0.32159 0.44526 -0.29127
 C536 C 0.29780 0.43528 -0.32270
 C537 C 0.29958 0.44221 -0.37798
 C538 C 0.37328 0.47364 -0.28293
 C539 C 0.37660 0.45957 -0.24291
 C540 C 0.40193 0.47081 -0.20998
 C541 C 0.39988 0.46071 -0.15728
 C542 C 0.42265 0.47214 -0.12307
 C543 C 0.44810 0.49375 -0.14109
 C544 C 0.45068 0.50280 -0.19490
 C545 C 0.42779 0.49143 -0.22916
 H546 H 0.32781 0.46677 -0.44217
 H547 H 0.36905 0.48427 -0.38704
 H548 H 0.31955 0.43954 -0.24890
 H549 H 0.27810 0.42142 -0.30426
 H550 H 0.39002 0.49371 -0.29429
 H551 H 0.35970 0.43945 -0.23208
 H552 H 0.38034 0.44455 -0.14184
 H553 H 0.42015 0.46444 -0.08198
 H554 H 0.47016 0.51917 -0.20999
 H555 H 0.43045 0.49896 -0.27032
 C556 C 1.12476 0.71247 -0.33394
 C557 C 1.10910 0.69265 -0.29494
 C558 C 1.11930 0.67730 -0.26983
 C559 C 1.14523 0.68166 -0.28544
 C560 C 1.16074 0.70125 -0.32469
 C561 C 1.15084 0.71709 -0.34893
 C562 C 1.10178 0.65549 -0.23068
 C563 C 1.11233 0.64785 -0.19020
 C564 C 1.09617 0.62335 -0.15540
 C565 C 1.11055 0.61352 -0.12544
 C566 C 1.09653 0.58889 -0.09670
 C567 C 1.06771 0.57354 -0.09700
 C568 C 1.05319 0.58411 -0.12425
 C569 C 1.06724 0.60878 -0.15313
 H570 H 1.11652 0.72417 -0.35259
 H571 H 1.08897 0.68929 -0.28429
 H572 H 1.15322 0.66935 -0.26880
 H573 H 1.18032 0.70369 -0.33699
 H574 H 1.07985 0.64532 -0.23687
 H575 H 1.13436 0.65912 -0.18420
 H576 H 1.13280 0.62441 -0.12588
 H577 H 1.10832 0.58145 -0.07562
 H578 H 1.03095 0.57285 -0.12472
 H579 H 1.05524 0.61593 -0.17406
 C580 C 0.86014 0.54829 -0.34885
 C581 C 0.87638 0.54537 -0.30985
 C582 C 0.87090 0.51914 -0.29396
 C583 C 0.84886 0.49577 -0.31847
 C584 C 0.83252 0.49870 -0.35721
 C585 C 0.83797 0.52498 -0.37260
 C586 C 0.88942 0.51724 -0.25382
 C587 C 0.88313 0.49426 -0.22633
 C588 C 0.90199 0.49218 -0.18737
 C589 C 0.89103 0.47016 -0.15064
 C590 C 0.90803 0.46685 -0.11417
 C591 C 0.93641 0.48553 -0.11374
 C592 C 0.94750 0.50752 -0.15050
 C593 C 0.93053 0.51076 -0.18721
 H594 H 0.86488 0.56877 -0.36060
 H595 H 0.89338 0.56371 -0.29219
 H596 H 0.84447 0.47519 -0.30920
 H597 H 0.81598 0.48045 -0.37619
 H598 H 0.90861 0.53595 -0.24575
 H599 H 0.86299 0.47623 -0.23082
 H600 H 0.86920 0.45539 -0.15020
 H601 H 0.89895 0.44958 -0.08651
 H602 H 0.96935 0.52212 -0.15130
 H603 H 0.94008 0.52748 -0.21591
 C604 C 0.46101 0.30729 -0.32417
 C605 C 0.46724 0.32970 -0.29040
 C606 C 0.45517 0.34587 -0.29914
 C607 C 0.43610 0.33883 -0.34136
 C608 C 0.43022 0.31673 -0.37575
 C609 C 0.44318 0.30112 -0.36856
 C610 C 0.46469 0.37123 -0.26681
 C611 C 0.44891 0.38207 -0.25502
 C612 C 0.45991 0.40732 -0.22207
 C613 C 0.44587 0.40760 -0.17525
 C614 C 0.45820 0.42985 -0.13925
 C615 C 0.48432 0.45240 -0.15067
 C616 C 0.49731 0.45309 -0.19979
 C617 C 0.48534 0.43052 -0.23499
 H618 H 0.47150 0.29587 -0.31762
 H619 H 0.48206 0.33484 -0.25810
 H620 H 0.42666 0.35108 -0.34949
 H621 H 0.41592 0.31215 -0.40883
 H622 H 0.48540 0.38099 -0.25072
 H623 H 0.42733 0.37124 -0.26552
 H624 H 0.42614 0.38994 -0.16500
 H625 H 0.44778 0.42911 -0.10169
 H626 H 0.51746 0.47030 -0.20932
 H627 H 0.49626 0.43078 -0.27148
 C628 C 0.68313 0.16195 -0.34688
 C629 C 0.66271 0.14743 -0.30861
 C630 C 0.66888 0.13959 -0.25917
 C631 C 0.69630 0.14722 -0.24814
 C632 C 0.71694 0.16196 -0.28665
 C633 C 0.71051 0.16905 -0.33706
 C634 C 0.64558 0.12208 -0.22285
 C635 C 0.64749 0.11611 -0.17097
 C636 C 0.62236 0.09788 -0.13947
 C637 C 0.62032 0.10345 -0.08453
 C638 C 0.59528 0.08843 -0.05677
 C639 C 0.57208 0.06768 -0.08384
 C640 C 0.57480 0.06092 -0.13752
 C641 C 0.59969 0.07562 -0.16483
 H642 H 0.67748 0.16773 -0.38445
 H643 H 0.64182 0.14198 -0.31811
 H644 H 0.70182 0.14116 -0.21088
 H645 H 0.73771 0.16675 -0.27799
 H646 H 0.62528 0.11398 -0.24013
 H647 H 0.66709 0.12577 -0.15041
 H648 H 0.63767 0.12023 -0.06393
 H649 H 0.59374 0.09386 -0.01517
 H650 H 0.55740 0.04468 -0.15905
 H651 H 0.60094 0.06999 -0.20643
 C652 C 1.16172 0.40957 -0.31482
 C653 C 1.14592 0.41398 -0.27659
 C654 C 1.13380 0.42973 -0.28976
 C655 C 1.13801 0.44122 -0.34199
 C656 C 1.15394 0.43695 -0.38002
 C657 C 1.16597 0.42114 -0.36677
 C658 C 1.11877 0.43545 -0.24696
 C659 C 1.09931 0.44189 -0.25748
 C660 C 1.08597 0.45029 -0.21533
 C661 C 1.07110 0.46286 -0.23205
 C662 C 1.05975 0.47285 -0.19391
 C663 C 1.06313 0.47053 -0.13812
 C664 C 1.07698 0.45696 -0.12131
 C665 C 1.08812 0.44680 -0.15932
 H666 H 1.17090 0.39739 -0.30376
 H667 H 1.14325 0.40518 -0.23646
 H668 H 1.12990 0.45431 -0.35315
 H669 H 1.15737 0.44646 -0.41960
 H670 H 1.12457 0.43461 -0.20562
 H671 H 1.09343 0.44205 -0.29919
 H672 H 1.06882 0.46559 -0.27484
 H673 H 1.04897 0.48300 -0.20811
 H674 H 1.07946 0.45438 -0.07854
 H675 H 1.09840 0.43640 -0.14411
 C676 C 0.52038 0.71444 -0.33074
 C677 C 0.51634 0.69647 -0.28820
 C678 C 0.53613 0.68911 -0.27654
 C679 C 0.55980 0.69953 -0.30940
 C680 C 0.56368 0.71732 -0.35240
 C681 C 0.54403 0.72494 -0.36307
 C682 C 0.53060 0.66945 -0.23184
 C683 C 0.55040 0.66850 -0.20360
 C684 C 0.54465 0.64714 -0.16225
 C685 C 0.56477 0.64007 -0.15204
 C686 C 0.55905 0.61783 -0.11853
 C687 C 0.53306 0.60230 -0.09420
 C688 C 0.51366 0.61069 -0.10092
 C689 C 0.51939 0.63295 -0.13444
 H690 H 0.50507 0.72023 -0.33849
 H691 H 0.49783 0.68849 -0.26392
 H692 H 0.57507 0.69361 -0.30275
 H693 H 0.58204 0.72530 -0.37713
 H694 H 0.50925 0.65521 -0.22254
 H695 H 0.57172 0.68283 -0.21314
 H696 H 0.58455 0.65094 -0.17218
 H697 H 0.57450 0.61196 -0.11389
 H698 H 0.49359 0.59934 -0.08209
 H699 H 0.50378 0.63855 -0.13916
 C700 C 0.25657 -0.15005 -0.30431
 C701 C 0.27469 -0.13368 -0.26341
 C702 C 0.30316 -0.12015 -0.27183
 C703 C 0.31318 -0.12325 -0.32225
 C704 C 0.29511 -0.13963 -0.36306
 C705 C 0.26651 -0.15362 -0.35455
 C706 C 0.32189 -0.10466 -0.22631
 C707 C 0.34759 -0.08392 -0.23448
 C708 C 0.36849 -0.06995 -0.19128
 C709 C 0.39338 -0.04661 -0.20597
 C710 C 0.41522 -0.03454 -0.16962
 C711 C 0.41273 -0.04541 -0.11736
 C712 C 0.38747 -0.06793 -0.10130
 C713 C 0.36554 -0.08026 -0.13804
 H714 H 0.23469 -0.16016 -0.29653
 H715 H 0.26645 -0.13175 -0.22489
 H716 H 0.33498 -0.11405 -0.32969
 H717 H 0.30363 -0.14249 -0.40038
 H718 H 0.31402 -0.11063 -0.18552
 H719 H 0.35410 -0.07682 -0.27559
 H720 H 0.39630 -0.03816 -0.24650
 H721 H 0.43440 -0.01707 -0.18306
 H722 H 0.38507 -0.07676 -0.06126
 H723 H 0.34691 -0.09841 -0.12504
 C724 C 0.57649 -0.11592 0.36220
 C725 C 0.57410 -0.09877 0.32449
 C726 C 0.55366 -0.10983 0.28434
 C727 C 0.53572 -0.13852 0.28245
 C728 C 0.53801 -0.15562 0.32037
 C729 C 0.55823 -0.14445 0.36084
 C730 C 0.54995 -0.09079 0.24874
 C731 C 0.53730 -0.09819 0.20043
 C732 C 0.52985 -0.08052 0.16895
 C733 C 0.52508 -0.08509 0.11290
 C734 C 0.51524 -0.07075 0.08310
 C735 C 0.50953 -0.05190 0.10912
 C736 C 0.51493 -0.04683 0.16489
 C737 C 0.52492 -0.06098 0.19454
 H738 H 0.59218 -0.10693 0.39323
 H739 H 0.58797 -0.07674 0.32719
 H740 H 0.51915 -0.14778 0.25332
 H741 H 0.52352 -0.17755 0.31915
 H742 H 0.55785 -0.06996 0.26341
 H743 H 0.53185 -0.11805 0.18318
 H744 H 0.52847 -0.10019 0.09234
 H745 H 0.51119 -0.07511 0.04016
 H746 H 0.51073 -0.03240 0.18602
 H747 H 0.52754 -0.05740 0.23786
 C748 C 0.29656 0.40631 0.33334
 C749 C 0.32048 0.41430 0.30308
 C750 C 0.33961 0.44232 0.29529
 C751 C 0.33458 0.46224 0.31857
 C752 C 0.31094 0.45426 0.34930
 C753 C 0.29183 0.42630 0.35696
 C754 C 0.36489 0.45049 0.26361
 C755 C 0.37564 0.47252 0.23129
 C756 C 0.39966 0.48030 0.19634
 C757 C 0.39898 0.48852 0.14322
 C758 C 0.42151 0.49695 0.10911
 C759 C 0.44561 0.49827 0.12802
 C760 C 0.44659 0.49039 0.18155
 C761 C 0.42352 0.48104 0.21543
 H762 H 0.28220 0.38464 0.33988
 H763 H 0.32406 0.39865 0.28574
 H764 H 0.34928 0.48399 0.31444
 H765 H 0.30785 0.46989 0.36842
 H766 H 0.37369 0.43725 0.26404
 H767 H 0.36501 0.48392 0.22630
 H768 H 0.38084 0.48824 0.12796
 H769 H 0.42026 0.50304 0.06807
 H770 H 0.46498 0.49121 0.19680
 H771 H 0.42452 0.47510 0.25672
 C772 C 1.12921 0.70441 0.35018
 C773 C 1.11440 0.68178 0.31575
 C774 C 1.12386 0.66344 0.30470
 C775 C 1.14826 0.66795 0.32939
 C776 C 1.16285 0.69036 0.36426
 C777 C 1.15344 0.70871 0.37485
 C778 C 1.10747 0.63932 0.26904
 C779 C 1.11902 0.62844 0.23748
 C780 C 1.10311 0.60458 0.20106
 C781 C 1.11548 0.60276 0.15295
 C782 C 1.10149 0.58031 0.11800
 C783 C 1.07501 0.55879 0.13106
 C784 C 1.06267 0.56036 0.17963
 C785 C 1.07653 0.58315 0.21423
 H786 H 1.12158 0.71829 0.35842
 H787 H 1.09556 0.67860 0.29755
 H788 H 1.15574 0.65381 0.32302
 H789 H 1.18133 0.69323 0.38365
 H790 H 1.08554 0.63129 0.26670
 H791 H 1.14120 0.63830 0.23569
 H792 H 1.13601 0.61890 0.14219
 H793 H 1.11160 0.57961 0.08102
 H794 H 1.04228 0.54406 0.19068
 H795 H 1.06669 0.58366 0.25170
 C796 C 0.40297 0.13440 0.37215
 C797 C 0.40281 0.11542 0.33504
 C798 C 0.42128 0.12431 0.29119
 C799 C 0.43995 0.15269 0.28512
 C800 C 0.44015 0.17161 0.32233
 C801 C 0.42183 0.16260 0.36632
 C802 C 0.42239 0.10343 0.25598
 C803 C 0.43329 0.10888 0.20590
 C804 C 0.43909 0.08983 0.17434
 C805 C 0.44454 0.09444 0.11850
 C806 C 0.45382 0.07945 0.08875
 C807 C 0.45809 0.05971 0.11450
 C808 C 0.45151 0.05423 0.16980
 C809 C 0.44223 0.06917 0.19950
 H810 H 0.38877 0.12709 0.40606
 H811 H 0.38849 0.09369 0.34105
 H812 H 0.45520 0.16035 0.25314
 H813 H 0.45513 0.19327 0.31771
 H814 H 0.41419 0.08300 0.27264
 H815 H 0.43896 0.12844 0.18734
 H816 H 0.44245 0.11031 0.09817
 H817 H 0.45873 0.08413 0.04615
 H818 H 0.45461 0.03913 0.19075
 H819 H 0.43899 0.06534 0.24260
 C820 C 0.73721 0.55954 0.30699
 C821 C 0.72110 0.56058 0.26512
 C822 C 0.69370 0.53947 0.25881
 C823 C 0.68247 0.51756 0.29610
 C824 C 0.69851 0.51670 0.33831
 C825 C 0.72599 0.53761 0.34386
 C826 C 0.67689 0.54175 0.21538
 C827 C 0.65557 0.51977 0.19215
 C828 C 0.63653 0.52169 0.15344
 C829 C 0.62011 0.49907 0.11972
 C830 C 0.59934 0.49861 0.08808
 C831 C 0.59432 0.52065 0.09019
 C832 C 0.61157 0.54383 0.12201
 C833 C 0.63240 0.54436 0.15335
 H834 H 0.75839 0.57588 0.31087
 H835 H 0.73009 0.57783 0.23738
 H836 H 0.66118 0.50140 0.29354
 H837 H 0.68954 0.49969 0.36662
 H838 H 0.68269 0.56224 0.20176
 H839 H 0.65161 0.49935 0.20213
 H840 H 0.62278 0.48130 0.11923
 H841 H 0.58632 0.48039 0.06420
 H842 H 0.60820 0.56113 0.12466
 H843 H 0.64411 0.56192 0.17961
 C844 C 0.83439 0.31114 0.38161
 C845 C 0.84832 0.33096 0.34176
 C846 C 0.85626 0.32391 0.29300
 C847 C 0.84943 0.29640 0.28428
 C848 C 0.83536 0.27653 0.32415
 C849 C 0.82788 0.28385 0.37309
 C850 C 0.87134 0.34570 0.25228
 C851 C 0.88922 0.34510 0.21711
 C852 C 0.90645 0.36831 0.18059
 C853 C 0.93261 0.37312 0.16658
 C854 C 0.95006 0.39556 0.13433
 C855 C 0.94147 0.41337 0.11464
 C856 C 0.91494 0.40811 0.12703
 C857 C 0.89754 0.38576 0.15984
 H858 H 0.82846 0.31699 0.41901
 H859 H 0.85316 0.35194 0.34923
 H860 H 0.85449 0.29006 0.24651
 H861 H 0.83012 0.25544 0.31680
 H862 H 0.86936 0.36385 0.25461
 H863 H 0.89336 0.32830 0.21849
 H864 H 0.93982 0.35983 0.18172
 H865 H 0.97038 0.39907 0.12508
 H866 H 0.90781 0.42146 0.11195
 H867 H 0.87717 0.38214 0.16863
   
