data_POSCAR
  _audit_creation_date              2014-09-24
  _audit_creation_method            'ToBaCCo'
  _symmetry_space_group_name_H-M    'P1'
  _symmetry_Int_Tables_number       1
  _symmetry_cell_setting            triclinic
  loop_
  _symmetry_equiv_pos_as_xyz
 x,y,z
_cell_length_a 26.8371
_cell_length_b 25.9304
_cell_length_c 25.2819
_cell_angle_alpha 93.828000
_cell_angle_beta 88.816300
_cell_angle_gamma 93.815500
loop_
  _atom_site_label
  _atom_site_type_symbol
  _atom_site_fract_x
  _atom_site_fract_y
  _atom_site_fract_z
C1 C 0.16808 0.24331 0.23292
 C2 C 0.17922 0.29128 0.21178
 C3 C 0.22519 0.30189 0.18823
 C4 C 0.25972 0.26389 0.18343
 C5 C 0.24857 0.21562 0.20277
 C6 C 0.20277 0.20591 0.22991
 C7 C 0.12585 0.22311 0.25731
 N8 N 0.13428 0.17496 0.27164
 C9 C 0.18120 0.16387 0.25497
 C10 C 0.28567 0.18437 0.18349
 N11 N 0.31857 0.21311 0.15381
 C12 C 0.30319 0.26192 0.15459
 C13 C 0.22412 0.34895 0.16639
 N14 N 0.17825 0.36669 0.17584
 C15 C 0.15050 0.33185 0.20361
 H16 H 0.09219 0.24313 0.26588
 H17 H 0.19812 0.12782 0.26014
 H18 H 0.28717 0.14334 0.18841
 H19 H 0.31977 0.29285 0.13199
 H20 H 0.25295 0.36680 0.14174
 H21 H 0.11138 0.33439 0.21415
 C22 C -0.20293 0.78559 0.25552
 C23 C -0.19881 0.76362 0.20306
 C24 C -0.23357 0.77379 0.16570
 C25 C -0.27283 0.80548 0.17987
 C26 C -0.27849 0.82367 0.23198
 C27 C -0.24401 0.81317 0.26991
 C28 C -0.17163 0.79026 0.29898
 N29 N -0.19416 0.81818 0.33924
 C30 C -0.23873 0.83143 0.32168
 C31 C -0.31649 0.85657 0.23433
 N32 N -0.33365 0.86025 0.18456
 C33 C -0.30753 0.82847 0.15088
 C34 C -0.22092 0.74783 0.11872
 N35 N -0.18020 0.72098 0.12646
 C36 C -0.16595 0.73083 0.17768
 H37 H -0.13481 0.77578 0.30060
 H38 H -0.26356 0.85691 0.34323
 H39 H -0.32781 0.87922 0.26949
 H40 H -0.31147 0.82463 0.10823
 H41 H -0.24107 0.74715 0.08202
 H42 H -0.13461 0.71461 0.19536
 C43 C -0.19192 0.23759 -0.25506
 C44 C -0.21176 0.26910 -0.21384
 C45 C -0.25888 0.25707 -0.19324
 C46 C -0.28733 0.21405 -0.21508
 C47 C -0.26893 0.18417 -0.25785
 C48 C -0.22034 0.19556 -0.27749
 C49 C -0.14297 0.23127 -0.26957
 N50 N -0.14059 0.18628 -0.29995
 C51 C -0.18786 0.16482 -0.30619
 C52 C -0.29992 0.13970 -0.26350
 N53 N -0.33518 0.14127 -0.22419
 C54 C -0.32784 0.18655 -0.19463
 C55 C -0.26325 0.28573 -0.14549
 N56 N -0.21991 0.31479 -0.13724
 C57 C -0.18855 0.30498 -0.17885
 H58 H -0.11116 0.25526 -0.25456
 H59 H -0.19724 0.12648 -0.32439
 H60 H -0.29340 0.10620 -0.29000
 H61 H -0.34805 0.19691 -0.15834
 H62 H -0.29363 0.28201 -0.11688
 H63 H -0.14972 0.31917 -0.18100
 C64 C 0.15380 0.76957 -0.25477
 C65 C 0.15333 0.72235 -0.23110
 C66 C 0.17807 0.71934 -0.18441
 C67 C 0.20454 0.76317 -0.16146
 C68 C 0.20544 0.81016 -0.18485
 C69 C 0.17886 0.81373 -0.23198
 C70 C 0.13478 0.78186 -0.30151
 N71 N 0.14696 0.83265 -0.30863
 C72 C 0.17333 0.85302 -0.26582
 C73 C 0.23844 0.84381 -0.15606
 N74 N 0.25764 0.81788 -0.11680
 C75 C 0.23621 0.76887 -0.11946
 C76 C 0.16989 0.66944 -0.16940
 N77 N 0.14071 0.64216 -0.20606
 C78 C 0.13069 0.67410 -0.24433
 H79 H 0.11370 0.75508 -0.32860
 H80 H 0.18961 0.89236 -0.26112
 H81 H 0.24991 0.88313 -0.16506
 H82 H 0.24491 0.73834 -0.09467
 H83 H 0.18227 0.65464 -0.13317
 H84 H 0.10622 0.66397 -0.27745
 C85 C 0.22018 1.20275 0.74389
 C86 C 0.25504 1.19029 0.78064
 C87 C 0.24525 1.19734 0.83448
 C88 C 0.20059 1.21903 0.85213
 C89 C 0.16599 1.23082 0.81547
 C90 C 0.17489 1.22049 0.76108
 C91 C 0.21854 1.19490 0.68972
 N92 N 0.17229 1.20471 0.67370
 C93 C 0.14503 1.21998 0.71713
 C94 C 0.12821 1.25452 0.84293
 N95 N 0.13871 1.25756 0.89538
 C96 C 0.18225 1.23464 0.90165
 C97 C 0.28338 1.17607 0.86002
 N98 N 0.31527 1.15601 0.82272
 C99 C 0.29831 1.16513 0.77422
 H100 H 0.24712 1.17793 0.66457
 H101 H 0.10598 1.22815 0.71697
 H102 H 0.09635 1.27032 0.82574
 H103 H 0.20105 1.23269 0.93886
 H104 H 0.28611 1.17275 0.90230
 H105 H 0.31433 1.15155 0.73665
 C106 C 0.80979 0.79900 0.75431
 C107 C 0.76217 0.79562 0.77963
 C108 C 0.74689 0.75108 0.80486
 C109 C 0.77877 0.71100 0.80765
 C110 C 0.82609 0.71582 0.78592
 C111 C 0.84116 0.75919 0.75843
 C112 C 0.83543 0.83473 0.72327
 N113 N 0.88088 0.81679 0.70912
 C114 C 0.88441 0.77099 0.73136
 C115 C 0.85090 0.67404 0.79924
 N116 N 0.81925 0.64350 0.82796
 C117 C 0.77469 0.66546 0.83288
 C118 C 0.70099 0.75790 0.82766
 N119 N 0.68772 0.80581 0.81840
 C120 C 0.72462 0.82956 0.78914
 H121 H 0.82180 0.87051 0.71137
 H122 H 0.91553 0.74653 0.72701
 H123 H 0.88944 0.66685 0.78957
 H124 H 0.74271 0.65118 0.85569
 H125 H 0.67982 0.73096 0.85181
 H126 H 0.72465 0.86880 0.77696
 C127 C 0.26252 0.78783 1.28213
 C128 C 0.30003 0.80056 1.24490
 C129 C 0.29230 0.78851 1.19138
 C130 C 0.24728 0.76219 1.17480
 C131 C 0.21027 0.75021 1.21175
 C132 C 0.21730 0.76435 1.26539
 C133 C 0.25534 0.80760 1.33314
 N134 N 0.20624 0.79961 1.34659
 C135 C 0.18288 0.77221 1.30572
 C136 C 0.16920 0.72918 1.18483
 N137 N 0.18034 0.72736 1.13238
 C138 C 0.22771 0.74822 1.12558
 C139 C 0.32891 0.81635 1.16415
 N140 N 0.35803 0.84527 1.19981
 C141 C 0.34093 0.83539 1.24920
 H142 H 0.28206 0.83366 1.35476
 H143 H 0.14281 0.76460 1.30280
 H144 H 0.13384 0.71567 1.20212
 H145 H 0.24683 0.75227 1.08783
 H146 H 0.33096 0.81950 1.12165
 H147 H 0.35370 0.85619 1.28545
 C148 C 0.80913 1.17573 1.24187
 C149 C 0.78357 1.18885 1.19756
 C150 C 0.79109 1.23781 1.17954
 C151 C 0.82458 1.27432 1.20586
 C152 C 0.85071 1.26123 1.24936
 C153 C 0.84309 1.21096 1.26743
 C154 C 0.80869 1.13052 1.26678
 N155 N 0.84208 1.13636 1.30677
 C156 C 0.86363 1.18548 1.30743
 C157 C 0.88194 1.30401 1.26485
 N158 N 0.87515 1.34218 1.23178
 C159 C 0.84022 1.32422 1.19583
 C160 C 0.76167 1.23916 1.13552
 N161 N 0.73678 1.19199 1.12665
 C162 C 0.75009 1.16102 1.16440
 H163 H 0.78636 1.09548 1.25518
 H164 H 0.89210 1.20141 1.33473
 H165 H 0.90872 1.30643 1.29648
 H166 H 0.82823 1.34547 1.16342
 H167 H 0.75864 1.27206 1.11186
 H168 H 0.73600 1.12124 1.16779
 O169 O 0.53457 0.91630 0.93939
 O170 O 0.47099 1.01875 1.10688
 O171 O 0.58065 0.95415 1.03436
 O172 O 0.37364 0.97180 0.97855
 O173 O 0.56094 1.01576 1.09250
 O174 O 0.43712 0.92254 0.95629
 O175 O 0.42588 0.96368 1.05554
 O176 O 0.61175 0.95422 0.94076
 C177 C 0.58056 0.91647 0.92361
 C178 C 0.44325 0.97725 1.10023
 C179 C 0.57739 0.97158 1.08174
 C180 C 0.38981 0.92836 0.95830
 O181 O 0.44253 1.00363 0.89489
 O182 O 0.56194 1.09848 1.03160
 O183 O 0.58401 1.04407 0.92877
 O184 O 0.40419 1.05700 1.05373
 O185 O 0.47273 1.10267 1.04576
 O186 O 0.53244 0.99618 0.87951
 O187 O 0.41939 1.05809 0.95680
 O188 O 0.61946 1.04502 1.01805
 Co189 Co 0.48781 0.96375 0.92436
 Co190 Co 0.51562 1.05613 1.06417
 Co191 Co 0.57629 0.99879 0.98103
 Co192 Co 0.42743 1.00956 1.00390
 O193 O 0.50293 1.01200 0.99588
 C194 C 0.42197 1.04465 0.90884
 C195 C 0.60743 1.09029 1.03019
 C196 C 0.56699 1.03102 0.88403
 C197 C 0.42800 1.09991 1.06040
 O198 O 0.05555 0.51258 0.08489
 O199 O 0.01065 0.48421 -0.11841
 O200 O -0.00294 0.37943 0.01272
 O201 O 0.05757 0.57733 0.01236
 O202 O 0.02596 0.40723 -0.06345
 O203 O 0.02087 0.59956 0.08271
 O204 O 0.05578 0.53566 -0.06888
 O205 O 0.02630 0.43389 0.08869
 C206 C 0.06157 0.46755 0.09567
 C207 C 0.04796 0.51485 -0.11301
 C208 C 0.02691 0.37636 -0.02709
 C209 C 0.05510 0.60922 0.05050
 O210 O -0.06793 0.55985 0.07496
 O211 O -0.06800 0.39573 -0.04589
 O212 O -0.06477 0.47219 0.10293
 O213 O -0.04273 0.55646 -0.08276
 O214 O -0.08153 0.47875 -0.08865
 O215 O -0.01757 0.52726 0.14937
 O216 O -0.04144 0.60078 0.00602
 O217 O -0.09703 0.41981 0.02908
 Co218 Co -0.00708 0.53249 0.07781
 Co219 Co -0.02687 0.44625 -0.07151
 Co220 Co -0.03326 0.43131 0.05405
 Co221 Co 0.00560 0.56241 -0.03035
 O222 O -0.01439 0.49358 0.00378
 C223 C -0.07267 0.59478 0.04372
 C224 C -0.10473 0.40032 -0.01615
 C225 C -0.04825 0.48631 0.14829
 C226 C -0.08022 0.52617 -0.09608
 O227 O 1.09225 0.05904 0.43289
 O228 O 0.95753 0.06218 0.56907
 O229 O 0.95203 -0.00046 0.40340
 O230 O 1.04628 0.08137 0.55852
 O231 O 0.93226 0.05174 0.47212
 O232 O 1.11582 0.05892 0.52905
 O233 O 1.00510 0.03951 0.63354
 O234 O 1.04300 0.00741 0.37928
 C235 C 1.07041 0.04927 0.38894
 C236 C 0.96739 0.06498 0.61864
 C237 C 0.92840 0.03701 0.42369
 C238 C 1.09037 0.09360 0.54848
 O239 O 1.11428 -0.04242 0.51866
 O240 O 0.91059 -0.04645 0.48192
 O241 O 1.04945 -0.09255 0.41728
 O242 O 1.01346 -0.05183 0.58996
 O243 O 0.93782 -0.04112 0.57425
 O244 O 1.10708 -0.03531 0.42162
 O245 O 1.09083 -0.00401 0.59184
 O246 O 0.96157 -0.09444 0.43844
 Co247 Co 1.10034 0.00864 0.47824
 Co248 Co 0.94325 0.00551 0.52203
 Co249 Co 1.00366 -0.04148 0.41656
 Co250 Co 1.02855 0.01317 0.57107
 O251 O 1.02123 -0.00609 0.49421
 C252 C 1.11199 -0.04096 0.56788
 C253 C 0.91894 -0.08762 0.45574
 C254 C 1.09475 -0.08167 0.41912
 C255 C 0.96914 -0.06632 0.59521
 C256 C 1.10160 0.14434 0.29952
 C257 C 1.05108 0.15158 0.30507
 C258 C 1.03275 0.11451 0.33713
 C259 C 1.07337 0.08829 0.34967
 O260 O 1.11539 0.10593 0.32681
 H261 H 1.02997 0.18016 0.28779
 H262 H 0.99469 0.10856 0.35150
 C263 C 0.82579 -0.16338 0.38655
 C264 C 0.79720 -0.14603 0.42940
 C265 C 0.82997 -0.12059 0.46377
 C266 C 0.87628 -0.12350 0.43953
 O267 O 0.87409 -0.15025 0.39277
 H268 H 0.75694 -0.14908 0.43385
 H269 H 0.82073 -0.09847 0.50007
 C270 C 0.90179 0.16238 0.68581
 C271 C 0.94882 0.17769 0.70495
 C272 C 0.97912 0.14111 0.68424
 C273 C 0.94867 0.10698 0.65341
 O274 O 0.90172 0.11965 0.65407
 H275 H 0.95981 0.21061 0.73166
 H276 H 1.01899 0.14029 0.68950
 C277 C 1.13718 -0.14381 0.64644
 C278 C 1.12595 -0.17147 0.59914
 C279 C 1.11788 -0.13561 0.56475
 C280 C 1.12403 -0.08829 0.59296
 O281 O 1.13609 -0.09277 0.64317
 H282 H 1.12397 -0.21292 0.59029
 H283 H 1.10605 -0.14332 0.52421
 C284 C 0.35761 1.19576 1.12405
 C285 C 0.39300 1.22790 1.09965
 C286 C 0.42396 1.19564 1.07300
 C287 C 0.40488 1.14638 1.08223
 O288 O 0.36472 1.14601 1.11360
 H289 H 0.39648 1.26977 1.10142
 H290 H 0.45648 1.20661 1.04923
 C291 C 0.29571 0.83589 0.91566
 C292 C 0.31949 0.80581 0.94941
 C293 C 0.35818 0.83698 0.96975
 C294 C 0.35453 0.88372 0.94788
 O295 O 0.31674 0.88350 0.91507
 H296 H 0.31109 0.76563 0.95713
 H297 H 0.38586 0.82696 0.99719
 C298 C 0.63300 0.89437 1.17085
 C299 C 0.60791 0.92585 1.20726
 C300 C 0.58317 0.95747 1.17797
 C301 C 0.59435 0.94312 1.12583
 O302 O 0.62449 0.90442 1.12106
 H303 H 0.60834 0.92691 1.25007
 H304 H 0.56063 0.98850 1.19289
 C305 C 0.63298 1.10139 0.78940
 C306 C 0.62040 1.05777 0.75684
 C307 C 0.59079 1.02678 0.78765
 C308 C 0.58872 1.05341 0.83667
 O309 O 0.61389 1.09884 0.83783
 H310 H 0.63173 1.04931 0.71603
 H311 H 0.57481 0.98822 0.77665
 C312 C 0.15888 0.40941 0.15211
 C313 C 0.18692 0.45273 0.13717
 C314 C 0.15361 0.48185 0.11446
 C315 C 0.10846 0.45327 0.11676
 O316 O 0.11152 0.40952 0.13971
 H317 H 0.22654 0.46180 0.14214
 H318 H 0.16135 0.51878 0.09739
 C319 C -0.20369 0.34301 -0.08948
 C320 C -0.23097 0.34957 -0.04280
 C321 C -0.19773 0.37405 -0.00719
 C322 C -0.15334 0.37976 -0.03538
 O323 O -0.15713 0.36127 -0.08482
 H324 H -0.26950 0.33685 -0.03519
 H325 H -0.20456 0.38485 0.03428
 C326 C 0.11631 0.59228 -0.19867
 C327 C 0.09093 0.56154 -0.23735
 C328 C 0.06487 0.52389 -0.21070
 C329 C 0.07635 0.53495 -0.15803
 O330 O 0.10771 0.57609 -0.15088
 H331 H 0.08903 0.56775 -0.27913
 H332 H 0.03763 0.49480 -0.22701
 C333 C -0.15727 0.68705 0.08710
 C334 C -0.16456 0.68809 0.03328
 C335 C -0.13482 0.65214 0.01024
 C336 C -0.11227 0.63118 0.05159
 O337 O -0.12553 0.65246 0.09851
 H338 H -0.18748 0.71312 0.01310
 H339 H -0.12930 0.64297 -0.03179
 C340 C 1.15464 0.19090 0.62448
 C341 C 1.18449 0.19180 0.57945
 C342 C 1.15886 0.16153 0.54200
 C343 C 1.11567 0.14322 0.56698
 O344 O 1.11254 0.16178 0.61701
 H345 H 1.22219 0.20892 0.57573
 H346 H 1.17293 0.14881 0.50319
 C347 C 0.91692 -0.16101 0.67740
 C348 C 0.96347 -0.18029 0.66828
 C349 C 0.98800 -0.14747 0.63576
 C350 C 0.95502 -0.11081 0.62663
 O351 O 0.91153 -0.11856 0.65196
 H352 H 0.97863 -0.21362 0.68393
 H353 H 1.02573 -0.14970 0.62064
 C354 C 1.18300 -0.17229 0.38580
 C355 C 1.20840 -0.14516 0.42674
 C356 C 1.17666 -0.11032 0.44678
 C357 C 1.13337 -0.11941 0.41797
 O358 O 1.13696 -0.15749 0.38089
 H359 H 1.24692 -0.14727 0.43774
 H360 H 1.18610 -0.07945 0.47630
 C361 C 0.85278 0.09838 0.33876
 C362 C 0.82732 0.05009 0.33748
 C363 C 0.85159 0.02273 0.37147
 C364 C 0.88969 0.05600 0.39150
 O365 O 0.89085 0.10229 0.37192
 H366 H 0.79561 0.03567 0.31389
 H367 H 0.84360 -0.01750 0.37955
 C368 C 0.11199 0.28380 -0.06655
 C369 C 0.11847 0.28289 -0.01251
 C370 C 0.08527 0.31600 0.00998
 C371 C 0.06202 0.33522 -0.03201
 O372 O 0.07794 0.31564 -0.07838
 H373 H 0.14413 0.26106 0.00804
 H374 H 0.08002 0.32648 0.05180
 C375 C -0.09667 0.39110 0.22892
 C376 C -0.05965 0.41099 0.26315
 C377 C -0.03832 0.45380 0.23996
 C378 C -0.06399 0.45624 0.19357
 O379 O -0.09936 0.41862 0.18729
 H380 H -0.04778 0.39483 0.29881
 H381 H -0.00565 0.47758 0.25303
 C382 C -0.16797 0.60051 -0.14925
 C383 C -0.20136 0.56460 -0.12751
 C384 C -0.17231 0.52944 -0.10781
 C385 C -0.12375 0.54736 -0.11806
 O386 O -0.12092 0.59027 -0.14340
 H387 H -0.24170 0.56407 -0.12598
 H388 H -0.18483 0.49624 -0.08609
 C389 C 0.14843 0.70275 0.09230
 C390 C 0.15907 0.70227 0.03871
 C391 C 0.12335 0.66882 0.01596
 C392 C 0.09353 0.65180 0.05732
 O393 O 0.10858 0.67236 0.10384
 H394 H 0.19019 0.72194 0.01883
 H395 H 0.12063 0.65646 -0.02569
 C396 C 0.35587 1.12428 0.83189
 C397 C 0.38608 1.10365 0.79203
 C398 C 0.41532 1.07168 0.81616
 C399 C 0.40119 1.07538 0.86889
 O400 O 0.36511 1.10739 0.87882
 H401 H 0.38609 1.10989 0.75018
 H402 H 0.44325 1.04791 0.79750
 C403 C 0.39317 0.88707 1.18721
 C404 C 0.42168 0.91724 1.22390
 C405 C 0.44507 0.95544 1.19602
 C406 C 0.42907 0.94555 1.14468
 O407 O 0.39767 0.90411 1.13917
 H408 H 0.42425 0.91282 1.26597
 H409 H 0.46991 0.98722 1.21143
 C410 C 0.70040 1.17724 1.08650
 C411 C 0.67873 1.21159 1.05600
 C412 C 0.64207 1.18267 1.02883
 C413 C 0.64477 1.13283 1.04399
 O414 O 0.67994 1.12940 1.07926
 H415 H 0.68684 1.25298 1.05557
 H416 H 0.61538 1.19648 1.00246
 C417 C 0.64349 0.82724 0.84064
 C418 C 0.59815 0.79913 0.84330
 C419 C 0.56833 0.82933 0.87450
 C420 C 0.59801 0.87313 0.88934
 O421 O 0.64381 0.87218 0.86874
 H422 H 0.58861 0.76063 0.82572
 H423 H 0.52985 0.82014 0.88598
   
