data_POSCAR
  _audit_creation_date              2014-09-24
  _audit_creation_method            'ToBaCCo'
  _symmetry_space_group_name_H-M    'P1'
  _symmetry_Int_Tables_number       1
  _symmetry_cell_setting            triclinic
  loop_
  _symmetry_equiv_pos_as_xyz
 x,y,z
_cell_length_a 23.6791
_cell_length_b 23.7030
_cell_length_c 37.0496
_cell_angle_alpha 90.763000
_cell_angle_beta 90.846700
_cell_angle_gamma 90.056700
loop_
  _atom_site_label
  _atom_site_type_symbol
  _atom_site_fract_x
  _atom_site_fract_y
  _atom_site_fract_z
O1 O -0.05446 0.55455 0.96563
 O2 O -0.05855 0.44400 1.03212
 O3 O -0.04737 0.55249 1.03423
 O4 O -0.04184 0.44287 0.96132
 O5 O 0.05055 0.43933 0.96913
 O6 O 0.04578 0.55607 1.03338
 O7 O 0.03403 0.44717 1.03898
 O8 O 0.03862 0.54970 0.96366
 Cu9 Cu -0.05887 0.49722 0.99738
 Cu10 Cu 0.05131 0.49771 1.00143
 C11 C -0.00807 0.57130 0.95307
 C12 C -0.01395 0.42744 1.04798
 C13 C -0.00073 0.57423 1.04517
 C14 C 0.00599 0.42160 0.95357
 O15 O 0.55869 -0.05602 0.53066
 O16 O 0.44444 -0.05254 0.46452
 O17 O 0.55444 -0.04011 0.46129
 O18 O 0.44856 -0.04425 0.53462
 O19 O 0.44712 0.04897 0.53456
 O20 O 0.56039 0.05208 0.46990
 O21 O 0.44811 0.04040 0.46343
 O22 O 0.55479 0.03616 0.53843
 Cu23 Cu 0.50155 -0.05724 0.49745
 Cu24 Cu 0.50197 0.05275 0.50110
 C25 C 0.57594 -0.01162 0.54668
 C26 C 0.42678 -0.00620 0.45225
 C27 C 0.57662 0.00748 0.45406
 C28 C 0.42884 0.00262 0.54627
 C29 C -0.07194 0.02199 0.27161
 C30 C -0.02552 0.02780 0.24928
 C31 C -0.01980 0.07576 0.22825
 C32 C -0.05955 0.11979 0.23000
 C33 C -0.10654 0.11334 0.25275
 C34 C -0.11355 0.06405 0.27323
 C35 C 0.01795 -0.01615 0.24844
 C36 C 0.01034 -0.06412 0.22668
 C37 C 0.05136 -0.10689 0.22602
 C38 C 0.10088 -0.10001 0.24735
 C39 C 0.10910 -0.05141 0.26924
 C40 C 0.06678 -0.00994 0.26966
 H41 H -0.07482 -0.01518 0.28819
 H42 H 0.01564 0.07779 0.21020
 H43 H -0.02733 -0.06731 0.20983
 H44 H 0.07090 0.02698 0.28706
 H45 H -0.13782 0.14637 0.25453
 H46 H 0.13293 -0.13248 0.24694
 C47 C -0.00952 -0.07519 0.77124
 C48 C -0.01482 -0.02842 0.74904
 C49 C -0.06270 -0.02202 0.72710
 C50 C -0.10713 -0.06144 0.72778
 C51 C -0.10119 -0.10877 0.75038
 C52 C -0.05209 -0.11642 0.77185
 C53 C 0.02921 0.01510 0.74962
 C54 C 0.07716 0.00855 0.72857
 C55 C 0.11973 0.04993 0.72903
 C56 C 0.11258 0.09879 0.75075
 C57 C 0.06381 0.10603 0.77178
 C58 C 0.02272 0.06325 0.77118
 H59 H 0.02750 -0.07852 0.78861
 H60 H -0.06446 0.01378 0.70930
 H61 H 0.08039 -0.02851 0.71131
 H62 H -0.01429 0.06665 0.78791
 H63 H -0.13462 -0.13973 0.75136
 H64 H 0.14477 0.13120 0.75119
 C65 C 0.01489 -0.29240 0.12426
 C66 C -0.02825 -0.33314 0.12722
 C67 C -0.03545 -0.37553 0.10075
 C68 C 0.00102 -0.37841 0.07131
 C69 C 0.04299 -0.33712 0.06789
 C70 C 0.04941 -0.29434 0.09373
 C71 C 0.02445 -0.24790 0.15253
 C72 C 0.07933 -0.22767 0.16023
 C73 C 0.08823 -0.18279 0.18446
 C74 C 0.04261 -0.15756 0.20229
 C75 C -0.01197 -0.17965 0.19598
 C76 C -0.02100 -0.22387 0.17121
 H77 H -0.06785 -0.40726 0.10400
 H78 H 0.07116 -0.33805 0.04510
 H79 H 0.13077 -0.16689 0.18833
 H80 H -0.04805 -0.16233 0.20988
 H81 H 0.08167 -0.26276 0.08968
 H82 H 0.11568 -0.24609 0.14720
 H83 H -0.05544 -0.33328 0.15044
 H84 H -0.06384 -0.23804 0.16600
 C85 C -0.03098 0.30624 0.13064
 C86 C 0.02030 0.33585 0.12657
 C87 C 0.02677 0.37496 0.09885
 C88 C -0.01862 0.38730 0.07538
 C89 C -0.07002 0.35851 0.07988
 C90 C -0.07566 0.31793 0.10643
 C91 C -0.03777 0.26209 0.15889
 C92 C -0.09166 0.24756 0.17163
 C93 C -0.09880 0.20214 0.19482
 C94 C -0.05206 0.17112 0.20737
 C95 C 0.00216 0.18835 0.19676
 C96 C 0.00910 0.23217 0.17236
 H97 H 0.06684 0.39659 0.09649
 H98 H -0.10590 0.36595 0.06210
 H99 H -0.14138 0.19069 0.20194
 H100 H 0.03975 0.16755 0.20679
 H101 H -0.11514 0.29510 0.10723
 H102 H -0.12896 0.27059 0.16340
 H103 H 0.05559 0.32948 0.14489
 H104 H 0.05140 0.24113 0.16347
 C105 C 0.30168 0.01784 0.62735
 C106 C 0.34172 -0.02615 0.62910
 C107 C 0.38209 -0.03299 0.60204
 C108 C 0.38375 0.00471 0.57323
 C109 C 0.34335 0.04781 0.57113
 C110 C 0.30248 0.05388 0.59753
 C111 C 0.25872 0.02635 0.65598
 C112 C 0.23900 0.08087 0.66462
 C113 C 0.19496 0.08873 0.68885
 C114 C 0.17016 0.04238 0.70578
 C115 C 0.19208 -0.01183 0.69874
 C116 C 0.23533 -0.01981 0.67391
 H117 H 0.41318 -0.06628 0.60431
 H118 H 0.34335 0.07699 0.54886
 H119 H 0.17923 0.13106 0.69331
 H120 H 0.17521 -0.04848 0.71198
 H121 H 0.27134 0.08690 0.59436
 H122 H 0.25701 0.11774 0.65225
 H123 H 0.34283 -0.05449 0.65176
 H124 H 0.24908 -0.06242 0.66802
 C125 C -0.29669 -0.02964 0.62767
 C126 C -0.30947 -0.07355 0.60297
 C127 C -0.35188 -0.06751 0.57689
 C128 C -0.38162 -0.01642 0.57339
 C129 C -0.36797 0.02839 0.59721
 C130 C -0.32687 0.02147 0.62446
 C131 C -0.25117 -0.03725 0.65574
 C132 C -0.22036 0.00912 0.66965
 C133 C -0.17568 0.00140 0.69415
 C134 C -0.15864 -0.05311 0.70448
 C135 C -0.19033 -0.09937 0.69130
 C136 C -0.23649 -0.09146 0.66799
 H137 H -0.36019 -0.10288 0.55875
 H138 H -0.39017 0.06823 0.59556
 H139 H -0.15424 0.03860 0.70459
 H140 H -0.17899 -0.14213 0.69811
 H141 H -0.31950 0.05619 0.64315
 H142 H -0.22946 0.05161 0.66108
 H143 H -0.28621 -0.11276 0.60309
 H144 H -0.26011 -0.12841 0.65935
 C145 C -0.02209 -0.29912 0.87344
 C146 C 0.02041 -0.34060 0.87062
 C147 C 0.02686 -0.38186 0.89717
 C148 C -0.00980 -0.38298 0.92652
 C149 C -0.05141 -0.34121 0.92968
 C150 C -0.05704 -0.29947 0.90378
 C151 C -0.03021 -0.25528 0.84531
 C152 C -0.08439 -0.23364 0.83757
 C153 C -0.09173 -0.18937 0.81342
 C154 C -0.04524 -0.16625 0.79569
 C155 C 0.00855 -0.18976 0.80208
 C156 C 0.01605 -0.23325 0.82679
 H157 H 0.05899 -0.41398 0.89410
 H158 H -0.07972 -0.34078 0.95240
 H159 H -0.13372 -0.17233 0.80952
 H160 H 0.04524 -0.17412 0.78826
 H161 H -0.08886 -0.26732 0.90774
 H162 H -0.12138 -0.25048 0.85045
 H163 H 0.04783 -0.34211 0.84753
 H164 H 0.05843 -0.24841 0.83204
 C165 C 0.02800 0.29205 0.87258
 C166 C 0.06315 0.29501 0.90347
 C167 C 0.05517 0.33673 0.92977
 C168 C 0.01106 0.37588 0.92640
 C169 C -0.02538 0.37230 0.89627
 C170 C -0.01665 0.33114 0.86940
 C171 C 0.03771 0.24768 0.84438
 C172 C -0.00788 0.22307 0.82522
 C173 C 0.00099 0.17889 0.80062
 C174 C 0.05555 0.15715 0.79502
 C175 C 0.10138 0.18298 0.81322
 C176 C 0.09263 0.22796 0.83729
 H177 H 0.08351 0.33820 0.95299
 H178 H -0.05938 0.40241 0.89293
 H179 H -0.03527 0.16120 0.78638
 H180 H 0.14395 0.16743 0.80980
 H181 H -0.04424 0.33076 0.84586
 H182 H -0.05079 0.23663 0.82994
 H183 H 0.09676 0.26479 0.90764
 H184 H 0.12908 0.24679 0.85069
 C185 C -0.29552 0.02885 0.37413
 C186 C -0.29635 0.06272 0.40557
 C187 C -0.33752 0.05490 0.43153
 C188 C -0.37823 0.01218 0.42726
 C189 C -0.37676 -0.02308 0.39661
 C190 C -0.33614 -0.01446 0.37008
 C191 C -0.25189 0.03855 0.34620
 C192 C -0.22944 -0.00681 0.32630
 C193 C -0.18624 0.00195 0.30172
 C194 C -0.16330 0.05612 0.29687
 C195 C -0.18682 0.10177 0.31596
 C196 C -0.23086 0.09317 0.34002
 H197 H -0.33738 0.08229 0.45518
 H198 H -0.40810 -0.05597 0.39260
 H199 H -0.17031 -0.03411 0.28682
 H200 H -0.17024 0.14402 0.31317
 H201 H -0.33743 -0.04101 0.34609
 H202 H -0.24403 -0.04951 0.33034
 H203 H -0.26491 0.09522 0.41039
 H204 H -0.24800 0.12949 0.35405
 C205 C 0.29580 -0.02052 0.37109
 C206 C 0.29759 -0.05653 0.40093
 C207 C 0.33972 -0.05077 0.42733
 C208 C 0.38049 -0.00802 0.42521
 C209 C 0.37791 0.02965 0.39637
 C210 C 0.33621 0.02313 0.36931
 C211 C 0.25144 -0.02871 0.34247
 C212 C 0.22756 0.01762 0.32458
 C213 C 0.18311 0.00994 0.29975
 C214 C 0.16051 -0.04415 0.29262
 C215 C 0.18572 -0.09067 0.30952
 C216 C 0.23091 -0.08310 0.33378
 H217 H 0.34039 -0.07991 0.44962
 H218 H 0.40923 0.06269 0.39409
 H219 H 0.16589 0.04671 0.28654
 H220 H 0.16950 -0.13291 0.30500
 H221 H 0.33655 0.05144 0.34665
 H222 H 0.24191 0.06015 0.33052
 H223 H 0.26625 -0.08929 0.40410
 H224 H 0.24922 -0.12009 0.34613
   
