data_POSCAR
  _audit_creation_date              2014-09-24
  _audit_creation_method            'ToBaCCo'
  _symmetry_space_group_name_H-M    'P1'
  _symmetry_Int_Tables_number       1
  _symmetry_cell_setting            triclinic
  loop_
  _symmetry_equiv_pos_as_xyz
 x,y,z
_cell_length_a 37.4830
_cell_length_b 36.6225
_cell_length_c 37.5285
_cell_angle_alpha 82.828600
_cell_angle_beta 95.214900
_cell_angle_gamma 94.879200
loop_
  _atom_site_label
  _atom_site_type_symbol
  _atom_site_fract_x
  _atom_site_fract_y
  _atom_site_fract_z
C1 C 0.28990 0.30914 0.23931
 H2 H 0.29327 0.30834 0.26832
 C3 C 0.31423 0.33083 0.21806
 H4 H 0.33619 0.34701 0.23078
 C5 C 0.25793 0.28799 0.18745
 H6 H 0.23687 0.27034 0.17555
 C7 C 0.28125 0.30981 0.16516
 H8 H 0.27763 0.30899 0.13630
 N9 N 0.26245 0.28821 0.22383
 C10 C 0.18455 0.26646 0.30522
 H11 H 0.18274 0.23661 0.30926
 C12 C 0.16469 0.28595 0.32518
 H13 H 0.14796 0.27084 0.34493
 C14 C 0.20928 0.32229 0.27501
 H15 H 0.22641 0.33633 0.25516
 C16 C 0.18982 0.34287 0.29429
 H17 H 0.19211 0.37268 0.28890
 Zn18 Zn 0.23364 0.25680 0.25577
 N19 N 0.20671 0.28481 0.28114
 C20 C 0.26795 0.22896 0.32416
 N21 N 0.26601 0.22912 0.28774
 C22 C 0.28868 0.21025 0.27192
 C23 C 0.31433 0.18978 0.29282
 C24 C 0.29322 0.20864 0.34618
 C25 C 0.17809 0.23814 0.20331
 C26 C 0.15701 0.21449 0.18200
 C27 C 0.18132 0.16263 0.21969
 C28 C 0.20249 0.18724 0.23968
 N29 N 0.20146 0.22427 0.23049
 H30 H 0.25023 0.24479 0.33618
 H31 H 0.28673 0.21116 0.24288
 H32 H 0.33176 0.17454 0.27965
 H33 H 0.29468 0.20894 0.37509
 H34 H 0.17700 0.26770 0.19717
 H35 H 0.14039 0.22634 0.15910
 H36 H 0.18281 0.13331 0.22756
 H37 H 0.22005 0.17663 0.26233
 C38 C 0.16738 0.32472 0.32002
 C39 C 0.31001 0.33124 0.18051
 C40 C 0.15908 0.17608 0.18954
 C41 C 0.31691 0.18884 0.33046
 C42 C 0.79495 0.81107 0.23366
 H43 H 0.80080 0.81060 0.26239
 C44 C 0.81793 0.83222 0.21050
 H45 H 0.84091 0.84745 0.22257
 C46 C 0.76067 0.78769 0.18444
 H47 H 0.73906 0.76967 0.17407
 C48 C 0.78293 0.80828 0.16028
 H49 H 0.77612 0.80670 0.13187
 N50 N 0.76667 0.78960 0.22046
 C51 C 0.67669 0.78042 0.28133
 H52 H 0.66295 0.75875 0.26713
 C53 C 0.65707 0.80036 0.30109
 H54 H 0.62843 0.79369 0.30181
 C55 C 0.73069 0.81414 0.29917
 H56 H 0.75943 0.81906 0.29902
 C57 C 0.71211 0.83478 0.31922
 H58 H 0.72682 0.85600 0.33350
 Zn59 Zn 0.73864 0.75892 0.25413
 N60 N 0.71286 0.78763 0.28054
 C61 C 0.77246 0.73024 0.32207
 N62 N 0.77125 0.73123 0.28563
 C63 C 0.79395 0.71240 0.26982
 C64 C 0.81898 0.69117 0.29080
 C65 C 0.79736 0.70950 0.34415
 C66 C 0.68184 0.73928 0.20294
 C67 C 0.65999 0.71526 0.18269
 C68 C 0.68464 0.66392 0.22090
 C69 C 0.70659 0.68890 0.23982
 N70 N 0.70566 0.72584 0.22994
 H71 H 0.75413 0.74543 0.33406
 H72 H 0.79230 0.71367 0.24077
 H73 H 0.83614 0.67571 0.27755
 H74 H 0.79826 0.70936 0.37308
 H75 H 0.68078 0.76879 0.19623
 H76 H 0.64297 0.72678 0.15995
 H77 H 0.68599 0.63469 0.22938
 H78 H 0.72459 0.67862 0.26224
 C79 C 0.67478 0.82798 0.32040
 C80 C 0.81254 0.83099 0.17293
 C81 C 0.66174 0.67690 0.19106
 C82 C 0.82107 0.68957 0.32853
 C83 C 0.79410 0.30998 0.74154
 H84 H 0.79823 0.30852 0.77058
 C85 C 0.81794 0.33207 0.72003
 H86 H 0.84027 0.34790 0.73258
 C87 C 0.76072 0.29009 0.68984
 H88 H 0.73927 0.27279 0.67806
 C89 C 0.78355 0.31227 0.66732
 H90 H 0.77918 0.31204 0.63842
 N91 N 0.76621 0.28945 0.72626
 C92 C 0.68905 0.26528 0.80831
 H93 H 0.68699 0.23542 0.81155
 C94 C 0.66909 0.28427 0.82866
 H95 H 0.65216 0.26874 0.84799
 C96 C 0.71411 0.32163 0.77942
 H97 H 0.73132 0.33611 0.75987
 C98 C 0.69453 0.34171 0.79906
 H99 H 0.69685 0.37155 0.79423
 Zn100 Zn 0.73815 0.25707 0.75814
 N101 N 0.71143 0.28411 0.78470
 C102 C 0.77101 0.22371 0.82527
 N103 N 0.77102 0.22867 0.78881
 C104 C 0.79559 0.21358 0.77188
 C105 C 0.82143 0.19239 0.79153
 C106 C 0.79596 0.20200 0.84613
 C107 C 0.68132 0.23932 0.70662
 C108 C 0.65986 0.21611 0.68515
 C109 C 0.68650 0.16382 0.71990
 C110 C 0.70797 0.18803 0.74008
 N111 N 0.70585 0.22509 0.73245
 H112 H 0.75179 0.23666 0.83837
 H113 H 0.79486 0.21780 0.74278
 H114 H 0.83897 0.17970 0.77618
 H115 H 0.79544 0.20003 0.87506
 H116 H 0.67951 0.26887 0.70169
 H117 H 0.64217 0.22829 0.66330
 H118 H 0.68882 0.13446 0.72654
 H119 H 0.72664 0.17710 0.76159
 C120 C 0.67186 0.32305 0.82433
 C121 C 0.81279 0.33325 0.68243
 C122 C 0.66287 0.17776 0.69112
 C123 C 0.82223 0.18573 0.82960
 C124 C 0.29721 0.80841 0.73418
 H125 H 0.30188 0.80835 0.76307
 C126 C 0.32067 0.82945 0.71143
 H127 H 0.34349 0.84519 0.72323
 C128 C 0.26306 0.78590 0.68422
 H129 H 0.24134 0.76816 0.67356
 C130 C 0.28544 0.80697 0.66048
 H131 H 0.27961 0.80591 0.63184
 N132 N 0.26907 0.78715 0.72036
 C133 C 0.19319 0.76747 0.80370
 H134 H 0.19112 0.73762 0.80772
 C135 C 0.17333 0.78713 0.82346
 H136 H 0.15634 0.77216 0.84306
 C137 C 0.21835 0.82310 0.77350
 H138 H 0.23559 0.83697 0.75366
 C139 C 0.19895 0.84388 0.79267
 H140 H 0.20140 0.87369 0.78728
 Zn141 Zn 0.24100 0.75678 0.75379
 N142 N 0.21539 0.78561 0.77956
 C143 C 0.27678 0.73005 0.82159
 N144 N 0.27358 0.72889 0.78534
 C145 C 0.29466 0.70818 0.76961
 C146 C 0.31962 0.68680 0.79054
 C147 C 0.30154 0.70909 0.84361
 C148 C 0.18333 0.73848 0.70348
 C149 C 0.16101 0.71499 0.68302
 C150 C 0.18524 0.66291 0.72042
 C151 C 0.20766 0.68736 0.73951
 N152 N 0.20730 0.72439 0.72996
 H153 H 0.26036 0.74735 0.83350
 H154 H 0.29176 0.70806 0.74068
 H155 H 0.33547 0.66983 0.77746
 H156 H 0.30394 0.71050 0.87238
 H157 H 0.18273 0.76808 0.69713
 H158 H 0.14398 0.72698 0.66052
 H159 H 0.18625 0.63358 0.72853
 H160 H 0.22563 0.67660 0.76174
 C161 C 0.17612 0.82589 0.81813
 C162 C 0.31505 0.82883 0.67395
 C163 C 0.16242 0.67652 0.69080
 C164 C 0.32333 0.68702 0.82809
 C165 C 0.03743 -0.03304 -0.03275
 C166 C 0.05974 -0.01041 -0.00555
 C167 C 0.03994 0.00909 0.01312
 C168 C -0.00073 0.00384 0.00305
 C169 C 0.01066 -0.05728 -0.00966
 C170 C -0.00956 -0.03812 0.00877
 C171 C 0.01468 -0.00522 -0.05645
 C172 C -0.00531 0.01423 -0.03801
 H173 H 0.08861 -0.01032 -0.00098
 H174 H -0.01704 0.01927 0.01833
 H175 H 0.00921 -0.08714 -0.00655
 H176 H 0.01366 -0.00240 -0.08558
 C177 C 0.03318 0.46751 0.47162
 C178 C 0.05613 0.49070 0.49790
 C179 C 0.03685 0.51068 0.51666
 C180 C -0.00401 0.50548 0.50740
 C181 C 0.00700 0.44379 0.49585
 C182 C -0.01261 0.46364 0.51408
 C183 C 0.01016 0.49510 0.44787
 C184 C -0.00918 0.51514 0.46633
 H185 H 0.08502 0.49054 0.50206
 H186 H -0.02004 0.52106 0.52290
 H187 H 0.00527 0.41391 0.49972
 H188 H 0.00906 0.49799 0.41872
 C189 C 0.53736 -0.02611 0.46611
 C190 C 0.55972 -0.00363 0.49333
 C191 C 0.53992 0.01406 0.51364
 C192 C 0.49916 0.00832 0.50414
 C193 C 0.51104 -0.05150 0.48849
 C194 C 0.49091 -0.03378 0.50842
 C195 C 0.51430 0.00251 0.44368
 C196 C 0.49410 0.02032 0.46339
 H197 H 0.58869 0.00051 0.49436
 H198 H 0.48270 0.02308 0.51990
 H199 H 0.50970 -0.08124 0.48931
 H200 H 0.51412 0.00837 0.41468
 C201 C 0.53457 0.46492 -0.02595
 C202 C 0.55710 0.48828 0.00046
 C203 C 0.53750 0.50838 0.01875
 C204 C 0.49674 0.50312 0.00895
 C205 C 0.50806 0.44131 -0.00202
 C206 C 0.48811 0.46128 0.01575
 C207 C 0.51178 0.49237 -0.05018
 C208 C 0.49209 0.51256 -0.03219
 H209 H 0.58596 0.48814 0.00503
 H210 H 0.48048 0.51877 0.02415
 H211 H 0.50626 0.41144 0.00191
 H212 H 0.51099 0.49493 -0.07930
 C213 C 0.11678 -0.11301 -0.12008
 C214 C 0.15224 -0.10049 -0.12692
 C215 C 0.17145 -0.12042 -0.14734
 C216 C 0.15542 -0.15265 -0.16091
 C217 C 0.11966 -0.16454 -0.15407
 C218 C 0.10023 -0.14483 -0.13367
 C219 C 0.09662 -0.09245 -0.09820
 C220 C 0.06115 -0.10485 -0.09151
 C221 C 0.04218 -0.08533 -0.07053
 C222 C 0.05867 -0.05410 -0.05527
 C223 C 0.09386 -0.04122 -0.06380
 C224 C 0.11309 -0.06058 -0.08473
 C225 C 0.06458 -0.15630 -0.12655
 C226 C 0.04535 -0.13660 -0.10590
 C227 C 0.16779 -0.06837 -0.11308
 C228 C 0.14851 -0.04869 -0.09244
 H229 H 0.05146 -0.18074 -0.13697
 H230 H 0.01794 -0.14643 -0.10098
 H231 H 0.19510 -0.05837 -0.11821
 H232 H 0.16153 -0.02408 -0.08224
 H233 H 0.19904 -0.11124 -0.15211
 H234 H 0.10687 -0.18894 -0.16488
 H235 H 0.01448 -0.09446 -0.06628
 H236 H 0.10636 -0.01595 -0.05467
 C237 C 0.11001 0.38602 0.38346
 C238 C 0.14515 0.39860 0.37549
 C239 C 0.16370 0.37851 0.35466
 C240 C 0.14732 0.34612 0.34166
 C241 C 0.11188 0.33413 0.34968
 C242 C 0.09312 0.35397 0.37060
 C243 C 0.09052 0.40684 0.40571
 C244 C 0.05535 0.39439 0.41355
 C245 C 0.03700 0.41422 0.43481
 C246 C 0.05381 0.44587 0.44910
 C247 C 0.08866 0.45871 0.43946
 C248 C 0.10729 0.43902 0.41833
 C249 C 0.05780 0.34245 0.37889
 C250 C 0.03922 0.36236 0.39995
 C251 C 0.16104 0.43097 0.38858
 C252 C 0.14238 0.45092 0.40952
 H253 H 0.04442 0.31782 0.36906
 H254 H 0.01204 0.35249 0.40576
 H255 H 0.18813 0.44100 0.38256
 H256 H 0.15563 0.47575 0.41905
 H257 H 0.19109 0.38775 0.34907
 H258 H 0.09880 0.30960 0.33937
 H259 H 0.00952 0.40507 0.43998
 H260 H 0.10133 0.48424 0.44786
 C261 C 0.61628 -0.11059 0.38265
 C262 C 0.65019 -0.12185 0.39648
 C263 C 0.66918 -0.14194 0.37604
 C264 C 0.65452 -0.15075 0.34195
 C265 C 0.62036 -0.13931 0.32860
 C266 C 0.60110 -0.11931 0.34889
 C267 C 0.59625 -0.08933 0.40399
 C268 C 0.56222 -0.07840 0.39035
 C269 C 0.54328 -0.05821 0.41074
 C270 C 0.55854 -0.04780 0.44416
 C271 C 0.59221 -0.06047 0.45796
 C272 C 0.61132 -0.08078 0.43782
 C273 C 0.56694 -0.10786 0.33611
 C274 C 0.54777 -0.08786 0.35655
 C275 C 0.66435 -0.11291 0.43054
 C276 C 0.64522 -0.09278 0.45089
 H277 H 0.55490 -0.11447 0.31012
 H278 H 0.52150 -0.07960 0.34572
 H279 H 0.69044 -0.12153 0.44156
 H280 H 0.65713 -0.08643 0.47701
 H281 H 0.69513 -0.15114 0.38686
 H282 H 0.60897 -0.14558 0.30227
 H283 H 0.51657 -0.05080 0.40058
 H284 H 0.60354 -0.05511 0.48452
 C285 C 0.61337 0.38349 -0.11242
 C286 C 0.64858 0.39625 -0.11994
 C287 C 0.66756 0.37633 -0.14053
 C288 C 0.65149 0.34397 -0.15386
 C289 C 0.61600 0.33174 -0.14621
 C290 C 0.59684 0.35139 -0.12547
 C291 C 0.59339 0.40422 -0.09052
 C292 C 0.55814 0.39161 -0.08313
 C293 C 0.53931 0.41140 -0.06225
 C294 C 0.55569 0.44323 -0.04797
 C295 C 0.59064 0.45623 -0.05718
 C296 C 0.60977 0.43654 -0.07786
 C297 C 0.56143 0.33968 -0.11761
 C298 C 0.54240 0.35947 -0.09683
 C299 C 0.66410 0.42871 -0.10675
 C300 C 0.64497 0.44860 -0.08619
 H301 H 0.54833 0.31500 -0.12758
 H302 H 0.51517 0.34947 -0.09137
 H303 H 0.69124 0.43888 -0.11243
 H304 H 0.65791 0.47354 -0.07659
 H305 H 0.69498 0.38576 -0.14579
 H306 H 0.60314 0.30725 -0.15676
 H307 H 0.51177 0.40211 -0.05743
 H308 H 0.60300 0.48189 -0.04882
 C309 C -0.10298 0.11729 -0.11194
 C310 C -0.09521 0.13579 -0.14561
 C311 C -0.12004 0.15893 -0.16477
 C312 C -0.15297 0.16423 -0.15074
 C313 C -0.15936 0.14590 -0.11594
 C314 C -0.13483 0.12219 -0.09687
 C315 C -0.07743 0.09186 -0.09233
 C316 C -0.08571 0.07232 -0.05914
 C317 C -0.06188 0.04721 -0.04123
 C318 C -0.02983 0.04185 -0.05619
 C319 C -0.02166 0.06243 -0.08915
 C320 C -0.04550 0.08714 -0.10747
 C321 C -0.14195 0.10255 -0.06328
 C322 C -0.11789 0.07795 -0.04482
 C323 C -0.06272 0.13072 -0.15968
 C324 C -0.03824 0.10689 -0.14088
 H325 H -0.16652 0.10595 -0.05131
 H326 H -0.12462 0.06311 -0.01919
 H327 H -0.05628 0.14508 -0.18560
 H328 H -0.01363 0.10356 -0.15281
 H329 H -0.11243 0.17392 -0.18997
 H330 H -0.18442 0.14764 -0.10428
 H331 H -0.06887 0.03122 -0.01624
 H332 H 0.00321 0.05922 -0.10065
 C333 C -0.10395 0.62011 0.39118
 C334 C -0.13765 0.62273 0.40383
 C335 C -0.16186 0.64607 0.38369
 C336 C -0.15249 0.66674 0.35115
 C337 C -0.11811 0.66444 0.33950
 C338 C -0.09390 0.64094 0.35919
 C339 C -0.07900 0.59445 0.41138
 C340 C -0.04579 0.59101 0.39806
 C341 C -0.02279 0.56550 0.41654
 C342 C -0.03275 0.54354 0.44817
 C343 C -0.06566 0.54822 0.46176
 C344 C -0.08911 0.57333 0.44321
 C345 C -0.06009 0.63736 0.34717
 C346 C -0.03647 0.61274 0.36623
 C347 C -0.14669 0.60141 0.43600
 C348 C -0.12279 0.57722 0.45542
 H349 H -0.05201 0.65336 0.32256
 H350 H -0.01084 0.61043 0.35578
 H351 H -0.17258 0.60322 0.44611
 H352 H -0.13093 0.56108 0.47994
 H353 H -0.18831 0.64724 0.39278
 H354 H -0.11026 0.68073 0.31493
 H355 H 0.00283 0.56273 0.40628
 H356 H -0.07357 0.53161 0.48605
 C357 C 0.39491 0.12259 0.39207
 C358 C 0.36048 0.12215 0.40416
 C359 C 0.33526 0.14471 0.38454
 C360 C 0.34427 0.16722 0.35288
 C361 C 0.37922 0.16789 0.34170
 C362 C 0.40458 0.14554 0.36108
 C363 C 0.42103 0.09783 0.41165
 C364 C 0.45508 0.09763 0.39891
 C365 C 0.47926 0.07295 0.41663
 C366 C 0.46952 0.04835 0.44670
 C367 C 0.43562 0.04955 0.45973
 C368 C 0.41114 0.07414 0.44212
 C369 C 0.43919 0.14514 0.34966
 C370 C 0.46403 0.12157 0.36826
 C371 C 0.35176 0.09853 0.43514
 C372 C 0.37665 0.07494 0.45379
 H373 H 0.44698 0.16282 0.32585
 H374 H 0.49028 0.12174 0.35828
 H375 H 0.32532 0.09795 0.44479
 H376 H 0.36868 0.05685 0.47729
 H377 H 0.30835 0.14381 0.39316
 H378 H 0.38655 0.18557 0.31770
 H379 H 0.50554 0.07265 0.40683
 H380 H 0.42779 0.03045 0.48263
 C381 C 0.39778 0.61726 -0.10893
 C382 C 0.40753 0.63694 -0.14158
 C383 C 0.38345 0.66043 -0.16152
 C384 C 0.34959 0.66402 -0.14930
 C385 C 0.34052 0.64453 -0.11612
 C386 C 0.36452 0.62105 -0.09585
 C387 C 0.42257 0.59160 -0.08844
 C388 C 0.41268 0.57150 -0.05603
 C389 C 0.43595 0.54637 -0.03718
 C390 C 0.46858 0.54082 -0.05090
 C391 C 0.47833 0.56183 -0.08312
 C392 C 0.45541 0.58718 -0.10202
 C393 C 0.35572 0.60076 -0.06310
 C394 C 0.37941 0.57646 -0.04350
 C395 C 0.44095 0.63231 -0.15393
 C396 C 0.46448 0.60781 -0.13449
 H397 H 0.33017 0.60346 -0.05267
 H398 H 0.37144 0.56112 -0.01852
 H399 H 0.44881 0.64743 -0.17904
 H400 H 0.48981 0.60473 -0.14517
 H401 H 0.39099 0.67577 -0.18666
 H402 H 0.31443 0.64677 -0.10663
 H403 H 0.42810 0.53047 -0.01250
 H404 H 0.50373 0.55847 -0.09352
 C405 C -0.11402 -0.11143 0.10209
 C406 C -0.11798 -0.09815 0.13484
 C407 C -0.14255 -0.11700 0.15806
 C408 C -0.16334 -0.14921 0.14892
 C409 C -0.15888 -0.16162 0.11540
 C410 C -0.13435 -0.14300 0.09213
 C411 C -0.08774 -0.09214 0.07789
 C412 C -0.08337 -0.10589 0.04541
 C413 C -0.05796 -0.08789 0.02282
 C414 C -0.03692 -0.05637 0.03250
 C415 C -0.04191 -0.04267 0.06499
 C416 C -0.06725 -0.06057 0.08788
 C417 C -0.12940 -0.15576 0.05924
 C418 C -0.10435 -0.13751 0.03628
 C419 C -0.09720 -0.06628 0.14380
 C420 C -0.07226 -0.04782 0.12073
 H421 H -0.14492 -0.18016 0.05125
 H422 H -0.10125 -0.14836 0.01125
 H423 H -0.10006 -0.05563 0.16898
 H424 H -0.05666 -0.02348 0.12878
 H425 H -0.14601 -0.10560 0.18266
 H426 H -0.17295 -0.18686 0.10779
 H427 H -0.05470 -0.09828 -0.00241
 H428 H -0.02554 -0.01872 0.07289
 C429 C -0.11226 0.39240 0.61279
 C430 C -0.14908 0.39730 0.60543
 C431 C -0.17353 0.37819 0.62857
 C432 C -0.16128 0.35477 0.65905
 C433 C -0.12423 0.35074 0.66641
 C434 C -0.09960 0.36921 0.64315
 C435 C -0.08654 0.41141 0.58790
 C436 C -0.04986 0.40549 0.59459
 C437 C -0.02567 0.42279 0.57026
 C438 C -0.03800 0.44617 0.53987
 C439 C -0.07464 0.45228 0.53375
 C440 C -0.09918 0.43466 0.55757
 C441 C -0.06264 0.36448 0.64926
 C442 C -0.03820 0.38220 0.62531
 C443 C -0.16069 0.42088 0.57489
 C444 C -0.13614 0.43937 0.55144
 H445 H -0.05256 0.34663 0.67256
 H446 H -0.00997 0.37752 0.63081
 H447 H -0.18900 0.42497 0.56899
 H448 H -0.14621 0.45722 0.52813
 H449 H -0.20205 0.38147 0.62296
 H450 H -0.11476 0.33237 0.68963
 H451 H 0.00267 0.41826 0.57489
 H452 H -0.08409 0.46980 0.50997
 C453 C 0.38900 -0.11149 0.60261
 C454 C 0.37226 -0.14554 0.59448
 C455 C 0.34831 -0.16489 0.61794
 C456 C 0.34045 -0.15020 0.64912
 C457 C 0.35732 -0.11573 0.65659
 C458 C 0.38184 -0.09644 0.63359
 C459 C 0.41473 -0.09135 0.57831
 C460 C 0.43208 -0.05767 0.58677
 C461 C 0.45703 -0.03898 0.56390
 C462 C 0.46427 -0.05349 0.53245
 C463 C 0.44612 -0.08713 0.52421
 C464 C 0.42164 -0.10632 0.54720
 C465 C 0.39947 -0.06245 0.64099
 C466 C 0.42429 -0.04349 0.61808
 C467 C 0.37992 -0.15967 0.56312
 C468 C 0.40406 -0.14029 0.53978
 H469 H 0.39422 -0.05052 0.66482
 H470 H 0.43746 -0.01749 0.62491
 H471 H 0.36711 -0.18590 0.55653
 H472 H 0.40918 -0.15214 0.51586
 H473 H 0.33628 -0.19168 0.61214
 H474 H 0.35124 -0.10376 0.68011
 H475 H 0.47122 -0.01360 0.57110
 H476 H 0.45080 -0.09836 0.49982
 C477 C 0.38637 0.39007 0.11226
 C478 C 0.39847 0.36686 0.14285
 C479 C 0.37335 0.34843 0.16561
 C480 C 0.33639 0.35251 0.15750
 C481 C 0.32469 0.37587 0.12675
 C482 C 0.34963 0.39498 0.10414
 C483 C 0.41262 0.40911 0.08796
 C484 C 0.40055 0.43246 0.05745
 C485 C 0.42561 0.45014 0.03419
 C486 C 0.46219 0.44392 0.04104
 C487 C 0.47393 0.42046 0.07161
 C488 C 0.44923 0.40315 0.09540
 C489 C 0.33860 0.41863 0.07342
 C490 C 0.36365 0.43718 0.05055
 C491 C 0.43536 0.36209 0.14972
 C492 C 0.46030 0.37981 0.12630
 H493 H 0.31036 0.42274 0.06694
 H494 H 0.35402 0.45509 0.02709
 H495 H 0.44500 0.34422 0.17320
 H496 H 0.48847 0.37510 0.13238
 H497 H 0.38238 0.33011 0.18905
 H498 H 0.29624 0.37917 0.12057
 H499 H 0.41663 0.46777 0.01029
 H500 H 0.50223 0.41586 0.07679
 C501 C 0.10572 0.10283 0.11716
 C502 C 0.13877 0.09434 0.13564
 C503 C 0.15579 0.11825 0.15932
 C504 C 0.13982 0.15029 0.16524
 C505 C 0.10623 0.15797 0.14685
 C506 C 0.08927 0.13453 0.12250
 C507 C 0.08832 0.07834 0.09127
 C508 C 0.05579 0.08733 0.07193
 C509 C 0.03994 0.06450 0.04653
 C510 C 0.05622 0.03264 0.04075
 C511 C 0.08849 0.02372 0.06109
 C512 C 0.10484 0.04667 0.08601
 C513 C 0.05639 0.14232 0.10307
 C514 C 0.04003 0.11923 0.07809
 C515 C 0.15441 0.06232 0.12974
 C516 C 0.13763 0.03877 0.10550
 H517 H 0.04338 0.16668 0.10691
 H518 H 0.01488 0.12646 0.06341
 H519 H 0.17989 0.05543 0.14393
 H520 H 0.15063 0.01439 0.10167
 H521 H 0.18195 0.11227 0.17243
 H522 H 0.09328 0.18213 0.15139
 H523 H 0.01549 0.07213 0.03075
 H524 H 0.10096 -0.00109 0.05769
 C525 C 0.10596 0.60364 0.61979
 C526 C 0.09037 0.63578 0.62531
 C527 C 0.10829 0.65909 0.64930
 C528 C 0.14199 0.65081 0.66711
 C529 C 0.15705 0.61831 0.66106
 C530 C 0.13906 0.59454 0.63777
 C531 C 0.08761 0.57933 0.59421
 C532 C 0.10330 0.54723 0.58879
 C533 C 0.08611 0.52449 0.56412
 C534 C 0.05385 0.53404 0.54413
 C535 C 0.03832 0.56625 0.55013
 C536 C 0.05503 0.58892 0.57531
 C537 C 0.15383 0.56208 0.63174
 C538 C 0.13614 0.53870 0.60781
 C539 C 0.05741 0.64417 0.60636
 C540 C 0.04013 0.62124 0.58166
 H541 H 0.17934 0.55473 0.64555
 H542 H 0.14850 0.51398 0.60384
 H543 H 0.04505 0.66888 0.61034
 H544 H 0.01496 0.62894 0.56733
 H545 H 0.09603 0.68363 0.65394
 H546 H 0.18326 0.61185 0.67369
 H547 H 0.09796 0.49935 0.56061
 H548 H 0.01380 0.57424 0.53469
 C549 C 0.60799 0.10609 0.61808
 C550 C 0.59116 0.13680 0.62547
 C551 C 0.60869 0.15978 0.64997
 C552 C 0.64315 0.15257 0.66650
 C553 C 0.65951 0.12158 0.65849
 C554 C 0.64198 0.09814 0.63465
 C555 C 0.58997 0.08208 0.59207
 C556 C 0.60690 0.05140 0.58481
 C557 C 0.58995 0.02891 0.55981
 C558 C 0.55665 0.03730 0.54133
 C559 C 0.53991 0.06813 0.54912
 C560 C 0.55642 0.09051 0.57464
 C561 C 0.65800 0.06711 0.62675
 C562 C 0.64066 0.04401 0.60239
 C563 C 0.55730 0.14407 0.60791
 C564 C 0.54031 0.12143 0.58281
 H565 H 0.68421 0.06066 0.63945
 H566 H 0.65398 0.02039 0.59698
 H567 H 0.54398 0.16767 0.61334
 H568 H 0.51439 0.12824 0.56963
 H569 H 0.59549 0.18316 0.65611
 H570 H 0.68631 0.11605 0.67012
 H571 H 0.60280 0.00486 0.55479
 H572 H 0.51460 0.07533 0.53483
 C573 C 0.60566 0.60264 0.12118
 C574 C 0.58996 0.63489 0.12616
 C575 C 0.60774 0.65860 0.14982
 C576 C 0.64145 0.65066 0.16782
 C577 C 0.65661 0.61802 0.16236
 C578 C 0.63874 0.59383 0.13941
 C579 C 0.58747 0.57793 0.09589
 C580 C 0.60328 0.54573 0.09100
 C581 C 0.58629 0.52265 0.06654
 C582 C 0.55414 0.53197 0.04619
 C583 C 0.53846 0.56427 0.05170
 C584 C 0.55496 0.58726 0.07669
 C585 C 0.65361 0.56124 0.13393
 C586 C 0.63607 0.53747 0.11029
 C587 C 0.55703 0.64299 0.10696
 C588 C 0.53993 0.61969 0.08252
 H589 H 0.67910 0.55409 0.14794
 H590 H 0.64852 0.51267 0.10673
 H591 H 0.54459 0.66778 0.11053
 H592 H 0.51481 0.62720 0.06796
 H593 H 0.59536 0.68320 0.15406
 H594 H 0.68282 0.61178 0.17515
 H595 H 0.59824 0.49745 0.06343
 H596 H 0.51403 0.57208 0.03599
   
