data_POSCAR
  _audit_creation_date              2014-09-24
  _audit_creation_method            'ToBaCCo'
  _symmetry_space_group_name_H-M    'P1'
  _symmetry_Int_Tables_number       1
  _symmetry_cell_setting            triclinic
  loop_
  _symmetry_equiv_pos_as_xyz
 x,y,z
_cell_length_a 35.1473
_cell_length_b 35.1133
_cell_length_c 35.0993
_cell_angle_alpha 90.070700
_cell_angle_beta 89.953200
_cell_angle_gamma 89.990500
loop_
  _atom_site_label
  _atom_site_type_symbol
  _atom_site_fract_x
  _atom_site_fract_y
  _atom_site_fract_z
O1 O 0.88319 0.17888 0.77094
 O2 O 0.92711 0.13122 0.76104
 O3 O 0.78321 0.11942 0.80507
 O4 O 0.76725 0.07618 0.84897
 O5 O 0.81499 0.21721 0.86978
 O6 O 0.86332 0.23206 0.91227
 O7 O 0.88201 0.01930 0.91033
 O8 O 0.84528 0.00865 0.85860
 O9 O 0.97845 0.07960 0.87514
 O10 O 0.98954 0.13773 0.83853
 O11 O 0.91757 0.11836 0.97071
 O12 O 0.86129 0.15188 0.98182
 O13 O 0.87284 0.06096 0.95908
 O14 O 0.82101 0.11315 0.96900
 O15 O 0.96776 0.12530 0.93051
 O16 O 0.97992 0.17517 0.88064
 O17 O 0.93753 0.03020 0.86680
 O18 O 0.88899 0.01908 0.81474
 O19 O 0.87313 0.22310 0.81737
 O20 O 0.91042 0.23380 0.87692
 O21 O 0.77362 0.16788 0.86312
 O22 O 0.76600 0.10936 0.90119
 O23 O 0.83291 0.12496 0.76384
 O24 O 0.88991 0.08447 0.75794
 Zr25 Zr 0.88092 0.12730 0.79944
 O26 O 0.91707 0.09413 0.83328
 Zr27 Zr 0.80832 0.11895 0.85928
 O28 O 0.84048 0.08256 0.89456
 Zr29 Zr 0.86908 0.19082 0.86877
 O30 O 0.90260 0.15849 0.90695
 Zr31 Zr 0.88334 0.05507 0.86305
 O32 O 0.84706 0.08636 0.82675
 Zr33 Zr 0.94311 0.12768 0.87563
 O34 O 0.91151 0.16220 0.83762
 Zr35 Zr 0.87017 0.11600 0.93421
 O36 O 0.83544 0.15257 0.90081
 O37 O 0.83995 0.15861 0.82895
 O38 O 0.91207 0.08632 0.90474
 C39 C 0.87929 0.21313 0.78237
 C40 C 0.79728 0.12233 0.77137
 C41 C 0.78109 0.20340 0.86794
 C42 C 0.87755 0.02702 0.94561
 C43 C 0.97111 0.04407 0.87118
 C44 C 0.95332 0.12165 0.96404
 H45 H 0.93604 0.08158 0.81670
 H46 H 0.91459 0.17571 0.92572
 H47 H 0.82396 0.17495 0.81249
 H48 H 0.82351 0.06382 0.90692
 H49 H 0.82500 0.01652 0.84072
 H50 H 0.77690 0.05248 0.86067
 H51 H 0.97162 0.19037 0.90289
 H52 H 0.93113 0.22866 0.85849
 H53 H 0.91357 0.02459 0.80215
 H54 H 0.86947 0.06535 0.76121
 H55 H 0.87307 0.17669 0.97570
 H56 H 0.84859 0.21972 0.93288
 H57 H 0.94669 0.14695 0.77383
 H58 H 0.98799 0.11901 0.81750
 H59 H 0.76915 0.12929 0.92090
 H60 H 0.80898 0.08801 0.96490
 O61 O 0.81894 0.71634 0.37055
 O62 O 0.86750 0.73224 0.41216
 O63 O 0.89057 0.67860 0.27163
 O64 O 0.92955 0.63238 0.25860
 O65 O 0.78841 0.61909 0.30521
 O66 O 0.77531 0.57224 0.35274
 O67 O 0.98345 0.57977 0.37587
 O68 O 0.99290 0.63461 0.33722
 O69 O 0.92206 0.61891 0.47153
 O70 O 0.86577 0.65331 0.48188
 O71 O 0.88587 0.51982 0.41165
 O72 O 0.85215 0.50746 0.35648
 O73 O 0.94218 0.53045 0.36846
 O74 O 0.89212 0.51920 0.31582
 O75 O 0.87728 0.56184 0.46020
 O76 O 0.82557 0.61420 0.46969
 O77 O 0.97265 0.62391 0.43152
 O78 O 0.98455 0.67339 0.39060
 O79 O 0.77789 0.66676 0.36366
 O80 O 0.76849 0.60885 0.39863
 O81 O 0.83828 0.62469 0.26428
 O82 O 0.89652 0.58258 0.26066
 O83 O 0.87644 0.72266 0.31706
 O84 O 0.91344 0.73497 0.37796
 Zr85 Zr 0.87348 0.69079 0.36889
 O86 O 0.90720 0.65879 0.40721
 Zr87 Zr 0.88627 0.62714 0.30008
 O88 O 0.92220 0.59399 0.33436
 Zr89 Zr 0.81323 0.61850 0.35950
 O90 O 0.84516 0.58288 0.39549
 Zr91 Zr 0.94795 0.62761 0.37676
 O92 O 0.91672 0.66240 0.33839
 Zr93 Zr 0.87475 0.61662 0.43490
 O94 O 0.83992 0.65249 0.40102
 Zr95 Zr 0.88803 0.55521 0.36409
 O96 O 0.85220 0.58627 0.32719
 O97 O 0.84472 0.65824 0.32903
 O98 O 0.91658 0.58652 0.40577
 C99 C 0.78513 0.70224 0.36886
 C100 C 0.88449 0.71273 0.28244
 C101 C 0.80263 0.62168 0.27156
 C102 C 0.97576 0.54426 0.37264
 C103 C 0.95794 0.62096 0.46502
 C104 C 0.88165 0.52780 0.44689
 H105 H 0.91962 0.67614 0.42561
 H106 H 0.82794 0.56453 0.40808
 H107 H 0.82870 0.67448 0.31251
 H108 H 0.94140 0.58136 0.31807
 H109 H 0.98614 0.65658 0.32090
 H110 H 0.95397 0.62860 0.27202
 H111 H 0.81346 0.58906 0.46579
 H112 H 0.77325 0.62574 0.42070
 H113 H 0.97607 0.69537 0.37531
 H114 H 0.93069 0.73541 0.35567
 H115 H 0.82725 0.51395 0.36790
 H116 H 0.78731 0.55452 0.33435
 H117 H 0.85343 0.71971 0.43313
 H118 H 0.87906 0.67745 0.47618
 H119 H 0.87424 0.56535 0.26150
 H120 H 0.91751 0.52296 0.30422
 O121 O 0.38026 0.17425 0.27728
 O122 O 0.42484 0.12508 0.26737
 O123 O 0.28024 0.11406 0.31040
 O124 O 0.26541 0.07005 0.35444
 O125 O 0.31269 0.21173 0.37502
 O126 O 0.36108 0.22610 0.41856
 O127 O 0.37934 0.01618 0.41976
 O128 O 0.34074 0.00449 0.36694
 O129 O 0.47537 0.07381 0.38061
 O130 O 0.48689 0.13127 0.34389
 O131 O 0.41490 0.11469 0.47651
 O132 O 0.35645 0.15173 0.48472
 O133 O 0.37035 0.05893 0.46756
 O134 O 0.31946 0.10886 0.47676
 O135 O 0.46491 0.11966 0.43578
 O136 O 0.47760 0.16940 0.38537
 O137 O 0.43432 0.02425 0.37353
 O138 O 0.38625 0.01117 0.32427
 O139 O 0.37096 0.21864 0.32370
 O140 O 0.40745 0.22924 0.38193
 O141 O 0.27098 0.16262 0.36831
 O142 O 0.26261 0.10542 0.40638
 O143 O 0.33017 0.11908 0.26942
 O144 O 0.38657 0.07968 0.26297
 Zr145 Zr 0.37811 0.12187 0.30519
 O146 O 0.41372 0.08836 0.33947
 Zr147 Zr 0.30553 0.11374 0.36481
 O148 O 0.33750 0.07822 0.40124
 Zr149 Zr 0.36665 0.18566 0.37427
 O150 O 0.40046 0.15383 0.41238
 Zr151 Zr 0.38022 0.04980 0.37042
 O152 O 0.34455 0.08087 0.33302
 Zr153 Zr 0.44034 0.12218 0.38109
 O154 O 0.40891 0.15677 0.34310
 Zr155 Zr 0.36736 0.11238 0.44029
 O156 O 0.33254 0.14783 0.40610
 O157 O 0.33730 0.15335 0.33448
 O158 O 0.40910 0.08181 0.41126
 C159 C 0.37699 0.20870 0.28881
 C160 C 0.29446 0.11648 0.27667
 C161 C 0.27878 0.19803 0.37315
 C162 C 0.37536 0.02478 0.45507
 C163 C 0.46794 0.03824 0.37718
 C164 C 0.45062 0.11687 0.46942
 H165 H 0.43251 0.07544 0.32297
 H166 H 0.41282 0.17125 0.43071
 H167 H 0.32144 0.16961 0.31782
 H168 H 0.32056 0.05977 0.41408
 H169 H 0.32158 0.01191 0.34766
 H170 H 0.27364 0.04747 0.36909
 H171 H 0.47024 0.18436 0.40811
 H172 H 0.42913 0.22298 0.36502
 H173 H 0.40790 0.01958 0.30837
 H174 H 0.36800 0.05913 0.26817
 H175 H 0.37486 0.17287 0.48215
 H176 H 0.34541 0.21384 0.43853
 H177 H 0.44354 0.14246 0.27931
 H178 H 0.48441 0.11312 0.32246
 H179 H 0.26726 0.12418 0.42692
 H180 H 0.30554 0.08517 0.47056
 O181 O 0.13012 0.31228 0.28353
 O182 O 0.08946 0.36270 0.26660
 O183 O 0.22632 0.37756 0.33001
 O184 O 0.23722 0.41554 0.37960
 O185 O 0.18427 0.27548 0.38420
 O186 O 0.13289 0.26478 0.42797
 O187 O 0.12029 0.47424 0.42270
 O188 O 0.16401 0.48187 0.37188
 O189 O 0.02548 0.41786 0.37202
 O190 O 0.01867 0.36037 0.33258
 O191 O 0.06859 0.37986 0.47452
 O192 O 0.11871 0.34148 0.49412
 O193 O 0.12127 0.43251 0.47218
 O194 O 0.16550 0.37625 0.48795
 O195 O 0.02577 0.37170 0.42670
 O196 O 0.01977 0.32267 0.37571
 O197 O 0.06835 0.46632 0.37339
 O198 O 0.11399 0.47817 0.32903
 O199 O 0.12946 0.26966 0.33230
 O200 O 0.08937 0.26058 0.38743
 O201 O 0.22716 0.32395 0.38421
 O202 O 0.23063 0.38010 0.42748
 O203 O 0.18374 0.36792 0.28219
 O204 O 0.12713 0.40592 0.26550
 Zr205 Zr 0.13063 0.36582 0.31037
 O206 O 0.09190 0.40125 0.33917
 Zr207 Zr 0.19397 0.37371 0.38006
 O208 O 0.15825 0.41034 0.41142
 Zr209 Zr 0.13119 0.30350 0.38191
 O210 O 0.09274 0.33674 0.41413
 Zr211 Zr 0.12147 0.43927 0.37439
 O212 O 0.16084 0.40677 0.34224
 Zr213 Zr 0.05873 0.36865 0.37684
 O214 O 0.09432 0.33240 0.34456
 Zr215 Zr 0.12197 0.37794 0.44637
 O216 O 0.16095 0.34102 0.41802
 O217 O 0.16615 0.33443 0.34555
 O218 O 0.08607 0.40890 0.41103
 C219 C 0.12856 0.27820 0.29671
 C220 C 0.21760 0.37406 0.29470
 C221 C 0.21852 0.28844 0.38489
 C222 C 0.12095 0.46649 0.45834
 C223 C 0.03426 0.45325 0.37203
 C224 C 0.03430 0.37672 0.46187
 H225 H 0.07624 0.41516 0.32036
 H226 H 0.07731 0.32006 0.43073
 H227 H 0.18344 0.31824 0.33023
 H228 H 0.17440 0.42813 0.42610
 H229 H 0.18173 0.47461 0.35116
 H230 H 0.22484 0.44016 0.38532
 H231 H 0.02364 0.30738 0.39905
 H232 H 0.06912 0.26672 0.36884
 H233 H 0.13002 0.46900 0.30784
 H234 H 0.14869 0.42382 0.26833
 H235 H 0.11387 0.31558 0.48421
 H236 H 0.15094 0.27544 0.44684
 H237 H 0.06860 0.34650 0.27641
 H238 H 0.02345 0.37988 0.31284
 H239 H 0.22504 0.35889 0.44518
 H240 H 0.18163 0.39904 0.48422
 O241 O 0.63053 0.81053 0.28398
 O242 O 0.58826 0.85934 0.26656
 O243 O 0.72480 0.88028 0.32907
 O244 O 0.73503 0.91843 0.37868
 O245 O 0.68756 0.77661 0.38343
 O246 O 0.63718 0.76494 0.42897
 O247 O 0.61614 0.97374 0.42085
 O248 O 0.65866 0.98255 0.36925
 O249 O 0.52268 0.91310 0.37197
 O250 O 0.51873 0.85444 0.33244
 O251 O 0.56844 0.87937 0.47365
 O252 O 0.61867 0.84191 0.49376
 O253 O 0.61963 0.93265 0.47077
 O254 O 0.66542 0.87796 0.48699
 O255 O 0.52547 0.86803 0.42660
 O256 O 0.52066 0.81804 0.37699
 O257 O 0.56360 0.96322 0.37314
 O258 O 0.60829 0.97598 0.32706
 O259 O 0.63188 0.76838 0.33315
 O260 O 0.59322 0.75839 0.38916
 O261 O 0.72849 0.82673 0.38276
 O262 O 0.72956 0.88339 0.42653
 O263 O 0.68228 0.86776 0.28186
 O264 O 0.62460 0.90354 0.26460
 Zr265 Zr 0.62946 0.86433 0.31012
 O266 O 0.58957 0.89875 0.33849
 Zr267 Zr 0.69315 0.87526 0.37919
 O268 O 0.65630 0.91117 0.41000
 Zr269 Zr 0.63325 0.80279 0.38232
 O270 O 0.59372 0.83515 0.41421
 Zr271 Zr 0.61798 0.93826 0.37299
 O272 O 0.65844 0.90670 0.34124
 Zr273 Zr 0.55813 0.86526 0.37676
 O274 O 0.59489 0.82984 0.34495
 Zr275 Zr 0.62167 0.87785 0.44561
 O276 O 0.66182 0.84182 0.41779
 O277 O 0.66649 0.83469 0.34528
 O278 O 0.58429 0.90688 0.41020
 C279 C 0.63028 0.77656 0.29752
 C280 C 0.71589 0.87556 0.29402
 C281 C 0.72138 0.79082 0.38337
 C282 C 0.61773 0.96643 0.45655
 C283 C 0.52995 0.94887 0.37227
 C284 C 0.53422 0.87476 0.46137
 H285 H 0.57321 0.91180 0.31966
 H286 H 0.57908 0.81824 0.43130
 H287 H 0.68413 0.81899 0.32986
 H288 H 0.67197 0.92972 0.42427
 H289 H 0.67645 0.97562 0.34847
 H290 H 0.72148 0.94288 0.38181
 H291 H 0.52566 0.80306 0.40031
 H292 H 0.57236 0.76360 0.37097
 H293 H 0.62455 0.96721 0.30588
 H294 H 0.64545 0.92230 0.26721
 H295 H 0.61846 0.81551 0.48401
 H296 H 0.65611 0.77588 0.44676
 H297 H 0.56796 0.84263 0.27666
 H298 H 0.52145 0.87486 0.31325
 H299 H 0.72563 0.86150 0.44385
 H300 H 0.68097 0.90105 0.48274
 O301 O 0.62302 0.68368 0.21931
 O302 O 0.58148 0.63181 0.23291
 O303 O 0.72342 0.62853 0.17900
 O304 O 0.74314 0.59450 0.13045
 O305 O 0.67306 0.72582 0.11736
 O306 O 0.62058 0.73074 0.07490
 O307 O 0.63046 0.52076 0.08134
 O308 O 0.67452 0.51704 0.13084
 O309 O 0.53103 0.56598 0.12357
 O310 O 0.51332 0.61982 0.16155
 O311 O 0.57749 0.61485 0.02491
 O312 O 0.62990 0.65429 0.00977
 O313 O 0.62614 0.56233 0.03202
 O314 O 0.67370 0.61750 0.01814
 O315 O 0.53018 0.61591 0.06911
 O316 O 0.51583 0.66175 0.12254
 O317 O 0.57919 0.52317 0.12990
 O318 O 0.63210 0.51972 0.17722
 O319 O 0.62041 0.72615 0.17049
 O320 O 0.57725 0.72999 0.11599
 O321 O 0.72181 0.68360 0.12314
 O322 O 0.73303 0.62666 0.08024
 O323 O 0.67636 0.63105 0.22357
 O324 O 0.62349 0.58970 0.23642
 Zr325 Zr 0.62579 0.63043 0.19215
 O326 O 0.59271 0.59092 0.16182
 Zr327 Zr 0.69451 0.62972 0.12658
 O328 O 0.66482 0.58864 0.09413
 Zr329 Zr 0.62381 0.69218 0.12101
 O330 O 0.59170 0.65488 0.08681
 Zr331 Zr 0.62889 0.55626 0.12921
 O332 O 0.66252 0.59339 0.16240
 Zr333 Zr 0.55861 0.61933 0.12179
 O334 O 0.58788 0.65950 0.15611
 Zr335 Zr 0.62763 0.61714 0.05709
 O336 O 0.66003 0.65848 0.08703
 O337 O 0.66026 0.66532 0.15898
 O338 O 0.59274 0.58255 0.09014
 C339 C 0.62111 0.71774 0.20611
 C340 C 0.71138 0.62907 0.21362
 C341 C 0.70860 0.71763 0.11903
 C342 C 0.62756 0.52831 0.04576
 C343 C 0.54386 0.53182 0.12702
 C344 C 0.54233 0.61501 0.03458
 H345 H 0.57718 0.57595 0.17986
 H346 H 0.57601 0.67041 0.06937
 H347 H 0.67577 0.68297 0.17456
 H348 H 0.68288 0.57201 0.08032
 H349 H 0.69405 0.52814 0.14785
 H350 H 0.73533 0.56880 0.12201
 H351 H 0.51989 0.67833 0.10014
 H352 H 0.55875 0.72283 0.13603
 H353 H 0.60879 0.52308 0.19266
 H354 H 0.64254 0.56989 0.23014
 H355 H 0.61327 0.67623 0.01573
 H356 H 0.63903 0.72171 0.05557
 H357 H 0.56103 0.64783 0.22201
 H358 H 0.52242 0.60713 0.18496
 H359 H 0.72616 0.64734 0.06238
 H360 H 0.68744 0.59302 0.02049
 O361 O 0.37363 0.81602 0.72350
 O362 O 0.40784 0.87256 0.74165
 O363 O 0.27358 0.86501 0.67004
 O364 O 0.25985 0.89933 0.61933
 O365 O 0.33692 0.77010 0.61944
 O366 O 0.39327 0.76924 0.58019
 O367 O 0.36962 0.97608 0.58123
 O368 O 0.32104 0.97788 0.62745
 O369 O 0.46739 0.93920 0.63581
 O370 O 0.48035 0.88486 0.68224
 O371 O 0.43887 0.88544 0.53636
 O372 O 0.39064 0.84067 0.51574
 O373 O 0.38167 0.93375 0.53362
 O374 O 0.34607 0.87553 0.51449
 O375 O 0.47965 0.88784 0.58654
 O376 O 0.49068 0.84677 0.64062
 O377 O 0.41677 0.97940 0.63388
 O378 O 0.36021 0.98111 0.67638
 O379 O 0.38482 0.77378 0.67552
 O380 O 0.43208 0.77152 0.62645
 O381 O 0.28633 0.81038 0.61749
 O382 O 0.27611 0.86400 0.57205
 O383 O 0.31416 0.86669 0.72053
 O384 O 0.36233 0.90992 0.73998
 Zr385 Zr 0.36896 0.86946 0.69585
 O386 O 0.40309 0.91093 0.66883
 Zr387 Zr 0.30958 0.86550 0.62219
 O388 O 0.34088 0.90701 0.59229
 Zr389 Zr 0.38351 0.80707 0.62610
 O390 O 0.41807 0.84562 0.59614
 Zr391 Zr 0.36973 0.94261 0.63066
 O392 O 0.33466 0.90410 0.66084
 Zr393 Zr 0.44377 0.88400 0.63429
 O394 O 0.41264 0.84234 0.66489
 Zr395 Zr 0.38430 0.88020 0.56086
 O396 O 0.35000 0.83812 0.58744
 O397 O 0.34129 0.83223 0.65930
 O398 O 0.41217 0.91783 0.59717
 C399 C 0.38027 0.78216 0.71076
 C400 C 0.28051 0.86608 0.70595
 C401 C 0.30113 0.77684 0.61712
 C402 C 0.37515 0.96763 0.54610
 C403 C 0.45262 0.97274 0.63488
 C404 C 0.47252 0.88718 0.55073
 H405 H 0.41528 0.92735 0.68813
 H406 H 0.43703 0.83079 0.58153
 H407 H 0.32542 0.81396 0.67373
 H408 H 0.32349 0.92183 0.57589
 H409 H 0.30129 0.96603 0.64372
 H410 H 0.26737 0.92438 0.60894
 H411 H 0.48846 0.82685 0.62079
 H412 H 0.44874 0.78088 0.64718
 H413 H 0.38179 0.97938 0.69435
 H414 H 0.34619 0.93047 0.72949
 H415 H 0.40952 0.82146 0.52394
 H416 H 0.37506 0.77625 0.55986
 H417 H 0.43129 0.85953 0.73301
 H418 H 0.47388 0.90733 0.69798
 H419 H 0.28740 0.84451 0.55506
 H420 H 0.32471 0.89326 0.51917
 O421 O 0.86422 0.33870 0.72997
 O422 O 0.89644 0.39389 0.74235
 O423 O 0.76692 0.37594 0.66462
 O424 O 0.75561 0.40624 0.61082
 O425 O 0.83163 0.27799 0.62791
 O426 O 0.88939 0.27000 0.59544
 O427 O 0.86848 0.48019 0.57241
 O428 O 0.81943 0.48752 0.61390
 O429 O 0.96330 0.44580 0.63259
 O430 O 0.97569 0.39631 0.68203
 O431 O 0.93725 0.38425 0.53611
 O432 O 0.89193 0.34113 0.51672
 O433 O 0.88170 0.43421 0.52864
 O434 O 0.84293 0.37164 0.51522
 O435 O 0.97643 0.39059 0.58716
 O436 O 0.98424 0.35310 0.64584
 O437 O 0.91366 0.48664 0.62543
 O438 O 0.85413 0.49140 0.66627
 O439 O 0.87719 0.29041 0.68868
 O440 O 0.92706 0.28062 0.63958
 O441 O 0.78160 0.31766 0.61748
 O442 O 0.77485 0.36809 0.56697
 O443 O 0.80579 0.38357 0.71587
 O444 O 0.85338 0.43342 0.73041
 Zr445 Zr 0.86136 0.38589 0.69416
 O446 O 0.89810 0.42264 0.66480
 Zr447 Zr 0.80518 0.37309 0.61885
 O448 O 0.83802 0.41198 0.58698
 Zr449 Zr 0.87825 0.31531 0.63353
 O450 O 0.91368 0.34997 0.59956
 Zr451 Zr 0.86601 0.45056 0.62322
 O452 O 0.82834 0.41587 0.65445
 Zr453 Zr 0.93912 0.39132 0.63435
 O454 O 0.90608 0.35468 0.66893
 Zr455 Zr 0.88211 0.38205 0.55982
 O456 O 0.84730 0.34220 0.58953
 O457 O 0.83495 0.34435 0.66110
 O458 O 0.90926 0.42230 0.59356
 C459 C 0.87145 0.30383 0.72255
 C460 C 0.77280 0.38000 0.70044
 C461 C 0.79620 0.28424 0.62145
 C462 C 0.87554 0.46917 0.53854
 C463 C 0.94924 0.47932 0.62870
 C464 C 0.97049 0.38723 0.55120
 H465 H 0.90998 0.44062 0.68288
 H466 H 0.93267 0.33356 0.58677
 H467 H 0.81852 0.32735 0.67644
 H468 H 0.82152 0.42550 0.56864
 H469 H 0.79773 0.47708 0.62855
 H470 H 0.76390 0.43099 0.60033
 H471 H 0.98322 0.33257 0.62654
 H472 H 0.94187 0.29121 0.66110
 H473 H 0.87653 0.49365 0.68315
 H474 H 0.83170 0.44814 0.72009
 H475 H 0.90292 0.31857 0.52946
 H476 H 0.87571 0.27616 0.57158
 H477 H 0.92165 0.38338 0.73544
 H478 H 0.96702 0.41820 0.69752
 H479 H 0.78522 0.34566 0.55335
 H480 H 0.82671 0.39450 0.51248
 O481 O 0.76821 0.87134 0.16750
 O482 O 0.75755 0.90703 0.11114
 O483 O 0.83329 0.77648 0.12825
 O484 O 0.89059 0.76954 0.09446
 O485 O 0.86751 0.83789 0.22951
 O486 O 0.89977 0.89405 0.24046
 O487 O 0.93441 0.88421 0.03337
 O488 O 0.88928 0.83971 0.01580
 O489 O 0.86426 0.97863 0.07095
 O490 O 0.81654 0.98663 0.11791
 O491 O 0.96119 0.94717 0.12902
 O492 O 0.97628 0.89818 0.17828
 O493 O 0.97457 0.89208 0.08337
 O494 O 0.98516 0.85532 0.14189
 O495 O 0.91041 0.98684 0.12377
 O496 O 0.85034 0.99020 0.16469
 O497 O 0.87791 0.93288 0.02711
 O498 O 0.83989 0.86952 0.01515
 O499 O 0.80815 0.88158 0.21749
 O500 O 0.85490 0.93232 0.23036
 O501 O 0.88010 0.78966 0.18800
 O502 O 0.92905 0.78097 0.13786
 O503 O 0.78225 0.81516 0.11886
 O504 O 0.77011 0.86432 0.07143
 Zr505 Zr 0.80482 0.87093 0.12018
 O506 O 0.83587 0.90994 0.08679
 Zr507 Zr 0.87942 0.81464 0.13279
 O508 O 0.91325 0.84991 0.09777
 Zr509 Zr 0.86290 0.88504 0.19379
 O510 O 0.89769 0.92265 0.16309
 Zr511 Zr 0.87999 0.88100 0.05867
 O512 O 0.84670 0.84085 0.08962
 Zr513 Zr 0.86374 0.94945 0.12220
 O514 O 0.82805 0.91412 0.15501
 Zr515 Zr 0.93857 0.89210 0.13163
 O516 O 0.90746 0.85473 0.16724
 O517 O 0.83644 0.84293 0.16155
 O518 O 0.90695 0.92218 0.09151
 C519 C 0.77494 0.87628 0.20308
 C520 C 0.79760 0.78204 0.12254
 C521 C 0.87493 0.80306 0.22199
 C522 C 0.96796 0.88825 0.04754
 C523 C 0.87108 0.96772 0.03699
 C524 C 0.94624 0.98039 0.12585
 H525 H 0.81847 0.92259 0.06867
 H526 H 0.90950 0.94113 0.18072
 H527 H 0.82084 0.82548 0.17724
 H528 H 0.93232 0.83389 0.08462
 H529 H 0.90195 0.81789 0.02825
 H530 H 0.87607 0.77530 0.07101
 H531 H 0.87253 0.99275 0.18182
 H532 H 0.83280 0.94674 0.22049
 H533 H 0.82314 0.89203 0.01267
 H534 H 0.78298 0.84558 0.05473
 H535 H 0.96739 0.91983 0.19399
 H536 H 0.92457 0.88289 0.23309
 H537 H 0.76132 0.92951 0.12777
 H538 H 0.79879 0.97562 0.09903
 H539 H 0.94426 0.79215 0.15881
 H540 H 0.98377 0.83432 0.12312
 O541 O 0.36970 0.33593 0.23418
 O542 O 0.40396 0.39508 0.24033
 O543 O 0.27233 0.36862 0.16832
 O544 O 0.26186 0.39876 0.11306
 O545 O 0.33623 0.26898 0.13620
 O546 O 0.39558 0.25935 0.10460
 O547 O 0.37469 0.46079 0.06003
 O548 O 0.32230 0.47312 0.10407
 O549 O 0.46783 0.43739 0.13063
 O550 O 0.47946 0.39149 0.18292
 O551 O 0.44197 0.36784 0.03829
 O552 O 0.39456 0.31452 0.02812
 O553 O 0.38563 0.40934 0.02231
 O554 O 0.35136 0.34991 0.01517
 O555 O 0.48113 0.38002 0.08831
 O556 O 0.48968 0.34631 0.14936
 O557 O 0.41821 0.47656 0.11701
 O558 O 0.36232 0.48948 0.14935
 O559 O 0.38085 0.28472 0.19604
 O560 O 0.43073 0.27120 0.15096
 O561 O 0.28650 0.30854 0.12390
 O562 O 0.27688 0.35351 0.07231
 O563 O 0.31145 0.38025 0.21861
 O564 O 0.35695 0.43052 0.22900
 Zr565 Zr 0.36651 0.38155 0.19520
 O566 O 0.40198 0.41624 0.16157
 Zr567 Zr 0.30990 0.36351 0.12178
 O568 O 0.34291 0.39736 0.08484
 Zr569 Zr 0.38305 0.30629 0.14022
 O570 O 0.41937 0.33760 0.10427
 Zr571 Zr 0.37097 0.43979 0.11613
 O572 O 0.33412 0.40895 0.15275
 Zr573 Zr 0.44383 0.38270 0.13510
 O574 O 0.41103 0.34845 0.17236
 Zr575 Zr 0.38706 0.36421 0.06158
 O576 O 0.35119 0.32921 0.09499
 O577 O 0.33994 0.33772 0.16564
 O578 O 0.41424 0.40841 0.09048
 C579 C 0.37556 0.30018 0.22890
 C580 C 0.27838 0.37488 0.20389
 C581 C 0.30091 0.27532 0.12923
 C582 C 0.38033 0.44510 0.02729
 C583 C 0.45361 0.47033 0.12340
 C584 C 0.47492 0.37431 0.05276
 H585 H 0.41336 0.43621 0.17783
 H586 H 0.43888 0.32045 0.09345
 H587 H 0.32348 0.32183 0.18208
 H588 H 0.32642 0.40852 0.06497
 H589 H 0.30284 0.46659 0.12343
 H590 H 0.26952 0.41921 0.09528
 H591 H 0.48905 0.32426 0.13181
 H592 H 0.44705 0.28525 0.16916
 H593 H 0.37182 0.48413 0.17527
 H594 H 0.33716 0.44568 0.21586
 H595 H 0.41830 0.30188 0.03640
 H596 H 0.38110 0.26331 0.08076
 H597 H 0.42661 0.37862 0.23709
 H598 H 0.46949 0.41363 0.19724
 H599 H 0.28948 0.33272 0.05800
 H600 H 0.32918 0.36723 0.01585
 O601 O 0.37916 0.68675 0.78755
 O602 O 0.42686 0.63640 0.77784
 O603 O 0.28076 0.62166 0.81691
 O604 O 0.26746 0.57559 0.86035
 O605 O 0.31085 0.71831 0.88452
 O606 O 0.36031 0.73073 0.93133
 O607 O 0.37847 0.52509 0.93009
 O608 O 0.33813 0.51473 0.87302
 O609 O 0.47501 0.58109 0.88674
 O610 O 0.48510 0.64035 0.85013
 O611 O 0.41504 0.62147 0.98396
 O612 O 0.35593 0.66240 0.99070
 O613 O 0.36773 0.56907 0.97648
 O614 O 0.32053 0.61754 0.98652
 O615 O 0.46487 0.62589 0.94291
 O616 O 0.47897 0.67554 0.89467
 O617 O 0.43376 0.53159 0.88093
 O618 O 0.38975 0.51614 0.83631
 O619 O 0.36908 0.72851 0.83616
 O620 O 0.40389 0.73910 0.89176
 O621 O 0.26994 0.66896 0.87501
 O622 O 0.26101 0.61251 0.91184
 O623 O 0.33103 0.62916 0.77675
 O624 O 0.38741 0.59329 0.76809
 Zr625 Zr 0.37835 0.63214 0.81327
 O626 O 0.41281 0.59667 0.84726
 Zr627 Zr 0.30538 0.62098 0.87185
 O628 O 0.33713 0.58634 0.90933
 Zr629 Zr 0.36542 0.69347 0.88421
 O630 O 0.40059 0.66173 0.92072
 Zr631 Zr 0.37988 0.55772 0.87893
 O632 O 0.34556 0.58945 0.84026
 Zr633 Zr 0.44004 0.62988 0.88877
 O634 O 0.40839 0.66606 0.85242
 Zr635 Zr 0.36696 0.62094 0.94822
 O636 O 0.33106 0.65500 0.91428
 O637 O 0.33689 0.66191 0.84307
 O638 O 0.40873 0.58988 0.91943
 C639 C 0.37506 0.72074 0.80100
 C640 C 0.29535 0.62514 0.78337
 C641 C 0.27721 0.70425 0.88099
 C642 C 0.37312 0.53494 0.96517
 C643 C 0.46754 0.54543 0.88343
 C644 C 0.45077 0.62271 0.97652
 H645 H 0.43122 0.58348 0.83054
 H646 H 0.41326 0.67891 0.93905
 H647 H 0.32090 0.67818 0.82654
 H648 H 0.32003 0.56814 0.92231
 H649 H 0.32281 0.52127 0.85027
 H650 H 0.27441 0.55418 0.87727
 H651 H 0.47039 0.69165 0.91615
 H652 H 0.42786 0.73132 0.87914
 H653 H 0.39900 0.52977 0.81353
 H654 H 0.37041 0.57131 0.77284
 H655 H 0.37789 0.67999 0.99176
 H656 H 0.34040 0.71997 0.94811
 H657 H 0.44288 0.65699 0.78853
 H658 H 0.48335 0.62121 0.82950
 H659 H 0.26579 0.63016 0.93333
 H660 H 0.30327 0.59732 0.97722
 O661 O 0.11982 0.68702 0.71919
 O662 O 0.07555 0.63677 0.73097
 O663 O 0.22022 0.62987 0.68573
 O664 O 0.24078 0.59248 0.63965
 O665 O 0.17538 0.72593 0.61824
 O666 O 0.12536 0.73251 0.57460
 O667 O 0.12961 0.52230 0.58325
 O668 O 0.17085 0.51809 0.63522
 O669 O 0.02935 0.57108 0.62073
 O670 O 0.01020 0.62472 0.65400
 O671 O 0.08282 0.61662 0.52226
 O672 O 0.13813 0.65573 0.51109
 O673 O 0.13021 0.56316 0.53308
 O674 O 0.17866 0.61649 0.52067
 O675 O 0.03293 0.61930 0.56341
 O676 O 0.01782 0.66778 0.61614
 O677 O 0.07597 0.52695 0.62926
 O678 O 0.12539 0.52206 0.67882
 O679 O 0.12093 0.72878 0.66972
 O680 O 0.07982 0.73257 0.61315
 O681 O 0.22270 0.68246 0.62643
 O682 O 0.23597 0.62435 0.58824
 O683 O 0.17063 0.63271 0.72740
 O684 O 0.11543 0.59289 0.73683
 Zr685 Zr 0.12195 0.63337 0.69274
 O686 O 0.08949 0.59477 0.66053
 Zr687 Zr 0.19414 0.62960 0.63140
 O688 O 0.16523 0.58928 0.59734
 Zr689 Zr 0.12535 0.69393 0.62078
 O690 O 0.09445 0.65733 0.58466
 Zr691 Zr 0.12643 0.55847 0.63060
 O692 O 0.15912 0.59476 0.66568
 Zr693 Zr 0.05845 0.62331 0.61801
 O694 O 0.08671 0.66275 0.65414
 Zr695 Zr 0.13103 0.61819 0.55767
 O696 O 0.16263 0.65869 0.58951
 O697 O 0.15916 0.66679 0.66108
 O698 O 0.09328 0.58504 0.58899
 C699 C 0.11976 0.72093 0.70550
 C700 C 0.20627 0.63057 0.71973
 C701 C 0.21050 0.71658 0.62066
 C702 C 0.12965 0.52941 0.54747
 C703 C 0.04109 0.53675 0.62549
 C704 C 0.04705 0.61754 0.52954
 H705 H 0.07240 0.58068 0.67787
 H706 H 0.08023 0.67301 0.56614
 H707 H 0.17449 0.68432 0.67697
 H708 H 0.18359 0.57192 0.58490
 H709 H 0.18922 0.52841 0.65396
 H710 H 0.23305 0.56723 0.62985
 H711 H 0.02232 0.68248 0.59254
 H712 H 0.06066 0.72668 0.63298
 H713 H 0.10204 0.52742 0.69363
 H714 H 0.13472 0.57283 0.73230
 H715 H 0.11948 0.67660 0.51424
 H716 H 0.14316 0.72199 0.55541
 H717 H 0.05682 0.65437 0.71941
 H718 H 0.01892 0.61725 0.67970
 H719 H 0.22930 0.64280 0.56802
 H720 H 0.19312 0.59293 0.52602
 O721 O 0.11898 0.18592 0.21751
 O722 O 0.07408 0.13604 0.22863
 O723 O 0.21809 0.12621 0.18144
 O724 O 0.23763 0.09073 0.13356
 O725 O 0.17509 0.22579 0.11787
 O726 O 0.12473 0.23426 0.07376
 O727 O 0.12503 0.02447 0.07763
 O728 O 0.16697 0.01845 0.12927
 O729 O 0.02585 0.07342 0.11792
 O730 O 0.00836 0.12781 0.15300
 O731 O 0.07884 0.12080 0.01966
 O732 O 0.13418 0.15913 0.00848
 O733 O 0.12479 0.06653 0.02851
 O734 O 0.17497 0.11937 0.01730
 O735 O 0.02949 0.12216 0.06153
 O736 O 0.01527 0.17009 0.11456
 O737 O 0.07216 0.02857 0.12419
 O738 O 0.12173 0.02144 0.17300
 O739 O 0.12023 0.22875 0.16895
 O740 O 0.07963 0.23500 0.11284
 O741 O 0.22142 0.18126 0.12608
 O742 O 0.23263 0.12530 0.08357
 O743 O 0.16923 0.13028 0.22387
 O744 O 0.11338 0.09157 0.23333
 Zr745 Zr 0.12010 0.13274 0.18992
 O746 O 0.08679 0.09533 0.15723
 Zr747 Zr 0.19158 0.12906 0.12764
 O748 O 0.16167 0.09023 0.09283
 Zr749 Zr 0.12408 0.19494 0.11933
 O750 O 0.09187 0.15977 0.08291
 Zr751 Zr 0.12290 0.05933 0.12594
 O752 O 0.15636 0.09416 0.16157
 Zr753 Zr 0.05569 0.12541 0.11583
 O754 O 0.08512 0.16366 0.15231
 Zr755 Zr 0.12746 0.12082 0.05447
 O756 O 0.16033 0.15988 0.08681
 O757 O 0.15758 0.16612 0.15868
 O758 O 0.08967 0.08744 0.08549
 C759 C 0.11921 0.22014 0.20453
 C760 C 0.20463 0.12683 0.21557
 C761 C 0.21000 0.21576 0.12132
 C762 C 0.12410 0.03242 0.04203
 C763 C 0.03736 0.03882 0.12136
 C764 C 0.04318 0.12117 0.02747
 H765 H 0.06976 0.08101 0.17444
 H766 H 0.07764 0.17605 0.06492
 H767 H 0.17320 0.18283 0.17515
 H768 H 0.17955 0.07294 0.07963
 H769 H 0.18558 0.02815 0.14810
 H770 H 0.22951 0.06618 0.12240
 H771 H 0.02019 0.18544 0.09146
 H772 H 0.05975 0.22819 0.13162
 H773 H 0.09881 0.02697 0.18841
 H774 H 0.13190 0.07103 0.22789
 H775 H 0.11667 0.18072 0.01301
 H776 H 0.14309 0.22426 0.05482
 H777 H 0.05539 0.15392 0.21744
 H778 H 0.01664 0.11713 0.17768
 H779 H 0.22651 0.14542 0.06482
 H780 H 0.18814 0.09472 0.02077
 O781 O 0.72248 0.38158 0.82562
 O782 O 0.73024 0.42405 0.87740
 O783 O 0.68429 0.27969 0.87931
 O784 O 0.63748 0.26559 0.92147
 O785 O 0.62628 0.31729 0.77953
 O786 O 0.58434 0.36714 0.76473
 O787 O 0.56890 0.37856 0.97330
 O788 O 0.62056 0.33919 0.98811
 O789 O 0.61635 0.47635 0.92186
 O790 O 0.65594 0.48809 0.86688
 O791 O 0.52138 0.41929 0.87427
 O792 O 0.51555 0.36186 0.83204
 O793 O 0.52489 0.37038 0.92655
 O794 O 0.51754 0.32416 0.87477
 O795 O 0.56310 0.46870 0.87413
 O796 O 0.61636 0.48079 0.82624
 O797 O 0.61869 0.43392 0.97071
 O798 O 0.66374 0.38407 0.98643
 O799 O 0.67854 0.37473 0.77846
 O800 O 0.62273 0.41214 0.76461
 O801 O 0.62920 0.27399 0.82765
 O802 O 0.58793 0.26409 0.88233
 O803 O 0.72610 0.32912 0.87891
 O804 O 0.73090 0.38371 0.92121
 Zr805 Zr 0.69139 0.37809 0.87614
 O806 O 0.65561 0.41358 0.90838
 Zr807 Zr 0.63041 0.30666 0.87800
 O808 O 0.59205 0.33865 0.91165
 Zr809 Zr 0.62631 0.37029 0.80771
 O810 O 0.58715 0.40446 0.83773
 Zr811 Zr 0.62116 0.37998 0.94384
 O812 O 0.66016 0.34420 0.91432
 Zr813 Zr 0.61710 0.44243 0.87278
 O814 O 0.65651 0.41086 0.83989
 Zr815 Zr 0.55612 0.37044 0.87579
 O816 O 0.59185 0.33546 0.84218
 O817 O 0.66351 0.33907 0.84140
 O818 O 0.58342 0.41068 0.90993
 C819 C 0.71274 0.37972 0.79055
 C820 C 0.71835 0.29334 0.87937
 C821 C 0.62668 0.28297 0.79226
 C822 C 0.53454 0.37411 0.96152
 C823 C 0.61770 0.46809 0.95734
 C824 C 0.52916 0.45501 0.87463
 H825 H 0.67174 0.43149 0.92290
 H826 H 0.57034 0.41790 0.81965
 H827 H 0.68081 0.32338 0.82558
 H828 H 0.57761 0.32130 0.92846
 H829 H 0.63987 0.31975 0.98145
 H830 H 0.62081 0.27313 0.94290
 H831 H 0.59309 0.47596 0.81117
 H832 H 0.63843 0.43391 0.77322
 H833 H 0.68255 0.40329 0.97818
 H834 H 0.72400 0.36440 0.94056
 H835 H 0.51741 0.38344 0.81404
 H836 H 0.56355 0.35123 0.77515
 H837 H 0.72039 0.44337 0.85941
 H838 H 0.67633 0.48440 0.88593
 H839 H 0.56870 0.26964 0.86251
 H840 H 0.52394 0.30711 0.89625
 O841 O 0.12919 0.81453 0.78299
 O842 O 0.09026 0.86481 0.76370
 O843 O 0.22517 0.87839 0.83082
 O844 O 0.23332 0.92086 0.87795
 O845 O 0.18194 0.78022 0.88681
 O846 O 0.12934 0.76916 0.92829
 O847 O 0.11569 0.97942 0.91786
 O848 O 0.15907 0.98658 0.86983
 O849 O 0.02181 0.91982 0.86776
 O850 O 0.01634 0.86169 0.82938
 O851 O 0.06383 0.88436 0.97171
 O852 O 0.11447 0.84790 0.99312
 O853 O 0.11545 0.93842 0.96809
 O854 O 0.16016 0.88327 0.98689
 O855 O 0.02185 0.87494 0.92340
 O856 O 0.01784 0.82440 0.87282
 O857 O 0.06389 0.96892 0.87011
 O858 O 0.11377 0.97548 0.82026
 O859 O 0.12861 0.77277 0.83253
 O860 O 0.08722 0.76405 0.88692
 O861 O 0.22438 0.82910 0.88766
 O862 O 0.22652 0.88713 0.92789
 O863 O 0.18349 0.86907 0.78211
 O864 O 0.12903 0.90937 0.76503
 Zr865 Zr 0.12956 0.86835 0.80911
 O866 O 0.08920 0.90347 0.83624
 Zr867 Zr 0.19108 0.87807 0.87998
 O868 O 0.15409 0.91492 0.90931
 Zr869 Zr 0.12870 0.80735 0.88178
 O870 O 0.08934 0.84069 0.91263
 Zr871 Zr 0.11772 0.94274 0.87091
 O872 O 0.15861 0.91002 0.84097
 Zr873 Zr 0.05571 0.87129 0.87400
 O874 O 0.09258 0.83521 0.84299
 Zr875 Zr 0.11755 0.88300 0.94433
 O876 O 0.15741 0.84584 0.91776
 O877 O 0.16433 0.83781 0.84577
 O878 O 0.08202 0.91262 0.90758
 C879 C 0.12792 0.78068 0.79676
 C880 C 0.21736 0.87384 0.79538
 C881 C 0.21595 0.79362 0.88888
 C882 C 0.11565 0.97219 0.95365
 C883 C 0.02999 0.95533 0.86821
 C884 C 0.02978 0.88049 0.95868
 H885 H 0.07359 0.91662 0.81685
 H886 H 0.07384 0.82414 0.92930
 H887 H 0.18200 0.82107 0.83151
 H888 H 0.16971 0.93324 0.92390
 H889 H 0.17712 0.98016 0.84911
 H890 H 0.22036 0.94532 0.88299
 H891 H 0.02081 0.81019 0.89695
 H892 H 0.06752 0.76949 0.86755
 H893 H 0.10632 1.00177 0.82748
 H894 H 0.14689 0.92978 0.77271
 H895 H 0.10836 0.82195 0.98407
 H896 H 0.14567 0.78086 0.94808
 H897 H 0.06833 0.85002 0.77340
 H898 H 0.02129 0.88074 0.80924
 H899 H 0.22057 0.86683 0.94652
 H900 H 0.17562 0.90653 0.98329
 O901 O 0.71964 0.13392 0.67853
 O902 O 0.73654 0.09269 0.62758
 O903 O 0.67122 0.22867 0.61169
 O904 O 0.62171 0.23564 0.57169
 O905 O 0.61884 0.18952 0.71498
 O906 O 0.57618 0.13787 0.72834
 O907 O 0.57674 0.11652 0.52121
 O908 O 0.62829 0.15927 0.50947
 O909 O 0.62939 0.02378 0.58031
 O910 O 0.67196 0.02044 0.63520
 O911 O 0.52914 0.06862 0.62270
 O912 O 0.51190 0.12667 0.65842
 O913 O 0.52869 0.11627 0.56463
 O914 O 0.51153 0.16236 0.61423
 O915 O 0.57781 0.02648 0.62948
 O916 O 0.63189 0.02433 0.67607
 O917 O 0.62545 0.06407 0.52988
 O918 O 0.66986 0.10922 0.51389
 O919 O 0.67166 0.13629 0.72206
 O920 O 0.61839 0.09639 0.73482
 O921 O 0.61772 0.23072 0.66507
 O922 O 0.57402 0.23143 0.60928
 O923 O 0.71965 0.18702 0.62221
 O924 O 0.73618 0.13117 0.58413
 Zr925 Zr 0.69220 0.13330 0.62529
 O926 O 0.66323 0.09217 0.59246
 Zr927 Zr 0.62175 0.19538 0.61641
 O928 O 0.58989 0.15716 0.58268
 Zr929 Zr 0.62193 0.13555 0.68924
 O930 O 0.59001 0.09491 0.65910
 Zr931 Zr 0.62624 0.11903 0.55426
 O932 O 0.65875 0.16072 0.58379
 Zr933 Zr 0.62711 0.06001 0.62772
 O934 O 0.65943 0.09801 0.66121
 Zr935 Zr 0.55627 0.12219 0.61785
 O936 O 0.58495 0.16358 0.65148
 O937 O 0.65718 0.16959 0.65608
 O938 O 0.59103 0.08490 0.58758
 C939 C 0.70689 0.13426 0.71288
 C940 C 0.70665 0.22075 0.61577
 C941 C 0.61760 0.22329 0.70095
 C942 C 0.54142 0.11550 0.53022
 C943 C 0.62713 0.03051 0.54455
 C944 C 0.54236 0.03471 0.62732
 H945 H 0.68172 0.07604 0.57860
 H946 H 0.57456 0.08014 0.67740
 H947 H 0.67235 0.18762 0.67154
 H948 H 0.57446 0.17204 0.56447
 H949 H 0.64947 0.17698 0.51523
 H950 H 0.61454 0.22177 0.54826
 H951 H 0.60868 0.02764 0.69169
 H952 H 0.63691 0.07588 0.72927
 H953 H 0.69283 0.12189 0.52388
 H954 H 0.73089 0.15132 0.56516
 H955 H 0.51868 0.11036 0.68035
 H956 H 0.55649 0.15437 0.71678
 H957 H 0.72755 0.07207 0.64456
 H958 H 0.69076 0.02458 0.61463
 H959 H 0.55609 0.22552 0.63023
 H960 H 0.51819 0.18069 0.59392
 C961 C 0.38173 0.74981 0.73744
 C962 C 0.37600 0.75357 0.77486
 H963 H 0.38674 0.72176 0.72552
 H964 H 0.37098 0.78160 0.78683
 C965 C 0.37979 0.23728 0.25837
 C966 C 0.37484 0.27484 0.26260
 H967 H 0.38537 0.22594 0.23017
 H968 H 0.36908 0.28680 0.29048
 C969 C 0.62812 0.74452 0.27059
 C970 C 0.62158 0.74963 0.23331
 H971 H 0.63178 0.71604 0.28188
 H972 H 0.61790 0.77811 0.22204
 C973 C 0.12572 0.24640 0.26943
 C974 C 0.12028 0.25189 0.23200
 H975 H 0.12801 0.21773 0.28060
 H976 H 0.11808 0.28056 0.22082
 C977 C 0.12035 0.75321 0.73239
 C978 C 0.12562 0.74841 0.76996
 H979 H 0.11793 0.78165 0.72069
 H980 H 0.12813 0.71997 0.78164
 C981 C 0.88130 0.24138 0.75162
 C982 C 0.87206 0.27787 0.75554
 H983 H 0.88913 0.23076 0.72366
 H984 H 0.86403 0.28886 0.78327
 C985 C 0.73955 0.37941 0.72570
 C986 C 0.74394 0.38267 0.76332
 H987 H 0.71157 0.37521 0.71346
 H988 H 0.77209 0.38679 0.77526
 C989 C 0.26994 0.62583 0.74981
 C990 C 0.23210 0.62892 0.75290
 H991 H 0.28296 0.62506 0.72182
 H992 H 0.21925 0.63031 0.78095
 C993 C 0.26842 0.11803 0.24381
 C994 C 0.23097 0.12348 0.24802
 H995 H 0.28068 0.11636 0.21551
 H996 H 0.21891 0.12573 0.27637
 C997 C 0.77093 0.12458 0.73912
 C998 C 0.73397 0.13180 0.74443
 H999 H 0.78238 0.12169 0.71058
 H1000 H 0.72278 0.13518 0.77303
 C1001 C 0.74710 0.87874 0.26670
 C1002 C 0.74238 0.87462 0.22917
 H1003 H 0.77517 0.88422 0.27826
 H1004 H 0.71438 0.86923 0.21743
 C1005 C 0.75180 0.72788 0.37282
 C1006 C 0.75469 0.76494 0.38176
 H1007 H 0.72389 0.71562 0.36816
 H1008 H 0.78260 0.77736 0.38594
 C1009 C 0.77081 0.25054 0.62001
 C1010 C 0.73321 0.25345 0.61412
 H1011 H 0.78330 0.22279 0.62508
 H1012 H 0.72086 0.28128 0.60914
 C1013 C 0.73494 0.75046 0.11723
 C1014 C 0.77276 0.74788 0.12150
 H1015 H 0.72213 0.77829 0.11348
 H1016 H 0.78580 0.72021 0.12555
 C1017 C 0.27497 0.24233 0.12812
 C1018 C 0.23787 0.24687 0.12074
 H1019 H 0.28634 0.21427 0.13404
 H1020 H 0.22676 0.27511 0.11509
 C1021 C 0.24434 0.73000 0.88310
 C1022 C 0.24814 0.76709 0.89071
 H1023 H 0.21643 0.71820 0.87732
 H1024 H 0.27612 0.77898 0.89592
 C1025 C 0.24623 0.22437 0.37631
 C1026 C 0.25058 0.26141 0.38437
 H1027 H 0.21798 0.21292 0.37160
 H1028 H 0.27888 0.27291 0.38866
 C1029 C 0.51466 0.61536 1.00332
 C1030 C 0.47726 0.62004 1.00881
 H1031 H 0.52587 0.61316 0.97461
 H1032 H 0.46580 0.62191 1.03742
 C1033 C 0.47665 0.11615 0.50241
 C1034 C 0.51444 0.11428 0.49813
 H1035 H 0.46438 0.11724 0.53073
 H1036 H 0.52649 0.11291 0.46971
 C1037 C 0.50197 0.87747 0.48803
 C1038 C 0.50555 0.88701 0.52476
 H1039 H 0.47399 0.87117 0.47667
 H1040 H 0.53346 0.89277 0.53652
 C1041 C 1.00158 0.37900 0.48844
 C1042 C 1.00441 0.38608 0.52591
 H1043 H 0.97363 0.37468 0.47613
 H1044 H 1.03220 0.39030 0.53856
 C1045 C -0.00032 0.88790 1.02294
 C1046 C -0.00321 0.88238 0.98509
 H1047 H 0.02768 0.89147 1.03538
 H1048 H -0.03110 0.87862 0.97244
 C1049 C -0.02103 0.12122 -0.00243
 C1050 C 0.01700 0.12096 -0.00560
 H1051 H -0.03395 0.12083 0.02562
 H1052 H 0.02978 0.12086 -0.03371
 C1053 C 0.12158 1.00151 1.01713
 C1054 C 0.11721 1.00529 0.97942
 H1055 H 0.12253 0.97319 1.02939
 H1056 H 0.11587 1.03338 0.96669
 C1057 C 0.12218 0.49947 0.48435
 C1058 C 0.12828 0.49615 0.52179
 H1059 H 0.11887 0.52752 0.47191
 H1060 H 0.13147 0.46813 0.53432
 C1061 C 0.38061 0.46979 0.99306
 C1062 C 0.37278 0.50686 0.99624
 H1063 H 0.38726 0.45756 0.96550
 H1064 H 0.36616 0.51834 1.02418
 C1065 C 0.88183 0.49522 0.47333
 C1066 C 0.87629 0.50012 0.51049
 H1067 H 0.88626 0.46685 0.46196
 H1068 H 0.87165 0.52866 0.52142
 C1069 C 0.87794 0.99427 -0.02809
 C1070 C 0.87085 0.99870 0.00888
 H1071 H 0.88392 0.96617 -0.03941
 H1072 H 0.86466 1.02697 0.01972
 C1073 C 0.61829 -0.00031 0.48213
 C1074 C 0.62584 -0.00303 0.51932
 H1075 H 0.61349 0.02745 0.46953
 H1076 H 0.63064 -0.03076 0.53197
 C1077 C 0.50072 1.01227 0.37711
 C1078 C 0.49705 0.97470 0.37206
 H1079 H 0.52870 1.02461 0.38110
 H1080 H 0.46906 0.96226 0.36844
 C1081 C -0.02795 0.01320 0.12395
 C1082 C 0.00965 0.00789 0.12255
 H1083 H -0.03983 0.04167 0.12339
 H1084 H 0.02121 -0.02075 0.12305
 C1085 C 0.51700 0.49967 0.12780
 C1086 C 0.47947 0.50345 0.12244
 H1087 H 0.52896 0.47163 0.13264
 H1088 H 0.46737 0.53133 0.11714
 C1089 C -0.02424 0.51155 0.62717
 C1090 C 0.01334 0.50581 0.62709
 H1091 H -0.03573 0.54014 0.62547
 H1092 H 0.02462 0.47711 0.62877
 C1093 C 0.50037 0.51909 0.88188
 C1094 C 0.49648 0.48150 0.87620
 H1095 H 0.52856 0.53119 0.88509
 H1096 H 0.46827 0.46937 0.87335
 C1097 C 0.62525 0.49711 1.02109
 C1098 C 0.61918 0.50078 0.98363
 H1099 H 0.62786 0.46883 1.03319
 H1100 H 0.61626 0.52890 0.97120
 C1101 C 0.37687 0.99464 0.48106
 C1102 C 0.37360 0.99952 0.51883
 H1103 H 0.38104 0.96615 0.46982
 H1104 H 0.36930 1.02781 0.53048
 C1105 C -0.01670 0.61986 0.49878
 C1106 C 0.02128 0.61735 0.49610
 H1107 H -0.02989 0.62093 0.52668
 H1108 H 0.03435 0.61586 0.46815
 C1109 C 0.50785 0.37565 1.02680
 C1110 C 0.50319 0.37286 0.98909
 H1111 H 0.53601 0.37944 1.03876
 H1112 H 0.47485 0.36939 0.97742
 C1113 C 0.47820 0.00608 0.63356
 C1114 C 0.51595 0.00228 0.63042
 H1115 H 0.46557 0.03424 0.63384
 H1116 H 0.52843 -0.02596 0.63030
 C1117 C 0.00785 0.51776 0.37362
 C1118 C 0.00265 0.48020 0.37065
 H1119 H 0.03620 0.52942 0.37699
 H1120 H -0.02577 0.46857 0.36768
 C1121 C 0.00194 1.01926 0.87153
 C1122 C -0.00223 0.98165 0.86702
 H1123 H 0.03012 1.03117 0.87560
 H1124 H -0.03025 0.96931 0.86319
 C1125 C 0.77629 0.62295 0.23920
 C1126 C 0.73892 0.62724 0.24475
 H1127 H 0.78785 0.62152 0.21060
 H1128 H 0.72767 0.62921 0.27346
 C1129 C 0.24714 0.86659 0.73165
 C1130 C 0.25024 0.87313 0.76912
 H1131 H 0.21928 0.86230 0.71916
 H1132 H 0.27814 0.87784 0.78140
 C1133 C 0.24937 0.37676 0.26753
 C1134 C 0.24520 0.37429 0.22967
 H1135 H 0.27753 0.38043 0.27957
 H1136 H 0.21718 0.37041 0.21742
 C1137 C 0.88614 0.74083 0.25142
 C1138 C 0.87620 0.77718 0.25507
 H1139 H 0.89435 0.73024 0.22356
 H1140 H 0.86799 0.78816 0.28275
 C1141 C 0.62446 0.25113 0.76498
 C1142 C 0.61805 0.25584 0.72760
 H1143 H 0.62810 0.22268 0.77637
 H1144 H 0.61460 0.28423 0.71602
 C1145 C 0.74797 0.22949 0.87107
 C1146 C 0.75130 0.26691 0.87827
 H1147 H 0.71990 0.21733 0.86714
 H1148 H 0.77939 0.27914 0.88176
 C1149 C 0.27539 0.74372 0.61635
 C1150 C 0.23764 0.74821 0.61761
 H1151 H 0.28764 0.71540 0.61676
 H1152 H 0.22564 0.77665 0.61699
   
