data_POSCAR
  _audit_creation_date              2014-09-24
  _audit_creation_method            'ToBaCCo'
  _symmetry_space_group_name_H-M    'P1'
  _symmetry_Int_Tables_number       1
  _symmetry_cell_setting            triclinic
  loop_
  _symmetry_equiv_pos_as_xyz
 x,y,z
_cell_length_a 15.8049
_cell_length_b 18.9410
_cell_length_c 22.5403
_cell_angle_alpha 89.268800
_cell_angle_beta 89.538100
_cell_angle_gamma 90.313400
loop_
  _atom_site_label
  _atom_site_type_symbol
  _atom_site_fract_x
  _atom_site_fract_y
  _atom_site_fract_z
O1 O 0.16914 0.06204 0.04003
 O2 O -0.14790 -0.08904 0.05519
 O3 O -0.08895 0.12618 0.04992
 O4 O 0.10425 -0.14994 0.01597
 O5 O -0.12820 0.02656 0.08357
 O6 O 0.15348 -0.06223 0.06020
 O7 O -0.02642 -0.13496 0.06915
 O8 O 0.05709 0.10896 0.07609
 C9 C 0.13347 0.09612 0.08042
 C10 C -0.09851 -0.12350 0.08766
 C11 C -0.12128 0.09037 0.09119
 C12 C 0.14425 -0.12686 0.05849
 O13 O 0.14990 -0.08329 -0.06305
 O14 O -0.15780 0.07470 -0.03020
 O15 O 0.10346 0.13088 -0.03772
 O16 O -0.10829 -0.13942 -0.03337
 O17 O -0.14917 -0.04150 -0.06455
 O18 O 0.14185 0.03607 -0.07785
 O19 O 0.02619 -0.12092 -0.08587
 O20 O -0.04459 0.12063 -0.06636
 Co21 Co 0.13981 -0.01172 -0.00874
 Co22 Co -0.13231 -0.00781 0.00964
 Co23 Co 0.00628 0.10848 0.00476
 Co24 Co -0.00085 -0.12362 -0.00784
 O25 O 0.00334 -0.00834 -0.00039
 C26 C 0.10055 -0.10855 -0.10072
 C27 C -0.12141 0.10898 -0.07089
 C28 C 0.13623 0.10046 -0.08086
 C29 C -0.14409 -0.10517 -0.07270
 O30 O 0.43769 0.38738 0.42986
 O31 O 0.58132 0.65765 0.50298
 O32 O 0.38730 0.55126 0.41962
 O33 O 0.65490 0.46878 0.42683
 O34 O 0.44099 0.64437 0.45819
 O35 O 0.58904 0.37121 0.44759
 O36 O 0.62476 0.58691 0.43987
 O37 O 0.32810 0.43863 0.46404
 C38 C 0.36022 0.39742 0.42772
 C39 C 0.61583 0.64829 0.45446
 C40 C 0.40976 0.61425 0.41435
 C41 C 0.64085 0.40584 0.41659
 O42 O 0.56763 0.36789 0.56183
 O43 O 0.38113 0.60226 0.56548
 O44 O 0.36184 0.47950 0.56972
 O45 O 0.65067 0.57085 0.56226
 O46 O 0.52668 0.59322 0.60039
 O47 O 0.40859 0.37559 0.54901
 O48 O 0.67111 0.44426 0.54309
 O49 O 0.28298 0.56434 0.50589
 Co50 Co 0.49979 0.38738 0.49767
 Co51 Co 0.48438 0.61270 0.52834
 Co52 Co 0.38026 0.51598 0.49497
 Co53 Co 0.63843 0.51770 0.49409
 O54 O 0.50643 0.50259 0.50161
 C55 C 0.64137 0.39098 0.57091
 C56 C 0.30622 0.60968 0.54600
 C57 C 0.36751 0.41572 0.58261
 C58 C 0.60466 0.58672 0.60632
 C59 C 0.18358 0.12607 0.12905
 C60 C 0.14799 0.17113 0.17094
 C61 C 0.19858 0.20687 0.21651
 N62 N 0.16063 0.25219 0.25447
 N63 N 0.20560 0.28612 0.29513
 C64 C 0.29039 0.27605 0.29932
 N65 N 0.32828 0.23061 0.26146
 N66 N 0.28333 0.19670 0.22080
 C67 C 0.34161 0.31335 0.34363
 C68 C 0.30735 0.36134 0.38368
 H69 H 0.08091 0.18247 0.16924
 H70 H 0.40884 0.30253 0.34465
 H71 H 0.25062 0.11469 0.13035
 H72 H 0.24021 0.37244 0.38310
 C73 C 0.87467 0.84276 0.14345
 C74 C 0.79933 0.85751 0.17316
 C75 C 0.77652 0.81737 0.22742
 N76 N 0.70825 0.83512 0.26098
 N77 N 0.68693 0.79669 0.30897
 C78 C 0.73330 0.73930 0.32479
 N79 N 0.80131 0.72190 0.29131
 N80 N 0.82269 0.76029 0.24379
 C81 C 0.70803 0.69151 0.37335
 C82 C 0.64645 0.70615 0.41586
 H83 H 0.75721 0.89790 0.15642
 H84 H 0.73829 0.64026 0.37435
 H85 H 0.91807 0.80479 0.16249
 H86 H 0.61966 0.75842 0.41952
 C87 C 0.82868 0.13919 0.88034
 C88 C 0.86367 0.18342 0.83664
 C89 C 0.81195 0.21399 0.78873
 N90 N 0.84658 0.26155 0.74995
 N91 N 0.80014 0.29011 0.70685
 C92 C 0.71736 0.27201 0.70081
 N93 N 0.68289 0.22419 0.73939
 N94 N 0.72924 0.19578 0.78256
 C95 C 0.66475 0.30354 0.65387
 C96 C 0.69465 0.35735 0.61634
 H97 H 0.93030 0.19702 0.83810
 H98 H 0.60012 0.28500 0.64977
 H99 H 0.76178 0.12657 0.87938
 H100 H 0.75868 0.37696 0.62133
 C101 C 0.13423 0.87125 0.84137
 C102 C 0.08944 0.83060 0.80102
 C103 C 0.13263 0.80280 0.74826
 N104 N 0.09576 0.75225 0.71475
 N105 N 0.13865 0.72245 0.67046
 C106 C 0.21973 0.74250 0.65826
 N107 N 0.25563 0.79387 0.69097
 N108 N 0.21293 0.82352 0.73499
 C109 C 0.27287 0.70556 0.61536
 C110 C 0.24429 0.65303 0.57780
 H111 H 0.02485 0.81445 0.81065
 H112 H 0.33971 0.71770 0.61650
 H113 H 0.19946 0.88561 0.83201
 H114 H 0.17733 0.64217 0.57339
 C115 C 0.16970 0.13388 0.87181
 C116 C 0.17016 0.20683 0.86201
 C117 C 0.21117 0.23675 0.80795
 N118 N 0.20732 0.30694 0.79525
 N119 N 0.24433 0.33334 0.74627
 C120 C 0.28666 0.29053 0.70829
 N121 N 0.29066 0.22061 0.72115
 N122 N 0.25366 0.19431 0.76990
 C123 C 0.32836 0.31799 0.65395
 C124 C 0.32442 0.38862 0.63645
 H125 H 0.14041 0.24185 0.89348
 H126 H 0.36325 0.28116 0.62684
 H127 H 0.19859 0.10090 0.83835
 H128 H 0.28932 0.42560 0.66328
 C129 C 0.82173 0.86109 0.87437
 C130 C 0.81146 0.78810 0.87222
 C131 C 0.78648 0.75211 0.81786
 N132 N 0.74783 0.68805 0.82132
 N133 N 0.72535 0.65455 0.77224
 C134 C 0.74222 0.68341 0.71795
 N135 N 0.78223 0.74690 0.71448
 N136 N 0.80368 0.78084 0.76357
 C137 C 0.71511 0.64846 0.66356
 C138 C 0.64279 0.60630 0.66275
 H139 H 0.82053 0.75636 0.91198
 H140 H 0.74555 0.66372 0.62205
 H141 H 0.80577 0.89382 0.83636
 H142 H 0.60618 0.59814 0.70313
 C143 C 0.17946 0.82330 0.10183
 C144 C 0.23201 0.84230 0.14812
 C145 C 0.26260 0.78852 0.19053
 N146 N 0.31912 0.80628 0.23277
 N147 N 0.34567 0.75809 0.27187
 C148 C 0.31678 0.69035 0.27025
 N149 N 0.26040 0.67259 0.22794
 N150 N 0.23403 0.72071 0.18875
 C151 C 0.34182 0.63797 0.31563
 C152 C 0.39815 0.65609 0.35997
 H153 H 0.25100 0.89691 0.15324
 H154 H 0.31079 0.58682 0.31686
 H155 H 0.16277 0.76821 0.09638
 H156 H 0.42825 0.70763 0.35842
 C157 C 0.84624 0.11881 0.14029
 C158 C 0.84736 0.19104 0.15172
 C159 C 0.80441 0.21977 0.20438
 N160 N 0.80956 0.28972 0.21596
 N161 N 0.76960 0.31638 0.26281
 C162 C 0.72272 0.27416 0.29977
 N163 N 0.71748 0.20423 0.28815
 N164 N 0.75760 0.17754 0.24137
 C165 C 0.67748 0.30323 0.35132
 C166 C 0.68584 0.37391 0.36645
 H167 H 0.87881 0.22750 0.12122
 H168 H 0.63718 0.26847 0.37776
 H169 H 0.81623 0.08347 0.17244
 H170 H 0.72739 0.40800 0.34033
   
