data_POSCAR
  _audit_creation_date              2014-09-24
  _audit_creation_method            'ToBaCCo'
  _symmetry_space_group_name_H-M    'P1'
  _symmetry_Int_Tables_number       1
  _symmetry_cell_setting            triclinic
  loop_
  _symmetry_equiv_pos_as_xyz
 x,y,z
_cell_length_a 20.2630
_cell_length_b 20.5473
_cell_length_c 53.5087
_cell_angle_alpha 82.242100
_cell_angle_beta 93.934100
_cell_angle_gamma 118.929000
loop_
  _atom_site_label
  _atom_site_type_symbol
  _atom_site_fract_x
  _atom_site_fract_y
  _atom_site_fract_z
C1 C 0.01934 0.14699 0.52627
 H2 H 0.07269 0.14961 0.52296
 C3 C 0.01606 0.19189 0.54280
 H4 H 0.06752 0.22973 0.55175
 C5 C -0.11212 0.09389 0.51835
 H6 H -0.16171 0.05516 0.50881
 C7 C -0.11799 0.13812 0.53498
 H8 H -0.17231 0.13354 0.53823
 N9 N -0.04413 0.09840 0.51474
 C10 C -0.00877 -0.08954 0.50641
 H11 H -0.00693 -0.08780 0.48617
 C12 C -0.01159 -0.15100 0.52222
 H13 H -0.01075 -0.19603 0.51409
 C14 C -0.01664 -0.03523 0.54172
 H15 H -0.02128 0.00831 0.54937
 C16 C -0.01881 -0.09490 0.55809
 H17 H -0.02378 -0.09604 0.57820
 Zn18 Zn -0.02639 0.03952 0.49472
 N19 N -0.01248 -0.03381 0.51636
 C20 C 0.12417 0.10038 0.47542
 N21 N 0.06071 0.10727 0.47569
 C22 C 0.05682 0.16706 0.46282
 C23 C 0.11739 0.22211 0.44840
 C24 C 0.18665 0.15477 0.46118
 C25 C -0.17226 -0.07159 0.48193
 C26 C -0.22502 -0.12035 0.46577
 C27 C -0.14410 -0.04395 0.43061
 C28 C -0.09304 0.00272 0.44735
 N29 N -0.10704 -0.01226 0.47254
 H30 H 0.12628 0.05289 0.48614
 H31 H 0.00598 0.17151 0.46368
 H32 H 0.11296 0.26879 0.43792
 H33 H 0.23661 0.14856 0.46075
 H34 H -0.18118 -0.08365 0.50210
 H35 H -0.27488 -0.16938 0.47366
 H36 H -0.12872 -0.03218 0.41093
 H37 H -0.04012 0.04829 0.44017
 C38 C -0.01800 -0.15429 0.54834
 C39 C -0.05336 0.18668 0.54774
 C40 C -0.21067 -0.10742 0.43972
 C41 C 0.18303 0.21618 0.44742
 C42 C 1.20758 0.08508 0.14037
 H43 H 1.21086 0.13906 0.14081
 C44 C 1.25771 0.07898 0.12559
 H45 H 1.29941 0.12836 0.11448
 C46 C 1.14661 -0.04561 0.15342
 H47 H 1.10246 -0.09388 0.16410
 C48 C 1.19641 -0.05416 0.13894
 H49 H 1.19004 -0.10934 0.13832
 N50 N 1.15226 0.02315 0.15337
 C51 C 0.96407 0.06800 0.15420
 H52 H 0.95620 0.06517 0.17419
 C53 C 0.90934 0.06926 0.13701
 H54 H 0.85963 0.06824 0.14377
 C55 C 1.03489 0.06620 0.12110
 H56 H 1.08178 0.06148 0.11491
 C57 C 0.98227 0.06850 0.10332
 H58 H 0.99044 0.06665 0.08373
 Zn59 Zn 1.08493 0.04119 0.17020
 N60 N 1.02450 0.06481 0.14606
 C61 C 1.13827 0.18356 0.18840
 N62 N 1.14481 0.12040 0.18947
 C63 C 1.19656 0.11055 0.20469
 C64 C 1.24221 0.16381 0.22053
 C65 C 1.18349 0.23881 0.20390
 C66 C 0.95955 -0.10135 0.18127
 C67 C 0.89871 -0.15571 0.19610
 C68 C 0.96041 -0.09194 0.23245
 C69 C 1.01938 -0.03853 0.21697
 N70 N 1.01734 -0.04315 0.19177
 H71 H 1.09755 0.19064 0.17582
 H72 H 1.20123 0.06023 0.20480
 H73 H 1.28226 0.15422 0.23270
 H74 H 1.17742 0.28855 0.20330
 H75 H 0.95838 -0.10285 0.16110
 H76 H 0.85137 -0.19961 0.18731
 H77 H 0.96133 -0.08586 0.25228
 H78 H 1.06436 0.00879 0.22500
 C79 C 0.91764 0.06799 0.11132
 C80 C 1.25181 0.00872 0.12454
 C81 C 0.89815 -0.14974 0.22187
 C82 C 1.23510 0.22827 0.22050
 C83 C 0.03309 0.86155 0.87227
 H84 H -0.01698 0.80771 0.87200
 C85 C 0.09310 0.86801 0.88799
 H86 H 0.08818 0.81959 0.90035
 C87 C 0.10094 0.98979 0.85620
 H88 H 0.10366 1.03701 0.84373
 C89 C 0.16298 0.99849 0.87145
 H90 H 0.21288 1.05276 0.87092
 N91 N 0.03735 0.92212 0.85705
 C92 C -0.18110 0.90815 0.84649
 H93 H -0.17899 0.92732 0.82657
 C94 C -0.23110 0.91285 0.86201
 H95 H -0.26806 0.93416 0.85366
 C96 C -0.13294 0.86079 0.88158
 H97 H -0.09329 0.84301 0.88957
 C98 C -0.18309 0.86285 0.89764
 H99 H -0.18195 0.84483 0.91757
 Zn100 Zn -0.04759 0.90696 0.83620
 N101 N -0.13111 0.88529 0.85658
 C102 C -0.13318 0.79745 0.80267
 N103 N -0.06846 0.82882 0.81643
 C104 C -0.01265 0.81098 0.81445
 C105 C -0.02034 0.76033 0.79818
 C106 C -0.14271 0.74698 0.78576
 C107 C -0.02377 1.05435 0.82416
 C108 C -0.02240 1.11485 0.80826
 C109 C -0.02347 1.05435 0.77242
 C110 C -0.02545 0.99479 0.78894
 N111 N -0.02732 0.99504 0.81429
 H112 H -0.17616 0.81354 0.80419
 H113 H 0.03963 0.83836 0.82464
 H114 H 0.02535 0.74803 0.79648
 H115 H -0.19342 0.72389 0.77441
 H116 H -0.02576 1.05291 0.84439
 H117 H -0.02225 1.16040 0.81636
 H118 H -0.02425 1.05259 0.75225
 H119 H -0.02813 0.94729 0.78146
 C120 C -0.23009 0.89310 0.88817
 C121 C 0.15899 0.93693 0.88757
 C122 C -0.02405 1.11413 0.78207
 C123 C -0.08511 0.72899 0.78325
 C124 C 0.31714 -0.01670 -0.00814
 C125 C 0.32845 -0.00689 0.01680
 C126 C 0.39367 -0.01055 0.02400
 N127 N 0.42299 -0.02161 0.00402
 C128 C 0.37591 -0.02578 -0.01566
 C129 C 0.42668 -0.00022 0.04829
 C130 C 0.50360 0.02063 0.05233
 C131 C 0.54890 0.06818 0.06962
 C132 C 0.61952 0.07620 0.06762
 C133 C 0.61559 0.03233 0.04944
 N134 N 0.54482 -0.00011 0.03968
 C135 C 0.67691 0.02370 0.04254
 C136 C 0.68325 0.00725 0.01818
 C137 C 0.74850 0.01498 0.00838
 C138 C 0.73151 -0.00657 -0.01529
 C139 C 0.65647 -0.02582 -0.01971
 N140 N 0.62723 -0.01686 0.00080
 C141 C 0.61452 -0.05621 -0.04145
 C142 C 0.53766 -0.07524 -0.04401
 C143 C 0.48472 -0.13049 -0.05777
 C144 C 0.41963 -0.12540 -0.05790
 C145 C 0.43407 -0.06839 -0.04372
 N146 N 0.50547 -0.03917 -0.03470
 C147 C 0.38196 -0.04430 -0.03957
 H148 H 0.26918 -0.01913 -0.01887
 H149 H 0.29310 0.00409 0.02781
 H150 H 0.53265 0.00803 -0.02506
 H151 H 0.53398 0.09761 0.08151
 H152 H 0.66887 0.11341 0.07762
 H153 H 0.80383 0.03579 0.01679
 H154 H 0.77104 -0.00808 -0.02733
 H155 H 0.36674 -0.16170 -0.06655
 H156 H 0.52369 -0.03992 0.02700
 H157 H 0.49073 -0.17265 -0.06591
 C158 C 0.01842 0.32734 0.65150
 C159 C 0.02258 0.32045 0.67732
 C160 C -0.02892 0.33876 0.68562
 N161 N -0.06324 0.35836 0.66574
 C162 C -0.03495 0.35033 0.64491
 C163 C -0.04650 0.33445 0.71107
 C164 C -0.06706 0.38557 0.71886
 C165 C -0.08945 0.38485 0.74286
 C166 C -0.09750 0.44769 0.74266
 C167 C -0.07906 0.48610 0.71863
 N168 N -0.06005 0.44799 0.70443
 C169 C -0.07088 0.55846 0.71095
 C170 C -0.04658 0.59431 0.68641
 C171 C 0.00403 0.66938 0.68056
 C172 C 0.01131 0.68168 0.65484
 C173 C -0.03608 0.61397 0.64579
 N174 N -0.07050 0.56005 0.66519
 C175 C -0.04968 0.60239 0.62008
 C176 C -0.06618 0.53285 0.61218
 C177 C -0.08578 0.51246 0.58798
 C178 C -0.08946 0.44379 0.58816
 C179 C -0.07103 0.42397 0.61236
 N180 N -0.05665 0.47879 0.62673
 C181 C -0.05816 0.36232 0.62007
 H182 H 0.05318 0.31957 0.63902
 H183 H 0.06147 0.30661 0.68857
 H184 H -0.03277 0.48338 0.64463
 H185 H -0.09586 0.34610 0.75941
 H186 H -0.11086 0.46439 0.75903
 H187 H 0.03523 0.71023 0.69354
 H188 H 0.04998 0.73382 0.64423
 H189 H -0.09987 0.41514 0.57169
 H190 H -0.03548 0.46773 0.68671
 H191 H -0.09310 0.54409 0.57131
 C192 C 0.67096 0.78033 0.33794
 C193 C 0.67819 0.77889 0.31277
 C194 C 0.64439 0.70435 0.30884
 N195 N 0.61547 0.66015 0.33065
 C196 C 0.63189 0.70639 0.34858
 C197 C 0.64464 0.67781 0.28588
 C198 C 0.58383 0.61040 0.27867
 C199 C 0.57616 0.58468 0.25544
 C200 C 0.50861 0.51986 0.25565
 C201 C 0.47657 0.50632 0.27916
 N202 N 0.52166 0.56348 0.29264
 C203 C 0.40622 0.44465 0.28740
 C204 C 0.37874 0.43510 0.31195
 C205 C 0.30358 0.39719 0.31875
 C206 C 0.30154 0.39239 0.34448
 C207 C 0.37570 0.43002 0.35263
 N208 N 0.42276 0.45622 0.33264
 C209 C 0.40102 0.43552 0.37798
 C210 C 0.47358 0.49280 0.38351
 C211 C 0.51760 0.49221 0.40444
 C212 C 0.57883 0.56302 0.40378
 C213 C 0.57085 0.60433 0.38229
 N214 N 0.50780 0.56071 0.36972
 C215 C 0.61856 0.68082 0.37458
 H216 H 0.69277 0.83066 0.34696
 H217 H 0.70445 0.82741 0.29888
 H218 H 0.48528 0.57899 0.35393
 H219 H 0.61279 0.61101 0.23930
 H220 H 0.48560 0.48911 0.23960
 H221 H 0.25482 0.37620 0.30647
 H222 H 0.25044 0.36520 0.35535
 H223 H 0.62574 0.58032 0.41685
 H224 H 0.50844 0.57219 0.30985
 H225 H 0.50962 0.44514 0.41798
 C226 C -0.12326 0.27726 0.58095
 C227 C -0.06145 0.30505 0.56060
 C228 C -0.05774 0.23169 0.56690
 C229 C -0.11964 0.20320 0.58688
 C230 C 0.00370 0.26652 0.58694
 C231 C 0.00033 0.34055 0.58073
 C232 C -0.06105 0.31275 0.60083
 C233 C -0.05833 0.23844 0.60702
 H234 H -0.17642 0.28064 0.57866
 H235 H -0.06292 0.33211 0.54131
 H236 H -0.16910 0.14627 0.58931
 H237 H 0.05635 0.26252 0.59023
 H238 H 0.04989 0.39739 0.57822
 H239 H -0.05904 0.20805 0.62588
 C240 C 0.79063 0.78563 0.27609
 C241 C 0.83017 0.75246 0.26246
 C242 C 0.82986 0.80074 0.23795
 C243 C 0.79072 0.83435 0.25141
 C244 C 0.75302 0.73793 0.23035
 C245 C 0.75255 0.68914 0.25522
 C246 C 0.71291 0.72289 0.26860
 C247 C 0.71306 0.77117 0.24398
 H248 H 0.80985 0.80607 0.29479
 H249 H 0.87876 0.74482 0.26993
 H250 H 0.80690 0.89465 0.24981
 H251 H 0.73711 0.71751 0.21154
 H252 H 0.73747 0.62910 0.25697
 H253 H 0.66463 0.77898 0.23645
 C254 C 0.30005 0.01231 -0.06708
 C255 C 0.30441 0.00714 -0.09540
 C256 C 0.22196 -0.05556 -0.09454
 C257 C 0.21687 -0.05047 -0.06644
 C258 C 0.24737 -0.11537 -0.08796
 C259 C 0.33054 -0.05253 -0.08850
 C260 C 0.32504 -0.04796 -0.06018
 C261 C 0.24255 -0.11038 -0.05959
 H262 H 0.32211 0.06549 -0.05861
 H263 H 0.33012 0.05552 -0.11022
 H264 H 0.16963 -0.04935 -0.05751
 H265 H 0.22575 -0.16789 -0.09679
 H266 H 0.37754 -0.05241 -0.09803
 H267 H 0.21723 -0.15878 -0.04475
 C268 C -0.03810 0.74107 0.60627
 C269 C 0.02882 0.78448 0.58776
 C270 C -0.02694 0.77901 0.56617
 C271 C -0.09367 0.73613 0.58451
 C272 C -0.03325 0.70496 0.56030
 C273 C 0.02283 0.70977 0.58212
 C274 C -0.04360 0.66670 0.60064
 C275 C -0.10002 0.66146 0.57904
 H276 H -0.04303 0.75816 0.62454
 H277 H 0.08211 0.83557 0.59128
 H278 H -0.14183 0.74731 0.58533
 H279 H -0.03146 0.68955 0.54136
 H280 H 0.07104 0.69873 0.58122
 H281 H -0.15473 0.61180 0.57561
 C282 C 0.31409 0.39652 0.24727
 C283 C 0.34678 0.36284 0.23063
 C284 C 0.28096 0.28458 0.23840
 C285 C 0.24773 0.31724 0.25490
 C286 C 0.32676 0.27247 0.26095
 C287 C 0.39297 0.35121 0.25347
 C288 C 0.36005 0.38495 0.26988
 C289 C 0.29413 0.30570 0.27757
 H290 H 0.30894 0.44789 0.24168
 H291 H 0.36838 0.38590 0.21114
 H292 H 0.18747 0.30278 0.25551
 H293 H 0.33269 0.22180 0.26712
 H294 H 0.45247 0.36302 0.25308
 H295 H 0.27161 0.27761 0.29662
 C296 C 0.62293 -0.09709 -0.08850
 C297 C 0.69969 -0.03856 -0.10029
 C298 C 0.72750 -0.09324 -0.09478
 C299 C 0.65540 -0.15224 -0.08395
 C300 C 0.75839 -0.06748 -0.07013
 C301 C 0.72848 -0.01055 -0.07436
 C302 C 0.65269 -0.07081 -0.06212
 C303 C 0.68342 -0.12719 -0.05748
 H304 H 0.56956 -0.10766 -0.09853
 H305 H 0.70803 -0.00155 -0.11826
 H306 H 0.62724 -0.21072 -0.08870
 H307 H 0.81586 -0.05470 -0.06320
 H308 H 0.76090 0.04927 -0.07114
 H309 H 0.67818 -0.16506 -0.03997
 C310 C 0.39610 -0.01196 0.09851
 C311 C 0.38454 0.05551 0.10204
 C312 C 0.29976 0.00179 0.10603
 C313 C 0.31075 -0.06564 0.10286
 C314 C 0.28485 0.01231 0.07763
 C315 C 0.36992 0.06629 0.07339
 C316 C 0.38128 -0.00066 0.06994
 C317 C 0.29641 -0.05511 0.07424
 H318 H 0.44148 -0.02289 0.10738
 H319 H 0.42078 0.10082 0.11376
 H320 H 0.28662 -0.12000 0.11506
 H321 H 0.23836 0.02202 0.06912
 H322 H 0.39436 0.12062 0.06117
 H323 H 0.25973 -0.10136 0.06292
 C324 C 0.65734 0.80881 0.39471
 C325 C 0.65906 0.79793 0.42384
 C326 C 0.74197 0.83781 0.42334
 C327 C 0.74435 0.85207 0.39562
 C328 C 0.74630 0.76834 0.42356
 C329 C 0.65921 0.72289 0.42324
 C330 C 0.66044 0.73524 0.39395
 C331 C 0.74749 0.77903 0.39442
 H332 H 0.62065 0.82774 0.38326
 H333 H 0.62488 0.80843 0.43650
 H334 H 0.77854 0.90635 0.38407
 H335 H 0.78471 0.75417 0.43607
 H336 H 0.62438 0.67237 0.43634
 H337 H 0.78671 0.77305 0.38258
 C338 C 0.02107 0.29243 0.75022
 C339 C -0.03875 0.24044 0.77051
 C340 C -0.02992 0.17415 0.76420
 C341 C 0.02959 0.22517 0.74413
 C342 C -0.09311 0.15582 0.74436
 C343 C -0.10190 0.22269 0.75029
 C344 C -0.04183 0.27456 0.73023
 C345 C -0.03377 0.20723 0.72411
 H346 H 0.06827 0.34909 0.75258
 H347 H -0.04109 0.25465 0.78959
 H348 H 0.08391 0.22593 0.74166
 H349 H -0.14028 0.09908 0.74207
 H350 H -0.15741 0.21952 0.75266
 H351 H -0.03436 0.18880 0.70551
 C352 C 0.78153 -0.01103 0.06507
 C353 C 0.85809 0.06187 0.06426
 C354 C 0.85475 0.05879 0.09306
 C355 C 0.77897 -0.01394 0.09397
 C356 C 0.81369 0.10569 0.09003
 C357 C 0.81650 0.10895 0.06095
 C358 C 0.74055 0.03638 0.06167
 C359 C 0.73711 0.03257 0.09068
 H360 H 0.76817 -0.06010 0.05516
 H361 H 0.90726 0.07411 0.05282
 H362 H 0.76394 -0.06456 0.10770
 H363 H 0.82719 0.15381 0.10047
 H364 H 0.83188 0.15971 0.04727
 H365 H 0.68774 0.01842 0.10236
 C366 C 0.27030 0.37097 0.40330
 C367 C 0.23480 0.28578 0.40217
 C368 C 0.24627 0.27438 0.43077
 C369 C 0.28121 0.35896 0.43204
 C370 C 0.32448 0.28264 0.42679
 C371 C 0.31349 0.29450 0.39791
 C372 C 0.34873 0.37956 0.39888
 C373 C 0.36022 0.36828 0.42775
 H374 H 0.24774 0.40796 0.39412
 H375 H 0.18276 0.25133 0.39168
 H376 H 0.26748 0.38519 0.44627
 H377 H 0.34733 0.24642 0.43644
 H378 H 0.32676 0.26773 0.38375
 H379 H 0.40782 0.40088 0.44014
 C380 C -0.14437 0.57317 0.74926
 C381 C -0.08480 0.60760 0.77014
 C382 C -0.08819 0.68117 0.76382
 C383 C -0.14787 0.64732 0.74328
 C384 C -0.02455 0.71040 0.74442
 C385 C -0.02082 0.63654 0.75064
 C386 C -0.07994 0.60239 0.73000
 C387 C -0.08416 0.67601 0.72372
 H388 H -0.19470 0.51678 0.75110
 H389 H -0.08547 0.57947 0.78942
 H390 H -0.20042 0.65161 0.74016
 H391 H 0.02484 0.76742 0.74239
 H392 H 0.03167 0.63208 0.75362
 H393 H -0.08553 0.70499 0.70479
   
