data_POSCAR
  _audit_creation_date              2014-09-24
  _audit_creation_method            'ToBaCCo'
  _symmetry_space_group_name_H-M    'P1'
  _symmetry_Int_Tables_number       1
  _symmetry_cell_setting            triclinic
  loop_
  _symmetry_equiv_pos_as_xyz
 x,y,z
_cell_length_a 33.3848
_cell_length_b 25.9702
_cell_length_c 31.8894
_cell_angle_alpha 84.771700
_cell_angle_beta 92.931300
_cell_angle_gamma 88.123100
loop_
  _atom_site_label
  _atom_site_type_symbol
  _atom_site_fract_x
  _atom_site_fract_y
  _atom_site_fract_z
N1 N 0.54651 0.66820 0.60599
 N2 N 0.53969 0.63990 0.64114
 C3 C 0.50489 0.65651 0.65588
 C4 C 0.48912 0.69641 0.62784
 C5 C 0.51605 0.70325 0.59661
 H6 H 0.49248 0.64151 0.68499
 H7 H 0.51474 0.73298 0.57046
 Cu8 Cu 0.57833 0.58599 0.66495
 Cu9 Cu 0.59695 0.66169 0.57839
 Cu10 Cu 0.64203 0.53947 0.59852
 N11 N 0.61577 0.52836 0.68316
 N12 N 0.64018 0.50952 0.65671
 C13 C 0.66537 0.47350 0.67789
 C14 C 0.65596 0.46985 0.71956
 C15 C 0.62488 0.50543 0.72225
 H16 H 0.69087 0.45527 0.66473
 H17 H 0.61227 0.51682 0.75074
 N18 N 0.65443 0.58798 0.55012
 N19 N 0.63922 0.63588 0.54421
 C20 C 0.65907 0.66268 0.51421
 C21 C 0.68763 0.62969 0.50047
 C22 C 0.68410 0.58264 0.52359
 H23 H 0.65460 0.70362 0.50483
 H24 H 0.70405 0.54890 0.52407
 H25 H 0.58912 0.58600 0.58978
 H26 H 0.63280 0.61020 0.62019
 N27 N 0.95009 0.32933 0.12253
 N28 N 0.96649 0.36052 0.14834
 C29 C 1.00666 0.35822 0.14571
 C30 C 1.01538 0.32313 0.11730
 C31 C 0.97923 0.30567 0.10276
 H32 H 1.02747 0.38217 0.16144
 H33 H 0.97423 0.28057 0.07787
 Cu34 Cu 0.93358 0.40381 0.18077
 Cu35 Cu 0.89192 0.32701 0.11266
 Cu36 Cu 0.84304 0.43926 0.13616
 N37 N 0.89847 0.45239 0.20590
 N38 N 0.86226 0.46440 0.18877
 C39 C 0.84317 0.49672 0.21234
 C40 C 0.86899 0.50568 0.24556
 C41 C 0.90399 0.47730 0.24097
 H42 H 0.81288 0.51249 0.20569
 H43 H 0.93071 0.47399 0.26184
 N44 N 0.82062 0.39391 0.09578
 N45 N 0.83762 0.34896 0.08903
 C46 C 0.81515 0.32749 0.05934
 C47 C 0.78288 0.36114 0.04713
 C48 C 0.78733 0.40286 0.07029
 H49 H 0.82364 0.29282 0.04504
 H50 H 0.76872 0.43799 0.06751
 H51 H 0.89409 0.40407 0.11437
 H52 H 0.86864 0.37035 0.15923
 N53 N 0.45529 0.16410 -0.09092
 N54 N 0.46796 0.14799 -0.12608
 C55 C 0.50386 0.16811 -0.13374
 C56 C 0.51406 0.19749 -0.10119
 C57 C 0.48301 0.19420 -0.07442
 H58 H 0.52126 0.16184 -0.16062
 H59 H 0.48027 0.21332 -0.04591
 Cu60 Cu 0.43644 0.10177 -0.15800
 Cu61 Cu 0.40273 0.14744 -0.07069
 Cu62 Cu 0.34590 0.06525 -0.12758
 N63 N 0.40495 0.05472 -0.18905
 N64 N 0.36878 0.04214 -0.17811
 C65 C 0.35302 0.01103 -0.20581
 C66 C 0.38132 0.00359 -0.23495
 C67 C 0.41391 0.03118 -0.22351
 H68 H 0.32386 -0.00577 -0.20425
 H69 H 0.44175 0.03413 -0.23930
 N70 N 0.32805 0.09290 -0.07566
 N71 N 0.34890 0.12611 -0.05519
 C72 C 0.32761 0.14106 -0.02331
 C73 C 0.29233 0.11503 -0.02352
 C74 C 0.29335 0.08466 -0.05664
 H75 H 0.33701 0.16847 -0.00155
 H76 H 0.27005 0.05996 -0.06689
 H77 H 0.39977 0.07676 -0.09564
 H78 H 0.37560 0.13380 -0.12824
 N79 N 0.04119 0.82155 0.39069
 N80 N 0.02120 0.85479 0.36295
 C81 C -0.01838 0.84670 0.36455
 C82 C -0.02276 0.80582 0.39438
 C83 C 0.01516 0.79073 0.41078
 H84 H -0.04200 0.87012 0.34687
 H85 H 0.02312 0.76186 0.43676
 Cu86 Cu 0.04877 0.90696 0.32886
 Cu87 Cu 0.09909 0.82442 0.40136
 Cu88 Cu 0.13709 0.94288 0.36841
 N89 N 0.08007 0.95764 0.29749
 N90 N 0.11572 0.96988 0.31229
 C91 C 0.13151 1.00440 0.28426
 C92 C 0.10391 1.01417 0.25051
 C93 C 0.07149 0.98459 0.25979
 H94 H 0.16019 1.02195 0.28866
 H95 H 0.04408 0.98249 0.24052
 N96 N 0.16296 0.89562 0.41435
 N97 N 0.15038 0.84852 0.42420
 C98 C 0.17497 0.82454 0.45528
 C99 C 0.20356 0.85883 0.46576
 C100 C 0.19540 0.90355 0.43951
 H101 H 0.17098 0.78630 0.47061
 H102 H 0.21178 0.93885 0.43864
 H103 H 0.08964 0.90246 0.39469
 H104 H 0.11705 0.87555 0.35152
 C105 C 0.12509 0.18195 0.12722
 C106 C 0.09958 0.22637 0.12112
 C107 C 0.10705 0.26646 0.09006
 C108 C 0.14008 0.26189 0.06513
 C109 C 0.16543 0.21742 0.07032
 C110 C 0.15798 0.17723 0.10150
 C111 C 0.11862 0.14246 0.15894
 C112 C 0.14520 0.09906 0.16582
 C113 C 0.17744 0.09417 0.13984
 C114 C 0.18360 0.13247 0.10711
 C115 C 0.21506 0.12707 0.08007
 C116 C 0.22209 0.16682 0.04872
 C117 C 0.19798 0.21229 0.04470
 H118 H 0.07426 0.22997 0.14074
 H119 H 0.14562 0.29296 0.04130
 H120 H 0.09383 0.14624 0.17923
 H121 H 0.19760 0.06037 0.14524
 H122 H 0.23445 0.09248 0.08364
 H123 H 0.20394 0.24291 0.02064
 C124 C 0.37344 0.85723 0.64441
 C125 C 0.40383 0.81938 0.64141
 C126 C 0.40365 0.78968 0.60675
 C127 C 0.37260 0.79719 0.57538
 C128 C 0.34127 0.83372 0.57860
 C129 C 0.34185 0.86431 0.61303
 C130 C 0.37452 0.88878 0.67781
 C131 C 0.34404 0.92673 0.68066
 C132 C 0.31216 0.93282 0.65007
 C133 C 0.31116 0.90242 0.61580
 C134 C 0.28034 0.90984 0.58394
 C135 C 0.27924 0.87876 0.55024
 C136 C 0.30966 0.84067 0.54771
 H137 H 0.42834 0.81411 0.66523
 H138 H 0.37289 0.77429 0.54862
 H139 H 0.39895 0.88379 0.70171
 H140 H 0.28880 0.96222 0.65248
 H141 H 0.25685 0.93932 0.58548
 H142 H 0.30906 0.81728 0.52124
 C143 C 0.88368 0.65831 0.37654
 C144 C 0.90523 0.70165 0.38619
 C145 C 0.89100 0.73443 0.41544
 C146 C 0.85531 0.72355 0.43511
 C147 C 0.83355 0.68034 0.42603
 C148 C 0.84772 0.64756 0.39663
 C149 C 0.89701 0.62598 0.34667
 C150 C 0.87422 0.58432 0.33586
 C151 C 0.83900 0.57307 0.35666
 C152 C 0.82582 0.60410 0.38724
 C153 C 0.79090 0.59265 0.40834
 C154 C 0.77681 0.62506 0.43751
 C155 C 0.79794 0.66922 0.44597
 H156 H 0.93278 0.71003 0.37079
 H157 H 0.84463 0.74898 0.45761
 H158 H 0.92421 0.63426 0.33056
 H159 H 0.82180 0.54028 0.34875
 H160 H 0.77434 0.55875 0.40195
 H161 H 0.78723 0.69402 0.46890
 C162 C 0.64909 0.33311 -0.15553
 C163 C 0.61533 0.30270 -0.15871
 C164 C 0.60478 0.26953 -0.12423
 C165 C 0.62896 0.26516 -0.08656
 C166 C 0.66352 0.29418 -0.08318
 C167 C 0.67334 0.32876 -0.11766
 C168 C 0.65881 0.36826 -0.18932
 C169 C 0.69278 0.39853 -0.18568
 C170 C 0.71699 0.39345 -0.14835
 C171 C 0.70730 0.35930 -0.11415
 C172 C 0.73077 0.35572 -0.07632
 C173 C 0.72127 0.32124 -0.04211
 C174 C 0.68812 0.28991 -0.04581
 H175 H 0.59650 0.30566 -0.18761
 H176 H 0.62097 0.23899 -0.06012
 H177 H 0.64015 0.37194 -0.21833
 H178 H 0.74308 0.41700 -0.14586
 H179 H 0.75666 0.37952 -0.07336
 H180 H 0.68092 0.26355 -0.01915
 N181 N 0.04969 0.31725 0.10007
 N182 N 0.08172 0.31239 0.08304
 N183 N 0.45483 0.72882 0.63334
 N184 N 0.43609 0.75382 0.60176
 N185 N 0.94360 0.79175 0.41030
 N186 N 0.91192 0.77925 0.42585
 N187 N 0.54899 0.22715 -0.09657
 N188 N 0.56924 0.24065 -0.12820
 N189 N 0.10701 0.05001 0.21426
 N190 N 0.14108 0.06081 0.20042
 N191 N 0.68012 0.45106 -0.24889
 N192 N 0.70361 0.43501 -0.21920
 N193 N 0.37894 0.97192 0.73079
 N194 N 0.34549 0.95989 0.71417
 N195 N 0.85936 0.53610 0.27891
 N196 N 0.88600 0.55498 0.30235
 N197 N 0.26004 0.12003 0.00368
 N198 N 0.25381 0.16175 0.02075
 N199 N 0.72016 0.64472 0.47534
 N200 N 0.74209 0.61111 0.45982
 N201 N 0.75664 0.36062 0.01053
 N202 N 0.74497 0.31893 -0.00331
 N203 N 0.23419 0.85000 0.49875
 N204 N 0.24744 0.88707 0.51826
   
