data_POSCAR
  _audit_creation_date              2014-09-24
  _audit_creation_method            'ToBaCCo'
  _symmetry_space_group_name_H-M    'P1'
  _symmetry_Int_Tables_number       1
  _symmetry_cell_setting            triclinic
  loop_
  _symmetry_equiv_pos_as_xyz
 x,y,z
_cell_length_a 23.2635
_cell_length_b 23.2530
_cell_length_c 23.2967
_cell_angle_alpha 89.115400
_cell_angle_beta 92.545100
_cell_angle_gamma 91.611000
loop_
  _atom_site_label
  _atom_site_type_symbol
  _atom_site_fract_x
  _atom_site_fract_y
  _atom_site_fract_z
C1 C 0.59630 0.35642 -0.04890
 C2 C 0.63824 0.39894 -0.05107
 C3 C 0.61595 0.44742 -0.02721
 N4 N 0.56165 0.43608 -0.01113
 C5 C 0.54960 0.38052 -0.02444
 C6 C 0.64653 0.50021 -0.01780
 C7 C 0.61850 0.55033 -0.00132
 C8 C 0.64572 0.59732 0.02526
 C9 C 0.60470 0.63802 0.03053
 C10 C 0.55346 0.61486 0.00703
 N11 N 0.56215 0.56119 -0.01197
 C12 C 0.50089 0.64426 0.00170
 C13 C 0.44755 0.61472 -0.00855
 C14 C 0.39626 0.64018 -0.02583
 C15 C 0.35435 0.59751 -0.02528
 C16 C 0.38158 0.54746 -0.00816
 N17 N 0.43848 0.55804 0.00203
 C18 C 0.35336 0.49433 0.00325
 C19 C 0.38317 0.44257 0.01096
 C20 C 0.35989 0.39155 0.03251
 C21 C 0.40112 0.35067 0.02840
 C22 C 0.44833 0.37801 0.00454
 N23 N 0.43702 0.43393 -0.00598
 C24 C 0.49827 0.35033 -0.01148
 H25 H 0.59976 0.31278 -0.06360
 H26 H 0.68044 0.39457 -0.06803
 H27 H 0.46177 0.46261 -0.02988
 H28 H 0.69061 0.60190 0.03918
 H29 H 0.61180 0.67997 0.04949
 H30 H 0.38963 0.68500 -0.03668
 H31 H 0.30894 0.60283 -0.03543
 H32 H 0.39649 0.30572 0.04058
 H33 H 0.53290 0.53599 -0.03642
 H34 H 0.31731 0.38431 0.04859
 C35 C 0.02037 0.60697 0.64256
 C36 C 0.01609 0.64870 0.60050
 C37 C -0.00021 0.62090 0.54981
 N38 N -0.00503 0.56351 0.55944
 C39 C 0.00784 0.55493 0.61602
 C40 C -0.01363 0.64864 0.49646
 C41 C -0.02072 0.61787 0.44439
 C42 C -0.04692 0.63917 0.39405
 C43 C -0.04340 0.59750 0.35329
 C44 C -0.01545 0.55171 0.37982
 N45 N -0.00164 0.56444 0.43530
 C46 C -0.00071 0.50119 0.35160
 C47 C 0.01599 0.45043 0.38093
 C48 C 0.03649 0.40225 0.35507
 C49 C 0.04134 0.36050 0.39714
 C50 C 0.02370 0.38470 0.44719
 N51 N 0.00812 0.43958 0.43713
 C52 C 0.01746 0.35481 0.49978
 C53 C 0.00562 0.38245 0.55139
 C54 C -0.01129 0.35434 0.60103
 C55 C -0.01495 0.39569 0.64215
 C56 C -0.00061 0.44802 0.61636
 N57 N 0.01246 0.43948 0.56125
 C58 C 0.00376 0.50127 0.64485
 H59 H 0.03118 0.61423 0.68757
 H60 H 0.02330 0.69440 0.60675
 H61 H 0.03102 0.46990 0.53413
 H62 H -0.06662 0.68050 0.38739
 H63 H -0.05954 0.60061 0.30908
 H64 H 0.04574 0.39732 0.31031
 H65 H 0.05528 0.31703 0.39138
 H66 H -0.02636 0.38790 0.68617
 H67 H 0.02473 0.54072 0.46339
 H68 H -0.01945 0.30866 0.60725
 C69 C 0.35522 0.02037 0.59552
 C70 C 0.39780 0.02157 0.63816
 C71 C 0.44786 0.00539 0.61327
 N72 N 0.43736 -0.00530 0.55690
 C73 C 0.38077 0.00382 0.54601
 C74 C 0.50106 -0.00392 0.64336
 C75 C 0.55334 -0.00766 0.61459
 C76 C 0.60400 -0.02902 0.63912
 C77 C 0.64474 -0.02363 0.59834
 C78 C 0.61798 0.00071 0.54978
 N79 N 0.56221 0.01025 0.55998
 C80 C 0.64589 0.01528 0.49838
 C81 C 0.61489 0.02220 0.44507
 C82 C 0.63815 0.04311 0.39475
 C83 C 0.59552 0.03835 0.35241
 C84 C 0.54740 0.01557 0.37838
 N85 N 0.55926 0.00562 0.43496
 C86 C 0.49512 -0.00008 0.34892
 C87 C 0.44392 -0.01346 0.37724
 C88 C 0.39441 -0.03789 0.35141
 C89 C 0.35342 -0.03994 0.39230
 C90 C 0.37919 -0.01688 0.44191
 N91 N 0.43419 -0.00061 0.43229
 C92 C 0.35093 -0.00792 0.49326
 H93 H 0.31040 0.02964 0.60057
 H94 H 0.39239 0.03216 0.68264
 H95 H 0.46128 0.02379 0.45966
 H96 H 0.61088 -0.04693 0.68195
 H97 H 0.68906 -0.03642 0.60373
 H98 H 0.68156 0.05948 0.38898
 H99 H 0.59953 0.04997 0.30756
 H100 H 0.30953 -0.05609 0.38609
 H101 H 0.53355 0.03286 0.53317
 H102 H 0.38823 -0.05207 0.30748
 O103 O 0.45205 -0.01002 -0.08648
 O104 O 0.44962 -0.00284 0.07121
 O105 O 0.45051 0.07302 -0.01275
 O106 O 0.45209 -0.08482 -0.00242
 O107 O 0.54720 -0.08149 0.00030
 O108 O 0.54551 0.07662 -0.00519
 O109 O 0.54473 -0.00221 0.07645
 O110 O 0.54704 -0.00444 -0.08146
 Cu111 Cu 0.44150 -0.00623 -0.00823
 Cu112 Cu 0.55570 -0.00211 -0.00196
 C113 C 0.49986 -0.00908 -0.11081
 C114 C 0.49684 -0.00318 0.10067
 C115 C 0.49778 0.10168 -0.01095
 C116 C 0.49989 -0.11000 0.00113
 O117 O -0.07692 0.55029 0.99179
 O118 O 0.08107 0.54494 1.00296
 O119 O 0.00376 0.54693 0.91832
 O120 O -0.00011 0.54770 1.07605
 O121 O -0.00590 0.45271 1.07710
 O122 O -0.00267 0.45183 0.91951
 O123 O 0.07546 0.44992 1.00300
 O124 O -0.08258 0.45541 0.99265
 Cu125 Cu 0.00273 0.55703 0.99714
 Cu126 Cu -0.00424 0.44287 0.99843
 C127 C -0.10674 0.50375 0.98950
 C128 C 0.10511 0.49658 1.00501
 C129 C 0.00051 0.49934 0.89223
 C130 C -0.00457 0.50022 1.10333
 O131 O -0.01282 -0.07721 0.44833
 O132 O 0.00109 0.08079 0.45071
 O133 O 0.07290 -0.00262 0.44741
 O134 O -0.08449 0.00686 0.45153
 O135 O -0.07792 0.00634 0.54637
 O136 O 0.07889 -0.00880 0.54223
 O137 O 0.01052 0.07762 0.54551
 O138 O -0.00922 -0.07993 0.54323
 Cu139 Cu -0.00649 0.00214 0.43994
 Cu140 Cu 0.00118 -0.00150 0.55389
 C141 C -0.01414 -0.10543 0.49539
 C142 C 0.00892 0.10600 0.49848
 C143 C 0.10256 -0.00804 0.49415
 C144 C -0.10793 0.00937 0.49960
 C145 C -0.20128 0.46424 1.01609
 C146 C -0.26104 0.46274 1.01415
 C147 C -0.29260 0.50183 0.97971
 C148 C -0.26224 0.54232 0.94497
 C149 C -0.20098 0.54415 0.94735
 C150 C -0.17039 0.50508 0.98411
 C151 C -0.17274 0.58349 0.91073
 N152 N -0.20367 0.61817 0.87456
 N153 N -0.26091 0.61595 0.87186
 C154 C -0.29117 0.57901 0.90529
 H155 H -0.17890 0.43369 1.04394
 H156 H -0.28288 0.43164 1.04130
 H157 H -0.12653 0.58629 0.90895
 H158 H -0.33753 0.57800 0.89964
 C159 C 0.19583 0.46439 0.96692
 C160 C 0.25565 0.46405 0.96627
 C161 C 0.28975 0.49312 1.00822
 C162 C 0.26293 0.52169 1.05276
 C163 C 0.20204 0.52295 1.05280
 C164 C 0.16844 0.49463 1.00894
 C165 C 0.17682 0.55151 1.09773
 N166 N 0.21055 0.57700 1.13952
 N167 N 0.26773 0.57561 1.13959
 C168 C 0.29506 0.54870 1.09784
 H169 H 0.17068 0.44230 0.93330
 H170 H 0.27562 0.44175 0.93219
 H171 H 0.13072 0.55326 1.10044
 H172 H 0.34156 0.54826 1.10062
 C173 C 0.01618 -0.19816 0.45883
 C174 C 0.01628 -0.25797 0.45888
 C175 C -0.01951 -0.29076 0.49464
 C176 C -0.05918 -0.26177 0.52814
 C177 C -0.05897 -0.20065 0.52821
 C178 C -0.01972 -0.16884 0.49435
 C179 C -0.09981 -0.17345 0.56056
 N180 N -0.13811 -0.20542 0.59057
 N181 N -0.13884 -0.26266 0.58997
 C182 C -0.10118 -0.29186 0.55948
 H183 H 0.04596 -0.17448 0.43218
 H184 H 0.04647 -0.27886 0.43244
 H185 H -0.10276 -0.12719 0.56130
 H186 H -0.10509 -0.33828 0.55930
 C187 C -0.02859 0.20086 0.47084
 C188 C -0.02679 0.26071 0.47145
 C189 C 0.01883 0.29081 0.49978
 C190 C 0.06397 0.25981 0.52751
 C191 C 0.06195 0.19875 0.52728
 C192 C 0.01477 0.16928 0.49917
 C193 C 0.10826 0.16939 0.55390
 N194 N 0.15287 0.19943 0.57956
 N195 N 0.15451 0.25671 0.58009
 C196 C 0.11173 0.28792 0.55483
 H197 H -0.06482 0.17893 0.44901
 H198 H -0.06152 0.28389 0.44995
 H199 H 0.10992 0.12299 0.55394
 H200 H 0.11569 0.33435 0.55596
 C201 C 0.53674 0.02645 -0.20294
 C202 C 0.53748 0.02755 -0.26267
 C203 C 0.50200 -0.01020 -0.29589
 C204 C 0.46770 -0.05252 -0.26727
 C205 C 0.46703 -0.05352 -0.20628
 C206 C 0.50075 -0.01249 -0.17413
 C207 C 0.43439 -0.09735 -0.17944
 N208 N 0.40443 -0.13704 -0.21157
 N209 N 0.40544 -0.13647 -0.26863
 C210 C 0.43636 -0.09609 -0.29748
 H211 H 0.56340 0.05754 -0.17902
 H212 H 0.56443 0.05981 -0.28326
 H213 H 0.43337 -0.10160 -0.13328
 H214 H 0.43697 -0.09925 -0.34367
 C215 C 0.46690 0.03697 0.19195
 C216 C 0.46648 0.03777 0.25176
 C217 C 0.49465 -0.00437 0.28517
 C218 C 0.52255 -0.04908 0.25768
 C219 C 0.52335 -0.04971 0.19686
 C220 C 0.49606 -0.00559 0.16395
 C221 C 0.55022 -0.09560 0.17102
 N222 N 0.57501 -0.13733 0.20415
 N223 N 0.57453 -0.13650 0.26125
 C224 C 0.54908 -0.09396 0.28913
 H225 H 0.44532 0.07057 0.16732
 H226 H 0.44464 0.07193 0.27229
 H227 H 0.55116 -0.09927 0.12492
 H228 H 0.54935 -0.09596 0.33555
 C229 C 0.53534 -0.20241 -0.03101
 C230 C 0.53606 -0.26219 -0.03061
 C231 C 0.50194 -0.29504 0.00666
 C232 C 0.46921 -0.26609 0.04707
 C233 C 0.46842 -0.20504 0.04641
 C234 C 0.50066 -0.17329 0.00585
 C235 C 0.43719 -0.17776 0.08817
 N236 N 0.40891 -0.20961 0.12774
 N237 N 0.41019 -0.26679 0.12887
 C238 C 0.43967 -0.29604 0.09038
 H239 H 0.56092 -0.17865 -0.06161
 H240 H 0.56186 -0.28307 -0.06138
 H241 H 0.43599 -0.13149 0.09084
 H242 H 0.44059 -0.34233 0.09481
 C243 C 0.53023 0.19602 0.02686
 C244 C 0.52996 0.25582 0.02733
 C245 C 0.49705 0.28638 -0.01389
 C246 C 0.46442 0.25633 -0.05705
 C247 C 0.46483 0.19524 -0.05785
 C248 C 0.49735 0.16508 -0.01464
 C249 C 0.43443 0.16645 -0.10280
 N250 N 0.40414 0.19666 -0.14321
 N251 N 0.40293 0.25559 -0.14145
 C252 C 0.43292 0.28760 -0.09928
 H253 H 0.55554 0.17362 0.05988
 H254 H 0.55535 0.27856 0.06032
 H255 H 0.43504 0.12027 -0.10691
 H256 H 0.40498 0.28388 -0.13659
 C257 C -0.20516 -0.02075 0.46395
 C258 C -0.26487 -0.01933 0.46332
 C259 C -0.29302 0.01765 0.49934
 C260 C -0.25918 0.05526 0.53578
 C261 C -0.19806 0.05378 0.53626
 C262 C -0.17110 0.01454 0.50065
 C263 C -0.16606 0.09361 0.57064
 N264 N -0.19346 0.13163 0.60261
 N265 N -0.25061 0.13318 0.60203
 C266 C -0.28432 0.09680 0.56945
 H267 H -0.18533 -0.05072 0.43622
 H268 H -0.28944 -0.04871 0.43540
 H269 H -0.11963 0.09605 0.57160
 H270 H -0.33039 0.10154 0.56945
 C271 C 0.19608 0.03102 0.46357
 C272 C 0.25595 0.03124 0.46354
 C273 C 0.28692 -0.01225 0.49205
 C274 C 0.25680 -0.05790 0.51971
 C275 C 0.19585 -0.05792 0.52011
 C276 C 0.16555 -0.01239 0.49258
 C277 C 0.16725 -0.10447 0.54695
 N278 N 0.19798 -0.14745 0.57214
 N279 N 0.25522 -0.14724 0.57200
 C280 C 0.28566 -0.10411 0.54653
 H281 H 0.17345 0.06592 0.44210
 H282 H 0.27846 0.06618 0.44196
 H283 H 0.12084 -0.10764 0.54749
 H284 H 0.33202 -0.10664 0.54706
 C285 C 0.03352 0.53388 1.19780
 C286 C 0.03491 0.53367 1.25755
 C287 C -0.00532 0.50077 1.28773
 C288 C -0.04889 0.46861 1.25702
 C289 C -0.04996 0.46826 1.19611
 C290 C -0.00751 0.50042 1.16647
 C291 C -0.09482 0.43715 1.16700
 N292 N -0.13501 0.40788 1.19716
 N293 N -0.13372 0.40794 1.25435
 C294 C -0.09223 0.43743 1.28528
 H295 H 0.06555 0.55955 1.17591
 H296 H 0.06794 0.55904 1.28058
 H297 H -0.09907 0.43648 1.12070
 H298 H -0.09390 0.43666 1.33160
 C299 C 0.05132 0.50422 0.80165
 C300 C 0.05212 0.50448 0.74188
 C301 C 0.00067 0.50099 0.70836
 C302 C -0.05259 0.49673 0.73546
 C303 C -0.05328 0.49485 0.79617
 C304 C -0.00085 0.49927 0.82920
 C305 C -0.10671 0.48879 0.82183
 N306 N -0.15603 0.48604 0.78857
 N307 N -0.15543 0.48873 0.73145
 C308 C -0.10545 0.49398 0.70375
 H309 H 0.09168 0.50749 0.82663
 H310 H 0.09306 0.50778 0.72149
 H311 H -0.10968 0.48602 0.86791
 H312 H -0.10748 0.49586 0.65728
   
