data_POSCAR
  _audit_creation_date              2014-09-24
  _audit_creation_method            'ToBaCCo'
  _symmetry_space_group_name_H-M    'P1'
  _symmetry_Int_Tables_number       1
  _symmetry_cell_setting            triclinic
  loop_
  _symmetry_equiv_pos_as_xyz
 x,y,z
_cell_length_a 57.3649
_cell_length_b 57.4033
_cell_length_c 16.0191
_cell_angle_alpha 90.078400
_cell_angle_beta 90.000100
_cell_angle_gamma 119.902100
loop_
  _atom_site_label
  _atom_site_type_symbol
  _atom_site_fract_x
  _atom_site_fract_y
  _atom_site_fract_z
C1 C 0.22599 0.49553 0.45705
 C2 C 0.22606 0.49537 0.54530
 C3 C 0.24735 0.49537 0.58844
 C4 C 0.26858 0.49548 0.54481
 C5 C 0.26846 0.49560 0.45674
 C6 C 0.24724 0.49565 0.41358
 H7 H 0.24731 0.49577 0.34581
 H8 H 0.24737 0.49527 0.65624
 C9 C 0.50426 -0.26916 0.45524
 C10 C 0.50443 -0.26886 0.54333
 C11 C 0.50453 -0.24754 0.58643
 C12 C 0.50451 -0.22641 0.54281
 C13 C 0.50440 -0.22668 0.45472
 C14 C 0.50423 -0.24803 0.41160
 H15 H 0.50412 -0.24813 0.34383
 H16 H 0.50467 -0.24743 0.65419
 C17 C 1.26950 0.77397 0.45220
 C18 C 1.26923 0.77382 0.54030
 C19 C 1.24801 0.75258 0.58320
 C20 C 1.22696 0.73145 0.53935
 C21 C 1.22719 0.73161 0.45142
 C22 C 1.24842 0.75280 0.40840
 H23 H 1.24847 0.75278 0.34063
 H24 H 1.24786 0.75249 0.65093
 C25 C 0.77128 0.50025 0.45934
 C26 C 0.77125 0.50022 0.54743
 C27 C 0.75001 0.50018 0.59090
 C28 C 0.72880 0.50019 0.54741
 C29 C 0.72884 0.50018 0.45932
 C30 C 0.75006 0.50020 0.41595
 H31 H 0.75009 0.50025 0.34823
 H32 H 0.75002 0.50021 0.65870
 C33 C 0.49966 0.27105 0.46000
 C34 C 0.49960 0.27099 0.54809
 C35 C 0.49954 0.24975 0.59140
 C36 C 0.49951 0.22854 0.54776
 C37 C 0.49962 0.22866 0.45967
 C38 C 0.49972 0.24990 0.41645
 H39 H 0.49975 0.24994 0.34873
 H40 H 0.49944 0.24968 0.65919
 C41 C 0.72943 0.22906 0.45670
 C42 C 0.72951 0.22915 0.54463
 C43 C 0.75069 0.25032 0.58804
 C44 C 0.77187 0.27142 0.54452
 C45 C 0.77175 0.27135 0.45641
 C46 C 0.75052 0.25018 0.41312
 H47 H 0.75045 0.25010 0.34539
 H48 H 0.75069 0.25027 0.65580
 O49 O 0.96281 0.44138 0.15281
 O50 O 0.93302 0.44716 0.07192
 C51 C 0.93869 0.43530 0.13063
 O52 O 1.03795 0.56166 0.14215
 O53 O 1.06753 0.55379 0.06746
 C54 C 1.06201 0.56728 0.12093
 O55 O 0.96270 0.52213 0.15061
 O56 O 0.93297 0.48622 0.07094
 C57 C 0.93858 0.50398 0.12896
 O58 O 1.03817 0.47697 0.14431
 O59 O 1.06774 0.51390 0.06802
 C60 C 1.06227 0.49524 0.12272
 Zr61 Zr 1.00034 0.47094 0.10365
 O62 O 1.00310 0.47138 0.23547
 O63 O 0.99917 0.43363 0.09531
 Zr64 Zr 1.00024 0.52985 0.10179
 O65 O 1.00332 0.53249 0.23351
 O66 O 0.99712 0.56507 0.09696
 O67 O 0.97635 0.48849 0.11937
 O68 O 1.02356 0.51205 0.11807
 O69 O 1.03785 0.47571 -0.14545
 O70 O 1.06755 0.51339 -0.07189
 C71 C 1.06196 0.49421 -0.12476
 O72 O 0.96235 0.52125 -0.15665
 O73 O 0.93280 0.48577 -0.07551
 C74 C 0.93829 0.50325 -0.13413
 O75 O 1.03754 0.56083 -0.15041
 O76 O 1.06724 0.55364 -0.07405
 C77 C 1.06166 0.56675 -0.12876
 O78 O 0.96253 0.44018 -0.15401
 O79 O 0.93289 0.44666 -0.07465
 C80 C 0.93844 0.43435 -0.13230
 Zr81 Zr 1.00012 0.47020 -0.10633
 O82 O 1.00302 0.47098 -0.23815
 O83 O 0.99761 0.43214 -0.10292
 Zr84 Zr 1.00003 0.52907 -0.10871
 O85 O 1.00285 0.53008 -0.24059
 O86 O 0.99703 0.56437 -0.10807
 Zr87 Zr 0.95989 0.47991 -0.00207
 Zr88 Zr 1.04028 0.52007 -0.00256
 O89 O 1.02340 0.51122 -0.12306
 O90 O 0.97606 0.48759 -0.12381
 O91 O 1.02435 0.47813 -0.00123
 O92 O 0.97663 0.52194 -0.00339
 O93 O 0.97664 0.45459 -0.00097
 O94 O 1.02423 0.54606 -0.00375
 H95 H 1.03555 0.51812 0.16749
 H96 H 0.96441 0.52949 -0.00362
 H97 H 1.03543 0.51703 -0.17233
 H98 H 0.96449 0.43486 -0.00047
 H99 H 1.01323 0.57908 0.06783
 H100 H 1.01241 0.57815 -0.07557
 H101 H 0.98787 0.51299 -0.26208
 H102 H 0.98846 0.47369 -0.26040
 H103 H 1.01098 0.43331 -0.06163
 H104 H 0.99951 0.42799 0.15352
 H105 H 0.98959 0.47569 0.25760
 H106 H 0.98947 0.51499 0.25614
 O107 O 0.55856 0.52132 0.15430
 O108 O 0.55273 0.48570 0.07361
 C109 C 0.56465 0.50326 0.13224
 O110 O 0.43818 0.47638 0.14381
 O111 O 0.44561 0.51345 0.06811
 C112 C 0.43234 0.49465 0.12212
 O113 O 0.47788 0.44068 0.15278
 O114 O 0.51369 0.44668 0.07284
 C115 C 0.49603 0.43467 0.13104
 O116 O 0.52295 0.56103 0.14634
 O117 O 0.48571 0.55338 0.07096
 C118 C 0.50452 0.56672 0.12519
 Zr119 Zr 0.52886 0.52923 0.10528
 O120 O 0.52847 0.53159 0.23712
 O121 O 0.56614 0.56529 0.09671
 Zr122 Zr 0.46999 0.47033 0.10360
 O123 O 0.46729 0.47073 0.23530
 O124 O 0.43479 0.43206 0.09860
 O125 O 0.51140 0.48779 0.12111
 O126 O 0.48771 0.51138 0.11974
 O127 O 0.52405 0.56165 -0.14468
 O128 O 0.48656 0.55391 -0.07073
 C129 C 0.50563 0.56735 -0.12385
 O130 O 0.47834 0.44080 -0.15477
 O131 O 0.51398 0.44680 -0.07379
 C132 C 0.49641 0.43477 -0.13235
 O133 O 0.43865 0.47661 -0.14785
 O134 O 0.44588 0.51360 -0.07176
 C135 C 0.43273 0.49486 -0.12637
 O136 O 0.55940 0.52183 -0.15250
 O137 O 0.55309 0.48590 -0.07288
 C138 C 0.56533 0.50365 -0.13065
 Zr139 Zr 0.52935 0.52945 -0.10486
 O140 O 0.52827 0.53127 -0.23669
 O141 O 0.56743 0.56490 -0.10169
 Zr142 Zr 0.47048 0.47064 -0.10671
 O143 O 0.46912 0.47213 -0.23857
 O144 O 0.43519 0.43241 -0.10583
 Zr145 Zr 0.51985 0.47975 -0.00033
 Zr146 Zr 0.47952 0.51994 -0.00089
 O147 O 0.48827 0.51176 -0.12135
 O148 O 0.51198 0.48806 -0.12208
 O149 O 0.52147 0.54587 0.00026
 O150 O 0.47781 0.45451 -0.00146
 O151 O 0.54513 0.52175 0.00059
 O152 O 0.45359 0.47795 -0.00182
 H153 H 0.48163 0.51729 0.16920
 H154 H 0.47029 0.43478 -0.00161
 H155 H 0.48237 0.51791 -0.17060
 H156 H 0.56488 0.52931 0.00103
 H157 H 0.42070 0.43418 0.06983
 H158 H 0.42135 0.43410 -0.07388
 H159 H 0.48630 0.47449 -0.26020
 H160 H 0.52574 0.51407 -0.25882
 H161 H 0.56636 0.57711 -0.06015
 H162 H 0.57196 0.57124 0.15489
 H163 H 0.52449 0.51392 0.25927
 H164 H 0.48498 0.47488 0.25799
 O165 O 0.47862 0.03744 0.15384
 O166 O 0.51413 0.06716 0.07307
 C167 C 0.49662 0.06154 0.13177
 O168 O 0.52390 -0.03777 0.14293
 O169 O 0.48660 -0.06728 0.06784
 C170 C 0.50552 -0.06180 0.12150
 O171 O 0.55950 0.03745 0.15161
 O172 O 0.55327 0.06715 0.07202
 C173 C 0.56543 0.06155 0.12999
 O174 O 0.43898 -0.03787 0.14490
 O175 O 0.44648 -0.06741 0.06839
 C176 C 0.43323 -0.06195 0.12306
 Zr177 Zr 0.47074 -0.00011 0.10455
 O178 O 0.46844 -0.00285 0.23637
 O179 O 0.43460 0.00110 0.09634
 Zr180 Zr 0.52977 -0.00006 0.10268
 O181 O 0.52930 -0.00309 0.23440
 O182 O 0.56809 0.00297 0.09793
 O183 O 0.51223 0.02385 0.12036
 O184 O 0.48869 -0.02334 0.11879
 O185 O 0.43819 -0.03759 -0.14484
 O186 O 0.44623 -0.06726 -0.07139
 C187 C 0.43264 -0.06167 -0.12423
 O188 O 0.55897 0.03768 -0.15580
 O189 O 0.55299 0.06727 -0.07440
 C190 C 0.56498 0.06174 -0.13314
 O191 O 0.52340 -0.03764 -0.14918
 O192 O 0.48654 -0.06728 -0.07285
 C193 C 0.50523 -0.06175 -0.12754
 O194 O 0.47773 0.03766 -0.15281
 O195 O 0.51380 0.06725 -0.07338
 C196 C 0.49594 0.06173 -0.13098
 Zr197 Zr 0.47031 0.00009 -0.10557
 O198 O 0.46840 -0.00278 -0.23744
 O199 O 0.43470 0.00254 -0.10250
 Zr200 Zr 0.52926 0.00006 -0.10786
 O201 O 0.52765 -0.00284 -0.23974
 O202 O 0.56759 0.00308 -0.10710
 Zr203 Zr 0.52011 0.04026 -0.00102
 Zr204 Zr 0.48011 -0.04002 -0.00199
 O205 O 0.48811 -0.02322 -0.12244
 O206 O 0.51171 0.02407 -0.12285
 O207 O 0.45405 -0.02408 -0.00057
 O208 O 0.54544 0.02349 -0.00242
 O209 O 0.47807 0.02355 -0.00000
 O210 O 0.52211 -0.02406 -0.00298
 H211 H 0.48277 -0.03532 0.16811
 H212 H 0.56518 0.03568 -0.00262
 H213 H 0.48194 -0.03528 -0.17170
 H214 H 0.47044 0.03570 0.00056
 H215 H 0.56602 -0.01313 0.06855
 H216 H 0.56599 -0.01238 -0.07515
 H217 H 0.52518 0.01193 -0.26127
 H218 H 0.48555 0.01193 -0.25947
 H219 H 0.42266 -0.01056 -0.06047
 H220 H 0.42874 0.00103 0.15459
 H221 H 0.48617 0.01074 0.25854
 H222 H 0.52554 0.01074 0.25704
 C223 C 1.16586 0.49564 0.32898
 N224 N 1.15177 0.50638 0.36376
 N225 N 1.13160 0.50631 0.32219
 C226 C 1.12489 0.49550 0.24453
 N227 N 1.13899 0.48476 0.20971
 N228 N 1.15916 0.48484 0.25129
 C229 C 1.18750 0.49559 0.37414
 C230 C 1.20557 0.49556 0.41267
 C231 C 1.10298 0.49527 0.20020
 C232 C 1.08446 0.49517 0.16409
 C233 C 0.50406 0.67029 0.32893
 N234 N 0.51598 0.67445 0.25302
 N235 N 0.51607 0.65425 0.21208
 C236 C 0.50425 0.62927 0.24580
 N237 N 0.49233 0.62511 0.32168
 N238 N 0.49224 0.64530 0.36261
 C239 C 0.50411 0.69208 0.37344
 C240 C 0.50417 0.71030 0.41142
 C241 C 0.50449 0.60748 0.20212
 C242 C 0.50459 0.58900 0.16639
 C243 C 0.32979 -0.16580 0.32587
 N244 N 0.35556 -0.15580 0.35176
 N245 N 0.37570 -0.13557 0.31088
 C246 C 0.37071 -0.12469 0.24281
 N247 N 0.34494 -0.13469 0.21689
 N248 N 0.32479 -0.15493 0.25778
 C249 C 0.30809 -0.18747 0.37047
 C250 C 0.28995 -0.20558 0.40849
 C251 C 0.39246 -0.10269 0.19940
 C252 C 0.41093 -0.08413 0.16392
 C253 C 0.83344 0.50123 0.33168
 N254 N 0.84580 0.48831 0.36368
 N255 N 0.86650 0.48890 0.32390
 C256 C 0.87549 0.50246 0.25095
 N257 N 0.86314 0.51538 0.21895
 N258 N 0.84244 0.51479 0.25873
 C259 C 0.81135 0.50080 0.37508
 C260 C 0.79298 0.50051 0.41258
 C261 C 0.89778 0.50310 0.20810
 C262 C 0.91646 0.50357 0.17206
 C263 C 0.49886 0.33233 0.33293
 N264 N 0.48535 0.32786 0.25980
 N265 N 0.48477 0.34798 0.22026
 C266 C 0.49766 0.37318 0.25268
 N267 N 0.51117 0.37765 0.32582
 N268 N 0.51174 0.35752 0.36537
 C269 C 0.49923 0.31063 0.37610
 C270 C 0.49948 0.29252 0.41342
 C271 C 0.49702 0.39484 0.21011
 C272 C 0.49651 0.41302 0.17416
 C273 C 0.66804 0.16679 0.33074
 N274 N 0.67248 0.15748 0.25809
 N275 N 0.65231 0.13674 0.21880
 C276 C 0.62710 0.12467 0.25102
 N277 N 0.62266 0.13398 0.32369
 N278 N 0.64283 0.15472 0.36299
 C279 C 0.68978 0.18893 0.37356
 C280 C 0.70792 0.20735 0.41055
 C281 C 0.60538 0.10236 0.20867
 C282 C 0.58714 0.08366 0.17291
 C283 C 0.49853 0.16735 -0.32896
 N284 N 0.51027 0.15423 -0.36395
 N285 N 0.50967 0.13342 -0.32509
 C286 C 0.49728 0.12508 -0.25011
 N287 N 0.48555 0.13821 -0.21509
 N288 N 0.48614 0.15902 -0.25396
 C289 C 0.49892 0.18953 -0.37150
 C290 C 0.49922 0.20795 -0.40856
 C291 C 0.49666 0.10268 -0.20830
 C292 C 0.49624 0.08392 -0.17314
 C293 C 0.66841 0.50096 -0.32912
 N294 N 0.64366 0.48955 -0.36468
 N295 N 0.62343 0.49013 -0.32574
 C296 C 0.62732 0.50217 -0.25011
 N297 N 0.65206 0.51358 -0.21454
 N298 N 0.67231 0.51300 -0.25348
 C299 C 0.69024 0.50061 -0.37172
 C300 C 0.70843 0.50038 -0.40881
 C301 C 0.60552 0.50281 -0.20823
 C302 C 0.58718 0.50326 -0.17296
 C303 C 0.83297 0.33156 -0.33166
 N304 N 0.84566 0.35653 -0.36548
 N305 N 0.86643 0.37670 -0.32634
 C306 C 0.87516 0.37251 -0.25224
 N307 N 0.86248 0.34754 -0.21840
 N308 N 0.84170 0.32736 -0.25755
 C309 C 0.81083 0.30982 -0.37449
 C310 C 0.79243 0.29172 -0.41170
 C311 C 0.89753 0.39424 -0.21014
 C312 C 0.91627 0.41254 -0.17472
 C313 C 0.50523 -0.16573 -0.33009
 N314 N 0.52545 -0.14016 -0.34208
 N315 N 0.52565 -0.11983 -0.30110
 C316 C 0.50566 -0.12443 -0.24677
 N317 N 0.48545 -0.15001 -0.23473
 N318 N 0.48525 -0.17035 -0.27573
 C319 C 0.50490 -0.18760 -0.37500
 C320 C 0.50470 -0.20584 -0.41326
 C321 C 0.50565 -0.10243 -0.20376
 C322 C 0.50554 -0.08389 -0.16846
 C323 C 0.32900 0.49529 -0.32927
 N324 N 0.35361 0.50569 -0.36514
 N325 N 0.37379 0.50551 -0.32451
 C326 C 0.37002 0.49490 -0.24674
 N327 N 0.34540 0.48448 -0.21084
 N328 N 0.32520 0.48467 -0.25148
 C329 C 0.30722 0.49536 -0.37346
 C330 C 0.28904 0.49542 -0.41135
 C331 C 0.39183 0.49468 -0.20320
 C332 C 0.41037 0.49465 -0.16755
 C333 C 1.16536 0.67005 -0.33238
 N334 N 1.15851 0.67401 -0.25473
 N335 N 1.13825 0.65389 -0.21381
 C336 C 1.12420 0.62920 -0.24929
 N337 N 1.13106 0.62525 -0.32692
 N338 N 1.15131 0.64536 -0.36783
 C339 C 1.18711 0.69174 -0.37674
 C340 C 1.20530 0.70986 -0.41453
 C341 C 1.10227 0.60749 -0.20557
 C342 C 1.08377 0.58903 -0.16987
 C343 C 0.83239 0.50081 -0.33008
 N344 N 0.84621 0.49021 -0.36760
 N345 N 0.86708 0.49072 -0.32932
 C346 C 0.87479 0.50189 -0.25243
 N347 N 0.86097 0.51249 -0.21490
 N348 N 0.84009 0.51198 -0.25318
 C349 C 0.81018 0.50056 -0.37199
 C350 C 0.79177 0.50038 -0.40881
 C351 C 0.89726 0.50244 -0.21125
 C352 C 0.91607 0.50286 -0.17636
 C353 C 0.49903 0.33146 -0.32877
 N354 N 0.51103 0.35624 -0.36384
 N355 N 0.51047 0.37657 -0.32548
 C356 C 0.49786 0.37271 -0.25095
 N357 N 0.48586 0.34792 -0.21586
 N358 N 0.48642 0.32759 -0.25423
 C359 C 0.49929 0.30954 -0.37094
 C360 C 0.49946 0.29133 -0.40797
 C361 C 0.49727 0.39459 -0.20967
 C362 C 0.49682 0.41296 -0.17468
 C363 C 0.66802 0.16713 -0.33015
 N364 N 0.67180 0.15901 -0.25440
 N365 N 0.65150 0.13826 -0.21584
 C366 C 0.62684 0.12500 -0.25194
 N367 N 0.62307 0.13312 -0.32769
 N368 N 0.64337 0.15387 -0.36624
 C369 C 0.68989 0.18923 -0.37228
 C370 C 0.70807 0.20757 -0.40909
 C371 C 0.60501 0.10264 -0.21051
 C372 C 0.58670 0.08391 -0.17545
 C373 C 1.16588 0.49486 -0.32685
 N374 N 1.15286 0.50696 -0.35975
 N375 N 1.13250 0.50666 -0.31883
 C376 C 1.12455 0.49423 -0.24384
 N377 N 1.13758 0.48212 -0.21087
 N378 N 1.15795 0.48243 -0.25182
 C379 C 1.18759 0.49501 -0.37143
 C380 C 1.20570 0.49518 -0.40995
 C381 C 1.10256 0.49386 -0.20034
 C382 C 1.08402 0.49383 -0.16507
 C383 C 0.50480 0.67039 -0.32613
 N384 N 0.49298 0.64536 -0.35958
 N385 N 0.49331 0.62534 -0.31868
 C386 C 0.50549 0.62976 -0.24316
 N387 N 0.51730 0.65480 -0.20964
 N388 N 0.51697 0.67483 -0.25056
 C389 C 0.50467 0.69192 -0.37077
 C390 C 0.50456 0.70985 -0.40932
 C391 C 0.50588 0.60819 -0.19964
 C392 C 0.50595 0.58973 -0.16428
 C393 C 0.32976 -0.16524 -0.32786
 N394 N 0.35570 -0.15752 -0.34596
 N395 N 0.37567 -0.13731 -0.30441
 C396 C 0.37028 -0.12424 -0.24356
 N397 N 0.34434 -0.13195 -0.22543
 N398 N 0.32436 -0.15217 -0.26699
 C399 C 0.30834 -0.18677 -0.37326
 C400 C 0.29048 -0.20476 -0.41217
 C401 C 0.39183 -0.10227 -0.19995
 C402 C 0.41027 -0.08373 -0.16460
 C403 C 0.50473 -0.16557 0.32419
 N404 N 0.52020 -0.15525 0.25514
 N405 N 0.52041 -0.13499 0.21398
 C406 C 0.50516 -0.12447 0.24070
 N407 N 0.48970 -0.13480 0.30975
 N408 N 0.48949 -0.15505 0.35090
 C409 C 0.50464 -0.18719 0.36898
 C410 C 0.50453 -0.20524 0.40747
 C411 C 0.50555 -0.10250 0.19725
 C412 C 0.50570 -0.08393 0.16194
 C413 C 0.32936 0.49542 0.32591
 N414 N 0.35425 0.50656 0.36019
 N415 N 0.37428 0.50631 0.31892
 C416 C 0.37000 0.49489 0.24218
 N417 N 0.34511 0.48374 0.20785
 N418 N 0.32507 0.48400 0.24914
 C419 C 0.30782 0.49550 0.37081
 C420 C 0.28985 0.49557 0.40943
 C421 C 0.39158 0.49454 0.19830
 C422 C 0.41001 0.49444 0.16272
 C423 C 1.16603 0.67059 0.32189
 N424 N 1.15672 0.67528 0.24971
 N425 N 1.13634 0.65515 0.20911
 C426 C 1.12470 0.62977 0.23956
 N427 N 1.13402 0.62509 0.31172
 N428 N 1.15438 0.64521 0.35230
 C429 C 1.18771 0.69221 0.36619
 C430 C 1.20578 0.71023 0.40442
 C431 C 1.10269 0.60810 0.19645
 C432 C 1.08412 0.58962 0.16129
 C433 C 0.49906 0.16675 0.33219
 N434 N 0.51283 0.15516 0.36327
 N435 N 0.51233 0.13444 0.32402
 C436 C 0.49800 0.12465 0.25259
 N437 N 0.48422 0.13623 0.22150
 N438 N 0.48472 0.15696 0.26075
 C439 C 0.49931 0.18878 0.37525
 C440 C 0.49948 0.20708 0.41274
 C441 C 0.49744 0.10233 0.21042
 C442 C 0.49701 0.08363 0.17477
 C443 C 0.66744 0.50074 0.33228
 N444 N 0.64238 0.48817 0.36563
 N445 N 0.62215 0.48869 0.32648
 C446 C 0.62639 0.50183 0.25286
 N447 N 0.65144 0.51440 0.21948
 N448 N 0.67168 0.51389 0.25864
 C449 C 0.68923 0.50048 0.37517
 C450 C 0.70738 0.50032 0.41253
 C451 C 0.60462 0.50240 0.21076
 C452 C 0.58635 0.50284 0.17516
 C453 C 0.83353 0.33259 0.32947
 N454 N 0.84377 0.32801 0.25906
 N455 N 0.86450 0.34824 0.22016
 C456 C 0.87562 0.37363 0.25060
 N457 N 0.86538 0.37820 0.32098
 N458 N 0.84466 0.35798 0.35988
 C459 C 0.81154 0.31083 0.37224
 C460 C 0.79328 0.29273 0.40958
 C461 C 0.89793 0.39538 0.20881
 C462 C 0.91662 0.41364 0.17341
   
