data_POSCAR
  _audit_creation_date              2014-09-24
  _audit_creation_method            'ToBaCCo'
  _symmetry_space_group_name_H-M    'P1'
  _symmetry_Int_Tables_number       1
  _symmetry_cell_setting            triclinic
  loop_
  _symmetry_equiv_pos_as_xyz
 x,y,z
_cell_length_a 16.3968
_cell_length_b 16.6830
_cell_length_c 16.8923
_cell_angle_alpha 90.154900
_cell_angle_beta 88.891000
_cell_angle_gamma 90.763200
loop_
  _atom_site_label
  _atom_site_type_symbol
  _atom_site_fract_x
  _atom_site_fract_y
  _atom_site_fract_z
C1 C 0.03768 0.41783 0.20283
 C2 C 0.09439 0.42401 0.27098
 C3 C 0.08738 0.49015 0.31801
 C4 C 0.02321 0.55035 0.28614
 C5 C -0.04757 0.43148 0.24000
 C6 C -0.05844 0.49947 0.28290
 C7 C 0.06085 0.49526 0.15777
 C8 C 0.05159 0.56759 0.19817
 H9 H 0.14912 0.38968 0.27055
 H10 H 0.01877 0.60613 0.32083
 H11 H -0.09453 0.38557 0.23854
 H12 H 0.09693 0.48777 0.10507
 C13 C -0.00235 0.41803 0.80514
 C14 C -0.07362 0.42843 0.75476
 C15 C -0.06399 0.48921 0.69363
 C16 C 0.01657 0.53081 0.69821
 C17 C 0.06007 0.40279 0.74776
 C18 C 0.07780 0.46315 0.69091
 C19 C 0.01856 0.49748 0.83525
 C20 C 0.01783 0.56346 0.78147
 H21 H -0.13005 0.39656 0.76460
 H22 H 0.02842 0.57634 0.65202
 H23 H 0.08783 0.34589 0.74829
 H24 H 0.05766 0.50477 0.88528
 C25 C 0.18912 -0.00538 0.42769
 C26 C 0.24479 0.06781 0.42794
 C27 C 0.30075 0.07241 0.48572
 C28 C 0.29212 -0.00147 0.54499
 C29 C 0.24532 -0.07766 0.43094
 C30 C 0.29860 -0.07869 0.49087
 C31 C 0.14803 -0.00767 0.51044
 C32 C 0.19993 -0.00230 0.57358
 H33 H 0.23874 0.11498 0.38465
 H34 H 0.33611 0.00026 0.59411
 H35 H 0.23062 -0.13364 0.40152
 H36 H 0.08268 -0.01528 0.51848
 C37 C 0.79005 -0.03778 0.44066
 C38 C 0.73712 -0.10583 0.44609
 C39 C 0.68083 -0.10404 0.50912
 C40 C 0.70120 -0.04589 0.56910
 C41 C 0.74324 0.03809 0.46186
 C42 C 0.69244 0.03450 0.52647
 C43 C 0.84238 -0.04660 0.51575
 C44 C 0.79465 -0.04936 0.58519
 H45 H 0.73735 -0.15277 0.40136
 H46 H 0.66594 -0.05968 0.62323
 H47 H 0.75779 0.09093 0.42894
 H48 H 0.90816 -0.04020 0.51529
 C49 C 0.39724 0.22980 1.00901
 C50 C 0.40935 0.27942 1.07778
 C51 C 0.48748 0.31835 1.08014
 C52 C 0.53998 0.30037 1.00707
 C53 C 0.41073 0.28348 0.94299
 C54 C 0.48923 0.32061 0.93590
 C55 C 0.46751 0.17529 1.00936
 C56 C 0.54779 0.21143 1.00318
 H57 H 0.36912 0.27696 1.12947
 H58 H 0.59784 0.33493 1.00976
 H59 H 0.36975 0.28310 0.89400
 H60 H 0.45975 0.11212 1.01920
 C61 C 0.40206 0.79088 1.02029
 C62 C 0.40117 0.74655 0.94107
 C63 C 0.46068 0.69260 0.92881
 C64 C 0.52258 0.69381 0.99905
 C65 C 0.40530 0.72591 1.08228
 C66 C 0.46997 0.67502 1.07645
 C67 C 0.48314 0.82885 1.02593
 C68 C 0.54966 0.77750 1.00803
 H69 H 0.35358 0.75712 0.89926
 H70 H 0.57477 0.65582 0.98839
 H71 H 0.36738 0.73172 1.13514
 H72 H 0.49754 0.87337 1.06976
 B73 B 0.97243 1.07890 0.06124
 B74 B 0.98082 1.07718 -0.04134
 B75 B 1.06448 1.04733 0.01093
 B76 B 1.02254 0.99984 0.10046
 B77 B 0.91631 0.99020 0.09379
 B78 B 0.88740 1.03675 0.00398
 B79 B 0.98775 0.89694 -0.03233
 B80 B 0.97967 0.90829 0.07068
 B81 B 0.89389 0.93109 0.00951
 B82 B 0.93311 0.98303 -0.07595
 B83 B 1.03731 0.98924 -0.07372
 B84 B 1.06766 0.94513 0.02154
 B85 B 0.59781 0.51787 0.45049
 B86 B 0.60150 0.50952 0.55139
 B87 B 0.55137 0.59475 0.51231
 B88 B 0.50613 0.55831 0.42265
 B89 B 0.51731 0.45481 0.41670
 B90 B 0.57223 0.42199 0.49507
 B91 B 0.42516 0.48588 0.55944
 B92 B 0.42368 0.49331 0.45516
 B93 B 0.46750 0.40817 0.50488
 B94 B 0.51983 0.44472 0.58792
 B95 B 0.50863 0.54635 0.59436
 B96 B 0.44718 0.57929 0.51316
 C97 C 0.98083 1.31713 0.09997
 C98 C 1.04012 1.33540 0.15665
 C99 C 1.08049 1.26687 0.18513
 C100 C 1.05922 1.18847 0.15836
 C101 C 0.98876 1.17079 0.11142
 C102 C 0.94156 1.24094 0.10657
 C103 C 0.93507 1.37764 0.06743
 C104 C 0.85081 1.36906 0.07120
 C105 C 0.81839 1.31410 0.12353
 C106 C 0.86655 1.24980 0.14726
 H107 H 0.96324 1.43327 0.05252
 H108 H 0.80960 1.40666 0.04210
 H109 H 0.75652 1.32312 0.14030
 H110 H 0.84075 1.20253 0.18315
 H111 H 1.13012 1.27185 0.22560
 H112 H 1.10337 1.14446 0.17071
 C113 C 1.03925 0.67623 0.08487
 C114 C 1.06319 0.65478 0.16283
 C115 C 1.06566 0.72009 0.21480
 C116 C 1.03886 0.79797 0.19436
 C117 C 0.99360 0.81933 0.12435
 C118 C 0.96863 0.75043 0.08910
 C119 C 1.03932 0.59865 0.02654
 C120 C 0.95860 0.57102 -0.02089
 C121 C 0.84433 0.67307 -0.01196
 C122 C 0.87474 0.74871 0.05092
 H123 H 1.09512 0.56683 0.01570
 H124 H 0.95610 0.51000 -0.04086
 H125 H 0.78023 0.66812 -0.02673
 H126 H 0.83119 0.77362 0.09033
 H127 H 1.08784 0.71130 0.27401
 H128 H 1.04642 0.83514 0.24482
 C129 C 1.06619 1.31066 -0.11165
 C130 C 0.99538 1.35231 -0.13346
 C131 C 0.92413 1.31541 -0.10560
 C132 C 0.92361 1.23686 -0.07280
 C133 C 0.99050 1.18153 -0.07530
 C134 C 1.06297 1.22424 -0.10618
 C135 C 1.14236 1.35075 -0.11330
 C136 C 1.21046 1.31042 -0.13902
 C137 C 1.20399 1.22936 -0.15522
 C138 C 1.13213 1.18714 -0.13800
 H139 H 1.14798 1.41479 -0.10753
 H140 H 1.26567 1.34381 -0.15262
 H141 H 1.25561 1.19797 -0.17910
 H142 H 1.13478 1.12489 -0.14465
 H143 H 0.86950 1.35060 -0.10334
 H144 H 0.86600 1.22113 -0.05099
 C145 C 0.93210 0.65222 -0.12686
 C146 C 0.99233 0.64323 -0.18754
 C147 C 1.04500 0.70986 -0.19005
 C148 C 1.03840 0.77902 -0.14017
 C149 C 0.99764 0.78732 -0.06629
 C150 C 0.96985 0.70017 -0.04221
 C151 C 0.85830 0.57991 -0.12142
 C152 C 0.81756 0.53362 -0.04006
 C153 C 0.83776 0.54992 0.05688
 C154 C 0.90626 0.61985 0.08623
 H155 H 0.84060 0.55464 -0.17743
 H156 H 0.77624 0.48537 -0.05218
 H157 H 0.80126 0.52047 0.10216
 H158 H 0.90588 0.63398 0.14946
 H159 H 1.09317 0.71001 -0.23191
 H160 H 1.06896 0.82877 -0.16045
 C161 C 1.07035 1.05182 0.34173
 C162 C 1.13515 0.99749 0.35326
 C163 C 1.15740 0.95071 0.28850
 C164 C 1.11694 0.95300 0.21827
 C165 C 1.05653 1.00684 0.19821
 C166 C 1.02808 1.05438 0.26712
 C167 C 1.04651 1.10411 0.40333
 C168 C 0.97804 1.15131 0.39862
 C169 C 0.93248 1.14903 0.33117
 C170 C 0.95737 1.10245 0.26710
 H171 H 1.08182 1.11159 0.45494
 H172 H 0.96055 1.19002 0.44742
 H173 H 0.87806 1.18452 0.32779
 H174 H 0.91878 1.10509 0.21804
 H175 H 1.20901 0.91140 0.28856
 H176 H 1.13626 0.90801 0.17880
 C177 C 1.10172 1.05362 -0.31995
 C178 C 1.16495 1.00109 -0.34090
 C179 C 1.18504 0.94578 -0.28292
 C180 C 1.14401 0.94089 -0.20791
 C181 C 1.08239 0.99468 -0.17715
 C182 C 1.06063 1.05039 -0.24280
 C183 C 1.08002 1.11276 -0.37587
 C184 C 1.01545 1.16348 -0.36314
 C185 C 0.97459 1.16030 -0.29192
 C186 C 0.99888 1.10635 -0.23482
 H187 H 1.11808 1.12586 -0.42671
 H188 H 0.99974 1.20758 -0.40699
 H189 H 0.92474 1.20077 -0.27971
 H190 H 0.96583 1.10695 -0.18446
 H191 H 1.23336 0.90393 -0.29565
 H192 H 1.16872 0.89371 -0.17299
 C193 C 0.75536 0.98880 0.29361
 C194 C 0.81390 0.96883 0.35245
 C195 C 0.88479 0.93592 0.32431
 C196 C 0.90166 0.93500 0.24324
 C197 C 0.86209 0.97919 0.18458
 C198 C 0.78169 1.00382 0.21303
 C199 C 0.66985 0.98372 0.31056
 C200 C 0.61271 0.99535 0.25278
 C201 C 0.63801 1.02241 0.17973
 C202 C 0.72079 1.02659 0.16176
 H203 H 0.64379 0.97072 0.36773
 H204 H 0.54843 0.98550 0.26564
 H205 H 0.59370 1.03260 0.13421
 H206 H 0.73316 1.02565 0.10333
 H207 H 0.92660 0.90824 0.36460
 H208 H 0.95468 0.90829 0.22944
 C209 C 0.79234 1.01619 -0.27575
 C210 C 0.82714 0.96249 -0.33224
 C211 C 0.89874 0.92409 -0.30995
 C212 C 0.92558 0.92595 -0.23118
 C213 C 0.89438 0.97900 -0.17254
 C214 C 0.83604 1.03317 -0.20545
 C215 C 0.71824 1.05867 -0.28572
 C216 C 0.69506 1.12049 -0.23651
 C217 C 0.74711 1.14405 -0.17891
 C218 C 0.81844 1.10443 -0.16848
 H219 H 0.67208 1.04624 -0.32547
 H220 H 0.63648 1.14904 -0.24229
 H221 H 0.72808 1.18450 -0.13356
 H222 H 0.85464 1.12281 -0.12323
 H223 H 0.93336 0.88983 -0.35304
 H224 H 0.97483 0.88801 -0.21852
 C225 C 1.30563 1.12401 -0.05002
 C226 C 1.31716 1.18860 0.00289
 C227 C 1.24507 1.21830 0.03791
 C228 C 1.16919 1.17866 0.02893
 C229 C 1.15923 1.09947 -0.00045
 C230 C 1.23352 1.07438 -0.04441
 C231 C 1.36238 1.11057 -0.11310
 C232 C 1.36195 1.04012 -0.15550
 C233 C 1.30529 0.98233 -0.13565
 C234 C 1.24025 1.00215 -0.08519
 H235 H 1.40699 1.15464 -0.13193
 H236 H 1.40631 1.03040 -0.20242
 H237 H 1.30825 0.92403 -0.16372
 H238 H 1.19569 0.95894 -0.07723
 H239 H 1.24516 1.27691 0.06552
 H240 H 1.11751 1.21622 0.03508
 C241 C 0.63088 1.08712 -0.03888
 C242 C 0.62380 1.16466 -0.00314
 C243 C 0.69755 1.19518 0.02473
 C244 C 0.76994 1.14957 0.02684
 C245 C 0.78511 1.07590 -0.00756
 C246 C 0.70887 1.04452 -0.04270
 C247 C 0.56546 1.05661 -0.08350
 C248 C 0.56899 0.98478 -0.12340
 C249 C 0.64248 0.94831 -0.13241
 C250 C 0.70979 0.97934 -0.09403
 H251 H 0.51456 1.09160 -0.09710
 H252 H 0.51660 0.96161 -0.15351
 H253 H 0.64876 0.89820 -0.17269
 H254 H 0.76506 0.95498 -0.11036
 H255 H 0.69872 1.25504 0.04730
 H256 H 0.82091 1.17223 0.05120
 C257 C 1.31348 0.91672 0.05800
 C258 C 1.32179 0.83752 0.02990
 C259 C 1.24946 0.79269 0.01792
 C260 C 1.17288 0.82683 0.02073
 C261 C 1.16076 0.90644 0.04276
 C262 C 1.23392 0.94744 0.07485
 C263 C 1.38143 0.96797 0.06957
 C264 C 1.37813 1.02980 0.12435
 C265 C 1.30318 1.05492 0.15109
 C266 C 1.23357 1.01931 0.12046
 H267 H 1.43404 0.96716 0.03086
 H268 H 1.43256 1.06294 0.14041
 H269 H 1.29856 1.10755 0.18850
 H270 H 1.18028 1.05144 0.13256
 H271 H 1.25226 0.72966 0.00251
 H272 H 1.12321 0.78874 0.00536
 C273 C 0.68945 0.79037 -0.05497
 C274 C 0.63311 0.80560 0.00743
 C275 C 0.66273 0.85080 0.07054
 C276 C 0.74346 0.88041 0.07109
 C277 C 0.79904 0.88024 0.00600
 C278 C 0.77030 0.82723 -0.05597
 C279 C 0.66677 0.74185 -0.11944
 C280 C 0.72300 0.72065 -0.17683
 C281 C 0.79892 0.75688 -0.17779
 C282 C 0.81996 0.81146 -0.12101
 H283 H 0.60671 0.71859 -0.12638
 H284 H 0.70769 0.67499 -0.21902
 H285 H 0.84615 0.73935 -0.21763
 H286 H 0.87831 0.83606 -0.12581
 H287 H 0.62618 0.85580 0.12439
 H288 H 0.76641 0.88816 0.12831
 C289 C 0.84775 0.55569 0.39662
 C290 C 0.85848 0.51382 0.32474
 C291 C 0.78557 0.49281 0.28649
 C292 C 0.70745 0.50494 0.32172
 C293 C 0.69382 0.53298 0.39994
 C294 C 0.76688 0.57740 0.42453
 C295 C 0.91554 0.58873 0.43489
 C296 C 0.90952 0.66483 0.46725
 C297 C 0.83348 0.70004 0.47258
 C298 C 0.76340 0.65315 0.46084
 H299 H 0.97422 0.56022 0.43295
 H300 H 0.96335 0.69663 0.48719
 H301 H 0.82842 0.76112 0.49334
 H302 H 0.70728 0.67909 0.47665
 H303 H 0.78813 0.46749 0.22759
 H304 H 0.65672 0.49440 0.28439
 C305 C 0.18698 0.43382 0.41311
 C306 C 0.15093 0.50231 0.38027
 C307 C 0.19947 0.57089 0.37785
 C308 C 0.28139 0.56706 0.40042
 C309 C 0.32609 0.49367 0.41061
 C310 C 0.27238 0.42581 0.39843
 C311 C 0.13904 0.36437 0.42644
 C312 C 0.16662 0.29183 0.39594
 C313 C 0.23917 0.29097 0.35155
 C314 C 0.29037 0.35885 0.35083
 H315 H 0.07574 0.36888 0.44534
 H316 H 0.12721 0.23992 0.39705
 H317 H 0.25316 0.23998 0.31440
 H318 H 0.33274 0.36296 0.30268
 H319 H 0.17521 0.62693 0.35718
 H320 H 0.30863 0.62410 0.40719
 C321 C 0.83074 0.58039 0.63995
 C322 C 0.87104 0.50674 0.64073
 C323 C 0.83745 0.44772 0.59107
 C324 C 0.76243 0.46040 0.55249
 C325 C 0.70480 0.51679 0.57954
 C326 C 0.74628 0.58200 0.61857
 C327 C 0.87181 0.65353 0.65358
 C328 C 0.83136 0.72517 0.64480
 C329 C 0.74773 0.72521 0.63816
 C330 C 0.70680 0.65216 0.63004
 H331 H 0.93562 0.65843 0.66401
 H332 H 0.86441 0.78037 0.64860
 H333 H 0.71587 0.78138 0.63922
 H334 H 0.64465 0.64622 0.62690
 H335 H 0.87187 0.39424 0.57766
 H336 H 0.74924 0.42653 0.49994
 C337 C 0.20547 0.38824 0.64859
 C338 C 0.15246 0.45558 0.64381
 C339 C 0.18286 0.51656 0.59687
 C340 C 0.26475 0.51648 0.57125
 C341 C 0.32725 0.46660 0.59910
 C342 C 0.29291 0.39802 0.64239
 C343 C 0.17382 0.30941 0.64608
 C344 C 0.22102 0.24578 0.66980
 C345 C 0.30220 0.25780 0.68513
 C346 C 0.33798 0.33117 0.66787
 H347 H 0.11088 0.29830 0.63108
 H348 H 0.19614 0.18692 0.67803
 H349 H 0.33956 0.20743 0.70108
 H350 H 0.40140 0.32585 0.66082
 H351 H 0.14466 0.56578 0.58002
 H352 H 0.28070 0.56548 0.53632
 C353 C 0.56875 0.63030 0.18632
 C354 C 0.49122 0.62997 0.15184
 C355 C 0.42640 0.61176 0.20300
 C356 C 0.43564 0.60498 0.28413
 C357 C 0.50921 0.60124 0.32459
 C358 C 0.57722 0.62800 0.27180
 C359 C 0.63902 0.63608 0.13824
 C360 C 0.71147 0.66317 0.16881
 C361 C 0.71657 0.68143 0.24776
 C362 C 0.65139 0.66212 0.29796
 H363 H 0.64039 0.61582 0.07829
 H364 H 0.76344 0.66943 0.13111
 H365 H 0.77319 0.70457 0.27136
 H366 H 0.66393 0.67127 0.35727
 H367 H 0.36500 0.60681 0.18051
 H368 H 0.38179 0.59358 0.31202
 C369 C 0.52207 0.58325 0.84030
 C370 C 0.46619 0.64468 0.85162
 C371 C 0.42657 0.66958 0.78337
 C372 C 0.44682 0.63845 0.70849
 C373 C 0.50662 0.58334 0.69135
 C374 C 0.55306 0.56435 0.76214
 C375 C 0.54969 0.54060 0.90567
 C376 C 0.62371 0.50281 0.90114
 C377 C 0.66665 0.50245 0.82952
 C378 C 0.62874 0.52769 0.76104
 H379 H 0.51562 0.53925 0.96123
 H380 H 0.64549 0.47213 0.95264
 H381 H 0.72454 0.47285 0.82441
 H382 H 0.65572 0.51054 0.70836
 H383 H 0.38590 0.71984 0.78405
 H384 H 0.43205 0.67420 0.66036
 C385 C 0.57008 0.32675 0.20480
 C386 C 0.50927 0.35542 0.15444
 C387 C 0.45593 0.41036 0.18908
 C388 C 0.46346 0.43640 0.26768
 C389 C 0.52807 0.41839 0.31875
 C390 C 0.58702 0.36386 0.28091
 C391 C 0.60884 0.25510 0.18559
 C392 C 0.67968 0.23444 0.22173
 C393 C 0.71074 0.28277 0.28114
 C394 C 0.66240 0.34234 0.31385
 H395 H 0.58386 0.21354 0.14408
 H396 H 0.71081 0.18113 0.20288
 H397 H 0.76841 0.26889 0.30738
 H398 H 0.68776 0.37119 0.36423
 H399 H 0.40307 0.42938 0.15679
 H400 H 0.41128 0.46537 0.29083
 C401 C 0.57978 0.34073 0.80947
 C402 C 0.50864 0.35348 0.85714
 C403 C 0.44824 0.39840 0.81971
 C404 C 0.45561 0.42615 0.74119
 C405 C 0.51894 0.40462 0.68597
 C406 C 0.58293 0.36367 0.72585
 C407 C 0.65206 0.31476 0.84368
 C408 C 0.72485 0.31454 0.80039
 C409 C 0.72658 0.33231 0.72153
 C410 C 0.65686 0.35938 0.68737
 H411 H 0.65582 0.29885 0.90434
 H412 H 0.78026 0.29722 0.82711
 H413 H 0.78293 0.32873 0.68777
 H414 H 0.66136 0.38753 0.63315
 H415 H 0.39492 0.41699 0.85353
 H416 H 0.40846 0.46620 0.72417
 C417 C 0.55707 0.84215 0.56653
 C418 C 0.60320 0.86157 0.50065
 C419 C 0.58909 0.81453 0.43608
 C420 C 0.57241 0.73552 0.44942
 C421 C 0.56746 0.69850 0.52378
 C422 C 0.55744 0.76024 0.58912
 C423 C 0.52137 0.90246 0.61351
 C424 C 0.50128 0.88660 0.69124
 C425 C 0.52750 0.81580 0.72336
 C426 C 0.55859 0.75533 0.67383
 H427 H 0.51663 0.96351 0.59332
 H428 H 0.47415 0.93245 0.72756
 H429 H 0.52414 0.80765 0.78688
 H430 H 0.58267 0.70796 0.70756
 H431 H 0.60140 0.83496 0.37617
 H432 H 0.55541 0.70695 0.39905
 C433 C 0.55602 0.10844 0.48387
 C434 C 0.63860 0.10373 0.54640
 C435 C 0.69530 0.18985 0.57337
 C436 C 0.68505 0.28978 0.53787
 C437 C 0.60851 0.32887 0.47195
 C438 C 0.53752 0.25742 0.42127
 C439 C 0.48776 0.03687 0.44300
 C440 C 0.41301 0.06517 0.36814
 C441 C 0.39657 0.16311 0.33011
 C442 C 0.45396 0.25596 0.35536
 H443 H 0.50064 -0.02752 0.46690
 H444 H 0.45046 0.04512 0.40718
 H445 H 0.42244 0.21408 0.34023
 H446 H 0.43483 0.32016 0.34770
 H447 H 0.75084 0.17923 0.60497
 H448 H 0.73698 0.32152 0.55638
 C449 C 0.29319 0.78341 0.55815
 C450 C 0.33350 0.83962 0.50854
 C451 C 0.38603 0.80606 0.45253
 C452 C 0.40384 0.72400 0.45291
 C453 C 0.38996 0.67101 0.51764
 C454 C 0.32693 0.70488 0.57206
 C455 C 0.21409 0.79984 0.58658
 C456 C 0.17492 0.75021 0.64017
 C457 C 0.21647 0.68609 0.67089
 C458 C 0.29112 0.66488 0.63826
 H459 H 0.17938 0.84851 0.56457
 H460 H 0.11270 0.76337 0.65701
 H461 H 0.18933 0.64683 0.71501
 H462 H 0.31503 0.61117 0.66224
 H463 H 0.40674 0.84182 0.40237
 H464 H 0.42923 0.70267 0.39912
 C465 C 0.43901 0.17003 0.46528
 C466 C 0.35245 0.15065 0.48941
 C467 C 0.30604 0.21890 0.50524
 C468 C 0.34268 0.29530 0.50732
 C469 C 0.42629 0.30710 0.52131
 C470 C 0.46558 0.22573 0.53567
 C471 C 0.53508 0.14027 0.35852
 C472 C 0.62587 0.15553 0.36569
 C473 C 0.65242 0.19533 0.44160
 C474 C 0.55793 0.22416 0.54775
 H475 H 0.52603 0.11390 0.30005
 H476 H 0.66994 0.13414 0.32361
 H477 H 0.71817 0.20732 0.43572
 H478 H 0.56860 0.24868 0.60675
 H479 H 0.24038 0.21372 0.51123
 H480 H 0.30283 0.34446 0.50758
   
