data_POSCAR
  _audit_creation_date              2014-09-24
  _audit_creation_method            'ToBaCCo'
  _symmetry_space_group_name_H-M    'P1'
  _symmetry_Int_Tables_number       1
  _symmetry_cell_setting            triclinic
  loop_
  _symmetry_equiv_pos_as_xyz
 x,y,z
_cell_length_a 29.7704
_cell_length_b 29.2594
_cell_length_c 29.4063
_cell_angle_alpha 89.796800
_cell_angle_beta 90.140200
_cell_angle_gamma 90.035100
loop_
  _atom_site_label
  _atom_site_type_symbol
  _atom_site_fract_x
  _atom_site_fract_y
  _atom_site_fract_z
C1 C 0.18017 1.24508 0.17271
 C2 C 0.15677 1.23126 0.21225
 C3 C 0.16916 1.19166 0.23660
 C4 C 0.20644 1.16630 0.22115
 C5 C 0.23034 1.17936 0.18226
 C6 C 0.21681 1.21856 0.15816
 H7 H 0.12801 1.25022 0.22408
 H8 H 0.21729 1.13555 0.23822
 H9 H 0.23391 1.22805 0.12712
 C10 C 0.81222 0.74805 0.18975
 C11 C 0.77326 0.76426 0.16746
 C12 C 0.75080 0.80355 0.18257
 C13 C 0.76725 0.82653 0.22110
 C14 C 0.80544 0.81084 0.24440
 C15 C 0.82763 0.77160 0.22845
 H16 H 0.76038 0.74763 0.13744
 H17 H 0.75157 0.85770 0.23258
 H18 H 0.85810 0.76003 0.24490
 C19 C 0.82278 1.22833 -0.18280
 C20 C 0.84502 1.21596 -0.22327
 C21 C 0.83046 1.17869 -0.24969
 C22 C 0.79213 1.15409 -0.23539
 C23 C 0.76918 1.16598 -0.19555
 C24 C 0.78510 1.20276 -0.16937
 H25 H 0.87433 1.23447 -0.23456
 H26 H 0.77986 1.12501 -0.25420
 H27 H 0.76907 1.21097 -0.13747
 C28 C 0.18983 0.77500 -0.15731
 C29 C 0.16405 0.78818 -0.19539
 C30 C 0.17499 0.82716 -0.22119
 C31 C 0.21230 0.85364 -0.20758
 C32 C 0.23814 0.84135 -0.16949
 C33 C 0.22663 0.80202 -0.14447
 H34 H 0.13432 0.76897 -0.20447
 H35 H 0.22153 0.88450 -0.22547
 H36 H 0.24530 0.79304 -0.11409
 C37 C 0.57261 1.07677 -0.00387
 H38 H 0.56824 1.07985 0.03251
 C39 C 0.60338 1.10467 -0.02628
 H40 H 0.62269 1.12931 -0.00697
 C41 C 0.55245 1.04089 -0.07314
 H42 H 0.53248 1.01591 -0.09112
 C43 C 0.58359 1.06770 -0.09693
 H44 H 0.58675 1.06362 -0.13334
 N45 N 0.54728 1.04631 -0.02750
 C46 C 0.43199 1.03299 0.06250
 H47 H 0.43172 0.99648 0.06846
 C48 C 0.39873 1.06050 0.08169
 H49 H 0.37316 1.04421 0.10208
 C50 C 0.46466 1.09720 0.02617
 H51 H 0.48946 1.11134 0.00342
 C52 C 0.43219 1.12595 0.04471
 H53 H 0.43298 1.16208 0.03655
 Zn54 Zn 0.50626 1.01194 0.00779
 N55 N 0.46430 1.05166 0.03563
 C56 C 0.53518 0.98554 0.09710
 N57 N 0.54080 0.97997 0.05157
 C58 C 0.57363 0.95253 0.03490
 C59 C 0.60207 0.92870 0.06431
 C60 C 0.56298 0.96231 0.12784
 C61 C 0.44589 0.98709 -0.06124
 C62 C 0.41647 0.95826 -0.08467
 C63 C 0.44360 0.89499 -0.03936
 C64 C 0.47253 0.92498 -0.01691
 N65 N 0.47287 0.97019 -0.02784
 H66 H 0.50964 1.00843 0.10968
 H67 H 0.57796 0.94959 -0.00150
 H68 H 0.62859 0.90824 0.04979
 H69 H 0.55835 0.96728 0.16401
 H70 H 0.44646 1.02328 -0.06889
 H71 H 0.39564 0.97285 -0.11111
 H72 H 0.44305 0.85932 -0.02940
 H73 H 0.49341 0.91229 0.01041
 C74 C 0.39866 1.10789 0.07295
 C75 C 0.60932 1.10025 -0.07327
 C76 C 0.41428 0.91158 -0.07297
 C77 C 0.59673 0.93317 0.11160
 C78 C -0.03605 0.57153 1.04942
 H79 H -0.00033 0.57579 1.05477
 C80 C -0.06626 0.60072 1.07088
 H81 H -0.05309 0.62772 1.09209
 C82 C -0.09567 0.53270 1.01254
 H83 H -0.10688 0.50680 0.98901
 C84 C -0.12714 0.56135 1.03319
 H85 H -0.16251 0.55697 1.02567
 N86 N -0.05109 0.53811 1.02124
 C87 C 0.06023 0.44148 1.02070
 H88 H 0.06843 0.44111 0.98488
 C89 C 0.08188 0.41144 1.05059
 H90 H 0.10658 0.38833 1.03682
 C91 C 0.01523 0.47008 1.08048
 H92 H -0.01186 0.49172 1.09179
 C93 C 0.03605 0.44073 1.11154
 H94 H 0.02512 0.44074 1.14665
 Zn95 Zn -0.00634 0.50283 0.99230
 N96 N 0.02733 0.46969 1.03593
 C97 C 0.07429 0.55065 0.96661
 N98 N 0.02958 0.54437 0.95907
 C99 C 0.00721 0.56889 0.92689
 C100 C 0.03006 0.59988 0.89938
 C101 C 0.09843 0.58221 0.94030
 C102 C -0.06005 0.42712 0.96934
 C103 C -0.07733 0.39277 0.94136
 C104 C -0.03533 0.42472 0.87868
 C105 C -0.01894 0.45839 0.90778
 N106 N -0.03179 0.45932 0.95213
 H107 H 0.09123 0.53123 0.99286
 H108 H -0.02846 0.56362 0.92212
 H109 H 0.01180 0.61848 0.87333
 H110 H 0.13411 0.58639 0.94608
 H111 H -0.06862 0.42776 1.00506
 H112 H -0.09888 0.36710 0.95633
 H113 H -0.02445 0.42441 0.84355
 H114 H 0.00494 0.48299 0.89499
 C115 C 0.06940 0.41040 1.09677
 C116 C -0.11261 0.59564 1.06306
 C117 C -0.06504 0.39144 0.89517
 C118 C 0.07610 0.60700 0.90599
 C119 C 1.08751 -0.02718 0.53859
 H120 H 1.10065 -0.00453 0.51281
 C121 C 1.11599 -0.04261 0.57304
 H122 H 1.15094 -0.03225 0.57282
 C123 C 1.02581 -0.06580 0.57192
 H124 H 0.99027 -0.07356 0.57183
 C125 C 1.05321 -0.08211 0.60712
 H126 H 1.03805 -0.10220 0.63391
 N127 N 1.04331 -0.03899 0.53849
 C128 C 1.03530 0.06808 0.44745
 H129 H 1.01190 0.08734 0.46786
 C130 C 1.06266 0.09068 0.41579
 H131 H 1.06043 0.12744 0.41267
 C132 C 1.06716 -0.00324 0.42727
 H133 H 1.06864 -0.03989 0.43201
 C134 C 1.09522 0.01782 0.39580
 H135 H 1.11829 -0.00290 0.37627
 Zn136 Zn 1.00430 -0.01265 0.49461
 N137 N 1.03849 0.02197 0.45281
 C138 C 0.97807 0.05614 0.55520
 N139 N 0.96229 0.02339 0.52664
 C140 C 0.91788 0.01254 0.52526
 C141 C 0.88756 0.03431 0.55406
 C142 C 0.94889 0.07873 0.58475
 C143 C 0.94852 -0.04111 0.42519
 C144 C 0.92609 -0.07094 0.39612
 C145 C 0.95689 -0.13438 0.43874
 C146 C 0.97884 -0.10318 0.46712
 N147 N 0.97397 -0.05748 0.46002
 H148 H 1.01371 0.06328 0.55640
 H149 H 0.90606 -0.01442 0.50330
 H150 H 0.85255 0.02422 0.55335
 H151 H 0.96297 0.10308 0.60833
 H152 H 0.94616 -0.00460 0.41972
 H153 H 0.90729 -0.05663 0.36799
 H154 H 0.96123 -0.17069 0.44454
 H155 H 1.00016 -0.11551 0.49429
 C156 C 1.09327 0.06526 0.38963
 C157 C 1.09907 -0.07034 0.60796
 C158 C 0.92980 -0.11840 0.40291
 C159 C 0.90289 0.06735 0.58486
 C160 C 0.16776 0.28319 1.14578
 C161 C 0.13412 0.31231 1.15476
 C162 C 0.12200 0.34854 1.12191
 C163 C 0.08718 0.37632 1.12980
 H164 H 0.11427 0.30951 1.18530
 H165 H 0.14115 0.35130 1.09084
 H166 H 0.18660 0.28914 1.11475
 H167 H 0.06976 0.37312 1.16202
 C168 C -0.16200 0.71083 1.17392
 C169 C -0.17105 0.68566 1.13687
 C170 C -0.13869 0.65111 1.12103
 C171 C -0.14609 0.62726 1.08295
 H172 H -0.20093 0.69098 1.11669
 H173 H -0.10806 0.64608 1.14031
 H174 H -0.13147 0.70263 1.19249
 H175 H -0.17793 0.63120 1.06539
 C176 C -0.16313 0.26450 0.84566
 C177 C -0.12776 0.29196 0.83820
 C178 C -0.11561 0.32785 0.87113
 C179 C -0.08025 0.35508 0.86364
 H180 H -0.10694 0.28858 0.80842
 H181 H -0.13601 0.33191 0.90124
 H182 H -0.18235 0.27052 0.87640
 H183 H -0.06169 0.35106 0.83220
 C184 C 0.17709 0.73537 0.87174
 C185 C 0.15092 0.70116 0.85721
 C186 C 0.13386 0.66574 0.88847
 C187 C 0.09936 0.63950 0.87554
 H188 H 0.14014 0.69981 0.82209
 H189 H 0.14708 0.66349 0.92276
 H190 H 0.18889 0.73489 0.90666
 H191 H 0.08488 0.64483 0.84204
 C192 C 1.14254 0.17814 0.27420
 C193 C 1.15021 0.14119 0.30030
 C194 C 1.11839 0.12641 0.33583
 C195 C 1.12465 0.08612 0.35657
 H196 H 1.17931 0.11990 0.29532
 H197 H 1.08907 0.14702 0.34295
 H198 H 1.11302 0.19839 0.28194
 H199 H 1.15341 0.06566 0.34676
 C200 C 1.14718 -0.16161 0.74136
 C201 C 1.15395 -0.12676 0.71239
 C202 C 1.12191 -0.11732 0.67518
 C203 C 1.12980 -0.08345 0.64557
 H204 H 1.18282 -0.10463 0.71526
 H205 H 1.09215 -0.13834 0.67216
 H206 H 1.11796 -0.18298 0.73532
 H207 H 1.16092 -0.06439 0.64868
 C208 C 0.82280 -0.16115 0.28274
 C209 C 0.85540 -0.17400 0.31158
 C210 C 0.87294 -0.14146 0.34540
 C211 C 0.90825 -0.15176 0.37181
 H212 H 0.87027 -0.20763 0.30989
 H213 H 0.85715 -0.10825 0.34771
 H214 H 0.80841 -0.12736 0.28685
 H215 H 0.92224 -0.18594 0.37035
 C216 C 0.85618 0.16690 0.71172
 C217 C 0.84695 0.13280 0.68274
 C218 C 0.87888 0.12080 0.64638
 C219 C 0.87059 0.08556 0.61869
 H220 H 0.81696 0.11230 0.68591
 H221 H 0.90967 0.14019 0.64352
 H222 H 0.88654 0.18645 0.70538
 H223 H 0.83864 0.06799 0.62186
 C224 C 0.26743 1.14922 0.16674
 C225 C 0.29895 1.16136 0.13665
 C226 C 0.33347 1.12832 0.12233
 C227 C 0.36373 1.13944 0.09057
 H228 H 0.29972 1.19544 0.12234
 H229 H 0.33355 1.09485 0.13798
 H230 H 0.26902 1.11511 0.18125
 H231 H 0.36296 1.17380 0.07660
 C232 C 0.73061 1.13725 -0.18068
 C233 C 0.69995 1.15095 -0.15042
 C234 C 0.66518 1.11963 -0.13301
 C235 C 0.64168 1.13103 -0.09605
 H236 H 0.70082 1.18530 -0.13699
 H237 H 0.66092 1.08638 -0.14853
 H238 H 0.72772 1.10317 -0.19477
 H239 H 0.64888 1.16335 -0.07957
 C240 C 0.27475 0.87246 -0.15498
 C241 C 0.31083 0.85892 -0.13134
 C242 C 0.34449 0.89254 -0.11604
 C243 C 0.38139 0.87938 -0.09343
 H244 H 0.31559 0.82317 -0.12297
 H245 H 0.33754 0.92836 -0.12175
 H246 H 0.27213 0.90810 -0.16490
 H247 H 0.38635 0.84318 -0.08717
 C248 C 0.71276 0.82122 0.15469
 C249 C 0.68528 0.85526 0.16698
 C250 C 0.65207 0.87368 0.13451
 C251 C 0.62729 0.91045 0.14460
 H252 H 0.68777 0.87085 0.20014
 H253 H 0.64894 0.85746 0.10165
 H254 H 0.70793 0.80613 0.12139
 H255 H 0.62972 0.92484 0.17845
   
