data_POSCAR
  _audit_creation_date              2014-09-24
  _audit_creation_method            'ToBaCCo'
  _symmetry_space_group_name_H-M    'P1'
  _symmetry_Int_Tables_number       1
  _symmetry_cell_setting            triclinic
  loop_
  _symmetry_equiv_pos_as_xyz
 x,y,z
_cell_length_a 63.3279
_cell_length_b 63.3273
_cell_length_c 22.3897
_cell_angle_alpha 90.000000
_cell_angle_beta 90.000000
_cell_angle_gamma 120.000000
loop_
  _atom_site_label
  _atom_site_type_symbol
  _atom_site_fract_x
  _atom_site_fract_y
  _atom_site_fract_z
C1 C 0.25000 0.50000 0.53391
 C2 C 0.25000 0.50000 0.46609
 C3 C 0.22878 0.50000 0.43164
 C4 C 0.27123 0.50000 0.43164
 C5 C 0.27123 0.50000 0.56836
 C6 C 0.22878 0.50000 0.56836
 C7 C 0.20569 0.47595 0.41670
 C8 C 0.18574 0.47598 0.37905
 C9 C 0.18669 0.50006 0.36405
 C10 C 0.20973 0.52405 0.37893
 C11 C 0.22974 0.52405 0.41670
 C12 C 0.27026 0.47595 0.41670
 C13 C 0.29026 0.47596 0.37900
 C14 C 0.31339 0.50006 0.36411
 C15 C 0.31432 0.52405 0.37894
 C16 C 0.29431 0.52405 0.41669
 C17 C 0.29431 0.52405 0.58330
 C18 C 0.31432 0.52405 0.62106
 C19 C 0.31339 0.50006 0.63589
 C20 C 0.29025 0.47596 0.62100
 C21 C 0.27026 0.47595 0.58330
 C22 C 0.22974 0.52405 0.58330
 C23 C 0.20973 0.52405 0.62107
 C24 C 0.18669 0.50006 0.63596
 C25 C 0.18575 0.47597 0.62094
 C26 C 0.20569 0.47595 0.58330
 H27 H 0.20345 0.45796 0.43400
 H28 H 0.17075 0.45786 0.36417
 H29 H 0.21201 0.54206 0.36167
 H30 H 0.24549 0.54204 0.43400
 H31 H 0.25451 0.45796 0.43400
 H32 H 0.28800 0.45794 0.36179
 H33 H 0.29655 0.54204 0.43400
 H34 H 0.29655 0.54204 0.56600
 H35 H 0.33007 0.54204 0.63838
 H36 H 0.28796 0.45792 0.63817
 H37 H 0.25451 0.45796 0.56600
 H38 H 0.24549 0.54204 0.56600
 H39 H 0.21197 0.54204 0.63837
 H40 H 0.17075 0.45784 0.63583
 H41 H 0.20345 0.45796 0.56599
 H42 H 0.33005 0.54206 0.36167
 C43 C 0.50000 -0.25000 0.53391
 C44 C 0.50000 -0.25000 0.46609
 C45 C 0.50000 -0.27122 0.43164
 C46 C 0.50000 -0.22877 0.43164
 C47 C 0.50000 -0.22877 0.56836
 C48 C 0.50000 -0.27122 0.56836
 C49 C 0.52405 -0.27026 0.41670
 C50 C 0.52405 -0.29027 0.37894
 C51 C 0.50007 -0.31337 0.36394
 C52 C 0.47598 -0.31425 0.37904
 C53 C 0.47595 -0.29431 0.41670
 C54 C 0.52405 -0.20569 0.41670
 C55 C 0.52405 -0.18568 0.37893
 C56 C 0.50003 -0.18661 0.36419
 C57 C 0.47595 -0.20973 0.37894
 C58 C 0.47595 -0.22974 0.41669
 C59 C 0.47595 -0.22974 0.58330
 C60 C 0.47595 -0.20973 0.62108
 C61 C 0.49997 -0.18669 0.63606
 C62 C 0.52405 -0.18568 0.62106
 C63 C 0.52405 -0.20569 0.58330
 C64 C 0.47595 -0.29431 0.58330
 C65 C 0.47595 -0.31432 0.62110
 C66 C 0.49998 -0.31340 0.63617
 C67 C 0.52405 -0.29027 0.62105
 C68 C 0.52405 -0.27026 0.58331
 H69 H 0.54204 -0.25451 0.43400
 H70 H 0.54204 -0.28803 0.36162
 H71 H 0.45784 -0.32931 0.36408
 H72 H 0.45796 -0.29655 0.43401
 H73 H 0.54204 -0.20345 0.43400
 H74 H 0.54204 -0.16993 0.36163
 H75 H 0.45796 -0.24549 0.43400
 H76 H 0.45796 -0.24549 0.56600
 H77 H 0.45796 -0.21197 0.63838
 H78 H 0.54206 -0.16995 0.63833
 H79 H 0.54204 -0.20345 0.56600
 H80 H 0.45796 -0.29655 0.56600
 H81 H 0.45796 -0.33007 0.63837
 H82 H 0.54206 -0.28799 0.63833
 H83 H 0.54204 -0.25451 0.56600
 H84 H 0.45794 -0.21201 0.36167
 C85 C 1.25000 0.75000 0.53391
 C86 C 1.25000 0.75000 0.46609
 C87 C 1.27122 0.77122 0.43164
 C88 C 1.22877 0.72877 0.43164
 C89 C 1.22877 0.72877 0.56836
 C90 C 1.27122 0.77122 0.56836
 C91 C 1.27026 0.79431 0.41670
 C92 C 1.29026 0.81431 0.37894
 C93 C 1.31334 0.81330 0.36395
 C94 C 1.31431 0.79027 0.37892
 C95 C 1.29431 0.77026 0.41670
 C96 C 1.20569 0.72974 0.41670
 C97 C 1.18568 0.70973 0.37893
 C98 C 1.18664 0.68662 0.36419
 C99 C 1.20973 0.68568 0.37894
 C100 C 1.22974 0.70569 0.41669
 C101 C 1.22974 0.70569 0.58330
 C102 C 1.20973 0.68568 0.62106
 C103 C 1.18668 0.68662 0.63590
 C104 C 1.18571 0.70975 0.62098
 C105 C 1.20569 0.72974 0.58330
 C106 C 1.29431 0.77026 0.58330
 C107 C 1.31432 0.79027 0.62107
 C108 C 1.31344 0.81337 0.63608
 C109 C 1.29023 0.81425 0.62096
 C110 C 1.27026 0.79431 0.58330
 H111 H 1.25451 0.79655 0.43400
 H112 H 1.28803 0.83007 0.36162
 H113 H 1.33005 0.78799 0.36167
 H114 H 1.29655 0.75451 0.43400
 H115 H 1.20345 0.74549 0.43400
 H116 H 1.16993 0.71197 0.36163
 H117 H 1.24549 0.70345 0.43400
 H118 H 1.24549 0.70345 0.56600
 H119 H 1.21197 0.66993 0.63838
 H120 H 1.16997 0.71207 0.63803
 H121 H 1.20345 0.74549 0.56600
 H122 H 1.29655 0.75451 0.56600
 H123 H 1.33007 0.78803 0.63837
 H124 H 1.28668 0.82879 0.63578
 H125 H 1.25451 0.79655 0.56600
 H126 H 1.21200 0.66994 0.36167
 C127 C 0.75000 0.50000 0.53391
 C128 C 0.75000 0.50000 0.46609
 C129 C 0.77122 0.50000 0.43164
 C130 C 0.72877 0.50000 0.43164
 C131 C 0.72877 0.50000 0.56836
 C132 C 0.77122 0.50000 0.56836
 C133 C 0.79431 0.52405 0.41670
 C134 C 0.81431 0.52405 0.37897
 C135 C 0.81333 0.49995 0.36415
 C136 C 0.79027 0.47595 0.37894
 C137 C 0.77026 0.47595 0.41670
 C138 C 0.72974 0.52405 0.41670
 C139 C 0.70973 0.52405 0.37893
 C140 C 0.68669 0.50006 0.36405
 C141 C 0.68574 0.47597 0.37906
 C142 C 0.70569 0.47595 0.41670
 C143 C 0.70569 0.47595 0.58330
 C144 C 0.68574 0.47597 0.62095
 C145 C 0.68669 0.50006 0.63594
 C146 C 0.70973 0.52405 0.62107
 C147 C 0.72974 0.52405 0.58330
 C148 C 0.77026 0.47595 0.58330
 C149 C 0.79027 0.47595 0.62105
 C150 C 0.81340 0.49994 0.63596
 C151 C 0.81430 0.52405 0.62105
 C152 C 0.79431 0.52405 0.58331
 H153 H 0.79655 0.54204 0.43400
 H154 H 0.83007 0.54204 0.36164
 H155 H 0.78799 0.45794 0.36167
 H156 H 0.75451 0.45796 0.43400
 H157 H 0.74549 0.54204 0.43400
 H158 H 0.71197 0.54204 0.36163
 H159 H 0.70345 0.45796 0.43401
 H160 H 0.70345 0.45796 0.56600
 H161 H 0.67050 0.45786 0.63624
 H162 H 0.71201 0.54206 0.63833
 H163 H 0.74549 0.54204 0.56600
 H164 H 0.75451 0.45796 0.56600
 H165 H 0.78803 0.45796 0.63837
 H166 H 0.83005 0.54207 0.63831
 H167 H 0.79655 0.54204 0.56600
 H168 H 0.67051 0.45783 0.36377
 C169 C 0.50000 0.25000 0.53391
 C170 C 0.50000 0.25000 0.46609
 C171 C 0.50000 0.27122 0.43164
 C172 C 0.50000 0.22877 0.43164
 C173 C 0.50000 0.22877 0.56836
 C174 C 0.50000 0.27122 0.56836
 C175 C 0.47595 0.27026 0.41670
 C176 C 0.47595 0.29027 0.37893
 C177 C 0.49994 0.31331 0.36404
 C178 C 0.52402 0.31425 0.37905
 C179 C 0.52405 0.29431 0.41670
 C180 C 0.47595 0.20569 0.41670
 C181 C 0.47595 0.18568 0.37892
 C182 C 0.49998 0.18666 0.36393
 C183 C 0.52405 0.20973 0.37894
 C184 C 0.52405 0.22974 0.41669
 C185 C 0.52405 0.22974 0.58330
 C186 C 0.52405 0.20974 0.62106
 C187 C 0.49995 0.18665 0.63604
 C188 C 0.47595 0.18568 0.62108
 C189 C 0.47595 0.20569 0.58330
 C190 C 0.52405 0.29431 0.58330
 C191 C 0.52405 0.31432 0.62106
 C192 C 0.50006 0.31339 0.63587
 C193 C 0.47595 0.29025 0.62102
 C194 C 0.47595 0.27026 0.58331
 H195 H 0.45796 0.25451 0.43400
 H196 H 0.45796 0.28803 0.36162
 H197 H 0.54214 0.32904 0.36436
 H198 H 0.54204 0.29655 0.43401
 H199 H 0.45796 0.20345 0.43400
 H200 H 0.45796 0.16993 0.36163
 H201 H 0.54204 0.24549 0.43400
 H202 H 0.54204 0.24549 0.56600
 H203 H 0.54204 0.21199 0.63839
 H204 H 0.45794 0.16995 0.63833
 H205 H 0.45796 0.20345 0.56600
 H206 H 0.54204 0.29655 0.56600
 H207 H 0.54204 0.33007 0.63837
 H208 H 0.45793 0.28798 0.63829
 H209 H 0.45796 0.25451 0.56600
 H210 H 0.54206 0.21201 0.36167
 C211 C 0.75000 0.25000 0.53391
 C212 C 0.75000 0.25000 0.46609
 C213 C 0.72878 0.22878 0.43164
 C214 C 0.77123 0.27123 0.43164
 C215 C 0.77123 0.27123 0.56836
 C216 C 0.72878 0.22878 0.56836
 C217 C 0.72974 0.20569 0.41670
 C218 C 0.70973 0.18568 0.37894
 C219 C 0.68668 0.18662 0.36411
 C220 C 0.68570 0.20975 0.37900
 C221 C 0.70569 0.22974 0.41670
 C222 C 0.79431 0.27026 0.41670
 C223 C 0.81430 0.29025 0.37901
 C224 C 0.81333 0.31339 0.36410
 C225 C 0.79027 0.31432 0.37894
 C226 C 0.77026 0.29431 0.41669
 C227 C 0.77026 0.29431 0.58330
 C228 C 0.79027 0.31432 0.62106
 C229 C 0.81337 0.31344 0.63607
 C230 C 0.81425 0.29023 0.62096
 C231 C 0.79431 0.27026 0.58330
 C232 C 0.70569 0.22974 0.58330
 C233 C 0.68570 0.20975 0.62105
 C234 C 0.68670 0.18665 0.63604
 C235 C 0.70974 0.18568 0.62107
 C236 C 0.72974 0.20569 0.58331
 H237 H 0.74549 0.20345 0.43400
 H238 H 0.71197 0.16993 0.36162
 H239 H 0.66996 0.21203 0.36180
 H240 H 0.70345 0.24549 0.43400
 H241 H 0.79655 0.25451 0.43400
 H242 H 0.83005 0.28799 0.36185
 H243 H 0.75451 0.29655 0.43400
 H244 H 0.75451 0.29655 0.56600
 H245 H 0.78803 0.33007 0.63838
 H246 H 0.82883 0.28671 0.63569
 H247 H 0.79655 0.25451 0.56600
 H248 H 0.70345 0.24549 0.56600
 H249 H 0.66997 0.21202 0.63838
 H250 H 0.71201 0.16995 0.63833
 H251 H 0.74549 0.20345 0.56600
 H252 H 0.78800 0.33006 0.36167
 O253 O 0.97524 0.50837 -0.12500
 O254 O 1.02435 0.53303 0.12554
 O255 O 0.94879 0.49531 0.06012
 O256 O 1.05091 0.54631 -0.05969
 O257 O 0.97533 0.50859 0.12548
 O258 O 1.02429 0.53289 -0.12499
 O259 O 1.05087 0.54628 0.06030
 O260 O 0.94875 0.49524 -0.05967
 C261 C 0.95711 0.50738 -0.10458
 C262 C 1.04288 0.55030 0.10458
 C263 C 0.95710 0.50741 0.10462
 C264 C 1.04288 0.55024 -0.10456
 O265 O 1.02432 0.49089 -0.12500
 O266 O 0.97584 0.46740 0.12220
 O267 O 0.94673 0.45387 -0.06098
 O268 O 1.05103 0.50436 0.06046
 O269 O 1.02444 0.49114 0.12561
 O270 O 0.97546 0.46677 -0.12528
 O271 O 1.05091 0.50432 -0.05985
 O272 O 0.94921 0.45350 0.05992
 Co273 Co 0.97119 0.46001 -0.06541
 Co274 Co 0.97761 0.47100 0.14222
 Co275 Co 0.93353 0.44934 0.03134
 Co276 Co 1.02211 0.49380 0.03058
 O277 O 0.99911 0.49905 0.00122
 C278 C 1.04292 0.49266 -0.10458
 C279 C 0.95702 0.44967 0.10487
 C280 C 0.95703 0.44971 -0.10415
 C281 C 1.04290 0.49260 0.10461
 O282 O 0.49084 0.46646 -0.12501
 O283 O 0.46654 0.49090 0.12553
 O284 O 0.50424 0.45333 0.05993
 O285 O 0.45310 0.50425 -0.05960
 O286 O 0.49083 0.46645 0.12559
 O287 O 0.46650 0.49103 -0.12500
 O288 O 0.45318 0.50431 0.05956
 O289 O 0.50414 0.45322 -0.05959
 C290 C 0.49263 0.44972 -0.10466
 C291 C 0.44978 0.49268 0.10459
 C292 C 0.49258 0.44967 0.10449
 C293 C 0.44971 0.49262 -0.10458
 O294 O 0.50819 0.53288 -0.12490
 O295 O 0.53277 0.50842 0.12572
 O296 O 0.54603 0.49512 -0.05946
 O297 O 0.49493 0.54615 0.06037
 O298 O 0.50820 0.53291 0.12575
 O299 O 0.53276 0.50843 -0.12500
 O300 O 0.49497 0.54618 -0.05954
 O301 O 0.54598 0.49507 0.06039
 Co302 Co 0.44926 0.46500 -0.07062
 Co303 Co 0.44931 0.46514 0.14684
 Co304 Co 0.47163 0.44279 0.03832
 Co305 Co 0.42754 0.48747 0.03788
 O306 O 0.49846 0.49908 0.00152
 C307 C 0.50735 0.55029 -0.10419
 C308 C 0.55029 0.50741 0.10447
 C309 C 0.55028 0.50739 -0.10441
 C310 C 0.50742 0.55031 0.10447
 O311 O 0.53295 0.02418 -0.12518
 O312 O 0.50841 -0.02495 0.12576
 O313 O 0.54593 0.05039 0.06025
 O314 O 0.49504 -0.05152 -0.05961
 O315 O 0.53286 0.02394 0.12582
 O316 O 0.50854 -0.02478 -0.12512
 O317 O 0.49508 -0.05144 0.06020
 O318 O 0.54595 0.05041 -0.05943
 C319 C 0.55012 0.04288 -0.10377
 C320 C 0.50743 -0.04293 0.10448
 C321 C 0.55029 0.04288 0.10455
 C322 C 0.50734 -0.04301 -0.10422
 O323 O 0.46668 -0.02450 -0.12518
 O324 O 0.49080 0.02390 0.12587
 O325 O 0.50402 0.05044 -0.05941
 O326 O 0.45324 -0.05144 0.06044
 O327 O 0.46651 -0.02509 0.12582
 O328 O 0.49087 0.02413 -0.12522
 O329 O 0.44261 -0.06155 -0.04380
 O330 O 0.50409 0.05052 0.06015
 Co331 Co 0.46882 -0.03810 -0.09262
 Co332 Co 0.45259 -0.05855 0.15256
 Co333 Co 0.47163 -0.01412 0.03792
 Co334 Co 0.43656 -0.09182 0.03116
 O335 O 0.49868 -0.00155 0.00168
 C336 C 0.44966 -0.04311 -0.10420
 C337 C 0.49251 0.04286 0.10450
 C338 C 0.49246 0.04282 -0.10438
 C339 C 0.44962 -0.04302 0.10420
 C340 C 1.13793 0.51441 0.27394
 C341 C 1.12285 0.48883 0.24720
 C342 C 1.12902 0.46882 0.26220
 C343 C 1.15031 0.47444 0.30405
 C344 C 1.16554 0.49988 0.33105
 C345 C 1.15946 0.52000 0.31624
 O346 O 1.12756 0.53004 0.25111
 C347 C 1.10608 0.51441 0.21023
 C348 C 1.10297 0.48883 0.20743
 C349 C 1.08258 0.46882 0.16931
 C350 C 1.06525 0.47443 0.13389
 C351 C 1.06802 0.49975 0.13642
 C352 C 1.08852 0.52000 0.17438
 H353 H 1.11771 0.44979 0.24213
 H354 H 1.15409 0.45959 0.31268
 H355 H 1.17076 0.53900 0.33631
 H356 H 1.08035 0.44979 0.16740
 H357 H 1.05005 0.45952 0.10551
 H358 H 1.09073 0.53899 0.17626
 C359 C 0.51435 0.63780 0.27434
 C360 C 0.48888 0.62295 0.24689
 C361 C 0.46895 0.62929 0.26135
 C362 C 0.47455 0.65054 0.30336
 C363 C 0.49987 0.66561 0.33115
 C364 C 0.51992 0.65929 0.31679
 O365 O 0.52992 0.62730 0.25194
 C366 C 0.51435 0.60595 0.21063
 C367 C 0.48888 0.60307 0.20712
 C368 C 0.46895 0.58285 0.16845
 C369 C 0.47453 0.56544 0.13310
 C370 C 0.50009 0.56817 0.13650
 C371 C 0.51989 0.58836 0.17496
 H372 H 0.44999 0.61816 0.24075
 H373 H 0.45976 0.65453 0.31171
 H374 H 0.53884 0.67042 0.33738
 H375 H 0.44999 0.58079 0.16602
 H376 H 0.45970 0.55041 0.10439
 H377 H 0.53883 0.59038 0.17733
 C378 C 0.36874 -0.14330 0.24773
 C379 C 0.37197 -0.11869 0.26751
 C380 C 0.35654 -0.11740 0.31891
 C381 C 0.33781 -0.14083 0.35063
 C382 C 0.33440 -0.16552 0.33124
 C383 C 0.34981 -0.16690 0.27988
 O384 O 0.38635 -0.13875 0.19648
 C385 C 0.40059 -0.11146 0.18403
 C386 C 0.39186 -0.09881 0.22773
 C387 C 0.40299 -0.07096 0.22605
 C388 C 0.42280 -0.05572 0.18042
 C389 C 0.42815 -0.06785 0.12975
 C390 C 0.42068 -0.09597 0.13794
 H391 H 0.35904 -0.09901 0.33346
 H392 H 0.32633 -0.13986 0.38888
 H393 H 0.34729 -0.18529 0.26539
 H394 H 0.39640 -0.06164 0.25873
 H395 H 0.43118 -0.03497 0.17920
 H396 H 0.42732 -0.10527 0.10544
 C397 C 0.86828 0.49054 0.28890
 C398 C 0.87233 0.50733 0.23561
 C399 C 0.85754 0.52047 0.22985
 C400 C 0.83864 0.51679 0.27756
 C401 C 0.83441 0.50009 0.33091
 C402 C 0.84915 0.48686 0.33700
 O403 O 0.88539 0.48028 0.28228
 C404 C 0.90013 0.49053 0.22518
 C405 C 0.89222 0.50733 0.19584
 C406 C 0.90398 0.52047 0.13696
 C407 C 0.92373 0.51678 0.10734
 C408 C 0.93193 0.50018 0.13630
 C409 C 0.92009 0.48693 0.19511
 H410 H 0.86064 0.53297 0.19003
 H411 H 0.82762 0.52657 0.27325
 H412 H 0.84604 0.47439 0.37678
 H413 H 0.89801 0.53297 0.11530
 H414 H 0.93251 0.52658 0.06352
 H415 H 0.92739 0.47853 0.21940
 C416 C 0.48542 0.36166 0.27266
 C417 C 0.51130 0.37746 0.24819
 C418 C 0.53154 0.37186 0.26496
 C419 C 0.52586 0.35040 0.30631
 C420 C 0.50012 0.33446 0.33106
 C421 C 0.47977 0.33998 0.31447
 O422 O 0.46960 0.37158 0.24851
 C423 C 0.48526 0.39340 0.20994
 C424 C 0.51131 0.39734 0.20848
 C425 C 0.53154 0.41829 0.17208
 C426 C 0.52518 0.43487 0.13644
 C427 C 0.49984 0.43183 0.13662
 C428 C 0.47885 0.41277 0.17815
 H429 H 0.55080 0.38369 0.24657
 H430 H 0.54090 0.34724 0.31612
 H431 H 0.46055 0.32815 0.33286
 H432 H 0.55077 0.42103 0.17185
 H433 H 0.49525 0.40862 0.13679
 H434 H 0.46049 0.40818 0.17281
 C435 C 0.63381 0.12225 0.28473
 C436 C 0.62605 0.13501 0.23884
 C437 C 0.63794 0.16295 0.23886
 C438 C 0.65764 0.17816 0.28494
 C439 C 0.66557 0.16568 0.33095
 C440 C 0.65375 0.13769 0.33122
 O441 O 0.61897 0.09487 0.27360
 C442 C 0.60196 0.09040 0.22103
 C443 C 0.60616 0.11512 0.19906
 C444 C 0.59149 0.11651 0.14597
 C445 C 0.57253 0.09305 0.11468
 C446 C 0.56818 0.06808 0.13648
 C447 C 0.58282 0.06680 0.18937
 H448 H 0.63208 0.17236 0.20454
 H449 H 0.66650 0.19895 0.28481
 H450 H 0.65961 0.12832 0.36551
 H451 H 0.59471 0.13499 0.12981
 H452 H 0.56163 0.09409 0.07520
 H453 H 0.57958 0.04830 0.20544
 C454 C 0.48657 0.12942 -0.25245
 C455 C 0.51228 0.13118 -0.26314
 C456 C 0.52922 0.14760 -0.30872
 C457 C 0.52391 0.16556 -0.34223
 C458 C 0.50010 0.16562 -0.33120
 C459 C 0.48129 0.14755 -0.28645
 O460 O 0.47189 0.10968 -0.20628
 C461 C 0.48646 0.09737 -0.18722
 C462 C 0.51048 0.10960 -0.22400
 C463 C 0.52910 0.10072 -0.21634
 C464 C 0.55916 0.05026 -0.19440
 C465 C 0.49912 0.06767 -0.13587
 C466 C 0.48127 0.07655 -0.14505
 H467 H 0.54697 0.14760 -0.31698
 H468 H 0.53785 0.17900 -0.37560
 H469 H 0.46352 0.14756 -0.27819
 H470 H 0.49779 0.10262 -0.26061
 H471 H 0.46676 0.06855 -0.23122
 H472 H 0.46353 0.06753 -0.11816
 C473 C 0.63744 0.51418 -0.27543
 C474 C 0.62323 0.48901 -0.24605
 C475 C 0.63008 0.46933 -0.25898
 C476 C 0.65119 0.47486 -0.30141
 C477 C 0.66555 0.49988 -0.33104
 C478 C 0.65878 0.51967 -0.31831
 O479 O 0.62654 0.52955 -0.25422
 C480 C 0.60559 0.51417 -0.21173
 C481 C 0.60335 0.48901 -0.20627
 C482 C 0.58364 0.46933 -0.16609
 C483 C 0.56608 0.47484 -0.13118
 C484 C 0.56817 0.50010 -0.13650
 C485 C 0.58786 0.51964 -0.17648
 H486 H 0.61942 0.45061 -0.23694
 H487 H 0.65571 0.46027 -0.30890
 H488 H 0.66944 0.53836 -0.34035
 H489 H 0.58206 0.45061 -0.16221
 H490 H 0.55143 0.46020 -0.10132
 H491 H 0.58940 0.53835 -0.18029
 C492 C 0.86114 0.37590 -0.27093
 C493 C 0.87786 0.36642 -0.24953
 C494 C 0.87299 0.34105 -0.26871
 C495 C 0.85134 0.32516 -0.30940
 C496 C 0.83440 0.33427 -0.33118
 C497 C 0.83925 0.35974 -0.31207
 O498 O 0.87050 0.40127 -0.24484
 C499 C 0.89299 0.40775 -0.20722
 C500 C 0.89775 0.38631 -0.20976
 C501 C 0.91943 0.38749 -0.17582
 C502 C 0.93640 0.41021 -0.13923
 C503 C 0.93199 0.43173 -0.13645
 C504 C 0.91019 0.43068 -0.17020
 H505 H 0.88552 0.33408 -0.25262
 H506 H 0.84892 0.30748 -0.32105
 H507 H 0.82672 0.36667 -0.32817
 H508 H 0.92289 0.37145 -0.17789
 H509 H 0.95256 0.41108 -0.11396
 H510 H 0.90673 0.44664 -0.16803
 C511 C 0.48982 -0.14341 -0.24358
 C512 C 0.50789 -0.11861 -0.27072
 C513 C 0.52203 -0.11718 -0.32788
 C514 C 0.51806 -0.14064 -0.35799
 C515 C 0.50007 -0.16552 -0.33126
 C516 C 0.48587 -0.16704 -0.27412
 O517 O 0.47878 -0.13897 -0.18784
 C518 C 0.48982 -0.11156 -0.17988
 C519 C 0.50789 -0.09872 -0.23095
 C520 C 0.52203 -0.07073 -0.23499
 C521 C 0.51806 -0.05554 -0.18779
 C522 C 0.50021 -0.06796 -0.13676
 C523 C 0.48587 -0.09612 -0.13222
 H524 H 0.53547 -0.09864 -0.34790
 H525 H 0.52859 -0.13957 -0.40052
 H526 H 0.47245 -0.18558 -0.25418
 H527 H 0.53547 -0.06127 -0.27316
 H528 H 0.52862 -0.03467 -0.19085
 H529 H 0.47246 -0.10554 -0.09411
 C530 C 0.37773 0.51174 -0.28429
 C531 C 0.36501 0.49090 -0.23918
 C532 C 0.33710 0.47460 -0.23981
 C533 C 0.32188 0.47917 -0.28572
 C534 C 0.33432 0.49989 -0.33095
 C535 C 0.36228 0.51630 -0.33061
 O536 O 0.40508 0.52447 -0.27268
 C537 C 0.40958 0.51174 -0.22058
 C538 C 0.38489 0.49090 -0.19941
 C539 C 0.38354 0.47460 -0.14692
 C540 C 0.40697 0.47918 -0.11552
 C541 C 0.43173 0.49979 -0.13632
 C542 C 0.43321 0.51629 -0.18875
 H543 H 0.32771 0.45909 -0.20607
 H544 H 0.30111 0.46705 -0.28602
 H545 H 0.37162 0.53177 -0.36432
 H546 H 0.36508 0.45909 -0.13134
 H547 H 0.40596 0.46702 -0.07644
 H548 H 0.45165 0.53176 -0.20426
 C549 C 1.13470 0.62237 -0.28270
 C550 C 1.12536 0.63491 -0.24041
 C551 C 1.13600 0.66268 -0.24326
 C552 C 1.15606 0.67793 -0.28854
 C553 C 1.16557 0.66568 -0.33097
 C554 C 1.15498 0.63787 -0.32840
 O555 O 1.12083 0.59513 -0.26937
 C556 C 1.10286 0.59052 -0.21898
 C557 C 1.10547 0.61503 -0.20064
 C558 C 1.08956 0.61624 -0.15036
 C559 C 1.07098 0.59285 -0.11834
 C560 C 1.06805 0.56827 -0.13632
 C561 C 1.08395 0.56701 -0.18676
 H562 H 1.12896 0.67193 -0.21162
 H563 H 1.16397 0.69857 -0.29034
 H564 H 1.16203 0.62866 -0.36001
 H565 H 1.09160 0.63456 -0.13689
 H566 H 1.05912 0.59375 -0.08091
 H567 H 1.07155 0.56013 -0.22824
 C568 C 0.86828 0.49054 -0.28889
 C569 C 0.87233 0.50733 -0.23561
 C570 C 0.85754 0.52047 -0.22985
 C571 C 0.83865 0.51680 -0.27757
 C572 C 0.83435 0.50010 -0.33101
 C573 C 0.84914 0.48685 -0.33700
 O574 O 0.88539 0.48028 -0.28228
 C575 C 0.90013 0.49053 -0.22519
 C576 C 0.89222 0.50733 -0.19584
 C577 C 0.90398 0.52047 -0.13696
 C578 C 0.92373 0.51678 -0.10734
 C579 C 0.93193 0.50019 -0.13630
 C580 C 0.92011 0.48690 -0.19516
 H581 H 0.86064 0.53297 -0.19003
 H582 H 0.82762 0.52657 -0.27325
 H583 H 0.84604 0.47439 -0.37678
 H584 H 0.89801 0.53297 -0.11530
 H585 H 0.93251 0.52658 -0.06352
 H586 H 0.92611 0.47444 -0.21678
 C587 C 0.51018 0.37779 -0.28765
 C588 C 0.49211 0.36496 -0.23658
 C589 C 0.47797 0.33696 -0.23255
 C590 C 0.48194 0.32177 -0.27977
 C591 C 0.49990 0.33432 -0.33092
 C592 C 0.51414 0.36236 -0.33527
 O593 O 0.52122 0.40521 -0.27968
 C594 C 0.51018 0.40964 -0.22394
 C595 C 0.49211 0.38485 -0.19680
 C596 C 0.47797 0.38341 -0.13965
 C597 C 0.48194 0.40686 -0.10955
 C598 C 0.49981 0.43174 -0.13631
 C599 C 0.51412 0.43329 -0.19341
 H600 H 0.46453 0.32750 -0.19437
 H601 H 0.47141 0.30092 -0.27672
 H602 H 0.52755 0.37178 -0.37341
 H603 H 0.46453 0.36487 -0.11964
 H604 H 0.47140 0.40579 -0.06701
 H605 H 0.52754 0.45181 -0.21335
 C606 C 0.64267 0.12881 -0.25445
 C607 C 0.61981 0.13152 -0.27243
 C608 C 0.61890 0.14897 -0.30528
 C609 C 0.64205 0.16664 -0.33927
 C610 C 0.66552 0.16562 -0.33120
 C611 C 0.66595 0.14671 -0.28875
 O612 O 0.63735 0.10836 -0.20978
 C613 C 0.61052 0.09449 -0.19007
 C614 C 0.59940 0.11007 -0.22290
 C615 C 0.57273 0.10237 -0.21177
 C616 C 0.53111 0.07325 -0.15247
 C617 C 0.56741 0.07028 -0.13051
 C618 C 0.59512 0.07590 -0.14643
 H619 H 0.60142 0.14971 -0.31115
 H620 H 0.64177 0.18068 -0.37091
 H621 H 0.68341 0.14592 -0.28271
 H622 H 0.61094 0.11897 -0.21026
 H623 H 0.60006 0.11870 -0.09723
 H624 H 0.60337 0.06588 -0.12264
 C625 C 1.13793 0.51441 -0.27394
 C626 C 1.12285 0.48883 -0.24720
 C627 C 1.12902 0.46882 -0.26220
 C628 C 1.15031 0.47444 -0.30405
 C629 C 1.16554 0.49988 -0.33105
 C630 C 1.15946 0.52000 -0.31624
 O631 O 1.12756 0.53004 -0.25112
 C632 C 1.10608 0.51442 -0.21024
 C633 C 1.10297 0.48883 -0.20743
 C634 C 1.08258 0.46882 -0.16931
 C635 C 1.06525 0.47444 -0.13388
 C636 C 1.06802 0.49975 -0.13643
 C637 C 1.08854 0.51999 -0.17427
 H638 H 1.11771 0.44979 -0.24213
 H639 H 1.15410 0.45959 -0.31273
 H640 H 1.17076 0.53900 -0.33631
 H641 H 1.08035 0.44979 -0.16740
 H642 H 1.05005 0.45952 -0.10551
 H643 H 1.10122 0.52741 -0.14787
 C644 C 0.49204 0.63518 -0.24019
 C645 C 0.50617 0.62499 -0.27335
 C646 C 0.51723 0.63497 -0.33522
 C647 C 0.51413 0.65524 -0.36400
 C648 C 0.50005 0.66564 -0.33138
 C649 C 0.48894 0.65563 -0.26943
 O650 O 0.48340 0.62183 -0.18077
 C651 C 0.49203 0.60333 -0.17649
 C652 C 0.50617 0.60510 -0.23358
 C653 C 0.51723 0.58852 -0.24233
 C654 C 0.51412 0.57013 -0.19381
 C655 C 0.50019 0.56816 -0.13678
 C656 C 0.48895 0.58471 -0.12751
 H657 H 0.52775 0.62729 -0.35972
 H658 H 0.52236 0.66266 -0.41004
 H659 H 0.47845 0.66332 -0.24500
 H660 H 0.52774 0.58993 -0.28499
 H661 H 0.52238 0.55780 -0.20039
 H662 H 0.47846 0.58329 -0.08494
 C663 C 0.37579 -0.13902 -0.27038
 C664 C 0.36651 -0.12201 -0.24996
 C665 C 0.34130 -0.12666 -0.26991
 C666 C 0.32536 -0.14838 -0.31038
 C667 C 0.33427 -0.16560 -0.33118
 C668 C 0.35958 -0.16098 -0.31130
 O669 O 0.40103 -0.12983 -0.24369
 C670 C 0.40764 -0.10717 -0.20667
 C671 C 0.38640 -0.10212 -0.21019
 C672 C 0.38774 -0.08022 -0.17702
 C673 C 0.41041 -0.06332 -0.14021
 C674 C 0.43173 -0.06802 -0.13648
 C675 C 0.43053 -0.09003 -0.16944
 H676 H 0.33448 -0.11392 -0.25454
 H677 H 0.30784 -0.15058 -0.32269
 H678 H 0.36636 -0.17371 -0.32668
 H679 H 0.37185 -0.07655 -0.17981
 H680 H 0.41140 -0.04699 -0.11551
 H681 H 0.44639 -0.09368 -0.16662
 C682 C 0.50416 -0.12352 0.29444
 C683 C 0.49678 -0.13402 0.23131
 C684 C 0.49101 -0.16019 0.21784
 C685 C 0.49263 -0.17591 0.26773
 C686 C 0.49996 -0.16567 0.33084
 C687 C 0.50577 -0.13946 0.34472
 O688 O 0.50866 -0.09753 0.29385
 C689 C 0.50415 -0.09167 0.23074
 C690 C 0.49678 -0.11413 0.19154
 C691 C 0.49101 -0.11375 0.12496
 C692 C 0.49262 -0.09081 0.09748
 C693 C 0.50010 -0.06809 0.13640
 C694 C 0.50576 -0.06856 0.20283
 H695 H 0.48552 -0.16792 0.17070
 H696 H 0.48833 -0.19540 0.25770
 H697 H 0.51124 -0.13178 0.39180
 H698 H 0.48552 -0.13055 0.09597
 H699 H 0.48833 -0.09052 0.04793
 H700 H 0.51125 -0.05174 0.23172
 C701 C 0.37773 0.51174 0.28429
 C702 C 0.36501 0.49090 0.23918
 C703 C 0.33710 0.47460 0.23981
 C704 C 0.32188 0.47917 0.28572
 C705 C 0.33432 0.49989 0.33095
 C706 C 0.36228 0.51630 0.33061
 O707 O 0.40508 0.52447 0.27268
 C708 C 0.40958 0.51174 0.22058
 C709 C 0.38489 0.49090 0.19941
 C710 C 0.38354 0.47460 0.14693
 C711 C 0.40693 0.47916 0.11567
 C712 C 0.43173 0.49978 0.13635
 C713 C 0.43321 0.51628 0.18876
 H714 H 0.32771 0.45909 0.20607
 H715 H 0.30111 0.46705 0.28601
 H716 H 0.37162 0.53177 0.36432
 H717 H 0.36508 0.45909 0.13134
 H718 H 0.40575 0.46682 0.07683
 H719 H 0.45164 0.53175 0.20428
 C720 C 1.12731 0.62374 0.29475
 C721 C 1.13109 0.63385 0.23107
 C722 C 1.15200 0.65973 0.21717
 C723 C 1.16919 0.67553 0.26718
 C724 C 1.16563 0.66567 0.33083
 C725 C 1.14472 0.63976 0.34515
 O726 O 1.10542 0.59797 0.29449
 C727 C 1.09546 0.59188 0.23105
 C728 C 1.11120 0.61397 0.19130
 C729 C 1.10556 0.61329 0.12428
 C730 C 1.08409 0.59042 0.09694
 C731 C 1.06808 0.56823 0.13632
 C732 C 1.07380 0.56884 0.20326
 H733 H 1.15472 0.66717 0.16962
 H734 H 1.18477 0.69480 0.25683
 H735 H 1.14202 0.63235 0.39263
 H736 H 1.11736 0.62981 0.09488
 H737 H 1.07988 0.58992 0.04706
 H738 H 1.06199 0.55232 0.23256
 C739 C 0.49204 0.13518 0.24019
 C740 C 0.50617 0.12499 0.27335
 C741 C 0.51723 0.13497 0.33522
 C742 C 0.51413 0.15524 0.36401
 C743 C 0.50005 0.16558 0.33127
 C744 C 0.48895 0.15563 0.26942
 O745 O 0.48340 0.12183 0.18077
 C746 C 0.49204 0.10333 0.17648
 C747 C 0.50617 0.10510 0.23358
 C748 C 0.51723 0.08853 0.24233
 C749 C 0.51414 0.07012 0.19375
 C750 C 0.49994 0.06804 0.13668
 C751 C 0.48896 0.08471 0.12757
 H752 H 0.52775 0.12729 0.35972
 H753 H 0.52236 0.16266 0.41004
 H754 H 0.47845 0.16332 0.24500
 H755 H 0.52775 0.08993 0.28499
 H756 H 0.52236 0.05777 0.20028
 H757 H 0.47845 0.08328 0.08495
 C758 C 0.63744 0.51418 0.27543
 C759 C 0.62323 0.48901 0.24605
 C760 C 0.63008 0.46933 0.25898
 C761 C 0.65119 0.47486 0.30141
 C762 C 0.66555 0.49988 0.33104
 C763 C 0.65878 0.51967 0.31831
 O764 O 0.62654 0.52955 0.25422
 C765 C 0.60559 0.51418 0.21173
 C766 C 0.60335 0.48901 0.20628
 C767 C 0.58365 0.46934 0.16610
 C768 C 0.56711 0.47577 0.13102
 C769 C 0.56818 0.50011 0.13652
 C770 C 0.58786 0.51965 0.17648
 H771 H 0.61942 0.45061 0.23694
 H772 H 0.65572 0.46027 0.30893
 H773 H 0.66944 0.53836 0.34035
 H774 H 0.58209 0.45064 0.16219
 H775 H 0.59799 0.50064 0.06668
 H776 H 0.58940 0.53835 0.18029
 C777 C 0.86564 0.37769 0.28351
 C778 C 0.87437 0.36504 0.23979
 C779 C 0.86325 0.33719 0.24151
 C780 C 0.84333 0.32196 0.28711
 C781 C 0.83443 0.33432 0.33096
 C782 C 0.84550 0.36221 0.32952
 O783 O 0.87989 0.40499 0.27104
 C784 C 0.89749 0.40953 0.21979
 C785 C 0.89426 0.38493 0.20002
 C786 C 0.90969 0.38363 0.14862
 C787 C 0.92840 0.40705 0.11691
 C788 C 0.93194 0.43173 0.13636
 C789 C 0.91643 0.43309 0.18762
 H790 H 0.86983 0.32787 0.20881
 H791 H 0.83505 0.30125 0.28816
 H792 H 0.83891 0.37150 0.36219
 H793 H 0.90720 0.36524 0.13408
 H794 H 0.93991 0.40609 0.07865
 H795 H 0.91766 0.44740 0.19953
   
