data_POSCAR
  _audit_creation_date              2014-09-24
  _audit_creation_method            'ToBaCCo'
  _symmetry_space_group_name_H-M    'P1'
  _symmetry_Int_Tables_number       1
  _symmetry_cell_setting            triclinic
  loop_
  _symmetry_equiv_pos_as_xyz
 x,y,z
_cell_length_a 27.1043
_cell_length_b 27.4465
_cell_length_c 27.1258
_cell_angle_alpha 90.179400
_cell_angle_beta 89.975400
_cell_angle_gamma 90.147000
loop_
  _atom_site_label
  _atom_site_type_symbol
  _atom_site_fract_x
  _atom_site_fract_y
  _atom_site_fract_z
C1 C 0.50729 0.99830 -0.62920
 C2 C 0.46102 1.00129 -0.60562
 C3 C 0.45984 0.99655 -0.55389
 C4 C 0.50239 0.98405 -0.52682
 C5 C 0.54738 0.97880 -0.55234
 C6 C 0.55088 0.98707 -0.60337
 C7 C 0.49964 0.97483 -0.47233
 C8 C 0.54190 0.98011 -0.44221
 C9 C 0.54004 0.96953 -0.39166
 C10 C 0.49486 0.95691 -0.37032
 C11 C 0.45219 0.95251 -0.39884
 C12 C 0.45493 0.96021 -0.44982
 H13 H 0.50985 1.00825 -0.66761
 H14 H 0.42531 1.00046 -0.53472
 H15 H 0.57943 0.96560 -0.53298
 H16 H 0.57660 0.99206 -0.45767
 H17 H 0.49259 0.95196 -0.33076
 H18 H 0.42198 0.95401 -0.47135
 C19 C -0.62834 1.51091 0.01227
 C20 C -0.60599 1.46465 0.00982
 C21 C -0.55404 1.46277 0.00491
 C22 C -0.52486 1.50557 0.00798
 C23 C -0.54918 1.55051 0.01551
 C24 C -0.60086 1.55429 0.01546
 C25 C -0.46920 1.50423 0.00481
 C26 C -0.44244 1.54710 -0.00688
 C27 C -0.39083 1.54861 -0.00441
 C28 C -0.36509 1.50555 0.00486
 C29 C -0.39000 1.46181 0.01432
 C30 C -0.44196 1.46139 0.01503
 H31 H -0.66787 1.51311 0.00794
 H32 H -0.53631 1.42794 0.00056
 H33 H -0.52798 1.58279 0.02373
 H34 H -0.46129 1.58026 -0.01669
 H35 H -0.32511 1.50608 0.00441
 H36 H -0.46033 1.42792 0.02512
 C37 C -0.01455 0.37478 0.50013
 C38 C -0.02067 0.39763 0.45404
 C39 C -0.02507 0.44895 0.45351
 C40 C -0.01820 0.47719 0.49667
 C41 C -0.00880 0.45269 0.54127
 C42 C -0.00885 0.40181 0.54365
 C43 C -0.01944 0.53197 0.49532
 C44 C -0.02922 0.55911 0.53850
 C45 C -0.02669 0.61047 0.53940
 C46 C -0.01959 0.63467 0.49406
 C47 C -0.01219 0.60864 0.45003
 C48 C -0.01023 0.55767 0.45139
 H49 H -0.01625 0.33550 0.50288
 H50 H -0.03175 0.46716 0.41912
 H51 H -0.00048 0.47277 0.57458
 H52 H -0.04066 0.54022 0.57140
 H53 H -0.01812 0.67394 0.49250
 H54 H -0.00050 0.53866 0.41788
 O55 O -0.12549 1.00909 -0.06680
 O56 O 0.12722 0.99973 -0.07505
 O57 O 0.00067 1.07215 -0.12893
 O58 O -0.00176 0.94159 -0.13094
 O59 O -0.00113 0.88032 -0.07304
 O60 O 0.00287 1.13189 -0.06900
 O61 O 0.06489 1.00301 -0.13266
 O62 O -0.06683 1.01094 -0.12826
 Zr63 Zr 0.00038 1.00633 -0.08974
 O64 O 0.04555 0.96038 -0.05061
 O65 O -0.04234 1.05093 -0.04639
 C66 C -0.11202 1.01134 -0.11265
 C67 C 0.11081 0.99944 -0.12002
 C68 C 0.00215 1.11724 -0.11465
 C69 C -0.00246 0.89610 -0.11828
 H70 H 0.06834 1.06920 -0.07025
 O71 O 0.04712 1.04905 -0.04874
 H72 H -0.06608 0.94208 -0.06802
 O73 O -0.04368 0.96209 -0.04748
 O74 O 0.13172 1.00408 0.05820
 O75 O -0.12131 1.00251 0.06582
 O76 O 0.07274 1.12914 -0.00159
 O77 O 0.06706 0.87881 -0.00903
 O78 O -0.06556 0.88092 0.00015
 O79 O -0.06221 1.13155 -0.00121
 O80 O 0.00954 1.06954 0.12357
 O81 O 0.00599 0.93856 0.12188
 O82 O 0.00788 1.13033 0.06507
 O83 O 0.00227 0.87887 0.06190
 O84 O 0.13153 1.06858 -0.00622
 O85 O -0.12286 1.07238 -0.00086
 O86 O -0.12525 0.94072 0.00032
 O87 O 0.12895 0.93652 -0.00923
 O88 O 0.07418 1.00532 0.12080
 O89 O -0.06028 1.00107 0.12496
 Zr90 Zr 0.08978 1.00344 -0.00683
 Zr91 Zr -0.08351 1.00621 -0.00143
 Zr92 Zr 0.00451 1.09140 -0.00244
 Zr93 Zr 0.00147 0.91915 -0.00498
 Zr94 Zr 0.00575 1.00440 0.08273
 O95 O -0.04086 0.96115 0.04150
 O96 O 0.05001 1.04820 0.03983
 C97 C 0.11927 1.00497 0.10434
 C98 C -0.10617 0.99930 0.11098
 C99 C 0.11815 1.11394 -0.00337
 C100 C 0.11311 0.89172 -0.00980
 C101 C -0.11094 0.89559 0.00212
 C102 C -0.10807 1.11740 -0.00105
 C103 C 0.01012 1.11487 0.11026
 C104 C 0.00472 0.89346 0.10756
 H105 H -0.05988 1.06968 0.06486
 O106 O -0.03951 1.04934 0.04266
 H107 H 0.06957 0.93903 0.05860
 O108 O 0.04803 0.96008 0.03849
 C109 C 0.37335 1.02722 0.38654
 C110 C 0.32997 1.03044 0.35860
 C111 C 0.32888 1.01383 0.30985
 C112 C 0.37192 0.99417 0.28916
 C113 C 0.41506 0.99077 0.31675
 C114 C 0.41700 1.00711 0.36621
 N115 N 0.28409 1.01667 0.28177
 N116 N 0.28367 1.00317 0.23686
 C117 C 0.24120 1.00411 0.20567
 C118 C 0.24761 0.99102 0.15637
 C119 C 0.20792 0.99125 0.12391
 C120 C 0.16048 1.00441 0.14020
 C121 C 0.15376 1.01706 0.19010
 C122 C 0.19402 1.01713 0.22271
 H123 H 0.37249 1.04206 0.42347
 H124 H 0.29717 1.04610 0.37496
 H125 H 0.37216 0.98050 0.25168
 H126 H 0.44603 0.97283 0.29938
 H127 H 0.28378 0.98069 0.14299
 H128 H 0.21453 0.98079 0.08595
 H129 H 0.11770 1.02739 0.20371
 H130 H 0.18833 1.02720 0.26090
 C131 C -0.35802 0.99505 0.39564
 C132 C -0.31332 0.99530 0.36961
 C133 C -0.31232 0.98407 0.31932
 C134 C -0.35656 0.97139 0.29553
 C135 C -0.40111 0.97148 0.32113
 C136 C -0.40310 0.98420 0.37156
 N137 N -0.26685 0.98729 0.29231
 N138 N -0.26611 0.97663 0.24665
 C139 C -0.22377 0.98038 0.21548
 C140 C -0.22977 0.96766 0.16607
 C141 C -0.19122 0.97339 0.13282
 C142 C -0.14537 0.99206 0.14829
 C143 C -0.13863 1.00358 0.19845
 C144 C -0.17784 0.99803 0.23197
 H145 H -0.35716 1.00606 0.43397
 H146 H -0.27955 1.00527 0.38847
 H147 H -0.35696 0.96182 0.25679
 H148 H -0.43376 0.96024 0.30114
 H149 H -0.26495 0.95392 0.15308
 H150 H -0.19756 0.96324 0.09471
 H151 H -0.10366 1.01783 0.21141
 H152 H -0.17256 1.00809 0.27022
 C153 C -0.40825 0.93543 -0.32402
 C154 C -0.36872 0.93849 -0.29143
 C155 C -0.33492 0.97674 -0.29488
 C156 C -0.34035 1.01179 -0.33215
 C157 C -0.38039 1.00909 -0.36465
 C158 C -0.41519 0.97123 -0.36032
 N159 N -0.29680 0.97984 -0.25872
 N160 N -0.26075 1.00938 -0.26175
 C161 C -0.22452 1.01164 -0.22349
 C162 C -0.17867 1.03309 -0.23307
 C163 C -0.14198 1.03339 -0.19688
 C164 C -0.15120 1.01313 -0.15020
 C165 C -0.19780 0.99307 -0.14020
 C166 C -0.23404 0.99197 -0.17664
 H167 H -0.43381 0.90525 -0.32044
 H168 H -0.36463 0.91119 -0.26298
 H169 H -0.31457 1.04181 -0.33525
 H170 H -0.38499 1.03737 -0.39198
 H171 H -0.17103 1.04856 -0.26896
 H172 H -0.10642 1.04942 -0.20538
 H173 H -0.20583 0.97706 -0.10462
 H174 H -0.26943 0.97561 -0.16824
 C175 C 0.40168 0.90913 -0.33549
 C176 C 0.36054 0.90785 -0.30463
 C177 C 0.32165 0.94039 -0.31172
 C178 C 0.32260 0.97208 -0.35233
 C179 C 0.36382 0.97343 -0.38330
 C180 C 0.40454 0.94329 -0.37389
 N181 N 0.28460 0.94398 -0.27439
 N182 N 0.24834 0.97310 -0.27762
 C183 C 0.21407 0.97889 -0.23794
 C184 C 0.16989 1.00370 -0.24630
 C185 C 0.13630 1.01072 -0.20787
 C186 C 0.14704 0.99385 -0.16017
 C187 C 0.19181 0.96966 -0.15168
 C188 C 0.22493 0.96193 -0.19032
 H189 H 0.43238 0.88512 -0.32786
 H190 H 0.36007 0.88315 -0.27356
 H191 H 0.29283 0.99754 -0.35855
 H192 H 0.36527 1.00028 -0.41244
 H193 H 0.16137 1.01733 -0.28273
 H194 H 0.10209 1.02959 -0.21538
 H195 H 0.20080 0.95590 -0.11540
 H196 H 0.25917 0.94313 -0.18287
 C197 C 0.31796 1.42376 0.03728
 C198 C 0.28632 1.38379 0.03812
 C199 C 0.29925 1.34038 0.01493
 C200 C 0.34543 1.33674 -0.00837
 C201 C 0.37760 1.37706 -0.00938
 C202 C 0.36384 1.42201 0.01236
 N203 N 0.26365 1.30171 0.01486
 N204 N 0.27131 1.25936 -0.00272
 C205 C 0.23287 1.22319 -0.00233
 C206 C 0.24357 1.17524 -0.01633
 C207 C 0.20651 1.13954 -0.01630
 C208 C 0.15778 1.15140 -0.00279
 C209 C 0.14720 1.19966 0.01105
 C210 C 0.18430 1.23510 0.01147
 H211 H 0.30637 1.45577 0.05755
 H212 H 0.25119 1.38675 0.05694
 H213 H 0.35615 1.30327 -0.02662
 H214 H 0.41184 1.37329 -0.02947
 H215 H 0.28072 1.16549 -0.02715
 H216 H 0.21593 1.10278 -0.02738
 H217 H 0.11022 1.21009 0.02186
 H218 H 0.17485 1.27190 0.02231
 C219 C 0.39794 0.64332 -0.00051
 C220 C 0.37193 0.68734 -0.00322
 C221 C 0.32258 0.68967 0.01155
 C222 C 0.30033 0.64812 0.03187
 C223 C 0.32612 0.60440 0.03505
 C224 C 0.37499 0.60038 0.01730
 N225 N 0.29476 0.73346 0.00406
 N226 N 0.24786 0.73201 0.00587
 C227 C 0.21631 0.77315 -0.00073
 C228 C 0.16565 0.76449 -0.00291
 C229 C 0.13265 0.80294 -0.00732
 C230 C 0.14959 0.85144 -0.00919
 C231 C 0.20084 0.86021 -0.00786
 C232 C 0.23410 0.82122 -0.00379
 H233 H 0.43496 0.64279 -0.01540
 H234 H 0.38968 0.71916 -0.01879
 H235 H 0.26263 0.64925 0.04502
 H236 H 0.30739 0.57404 0.05222
 H237 H 0.15162 0.72758 -0.00066
 H238 H 0.09363 0.79442 -0.00827
 H239 H 0.21513 0.89706 -0.00916
 H240 H 0.27331 0.82862 -0.00212
 C241 C -0.37636 0.63173 -0.04198
 C242 C -0.35029 0.67594 -0.04356
 C243 C -0.31120 0.68469 -0.01088
 C244 C -0.29886 0.64883 0.02385
 C245 C -0.32479 0.60499 0.02554
 C246 C -0.36358 0.59562 -0.00756
 N247 N -0.28352 0.72925 -0.01400
 N248 N -0.24535 0.73546 0.01261
 C249 C -0.21467 0.77791 0.01132
 C250 C -0.16997 0.77632 0.03681
 C251 C -0.13699 0.81519 0.03442
 C252 C -0.14850 0.85696 0.00705
 C253 C -0.19434 0.85963 -0.01704
 C254 C -0.22719 0.81999 -0.01535
 H255 H -0.40595 0.62554 -0.06808
 H256 H -0.36018 0.70315 -0.07061
 H257 H -0.26909 0.65459 0.04983
 H258 H -0.31478 0.57852 0.05330
 H259 H -0.16012 0.74419 0.05765
 H260 H -0.10215 0.81242 0.05373
 H261 H -0.20390 0.89147 -0.03847
 H262 H -0.26180 0.82196 -0.03512
 C263 C -0.31861 1.41973 0.05410
 C264 C -0.28577 1.38074 0.05670
 C265 C -0.29410 1.33838 0.02920
 C266 C -0.33730 1.33446 0.00065
 C267 C -0.37035 1.37364 -0.00203
 C268 C -0.36049 1.41720 0.02358
 N269 N -0.25666 1.30156 0.02884
 N270 N -0.26134 1.26132 0.00583
 C271 C -0.22238 1.22602 0.00441
 C272 C -0.23224 1.17947 -0.01428
 C273 C -0.19507 1.14426 -0.01619
 C274 C -0.14694 1.15530 -0.00011
 C275 C -0.13686 1.20237 0.01789
 C276 C -0.17431 1.23735 0.02045
 H277 H -0.31042 1.45261 0.07475
 H278 H -0.25283 1.38413 0.07905
 H279 H -0.34458 1.30196 -0.02089
 H280 H -0.40216 1.37085 -0.02602
 H281 H -0.26897 1.17033 -0.02707
 H282 H -0.20397 1.10844 -0.03056
 H283 H -0.10026 1.21191 0.03077
 H284 H -0.16563 1.27324 0.03470
 C285 C -0.04376 1.38609 0.36598
 C286 C -0.04160 1.35866 0.32236
 C287 C -0.01634 1.31435 0.32098
 C288 C 0.00660 1.29751 0.36399
 C289 C 0.00453 1.32457 0.40748
 C290 C -0.02064 1.36962 0.40968
 N291 N -0.01461 1.28664 0.27605
 N292 N 0.00781 1.24599 0.27439
 C293 C 0.01039 1.21581 0.23138
 C294 C 0.03220 1.17000 0.23593
 C295 C 0.03311 1.13785 0.19610
 C296 C 0.01254 1.15117 0.15055
 C297 C -0.00785 1.19796 0.14534
 C298 C -0.00923 1.23007 0.18568
 H299 H -0.06516 1.41924 0.36529
 H300 H -0.05995 1.37188 0.28958
 H301 H 0.02675 1.26350 0.36399
 H302 H 0.02502 1.31070 0.43859
 H303 H 0.04763 1.15877 0.27091
 H304 H 0.04950 1.10226 0.20115
 H305 H -0.02413 1.20906 0.11070
 H306 H -0.02613 1.26549 0.18138
 C307 C -0.02866 1.39370 -0.36609
 C308 C -0.02696 1.36758 -0.32189
 C309 C -0.00058 1.32392 -0.31911
 C310 C 0.02586 1.30766 -0.36063
 C311 C 0.02442 1.33379 -0.40463
 C312 C -0.00368 1.37657 -0.40823
 N313 N -0.00310 1.29527 -0.27505
 N314 N 0.01439 1.25233 -0.27442
 C315 C 0.01201 1.22070 -0.23271
 C316 C 0.02746 1.17269 -0.23915
 C317 C 0.02407 1.13951 -0.20066
 C318 C 0.00554 1.15384 -0.15441
 C319 C -0.00902 1.20254 -0.14741
 C320 C -0.00619 1.23581 -0.18655
 H321 H -0.05092 1.42636 -0.36779
 H322 H -0.04752 1.38053 -0.29024
 H323 H 0.04702 1.27429 -0.35939
 H324 H 0.04489 1.32020 -0.43606
 H325 H 0.04162 1.16076 -0.27452
 H326 H 0.03630 1.10250 -0.20718
 H327 H -0.02332 1.21456 -0.11214
 H328 H -0.01827 1.27297 -0.18087
 C329 C -0.01549 0.61486 -0.37003
 C330 C -0.01395 0.64181 -0.32616
 C331 C -0.02611 0.69118 -0.32592
 C332 C -0.04192 0.71298 -0.36991
 C333 C -0.04377 0.68623 -0.41374
 C334 C -0.02946 0.63674 -0.41520
 N335 N -0.02038 0.71906 -0.28141
 N336 N -0.02493 0.76517 -0.28202
 C337 C -0.01892 0.79589 -0.23974
 C338 C -0.02196 0.84605 -0.24684
 C339 C -0.01602 0.87806 -0.20745
 C340 C -0.00709 0.86061 -0.15949
 C341 C -0.00410 0.80991 -0.15218
 C342 C -0.00981 0.77766 -0.19217
 H343 H -0.00267 0.57763 -0.36840
 H344 H -0.00157 0.62451 -0.29255
 H345 H -0.05256 0.75097 -0.37061
 H346 H -0.05746 0.70472 -0.44606
 H347 H -0.02893 0.86045 -0.28331
 H348 H -0.01895 0.91670 -0.21482
 H349 H 0.00263 0.79528 -0.11578
 H350 H -0.00729 0.73881 -0.18595
 C351 C -0.03098 0.61777 0.35977
 C352 C -0.02879 0.64420 0.31577
 C353 C -0.00254 0.68810 0.31357
 C354 C 0.02297 0.70450 0.35567
 C355 C 0.02097 0.67807 0.39954
 C356 C -0.00673 0.63483 0.40239
 N357 N -0.00403 0.71657 0.26931
 N358 N 0.01515 0.75890 0.26810
 C359 C 0.01368 0.79015 0.22601
 C360 C 0.03189 0.83743 0.23146
 C361 C 0.02913 0.87043 0.19275
 C362 C 0.00836 0.85670 0.14723
 C363 C -0.00876 0.80862 0.14111
 C364 C -0.00649 0.77554 0.18048
 H365 H -0.05293 0.58477 0.36090
 H366 H -0.04867 0.63114 0.28371
 H367 H 0.04393 0.73812 0.35493
 H368 H 0.04089 0.69167 0.43134
 H369 H 0.04763 0.84899 0.26630
 H370 H 0.04340 0.90690 0.19858
 H371 H -0.02473 0.79699 0.10643
 H372 H -0.02070 0.73896 0.17550
   
