data_POSCAR
  _audit_creation_date              2014-09-24
  _audit_creation_method            'ToBaCCo'
  _symmetry_space_group_name_H-M    'P1'
  _symmetry_Int_Tables_number       1
  _symmetry_cell_setting            triclinic
  loop_
  _symmetry_equiv_pos_as_xyz
 x,y,z
_cell_length_a 27.7044
_cell_length_b 27.7111
_cell_length_c 45.4266
_cell_angle_alpha 89.883800
_cell_angle_beta 90.742600
_cell_angle_gamma 90.051300
loop_
  _atom_site_label
  _atom_site_type_symbol
  _atom_site_fract_x
  _atom_site_fract_y
  _atom_site_fract_z
O1 O -0.04028 0.45293 1.02747
 O2 O -0.03934 0.54730 0.97020
 O3 O -0.03978 0.45315 0.97026
 O4 O -0.04072 0.54705 1.02744
 O5 O 0.03911 0.54720 1.02858
 O6 O 0.04005 0.45313 0.97136
 O7 O 0.04048 0.54729 0.97134
 O8 O 0.03955 0.45308 1.02857
 Cu9 Cu -0.04809 0.50012 0.99872
 Cu10 Cu 0.04785 0.50020 1.00007
 C11 C -0.00049 0.43692 1.03757
 C12 C 0.00077 0.56336 0.96119
 C13 C 0.00026 0.43709 0.96127
 C14 C -0.00100 0.56311 1.03759
 O15 O 0.54886 -0.03719 0.52915
 O16 O 0.45268 -0.03718 0.47235
 O17 O 0.54681 -0.03763 0.47191
 O18 O 0.45470 -0.03763 0.52958
 O19 O 0.45469 0.04218 0.52951
 O20 O 0.54697 0.04218 0.47179
 O21 O 0.45283 0.04263 0.47227
 O22 O 0.54886 0.04261 0.52904
 Cu23 Cu 0.50076 -0.04546 0.50076
 Cu24 Cu 0.50085 0.05045 0.50065
 C25 C 0.56525 0.00274 0.53858
 C26 C 0.43639 0.00275 0.46281
 C27 C 0.56260 0.00224 0.46221
 C28 C 0.43897 0.00224 0.53918
 C29 C 0.09433 0.00389 0.26259
 H30 H 0.09715 0.00430 0.23886
 C31 C 0.13606 0.00527 0.28018
 H32 H 0.17120 0.00659 0.27003
 C33 C 0.04516 0.00194 0.30494
 H34 H 0.00975 0.00133 0.31456
 C35 C 0.08592 0.00332 0.32331
 H36 H 0.08174 0.00323 0.34699
 N37 N 0.05004 0.00145 0.27516
 C38 C -0.04375 -0.06670 0.20936
 H39 H -0.07314 -0.04102 0.20858
 C40 C -0.04523 -0.10760 0.19146
 H41 H -0.07577 -0.11348 0.17677
 C42 C 0.03217 -0.09039 0.22931
 H43 H 0.06205 -0.08387 0.24426
 C44 C 0.03210 -0.13177 0.21179
 H45 H 0.06218 -0.15669 0.21309
 Zn46 Zn -0.00502 -0.00098 0.24999
 N47 N -0.00500 -0.05838 0.22737
 C48 C -0.00263 0.04861 0.19520
 N49 N -0.00291 0.05381 0.22499
 C50 C -0.00043 0.09823 0.23768
 C51 C 0.00083 0.13976 0.22020
 C52 C -0.00137 0.08916 0.17694
 C53 C -0.07024 -0.03948 0.29028
 C54 C -0.11095 -0.04090 0.30808
 C55 C -0.13549 0.03623 0.28800
 C56 C -0.09430 0.03624 0.27058
 N57 N -0.06219 -0.00086 0.27244
 H58 H -0.00326 0.01310 0.18548
 H59 H 0.00014 0.10131 0.26142
 H60 H 0.00223 0.17500 0.23045
 H61 H -0.00158 0.08471 0.15325
 H62 H -0.04451 -0.06881 0.29101
 H63 H -0.11661 -0.07133 0.32264
 H64 H -0.16047 0.06624 0.28677
 H65 H -0.08799 0.06602 0.25576
 C66 C -0.00674 -0.14019 0.19252
 C67 C 0.13175 0.00468 0.31082
 C68 C -0.14362 -0.00248 0.30710
 C69 C 0.00007 0.13511 0.18955
 C70 C 0.00027 0.09814 0.76218
 H71 H -0.00027 0.10120 0.73843
 C72 C -0.00100 0.13968 0.77954
 H73 H -0.00236 0.17492 0.76919
 C74 C 0.00237 0.04855 0.80479
 H75 H 0.00298 0.01305 0.81461
 C76 C 0.00111 0.08911 0.82294
 H77 H 0.00129 0.08468 0.84665
 N78 N 0.00270 0.05373 0.77499
 C79 C 0.07015 -0.03941 0.70996
 H80 H 0.04436 -0.06874 0.70923
 C81 C 0.11099 -0.04082 0.69228
 H82 H 0.11668 -0.07123 0.67779
 C83 C 0.09424 0.03624 0.72961
 H84 H 0.08790 0.06598 0.74436
 C85 C 0.13556 0.03625 0.71230
 H86 H 0.16060 0.06625 0.71355
 Zn87 Zn 0.00483 -0.00104 0.75011
 N88 N 0.06207 -0.00084 0.72772
 C89 C -0.04527 0.00185 0.69512
 N90 N -0.05018 0.00136 0.72490
 C91 C -0.09448 0.00377 0.73744
 C92 C -0.13619 0.00513 0.71983
 C93 C -0.08602 0.00321 0.67673
 C94 C 0.04338 -0.06678 0.79092
 C95 C 0.04483 -0.10779 0.80884
 C96 C -0.03242 -0.13204 0.78842
 C97 C -0.03245 -0.09056 0.77088
 N98 N 0.00470 -0.05847 0.77284
 H99 H -0.00985 0.00125 0.68551
 H100 H -0.09732 0.00417 0.76117
 H101 H -0.17134 0.00643 0.72997
 H102 H -0.08181 0.00313 0.65305
 H103 H 0.07277 -0.04106 0.79171
 H104 H 0.07533 -0.11368 0.82357
 H105 H -0.06246 -0.15702 0.78709
 H106 H -0.06228 -0.08404 0.75588
 C107 C 0.14375 -0.00242 0.69329
 C108 C -0.00028 0.13506 0.81020
 C109 C 0.00637 -0.14047 0.80774
 C110 C -0.13186 0.00455 0.68920
 C111 C -0.04392 -0.26542 0.11252
 C112 C -0.00361 -0.27439 0.08988
 C113 C -0.00315 -0.32798 0.09862
 C114 C -0.04347 -0.31963 0.12095
 C115 C -0.00504 -0.25600 0.13624
 C116 C -0.00459 -0.30957 0.14502
 C117 C 0.03526 -0.26438 0.11390
 C118 C 0.03574 -0.31858 0.12234
 C119 C -0.00217 -0.36752 0.07728
 C120 C -0.00151 -0.39949 0.05936
 C121 C -0.00595 -0.21536 0.15679
 C122 C -0.00647 -0.18138 0.17330
 H123 H -0.07669 -0.24313 0.10871
 H124 H -0.00318 -0.26034 0.06698
 H125 H -0.07583 -0.34280 0.12361
 H126 H -0.00501 -0.32356 0.16793
 H127 H 0.06762 -0.24121 0.11123
 H128 H 0.06851 -0.34088 0.12613
 C129 C 0.04219 0.26647 0.11450
 C130 C 0.00549 0.27358 0.08886
 C131 C -0.00035 0.32660 0.09795
 C132 C 0.03637 0.32013 0.12329
 C133 C 0.00030 0.25332 0.13484
 C134 C -0.00555 0.30632 0.14398
 C135 C -0.03640 0.25983 0.10950
 C136 C -0.04226 0.31346 0.11829
 C137 C -0.00063 0.36678 0.07695
 C138 C -0.00070 0.39916 0.05921
 C139 C 0.00052 0.21189 0.15492
 C140 C 0.00048 0.17720 0.17096
 H141 H 0.07693 0.24670 0.11316
 H142 H 0.01002 0.26053 0.06597
 H143 H 0.06628 0.34540 0.12873
 H144 H -0.01008 0.31930 0.16688
 H145 H -0.06631 0.23458 0.10404
 H146 H -0.07699 0.33324 0.11962
 C147 C 0.31022 -0.02025 0.64428
 C148 C 0.31001 -0.04528 0.61380
 C149 C 0.33104 0.00085 0.60019
 C150 C 0.33191 0.02592 0.63033
 C151 C 0.25934 -0.00078 0.63757
 C152 C 0.28038 0.04536 0.62396
 C153 C 0.25853 -0.02582 0.60743
 C154 C 0.28015 0.02030 0.59352
 C155 C 0.37035 0.00164 0.57893
 C156 C 0.40204 0.00207 0.56101
 C157 C 0.21881 -0.00160 0.65795
 C158 C 0.18489 -0.00211 0.67429
 H159 H 0.32212 -0.03694 0.66539
 H160 H 0.32264 -0.08255 0.60938
 H161 H 0.36253 0.04721 0.63950
 H162 H 0.26773 0.08262 0.62837
 H163 H 0.22793 -0.04711 0.59823
 H164 H 0.26820 0.03700 0.57242
 C165 C -0.25750 -0.03171 0.60907
 C166 C -0.31089 -0.03847 0.61793
 C167 C -0.32495 0.00363 0.59751
 C168 C -0.27217 0.01037 0.58836
 C169 C -0.25090 0.00458 0.63434
 C170 C -0.26497 0.04667 0.61391
 C171 C -0.30366 -0.00216 0.64353
 C172 C -0.31839 0.03995 0.62277
 C173 C -0.36560 0.00314 0.57657
 C174 C -0.39842 0.00285 0.55890
 C175 C -0.20910 0.00492 0.65441
 C176 C -0.17417 0.00494 0.67050
 H177 H -0.23200 -0.06117 0.60366
 H178 H -0.33023 -0.07349 0.61935
 H179 H -0.25965 0.01550 0.56545
 H180 H -0.24564 0.08168 0.61248
 H181 H -0.31612 -0.00730 0.66645
 H182 H -0.34390 0.06940 0.62817
 C183 C 0.00524 -0.25122 0.89754
 C184 C -0.03554 -0.28929 0.89948
 C185 C 0.00284 -0.32919 0.90142
 C186 C 0.04361 -0.29170 0.89979
 C187 C 0.00470 -0.25682 0.86390
 C188 C 0.04310 -0.29670 0.86582
 C189 C -0.03609 -0.29430 0.86552
 C190 C 0.00230 -0.33485 0.86778
 C191 C 0.00187 -0.36894 0.92271
 C192 C 0.00124 -0.40107 0.94062
 C193 C 0.00560 -0.21596 0.84340
 C194 C 0.00612 -0.18183 0.82693
 H195 H 0.00647 -0.21640 0.90957
 H196 H -0.06790 -0.28668 0.91355
 H197 H 0.07637 -0.29106 0.91411
 H198 H 0.07545 -0.29928 0.85174
 H199 H -0.06884 -0.29490 0.85119
 H200 H 0.00107 -0.36970 0.85578
 C201 C 0.04471 0.27232 0.88070
 C202 C 0.02943 0.32457 0.87272
 C203 C 0.00013 0.32676 0.90117
 C204 C 0.01541 0.27515 0.90945
 C205 C -0.00051 0.25337 0.86454
 C206 C -0.02979 0.25561 0.89299
 C207 C -0.01581 0.30495 0.85622
 C208 C -0.04510 0.30782 0.88501
 C209 C 0.00041 0.36697 0.92205
 C210 C 0.00047 0.39937 0.93971
 C211 C -0.00073 0.21189 0.84460
 C212 C -0.00069 0.17716 0.82868
 H213 H 0.08164 0.25726 0.87871
 H214 H 0.05379 0.35338 0.86463
 H215 H 0.02827 0.26333 0.93155
 H216 H -0.05415 0.22682 0.90111
 H217 H -0.02866 0.31672 0.83410
 H218 H -0.08202 0.32288 0.88701
 C219 C -0.31158 0.00922 0.35488
 C220 C -0.32703 -0.03370 0.37459
 C221 C -0.32992 0.00084 0.40092
 C222 C -0.31513 0.04377 0.38156
 C223 C -0.25862 -0.00080 0.36326
 C224 C -0.26155 0.03373 0.38960
 C225 C -0.27343 -0.04371 0.38262
 C226 C -0.27694 -0.00917 0.40925
 C227 C -0.36903 0.00163 0.42231
 C228 C -0.40058 0.00207 0.44031
 C229 C -0.21832 -0.00164 0.34271
 C230 C -0.18458 -0.00215 0.32625
 H231 H -0.32536 0.01676 0.33229
 H232 H -0.35441 -0.06142 0.36866
 H233 H -0.33271 0.07976 0.38137
 H234 H -0.23418 0.06144 0.39555
 H235 H -0.25585 -0.07970 0.38282
 H236 H -0.26311 -0.01671 0.43184
 C237 C 0.24950 -0.01650 0.39699
 C238 C 0.29843 -0.04162 0.39137
 C239 C 0.32467 0.00372 0.40263
 C240 C 0.27634 0.02881 0.40855
 C241 C 0.25073 0.00470 0.36573
 C242 C 0.27697 0.05004 0.37699
 C243 C 0.29905 -0.02041 0.35978
 C244 C 0.32597 0.02495 0.37138
 C245 C 0.36527 0.00320 0.42361
 C246 C 0.39807 0.00289 0.44129
 C247 C 0.20898 0.00506 0.34562
 C248 C 0.17407 0.00508 0.32952
 H249 H 0.21760 -0.03353 0.40730
 H250 H 0.30770 -0.07931 0.39750
 H251 H 0.26743 0.04904 0.42883
 H252 H 0.26768 0.08774 0.37085
 H253 H 0.30790 -0.04063 0.33948
 H254 H 0.35789 0.04197 0.36109
   
