data_POSCAR
  _audit_creation_date              2014-09-24
  _audit_creation_method            'ToBaCCo'
  _symmetry_space_group_name_H-M    'P1'
  _symmetry_Int_Tables_number       1
  _symmetry_cell_setting            triclinic
  loop_
  _symmetry_equiv_pos_as_xyz
 x,y,z
_cell_length_a 56.2389
_cell_length_b 56.2046
_cell_length_c 56.2544
_cell_angle_alpha 89.913600
_cell_angle_beta 90.084400
_cell_angle_gamma 90.071700
loop_
  _atom_site_label
  _atom_site_type_symbol
  _atom_site_fract_x
  _atom_site_fract_y
  _atom_site_fract_z
C1 C 0.24994 0.49838 0.99940
 C2 C 0.75010 0.50043 -0.00003
 C3 C -0.00086 0.25050 0.49961
 C4 C 1.00077 0.75046 0.49980
 C5 C 0.50019 -0.00124 0.25032
 C6 C 0.49974 0.00010 0.75018
 C7 C 0.28641 0.01936 0.47089
 H8 H 0.28711 0.03305 0.48437
 C9 C 0.30234 0.01990 0.45189
 H10 H 0.31534 0.03409 0.45065
 C11 C 0.26902 -0.01623 0.45631
 H12 H 0.25632 -0.03052 0.45832
 C13 C 0.28465 -0.01636 0.43702
 H14 H 0.28380 -0.03064 0.42413
 N15 N 0.27006 0.00157 0.47267
 C16 C 0.21365 0.03047 0.51718
 H17 H 0.21295 0.01699 0.53092
 C18 C 0.19770 0.04947 0.51758
 H19 H 0.18468 0.05072 0.53170
 C20 C 0.23107 0.04504 0.48163
 H21 H 0.24378 0.04301 0.46741
 C22 C 0.21542 0.06433 0.48136
 H23 H 0.21626 0.07722 0.46704
 Zn24 Zn 0.25005 0.00164 0.49969
 N25 N 0.23002 0.02868 0.49948
 C26 C 0.26894 0.01959 0.54315
 N27 N 0.27004 0.00180 0.52678
 C28 C 0.28640 -0.01593 0.52862
 C29 C 0.30227 -0.01645 0.54771
 C30 C 0.28451 0.01974 0.56253
 C31 C 0.21375 -0.02738 0.48205
 C32 C 0.19785 -0.04647 0.48159
 C33 C 0.21556 -0.06121 0.51790
 C34 C 0.23115 -0.04183 0.51769
 N35 N 0.23008 -0.02549 0.49983
 H36 H 0.25624 0.03384 0.54108
 H37 H 0.28714 -0.02960 0.51513
 H38 H 0.31527 -0.03060 0.54902
 H39 H 0.28362 0.03399 0.57545
 H40 H 0.21302 -0.01391 0.46831
 H41 H 0.18487 -0.04781 0.46740
 H42 H 0.21643 -0.07409 0.53222
 H43 H 0.24382 -0.03974 0.53197
 C44 C 0.19858 0.06653 0.49949
 C45 C 0.30146 0.00186 0.43483
 C46 C 0.19876 -0.06352 0.49969
 C47 C 0.30131 0.00155 0.56481
 C48 C 0.71341 0.01723 0.52927
 H49 H 0.71267 0.03071 0.51554
 C50 C 0.69748 0.01799 0.54827
 H51 H 0.68445 0.03213 0.54925
 C52 C 0.73093 -0.01802 0.54453
 H53 H 0.74367 -0.03226 0.54279
 C54 C 0.71530 -0.01793 0.56382
 H55 H 0.71620 -0.03198 0.57699
 N56 N 0.72982 -0.00048 0.52784
 C57 C 0.78613 0.02823 0.48291
 H58 H 0.78692 0.01459 0.46938
 C59 C 0.80200 0.04735 0.48224
 H60 H 0.81502 0.04852 0.46811
 C61 C 0.76862 0.04309 0.51823
 H62 H 0.75592 0.04114 0.53248
 C63 C 0.78417 0.06249 0.51823
 H64 H 0.78325 0.07554 0.53235
 Zn65 Zn 0.74987 -0.00066 0.50085
 N66 N 0.76977 0.02653 0.50063
 C67 C 0.73093 0.01656 0.45709
 N68 N 0.72992 -0.00103 0.47373
 C69 C 0.71364 -0.01890 0.47217
 C70 C 0.69775 -0.01975 0.45310
 C71 C 0.71533 0.01638 0.43773
 C72 C 0.78630 -0.02913 0.51904
 C73 C 0.80231 -0.04808 0.51985
 C74 C 0.78473 -0.06350 0.48378
 C75 C 0.76902 -0.04425 0.48364
 N76 N 0.76998 -0.02764 0.50121
 H77 H 0.74356 0.03093 0.45893
 H78 H 0.71296 -0.03241 0.48587
 H79 H 0.68481 -0.03401 0.45203
 H80 H 0.71615 0.03048 0.42460
 H81 H 0.78693 -0.01546 0.53254
 H82 H 0.81529 -0.04909 0.53406
 H83 H 0.78396 -0.07659 0.46969
 H84 H 0.75635 -0.04246 0.46931
 C85 C 0.80101 0.06461 0.50008
 C86 C 0.69844 0.00024 0.56568
 C87 C 0.80152 -0.06540 0.50205
 C88 C 0.69860 -0.00195 0.43575
 C89 C 0.48303 0.21287 1.02906
 H90 H 0.46944 0.21218 1.01544
 C91 C 0.48237 0.19687 1.04806
 H92 H 0.46819 0.18384 1.04916
 C93 C 0.51846 0.23029 1.04401
 H94 H 0.53272 0.24303 1.04214
 C95 C 0.51847 0.21460 1.06330
 H96 H 0.53263 0.21544 1.07635
 N97 N 0.50079 0.22925 1.02746
 C98 C 0.47205 0.28583 0.98277
 H99 H 0.48558 0.28662 0.96913
 C100 C 0.45303 0.30176 0.98224
 H101 H 0.45182 0.31484 0.96812
 C102 C 0.45737 0.26824 1.01820
 H103 H 0.45935 0.25548 1.03242
 C104 C 0.43806 0.28386 1.01834
 H105 H 0.42512 0.28293 1.03256
 Zn106 Zn 0.50083 0.24937 1.00045
 N107 N 0.47379 0.26939 1.00047
 C108 C 0.48309 0.23059 0.95685
 N109 N 0.50080 0.22945 0.97335
 C110 C 0.51852 0.21309 0.97164
 C111 C 0.51912 0.19724 0.95256
 C112 C 0.48302 0.21505 0.93748
 C113 C 0.52975 0.28569 1.01826
 C114 C 0.54878 0.30165 1.01880
 C115 C 0.56364 0.28403 0.98258
 C116 C 0.54431 0.26838 0.98272
 N117 N 0.52794 0.26938 1.00049
 H118 H 0.46885 0.24330 0.95881
 H119 H 0.53214 0.21231 0.98523
 H120 H 0.53327 0.18424 0.95137
 H121 H 0.46883 0.21598 0.92447
 H122 H 0.51625 0.28637 1.03193
 H123 H 0.55004 0.31463 1.03296
 H124 H 0.57653 0.28323 0.96832
 H125 H 0.54228 0.25572 0.96844
 C126 C 0.43590 0.30077 1.00020
 C127 C 0.50026 0.19774 1.06532
 C128 C 0.56586 0.30082 1.00078
 C129 C 0.50119 0.19823 0.93535
 C130 C 0.48130 0.78614 -0.02828
 H131 H 0.46778 0.78678 -0.01464
 C132 C 0.48059 0.80221 -0.04722
 H133 H 0.46646 0.81525 -0.04825
 C134 C 0.51660 0.76876 -0.04336
 H135 H 0.53084 0.75601 -0.04157
 C136 C 0.51657 0.78452 -0.06260
 H137 H 0.53067 0.78372 -0.07567
 N138 N 0.49901 0.76973 -0.02679
 C139 C 0.47037 0.71301 0.01779
 H140 H 0.48400 0.71216 0.03135
 C141 C 0.45134 0.69704 0.01830
 H142 H 0.45022 0.68389 0.03235
 C143 C 0.45547 0.73076 -0.01749
 H144 H 0.45737 0.74359 -0.03167
 C145 C 0.43614 0.71511 -0.01764
 H146 H 0.42311 0.71609 -0.03181
 Zn147 Zn 0.49916 0.74947 0.00012
 N148 N 0.47202 0.72953 0.00016
 C149 C 0.48189 0.76809 0.04389
 N150 N 0.49950 0.76923 0.02733
 C151 C 0.51734 0.78552 0.02904
 C152 C 0.51814 0.80132 0.04816
 C153 C 0.48202 0.78358 0.06330
 C154 C 0.52757 0.71315 -0.01815
 C155 C 0.54653 0.69717 -0.01905
 C156 C 0.56205 0.71453 0.01707
 C157 C 0.54279 0.73021 0.01730
 N158 N 0.52613 0.72936 -0.00027
 H159 H 0.46756 0.75545 0.04193
 H160 H 0.53087 0.78631 0.01541
 H161 H 0.53236 0.81428 0.04935
 H162 H 0.46789 0.78267 0.07634
 H163 H 0.51386 0.71260 -0.03165
 H164 H 0.54750 0.68428 -0.03332
 H165 H 0.57519 0.71522 0.03115
 H166 H 0.54104 0.74279 0.03167
 C167 C 0.43410 0.69810 0.00040
 C168 C 0.49840 0.80138 -0.06452
 C169 C 0.56391 0.69787 -0.00127
 C170 C 0.50030 0.80034 0.06542
 C171 C 1.02908 0.48306 0.21321
 H172 H 1.01538 0.46955 0.21251
 C173 C 1.04805 0.48234 0.19725
 H174 H 1.04904 0.46820 0.18423
 C175 C 1.04427 0.51837 0.23065
 H176 H 1.04250 0.53262 0.24337
 C177 C 1.06353 0.51832 0.21499
 H178 H 1.07666 0.53241 0.21584
 N179 N 1.02762 0.50079 0.22959
 C180 C 0.98271 0.47215 0.28596
 H181 H 0.96916 0.48578 0.28670
 C182 C 0.98206 0.45308 0.30188
 H183 H 0.96793 0.45194 0.31491
 C184 C 1.01806 0.45728 0.26850
 H185 H 1.03231 0.45920 0.25580
 C186 C 1.01808 0.43792 0.28412
 H187 H 1.03223 0.42489 0.28325
 Zn188 Zn 1.00063 0.50097 0.24965
 N189 N 1.00043 0.47382 0.26959
 C190 C 0.95683 0.48376 0.23073
 N191 N 0.97350 0.50132 0.22969
 C192 C 0.97196 0.51917 0.21339
 C193 C 0.95290 0.52003 0.19749
 C194 C 0.93746 0.48395 0.21513
 C195 C 1.01882 0.52952 0.28600
 C196 C 1.01965 0.54852 0.30194
 C197 C 0.98356 0.56390 0.28433
 C198 C 0.98340 0.54460 0.26870
 N199 N 1.00098 0.52799 0.26970
 H200 H 0.95865 0.46941 0.24339
 H201 H 0.98568 0.53266 0.21270
 H202 H 0.95185 0.53427 0.18453
 H203 H 0.92432 0.46987 0.21597
 H204 H 1.03233 0.51584 0.28666
 H205 H 1.03388 0.54957 0.31490
 H206 H 0.96947 0.57699 0.28353
 H207 H 0.96906 0.54278 0.25605
 C208 C 0.99993 0.43584 0.30096
 C209 C 1.06541 0.50014 0.19814
 C210 C 1.00185 0.56585 0.30109
 C211 C 0.93551 0.50225 0.19837
 C212 C -0.02908 0.48208 0.78623
 H213 H -0.01549 0.46848 0.78688
 C214 C -0.04804 0.48138 0.80220
 H215 H -0.04915 0.46717 0.81518
 C216 C -0.04398 0.51757 0.76889
 H217 H -0.04211 0.53188 0.75620
 C218 C -0.06324 0.51754 0.78456
 H219 H -0.07625 0.53172 0.78375
 N220 N -0.02748 0.49989 0.76989
 C221 C 0.01701 0.47123 0.71335
 H222 H 0.03068 0.48478 0.71259
 C223 C 0.01746 0.45222 0.69741
 H224 H 0.03154 0.45103 0.68435
 C225 C -0.01842 0.45650 0.73089
 H226 H -0.03261 0.45846 0.74363
 C227 C -0.01865 0.43720 0.71526
 H228 H -0.03290 0.42425 0.71616
 Zn229 Zn -0.00052 0.49999 0.74978
 N230 N -0.00065 0.47294 0.72977
 C231 C 0.04311 0.48228 0.76854
 N232 N 0.02665 0.49998 0.76968
 C233 C 0.02844 0.51772 0.78602
 C234 C 0.04756 0.51832 0.80186
 C235 C 0.06252 0.48220 0.78407
 C236 C -0.01847 0.52887 0.71352
 C237 C -0.01909 0.54794 0.69759
 C238 C 0.01719 0.56292 0.71516
 C239 C 0.01714 0.54357 0.73079
 N240 N -0.00063 0.52712 0.72980
 H241 H 0.04108 0.46802 0.75585
 H242 H 0.01488 0.53133 0.78680
 H243 H 0.04882 0.53247 0.81486
 H244 H 0.07550 0.46801 0.78316
 H245 H -0.03213 0.51532 0.71286
 H246 H -0.03332 0.54916 0.68465
 H247 H 0.03144 0.57588 0.71596
 H248 H 0.03148 0.54157 0.74342
 C249 C -0.00055 0.43508 0.69837
 C250 C -0.06526 0.49929 0.80136
 C251 C -0.00109 0.56509 0.69842
 C252 C 0.06474 0.50039 0.80088
 C253 C 0.02038 0.23542 0.49960
 C254 C 0.03753 0.22256 0.49964
 C255 C 0.05759 0.20670 0.49974
 C256 C 0.06306 0.19367 0.52024
 C257 C 0.08184 0.17741 0.52009
 C258 C 0.09540 0.17393 0.49938
 C259 C 0.08995 0.18735 0.47895
 C260 C 0.07115 0.20362 0.47914
 C261 C 0.11469 0.15591 0.49895
 C262 C 0.11771 0.14109 0.47904
 C263 C 0.13526 0.12351 0.47897
 C264 C 0.15006 0.12051 0.49877
 C265 C 0.14741 0.13532 0.51855
 C266 C 0.12985 0.15292 0.51866
 C267 C 0.16750 0.10179 0.49900
 C268 C 0.18182 0.08585 0.49922
 H269 H 0.05258 0.19583 0.53624
 H270 H 0.08536 0.16713 0.53600
 H271 H 0.10024 0.18528 0.46283
 H272 H 0.06707 0.21362 0.46317
 H273 H 0.10612 0.14271 0.46373
 H274 H 0.13709 0.11206 0.46361
 H275 H 0.15879 0.13316 0.53396
 H276 H 0.12817 0.16423 0.53413
 C277 C 0.73481 0.52151 -0.00031
 C278 C 0.72174 0.53851 -0.00056
 C279 C 0.70562 0.55836 -0.00088
 C280 C 0.69636 0.56717 0.02042
 C281 C 0.67975 0.58566 0.02007
 C282 C 0.67214 0.59554 -0.00164
 C283 C 0.68181 0.58676 -0.02295
 C284 C 0.69843 0.56828 -0.02256
 C285 C 0.65371 0.61444 -0.00208
 C286 C 0.63549 0.61399 -0.01925
 C287 C 0.61772 0.63136 -0.01926
 C288 C 0.61792 0.64940 -0.00216
 C289 C 0.63607 0.65015 0.01487
 C290 C 0.65386 0.63278 0.01493
 C291 C 0.59917 0.66681 -0.00182
 C292 C 0.58322 0.68111 -0.00156
 H293 H 0.70170 0.55952 0.03729
 H294 H 0.67241 0.59180 0.03675
 H295 H 0.67654 0.59419 -0.03993
 H296 H 0.70548 0.56157 -0.03916
 H297 H 0.63467 0.59993 -0.03235
 H298 H 0.60369 0.63056 -0.03245
 H299 H 0.63640 0.66407 0.02817
 H300 H 0.66780 0.63376 0.02819
 C301 C 0.97950 -0.23450 0.49992
 C302 C 0.96235 -0.22165 0.50007
 C303 C 0.94229 -0.20579 0.50028
 C304 C 0.93555 -0.19392 0.47946
 C305 C 0.91682 -0.17759 0.47988
 C306 C 0.90461 -0.17288 0.50118
 C307 C 0.91133 -0.18516 0.52195
 C308 C 0.93006 -0.20150 0.52148
 C309 C 0.88543 -0.15476 0.50184
 C310 C 0.88375 -0.13883 0.52104
 C311 C 0.86623 -0.12121 0.52129
 C312 C 0.85014 -0.11928 0.50239
 C313 C 0.85148 -0.13519 0.48333
 C314 C 0.86901 -0.15282 0.48303
 C315 C 0.83269 -0.10058 0.50230
 C316 C 0.81834 -0.08467 0.50220
 H317 H 0.94500 -0.19701 0.46299
 H318 H 0.91230 -0.16820 0.46368
 H319 H 0.90209 -0.18215 0.53855
 H320 H 0.93514 -0.21059 0.53771
 H321 H 0.89632 -0.13963 0.53561
 H322 H 0.86542 -0.10892 0.53608
 H323 H 0.83910 -0.13386 0.46862
 H324 H 0.86966 -0.16499 0.46815
 C325 C 0.26515 0.47724 0.99942
 C326 C 0.27815 0.46019 0.99947
 C327 C 0.29420 0.44028 0.99955
 C328 C 0.29941 0.42848 1.02084
 C329 C 0.31596 0.40993 1.02114
 C330 C 0.32754 0.40296 1.00011
 C331 C 0.32191 0.41473 0.97873
 C332 C 0.30537 0.43328 0.97849
 C333 C 0.34590 0.38399 1.00056
 C334 C 0.34736 0.36724 0.98206
 C335 C 0.36517 0.34989 0.98216
 C336 C 0.38173 0.34906 1.00074
 C337 C 0.38029 0.36550 1.01933
 C338 C 0.36250 0.38284 1.01927
 C339 C 0.40054 0.33173 1.00051
 C340 C 0.41654 0.31748 1.00035
 H341 H 0.29088 0.43377 1.03726
 H342 H 0.31968 0.40102 1.03781
 H343 H 0.33074 0.41001 0.96232
 H344 H 0.30157 0.44240 0.96193
 H345 H 0.33468 0.36749 0.96756
 H346 H 0.36611 0.33723 0.96769
 H347 H 0.39308 0.36508 1.03375
 H348 H 0.36207 0.39569 1.03359
 C349 C 0.97797 0.23527 0.49955
 C350 C 0.96090 0.22226 0.49945
 C351 C 0.94095 0.20621 0.49929
 C352 C 0.92706 0.20328 0.51970
 C353 C 0.90840 0.18681 0.51987
 C354 C 0.90341 0.17303 0.49959
 C355 C 0.91729 0.17636 0.47906
 C356 C 0.93594 0.19282 0.47894
 C357 C 0.88428 0.15478 0.50003
 C358 C 0.86947 0.15132 0.48014
 C359 C 0.85207 0.13353 0.48029
 C360 C 0.84923 0.11898 0.50030
 C361 C 0.86369 0.12245 0.52027
 C362 C 0.88108 0.14023 0.52016
 C363 C 0.83192 0.10010 0.50017
 C364 C 0.81769 0.08404 0.50010
 H365 H 0.93079 0.21356 0.53556
 H366 H 0.89785 0.18488 0.53585
 H367 H 0.91412 0.16580 0.46328
 H368 H 0.94667 0.19484 0.46308
 H369 H 0.87130 0.16241 0.46450
 H370 H 0.84095 0.13101 0.46475
 H371 H 0.86171 0.11121 0.53581
 H372 H 0.89241 0.14222 0.53561
 C373 C 0.26502 0.51966 -0.00041
 C374 C 0.27791 0.53682 -0.00020
 C375 C 0.29380 0.55689 0.00011
 C376 C 0.29635 0.57118 -0.02012
 C377 C 0.31263 0.59001 -0.02015
 C378 C 0.32661 0.59475 0.00007
 C379 C 0.32368 0.58045 0.02042
 C380 C 0.30740 0.56165 0.02041
 C381 C 0.34465 0.61407 -0.00023
 C382 C 0.34822 0.62854 0.01986
 C383 C 0.36584 0.64612 0.01983
 C384 C 0.38010 0.64948 -0.00026
 C385 C 0.37653 0.63537 -0.02042
 C386 C 0.35892 0.61779 -0.02044
 C387 C 0.39883 0.66694 -0.00000
 C388 C 0.41478 0.68129 0.00020
 H389 H 0.28591 0.56765 -0.03593
 H390 H 0.31427 0.60087 -0.03598
 H391 H 0.33440 0.58343 0.03614
 H392 H 0.30567 0.55060 0.03611
 H393 H 0.33734 0.62631 0.03558
 H394 H 0.36845 0.65697 0.03553
 H395 H 0.38755 0.63774 -0.03603
 H396 H 0.35685 0.60674 -0.03605
 C397 C 0.02190 -0.23428 0.49973
 C398 C 0.03895 -0.22124 0.49963
 C399 C 0.05887 -0.20516 0.49946
 C400 C 0.07274 -0.20217 0.51991
 C401 C 0.09139 -0.18568 0.52006
 C402 C 0.09639 -0.17195 0.49972
 C403 C 0.08252 -0.17534 0.47915
 C404 C 0.06389 -0.19181 0.47905
 C405 C 0.11552 -0.15371 0.50012
 C406 C 0.13032 -0.15030 0.48025
 C407 C 0.14772 -0.13250 0.48035
 C408 C 0.15056 -0.11790 0.50028
 C409 C 0.13610 -0.12131 0.52022
 C410 C 0.11871 -0.13910 0.52017
 C411 C 0.16785 -0.09901 0.50007
 C412 C 0.18208 -0.08295 0.49989
 H413 H 0.06900 -0.21241 0.53581
 H414 H 0.10192 -0.18370 0.53607
 H415 H 0.08570 -0.16482 0.46333
 H416 H 0.05317 -0.19389 0.46317
 H417 H 0.12850 -0.16144 0.46467
 H418 H 0.15883 -0.13002 0.46482
 H419 H 0.13808 -0.11003 0.53571
 H420 H 0.10739 -0.14105 0.53561
 C421 C 0.73510 0.47910 1.00022
 C422 C 0.72227 0.46190 1.00045
 C423 C 0.70640 0.44180 1.00077
 C424 C 0.70386 0.42753 0.98056
 C425 C 0.68756 0.40871 0.98051
 C426 C 0.67358 0.40395 1.00069
 C427 C 0.67652 0.41821 1.02103
 C428 C 0.69281 0.43702 1.02103
 C429 C 0.65549 0.38466 1.00035
 C430 C 0.65188 0.37017 1.02045
 C431 C 0.63422 0.35263 1.02038
 C432 C 0.61995 0.34934 1.00024
 C433 C 0.62358 0.36349 0.98008
 C434 C 0.64123 0.38102 0.98010
 C435 C 0.60118 0.33192 1.00046
 C436 C 0.58520 0.31760 1.00062
 H437 H 0.71429 0.43109 0.96477
 H438 H 0.68592 0.39788 0.96469
 H439 H 0.66580 0.41523 1.03673
 H440 H 0.69454 0.44805 1.03672
 H441 H 0.66276 0.37235 1.03620
 H442 H 0.63157 0.34176 1.03608
 H443 H 0.61256 0.36116 0.96443
 H444 H 0.64333 0.39209 0.96448
 C445 C 0.50036 0.01994 1.23511
 C446 C 0.50052 0.03704 1.22213
 C447 C 0.50072 0.05704 1.20614
 C448 C 0.52116 0.06218 1.19293
 C449 C 0.52109 0.08091 1.17655
 C450 C 0.50052 0.09473 1.17314
 C451 C 0.48015 0.08960 1.18673
 C452 C 0.48027 0.07087 1.20311
 C453 C 0.50013 0.11395 1.15499
 C454 C 0.48009 0.11714 1.14032
 C455 C 0.48003 0.13464 1.12264
 C456 C 0.49995 0.14923 1.11941
 C457 C 0.51988 0.14639 1.13406
 C458 C 0.51999 0.12887 1.15175
 C459 C 0.50012 0.16666 1.10064
 C460 C 0.50022 0.18098 1.08467
 H461 H 0.53705 0.05149 1.19504
 H462 H 0.53694 0.08418 1.16614
 H463 H 0.46414 0.10010 1.18472
 H464 H 0.46434 0.06703 1.21325
 H465 H 0.46467 0.10573 1.14213
 H466 H 0.46456 0.13662 1.11132
 H467 H 0.53539 0.15760 1.13172
 H468 H 0.53556 0.12705 1.16294
 C469 C 0.00093 0.73523 0.52096
 C470 C 0.00100 0.72224 0.53804
 C471 C 0.00103 0.70622 0.55802
 C472 C 0.02119 0.69250 0.56295
 C473 C 0.02089 0.67607 0.58163
 C474 C 0.00037 0.67312 0.59562
 C475 C -0.01971 0.68723 0.59070
 C476 C -0.01937 0.70366 0.57201
 C477 C -0.00027 0.65495 0.61481
 C478 C -0.02061 0.64073 0.61816
 C479 C -0.02091 0.62303 0.63563
 C480 C -0.00094 0.61931 0.65002
 C481 C 0.01929 0.63352 0.64702
 C482 C 0.01964 0.65123 0.62954
 C483 C -0.00100 0.60049 0.66740
 C484 C -0.00105 0.58448 0.68168
 H485 H 0.03702 0.69424 0.55213
 H486 H 0.03651 0.66526 0.58474
 H487 H -0.03567 0.68558 0.60133
 H488 H -0.03508 0.71419 0.56834
 H489 H -0.03609 0.64291 0.60690
 H490 H -0.03663 0.61205 0.63773
 H491 H 0.03484 0.63081 0.65808
 H492 H 0.03545 0.66207 0.62759
 C493 C 0.49972 0.97893 -0.23460
 C494 C 0.49973 0.96185 -0.22159
 C495 C 0.49976 0.94189 -0.20556
 C496 C 0.47912 0.92832 -0.20242
 C497 C 0.47882 0.90964 -0.18597
 C498 C 0.49920 0.90431 -0.17242
 C499 C 0.51995 0.91787 -0.17596
 C500 C 0.52020 0.93654 -0.19240
 C501 C 0.49866 0.88514 -0.15423
 C502 C 0.51831 0.86998 -0.15104
 C503 C 0.51806 0.85250 -0.13333
 C504 C 0.49820 0.84993 -0.11858
 C505 C 0.47848 0.86476 -0.12176
 C506 C 0.47867 0.88223 -0.13947
 C507 C 0.49826 0.83252 -0.09980
 C508 C 0.49832 0.81820 -0.08383
 H509 H 0.46319 0.93231 -0.21252
 H510 H 0.46268 0.89934 -0.18387
 H511 H 0.53582 0.91444 -0.16558
 H512 H 0.53623 0.94703 -0.19459
 H513 H 0.53383 0.87158 -0.16230
 H514 H 0.53342 0.84109 -0.13103
 H515 H 0.46305 0.86299 -0.11037
 H516 H 0.46341 0.89383 -0.14124
 C517 C 0.99909 0.26573 0.47845
 C518 C 0.99902 0.27873 0.46138
 C519 C 0.99891 0.29477 0.44142
 C520 C 0.97857 0.30815 0.43633
 C521 C 0.97873 0.32457 0.41765
 C522 C 0.99931 0.32786 0.40381
 C523 C 1.01959 0.31409 0.40889
 C524 C 1.01937 0.29766 0.42758
 C525 C 0.99978 0.34603 0.38462
 C526 C 1.01992 0.36057 0.38141
 C527 C 1.02007 0.37827 0.36392
 C528 C 1.00014 0.38166 0.34940
 C529 C 0.98012 0.36713 0.35226
 C530 C 0.97992 0.34942 0.36974
 C531 C 1.00004 0.40046 0.33200
 C532 C 0.99998 0.41646 0.31771
 H533 H 0.96268 0.30615 0.44703
 H534 H 0.96296 0.33512 0.41441
 H535 H 1.03559 0.31600 0.39838
 H536 H 1.03522 0.28739 0.43138
 H537 H 1.03535 0.35864 0.39278
 H538 H 1.03562 0.38950 0.36193
 H539 H 0.96460 0.36960 0.34109
 H540 H 0.96427 0.33834 0.37159
 C541 C 0.50003 0.97751 0.23526
 C542 C 0.49991 0.96036 0.22239
 C543 C 0.49979 0.94032 0.20652
 C544 C 0.52057 0.92716 0.20291
 C545 C 0.52076 0.90844 0.18656
 C546 C 0.50014 0.90267 0.17358
 C547 C 0.47924 0.91580 0.17761
 C548 C 0.47910 0.93451 0.19395
 C549 C 0.50058 0.88353 0.15540
 C550 C 0.48114 0.86796 0.15271
 C551 C 0.48126 0.85055 0.13498
 C552 C 0.50078 0.84846 0.11972
 C553 C 0.52029 0.86369 0.12242
 C554 C 0.52022 0.88109 0.14013
 C555 C 0.50057 0.83115 0.10090
 C556 C 0.50043 0.81695 0.08486
 H557 H 0.53669 0.93151 0.21255
 H558 H 0.53704 0.89848 0.18408
 H559 H 0.46318 0.91202 0.16767
 H560 H 0.46295 0.94469 0.19651
 H561 H 0.46588 0.86921 0.16436
 H562 H 0.46606 0.83883 0.13306
 H563 H 0.53545 0.86230 0.11063
 H564 H 0.53530 0.89301 0.14152
 C565 C -0.00086 0.26557 0.52084
 C566 C -0.00079 0.27845 0.53797
 C567 C -0.00062 0.29436 0.55798
 C568 C 0.01997 0.30722 0.56348
 C569 C 0.01989 0.32356 0.58219
 C570 C -0.00085 0.32728 0.59565
 C571 C -0.02138 0.31401 0.59018
 C572 C -0.02125 0.29767 0.57145
 C573 C -0.00121 0.34541 0.61483
 C574 C -0.02102 0.36041 0.61766
 C575 C -0.02102 0.37809 0.63511
 C576 C -0.00127 0.38100 0.64999
 C577 C 0.01841 0.36600 0.64751
 C578 C 0.01846 0.34831 0.63006
 C579 C -0.00100 0.39977 0.66736
 C580 C -0.00079 0.41574 0.68163
 H581 H 0.03600 0.30489 0.55308
 H582 H 0.03588 0.33371 0.58574
 H583 H -0.03752 0.31626 0.60039
 H584 H -0.03729 0.28780 0.56734
 H585 H -0.03628 0.35886 0.60601
 H586 H -0.03631 0.38967 0.63681
 H587 H 0.03378 0.36809 0.65896
 H588 H 0.03385 0.33686 0.62851
 C589 C 0.49973 0.02135 0.76523
 C590 C 0.49970 0.03848 0.77811
 C591 C 0.49964 0.05848 0.79404
 C592 C 0.47920 0.06381 0.80713
 C593 C 0.47943 0.08247 0.82352
 C594 C 0.50018 0.09604 0.82707
 C595 C 0.52055 0.09075 0.81358
 C596 C 0.52027 0.07207 0.79718
 C597 C 0.50074 0.11514 0.84528
 C598 C 0.52074 0.11799 0.86007
 C599 C 0.52095 0.13537 0.87782
 C600 C 0.50121 0.15015 0.88102
 C601 C 0.48133 0.14765 0.86624
 C602 C 0.48108 0.13027 0.84847
 C603 C 0.50117 0.16743 0.89987
 C604 C 0.50116 0.18162 0.91591
 H605 H 0.46318 0.05330 0.80493
 H606 H 0.46357 0.08588 0.83385
 H607 H 0.53669 0.10105 0.81570
 H608 H 0.53620 0.06808 0.78714
 H609 H 0.53601 0.10642 0.85830
 H610 H 0.53639 0.13708 0.88924
 H611 H 0.46597 0.15902 0.86855
 H612 H 0.46554 0.12871 0.83720
 C613 C 1.00071 0.73538 0.47857
 C614 C 1.00070 0.72250 0.46144
 C615 C 1.00071 0.70660 0.44142
 C616 C 0.98011 0.69389 0.43559
 C617 C 0.98037 0.67755 0.41689
 C618 C 1.00130 0.67366 0.40378
 C619 C 1.02184 0.68678 0.40958
 C620 C 1.02153 0.70313 0.42829
 C621 C 1.00186 0.65552 0.38462
 C622 C 1.02160 0.64037 0.38213
 C623 C 1.02178 0.62269 0.36468
 C624 C 1.00227 0.61994 0.34945
 C625 C 0.98266 0.63509 0.35159
 C626 C 0.98244 0.65277 0.36905
 C627 C 1.00215 0.60116 0.33209
 C628 C 1.00203 0.58519 0.31782
 H629 H 0.96393 0.69635 0.44574
 H630 H 0.96437 0.66751 0.41309
 H631 H 1.03813 0.68440 0.39964
 H632 H 1.03758 0.71287 0.43266
 H633 H 1.03667 0.64180 0.39405
 H634 H 1.03700 0.61099 0.36325
 H635 H 0.96748 0.63312 0.33987
 H636 H 0.96711 0.66433 0.37033
 C637 C 1.23471 0.49822 0.02051
 C638 C 1.22174 0.49811 0.03756
 C639 C 1.20576 0.49801 0.05751
 C640 C 1.19121 0.47825 0.06169
 C641 C 1.17489 0.47849 0.08040
 C642 C 1.17289 0.49856 0.09518
 C643 C 1.18781 0.51825 0.09100
 C644 C 1.20413 0.51796 0.07227
 C645 C 1.15485 0.49917 0.11443
 C646 C 1.14154 0.51994 0.11862
 C647 C 1.12393 0.52025 0.13612
 C648 C 1.11940 0.49987 0.14970
 C649 C 1.13272 0.47922 0.14588
 C650 C 1.15033 0.47885 0.12837
 C651 C 1.10066 0.49999 0.16709
 C652 C 1.08472 0.50007 0.18139
 H653 H 1.19223 0.46277 0.05027
 H654 H 1.16344 0.46320 0.08294
 H655 H 1.18690 0.53384 0.10224
 H656 H 1.21532 0.53336 0.06919
 H657 H 1.14435 0.53576 0.10798
 H658 H 1.11364 0.53630 0.13886
 H659 H 1.12937 0.46335 0.15631
 H660 H 1.16047 0.46270 0.12578
 C661 C 0.52096 0.00006 0.73510
 C662 C 0.53809 -0.00001 0.72222
 C663 C 0.55812 -0.00014 0.70634
 C664 C 0.56362 -0.02075 0.69356
 C665 C 0.58234 -0.02062 0.67725
 C666 C 0.59580 0.00016 0.67347
 C667 C 0.59032 0.02070 0.68665
 C668 C 0.57159 0.02053 0.70297
 C669 C 0.61498 0.00058 0.65535
 C670 C 0.61777 0.02040 0.64028
 C671 C 0.63523 0.02046 0.62262
 C672 C 0.65014 0.00076 0.61978
 C673 C 0.64770 -0.01893 0.63484
 C674 C 0.63024 -0.01904 0.65252
 C675 C 0.66749 0.00054 0.60102
 C676 C 0.68175 0.00038 0.58504
 H677 H 0.55321 -0.03681 0.69594
 H678 H 0.58590 -0.03661 0.66716
 H679 H 0.60054 0.03688 0.68435
 H680 H 0.56747 0.03658 0.71278
 H681 H 0.60610 0.03563 0.64177
 H682 H 0.63689 0.03575 0.61098
 H683 H 0.65917 -0.03427 0.63281
 H684 H 0.62871 -0.03443 0.66402
 C685 C -0.23476 0.50034 0.97880
 C686 C -0.22183 0.50032 0.96171
 C687 C -0.20589 0.50034 0.94174
 C688 C -0.20259 0.47961 0.92840
 C689 C -0.18624 0.47935 0.90970
 C690 C -0.17294 0.49984 0.90412
 C691 C -0.17664 0.52067 0.91745
 C692 C -0.19298 0.52089 0.93614
 C693 C -0.15482 0.49934 0.88495
 C694 C -0.15189 0.51892 0.86960
 C695 C -0.13422 0.51873 0.85214
 C696 C -0.11927 0.49900 0.84977
 C697 C -0.12220 0.47934 0.86478
 C698 C -0.13985 0.47948 0.88224
 C699 C -0.10052 0.49912 0.83239
 C700 C -0.08457 0.49921 0.81810
 H701 H -0.21249 0.46360 0.93259
 H702 H -0.18401 0.46313 0.89958
 H703 H -0.16646 0.53663 0.91382
 H704 H -0.19530 0.53699 0.94645
 H705 H -0.16331 0.53434 0.87105
 H706 H -0.13211 0.53404 0.84059
 H707 H -0.11064 0.46401 0.86317
 H708 H -0.14143 0.46427 0.89398
 C709 C 0.47899 -0.00107 0.26543
 C710 C 0.46188 -0.00095 0.27834
 C711 C 0.44188 -0.00081 0.29425
 C712 C 0.43642 -0.02115 0.30754
 C713 C 0.41771 -0.02075 0.32387
 C714 C 0.40423 0.00006 0.32716
 C715 C 0.40968 0.02033 0.31349
 C716 C 0.42839 0.01988 0.29715
 C717 C 0.38505 0.00078 0.34527
 C718 C 0.38220 0.02090 0.35985
 C719 C 0.36473 0.02126 0.37750
 C720 C 0.34986 0.00156 0.38080
 C721 C 0.35236 -0.01844 0.36623
 C722 C 0.36983 -0.01885 0.34857
 C723 C 0.33248 0.00166 0.39955
 C724 C 0.31819 0.00175 0.41550
 H725 H 0.44684 -0.03722 0.30553
 H726 H 0.41419 -0.03654 0.33435
 H727 H 0.39945 0.03652 0.31540
 H728 H 0.43248 0.03574 0.28696
 H729 H 0.39384 0.03614 0.35799
 H730 H 0.36302 0.03678 0.38875
 H731 H 0.34092 -0.03378 0.36863
 H732 H 0.37139 -0.03448 0.33746
 C733 C 0.23490 0.49844 0.97812
 C734 C 0.22202 0.49848 0.96095
 C735 C 0.20612 0.49854 0.94090
 C736 C 0.20241 0.51949 0.92794
 C737 C 0.18600 0.51985 0.90924
 C738 C 0.17307 0.49925 0.90328
 C739 C 0.17720 0.47819 0.91620
 C740 C 0.19360 0.47787 0.93490
 C741 C 0.15484 0.49986 0.88415
 C742 C 0.15218 0.48060 0.86841
 C743 C 0.13443 0.48088 0.85098
 C744 C 0.11911 0.50040 0.84905
 C745 C 0.12176 0.51975 0.86446
 C746 C 0.13950 0.51951 0.88188
 C747 C 0.10026 0.50036 0.83173
 C748 C 0.08421 0.50035 0.81751
 H749 H 0.21200 0.53559 0.93245
 H750 H 0.18344 0.53625 0.89944
 H751 H 0.16731 0.46213 0.91227
 H752 H 0.19624 0.46160 0.94491
 H753 H 0.16388 0.46535 0.86953
 H754 H 0.13254 0.46582 0.83912
 H755 H 0.10993 0.53490 0.86319
 H756 H 0.14086 0.53445 0.89394
 C757 C 0.52140 -0.00134 0.26549
 C758 C 0.53852 -0.00142 0.27843
 C759 C 0.55852 -0.00149 0.29439
 C760 C 0.56547 0.01954 0.30574
 C761 C 0.58412 0.01929 0.32219
 C762 C 0.59607 -0.00205 0.32754
 C763 C 0.58916 -0.02304 0.31578
 C764 C 0.57050 -0.02275 0.29932
 C765 C 0.61515 -0.00250 0.34581
 C766 C 0.61654 -0.02137 0.36223
 C767 C 0.63396 -0.02142 0.37997
 C768 C 0.65026 -0.00266 0.38154
 C769 C 0.64921 0.01608 0.36515
 C770 C 0.63178 0.01617 0.34740
 C771 C 0.66764 -0.00238 0.40033
 C772 C 0.68190 -0.00217 0.41635
 H773 H 0.55622 0.03606 0.30215
 H774 H 0.58879 0.03568 0.33116
 H775 H 0.59820 -0.03968 0.31929
 H776 H 0.56527 -0.03913 0.29064
 H777 H 0.60380 -0.03583 0.36171
 H778 H 0.63455 -0.03595 0.39263
 H779 H 0.66176 0.03068 0.36620
 H780 H 0.63135 0.03080 0.33486
 C781 C 0.76525 0.50078 0.02119
 C782 C 0.77818 0.50105 0.03830
 C783 C 0.79414 0.50134 0.05831
 C784 C 0.79994 0.52288 0.06934
 C785 C 0.81640 0.52333 0.08799
 C786 C 0.82730 0.50219 0.09583
 C787 C 0.82107 0.48058 0.08484
 C788 C 0.80463 0.48018 0.06619
 C789 C 0.84558 0.50274 0.11491
 C790 C 0.84641 0.48477 0.13234
 C791 C 0.86417 0.48491 0.14977
 C792 C 0.88131 0.50298 0.15001
 C793 C 0.88050 0.52105 0.13290
 C794 C 0.86276 0.52096 0.11547
 C795 C 0.90010 0.50270 0.16740
 C796 C 0.91611 0.50248 0.18167
 H797 H 0.79193 0.53937 0.06336
 H798 H 0.82059 0.54019 0.09628
 H799 H 0.82938 0.46406 0.09025
 H800 H 0.80037 0.46343 0.05768
 H801 H 0.83328 0.47067 0.13255
 H802 H 0.86462 0.47085 0.16296
 H803 H 0.89374 0.53507 0.13286
 H804 H 0.86282 0.53485 0.10211
 C805 C 0.47856 0.00003 0.73498
 C806 C 0.46147 -0.00002 0.72201
 C807 C 0.44149 -0.00010 0.70601
 C808 C 0.43692 -0.02011 0.69196
 C809 C 0.41821 -0.01987 0.67557
 C810 C 0.40384 0.00045 0.67299
 C811 C 0.40840 0.02038 0.68742
 C812 C 0.42712 0.02009 0.70381
 C813 C 0.38462 0.00105 0.65485
 C814 C 0.38088 0.02158 0.64100
 C815 C 0.36342 0.02185 0.62329
 C816 C 0.34945 0.00165 0.61920
 C817 C 0.35283 -0.01877 0.63306
 C818 C 0.37029 -0.01909 0.65078
 C819 C 0.33215 0.00166 0.60033
 C820 C 0.31795 0.00164 0.58426
 H821 H 0.44803 -0.03578 0.69342
 H822 H 0.41538 -0.03536 0.66450
 H823 H 0.39747 0.03618 0.68606
 H824 H 0.43051 0.03569 0.71460
 H825 H 0.39183 0.03724 0.64347
 H826 H 0.36103 0.03771 0.61258
 H827 H 0.34209 -0.03451 0.63005
 H828 H 0.37254 -0.03506 0.66134
   
