data_POSCAR
  _audit_creation_date              2014-09-24
  _audit_creation_method            'ToBaCCo'
  _symmetry_space_group_name_H-M    'P1'
  _symmetry_Int_Tables_number       1
  _symmetry_cell_setting            triclinic
  loop_
  _symmetry_equiv_pos_as_xyz
 x,y,z
_cell_length_a 41.9934
_cell_length_b 41.0837
_cell_length_c 42.6457
_cell_angle_alpha 87.589400
_cell_angle_beta 87.935800
_cell_angle_gamma 84.012000
loop_
  _atom_site_label
  _atom_site_type_symbol
  _atom_site_fract_x
  _atom_site_fract_y
  _atom_site_fract_z
C1 C 0.22981 0.52603 0.97382
 C2 C 0.74508 0.51332 0.02804
 C3 C -0.00143 0.23172 0.50823
 C4 C 1.02399 0.73613 0.50214
 C5 C 0.51398 0.00808 0.24294
 C6 C 0.49991 0.02543 0.74789
 C7 C 0.29098 0.00855 0.45450
 H8 H 0.27394 0.02670 0.46514
 C9 C 0.31035 0.01769 0.42901
 H10 H 0.30791 0.04305 0.42078
 C11 C 0.31673 -0.04550 0.45476
 H12 H 0.31957 -0.06993 0.46547
 C13 C 0.33559 -0.03785 0.42844
 H14 H 0.35188 -0.05721 0.41866
 N15 N 0.29439 -0.02264 0.46673
 C16 C 0.23599 0.01637 0.53828
 H17 H 0.25443 0.01105 0.55531
 C18 C 0.21064 0.04035 0.54423
 H19 H 0.21026 0.05374 0.56559
 C20 C 0.21409 0.00543 0.48984
 H21 H 0.21554 -0.00861 0.46884
 C22 C 0.18824 0.02903 0.49493
 H23 H 0.16971 0.03279 0.47776
 Zn24 Zn 0.27034 -0.03409 0.50314
 N25 N 0.23731 -0.00039 0.51135
 C26 C 0.31689 -0.01279 0.53833
 N27 N 0.29915 -0.03843 0.53650
 C28 C 0.30292 -0.06469 0.55703
 C29 C 0.32487 -0.06532 0.58109
 C30 C 0.33920 -0.01254 0.56166
 C31 C 0.25079 -0.08534 0.46818
 C32 C 0.23171 -0.11000 0.46206
 C33 C 0.21138 -0.10837 0.51570
 C34 C 0.23105 -0.08378 0.52088
 N35 N 0.25000 -0.07251 0.49715
 H36 H 0.31366 0.00762 0.52149
 H37 H 0.28885 -0.08502 0.55493
 H38 H 0.32709 -0.08607 0.59765
 H39 H 0.35338 0.00796 0.56210
 H40 H 0.26480 -0.07534 0.44915
 H41 H 0.23231 -0.11934 0.43865
 H42 H 0.19535 -0.11587 0.53446
 H43 H 0.23000 -0.07250 0.54341
 C44 C 0.18625 0.04690 0.52244
 C45 C 0.33297 -0.00569 0.41525
 C46 C 0.21100 -0.12126 0.48571
 C47 C 0.34330 -0.03887 0.58371
 C48 C 0.72968 0.01118 0.55567
 H49 H 0.74733 0.02859 0.55455
 C50 C 0.70908 0.00931 0.58214
 H51 H 0.71127 0.02505 0.60152
 C52 C 0.70451 -0.02992 0.53160
 H53 H 0.70250 -0.04470 0.51149
 C54 C 0.68386 -0.03288 0.55758
 H55 H 0.66591 -0.04998 0.55730
 N56 N 0.72717 -0.00856 0.53122
 C57 C 0.78141 0.04735 0.46803
 H58 H 0.76418 0.04721 0.44989
 C59 C 0.80453 0.06934 0.46490
 H60 H 0.80394 0.08655 0.44494
 C61 C 0.80403 0.02426 0.51503
 H62 H 0.80413 0.00599 0.53405
 C63 C 0.82776 0.04590 0.51276
 H64 H 0.84602 0.04415 0.53022
 Zn65 Zn 0.75220 -0.00704 0.49349
 N66 N 0.78143 0.02538 0.49282
 C67 C 0.70479 0.03221 0.46186
 N68 N 0.72267 0.00270 0.46125
 C69 C 0.71793 -0.01953 0.43963
 C70 C 0.69436 -0.01227 0.41737
 C71 C 0.68173 0.04089 0.43948
 C72 C 0.77414 -0.07401 0.50792
 C73 C 0.79419 -0.10303 0.50427
 C74 C 0.81941 -0.07786 0.45897
 C75 C 0.79838 -0.04958 0.46303
 N76 N 0.77659 -0.04797 0.48745
 H77 H 0.70875 0.04921 0.47968
 H78 H 0.73183 -0.04321 0.44018
 H79 H 0.69025 -0.03093 0.40125
 H80 H 0.66874 0.06503 0.43995
 H81 H 0.75732 -0.07215 0.52765
 H82 H 0.79254 -0.12327 0.52116
 H83 H 0.83735 -0.07848 0.44004
 H84 H 0.80008 -0.02843 0.44730
 C85 C 0.82842 0.06855 0.48716
 C86 C 0.68598 -0.01317 0.58331
 C87 C 0.81752 -0.10488 0.47991
 C88 C 0.67586 0.01841 0.41692
 C89 C 0.49850 0.21701 1.03662
 H90 H 0.49126 0.20701 1.01526
 C91 C 0.49880 0.19801 1.06452
 H92 H 0.49222 0.17325 1.06417
 C93 C 0.51744 0.26078 1.06252
 H94 H 0.52510 0.28512 1.06144
 C95 C 0.51809 0.24263 1.09097
 H96 H 0.52597 0.25335 1.11174
 N97 N 0.50848 0.24746 1.03596
 C98 C 0.48067 0.32351 0.96542
 H99 H 0.50143 0.32078 0.94962
 C100 C 0.45696 0.34942 0.96060
 H101 H 0.45946 0.36633 0.94071
 C102 C 0.45268 0.30496 1.01088
 H103 H 0.45148 0.28779 1.03071
 C104 C 0.42831 0.33063 1.00692
 H105 H 0.40855 0.33319 1.02396
 Zn106 Zn 0.51358 0.27024 0.99699
 N107 N 0.47833 0.30215 0.99040
 C108 C 0.49772 0.24399 0.93931
 N109 N 0.51730 0.23976 0.96424
 C110 C 0.53944 0.21320 0.96685
 C111 C 0.54347 0.19043 0.94329
 C112 C 0.50076 0.22162 0.91529
 C113 C 0.54761 0.32317 1.00939
 C114 C 0.57406 0.34086 1.01133
 C115 C 0.60762 0.29485 0.99075
 C116 C 0.58047 0.27813 0.98898
 N117 N 0.55112 0.29244 0.99819
 H118 H 0.47972 0.26472 0.93789
 H119 H 0.55382 0.20950 0.98747
 H120 H 0.56126 0.16951 0.94580
 H121 H 0.48537 0.22567 0.89537
 H122 H 0.52415 0.33406 1.01686
 H123 H 0.57044 0.36557 1.01959
 H124 H 0.63075 0.28280 0.98361
 H125 H 0.58308 0.25374 0.98025
 C126 C 0.43062 0.35361 0.98182
 C127 C 0.50939 0.21051 1.09205
 C128 C 0.60464 0.32674 1.00193
 C129 C 0.52414 0.19463 0.91697
 C130 C 0.43662 0.82039 -0.03815
 H131 H 0.41915 0.82270 -0.01888
 C132 C 0.43423 0.84283 -0.06362
 H133 H 0.41481 0.86236 -0.06375
 C134 C 0.48405 0.79308 -0.06043
 H135 H 0.50363 0.77387 -0.05888
 C136 C 0.48266 0.81513 -0.08633
 H137 H 0.50101 0.81240 -0.10480
 N138 N 0.46127 0.79615 -0.03694
 C139 C 0.42918 0.71944 0.02684
 H140 H 0.45052 0.71342 0.04011
 C141 C 0.40381 0.70024 0.03135
 H142 H 0.40562 0.68005 0.04857
 C143 C 0.40219 0.75066 -0.01398
 H144 H 0.40185 0.76973 -0.03216
 C145 C 0.37642 0.73174 -0.01053
 H146 H 0.35631 0.73675 -0.02582
 Zn147 Zn 0.46447 0.76796 -0.00053
 N148 N 0.42784 0.74446 0.00481
 C149 C 0.46840 0.77858 0.06444
 N150 N 0.46864 0.79322 0.03521
 C151 C 0.47208 0.82572 0.03114
 C152 C 0.47434 0.84493 0.05700
 C153 C 0.47059 0.79687 0.09095
 C154 C 0.49811 0.71202 -0.02450
 C155 C 0.52164 0.68546 -0.02524
 C156 C 0.54999 0.71067 0.01407
 C157 C 0.52579 0.73671 0.01417
 N158 N 0.50023 0.73654 -0.00449
 H159 H 0.46674 0.75266 0.06739
 H160 H 0.47320 0.83691 0.00783
 H161 H 0.47634 0.87088 0.05324
 H162 H 0.47045 0.78472 0.11398
 H163 H 0.47742 0.71253 -0.03898
 H164 H 0.51918 0.66570 -0.04071
 H165 H 0.56951 0.71046 0.03001
 H166 H 0.52692 0.75648 0.02990
 C167 C 0.37711 0.70619 0.01240
 C168 C 0.45755 0.84050 -0.08805
 C169 C 0.54762 0.68423 -0.00524
 C170 C 0.47334 0.83055 0.08741
 C171 C 1.05576 0.46537 0.20981
 H172 H 1.04318 0.44397 0.21478
 C173 C 1.08116 0.46411 0.18766
 H174 H 1.08816 0.44165 0.17565
 C175 C 1.06116 0.52111 0.21844
 H176 H 1.05286 0.54350 0.22994
 C177 C 1.08620 0.52113 0.19597
 H178 H 1.09736 0.54342 0.19069
 N179 N 1.04667 0.49340 0.22513
 C180 C 0.99215 0.45666 0.30617
 H181 H 0.97072 0.47366 0.30472
 C182 C 0.99485 0.43270 0.33044
 H183 H 0.97544 0.43168 0.34774
 C184 C 1.04404 0.43866 0.28614
 H185 H 1.06352 0.44152 0.26938
 C186 C 1.04769 0.41422 0.30991
 H187 H 1.06970 0.39799 0.31048
 Zn188 Zn 1.01107 0.49402 0.25394
 N189 N 1.01648 0.45914 0.28456
 C190 C 0.96075 0.46155 0.23101
 N191 N 0.97464 0.49009 0.22995
 C192 C 0.96519 0.51499 0.20924
 C193 C 0.94067 0.51185 0.18863
 C194 C 0.93651 0.45716 0.21043
 C195 C 1.03330 0.53905 0.29212
 C196 C 1.03268 0.56641 0.31046
 C197 C 0.97760 0.58123 0.29684
 C198 C 0.97944 0.55369 0.27830
 N199 N 1.00707 0.53328 0.27631
 H200 H 0.96924 0.44170 0.24700
 H201 H 0.97723 0.53706 0.20827
 H202 H 0.93379 0.53170 0.17192
 H203 H 0.92603 0.43414 0.21117
 H204 H 1.05485 0.52222 0.29043
 H205 H 1.05418 0.57066 0.32225
 H206 H 0.95513 0.59662 0.29885
 H207 H 0.95856 0.54821 0.26623
 C208 C 1.02298 0.41110 0.33264
 C209 C 1.09652 0.49232 0.18043
 C210 C 1.00443 0.58779 0.31346
 C211 C 0.92634 0.48246 0.18878
 C212 C -0.04813 0.46325 0.80835
 H213 H -0.02834 0.44438 0.80564
 C214 C -0.06548 0.46550 0.83680
 H215 H -0.05936 0.44798 0.85587
 C216 C -0.07894 0.51030 0.78738
 H217 H -0.08325 0.52840 0.76848
 C218 C -0.09738 0.51306 0.81529
 H219 H -0.11608 0.53313 0.81763
 N220 N -0.05464 0.48586 0.78463
 C221 C -0.00663 0.44583 0.70037
 H222 H 0.01059 0.46345 0.69596
 C223 C -0.00878 0.42126 0.67922
 H224 H 0.00692 0.42008 0.65850
 C225 C -0.04925 0.42727 0.73194
 H226 H -0.06531 0.43017 0.75225
 C227 C -0.05246 0.40245 0.71117
 H228 H -0.07074 0.38599 0.71588
 Zn229 Zn -0.02432 0.48496 0.75085
 N230 N -0.02668 0.44838 0.72609
 C231 C 0.03980 0.45871 0.76436
 N232 N 0.01605 0.48329 0.76927
 C233 C 0.01887 0.50644 0.79052
 C234 C 0.04619 0.50524 0.80825
 C235 C 0.06781 0.45677 0.78141
 C236 C -0.05787 0.52508 0.70622
 C237 C -0.06175 0.54892 0.68198
 C238 C -0.01157 0.56792 0.69531
 C239 C -0.00856 0.54360 0.71920
 N240 N -0.03129 0.52244 0.72380
 H241 H 0.03680 0.44011 0.74787
 H242 H -0.00073 0.52525 0.79444
 H243 H 0.04716 0.52322 0.82593
 H244 H 0.08646 0.43705 0.77724
 H245 H -0.07532 0.50761 0.71010
 H246 H -0.08252 0.54996 0.66750
 H247 H 0.00755 0.58345 0.69093
 H248 H 0.01272 0.54065 0.73295
 C249 C -0.03216 0.39940 0.68430
 C250 C -0.09006 0.49096 0.84062
 C251 C -0.03797 0.57015 0.67576
 C252 C 0.07110 0.48004 0.80401
 C253 C 0.04081 0.18586 0.52603
 C254 C 0.06689 0.16232 0.52061
 C255 C 0.08013 0.15870 0.48989
 C256 C 0.06663 0.17815 0.46509
 C257 C 0.04065 0.20147 0.47065
 C258 C 0.02807 0.20683 0.50142
 C259 C 0.10636 0.13540 0.48436
 C260 C 0.11946 0.11552 0.50918
 C261 C 0.10608 0.11894 0.53991
 C262 C 0.07989 0.14233 0.54544
 C263 C 0.11912 0.09884 0.56460
 C264 C 0.14515 0.07553 0.55892
 C265 C 0.15874 0.07193 0.52846
 C266 C 0.14571 0.09219 0.50371
 H267 H 0.03046 0.18819 0.54958
 H268 H 0.07594 0.17508 0.44124
 H269 H 0.03024 0.21481 0.45049
 H270 H 0.11649 0.13267 0.46074
 H271 H 0.06967 0.14500 0.56904
 H272 H 0.10909 0.10101 0.58827
 H273 H 0.15432 0.05993 0.57834
 H274 H 0.15620 0.09007 0.48020
 C275 C 0.68787 0.54290 0.01975
 C276 C 0.66702 0.57124 0.01404
 C277 C 0.67912 0.60204 0.01099
 C278 C 0.71214 0.60375 0.01263
 C279 C 0.73284 0.57530 0.01795
 C280 C 0.72106 0.54445 0.02319
 C281 C 0.65805 0.63049 0.00596
 C282 C 0.62505 0.62837 0.00372
 C283 C 0.61316 0.59736 0.00598
 C284 C 0.63419 0.56905 0.01116
 C285 C 0.58033 0.59513 0.00334
 C286 C 0.55929 0.62339 -0.00100
 C287 C 0.57064 0.65443 -0.00272
 C288 C 0.60367 0.65674 -0.00054
 H289 H 0.67787 0.51968 0.02050
 H290 H 0.72201 0.62705 0.00959
 H291 H 0.75832 0.57734 0.01849
 H292 H 0.66730 0.65420 0.00388
 H293 H 0.62494 0.54533 0.01319
 H294 H 0.57087 0.57154 0.00501
 H295 H 0.53392 0.62102 -0.00216
 H296 H 0.61265 0.68057 -0.00210
 C297 C 0.96710 -0.23797 0.48981
 C298 C 0.94372 -0.21100 0.48652
 C299 C 0.95255 -0.17895 0.48876
 C300 C 0.98404 -0.17440 0.49531
 C301 C 1.00678 -0.20122 0.49963
 C302 C 0.99937 -0.23361 0.49556
 C303 C 0.92956 -0.15188 0.48570
 C304 C 0.89742 -0.15636 0.48160
 C305 C 0.88818 -0.18837 0.48003
 C306 C 0.91150 -0.21551 0.48194
 C307 C 0.85564 -0.19260 0.47738
 C308 C 0.83253 -0.16543 0.47698
 C309 C 0.84171 -0.13363 0.47831
 C310 C 0.87423 -0.12926 0.48017
 H311 H 0.96014 -0.26254 0.48850
 H312 H 0.99091 -0.15002 0.49822
 H313 H 1.02987 -0.19598 0.50722
 H314 H 0.93652 -0.12733 0.48743
 H315 H 0.90447 -0.24007 0.48066
 H316 H 0.84801 -0.21691 0.47631
 H317 H 0.80747 -0.16917 0.47568
 H318 H 0.88130 -0.10474 0.48179
 C319 C 0.28747 0.49458 0.97153
 C320 C 0.30879 0.46611 0.97431
 C321 C 0.29715 0.43574 0.98198
 C322 C 0.26414 0.43452 0.98674
 C323 C 0.24296 0.46309 0.98394
 C324 C 0.25385 0.49401 0.97601
 C325 C 0.31876 0.40729 0.98504
 C326 C 0.35190 0.40906 0.98048
 C327 C 0.36334 0.43966 0.97268
 C328 C 0.34179 0.46787 0.96969
 C329 C 0.39624 0.44168 0.96805
 C330 C 0.41780 0.41367 0.97103
 C331 C 0.40698 0.38299 0.97868
 C332 C 0.37387 0.38087 0.98355
 H333 H 0.29805 0.51703 0.96622
 H334 H 0.25464 0.41149 0.99293
 H335 H 0.21771 0.46108 0.98867
 H336 H 0.30984 0.38391 0.99103
 H337 H 0.35074 0.49128 0.96378
 H338 H 0.40534 0.46499 0.96221
 H339 H 0.44315 0.41610 0.96777
 H340 H 0.36524 0.35732 0.98931
 C341 C 0.96022 0.19289 0.48902
 C342 C 0.93677 0.17106 0.49377
 C343 C 0.92415 0.16496 0.52434
 C344 C 0.93572 0.18026 0.54966
 C345 C 0.95923 0.20176 0.54479
 C346 C 0.97101 0.20967 0.51421
 C347 C 0.90056 0.14327 0.52917
 C348 C 0.88949 0.12749 0.50375
 C349 C 0.90241 0.13339 0.47319
 C350 C 0.92594 0.15510 0.46840
 C351 C 0.89151 0.11752 0.44785
 C352 C 0.86779 0.09628 0.45259
 C353 C 0.85437 0.09049 0.48277
 C354 C 0.86561 0.10602 0.50835
 H355 H 0.97025 0.19690 0.46557
 H356 H 0.92698 0.17517 0.57340
 H357 H 0.96856 0.21144 0.56535
 H358 H 0.89085 0.13867 0.55267
 H359 H 0.93573 0.15964 0.44492
 H360 H 0.90129 0.12158 0.42431
 H361 H 0.86007 0.08416 0.43256
 H362 H 0.85535 0.10194 0.53169
 C363 C 0.25710 0.57253 -0.00178
 C364 C 0.27717 0.59787 -0.00426
 C365 C 0.29012 0.60719 -0.03393
 C366 C 0.28316 0.59088 -0.06053
 C367 C 0.26377 0.56538 -0.05785
 C368 C 0.24958 0.55609 -0.02862
 C369 C 0.31073 0.63191 -0.03650
 C370 C 0.31929 0.64694 -0.00962
 C371 C 0.30652 0.63765 0.02017
 C372 C 0.28522 0.61344 0.02262
 C373 C 0.31594 0.65217 0.04706
 C374 C 0.33845 0.67501 0.04451
 C375 C 0.35142 0.68412 0.01501
 C376 C 0.34131 0.67038 -0.01202
 H377 H 0.24822 0.56515 0.02129
 H378 H 0.29344 0.59725 -0.08336
 H379 H 0.26044 0.55220 -0.07874
 H380 H 0.32077 0.63885 -0.05931
 H381 H 0.27553 0.60621 0.04548
 H382 H 0.30643 0.64537 0.07009
 H383 H 0.34593 0.68544 0.06562
 H384 H 0.35164 0.67691 -0.03481
 C385 C 0.07165 -0.23522 0.47998
 C386 C 0.10018 -0.22097 0.48348
 C387 C 0.11745 -0.22750 0.51124
 C388 C 0.10687 -0.24974 0.53407
 C389 C 0.07794 -0.26306 0.53079
 C390 C 0.05841 -0.25375 0.50492
 C391 C 0.14441 -0.21103 0.51609
 C392 C 0.15371 -0.18735 0.49389
 C393 C 0.13698 -0.18165 0.46564
 C394 C 0.11065 -0.19885 0.46041
 C395 C 0.14609 -0.15790 0.44357
 C396 C 0.17070 -0.13903 0.44986
 C397 C 0.18697 -0.14370 0.47823
 C398 C 0.17870 -0.16844 0.49992
 H399 H 0.05813 -0.22957 0.45890
 H400 H 0.12050 -0.25615 0.55493
 H401 H 0.07099 -0.28033 0.54890
 H402 H 0.15732 -0.21564 0.53768
 H403 H 0.09743 -0.19389 0.43905
 H404 H 0.13352 -0.15321 0.42182
 H405 H 0.17618 -0.11989 0.43291
 H406 H 0.19126 -0.17252 0.52173
 C407 C 0.72983 0.45503 1.01678
 C408 C 0.70842 0.43109 1.02104
 C409 C 0.68591 0.43277 1.04647
 C410 C 0.68628 0.45749 1.06804
 C411 C 0.70678 0.48199 1.06288
 C412 C 0.72729 0.48255 1.03589
 C413 C 0.66269 0.41049 1.04922
 C414 C 0.66098 0.38741 1.02613
 C415 C 0.68404 0.38526 1.00112
 C416 C 0.70803 0.40663 0.99912
 C417 C 0.68195 0.36266 0.97777
 C418 C 0.65655 0.34323 0.97844
 C419 C 0.63296 0.34564 1.00274
 C420 C 0.63586 0.36731 1.02697
 H421 H 0.74729 0.45262 0.99756
 H422 H 0.66964 0.45880 1.08808
 H423 H 0.70517 0.50188 1.07894
 H424 H 0.64507 0.41213 1.06848
 H425 H 0.72533 0.40534 0.97958
 H426 H 0.69940 0.36075 0.95841
 H427 H 0.65484 0.32710 0.95929
 H428 H 0.61821 0.36904 1.04617
 C429 C 0.52193 0.06685 1.22061
 C430 C 0.51310 0.09340 1.19978
 C431 C 0.48434 0.09439 1.18340
 C432 C 0.46449 0.06932 1.18866
 C433 C 0.47368 0.04276 1.20886
 C434 C 0.50256 0.04075 1.22525
 C435 C 0.47656 0.11958 1.16093
 C436 C 0.49766 0.14332 1.15393
 C437 C 0.52607 0.14289 1.17082
 C438 C 0.53342 0.11817 1.19391
 C439 C 0.54727 0.16648 1.16347
 C440 C 0.54116 0.18929 1.13864
 C441 C 0.51358 0.18915 1.12089
 C442 C 0.49146 0.16663 1.12934
 H443 H 0.54482 0.06602 1.23156
 H444 H 0.44242 0.06959 1.17620
 H445 H 0.45851 0.02296 1.21113
 H446 H 0.45475 0.11991 1.14798
 H447 H 0.55552 0.11751 1.20644
 H448 H 0.56913 0.16657 1.17620
 H449 H 0.55876 0.20614 1.13249
 H450 H 0.46987 0.16660 1.11615
 C451 C -0.00394 0.69095 0.53352
 C452 C -0.01303 0.67557 0.56187
 C453 C -0.00863 0.69016 0.59056
 C454 C 0.00259 0.72113 0.59014
 C455 C 0.01154 0.73633 0.56168
 C456 C 0.01103 0.72026 0.53308
 C457 C -0.01505 0.67331 0.61907
 C458 C -0.02559 0.64194 0.61906
 C459 C -0.03158 0.62825 0.59023
 C460 C -0.02549 0.64524 0.56187
 C461 C -0.04243 0.59717 0.59013
 C462 C -0.04587 0.57904 0.61819
 C463 C -0.03859 0.59165 0.64692
 C464 C -0.02918 0.62352 0.64726
 H465 H -0.00819 0.67947 0.51190
 H466 H 0.00507 0.73331 0.61183
 H467 H 0.02044 0.76011 0.56209
 H468 H -0.01092 0.68412 0.64114
 H469 H -0.02929 0.63428 0.53978
 H470 H -0.04725 0.58641 0.56824
 H471 H -0.05282 0.55446 0.61724
 H472 H -0.02381 0.63356 0.66934
 C473 C 0.47563 0.98034 -0.21840
 C474 C 0.47779 0.95439 -0.19594
 C475 C 0.50773 0.94313 -0.18328
 C476 C 0.53496 0.95816 -0.19329
 C477 C 0.53260 0.98399 -0.21574
 C478 C 0.50315 0.99479 -0.22966
 C479 C 0.50980 0.91763 -0.16024
 C480 C 0.48219 0.90343 -0.14960
 C481 C 0.45226 0.91462 -0.16248
 C482 C 0.45027 0.93996 -0.18559
 C483 C 0.42469 0.90058 -0.15170
 C484 C 0.42658 0.87611 -0.12794
 C485 C 0.45608 0.86510 -0.11458
 C486 C 0.48391 0.87864 -0.12585
 H487 H 0.45224 0.98964 -0.22673
 H488 H 0.55802 0.95033 -0.18335
 H489 H 0.55392 0.99583 -0.22192
 H490 H 0.53276 0.90917 -0.15032
 H491 H 0.42726 0.94865 -0.19530
 H492 H 0.40160 0.90876 -0.16142
 H493 H 0.40489 0.86576 -0.11993
 H494 H 0.50673 0.87062 -0.11546
 C495 C 1.01779 0.27525 0.46961
 C496 C 1.01353 0.29902 0.44517
 C497 C 0.98316 0.30615 0.43196
 C498 C 0.95741 0.28984 0.44401
 C499 C 0.96185 0.26614 0.46843
 C500 C 0.99245 0.25734 0.48081
 C501 C 0.97898 0.32966 0.40715
 C502 C 1.00488 0.34616 0.39550
 C503 C 1.03519 0.33916 0.40904
 C504 C 1.03932 0.31568 0.43376
 C505 C 1.06096 0.35576 0.39762
 C506 C 1.05687 0.37905 0.37293
 C507 C 1.02697 0.38615 0.35896
 C508 C 1.00100 0.36953 0.37051
 H509 H 1.04117 0.27016 0.47974
 H510 H 0.93372 0.29560 0.43472
 H511 H 0.94100 0.25521 0.47774
 H512 H 0.95565 0.33510 0.39694
 H513 H 1.06264 0.31026 0.44403
 H514 H 1.08429 0.35084 0.40787
 H515 H 1.07713 0.39188 0.36506
 H516 H 0.97788 0.37444 0.35983
 C517 C 0.49605 0.95657 0.21755
 C518 C 0.49664 0.93560 0.19239
 C519 C 0.51715 0.94025 0.16598
 C520 C 0.53675 0.96578 0.16516
 C521 C 0.53589 0.98668 0.19015
 C522 C 0.51605 0.98225 0.21719
 C523 C 0.51718 0.91982 0.14048
 C524 C 0.49665 0.89499 0.14094
 C525 C 0.47623 0.89019 0.16746
 C526 C 0.47643 0.91045 0.19305
 C527 C 0.45567 0.86541 0.16778
 C528 C 0.45500 0.84584 0.14188
 C529 C 0.47492 0.85064 0.11525
 C530 C 0.49592 0.87514 0.11510
 H531 H 0.47899 0.95317 0.23666
 H532 H 0.55239 0.96995 0.14494
 H533 H 0.55081 1.00670 0.18844
 H534 H 0.53280 0.92355 0.12011
 H535 H 0.46062 0.90687 0.21330
 H536 H 0.43984 0.86142 0.18789
 H537 H 0.43837 0.82735 0.14243
 H538 H 0.51173 0.87873 0.09487
 C539 C -0.02347 0.27225 0.54955
 C540 C -0.02012 0.29286 0.57435
 C541 C 0.01066 0.29603 0.58539
 C542 C 0.03746 0.27842 0.57153
 C543 C 0.03388 0.25750 0.54723
 C544 C 0.00323 0.25306 0.53647
 C545 C 0.01421 0.31715 0.60974
 C546 C -0.01272 0.33494 0.62338
 C547 C -0.04362 0.33126 0.61277
 C548 C -0.04711 0.31039 0.58819
 C549 C -0.07050 0.34877 0.62676
 C550 C -0.06679 0.37022 0.65062
 C551 C -0.03615 0.37469 0.66079
 C552 C -0.00921 0.35666 0.64725
 H553 H -0.04705 0.27077 0.54051
 H554 H 0.06132 0.28109 0.57927
 H555 H 0.05543 0.24551 0.53648
 H556 H 0.03791 0.31986 0.61794
 H557 H -0.07078 0.30781 0.57985
 H558 H -0.09436 0.34618 0.61898
 H559 H -0.08786 0.38408 0.66051
 H560 H 0.01450 0.35969 0.65521
 C561 C 0.52053 0.06663 0.78400
 C562 C 0.51595 0.09002 0.80719
 C563 C 0.48465 0.10054 0.81832
 C564 C 0.45855 0.08699 0.80641
 C565 C 0.46335 0.06342 0.78356
 C566 C 0.49427 0.05378 0.77087
 C567 C 0.48004 0.12378 0.84171
 C568 C 0.50643 0.13631 0.85440
 C569 C 0.53778 0.12549 0.84342
 C570 C 0.54232 0.10257 0.81981
 C571 C 0.56415 0.13758 0.85644
 C572 C 0.55959 0.16002 0.88029
 C573 C 0.52859 0.17102 0.89140
 C574 C 0.50204 0.15918 0.87817
 H575 H 0.54476 0.05795 0.77661
 H576 H 0.43442 0.09412 0.81524
 H577 H 0.44272 0.05241 0.77609
 H578 H 0.45599 0.13183 0.85027
 H579 H 0.56639 0.09432 0.81142
 H580 H 0.58833 0.12957 0.84829
 H581 H 0.58037 0.16907 0.88988
 H582 H 0.47805 0.16725 0.88684
 C583 C 1.01248 0.71591 0.44649
 C584 C 1.01492 0.69072 0.42479
 C585 C 1.03376 0.66090 0.43174
 C586 C 1.05058 0.65700 0.45952
 C587 C 1.04777 0.68177 0.48098
 C588 C 1.02763 0.71112 0.47569
 C589 C 1.03542 0.63523 0.41098
 C590 C 1.01845 0.63879 0.38319
 C591 C 1.00004 0.66869 0.37568
 C592 C 0.99845 0.69456 0.39649
 C593 C 0.98335 0.67198 0.34760
 C594 C 0.98480 0.64586 0.32731
 C595 C 1.00286 0.61588 0.33473
 C596 C 1.01953 0.61268 0.36292
 H597 H 0.99857 0.73881 0.44048
 H598 H 1.06551 0.63448 0.46498
 H599 H 1.06055 0.67754 0.50262
 H600 H 1.04972 0.61232 0.41662
 H601 H 0.98406 0.71741 0.39091
 H602 H 0.96920 0.69473 0.34131
 H603 H 0.97203 0.64930 0.30562
 H604 H 1.03299 0.58961 0.36948
 C605 C 1.21206 0.50979 0.03155
 C606 C 1.18961 0.51155 0.05687
 C607 C 1.16266 0.53507 0.05573
 C608 C 1.15878 0.55651 0.02960
 C609 C 1.18044 0.55372 0.00410
 C610 C 1.20675 0.52918 0.00348
 C611 C 1.13996 0.53687 0.08067
 C612 C 1.14328 0.51461 0.10642
 C613 C 1.17002 0.49067 0.10755
 C614 C 1.19337 0.48971 0.08306
 C615 C 1.17256 0.46769 0.13287
 C616 C 1.14863 0.46819 0.15659
 C617 C 1.12220 0.49211 0.15575
 C618 C 1.11984 0.51547 0.13074
 H619 H 1.23359 0.49323 0.03422
 H620 H 1.13870 0.57533 0.02868
 H621 H 1.17621 0.57146 -0.01486
 H622 H 1.11936 0.55512 0.07971
 H623 H 1.21391 0.47139 0.08395
 H624 H 1.19279 0.44907 0.13409
 H625 H 1.15082 0.45002 0.17575
 H626 H 1.09923 0.53370 0.12980
 C627 C 0.54786 0.00048 0.71420
 C628 C 0.57320 0.00340 0.69223
 C629 C 0.58002 0.03473 0.68065
 C630 C 0.56127 0.06256 0.69116
 C631 C 0.53609 0.05944 0.71299
 C632 C 0.52961 0.02848 0.72588
 C633 C 0.60484 0.03771 0.65811
 C634 C 0.62273 0.00967 0.64670
 C635 C 0.61602 -0.02169 0.65844
 C636 C 0.59143 -0.02462 0.68121
 C637 C 0.63359 -0.04970 0.64673
 C638 C 0.65693 -0.04676 0.62293
 C639 C 0.66339 -0.01577 0.61061
 C640 C 0.64661 0.01243 0.62306
 H641 H 0.54205 -0.02375 0.72176
 H642 H 0.56569 0.08676 0.68207
 H643 H 0.52139 0.08145 0.71962
 H644 H 0.60983 0.06178 0.64904
 H645 H 0.58619 -0.04870 0.69002
 H646 H 0.62887 -0.07391 0.65554
 H647 H 0.66980 -0.06879 0.61386
 H648 H 0.65122 0.03640 0.61345
 C649 C -0.20257 0.51222 0.99254
 C650 C -0.18689 0.50907 0.96297
 C651 C -0.20486 0.50640 0.93599
 C652 C -0.23811 0.50672 0.93897
 C653 C -0.25339 0.50885 0.96844
 C654 C -0.23603 0.51074 0.99606
 C655 C -0.18936 0.50334 0.90643
 C656 C -0.15591 0.50202 0.90356
 C657 C -0.13779 0.50408 0.93061
 C658 C -0.15341 0.50812 0.96005
 C659 C -0.10428 0.50169 0.92780
 C660 C -0.08886 0.49711 0.89851
 C661 C -0.10669 0.49546 0.87149
 C662 C -0.14025 0.49819 0.87410
 H663 H -0.18833 0.51598 1.01238
 H664 H -0.25233 0.50491 0.91853
 H665 H -0.27915 0.50850 0.96983
 H666 H -0.20327 0.50150 0.88575
 H667 H -0.13948 0.50987 0.98074
 H668 H -0.08999 0.50311 0.94826
 H669 H -0.06294 0.49526 0.89684
 H670 H -0.15404 0.49666 0.85329
 C671 C 0.46257 0.01984 0.27892
 C672 C 0.44266 0.01113 0.30436
 C673 C 0.45173 -0.01709 0.32330
 C674 C 0.47988 -0.03685 0.31577
 C675 C 0.49880 -0.02887 0.28960
 C676 C 0.49060 -0.00049 0.27045
 C677 C 0.43249 -0.02511 0.34946
 C678 C 0.40353 -0.00605 0.35610
 C679 C 0.39370 0.02126 0.33628
 C680 C 0.41364 0.03015 0.31095
 C681 C 0.36391 0.03905 0.34195
 C682 C 0.34402 0.02991 0.36704
 C683 C 0.35393 0.00347 0.38782
 C684 C 0.38409 -0.01419 0.38208
 H685 H 0.45593 0.04272 0.26632
 H686 H 0.48717 -0.05867 0.32997
 H687 H 0.52030 -0.04488 0.28428
 H688 H 0.43980 -0.04647 0.36433
 H689 H 0.40631 0.05148 0.29607
 H690 H 0.35573 0.05973 0.32665
 H691 H 0.32071 0.04354 0.36979
 H692 H 0.39287 -0.03416 0.39785
 C693 C 0.20075 0.49797 0.92990
 C694 C 0.17962 0.49966 0.90490
 C695 C 0.16662 0.53043 0.89268
 C696 C 0.17507 0.55889 0.90533
 C697 C 0.19537 0.55704 0.93053
 C698 C 0.20859 0.52662 0.94409
 C699 C 0.14482 0.53235 0.86844
 C700 C 0.13493 0.50377 0.85688
 C701 C 0.14796 0.47283 0.86885
 C702 C 0.17063 0.47094 0.89244
 C703 C 0.13731 0.44437 0.85767
 C704 C 0.11303 0.44661 0.83584
 C705 C 0.09934 0.47735 0.82439
 C706 C 0.11126 0.50579 0.83438
 H707 H 0.21035 0.47396 0.93778
 H708 H 0.16546 0.58276 0.89613
 H709 H 0.20057 0.58010 0.93946
 H710 H 0.13473 0.55611 0.85930
 H711 H 0.18045 0.44718 0.90179
 H712 H 0.14698 0.42042 0.86658
 H713 H 0.10417 0.42427 0.82887
 H714 H 0.10149 0.52964 0.82528
 C715 C 0.54793 0.02979 0.28432
 C716 C 0.57475 0.02730 0.30327
 C717 C 0.60196 0.00569 0.29541
 C718 C 0.60168 -0.01340 0.26909
 C719 C 0.57418 -0.01240 0.25154
 C720 C 0.54665 0.00931 0.25863
 C721 C 0.62837 0.00213 0.31490
 C722 C 0.62709 0.01838 0.34324
 C723 C 0.59961 0.03954 0.35145
 C724 C 0.57399 0.04462 0.33099
 C725 C 0.59773 0.05430 0.38054
 C726 C 0.62239 0.04747 0.40168
 C727 C 0.65005 0.02654 0.39382
 C728 C 0.65236 0.01270 0.36406
 H729 H 0.52700 0.04619 0.29070
 H730 H 0.62216 -0.03054 0.26307
 H731 H 0.57467 -0.02993 0.23339
 H732 H 0.64922 -0.01454 0.30881
 H733 H 0.55288 0.06080 0.33736
 H734 H 0.57669 0.07031 0.38739
 H735 H 0.61924 0.05803 0.42453
 H736 H 0.67360 -0.00293 0.35712
 C737 C 0.79113 0.49036 0.06335
 C738 C 0.81181 0.49237 0.08827
 C739 C 0.80767 0.51982 0.10740
 C740 C 0.78214 0.54387 0.10230
 C741 C 0.76164 0.54163 0.07765
 C742 C 0.76684 0.51592 0.05638
 C743 C 0.82899 0.52281 0.13142
 C744 C 0.85446 0.49857 0.13673
 C745 C 0.85809 0.47049 0.11832
 C746 C 0.83679 0.46759 0.09415
 C747 C 0.88323 0.44598 0.12420
 C748 C 0.90490 0.44954 0.14766
 C749 C 0.90203 0.47780 0.16545
 C750 C 0.87654 0.50212 0.16000
 H751 H 0.79445 0.46931 0.04863
 H752 H 0.77789 0.56447 0.11749
 H753 H 0.74156 0.56019 0.07590
 H754 H 0.82593 0.54415 0.14580
 H755 H 0.83987 0.44630 0.07972
 H756 H 0.88635 0.42423 0.11045
 H757 H 0.92449 0.43059 0.15136
 H758 H 0.87398 0.52382 0.17386
 C759 C 0.46744 -0.00511 0.71090
 C760 C 0.44355 -0.00623 0.68893
 C761 C 0.42508 0.02293 0.67933
 C762 C 0.43135 0.05275 0.69132
 C763 C 0.45520 0.05363 0.71319
 C764 C 0.47258 0.02456 0.72465
 C765 C 0.40108 0.02192 0.65746
 C766 C 0.39553 -0.00790 0.64481
 C767 C 0.41416 -0.03708 0.65423
 C768 C 0.43800 -0.03608 0.67630
 C769 C 0.40876 -0.06673 0.64120
 C770 C 0.38548 -0.06742 0.61867
 C771 C 0.36694 -0.03853 0.60889
 C772 C 0.37190 -0.00889 0.62254
 H773 H 0.48204 -0.02752 0.71741
 H774 H 0.41802 0.07549 0.68355
 H775 H 0.46006 0.07727 0.72103
 H776 H 0.38694 0.04436 0.65006
 H777 H 0.45228 -0.05849 0.68357
 H778 H 0.42287 -0.08932 0.64810
 H779 H 0.38255 -0.09051 0.60835
 H780 H 0.35742 0.01352 0.61579
   
