data_POSCAR
  _audit_creation_date              2014-09-24
  _audit_creation_method            'ToBaCCo'
  _symmetry_space_group_name_H-M    'P1'
  _symmetry_Int_Tables_number       1
  _symmetry_cell_setting            triclinic
  loop_
  _symmetry_equiv_pos_as_xyz
 x,y,z
_cell_length_a 34.7033
_cell_length_b 34.2901
_cell_length_c 32.1488
_cell_angle_alpha 95.354500
_cell_angle_beta 96.369900
_cell_angle_gamma 90.906900
loop_
  _atom_site_label
  _atom_site_type_symbol
  _atom_site_fract_x
  _atom_site_fract_y
  _atom_site_fract_z
N1 N 0.17024 1.25495 0.14505
 N2 N 0.14527 1.25280 0.17258
 C3 C 0.11929 1.28124 0.16776
 C4 C 0.12824 1.30232 0.13497
 C5 C 0.16102 1.28455 0.12153
 H6 H 0.09520 1.28537 0.18617
 H7 H 0.17699 1.29189 0.09622
 Cu8 Cu 0.14742 1.21122 0.20989
 Cu9 Cu 0.21129 1.21771 0.13978
 Cu10 Cu 0.23077 1.16230 0.22413
 N11 N 0.15802 1.17871 0.25590
 N12 N 0.19092 1.16062 0.26211
 C13 C 0.18996 1.13947 0.29521
 C14 C 0.15428 1.14427 0.31066
 C15 C 0.13495 1.16972 0.28477
 H16 H 0.21309 1.12086 0.30595
 H17 H 0.10605 1.18062 0.28613
 N18 N 0.26671 1.16738 0.18141
 N19 N 0.25878 1.18787 0.14893
 C20 C 0.28724 1.18347 0.12383
 C21 C 0.31438 1.15864 0.14101
 C22 C 0.30038 1.14909 0.17762
 H23 H 0.28732 1.19617 0.09431
 H24 H 0.31313 1.12936 0.19927
 H25 H 0.19380 1.17182 0.17268
 H26 H 0.21645 1.21660 0.20390
 N27 N 0.81490 0.73048 0.14312
 N28 N 0.83920 0.72344 0.17574
 C29 C 0.86382 0.69580 0.16390
 C30 C 0.85457 0.68463 0.12140
 C31 C 0.82315 0.70718 0.10927
 H32 H 0.88683 0.68480 0.18478
 H33 H 0.80791 0.70719 0.07806
 Cu34 Cu 0.83805 0.75220 0.23023
 Cu35 Cu 0.77503 0.76997 0.14749
 Cu36 Cu 0.77016 0.81739 0.24741
 N37 N 0.84531 0.79200 0.27766
 N38 N 0.81801 0.81682 0.28529
 C39 C 0.83071 0.84180 0.31901
 C40 C 0.86871 0.83285 0.33279
 C41 C 0.87668 0.80067 0.30569
 H42 H 0.81425 0.86623 0.33049
 H43 H 0.90352 0.78517 0.30526
 N44 N 0.73432 0.82725 0.19790
 N45 N 0.73672 0.81050 0.15962
 C46 C 0.71056 0.82663 0.13251
 C47 C 0.69106 0.85515 0.15480
 C48 C 0.70687 0.85442 0.19618
 H49 H 0.70700 0.81925 0.09885
 H50 H 0.69991 0.87315 0.22310
 H51 H 0.80294 0.80443 0.19881
 H52 H 0.76926 0.76439 0.20874
 N53 N 0.78069 1.26772 -0.16528
 N54 N 0.80527 1.26890 -0.19346
 C55 C 0.82534 1.30328 -0.18662
 C56 C 0.81293 1.32473 -0.15208
 C57 C 0.78427 1.30121 -0.13966
 H58 H 0.84968 1.31061 -0.20297
 H59 H 0.76910 1.30671 -0.11220
 Cu60 Cu 0.81343 1.22262 -0.23112
 Cu61 Cu 0.75169 1.22006 -0.15880
 Cu62 Cu 0.75916 1.14005 -0.23156
 N63 N 0.82096 1.17601 -0.26839
 N64 N 0.79923 1.14418 -0.26920
 C65 C 0.81159 1.11620 -0.29651
 C66 C 0.84325 1.13108 -0.31358
 C67 C 0.84807 1.16931 -0.29484
 H68 H 0.79926 1.08680 -0.30207
 H69 H 0.86996 1.19071 -0.29942
 N70 N 0.72112 1.14203 -0.19001
 N71 N 0.71875 1.17239 -0.16206
 C72 C 0.69214 1.16419 -0.13654
 C73 C 0.67710 1.12673 -0.14860
 C74 C 0.69600 1.11364 -0.18285
 H75 H 0.68457 1.18394 -0.11070
 H76 H 0.69279 1.08500 -0.20019
 H77 H 0.78744 1.17830 -0.18543
 H78 H 0.74887 1.19927 -0.22141
 N79 N 0.18413 0.73633 -0.15010
 N80 N 0.15445 0.73473 -0.17941
 C81 C 0.12972 0.70571 -0.17288
 C82 C 0.14487 0.68828 -0.13744
 C83 C 0.17945 0.70876 -0.12403
 H84 H 0.10241 0.69850 -0.19187
 H85 H 0.19956 0.70488 -0.09668
 Cu86 Cu 0.15022 0.77360 -0.22027
 Cu87 Cu 0.22541 0.77590 -0.14498
 Cu88 Cu 0.23085 0.82459 -0.23359
 N89 N 0.14911 0.81358 -0.25975
 N90 N 0.18059 0.83406 -0.26369
 C91 C 0.17192 0.86079 -0.29103
 C92 C 0.13264 0.85714 -0.30534
 C93 C 0.11922 0.82648 -0.28483
 H94 H 0.19309 0.88103 -0.29983
 H95 H 0.08976 0.81519 -0.28683
 N96 N 0.27420 0.82401 -0.18866
 N97 N 0.27177 0.80581 -0.15466
 C98 C 0.30468 0.81273 -0.12854
 C99 C 0.32897 0.83696 -0.14663
 C100 C 0.30861 0.84355 -0.18483
 H101 H 0.30973 0.80254 -0.09763
 H102 H 0.31745 0.86237 -0.20743
 H103 H 0.20191 0.81746 -0.18380
 H104 H 0.22098 0.77132 -0.20847
 C105 C 0.48048 1.03273 0.04223
 C106 C 0.50719 1.00335 0.06361
 C107 C 0.52953 0.98281 0.03735
 C108 C 0.52323 0.99363 -0.00829
 C109 C 0.50858 1.05853 0.02235
 C110 C 0.53084 1.03828 -0.00423
 C111 C 0.45742 1.00864 0.00510
 C112 C 0.47949 0.98828 -0.02112
 H113 H 0.50963 1.00037 0.09697
 H114 H 0.54118 0.97696 -0.02992
 H115 H 0.51124 1.08999 0.02951
 H116 H 0.42600 1.00670 0.00080
 C117 C 0.03067 0.46971 1.00574
 C118 C 0.05105 0.49513 0.97745
 C119 C 0.02759 0.52083 0.95753
 C120 C -0.01479 0.51836 0.96728
 C121 C 0.01237 0.49988 1.03552
 C122 C -0.01157 0.52525 1.01562
 C123 C -0.00354 0.44998 0.97730
 C124 C -0.02720 0.47505 0.95725
 H125 H 0.08199 0.49507 0.97593
 H126 H -0.03427 0.53875 0.95082
 H127 H 0.01842 0.50138 1.06939
 H128 H -0.00885 0.41854 0.97366
 C129 C 1.03813 0.04721 0.47764
 C130 C 1.01379 0.07263 0.50610
 C131 C 0.99435 0.05246 0.53220
 C132 C 1.00127 0.00812 0.52771
 C133 C 1.06486 0.02551 0.50873
 C134 C 1.04575 0.00493 0.53494
 C135 C 1.00994 0.01543 0.45498
 C136 C 0.99071 -0.00486 0.48086
 H137 H 1.01225 0.10407 0.50542
 H138 H 0.98539 -0.00854 0.54867
 H139 H 1.09606 0.02632 0.51040
 H140 H 1.00566 0.00938 0.42106
 C141 C 0.07479 0.34851 1.13507
 C142 C 0.10782 0.33349 1.11785
 C143 C 0.11953 0.34992 1.08246
 C144 C 0.09850 0.37982 1.06432
 C145 C 0.06542 0.39426 1.08177
 C146 C 0.05391 0.37853 1.11726
 C147 C 0.04408 0.42376 1.06309
 C148 C 0.05565 0.43965 1.02737
 C149 C 0.08809 0.42389 1.00964
 C150 C 0.10955 0.39479 1.02825
 H151 H 0.14460 0.33929 1.06815
 H152 H 0.02856 0.38926 1.13112
 H153 H 0.01802 0.43376 1.07596
 H154 H 0.13441 0.38343 1.01388
 H155 H 0.06466 0.33722 1.16232
 H156 H 0.09661 0.43309 0.98067
 C157 C -0.14368 0.63766 1.05669
 C158 C -0.12527 0.65545 1.09511
 C159 C -0.08736 0.64476 1.10882
 C160 C -0.06836 0.61626 1.08514
 C161 C -0.08730 0.59796 1.04697
 C162 C -0.12490 0.60909 1.03287
 C163 C -0.06846 0.56860 1.02392
 C164 C -0.03101 0.55729 1.03877
 C165 C -0.01228 0.57641 1.07636
 C166 C -0.03076 0.60555 1.09933
 H167 H -0.07241 0.65864 1.13793
 H168 H -0.13989 0.59547 1.00364
 H169 H -0.08334 0.55391 0.99516
 H170 H -0.01571 0.61956 1.12836
 H171 H -0.17289 0.64524 1.04540
 H172 H 0.01689 0.56899 1.08803
 C173 C -0.17022 0.36714 0.91547
 C174 C -0.16716 0.35970 0.87220
 C175 C -0.14183 0.38344 0.85347
 C176 C -0.11756 0.41189 0.87823
 C177 C -0.11907 0.41697 0.92216
 C178 C -0.14641 0.39550 0.94021
 C179 C -0.09144 0.44133 0.94767
 C180 C -0.06207 0.46027 0.92991
 C181 C -0.06231 0.45753 0.88614
 C182 C -0.09004 0.43356 0.86034
 H183 H -0.13963 0.37856 0.82004
 H184 H -0.14812 0.39931 0.97379
 H185 H -0.09093 0.44329 0.98161
 H186 H -0.08858 0.43026 0.82670
 H187 H -0.18944 0.34962 0.93092
 H188 H -0.03946 0.47172 0.87219
 C189 C 0.14900 0.64175 0.91835
 C190 C 0.12768 0.65636 0.88355
 C191 C 0.09008 0.64062 0.86990
 C192 C 0.07413 0.61113 0.89106
 C193 C 0.09600 0.59741 0.92619
 C194 C 0.13330 0.61281 0.93948
 C195 C 0.08038 0.56844 0.94771
 C196 C 0.04321 0.55197 0.93440
 C197 C 0.02139 0.56579 0.89955
 C198 C 0.03671 0.59515 0.87804
 H199 H 0.07311 0.65134 0.84321
 H200 H 0.15048 0.60240 0.96628
 H201 H 0.09719 0.55922 0.97535
 H202 H 0.01939 0.60522 0.85117
 H203 H 0.17803 0.65252 0.92968
 H204 H -0.00728 0.55353 0.88856
 C205 C 1.16354 0.10059 0.36717
 C206 C 1.14007 0.12580 0.34360
 C207 C 1.10168 0.13134 0.35312
 C208 C 1.08686 0.11150 0.38436
 C209 C 1.11062 0.08607 0.40724
 C210 C 1.14899 0.08105 0.39858
 C211 C 1.09550 0.06558 0.43792
 C212 C 1.05671 0.07030 0.44635
 C213 C 1.03334 0.09537 0.42261
 C214 C 1.04829 0.11601 0.39237
 H215 H 1.08267 0.15040 0.33589
 H216 H 1.16774 0.06172 0.41588
 H217 H 1.11398 0.04533 0.45386
 H218 H 1.02946 0.13508 0.37479
 H219 H 1.19326 0.09555 0.36155
 H220 H 1.00309 0.09874 0.42725
 C221 C 1.07295 -0.13069 0.64946
 C222 C 1.11137 -0.12003 0.66625
 C223 C 1.12817 -0.08577 0.65402
 C224 C 1.10740 -0.06295 0.62574
 C225 C 1.06937 -0.07457 0.60834
 C226 C 1.05237 -0.10843 0.62054
 C227 C 1.04915 -0.05224 0.57893
 C228 C 1.06632 -0.01802 0.56721
 C229 C 1.10377 -0.00620 0.58600
 C230 C 1.12418 -0.02856 0.61465
 H231 H 1.15724 -0.07607 0.66687
 H232 H 1.02314 -0.11776 0.60768
 H233 H 1.02052 -0.06209 0.56458
 H234 H 1.15314 -0.01890 0.62819
 H235 H 1.05880 -0.15674 0.65774
 H236 H 1.11744 0.02054 0.57877
 C237 C 0.93460 -0.15372 0.36801
 C238 C 0.89469 -0.14562 0.36385
 C239 C 0.88184 -0.11409 0.38988
 C240 C 0.90845 -0.08966 0.41695
 C241 C 0.94854 -0.09669 0.41825
 C242 C 0.96118 -0.12936 0.39462
 C243 C 0.97540 -0.06998 0.44171
 C244 C 0.96264 -0.03647 0.46404
 C245 C 0.92284 -0.03081 0.46488
 C246 C 0.89583 -0.05725 0.44143
 H247 H 0.85131 -0.10771 0.38859
 H248 H 0.99181 -0.13546 0.39575
 H249 H 1.00625 -0.07421 0.44113
 H250 H 0.86519 -0.05153 0.44112
 H251 H 0.94601 -0.17781 0.34939
 H252 H 0.91273 -0.00483 0.48176
 C253 C 0.85675 0.07301 0.63980
 C254 C 0.86636 0.11152 0.65789
 C255 C 0.89997 0.13000 0.64706
 C256 C 0.92338 0.11064 0.61928
 C257 C 0.91323 0.07223 0.60129
 C258 C 0.87982 0.05371 0.61173
 C259 C 0.93659 0.05312 0.57309
 C260 C 0.97003 0.07202 0.56273
 C261 C 0.98006 0.11006 0.58149
 C262 C 0.95693 0.12921 0.60934
 H263 H 0.90864 0.15936 0.66037
 H264 H 0.87151 0.02424 0.59824
 H265 H 0.92825 0.02395 0.55870
 H266 H 0.96536 0.15857 0.62316
 H267 H 0.83122 0.05756 0.64682
 H268 H 1.00610 0.12505 0.57500
 C269 C 0.36255 1.16012 0.08848
 C270 C 0.34837 1.14251 0.12175
 C271 C 0.36564 1.10825 0.13495
 C272 C 0.39553 1.09102 0.11421
 C273 C 0.40882 1.10845 0.08019
 C274 C 0.39250 1.14329 0.06793
 C275 C 0.43734 1.09018 0.05814
 C276 C 0.45339 1.05475 0.06981
 C277 C 0.43937 1.03755 0.10355
 C278 C 0.41122 1.05576 0.12585
 H279 H 0.35499 1.09403 0.16027
 H280 H 0.40245 1.15719 0.04200
 H281 H 0.44593 1.10293 0.03088
 H282 H 0.40089 1.04160 0.15142
 H283 H 0.35031 1.18680 0.07795
 H284 H 0.44896 1.00924 0.11206
 C285 C 0.62821 1.07177 -0.14835
 C286 C 0.64885 1.10489 -0.12749
 C287 C 0.64247 1.11714 -0.08590
 C288 C 0.61569 1.09708 -0.06558
 C289 C 0.59474 1.06409 -0.08690
 C290 C 0.60133 1.05160 -0.12828
 C291 C 0.56741 1.04449 -0.06656
 C292 C 0.56069 1.05772 -0.02531
 C293 C 0.58226 1.09019 -0.00431
 C294 C 0.60947 1.10967 -0.02423
 H295 H 0.65854 1.14214 -0.06898
 H296 H 0.58558 1.02637 -0.14518
 H297 H 0.55076 1.01967 -0.08317
 H298 H 0.62553 1.13472 -0.00733
 H299 H 0.63242 1.06171 -0.18041
 H300 H 0.57829 1.10046 0.02777
 C301 C 0.38656 0.84008 -0.09213
 C302 C 0.36551 0.85635 -0.12595
 C303 C 0.37753 0.89298 -0.13703
 C304 C 0.40797 0.91457 -0.11235
 C305 C 0.42751 0.89874 -0.07699
 C306 C 0.41746 0.86095 -0.06805
 C307 C 0.45466 0.92202 -0.04945
 C308 C 0.46140 0.96122 -0.05611
 C309 C 0.44348 0.97621 -0.09227
 C310 C 0.41732 0.95285 -0.12060
 H311 H 0.36155 0.90599 -0.16291
 H312 H 0.43231 0.84825 -0.04129
 H313 H 0.46801 0.91083 -0.02098
 H314 H 0.40270 0.96547 -0.14754
 H315 H 0.37843 0.81158 -0.08345
 H316 H 0.44813 1.00665 -0.09729
 C317 C 0.65426 0.91709 0.16296
 C318 C 0.66198 0.88273 0.13811
 C319 C 0.64201 0.87536 0.09744
 C320 C 0.61455 0.90180 0.08208
 C321 C 0.60716 0.93605 0.10761
 C322 C 0.62722 0.94346 0.14786
 C323 C 0.57976 0.96242 0.09262
 C324 C 0.55907 0.95503 0.05244
 C325 C 0.56674 0.92107 0.02705
 C326 C 0.59424 0.89464 0.04174
 H327 H 0.64744 0.84899 0.07791
 H328 H 0.62197 0.96969 0.16775
 H329 H 0.57490 0.98895 0.11221
 H330 H 0.59943 0.86852 0.02168
 H331 H 0.66942 0.92408 0.19407
 H332 H 0.55096 0.91453 -0.00388
   
