data_POSCAR
  _audit_creation_date              2014-09-24
  _audit_creation_method            'ToBaCCo'
  _symmetry_space_group_name_H-M    'P1'
  _symmetry_Int_Tables_number       1
  _symmetry_cell_setting            triclinic
  loop_
  _symmetry_equiv_pos_as_xyz
 x,y,z
_cell_length_a 30.2883
_cell_length_b 31.9086
_cell_length_c 29.6496
_cell_angle_alpha 90.240700
_cell_angle_beta 91.200800
_cell_angle_gamma 91.112300
loop_
  _atom_site_label
  _atom_site_type_symbol
  _atom_site_fract_x
  _atom_site_fract_y
  _atom_site_fract_z
N1 N 0.14609 0.20187 0.24763
 N2 N 0.15906 0.16393 0.23786
 C3 C 0.13928 0.13598 0.26509
 C4 C 0.11319 0.15790 0.29432
 C5 C 0.11821 0.19968 0.28225
 H6 H 0.14575 0.10275 0.26558
 H7 H 0.10382 0.22661 0.29811
 Cu8 Cu 0.20581 0.15652 0.19573
 Cu9 Cu 0.17008 0.25111 0.21696
 Cu10 Cu 0.22658 0.22976 0.11813
 N11 N 0.26212 0.16059 0.16673
 N12 N 0.26896 0.18485 0.13170
 C13 C 0.30933 0.17655 0.11533
 C14 C 0.32917 0.14756 0.14378
 C15 C 0.29823 0.13847 0.17593
 H16 H 0.32414 0.19236 0.08702
 H17 H 0.30078 0.11573 0.20279
 N18 N 0.19737 0.28402 0.12952
 N19 N 0.18000 0.29276 0.16895
 C20 C 0.16521 0.33214 0.16834
 C21 C 0.17274 0.34901 0.12647
 C22 C 0.19280 0.31761 0.10225
 H23 H 0.14757 0.34667 0.19543
 H24 H 0.20327 0.31909 0.06763
 H25 H 0.17109 0.21632 0.15908
 H26 H 0.22551 0.23049 0.18555
 N27 N -0.10728 0.83283 0.21121
 N28 N -0.12749 0.86874 0.20457
 C29 C -0.11911 0.89404 0.24045
 C30 C -0.09331 0.87265 0.27131
 C31 C -0.08631 0.83415 0.25163
 H32 H -0.13471 0.92379 0.24599
 H33 H -0.07000 0.80792 0.26726
 Cu34 Cu -0.17306 0.87667 0.15639
 Cu35 Cu -0.11555 0.78331 0.17150
 Cu36 Cu -0.19688 0.79074 0.09570
 N37 N -0.22916 0.86988 0.12264
 N38 N -0.23906 0.83418 0.10224
 C39 C -0.28119 0.83405 0.08782
 C40 C -0.29868 0.87222 0.09858
 C41 C -0.26466 0.89482 0.11998
 H42 H -0.29774 0.80797 0.07073
 H43 H -0.26655 0.92550 0.13541
 N44 N -0.16351 0.74056 0.09999
 N45 N -0.12957 0.73828 0.12813
 C46 C -0.11109 0.70053 0.12329
 C47 C -0.13572 0.67811 0.09126
 C48 C -0.16876 0.70428 0.07721
 H49 H -0.08268 0.68978 0.14237
 H50 H -0.19414 0.69770 0.05182
 H51 H -0.13358 0.83044 0.12931
 H52 H -0.17598 0.81378 0.17042
 N53 N -0.14123 0.17503 -0.25431
 N54 N -0.16042 0.13821 -0.24860
 C55 C -0.14983 0.11229 -0.28231
 C56 C -0.12324 0.13427 -0.31128
 C57 C -0.11826 0.17404 -0.29271
 H58 H -0.16370 0.08111 -0.28756
 H59 H -0.10060 0.20052 -0.30681
 Cu60 Cu -0.20519 0.13048 -0.20444
 Cu61 Cu -0.14895 0.22106 -0.21153
 Cu62 Cu -0.22689 0.20334 -0.12788
 N63 N -0.26167 0.13183 -0.17593
 N64 N -0.26919 0.15762 -0.14245
 C65 C -0.30840 0.14698 -0.12436
 C66 C -0.32681 0.11397 -0.14952
 C67 C -0.29638 0.10559 -0.18219
 H68 H -0.32264 0.16239 -0.09568
 H69 H -0.29784 0.08042 -0.20676
 N70 N -0.19075 0.25567 -0.13221
 N71 N -0.16133 0.26246 -0.16383
 C72 C -0.14083 0.29977 -0.15592
 C73 C -0.15858 0.31748 -0.11800
 C74 C -0.19021 0.28879 -0.10392
 H75 H -0.11407 0.31264 -0.17545
 H76 H -0.21020 0.29116 -0.07426
 H77 H -0.16825 0.18520 -0.15785
 H78 H -0.21345 0.20525 -0.19476
 N79 N 0.14994 0.84260 -0.26526
 N80 N 0.16813 0.87640 -0.24656
 C81 C 0.16738 0.90795 -0.27644
 C82 C 0.14702 0.89352 -0.31576
 C83 C 0.13603 0.85195 -0.30757
 H84 H 0.18119 0.93902 -0.27032
 H85 H 0.12109 0.82974 -0.33126
 Cu86 Cu 0.19334 0.87643 -0.18574
 Cu87 Cu 0.15126 0.78827 -0.23458
 Cu88 Cu 0.17880 0.79220 -0.12092
 N89 N 0.22893 0.86826 -0.13109
 N90 N 0.22412 0.83414 -0.10687
 C91 C 0.25618 0.83310 -0.07492
 C92 C 0.28245 0.86865 -0.07925
 C93 C 0.26382 0.89077 -0.11467
 H94 H 0.26082 0.80758 -0.05150
 H95 H 0.27681 0.91915 -0.12972
 N96 N 0.15148 0.74282 -0.14948
 N97 N 0.14346 0.73986 -0.19333
 C98 C 0.12989 0.70023 -0.20291
 C99 C 0.12939 0.67772 -0.16300
 C100 C 0.14279 0.70576 -0.12989
 H101 H 0.12091 0.68866 -0.23625
 H102 H 0.14756 0.69926 -0.09436
 H103 H 0.14155 0.81731 -0.17560
 H104 H 0.19925 0.80054 -0.18536
 N105 N 0.15159 1.13817 0.75066
 N106 N 0.12201 1.16448 0.76484
 C107 C 0.08972 1.16800 0.73328
 C108 C 0.09937 1.14178 0.69789
 C109 C 0.13853 1.12298 0.71007
 H110 H 0.06116 1.18760 0.73621
 H111 H 0.15659 1.10062 0.69048
 Cu112 Cu 0.12850 1.19112 0.82323
 Cu113 Cu 0.20526 1.12695 0.78562
 Cu114 Cu 0.23054 1.20092 0.86903
 N115 N 0.14262 1.23330 0.86820
 N116 N 0.18339 1.23950 0.88320
 C117 C 0.18603 1.27664 0.90494
 C118 C 0.14454 1.29411 0.90357
 C119 C 0.11775 1.26562 0.88055
 H120 H 0.21629 1.29106 0.91803
 H121 H 0.08411 1.27040 0.86899
 N122 N 0.27270 1.15825 0.84950
 N123 N 0.26339 1.13129 0.81654
 C124 C 0.29841 1.10677 0.81049
 C125 C 0.33093 1.11821 0.84170
 C126 C 0.31353 1.15067 0.86618
 H127 H 0.29937 1.08104 0.78670
 H128 H 0.32919 1.16696 0.89449
 H129 H 0.19170 1.15025 0.84994
 H130 H 0.20590 1.18835 0.80478
 N131 N 0.83167 0.86394 0.75786
 N132 N 0.86640 0.83997 0.75573
 C133 C 0.88550 0.84483 0.71539
 C134 C 0.86079 0.87268 0.69059
 C135 C 0.82685 0.88420 0.71838
 H136 H 0.91315 0.82707 0.70376
 H137 H 0.80019 0.90506 0.71006
 Cu138 Cu 0.87779 0.79872 0.80173
 Cu139 Cu 0.79469 0.86581 0.81138
 Cu140 Cu 0.81578 0.79068 0.89332
 N141 N 0.87431 0.74703 0.83549
 N142 N 0.85136 0.74414 0.87254
 C143 C 0.85559 0.70526 0.88961
 C144 C 0.88156 0.68265 0.86082
 C145 C 0.89278 0.70995 0.82685
 H146 H 0.83972 0.69391 0.91967
 H147 H 0.91291 0.70336 0.79804
 N148 N 0.76946 0.83319 0.89908
 N149 N 0.76184 0.86238 0.86854
 C150 C 0.72687 0.88489 0.88133
 C151 C 0.71133 0.86854 0.92124
 C152 C 0.73898 0.83573 0.93137
 H153 H 0.71169 0.90926 0.86147
 H154 H 0.73575 0.81402 0.95908
 H155 H 0.83938 0.84213 0.85684
 H156 H 0.80238 0.80327 0.82719
 N157 N 0.15296 0.86041 1.25502
 N158 N 0.15116 0.82218 1.27197
 C159 C 0.13878 0.82453 1.31528
 C160 C 0.13170 0.86608 1.32569
 C161 C 0.14074 0.88800 1.28672
 H162 H 0.13384 0.79791 1.33720
 H163 H 0.13969 0.92159 1.28215
 Cu164 Cu 0.16000 0.77109 1.23533
 Cu165 Cu 0.17469 0.87174 1.19395
 Cu166 Cu 0.18144 0.78778 1.12679
 N167 N 0.15117 0.72729 1.18946
 N168 N 0.15798 0.73421 1.14646
 C169 C 0.14734 0.69936 1.12251
 C170 C 0.13362 0.66880 1.15231
 C171 C 0.13661 0.68753 1.19452
 H172 H 0.14915 0.69656 1.08623
 H173 H 0.12738 0.67385 1.22636
 N174 N 0.21905 0.83700 1.11834
 N175 N 0.21623 0.87064 1.14385
 C176 C 0.25020 0.89708 1.13464
 C177 C 0.27585 0.87847 1.10231
 C178 C 0.25492 0.84055 1.09269
 H179 H 0.25862 0.92510 1.15387
 H180 H 0.26729 0.81562 1.07186
 H181 H 0.13894 0.81385 1.18960
 H182 H 0.19941 0.81432 1.20255
 N183 N 0.81331 1.18159 1.27920
 N184 N 0.85300 1.17962 1.26226
 C185 C 0.88184 1.16759 1.29462
 C186 C 0.85893 1.16257 1.33408
 C187 C 0.81562 1.17185 1.32319
 H188 H 0.91658 1.16231 1.28963
 H189 H 0.78739 1.16907 1.34480
 Cu190 Cu 0.86313 1.19467 1.20021
 Cu191 Cu 0.76080 1.19211 1.24216
 Cu192 Cu 0.77687 1.19906 1.12796
 N193 N 0.86565 1.22867 1.14610
 N194 N 0.83109 1.23197 1.11881
 C195 C 0.83751 1.26500 1.09156
 C196 C 0.87834 1.28300 1.10214
 C197 C 0.89555 1.25888 1.13645
 H198 H 0.81250 1.27774 1.06921
 H199 H 0.92447 1.26646 1.15717
 N200 N 0.71908 1.18494 1.15278
 N201 N 0.71247 1.18461 1.19664
 C202 C 0.67093 1.17095 1.20391
 C203 C 0.65067 1.16186 1.16266
 C204 C 0.68214 1.17122 1.13092
 H205 H 0.65789 1.16430 1.23686
 H206 H 0.67937 1.16587 1.09490
 H207 H 0.78939 1.16515 1.18882
 H208 H 0.78947 1.22372 1.19014
 O209 O 0.53949 0.93297 0.95768
 O210 O 0.45341 0.94709 1.07385
 O211 O 0.58357 0.98926 1.06968
 O212 O 0.40446 0.97872 0.97387
 O213 O 0.53073 0.94705 1.08343
 O214 O 0.45475 0.93255 0.96300
 O215 O 0.40269 0.98930 1.05539
 O216 O 0.59022 0.97537 0.98751
 C217 C 0.57878 0.94078 0.96922
 C218 C 0.41364 0.95385 1.06892
 C219 C 0.57066 0.95322 1.07952
 C220 C 0.41524 0.94132 0.96729
 O221 O 0.45527 1.00573 0.91962
 O222 O 0.53106 1.02931 1.10885
 O223 O 0.56866 1.05316 0.96917
 O224 O 0.44187 1.06655 1.04501
 O225 O 0.45186 1.02771 1.10255
 O226 O 0.53666 1.00813 0.92228
 O227 O 0.43910 1.05645 0.96369
 O228 O 0.55447 1.06607 1.05256
 Co229 Co 0.49602 0.97276 0.94799
 Co230 Co 0.49210 0.98917 1.08612
 Co231 Co 0.56677 1.01949 1.01980
 Co232 Co 0.42835 1.02098 1.01029
 O233 O 0.49615 1.00147 1.01575
 C234 C 0.44161 1.04218 0.92493
 C235 C 0.54714 1.06296 1.09359
 C236 C 0.56096 1.04010 0.92988
 C237 C 0.44162 1.06239 1.08649
 O238 O 0.04456 0.46714 0.07720
 O239 O 0.04307 0.52626 -0.10578
 O240 O 0.02504 0.40441 -0.04794
 O241 O 0.06612 0.55914 0.02961
 O242 O 0.05558 0.45333 -0.08518
 O243 O 0.02109 0.54043 0.07920
 O244 O 0.07003 0.56337 -0.05080
 O245 O 0.06467 0.43415 0.01847
 C246 C 0.07295 0.44604 0.05754
 C247 C 0.06873 0.55431 -0.09147
 C248 C 0.05603 0.41662 -0.07179
 C249 C 0.05694 0.55688 0.06976
 O250 O -0.05720 0.51982 0.04730
 O251 O -0.03433 0.44069 -0.08814
 O252 O -0.00583 0.39081 0.03494
 O253 O -0.01694 0.57534 -0.06017
 O254 O -0.04027 0.51953 -0.10021
 O255 O -0.04160 0.44575 0.05844
 O256 O -0.02288 0.57624 0.02367
 O257 O -0.05024 0.43229 -0.01901
 Co258 Co -0.00594 0.49315 0.05765
 Co259 Co 0.00637 0.48500 -0.08724
 Co260 Co 0.00756 0.43561 0.00005
 Co261 Co 0.02277 0.56238 -0.01374
 O262 O 0.00993 0.49649 -0.01453
 C263 C -0.05681 0.55829 0.03930
 C264 C -0.06094 0.42816 -0.05913
 C265 C -0.03520 0.40658 0.06178
 C266 C -0.04183 0.55829 -0.09058
 O267 O 1.04959 0.06385 0.44551
 O268 O 0.90381 0.03930 0.52412
 O269 O 0.97194 0.06288 0.43101
 O270 O 1.02527 0.03396 0.58446
 O271 O 0.90996 0.03278 0.44067
 O272 O 1.04451 0.07260 0.52707
 O273 O 0.94404 0.01856 0.58333
 O274 O 1.02887 0.03212 0.38232
 C275 C 1.05251 0.06180 0.40275
 C276 C 0.91572 0.04278 0.56518
 C277 C 0.93131 0.06517 0.43199
 C278 C 1.03760 0.06874 0.56834
 O279 O 1.08330 0.00120 0.54083
 O280 O 0.92343 -0.04937 0.45004
 O281 O 1.02376 -0.03891 0.42222
 O282 O 0.96222 -0.06259 0.56270
 O283 O 0.90414 -0.03994 0.53052
 O284 O 1.08009 -0.01565 0.45974
 O285 O 1.03903 -0.04750 0.55924
 O286 O 0.95298 -0.01366 0.39679
 Co287 Co 1.05730 0.02732 0.49286
 Co288 Co 0.91767 -0.00391 0.48639
 Co289 Co 0.99859 0.01120 0.42956
 Co290 Co 0.99267 -0.01283 0.56584
 O291 O 0.98893 0.00256 0.49572
 C292 C 1.07693 -0.03310 0.55945
 C293 C 0.93328 -0.04635 0.40949
 C294 C 1.06284 -0.04274 0.43397
 C295 C 0.92189 -0.06481 0.55670
 C296 C 1.09033 0.14184 0.33095
 C297 C 1.07092 0.16653 0.36300
 C298 C 1.05524 0.13933 0.39414
 C299 C 1.06545 0.10000 0.37856
 O300 O 1.08671 0.10119 0.34003
 H301 H 1.06926 0.20035 0.36427
 H302 H 1.03787 0.14711 0.42451
 C303 C 0.91511 -0.11624 0.31893
 C304 C 0.91651 -0.14533 0.35318
 C305 C 0.92205 -0.12258 0.39185
 C306 C 0.92432 -0.08138 0.37826
 O307 O 0.92000 -0.07725 0.33397
 H308 H 0.91299 -0.17906 0.35033
 H309 H 0.92501 -0.13456 0.42586
 C310 C 0.88961 0.11984 0.64406
 C311 C 0.89492 0.14571 0.60745
 C312 C 0.90285 0.11948 0.57236
 C313 C 0.90213 0.07969 0.59038
 O314 O 0.89439 0.07974 0.63402
 H315 H 0.89272 0.17950 0.60641
 H316 H 0.91040 0.12840 0.53818
 C317 C 1.14177 -0.08260 0.64215
 C318 C 1.17346 -0.05489 0.62683
 C319 C 1.15421 -0.03504 0.59119
 C320 C 1.11193 -0.05174 0.58763
 O321 O 1.10425 -0.08083 0.61850
 H322 H 1.20612 -0.04876 0.64116
 H323 H 1.16832 -0.00956 0.57190
 C324 C 0.37037 1.12892 1.14154
 C325 C 0.39112 1.11181 1.17883
 C326 C 0.42463 1.08921 1.16252
 C327 C 0.42174 1.09334 1.11630
 O328 O 0.38921 1.11820 1.10330
 H329 H 0.38137 1.11357 1.21369
 H330 H 0.44556 1.06839 1.18170
 C331 C 0.32248 0.87752 0.94294
 C332 C 0.34631 0.84864 0.96748
 C333 C 0.38525 0.86852 0.97846
 C334 C 0.38134 0.90845 0.96167
 O335 O 0.34358 0.91401 0.93964
 H336 H 0.33744 0.81636 0.97459
 H337 H 0.41304 0.85567 0.99688
 C338 C 0.65758 0.88332 1.09184
 C339 C 0.62397 0.85459 1.08220
 C340 C 0.58682 0.87736 1.07897
 C341 C 0.60061 0.91835 1.08547
 O342 O 0.64355 0.92230 1.09384
 H343 H 0.62603 0.82094 1.07850
 H344 H 0.55377 0.86575 1.07087
 C345 C 0.63455 1.09081 0.85801
 C346 C 0.61570 1.06297 0.82705
 C347 C 0.58251 1.04312 0.84908
 C348 C 0.58390 1.05973 0.89209
 O349 O 0.61505 1.08918 0.89752
 H350 H 0.62582 1.05680 0.79291
 H351 H 0.56190 1.01743 0.83636
 C352 C 0.15670 0.38995 0.11136
 C353 C 0.15873 0.42509 0.13863
 C354 C 0.13019 0.45260 0.11947
 C355 C 0.11269 0.43223 0.08196
 O356 O 0.12871 0.39416 0.07686
 H357 H 0.17626 0.42881 0.17063
 H358 H 0.12073 0.48253 0.13307
 C359 C -0.14363 0.35615 -0.09445
 C360 C -0.16503 0.37302 -0.05824
 C361 C -0.13789 0.40446 -0.04250
 C362 C -0.10205 0.40486 -0.07045
 O363 O -0.10533 0.37548 -0.10211
 H364 H -0.19567 0.36234 -0.04365
 H365 H -0.14241 0.42338 -0.01261
 C366 C 0.11698 0.63352 -0.15609
 C367 C 0.11143 0.60421 -0.19007
 C368 C 0.09612 0.56893 -0.16932
 C369 C 0.09355 0.57935 -0.12420
 O370 O 0.10636 0.61855 -0.11609
 H371 H 0.11630 0.60853 -0.22581
 H372 H 0.08540 0.53991 -0.18552
 C373 C -0.12760 0.63595 0.07442
 C374 C -0.15994 0.60659 0.06282
 C375 C -0.13763 0.57220 0.04898
 C376 C -0.09368 0.58397 0.05228
 O377 O -0.08747 0.62243 0.06785
 H378 H -0.19536 0.60983 0.06465
 H379 H -0.15158 0.54262 0.03696
 C380 C 1.07344 0.13413 0.65640
 C381 C 1.04631 0.16263 0.63532
 C382 C 1.02999 0.14239 0.59759
 C383 C 1.04798 0.10310 0.59942
 O384 O 1.07423 0.09799 0.63487
 H385 H 1.03961 0.19431 0.64597
 H386 H 1.00690 0.15425 0.57263
 C387 C 0.86607 -0.11618 0.64300
 C388 C 0.83113 -0.11328 0.61285
 C389 C 0.84889 -0.09780 0.57448
 C390 C 0.89342 -0.09201 0.58410
 O391 O 0.90404 -0.10341 0.62580
 H392 H 0.79659 -0.12000 0.61884
 H393 H 0.83100 -0.08867 0.54421
 C394 C 1.11766 -0.11653 0.36901
 C395 C 1.12979 -0.13192 0.41080
 C396 C 1.11142 -0.10560 0.44136
 C397 C 1.08869 -0.07693 0.41576
 O398 O 1.09257 -0.08325 0.37192
 H399 H 1.15035 -0.15854 0.41802
 H400 H 1.11377 -0.10734 0.47778
 C401 C 0.87500 0.14424 0.37643
 C402 C 0.85131 0.14418 0.41561
 C403 C 0.87229 0.11685 0.44332
 C404 C 0.90762 0.10285 0.41933
 O405 O 0.90933 0.11925 0.37855
 H406 H 0.82058 0.15970 0.42193
 H407 H 0.86113 0.10582 0.47568
 C408 C 0.13283 0.33743 -0.08653
 C409 C 0.16221 0.37095 -0.08662
 C410 C 0.13682 0.40549 -0.08244
 C411 C 0.09408 0.39023 -0.07953
 O412 O 0.09146 0.34897 -0.08197
 H413 H 0.19758 0.37035 -0.09092
 H414 H 0.14805 0.43789 -0.08108
 C415 C -0.10841 0.32644 0.09339
 C416 C -0.13650 0.35952 0.09795
 C417 C -0.11137 0.39426 0.08985
 C418 C -0.06995 0.37967 0.08045
 O419 O -0.06789 0.33838 0.08275
 H420 H -0.17107 0.35833 0.10650
 H421 H -0.12242 0.42631 0.08880
 C422 C -0.10609 0.63859 -0.13583
 C423 C -0.11600 0.60887 -0.16851
 C424 C -0.09498 0.57361 -0.15464
 C425 C -0.07319 0.58489 -0.11498
 O426 O -0.07991 0.62433 -0.10344
 H427 H -0.13538 0.61282 -0.19923
 H428 H -0.09397 0.54390 -0.17228
 C429 C 0.11541 0.62680 0.14129
 C430 C 0.10376 0.59758 0.17327
 C431 C 0.08272 0.56607 0.14986
 C432 C 0.08353 0.57807 0.10528
 O433 O 0.10335 0.61499 0.09986
 H434 H 0.10808 0.59990 0.20951
 H435 H 0.06664 0.53857 0.16378
 C436 C 0.37225 1.09608 0.85070
 C437 C 0.39326 1.07233 0.81900
 C438 C 0.42509 1.05150 0.84244
 C439 C 0.42101 1.06399 0.88672
 O440 O 0.38909 1.09125 0.89183
 H441 H 0.38478 1.06891 0.78352
 H442 H 0.44665 1.02787 0.82940
 C443 C 0.32233 0.88842 1.09302
 C444 C 0.35460 0.85859 1.09459
 C445 C 0.39297 0.87975 1.08700
 C446 C 0.38127 0.92083 1.08024
 O447 O 0.33828 0.92648 1.08440
 H448 H 0.35063 0.82546 1.10143
 H449 H 0.42564 0.86669 1.08561
 C450 C 0.60905 1.13809 1.15498
 C451 C 0.58017 1.12719 1.18855
 C452 C 0.55100 1.09919 1.16903
 C453 C 0.56393 1.09548 1.12493
 O454 O 0.59910 1.11907 1.11627
 H455 H 0.58178 1.13649 1.22369
 H456 H 0.52513 1.08169 1.18561
 C457 C 0.66886 0.87747 0.94245
 C458 C 0.64119 0.84651 0.95870
 C459 C 0.60371 0.86637 0.97028
 C460 C 0.61172 0.90822 0.96179
 O461 O 0.65114 0.91517 0.94429
 H462 H 0.64695 0.81317 0.96000
 H463 H 0.57395 0.85211 0.98340
   
