data_POSCAR
  _audit_creation_date              2014-09-24
  _audit_creation_method            'ToBaCCo'
  _symmetry_space_group_name_H-M    'P1'
  _symmetry_Int_Tables_number       1
  _symmetry_cell_setting            triclinic
  loop_
  _symmetry_equiv_pos_as_xyz
 x,y,z
_cell_length_a 48.1716
_cell_length_b 48.5606
_cell_length_c 48.4157
_cell_angle_alpha 89.928600
_cell_angle_beta 89.966900
_cell_angle_gamma 89.987600
loop_
  _atom_site_label
  _atom_site_type_symbol
  _atom_site_fract_x
  _atom_site_fract_y
  _atom_site_fract_z
C1 C 0.17023 0.17344 0.20639
 N2 N 0.19293 0.16191 0.19435
 C3 C 0.20414 0.17267 0.17094
 N4 N 0.19227 0.19537 0.15951
 C5 C 0.16962 0.20724 0.17123
 N6 N 0.15869 0.19618 0.19464
 C7 C -0.16757 0.82963 0.20573
 N8 N -0.19085 0.84100 0.19465
 C9 C -0.20352 0.82955 0.17236
 N10 N -0.19256 0.80631 0.16113
 C11 C -0.16931 0.79465 0.17188
 N12 N -0.15692 0.80642 0.19412
 C13 C -0.17093 0.16874 -0.20663
 N14 N -0.19302 0.15687 -0.19378
 C15 C -0.20595 0.16952 -0.17226
 N16 N -0.19616 0.19423 -0.16334
 C17 C -0.17375 0.20611 -0.17551
 N18 N -0.16138 0.19333 -0.19720
 C19 C 0.17545 0.82745 -0.20555
 N20 N 0.19737 0.83943 -0.19270
 C21 C 0.20755 0.82903 -0.16867
 N22 N 0.19522 0.80645 -0.15742
 C23 C 0.17347 0.79402 -0.17021
 N24 N 0.16373 0.80460 -0.19433
 C25 C 0.16932 1.16979 0.79680
 N26 N 0.19191 1.15858 0.80933
 C27 C 0.20455 1.17155 0.83074
 N28 N 0.19416 1.19589 0.83994
 C29 C 0.17120 1.20720 0.82814
 N30 N 0.15907 1.19404 0.80648
 C31 C 0.82759 0.82895 0.79183
 N32 N 0.80638 0.84179 0.80512
 C33 C 0.79611 0.83171 0.82919
 N34 N 0.80750 0.80864 0.84029
 C35 C 0.82858 0.79525 0.82725
 N36 N 0.83833 0.80549 0.80291
 C37 C 0.17018 0.82570 1.20617
 N38 N 0.15837 0.80303 1.19463
 C39 C 0.16902 0.79168 1.17128
 N40 N 0.19180 0.80316 1.15939
 C41 C 0.20393 0.82574 1.17069
 N42 N 0.19300 0.83691 1.19400
 C43 C 0.83301 1.17223 1.20699
 N44 N 0.81003 1.16047 1.19581
 C45 C 0.79622 1.17279 1.17472
 N46 N 0.80578 1.19703 1.16444
 C47 C 0.82914 1.20886 1.17485
 N48 N 0.84248 1.19636 1.19624
 O49 O 0.46229 0.95245 0.95343
 O50 O 0.43148 0.97715 0.97975
 C51 C 0.43724 0.95894 0.96103
 O52 O 0.53950 0.95122 1.05252
 O53 O 0.56993 0.97799 1.02779
 C54 C 0.56443 0.95910 1.04596
 O55 O 0.46154 0.94890 1.05006
 O56 O 0.43119 0.97608 1.02579
 C57 C 0.43660 0.95640 1.04312
 O58 O 0.54045 0.95560 0.95179
 O59 O 0.57030 0.97900 0.98023
 C60 C 0.56524 0.96220 0.96007
 Zr61 Zr 0.50111 0.96750 0.96758
 O62 O 0.50452 0.92405 0.96635
 O63 O 0.49849 0.96892 0.92396
 Zr64 Zr 0.50051 0.96487 1.03745
 O65 O 0.50362 0.92142 1.03575
 O66 O 0.49734 0.96345 1.08105
 O67 O 0.47611 0.96057 1.00212
 O68 O 0.52490 0.96132 1.00255
 O69 O 0.53976 1.05095 0.95560
 O70 O 0.57009 1.02463 0.98094
 C71 C 0.56467 1.04321 0.96246
 O72 O 0.46055 1.04905 1.05316
 O73 O 0.43061 1.02384 1.02634
 C74 C 0.43577 1.04222 1.04505
 O75 O 0.53864 1.04781 1.05591
 O76 O 0.56942 1.02399 1.02883
 C77 C 0.56370 1.04126 1.04844
 O78 O 0.46148 1.05296 0.95753
 O79 O 0.43120 1.02461 0.98056
 C80 C 0.43656 1.04474 0.96378
 Zr81 Zr 0.50058 1.03712 0.97015
 O82 O 0.50337 1.08060 0.97164
 O83 O 0.49786 1.03850 0.92653
 Zr84 Zr 0.49990 1.03448 1.03997
 O85 O 0.50236 1.07796 1.04179
 O86 O 0.49662 1.03233 1.08354
 Zr87 Zr 0.45934 1.00064 1.00340
 Zr88 Zr 0.54171 1.00127 1.00420
 O89 O 0.52428 1.04099 1.00543
 O90 O 0.47546 1.04098 1.00502
 O91 O 0.52563 1.00268 0.96371
 O92 O 0.47607 0.99934 1.04352
 O93 O 0.47683 1.00231 0.96360
 O94 O 0.52494 0.99967 1.04437
 H95 H 0.53758 0.94526 1.00209
 H96 H 0.46334 0.99878 1.05959
 H97 H 0.53669 1.05724 1.00596
 H98 H 0.46441 1.00278 0.94730
 H99 H 0.51285 0.97440 1.08865
 H100 H 0.51274 1.02172 1.09039
 H101 H 0.48708 1.08543 1.03038
 H102 H 0.48790 1.08729 0.98328
 H103 H 0.51383 1.02809 0.91906
 H104 H 0.51359 0.98104 0.91731
 H105 H 0.48865 0.91638 0.97679
 H106 H 0.48814 0.91466 1.02419
 O107 O 0.04508 0.53878 -0.05352
 O108 O 0.02076 0.56863 -0.02594
 C109 C 0.03837 0.56343 -0.04549
 O110 O -0.05434 0.46157 -0.05072
 O111 O -0.02735 0.43106 -0.02643
 C112 C -0.04692 0.43672 -0.04394
 O113 O -0.05076 0.53911 -0.05329
 O114 O -0.02580 0.56886 -0.02615
 C115 C -0.04357 0.56374 -0.04559
 O116 O 0.04787 0.46138 -0.05138
 O117 O 0.02041 0.43100 -0.02745
 C118 C 0.04011 0.43659 -0.04486
 Zr119 Zr 0.03188 0.49990 -0.03835
 O120 O 0.03074 0.49705 -0.08198
 O121 O 0.07569 0.50301 -0.03938
 Zr122 Zr -0.03827 0.50014 -0.03773
 O123 O -0.03885 0.49725 -0.08135
 O124 O -0.08207 0.50372 -0.03710
 O125 O -0.00313 0.52466 -0.04318
 O126 O -0.00331 0.47613 -0.04329
 O127 O 0.04837 0.46022 0.04374
 O128 O 0.02112 0.43039 0.01902
 C129 C 0.04075 0.43557 0.03659
 O130 O -0.05028 0.53798 0.04849
 O131 O -0.02598 0.56825 0.02131
 C132 C -0.04337 0.56277 0.04100
 O133 O -0.05371 0.46066 0.04461
 O134 O -0.02686 0.43058 0.01967
 C135 C -0.04626 0.43596 0.03747
 O136 O 0.04607 0.53768 0.04708
 O137 O 0.02015 0.56820 0.02166
 C138 C 0.03848 0.56250 0.04041
 Zr139 Zr 0.03249 0.49911 0.03157
 O140 O 0.03225 0.49549 0.07516
 O141 O 0.07634 0.50206 0.03171
 Zr142 Zr -0.03776 0.49940 0.03210
 O143 O -0.03755 0.49563 0.07566
 O144 O -0.08157 0.50292 0.03230
 Zr145 Zr -0.00275 0.54050 -0.00264
 Zr146 Zr -0.00302 0.45871 -0.00345
 O147 O -0.00268 0.47529 0.03668
 O148 O -0.00249 0.52371 0.03752
 O149 O 0.03757 0.47497 -0.00368
 O150 O -0.04301 0.52370 -0.00256
 O151 O 0.03737 0.52333 -0.00317
 O152 O -0.04351 0.47523 -0.00300
 H153 H -0.00350 0.46379 -0.05957
 H154 H -0.05919 0.53630 -0.00237
 H155 H -0.00258 0.46259 0.05271
 H156 H 0.05373 0.53569 -0.00313
 H157 H -0.08941 0.48807 -0.02623
 H158 H -0.08904 0.48771 0.02096
 H159 H -0.02552 0.51041 0.08299
 H160 H 0.02206 0.51154 0.08260
 H161 H 0.08356 0.48724 0.01970
 H162 H 0.08317 0.48842 -0.02721
 H163 H 0.02071 0.51340 -0.08901
 H164 H -0.02676 0.51203 -0.08863
 O165 O 1.05202 -0.05011 0.53928
 O166 O 1.02571 -0.02472 0.56945
 C167 C 1.04459 -0.04302 0.56407
 O168 O 1.05139 0.04999 0.46236
 O169 O 1.02708 0.02333 0.43165
 C170 C 1.04465 0.04271 0.43741
 O171 O 1.05318 0.04667 0.54010
 O172 O 1.02642 0.02111 0.56983
 C173 C 1.04561 0.03917 0.56477
 O174 O 1.05011 -0.05220 0.46167
 O175 O 1.02655 -0.02441 0.43135
 C176 C 1.04362 -0.04433 0.43683
 Zr177 Zr 1.03753 -0.03608 0.50041
 O178 O 1.08140 -0.03543 0.49774
 O179 O 1.03810 -0.07956 0.50316
 Zr180 Zr 1.03854 0.03350 0.50093
 O181 O 1.08238 0.03139 0.49829
 O182 O 1.04062 0.07688 0.50429
 O183 O 1.04313 -0.00158 0.52544
 O184 O 1.04345 -0.00116 0.47668
 O185 O 0.95420 -0.04972 0.46041
 O186 O 0.98085 -0.02405 0.43067
 C187 C 0.96225 -0.04268 0.43577
 O188 O 0.95272 0.04786 0.53888
 O189 O 0.97822 0.02181 0.56922
 C190 C 0.95951 0.04023 0.56373
 O191 O 0.95623 0.05081 0.46115
 O192 O 0.98060 0.02340 0.43114
 C193 C 0.96323 0.04308 0.43641
 O194 O 0.95141 -0.04881 0.53802
 O195 O 0.97759 -0.02409 0.56884
 C196 C 0.95845 -0.04197 0.56298
 Zr197 Zr 0.96726 -0.03508 0.49956
 O198 O 0.92344 -0.03394 0.49629
 O199 O 0.96645 -0.07861 0.50196
 Zr200 Zr 0.96827 0.03454 0.50010
 O201 O 0.92446 0.03451 0.49651
 O202 O 0.96836 0.07800 0.50347
 Zr203 Zr 1.00235 -0.00117 0.54128
 Zr204 Zr 1.00346 -0.00047 0.45929
 O205 O 0.96303 0.00000 0.47580
 O206 O 0.96200 -0.00041 0.52444
 O207 O 1.00262 -0.04080 0.47541
 O208 O 1.00316 0.03883 0.52448
 O209 O 1.00202 -0.04084 0.52385
 O210 O 1.00378 0.03962 0.47598
 H211 H 1.05970 -0.00126 0.46411
 H212 H 1.00319 0.05495 0.53700
 H213 H 0.94694 0.00033 0.46307
 H214 H 1.00166 -0.05718 0.53611
 H215 H 1.02721 0.08461 0.49092
 H216 H 0.98027 0.08529 0.48850
 H217 H 0.91695 0.02416 0.51246
 H218 H 0.91632 -0.02327 0.51218
 H219 H 0.97747 -0.08580 0.48630
 H220 H 1.02457 -0.08660 0.48954
 H221 H 1.08847 -0.02582 0.51431
 H222 H 1.08915 0.02198 0.51512
 C223 C 1.13454 0.13697 0.27766
 C224 C 1.12484 0.16246 0.26796
 C225 C 1.13650 0.17453 0.24440
 C226 C 1.15862 0.16164 0.23035
 C227 C 1.16868 0.13637 0.24067
 C228 C 1.15657 0.12408 0.26381
 C229 C 1.12144 0.12348 0.30172
 N230 N 1.12175 0.09562 0.30414
 N231 N 1.10964 0.08327 0.32554
 C232 C 1.09696 0.09827 0.34555
 N233 N 1.09679 0.12616 0.34326
 N234 N 1.10866 0.13852 0.32167
 C235 C 1.08339 0.08438 0.36911
 C236 C 1.08092 0.09755 0.39482
 C237 C 1.06859 0.08395 0.41719
 C238 C 1.05792 0.05720 0.41402
 C239 C 1.05998 0.04429 0.38816
 C240 C 1.07288 0.05759 0.36604
 H241 H 1.10779 0.17279 0.27823
 H242 H 1.12816 0.19401 0.23733
 H243 H 1.18564 0.12567 0.23064
 H244 H 1.16457 0.10449 0.27096
 H245 H 1.08893 0.11818 0.39774
 H246 H 1.06711 0.09446 0.43685
 H247 H 1.05191 0.02374 0.38508
 H248 H 1.07433 0.04703 0.34641
 C249 C 0.87162 -0.13319 0.27465
 C250 C 0.84586 -0.12353 0.26521
 C251 C 0.83306 -0.13561 0.24236
 C252 C 0.84541 -0.15813 0.22871
 C253 C 0.87112 -0.16798 0.23855
 C254 C 0.88419 -0.15543 0.26103
 C255 C 0.88525 -0.12009 0.29860
 N256 N 0.91329 -0.12081 0.30147
 N257 N 0.92555 -0.10875 0.32295
 C258 C 0.91023 -0.09574 0.34255
 N259 N 0.88219 -0.09515 0.33975
 N260 N 0.86996 -0.10697 0.31814
 C261 C 0.92374 -0.08244 0.36646
 C262 C 0.90921 -0.07915 0.39140
 C263 C 0.92191 -0.06661 0.41406
 C264 C 0.94915 -0.05653 0.41201
 C265 C 0.96364 -0.05961 0.38702
 C266 C 0.95116 -0.07274 0.36454
 H267 H 0.83576 -0.10631 0.27527
 H268 H 0.81329 -0.12734 0.23563
 H269 H 0.88145 -0.18520 0.22873
 H270 H 0.90399 -0.16339 0.26800
 H271 H 0.88811 -0.08655 0.39349
 H272 H 0.91025 -0.06437 0.43306
 H273 H 0.98473 -0.05213 0.38496
 H274 H 0.96279 -0.07491 0.34552
 C275 C 0.86705 0.13022 0.72446
 C276 C 0.87476 0.15694 0.73229
 C277 C 0.86259 0.16947 0.75527
 C278 C 0.84182 0.15583 0.77061
 C279 C 0.83399 0.12907 0.76245
 C280 C 0.84672 0.11632 0.73987
 C281 C 0.88023 0.11688 0.70038
 N282 N 0.88290 0.08907 0.69924
 N283 N 0.89511 0.07707 0.67770
 C284 C 0.90484 0.09238 0.65629
 N285 N 0.90198 0.12018 0.65732
 N286 N 0.89004 0.13220 0.67901
 C287 C 0.91859 0.07904 0.63252
 C288 C 0.91781 0.09122 0.60620
 C289 C 0.93076 0.07845 0.58374
 C290 C 0.94528 0.05358 0.58731
 C291 C 0.94638 0.04170 0.61377
 C292 C 0.93285 0.05408 0.63605
 H293 H 0.89053 0.16804 0.72085
 H294 H 0.86928 0.19006 0.76069
 H295 H 0.81820 0.11773 0.77361
 H296 H 0.84033 0.09571 0.73419
 H297 H 0.90690 0.11045 0.60293
 H298 H 0.92970 0.08824 0.56366
 H299 H 0.95766 0.02278 0.61730
 H300 H 0.93400 0.04439 0.65618
 C301 C 1.13870 -0.13497 0.72283
 C302 C 1.13552 -0.16333 0.72765
 C303 C 1.14760 -0.17566 0.75084
 C304 C 1.16359 -0.15995 0.76928
 C305 C 1.16736 -0.13174 0.76401
 C306 C 1.15481 -0.11933 0.74119
 C307 C 1.12484 -0.12156 0.69916
 N308 N 1.11839 -0.09435 0.70005
 N309 N 1.10558 -0.08224 0.67892
 C310 C 1.09891 -0.09679 0.65594
 N311 N 1.10548 -0.12398 0.65497
 N312 N 1.11807 -0.13616 0.67622
 C313 C 1.08480 -0.08325 0.63249
 C314 C 1.08750 -0.09376 0.60562
 C315 C 1.07460 -0.08059 0.58337
 C316 C 1.05830 -0.05694 0.58763
 C317 C 1.05517 -0.04681 0.61463
 C318 C 1.06856 -0.05962 0.63677
 H319 H 1.12314 -0.17585 0.71386
 H320 H 1.14443 -0.19746 0.75435
 H321 H 1.17945 -0.11908 0.77793
 H322 H 1.15774 -0.09746 0.73788
 H323 H 1.09995 -0.11192 0.60172
 H324 H 1.07728 -0.08907 0.56287
 H325 H 1.04245 -0.02891 0.61869
 H326 H 1.06590 -0.05123 0.65732
 C327 C 0.27397 1.13490 1.13346
 C328 C 0.26024 1.15674 1.12028
 C329 C 0.23748 1.16951 1.13279
 C330 C 0.22747 1.16028 1.15857
 C331 C 0.24128 1.13820 1.17160
 C332 C 0.26441 1.12589 1.15931
 C333 C 0.29809 1.12146 1.12028
 N334 N 0.31755 1.10843 1.13581
 N335 N 0.33927 1.09626 1.12394
 C336 C 0.34225 1.09640 1.09605
 N337 N 0.32273 1.10933 1.08050
 N338 N 0.30115 1.12173 1.09239
 C339 C 0.36623 1.08269 1.08291
 C340 C 0.36442 1.07298 1.05565
 C341 C 0.38696 1.05957 1.04342
 C342 C 0.41192 1.05618 1.05803
 C343 C 0.41387 1.06623 1.08513
 C344 C 0.39113 1.07908 1.09757
 H345 H 0.26729 1.16419 1.10038
 H346 H 0.22755 1.18637 1.12197
 H347 H 0.23444 1.13043 1.19145
 H348 H 0.27454 1.10899 1.16988
 H349 H 0.34544 1.07539 1.04391
 H350 H 0.38499 1.05215 1.02241
 H351 H 0.43285 1.06378 1.09686
 H352 H 0.39313 1.08648 1.11857
 C353 C 0.27684 0.86640 0.87007
 C354 C 0.26220 0.84523 0.88341
 C355 C 0.23951 0.83268 0.87057
 C356 C 0.23049 0.84149 0.84430
 C357 C 0.24510 0.86303 0.83121
 C358 C 0.26817 0.87507 0.84381
 C359 C 0.30096 0.87951 0.88351
 N360 N 0.32150 0.89106 0.86815
 N361 N 0.34317 0.90306 0.88027
 C362 C 0.34499 0.90424 0.90823
 N363 N 0.32442 0.89275 0.92359
 N364 N 0.30290 0.88050 0.91147
 C365 C 0.36869 0.91806 0.92169
 C366 C 0.36553 0.92995 0.94791
 C367 C 0.38774 0.94350 0.96049
 C368 C 0.41375 0.94484 0.94743
 C369 C 0.41701 0.93267 0.92131
 C370 C 0.39458 0.91968 0.90842
 H371 H 0.26853 0.83809 0.90365
 H372 H 0.22891 0.81626 0.88146
 H373 H 0.23902 0.87049 0.81101
 H374 H 0.27900 0.89149 0.83315
 H375 H 0.34575 0.92919 0.95852
 H376 H 0.38458 0.95275 0.98054
 H377 H 0.43678 0.93352 0.91068
 H378 H 0.39759 0.91061 0.88821
 C379 C 0.72549 0.86715 1.13684
 C380 C 0.74001 0.88020 1.15825
 C381 C 0.76309 0.86759 1.17033
 C382 C 0.77265 0.84184 1.16082
 C383 C 0.75797 0.82887 1.13925
 C384 C 0.73450 0.84125 1.12766
 C385 C 0.70129 0.88069 1.12389
 N386 N 0.68091 0.86555 1.11187
 N387 N 0.65921 0.87781 1.10003
 C388 C 0.65719 0.90571 1.09948
 N389 N 0.67762 0.92084 1.11142
 N390 N 0.69916 0.90857 1.12350
 C391 C 0.63339 0.91936 1.08595
 C392 C 0.63629 0.94589 1.07475
 C393 C 0.61396 0.95866 1.06152
 C394 C 0.58807 0.94547 1.05984
 C395 C 0.58508 0.91904 1.07132
 C396 C 0.60762 0.90598 1.08397
 H397 H 0.73339 0.90012 1.16583
 H398 H 0.77366 0.87837 1.18683
 H399 H 0.76445 0.80904 1.13132
 H400 H 0.72372 0.83078 1.11109
 H401 H 0.65598 0.95661 1.07582
 H402 H 0.61690 0.97897 1.05281
 H403 H 0.56542 0.90829 1.07016
 H404 H 0.60480 0.88555 1.09250
 C405 C 0.72515 1.13199 0.86731
 C406 C 0.73334 1.15880 0.87441
 C407 C 0.75616 1.17111 0.86153
 C408 C 0.77107 1.15711 0.84078
 C409 C 0.76248 1.13032 0.83349
 C410 C 0.74000 1.11785 0.84681
 C411 C 0.70128 1.11883 0.88130
 N412 N 0.69911 1.09096 0.88255
 N413 N 0.67773 1.07911 0.89534
 C414 C 0.65753 1.09463 0.90719
 N415 N 0.65963 1.12249 0.90583
 N416 N 0.68114 1.13435 0.89325
 C417 C 0.63374 1.08147 0.92132
 C418 C 0.60851 1.09566 0.92439
 C419 C 0.58594 1.08312 0.93752
 C420 C 0.58838 1.05639 0.94834
 C421 C 0.61369 1.04229 0.94551
 C422 C 0.63606 1.05460 0.93187
 H423 H 0.72233 1.17015 0.89024
 H424 H 0.76190 1.19174 0.86780
 H425 H 0.77328 1.11871 0.81770
 H426 H 0.73405 1.09720 0.84082
 H427 H 0.60609 1.11634 0.91635
 H428 H 0.56669 1.09448 0.93951
 H429 H 0.61606 1.02158 0.95351
 H430 H 0.65529 1.04321 0.92989
 C431 C 0.13173 0.27729 0.13198
 C432 C 0.15999 0.27146 0.12784
 C433 C 0.17228 0.24870 0.14061
 C434 C 0.15671 0.23164 0.15823
 C435 C 0.12859 0.23780 0.16283
 C436 C 0.11615 0.26024 0.14961
 C437 C 0.11852 0.30081 0.11770
 N438 N 0.09072 0.30105 0.11303
 N439 N 0.07885 0.32203 0.09980
 C440 C 0.09426 0.34373 0.09090
 N441 N 0.12203 0.34356 0.09570
 N442 N 0.13394 0.32246 0.10872
 C443 C 0.08100 0.36708 0.07639
 C444 C 0.09349 0.39322 0.07632
 C445 C 0.08048 0.41548 0.06332
 C446 C 0.05498 0.41191 0.04968
 C447 C 0.04287 0.38559 0.04919
 C448 C 0.05559 0.36348 0.06266
 H449 H 0.17249 0.28419 0.11430
 H450 H 0.19403 0.24452 0.13677
 H451 H 0.11605 0.22495 0.17622
 H452 H 0.09436 0.26434 0.15330
 H453 H 0.11306 0.39661 0.08677
 H454 H 0.09041 0.43547 0.06393
 H455 H 0.02334 0.38212 0.03874
 H456 H 0.04561 0.34351 0.06216
 C457 C -0.13806 0.27903 -0.13979
 C458 C -0.12217 0.26186 -0.15695
 C459 C -0.13404 0.23869 -0.16926
 C460 C -0.16194 0.23188 -0.16424
 C461 C -0.17797 0.24926 -0.14737
 C462 C -0.16621 0.27276 -0.13548
 C463 C -0.12502 0.30277 -0.12578
 N464 N -0.14052 0.32436 -0.11680
 N465 N -0.12865 0.34550 -0.10383
 C466 C -0.10086 0.34574 -0.09907
 N467 N -0.08540 0.32412 -0.10800
 N468 N -0.09722 0.30313 -0.12117
 C469 C -0.08757 0.36895 -0.08441
 C470 C -0.06219 0.36508 -0.07069
 C471 C -0.04935 0.38696 -0.05708
 C472 C -0.06128 0.41337 -0.05738
 C473 C -0.08674 0.41724 -0.07103
 C474 C -0.09990 0.39517 -0.08419
 H475 H -0.10047 0.26627 -0.16080
 H476 H -0.12111 0.22566 -0.18207
 H477 H -0.19956 0.24459 -0.14321
 H478 H -0.17895 0.28559 -0.12229
 H479 H -0.05232 0.34504 -0.07031
 H480 H -0.02985 0.38324 -0.04664
 H481 H -0.09655 0.43730 -0.07148
 H482 H -0.11944 0.39876 -0.09463
 C483 C 0.13384 0.72343 -0.13354
 C484 C 0.13067 0.72904 -0.16184
 C485 C 0.14349 0.75200 -0.17375
 C486 C 0.16013 0.76955 -0.15770
 C487 C 0.16365 0.76368 -0.12949
 C488 C 0.15046 0.74100 -0.11750
 C489 C 0.11969 0.69957 -0.12073
 N490 N 0.11549 0.69862 -0.09301
 N491 N 0.10252 0.67731 -0.08144
 C492 C 0.09335 0.65598 -0.09710
 N493 N 0.09765 0.65687 -0.12481
 N494 N 0.11046 0.67828 -0.13641
 C495 C 0.07899 0.63232 -0.08415
 C496 C 0.07718 0.60690 -0.09789
 C497 C 0.06406 0.58444 -0.08533
 C498 C 0.05207 0.58712 -0.05901
 C499 C 0.05356 0.61264 -0.04545
 C500 C 0.06707 0.63493 -0.05779
 H501 H 0.11792 0.71594 -0.17472
 H502 H 0.14047 0.75592 -0.19557
 H503 H 0.17626 0.77687 -0.11656
 H504 H 0.15342 0.73714 -0.09566
 H505 H 0.08624 0.60425 -0.11818
 H506 H 0.06314 0.56503 -0.09629
 H507 H 0.04466 0.61529 -0.02508
 H508 H 0.06800 0.65428 -0.04674
 C509 C -0.13324 0.72291 0.13410
 C510 C -0.12803 0.72892 0.16200
 C511 C -0.13970 0.75227 0.17429
 C512 C -0.15726 0.76973 0.15908
 C513 C -0.16289 0.76338 0.13134
 C514 C -0.15078 0.74037 0.11891
 C515 C -0.12007 0.69887 0.12071
 N516 N -0.11623 0.69843 0.09293
 N517 N -0.10401 0.67704 0.08079
 C518 C -0.09535 0.65508 0.09589
 N519 N -0.09934 0.65541 0.12367
 N520 N -0.11134 0.67695 0.13585
 C521 C -0.08172 0.63143 0.08226
 C522 C -0.08208 0.60515 0.09442
 C523 C -0.06975 0.58274 0.08102
 C524 C -0.05635 0.58633 0.05546
 C525 C -0.05554 0.61277 0.04364
 C526 C -0.06833 0.63499 0.05674
 H527 H -0.11451 0.71588 0.17418
 H528 H -0.13509 0.75658 0.19575
 H529 H -0.17626 0.77650 0.11906
 H530 H -0.15528 0.73617 0.09741
 H531 H -0.09230 0.60181 0.11407
 H532 H -0.07056 0.56266 0.09074
 H533 H -0.04526 0.61628 0.02408
 H534 H -0.06751 0.65506 0.04698
 C535 C 1.13246 0.13040 0.72779
 C536 C 1.15338 0.11718 0.74298
 C537 C 1.16566 0.13020 0.76563
 C538 C 1.15684 0.15658 0.77407
 C539 C 1.13544 0.16952 0.75900
 C540 C 1.12368 0.15671 0.73595
 C541 C 1.11993 0.11682 0.70349
 N542 N 1.10902 0.13197 0.68254
 N543 N 1.09789 0.11973 0.66056
 C544 C 1.09698 0.09183 0.65878
 N545 N 1.10778 0.07667 0.67979
 N546 N 1.11916 0.08892 0.70163
 C547 C 1.08428 0.07822 0.63459
 C548 C 1.07246 0.05190 0.63716
 C549 C 1.05981 0.03930 0.61450
 C550 C 1.05933 0.05242 0.58863
 C551 C 1.07155 0.07856 0.58595
 C552 C 1.08362 0.09147 0.60879
 H553 H 1.16062 0.09690 0.73707
 H554 H 1.18195 0.11937 0.77659
 H555 H 1.12798 0.18979 0.76464
 H556 H 1.10745 0.16731 0.72468
 H557 H 1.07252 0.04127 0.65684
 H558 H 1.05050 0.01922 0.61720
 H559 H 1.07133 0.08926 0.56631
 H560 H 1.09268 0.11172 0.60621
 C561 C 0.86337 -0.13504 0.72044
 C562 C 0.87146 -0.16148 0.72897
 C563 C 0.85958 -0.17353 0.75243
 C564 C 0.83883 -0.15962 0.76753
 C565 C 0.83014 -0.13349 0.75818
 C566 C 0.84253 -0.12124 0.73517
 C567 C 0.87707 -0.12148 0.69677
 N568 N 0.87936 -0.09362 0.69587
 N569 N 0.89212 -0.08126 0.67484
 C570 C 0.90285 -0.09625 0.65373
 N571 N 0.90041 -0.12411 0.65452
 N572 N 0.88791 -0.13650 0.67572
 C573 C 0.91704 -0.08245 0.63050
 C574 C 0.91701 -0.09425 0.60404
 C575 C 0.93013 -0.08090 0.58201
 C576 C 0.94409 -0.05582 0.58617
 C577 C 0.94450 -0.04432 0.61277
 C578 C 0.93078 -0.05730 0.63463
 H579 H 0.88756 -0.17253 0.71796
 H580 H 0.86680 -0.19371 0.75871
 H581 H 0.81424 -0.12200 0.76901
 H582 H 0.83575 -0.10092 0.72887
 H583 H 0.90650 -0.11361 0.60031
 H584 H 0.92965 -0.09042 0.56180
 H585 H 0.95531 -0.02523 0.61669
 H586 H 0.93132 -0.04787 0.65488
 C587 C 1.13446 -0.13751 0.27716
 C588 C 1.15648 -0.12463 0.26325
 C589 C 1.16867 -0.13702 0.24021
 C590 C 1.15864 -0.16233 0.23006
 C591 C 1.13652 -0.17517 0.24417
 C592 C 1.12482 -0.16304 0.26762
 C593 C 1.12125 -0.12407 0.30116
 N594 N 1.10873 -0.13925 0.32120
 N595 N 1.09659 -0.12703 0.34268
 C596 C 1.09622 -0.09914 0.34477
 N597 N 1.10866 -0.08398 0.32469
 N598 N 1.12105 -0.09621 0.30339
 C599 C 1.08240 -0.08546 0.36829
 C600 C 1.07116 -0.05898 0.36512
 C601 C 1.05812 -0.04590 0.38727
 C602 C 1.05668 -0.05871 0.41326
 C603 C 1.06797 -0.08522 0.41646
 C604 C 1.08044 -0.09860 0.39408
 H605 H 1.16442 -0.10499 0.27031
 H606 H 1.18563 -0.12637 0.23010
 H607 H 1.12819 -0.19469 0.23725
 H608 H 1.10778 -0.17336 0.27793
 H609 H 1.07218 -0.04848 0.34539
 H610 H 1.04949 -0.02557 0.38411
 H611 H 1.06699 -0.09568 0.43620
 H612 H 1.08899 -0.11901 0.39707
 C613 C 0.87344 0.13446 0.27498
 C614 C 0.85177 0.12093 0.26120
 C615 C 0.83837 0.13343 0.23890
 C616 C 0.84669 0.15961 0.22939
 C617 C 0.86878 0.17291 0.24305
 C618 C 0.88176 0.16060 0.26576
 C619 C 0.88720 0.12126 0.29885
 N620 N 0.89995 0.13664 0.31855
 N621 N 0.91198 0.12465 0.34024
 C622 C 0.91196 0.09680 0.34295
 N623 N 0.89935 0.08145 0.32318
 N624 N 0.88711 0.09344 0.30164
 C625 C 0.92535 0.08335 0.36689
 C626 C 0.93470 0.05603 0.36487
 C627 C 0.94728 0.04314 0.38740
 C628 C 0.95028 0.05711 0.41261
 C629 C 0.94075 0.08436 0.41476
 C630 C 0.92867 0.09748 0.39199
 H631 H 0.84484 0.10079 0.26793
 H632 H 0.82157 0.12234 0.22906
 H633 H 0.87588 0.19306 0.23652
 H634 H 0.89853 0.17143 0.27593
 H635 H 0.93251 0.04467 0.34575
 H636 H 0.95430 0.02206 0.38521
 H637 H 0.94292 0.09561 0.43395
 H638 H 0.92154 0.11851 0.39415
 C639 C 0.13458 0.27887 -0.13759
 C640 C 0.12136 0.26456 -0.15903
 C641 C 0.13382 0.24144 -0.17093
 C642 C 0.15956 0.23160 -0.16118
 C643 C 0.17290 0.24630 -0.13987
 C644 C 0.16067 0.26980 -0.12844
 C645 C 0.12083 0.30267 -0.12432
 N646 N 0.13595 0.32248 -0.11146
 N647 N 0.12345 0.34365 -0.09913
 C648 C 0.09532 0.34568 -0.09890
 N649 N 0.08022 0.32584 -0.11170
 N650 N 0.09272 0.30483 -0.12426
 C651 C 0.08136 0.36890 -0.08486
 C652 C 0.05422 0.36590 -0.07467
 C653 C 0.04101 0.38776 -0.06128
 C654 C 0.05442 0.41327 -0.05837
 C655 C 0.08152 0.41634 -0.06870
 C656 C 0.09498 0.39426 -0.08154
 H657 H 0.10133 0.27126 -0.16665
 H658 H 0.12279 0.23092 -0.18730
 H659 H 0.19278 0.23966 -0.13182
 H660 H 0.17132 0.28043 -0.11190
 H661 H 0.04329 0.34653 -0.07678
 H662 H 0.02015 0.38481 -0.05355
 H663 H 0.09241 0.43573 -0.06662
 H664 H 0.11588 0.39717 -0.08926
 C665 C -0.13652 0.27965 0.13656
 C666 C -0.16299 0.27022 0.12903
 C667 C -0.17449 0.24705 0.14183
 C668 C -0.16000 0.23305 0.16291
 C669 C -0.13388 0.24330 0.17107
 C670 C -0.12217 0.26608 0.15781
 C671 C -0.12356 0.30301 0.12181
 N672 N -0.09550 0.30511 0.12014
 N673 N -0.08372 0.32576 0.10633
 C674 C -0.09951 0.34529 0.09382
 N675 N -0.12758 0.34331 0.09563
 N676 N -0.13938 0.32248 0.10921
 C677 C -0.08633 0.36826 0.07866
 C678 C -0.10000 0.39366 0.07583
 C679 C -0.08702 0.41568 0.06238
 C680 C -0.06039 0.41250 0.05095
 C681 C -0.04705 0.38688 0.05317
 C682 C -0.05975 0.36508 0.06717
 H683 H -0.17449 0.28029 0.11268
 H684 H -0.19470 0.24007 0.13498
 H685 H -0.12198 0.23333 0.18721
 H686 H -0.10182 0.27308 0.16419
 H687 H -0.12049 0.39669 0.08454
 H688 H -0.09786 0.43516 0.06085
 H689 H -0.02654 0.38384 0.04458
 H690 H -0.04881 0.34566 0.06886
 C691 C -0.13474 0.72448 -0.13655
 C692 C -0.15500 0.73956 -0.12224
 C693 C -0.16748 0.76256 -0.13437
 C694 C -0.15955 0.77147 -0.16096
 C695 C -0.13920 0.75620 -0.17524
 C696 C -0.12718 0.73283 -0.16328
 C697 C -0.12129 0.70043 -0.12342
 N698 N -0.10999 0.68001 -0.13895
 N699 N -0.09780 0.65844 -0.12700
 C700 C -0.09616 0.65657 -0.09905
 N701 N -0.10737 0.67704 -0.08355
 N702 N -0.11979 0.69846 -0.09548
 C703 C -0.08239 0.63284 -0.08567
 C704 C -0.07099 0.63554 -0.05913
 C705 C -0.05801 0.61319 -0.04635
 C706 C -0.05670 0.58749 -0.05957
 C707 C -0.06820 0.58473 -0.08610
 C708 C -0.08066 0.60728 -0.09915
 H709 H -0.16136 0.73347 -0.10166
 H710 H -0.18302 0.77358 -0.12256
 H711 H -0.13250 0.76216 -0.19576
 H712 H -0.11154 0.72162 -0.17475
 H713 H -0.07186 0.65503 -0.04832
 H714 H -0.04932 0.61595 -0.02594
 H715 H -0.06735 0.56520 -0.09685
 H716 H -0.08935 0.60461 -0.11960
 C717 C 0.12976 0.72145 0.13383
 C718 C 0.11485 0.73859 0.15189
 C719 C 0.12772 0.76115 0.16437
 C720 C 0.15564 0.76735 0.15865
 C721 C 0.17052 0.75028 0.14051
 C722 C 0.15779 0.72741 0.12843
 C723 C 0.11610 0.69765 0.12052
 N724 N 0.13135 0.67630 0.11060
 N725 N 0.11904 0.65493 0.09849
 C726 C 0.09101 0.65413 0.09561
 N727 N 0.07577 0.67551 0.10546
 N728 N 0.08805 0.69678 0.11777
 C729 C 0.07739 0.63057 0.08182
 C730 C 0.05083 0.63348 0.07020
 C731 C 0.03823 0.61138 0.05664
 C732 C 0.05173 0.58579 0.05489
 C733 C 0.07810 0.58276 0.06686
 C734 C 0.09092 0.60500 0.07996
 H735 H 0.09326 0.73443 0.15655
 H736 H 0.11568 0.77399 0.17818
 H737 H 0.19209 0.75448 0.13578
 H738 H 0.16978 0.71463 0.11452
 H739 H 0.03993 0.65296 0.07123
 H740 H 0.01781 0.61426 0.04772
 H741 H 0.08903 0.56329 0.06573
 H742 H 0.11135 0.60212 0.08884
 C743 C 0.27541 1.13472 0.87052
 C744 C 0.25752 1.11876 0.85413
 C745 C 0.23475 1.13081 0.84095
 C746 C 0.22908 1.15901 0.84422
 C747 C 0.24692 1.17497 0.86067
 C748 C 0.26998 1.16300 0.87349
 C749 C 0.29939 1.12179 0.88459
 N750 N 0.32108 1.13723 0.89361
 N751 N 0.34264 1.12547 0.90622
 C752 C 0.34328 1.09782 0.91052
 N753 N 0.32155 1.08243 0.90158
 N754 N 0.30010 1.09415 0.88881
 C755 C 0.36712 1.08463 0.92458
 C756 C 0.36428 1.05830 0.93632
 C757 C 0.38674 1.04560 0.94936
 C758 C 0.41271 1.05873 0.95058
 C759 C 0.41560 1.08506 0.93885
 C760 C 0.39296 1.09798 0.92618
 H761 H 0.26121 1.09695 0.85132
 H762 H 0.22136 1.11792 0.82850
 H763 H 0.24317 1.19678 0.86350
 H764 H 0.28334 1.17581 0.88606
 H765 H 0.34461 1.04753 0.93556
 H766 H 0.38385 1.02526 0.95811
 H767 H 0.43533 1.09573 0.93958
 H768 H 0.39581 1.11824 0.91725
 C769 C 0.27521 0.86288 1.13222
 C770 C 0.27062 0.86585 1.16072
 C771 C 0.24735 0.85394 1.17319
 C772 C 0.22857 0.83829 1.15752
 C773 C 0.23341 0.83494 1.12911
 C774 C 0.25634 0.84738 1.11652
 C775 C 0.29938 0.87612 1.11888
 N776 N 0.29864 0.88302 1.09170
 N777 N 0.32023 0.89535 1.07975
 C778 C 0.34355 0.90103 1.09443
 N779 N 0.34437 0.89396 1.12157
 N780 N 0.32267 0.88188 1.13359
 C781 C 0.36740 0.91493 1.08120
 C782 C 0.39439 0.91140 1.09159
 C783 C 0.41692 0.92455 1.07901
 C784 C 0.41285 0.94195 1.05612
 C785 C 0.38575 0.94573 1.04602
 C786 C 0.36333 0.93208 1.05820
 H787 H 0.28477 0.87780 1.17329
 H788 H 0.24419 0.85676 1.19516
 H789 H 0.21922 0.82309 1.11651
 H790 H 0.25944 0.84465 1.09454
 H791 H 0.39812 0.89823 1.10927
 H792 H 0.43749 0.92133 1.08744
 H793 H 0.38180 0.95928 1.02873
 H794 H 0.34272 0.93539 1.04992
 C795 C 0.72459 1.13370 1.13907
 C796 C 0.74445 1.11816 1.15351
 C797 C 0.76747 1.13096 1.16542
 C798 C 0.77142 1.15950 1.16267
 C799 C 0.75162 1.17505 1.14813
 C800 C 0.72827 1.16231 1.13669
 C801 C 0.70042 1.11998 1.12627
 N802 N 0.67669 1.13415 1.12099
 N803 N 0.65500 1.12170 1.10936
 C804 C 0.65628 1.09465 1.10233
 N805 N 0.68004 1.08053 1.10755
 N806 N 0.70162 1.09291 1.11939
 C807 C 0.63248 1.08089 1.08892
 C808 C 0.63676 1.05762 1.07228
 C809 C 0.61445 1.04488 1.05906
 C810 C 0.58725 1.05471 1.06272
 C811 C 0.58293 1.07784 1.07963
 C812 C 0.60536 1.09096 1.09239
 H813 H 0.74209 1.09610 1.15579
 H814 H 0.78242 1.11841 1.17642
 H815 H 0.75408 1.19710 1.14578
 H816 H 0.71335 1.17477 1.12556
 H817 H 0.65746 1.04954 1.06903
 H818 H 0.61857 1.02736 1.04590
 H819 H 0.56227 1.08606 1.08273
 H820 H 0.60146 1.10883 1.10517
 C821 C 0.72707 0.87182 0.86877
 C822 C 0.74455 0.85422 0.88390
 C823 C 0.76692 0.84106 0.87106
 C824 C 0.77254 0.84563 0.84294
 C825 C 0.75523 0.86349 0.82791
 C826 C 0.73261 0.87625 0.84062
 C827 C 0.70312 0.88544 0.88218
 N828 N 0.68161 0.89514 0.86686
 N829 N 0.66000 0.90732 0.87891
 C830 C 0.65911 0.91050 0.90675
 N831 N 0.68067 0.90088 0.92207
 N832 N 0.70218 0.88851 0.91004
 C833 C 0.63514 0.92407 0.92016
 C834 C 0.63771 0.93517 0.94682
 C835 C 0.61509 0.94790 0.95956
 C836 C 0.58928 0.94939 0.94612
 C837 C 0.58666 0.93824 0.91949
 C838 C 0.60945 0.92592 0.90654
 H839 H 0.74074 0.85033 0.90560
 H840 H 0.77994 0.82748 0.88320
 H841 H 0.75894 0.86733 0.80618
 H842 H 0.71959 0.88979 0.82845
 H843 H 0.65727 0.93418 0.95778
 H844 H 0.61771 0.95619 0.98016
 H845 H 0.56705 0.93919 0.90860
 H846 H 0.60682 0.91748 0.88602
   
