data_POSCAR
  _audit_creation_date              2014-09-24
  _audit_creation_method            'ToBaCCo'
  _symmetry_space_group_name_H-M    'P1'
  _symmetry_Int_Tables_number       1
  _symmetry_cell_setting            triclinic
  loop_
  _symmetry_equiv_pos_as_xyz
 x,y,z
_cell_length_a 33.1459
_cell_length_b 33.1589
_cell_length_c 34.0505
_cell_angle_alpha 89.849300
_cell_angle_beta 90.012500
_cell_angle_gamma 89.842200
loop_
  _atom_site_label
  _atom_site_type_symbol
  _atom_site_fract_x
  _atom_site_fract_y
  _atom_site_fract_z
N1 N 0.29631 0.40663 1.37759
 N2 N 0.29709 0.37680 1.40305
 C3 C 0.26506 0.38029 1.42723
 C4 C 0.24319 0.41428 1.41641
 C5 C 0.26398 0.43005 1.38458
 H6 H 0.25729 0.35908 1.45017
 H7 H 0.25543 0.45547 1.36651
 Cu8 Cu 0.33865 0.33525 1.40013
 Cu9 Cu 0.33486 0.41123 1.33485
 Cu10 Cu 0.40941 0.33801 1.32928
 N11 N 0.38150 0.29504 1.39745
 N12 N 0.40927 0.29652 1.36993
 C13 C 0.43448 0.26488 1.37415
 C14 C 0.42199 0.24237 1.40629
 C15 C 0.38802 0.26228 1.42004
 H16 H 0.45910 0.25815 1.35442
 H17 H 0.36909 0.25292 1.44425
 N18 N 0.40438 0.38257 1.29107
 N19 N 0.37636 0.41079 1.29362
 C20 C 0.37980 0.43600 1.26274
 C21 C 0.41155 0.42310 1.23961
 C22 C 0.42627 0.38905 1.25835
 H23 H 0.35960 0.46085 1.25670
 H24 H 0.45051 0.36989 1.24812
 H25 H 0.34834 0.35031 1.33062
 H26 H 0.38147 0.38122 1.36305
 N27 N 1.20356 0.59823 0.87822
 N28 N 1.19685 0.62188 0.90846
 C29 C 1.22789 0.61881 0.93382
 C30 C 1.25563 0.59167 0.91866
 C31 C 1.23916 0.57934 0.88331
 H32 H 1.23025 0.63565 0.96083
 H33 H 1.25242 0.55833 0.86275
 Cu34 Cu 1.14885 0.65539 0.91151
 Cu35 Cu 1.16582 0.59402 0.83441
 Cu36 Cu 1.08650 0.66201 0.83390
 N37 N 1.10923 0.69840 0.90694
 N38 N 1.08473 0.70066 0.87668
 C39 C 1.06173 0.73396 0.87995
 C40 C 1.07190 0.75347 0.91449
 C41 C 1.10274 0.73031 0.93050
 H42 H 1.04043 0.74413 0.85798
 H43 H 1.12009 0.73695 0.95659
 N44 N 1.09360 0.62058 0.79327
 N45 N 1.12403 0.59485 0.79302
 C46 C 1.12123 0.57172 0.76062
 C47 C 1.08737 0.58340 0.73961
 C48 C 1.07068 0.61452 0.76126
 H49 H 1.14254 0.54848 0.75240
 H50 H 1.04443 0.63230 0.75385
 H51 H 1.14822 0.65331 0.84027
 H52 H 1.11465 0.61415 0.86258
 N53 N 0.70489 -0.09593 0.12152
 N54 N 0.69862 -0.12064 0.09205
 C55 C 0.72952 -0.11768 0.06647
 C56 C 0.75660 -0.08952 0.08078
 C57 C 0.73995 -0.07650 0.11579
 H58 H 0.73234 -0.13535 0.03999
 H59 H 0.75286 -0.05480 0.13581
 Cu60 Cu 0.65134 -0.15521 0.09055
 Cu61 Cu 0.66782 -0.09144 0.16563
 Cu62 Cu 0.59060 -0.16126 0.16970
 N63 N 0.61196 -0.19817 0.09637
 N64 N 0.58820 -0.20036 0.12718
 C65 C 0.56481 -0.23334 0.12413
 C66 C 0.57401 -0.25269 0.08919
 C67 C 0.60465 -0.22980 0.07273
 H68 H 0.54368 -0.24322 0.14632
 H69 H 0.62113 -0.23633 0.04608
 N70 N 0.59811 -0.11905 0.20968
 N71 N 0.62717 -0.09199 0.20782
 C72 C 0.62451 -0.06753 0.23926
 C73 C 0.59217 -0.07978 0.26201
 C74 C 0.57636 -0.11266 0.24247
 H75 H 0.64522 -0.04331 0.24559
 H76 H 0.55104 -0.13076 0.25188
 H77 H 0.65166 -0.15153 0.16178
 H78 H 0.61637 -0.11393 0.13915
 N79 N -0.20392 1.09271 -0.37950
 N80 N -0.19739 1.11689 -0.40945
 C81 C -0.22831 1.11404 -0.43495
 C82 C -0.25574 1.08649 -0.42010
 C83 C -0.23923 1.07365 -0.38488
 H84 H -0.23097 1.13160 -0.46160
 H85 H -0.25251 1.05257 -0.36436
 Cu86 Cu -0.15036 1.15144 -0.41123
 Cu87 Cu -0.16713 1.08919 -0.33500
 Cu88 Cu -0.09194 1.16133 -0.33100
 N89 N -0.11350 1.19629 -0.40538
 N90 N -0.09071 1.20025 -0.37406
 C91 C -0.06958 1.23474 -0.37711
 C92 C -0.07981 1.25353 -0.41219
 C93 C -0.10788 1.22807 -0.42934
 H94 H -0.04907 1.24602 -0.35502
 H95 H -0.12410 1.23252 -0.45652
 N96 N -0.09851 1.11897 -0.29068
 N97 N -0.12680 1.09110 -0.29255
 C98 C -0.12369 1.06677 -0.26096
 C99 C -0.09187 1.07993 -0.23805
 C100 C -0.07682 1.11322 -0.25769
 H101 H -0.14376 1.04197 -0.25466
 H102 H -0.05205 1.13200 -0.24825
 H103 H -0.15234 1.14956 -0.34007
 H104 H -0.11543 1.11246 -0.36078
 N105 N 0.71080 0.60163 0.62745
 N106 N 0.70425 0.62564 0.59734
 C107 C 0.73461 0.62142 0.57133
 C108 C 0.76159 0.59316 0.58607
 C109 C 0.74546 0.58139 0.62172
 H110 H 0.73704 0.63813 0.54416
 H111 H 0.75834 0.55979 0.64204
 Cu112 Cu 0.65724 0.66083 0.59535
 Cu113 Cu 0.67420 0.59820 0.67191
 Cu114 Cu 0.59652 0.66770 0.67452
 N115 N 0.61834 0.70444 0.60120
 N116 N 0.59469 0.70684 0.63206
 C117 C 0.57186 0.74032 0.62931
 C118 C 0.58173 0.76013 0.59481
 C119 C 0.61130 0.73640 0.57768
 H120 H 0.55039 0.74977 0.65130
 H121 H 0.62709 0.74255 0.55053
 N122 N 0.60372 0.62568 0.71473
 N123 N 0.63380 0.59957 0.71421
 C124 C 0.63143 0.57588 0.74633
 C125 C 0.59820 0.58775 0.76807
 C126 C 0.58130 0.61920 0.74703
 H127 H 0.65238 0.55191 0.75328
 H128 H 0.55486 0.63641 0.75519
 H129 H 0.62282 0.61995 0.64466
 H130 H 0.65773 0.65813 0.66660
 N131 N 0.79267 0.40193 0.12683
 N132 N 0.79457 0.37287 0.10072
 C133 C 0.76305 0.37630 0.07594
 C134 C 0.74017 0.40933 0.08715
 C135 C 0.76008 0.42497 0.11939
 H136 H 0.75682 0.35574 0.05218
 H137 H 0.75055 0.45042 0.13693
 Cu138 Cu 0.83668 0.33203 0.10318
 Cu139 Cu 0.83024 0.40550 0.17070
 Cu140 Cu 0.90413 0.33140 0.17682
 N141 N 0.87905 0.29150 0.10619
 N142 N 0.90494 0.29096 0.13543
 C143 C 0.92943 0.25873 0.13163
 C144 C 0.91825 0.23790 0.09816
 C145 C 0.88632 0.25971 0.08272
 H146 H 0.95307 0.25085 0.15212
 H147 H 0.86908 0.25211 0.05683
 N148 N 0.89848 0.37504 0.21565
 N149 N 0.87090 0.40371 0.21295
 C150 C 0.87449 0.42854 0.24401
 C151 C 0.90584 0.41483 0.26739
 C152 C 0.92018 0.38081 0.24857
 H153 H 0.85494 0.45397 0.24974
 H154 H 0.94439 0.36147 0.25865
 H155 H 0.87780 0.37647 0.14359
 H156 H 0.84312 0.34454 0.17348
 N157 N 0.29287 0.10116 0.87237
 N158 N 0.29594 0.12832 0.90025
 C159 C 0.26427 0.12475 0.92480
 C160 C 0.24003 0.09361 0.91166
 C161 C 0.25934 0.07919 0.87846
 H162 H 0.25925 0.14366 0.95012
 H163 H 0.24913 0.05499 0.85973
 Cu164 Cu 0.34031 0.16658 0.90204
 Cu165 Cu 0.33143 0.09768 0.82933
 Cu166 Cu 0.40632 0.16995 0.82675
 N167 N 0.38061 0.20894 0.89747
 N168 N 0.40609 0.21024 0.86797
 C169 C 0.42946 0.24317 0.87141
 C170 C 0.41800 0.26378 0.90492
 C171 C 0.38700 0.24106 0.92077
 H172 H 0.45260 0.25159 0.85067
 H173 H 0.36986 0.24806 0.94691
 N174 N 0.40197 0.12684 0.78753
 N175 N 0.37333 0.09931 0.78817
 C176 C 0.37749 0.07545 0.75639
 C177 C 0.41047 0.08847 0.73490
 C178 C 0.42511 0.12120 0.75555
 H179 H 0.35757 0.05092 0.74879
 H180 H 0.44994 0.14043 0.74730
 H181 H 0.37951 0.12340 0.85810
 H182 H 0.34482 0.15840 0.83108
 N183 N 0.20968 0.89651 0.37276
 N184 N 0.20761 0.86761 0.39915
 C185 C 0.23884 0.87120 0.42424
 C186 C 0.26160 0.90420 0.41289
 C187 C 0.24201 0.91961 0.38029
 H188 H 0.24477 0.85099 0.44849
 H189 H 0.25145 0.94512 0.36272
 Cu190 Cu 0.16490 0.82763 0.39727
 Cu191 Cu 0.17220 0.90043 0.32898
 Cu192 Cu 0.09543 0.82964 0.32526
 N193 N 0.12191 0.78801 0.39476
 N194 N 0.09435 0.78930 0.36702
 C195 C 0.06893 0.75802 0.37167
 C196 C 0.08127 0.73595 0.40414
 C197 C 0.11508 0.75576 0.41785
 H198 H 0.04432 0.75109 0.35202
 H199 H 0.13372 0.74661 0.44237
 N200 N 0.10194 0.87280 0.28577
 N201 N 0.13144 0.89942 0.28699
 C202 C 0.12900 0.92351 0.25517
 C203 C 0.09639 0.91149 0.23277
 C204 C 0.07983 0.87945 0.25320
 H205 H 0.14969 0.94771 0.24870
 H206 H 0.05400 0.86185 0.24433
 H207 H 0.12423 0.87348 0.35748
 H208 H 0.15688 0.83986 0.32707
 Zn209 Zn 0.00928 1.04732 -0.02503
 Zn210 Zn -0.03234 0.96746 -0.03168
 Zn211 Zn 0.04872 0.97342 0.00705
 Zn212 Zn -0.02403 1.00747 0.04631
 O213 O 0.00038 0.99886 -0.00092
 O214 O -0.01522 1.05079 -0.07162
 O215 O -0.00906 0.92039 -0.04457
 O216 O 0.09083 1.00098 -0.01226
 O217 O -0.04587 0.99179 -0.07703
 O218 O 0.06153 1.05632 -0.03507
 O219 O 0.05065 0.92509 -0.01579
 O220 O 0.00425 0.98796 0.08676
 O221 O -0.07907 0.95443 -0.00803
 O222 O 0.05900 0.96382 0.05792
 O223 O -0.07238 0.98426 0.04963
 O224 O -0.03265 1.05961 0.05623
 O225 O -0.00872 1.08947 0.00295
 C226 C -0.03718 1.02640 -0.09066
 C227 C 0.02532 0.90567 -0.03623
 C228 C 0.09284 1.03497 -0.02941
 C229 C 0.03816 0.97024 0.08857
 C230 C -0.09259 0.96298 0.02584
 C231 C -0.02585 1.09120 0.03625
 Zn232 Zn 0.49121 -0.04698 0.47460
 Zn233 Zn 0.52395 -0.00786 0.54620
 Zn234 Zn 0.53249 0.03282 0.46792
 Zn235 Zn 0.45154 0.02663 0.50671
 O236 O 0.49985 0.00125 0.49880
 O237 O 0.50955 -0.08919 0.50214
 O238 O 0.57217 0.01548 0.54951
 O239 O 0.54657 0.00855 0.42276
 O240 O 0.53308 -0.06016 0.55583
 O241 O 0.51537 -0.05014 0.42793
 O242 O 0.57893 0.04588 0.49191
 O243 O 0.44913 0.07452 0.48279
 O244 O 0.49543 0.01134 0.58678
 O245 O 0.50882 0.07958 0.45403
 O246 O 0.44145 0.03675 0.55745
 O247 O 0.40950 -0.00139 0.48825
 O248 O 0.43916 -0.05631 0.46519
 C249 C 0.52663 -0.09143 0.53541
 C250 C 0.59240 0.03691 0.52576
 C251 C 0.53765 -0.02587 0.40903
 C252 C 0.47410 0.09383 0.46174
 C253 C 0.46183 0.02973 0.58830
 C254 C 0.40771 -0.03538 0.47129
 Zn255 Zn 1.01064 0.44796 0.47844
 Zn256 Zn 1.04935 0.52158 0.51111
 Zn257 Zn 0.96879 0.52776 0.47162
 Zn258 Zn 0.97675 0.48710 0.54983
 O259 O 1.00134 0.49614 0.50270
 O260 O 1.06289 0.43925 0.46827
 O261 O 1.05189 0.56923 0.48672
 O262 O 0.95393 0.50305 0.42713
 O263 O 1.09168 0.49369 0.49301
 O264 O 0.98579 0.44450 0.43203
 O265 O 0.99285 0.57365 0.45660
 O266 O 0.92896 0.51170 0.55321
 O267 O 1.05888 0.53179 0.56186
 O268 O 0.92296 0.54255 0.49576
 O269 O 1.00514 0.50563 0.59070
 O270 O 0.96707 0.43484 0.55897
 O271 O 0.99288 0.40567 0.50622
 C272 C 1.09403 0.46031 0.47500
 C273 C 1.02737 0.58796 0.46456
 C274 C 0.96288 0.46859 0.41343
 C275 C 0.90943 0.53415 0.52968
 C276 C 1.03844 0.52434 0.59253
 C277 C 0.97455 0.40351 0.53889
 Zn278 Zn 0.47537 0.49492 0.95428
 Zn279 Zn 0.46684 0.53556 1.03220
 Zn280 Zn 0.50889 0.45559 1.02570
 Zn281 Zn 0.54775 0.52941 0.99350
 O282 O 0.49965 0.50395 1.00151
 O283 O 0.42717 0.51852 0.95066
 O284 O 0.45362 0.51133 1.07770
 O285 O 0.49055 0.41329 0.99838
 O286 O 0.42005 0.54850 1.00827
 O287 O 0.46634 0.44271 0.94495
 O288 O 0.48505 0.45255 1.07244
 O289 O 0.58998 0.50185 1.01252
 O290 O 0.49005 0.58263 1.04535
 O291 O 0.56119 0.44638 1.03522
 O292 O 0.54968 0.57766 1.01646
 O293 O 0.55805 0.53861 0.94273
 O294 O 0.50392 0.51364 0.91367
 C295 C 0.40676 0.53987 0.97431
 C296 C 0.46300 0.47692 1.09150
 C297 C 0.47311 0.41129 0.96526
 C298 C 0.59232 0.46777 1.02940
 C299 C 0.52452 0.59709 1.03719
 C300 C 0.53770 0.53146 0.91198
 C301 C 1.20487 0.42665 0.43167
 C302 C 1.20366 0.43015 0.47675
 C303 C 1.16676 0.44071 0.49129
 C304 C 1.13441 0.44697 0.45951
 C305 C 1.15254 0.47825 0.43133
 C306 C 1.18933 0.46790 0.41691
 C307 C 1.17102 0.39682 0.42152
 C308 C 1.13424 0.40736 0.43603
 H309 H 1.22957 0.42494 0.49562
 H310 H 1.16117 0.44434 0.52249
 H311 H 1.13804 0.50671 0.42402
 H312 H 1.20591 0.48822 0.39792
 H313 H 1.17556 0.36966 0.40430
 H314 H 1.10763 0.38904 0.43118
 C315 C 0.29585 0.57868 0.93527
 C316 C 0.33141 0.59179 0.90934
 C317 C 0.36803 0.57935 0.92282
 C318 C 0.36601 0.55472 0.96105
 C319 C 0.34309 0.58199 0.99001
 C320 C 0.30637 0.59455 0.97655
 C321 C 0.30001 0.53265 0.93877
 C322 C 0.33666 0.52014 0.95218
 H323 H 0.32808 0.60970 0.88279
 H324 H 0.39596 0.58663 0.90776
 H325 H 0.35450 0.59061 1.01866
 H326 H 0.28683 0.61362 0.99404
 H327 H 0.27605 0.51167 0.93161
 H328 H 0.34396 0.48849 0.95643
 C329 C -0.20331 0.92359 0.06421
 C330 C -0.19971 0.96964 0.06041
 C331 C -0.16313 0.98235 0.04724
 C332 C -0.13327 0.94794 0.03883
 C333 C -0.13122 0.92357 0.07721
 C334 C -0.16777 0.91093 0.09048
 C335 C -0.19232 0.90752 0.02314
 C336 C -0.15565 0.92028 0.00986
 H337 H -0.22403 0.99049 0.06719
 H338 H -0.15621 1.01402 0.04281
 H339 H -0.10331 0.91655 0.09251
 H340 H -0.17105 0.89313 0.11708
 H341 H -0.21156 0.88820 0.00567
 H342 H -0.14392 0.91158 -0.01866
 C343 C 0.70386 0.07416 0.56364
 C344 C 0.69940 0.02822 0.56005
 C345 C 0.66253 0.01625 0.54705
 C346 C 0.63329 0.05125 0.53863
 C347 C 0.63184 0.07557 0.57693
 C348 C 0.66869 0.08747 0.59001
 C349 C 0.69299 0.09052 0.52254
 C350 C 0.65604 0.07851 0.50947
 H351 H 0.72334 0.00690 0.56683
 H352 H 0.65499 -0.01528 0.54275
 H353 H 0.60413 0.08306 0.59230
 H354 H 0.67244 0.10515 0.61655
 H355 H 0.71250 0.10946 0.50489
 H356 H 0.64436 0.08748 0.48096
 C357 C 0.43710 0.20439 0.42002
 C358 C 0.47928 0.19197 0.40502
 C359 C 0.49199 0.15534 0.41855
 C360 C 0.46156 0.13440 0.44594
 C361 C 0.45333 0.16529 0.47852
 C362 C 0.44069 0.20188 0.46503
 C363 C 0.40946 0.16916 0.40865
 C364 C 0.42227 0.13266 0.42210
 H365 H 0.49822 0.21050 0.38636
 H366 H 0.52129 0.14292 0.41094
 H367 H 0.45769 0.15910 0.50957
 H368 H 0.43438 0.22688 0.48466
 H369 H 0.38225 0.17256 0.39116
 H370 H 0.40601 0.10498 0.41608
 C371 C 0.93393 0.29217 0.57455
 C372 C 0.92272 0.32637 0.60302
 C373 C 0.93630 0.36333 0.59177
 C374 C 0.95992 0.36300 0.55284
 C375 C 0.99367 0.33181 0.55912
 C376 C 0.98011 0.29477 0.57042
 C377 C 0.91761 0.30637 0.53436
 C378 C 0.93116 0.34333 0.52323
 H379 H 0.90542 0.32194 0.62976
 H380 H 0.93059 0.39018 0.60907
 H381 H 1.02548 0.33829 0.55502
 H382 H 1.00043 0.26962 0.57583
 H383 H 0.89754 0.28926 0.51568
 H384 H 0.92236 0.35724 0.49561
 C385 C 0.05879 0.79242 -0.07284
 C386 C 0.08647 0.82638 -0.08750
 C387 C 0.07491 0.86384 -0.07570
 C388 C 0.03673 0.86418 -0.05017
 C389 C 0.00470 0.84228 -0.07488
 C390 C 0.01615 0.80472 -0.08662
 C391 C 0.05741 0.79751 -0.02793
 C392 C 0.04599 0.83503 -0.01615
 H393 H 0.11285 0.82142 -0.10578
 H394 H 0.09139 0.89083 -0.08394
 H395 H -0.02474 0.85473 -0.08195
 H396 H -0.00388 0.78537 -0.10326
 H397 H 0.06405 0.77356 -0.00709
 H398 H 0.04311 0.84304 0.01463
 C399 C 0.55994 0.70890 1.07598
 C400 C 0.55717 0.70509 1.03099
 C401 C 0.54506 0.66809 1.01851
 C402 C 0.53649 0.63812 1.05194
 C403 C 0.57538 0.63720 1.07648
 C404 C 0.58766 0.67412 1.08896
 C405 C 0.51759 0.69682 1.09060
 C406 C 0.50540 0.65977 1.07811
 H407 H 0.56337 0.72954 1.01062
 H408 H 0.54116 0.66103 0.98762
 H409 H 0.59178 0.60975 1.08362
 H410 H 0.61457 0.67815 1.10671
 H411 H 0.49831 0.71595 1.10838
 H412 H 0.47608 0.64749 1.08566
 C413 C 0.42472 0.43912 1.20021
 C414 C 0.47069 0.44363 1.19647
 C415 C 0.48302 0.45658 1.16048
 C416 C 0.44834 0.46406 1.13137
 C417 C 0.42481 0.42423 1.13039
 C418 C 0.41258 0.41117 1.16634
 C419 C 0.40781 0.48084 1.18859
 C420 C 0.42015 0.49386 1.15255
 H421 H 0.49172 0.43750 1.22020
 H422 H 0.51460 0.46148 1.15349
 H423 H 0.41814 0.40780 1.10363
 H424 H 0.39546 0.38359 1.17030
 H425 H 0.38859 0.49917 1.20717
 H426 H 0.41105 0.52289 1.14064
 C427 C 0.57835 -0.06372 0.30118
 C428 C 0.53243 -0.05752 0.30358
 C429 C 0.51932 -0.04462 0.33928
 C430 C 0.55322 -0.03879 0.36949
 C431 C 0.57547 -0.07948 0.37085
 C432 C 0.58847 -0.09253 0.33518
 C433 C 0.59619 -0.02283 0.31366
 C434 C 0.58304 -0.00980 0.34940
 H435 H 0.51200 -0.06251 0.27916
 H436 H 0.48770 -0.03865 0.34534
 H437 H 0.58077 -0.09650 0.39766
 H438 H 0.60485 -0.12067 0.33153
 H439 H 0.61673 -0.00511 0.29589
 H440 H 0.59274 0.01866 0.36188
 C441 C -0.07789 1.06408 -0.19877
 C442 C -0.09491 1.02274 -0.18639
 C443 C -0.08173 1.00983 -0.15057
 C444 C -0.05269 1.03934 -0.13029
 C445 C -0.01871 1.04606 -0.16027
 C446 C -0.03187 1.05888 -0.19607
 C447 C -0.08886 1.09250 -0.16484
 C448 C -0.07581 1.07954 -0.12907
 H449 H -0.11489 1.00462 -0.20428
 H450 H -0.09090 0.98109 -0.13819
 H451 H 0.01298 1.04076 -0.15399
 H452 H -0.01139 1.06447 -0.22034
 H453 H -0.10581 1.12030 -0.16861
 H454 H -0.08163 1.09630 -0.10231
 C455 C 1.07389 0.56748 0.70022
 C456 C 1.03340 0.58440 0.68512
 C457 C 1.02238 0.56995 0.64940
 C458 C 1.05246 0.53976 0.63175
 C459 C 1.09307 0.56222 0.63147
 C460 C 1.10419 0.57665 0.66726
 C461 C 1.06856 0.52142 0.69917
 C462 C 1.05742 0.50691 0.66333
 H463 H 1.01431 0.60528 0.70103
 H464 H 0.99442 0.57890 0.63517
 H465 H 1.11165 0.56636 0.60554
 H466 H 1.13206 0.59313 0.67171
 H467 H 1.07314 0.50192 0.72445
 H468 H 1.05260 0.47503 0.65797
 C469 C 0.80089 0.57837 0.56908
 C470 C 0.81197 0.59396 0.52781
 C471 C 0.84792 0.57957 0.51418
 C472 C 0.86954 0.55091 0.54305
 C473 C 0.87305 0.57515 0.58127
 C474 C 0.83721 0.58944 0.59487
 C475 C 0.80261 0.53220 0.56551
 C476 C 0.83849 0.51786 0.55198
 H477 H 0.79335 0.61423 0.51051
 H478 H 0.85965 0.58778 0.48551
 H479 H 0.90140 0.58087 0.59622
 H480 H 0.83497 0.60737 0.62142
 H481 H 0.77758 0.51246 0.57268
 H482 H 0.84409 0.48591 0.54762
 C483 C 0.70072 0.42437 1.07047
 C484 C 0.68218 0.39893 1.03724
 C485 C 0.64646 0.41368 1.02344
 C486 C 0.63243 0.45246 1.04391
 C487 C 0.63175 0.44184 1.08785
 C488 C 0.66732 0.42702 1.10167
 C489 C 0.70365 0.46714 1.05330
 C490 C 0.66801 0.48189 1.03937
 H491 H 0.69554 0.37169 1.02541
 H492 H 0.62976 0.39912 1.00002
 H493 H 0.60545 0.44556 1.10653
 H494 H 0.67131 0.41799 1.13209
 H495 H 0.73146 0.48432 1.05205
 H496 H 0.66559 0.51171 1.02634
 C497 C 0.20070 1.07846 -0.07153
 C498 C 0.16691 1.07614 -0.10235
 C499 C 0.13154 1.06127 -0.08823
 C500 C 0.13277 1.05028 -0.04436
 C501 C 0.16851 1.02075 -0.04047
 C502 C 0.20393 1.03552 -0.05473
 C503 C 0.18245 1.10366 -0.03790
 C504 C 0.14697 1.08887 -0.02379
 H505 H 0.17048 1.08543 -0.13274
 H506 H 0.10503 1.05775 -0.10663
 H507 H 0.16633 0.99082 -0.02769
 H508 H 0.23179 1.01824 -0.05400
 H509 H 0.19570 1.13097 -0.02625
 H510 H 0.13044 1.10340 -0.00019
 C511 C 0.30052 -0.08028 0.42990
 C512 C 0.31937 -0.10556 0.46326
 C513 C 0.35467 -0.09026 0.47724
 C514 C 0.36797 -0.05117 0.45678
 C515 C 0.36914 -0.06161 0.41286
 C516 C 0.33403 -0.07698 0.39889
 C517 C 0.29654 -0.03761 0.44699
 C518 C 0.33176 -0.02233 0.46110
 H519 H 0.30652 -0.13308 0.47500
 H520 H 0.37154 -0.10464 0.50078
 H521 H 0.39545 -0.05740 0.39432
 H522 H 0.33045 -0.08603 0.36847
 H523 H 0.26834 -0.02092 0.44806
 H524 H 0.33347 0.00745 0.47413
 C525 C 0.56588 -0.20018 0.57942
 C526 C 0.59925 -0.16856 0.57427
 C527 C 0.58602 -0.13281 0.55933
 C528 C 0.54048 -0.13165 0.55095
 C529 C 0.53295 -0.16791 0.52375
 C530 C 0.54624 -0.20369 0.53870
 C531 C 0.53372 -0.17914 0.60496
 C532 C 0.52052 -0.14334 0.59000
 H533 H 0.63067 -0.17383 0.58177
 H534 H 0.60616 -0.10761 0.55398
 H535 H 0.51834 -0.16584 0.49528
 H536 H 0.54291 -0.23196 0.52304
 H537 H 0.52189 -0.19106 0.63227
 H538 H 0.49774 -0.12513 0.60453
 C539 C 1.06507 0.69658 0.41959
 C540 C 1.09343 0.66104 0.41079
 C541 C 1.08041 0.62513 0.42530
 C542 C 1.04020 0.62782 0.44758
 C543 C 1.04694 0.66017 0.47907
 C544 C 1.05982 0.69614 0.46446
 C545 C 1.02373 0.68340 0.40350
 C546 C 1.01071 0.64740 0.41815
 H547 H 1.12123 0.66383 0.39416
 H548 H 1.09711 0.59725 0.42107
 H549 H 1.04154 0.65535 0.51018
 H550 H 1.06536 0.72204 0.48311
 H551 H 1.00577 0.70092 0.38298
 H552 H 0.98196 0.63443 0.40976
 C553 C -0.06539 1.19876 0.08219
 C554 C -0.03210 1.17805 0.10665
 C555 C -0.01873 1.14266 0.09102
 C556 C -0.03967 1.13109 0.05243
 C557 C -0.08494 1.13132 0.06213
 C558 C -0.09831 1.16655 0.07780
 C559 C -0.04712 1.20314 0.04092
 C560 C -0.03363 1.16780 0.02530
 H561 H -0.01988 1.18981 0.13381
 H562 H 0.00473 1.12462 0.10481
 H563 H -0.10480 1.10585 0.05718
 H564 H -0.12955 1.17107 0.08636
 H565 H -0.04479 1.23167 0.02539
 H566 H -0.01990 1.16633 -0.00359
 C567 C 0.43387 0.30319 0.92064
 C568 C 0.45266 0.29923 0.96174
 C569 C 0.46597 0.33476 0.97695
 C570 C 0.45926 0.37125 0.94961
 C571 C 0.47986 0.35948 0.91092
 C572 C 0.46668 0.32393 0.89570
 C573 C 0.40066 0.33526 0.92516
 C574 C 0.41388 0.37073 0.94039
 H575 H 0.45539 0.27084 0.97749
 H576 H 0.47997 0.33653 1.00570
 H577 H 0.50298 0.37751 0.89675
 H578 H 0.47877 0.31211 0.86850
 H579 H 0.36936 0.33047 0.91705
 H580 H 0.39382 0.39615 0.94538
 C581 C 0.58290 0.57145 0.80660
 C582 C 0.54086 0.55244 0.80305
 C583 C 0.52558 0.53885 0.83771
 C584 C 0.55379 0.54553 0.87303
 C585 C 0.59370 0.52525 0.86128
 C586 C 0.60901 0.53874 0.82651
 C587 C 0.57818 0.60444 0.83789
 C588 C 0.56283 0.59094 0.87251
 H589 H 0.52456 0.54971 0.77552
 H590 H 0.49619 0.52464 0.83960
 H591 H 0.60865 0.50225 0.87880
 H592 H 0.63711 0.52716 0.81476
 H593 H 0.58631 0.63579 0.83323
 H594 H 0.55772 0.61080 0.89734
 C595 C 0.42459 0.07259 0.69566
 C596 C 0.39438 0.08120 0.66243
 C597 C 0.40612 0.06690 0.62675
 C598 C 0.44720 0.04509 0.62740
 C599 C 0.47648 0.07578 0.64525
 C600 C 0.46485 0.09010 0.68087
 C601 C 0.43094 0.02663 0.69475
 C602 C 0.44268 0.01223 0.65902
 H603 H 0.36611 0.09722 0.66663
 H604 H 0.38768 0.07071 0.60066
 H605 H 0.50442 0.08505 0.63129
 H606 H 0.48343 0.11114 0.69704
 H607 H 0.42659 0.00710 0.72002
 H608 H 0.44825 -0.01958 0.65377
 C609 C 0.08164 0.92827 0.19414
 C610 C 0.03944 0.94720 0.19720
 C611 C 0.02477 0.96141 0.16247
 C612 C 0.05369 0.95537 0.12755
 C613 C 0.09322 0.97543 0.14038
 C614 C 0.10792 0.96134 0.17520
 C615 C 0.07772 0.89583 0.16222
 C616 C 0.06299 0.90995 0.12751
 H617 H 0.02258 0.94942 0.22444
 H618 H -0.00467 0.97564 0.16030
 H619 H 0.10841 0.99868 0.12349
 H620 H 0.13578 0.97269 0.18756
 H621 H 0.08593 0.86441 0.16653
 H622 H 0.05851 0.89054 0.10225
 C623 C 0.92027 0.43082 0.30634
 C624 C 0.96626 0.43636 0.30807
 C625 C 0.98004 0.44920 0.34354
 C626 C 0.94665 0.45560 0.37420
 C627 C 0.91676 0.48493 0.35443
 C628 C 0.90296 0.47199 0.31893
 C629 C 0.91041 0.40226 0.34059
 C630 C 0.92410 0.41523 0.37604
 H631 H 0.98627 0.43097 0.28339
 H632 H 1.01179 0.45473 0.34913
 H633 H 0.90742 0.51354 0.36695
 H634 H 0.88223 0.48992 0.30147
 H635 H 0.89371 0.37436 0.33728
 H636 H 0.91908 0.39839 0.40298
   
