data_POSCAR
  _audit_creation_date              2014-09-24
  _audit_creation_method            'ToBaCCo'
  _symmetry_space_group_name_H-M    'P1'
  _symmetry_Int_Tables_number       1
  _symmetry_cell_setting            triclinic
  loop_
  _symmetry_equiv_pos_as_xyz
 x,y,z
_cell_length_a 64.1644
_cell_length_b 64.1634
_cell_length_c 62.5238
_cell_angle_alpha 89.975100
_cell_angle_beta 89.980400
_cell_angle_gamma 89.987600
loop_
  _atom_site_label
  _atom_site_type_symbol
  _atom_site_fract_x
  _atom_site_fract_y
  _atom_site_fract_z
O1 O 0.02067 0.27939 -0.01974
 O2 O -0.02007 0.27945 0.02177
 O3 O 0.02054 0.27923 0.02188
 O4 O -0.01992 0.27965 -0.01985
 O5 O -0.02012 0.24528 -0.01997
 O6 O 0.02034 0.24486 0.02174
 O7 O -0.02026 0.24511 0.02163
 O8 O 0.02046 0.24502 -0.01986
 Cu9 Cu 0.00033 0.28287 0.00103
 Cu10 Cu 0.00008 0.24162 0.00088
 C11 C 0.02757 0.26218 -0.02689
 C12 C -0.02722 0.26229 0.02882
 C13 C 0.02741 0.26197 0.02892
 C14 C -0.02697 0.26253 -0.02704
 O15 O 0.47807 0.77653 0.52245
 O16 O 0.51901 0.77724 0.48121
 O17 O 0.47840 0.77724 0.48086
 O18 O 0.51865 0.77635 0.52286
 O19 O 0.51857 0.74198 0.52218
 O20 O 0.47836 0.74287 0.48020
 O21 O 0.51897 0.74287 0.48053
 O22 O 0.47799 0.74217 0.52180
 Cu23 Cu 0.49855 0.78028 0.50191
 Cu24 Cu 0.49848 0.73903 0.50110
 C25 C 0.47099 0.75924 0.52918
 C26 C 0.52601 0.76019 0.47380
 C27 C 0.47145 0.76019 0.47337
 C28 C 0.52549 0.75900 0.52973
 O29 O 0.97809 0.72608 -0.01946
 O30 O 1.01908 0.72690 0.02170
 O31 O 0.97853 0.72691 0.02216
 O32 O 1.01865 0.72625 -0.01998
 O33 O 1.01856 0.76058 -0.02063
 O34 O 0.97846 0.76127 0.02148
 O35 O 1.01901 0.76126 0.02107
 O36 O 0.97798 0.76041 -0.02015
 Cu37 Cu 0.99861 0.72310 0.00116
 Cu38 Cu 0.99851 0.76432 0.00037
 C39 C 0.97096 0.74309 -0.02690
 C40 C 1.02603 0.74421 0.02850
 C41 C 0.97163 0.74421 0.02905
 C42 C 1.02549 0.74331 -0.02760
 O43 O 0.52090 0.22827 0.52138
 O44 O 0.48034 0.22790 0.47977
 O45 O 0.52085 0.22818 0.47971
 O46 O 0.48036 0.22800 0.52144
 O47 O 0.48011 0.26237 0.52136
 O48 O 0.52062 0.26256 0.47961
 O49 O 0.48008 0.26227 0.47967
 O50 O 0.52067 0.26264 0.52129
 Cu51 Cu 0.50063 0.22464 0.50059
 Cu52 Cu 0.50034 0.26590 0.50048
 C53 C 0.52772 0.24551 0.52849
 C54 C 0.47330 0.24502 0.47253
 C55 C 0.52764 0.24540 0.47247
 C56 C 0.47332 0.24515 0.52859
 O57 O 0.72679 0.02041 -0.02209
 O58 O 0.72544 -0.02066 0.01901
 O59 O 0.72609 0.01990 0.01958
 O60 O 0.72630 -0.02012 -0.02261
 O61 O 0.76067 -0.02061 -0.02193
 O62 O 0.76045 0.01940 0.02023
 O63 O 0.75977 -0.02117 0.01970
 O64 O 0.76115 0.01993 -0.02145
 Cu65 Cu 0.72272 -0.00006 -0.00159
 Cu66 Cu 0.76395 -0.00065 -0.00079
 C67 C 0.74419 0.02717 -0.02887
 C68 C 0.74236 -0.02801 0.02643
 C69 C 0.74324 0.02649 0.02716
 C70 C 0.74353 -0.02721 -0.02952
 O71 O 0.22452 0.51789 0.47879
 O72 O 0.22392 0.47729 0.52041
 O73 O 0.22438 0.51785 0.52050
 O74 O 0.22410 0.47731 0.47882
 O75 O 0.25847 0.47694 0.47895
 O76 O 0.25874 0.51748 0.52063
 O77 O 0.25829 0.47692 0.52054
 O78 O 0.25889 0.51753 0.47891
 Cu79 Cu 0.22079 0.49765 0.49961
 Cu80 Cu 0.26204 0.49721 0.49976
 C81 C 0.24180 0.52464 0.47168
 C82 C 0.24100 0.47012 0.52758
 C83 C 0.24160 0.52457 0.52776
 C84 C 0.24124 0.47013 0.47178
 O85 O 0.27509 1.01858 0.02038
 O86 O 0.27538 0.97790 -0.02117
 O87 O 0.27492 1.01849 -0.02132
 O88 O 0.27558 0.97802 0.02042
 O89 O 0.24121 0.97765 0.02060
 O90 O 0.24059 1.01813 -0.02116
 O91 O 0.24101 0.97754 -0.02099
 O92 O 0.24076 1.01822 0.02055
 Cu93 Cu 0.27868 0.99831 -0.00044
 Cu94 Cu 0.23746 0.99787 -0.00024
 C95 C 0.25788 1.02537 0.02767
 C96 C 0.25824 0.97071 -0.02816
 C97 C 0.25765 1.02525 -0.02848
 C98 C 0.25850 0.97087 0.02764
 O99 O 0.77831 0.52075 0.51864
 O100 O 0.77798 0.47977 0.47749
 O101 O 0.77737 0.52034 0.47700
 O102 O 0.77871 0.48016 0.51908
 O103 O 0.74434 0.47978 0.51979
 O104 O 0.74301 0.51992 0.47775
 O105 O 0.74361 0.47935 0.47821
 O106 O 0.74394 0.52037 0.51939
 Cu107 Cu 0.78153 0.50031 0.49798
 Cu108 Cu 0.74028 0.49983 0.49887
 C109 C 0.76119 0.52759 0.52607
 C110 C 0.76075 0.47252 0.47081
 C111 C 0.75996 0.52700 0.47015
 C112 C 0.76174 0.47304 0.52660
 C113 C 0.24437 0.25508 0.24926
 C114 C 0.25951 0.24015 0.24901
 C115 C 0.25928 0.22285 0.23321
 C116 C 0.27701 0.24044 0.26455
 C117 C 0.24313 0.27087 0.26660
 C118 C 0.22835 0.25642 0.23216
 C119 C 0.24166 0.21007 0.23086
 C120 C 0.24140 0.19426 0.21550
 C121 C 0.25884 0.19075 0.20236
 C122 C 0.27664 0.20325 0.20513
 C123 C 0.27687 0.21909 0.22045
 C124 C 0.28102 0.22287 0.27724
 C125 C 0.29689 0.22326 0.29253
 C126 C 0.30914 0.24123 0.29531
 C127 C 0.30545 0.25862 0.28217
 C128 C 0.28962 0.25819 0.26684
 C129 C 0.24262 0.29214 0.26145
 C130 C 0.24183 0.30716 0.27760
 C131 C 0.24140 0.30118 0.29924
 C132 C 0.24154 0.27983 0.30434
 C133 C 0.24226 0.26482 0.28817
 C134 C 0.23412 0.25770 0.21054
 C135 C 0.21889 0.25865 0.19459
 C136 C 0.19761 0.25859 0.20000
 C137 C 0.19192 0.25771 0.22170
 C138 C 0.20715 0.25670 0.23762
 H139 H 0.22809 0.21240 0.24088
 H140 H 0.22761 0.18464 0.21402
 H141 H 0.29025 0.20107 0.19512
 H142 H 0.29064 0.22873 0.22207
 H143 H 0.27151 0.20900 0.27565
 H144 H 0.29923 0.20969 0.30253
 H145 H 0.28707 0.27175 0.25686
 H146 H 0.24321 0.29712 0.24491
 H147 H 0.24196 0.32347 0.27316
 H148 H 0.24085 0.27474 0.32084
 H149 H 0.24218 0.24846 0.29246
 H150 H 0.25041 0.25798 0.20602
 H151 H 0.22376 0.25969 0.17805
 H152 H 0.17567 0.25742 0.22636
 H153 H 0.20240 0.25580 0.25422
 H154 H 0.31488 0.27254 0.28366
 C155 C 0.75525 0.74473 0.25027
 C156 C 0.74007 0.75962 0.25017
 C157 C 0.73857 0.77526 0.23269
 C158 C 0.72431 0.76101 0.26752
 C159 C 0.75528 0.72749 0.26616
 C160 C 0.77256 0.74493 0.23448
 C161 C 0.73827 0.79659 0.23761
 C162 C 0.73762 0.81145 0.22129
 C163 C 0.73712 0.80526 0.19972
 C164 C 0.73690 0.78386 0.19487
 C165 C 0.73749 0.76901 0.21120
 C166 C 0.73041 0.76231 0.28905
 C167 C 0.71544 0.76299 0.30527
 C168 C 0.69408 0.76263 0.30026
 C169 C 0.68804 0.76184 0.27865
 C170 C 0.70302 0.76111 0.26245
 C171 C 0.73776 0.71462 0.26878
 C172 C 0.73787 0.69868 0.28401
 C173 C 0.75559 0.69514 0.29673
 C174 C 0.77324 0.70780 0.29376
 C175 C 0.77310 0.72377 0.27857
 C176 C 0.77655 0.72719 0.22204
 C177 C 0.79248 0.72733 0.20681
 C178 C 0.80482 0.74521 0.20382
 C179 C 0.80105 0.76283 0.21661
 C180 C 0.78515 0.76265 0.23189
 H181 H 0.73902 0.80172 0.25410
 H182 H 0.73800 0.82780 0.22554
 H183 H 0.73612 0.77861 0.17843
 H184 H 0.73724 0.75262 0.20709
 H185 H 0.74677 0.76273 0.29327
 H186 H 0.72057 0.76398 0.32173
 H187 H 0.69800 0.76019 0.24594
 H188 H 0.72402 0.71693 0.25901
 H189 H 0.72418 0.68895 0.28566
 H190 H 0.78705 0.70561 0.30346
 H191 H 0.78679 0.73348 0.27674
 H192 H 0.76705 0.71335 0.22386
 H193 H 0.79487 0.71359 0.19707
 H194 H 0.81054 0.77669 0.21495
 H195 H 0.78262 0.77634 0.24167
 H196 H 0.67172 0.76135 0.27429
 C197 C 0.74170 0.24214 0.24890
 C198 C 0.75685 0.25704 0.24895
 C199 C 0.77279 0.25829 0.23174
 C200 C 0.75822 0.27287 0.26624
 C201 C 0.72431 0.24247 0.26460
 C202 C 0.74183 0.22476 0.23321
 C203 C 0.79401 0.25864 0.23706
 C204 C 0.80917 0.25957 0.22105
 C205 C 0.80337 0.26032 0.19938
 C206 C 0.78206 0.26031 0.19410
 C207 C 0.76692 0.25943 0.21014
 C208 C 0.75928 0.26684 0.28780
 C209 C 0.76003 0.28188 0.30394
 C210 C 0.76001 0.30321 0.29879
 C211 C 0.75943 0.30917 0.27716
 C212 C 0.75861 0.29413 0.26104
 C213 C 0.71172 0.26023 0.26697
 C214 C 0.69592 0.26065 0.28235
 C215 C 0.69224 0.24323 0.29547
 C216 C 0.70452 0.22528 0.29264
 C217 C 0.72035 0.22490 0.27730
 C218 C 0.72418 0.22097 0.22057
 C219 C 0.72431 0.20503 0.20537
 C220 C 0.74208 0.19247 0.20261
 C221 C 0.75959 0.19602 0.21563
 C222 C 0.75942 0.21193 0.23087
 H223 H 0.79886 0.25784 0.25364
 H224 H 0.82544 0.25934 0.22561
 H225 H 0.77711 0.26124 0.17757
 H226 H 0.75060 0.25966 0.20571
 H227 H 0.75946 0.25050 0.29212
 H228 H 0.76085 0.27682 0.32044
 H229 H 0.75788 0.29907 0.24449
 H230 H 0.71422 0.27380 0.25699
 H231 H 0.68647 0.27455 0.28388
 H232 H 0.70220 0.21168 0.30263
 H233 H 0.72985 0.21103 0.27566
 H234 H 0.71044 0.23065 0.22220
 H235 H 0.71066 0.20281 0.19545
 H236 H 0.77335 0.18636 0.21415
 H237 H 0.77303 0.21430 0.24081
 H238 H 0.75919 0.32547 0.27270
 C239 C 0.25632 0.75652 0.25093
 C240 C 0.24119 0.74159 0.25095
 C241 C 0.22380 0.74195 0.23524
 C242 C 0.24135 0.72417 0.26661
 C243 C 0.27218 0.75781 0.26820
 C244 C 0.25774 0.77233 0.23361
 C245 C 0.21123 0.75972 0.23287
 C246 C 0.19544 0.76018 0.21750
 C247 C 0.19174 0.74277 0.20438
 C248 C 0.20400 0.72481 0.20720
 C249 C 0.21983 0.72439 0.22254
 C250 C 0.22369 0.72027 0.27921
 C251 C 0.22386 0.70430 0.29441
 C252 C 0.24167 0.69182 0.29719
 C253 C 0.25919 0.69547 0.28421
 C254 C 0.25898 0.71141 0.26897
 C255 C 0.29343 0.75822 0.26298
 C256 C 0.30850 0.75916 0.27907
 C257 C 0.30260 0.75984 0.30072
 C258 C 0.28127 0.75978 0.30589
 C259 C 0.26620 0.75890 0.28978
 C260 C 0.25885 0.76628 0.21206
 C261 C 0.25962 0.78129 0.19589
 C262 C 0.25957 0.80263 0.20097
 C263 C 0.25896 0.80862 0.22260
 C264 C 0.25812 0.79360 0.23875
 H265 H 0.21375 0.77328 0.24285
 H266 H 0.18601 0.77409 0.21597
 H267 H 0.20166 0.71122 0.19722
 H268 H 0.22930 0.71051 0.22418
 H269 H 0.20991 0.72989 0.27758
 H270 H 0.21019 0.70201 0.30430
 H271 H 0.27261 0.71385 0.25906
 H272 H 0.29836 0.75747 0.24643
 H273 H 0.32480 0.75896 0.27457
 H274 H 0.27623 0.76066 0.32240
 H275 H 0.24986 0.75908 0.29414
 H276 H 0.25904 0.74992 0.20778
 H277 H 0.26047 0.77620 0.17940
 H278 H 0.25869 0.82493 0.22701
 H279 H 0.25735 0.79857 0.25529
 H280 H 0.27300 0.68587 0.28570
 C281 C 0.75902 0.25841 0.74960
 C282 C 0.74401 0.24336 0.74962
 C283 C 0.72661 0.24361 0.73396
 C284 C 0.74426 0.22598 0.76535
 C285 C 0.77479 0.25982 0.76694
 C286 C 0.76041 0.27421 0.73227
 C287 C 0.71394 0.26131 0.73160
 C288 C 0.69804 0.26163 0.71634
 C289 C 0.69435 0.24415 0.70332
 C290 C 0.70673 0.22627 0.70611
 C291 C 0.72266 0.22599 0.72133
 C292 C 0.72663 0.22205 0.77797
 C293 C 0.72690 0.20616 0.79326
 C294 C 0.74480 0.19381 0.79612
 C295 C 0.76229 0.19750 0.78310
 C296 C 0.76198 0.21335 0.76777
 C297 C 0.79607 0.26021 0.76183
 C298 C 0.81105 0.26117 0.77800
 C299 C 0.80501 0.26189 0.79961
 C300 C 0.78366 0.26190 0.80467
 C301 C 0.76868 0.26100 0.78848
 C302 C 0.76152 0.26816 0.71072
 C303 C 0.76244 0.28317 0.69455
 C304 C 0.76251 0.30452 0.69964
 C305 C 0.76183 0.31050 0.72126
 C306 C 0.76086 0.29548 0.73741
 H307 H 0.71643 0.27491 0.74153
 H308 H 0.68852 0.27549 0.71484
 H309 H 0.70439 0.21264 0.69619
 H310 H 0.73221 0.21216 0.72297
 H311 H 0.71279 0.23158 0.77629
 H312 H 0.71325 0.20384 0.80317
 H313 H 0.77559 0.21583 0.75785
 H314 H 0.80108 0.25939 0.74531
 H315 H 0.82737 0.26093 0.77361
 H316 H 0.77853 0.26283 0.82114
 H317 H 0.75232 0.26120 0.79273
 H318 H 0.76167 0.25181 0.70644
 H319 H 0.76332 0.27808 0.67807
 H320 H 0.76166 0.32681 0.72569
 H321 H 0.76008 0.30046 0.75395
 H322 H 0.77615 0.18800 0.78465
 C323 C 0.23977 0.73933 0.75060
 C324 C 0.25481 0.75435 0.75062
 C325 C 0.27073 0.75563 0.73340
 C326 C 0.25608 0.77027 0.76784
 C327 C 0.22235 0.73959 0.76627
 C328 C 0.24000 0.72196 0.73488
 C329 C 0.29196 0.75592 0.73869
 C330 C 0.30710 0.75671 0.72265
 C331 C 0.30126 0.75736 0.70098
 C332 C 0.27995 0.75747 0.69574
 C333 C 0.26483 0.75674 0.71180
 C334 C 0.25709 0.76438 0.78945
 C335 C 0.25785 0.77951 0.80550
 C336 C 0.25789 0.80082 0.80024
 C337 C 0.25732 0.80664 0.77856
 C338 C 0.25649 0.79151 0.76253
 C339 C 0.20964 0.75727 0.76857
 C340 C 0.19377 0.75760 0.78387
 C341 C 0.19014 0.74016 0.79698
 C342 C 0.20254 0.72228 0.79422
 C343 C 0.21844 0.72199 0.77896
 C344 C 0.22239 0.71813 0.72220
 C345 C 0.22264 0.70227 0.70689
 C346 C 0.24048 0.68985 0.70407
 C347 C 0.25794 0.69341 0.71715
 C348 C 0.25765 0.70923 0.73250
 H349 H 0.29682 0.75516 0.75526
 H350 H 0.32338 0.75641 0.72719
 H351 H 0.27498 0.75834 0.67921
 H352 H 0.24851 0.75700 0.70741
 H353 H 0.25725 0.74806 0.79386
 H354 H 0.25866 0.77453 0.82203
 H355 H 0.25580 0.79637 0.74595
 H356 H 0.21210 0.77085 0.75859
 H357 H 0.18422 0.77144 0.78534
 H358 H 0.20025 0.70868 0.80420
 H359 H 0.22803 0.70818 0.77736
 H360 H 0.20859 0.72772 0.72384
 H361 H 0.20902 0.70004 0.69693
 H362 H 0.27177 0.68385 0.71563
 H363 H 0.27124 0.71163 0.74247
 H364 H 0.25712 0.82292 0.77400
 C365 C 0.25822 0.24100 0.75113
 C366 C 0.24310 0.25594 0.75105
 C367 C 0.24172 0.27171 0.73368
 C368 C 0.22723 0.25730 0.76831
 C369 C 0.25803 0.22362 0.76685
 C370 C 0.27565 0.24132 0.73547
 C371 C 0.24131 0.29299 0.73877
 C372 C 0.24049 0.30797 0.72257
 C373 C 0.23993 0.30193 0.70096
 C374 C 0.23992 0.28057 0.69593
 C375 C 0.24067 0.26560 0.71214
 C376 C 0.23320 0.25847 0.78988
 C377 C 0.21813 0.25943 0.80599
 C378 C 0.19680 0.25949 0.80081
 C379 C 0.19091 0.25873 0.77917
 C380 C 0.20598 0.25771 0.76308
 C381 C 0.24039 0.21088 0.76924
 C382 C 0.24016 0.19497 0.78451
 C383 C 0.25768 0.19133 0.79750
 C384 C 0.27550 0.20380 0.79469
 C385 C 0.27568 0.21974 0.77946
 C386 C 0.27965 0.22373 0.72281
 C387 C 0.29553 0.22411 0.70752
 C388 C 0.30780 0.24206 0.70470
 C389 C 0.30408 0.25949 0.71778
 C390 C 0.28823 0.25907 0.73311
 H391 H 0.24203 0.29800 0.75529
 H392 H 0.24073 0.32429 0.72695
 H393 H 0.23911 0.27544 0.67945
 H394 H 0.24050 0.24924 0.70791
 H395 H 0.24954 0.25866 0.79423
 H396 H 0.22316 0.26038 0.82249
 H397 H 0.20107 0.25689 0.74653
 H398 H 0.22677 0.21332 0.75932
 H399 H 0.22635 0.18539 0.78602
 H400 H 0.28915 0.20151 0.80459
 H401 H 0.28947 0.22934 0.77781
 H402 H 0.27016 0.20986 0.72444
 H403 H 0.29790 0.21051 0.69756
 H404 H 0.31352 0.27339 0.71627
 H405 H 0.28569 0.27265 0.74307
 H406 H 0.17461 0.25853 0.77468
 C407 C 0.74366 0.75683 0.74912
 C408 C 0.75869 0.74179 0.74928
 C409 C 0.76023 0.72601 0.73197
 C410 C 0.77434 0.74046 0.76675
 C411 C 0.74374 0.77420 0.76482
 C412 C 0.72641 0.75666 0.73325
 C413 C 0.76050 0.70473 0.73709
 C414 C 0.76138 0.68974 0.72092
 C415 C 0.76214 0.69576 0.69931
 C416 C 0.76233 0.71712 0.69425
 C417 C 0.76151 0.73210 0.71044
 C418 C 0.76810 0.73940 0.78825
 C419 C 0.78296 0.73888 0.80458
 C420 C 0.80436 0.73915 0.79970
 C421 C 0.81054 0.73966 0.77812
 C422 C 0.79567 0.74024 0.76182
 C423 C 0.76137 0.78693 0.76731
 C424 C 0.76148 0.80285 0.78255
 C425 C 0.74386 0.80649 0.79540
 C426 C 0.72607 0.79403 0.79250
 C427 C 0.72600 0.77808 0.77730
 C428 C 0.72251 0.77442 0.72079
 C429 C 0.70654 0.77438 0.70562
 C430 C 0.69404 0.75660 0.70271
 C431 C 0.69776 0.73894 0.71548
 C432 C 0.71371 0.73902 0.73069
 H433 H 0.75960 0.69973 0.75361
 H434 H 0.76101 0.67342 0.72532
 H435 H 0.76330 0.72224 0.67778
 H436 H 0.76180 0.74846 0.70618
 H437 H 0.75171 0.73908 0.79238
 H438 H 0.77772 0.73810 0.82102
 H439 H 0.80079 0.74098 0.74533
 H440 H 0.77506 0.78449 0.75749
 H441 H 0.77527 0.81243 0.78415
 H442 H 0.71234 0.79632 0.80229
 H443 H 0.71223 0.76847 0.77556
 H444 H 0.73209 0.78821 0.72257
 H445 H 0.70420 0.78815 0.69589
 H446 H 0.68817 0.72515 0.71387
 H447 H 0.71616 0.72531 0.74049
 H448 H 0.82689 0.74008 0.77386
 C449 C 0.27651 0.06393 0.06795
 C450 C 0.25761 0.07132 0.07613
 C451 C 0.23880 0.06355 0.06814
 C452 C 0.23884 0.04840 0.05206
 C453 C 0.25779 0.04074 0.04370
 C454 C 0.27664 0.04878 0.05188
 C455 C 0.25753 0.08683 0.09277
 C456 C 0.25751 0.09980 0.10672
 C457 C 0.25755 0.11499 0.12305
 C458 C 0.25765 0.12798 0.13698
 C459 C 0.25784 0.14353 0.15357
 C460 C 0.24022 0.15590 0.15718
 C461 C 0.24049 0.17117 0.17313
 C462 C 0.25842 0.17428 0.18568
 C463 C 0.27603 0.16170 0.18198
 C464 C 0.27572 0.14643 0.16603
 H465 H 0.29117 0.06985 0.07402
 H466 H 0.22407 0.06917 0.07436
 H467 H 0.22400 0.04268 0.04627
 H468 H 0.29154 0.04337 0.04593
 H469 H 0.22632 0.15384 0.14758
 H470 H 0.22679 0.18079 0.17539
 H471 H 0.28997 0.16354 0.19155
 H472 H 0.28943 0.13691 0.16341
 C473 C 0.74277 0.56742 0.56671
 C474 C 0.76172 0.57541 0.57413
 C475 C 0.78050 0.56780 0.56584
 C476 C 0.78034 0.55224 0.55019
 C477 C 0.76136 0.54408 0.54263
 C478 C 0.74257 0.55185 0.55107
 C479 C 0.76192 0.59138 0.59029
 C480 C 0.76211 0.60471 0.60385
 C481 C 0.76232 0.62028 0.61978
 C482 C 0.76248 0.63353 0.63344
 C483 C 0.76263 0.64928 0.64982
 C484 C 0.75063 0.66735 0.64741
 C485 C 0.75057 0.68253 0.66344
 C486 C 0.76251 0.67982 0.68211
 C487 C 0.77458 0.66163 0.68434
 C488 C 0.77463 0.64648 0.66828
 H489 H 0.72815 0.57320 0.57304
 H490 H 0.79526 0.57388 0.57147
 H491 H 0.79508 0.54661 0.54404
 H492 H 0.72770 0.54591 0.54560
 H493 H 0.74123 0.66964 0.63321
 H494 H 0.74090 0.69622 0.66140
 H495 H 0.78412 0.65922 0.69840
 H496 H 0.78401 0.63257 0.67028
 C497 C 0.75978 0.93242 0.06628
 C498 C 0.74063 0.92493 0.07374
 C499 C 0.72208 0.93303 0.06547
 C500 C 0.72261 0.94858 0.04981
 C501 C 0.74180 0.95631 0.04214
 C502 C 0.76039 0.94796 0.05061
 C503 C 0.74002 0.90901 0.08996
 C504 C 0.73948 0.89573 0.10359
 C505 C 0.73885 0.88023 0.11961
 C506 C 0.73833 0.86706 0.13335
 C507 C 0.73776 0.85140 0.14983
 C508 C 0.72548 0.85442 0.16807
 C509 C 0.72515 0.83937 0.18425
 C510 C 0.73711 0.82107 0.18237
 C511 C 0.74931 0.81813 0.16391
 C512 C 0.74963 0.83321 0.14776
 H513 H 0.77424 0.92625 0.07259
 H514 H 0.70717 0.92735 0.07115
 H515 H 0.70795 0.95452 0.04376
 H516 H 0.77547 0.95342 0.04520
 H517 H 0.71620 0.86842 0.16982
 H518 H 0.71542 0.84196 0.19814
 H519 H 0.75891 0.80435 0.16213
 H520 H 0.75924 0.83075 0.13374
 C521 C 0.25926 0.43000 0.56802
 C522 C 0.24027 0.42241 0.57580
 C523 C 0.22152 0.43042 0.56786
 C524 C 0.22174 0.44596 0.55218
 C525 C 0.24075 0.45370 0.54424
 C526 C 0.25952 0.44554 0.55234
 C527 C 0.24003 0.40642 0.59195
 C528 C 0.23983 0.39306 0.60550
 C529 C 0.23963 0.37746 0.62142
 C530 C 0.23949 0.36419 0.63506
 C531 C 0.23937 0.34842 0.65144
 C532 C 0.22723 0.35111 0.66983
 C533 C 0.22731 0.33595 0.68589
 C534 C 0.23954 0.31787 0.68375
 C535 C 0.25161 0.31526 0.66514
 C536 C 0.25152 0.33045 0.64911
 H537 H 0.27386 0.42391 0.57407
 H538 H 0.20674 0.42466 0.57378
 H539 H 0.20702 0.45190 0.54628
 H540 H 0.27441 0.45115 0.54657
 H541 H 0.21772 0.36494 0.67177
 H542 H 0.21765 0.33828 0.69989
 H543 H 0.26140 0.30165 0.66316
 H544 H 0.26103 0.32825 0.63497
 C545 C 0.93340 0.28117 0.06816
 C546 C 0.92542 0.26231 0.07583
 C547 C 0.93322 0.24346 0.06798
 C548 C 0.94892 0.24341 0.05247
 C549 C 0.95709 0.26230 0.04453
 C550 C 0.94911 0.28121 0.05264
 C551 C 0.90923 0.26230 0.09177
 C552 C 0.89568 0.26225 0.10513
 C553 C 0.87986 0.26214 0.12081
 C554 C 0.86641 0.26201 0.13427
 C555 C 0.85044 0.26181 0.15044
 C556 C 0.83258 0.24957 0.14773
 C557 C 0.81719 0.24918 0.16357
 C558 C 0.81951 0.26101 0.18237
 C559 C 0.83748 0.27333 0.18489
 C560 C 0.85283 0.27372 0.16902
 H561 H 0.92748 0.29586 0.07415
 H562 H 0.92715 0.22876 0.07383
 H563 H 0.95458 0.22853 0.04671
 H564 H 0.95492 0.29608 0.04702
 H565 H 0.83060 0.24024 0.13343
 H566 H 0.80367 0.23934 0.16129
 H567 H 0.83958 0.28281 0.19905
 H568 H 0.86657 0.28328 0.17126
 C569 C 0.43079 0.77755 0.56948
 C570 C 0.42285 0.75858 0.57694
 C571 C 0.43066 0.73982 0.56883
 C572 C 0.44635 0.74000 0.55330
 C573 C 0.45443 0.75900 0.54568
 C574 C 0.44647 0.77778 0.55396
 C575 C 0.40671 0.75840 0.59294
 C576 C 0.39323 0.75829 0.60636
 C577 C 0.37749 0.75822 0.62213
 C578 C 0.36410 0.75819 0.63566
 C579 C 0.34821 0.75816 0.65191
 C580 C 0.33026 0.74602 0.64934
 C581 C 0.31492 0.74585 0.66524
 C582 C 0.31737 0.75780 0.68393
 C583 C 0.33544 0.77001 0.68631
 C584 C 0.35074 0.77018 0.67039
 H585 H 0.42486 0.79217 0.57567
 H586 H 0.42462 0.72505 0.57450
 H587 H 0.45212 0.72528 0.54726
 H588 H 0.45235 0.79266 0.54844
 H589 H 0.32817 0.73661 0.63512
 H590 H 0.30132 0.73609 0.66307
 H591 H 0.33765 0.77958 0.70039
 H592 H 0.36455 0.77967 0.67251
 C593 C 0.06530 0.72597 0.06980
 C594 C 0.07286 0.74494 0.07762
 C595 C 0.06525 0.76370 0.06926
 C596 C 0.05008 0.76349 0.05320
 C597 C 0.04231 0.74448 0.04529
 C598 C 0.05013 0.72571 0.05375
 C599 C 0.08833 0.74513 0.09429
 C600 C 0.10126 0.74515 0.10829
 C601 C 0.11637 0.74503 0.12469
 C602 C 0.12929 0.74482 0.13868
 C603 C 0.14476 0.74442 0.15536
 C604 C 0.15736 0.76186 0.15900
 C605 C 0.17255 0.76139 0.17503
 C606 C 0.17534 0.74342 0.18763
 C607 C 0.16253 0.72600 0.18390
 C608 C 0.14734 0.72652 0.16788
 H609 H 0.07108 0.71135 0.07615
 H610 H 0.07099 0.77848 0.07520
 H611 H 0.04439 0.77821 0.04705
 H612 H 0.04450 0.71082 0.04803
 H613 H 0.15554 0.77578 0.14936
 H614 H 0.18236 0.77494 0.17731
 H615 H 0.16413 0.71204 0.19350
 H616 H 0.13764 0.71295 0.16523
 C617 C 0.56675 0.26465 0.56957
 C618 C 0.57447 0.24583 0.57766
 C619 C 0.56698 0.22691 0.56961
 C620 C 0.55182 0.22679 0.55357
 C621 C 0.54392 0.24563 0.54535
 C622 C 0.55158 0.26458 0.55352
 C623 C 0.59001 0.24591 0.59425
 C624 C 0.60302 0.24590 0.60815
 C625 C 0.61826 0.24580 0.62441
 C626 C 0.63130 0.24565 0.63828
 C627 C 0.64692 0.24538 0.65479
 C628 C 0.64970 0.22754 0.66735
 C629 C 0.66504 0.22715 0.68322
 C630 C 0.67781 0.24465 0.68673
 C631 C 0.67483 0.26255 0.67408
 C632 C 0.65949 0.26289 0.65821
 H633 H 0.57244 0.27939 0.57569
 H634 H 0.57285 0.21225 0.57576
 H635 H 0.54625 0.21195 0.54763
 H636 H 0.54583 0.27934 0.54756
 H637 H 0.64003 0.21392 0.66487
 H638 H 0.66680 0.21324 0.69286
 H639 H 0.68460 0.27615 0.67620
 H640 H 0.65751 0.27676 0.64853
 C641 C 0.76420 0.06630 0.93052
 C642 C 0.74554 0.07417 0.92218
 C643 C 0.72647 0.06680 0.92996
 C644 C 0.72602 0.05158 0.94595
 C645 C 0.74468 0.04350 0.95439
 C646 C 0.76379 0.05107 0.94652
 C647 C 0.74594 0.08973 0.90559
 C648 C 0.74613 0.10273 0.89167
 C649 C 0.74621 0.11794 0.87536
 C650 C 0.74615 0.13095 0.86144
 C651 C 0.74594 0.14652 0.84485
 C652 C 0.76345 0.15906 0.84139
 C653 C 0.76315 0.17436 0.82545
 C654 C 0.74527 0.17731 0.81277
 C655 C 0.72777 0.16455 0.81632
 C656 C 0.72812 0.14926 0.83225
 H657 H 0.77905 0.07190 0.92461
 H658 H 0.71194 0.07279 0.92362
 H659 H 0.71105 0.04609 0.95165
 H660 H 0.77843 0.04518 0.95266
 H661 H 0.77730 0.15712 0.85110
 H662 H 0.77675 0.18412 0.82331
 H663 H 0.71388 0.16628 0.80665
 H664 H 0.71449 0.13960 0.83476
 C665 C 0.26118 0.56365 0.43064
 C666 C 0.24241 0.57145 0.42253
 C667 C 0.22345 0.56402 0.43054
 C668 C 0.22323 0.54883 0.44657
 C669 C 0.24202 0.54085 0.45481
 C670 C 0.26101 0.54845 0.44667
 C671 C 0.24259 0.58705 0.40597
 C672 C 0.24268 0.60010 0.39210
 C673 C 0.24270 0.61540 0.37588
 C674 C 0.24265 0.62850 0.36205
 C675 C 0.24252 0.64419 0.34558
 C676 C 0.22472 0.64713 0.33301
 C677 C 0.22446 0.66254 0.31719
 C678 C 0.24203 0.67521 0.31374
 C679 C 0.25989 0.67207 0.32640
 C680 C 0.26011 0.65666 0.34222
 H681 H 0.27595 0.56930 0.42455
 H682 H 0.20882 0.56996 0.42437
 H683 H 0.20835 0.54331 0.45247
 H684 H 0.27574 0.54264 0.45266
 H685 H 0.21103 0.63754 0.33545
 H686 H 0.21058 0.66442 0.30754
 H687 H 0.27356 0.68175 0.32432
 H688 H 0.27395 0.65456 0.35191
 C689 C 0.27736 0.93074 0.93168
 C690 C 0.25855 0.92266 0.92398
 C691 C 0.23963 0.93034 0.93187
 C692 C 0.23951 0.94601 0.94740
 C693 C 0.25835 0.95421 0.95527
 C694 C 0.27729 0.94640 0.94721
 C695 C 0.25864 0.90651 0.90801
 C696 C 0.25871 0.89299 0.89462
 C697 C 0.25876 0.87721 0.87890
 C698 C 0.25878 0.86378 0.86541
 C699 C 0.25878 0.84784 0.84922
 C700 C 0.27085 0.85029 0.83075
 C701 C 0.27066 0.83496 0.81487
 C702 C 0.25838 0.81694 0.81727
 C703 C 0.24638 0.81457 0.83596
 C704 C 0.24658 0.82993 0.85181
 H705 H 0.29210 0.92491 0.92568
 H706 H 0.22497 0.92421 0.92602
 H707 H 0.22467 0.95166 0.95327
 H708 H 0.29205 0.95237 0.95293
 H709 H 0.28039 0.86407 0.82860
 H710 H 0.28026 0.83712 0.80079
 H711 H 0.23656 0.80101 0.83814
 H712 H 0.23713 0.82790 0.86602
 C713 C 0.77942 0.43250 0.43052
 C714 C 0.76053 0.42437 0.42311
 C715 C 0.74169 0.43199 0.43126
 C716 C 0.74173 0.44767 0.44677
 C717 C 0.76066 0.45595 0.45434
 C718 C 0.77951 0.44818 0.44603
 C719 C 0.76048 0.40826 0.40711
 C720 C 0.76049 0.39480 0.39368
 C721 C 0.76054 0.37909 0.37789
 C722 C 0.76059 0.36575 0.36434
 C723 C 0.76066 0.34991 0.34805
 C724 C 0.74847 0.33198 0.35048
 C725 C 0.74835 0.31672 0.33454
 C726 C 0.76042 0.31922 0.31591
 C727 C 0.77269 0.33727 0.31367
 C728 C 0.77280 0.35250 0.32964
 H729 H 0.79409 0.42672 0.42431
 H730 H 0.72698 0.42580 0.42562
 H731 H 0.72696 0.45330 0.45283
 H732 H 0.79434 0.45421 0.45151
 H733 H 0.73897 0.32986 0.36465
 H734 H 0.73854 0.30313 0.33659
 H735 H 0.78234 0.33952 0.29965
 H736 H 0.78233 0.36630 0.32762
 C737 C 0.06752 0.24318 0.93288
 C738 C 0.07551 0.26201 0.92512
 C739 C 0.06779 0.28091 0.93300
 C740 C 0.05216 0.28100 0.94859
 C741 C 0.04404 0.26213 0.95651
 C742 C 0.05189 0.24321 0.94846
 C743 C 0.09160 0.26193 0.90908
 C744 C 0.10506 0.26182 0.89563
 C745 C 0.12077 0.26164 0.87983
 C746 C 0.13413 0.26145 0.86628
 C747 C 0.15000 0.26118 0.85001
 C748 C 0.14753 0.27306 0.83141
 C749 C 0.16279 0.27260 0.81545
 C750 C 0.18075 0.26024 0.81790
 C751 C 0.18314 0.24843 0.83671
 C752 C 0.16784 0.24890 0.85264
 H753 H 0.07338 0.22845 0.92688
 H754 H 0.07386 0.29559 0.92710
 H755 H 0.04646 0.29582 0.95444
 H756 H 0.04599 0.22843 0.95422
 H757 H 0.13380 0.28266 0.82922
 H758 H 0.16063 0.28207 0.80128
 H759 H 0.19665 0.23856 0.83894
 H760 H 0.16988 0.23958 0.86695
 C761 C 0.56600 0.77985 0.43393
 C762 C 0.57380 0.76114 0.42566
 C763 C 0.56600 0.74212 0.43313
 C764 C 0.55045 0.74178 0.44880
 C765 C 0.54249 0.76050 0.45721
 C766 C 0.55046 0.77955 0.44960
 C767 C 0.58976 0.76148 0.40948
 C768 C 0.60309 0.76178 0.39589
 C769 C 0.61865 0.76213 0.37993
 C770 C 0.63189 0.76241 0.36625
 C771 C 0.64763 0.76270 0.34984
 C772 C 0.66581 0.75087 0.35222
 C773 C 0.68098 0.75094 0.33617
 C774 C 0.67815 0.76285 0.31749
 C775 C 0.65985 0.77476 0.31529
 C776 C 0.64471 0.77468 0.33138
 H777 H 0.57193 0.79466 0.42825
 H778 H 0.57192 0.72754 0.42683
 H779 H 0.54466 0.72686 0.45431
 H780 H 0.54468 0.79424 0.45573
 H781 H 0.66820 0.74149 0.36642
 H782 H 0.69476 0.74140 0.33819
 H783 H 0.65734 0.78428 0.30123
 H784 H 0.63071 0.78393 0.32939
 C785 C 0.93183 0.72330 0.93401
 C786 C 0.92396 0.74196 0.92573
 C787 C 0.93165 0.76100 0.93320
 C788 C 0.94718 0.76143 0.94889
 C789 C 0.95529 0.74273 0.95737
 C790 C 0.94736 0.72364 0.94969
 C791 C 0.90805 0.74154 0.90949
 C792 C 0.89478 0.74114 0.89586
 C793 C 0.87930 0.74063 0.87983
 C794 C 0.86613 0.74020 0.86608
 C795 C 0.85049 0.73971 0.84958
 C796 C 0.85353 0.72750 0.83130
 C797 C 0.83849 0.72721 0.81513
 C798 C 0.82018 0.73914 0.81704
 C799 C 0.81722 0.75129 0.83553
 C800 C 0.83230 0.75157 0.85167
 H801 H 0.92599 0.70846 0.92832
 H802 H 0.92566 0.77555 0.92689
 H803 H 0.95281 0.77644 0.95431
 H804 H 0.95312 0.70890 0.95574
 H805 H 0.86753 0.71822 0.82953
 H806 H 0.84109 0.71750 0.80122
 H807 H 0.80343 0.76086 0.83734
 H808 H 0.82982 0.76113 0.86572
 C809 C 0.43438 0.26345 0.43098
 C810 C 0.42704 0.24450 0.42290
 C811 C 0.43467 0.22572 0.43116
 C812 C 0.44965 0.22587 0.44739
 C813 C 0.45720 0.24485 0.45557
 C814 C 0.44936 0.26365 0.44721
 C815 C 0.41175 0.24430 0.40606
 C816 C 0.39898 0.24407 0.39193
 C817 C 0.38403 0.24375 0.37539
 C818 C 0.37123 0.24343 0.36129
 C819 C 0.35589 0.24299 0.34451
 C820 C 0.34326 0.26040 0.34079
 C821 C 0.32816 0.25989 0.32469
 C822 C 0.32548 0.24191 0.31210
 C823 C 0.33832 0.22452 0.31590
 C824 C 0.35342 0.22508 0.33200
 H825 H 0.42857 0.27808 0.42470
 H826 H 0.42908 0.21095 0.42501
 H827 H 0.45536 0.21112 0.45346
 H828 H 0.45485 0.27852 0.45315
 H829 H 0.34499 0.27432 0.35043
 H830 H 0.31832 0.27342 0.32235
 H831 H 0.33679 0.21056 0.30631
 H832 H 0.36315 0.21153 0.33472
 C833 C 0.72498 0.93425 0.92865
 C834 C 0.74391 0.92645 0.92094
 C835 C 0.76271 0.93374 0.92944
 C836 C 0.76260 0.94881 0.94559
 C837 C 0.74365 0.95677 0.95345
 C838 C 0.72483 0.94932 0.94480
 C839 C 0.74404 0.91096 0.90430
 C840 C 0.74415 0.89798 0.89039
 C841 C 0.74426 0.88275 0.87412
 C842 C 0.74431 0.86970 0.86026
 C843 C 0.74432 0.85405 0.84378
 C844 C 0.76193 0.84157 0.84059
 C845 C 0.76185 0.82619 0.82476
 C846 C 0.74410 0.82309 0.81193
 C847 C 0.72651 0.83578 0.81521
 C848 C 0.72664 0.85117 0.83103
 H849 H 0.71033 0.92870 0.92218
 H850 H 0.77745 0.92780 0.92358
 H851 H 0.77736 0.95421 0.95189
 H852 H 0.70998 0.95512 0.95049
 H853 H 0.77568 0.84363 0.85042
 H854 H 0.77552 0.81648 0.82281
 H855 H 0.71272 0.83394 0.80541
 H856 H 0.71294 0.86078 0.83334
 C857 C 0.22211 0.43029 0.43151
 C858 C 0.24093 0.42225 0.42376
 C859 C 0.25985 0.42989 0.43165
 C860 C 0.25997 0.44550 0.44725
 C861 C 0.24113 0.45369 0.45517
 C862 C 0.22219 0.44591 0.44710
 C863 C 0.24083 0.40617 0.40771
 C864 C 0.24076 0.39272 0.39425
 C865 C 0.24069 0.37702 0.37844
 C866 C 0.24064 0.36368 0.36487
 C867 C 0.24061 0.34784 0.34857
 C868 C 0.25290 0.32997 0.35094
 C869 C 0.25307 0.31471 0.33497
 C870 C 0.24095 0.31717 0.31639
 C871 C 0.22858 0.33516 0.31421
 C872 C 0.22842 0.35038 0.33020
 H873 H 0.20738 0.42449 0.42550
 H874 H 0.27451 0.42378 0.42576
 H875 H 0.27481 0.45114 0.45311
 H876 H 0.20743 0.45186 0.45286
 H877 H 0.26245 0.32787 0.36507
 H878 H 0.26295 0.30117 0.33699
 H879 H 0.21888 0.33738 0.30022
 H880 H 0.21882 0.36414 0.32822
 C881 C 0.23824 0.06341 0.93120
 C882 C 0.25699 0.07119 0.92305
 C883 C 0.27595 0.06379 0.93105
 C884 C 0.27621 0.04863 0.94711
 C885 C 0.25743 0.04060 0.95546
 C886 C 0.23842 0.04825 0.94727
 C887 C 0.25679 0.08675 0.90646
 C888 C 0.25669 0.09978 0.89256
 C889 C 0.25665 0.11505 0.87630
 C890 C 0.25668 0.12812 0.86245
 C891 C 0.25682 0.14377 0.84595
 C892 C 0.27462 0.14669 0.83337
 C893 C 0.27488 0.16207 0.81753
 C894 C 0.25730 0.17475 0.81406
 C895 C 0.23944 0.17162 0.82673
 C896 C 0.23922 0.15624 0.84258
 H897 H 0.22347 0.06905 0.92511
 H898 H 0.29057 0.06973 0.92484
 H899 H 0.29117 0.04322 0.95292
 H900 H 0.22362 0.04253 0.95320
 H901 H 0.28831 0.13709 0.83581
 H902 H 0.28876 0.16392 0.80786
 H903 H 0.22578 0.18132 0.82465
 H904 H 0.22538 0.15416 0.85228
 C905 C 0.73969 0.56585 0.42942
 C906 C 0.75827 0.57374 0.42095
 C907 C 0.77741 0.56636 0.42856
 C908 C 0.77799 0.55115 0.44457
 C909 C 0.75939 0.54311 0.45320
 C910 C 0.74022 0.55064 0.44544
 C911 C 0.75769 0.58942 0.40450
 C912 C 0.75723 0.60258 0.39074
 C913 C 0.75672 0.61801 0.37466
 C914 C 0.75636 0.63123 0.36096
 C915 C 0.75604 0.64707 0.34466
 C916 C 0.77361 0.65033 0.33182
 C917 C 0.77344 0.66589 0.31616
 C918 C 0.75566 0.67839 0.31312
 C919 C 0.73804 0.67491 0.32604
 C920 C 0.73825 0.65936 0.34171
 H921 H 0.72478 0.57146 0.42366
 H922 H 0.79189 0.57236 0.42211
 H923 H 0.79299 0.54569 0.45018
 H924 H 0.72562 0.54479 0.45173
 H925 H 0.78745 0.64087 0.33393
 H926 H 0.78715 0.66801 0.30629
 H927 H 0.72422 0.68446 0.32428
 H928 H 0.72458 0.65700 0.35161
 C929 C 0.06341 0.76157 0.93129
 C930 C 0.07099 0.74260 0.92349
 C931 C 0.06353 0.72386 0.93199
 C932 C 0.04852 0.72405 0.94820
 C933 C 0.04070 0.74307 0.95620
 C934 C 0.04840 0.76184 0.94750
 C935 C 0.08640 0.74236 0.90675
 C936 C 0.09930 0.74218 0.89274
 C937 C 0.11443 0.74194 0.87634
 C938 C 0.12738 0.74173 0.86238
 C939 C 0.14291 0.74144 0.84576
 C940 C 0.14567 0.72356 0.83326
 C941 C 0.16094 0.72316 0.81731
 C942 C 0.17365 0.74067 0.81364
 C943 C 0.17068 0.75861 0.82623
 C944 C 0.15541 0.75896 0.84218
 H945 H 0.06910 0.77617 0.92482
 H946 H 0.06931 0.70908 0.92606
 H947 H 0.04305 0.70926 0.95440
 H948 H 0.04284 0.77680 0.95315
 H949 H 0.13605 0.70992 0.83587
 H950 H 0.16268 0.70922 0.80771
 H951 H 0.18040 0.77223 0.82399
 H952 H 0.15345 0.77286 0.85182
 C953 C 0.56634 0.26438 0.43092
 C954 C 0.57397 0.24553 0.42284
 C955 C 0.56659 0.22665 0.43108
 C956 C 0.55158 0.22659 0.44730
 C957 C 0.54374 0.24546 0.45549
 C958 C 0.55132 0.26437 0.44714
 C959 C 0.58931 0.24554 0.40603
 C960 C 0.60213 0.24548 0.39193
 C961 C 0.61714 0.24533 0.37543
 C962 C 0.62998 0.24512 0.36136
 C963 C 0.64537 0.24477 0.34461
 C964 C 0.64792 0.22689 0.33206
 C965 C 0.66307 0.22641 0.31598
 C966 C 0.67586 0.24385 0.31224
 C967 C 0.67310 0.26179 0.32486
 C968 C 0.65795 0.26223 0.34094
 H969 H 0.57195 0.27909 0.42465
 H970 H 0.57239 0.21196 0.42494
 H971 H 0.54607 0.21176 0.45336
 H972 H 0.54562 0.27916 0.45308
 H973 H 0.63823 0.21331 0.33472
 H974 H 0.66465 0.21247 0.30636
 H975 H 0.68289 0.27535 0.32256
 H976 H 0.65616 0.27612 0.35061
 C977 C 0.93312 0.24404 0.93248
 C978 C 0.92544 0.26298 0.92466
 C979 C 0.93334 0.28178 0.93259
 C980 C 0.94885 0.28166 0.94828
 C981 C 0.95667 0.26269 0.95626
 C982 C 0.94863 0.24387 0.94817
 C983 C 0.90947 0.26311 0.90852
 C984 C 0.89612 0.26318 0.89497
 C985 C 0.88052 0.26321 0.87907
 C986 C 0.86725 0.26319 0.86544
 C987 C 0.85149 0.26310 0.84908
 C988 C 0.83358 0.25088 0.85154
 C989 C 0.81839 0.25058 0.83551
 C990 C 0.82095 0.26249 0.81680
 C991 C 0.83897 0.27479 0.81452
 C992 C 0.85413 0.27508 0.83057
 H993 H 0.92712 0.22940 0.92644
 H994 H 0.92750 0.29653 0.92664
 H995 H 0.95469 0.29641 0.95417
 H996 H 0.95431 0.22901 0.95397
 H997 H 0.83142 0.24149 0.86577
 H998 H 0.80483 0.24075 0.83760
 H999 H 0.84125 0.28433 0.80043
 H1000 H 0.86791 0.28463 0.82853
 C1001 C 0.43166 0.74203 0.43259
 C1002 C 0.42383 0.76102 0.42508
 C1003 C 0.43162 0.77976 0.43327
 C1004 C 0.44717 0.77952 0.44894
 C1005 C 0.45512 0.76050 0.45664
 C1006 C 0.44720 0.74175 0.44826
 C1007 C 0.40778 0.76126 0.40900
 C1008 C 0.39435 0.76136 0.39552
 C1009 C 0.37865 0.76139 0.37971
 C1010 C 0.36528 0.76134 0.36616
 C1011 C 0.34940 0.76120 0.34990
 C1012 C 0.33153 0.74896 0.35250
 C1013 C 0.31624 0.74860 0.33657
 C1014 C 0.31865 0.76049 0.31781
 C1015 C 0.33664 0.77281 0.31540
 C1016 C 0.35190 0.77316 0.33136
 H1017 H 0.42574 0.72743 0.42636
 H1018 H 0.42567 0.79455 0.42756
 H1019 H 0.45291 0.79423 0.45505
 H1020 H 0.45297 0.72684 0.45383
 H1021 H 0.32947 0.73959 0.36676
 H1022 H 0.30270 0.73875 0.33876
 H1023 H 0.33882 0.78233 0.30128
 H1024 H 0.36565 0.78273 0.32921
 C1025 C 0.27801 0.93125 0.06798
 C1026 C 0.25926 0.92325 0.07596
 C1027 C 0.24027 0.93084 0.06818
 C1028 C 0.24000 0.94635 0.05248
 C1029 C 0.25876 0.95449 0.04434
 C1030 C 0.27778 0.94677 0.05228
 C1031 C 0.25952 0.90728 0.09212
 C1032 C 0.25971 0.89392 0.10567
 C1033 C 0.25991 0.87831 0.12157
 C1034 C 0.26005 0.86502 0.13520
 C1035 C 0.26016 0.84923 0.15155
 C1036 C 0.24803 0.83126 0.14917
 C1037 C 0.24793 0.81603 0.16518
 C1038 C 0.25996 0.81861 0.18380
 C1039 C 0.27217 0.83670 0.18600
 C1040 C 0.27226 0.85190 0.16996
 H1041 H 0.29280 0.92549 0.07390
 H1042 H 0.22567 0.92475 0.07425
 H1043 H 0.22510 0.95195 0.04671
 H1044 H 0.29249 0.95269 0.04636
 H1045 H 0.23855 0.82907 0.13501
 H1046 H 0.23816 0.80241 0.16316
 H1047 H 0.28179 0.83901 0.20002
 H1048 H 0.28174 0.86573 0.17194
 C1049 C 0.78173 0.43346 0.56675
 C1050 C 0.76307 0.42549 0.57498
 C1051 C 0.74400 0.43312 0.56747
 C1052 C 0.74355 0.44864 0.55178
 C1053 C 0.76222 0.45673 0.54337
 C1054 C 0.78133 0.44898 0.55105
 C1055 C 0.76346 0.40947 0.59109
 C1056 C 0.76368 0.39605 0.60459
 C1057 C 0.76383 0.38038 0.62043
 C1058 C 0.76386 0.36703 0.63400
 C1059 C 0.76379 0.35118 0.65029
 C1060 C 0.75155 0.33330 0.64780
 C1061 C 0.75123 0.31804 0.66377
 C1062 C 0.76316 0.32051 0.68249
 C1063 C 0.77549 0.33850 0.68479
 C1064 C 0.77580 0.35372 0.66879
 H1065 H 0.79658 0.42766 0.57246
 H1066 H 0.72946 0.42707 0.57374
 H1067 H 0.72859 0.45426 0.54621
 H1068 H 0.79597 0.45487 0.54491
 H1069 H 0.74214 0.33121 0.63357
 H1070 H 0.74137 0.30450 0.66166
 H1071 H 0.78504 0.34071 0.69888
 H1072 H 0.78537 0.36748 0.67086
 C1073 C 0.72423 0.06550 0.06834
 C1074 C 0.74307 0.07275 0.07680
 C1075 C 0.76196 0.06493 0.06900
 C1076 C 0.76203 0.04990 0.05282
 C1077 C 0.74317 0.04249 0.04422
 C1078 C 0.72426 0.05047 0.05216
 C1079 C 0.74302 0.08820 0.09348
 C1080 C 0.74299 0.10116 0.10743
 C1081 C 0.74296 0.11635 0.12373
 C1082 C 0.74291 0.12937 0.13762
 C1083 C 0.74280 0.14499 0.15413
 C1084 C 0.72500 0.14795 0.16670
 C1085 C 0.72478 0.16331 0.18255
 C1086 C 0.74241 0.17590 0.18605
 C1087 C 0.76027 0.17273 0.17340
 C1088 C 0.76044 0.15737 0.15754
 H1089 H 0.70951 0.07145 0.07426
 H1090 H 0.77663 0.07045 0.07544
 H1091 H 0.77685 0.04409 0.04708
 H1092 H 0.70948 0.04509 0.04589
 H1093 H 0.71128 0.13842 0.16423
 H1094 H 0.71090 0.16521 0.19221
 H1095 H 0.77397 0.18236 0.17551
 H1096 H 0.77429 0.15525 0.14785
 C1097 C 0.26070 0.56327 0.56920
 C1098 C 0.24188 0.57101 0.57726
 C1099 C 0.22297 0.56367 0.56905
 C1100 C 0.22286 0.54861 0.55289
 C1101 C 0.24170 0.54069 0.54471
 C1102 C 0.26064 0.54822 0.55304
 C1103 C 0.24195 0.58641 0.59400
 C1104 C 0.24197 0.59930 0.60803
 C1105 C 0.24191 0.61439 0.62446
 C1106 C 0.24181 0.62730 0.63846
 C1107 C 0.24159 0.64277 0.65513
 C1108 C 0.22374 0.64555 0.66767
 C1109 C 0.22340 0.66076 0.68368
 C1110 C 0.24095 0.67341 0.68736
 C1111 C 0.25887 0.67042 0.67473
 C1112 C 0.25916 0.65521 0.65872
 H1113 H 0.27543 0.56885 0.57544
 H1114 H 0.20831 0.56955 0.57517
 H1115 H 0.20802 0.54315 0.54684
 H1116 H 0.27541 0.54244 0.54711
 H1117 H 0.21007 0.63597 0.66506
 H1118 H 0.20947 0.66251 0.69330
 H1119 H 0.27252 0.68010 0.67698
 H1120 H 0.27305 0.65324 0.64906
 C1121 C 0.93266 0.76378 0.07001
 C1122 C 0.92512 0.74506 0.07848
 C1123 C 0.93273 0.72605 0.07077
 C1124 C 0.94785 0.72575 0.05466
 C1125 C 0.95556 0.74450 0.04605
 C1126 C 0.94778 0.76353 0.05390
 C1127 C 0.90956 0.74534 0.09507
 C1128 C 0.89653 0.74554 0.10895
 C1129 C 0.88124 0.74572 0.12518
 C1130 C 0.86816 0.74580 0.13902
 C1131 C 0.85248 0.74578 0.15548
 C1132 C 0.84965 0.72812 0.16830
 C1133 C 0.83424 0.72796 0.18410
 C1134 C 0.82144 0.74549 0.18730
 C1135 C 0.82448 0.76322 0.17441
 C1136 C 0.83989 0.76334 0.15859
 H1137 H 0.92687 0.77858 0.07586
 H1138 H 0.92699 0.71146 0.07722
 H1139 H 0.95351 0.71084 0.04898
 H1140 H 0.95338 0.77823 0.04762
 H1141 H 0.85935 0.71446 0.16606
 H1142 H 0.83246 0.71419 0.19395
 H1143 H 0.81469 0.77684 0.17629
 H1144 H 0.84190 0.77707 0.14871
 C1145 C 0.43421 0.26377 0.56989
 C1146 C 0.42681 0.24486 0.57804
 C1147 C 0.43450 0.22604 0.56994
 C1148 C 0.44959 0.22611 0.55380
 C1149 C 0.45718 0.24505 0.54553
 C1150 C 0.44929 0.26389 0.55374
 C1151 C 0.41137 0.24473 0.59475
 C1152 C 0.39846 0.24458 0.60876
 C1153 C 0.38334 0.24432 0.62516
 C1154 C 0.37040 0.24405 0.63914
 C1155 C 0.35490 0.24366 0.65579
 C1156 C 0.35230 0.22577 0.66832
 C1157 C 0.33707 0.22526 0.68431
 C1158 C 0.32424 0.24269 0.68799
 C1159 C 0.32705 0.26064 0.67537
 C1160 C 0.34227 0.26110 0.65937
 H1161 H 0.42836 0.27843 0.57604
 H1162 H 0.42888 0.21130 0.57614
 H1163 H 0.45532 0.21134 0.54784
 H1164 H 0.45481 0.27874 0.54774
 H1165 H 0.36203 0.21220 0.66571
 H1166 H 0.33546 0.21132 0.69393
 H1167 H 0.31722 0.27419 0.67761
 H1168 H 0.34411 0.27500 0.64972
 C1169 C 0.06736 0.24267 0.06899
 C1170 C 0.07535 0.26145 0.07685
 C1171 C 0.06760 0.28041 0.06914
 C1172 C 0.05195 0.28060 0.05360
 C1173 C 0.04384 0.26180 0.04555
 C1174 C 0.05170 0.24282 0.05344
 C1175 C 0.09152 0.26127 0.09279
 C1176 C 0.10506 0.26109 0.10614
 C1177 C 0.12088 0.26085 0.12180
 C1178 C 0.13435 0.26062 0.13522
 C1179 C 0.15036 0.26031 0.15133
 C1180 C 0.16821 0.24809 0.14846
 C1181 C 0.18365 0.24761 0.16423
 C1182 C 0.18140 0.25935 0.18309
 C1183 C 0.16343 0.27165 0.18578
 C1184 C 0.14802 0.27211 0.16998
 H1185 H 0.07324 0.22791 0.07486
 H1186 H 0.07368 0.29504 0.07513
 H1187 H 0.04624 0.29547 0.04786
 H1188 H 0.04581 0.22808 0.04759
 H1189 H 0.17014 0.23884 0.13410
 H1190 H 0.19718 0.23779 0.16183
 H1191 H 0.16138 0.28106 0.19999
 H1192 H 0.13429 0.28167 0.17234
 C1193 C 0.56464 0.73918 0.57039
 C1194 C 0.57235 0.75785 0.57881
 C1195 C 0.56475 0.77691 0.57119
 C1196 C 0.54950 0.77731 0.55522
 C1197 C 0.54164 0.75862 0.54665
 C1198 C 0.54939 0.73954 0.55442
 C1199 C 0.58808 0.75746 0.59521
 C1200 C 0.60128 0.75715 0.60893
 C1201 C 0.61676 0.75683 0.62497
 C1202 C 0.63001 0.75663 0.63863
 C1203 C 0.64589 0.75650 0.65489
 C1204 C 0.64902 0.77412 0.66766
 C1205 C 0.66460 0.77414 0.68328
 C1206 C 0.67727 0.75648 0.68634
 C1207 C 0.67393 0.73879 0.67350
 C1208 C 0.65835 0.73882 0.65787
 H1209 H 0.57042 0.72434 0.57616
 H1210 H 0.57062 0.79146 0.57759
 H1211 H 0.54388 0.79225 0.54960
 H1212 H 0.54368 0.72487 0.54818
 H1213 H 0.63943 0.78787 0.66552
 H1214 H 0.66661 0.78789 0.69309
 H1215 H 0.68360 0.72507 0.67528
 H1216 H 0.65610 0.72511 0.64803
   
