data_POSCAR
  _audit_creation_date              2014-09-24
  _audit_creation_method            'ToBaCCo'
  _symmetry_space_group_name_H-M    'P1'
  _symmetry_Int_Tables_number       1
  _symmetry_cell_setting            triclinic
  loop_
  _symmetry_equiv_pos_as_xyz
 x,y,z
_cell_length_a 49.5502
_cell_length_b 49.7912
_cell_length_c 49.6369
_cell_angle_alpha 89.983200
_cell_angle_beta 89.932500
_cell_angle_gamma 89.949700
loop_
  _atom_site_label
  _atom_site_type_symbol
  _atom_site_fract_x
  _atom_site_fract_y
  _atom_site_fract_z
N1 N 0.15054 0.16905 0.22548
 N2 N 0.16949 0.15051 0.22523
 C3 C 0.16551 0.13361 0.24611
 C4 C 0.14294 0.14217 0.25993
 C5 C 0.13386 0.16463 0.24646
 H6 H 0.17800 0.11645 0.25091
 H7 H 0.11649 0.17680 0.25153
 Cu8 Cu 0.19739 0.15033 0.19754
 Cu9 Cu 0.14883 0.19753 0.19860
 Cu10 Cu 0.19838 0.19753 0.14914
 N11 N 0.22512 0.15050 0.16967
 N12 N 0.22535 0.16905 0.15078
 C13 C 0.24637 0.16462 0.13412
 C14 C 0.25988 0.14216 0.14314
 C15 C 0.24604 0.13359 0.16567
 H16 H 0.25143 0.17680 0.11678
 H17 H 0.25084 0.11641 0.17812
 N18 N 0.16939 0.22467 0.15086
 N19 N 0.15052 0.22466 0.16969
 C20 C 0.13376 0.24557 0.16545
 C21 C 0.14258 0.25922 0.14297
 C22 C 0.16512 0.24559 0.13415
 H23 H 0.11644 0.25057 0.17776
 H24 H 0.17743 0.25062 0.11687
 H25 H 0.16788 0.17646 0.16818
 H26 H 0.18959 0.19811 0.18986
 N27 N -0.15111 0.83064 0.22499
 N28 N -0.16996 0.84944 0.22498
 C29 C -0.16568 0.86612 0.24593
 C30 C -0.14316 0.85731 0.25957
 C31 C -0.13436 0.83488 0.24594
 H32 H -0.17792 0.88341 0.25090
 H33 H -0.11702 0.82266 0.25091
 Cu34 Cu -0.19879 0.85130 0.19767
 Cu35 Cu -0.14926 0.80190 0.19770
 Cu36 Cu -0.19724 0.80349 0.15003
 N37 N -0.22553 0.84977 0.16892
 N38 N -0.22503 0.83116 0.15010
 C39 C -0.24586 0.83520 0.13308
 C40 C -0.25994 0.85742 0.14189
 C41 C -0.24667 0.86624 0.16460
 H42 H -0.25050 0.82293 0.11570
 H43 H -0.25198 0.88327 0.17705
 N44 N -0.16951 0.77575 0.15016
 N45 N -0.15084 0.77525 0.16899
 C46 C -0.13436 0.75415 0.16470
 C47 C -0.14320 0.74088 0.14202
 C48 C -0.16548 0.75497 0.13320
 H49 H -0.11728 0.74883 0.17716
 H50 H -0.17779 0.75032 0.11583
 H51 H -0.16806 0.83248 0.17678
 H52 H -0.19002 0.81072 0.19812
 N53 N -0.15097 0.16959 -0.22492
 N54 N -0.16991 0.15107 -0.22469
 C55 C -0.16592 0.13424 -0.24561
 C56 C -0.14338 0.14279 -0.25945
 C57 C -0.13434 0.16519 -0.24593
 H58 H -0.17836 0.11706 -0.25043
 H59 H -0.11696 0.17733 -0.25098
 Cu60 Cu -0.19761 0.15078 -0.19685
 Cu61 Cu -0.14922 0.19799 -0.19797
 Cu62 Cu -0.19874 0.19790 -0.14846
 N63 N -0.22548 0.15097 -0.16916
 N64 N -0.22572 0.16946 -0.15021
 C65 C -0.24675 0.16501 -0.13358
 C66 C -0.26025 0.14260 -0.14268
 C67 C -0.24640 0.13409 -0.16523
 H68 H -0.25181 0.17713 -0.11621
 H69 H -0.25119 0.11694 -0.17771
 N70 N -0.16974 0.22500 -0.15013
 N71 N -0.15089 0.22502 -0.16899
 C72 C -0.13414 0.24591 -0.16474
 C73 C -0.14294 0.25950 -0.14223
 C74 C -0.16546 0.24588 -0.13340
 H75 H -0.11686 0.25093 -0.17707
 H76 H -0.17777 0.25090 -0.11611
 H77 H -0.16817 0.17694 -0.16753
 H78 H -0.18995 0.19856 -0.18918
 N79 N 0.15085 0.83083 -0.22466
 N80 N 0.16948 0.84966 -0.22412
 C81 C 0.16546 0.86660 -0.24493
 C82 C 0.14321 0.85780 -0.25905
 C83 C 0.13438 0.83514 -0.24579
 H84 H 0.17775 0.88394 -0.24958
 H85 H 0.11732 0.82271 -0.25114
 Cu86 Cu 0.19723 0.84967 -0.19638
 Cu87 Cu 0.14930 0.80213 -0.19798
 Cu88 Cu 0.19879 0.80214 -0.14848
 N89 N 0.22499 0.84969 -0.16862
 N90 N 0.22553 0.83086 -0.15000
 C91 C 0.24667 0.83517 -0.13352
 C92 C 0.25993 0.85785 -0.14237
 C93 C 0.24582 0.86665 -0.16462
 H94 H 0.25201 0.82274 -0.11646
 H95 H 0.25044 0.88398 -0.17693
 N96 N 0.16998 0.77484 -0.15036
 N97 N 0.15115 0.77484 -0.16921
 C98 C 0.13441 0.75393 -0.16497
 C99 C 0.14319 0.74029 -0.14249
 C100 C 0.16569 0.75391 -0.13366
 H101 H 0.11709 0.74899 -0.17722
 H102 H 0.17791 0.74894 -0.11632
 H103 H 0.16803 0.82294 -0.16731
 H104 H 0.19003 0.80175 -0.18920
 N105 N 0.16911 1.15083 0.77477
 N106 N 0.15052 1.16971 0.77494
 C107 C 0.13358 1.16571 0.75410
 C108 C 0.14216 1.14322 0.74036
 C109 C 0.16467 1.13421 0.75386
 H110 H 0.11638 1.17817 0.74921
 H111 H 0.17692 1.11693 0.74880
 Cu112 Cu 0.15057 1.19776 0.80222
 Cu113 Cu 0.19768 1.14913 0.80157
 Cu114 Cu 0.19766 1.19839 0.85093
 N115 N 0.15051 1.22500 0.83030
 N116 N 0.16909 1.22516 0.84922
 C117 C 0.16463 1.24603 0.86588
 C118 C 0.14212 1.25951 0.85686
 C119 C 0.13356 1.24581 0.83432
 H120 H 0.17685 1.25106 0.88320
 H121 H 0.11636 1.25070 0.82185
 N122 N 0.22483 1.16958 0.84923
 N123 N 0.22485 1.15082 0.83041
 C124 C 0.24577 1.13407 0.83472
 C125 C 0.25937 1.14281 0.85721
 C126 C 0.24575 1.16526 0.86600
 H127 H 0.25078 1.11681 0.82247
 H128 H 0.25075 1.17747 0.88330
 H129 H 0.17638 1.16833 0.83174
 H130 H 0.19850 1.18978 0.81016
 N131 N 0.83113 0.84879 0.77480
 N132 N 0.84972 0.82991 0.77495
 C133 C 0.86665 0.83388 0.75406
 C134 C 0.85806 0.85636 0.74031
 C135 C 0.83556 0.86539 0.75385
 H136 H 0.88390 0.82146 0.74919
 H137 H 0.82337 0.88272 0.74885
 Cu138 Cu 0.84993 0.80217 0.80255
 Cu139 Cu 0.80261 0.85057 0.80170
 Cu140 Cu 0.80256 0.80131 0.85109
 N141 N 0.84969 0.77467 0.83038
 N142 N 0.83108 0.77450 0.84931
 C143 C 0.83549 0.75360 0.86595
 C144 C 0.85800 0.74011 0.85688
 C145 C 0.86661 0.75383 0.83435
 H146 H 0.82327 0.74859 0.88330
 H147 H 0.88385 0.74897 0.82189
 N148 N 0.77543 0.83015 0.84945
 N149 N 0.77545 0.84893 0.83063
 C150 C 0.75451 0.86566 0.83494
 C151 C 0.74087 0.85690 0.85744
 C152 C 0.75447 0.83445 0.86622
 H153 H 0.74950 0.88291 0.82268
 H154 H 0.74943 0.82221 0.88350
 H155 H 0.82383 0.83152 0.83203
 H156 H 0.80197 0.80996 0.81037
 N157 N 0.16908 0.84853 1.22482
 N158 N 0.15045 0.82971 1.22464
 C159 C 0.13355 0.83366 1.24557
 C160 C 0.14218 0.85608 1.25935
 C161 C 0.16469 0.86508 1.24581
 H162 H 0.11628 0.82130 1.25042
 H163 H 0.17689 0.88237 1.25081
 Cu164 Cu 0.15012 0.80217 1.19688
 Cu165 Cu 0.19756 0.85031 1.19787
 Cu166 Cu 0.19763 0.80098 1.14854
 N167 N 0.15053 0.77440 1.16936
 N168 N 0.16917 0.77414 1.15046
 C169 C 0.16481 0.75318 1.13392
 C170 C 0.14230 0.73975 1.14301
 C171 C 0.13364 0.75356 1.16547
 H172 H 0.17702 0.74813 1.11656
 H173 H 0.11635 0.74880 1.17789
 N174 N 0.22469 0.82987 1.15009
 N175 N 0.22465 0.84865 1.16889
 C176 C 0.24557 0.86537 1.16456
 C177 C 0.25921 0.85660 1.14206
 C178 C 0.24563 0.83414 1.13330
 H179 H 0.25058 0.88261 1.17681
 H180 H 0.25069 0.82189 1.11604
 H181 H 0.17642 0.83138 1.16744
 H182 H 0.19810 0.80972 1.18922
 N183 N 0.83080 1.15098 1.22482
 N184 N 0.84937 1.16985 1.22464
 C185 C 0.86634 1.16583 1.24546
 C186 C 0.85781 1.14334 1.25920
 C187 C 0.83528 1.13434 1.24573
 H188 H 0.88354 1.17827 1.25032
 H189 H 0.82308 1.11706 1.25078
 Cu190 Cu 0.84929 1.19789 1.19734
 Cu191 Cu 0.80223 1.14931 1.19802
 Cu192 Cu 0.80217 1.19860 1.14865
 N193 N 0.84932 1.22512 1.16926
 N194 N 0.83073 1.22533 1.15035
 C195 C 0.83516 1.24622 1.13372
 C196 C 0.85767 1.25966 1.14275
 C197 C 0.86626 1.24591 1.16526
 H198 H 0.82292 1.25131 1.11643
 H199 H 0.88345 1.25078 1.17774
 N200 N 0.77501 1.16982 1.15037
 N201 N 0.77504 1.15103 1.16918
 C202 C 0.75413 1.13429 1.16487
 C203 C 0.74050 1.14306 1.14239
 C204 C 0.75408 1.16552 1.13361
 H205 H 0.74916 1.11702 1.17711
 H206 H 0.74906 1.17775 1.11632
 H207 H 0.82348 1.16853 1.16780
 H208 H 0.80136 1.18999 1.18940
 N209 N 0.47149 0.95238 0.97098
 N210 N 0.45105 0.93573 0.96750
 N211 N 0.52833 0.97099 0.95225
 N212 N 0.54881 0.96756 0.93557
 N213 N 0.52830 0.95233 0.97096
 N214 N 0.54876 0.93567 0.96755
 N215 N 0.47152 0.97104 0.95226
 N216 N 0.45110 0.96761 0.93554
 C217 C 0.43860 0.94553 0.94534
 C218 C 0.56125 0.94548 0.94542
 N219 N 0.52841 1.04750 0.97097
 N220 N 0.54890 1.06412 0.96753
 N221 N 0.47163 1.02889 0.95230
 N222 N 0.45120 1.03233 0.93561
 N223 N 0.47161 1.04753 0.97102
 N224 N 0.45116 1.06419 0.96761
 N225 N 0.52843 1.02885 0.95226
 N226 N 0.54892 1.03224 0.93557
 Mn227 Mn 0.49998 0.99994 0.95195
 C228 C 0.56141 1.05429 0.94539
 C229 C 0.43873 1.05439 0.94547
 N230 N 0.52839 0.95231 1.02898
 N231 N 0.54883 0.93562 1.03239
 N232 N 0.47161 0.97099 1.04776
 N233 N 0.45117 0.96755 1.06449
 N234 N 0.47161 0.95237 1.02902
 N235 N 0.45119 0.93571 1.03246
 N236 N 0.52840 0.97096 1.04770
 N237 N 0.54886 0.96747 1.06438
 Mn238 Mn 0.49994 0.95203 0.99999
 C239 C 0.56132 0.94538 1.05453
 C240 C 0.43874 0.94549 1.05462
 N241 N 0.47145 1.04751 1.02907
 N242 N 0.45095 1.06413 1.03252
 N243 N 0.52829 1.02883 1.04773
 N244 N 0.54872 1.03226 1.06441
 N245 N 0.52827 1.04750 1.02902
 N246 N 0.54869 1.06415 1.03243
 N247 N 0.47147 1.02885 1.04779
 N248 N 0.45098 1.03225 1.06449
 Mn249 Mn 0.49993 1.04783 1.00002
 Mn250 Mn 0.49994 0.99991 1.04807
 Cl251 Cl 0.49995 0.99993 1.00001
 C252 C 0.43846 1.05431 1.05467
 C253 C 0.56115 1.05434 1.05455
 N254 N 0.02894 0.47157 0.04786
 N255 N 0.03230 0.45119 0.06456
 N256 N 0.04778 0.52804 0.02911
 N257 N 0.06444 0.54844 0.03246
 N258 N 0.02900 0.52809 0.04780
 N259 N 0.03233 0.54852 0.06440
 N260 N 0.04772 0.47151 0.02915
 N261 N 0.06438 0.45108 0.03260
 C262 C 0.05446 0.43870 0.05473
 C263 C 0.05449 0.56091 0.05454
 N264 N 0.02915 0.52812 -0.04764
 N265 N 0.03252 0.54858 -0.06424
 N266 N 0.04781 0.47153 -0.02890
 N267 N 0.06445 0.45108 -0.03229
 N268 N 0.02909 0.47159 -0.04761
 N269 N 0.03245 0.45119 -0.06426
 N270 N 0.04788 0.52809 -0.02893
 N271 N 0.06452 0.54853 -0.03227
 Mn272 Mn 0.04813 0.49979 0.00011
 C273 C 0.05464 0.56102 -0.05436
 C274 C 0.05456 0.43870 -0.05440
 N275 N -0.02914 0.52828 0.04779
 N276 N -0.03261 0.54866 0.06447
 N277 N -0.04790 0.47176 0.02911
 N278 N -0.06457 0.45137 0.03249
 N279 N -0.02919 0.47175 0.04783
 N280 N -0.03258 0.45135 0.06448
 N281 N -0.04786 0.52829 0.02908
 N282 N -0.06459 0.54867 0.03249
 Mn283 Mn -0.00010 0.49993 0.04814
 C284 C -0.05478 0.56109 0.05462
 C285 C -0.05471 0.43894 0.05460
 N286 N -0.02903 0.47164 -0.04763
 N287 N -0.03244 0.45126 -0.06429
 N288 N -0.04774 0.52821 -0.02895
 N289 N -0.06437 0.54866 -0.03233
 N290 N -0.02897 0.52817 -0.04765
 N291 N -0.03228 0.54858 -0.06430
 N292 N -0.04781 0.47168 -0.02892
 N293 N -0.06453 0.45133 -0.03233
 Mn294 Mn 0.00006 0.49988 -0.04795
 Mn295 Mn -0.04815 0.49999 0.00008
 Cl296 Cl -0.00001 0.49989 0.00009
 C297 C -0.05464 0.43888 -0.05445
 C298 C -0.05441 0.56106 -0.05443
 N299 N 1.02931 -0.04749 0.47152
 N300 N 1.03264 -0.06415 0.45110
 N301 N 1.04812 -0.02877 0.52813
 N302 N 1.06488 -0.03219 0.54852
 N303 N 1.02937 -0.04740 0.52821
 N304 N 1.03284 -0.06403 0.54865
 N305 N 1.04806 -0.02887 0.47142
 N306 N 1.06471 -0.03232 0.45092
 C307 C 1.05477 -0.05438 0.43855
 C308 C 1.05504 -0.05424 0.56103
 N309 N 1.02934 0.04775 0.52796
 N310 N 1.03270 0.06438 0.54839
 N311 N 1.04808 0.02899 0.47125
 N312 N 1.06478 0.03235 0.45077
 N313 N 1.02933 0.04767 0.47125
 N314 N 1.03274 0.06425 0.45076
 N315 N 1.04810 0.02909 0.52798
 N316 N 1.06476 0.03249 0.54843
 Mn317 Mn 1.04842 0.00011 0.49970
 C318 C 1.05485 0.05456 0.56086
 C319 C 1.05491 0.05440 0.43828
 N320 N 0.97124 -0.04734 0.52825
 N321 N 0.96783 -0.06397 0.54868
 N322 N 0.95245 -0.02877 0.47155
 N323 N 0.93575 -0.03219 0.45113
 N324 N 0.97120 -0.04744 0.47157
 N325 N 0.96779 -0.06409 0.45116
 N326 N 0.95247 -0.02869 0.52825
 N327 N 0.93576 -0.03209 0.54870
 Mn328 Mn 1.00028 -0.04774 0.49989
 C329 C 0.94565 -0.05415 0.56114
 C330 C 0.94562 -0.05428 0.43870
 N331 N 0.97120 0.04772 0.47141
 N332 N 0.96781 0.06433 0.45095
 N333 N 0.95246 0.02916 0.52816
 N334 N 0.93577 0.03258 0.54863
 N335 N 0.97120 0.04780 0.52811
 N336 N 0.96779 0.06444 0.54855
 N337 N 0.95245 0.02910 0.47145
 N338 N 0.93575 0.03250 0.45102
 Mn339 Mn 1.00027 0.04806 0.49968
 Mn340 Mn 0.95213 0.00020 0.49985
 Cl341 Cl 1.00027 0.00016 0.49978
 C342 C 0.94565 0.05454 0.43853
 C343 C 0.94563 0.05464 0.56106
 C344 C 1.11028 0.10927 0.32594
 N345 N 1.09573 0.08626 0.32428
 N346 N 1.08481 0.07546 0.34632
 C347 C 1.08809 0.08734 0.37068
 N348 N 1.10262 0.11035 0.37233
 N349 N 1.11354 0.12116 0.35030
 C350 C 1.12203 0.12095 0.30221
 C351 C 1.13188 0.13087 0.28232
 C352 C 1.07637 0.07570 0.39445
 C353 C 1.06656 0.06596 0.41444
 C354 C 0.89043 -0.10934 0.32663
 N355 N 0.90672 -0.08755 0.32463
 N356 N 0.91761 -0.07670 0.34662
 C357 C 0.91254 -0.08733 0.37128
 N358 N 0.89627 -0.10912 0.37327
 N359 N 0.88538 -0.11997 0.35128
 C360 C 0.87866 -0.12102 0.30297
 C361 C 0.86872 -0.13088 0.28315
 C362 C 0.92423 -0.07565 0.39498
 C363 C 0.93400 -0.06588 0.41493
 C364 C 0.89024 0.10919 0.67350
 N365 N 0.91308 0.11972 0.66274
 N366 N 0.92405 0.10895 0.64072
 C367 C 0.91251 0.08732 0.62878
 N368 N 0.88968 0.07679 0.63954
 N369 N 0.87871 0.08756 0.66157
 C370 C 0.87834 0.12090 0.69713
 C371 C 0.86838 0.13083 0.71695
 C372 C 0.92422 0.07583 0.60495
 C373 C 0.93402 0.06618 0.58492
 C374 C 1.11030 -0.10891 0.67342
 N375 N 1.09549 -0.08604 0.67504
 N376 N 1.08463 -0.07529 0.65297
 C377 C 1.08824 -0.08709 0.62860
 N378 N 1.10305 -0.10997 0.62698
 N379 N 1.11390 -0.12071 0.64906
 C380 C 1.12194 -0.12053 0.69721
 C381 C 1.13168 -0.13036 0.71718
 C382 C 1.07654 -0.07553 0.60481
 C383 C 1.06673 -0.06582 0.58483
 C384 C 0.32596 1.10922 1.11029
 N385 N 0.32852 1.08216 1.10827
 N386 N 0.35056 1.07136 1.09728
 C387 C 0.37073 1.08728 1.08796
 N388 N 0.36816 1.11433 1.08997
 N389 N 0.34612 1.12513 1.10096
 C390 C 0.30222 1.12090 1.12215
 C391 C 0.28231 1.13082 1.13206
 C392 C 0.39455 1.07565 1.07620
 C393 C 0.41458 1.06591 1.06636
 C394 C 0.32623 0.89062 0.88993
 N395 N 0.32972 0.91764 0.89002
 N396 N 0.35178 0.92844 0.90090
 C397 C 0.37102 0.91254 0.91205
 N398 N 0.36752 0.88553 0.91196
 N399 N 0.34547 0.87473 0.90108
 C400 C 0.30242 0.87897 0.87826
 C401 C 0.28245 0.86909 0.86853
 C402 C 0.39481 0.92417 0.92379
 C403 C 0.41480 0.93391 0.93363
 C404 C 0.67377 0.88986 1.10923
 N405 N 0.65353 0.89890 1.12527
 N406 N 0.63146 0.90985 1.11454
 C407 C 0.62895 0.91210 1.08742
 N408 N 0.64919 0.90306 1.07137
 N409 N 0.67126 0.89211 1.08211
 C410 C 0.69757 0.87813 1.12082
 C411 C 0.71755 0.86835 1.13066
 C412 C 0.60515 0.92385 1.07585
 C413 C 0.58514 0.93370 1.06613
 C414 C 0.67388 1.10936 0.89013
 N415 N 0.66416 1.08567 0.88079
 N416 N 0.64214 1.07477 0.89170
 C417 C 0.62916 1.08723 0.91229
 N418 N 0.63889 1.11092 0.92163
 N419 N 0.66090 1.12182 0.91072
 C420 C 0.69753 1.12119 0.87829
 C421 C 0.71738 1.13121 0.86839
 C422 C 0.60533 1.07558 0.92395
 C423 C 0.58529 1.06586 0.93374
 C424 C 0.10921 0.32638 0.10965
 N425 N 0.12269 0.34028 0.09037
 N426 N 0.11190 0.36231 0.07956
 C427 C 0.08730 0.37113 0.08770
 N428 N 0.07381 0.35722 0.10697
 N429 N 0.08460 0.33519 0.11779
 C430 C 0.12090 0.30271 0.12137
 C431 C 0.13077 0.28285 0.13122
 C432 C 0.07571 0.39491 0.07610
 C433 C 0.06601 0.41490 0.06635
 C434 C -0.10963 0.32675 -0.10919
 N435 N -0.11638 0.35140 -0.11866
 N436 N -0.10556 0.37343 -0.10792
 C437 C -0.08765 0.37147 -0.08736
 N438 N -0.08089 0.34681 -0.07789
 N439 N -0.09171 0.32478 -0.08864
 C440 C -0.12133 0.30303 -0.12076
 C441 C -0.13118 0.28316 -0.13053
 C442 C -0.07602 0.39520 -0.07577
 C443 C -0.06626 0.41514 -0.06604
 C444 C 0.10941 0.67336 -0.10913
 N445 N 0.09956 0.65360 -0.12514
 N446 N 0.08870 0.63160 -0.11433
 C447 C 0.08737 0.62868 -0.08719
 N448 N 0.09719 0.64846 -0.07118
 N449 N 0.10804 0.67047 -0.08199
 C450 C 0.12127 0.69698 -0.12080
 C451 C 0.13127 0.71676 -0.13066
 C452 C 0.07582 0.60489 -0.07557
 C453 C 0.06616 0.58488 -0.06587
 C454 C -0.11022 0.67341 0.10892
 N455 N -0.11962 0.64877 0.11581
 N456 N -0.10870 0.62670 0.10518
 C457 C -0.08803 0.62860 0.08734
 N458 N -0.07863 0.65324 0.08045
 N459 N -0.08955 0.67531 0.09108
 C460 C -0.12191 0.69718 0.12045
 C461 C -0.13167 0.71713 0.13023
 C462 C -0.07629 0.60482 0.07587
 C463 C -0.06645 0.58486 0.06620
 C464 C 1.10898 0.11010 0.67308
 N465 N 1.09463 0.08698 0.67477
 N466 N 1.08402 0.07599 0.65272
 C467 C 1.08746 0.08779 0.62833
 N468 N 1.10182 0.11091 0.62664
 N469 N 1.11243 0.12190 0.64869
 C470 C 1.12051 0.12185 0.69679
 C471 C 1.13031 0.13166 0.71669
 C472 C 1.07602 0.07599 0.60460
 C473 C 1.06639 0.06616 0.58464
 C474 C 0.89136 -0.11000 0.67327
 N475 N 0.91645 -0.11706 0.66491
 N476 N 0.92710 -0.10595 0.64291
 C477 C 0.91299 -0.08746 0.62863
 N478 N 0.88791 -0.08039 0.63699
 N479 N 0.87725 -0.09150 0.65899
 C480 C 0.87984 -0.12198 0.69689
 C481 C 0.87000 -0.13195 0.71672
 C482 C 0.92441 -0.07561 0.60489
 C483 C 0.93406 -0.06576 0.58492
 C484 C 1.10875 -0.11047 0.32640
 N485 N 1.11254 -0.12194 0.35089
 N486 N 1.10194 -0.11083 0.37291
 C487 C 1.08725 -0.08791 0.37109
 N488 N 1.08345 -0.07644 0.34660
 N489 N 1.09406 -0.08755 0.32458
 C490 C 1.12034 -0.12233 0.30276
 C491 C 1.13022 -0.13224 0.28293
 C492 C 1.07586 -0.07597 0.39480
 C493 C 1.06628 -0.06605 0.41476
 C494 C 0.89128 0.11003 0.32630
 N495 N 0.88626 0.08399 0.33254
 N496 N 0.89697 0.07301 0.35456
 C497 C 0.91302 0.08775 0.37100
 N498 N 0.91805 0.11379 0.36475
 N499 N 0.90734 0.12477 0.34273
 C500 C 0.87965 0.12186 0.30266
 C501 C 0.86975 0.13171 0.28282
 C502 C 0.92446 0.07596 0.39475
 C503 C 0.93409 0.06613 0.41473
 C504 C 0.10886 0.32658 -0.10980
 N505 N 0.12244 0.34031 -0.09051
 N506 N 0.11175 0.36230 -0.07953
 C507 C 0.08716 0.37122 -0.08751
 N508 N 0.07357 0.35749 -0.10679
 N509 N 0.08427 0.33549 -0.11778
 C510 C 0.12041 0.30295 -0.12164
 C511 C 0.13023 0.28311 -0.13151
 C512 C 0.07571 0.39495 -0.07578
 C513 C 0.06608 0.41492 -0.06598
 C514 C -0.10911 0.32689 0.10983
 N515 N -0.11852 0.35154 0.11672
 N516 N -0.10784 0.37356 0.10581
 C517 C -0.08745 0.37158 0.08766
 N518 N -0.07804 0.34693 0.08077
 N519 N -0.08872 0.32491 0.09168
 C520 C -0.12068 0.30320 0.12148
 C521 C -0.13049 0.28332 0.13122
 C522 C -0.07595 0.39527 0.07595
 C523 C -0.06627 0.41521 0.06617
 C524 C -0.10878 0.67307 -0.10980
 N525 N -0.12106 0.64892 -0.11277
 N526 N -0.11038 0.62693 -0.10178
 C527 C -0.08713 0.62844 -0.08749
 N528 N -0.07486 0.65259 -0.08450
 N529 N -0.08554 0.67459 -0.09549
 C530 C -0.12030 0.69671 -0.12160
 C531 C -0.13012 0.71654 -0.13147
 C532 C -0.07560 0.60476 -0.07578
 C533 C -0.06593 0.58482 -0.06601
 C534 C 0.10880 0.67297 0.10959
 N535 N 0.08420 0.66414 0.11766
 N536 N 0.07348 0.64216 0.10672
 C537 C 0.08705 0.62838 0.08741
 N538 N 0.11163 0.63723 0.07934
 N539 N 0.12235 0.65921 0.09027
 C540 C 0.12042 0.69651 0.12144
 C541 C 0.13033 0.71626 0.13134
 C542 C 0.07560 0.60465 0.07578
 C543 C 0.06598 0.58468 0.06605
 C544 C 0.32645 1.10940 0.89065
 N545 N 0.34659 1.12529 0.89996
 N546 N 0.36866 1.11444 0.91077
 C547 C 0.37122 1.08739 0.91257
 N548 N 0.35108 1.07149 0.90327
 N549 N 0.32901 1.08234 0.89246
 C550 C 0.30278 1.12109 0.87893
 C551 C 0.28295 1.13099 0.86904
 C552 C 0.39498 1.07574 0.92415
 C553 C 0.41496 1.06598 0.93388
 C554 C 0.32637 0.89009 1.10887
 N555 N 0.34506 0.87447 1.09647
 N556 N 0.36715 0.88543 1.08582
 C557 C 0.37120 0.91232 1.08726
 N558 N 0.35250 0.92794 1.09965
 N559 N 0.33041 0.91698 1.11030
 C560 C 0.30270 0.87829 1.12046
 C561 C 0.28283 0.86837 1.13027
 C562 C 0.39497 0.92408 1.07584
 C563 C 0.41496 0.93390 1.06620
 C564 C 0.67340 1.10952 1.10917
 N565 N 0.67066 1.10785 1.08204
 N566 N 0.64860 1.09695 1.07130
 C567 C 0.62865 1.08739 1.08737
 N568 N 0.63139 1.08906 1.11450
 N569 N 0.65344 1.09996 1.12524
 C570 C 0.69707 1.12132 1.12075
 C571 C 0.71691 1.13124 1.13058
 C572 C 0.60489 1.07572 1.07583
 C573 C 0.58492 1.06594 1.06613
 C574 C 0.67365 0.89034 0.89070
 N575 N 0.65343 0.89935 0.87467
 N576 N 0.63135 0.91024 0.88545
 C577 C 0.62884 0.91244 0.91257
 N578 N 0.64906 0.90343 0.92859
 N579 N 0.67115 0.89254 0.91782
 C580 C 0.69736 0.87858 0.87908
 C581 C 0.71724 0.86869 0.86924
 C582 C 0.60506 0.92410 0.92414
 C583 C 0.58506 0.93388 0.93385
   
