data_POSCAR
  _audit_creation_date              2014-09-24
  _audit_creation_method            'ToBaCCo'
  _symmetry_space_group_name_H-M    'P1'
  _symmetry_Int_Tables_number       1
  _symmetry_cell_setting            triclinic
  loop_
  _symmetry_equiv_pos_as_xyz
 x,y,z
_cell_length_a 61.8713
_cell_length_b 61.7866
_cell_length_c 36.8001
_cell_angle_alpha 90.001400
_cell_angle_beta 89.909700
_cell_angle_gamma 89.892000
loop_
  _atom_site_label
  _atom_site_type_symbol
  _atom_site_fract_x
  _atom_site_fract_y
  _atom_site_fract_z
C1 C -0.00084 0.26599 -0.01748
 C2 C -0.00045 0.26603 0.01958
 C3 C -0.02065 0.26717 0.04140
 C4 C 0.02016 0.26441 0.04011
 C5 C 0.01936 0.26682 -0.03933
 C6 C -0.02146 0.26457 -0.03798
 C7 C -0.03577 0.28386 0.03590
 C8 C -0.05516 0.28416 0.05547
 C9 C -0.05952 0.26791 0.08104
 C10 C -0.04422 0.25158 0.08731
 C11 C -0.02487 0.25127 0.06770
 C12 C 0.02525 0.28004 0.06642
 C13 C 0.04476 0.27886 0.08543
 C14 C 0.05928 0.26194 0.07854
 C15 C 0.05411 0.24606 0.05286
 C16 C 0.03460 0.24721 0.03387
 C17 C 0.02339 0.25084 -0.06564
 C18 C 0.04270 0.25093 -0.08537
 C19 C 0.05811 0.26707 -0.07923
 C20 C 0.05398 0.28336 -0.05368
 C21 C 0.03465 0.28332 -0.03395
 C22 C -0.03603 0.24754 -0.03169
 C23 C -0.05553 0.24657 -0.05073
 C24 C -0.06056 0.26246 -0.07651
 C25 C -0.04592 0.27922 -0.08342
 C26 C -0.02642 0.28022 -0.06436
 H27 H -0.03264 0.29649 0.01619
 H28 H -0.06677 0.29698 0.05037
 H29 H -0.04730 0.23890 0.10702
 H30 H -0.01337 0.23833 0.07244
 H31 H 0.01425 0.29332 0.07181
 H32 H 0.04857 0.29119 0.10534
 H33 H 0.03077 0.23474 0.01423
 H34 H 0.01178 0.23805 -0.07031
 H35 H 0.04573 0.23826 -0.10511
 H36 H 0.06577 0.29598 -0.04881
 H37 H 0.03167 0.29601 -0.01425
 H38 H -0.03230 0.23507 -0.01198
 H39 H -0.06669 0.23347 -0.04531
 H40 H -0.04963 0.29156 -0.10339
 H41 H -0.01532 0.29338 -0.06978
 H42 H 0.06518 0.23283 0.04746
 C43 C 0.49995 0.76792 0.48214
 C44 C 0.50037 0.76791 0.51920
 C45 C 0.48017 0.76872 0.54104
 C46 C 0.52100 0.76654 0.53969
 C47 C 0.52012 0.76909 0.46028
 C48 C 0.47934 0.76623 0.46164
 C49 C 0.46483 0.78522 0.53564
 C50 C 0.44541 0.78516 0.55513
 C51 C 0.44127 0.76877 0.58047
 C52 C 0.45676 0.75266 0.58671
 C53 C 0.47615 0.75268 0.56721
 C54 C 0.52588 0.78220 0.56608
 C55 C 0.54539 0.78123 0.58514
 C56 C 0.56012 0.76449 0.57822
 C57 C 0.55518 0.74860 0.55243
 C58 C 0.53567 0.74954 0.53338
 C59 C 0.52442 0.75318 0.43398
 C60 C 0.54374 0.75357 0.41430
 C61 C 0.55888 0.76996 0.42049
 C62 C 0.55447 0.78619 0.44601
 C63 C 0.53512 0.78584 0.46569
 C64 C 0.46502 0.74899 0.46787
 C65 C 0.44554 0.74775 0.44882
 C66 C 0.44028 0.76359 0.42309
 C67 C 0.45467 0.78058 0.41625
 C68 C 0.47415 0.78185 0.43532
 H69 H 0.46779 0.79795 0.51603
 H70 H 0.43356 0.79774 0.55019
 H71 H 0.45372 0.73992 0.60628
 H72 H 0.48782 0.73989 0.57189
 H73 H 0.51471 0.79533 0.57150
 H74 H 0.54902 0.79357 0.60512
 H75 H 0.53201 0.73706 0.51368
 H76 H 0.51302 0.74019 0.42930
 H77 H 0.54698 0.74094 0.39459
 H78 H 0.56605 0.79899 0.45090
 H79 H 0.53193 0.79847 0.48539
 H80 H 0.46893 0.73654 0.48753
 H81 H 0.43458 0.73447 0.45418
 H82 H 0.45079 0.79289 0.39632
 H83 H 0.48505 0.79517 0.42995
 H84 H 0.56641 0.73552 0.54701
 C85 C 1.00069 0.73296 -0.01874
 C86 C 1.00031 0.73294 0.01832
 C87 C 1.02051 0.73194 0.04003
 C88 C 0.97970 0.73445 0.03896
 C89 C 0.98049 0.73203 -0.04046
 C90 C 1.02129 0.73448 -0.03937
 C91 C 1.03571 0.71531 0.03453
 C92 C 1.05506 0.71510 0.05413
 C93 C 1.05927 0.73135 0.07965
 C94 C 1.04394 0.74763 0.08592
 C95 C 1.02462 0.74787 0.06632
 C96 C 0.97472 0.71879 0.06531
 C97 C 0.95523 0.71989 0.08450
 C98 C 0.94063 0.73674 0.07775
 C99 C 0.94568 0.75264 0.05200
 C100 C 0.96517 0.75158 0.03283
 C101 C 0.97635 0.74802 -0.06667
 C102 C 0.95700 0.74788 -0.08619
 C103 C 0.94167 0.73167 -0.07992
 C104 C 0.94592 0.71536 -0.05449
 C105 C 0.96529 0.71545 -0.03498
 C106 C 1.03574 0.75162 -0.03322
 C107 C 1.05520 0.75275 -0.05244
 C108 C 1.06033 0.73689 -0.07828
 C109 C 1.04580 0.72000 -0.08502
 C110 C 1.02634 0.71886 -0.06577
 H111 H 1.03267 0.70266 0.01484
 H112 H 1.06678 0.70239 0.04917
 H113 H 1.04703 0.76026 0.10564
 H114 H 1.01307 0.76076 0.07108
 H115 H 0.98579 0.70556 0.07059
 H116 H 0.95151 0.70754 0.10444
 H117 H 0.96892 0.76406 0.01315
 H118 H 0.98790 0.76087 -0.07141
 H119 H 0.95388 0.76057 -0.10583
 H120 H 0.93419 0.70270 -0.04952
 H121 H 0.96835 0.70276 -0.01535
 H122 H 1.03194 0.76408 -0.01350
 H123 H 1.06623 0.76598 -0.04709
 H124 H 1.04952 0.70765 -0.10502
 H125 H 1.01533 0.70562 -0.07108
 H126 H 0.93454 0.76581 0.04670
 C127 C 0.50027 0.23318 0.48060
 C128 C 0.49975 0.23312 0.51766
 C129 C 0.51989 0.23214 0.53956
 C130 C 0.47906 0.23448 0.53812
 C131 C 0.48016 0.23207 0.45869
 C132 C 0.52095 0.23481 0.46016
 C133 C 0.53516 0.21558 0.53407
 C134 C 0.55446 0.21540 0.55381
 C135 C 0.55854 0.23161 0.57946
 C136 C 0.54314 0.24781 0.58572
 C137 C 0.52387 0.24803 0.56598
 C138 C 0.47412 0.21880 0.56446
 C139 C 0.45457 0.21976 0.58351
 C140 C 0.43985 0.23650 0.57663
 C141 C 0.44485 0.25241 0.55087
 C142 C 0.46440 0.25148 0.53183
 C143 C 0.47597 0.24800 0.43239
 C144 C 0.45671 0.24766 0.41264
 C145 C 0.44152 0.23129 0.41874
 C146 C 0.44582 0.21504 0.44426
 C147 C 0.46510 0.21534 0.46401
 C148 C 0.53537 0.25194 0.46660
 C149 C 0.55492 0.25310 0.44762
 C150 C 0.56016 0.23731 0.42175
 C151 C 0.54566 0.22046 0.41469
 C152 C 0.52611 0.21926 0.43368
 H153 H 0.53223 0.20296 0.51428
 H154 H 0.56624 0.20275 0.54885
 H155 H 0.54613 0.26042 0.60554
 H156 H 0.51225 0.26087 0.57072
 H157 H 0.48527 0.20566 0.56987
 H158 H 0.45090 0.20741 0.60346
 H159 H 0.46810 0.26398 0.51216
 H160 H 0.48741 0.26096 0.42777
 H161 H 0.45355 0.26030 0.39293
 H162 H 0.43420 0.20226 0.44910
 H163 H 0.46821 0.20269 0.48369
 H164 H 0.53149 0.26434 0.48637
 H165 H 0.56597 0.26628 0.45316
 H166 H 0.54951 0.20819 0.39465
 H167 H 0.51513 0.20603 0.42815
 H168 H 0.43363 0.26550 0.54546
 C169 C 0.73308 0.00021 -0.01888
 C170 C 0.73316 0.00057 0.01818
 C171 C 0.73227 -0.01967 0.03995
 C172 C 0.73466 0.02120 0.03876
 C173 C 0.73203 0.02044 -0.04064
 C174 C 0.73457 -0.02042 -0.03948
 C175 C 0.71571 -0.03489 0.03464
 C176 C 0.71562 -0.05428 0.05425
 C177 C 0.73195 -0.05853 0.07964
 C178 C 0.74816 -0.04315 0.08571
 C179 C 0.74827 -0.02380 0.06608
 C180 C 0.71905 0.02622 0.06519
 C181 C 0.72010 0.04576 0.08426
 C182 C 0.73686 0.06038 0.07729
 C183 C 0.75272 0.05528 0.05147
 C184 C 0.75170 0.03574 0.03243
 C185 C 0.74790 0.02456 -0.06706
 C186 C 0.74764 0.04392 -0.08667
 C187 C 0.73142 0.05931 -0.08028
 C188 C 0.71522 0.05507 -0.05460
 C189 C 0.71545 0.03567 -0.03502
 C190 C 0.75172 -0.03493 -0.03347
 C191 C 0.75275 -0.05447 -0.05252
 C192 C 0.73678 -0.05961 -0.07804
 C193 C 0.71990 -0.04500 -0.08469
 C194 C 0.71886 -0.02546 -0.06561
 H195 H 0.70301 -0.03183 0.01508
 H196 H 0.70292 -0.06598 0.04937
 H197 H 0.76087 -0.04620 0.10531
 H198 H 0.76111 -0.01223 0.07069
 H199 H 0.70588 0.01515 0.07063
 H200 H 0.70778 0.04952 0.10426
 H201 H 0.76414 0.03197 0.01267
 H202 H 0.76075 0.01298 -0.07191
 H203 H 0.76026 0.04697 -0.10648
 H204 H 0.70252 0.06678 -0.04947
 H205 H 0.70286 0.03262 -0.01522
 H206 H 0.76424 -0.03113 -0.01396
 H207 H 0.76597 -0.06557 -0.04723
 H208 H 0.70747 -0.04873 -0.10444
 H209 H 0.70561 -0.01440 -0.07079
 H210 H 0.76583 0.06642 0.04601
 C211 C 0.23194 0.49906 0.48158
 C212 C 0.23188 0.49966 0.51864
 C213 C 0.23083 0.47955 0.54069
 C214 C 0.23337 0.52040 0.53893
 C215 C 0.23101 0.51918 0.45953
 C216 C 0.23342 0.47831 0.46129
 C217 C 0.21422 0.46437 0.53542
 C218 C 0.21403 0.44506 0.55521
 C219 C 0.23028 0.44085 0.58070
 C220 C 0.24651 0.45617 0.58678
 C221 C 0.24674 0.47546 0.56699
 C222 C 0.21772 0.52558 0.56523
 C223 C 0.21880 0.54518 0.58410
 C224 C 0.23563 0.55972 0.57709
 C225 C 0.25151 0.55448 0.55140
 C226 C 0.25047 0.53487 0.53255
 C227 C 0.24701 0.52317 0.43329
 C228 C 0.24689 0.54247 0.41351
 C229 C 0.23068 0.55789 0.41955
 C230 C 0.21434 0.55378 0.44498
 C231 C 0.21442 0.53446 0.46476
 C232 C 0.25046 0.46373 0.46773
 C233 C 0.25151 0.44412 0.44885
 C234 C 0.23570 0.43899 0.42307
 C235 C 0.21893 0.45364 0.41603
 C236 C 0.21784 0.47325 0.43493
 H237 H 0.20159 0.46740 0.51572
 H238 H 0.20135 0.43334 0.55039
 H239 H 0.25914 0.45308 0.60648
 H240 H 0.25962 0.48699 0.57156
 H241 H 0.20452 0.51456 0.57072
 H242 H 0.20646 0.54904 0.60400
 H243 H 0.26295 0.53098 0.51292
 H244 H 0.25987 0.51156 0.42875
 H245 H 0.25959 0.54549 0.39387
 H246 H 0.20168 0.56558 0.44977
 H247 H 0.20172 0.53151 0.48442
 H248 H 0.26288 0.46752 0.48741
 H249 H 0.26462 0.43296 0.45437
 H250 H 0.20665 0.44987 0.39607
 H251 H 0.20468 0.48435 0.42939
 H252 H 0.26468 0.56555 0.54592
 C253 C 0.26706 0.99982 -0.01958
 C254 C 0.26716 0.99949 0.01748
 C255 C 0.26814 1.01975 0.03918
 C256 C 0.26576 0.97889 0.03815
 C257 C 0.26795 0.97955 -0.04130
 C258 C 0.26551 1.02043 -0.04022
 C259 C 0.28467 1.03498 0.03352
 C260 C 0.28485 1.05438 0.05308
 C261 C 0.26865 1.05865 0.07877
 C262 C 0.25247 1.04328 0.08518
 C263 C 0.25227 1.02390 0.06560
 C264 C 0.28151 0.97388 0.06427
 C265 C 0.28054 0.95436 0.08342
 C266 C 0.26371 0.93976 0.07687
 C267 C 0.24772 0.94485 0.05138
 C268 C 0.24865 0.96437 0.03224
 C269 C 0.25194 0.97543 -0.06737
 C270 C 0.25206 0.95605 -0.08694
 C271 C 0.26829 0.94064 -0.08086
 C272 C 0.28464 0.94489 -0.05554
 C273 C 0.28454 0.96430 -0.03599
 C274 C 0.24842 1.03498 -0.03395
 C275 C 0.24735 1.05451 -0.05303
 C276 C 0.26321 1.05959 -0.07886
 C277 C 0.28003 1.04493 -0.08577
 C278 C 0.28112 1.02541 -0.06665
 H279 H 0.29728 1.03190 0.01372
 H280 H 0.29752 1.06608 0.04793
 H281 H 0.23985 1.04634 0.10500
 H282 H 0.23946 1.01234 0.07048
 H283 H 0.29472 0.98494 0.06939
 H284 H 0.29297 0.95061 0.10317
 H285 H 0.23611 0.96813 0.01274
 H286 H 0.23908 0.98702 -0.07198
 H287 H 0.23933 0.95300 -0.10648
 H288 H 0.29736 0.93316 -0.05065
 H289 H 0.29726 0.96735 -0.01647
 H290 H 0.23598 1.03123 -0.01420
 H291 H 0.23417 1.06563 -0.04754
 H292 H 0.29237 1.04860 -0.10575
 H293 H 0.29431 1.01431 -0.07204
 H294 H 0.23456 0.93372 0.04624
 C295 C 0.76782 0.50096 0.48220
 C296 C 0.76777 0.50033 0.51925
 C297 C 0.76874 0.52041 0.54136
 C298 C 0.76625 0.47956 0.53948
 C299 C 0.76889 0.48088 0.46007
 C300 C 0.76633 0.52174 0.46199
 C301 C 0.78537 0.53559 0.53619
 C302 C 0.78550 0.55488 0.55605
 C303 C 0.76918 0.55906 0.58151
 C304 C 0.75292 0.54374 0.58748
 C305 C 0.75275 0.52447 0.56762
 C306 C 0.78178 0.47441 0.56590
 C307 C 0.78065 0.45481 0.58477
 C308 C 0.76388 0.44024 0.57764
 C309 C 0.74811 0.44545 0.55181
 C310 C 0.74921 0.46506 0.53296
 C311 C 0.75301 0.47690 0.43370
 C312 C 0.75327 0.45765 0.41381
 C313 C 0.76950 0.44226 0.41986
 C314 C 0.78571 0.44636 0.44544
 C315 C 0.78549 0.46564 0.46533
 C316 C 0.74922 0.53625 0.46842
 C317 C 0.74815 0.55588 0.44960
 C318 C 0.76403 0.56110 0.42391
 C319 C 0.78088 0.54652 0.41688
 C320 C 0.78198 0.52690 0.43571
 H321 H 0.79806 0.53259 0.51652
 H322 H 0.79820 0.56660 0.55132
 H323 H 0.74023 0.54681 0.60715
 H324 H 0.73986 0.51293 0.57211
 H325 H 0.79494 0.48545 0.57150
 H326 H 0.79290 0.45097 0.60478
 H327 H 0.73681 0.46892 0.51324
 H328 H 0.74014 0.48849 0.42913
 H329 H 0.74066 0.45464 0.39405
 H330 H 0.79839 0.43459 0.45024
 H331 H 0.79810 0.46859 0.48508
 H332 H 0.73675 0.53238 0.48804
 H333 H 0.73498 0.56698 0.45511
 H334 H 0.79321 0.55037 0.39698
 H335 H 0.79520 0.51585 0.43019
 H336 H 0.73499 0.43435 0.54623
 O337 O 0.23894 0.26644 0.29555
 O338 O 0.24604 0.21385 0.24978
 O339 O 0.26882 0.23674 0.29497
 O340 O 0.21598 0.24336 0.25036
 O341 O 0.23185 0.25975 0.20407
 O342 O 0.28471 0.25314 0.24869
 O343 O 0.26192 0.23026 0.20350
 O344 O 0.25481 0.28282 0.24925
 Cu345 Cu 0.24081 0.23848 0.27734
 Cu346 Cu 0.25989 0.25818 0.22171
 C347 C 0.24581 0.28349 0.28022
 C348 C 0.25521 0.21318 0.21893
 C349 C 0.28568 0.24379 0.27934
 C350 C 0.21501 0.25253 0.21958
 O351 O 0.75463 0.78629 0.25065
 O352 O 0.76133 0.73372 0.29659
 O353 O 0.78442 0.75649 0.25108
 O354 O 0.73172 0.76368 0.29616
 O355 O 0.71561 0.74735 0.25012
 O356 O 0.76833 0.74017 0.20502
 O357 O 0.74523 0.71741 0.25053
 O358 O 0.73853 0.76995 0.20460
 Cu359 Cu 0.75968 0.76167 0.27826
 Cu360 Cu 0.74033 0.74204 0.22292
 C361 C 0.74541 0.78699 0.21989
 C362 C 0.75429 0.71671 0.28141
 C363 C 0.78526 0.74723 0.22035
 C364 C 0.71477 0.75675 0.28074
 O365 O 0.78544 0.24655 0.24983
 O366 O 0.73269 0.24005 0.29508
 O367 O 0.75567 0.21687 0.24988
 O368 O 0.76264 0.26957 0.29503
 O369 O 0.74660 0.28582 0.24877
 O370 O 0.73963 0.23310 0.20361
 O371 O 0.71666 0.25628 0.24882
 O372 O 0.76939 0.26279 0.20357
 Cu373 Cu 0.76070 0.24160 0.27713
 Cu374 Cu 0.74142 0.26111 0.22153
 C375 C 0.78631 0.25579 0.21908
 C376 C 0.71578 0.24717 0.27967
 C377 C 0.74659 0.21610 0.21903
 C378 C 0.75583 0.28659 0.27950
 O379 O 0.26155 0.76727 0.20410
 O380 O 0.25456 0.71458 0.24935
 O381 O 0.23185 0.73752 0.20408
 O382 O 0.28444 0.74416 0.24945
 O383 O 0.26824 0.76039 0.29564
 O384 O 0.21564 0.75376 0.25026
 O385 O 0.23835 0.73082 0.29554
 O386 O 0.24535 0.78350 0.25029
 Cu387 Cu 0.25977 0.73928 0.22208
 Cu388 Cu 0.24030 0.75879 0.27760
 C389 C 0.25450 0.78427 0.21945
 C390 C 0.24523 0.71380 0.28005
 C391 C 0.21487 0.74448 0.21954
 C392 C 0.28520 0.75327 0.28030
 O393 O 0.76734 0.26071 0.79599
 O394 O 0.71475 0.25404 0.75058
 O395 O 0.73747 0.23112 0.79591
 O396 O 0.74445 0.28381 0.75060
 O397 O 0.76067 0.26757 0.70444
 O398 O 0.75369 0.21487 0.74976
 O399 O 0.73097 0.23779 0.70442
 O400 O 0.78354 0.24446 0.74982
 Cu401 Cu 0.73940 0.25909 0.77793
 Cu402 Cu 0.75889 0.23957 0.72245
 C403 C 0.78430 0.25358 0.78067
 C404 C 0.71399 0.24476 0.71986
 C405 C 0.74438 0.21410 0.78047
 C406 C 0.75362 0.28457 0.71977
 O407 O 0.28421 0.74584 0.75013
 O408 O 0.23141 0.73937 0.79521
 O409 O 0.25440 0.71619 0.75000
 O410 O 0.26141 0.76884 0.79538
 O411 O 0.24544 0.78516 0.74913
 O412 O 0.23844 0.73249 0.70373
 O413 O 0.21546 0.75568 0.74894
 O414 O 0.26822 0.76215 0.70389
 Cu415 Cu 0.25943 0.74088 0.77735
 Cu416 Cu 0.24025 0.76049 0.72176
 C417 C 0.28512 0.75510 0.71940
 C418 C 0.21454 0.74655 0.77978
 C419 C 0.24537 0.71546 0.71910
 C420 C 0.25463 0.78589 0.77990
 O421 O 0.25353 0.28397 0.75074
 O422 O 0.26060 0.23116 0.79565
 O423 O 0.28354 0.25438 0.75052
 O424 O 0.23078 0.26090 0.79580
 O425 O 0.21478 0.24477 0.74944
 O426 O 0.26755 0.23826 0.70417
 O427 O 0.24461 0.21504 0.74929
 O428 O 0.23754 0.26783 0.70439
 Cu429 Cu 0.25877 0.25920 0.77785
 Cu430 Cu 0.23954 0.23982 0.72214
 C431 C 0.24431 0.28481 0.72002
 C432 C 0.25367 0.21420 0.78016
 C433 C 0.28443 0.24534 0.71961
 C434 C 0.21388 0.25395 0.78025
 O435 O 0.74595 0.71593 0.75177
 O436 O 0.73912 0.76875 0.79675
 O437 O 0.71613 0.74569 0.75161
 O438 O 0.76876 0.73882 0.79684
 O439 O 0.78494 0.75488 0.75051
 O440 O 0.73231 0.76174 0.70528
 O441 O 0.75530 0.78480 0.75042
 O442 O 0.76213 0.73199 0.70544
 Cu443 Cu 0.74082 0.74071 0.77892
 Cu444 Cu 0.76027 0.76001 0.72323
 C445 C 0.75524 0.71505 0.72105
 C446 C 0.74618 0.78568 0.78128
 C447 C 0.71535 0.75476 0.72071
 C448 C 0.78573 0.74566 0.78128
 C449 C 0.26828 0.07786 0.09692
 C450 C 0.26759 0.09490 0.11286
 C451 C 0.26634 0.11526 0.13173
 C452 C 0.27208 0.13446 0.11392
 C453 C 0.27019 0.15432 0.13189
 C454 C 0.26255 0.15507 0.16774
 C455 C 0.25695 0.13586 0.18562
 C456 C 0.25883 0.11600 0.16765
 C457 C 0.26012 0.17555 0.18593
 C458 C 0.25793 0.19273 0.20106
 H459 H 0.27783 0.13408 0.08611
 H460 H 0.27454 0.16908 0.11779
 H461 H 0.25099 0.13626 0.21332
 H462 H 0.25429 0.10126 0.18164
 C463 C 0.76871 0.57929 0.60082
 C464 C 0.76793 0.59632 0.61674
 C465 C 0.76659 0.61671 0.63547
 C466 C 0.77436 0.63557 0.61889
 C467 C 0.77239 0.65551 0.63659
 C468 C 0.76264 0.65665 0.67092
 C469 C 0.75500 0.63777 0.68761
 C470 C 0.75697 0.61783 0.66992
 C471 C 0.76015 0.67723 0.68874
 C472 C 0.75794 0.69449 0.70355
 H473 H 0.78176 0.63488 0.59222
 H474 H 0.77832 0.67002 0.62343
 H475 H 0.74741 0.63849 0.71414
 H476 H 0.75085 0.60335 0.68293
 C477 C 0.73239 0.92228 0.09783
 C478 C 0.73314 0.90526 0.11379
 C479 C 0.73445 0.88491 0.13268
 C480 C 0.74283 0.88409 0.16801
 C481 C 0.74473 0.86423 0.18597
 C482 C 0.73827 0.84510 0.16867
 C483 C 0.72977 0.84594 0.13343
 C484 C 0.72786 0.86580 0.11547
 C485 C 0.74067 0.82462 0.18685
 C486 C 0.74279 0.80745 0.20199
 H487 H 0.74802 0.89875 0.18153
 H488 H 0.75134 0.86376 0.21320
 H489 H 0.72475 0.83125 0.11979
 H490 H 0.72142 0.86625 0.08812
 C491 C 0.23071 0.42059 0.59993
 C492 C 0.23147 0.40354 0.61580
 C493 C 0.23281 0.38314 0.63448
 C494 C 0.24173 0.38211 0.66941
 C495 C 0.24371 0.36217 0.68709
 C496 C 0.23679 0.34319 0.66990
 C497 C 0.22773 0.34423 0.63507
 C498 C 0.22575 0.36417 0.61739
 C499 C 0.23930 0.32262 0.68772
 C500 C 0.24154 0.30536 0.70253
 H501 H 0.24730 0.39668 0.68283
 H502 H 0.25076 0.36154 0.71400
 H503 H 0.22236 0.32964 0.62151
 H504 H 0.21889 0.36478 0.59034
 C505 C 0.92204 0.26766 0.09842
 C506 C 0.90498 0.26709 0.11428
 C507 C 0.88457 0.26599 0.13298
 C508 C 0.86562 0.27280 0.11557
 C509 C 0.84569 0.27109 0.13333
 C510 C 0.84463 0.26255 0.16856
 C511 C 0.86360 0.25587 0.18606
 C512 C 0.88353 0.25758 0.16830
 C513 C 0.82407 0.26031 0.18649
 C514 C 0.80684 0.25830 0.20142
 H515 H 0.86623 0.27927 0.08823
 H516 H 0.83111 0.27628 0.11954
 H517 H 0.86296 0.24922 0.21328
 H518 H 0.89808 0.25220 0.18196
 C519 C 0.42089 0.76805 0.59929
 C520 C 0.40374 0.76707 0.61476
 C521 C 0.38318 0.76551 0.63287
 C522 C 0.36583 0.75532 0.61549
 C523 C 0.34592 0.75342 0.63320
 C524 C 0.34327 0.76170 0.66838
 C525 C 0.36060 0.77195 0.68573
 C526 C 0.38053 0.77385 0.66801
 C527 C 0.32282 0.75951 0.68664
 C528 C 0.30563 0.75755 0.70173
 H529 H 0.36772 0.74879 0.58835
 H530 H 0.33263 0.74545 0.61954
 H531 H 0.35873 0.77839 0.71294
 H532 H 0.39386 0.78173 0.68171
 C533 C 0.07951 0.73172 0.09881
 C534 C 0.09653 0.73241 0.11467
 C535 C 0.11688 0.73365 0.13338
 C536 C 0.13592 0.72696 0.11599
 C537 C 0.15579 0.72882 0.13376
 C538 C 0.15671 0.73738 0.16898
 C539 C 0.13766 0.74393 0.18646
 C540 C 0.11779 0.74207 0.16869
 C541 C 0.17721 0.73976 0.18694
 C542 C 0.19440 0.74187 0.20187
 H543 H 0.13541 0.72048 0.08865
 H544 H 0.17043 0.72373 0.11998
 H545 H 0.13819 0.75060 0.21368
 H546 H 0.10317 0.74735 0.18235
 C547 C 0.57875 0.23201 0.59874
 C548 C 0.59574 0.23272 0.61468
 C549 C 0.61607 0.23397 0.63346
 C550 C 0.61695 0.24251 0.66870
 C551 C 0.63681 0.24436 0.68652
 C552 C 0.65586 0.23769 0.66918
 C553 C 0.65496 0.22901 0.63403
 C554 C 0.63511 0.22716 0.61620
 C555 C 0.67635 0.24005 0.68719
 C556 C 0.69353 0.24215 0.70217
 H557 H 0.60233 0.24788 0.68224
 H558 H 0.63733 0.25111 0.71368
 H559 H 0.66961 0.22383 0.62035
 H560 H 0.63461 0.22060 0.58892
 C561 C 0.73175 0.07853 0.90160
 C562 C 0.73239 0.09558 0.88572
 C563 C 0.73358 0.11598 0.86696
 C564 C 0.72753 0.13511 0.88474
 C565 C 0.72934 0.15501 0.86689
 C566 C 0.73722 0.15586 0.83121
 C567 C 0.74314 0.13672 0.81334
 C568 C 0.74133 0.11681 0.83119
 C569 C 0.73959 0.17639 0.81317
 C570 C 0.74172 0.19360 0.79818
 H571 H 0.72159 0.13465 0.91244
 H572 H 0.72475 0.16972 0.88098
 H573 H 0.74928 0.13719 0.78577
 H574 H 0.74611 0.10212 0.81723
 C575 C 0.23122 0.57815 0.40033
 C576 C 0.23207 0.59519 0.38447
 C577 C 0.23351 0.61559 0.36578
 C578 C 0.24274 0.61659 0.33104
 C579 C 0.24480 0.63651 0.31335
 C580 C 0.23764 0.65551 0.33035
 C581 C 0.22827 0.65449 0.36499
 C582 C 0.22621 0.63457 0.38268
 C583 C 0.24020 0.67606 0.31250
 C584 C 0.24246 0.69329 0.29764
 H585 H 0.24850 0.60202 0.31778
 H586 H 0.25209 0.63713 0.28658
 H587 H 0.22270 0.66909 0.37840
 H588 H 0.21911 0.63398 0.40959
 C589 C 0.26785 0.92142 0.90104
 C590 C 0.26710 0.90436 0.88517
 C591 C 0.26580 0.88397 0.86641
 C592 C 0.25763 0.88313 0.83095
 C593 C 0.25572 0.86324 0.81311
 C594 C 0.26195 0.84410 0.83067
 C595 C 0.27025 0.84496 0.86604
 C596 C 0.27216 0.86485 0.88388
 C597 C 0.25951 0.82358 0.81262
 C598 C 0.25733 0.80638 0.79762
 H599 H 0.25260 0.89781 0.81722
 H600 H 0.24925 0.86276 0.78578
 H601 H 0.27508 0.83026 0.87990
 H602 H 0.27843 0.86531 0.91134
 C603 C 0.76910 0.42204 0.40052
 C604 C 0.76838 0.40504 0.38453
 C605 C 0.76708 0.38469 0.36568
 C606 C 0.75759 0.38368 0.33119
 C607 C 0.75567 0.36380 0.31336
 C608 C 0.76321 0.34484 0.32998
 C609 C 0.77284 0.34587 0.36437
 C610 C 0.77477 0.36576 0.38220
 C611 C 0.76075 0.32431 0.31203
 C612 C 0.75855 0.30710 0.29711
 H613 H 0.75153 0.39822 0.31824
 H614 H 0.74817 0.36317 0.28680
 H615 H 0.77871 0.33130 0.37748
 H616 H 0.78207 0.36635 0.40892
 C617 C 0.07834 0.26653 0.90145
 C618 C 0.09532 0.26565 0.88542
 C619 C 0.11561 0.26413 0.86645
 C620 C 0.13129 0.28027 0.87069
 C621 C 0.15119 0.27846 0.85284
 C622 C 0.15549 0.26050 0.83070
 C623 C 0.13978 0.24441 0.82635
 C624 C 0.11989 0.24623 0.84418
 C625 C 0.17609 0.25839 0.81282
 C626 C 0.19335 0.25643 0.79791
 H627 H 0.12817 0.29415 0.88792
 H628 H 0.16325 0.29097 0.85645
 H629 H 0.14295 0.23044 0.80935
 H630 H 0.10790 0.23363 0.84079
 C631 C 0.57915 0.76971 0.40131
 C632 C 0.59619 0.76909 0.38545
 C633 C 0.61659 0.76791 0.36673
 C634 C 0.63559 0.77437 0.38428
 C635 C 0.65551 0.77250 0.36653
 C636 C 0.65650 0.76416 0.33116
 C637 C 0.63748 0.75785 0.31351
 C638 C 0.61756 0.75971 0.33126
 C639 C 0.67704 0.76171 0.31325
 C640 C 0.69427 0.75950 0.29835
 H641 H 0.63502 0.78066 0.41175
 H642 H 0.67012 0.77741 0.38044
 H643 H 0.63807 0.75135 0.28618
 H644 H 0.60297 0.75460 0.31749
 C645 C 0.92138 0.73217 0.90107
 C646 C 0.90432 0.73297 0.88535
 C647 C 0.88390 0.73434 0.86682
 C648 C 0.86486 0.72817 0.88464
 C649 C 0.84493 0.73014 0.86703
 C650 C 0.84398 0.73831 0.83155
 C651 C 0.86304 0.74435 0.81365
 C652 C 0.88296 0.74238 0.83126
 C653 C 0.82344 0.74077 0.81372
 C654 C 0.80622 0.74296 0.79888
 H655 H 0.86540 0.72199 0.91218
 H656 H 0.83029 0.72545 0.88114
 H657 H 0.86248 0.75071 0.78623
 H658 H 0.89758 0.74726 0.81728
 C659 C 0.42131 0.23156 0.39947
 C660 C 0.40431 0.23217 0.38356
 C661 C 0.38395 0.23331 0.36482
 C662 C 0.36515 0.22551 0.38151
 C663 C 0.34524 0.22728 0.36381
 C664 C 0.34405 0.23686 0.32936
 C665 C 0.36288 0.24452 0.31256
 C666 C 0.38280 0.24275 0.33026
 C667 C 0.32349 0.23917 0.31154
 C668 C 0.30624 0.24123 0.29676
 H669 H 0.36585 0.21824 0.40827
 H670 H 0.33077 0.22134 0.37706
 H671 H 0.36215 0.25198 0.28595
 H672 H 0.39723 0.24889 0.31716
 C673 C 0.73759 0.92117 0.90388
 C674 C 0.73831 0.90409 0.88808
 C675 C 0.73922 0.88363 0.86948
 C676 C 0.73295 0.88214 0.83300
 C677 C 0.73398 0.86224 0.81493
 C678 C 0.74128 0.84376 0.83329
 C679 C 0.74749 0.84525 0.86980
 C680 C 0.74646 0.86514 0.88785
 C681 C 0.74268 0.82333 0.81466
 C682 C 0.74411 0.80616 0.79928
 H683 H 0.72732 0.89635 0.81854
 H684 H 0.72916 0.86128 0.78668
 H685 H 0.75320 0.83107 0.88424
 H686 H 0.75135 0.86611 0.91607
 C687 C 0.23663 0.41867 0.40400
 C688 C 0.23742 0.40160 0.38817
 C689 C 0.23840 0.38116 0.36944
 C690 C 0.23173 0.37965 0.33315
 C691 C 0.23284 0.35980 0.31493
 C692 C 0.24063 0.34138 0.33292
 C693 C 0.24724 0.34290 0.36923
 C694 C 0.24613 0.36274 0.38744
 C695 C 0.24212 0.32101 0.31409
 C696 C 0.24364 0.30390 0.29851
 H697 H 0.22573 0.39379 0.31896
 H698 H 0.22772 0.35882 0.28684
 H699 H 0.25332 0.32877 0.38339
 H700 H 0.25133 0.36372 0.41549
 C701 C 0.26236 0.07879 0.90301
 C702 C 0.26162 0.09585 0.88716
 C703 C 0.26067 0.11630 0.86852
 C704 C 0.26838 0.11810 0.83282
 C705 C 0.26734 0.13799 0.81472
 C706 C 0.25861 0.15615 0.83226
 C707 C 0.25095 0.15434 0.86798
 C708 C 0.25198 0.13447 0.88607
 C709 C 0.25722 0.17656 0.81357
 C710 C 0.25578 0.19372 0.79817
 H711 H 0.27513 0.10416 0.81900
 H712 H 0.27328 0.13920 0.78708
 H713 H 0.24413 0.16827 0.88178
 H714 H 0.24597 0.13325 0.91366
 C715 C 0.76308 0.58144 0.40491
 C716 C 0.76228 0.59853 0.38914
 C717 C 0.76129 0.61898 0.37048
 C718 C 0.77039 0.62118 0.33578
 C719 C 0.76931 0.64105 0.31763
 C720 C 0.75914 0.65881 0.33411
 C721 C 0.75008 0.65661 0.36883
 C722 C 0.75116 0.63675 0.38698
 C723 C 0.75774 0.67920 0.31532
 C724 C 0.75633 0.69631 0.29974
 H725 H 0.77826 0.60755 0.32277
 H726 H 0.77634 0.64256 0.29076
 H727 H 0.74215 0.67022 0.38182
 H728 H 0.74407 0.63524 0.41380
 C729 C 0.07942 0.73785 0.90332
 C730 C 0.09638 0.73873 0.88718
 C731 C 0.11667 0.73988 0.86813
 C732 C 0.12787 0.75953 0.86626
 C733 C 0.14768 0.76065 0.84803
 C734 C 0.15639 0.74212 0.83160
 C735 C 0.14518 0.72247 0.83341
 C736 C 0.12535 0.72135 0.85165
 C737 C 0.17687 0.74333 0.81309
 C738 C 0.19405 0.74462 0.79778
 H739 H 0.12131 0.77395 0.87893
 H740 H 0.15622 0.77593 0.84681
 H741 H 0.15177 0.70804 0.82082
 H742 H 0.11683 0.70607 0.85296
 C743 C 0.58045 0.23831 0.40264
 C744 C 0.59750 0.23911 0.38678
 C745 C 0.61791 0.24006 0.36803
 C746 C 0.63726 0.23892 0.38768
 C747 C 0.65711 0.24000 0.36954
 C748 C 0.65771 0.24221 0.33165
 C749 C 0.63836 0.24330 0.31199
 C750 C 0.61850 0.24222 0.33014
 C751 C 0.67815 0.24369 0.31308
 C752 C 0.69531 0.24514 0.29771
 H753 H 0.63700 0.23726 0.41699
 H754 H 0.67197 0.23918 0.38503
 H755 H 0.63863 0.24506 0.28270
 H756 H 0.60364 0.24312 0.31467
 C757 C 0.91921 0.26163 0.90431
 C758 C 0.90219 0.26093 0.88842
 C759 C 0.88182 0.26003 0.86968
 C760 C 0.86436 0.24896 0.88523
 C761 C 0.84456 0.24800 0.86703
 C762 C 0.84212 0.25811 0.83321
 C763 C 0.85956 0.26922 0.81767
 C764 C 0.87937 0.27019 0.83588
 C765 C 0.82178 0.25686 0.81440
 C766 C 0.80469 0.25554 0.79886
 H767 H 0.86607 0.24105 0.91135
 H768 H 0.83119 0.23933 0.87927
 H769 H 0.85785 0.27708 0.79150
 H770 H 0.89276 0.27879 0.82361
 C771 C 0.42007 0.76247 0.40387
 C772 C 0.40308 0.76153 0.38794
 C773 C 0.38274 0.76035 0.36914
 C774 C 0.36691 0.74569 0.38072
 C775 C 0.34712 0.74452 0.36252
 C776 C 0.34306 0.75799 0.33267
 C777 C 0.35889 0.77266 0.32109
 C778 C 0.37869 0.77384 0.33930
 C779 C 0.32271 0.75665 0.31393
 C780 C 0.30561 0.75527 0.29845
 H781 H 0.36987 0.73519 0.40377
 H782 H 0.33501 0.73311 0.37170
 H783 H 0.35592 0.78315 0.29803
 H784 H 0.39081 0.78524 0.33013
 C785 C 0.26295 0.91949 0.09607
 C786 C 0.26230 0.90244 0.11195
 C787 C 0.26148 0.88201 0.13067
 C788 C 0.26546 0.88102 0.16811
 C789 C 0.26446 0.86116 0.18630
 C790 C 0.25950 0.84223 0.16711
 C791 C 0.25560 0.84322 0.12966
 C792 C 0.25659 0.86307 0.11147
 C793 C 0.25807 0.82184 0.18585
 C794 C 0.25661 0.80470 0.20133
 H795 H 0.26925 0.89557 0.18322
 H796 H 0.26747 0.86058 0.21528
 H797 H 0.25171 0.82869 0.11457
 H798 H 0.25349 0.86365 0.08252
 C799 C 0.76291 0.41991 0.59666
 C800 C 0.76209 0.40282 0.61244
 C801 C 0.76106 0.38237 0.63109
 C802 C 0.76801 0.38069 0.66721
 C803 C 0.76687 0.36082 0.68535
 C804 C 0.75877 0.34255 0.66743
 C805 C 0.75187 0.34422 0.63129
 C806 C 0.75302 0.36408 0.61316
 C807 C 0.75727 0.32215 0.68617
 C808 C 0.75576 0.30501 0.70164
 H809 H 0.77426 0.39473 0.68134
 H810 H 0.77221 0.35972 0.71331
 H811 H 0.74556 0.33020 0.61719
 H812 H 0.74760 0.36519 0.58524
 C813 C 0.73771 0.08067 0.09641
 C814 C 0.73843 0.09775 0.11220
 C815 C 0.73935 0.11821 0.13081
 C816 C 0.74459 0.13705 0.11157
 C817 C 0.74565 0.15693 0.12963
 C818 C 0.74146 0.15807 0.16701
 C819 C 0.73615 0.13924 0.18624
 C820 C 0.73509 0.11934 0.16818
 C821 C 0.74294 0.17849 0.18561
 C822 C 0.74444 0.19565 0.20099
 H823 H 0.74792 0.13636 0.08268
 H824 H 0.74981 0.17139 0.11451
 H825 H 0.73292 0.13992 0.21517
 H826 H 0.73102 0.10487 0.18332
 C827 C 0.23653 0.58007 0.59610
 C828 C 0.23729 0.59716 0.61185
 C829 C 0.23824 0.61763 0.63047
 C830 C 0.24606 0.63598 0.61241
 C831 C 0.24713 0.65585 0.63051
 C832 C 0.24036 0.65748 0.66676
 C833 C 0.23247 0.63914 0.68481
 C834 C 0.23141 0.61926 0.66670
 C835 C 0.24179 0.67789 0.68547
 C836 C 0.24326 0.69502 0.70095
 H837 H 0.25139 0.63491 0.58440
 H838 H 0.25328 0.66991 0.61630
 H839 H 0.22722 0.64021 0.71286
 H840 H 0.22533 0.60517 0.68094
 C841 C 0.92041 0.73766 0.09706
 C842 C 0.90340 0.73842 0.11306
 C843 C 0.88304 0.73937 0.13194
 C844 C 0.86369 0.73664 0.11274
 C845 C 0.84387 0.73780 0.13096
 C846 C 0.84330 0.74169 0.16846
 C847 C 0.86265 0.74434 0.18769
 C848 C 0.88248 0.74317 0.16946
 C849 C 0.82288 0.74334 0.18702
 C850 C 0.80572 0.74497 0.20236
 H851 H 0.86394 0.73370 0.08371
 H852 H 0.82901 0.73578 0.11581
 H853 H 0.86239 0.74740 0.21668
 H854 H 0.89734 0.74532 0.18457
 C855 C 0.41959 0.23729 0.59586
 C856 C 0.40257 0.23792 0.61184
 C857 C 0.38221 0.23869 0.63078
 C858 C 0.36292 0.23502 0.61190
 C859 C 0.34310 0.23596 0.63019
 C860 C 0.34249 0.24058 0.66746
 C861 C 0.36179 0.24419 0.68637
 C862 C 0.38161 0.24324 0.66807
 C863 C 0.32206 0.24197 0.68611
 C864 C 0.30490 0.24336 0.70153
 H865 H 0.36319 0.23150 0.58306
 H866 H 0.32828 0.23319 0.61528
 H867 H 0.36151 0.24782 0.71517
 H868 H 0.39643 0.24612 0.68294
 C869 C 0.07955 0.26094 0.09761
 C870 C 0.09660 0.26011 0.11338
 C871 C 0.11702 0.25905 0.13196
 C872 C 0.13314 0.24485 0.11970
 C873 C 0.15302 0.24382 0.13765
 C874 C 0.15688 0.25699 0.16794
 C875 C 0.14078 0.27120 0.18021
 C876 C 0.12088 0.27223 0.16225
 C877 C 0.17733 0.25577 0.18643
 C878 C 0.19451 0.25447 0.20170
 H879 H 0.13033 0.23459 0.09631
 H880 H 0.16535 0.23276 0.12795
 H881 H 0.14359 0.28144 0.20362
 H882 H 0.10854 0.28328 0.17195
 C883 C 0.58036 0.76368 0.59742
 C884 C 0.59737 0.76299 0.61331
 C885 C 0.61775 0.76210 0.63207
 C886 C 0.61844 0.76391 0.67001
 C887 C 0.63825 0.76282 0.68821
 C888 C 0.65745 0.75994 0.66853
 C889 C 0.65676 0.75822 0.63059
 C890 C 0.63696 0.75930 0.61240
 C891 C 0.67781 0.75841 0.68722
 C892 C 0.69493 0.75689 0.70265
 H893 H 0.60368 0.76607 0.68549
 H894 H 0.63859 0.76414 0.71756
 H895 H 0.67150 0.75595 0.61511
 H896 H 0.63661 0.75788 0.58306
   
