data_POSCAR
  _audit_creation_date              2014-09-24
  _audit_creation_method            'ToBaCCo'
  _symmetry_space_group_name_H-M    'P1'
  _symmetry_Int_Tables_number       1
  _symmetry_cell_setting            triclinic
  loop_
  _symmetry_equiv_pos_as_xyz
 x,y,z
_cell_length_a 25.4659
_cell_length_b 25.1797
_cell_length_c 25.6139
_cell_angle_alpha 90.110400
_cell_angle_beta 90.647700
_cell_angle_gamma 90.733200
loop_
  _atom_site_label
  _atom_site_type_symbol
  _atom_site_fract_x
  _atom_site_fract_y
  _atom_site_fract_z
N1 N 0.19153 1.30141 0.16254
 N2 N 0.14943 1.29532 0.19133
 C3 C 0.11269 1.32983 0.17537
 C4 C 0.13309 1.35920 0.13474
 C5 C 0.18328 1.34047 0.12764
 H6 H 0.07322 1.33177 0.19036
 H7 H 0.21061 1.35215 0.09761
 Cu8 Cu 0.14467 1.23955 0.24350
 Cu9 Cu 0.25158 1.25452 0.16943
 Cu10 Cu 0.22326 1.13526 0.23153
 N11 N 0.14326 1.18205 0.29412
 N12 N 0.17387 1.14076 0.28869
 C13 C 0.16074 1.10363 0.32408
 C14 C 0.11989 1.12284 0.35327
 C15 C 0.10968 1.17270 0.33342
 H16 H 0.17767 1.06452 0.32652
 H17 H 0.07811 1.19858 0.34448
 N18 N 0.28443 1.14566 0.18623
 N19 N 0.29605 1.19134 0.16361
 C20 C 0.33802 1.18471 0.13279
 C21 C 0.35333 1.13245 0.13649
 C22 C 0.31885 1.10890 0.17077
 H23 H 0.35416 1.21475 0.10723
 H24 H 0.31751 1.06741 0.18157
 H25 H 0.19885 1.19456 0.17969
 H26 H 0.23679 1.21385 0.23968
 N27 N 0.82389 0.71553 0.14318
 N28 N 0.84604 0.70097 0.18743
 C29 C 0.87775 0.65961 0.17844
 C30 C 0.87532 0.64810 0.12571
 C31 C 0.84107 0.68435 0.10444
 H32 H 0.90275 0.64123 0.20745
 H33 H 0.83076 0.68877 0.06361
 Cu34 Cu 0.83639 0.74182 0.25086
 Cu35 Cu 0.77770 0.77633 0.13834
 Cu36 Cu 0.74039 0.83136 0.25593
 N37 N 0.83647 0.79722 0.30390
 N38 N 0.79872 0.83230 0.30604
 C39 C 0.81071 0.86849 0.34321
 C40 C 0.85839 0.85511 0.36549
 C41 C 0.87382 0.80986 0.33954
 H42 H 0.78806 0.90359 0.35121
 H43 H 0.91083 0.78961 0.34392
 N44 N 0.70203 0.84378 0.19022
 N45 N 0.71775 0.82459 0.14507
 C46 C 0.68645 0.84318 0.10679
 C47 C 0.64949 0.87546 0.12898
 C48 C 0.66026 0.87507 0.18191
 H49 H 0.69067 0.83468 0.06566
 H50 H 0.64069 0.89759 0.21179
 H51 H 0.79872 0.81766 0.20561
 H52 H 0.75086 0.76129 0.21128
 N53 N 0.81209 1.30162 -0.16107
 N54 N 0.85285 1.29517 -0.19142
 C55 C 0.89182 1.32834 -0.17575
 C56 C 0.87425 1.35722 -0.13374
 C57 C 0.82345 1.33965 -0.12553
 H58 H 0.93073 1.32997 -0.19221
 H59 H 0.79767 1.35157 -0.09447
 Cu60 Cu 0.85261 1.24118 -0.24579
 Cu61 Cu 0.74951 1.25653 -0.16709
 Cu62 Cu 0.76968 1.13843 -0.23358
 N63 N 0.84872 1.18539 -0.29842
 N64 N 0.81634 1.14471 -0.29296
 C65 C 0.82649 1.10807 -0.32963
 C66 C 0.86720 1.12695 -0.35978
 C67 C 0.88051 1.17609 -0.33903
 H68 H 0.80817 1.06911 -0.33191
 H69 H 0.91342 1.20106 -0.35000
 N70 N 0.71127 1.14875 -0.18515
 N71 N 0.70260 1.19410 -0.16094
 C72 C 0.66205 1.18736 -0.12813
 C73 C 0.64465 1.13536 -0.13218
 C74 C 0.67636 1.11210 -0.16872
 H75 H 0.64854 1.21700 -0.10096
 H76 H 0.67564 1.07080 -0.18040
 H77 H 0.79896 1.19576 -0.18111
 H78 H 0.75957 1.21733 -0.23899
 N79 N 0.20010 0.69905 -0.16245
 N80 N 0.16021 0.70163 -0.19537
 C81 C 0.12231 0.66746 -0.18021
 C82 C 0.13970 0.64195 -0.13574
 C83 C 0.18925 0.66262 -0.12557
 H84 H 0.08428 0.66282 -0.19902
 H85 H 0.21432 0.65400 -0.09236
 Cu86 Cu 0.16043 0.75112 -0.25354
 Cu87 Cu 0.26023 0.74744 -0.16724
 Cu88 Cu 0.22983 0.86330 -0.23326
 N89 N 0.15375 0.81149 -0.30007
 N90 N 0.18115 0.85540 -0.29192
 C91 C 0.16567 0.89254 -0.32627
 C92 C 0.12647 0.87063 -0.35745
 C93 C 0.11980 0.81911 -0.33998
 H94 H 0.17981 0.93323 -0.32673
 H95 H 0.09054 0.79046 -0.35318
 N96 N 0.28936 0.85792 -0.18385
 N97 N 0.30190 0.81340 -0.15984
 C98 C 0.34250 0.82312 -0.12688
 C99 C 0.35590 0.87625 -0.13053
 C100 C 0.32181 0.89709 -0.16705
 H101 H 0.35905 0.79442 -0.10022
 H102 H 0.31956 0.93823 -0.17881
 H103 H 0.20531 0.80169 -0.18497
 H104 H 0.25002 0.78602 -0.23990
 Si105 Si 0.50070 1.00843 0.00409
 Si106 Si 0.00790 0.50145 1.00020
 Si107 Si 0.99238 -0.00572 0.49875
 C108 C 0.09704 0.47637 1.07603
 C109 C 0.07558 0.44374 1.12258
 C110 C 0.10514 0.39505 1.10261
 C111 C 0.12721 0.42716 1.05661
 C112 C 0.05725 0.37736 1.06961
 C113 C 0.02735 0.42646 1.08910
 C114 C 0.04908 0.45868 1.04299
 C115 C 0.07884 0.40992 1.02327
 H116 H 0.11300 0.51755 1.07821
 H117 H 0.07448 0.45742 1.16377
 H118 H 0.16852 0.42746 1.04325
 H119 H 0.04099 0.33631 1.06708
 H120 H -0.01394 0.42635 1.10247
 H121 H 0.07996 0.39614 0.98213
 C122 C -0.06709 0.59030 1.01787
 C123 C -0.11319 0.57271 1.05288
 C124 C -0.09199 0.60980 1.09616
 C125 C -0.04630 0.62778 1.06144
 C126 C -0.05870 0.56490 1.11928
 C127 C -0.07942 0.52734 1.07549
 C128 C -0.03367 0.54532 1.04071
 C129 C -0.01263 0.58245 1.08411
 H130 H -0.07027 0.60076 0.97590
 H131 H -0.15491 0.56896 1.04025
 H132 H -0.03284 0.66947 1.05586
 H133 H -0.05546 0.55461 1.16130
 H134 H -0.09290 0.48564 1.08079
 H135 H 0.02902 0.58601 1.09699
 C136 C -0.08278 0.47582 0.92607
 C137 C -0.06310 0.44297 0.87921
 C138 C -0.09389 0.39452 0.89954
 C139 C -0.11409 0.42691 0.94595
 C140 C -0.04602 0.37665 0.93177
 C141 C -0.01488 0.42551 0.91188
 C142 C -0.03486 0.45799 0.95837
 C143 C -0.06580 0.40948 0.97851
 H144 H -0.09776 0.51695 0.92394
 H145 H -0.06225 0.45650 0.83801
 H146 H -0.15519 0.42744 0.95989
 H147 H -0.03108 0.33548 0.93391
 H148 H 0.02625 0.42525 0.89800
 H149 H -0.06677 0.39581 1.01965
 C150 C 0.08056 0.59342 0.97684
 C151 C 0.12907 0.57531 0.94603
 C152 C 0.10839 0.60539 0.89798
 C153 C 0.06030 0.62389 0.92846
 C154 C 0.07829 0.55564 0.87882
 C155 C 0.09843 0.52512 0.92734
 C156 C 0.05030 0.54363 0.95788
 C157 C 0.02984 0.57378 0.90975
 H158 H 0.08152 0.60894 1.01740
 H159 H 0.17020 0.57600 0.96086
 H160 H 0.04476 0.66488 0.92870
 H161 H 0.07761 0.54036 0.83814
 H162 H 0.11384 0.48408 0.92730
 H163 H -0.01129 0.57290 0.89495
 C164 C 1.07934 0.01511 0.42267
 C165 C 1.05749 0.04398 0.37401
 C166 C 1.08962 0.09370 0.38966
 C167 C 1.11195 0.06520 0.43787
 C168 C 1.04354 0.11492 0.42151
 C169 C 1.01110 0.06475 0.40633
 C170 C 1.03316 0.03604 0.45462
 C171 C 1.06536 0.08582 0.47023
 H172 H 1.09393 -0.02623 0.42352
 H173 H 1.05438 0.02690 0.33409
 H174 H 1.15377 0.06565 0.45060
 H175 H 1.02877 0.15620 0.42111
 H176 H 0.96931 0.06431 0.39354
 H177 H 1.06821 0.10269 0.51024
 C178 C 1.06801 -0.09459 0.52581
 C179 C 1.11517 -0.07207 0.55803
 C180 C 1.09471 -0.10171 0.60624
 C181 C 1.04813 -0.12483 0.57454
 C182 C 1.06217 -0.05347 0.62224
 C183 C 1.08214 -0.02349 0.57361
 C184 C 1.03543 -0.04629 0.54183
 C185 C 1.01527 -0.07615 0.59012
 H186 H 1.06997 -0.11114 0.48569
 H187 H 1.15661 -0.07065 0.54508
 H188 H 1.03408 -0.16674 0.57488
 H189 H 1.05985 -0.03664 0.66223
 H190 H 1.09615 0.01841 0.57281
 H191 H 0.97392 -0.07772 0.60328
 C192 C 0.90082 -0.03204 0.42737
 C193 C 0.92004 -0.06351 0.37950
 C194 C 0.88983 -0.11265 0.39905
 C195 C 0.87006 -0.08162 0.44651
 C196 C 0.93824 -0.13120 0.43009
 C197 C 0.96879 -0.08158 0.41096
 C198 C 0.94932 -0.05034 0.45848
 C199 C 0.91901 -0.09954 0.47799
 H200 H 0.88567 0.00909 0.42663
 H201 H 0.92029 -0.04886 0.33865
 H202 H 0.82911 -0.08192 0.46092
 H203 H 0.95355 -0.17226 0.43122
 H204 H 1.00969 -0.08140 0.39645
 H205 H 0.91896 -0.11403 0.51888
 C206 C 0.90627 0.01706 0.57458
 C207 C 0.92892 0.04901 0.62142
 C208 C 0.89640 0.09699 0.60413
 C209 C 0.87324 0.06542 0.55771
 C210 C 0.94181 0.11779 0.57047
 C211 C 0.97462 0.06936 0.58736
 C212 C 0.95180 0.03755 0.54085
 C213 C 0.91921 0.08558 0.52353
 H214 H 0.89173 -0.02465 0.57589
 H215 H 0.93284 0.03407 0.66201
 H216 H 0.83121 0.06409 0.54577
 H217 H 0.95641 0.15946 0.56872
 H218 H 1.01654 0.07101 0.59958
 H219 H 0.91564 0.10021 0.48281
 C220 C 0.42271 1.02576 0.08872
 C221 C 0.43881 1.07189 0.12571
 C222 C 0.39272 1.10432 0.10413
 C223 C 0.37629 1.05848 0.06751
 C224 C 0.42785 1.12855 0.06169
 C225 C 0.47448 1.09553 0.08273
 C226 C 0.45792 1.04962 0.04612
 C227 C 0.41178 1.08227 0.02478
 H228 H 0.42077 0.98333 0.10019
 H229 H 0.44964 1.06787 0.16760
 H230 H 0.33558 1.04329 0.06134
 H231 H 0.42981 1.17114 0.05071
 H232 H 0.51534 1.11041 0.08857
 H233 H 0.40066 1.08664 -0.01697
 C234 C 0.58996 1.08431 -0.01836
 C235 C 0.62352 1.06119 -0.06262
 C236 C 0.60626 1.10692 -0.09827
 C237 C 0.57308 1.13052 -0.05434
 C238 C 0.55902 1.07394 -0.11836
 C239 C 0.57599 1.02792 -0.08235
 C240 C 0.54269 1.05109 -0.03825
 C241 C 0.52531 1.09691 -0.07390
 H242 H 0.60266 1.08877 0.02299
 H243 H 0.66425 1.04655 -0.05810
 H244 H 0.57206 1.17306 -0.04302
 H245 H 0.54654 1.06989 -0.15985
 H246 H 0.57710 0.98560 -0.09432
 H247 H 0.48451 1.11137 -0.07812
 C248 C 0.42243 0.98707 -0.08189
 C249 C 0.43955 0.94118 -0.11784
 C250 C 0.39392 0.90702 -0.09717
 C251 C 0.37642 0.95258 -0.06163
 C252 C 0.42915 0.88490 -0.05343
 C253 C 0.47528 0.91963 -0.07359
 C254 C 0.45775 0.96528 -0.03800
 C255 C 0.41206 0.93091 -0.01755
 H256 H 0.41990 1.02931 -0.09381
 H257 H 0.45061 0.94516 -0.15945
 H258 H 0.33541 0.96601 -0.05686
 H259 H 0.43182 0.84257 -0.04183
 H260 H 0.51622 0.90605 -0.07827
 H261 H 0.40073 0.92650 0.02391
 C262 C 0.58306 0.98825 0.08677
 C263 C 0.56692 0.94250 0.12378
 C264 C 0.61017 0.90810 0.10024
 C265 C 0.62672 0.95348 0.06370
 C266 C 0.57163 0.88605 0.05875
 C267 C 0.52788 0.92097 0.08170
 C268 C 0.54449 0.96640 0.04508
 C269 C 0.58785 0.93180 0.02192
 H270 H 0.58737 1.03052 0.09853
 H271 H 0.55849 0.94670 0.16599
 H272 H 0.66772 0.96675 0.05643
 H273 H 0.56721 0.84364 0.04742
 H274 H 0.48684 0.90771 0.08870
 H275 H 0.59668 0.92715 -0.02012
   
