data_POSCAR
  _audit_creation_date              2014-09-24
  _audit_creation_method            'ToBaCCo'
  _symmetry_space_group_name_H-M    'P1'
  _symmetry_Int_Tables_number       1
  _symmetry_cell_setting            triclinic
  loop_
  _symmetry_equiv_pos_as_xyz
 x,y,z
_cell_length_a 32.9513
_cell_length_b 33.8001
_cell_length_c 34.3790
_cell_angle_alpha 90.354800
_cell_angle_beta 90.066600
_cell_angle_gamma 90.015400
loop_
  _atom_site_label
  _atom_site_type_symbol
  _atom_site_fract_x
  _atom_site_fract_y
  _atom_site_fract_z
C1 C 0.26373 1.11506 -0.04323
 C2 C 0.26981 1.10342 -0.00455
 C3 C 0.26438 1.06333 0.00499
 C4 C 0.25342 1.03483 -0.02396
 C5 C 0.24566 1.04841 -0.06208
 C6 C 0.25088 1.08838 -0.07207
 C7 C 0.25162 0.99108 -0.01500
 C8 C 0.25580 0.96163 -0.04463
 C9 C 0.25708 0.92113 -0.03528
 C10 C 0.25532 0.91010 0.00403
 C11 C 0.25143 0.93832 0.03382
 C12 C 0.24796 0.97834 0.02389
 H13 H 0.26839 1.14573 -0.05063
 H14 H 0.27163 1.05452 0.03431
 H15 H 0.23499 1.02806 -0.08420
 H16 H 0.26019 0.96966 -0.07469
 H17 H 0.25743 0.87910 0.01136
 H18 H 0.24296 0.99945 0.04708
 C19 C 0.78794 0.58530 0.52194
 C20 C 0.79758 0.55974 0.55270
 C21 C 0.79297 0.51885 0.54778
 C22 C 0.77378 0.50316 0.51469
 C23 C 0.76294 0.52929 0.48463
 C24 C 0.77095 0.57017 0.48757
 C25 C 0.76194 0.46040 0.51338
 C26 C 0.75838 0.44007 0.47799
 C27 C 0.74376 0.40100 0.47613
 C28 C 0.73567 0.38051 0.51108
 C29 C 0.73943 0.40052 0.54717
 C30 C 0.75166 0.44034 0.54761
 H31 H 0.79171 0.61696 0.52546
 H32 H 0.80198 0.49942 0.57114
 H33 H 0.74722 0.51814 0.45919
 H34 H 0.76641 0.45499 0.45131
 H35 H 0.72418 0.35050 0.51011
 H36 H 0.75225 0.45601 0.57514
 C37 C 0.76348 0.98671 1.11303
 C38 C 0.76774 0.94936 1.09468
 C39 C 0.76742 0.94740 1.05350
 C40 C 0.75763 0.98039 1.03083
 C41 C 0.75056 1.01619 1.05011
 C42 C 0.75654 1.02074 1.09028
 C43 C 0.75271 0.97792 0.98742
 C44 C 0.75539 1.01212 0.96460
 C45 C 0.74242 1.01254 0.92580
 C46 C 0.73355 0.97640 0.90693
 C47 C 0.73407 0.94094 0.92854
 C48 C 0.74193 0.94247 0.96878
 H49 H 0.76595 0.98929 1.14433
 H50 H 0.77385 0.91964 1.03904
 H51 H 0.73986 1.04122 1.03368
 H52 H 0.76569 1.03968 0.97732
 H53 H 0.72411 0.97611 0.87675
 H54 H 0.73900 0.91572 0.98556
 C55 C 0.22795 0.52308 0.58120
 C56 C 0.23077 0.48507 0.56475
 C57 C 0.24056 0.48054 0.52535
 C58 C 0.24267 0.51309 0.50046
 C59 C 0.23713 0.55111 0.51706
 C60 C 0.23154 0.55657 0.55725
 C61 C 0.24720 0.50745 0.45718
 C62 C 0.25795 0.53953 0.43403
 C63 C 0.25117 0.53927 0.39394
 C64 C 0.24274 0.50306 0.37485
 C65 C 0.23760 0.46823 0.39716
 C66 C 0.23753 0.47155 0.43812
 H67 H 0.22067 0.52640 0.61175
 H68 H 0.24513 0.45090 0.51430
 H69 H 0.23620 0.57705 0.49898
 H70 H 0.26860 0.56670 0.44725
 H71 H 0.23839 0.50238 0.34364
 H72 H 0.22911 0.44590 0.45475
 C73 C 1.09030 0.26107 -0.04135
 C74 C 1.08325 0.26773 -0.00164
 C75 C 1.04346 0.26257 0.01269
 C76 C 1.01152 0.25018 -0.01254
 C77 C 1.02114 0.24044 -0.05137
 C78 C 1.05990 0.24675 -0.06606
 C79 C 0.96800 0.24887 0.00028
 C80 C 0.93614 0.25276 -0.02728
 C81 C 0.89529 0.25194 -0.01595
 C82 C 0.88642 0.24909 0.02412
 C83 C 0.91730 0.24532 0.05220
 C84 C 0.95786 0.24454 0.03985
 H85 H 1.12014 0.26661 -0.05314
 H86 H 1.03732 0.27023 0.04267
 H87 H 0.99857 0.22804 -0.07077
 H88 H 0.94277 0.25798 -0.05756
 H89 H 0.85512 0.24927 0.03347
 H90 H 0.98139 0.24027 0.06134
 C91 C 0.60631 0.74063 0.53354
 C92 C 0.57827 0.72749 0.56137
 C93 C 0.53658 0.73162 0.55413
 C94 C 0.52296 0.74937 0.51976
 C95 C 0.55182 0.76301 0.49246
 C96 C 0.59328 0.75821 0.49907
 C97 C 0.47894 0.75274 0.51110
 C98 C 0.46686 0.74861 0.47236
 C99 C 0.42742 0.75682 0.46071
 C100 C 0.39823 0.76630 0.48901
 C101 C 0.40867 0.76806 0.52888
 C102 C 0.44940 0.76145 0.53978
 H103 H 0.63857 0.73738 0.53839
 H104 H 0.51478 0.72091 0.57514
 H105 H 0.54227 0.77830 0.46642
 H106 H 0.48883 0.73965 0.45062
 H107 H 0.36742 0.77263 0.48004
 H108 H 0.45823 0.76479 0.56997
 C109 C 0.00565 0.73089 -0.08864
 C110 C 0.04070 0.71946 -0.06744
 C111 C 0.03877 0.71835 -0.02669
 C112 C 0.00433 0.73161 -0.00683
 C113 C -0.02900 0.74470 -0.02781
 C114 C -0.02961 0.74366 -0.06857
 C115 C 0.00475 0.73738 0.03572
 C116 C -0.02953 0.72951 0.05840
 C117 C -0.03124 0.74048 0.09807
 C118 C 0.00393 0.75754 0.11526
 C119 C 0.03856 0.76518 0.09206
 C120 C 0.03816 0.75542 0.05269
 H121 H 0.00637 0.73128 -0.12011
 H122 H 0.06498 0.70909 -0.01003
 H123 H -0.05477 0.75609 -0.01171
 H124 H -0.05545 0.71574 0.04440
 H125 H 0.00422 0.76573 0.14575
 H126 H 0.06426 0.76232 0.03479
 C127 C 0.47545 0.22677 0.39263
 C128 C 0.51266 0.22356 0.41224
 C129 C 0.51515 0.23298 0.45157
 C130 C 0.48065 0.24039 0.47396
 C131 C 0.44277 0.24192 0.45447
 C132 C 0.44006 0.23673 0.41360
 C133 C 0.48555 0.24691 0.51707
 C134 C 0.45669 0.26816 0.53838
 C135 C 0.46146 0.27517 0.57842
 C136 C 0.49766 0.26334 0.59727
 C137 C 0.52838 0.24373 0.57585
 C138 C 0.52045 0.23345 0.53694
 H139 H 0.47400 0.22042 0.36176
 H140 H 0.54506 0.23449 0.46440
 H141 H 0.41524 0.24722 0.47070
 H142 H 0.42993 0.27937 0.52400
 H143 H 0.50232 0.27060 0.62767
 H144 H 0.54240 0.21498 0.52226
 C145 C 1.12216 0.02248 0.19505
 C146 C 1.09451 0.05444 0.19359
 C147 C 1.05466 0.04872 0.20693
 C148 C 1.04356 0.01385 0.22584
 C149 C 1.07207 -0.01655 0.22909
 C150 C 1.10995 -0.01354 0.21154
 C151 C 1.00182 0.00831 0.24072
 C152 C 0.98419 -0.02921 0.24020
 C153 C 0.94550 -0.03586 0.25560
 C154 C 0.92204 -0.00301 0.26778
 C155 C 0.93928 0.03513 0.26762
 C156 C 0.97946 0.04015 0.25540
 H157 H 1.15197 0.02487 0.18204
 H158 H 1.03237 0.07197 0.20359
 H159 H 1.06435 -0.04391 0.24357
 H160 H 1.00079 -0.05367 0.22747
 H161 H 0.89151 -0.00693 0.27868
 H162 H 0.99311 0.06926 0.25681
 C163 C 0.59628 0.46353 0.74047
 C164 C 0.58887 0.50367 0.74816
 C165 C 0.54883 0.51782 0.74606
 C166 C 0.51678 0.49181 0.73611
 C167 C 0.52552 0.45218 0.72697
 C168 C 0.56470 0.43750 0.73047
 C169 C 0.47376 0.50438 0.73782
 C170 C 0.44391 0.47749 0.75053
 C171 C 0.40321 0.48846 0.75206
 C172 C 0.39210 0.52686 0.74159
 C173 C 0.42130 0.55422 0.72884
 C174 C 0.46212 0.54273 0.72698
 H175 H 0.62688 0.45252 0.74335
 H176 H 0.54252 0.54826 0.75391
 H177 H 0.50150 0.43216 0.71816
 H178 H 0.45224 0.44823 0.76040
 H179 H 0.36049 0.53511 0.74354
 H180 H 0.48467 0.56349 0.71668
 C181 C 1.00130 1.10140 0.74861
 C182 C 0.96885 1.08137 0.76710
 C183 C 0.97132 1.04027 0.77058
 C184 C 1.00089 1.01830 0.75147
 C185 C 1.03332 1.03778 0.73407
 C186 C 1.03505 1.07947 0.73409
 C187 C 0.99617 0.97491 0.75099
 C188 C 1.02782 0.95002 0.76291
 C189 C 1.01903 0.91116 0.77441
 C190 C 0.97880 0.89738 0.77243
 C191 C 0.94783 0.92085 0.75699
 C192 C 0.95694 0.95928 0.74562
 H193 H 1.00101 1.13337 0.74688
 H194 H 0.94806 1.02416 0.78615
 H195 H 1.05739 1.02036 0.72108
 H196 H 1.05807 0.96196 0.76695
 H197 H 0.97178 0.86780 0.78221
 H198 H 0.93280 0.97812 0.73492
 C199 C 0.51797 0.61076 0.26601
 C200 C 0.48575 0.58987 0.24818
 C201 C 0.48732 0.54848 0.24704
 C202 C 0.51836 0.52754 0.26557
 C203 C 0.55008 0.54818 0.28296
 C204 C 0.55055 0.58976 0.28306
 C205 C 0.51435 0.48436 0.27017
 C206 C 0.54560 0.45784 0.25991
 C207 C 0.53758 0.41699 0.25901
 C208 C 0.49887 0.40313 0.26878
 C209 C 0.46785 0.42946 0.27895
 C210 C 0.47642 0.46969 0.28139
 H211 H 0.51749 0.64278 0.26704
 H212 H 0.46290 0.53198 0.23339
 H213 H 0.57402 0.53164 0.29712
 H214 H 0.57471 0.46892 0.25021
 H215 H 0.49269 0.37174 0.26673
 H216 H 0.45248 0.49022 0.28925
 O217 O 0.27047 0.17635 0.14050
 O218 O 0.30924 0.16201 0.20158
 O219 O 0.15604 0.21349 0.18270
 O220 O 0.13078 0.25842 0.22505
 O221 O 0.22187 0.28618 0.10222
 O222 O 0.27942 0.33167 0.11018
 O223 O 0.23464 0.31157 0.31472
 O224 O 0.18565 0.25594 0.30730
 O225 O 0.34690 0.25918 0.28347
 O226 O 0.36909 0.22370 0.21978
 O227 O 0.30593 0.36910 0.24181
 O228 O 0.26149 0.38665 0.18217
 O229 O 0.24132 0.36479 0.27524
 O230 O 0.20976 0.38377 0.21595
 O231 O 0.35511 0.32205 0.24376
 O232 O 0.38233 0.27827 0.19778
 O233 O 0.28906 0.25620 0.31914
 O234 O 0.23383 0.21242 0.31586
 O235 O 0.28117 0.23188 0.10501
 O236 O 0.32296 0.28809 0.10956
 O237 O 0.16381 0.27594 0.13636
 O238 O 0.14162 0.31398 0.19238
 O239 O 0.20589 0.16686 0.18361
 O240 O 0.24924 0.15009 0.23358
 Zr241 Zr 0.25796 0.19965 0.19711
 O242 O 0.28457 0.22762 0.24603
 Zr243 Zr 0.18515 0.26789 0.19370
 O244 O 0.20975 0.29958 0.24142
 Zr245 Zr 0.26962 0.27953 0.14252
 O246 O 0.29873 0.31017 0.18805
 Zr247 Zr 0.24175 0.26099 0.27791
 O248 O 0.21374 0.22828 0.23209
 Zr249 Zr 0.32616 0.26984 0.22631
 O250 O 0.30224 0.23960 0.17731
 Zr251 Zr 0.25431 0.33905 0.22137
 O252 O 0.22548 0.31147 0.17340
 O253 O 0.22742 0.23778 0.16006
 O254 O 0.28459 0.30164 0.25980
 C255 C 0.27960 0.19411 0.10854
 C256 C 0.16869 0.17751 0.18019
 C257 C 0.18297 0.28334 0.10468
 C258 C 0.23558 0.34932 0.30863
 C259 C 0.32798 0.25534 0.31591
 C260 C 0.34218 0.35746 0.24905
 H261 H 0.29789 0.20732 0.26222
 H262 H 0.31872 0.32897 0.17735
 H263 H 0.21462 0.22346 0.13805
 H264 H 0.18792 0.31342 0.25576
 H265 H 0.16922 0.23639 0.29255
 H266 H 0.13300 0.27297 0.25001
 H267 H 0.37727 0.29564 0.17527
 H268 H 0.34388 0.27071 0.12111
 H269 H 0.25140 0.19072 0.30642
 H270 H 0.22760 0.15736 0.25224
 H271 H 0.29056 0.38872 0.17532
 H272 H 0.25691 0.34994 0.11667
 H273 H 0.30306 0.13669 0.18808
 H274 H 0.36351 0.20384 0.24011
 H275 H 0.15363 0.33587 0.17725
 H276 H 0.18436 0.37350 0.22740
 O277 O 0.77132 0.85615 0.22713
 O278 O 0.72957 0.87204 0.28533
 O279 O 0.87674 0.80596 0.27668
 O280 O 0.89196 0.75654 0.31923
 O281 O 0.81542 0.74395 0.18479
 O282 O 0.75170 0.70521 0.18236
 O283 O 0.77105 0.70763 0.39221
 O284 O 0.82936 0.75415 0.39343
 O285 O 0.67263 0.76784 0.35535
 O286 O 0.65947 0.81273 0.29530
 O287 O 0.70642 0.66152 0.30262
 O288 O 0.75913 0.64371 0.25019
 O289 O 0.76418 0.65885 0.34697
 O290 O 0.80313 0.63881 0.29156
 O291 O 0.66086 0.71196 0.30330
 O292 O 0.64514 0.76373 0.26290
 O293 O 0.72789 0.76988 0.39492
 O294 O 0.78772 0.80544 0.39961
 O295 O 0.76370 0.80438 0.18527
 O296 O 0.71448 0.75423 0.18003
 O297 O 0.86961 0.74800 0.22562
 O298 O 0.88132 0.70440 0.27862
 O299 O 0.83085 0.85624 0.27800
 O300 O 0.78026 0.87516 0.32244
 Zr301 Zr 0.77485 0.82778 0.28232
 O302 O 0.74065 0.79898 0.32550
 Zr303 Zr 0.84192 0.75390 0.28058
 O304 O 0.80904 0.72095 0.32201
 Zr305 Zr 0.76345 0.75379 0.21978
 O306 O 0.72610 0.72320 0.25899
 Zr307 Zr 0.77705 0.75991 0.35818
 O308 O 0.81272 0.79350 0.31900
 Zr309 Zr 0.69759 0.76243 0.29832
 O310 O 0.72986 0.79361 0.25463
 Zr311 Zr 0.76339 0.68795 0.29387
 O312 O 0.80048 0.71588 0.25218
 O313 O 0.80664 0.78998 0.24552
 O314 O 0.73245 0.72485 0.33252
 C315 C 0.76744 0.84146 0.19256
 C316 C 0.86714 0.84287 0.27595
 C317 C 0.85393 0.74332 0.19168
 C318 C 0.76518 0.67118 0.38219
 C319 C 0.68957 0.77159 0.38906
 C320 C 0.67016 0.67519 0.30519
 H321 H 0.72771 0.81938 0.34205
 H322 H 0.70607 0.70740 0.24414
 H323 H 0.82345 0.80432 0.22640
 H324 H 0.82727 0.70387 0.33740
 H325 H 0.84985 0.77276 0.38307
 H326 H 0.88707 0.73744 0.34042
 H327 H 0.65237 0.75051 0.23812
 H328 H 0.69477 0.77388 0.19007
 H329 H 0.77332 0.82933 0.39055
 H330 H 0.80020 0.86674 0.34229
 H331 H 0.73236 0.64633 0.23741
 H332 H 0.77207 0.68466 0.18857
 H333 H 0.70853 0.86488 0.26594
 H334 H 0.66505 0.82952 0.31837
 H335 H 0.86781 0.68395 0.26243
 H336 H 0.82797 0.64601 0.30611
 O337 O 0.73829 0.12569 0.81069
 O338 O 0.71615 0.10637 0.75355
 O339 O 0.84707 0.19410 0.77716
 O340 O 0.85886 0.24931 0.74350
 O341 O 0.76677 0.23862 0.86922
 O342 O 0.70602 0.26465 0.87497
 O343 O 0.74196 0.28354 0.65843
 O344 O 0.79184 0.23588 0.65132
 O345 O 0.63641 0.22169 0.69358
 O346 O 0.62481 0.17283 0.73776
 O347 O 0.66815 0.32452 0.74835
 O348 O 0.70884 0.34206 0.80084
 O349 O 0.72411 0.32936 0.70382
 O350 O 0.76862 0.34519 0.76149
 O351 O 0.62492 0.27250 0.74127
 O352 O 0.61508 0.21394 0.78904
 O353 O 0.69102 0.22840 0.65389
 O354 O 0.75880 0.18330 0.65408
 O355 O 0.72310 0.17161 0.85690
 O356 O 0.66579 0.22217 0.85784
 O357 O 0.82510 0.24557 0.83479
 O358 O 0.83626 0.29473 0.77920
 O359 O 0.80662 0.13996 0.77079
 O360 O 0.75946 0.12393 0.71257
 Zr361 Zr 0.74683 0.16075 0.76110
 O362 O 0.70839 0.18899 0.72035
 Zr363 Zr 0.80487 0.24023 0.77528
 O364 O 0.77240 0.27000 0.73096
 Zr365 Zr 0.72194 0.22678 0.82835
 O366 O 0.68744 0.26087 0.78976
 Zr367 Zr 0.74334 0.23119 0.69117
 O368 O 0.78270 0.20170 0.73091
 Zr369 Zr 0.66270 0.22220 0.74844
 O370 O 0.69594 0.18731 0.78829
 Zr371 Zr 0.72447 0.29962 0.75785
 O372 O 0.75764 0.27141 0.80242
 O373 O 0.77112 0.19743 0.80402
 O374 O 0.69695 0.26271 0.71728
 C375 C 0.72930 0.13568 0.84569
 C376 C 0.84145 0.15670 0.77578
 C377 C 0.80496 0.24506 0.86721
 C378 C 0.73165 0.31875 0.66847
 C379 C 0.65225 0.22571 0.65997
 C380 C 0.63308 0.30979 0.74152
 H381 H 0.69632 0.16938 0.70224
 H382 H 0.66646 0.27564 0.80439
 H383 H 0.78728 0.18310 0.82373
 H384 H 0.79051 0.28873 0.71738
 H385 H 0.81354 0.25083 0.66480
 H386 H 0.85408 0.23747 0.71750
 H387 H 0.60921 0.23967 0.80170
 H388 H 0.65395 0.19616 0.85083
 H389 H 0.73331 0.17026 0.64577
 H390 H 0.78650 0.13168 0.70264
 H391 H 0.72882 0.33916 0.82217
 H392 H 0.70537 0.29166 0.86412
 H393 H 0.68821 0.11310 0.74550
 H394 H 0.63380 0.15184 0.75576
 H395 H 0.82416 0.30971 0.80114
 H396 H 0.75557 0.37021 0.75323
 O397 O 0.24153 0.84390 0.81872
 O398 O 0.27219 0.86872 0.75937
 O399 O 0.13099 0.79164 0.77207
 O400 O 0.11594 0.75059 0.72173
 O401 O 0.19917 0.72704 0.85068
 O402 O 0.26334 0.68878 0.84475
 O403 O 0.22650 0.71316 0.63887
 O404 O 0.17212 0.76350 0.64661
 O405 O 0.33205 0.76977 0.67574
 O406 O 0.34788 0.81107 0.73589
 O407 O 0.30441 0.66023 0.71908
 O408 O 0.25597 0.63429 0.76923
 O409 O 0.24094 0.65988 0.67634
 O410 O 0.20893 0.63310 0.73236
 O411 O 0.34789 0.71230 0.72124
 O412 O 0.36161 0.76396 0.76936
 O413 O 0.27470 0.77386 0.63939
 O414 O 0.21916 0.81075 0.64059
 O415 O 0.25437 0.78827 0.85342
 O416 O 0.30044 0.73688 0.85084
 O417 O 0.14383 0.72994 0.81128
 O418 O 0.13057 0.69339 0.75316
 O419 O 0.17276 0.84511 0.77598
 O420 O 0.21796 0.87180 0.72751
 Zr421 Zr 0.23045 0.82130 0.76150
 O422 O 0.26369 0.79866 0.71343
 Zr423 Zr 0.16805 0.74419 0.75724
 O424 O 0.19912 0.71777 0.71065
 Zr425 Zr 0.24930 0.74101 0.81396
 O426 O 0.28508 0.71641 0.76925
 Zr427 Zr 0.22734 0.76197 0.67804
 O428 O 0.19248 0.78945 0.72264
 Zr429 Zr 0.30968 0.76071 0.73321
 O430 O 0.27860 0.78579 0.78173
 Zr431 Zr 0.24714 0.68346 0.73229
 O432 O 0.21203 0.70512 0.77910
 O433 O 0.20345 0.77795 0.79525
 O434 O 0.27435 0.72544 0.69651
 C435 C 0.25142 0.82602 0.85046
 C436 C 0.13779 0.82832 0.77884
 C437 C 0.16055 0.72426 0.84435
 C438 C 0.23242 0.67575 0.64363
 C439 C 0.31341 0.77486 0.64312
 C440 C 0.34009 0.67531 0.71721
 H441 H 0.27480 0.82082 0.69813
 H442 H 0.30645 0.70001 0.78129
 H443 H 0.18851 0.78936 0.81761
 H444 H 0.17993 0.70207 0.69471
 H445 H 0.15426 0.78288 0.65991
 H446 H 0.12090 0.73615 0.69708
 H447 H 0.36107 0.74073 0.78671
 H448 H 0.32100 0.75516 0.84012
 H449 H 0.21867 0.83454 0.65739
 H450 H 0.19409 0.86527 0.71115
 H451 H 0.28163 0.63840 0.78366
 H452 H 0.24285 0.66877 0.83707
 H453 H 0.29763 0.85898 0.77127
 H454 H 0.33855 0.83014 0.71609
 H455 H 0.14459 0.67190 0.76727
 H456 H 0.18334 0.64041 0.71917
 O457 O 0.22432 0.37797 0.68832
 O458 O 0.16814 0.37251 0.73793
 O459 O 0.32803 0.34148 0.75167
 O460 O 0.34375 0.28812 0.79014
 O461 O 0.30162 0.29217 0.64147
 O462 O 0.25535 0.23756 0.62066
 O463 O 0.23180 0.20589 0.82639
 O464 O 0.26838 0.26209 0.84725
 O465 O 0.12479 0.25166 0.77447
 O466 O 0.11372 0.30203 0.72174
 O467 O 0.19114 0.16438 0.71793
 O468 O 0.25831 0.16735 0.67728
 O469 O 0.24036 0.16391 0.77522
 O470 O 0.29112 0.16074 0.72701
 O471 O 0.13655 0.20532 0.72004
 O472 O 0.12216 0.26211 0.67783
 O473 O 0.16939 0.24894 0.82479
 O474 O 0.21005 0.30041 0.84750
 O475 O 0.23065 0.33395 0.63852
 O476 O 0.20735 0.27521 0.61426
 O477 O 0.34454 0.29037 0.69323
 O478 O 0.35550 0.24440 0.74251
 O479 O 0.27081 0.37886 0.75501
 O480 O 0.21109 0.38533 0.78012
 Zr481 Zr 0.22387 0.34132 0.73798
 O482 O 0.18877 0.29917 0.76747
 Zr483 Zr 0.30539 0.28357 0.74085
 O484 O 0.27287 0.23743 0.76799
 Zr485 Zr 0.24357 0.27986 0.66481
 O486 O 0.20658 0.23564 0.68945
 Zr487 Zr 0.22590 0.26211 0.80102
 O488 O 0.26035 0.30860 0.77685
 Zr489 Zr 0.16240 0.26138 0.72590
 O490 O 0.19521 0.30550 0.69611
 Zr491 Zr 0.24245 0.20154 0.72678
 O492 O 0.28045 0.24391 0.69950
 O493 O 0.27073 0.31873 0.70405
 O494 O 0.19681 0.22475 0.76167
 C495 C 0.22447 0.36888 0.65196
 C496 C 0.30928 0.37446 0.75774
 C497 C 0.33734 0.29367 0.65676
 C498 C 0.23655 0.17109 0.81173
 C499 C 0.13343 0.24703 0.81058
 C500 C 0.15255 0.17095 0.71739
 H501 H 0.16833 0.31269 0.78387
 H502 H 0.19422 0.21942 0.66856
 H503 H 0.28665 0.34002 0.69158
 H504 H 0.29145 0.22173 0.78439
 H505 H 0.28468 0.28656 0.84478
 H506 H 0.33737 0.26582 0.80761
 H507 H 0.13179 0.24239 0.65858
 H508 H 0.17911 0.28009 0.62281
 H509 H 0.22623 0.32481 0.84418
 H510 H 0.20346 0.37130 0.80417
 H511 H 0.23452 0.16654 0.65971
 H512 H 0.27979 0.22268 0.62875
 H513 H 0.15502 0.36742 0.71246
 H514 H 0.11204 0.31681 0.74661
 H515 H 0.34996 0.22326 0.72317
 H516 H 0.31136 0.17066 0.74596
 O517 O 0.78459 0.62470 0.71080
 O518 O 0.83041 0.62775 0.76706
 O519 O 0.66795 0.64692 0.76709
 O520 O 0.64604 0.69466 0.80971
 O521 O 0.69787 0.70897 0.66461
 O522 O 0.74270 0.76323 0.64950
 O523 O 0.74436 0.78319 0.85945
 O524 O 0.71621 0.71854 0.87413
 O525 O 0.86240 0.74763 0.81087
 O526 O 0.87729 0.70202 0.75209
 O527 O 0.78966 0.83622 0.75683
 O528 O 0.72691 0.83110 0.71328
 O529 O 0.73741 0.82844 0.81136
 O530 O 0.68912 0.82884 0.75942
 O531 O 0.84715 0.79924 0.75867
 O532 O 0.87279 0.75003 0.71763
 O533 O 0.81454 0.74789 0.85830
 O534 O 0.77788 0.69422 0.87838
 O535 O 0.76922 0.66827 0.66290
 O536 O 0.79529 0.73049 0.64734
 O537 O 0.65237 0.69948 0.71328
 O538 O 0.63411 0.74213 0.76609
 O539 O 0.72700 0.61203 0.76531
 O540 O 0.78041 0.61435 0.80896
 Zr541 Zr 0.77262 0.65533 0.76310
 O542 O 0.80225 0.69833 0.79730
 Zr543 Zr 0.68700 0.70662 0.76389
 O544 O 0.71326 0.75295 0.79689
 Zr545 Zr 0.75344 0.72022 0.69273
 O546 O 0.78372 0.76550 0.72307
 Zr547 Zr 0.76038 0.73017 0.83105
 O548 O 0.73127 0.68296 0.80122
 Zr549 Zr 0.82747 0.74073 0.76019
 O550 O 0.80096 0.69599 0.72577
 Zr551 Zr 0.74245 0.79399 0.76039
 O552 O 0.71097 0.75068 0.72714
 O553 O 0.72709 0.67714 0.72720
 O554 O 0.78815 0.77243 0.79645
 C555 C 0.78234 0.63475 0.67488
 C556 C 0.68809 0.61424 0.76729
 C557 C 0.66178 0.70255 0.67729
 C558 C 0.73747 0.81846 0.84731
 C559 C 0.85134 0.75135 0.84639
 C560 C 0.82850 0.83242 0.75695
 H561 H 0.82297 0.68541 0.81372
 H562 H 0.79594 0.78395 0.70422
 H563 H 0.71419 0.65622 0.71113
 H564 H 0.69196 0.76548 0.81300
 H565 H 0.70451 0.69216 0.86821
 H566 H 0.65106 0.71442 0.83050
 H567 H 0.85972 0.76291 0.69512
 H568 H 0.82187 0.72073 0.65668
 H569 H 0.78543 0.66820 0.86739
 H570 H 0.75936 0.62016 0.82872
 H571 H 0.75069 0.83273 0.69582
 H572 H 0.71897 0.77889 0.65818
 H573 H 0.82799 0.59961 0.75893
 H574 H 0.88083 0.68681 0.77635
 H575 H 0.63794 0.76355 0.74693
 H576 H 0.66981 0.81719 0.77813
 O577 O 0.26619 0.65723 0.28316
 O578 O 0.22719 0.64877 0.23068
 O579 O 0.37520 0.71133 0.23783
 O580 O 0.38778 0.76657 0.19988
 O581 O 0.32284 0.75727 0.34167
 O582 O 0.27153 0.79329 0.36047
 O583 O 0.26672 0.82634 0.14377
 O584 O 0.30673 0.77289 0.12434
 O585 O 0.16132 0.76472 0.19258
 O586 O 0.14968 0.72688 0.24481
 O587 O 0.21780 0.87096 0.24710
 O588 O 0.27003 0.87598 0.29243
 O589 O 0.26593 0.87102 0.19342
 O590 O 0.32184 0.87404 0.24298
 O591 O 0.17034 0.82521 0.23050
 O592 O 0.15736 0.77760 0.28950
 O593 O 0.20727 0.77937 0.14560
 O594 O 0.26542 0.72693 0.12783
 O595 O 0.26251 0.70121 0.33330
 O596 O 0.21975 0.76119 0.34828
 O597 O 0.37252 0.76201 0.29612
 O598 O 0.38381 0.81077 0.24281
 O599 O 0.32623 0.66469 0.22958
 O600 O 0.26625 0.65961 0.18422
 Zr601 Zr 0.27019 0.69492 0.23516
 O602 O 0.23067 0.73202 0.20405
 Zr603 Zr 0.34148 0.76370 0.24225
 O604 O 0.30699 0.80246 0.20746
 Zr605 Zr 0.26946 0.75830 0.30942
 O606 O 0.23415 0.80041 0.28004
 Zr607 Zr 0.26575 0.77134 0.17153
 O608 O 0.30593 0.73246 0.20096
 Zr609 Zr 0.19698 0.76912 0.24159
 O610 O 0.23064 0.72655 0.27264
 Zr611 Zr 0.27031 0.83646 0.24442
 O612 O 0.30648 0.79933 0.27963
 O613 O 0.30741 0.72397 0.27475
 O614 O 0.23088 0.80673 0.20715
 C615 C 0.26130 0.66579 0.31919
 C616 C 0.36366 0.67563 0.23172
 C617 C 0.36009 0.75967 0.33155
 C618 C 0.26496 0.86189 0.15700
 C619 C 0.17050 0.77445 0.15796
 C620 C 0.18244 0.86131 0.23487
 H621 H 0.21295 0.71530 0.18752
 H622 H 0.21836 0.81677 0.29859
 H623 H 0.32404 0.70540 0.29022
 H624 H 0.32534 0.81940 0.19202
 H625 H 0.33251 0.78364 0.13468
 H626 H 0.37727 0.75244 0.17666
 H627 H 0.13199 0.78943 0.27931
 H628 H 0.20005 0.74078 0.33975
 H629 H 0.23748 0.71638 0.12584
 H630 H 0.28933 0.66708 0.16738
 H631 H 0.29326 0.86848 0.30911
 H632 H 0.27138 0.82109 0.35169
 H633 H 0.20034 0.66140 0.23405
 H634 H 0.15768 0.70759 0.26498
 H635 H 0.37742 0.82747 0.26576
 H636 H 0.31205 0.90154 0.23953
 O637 O 0.73182 0.33141 0.31859
 O638 O 0.78053 0.34730 0.26776
 O639 O 0.63755 0.27905 0.24450
 O640 O 0.62700 0.22423 0.21123
 O641 O 0.67709 0.22012 0.35439
 O642 O 0.73835 0.18510 0.37192
 O643 O 0.75571 0.17800 0.16162
 O644 O 0.70541 0.23018 0.14872
 O645 O 0.85209 0.23702 0.21483
 O646 O 0.85543 0.28435 0.27246
 O647 O 0.80714 0.13320 0.26461
 O648 O 0.74539 0.11749 0.30333
 O649 O 0.75682 0.12946 0.20698
 O650 O 0.70842 0.11332 0.25709
 O651 O 0.85105 0.18454 0.27168
 O652 O 0.85788 0.24169 0.31175
 O653 O 0.80675 0.23498 0.16516
 O654 O 0.75568 0.27377 0.14772
 O655 O 0.72958 0.28315 0.36422
 O656 O 0.77592 0.23269 0.37800
 O657 O 0.63296 0.22545 0.30387
 O658 O 0.63322 0.17748 0.25068
 O659 O 0.67976 0.33028 0.25869
 O660 O 0.73879 0.34769 0.22288
 Zr661 Zr 0.73642 0.30196 0.26452
 O662 O 0.77948 0.27156 0.23021
 Zr663 Zr 0.67131 0.22774 0.25570
 O664 O 0.71169 0.19346 0.22248
 Zr665 Zr 0.73501 0.23108 0.33060
 O666 O 0.77903 0.19826 0.29999
 Zr667 Zr 0.75059 0.23139 0.19253
 O668 O 0.70735 0.26609 0.22244
 Zr669 Zr 0.81549 0.23566 0.26584
 O670 O 0.77496 0.26923 0.30099
 Zr671 Zr 0.75013 0.16092 0.25943
 O672 O 0.70578 0.19124 0.29269
 O673 O 0.69764 0.26597 0.29616
 O674 O 0.78876 0.19639 0.22644
 C675 C 0.72997 0.31965 0.35410
 C676 C 0.64522 0.31613 0.24829
 C677 C 0.64114 0.21942 0.33970
 C678 C 0.75741 0.14151 0.17171
 C679 C 0.84304 0.23685 0.17829
 C680 C 0.84272 0.14744 0.27069
 H681 H 0.79595 0.29081 0.21554
 H682 H 0.79521 0.18332 0.31916
 H683 H 0.67736 0.28135 0.31119
 H684 H 0.69598 0.17639 0.20452
 H685 H 0.68598 0.25176 0.15468
 H686 H 0.64054 0.21373 0.18770
 H687 H 0.84827 0.22489 0.33332
 H688 H 0.79742 0.25184 0.37106
 H689 H 0.75783 0.29992 0.16051
 H690 H 0.72160 0.33913 0.20074
 H691 H 0.76639 0.12314 0.32320
 H692 H 0.72229 0.16275 0.36132
 H693 H 0.80048 0.33907 0.28767
 H694 H 0.85217 0.30163 0.24956
 H695 H 0.64059 0.15938 0.27209
 H696 H 0.68812 0.11940 0.23679
 N697 N 0.30204 0.18988 0.04242
 N698 N 0.29906 0.16698 0.01139
 C699 C 0.28212 0.13259 0.02263
 C700 C 0.27532 0.13516 0.06272
 N701 N 0.28769 0.17189 0.07356
 H702 H 0.25916 0.11446 0.08095
 N703 N 0.81404 0.57314 0.65410
 N704 N 0.82037 0.55294 0.62156
 C705 C 0.80584 0.57511 0.59208
 C706 C 0.79016 0.60946 0.60768
 N707 N 0.79554 0.60688 0.64628
 H708 H 0.77350 0.63254 0.59291
 N709 N 0.77387 0.85065 0.12385
 N710 N 0.77473 0.87837 0.09712
 C711 C 0.77112 0.91359 0.11543
 C712 C 0.76822 0.90617 0.15532
 N713 N 0.76978 0.86633 0.15894
 H714 H 0.76408 0.92710 0.17892
 N715 N 0.19601 0.38997 0.59138
 N716 N 0.19690 0.42033 0.56753
 C717 C 0.21799 0.44930 0.58554
 C718 C 0.22982 0.43586 0.62180
 N719 N 0.21557 0.39852 0.62394
 H720 H 0.24965 0.45017 0.64270
 N721 N 0.71569 0.11350 0.91089
 N722 N 0.71884 0.08161 0.93262
 C723 C 0.73238 0.05193 0.90963
 C724 C 0.73720 0.06685 0.87239
 N725 N 0.72667 0.10553 0.87473
 H726 H 0.74897 0.05182 0.84691
 N727 N 0.23247 0.64143 0.37847
 N728 N 0.22793 0.60829 0.39796
 C729 C 0.24504 0.57892 0.37681
 C730 C 0.26025 0.59541 0.34295
 N731 N 0.25201 0.63461 0.34562
 H732 H 0.27745 0.58106 0.32008
 N733 N 0.28104 0.83150 0.91423
 N734 N 0.28343 0.85548 0.94457
 C735 C 0.26420 0.88928 0.93521
 C736 C 0.24992 0.88508 0.89703
 N737 N 0.26099 0.84822 0.88530
 H738 H 0.23141 0.90552 0.88064
 N739 N 0.72134 0.38728 0.37534
 N740 N 0.72471 0.40945 0.40692
 C741 C 0.73379 0.38528 0.43681
 C742 C 0.73547 0.34687 0.42227
 N743 N 0.72778 0.34970 0.38368
 H744 H 0.74377 0.32016 0.43756
 N745 N 0.17836 0.29473 0.03570
 N746 N 0.15256 0.29038 0.00661
 C747 C 0.11651 0.27931 0.02176
 C748 C 0.12120 0.27755 0.06195
 N749 N 0.16045 0.28695 0.06915
 H750 H 0.09953 0.26732 0.08329
 N751 N 0.59159 0.69127 0.65784
 N752 N 0.56812 0.69785 0.62722
 C753 C 0.59253 0.71129 0.59868
 C754 C 0.63170 0.71236 0.61270
 N755 N 0.62978 0.69982 0.64950
 H756 H 0.65861 0.72403 0.59890
 N757 N 0.14567 0.70250 0.91041
 N758 N 0.11408 0.70000 0.93407
 C759 C 0.08088 0.71197 0.91412
 C760 C 0.09343 0.72189 0.87713
 N761 N 0.13392 0.71570 0.87612
 H762 H 0.07548 0.73462 0.85398
 N763 N 0.61148 0.18727 0.39532
 N764 N 0.57653 0.18583 0.41397
 C765 C 0.55007 0.20876 0.39423
 C766 C 0.56998 0.22446 0.36269
 N767 N 0.60821 0.21059 0.36482
 H768 H 0.55906 0.24647 0.34246
 N769 N 0.86764 0.72291 0.12544
 N770 N 0.89771 0.72146 0.10010
 C771 C 0.93145 0.73547 0.11789
 C772 C 0.92064 0.74540 0.15590
 N773 N 0.88053 0.73715 0.15912
 H774 H 0.93943 0.75836 0.17846
 N775 N 0.36928 0.32429 0.60108
 N776 N 0.40307 0.32143 0.58054
 C777 C 0.42746 0.29517 0.59864
 C778 C 0.40721 0.28201 0.63139
 N779 N 0.37103 0.30072 0.63154
 H780 H 0.41589 0.25816 0.65056
 N781 N 0.80168 0.25677 0.93600
 N782 N 0.82419 0.25815 0.96772
 C783 C 0.86316 0.25408 0.95670
 C784 C 0.86354 0.25039 0.91591
 N785 N 0.82420 0.25196 0.90444
 H786 H 0.88917 0.24488 0.89699
 N787 N 0.42910 0.75731 0.35667
 N788 N 0.44779 0.75616 0.39072
 C789 C 0.41878 0.75711 0.41853
 C790 C 0.38165 0.75895 0.40039
 N791 N 0.38945 0.75897 0.36198
 H792 H 0.35185 0.75990 0.41358
 N793 N 0.09977 0.15478 0.17105
 N794 N 0.07871 0.12177 0.17484
 C795 C 0.10559 0.09220 0.18078
 C796 C 0.14413 0.10824 0.17975
 N797 N 0.13899 0.14735 0.17431
 H798 H 0.17254 0.09396 0.18700
 N799 N 0.68464 0.54367 0.77706
 N800 N 0.65931 0.51376 0.77223
 C801 C 0.62355 0.52891 0.76031
 C802 C 0.62779 0.56972 0.75834
 N803 N 0.66650 0.57750 0.76888
 H804 H 0.60598 0.59118 0.74802
 N805 N 0.87156 0.09889 0.80350
 N806 N 0.90571 0.07871 0.80262
 C807 C 0.93262 0.09896 0.78066
 C808 C 0.91356 0.13354 0.76873
 N809 N 0.87532 0.13154 0.78307
 H810 H 0.92461 0.15548 0.74853
 N811 N 0.38808 0.61209 0.20871
 N812 N 0.42043 0.58919 0.21162
 C813 C 0.44845 0.60904 0.23286
 C814 C 0.43197 0.64546 0.24273
 N815 N 0.39425 0.64589 0.22728
 H816 H 0.44478 0.66806 0.26151
 N817 N 0.07418 0.83259 0.81153
 N818 N 0.04054 0.85356 0.80977
 C819 C 0.04899 0.88587 0.78851
 C820 C 0.08956 0.88453 0.77794
 N821 N 0.10378 0.85032 0.79239
 H822 H 0.10514 0.90306 0.75715
 N823 N 0.58361 0.33378 0.21474
 N824 N 0.55474 0.36084 0.21606
 C825 C 0.56631 0.38824 0.24250
 C826 C 0.60350 0.37706 0.25756
 N827 N 0.61299 0.34282 0.23946
 H828 H 0.61976 0.39010 0.28183
 N829 N 0.93583 0.86111 0.25931
 N830 N 0.95719 0.89336 0.25247
 C831 C 0.93271 0.92478 0.25933
 C832 C 0.89546 0.91056 0.27096
 N833 N 0.89882 0.87085 0.27045
 H834 H 0.86829 0.92707 0.27809
 N835 N 0.31409 0.44010 0.78500
 N836 N 0.33791 0.47152 0.78368
 C837 C 0.37190 0.46033 0.76491
 C838 C 0.36833 0.42065 0.75497
 N839 N 0.33162 0.40931 0.76797
 H840 H 0.38838 0.40315 0.73683
 N841 N 0.06200 0.24346 0.83012
 N842 N 0.04115 0.24328 0.86315
 C843 C 0.06857 0.24045 0.89228
 C844 C 0.10649 0.23814 0.87606
 N845 N 0.10130 0.24062 0.83756
 H846 H 0.13555 0.23732 0.89075
 N847 N 0.68081 0.79768 0.45375
 N848 N 0.65619 0.79471 0.48388
 C849 C 0.62376 0.77375 0.47183
 C850 C 0.62923 0.76392 0.43289
 N851 N 0.66543 0.77945 0.42289
 H852 H 0.61092 0.74433 0.41505
 N853 N 0.87194 0.77461 0.90946
 N854 N 0.90339 0.77270 0.93304
 C855 C 0.93421 0.75559 0.91319
 C856 C 0.92058 0.74783 0.87573
 N857 N 0.88141 0.75967 0.87511
 H858 H 0.93591 0.73167 0.85278
 N859 N 0.33549 0.24823 0.38608
 N860 N 0.36421 0.24322 0.41262
 C861 C 0.40004 0.24113 0.39371
 C862 C 0.39205 0.24527 0.35422
 N863 N 0.35146 0.24965 0.35081
 H864 H 0.41353 0.24565 0.33044
 N865 N 0.13825 0.80344 0.10115
 N866 N 0.10191 0.80422 0.08473
 C867 C 0.07680 0.78203 0.10688
 C868 C 0.09915 0.76726 0.13721
 N869 N 0.13724 0.78081 0.13228
 H870 H 0.08954 0.74623 0.15898
 N871 N 0.63481 0.22407 0.59075
 N872 N 0.60248 0.22830 0.56816
 C873 C 0.57011 0.23565 0.59133
 C874 C 0.58412 0.23575 0.62935
 N875 N 0.62451 0.22826 0.62767
 H876 H 0.56681 0.24108 0.65562
 N877 N 0.91426 0.23977 0.15690
 N878 N 0.93481 0.24186 0.12372
 C879 C 0.90735 0.24234 0.09443
 C880 C 0.86927 0.24041 0.11101
 N881 N 0.87481 0.23889 0.14977
 H882 H 0.84010 0.24021 0.09655
 N883 N 0.31894 0.80038 0.57801
 N884 N 0.34287 0.79889 0.54723
 C885 C 0.37674 0.77926 0.55761
 C886 C 0.37274 0.76897 0.59671
 N887 N 0.33599 0.78270 0.60813
 H888 H 0.39292 0.75092 0.61400
 N889 N 0.23343 0.10071 0.82774
 N890 N 0.23675 0.07765 0.85869
 C891 C 0.24401 0.10152 0.88962
 C892 C 0.24454 0.14018 0.87634
 N893 N 0.23798 0.13829 0.83788
 H894 H 0.24929 0.16732 0.89255
 N895 N 0.72791 0.61439 0.40340
 N896 N 0.72875 0.58661 0.43019
 C897 C 0.75810 0.59661 0.45568
 C898 C 0.77515 0.63225 0.44369
 N899 N 0.75531 0.64208 0.41078
 H900 H 0.80121 0.64752 0.45574
 N901 N 0.75516 0.12328 0.10421
 N902 N 0.75382 0.09156 0.08183
 C903 C 0.75615 0.05958 0.10516
 C904 C 0.75931 0.07310 0.14322
 N905 N 0.75847 0.11298 0.14103
 H906 H 0.76133 0.05604 0.16969
 N907 N 0.22324 0.66119 0.57443
 N908 N 0.22262 0.63005 0.55081
 C909 C 0.22811 0.59752 0.57293
 C910 C 0.23228 0.60995 0.61104
 N911 N 0.22915 0.64973 0.61070
 H912 H 0.23798 0.59201 0.63644
 N913 N 0.71408 0.83890 0.91083
 N914 N 0.71173 0.87098 0.93283
 C915 C 0.72482 0.90170 0.91130
 C916 C 0.73515 0.88722 0.87481
 N917 N 0.72825 0.84787 0.87605
 H918 H 0.74927 0.90297 0.85107
 N919 N 0.22120 0.36486 0.37670
 N920 N 0.22113 0.39580 0.40056
 C921 C 0.23072 0.42818 0.37951
 C922 C 0.23669 0.41565 0.34146
 N923 N 0.23051 0.37603 0.34104
 H924 H 0.24626 0.43323 0.31691
 N925 N 0.25588 0.93099 0.13803
 N926 N 0.25138 0.95204 0.10586
 C927 C 0.25310 0.92654 0.07546
 C928 C 0.25906 0.88904 0.09031
 N929 N 0.26074 0.89312 0.12923
 H930 H 0.26211 0.86136 0.07461
 N931 N 0.71074 0.38324 0.64571
 N932 N 0.71104 0.40503 0.61392
 C933 C 0.72773 0.38307 0.58517
 C934 C 0.73789 0.34654 0.60078
 N935 N 0.72701 0.34817 0.63875
 H936 H 0.75361 0.32229 0.58666
 N937 N 0.13627 0.10203 0.70325
 N938 N 0.10529 0.07735 0.70663
 C939 C 0.07340 0.09821 0.72064
 C940 C 0.08611 0.13691 0.72562
 N941 N 0.12542 0.13792 0.71455
 H942 H 0.06938 0.16135 0.73829
 N943 N 0.64335 0.61409 0.33033
 N944 N 0.61160 0.59074 0.32541
 C945 C 0.58561 0.60963 0.30147
 C946 C 0.60236 0.64586 0.29219
 N947 N 0.63841 0.64719 0.31066
 H948 H 0.59151 0.66720 0.27126
 N949 N 0.13202 0.88699 0.19082
 N950 N 0.11544 0.92110 0.18101
 C951 C 0.13133 0.94913 0.20463
 C952 C 0.15751 0.93073 0.23020
 N953 N 0.15684 0.89203 0.22066
 H954 H 0.17358 0.94370 0.25463
 N955 N 0.56236 0.33169 0.73348
 N956 N 0.54311 0.36602 0.72996
 C957 C 0.57192 0.39449 0.72747
 C958 C 0.60901 0.37652 0.72909
 N959 N 0.60200 0.33780 0.73334
 H960 H 0.63868 0.39022 0.72925
 N961 N 0.90962 0.13212 0.29503
 N962 N 0.93558 0.10239 0.29619
 C963 C 0.91696 0.07078 0.27996
 C964 C 0.87840 0.08218 0.26866
 N965 N 0.87535 0.12077 0.27833
 H966 H 0.85629 0.06525 0.25222
 N967 N 0.41207 0.65823 0.71259
 N968 N 0.43487 0.62608 0.71601
 C969 C 0.40924 0.59500 0.71886
 C970 C 0.37021 0.60912 0.71633
 N971 N 0.37318 0.64844 0.71273
 H972 H 0.34206 0.59298 0.71942
 N973 N 0.84061 0.90376 0.75043
 N974 N 0.87214 0.92824 0.74992
 C975 C 0.90579 0.90585 0.75457
 C976 C 0.89389 0.86709 0.75776
 N977 N 0.85332 0.86697 0.75517
 H978 H 0.91275 0.84117 0.76142
 N979 N 0.36026 0.42110 0.27771
 N980 N 0.39352 0.44076 0.28752
 C981 C 0.42527 0.41645 0.28043
 C982 C 0.41038 0.38131 0.26598
 N983 N 0.37004 0.38559 0.26443
 H984 H 0.42703 0.35613 0.25477
   
