data_POSCAR
  _audit_creation_date              2014-09-24
  _audit_creation_method            'ToBaCCo'
  _symmetry_space_group_name_H-M    'P1'
  _symmetry_Int_Tables_number       1
  _symmetry_cell_setting            triclinic
  loop_
  _symmetry_equiv_pos_as_xyz
 x,y,z
_cell_length_a 33.8870
_cell_length_b 33.6328
_cell_length_c 79.3132
_cell_angle_alpha 88.477100
_cell_angle_beta 88.582700
_cell_angle_gamma 121.755000
loop_
  _atom_site_label
  _atom_site_type_symbol
  _atom_site_fract_x
  _atom_site_fract_y
  _atom_site_fract_z
C1 C -0.00464 0.04638 0.52990
 H2 H 0.02095 0.03706 0.53193
 C3 C -0.00470 0.08023 0.53961
 H4 H 0.02103 0.09668 0.54904
 C5 C -0.07021 0.03479 0.51562
 H6 H -0.09565 0.01709 0.50626
 C7 C -0.07157 0.06861 0.52511
 H8 H -0.09785 0.07692 0.52281
 N9 N -0.03640 0.02509 0.51792
 C10 C 0.01592 -0.06441 0.51529
 H11 H 0.03757 -0.04942 0.50385
 C12 C 0.01970 -0.09669 0.52554
 H13 H 0.04446 -0.10632 0.52189
 C14 C -0.04474 -0.07233 0.53343
 H15 H -0.07040 -0.06327 0.53621
 C16 C -0.04213 -0.10455 0.54398
 H17 H -0.06531 -0.11942 0.55509
 Zn18 Zn -0.02868 -0.01659 0.50456
 N19 N -0.01650 -0.05359 0.51928
 C20 C 0.06401 0.05269 0.49485
 N21 N 0.02242 0.01990 0.48887
 C22 C 0.01612 0.01600 0.47198
 C23 C 0.05114 0.04800 0.46047
 C24 C 0.10010 0.08520 0.48378
 C25 C -0.10165 -0.10436 0.49546
 C26 C -0.13762 -0.13647 0.48585
 C27 C -0.13667 -0.07229 0.47116
 C28 C -0.10054 -0.04134 0.48116
 N29 N -0.08305 -0.05767 0.49279
 H30 H 0.06880 0.05478 0.50827
 H31 H -0.01650 -0.01100 0.46734
 H32 H 0.04499 0.04525 0.44710
 H33 H 0.13214 0.11236 0.48885
 H34 H -0.08794 -0.11718 0.50481
 H35 H -0.15163 -0.17301 0.48913
 H36 H -0.14666 -0.05674 0.46141
 H37 H -0.08474 -0.00400 0.47895
 C38 C -0.01030 -0.11792 0.53991
 C39 C -0.03792 0.09240 0.53709
 C40 C -0.15531 -0.12124 0.47288
 C41 C 0.09332 0.08396 0.46638
 C42 C 1.09081 0.05005 0.13782
 H43 H 1.09042 0.08201 0.13717
 C44 C 1.12427 0.04706 0.12839
 H45 H 1.14901 0.07669 0.12025
 C46 C 1.05870 -0.02722 0.14932
 H47 H 1.03364 -0.05561 0.15779
 C48 C 1.09179 -0.03172 0.14007
 H49 H 1.09185 -0.06380 0.14148
 N50 N 1.05893 0.01332 0.14800
 C51 C 0.95186 0.04718 0.15407
 H52 H 0.95220 0.05231 0.16749
 C53 C 0.91875 0.04868 0.14436
 H54 H 0.89384 0.05528 0.15037
 C55 C 0.98169 0.02881 0.13018
 H56 H 1.00515 0.01948 0.12479
 C57 C 0.94907 0.02968 0.12005
 H58 H 0.94863 0.02221 0.10684
 Zn59 Zn 1.01943 0.02544 0.16110
 N60 N 0.98220 0.03699 0.14690
 C61 C 1.06116 0.11883 0.17312
 N62 N 1.05927 0.07740 0.17377
 C63 C 1.08848 0.07109 0.18330
 C64 C 1.12101 0.10700 0.19284
 C65 C 1.09338 0.15594 0.18254
 C66 C 0.94690 -0.06714 0.16925
 C67 C 0.91135 -0.10334 0.17955
 C68 C 0.94085 -0.05374 0.20330
 C69 C 0.97589 -0.01868 0.19261
 N70 N 0.97804 -0.02572 0.17589
 H71 H 1.03817 0.12334 0.16520
 H72 H 1.08636 0.03784 0.18346
 H73 H 1.14334 0.10078 0.20054
 H74 H 1.09492 0.18892 0.18181
 H75 H 0.94869 -0.07139 0.15583
 H76 H 0.88595 -0.13556 0.17398
 H77 H 0.93924 -0.04719 0.21652
 H78 H 1.00008 0.01483 0.19759
 C79 C 0.91648 0.03882 0.12719
 C80 C 1.12548 0.00601 0.12957
 C81 C 0.90749 -0.09640 0.19674
 C82 C 1.12402 0.15025 0.19249
 C83 C 0.06406 0.96429 0.85801
 H84 H 0.03041 0.93208 0.85895
 C85 C 0.10044 0.96807 0.86706
 H86 H 0.09420 0.93880 0.87521
 C87 C 0.11252 1.04140 0.84615
 H88 H 0.11713 1.06942 0.83769
 C89 C 0.15013 1.04672 0.85503
 H90 H 0.18358 1.07905 0.85337
 N91 N 0.07058 1.00054 0.84781
 C92 C -0.07279 0.96291 0.84358
 H93 H -0.07761 0.95643 0.83027
 C94 C -0.10814 0.96114 0.85367
 H95 H -0.13951 0.95358 0.84766
 C96 C -0.02365 0.98520 0.86665
 H97 H 0.00973 0.99574 0.87159
 C98 C -0.05770 0.98438 0.87715
 H99 H -0.05008 0.99206 0.89025
 Zn100 Zn 0.01854 0.98703 0.83533
 N101 N -0.03144 0.97518 0.85014
 C102 C -0.03527 0.89240 0.82449
 N103 N 0.00526 0.93468 0.82284
 C104 C 0.04117 0.94136 0.81259
 C105 C 0.03725 0.90488 0.80339
 C106 C -0.04070 0.85468 0.81548
 C107 C 0.04129 1.07873 0.82718
 C108 C 0.04243 1.11406 0.81708
 C109 C 0.02106 1.06384 0.79346
 C110 C 0.02058 1.02964 0.80395
 N111 N 0.03004 1.03736 0.82052
 H112 H -0.06299 0.88761 0.83300
 H113 H 0.07313 0.97527 0.81167
 H114 H 0.06619 0.91132 0.79516
 H115 H -0.07281 0.82100 0.81711
 H116 H 0.04745 1.08348 0.84050
 H117 H 0.04979 1.14613 0.82271
 H118 H 0.01248 1.05668 0.78038
 H119 H 0.01043 0.99613 0.79898
 C120 C -0.10066 0.97333 0.87072
 C121 C 0.14436 1.00946 0.86551
 C122 C 0.03113 1.10631 0.80008
 C123 C -0.00389 0.86067 0.80487
 O124 O 0.46346 -0.02824 -0.01819
 O125 O 0.53824 -0.02914 0.01478
 O126 O 0.45983 -0.03154 0.01465
 O127 O 0.53861 -0.03115 -0.01797
 O128 O 0.58038 0.04606 -0.01882
 O129 O 0.49970 0.04566 0.01352
 O130 O 0.57765 0.04806 0.01389
 O131 O 0.50471 0.04896 -0.01932
 Cu132 Cu 0.49596 -0.03772 -0.00155
 Cu133 Cu 0.54463 0.05490 -0.00281
 C134 C 0.47138 0.01073 -0.02437
 C135 C 0.57087 0.00955 0.01994
 C136 C 0.46585 0.00677 0.01960
 C137 C 0.57317 0.00728 -0.02388
 O138 O -0.04861 0.42122 0.68778
 O139 O -0.05174 0.50107 0.65560
 O140 O -0.05426 0.42224 0.65515
 O141 O -0.05164 0.49723 0.68837
 O142 O 0.02494 0.53874 0.68626
 O143 O 0.02232 0.46250 0.65301
 O144 O 0.02484 0.54135 0.65347
 O145 O 0.02798 0.46309 0.68569
 Cu146 Cu -0.05921 0.45634 0.67194
 Cu147 Cu 0.03265 0.50548 0.66938
 C148 C -0.00951 0.42869 0.69222
 C149 C -0.01372 0.53507 0.64908
 C150 C -0.01665 0.42915 0.64844
 C151 C -0.01314 0.53098 0.69295
 O152 O 0.46671 0.45775 0.31634
 O153 O 0.54191 0.53355 0.34927
 O154 O 0.46447 0.45251 0.34922
 O155 O 0.54666 0.53560 0.31642
 O156 O 0.51029 0.57403 0.31647
 O157 O 0.42596 0.48878 0.34913
 O158 O 0.50385 0.57026 0.34931
 O159 O 0.42997 0.49580 0.31634
 Cu160 Cu 0.50864 0.49111 0.33285
 Cu161 Cu 0.46380 0.53598 0.33285
 C162 C 0.43548 0.46403 0.31069
 C163 C 0.53575 0.56509 0.35486
 C164 C 0.43092 0.45589 0.35470
 C165 C 0.54284 0.56903 0.31082
 C166 C -0.03299 0.20042 0.56675
 C167 C 0.00793 0.20540 0.55971
 C168 C 0.00609 0.17071 0.54988
 C169 C -0.03668 0.13010 0.54684
 C170 C -0.07774 0.12552 0.55351
 C171 C -0.07592 0.16028 0.56338
 C172 C -0.03061 0.23629 0.57790
 N173 N -0.06987 0.23169 0.58489
 N174 N -0.06753 0.26316 0.59534
 C175 C -0.02584 0.30056 0.59927
 N176 N 0.01340 0.30530 0.59219
 N177 N 0.01106 0.27385 0.58174
 C178 C -0.02325 0.33470 0.61135
 C179 C 0.01994 0.37220 0.61605
 C180 C 0.02222 0.40328 0.62794
 C181 C -0.01863 0.39756 0.63537
 C182 C -0.06176 0.36051 0.63048
 C183 C -0.06404 0.32948 0.61862
 H184 H 0.04157 0.23594 0.56192
 H185 H 0.03829 0.17568 0.54464
 H186 H -0.11119 0.09450 0.55146
 H187 H -0.10814 0.15531 0.56859
 H188 H 0.05208 0.37732 0.61070
 H189 H 0.05598 0.43149 0.63143
 H190 H -0.09393 0.35512 0.63593
 H191 H -0.09789 0.30112 0.61529
 C192 C 0.79153 0.80015 0.22856
 C193 C 0.80651 0.84779 0.22905
 C194 C 0.84418 0.88119 0.21875
 C195 C 0.86760 0.86777 0.20764
 C196 C 0.85235 0.82013 0.20695
 C197 C 0.81485 0.78667 0.21737
 C198 C 0.75235 0.76497 0.23987
 N199 N 0.74245 0.72030 0.24150
 N200 N 0.70812 0.68908 0.25203
 C201 C 0.68210 0.70111 0.26134
 N202 N 0.69174 0.74568 0.25961
 N203 N 0.72618 0.77695 0.24911
 C204 C 0.64504 0.66672 0.27351
 C205 C 0.61406 0.67680 0.28159
 C206 C 0.58022 0.64480 0.29351
 C207 C 0.57699 0.60230 0.29770
 C208 C 0.60760 0.59206 0.28947
 C209 C 0.64105 0.62376 0.27748
 H210 H 0.78939 0.85943 0.23749
 H211 H 0.85471 0.91760 0.21934
 H212 H 0.86990 0.80886 0.19854
 H213 H 0.80416 0.75025 0.21666
 H214 H 0.61608 0.70952 0.27878
 H215 H 0.55713 0.65367 0.29965
 H216 H 0.60588 0.55951 0.29234
 H217 H 0.66431 0.61483 0.27152
 C218 C 0.25399 0.01602 -0.10586
 C219 C 0.22346 -0.02437 -0.11436
 C220 C 0.18882 -0.02588 -0.12398
 C221 C 0.18362 0.01287 -0.12530
 C222 C 0.21502 0.05385 -0.11726
 C223 C 0.24986 0.05541 -0.10764
 C224 C 0.28866 0.01618 -0.09477
 N225 N 0.32032 0.05572 -0.08726
 N226 N 0.35027 0.05519 -0.07682
 C227 C 0.34974 0.01510 -0.07339
 N228 N 0.31824 -0.02434 -0.08096
 N229 N 0.28839 -0.02379 -0.09143
 C230 C 0.38194 0.01407 -0.06131
 C231 C 0.37703 -0.02861 -0.05599
 C232 C 0.40628 -0.02975 -0.04411
 C233 C 0.44128 0.01181 -0.03736
 C234 C 0.44668 0.05455 -0.04288
 C235 C 0.41728 0.05566 -0.05467
 H236 H 0.22591 -0.05517 -0.11345
 H237 H 0.16583 -0.05762 -0.13032
 H238 H 0.21173 0.08417 -0.11798
 H239 H 0.27283 0.08713 -0.10128
 H240 H 0.35015 -0.06133 -0.06083
 H241 H 0.40127 -0.06322 -0.04015
 H242 H 0.47330 0.08722 -0.03792
 H243 H 0.42217 0.08915 -0.05851
 C244 C -0.01078 0.77361 0.57035
 C245 C 0.03145 0.81300 0.56413
 C246 C 0.03177 0.84815 0.55415
 C247 C -0.01010 0.84472 0.55025
 C248 C -0.05225 0.80508 0.55630
 C249 C -0.05260 0.77001 0.56623
 C250 C -0.01139 0.73675 0.58126
 N251 N -0.05223 0.69934 0.58755
 N252 N -0.05289 0.66668 0.59763
 C253 C -0.01272 0.66998 0.60186
 N254 N 0.02812 0.70728 0.59552
 N255 N 0.02878 0.73996 0.58544
 C256 C -0.01333 0.63428 0.61345
 C257 C 0.02844 0.63826 0.61791
 C258 C 0.02812 0.60567 0.62928
 C259 C -0.01396 0.56824 0.63648
 C260 C -0.05583 0.56375 0.63185
 C261 C -0.05552 0.59641 0.62045
 H262 H 0.06432 0.81693 0.56706
 H263 H 0.06479 0.87840 0.54975
 H264 H -0.08514 0.80094 0.55323
 H265 H -0.08576 0.74009 0.57070
 H266 H 0.06156 0.66686 0.61275
 H267 H 0.06102 0.61014 0.63255
 H268 H -0.08882 0.53530 0.63716
 H269 H -0.08837 0.59221 0.61728
 C270 C 0.22348 0.25617 0.22404
 C271 C 0.23543 0.22924 0.21442
 C272 C 0.20362 0.19601 0.20381
 C273 C 0.15896 0.18866 0.20259
 C274 C 0.14747 0.21667 0.21174
 C275 C 0.17941 0.25011 0.22235
 C276 C 0.25622 0.28899 0.23620
 N277 N 0.24652 0.31747 0.24478
 N278 N 0.27527 0.34568 0.25613
 C279 C 0.31485 0.34650 0.25942
 N280 N 0.32463 0.31816 0.25078
 N281 N 0.29595 0.29004 0.23942
 C282 C 0.34625 0.37702 0.27236
 C283 C 0.38393 0.37349 0.27731
 C284 C 0.41293 0.40167 0.28975
 C285 C 0.40507 0.43417 0.29746
 C286 C 0.36762 0.43792 0.29242
 C287 C 0.33850 0.40961 0.28006
 H288 H 0.26922 0.23333 0.21524
 H289 H 0.21388 0.17566 0.19665
 H290 H 0.11324 0.21163 0.21114
 H291 H 0.16908 0.27031 0.22956
 H292 H 0.39086 0.34869 0.27166
 H293 H 0.44154 0.39800 0.29333
 H294 H 0.36057 0.46260 0.29811
 H295 H 0.30989 0.41334 0.27654
 C296 C 0.79968 -0.01475 -0.09956
 C297 C 0.78555 -0.04575 -0.11276
 C298 C 0.81807 -0.04991 -0.12250
 C299 C 0.86583 -0.02362 -0.11918
 C300 C 0.87945 0.00697 -0.10568
 C301 C 0.84697 0.01150 -0.09614
 C302 C 0.76543 -0.00983 -0.08932
 N303 N 0.77964 0.02664 -0.07909
 N304 N 0.74899 0.03075 -0.06967
 C305 C 0.70282 -0.00155 -0.07004
 N306 N 0.68858 -0.03794 -0.08032
 N307 N 0.71922 -0.04191 -0.08980
 C308 C 0.66889 0.00188 -0.05901
 C309 C 0.62360 -0.03700 -0.05607
 C310 C 0.59238 -0.03486 -0.04487
 C311 C 0.60550 0.00637 -0.03652
 C312 C 0.65029 0.04576 -0.03982
 C313 C 0.68179 0.04344 -0.05087
 H314 H 0.74925 -0.06674 -0.11565
 H315 H 0.80509 -0.07510 -0.13226
 H316 H 0.91555 0.02949 -0.10283
 H317 H 0.85909 0.03579 -0.08606
 H318 H 0.61253 -0.06954 -0.06210
 H319 H 0.55801 -0.06574 -0.04264
 H320 H 0.66140 0.07798 -0.03354
 H321 H 0.71636 0.07410 -0.05294
 C322 C 0.23169 0.00124 0.10027
 C323 C 0.18646 -0.03851 0.10217
 C324 C 0.15209 -0.03743 0.11195
 C325 C 0.16227 0.00339 0.12003
 C326 C 0.20783 0.04259 0.11852
 C327 C 0.24205 0.04158 0.10874
 C328 C 0.26760 0.00136 0.08915
 N329 N 0.30927 0.04151 0.08573
 N330 N 0.34108 0.04218 0.07533
 C331 C 0.33263 0.00267 0.06790
 N332 N 0.29106 -0.03758 0.07140
 N333 N 0.25919 -0.03822 0.08178
 C334 C 0.36756 0.00371 0.05595
 C335 C 0.36050 -0.03792 0.04946
 C336 C 0.39273 -0.03688 0.03785
 C337 C 0.43269 0.00584 0.03236
 C338 C 0.44003 0.04746 0.03895
 C339 C 0.40789 0.04640 0.05066
 H340 H 0.17728 -0.07018 0.09583
 H341 H 0.11726 -0.06809 0.11279
 H342 H 0.21706 0.07425 0.12489
 H343 H 0.27659 0.07266 0.10772
 H344 H 0.32994 -0.07142 0.05329
 H345 H 0.38601 -0.06960 0.03302
 H346 H 0.47050 0.08092 0.03501
 H347 H 0.41442 0.07915 0.05538
 C348 C 0.74762 0.78377 0.43934
 C349 C 0.75340 0.82788 0.44117
 C350 C 0.78518 0.85935 0.45233
 C351 C 0.81230 0.84771 0.46225
 C352 C 0.80527 0.80257 0.46035
 C353 C 0.77377 0.77152 0.44913
 C354 C 0.71518 0.75081 0.42714
 N355 N 0.71397 0.71064 0.42406
 N356 N 0.68542 0.68118 0.41296
 C357 C 0.65671 0.69055 0.40446
 N358 N 0.65779 0.73066 0.40756
 N359 N 0.68646 0.76020 0.41865
 C360 C 0.62526 0.65792 0.39197
 C361 C 0.59207 0.66497 0.38455
 C362 C 0.56279 0.63455 0.37264
 C363 C 0.56616 0.59649 0.36779
 C364 C 0.59921 0.58929 0.37525
 C365 C 0.62834 0.61958 0.38724
 H366 H 0.73341 0.83833 0.43391
 H367 H 0.78648 0.89194 0.45345
 H368 H 0.82582 0.79121 0.46661
 H369 H 0.77049 0.73790 0.44799
 H370 H 0.58864 0.69403 0.38792
 H371 H 0.53774 0.64115 0.36713
 H372 H 0.60265 0.56028 0.37180
 H373 H 0.65355 0.61312 0.39269
 C374 C 0.01696 0.20607 0.76981
 C375 C -0.01630 0.15792 0.76960
 C376 C -0.01135 0.12571 0.77932
 C377 C 0.02679 0.14086 0.78958
 C378 C 0.05991 0.18899 0.78994
 C379 C 0.05519 0.22126 0.78008
 C380 C 0.01189 0.24002 0.75925
 N381 N 0.04721 0.28542 0.75718
 N382 N 0.04299 0.31560 0.74735
 C383 C 0.00321 0.30174 0.73923
 N384 N -0.03224 0.25643 0.74140
 N385 N -0.02796 0.22622 0.75119
 C386 C -0.00082 0.33497 0.72783
 C387 C -0.04367 0.32272 0.72113
 C388 C -0.04685 0.35350 0.70983
 C389 C -0.00717 0.39696 0.70489
 C390 C 0.03547 0.40945 0.71178
 C391 C 0.03857 0.37893 0.72316
 H392 H -0.04615 0.14496 0.76184
 H393 H -0.03783 0.08888 0.77900
 H394 H 0.08973 0.20159 0.79770
 H395 H 0.08142 0.25811 0.78057
 H396 H -0.07473 0.28919 0.72452
 H397 H -0.08018 0.34288 0.70473
 H398 H 0.06666 0.44279 0.70828
 H399 H 0.07211 0.38953 0.72806
 C400 C 0.80601 0.02700 0.09766
 C401 C 0.81896 -0.00634 0.09679
 C402 C 0.85497 -0.00219 0.10629
 C403 C 0.87871 0.03519 0.11699
 C404 C 0.86556 0.06832 0.11803
 C405 C 0.82974 0.06442 0.10839
 C406 C 0.76843 0.02296 0.08725
 N407 N 0.76076 0.05866 0.08581
 N408 N 0.72786 0.05549 0.07606
 C409 C 0.70108 0.01643 0.06738
 N410 N 0.70848 -0.01942 0.06894
 N411 N 0.74148 -0.01619 0.07864
 C412 C 0.66578 0.01372 0.05599
 C413 C 0.63420 -0.02849 0.04861
 C414 C 0.60248 -0.03027 0.03721
 C415 C 0.60200 0.01022 0.03285
 C416 C 0.63296 0.05216 0.04047
 C417 C 0.66432 0.05385 0.05196
 H418 H 0.80149 -0.03558 0.08866
 H419 H 0.86386 -0.02867 0.10545
 H420 H 0.88340 0.09756 0.12613
 H421 H 0.82061 0.09068 0.10938
 H422 H 0.63424 -0.06011 0.05150
 H423 H 0.57908 -0.06309 0.03153
 H424 H 0.63332 0.08394 0.03744
 H425 H 0.68808 0.08693 0.05740
 C426 C 0.19622 0.19687 0.43323
 C427 C 0.20964 0.17590 0.44553
 C428 C 0.17629 0.13883 0.45616
 C429 C 0.12881 0.12161 0.45460
 C430 C 0.11536 0.14206 0.44214
 C431 C 0.14866 0.17937 0.43162
 C432 C 0.23153 0.23690 0.42220
 N433 N 0.21949 0.26220 0.41235
 N434 N 0.25117 0.29806 0.40240
 C435 C 0.29625 0.31008 0.40184
 N436 N 0.30829 0.28482 0.41171
 N437 N 0.27665 0.24909 0.42171
 C438 C 0.33134 0.34901 0.39039
 C439 C 0.37519 0.35499 0.38730
 C440 C 0.40762 0.39015 0.37592
 C441 C 0.39722 0.42056 0.36745
 C442 C 0.35387 0.41548 0.37083
 C443 C 0.32114 0.37988 0.38212
 H444 H 0.24597 0.18849 0.44710
 H445 H 0.18761 0.12355 0.46560
 H446 H 0.07904 0.12995 0.44080
 H447 H 0.13708 0.19457 0.42225
 H448 H 0.38425 0.33189 0.39344
 H449 H 0.44081 0.39328 0.37365
 H450 H 0.34484 0.43832 0.36447
 H451 H 0.28775 0.37638 0.38427
 C452 C -0.01182 0.75088 0.77547
 C453 C 0.02870 0.78139 0.78381
 C454 C 0.03069 0.81608 0.79367
 C455 C -0.00768 0.82136 0.79540
 C456 C -0.04872 0.79000 0.78749
 C457 C -0.05079 0.75510 0.77763
 C458 C -0.01267 0.71606 0.76415
 N459 N -0.05250 0.68403 0.75699
 N460 N -0.05273 0.65386 0.74638
 C461 C -0.01312 0.65453 0.74243
 N462 N 0.02664 0.68642 0.74965
 N463 N 0.02684 0.71649 0.76029
 C464 C -0.01307 0.62197 0.73020
 C465 C 0.02889 0.62699 0.72429
 C466 C 0.02896 0.59728 0.71230
 C467 C -0.01294 0.56171 0.70602
 C468 C -0.05491 0.55624 0.71212
 C469 C -0.05497 0.58608 0.72403
 H470 H 0.05919 0.77885 0.78259
 H471 H 0.06250 0.83903 0.79991
 H472 H -0.07876 0.79336 0.78850
 H473 H -0.08258 0.73216 0.77140
 H474 H 0.06182 0.65430 0.72876
 H475 H 0.06186 0.60234 0.70787
 H476 H -0.08783 0.52919 0.70755
 H477 H -0.08792 0.58108 0.72833
   
