data_POSCAR
  _audit_creation_date              2014-09-24
  _audit_creation_method            'ToBaCCo'
  _symmetry_space_group_name_H-M    'P1'
  _symmetry_Int_Tables_number       1
  _symmetry_cell_setting            triclinic
  loop_
  _symmetry_equiv_pos_as_xyz
 x,y,z
_cell_length_a 32.9311
_cell_length_b 32.8999
_cell_length_c 32.9337
_cell_angle_alpha 75.975500
_cell_angle_beta 102.942900
_cell_angle_gamma 75.985600
loop_
  _atom_site_label
  _atom_site_type_symbol
  _atom_site_fract_x
  _atom_site_fract_y
  _atom_site_fract_z
O1 O 0.57133 0.48174 0.04311
 O2 O 0.45501 0.49595 0.03423
 O3 O 0.52217 0.43006 0.04355
 O4 O 0.50402 0.54772 0.03282
 O5 O 0.48792 0.56382 -0.03910
 O6 O 0.50661 0.44642 -0.02834
 O7 O 0.43907 0.51185 -0.03759
 O8 O 0.55548 0.49818 -0.02881
 Cu9 Cu 0.51469 0.48725 0.04562
 Cu10 Cu 0.49567 0.50666 -0.04065
 C11 C 0.58325 0.48813 0.00862
 C12 C 0.42708 0.50579 -0.00306
 C13 C 0.51707 0.41819 0.00928
 C14 C 0.49340 0.57583 -0.00495
 O15 O -0.03827 0.56449 0.48938
 O16 O -0.02859 0.44747 0.50599
 O17 O -0.02792 0.49798 0.55610
 O18 O -0.03799 0.51379 0.43924
 O19 O 0.03390 0.49745 0.45467
 O20 O 0.04400 0.48117 0.57141
 O21 O 0.04330 0.43071 0.52106
 O22 O 0.03358 0.54797 0.50492
 Cu23 Cu -0.04038 0.50757 0.49613
 Cu24 Cu 0.04589 0.48766 0.51450
 C25 C -0.00397 0.57633 0.49496
 C26 C 0.00887 0.41910 0.51589
 C27 C 0.00971 0.48740 0.58368
 C28 C -0.00364 0.50788 0.42703
 O29 O 0.49127 0.03632 0.54251
 O30 O 0.47720 0.04556 0.42608
 O31 O 0.42584 0.04613 0.47619
 O32 O 0.54269 0.03574 0.49238
 O33 O 0.55898 -0.03656 0.50920
 O34 O 0.44225 -0.02618 0.49293
 O35 O 0.49351 -0.02675 0.44297
 O36 O 0.50753 -0.03592 0.55929
 Cu37 Cu 0.48266 0.04817 0.48264
 Cu38 Cu 0.50221 -0.03858 0.50279
 C39 C 0.50127 -0.00131 0.57087
 C40 C 0.48336 0.01088 0.41466
 C41 C 0.41410 0.01164 0.48222
 C42 C 0.57078 -0.00212 0.50305
 C43 C 0.50109 -0.00606 -0.04589
 C44 C 0.49458 -0.03867 -0.01338
 C45 C 0.49242 -0.03143 0.02647
 C46 C 0.49625 0.00757 0.03472
 C47 C 0.50217 0.04043 0.00202
 C48 C 0.50463 0.03308 -0.03773
 H49 H 0.50929 0.05827 -0.06275
 H50 H 0.48777 -0.05660 0.05152
 C51 C -0.00102 0.50001 1.04604
 C52 C -0.03577 0.50150 1.01097
 C53 C -0.02869 0.50233 0.97038
 C54 C 0.01221 0.50118 0.96393
 C55 C 0.04700 0.49967 0.99898
 C56 C 0.03991 0.49890 1.03959
 H57 H 0.06626 0.49878 1.06618
 H58 H -0.05501 0.50235 0.94381
 C59 C 0.03558 0.00727 0.49712
 C60 C 0.00268 0.03989 0.50307
 C61 C -0.03665 0.03185 0.50617
 C62 C -0.04414 -0.00772 0.50324
 C63 C -0.01143 -0.04010 0.49670
 C64 C 0.02800 -0.03217 0.49391
 H65 H 0.05323 -0.05712 0.48923
 H66 H -0.06186 0.05683 0.51083
 C67 C -0.28388 0.48515 1.01753
 C68 C -0.31396 0.49325 0.97676
 C69 C -0.35695 0.49322 0.97392
 C70 C -0.37044 0.48513 1.01193
 C71 C -0.33970 0.47619 1.05289
 C72 C -0.29671 0.47625 1.05562
 C73 C -0.24034 0.48742 1.01987
 C74 C -0.20432 0.49013 1.02074
 C75 C -0.16186 0.49414 1.02026
 C76 C -0.12363 0.46278 1.05081
 C77 C -0.08244 0.46568 1.04858
 C78 C -0.07916 0.50009 1.01583
 C79 C -0.11767 0.53176 0.98573
 C80 C -0.15876 0.52882 0.98799
 H81 H -0.30437 0.50021 0.94705
 H82 H -0.37977 0.50026 0.94191
 H83 H -0.34905 0.46990 1.08275
 H84 H -0.27369 0.46998 1.08734
 H85 H -0.12566 0.43570 1.07580
 H86 H -0.05317 0.44053 1.07169
 H87 H -0.11586 0.55848 0.96019
 H88 H -0.18811 0.55322 0.96415
 C89 C 0.29598 0.51081 0.98919
 C90 C 0.32652 0.50229 1.02976
 C91 C 0.36965 0.50143 1.03227
 C92 C 0.38308 0.50902 0.99408
 C93 C 0.35171 0.51842 0.95325
 C94 C 0.30855 0.51922 0.95091
 C95 C 0.25220 0.50964 0.98733
 C96 C 0.21600 0.50783 0.98707
 C97 C 0.17338 0.50487 0.98840
 C98 C 0.13525 0.53650 0.95799
 C99 C 0.09398 0.53445 0.96082
 C100 C 0.09049 0.50063 0.99404
 C101 C 0.12890 0.46879 1.02414
 C102 C 0.17008 0.47088 1.02128
 H103 H 0.31713 0.49574 1.05961
 H104 H 0.39256 0.49417 1.06431
 H105 H 0.36056 0.52452 0.92308
 H106 H 0.28514 0.52586 0.91931
 H107 H 0.13743 0.56307 0.93255
 H108 H 0.06482 0.55974 0.93769
 H109 H 0.12696 0.44248 1.05002
 H110 H 0.19936 0.44628 1.04504
 C111 C -0.01426 -0.29148 0.48824
 C112 C 0.02681 -0.32224 0.49705
 C113 C 0.03023 -0.36578 0.49845
 C114 C -0.00753 -0.37933 0.49113
 C115 C -0.04882 -0.34773 0.48146
 C116 C -0.05207 -0.30421 0.48011
 C117 C -0.01735 -0.24711 0.48840
 C118 C -0.01914 -0.21021 0.48894
 C119 C -0.02008 -0.16646 0.48980
 C120 C -0.01201 -0.13795 0.45566
 C121 C -0.01021 -0.09645 0.45756
 C122 C -0.01658 -0.08290 0.49360
 C123 C -0.02529 -0.11139 0.52751
 C124 C -0.02709 -0.15297 0.52556
 H125 H 0.05631 -0.31269 0.50333
 H126 H 0.06259 -0.38888 0.50591
 H127 H -0.07870 -0.35664 0.47555
 H128 H -0.08404 -0.28062 0.47319
 H129 H -0.00641 -0.14809 0.42791
 H130 H -0.00340 -0.07499 0.43111
 H131 H -0.02965 -0.10187 0.55589
 H132 H -0.03311 -0.17488 0.55229
 C133 C 0.01693 0.28523 0.52267
 C134 C 0.05508 0.29761 0.52882
 C135 C 0.05274 0.34095 0.52768
 C136 C 0.01211 0.37245 0.52023
 C137 C -0.02588 0.35937 0.51495
 C138 C -0.02344 0.31610 0.51616
 C139 C 0.01847 0.24154 0.52112
 C140 C 0.01809 0.20567 0.51860
 C141 C 0.01555 0.16379 0.51427
 C142 C 0.04726 0.12432 0.54245
 C143 C 0.04353 0.08381 0.53865
 C144 C 0.00812 0.08250 0.50650
 C145 C -0.02338 0.12224 0.47826
 C146 C -0.01963 0.16261 0.48209
 H147 H 0.08649 0.27400 0.53377
 H148 H 0.08257 0.34998 0.53178
 H149 H -0.05765 0.38275 0.50917
 H150 H -0.05319 0.30690 0.51128
 H151 H 0.07453 0.12485 0.56759
 H152 H 0.06785 0.05352 0.56113
 H153 H -0.05092 0.12194 0.45328
 H154 H -0.04438 0.19292 0.46016
 C155 C 0.50705 -0.01055 -0.29752
 C156 C 0.49791 0.03056 -0.32848
 C157 C 0.49668 0.03362 -0.37185
 C158 C 0.50454 -0.00455 -0.38505
 C159 C 0.51439 -0.04587 -0.35330
 C160 C 0.51556 -0.04876 -0.30994
 C161 C 0.50708 -0.01324 -0.25321
 C162 C 0.50678 -0.01463 -0.21634
 C163 C 0.50629 -0.01509 -0.17262
 C164 C 0.54077 -0.00759 -0.14503
 C165 C 0.53935 -0.00552 -0.10347
 C166 C 0.50347 -0.01107 -0.08894
 C167 C 0.46915 -0.01910 -0.11657
 C168 C 0.47062 -0.02117 -0.15819
 H169 H 0.49134 0.06036 -0.31919
 H170 H 0.48905 0.06602 -0.39507
 H171 H 0.52068 -0.07605 -0.36195
 H172 H 0.52275 -0.08077 -0.28620
 H173 H 0.56845 -0.00270 -0.15588
 H174 H 0.56612 0.00074 -0.08270
 H175 H 0.44088 -0.02282 -0.10630
 H176 H 0.44362 -0.02673 -0.17938
 C177 C 0.47822 0.01926 0.28129
 C178 C 0.48588 -0.02152 0.31218
 C179 C 0.48666 -0.02412 0.35534
 C180 C 0.47980 0.01412 0.36826
 C181 C 0.47131 0.05512 0.33677
 C182 C 0.47059 0.05763 0.29356
 C183 C 0.47985 0.02113 0.23758
 C184 C 0.48231 0.02116 0.20159
 C185 C 0.48644 0.01919 0.15945
 C186 C 0.51834 -0.01637 0.15724
 C187 C 0.52181 -0.01964 0.11660
 C188 C 0.49349 0.01272 0.07761
 C189 C 0.46168 0.04857 0.07996
 C190 C 0.45823 0.05182 0.12075
 H191 H 0.49190 -0.05144 0.30305
 H192 H 0.49329 -0.05618 0.37872
 H193 H 0.46597 0.08516 0.34566
 H194 H 0.46471 0.08936 0.26993
 H195 H 0.54029 -0.04182 0.18696
 H196 H 0.54652 -0.04754 0.11550
 H197 H 0.43913 0.07355 0.05027
 H198 H 0.43331 0.07939 0.12208
 C199 C 0.48512 -0.28936 -0.01667
 C200 C 0.47707 -0.30245 -0.05429
 C201 C 0.47878 -0.34612 -0.05060
 C202 C 0.48864 -0.37729 -0.00915
 C203 C 0.49593 -0.36359 0.02840
 C204 C 0.49418 -0.31991 0.02461
 C205 C 0.48512 -0.24493 -0.02014
 C206 C 0.48564 -0.20800 -0.02214
 C207 C 0.48660 -0.16429 -0.02317
 C208 C 0.52241 -0.15093 -0.03026
 C209 C 0.52465 -0.10953 -0.02819
 C210 C 0.49100 -0.08110 -0.01911
 C211 C 0.45486 -0.09447 -0.01276
 C212 C 0.45266 -0.13581 -0.01483
 H213 H 0.47002 -0.27905 -0.08641
 H214 H 0.47308 -0.35560 -0.08014
 H215 H 0.50365 -0.38674 0.06077
 H216 H 0.50045 -0.31010 0.05395
 H217 H 0.54898 -0.17285 -0.03646
 H218 H 0.55309 -0.10012 -0.03255
 H219 H 0.42862 -0.07304 -0.00566
 H220 H 0.42490 -0.14587 -0.00914
 C221 C 0.52498 0.28399 0.01826
 C222 C 0.51871 0.31462 -0.02217
 C223 C 0.51727 0.35799 -0.02488
 C224 C 0.52205 0.37139 0.01291
 C225 C 0.52940 0.34009 0.05364
 C226 C 0.53076 0.29666 0.05625
 C227 C 0.52319 0.24038 0.01993
 C228 C 0.52028 0.20467 0.01945
 C229 C 0.51528 0.16314 0.01654
 C230 C 0.54346 0.12331 0.04764
 C231 C 0.53902 0.08316 0.04341
 C232 C 0.50622 0.08260 0.00810
 C233 C 0.47797 0.12270 -0.02275
 C234 C 0.48243 0.16271 -0.01850
 H235 H 0.51410 0.30518 -0.05179
 H236 H 0.51160 0.38120 -0.05671
 H237 H 0.53312 0.34939 0.08331
 H238 H 0.53550 0.27322 0.08769
 H239 H 0.56911 0.12329 0.07479
 H240 H 0.56150 0.05256 0.06723
 H241 H 0.45250 0.12297 -0.05020
 H242 H 0.46050 0.19332 -0.04278
 C243 C -0.29501 -0.01283 0.51042
 C244 C -0.30783 -0.05083 0.51864
 C245 C -0.35135 -0.04749 0.51710
 C246 C -0.38261 -0.00602 0.50724
 C247 C -0.36919 0.03191 0.49966
 C248 C -0.32569 0.02848 0.50124
 C249 C -0.25064 -0.01589 0.51057
 C250 C -0.21376 -0.01747 0.51026
 C251 C -0.17010 -0.01800 0.50962
 C252 C -0.14248 -0.01028 0.54391
 C253 C -0.10110 -0.00791 0.54216
 C254 C -0.08682 -0.01336 0.50613
 C255 C -0.11443 -0.02170 0.47206
 C256 C -0.15587 -0.02407 0.47386
 H257 H -0.28433 -0.08297 0.52579
 H258 H -0.36062 -0.07731 0.52302
 H259 H -0.39241 0.06432 0.49194
 H260 H -0.31609 0.05810 0.49484
 H261 H -0.15321 -0.00537 0.57165
 H262 H -0.08031 -0.00140 0.56873
 H263 H -0.10432 -0.02535 0.44369
 H264 H -0.17712 -0.02978 0.44701
 C265 C 0.28039 0.02105 0.47582
 C266 C 0.29298 0.05923 0.46857
 C267 C 0.33630 0.05643 0.46956
 C268 C 0.36754 0.01530 0.47797
 C269 C 0.35425 -0.02272 0.48431
 C270 C 0.31099 -0.01981 0.48326
 C271 C 0.23674 0.02308 0.47768
 C272 C 0.20091 0.02302 0.48053
 C273 C 0.15913 0.02066 0.48535
 C274 C 0.15768 -0.01479 0.51794
 C275 C 0.11740 -0.01860 0.52207
 C276 C 0.07804 0.01310 0.49371
 C277 C 0.07961 0.04888 0.46124
 C278 C 0.12004 0.05266 0.45713
 H279 H 0.26955 0.09102 0.46290
 H280 H 0.34550 0.08629 0.46461
 H281 H 0.37744 -0.05486 0.49085
 H282 H 0.30160 -0.04959 0.48901
 H283 H 0.18772 -0.03975 0.53990
 H284 H 0.11687 -0.04642 0.54728
 H285 H 0.04959 0.07335 0.43868
 H286 H 0.12081 0.08014 0.43168
 C287 C -0.01252 0.51382 1.29354
 C288 C 0.02807 0.50631 1.32361
 C289 C 0.03081 0.50538 1.36679
 C290 C -0.00710 0.51192 1.38052
 C291 C -0.04793 0.52032 1.34982
 C292 C -0.05057 0.52120 1.30659
 C293 C -0.01451 0.51235 1.24986
 C294 C -0.01472 0.51016 1.21382
 C295 C -0.01312 0.50662 1.17148
 C296 C 0.01966 0.47215 1.16878
 C297 C 0.02298 0.46957 1.12788
 C298 C -0.00658 0.50139 1.08918
 C299 C -0.03978 0.53566 1.09205
 C300 C -0.04306 0.53821 1.13305
 H301 H 0.05774 0.50052 1.31386
 H302 H 0.06273 0.49883 1.38956
 H303 H -0.07770 0.52541 1.35937
 H304 H -0.08215 0.52698 1.28357
 H305 H 0.04305 0.44759 1.19831
 H306 H 0.04882 0.44293 1.12638
 H307 H -0.06249 0.56092 1.06263
 H308 H -0.06842 0.56514 1.13479
 C309 C 0.01991 0.48306 0.71696
 C310 C 0.05779 0.47435 0.70376
 C311 C 0.05466 0.47461 0.66064
 C312 C 0.01350 0.48370 0.63016
 C313 C -0.02426 0.49149 0.64406
 C314 C -0.02103 0.49119 0.68716
 C315 C 0.02256 0.48538 0.76048
 C316 C 0.02351 0.48832 0.79642
 C317 C 0.02286 0.49277 0.83866
 C318 C -0.00923 0.52792 0.84126
 C319 C -0.01187 0.53123 0.88211
 C320 C 0.01767 0.49946 0.92086
 C321 C 0.05031 0.46461 0.91809
 C322 C 0.05291 0.46133 0.87712
 H323 H 0.08964 0.46808 0.72658
 H324 H 0.08434 0.46855 0.65097
 H325 H -0.05641 0.49863 0.62143
 H326 H -0.05056 0.49801 0.69705
 H327 H -0.03268 0.55237 0.81170
 H328 H -0.03731 0.55828 0.88356
 H329 H 0.07297 0.43940 0.94756
 H330 H 0.07774 0.43389 0.87545
   
