data_POSCAR
  _audit_creation_date              2014-09-24
  _audit_creation_method            'ToBaCCo'
  _symmetry_space_group_name_H-M    'P1'
  _symmetry_Int_Tables_number       1
  _symmetry_cell_setting            triclinic
  loop_
  _symmetry_equiv_pos_as_xyz
 x,y,z
_cell_length_a 42.1066
_cell_length_b 42.1643
_cell_length_c 8.5246
_cell_angle_alpha 90.111200
_cell_angle_beta 90.013800
_cell_angle_gamma 89.999200
loop_
  _atom_site_label
  _atom_site_type_symbol
  _atom_site_fract_x
  _atom_site_fract_y
  _atom_site_fract_z
O1 O 0.27483 0.27683 0.40925
 O2 O 0.21470 0.21478 0.33543
 O3 O 0.27540 0.21508 0.39819
 O4 O 0.21428 0.27665 0.34691
 O5 O 0.22398 0.27838 0.09299
 O6 O 0.28477 0.21645 0.14419
 O7 O 0.22439 0.21684 0.08156
 O8 O 0.28436 0.27820 0.15514
 Cu9 Cu 0.24366 0.24561 0.39711
 Cu10 Cu 0.25554 0.24764 0.09401
 C11 C 0.28988 0.28820 0.29296
 C12 C 0.20917 0.20527 0.19659
 C13 C 0.29064 0.20512 0.27916
 C14 C 0.20867 0.28813 0.21210
 O15 O 0.78197 0.27997 0.31790
 O16 O 0.72116 0.21836 0.38564
 O17 O 0.78186 0.21815 0.32741
 O18 O 0.72150 0.28010 0.38280
 O19 O 0.71179 0.27917 0.12876
 O20 O 0.77258 0.21717 0.07297
 O21 O 0.71202 0.21732 0.13137
 O22 O 0.77221 0.27882 0.06393
 Cu23 Cu 0.75275 0.24928 0.37797
 Cu24 Cu 0.74101 0.24803 0.07479
 C25 C 0.78753 0.28992 0.18001
 C26 C 0.70614 0.20714 0.26840
 C27 C 0.78763 0.20700 0.19201
 C28 C 0.70623 0.29026 0.26469
 O29 O 0.72448 0.77861 0.58980
 O30 O 0.78487 0.71649 0.65753
 O31 O 0.72465 0.71695 0.58809
 O32 O 0.78483 0.77832 0.65394
 O33 O 0.77474 0.77859 0.90740
 O34 O 0.71366 0.71704 0.84092
 O35 O 0.77386 0.71695 0.91033
 O36 O 0.71426 0.77890 0.84341
 Cu37 Cu 0.75592 0.74755 0.59769
 Cu38 Cu 0.74291 0.74789 0.90019
 C39 C 0.70907 0.78944 0.70647
 C40 C 0.78969 0.70611 0.79537
 C41 C 0.70874 0.70646 0.70332
 C42 C 0.79029 0.78910 0.79049
 O43 O 0.28347 0.78159 0.86007
 O44 O 0.22374 0.72005 0.93547
 O45 O 0.28402 0.71981 0.86942
 O46 O 0.22278 0.78158 0.91932
 O47 O 0.21339 0.77969 0.66535
 O48 O 0.27403 0.71783 0.61574
 O49 O 0.21366 0.71788 0.68192
 O50 O 0.27405 0.77952 0.60592
 Cu51 Cu 0.25466 0.75103 0.92061
 Cu52 Cu 0.24263 0.74849 0.61763
 C53 C 0.28913 0.79115 0.72181
 C54 C 0.20839 0.70837 0.82087
 C55 C 0.28947 0.70820 0.73440
 C56 C 0.20752 0.79128 0.79985
 O57 O 0.96651 -0.02651 -0.16620
 O58 O 1.02802 0.03374 -0.10297
 O59 O 1.02809 -0.02633 -0.17051
 O60 O 0.96619 0.03355 -0.09681
 O61 O 0.96717 0.02260 0.15593
 O62 O 1.02907 -0.03722 0.08234
 O63 O 1.02904 0.02302 0.15002
 O64 O 0.96704 -0.03765 0.08641
 Cu65 Cu 0.99708 0.00486 -0.15875
 Cu66 Cu 0.99815 -0.00854 0.14353
 C67 C 0.95624 -0.04250 -0.05076
 C68 C 1.03920 0.03872 0.03314
 C69 C 1.03923 -0.04203 -0.05591
 C70 C 0.95606 0.03837 0.04150
 O71 O 0.46573 0.47490 0.34595
 O72 O 0.52769 0.53472 0.40700
 O73 O 0.52723 0.47493 0.33415
 O74 O 0.46596 0.53471 0.42011
 O75 O 0.46792 0.52279 0.67167
 O76 O 0.52929 0.46302 0.58572
 O77 O 0.52972 0.52309 0.65890
 O78 O 0.46734 0.46270 0.59725
 Cu79 Cu 0.49641 0.50614 0.35212
 Cu80 Cu 0.49876 0.49160 0.65335
 C81 C 0.45595 0.45844 0.46073
 C82 C 0.53940 0.53921 0.54244
 C83 C 0.53878 0.45869 0.44586
 C84 C 0.45644 0.53905 0.55989
 O85 O -0.03208 0.53256 0.10186
 O86 O 0.02934 0.47263 0.17530
 O87 O 0.02970 0.53300 0.11206
 O88 O -0.03235 0.47213 0.16107
 O89 O -0.03045 0.46272 -0.09320
 O90 O 0.03148 0.52347 -0.14211
 O91 O 0.03147 0.46296 -0.07867
 O92 O -0.03036 0.52329 -0.15254
 Cu93 Cu -0.00155 0.50371 0.16208
 Cu94 Cu 0.00079 0.49197 -0.14127
 C95 C -0.04185 0.53827 -0.03604
 C96 C 0.04096 0.45742 0.06011
 C97 C 0.04118 0.53873 -0.02275
 C98 C -0.04207 0.45701 0.04121
 O99 O 0.53035 1.02167 0.32340
 O100 O 0.46852 0.96175 0.39938
 O101 O 0.46864 1.02153 0.32265
 O102 O 0.53056 0.96171 0.39724
 O103 O 0.53061 0.97440 0.64832
 O104 O 0.46868 1.03410 0.57390
 O105 O 0.46891 0.97446 0.65042
 O106 O 0.53060 1.03425 0.57461
 Cu107 Cu 0.49952 0.99030 0.33580
 Cu108 Cu 0.49972 1.00564 0.63662
 C109 C 0.54104 1.03826 0.43633
 C110 C 0.45810 0.95787 0.53788
 C111 C 0.45805 1.03807 0.43586
 C112 C 0.54120 0.95780 0.53527
 C113 C 1.13762 0.13407 0.11199
 C114 C 1.14621 0.14231 0.26738
 C115 C 1.16953 0.16553 0.29436
 C116 C 1.18477 0.18063 0.16837
 C117 C 1.17647 0.17210 0.01466
 C118 C 1.15325 0.14921 -0.01349
 C119 C 1.11231 0.10951 0.08806
 C120 C 1.10149 0.10037 -0.06173
 C121 C 1.07783 0.07750 -0.07821
 C122 C 1.06429 0.06297 0.05373
 C123 C 1.07485 0.07188 0.20372
 C124 C 1.09855 0.09510 0.22177
 C125 C 1.13156 0.12729 0.39481
 C126 C 1.10837 0.10410 0.37249
 H127 H 1.13818 0.13352 0.51385
 H128 H 1.09782 0.09316 0.47501
 H129 H 1.17585 0.17176 0.41381
 H130 H 1.18786 0.18329 -0.08483
 H131 H 1.07020 0.07113 -0.19547
 H132 H 1.06446 0.06094 0.30664
 H133 H 1.14801 0.14377 -0.13434
 H134 H 1.11081 0.11061 -0.16795
 C135 C 0.63739 0.63499 0.62061
 C136 C 0.64569 0.64362 0.77590
 C137 C 0.66886 0.66703 0.80250
 C138 C 0.68428 0.68183 0.67621
 C139 C 0.67625 0.67290 0.52269
 C140 C 0.65315 0.64989 0.49494
 C141 C 0.61225 0.61026 0.59691
 C142 C 0.60164 0.60085 0.44714
 C143 C 0.57811 0.57786 0.43081
 C144 C 0.56450 0.56345 0.56289
 C145 C 0.57487 0.57260 0.71287
 C146 C 0.59841 0.59599 0.73077
 C147 C 0.63094 0.62876 0.90350
 C148 C 0.60795 0.60534 0.88143
 H149 H 0.63734 0.63526 1.02248
 H150 H 0.59734 0.59452 0.98406
 H151 H 0.67501 0.67356 0.92178
 H152 H 0.68777 0.68386 0.42295
 H153 H 0.57061 0.57130 0.31359
 H154 H 0.56439 0.56178 0.81588
 H155 H 0.64816 0.64414 0.37418
 H156 H 0.61100 0.61100 0.34079
 C157 C -0.14056 0.36120 0.10444
 C158 C -0.14945 0.35250 0.25865
 C159 C -0.17285 0.32925 0.28246
 C160 C -0.18792 0.31454 0.15455
 C161 C -0.17932 0.32349 0.00197
 C162 C -0.15598 0.34643 -0.02309
 C163 C -0.11519 0.38584 0.08407
 C164 C -0.10405 0.39549 -0.06421
 C165 C -0.08036 0.41847 -0.07711
 C166 C -0.06716 0.43259 0.05707
 C167 C -0.07804 0.42313 0.20545
 C168 C -0.10173 0.39983 0.21989
 C169 C -0.13505 0.36711 0.38818
 C170 C -0.11183 0.39036 0.36922
 H171 H -0.14190 0.36053 0.50630
 H172 H -0.10149 0.40099 0.47330
 H173 H -0.17940 0.32270 0.40107
 H174 H -0.19057 0.31260 -0.09894
 H175 H -0.07245 0.42526 -0.19319
 H176 H -0.06791 0.43373 0.31011
 H177 H -0.15049 0.35222 -0.14316
 H178 H -0.11314 0.38557 -0.17187
 C179 C 0.36079 0.86312 0.65754
 C180 C 0.34670 0.84825 0.52557
 C181 C 0.32313 0.82499 0.54649
 C182 C 0.31353 0.81598 0.69775
 C183 C 0.32769 0.83070 0.82796
 C184 C 0.35091 0.85391 0.80857
 C185 C 0.38582 0.88783 0.63060
 C186 C 0.40075 0.90439 0.75405
 C187 C 0.42404 0.92706 0.72322
 C188 C 0.43321 0.93385 0.56876
 C189 C 0.41838 0.91759 0.44470
 C190 C 0.39474 0.89484 0.47436
 C191 C 0.35639 0.85652 0.37379
 C192 C 0.37997 0.87919 0.34878
 H193 H 0.34568 0.84515 0.27259
 H194 H 0.38671 0.88461 0.22906
 H195 H 0.31248 0.81369 0.44491
 H196 H 0.32081 0.82428 0.94616
 H197 H 0.43501 0.93923 0.82127
 H198 H 0.42510 0.92275 0.32465
 H199 H 0.36083 0.86415 0.91366
 H200 H 0.39484 0.90034 0.87537
 C201 C -0.13948 0.63424 -0.11963
 C202 C -0.14707 0.64322 -0.27514
 C203 C -0.17013 0.66669 -0.30257
 C204 C -0.18607 0.68129 -0.17687
 C205 C -0.17869 0.67205 -0.02320
 C206 C -0.15576 0.64893 0.00536
 C207 C -0.11447 0.60944 -0.09492
 C208 C -0.10473 0.59957 0.05530
 C209 C -0.08129 0.57655 0.07277
 C210 C -0.06685 0.56256 -0.05858
 C211 C -0.07635 0.57216 -0.20913
 C212 C -0.09988 0.59555 -0.22813
 C213 C -0.13168 0.62867 -0.40209
 C214 C -0.10871 0.60526 -0.37912
 H215 H -0.13753 0.63543 -0.52128
 H216 H -0.09756 0.59472 -0.48130
 H217 H -0.17574 0.67349 -0.42200
 H218 H -0.19059 0.68283 0.07610
 H219 H -0.07450 0.56967 0.19047
 H220 H -0.06528 0.56164 -0.31157
 H221 H -0.15128 0.64297 0.12623
 H222 H -0.11472 0.60935 0.16127
 C223 C 0.36134 1.13400 0.32831
 C224 C 0.34591 1.14659 0.46220
 C225 C 0.32229 1.16987 0.44525
 C226 C 0.31404 1.18156 0.29615
 C227 C 0.32988 1.16931 0.16395
 C228 C 0.35304 1.14586 0.17948
 C229 C 0.38615 1.10890 0.35140
 C230 C 0.40188 1.09385 0.22562
 C231 C 0.42501 1.07079 0.25340
 C232 C 0.43319 1.06220 0.40701
 C233 C 0.41745 1.07682 0.53307
 C234 C 0.39392 1.09979 0.50651
 C235 C 0.35436 1.13614 0.61245
 C236 C 0.37804 1.11347 0.63419
 H237 H 0.34267 1.14586 0.71516
 H238 H 0.38387 1.10640 0.75297
 H239 H 0.31063 1.17912 0.54915
 H240 H 0.32432 1.17771 0.04706
 H241 H 0.43669 1.05983 0.15393
 H242 H 0.42331 1.07014 0.65239
 H243 H 0.36427 1.13757 0.07338
 H244 H 0.39666 1.09938 0.10492
 C245 C 1.13654 -0.13774 -0.15594
 C246 C 1.15198 -0.14980 -0.02105
 C247 C 1.17571 -0.17304 -0.03621
 C248 C 1.18407 -0.18517 -0.18449
 C249 C 1.16827 -0.17337 -0.31764
 C250 C 1.14499 -0.15001 -0.30389
 C251 C 1.11156 -0.11272 -0.13486
 C252 C 1.09572 -0.09827 -0.26184
 C253 C 1.07244 -0.07528 -0.23592
 C254 C 1.06420 -0.06614 -0.08302
 C255 C 1.08005 -0.08016 0.04419
 C256 C 1.10371 -0.10309 0.01949
 C257 C 1.14342 -0.13887 0.12838
 C258 C 1.11963 -0.11622 0.14828
 H259 H 1.15510 -0.14817 0.23187
 H260 H 1.11372 -0.10876 0.26649
 H261 H 1.18737 -0.18192 0.06835
 H262 H 1.17391 -0.18210 -0.43399
 H263 H 1.06069 -0.06478 -0.33623
 H264 H 1.07414 -0.07307 0.16299
 H265 H 1.13381 -0.14210 -0.41068
 H266 H 1.10098 -0.10424 -0.38209
 C267 C 0.63487 0.36274 0.32380
 C268 C 0.64937 0.34855 0.45616
 C269 C 0.67272 0.32511 0.43601
 C270 C 0.68177 0.31515 0.28529
 C271 C 0.66718 0.32905 0.15435
 C272 C 0.64411 0.35254 0.17294
 C273 C 0.61015 0.38781 0.35058
 C274 C 0.59482 0.40393 0.22713
 C275 C 0.57183 0.42696 0.25836
 C276 C 0.56341 0.43450 0.41320
 C277 C 0.57868 0.41872 0.53696
 C278 C 0.60196 0.39566 0.50701
 C279 C 0.64039 0.35765 0.60790
 C280 C 0.61709 0.38058 0.63277
 H281 H 0.65143 0.34675 0.70927
 H282 H 0.61089 0.38665 0.75254
 H283 H 0.68367 0.31444 0.53823
 H284 H 0.67367 0.32183 0.03663
 H285 H 0.56048 0.43879 0.16057
 H286 H 0.57255 0.42446 0.65726
 H287 H 0.63378 0.36223 0.06770
 H288 H 0.60022 0.39922 0.10569
 C289 C 0.86052 -0.13951 -0.15549
 C290 C 0.84517 -0.15226 -0.02200
 C291 C 0.82167 -0.17573 -0.03989
 C292 C 0.81357 -0.18731 -0.18967
 C293 C 0.82943 -0.17487 -0.32113
 C294 C 0.85241 -0.15136 -0.30464
 C295 C 0.88508 -0.11420 -0.13212
 C296 C 0.90050 -0.09903 -0.25805
 C297 C 0.92337 -0.07578 -0.23067
 C298 C 0.93164 -0.06700 -0.07728
 C299 C 0.91621 -0.08173 0.04928
 C300 C 0.89286 -0.10499 0.02297
 C301 C 0.85361 -0.14175 0.12846
 C302 C 0.87714 -0.11885 0.15051
 H303 H 0.84203 -0.15157 0.23101
 H304 H 0.88296 -0.11173 0.26936
 H305 H 0.80999 -0.18515 0.06338
 H306 H 0.82404 -0.18317 -0.43855
 H307 H 0.93478 -0.06477 -0.33058
 H308 H 0.92216 -0.07490 0.16842
 H309 H 0.86361 -0.14303 -0.41051
 H310 H 0.89523 -0.10457 -0.37877
 C311 C 0.36029 0.36152 0.35208
 C312 C 0.34682 0.34666 0.48524
 C313 C 0.32367 0.32288 0.46619
 C314 C 0.31400 0.31335 0.31560
 C315 C 0.32767 0.32799 0.18429
 C316 C 0.35041 0.35170 0.20182
 C317 C 0.38474 0.38688 0.37679
 C318 C 0.39879 0.40361 0.25184
 C319 C 0.42164 0.42681 0.28024
 C320 C 0.43127 0.43401 0.43370
 C321 C 0.41726 0.41769 0.55946
 C322 C 0.39400 0.39437 0.53219
 C323 C 0.35671 0.35545 0.63620
 C324 C 0.37992 0.37864 0.65912
 H325 H 0.34649 0.34408 0.73836
 H326 H 0.38687 0.38443 0.77824
 H327 H 0.31342 0.31162 0.56859
 H328 H 0.32074 0.32117 0.06658
 H329 H 0.43196 0.43902 0.18088
 H330 H 0.42434 0.42319 0.67874
 H331 H 0.35997 0.36181 0.09586
 H332 H 0.39251 0.39931 0.13110
 C333 C 0.13785 0.63611 -0.09526
 C334 C 0.14624 0.64460 -0.25045
 C335 C 0.16914 0.66822 -0.27689
 C336 C 0.18420 0.68352 -0.15072
 C337 C 0.17606 0.67485 0.00287
 C338 C 0.15320 0.65153 0.03056
 C339 C 0.11304 0.61099 -0.07214
 C340 C 0.10244 0.60138 0.07725
 C341 C 0.07921 0.57798 0.09253
 C342 C 0.06595 0.56341 -0.04031
 C343 C 0.07635 0.57279 -0.18968
 C344 C 0.09956 0.59647 -0.20652
 C345 C 0.13186 0.62943 -0.37838
 C346 C 0.10913 0.60580 -0.35690
 H347 H 0.13833 0.63586 -0.49723
 H348 H 0.09877 0.59475 -0.45984
 H349 H 0.17534 0.67456 -0.39623
 H350 H 0.18731 0.68620 0.10251
 H351 H 0.07165 0.57125 0.20928
 H352 H 0.06617 0.56184 -0.29335
 H353 H 0.14803 0.64596 0.15125
 H354 H 0.11162 0.61166 0.18391
 C355 C 0.63648 1.13522 0.32432
 C356 C 0.65148 1.14869 0.45742
 C357 C 0.67473 1.17235 0.43878
 C358 C 0.68302 1.18341 0.28857
 C359 C 0.66759 1.17022 0.15732
 C360 C 0.64480 1.14651 0.17460
 C361 C 0.61209 1.10979 0.34886
 C362 C 0.59680 1.09401 0.22385
 C363 C 0.57400 1.07072 0.25273
 C364 C 0.56570 1.06257 0.40671
 C365 C 0.58103 1.07788 0.53214
 C366 C 0.60423 1.10115 0.50445
 C367 C 0.64296 1.13870 0.60835
 C368 C 0.61967 1.11565 0.63139
 H369 H 0.65430 1.14905 0.71053
 H370 H 0.61378 1.10895 0.75060
 H371 H 0.68610 1.18231 0.54187
 H372 H 0.67315 1.17808 0.03954
 H373 H 0.56265 1.05924 0.15374
 H374 H 0.57506 1.07157 0.65180
 H375 H 0.63391 1.13757 0.06896
 H376 H 0.60211 1.09915 0.10284
 C377 C 0.13719 0.36080 0.16398
 C378 C 0.15151 0.34725 0.02926
 C379 C 0.17491 0.32372 0.04552
 C380 C 0.18415 0.31307 0.19465
 C381 C 0.16972 0.32635 0.32777
 C382 C 0.14663 0.34989 0.31306
 C383 C 0.11244 0.38600 0.14161
 C384 C 0.09730 0.40146 0.26792
 C385 C 0.07429 0.42464 0.24097
 C386 C 0.06564 0.43303 0.08766
 C387 C 0.08071 0.41791 -0.03902
 C388 C 0.10403 0.39467 -0.01330
 C389 C 0.14230 0.35712 -0.12084
 C390 C 0.11897 0.38020 -0.14166
 H391 H 0.15318 0.34672 -0.22407
 H392 H 0.11260 0.38688 -0.26031
 H393 H 0.18575 0.31352 -0.05835
 H394 H 0.17635 0.31862 0.44436
 H395 H 0.06311 0.43593 0.34097
 H396 H 0.07439 0.42429 -0.15816
 H397 H 0.13647 0.35907 0.41996
 H398 H 0.10286 0.39611 0.38845
 C399 C 0.63799 0.86219 0.64831
 C400 C 0.65198 0.84767 0.51518
 C401 C 0.67537 0.82416 0.53423
 C402 C 0.68484 0.81452 0.68471
 C403 C 0.67074 0.82885 0.81612
 C404 C 0.64773 0.85234 0.79860
 C405 C 0.61318 0.88721 0.62327
 C406 C 0.59844 0.90358 0.74792
 C407 C 0.57528 0.92648 0.71872
 C408 C 0.56606 0.93369 0.56478
 C409 C 0.58076 0.91769 0.43960
 C410 C 0.60427 0.89472 0.46758
 C411 C 0.64236 0.85649 0.36407
 C412 C 0.61891 0.87937 0.34082
 H413 H 0.65298 0.84537 0.26201
 H414 H 0.61219 0.88519 0.22152
 H415 H 0.68595 0.81316 0.43175
 H416 H 0.67754 0.82193 0.93375
 H417 H 0.56441 0.93847 0.81756
 H418 H 0.57403 0.92319 0.31994
 H419 H 0.63783 0.86227 0.90446
 H420 H 0.60440 0.89917 0.86890
 C421 C 0.85910 0.13433 0.14422
 C422 C 0.84517 0.14811 0.00926
 C423 C 0.82171 0.17161 0.02521
 C424 C 0.81206 0.18199 0.17430
 C425 C 0.82608 0.16843 0.30763
 C426 C 0.84920 0.14493 0.29321
 C427 C 0.88399 0.10925 0.12226
 C428 C 0.89878 0.09360 0.24878
 C429 C 0.92200 0.07058 0.22217
 C430 C 0.93118 0.06256 0.06905
 C431 C 0.91644 0.07786 -0.05782
 C432 C 0.89293 0.10092 -0.03250
 C433 C 0.85487 0.13853 -0.14070
 C434 C 0.87833 0.11557 -0.16112
 H435 H 0.84428 0.14909 -0.24410
 H436 H 0.88510 0.10912 -0.27966
 H437 H 0.81119 0.18202 -0.07875
 H438 H 0.81912 0.17594 0.42425
 H439 H 0.93291 0.05913 0.32225
 H440 H 0.92316 0.07174 -0.17687
 H441 H 0.85904 0.13556 0.40029
 H442 H 0.89282 0.09868 0.36919
 C443 C 0.36072 0.63552 0.67882
 C444 C 0.34621 0.64948 0.54587
 C445 C 0.32294 0.67300 0.56501
 C446 C 0.31396 0.68330 0.71525
 C447 C 0.32858 0.66969 0.84680
 C448 C 0.35159 0.64610 0.82923
 C449 C 0.38533 0.61030 0.65303
 C450 C 0.40061 0.59431 0.77707
 C451 C 0.42351 0.57113 0.74665
 C452 C 0.43186 0.56331 0.59205
 C453 C 0.41661 0.57894 0.46778
 C454 C 0.39343 0.60213 0.49690
 C455 C 0.35511 0.64006 0.39449
 C456 C 0.37833 0.61702 0.37054
 H457 H 0.34407 0.65080 0.29270
 H458 H 0.38447 0.61070 0.25100
 H459 H 0.31197 0.68347 0.46230
 H460 H 0.32214 0.67719 0.96417
 H461 H 0.43485 0.55942 0.84481
 H462 H 0.42268 0.57298 0.34766
 H463 H 0.36195 0.63660 0.93486
 H464 H 0.39525 0.59926 0.89834
   
