data_POSCAR
  _audit_creation_date              2014-09-24
  _audit_creation_method            'ToBaCCo'
  _symmetry_space_group_name_H-M    'P1'
  _symmetry_Int_Tables_number       1
  _symmetry_cell_setting            triclinic
  loop_
  _symmetry_equiv_pos_as_xyz
 x,y,z
_cell_length_a 23.3235
_cell_length_b 24.2621
_cell_length_c 41.7650
_cell_angle_alpha 87.000300
_cell_angle_beta 92.647600
_cell_angle_gamma 94.197400
loop_
  _atom_site_label
  _atom_site_type_symbol
  _atom_site_fract_x
  _atom_site_fract_y
  _atom_site_fract_z
C1 C -0.02319 0.33297 0.98029
 C2 C -0.02748 0.32756 1.01292
 C3 C -0.00431 0.37688 1.02518
 N4 N 0.01302 0.41256 1.00092
 C5 C 0.00150 0.38566 0.97351
 C6 C 0.00157 0.38826 1.05823
 C7 C 0.01489 0.44302 1.06820
 C8 C 0.03903 0.45668 1.09797
 C9 C 0.03943 0.51310 1.09926
 C10 C 0.01750 0.53305 1.06976
 N11 N 0.00280 0.48986 1.05096
 C12 C 0.00495 0.58869 1.06193
 C13 C -0.00498 0.60841 1.02978
 C14 C -0.02101 0.66098 1.02010
 C15 C -0.01681 0.66600 0.98744
 C16 C 0.00228 0.61675 0.97819
 N17 N 0.00943 0.58171 1.00404
 C18 C 0.01839 0.60685 0.94694
 C19 C 0.02893 0.55370 0.93733
 C20 C 0.05463 0.54306 0.90923
 C21 C 0.05407 0.48644 0.90804
 C22 C 0.02810 0.46415 0.93547
 N23 N 0.01286 0.50536 0.95316
 C24 C 0.01527 0.40717 0.94252
 H25 H -0.03764 0.30197 0.96343
 H26 H -0.04667 0.29162 1.02588
 H27 H -0.01268 0.50046 0.97303
 H28 H 0.05390 0.42884 1.11716
 H29 H 0.05322 0.53599 1.12008
 H30 H -0.03241 0.69344 1.03486
 H31 H -0.02528 0.70240 0.97236
 H32 H 0.07056 0.46424 0.88903
 H33 H -0.02105 0.49147 1.02928
 H34 H 0.07169 0.57293 0.89132
 C35 C 0.67158 -0.01235 0.51826
 C36 C 0.66901 -0.01674 0.48569
 C37 C 0.61820 0.00516 0.47421
 N38 N 0.58892 0.02141 0.49884
 C39 C 0.62176 0.01094 0.52571
 C40 C 0.60096 0.01251 0.44133
 C41 C 0.54233 0.01781 0.43153
 C42 C 0.52282 0.03639 0.40123
 C43 C 0.46378 0.03433 0.40149
 C44 C 0.44855 0.01558 0.43208
 N45 N 0.49663 0.00515 0.45015
 C46 C 0.39123 0.00576 0.44192
 C47 C 0.37638 -0.00206 0.47434
 C48 C 0.32153 -0.01759 0.48457
 C49 C 0.32428 -0.01589 0.51741
 C50 C 0.38053 0.00126 0.52613
 N51 N 0.41225 0.00983 0.49978
 C52 C 0.40095 0.01210 0.55772
 C53 C 0.45929 0.02692 0.56572
 C54 C 0.47917 0.05200 0.59362
 C55 C 0.53825 0.05638 0.59323
 C56 C 0.55267 0.03355 0.56520
 N57 N 0.50435 0.01581 0.54855
 C58 C 0.60910 0.02564 0.55666
 H59 H 0.70593 -0.02523 0.53465
 H60 H 0.70099 -0.03413 0.47202
 H61 H 0.50249 -0.00837 0.52864
 H62 H 0.54822 0.05071 0.38102
 H63 H 0.43545 0.04574 0.38137
 H64 H 0.28327 -0.02835 0.46992
 H65 H 0.28868 -0.02533 0.53297
 H66 H 0.56720 0.07374 0.61167
 H67 H 0.49786 -0.01430 0.47294
 H68 H 0.45375 0.06554 0.61237
 C69 C 0.08098 0.00847 0.27297
 H70 H 0.07981 0.04228 0.25513
 C71 C 0.12750 0.00670 0.29522
 H72 H 0.16209 0.03894 0.29395
 C73 C 0.03692 -0.07369 0.29683
 H74 H 0.00092 -0.10444 0.29752
 C75 C 0.08276 -0.07729 0.31941
 H76 H 0.08116 -0.11073 0.33760
 N77 N 0.03724 -0.03180 0.27388
 C78 C -0.07438 -0.09480 0.19541
 H79 H -0.10278 -0.06147 0.19200
 C80 C -0.07972 -0.13852 0.17482
 H81 H -0.11203 -0.13770 0.15542
 C82 C 0.00468 -0.13341 0.22371
 H83 H 0.03840 -0.13063 0.24227
 C84 C 0.00083 -0.17801 0.20369
 H85 H 0.03131 -0.20956 0.20749
 Zn86 Zn -0.02660 -0.02968 0.24411
 N87 N -0.03290 -0.09311 0.21936
 C88 C -0.05557 0.07201 0.21239
 N89 N -0.01727 0.03219 0.21479
 C90 C 0.02737 0.03359 0.19489
 C91 C 0.03526 0.07658 0.17161
 C92 C -0.04929 0.11579 0.18946
 C93 C -0.13794 -0.06530 0.26588
 C94 C -0.18619 -0.06241 0.28421
 C95 C -0.14190 0.02132 0.30614
 C96 C -0.09455 0.01675 0.28747
 N97 N -0.09354 -0.02582 0.26766
 H98 H -0.09158 0.06955 0.22787
 H99 H 0.05684 0.00105 0.19710
 H100 H 0.07185 0.07720 0.15658
 H101 H -0.08050 0.14686 0.18779
 H102 H -0.13568 -0.09968 0.25068
 H103 H -0.22006 -0.09523 0.28297
 H104 H -0.14167 0.05566 0.32171
 H105 H -0.05828 0.04712 0.28880
 C106 C -0.04183 -0.18111 0.17884
 C107 C 0.12919 -0.03695 0.31862
 C108 C -0.18874 -0.01850 0.30469
 C109 C -0.00372 0.11828 0.16846
 C110 C -0.01602 0.11367 0.78746
 H111 H -0.05562 0.10698 0.77333
 C112 C -0.01048 0.15615 0.80895
 H113 H -0.04636 0.18134 0.81133
 C114 C 0.07860 0.08908 0.80160
 H115 H 0.11319 0.06275 0.79842
 C116 C 0.08596 0.13098 0.82341
 H117 H 0.12685 0.13697 0.83651
 N118 N 0.02776 0.08037 0.78473
 C119 C 0.11297 -0.01660 0.72416
 H120 H 0.10424 -0.05565 0.73725
 C121 C 0.15433 -0.01221 0.70086
 H122 H 0.17687 -0.04826 0.69625
 C123 C 0.09347 0.07726 0.71376
 H124 H 0.06901 0.11178 0.71879
 C125 C 0.13443 0.08350 0.69026
 H126 H 0.14206 0.12354 0.67798
 Zn127 Zn 0.01992 0.02041 0.75715
 N128 N 0.08238 0.02739 0.72948
 C129 C -0.04777 0.02968 0.69971
 N130 N -0.04987 0.02137 0.73209
 C131 C -0.10098 0.01117 0.74650
 C132 C -0.15276 0.00969 0.72815
 C133 C -0.09823 0.02891 0.68056
 C134 C 0.02896 -0.04862 0.81382
 C135 C 0.02680 -0.09866 0.83188
 C136 C 0.00213 -0.14651 0.78332
 C137 C 0.00518 -0.09544 0.76611
 N138 N 0.01874 -0.04784 0.78149
 H139 H -0.00699 0.03630 0.68847
 H140 H -0.10144 0.00400 0.77228
 H141 H -0.19295 0.00231 0.74012
 H142 H -0.09530 0.03533 0.65481
 H143 H 0.03838 -0.01048 0.82581
 H144 H 0.03490 -0.09824 0.85761
 H145 H -0.00787 -0.18387 0.77051
 H146 H -0.00341 -0.09364 0.74041
 C147 C 0.16439 0.03789 0.68288
 C148 C 0.04057 0.16454 0.82780
 C149 C 0.01291 -0.14849 0.81673
 C150 C -0.15166 0.01853 0.69463
 C151 C -0.04536 -0.30913 0.11311
 C152 C 0.00509 -0.29357 0.13092
 N153 N 0.05417 -0.31831 0.12625
 C154 C 0.05509 -0.35797 0.10448
 C155 C 0.00460 -0.37361 0.08639
 N156 N -0.04438 -0.34832 0.09117
 N157 N -0.09434 -0.28426 0.11769
 C158 C -0.09506 -0.24386 0.13901
 C159 C -0.04415 -0.22694 0.15645
 N160 N 0.00457 -0.25295 0.15202
 H161 H 0.09528 -0.37574 0.10055
 H162 H -0.13517 -0.22565 0.14232
 C163 C 0.01227 0.25095 0.09829
 C164 C -0.01449 0.25703 0.12710
 N165 N -0.03606 0.30588 0.13262
 C166 C -0.03163 0.34927 0.11071
 C167 C -0.00416 0.34387 0.08168
 N168 N 0.01666 0.29417 0.07635
 N169 N 0.03331 0.20187 0.09263
 C170 C 0.02910 0.15854 0.11462
 C171 C 0.00257 0.16445 0.14379
 N172 N -0.01884 0.21384 0.14905
 H173 H -0.05080 0.38708 0.11559
 H174 H 0.04535 0.11977 0.10896
 C175 C 0.27924 0.04403 0.60659
 C176 C 0.28529 0.00675 0.63316
 N177 N 0.32810 -0.02838 0.63443
 C178 C 0.36534 -0.02779 0.61031
 C179 C 0.35950 0.00956 0.58368
 N180 N 0.31638 0.04464 0.58244
 N181 N 0.23634 0.07902 0.60537
 C182 C 0.19922 0.07862 0.62957
 C183 C 0.20514 0.04140 0.65642
 N184 N 0.24819 0.00619 0.65727
 H185 H 0.39935 -0.05599 0.61188
 H186 H 0.16477 0.10622 0.62734
 C187 C -0.29949 0.00938 0.63160
 C188 C -0.25065 0.04404 0.62415
 N189 N -0.24922 0.07340 0.59563
 C190 C -0.29430 0.06914 0.57393
 C191 C -0.34281 0.03338 0.58088
 N192 N -0.34442 0.00464 0.60980
 N193 N -0.30043 -0.02013 0.66014
 C194 C -0.25448 -0.01697 0.68145
 C195 C -0.20487 0.01693 0.67376
 N196 N -0.20472 0.04673 0.64520
 H197 H -0.29211 0.09282 0.55127
 H198 H -0.25612 -0.04215 0.70358
 C199 C 0.00070 -0.29665 0.87542
 C200 C 0.03965 -0.25213 0.88341
 N201 N 0.07254 -0.25540 0.91099
 C202 C 0.06764 -0.30096 0.93127
 C203 C 0.02745 -0.34501 0.92389
 N204 N -0.00473 -0.34203 0.89585
 N205 N -0.03228 -0.29299 0.84785
 C206 C -0.02842 -0.24666 0.82799
 C207 C 0.00985 -0.20144 0.83622
 N208 N 0.04303 -0.20576 0.86383
 H209 H 0.09402 -0.30249 0.95327
 H210 H -0.05633 -0.24467 0.80662
 C211 C 0.04915 0.28542 0.89809
 C212 C 0.01472 0.29148 0.86987
 N213 N -0.01768 0.33574 0.86542
 C214 C -0.01742 0.37413 0.88804
 C215 C 0.01661 0.36789 0.91650
 N216 N 0.04916 0.32349 0.92077
 N217 N 0.08104 0.24090 0.90270
 C218 C 0.08009 0.20198 0.88037
 C219 C 0.04534 0.20754 0.85202
 N220 N 0.01341 0.25246 0.84766
 H221 H -0.04420 0.40867 0.88415
 H222 H 0.10497 0.16638 0.88530
 C223 C -0.32526 -0.01101 0.36799
 C224 C -0.27079 0.01534 0.37447
 N225 N -0.26053 0.04252 0.40187
 C226 C -0.30192 0.04352 0.42359
 C227 C -0.35641 0.01537 0.41799
 N228 N -0.36678 -0.01031 0.38975
 N229 N -0.33525 -0.03800 0.34039
 C230 C -0.29292 -0.04055 0.31921
 C231 C -0.23761 -0.01521 0.32601
 N232 N -0.22858 0.01262 0.35349
 H233 H -0.29241 0.06650 0.44495
 H234 H -0.30276 -0.06186 0.29733
 C235 C 0.27073 -0.04149 0.38619
 C236 C 0.25271 0.00900 0.37286
 N237 N 0.28044 0.05720 0.38196
 C238 C 0.32543 0.05719 0.40387
 C239 C 0.34375 0.00672 0.41714
 N240 N 0.31578 -0.04156 0.40800
 N241 N 0.24265 -0.08958 0.37725
 C242 C 0.19712 -0.08958 0.35568
 C243 C 0.17859 -0.03903 0.34230
 N244 N 0.20741 0.00904 0.35125
 H245 H 0.34665 0.09609 0.41100
 H246 H 0.17637 -0.12874 0.34874
   
