data_POSCAR
  _audit_creation_date              2014-09-24
  _audit_creation_method            'ToBaCCo'
  _symmetry_space_group_name_H-M    'P1'
  _symmetry_Int_Tables_number       1
  _symmetry_cell_setting            triclinic
  loop_
  _symmetry_equiv_pos_as_xyz
 x,y,z
_cell_length_a 26.8320
_cell_length_b 26.9525
_cell_length_c 26.2091
_cell_angle_alpha 89.741600
_cell_angle_beta 90.848000
_cell_angle_gamma 90.262600
loop_
  _atom_site_label
  _atom_site_type_symbol
  _atom_site_fract_x
  _atom_site_fract_y
  _atom_site_fract_z
C1 C 0.28941 0.26484 1.34465
 C2 C 0.25009 0.27603 1.37720
 C3 C 0.21961 0.31783 1.36847
 C4 C 0.22879 0.34744 1.32499
 C5 C 0.26839 0.33680 1.29239
 C6 C 0.29864 0.29519 1.30203
 C7 C 0.32019 0.22408 1.35491
 C8 C 0.35970 0.21210 1.32245
 C9 C 0.36814 0.24237 1.27930
 C10 C 0.33862 0.28442 1.26960
 C11 C 0.34960 0.31693 1.22916
 C12 C 0.32101 0.35998 1.22070
 C13 C 0.27933 0.36841 1.25145
 H14 H 0.24382 0.25154 1.40922
 H15 H 0.20661 0.38003 1.31703
 H16 H 0.31220 0.20105 1.38777
 H17 H 0.39906 0.23496 1.25444
 H18 H 0.38158 0.30956 1.20572
 H19 H 0.25574 0.40025 1.24458
 C20 C 1.20866 0.73530 0.84205
 C21 C 1.24922 0.72629 0.87530
 C22 C 1.28126 0.68561 0.86769
 C23 C 1.27337 0.65596 0.82408
 C24 C 1.23264 0.66401 0.79126
 C25 C 1.19995 0.70357 0.80034
 C26 C 1.17538 0.77418 0.85140
 C27 C 1.13237 0.78118 0.82045
 C28 C 1.12480 0.74930 0.77834
 C29 C 1.15785 0.71049 0.76848
 C30 C 1.14806 0.67702 0.72859
 C31 C 1.17969 0.63639 0.72050
 C32 C 1.22272 0.63118 0.75107
 H33 H 1.25487 0.75088 0.90736
 H34 H 1.29700 0.62456 0.81654
 H35 H 1.18246 0.79751 0.88419
 H36 H 1.09307 0.75372 0.75293
 H37 H 1.11455 0.68144 0.70553
 H38 H 1.24801 0.60072 0.74465
 C39 C 0.70591 -0.23138 0.16045
 C40 C 0.74651 -0.22144 0.12886
 C41 C 0.77610 -0.17872 0.13607
 C42 C 0.76596 -0.14709 0.17720
 C43 C 0.72576 -0.15682 0.20946
 C44 C 0.69527 -0.19880 0.20063
 C45 C 0.67495 -0.27264 0.15132
 C46 C 0.63250 -0.28171 0.18128
 C47 C 0.62306 -0.24909 0.22207
 C48 C 0.65373 -0.20781 0.23156
 C49 C 0.64282 -0.17485 0.27108
 C50 C 0.67313 -0.13315 0.28036
 C51 C 0.71473 -0.12449 0.24956
 H52 H 0.75440 -0.24683 0.09819
 H53 H 0.78817 -0.11396 0.18329
 H54 H 0.68385 -0.29678 0.11996
 H55 H 0.59153 -0.25460 0.24658
 H56 H 0.61092 -0.18196 0.29498
 H57 H 0.73788 -0.09201 0.25603
 C58 C -0.21909 1.23779 -0.34111
 C59 C -0.26191 1.23051 -0.37189
 C60 C -0.29215 1.18802 -0.36549
 C61 C -0.27994 1.15415 -0.32612
 C62 C -0.23849 1.16182 -0.29417
 C63 C -0.20780 1.20359 -0.30173
 C64 C -0.18603 1.27730 -0.35059
 C65 C -0.14197 1.28303 -0.32112
 C66 C -0.13315 1.25048 -0.27991
 C67 C -0.16510 1.21044 -0.27065
 C68 C -0.15352 1.17581 -0.23224
 C69 C -0.18354 1.13357 -0.22503
 C70 C -0.22647 1.12734 -0.25572
 H71 H -0.26977 1.25655 -0.40252
 H72 H -0.30309 1.12186 -0.31936
 H73 H -0.19380 1.30217 -0.38221
 H74 H -0.10062 1.25503 -0.25554
 H75 H -0.11984 1.18083 -0.20955
 H76 H -0.25043 1.09539 -0.25025
 C77 C 0.71733 0.72756 0.65020
 C78 C 0.76078 0.71547 0.62423
 C79 C 0.78375 0.66944 0.63198
 C80 C 0.76337 0.63566 0.66704
 C81 C 0.72031 0.64787 0.69413
 C82 C 0.69613 0.69338 0.68446
 C83 C 0.69583 0.77412 0.64355
 C84 C 0.65143 0.78647 0.66803
 C85 C 0.62830 0.75129 0.69991
 C86 C 0.65190 0.70551 0.71031
 C87 C 0.63422 0.67312 0.74837
 C88 C 0.66092 0.62979 0.76125
 C89 C 0.70257 0.61653 0.73254
 H90 H 0.77643 0.74186 0.59749
 H91 H 0.78191 0.60065 0.67444
 H92 H 0.71335 0.80077 0.61826
 H93 H 0.59461 0.76112 0.71977
 H94 H 0.60195 0.68333 0.77031
 H95 H 0.72235 0.58251 0.74144
 C96 C 0.79710 0.27667 0.14035
 C97 C 0.75610 0.28816 0.10845
 C98 C 0.72706 0.33086 0.11697
 C99 C 0.74041 0.36223 0.15794
 C100 C 0.78014 0.35035 0.19102
 C101 C 0.80855 0.30741 0.18229
 C102 C 0.82640 0.23453 0.13138
 C103 C 0.86561 0.22123 0.16527
 C104 C 0.87579 0.25188 0.20761
 C105 C 0.84823 0.29508 0.21578
 C106 C 0.85958 0.32598 0.25731
 C107 C 0.83106 0.36845 0.26649
 C108 C 0.79134 0.38039 0.23332
 H109 H 0.74774 0.26411 0.07647
 H110 H 0.71862 0.39490 0.16598
 H111 H 0.81715 0.21113 0.09908
 H112 H 0.90638 0.24346 0.23356
 H113 H 0.88989 0.31632 0.28325
 H114 H 0.76940 0.41330 0.24023
 C115 C 0.28743 0.22593 0.84949
 C116 C 0.24530 0.21549 0.87890
 C117 C 0.21875 0.17053 0.87287
 C118 C 0.23560 0.13606 0.83672
 C119 C 0.27671 0.14673 0.80606
 C120 C 0.30262 0.19190 0.81217
 C121 C 0.31488 0.26975 0.85712
 C122 C 0.35635 0.28067 0.82691
 C123 C 0.37015 0.24760 0.78838
 C124 C 0.34394 0.20286 0.78122
 C125 C 0.35892 0.16844 0.74441
 C126 C 0.33356 0.12292 0.73866
 C127 C 0.29226 0.11268 0.76940
 H128 H 0.23442 0.24205 0.90747
 H129 H 0.21586 0.10141 0.83075
 H130 H 0.30379 0.29567 0.88632
 H131 H 0.40223 0.25597 0.76514
 H132 H 0.39113 0.17657 0.72133
 H133 H 0.27181 0.07823 0.76470
 C134 C 0.20222 0.77507 0.35442
 C135 C 0.24183 0.78676 0.38783
 C136 C 0.27222 0.82861 0.37929
 C137 C 0.26257 0.85866 0.33612
 C138 C 0.22303 0.84741 0.30225
 C139 C 0.19290 0.80530 0.31140
 C140 C 0.17187 0.73347 0.36344
 C141 C 0.13318 0.72033 0.32895
 C142 C 0.12450 0.75075 0.28591
 C143 C 0.15331 0.79348 0.27758
 C144 C 0.14286 0.82472 0.23598
 C145 C 0.17212 0.86705 0.22692
 C146 C 0.21267 0.87782 0.25969
 H147 H 0.24905 0.76270 0.42023
 H148 H 0.28511 0.89135 0.32921
 H149 H 0.17986 0.71044 0.39649
 H150 H 0.09411 0.74257 0.25960
 H151 H 0.11221 0.81574 0.21018
 H152 H 0.23538 0.91045 0.25272
 Zn153 Zn 0.06066 0.98505 -0.01687
 Zn154 Zn -0.04379 0.95610 -0.04258
 Zn155 Zn -0.01647 0.98141 0.06496
 Zn156 Zn -0.02087 1.06077 -0.01542
 O157 O -0.00501 0.99589 -0.00232
 O158 O 0.06940 0.93791 -0.06449
 O159 O -0.08199 0.91500 -0.00692
 O160 O 0.03866 0.95990 0.09790
 O161 O -0.00867 0.91804 -0.08388
 O162 O 0.09601 0.96524 0.03803
 O163 O -0.06333 0.93400 0.07322
 O164 O -0.04528 1.09157 0.03903
 O165 O -0.08524 0.98973 -0.08339
 O166 O -0.03826 1.03432 0.09967
 O167 O -0.06715 1.06784 -0.06503
 O168 O 0.03199 1.09670 -0.03505
 O169 O 0.09121 1.03987 -0.03983
 C170 C 0.03772 0.91277 -0.09001
 C171 C -0.08800 0.90894 0.04054
 C172 C 0.08337 0.95521 0.08340
 C173 C -0.05013 1.07772 0.08500
 C174 C -0.09169 1.03577 -0.09039
 C175 C 0.07639 1.08431 -0.04486
 Zn176 Zn 0.48698 -0.01751 0.43867
 Zn177 Zn 0.47190 -0.04348 0.54837
 Zn178 Zn 0.56782 -0.00050 0.51433
 Zn179 Zn 0.47863 0.06392 0.51545
 O180 O 0.50109 0.00068 0.50433
 O181 O 0.43936 -0.06446 0.43477
 O182 O 0.51598 -0.07939 0.58688
 O183 O 0.60134 -0.02088 0.45997
 O184 O 0.43051 -0.08573 0.51597
 O185 O 0.54042 -0.04056 0.40574
 O186 O 0.58546 -0.04158 0.56383
 O187 O 0.52765 0.10695 0.53292
 O188 O 0.43340 -0.01217 0.59290
 O189 O 0.59321 0.05754 0.53313
 O190 O 0.43568 0.06647 0.56744
 O191 O 0.44949 0.09047 0.45963
 O192 O 0.46400 0.03329 0.40107
 C193 C 0.41828 -0.08999 0.46918
 C194 C 0.56282 -0.07304 0.59107
 C195 C 0.58643 -0.03864 0.41769
 C196 C 0.57387 0.09964 0.54016
 C197 C 0.42066 0.03285 0.59779
 C198 C 0.44812 0.07572 0.41363
 Zn199 Zn 0.93744 0.48496 0.51286
 Zn200 Zn 1.04130 0.45607 0.54099
 Zn201 Zn 1.01603 0.48060 0.43272
 Zn202 Zn 1.01969 0.56029 0.51167
 O203 O 1.00353 0.49550 0.49944
 O204 O 0.92745 0.43770 0.56022
 O205 O 1.07915 0.41427 0.50668
 O206 O 0.96153 0.45854 0.39949
 O207 O 1.00494 0.41844 0.58217
 O208 O 0.90266 0.46564 0.45750
 O209 O 1.06279 0.43342 0.42594
 O210 O 1.04258 0.59155 0.45650
 O211 O 1.08307 0.49000 0.58146
 O212 O 1.03758 0.53337 0.39711
 O213 O 1.06678 0.56773 0.55996
 O214 O 0.96794 0.59532 0.53361
 O215 O 0.90745 0.53919 0.53666
 C216 C 0.95835 0.41290 0.58695
 C217 C 1.08608 0.40806 0.45946
 C218 C 0.91638 0.45465 0.41283
 C219 C 1.04801 0.57734 0.41086
 C220 C 1.09054 0.53615 0.58659
 C221 C 0.92352 0.58299 0.54382
 Zn222 Zn 0.47991 0.51930 0.93286
 Zn223 Zn 0.45847 0.54014 1.04182
 Zn224 Zn 0.48185 0.43699 1.01047
 Zn225 Zn 0.56178 0.51557 1.01198
 O226 O 0.49564 0.50286 0.99915
 O227 O 0.43397 0.56732 0.92822
 O228 O 0.41829 0.50394 1.08044
 O229 O 0.45532 0.40747 0.95522
 O230 O 0.41981 0.58394 1.00932
 O231 O 0.45547 0.46757 0.89718
 O232 O 0.43752 0.42669 1.06072
 O233 O 0.59491 0.46096 1.03191
 O234 O 0.49508 0.57574 1.08517
 O235 O 0.53678 0.40225 1.02745
 O236 O 0.57238 0.56107 1.06146
 O237 O 0.59307 0.53822 0.95639
 O238 O 0.53244 0.54216 0.89817
 C239 C 0.41212 0.59211 0.96227
 C240 C 0.41274 0.45760 1.08641
 C241 C 0.44620 0.42310 0.91031
 C242 C 0.58148 0.41590 1.03609
 C243 C 0.54155 0.58286 1.08993
 C244 C 0.57771 0.54819 0.91144
 N245 N 1.13916 0.33454 0.47523
 N246 N 1.17631 0.30908 0.44980
 C247 C 1.18218 0.33070 0.40352
 C248 C 1.14796 0.36948 0.39858
 C249 C 1.12244 0.37071 0.44411
 H250 H 1.14306 0.39519 0.36714
 H251 H 1.12808 0.32727 0.51257
 H252 H 1.19710 0.28072 0.46675
 N253 N 0.35868 0.66536 0.97856
 N254 N 0.32251 0.69220 0.95162
 C255 C 0.31839 0.67273 0.90422
 C256 C 0.35290 0.63438 0.90004
 C257 C 0.37646 0.63068 0.94706
 H258 H 0.35917 0.61012 0.86808
 H259 H 0.36825 0.67058 1.01694
 H260 H 0.30062 0.71947 0.96815
 N261 N -0.14779 0.83985 0.02567
 N262 N -0.18339 0.81665 0.05065
 C263 C -0.18469 0.83426 0.09877
 C264 C -0.14750 0.87006 0.10452
 C265 C -0.12539 0.87260 0.05718
 H266 H -0.13924 0.89302 0.13734
 H267 H -0.14027 0.83440 -0.01289
 H268 H -0.20774 0.79110 0.03366
 N269 N 0.60383 0.18759 0.54653
 N270 N 0.64286 0.21203 0.57213
 C271 C 0.66697 0.17820 0.60159
 C272 C 0.64478 0.13206 0.59421
 C273 C 0.60609 0.13941 0.55983
 H274 H 0.65571 0.09677 0.61061
 H275 H 0.57875 0.20408 0.52084
 H276 H 0.64964 0.25013 0.56989
 N277 N 0.44321 0.10857 0.32486
 N278 N 0.41980 0.14803 0.29970
 C279 C 0.39036 0.17099 0.33360
 C280 C 0.39529 0.14725 0.38079
 C281 C 0.42856 0.10897 0.37371
 H282 H 0.37829 0.15715 0.41648
 H283 H 0.46886 0.08459 0.30849
 H284 H 0.42355 0.15582 0.26090
 N285 N 0.97052 0.35320 0.65805
 N286 N 0.94433 0.31939 0.68254
 C287 C 0.89677 0.32013 0.66474
 C288 C 0.89287 0.35675 0.62729
 C289 C 0.94053 0.37636 0.62414
 H290 H 0.86090 0.36629 0.60369
 H291 H 1.00873 0.35909 0.66356
 H292 H 0.96011 0.29503 0.70917
 N293 N 0.02457 0.85796 -0.16463
 N294 N 0.05103 0.82148 -0.18999
 C295 C 0.09657 0.81761 -0.16739
 C296 C 0.09994 0.85253 -0.12811
 C297 C 0.05428 0.87634 -0.12755
 H298 H 0.13048 0.85896 -0.10156
 H299 H -0.01241 0.86758 -0.17258
 H300 H 0.03536 0.79975 -0.21889
 N301 N 0.53098 0.63165 1.16871
 N302 N 0.55619 0.66955 1.19433
 C303 C 0.59918 0.67883 1.16953
 C304 C 0.60233 0.64586 1.12854
 C305 C 0.55894 0.61781 1.12920
 H306 H 0.63056 0.64404 1.09962
 H307 H 0.49557 0.61842 1.17790
 H308 H 0.54147 0.68777 1.22563
 N309 N 0.34491 0.47093 1.14786
 N310 N 0.32054 0.44554 1.18273
 C311 C 0.33629 0.39800 1.18255
 C312 C 0.37238 0.39323 1.14518
 C313 C 0.37677 0.44044 1.12447
 H314 H 0.39400 0.36087 1.13573
 H315 H 0.34059 0.50894 1.14133
 H316 H 0.29531 0.46173 1.20749
 N317 N 0.67287 -0.04867 0.38608
 N318 N 0.69571 -0.07319 0.34973
 C319 C 0.66140 -0.09883 0.32238
 C320 C 0.61454 -0.08966 0.34191
 C321 C 0.62357 -0.05777 0.38224
 H322 H 0.57903 -0.10481 0.32935
 H323 H 0.69099 -0.02658 0.41331
 H324 H 0.73429 -0.07340 0.34502
 N325 N -0.15860 1.02097 -0.15522
 N326 N -0.18309 1.04667 -0.19043
 C327 C -0.16840 1.09459 -0.18787
 C328 C -0.13324 1.09940 -0.14873
 C329 C -0.12795 1.05188 -0.12941
 H330 H -0.11272 1.13220 -0.13711
 H331 H -0.16191 0.98264 -0.15012
 H332 H -0.20761 1.03074 -0.21701
 N333 N 1.15782 0.52327 0.65137
 N334 N 1.18163 0.54976 0.68635
 C335 C 1.16601 0.59727 0.68319
 C336 C 1.13098 0.60101 0.64388
 C337 C 1.12673 0.55328 0.62510
 H338 H 1.10965 0.63316 0.63209
 H339 H 1.16176 0.48501 0.64685
 H340 H 1.20616 0.53453 0.71338
 N341 N 0.90067 0.66918 0.56699
 N342 N 0.86400 0.69192 0.59030
 C343 C 0.82985 0.65782 0.60439
 C344 C 0.84537 0.61131 0.58903
 C345 C 0.89035 0.62030 0.56535
 H346 H 0.82681 0.57599 0.59451
 H347 H 0.93227 0.68699 0.55282
 H348 H 0.86322 0.73002 0.59726
 N349 N 0.61832 0.33126 1.03548
 N350 N 0.66019 0.30800 1.05669
 C351 C 0.68474 0.34149 1.08612
 C352 C 0.65967 0.38669 1.08296
 C353 C 0.61875 0.37865 1.05121
 H354 H 0.66951 0.42139 1.10116
 H355 H 0.59209 0.31439 1.01129
 H356 H 0.66794 0.27034 1.05250
 N357 N 0.10842 1.17088 -0.05134
 N358 N 0.14923 1.19475 -0.07312
 C359 C 0.17599 1.16030 -0.09803
 C360 C 0.15329 1.11408 -0.09156
 C361 C 0.11163 1.12235 -0.06233
 H362 H 0.16535 1.07851 -0.10567
 H363 H 0.08108 1.18817 -0.02984
 H364 H 0.15500 1.23305 -0.07211
 N365 N 0.35459 -0.15468 0.48802
 N366 N 0.31597 -0.17565 0.46472
 C367 C 0.31306 -0.15872 0.41616
 C368 C 0.35222 -0.12564 0.40845
 C369 C 0.37743 -0.12409 0.45499
 H370 H 0.36031 -0.10412 0.37461
 H371 H 0.36403 -0.16018 0.52643
 H372 H 0.29116 -0.19953 0.48296
 N373 N 0.63948 -0.08569 0.64138
 N374 N 0.66496 -0.12561 0.66258
 C375 C 0.63387 -0.16499 0.66273
 C376 C 0.58763 -0.15101 0.64223
 C377 C 0.59355 -0.10145 0.62771
 H378 H 0.55717 -0.17546 0.63145
 H379 H 0.65593 -0.05165 0.63221
 H380 H 0.70291 -0.12533 0.67210
 N381 N 1.05387 0.61291 0.32346
 N382 N 1.07647 0.65408 0.30091
 C383 C 1.10375 0.67765 0.33730
 C384 C 1.09825 0.65256 0.38346
 C385 C 1.06678 0.61288 0.37319
 H386 H 1.11393 0.66225 0.42038
 H387 H 1.03007 0.58794 0.30476
 H388 H 1.07396 0.66242 0.26204
 N389 N -0.05634 1.11351 0.17185
 N390 N -0.07861 1.15470 0.19388
 C391 C -0.10591 1.17809 0.15732
 C392 C -0.10088 1.15267 0.11148
 C393 C -0.06942 1.11313 0.12217
 H394 H -0.11660 1.16232 0.07451
 H395 H -0.03236 1.08892 0.19077
 H396 H -0.07572 1.16329 0.23260
 N397 N 0.42748 0.39385 0.82175
 N398 N 0.40455 0.35583 0.79975
 C399 C 0.38566 0.32629 0.83639
 C400 C 0.39763 0.34601 0.88375
 C401 C 0.42424 0.38874 0.87275
 H402 H 0.38836 0.33131 0.92094
 H403 H 0.44539 0.42243 0.80205
 H404 H 0.40135 0.35078 0.76035
 N405 N 0.66317 0.56032 0.87847
 N406 N 0.68476 0.58070 0.83855
 C407 C 0.64944 0.60089 0.80784
 C408 C 0.60304 0.59264 0.82919
 C409 C 0.61360 0.56661 0.87392
 H410 H 0.56697 0.60431 0.81467
 H411 H 0.68227 0.54241 0.90823
 H412 H 0.72327 0.58185 0.83339
 N413 N 0.36556 0.01235 0.67030
 N414 N 0.34279 0.03586 0.70731
 C415 C 0.35089 0.08508 0.70208
 C416 C 0.38000 0.09308 0.65936
 C417 C 0.38844 0.04595 0.64048
 H418 H 0.39424 0.12792 0.64482
 H419 H 0.36618 -0.02619 0.66636
 H420 H 0.32368 0.01792 0.73654
 N421 N 0.17090 0.94446 0.11495
 N422 N 0.19428 0.92199 0.15328
 C423 C 0.16018 0.89953 0.18286
 C424 C 0.11295 0.90880 0.16285
 C425 C 0.12146 0.93730 0.11983
 H426 H 0.07751 0.89555 0.17680
 H427 H 0.18865 0.96395 0.08581
 H428 H 0.23298 0.92078 0.15793
 N429 N 0.82967 0.44366 0.37918
 N430 N 0.80725 0.42166 0.34009
 C431 C 0.84207 0.39962 0.31147
 C432 C 0.88873 0.40854 0.33293
 C433 C 0.87915 0.43655 0.37574
 H434 H 0.92449 0.39570 0.31985
 H435 H 0.81125 0.46296 0.40772
 H436 H 0.76869 0.42066 0.33415
   
