data_POSCAR
  _audit_creation_date              2014-09-24
  _audit_creation_method            'ToBaCCo'
  _symmetry_space_group_name_H-M    'P1'
  _symmetry_Int_Tables_number       1
  _symmetry_cell_setting            triclinic
  loop_
  _symmetry_equiv_pos_as_xyz
 x,y,z
_cell_length_a 37.1056
_cell_length_b 38.7683
_cell_length_c 35.1077
_cell_angle_alpha 90.068800
_cell_angle_beta 90.706700
_cell_angle_gamma 91.085000
loop_
  _atom_site_label
  _atom_site_type_symbol
  _atom_site_fract_x
  _atom_site_fract_y
  _atom_site_fract_z
C1 C 0.18765 0.19138 0.24028
 N2 N 0.21460 0.17298 0.22481
 C3 C 0.22823 0.18223 0.19049
 N4 N 0.21461 0.20964 0.17147
 C5 C 0.18762 0.22795 0.18696
 N6 N 0.17407 0.21869 0.22122
 C7 C -0.18438 0.79714 0.24131
 N8 N -0.21271 0.81446 0.22649
 C9 C -0.22771 0.80438 0.19271
 N10 N -0.21403 0.77727 0.17349
 C11 C -0.18565 0.76004 0.18838
 N12 N -0.17073 0.77014 0.22211
 C13 C -0.21694 0.22030 -0.26025
 N14 N -0.24216 0.20250 -0.24028
 C15 C -0.25410 0.21509 -0.20674
 N16 N -0.24018 0.24529 -0.19270
 C17 C -0.21491 0.26312 -0.21284
 N18 N -0.20310 0.25037 -0.24632
 C19 C 0.19980 0.79874 -0.25039
 N20 N 0.23160 0.81310 -0.23853
 C21 C 0.25262 0.79634 -0.21289
 N22 N 0.24149 0.76535 -0.19863
 C23 C 0.20962 0.75103 -0.21072
 N24 N 0.18881 0.76787 -0.23633
 C25 C 0.20012 1.20042 0.77004
 N26 N 0.22803 1.18573 0.78889
 C27 C 0.24170 1.20046 0.82116
 N28 N 0.22725 1.22978 0.83482
 C29 C 0.19933 1.24459 0.81610
 N30 N 0.18558 1.22981 0.78376
 C31 C 0.80561 0.80462 0.78142
 N32 N 0.77346 0.81519 0.79473
 C33 C 0.75598 0.79655 0.82174
 N34 N 0.77086 0.76742 0.83579
 C35 C 0.80302 0.75672 0.82251
 N36 N 0.82049 0.77543 0.79544
 C37 C 0.20053 0.79380 1.25107
 N38 N 0.23325 0.80558 1.23942
 C39 C 0.25282 0.78664 1.21496
 N40 N 0.23943 0.75614 1.20162
 C41 C 0.20678 0.74420 1.21317
 N42 N 0.18710 0.76316 1.23770
 C43 C 0.79695 1.20357 1.23291
 N44 N 0.76551 1.19144 1.21737
 C45 C 0.74781 1.21030 1.19079
 N46 N 0.76177 1.24108 1.17939
 C47 C 0.79314 1.25332 1.19487
 N48 N 0.81092 1.23446 1.22147
 O49 O 0.53123 0.96864 0.93101
 O50 O 0.46752 0.96027 1.07971
 O51 O 0.57549 0.98745 1.04195
 O52 O 0.45698 0.94345 0.96350
 O53 O 0.53365 0.96042 1.07203
 O54 O 0.46599 0.98107 0.92214
 O55 O 0.44649 0.93637 1.02850
 O56 O 0.55771 0.95556 0.98357
 C57 C 0.55060 0.94853 0.94985
 C58 C 0.45071 0.93628 1.06346
 C59 C 0.56616 0.96456 1.06490
 C60 C 0.45555 0.95152 0.92995
 O61 O 0.47592 1.04259 0.95142
 O62 O 0.53316 1.02993 1.07239
 O63 O 0.58997 1.01309 0.97287
 O64 O 0.42376 1.00161 1.03634
 O65 O 0.46475 1.02610 1.07469
 O66 O 0.54154 1.03663 0.94877
 O67 O 0.42956 1.01043 0.96746
 O68 O 0.54881 1.04429 1.01553
 Co69 Co 0.50343 1.00538 0.94487
 Co70 Co 0.50015 0.99416 1.06820
 Co71 Co 0.55065 0.99938 0.99895
 Co72 Co 0.44390 0.97458 0.99880
 O73 O 0.49747 0.99189 1.00581
 C74 C 0.44272 1.03886 0.95598
 C75 C 0.54704 1.05131 1.04996
 C76 C 0.57548 1.03285 0.94687
 C77 C 0.43277 1.02287 1.06252
 O78 O 0.03929 0.46491 0.06758
 O79 O 0.02366 0.52776 -0.09768
 O80 O 0.02172 0.43420 -0.03820
 O81 O 0.06588 0.54237 0.02005
 O82 O 0.05042 0.48030 -0.05781
 O83 O 0.04022 0.53016 0.07262
 O84 O 0.05343 0.54272 -0.04656
 O85 O 0.01087 0.42740 0.03009
 C86 C 0.03496 0.43483 0.05487
 C87 C 0.04739 0.54810 -0.08160
 C88 C 0.04921 0.44828 -0.05301
 C89 C 0.06656 0.54223 0.05521
 O90 O -0.02952 0.52996 0.06795
 O91 O -0.01078 0.46858 -0.08868
 O92 O -0.05632 0.45452 0.01927
 O93 O -0.01353 0.56779 -0.03324
 O94 O -0.03574 0.52342 -0.06186
 O95 O -0.02959 0.46499 0.07210
 O96 O -0.00017 0.56927 0.03487
 O97 O -0.04735 0.46069 -0.04499
 Co98 Co 0.00497 0.49773 0.06327
 Co99 Co 0.00768 0.50290 -0.05743
 Co100 Co -0.01599 0.44832 -0.00806
 Co101 Co 0.02441 0.55074 -0.00578
 O102 O 0.00398 0.49854 0.00030
 C103 C -0.02510 0.56057 0.05742
 C104 C -0.03978 0.45560 -0.07862
 C105 C -0.05623 0.45353 0.05429
 C106 C -0.03793 0.55431 -0.05335
 O107 O 1.06204 0.03302 0.47396
 O108 O 0.91985 0.03716 0.53789
 O109 O 0.95802 0.01479 0.42409
 O110 O 1.02956 0.05532 0.55224
 O111 O 0.92855 0.03945 0.46840
 O112 O 1.06892 0.01871 0.54268
 O113 O 0.96784 0.06103 0.56188
 O114 O 1.01309 0.04679 0.44511
 C115 C 1.04497 0.05366 0.45348
 C116 C 0.93497 0.06111 0.55587
 C117 C 0.93576 0.03666 0.43408
 C118 C 1.06127 0.04769 0.55440
 O119 O 1.04118 -0.04289 0.53020
 O120 O 0.92819 -0.03000 0.46746
 O121 O 1.02384 -0.00946 0.40998
 O122 O 0.95984 -0.00519 0.58435
 O123 O 0.92448 -0.02876 0.53970
 O124 O 1.04522 -0.03460 0.46116
 O125 O 1.02524 -0.01268 0.57955
 O126 O 0.98228 -0.04274 0.45155
 Co127 Co 1.04815 -0.00470 0.50217
 Co128 Co 0.93145 0.00459 0.50313
 Co129 Co 0.99812 0.00247 0.45113
 Co130 Co 0.99583 0.02317 0.56452
 O131 O 0.99042 0.00776 0.50737
 C132 C 1.03689 -0.04024 0.56529
 C133 C 0.94971 -0.05048 0.45284
 C134 C 1.04802 -0.02942 0.42549
 C135 C 0.93530 -0.02658 0.57381
 C136 C 1.17237 0.18103 0.27339
 C137 C 1.15768 0.17136 0.30199
 C138 C 1.13891 0.15862 0.33487
 C139 C 1.15711 0.13907 0.36229
 C140 C 1.13783 0.12262 0.39127
 C141 C 1.10030 0.12569 0.39296
 C142 C 1.08232 0.14643 0.36648
 C143 C 1.10161 0.16290 0.33753
 C144 C 1.07994 0.10328 0.41761
 C145 C 1.06341 0.08199 0.43565
 H146 H 1.18589 0.13536 0.36032
 H147 H 1.15192 0.10618 0.41119
 H148 H 1.05326 0.14851 0.36711
 H149 H 1.08723 0.17774 0.31630
 C150 C 0.83232 -0.19137 0.27358
 C151 C 0.84804 -0.18036 0.30137
 C152 C 0.86754 -0.16565 0.33323
 C153 C 0.84886 -0.15244 0.36426
 C154 C 0.86745 -0.13369 0.39256
 C155 C 0.90476 -0.12814 0.38991
 C156 C 0.92365 -0.14260 0.35973
 C157 C 0.90507 -0.16137 0.33145
 C158 C 0.92241 -0.10336 0.41458
 C159 C 0.93584 -0.08035 0.43325
 H160 H 0.81981 -0.15535 0.36572
 H161 H 0.85251 -0.12215 0.41547
 H162 H 0.95241 -0.13799 0.35709
 H163 H 0.91972 -0.17124 0.30738
 C164 C 0.79793 0.20583 0.70868
 C165 C 0.81262 0.19209 0.68251
 C166 C 0.83181 0.17436 0.65339
 C167 C 0.81591 0.14563 0.63519
 C168 C 0.83648 0.12507 0.61142
 C169 C 0.87299 0.13317 0.60584
 C170 C 0.88851 0.16266 0.62284
 C171 C 0.86793 0.18324 0.64659
 C172 C 0.89525 0.10920 0.58627
 C173 C 0.91369 0.08786 0.57159
 H174 H 0.78811 0.13833 0.64063
 H175 H 0.82434 0.10211 0.59868
 H176 H 0.91681 0.16893 0.61900
 H177 H 0.88057 0.20518 0.66090
 C178 C 1.17643 -0.18287 0.72439
 C179 C 1.15601 -0.16750 0.70394
 C180 C 1.13132 -0.14889 0.68018
 C181 C 1.10697 -0.12628 0.69669
 C182 C 1.08415 -0.10681 0.67358
 C183 C 1.08555 -0.11001 0.63390
 C184 C 1.10935 -0.13318 0.61742
 C185 C 1.13217 -0.15264 0.64053
 C186 C 1.06554 -0.08697 0.61004
 C187 C 1.05097 -0.06633 0.58975
 H188 H 1.10614 -0.12320 0.72735
 H189 H 1.06616 -0.08865 0.68658
 H190 H 1.11093 -0.13551 0.58673
 H191 H 1.15092 -0.17006 0.62750
 C192 C 0.25440 1.16318 1.17446
 C193 C 0.27733 1.14599 1.16008
 C194 C 0.30443 1.12515 1.14288
 C195 C 0.30597 1.12213 1.10314
 C196 C 0.33196 1.10144 1.08648
 C197 C 0.35650 1.08366 1.10949
 C198 C 0.35501 1.08675 1.14921
 C199 C 0.32903 1.10744 1.16586
 C200 C 0.38318 1.06223 1.09247
 C201 C 0.40570 1.04424 1.07859
 H202 H 0.28704 1.13567 1.08510
 H203 H 0.33287 1.09925 1.05573
 H204 H 0.37386 1.07314 1.16727
 H205 H 0.32806 1.10954 1.19661
 C206 C 0.28338 0.81200 0.80039
 C207 C 0.30984 0.82726 0.81232
 C208 C 0.34024 0.84695 0.82714
 C209 C 0.36185 0.83348 0.85633
 C210 C 0.38882 0.85410 0.87352
 C211 C 0.39435 0.88828 0.86160
 C212 C 0.37346 0.90141 0.83164
 C213 C 0.34651 0.88078 0.81443
 C214 C 0.41834 0.91084 0.88304
 C215 C 0.43655 0.92966 0.90315
 H216 H 0.35709 0.80747 0.86660
 H217 H 0.40448 0.84380 0.89700
 H218 H 0.37715 0.92791 0.82249
 H219 H 0.32980 0.89157 0.79207
 C220 C 0.74503 0.82274 1.17718
 C221 C 0.72131 0.83966 1.16334
 C222 C 0.69357 0.86050 1.14676
 C223 C 0.68675 0.85922 1.10744
 C224 C 0.66061 0.88033 1.09114
 C225 C 0.64122 0.90282 1.11408
 C226 C 0.64789 0.90396 1.15343
 C227 C 0.67403 0.88285 1.16974
 C228 C 0.61470 0.92484 1.09716
 C229 C 0.59254 0.94315 1.08266
 H230 H 0.70179 0.84212 1.08940
 H231 H 0.65566 0.87925 1.06067
 H232 H 0.63304 0.92126 1.17142
 H233 H 0.67918 0.88412 1.20016
 C234 C 0.72245 1.19567 0.81400
 C235 C 0.70238 1.17689 0.83153
 C236 C 0.67924 1.15300 0.85153
 C237 C 0.65377 1.13286 0.83123
 C238 C 0.63272 1.10813 0.85017
 C239 C 0.63710 1.10336 0.88949
 C240 C 0.66236 1.12369 0.90985
 C241 C 0.68343 1.14841 0.89090
 C242 C 0.61559 1.07779 0.90901
 C243 C 0.59744 1.05683 0.92586
 H244 H 0.65048 1.13600 0.80073
 H245 H 0.61322 1.09262 0.83415
 H246 H 0.66593 1.12027 0.94028
 H247 H 0.70322 1.16365 0.90684
 C248 C 0.17195 0.25600 0.16650
 C249 C 0.15752 0.27936 0.15009
 C250 C 0.13900 0.30702 0.13152
 C251 C 0.13664 0.33908 0.14964
 C252 C 0.11642 0.36525 0.13301
 C253 C 0.09844 0.35945 0.09821
 C254 C 0.10125 0.32757 0.07976
 C255 C 0.12148 0.30137 0.09641
 C256 C 0.07621 0.38585 0.08221
 C257 C 0.05737 0.40811 0.06945
 H258 H 0.14989 0.34363 0.17691
 H259 H 0.11434 0.38980 0.14754
 H260 H 0.08738 0.32281 0.05287
 H261 H 0.12295 0.27658 0.08229
 C262 C -0.19734 0.29331 -0.19722
 C263 C -0.18029 0.31779 -0.18508
 C264 C -0.15781 0.34579 -0.17110
 C265 C -0.16761 0.36433 -0.13872
 C266 C -0.14395 0.38926 -0.12321
 C267 C -0.11041 0.39573 -0.14002
 C268 C -0.10100 0.37781 -0.17296
 C269 C -0.12468 0.35291 -0.18849
 C270 C -0.08464 0.41837 -0.12128
 C271 C -0.06354 0.43611 -0.10328
 H272 H -0.19304 0.35888 -0.12490
 H273 H -0.15134 0.40275 -0.09750
 H274 H -0.07501 0.38236 -0.18596
 H275 H -0.11673 0.33855 -0.21341
 C276 C 0.19587 0.71955 -0.19456
 C277 C 0.18152 0.69403 -0.18174
 C278 C 0.16171 0.66484 -0.16693
 C279 C 0.16575 0.65543 -0.12865
 C280 C 0.14333 0.62978 -0.11321
 C281 C 0.11673 0.61350 -0.13596
 C282 C 0.11327 0.62231 -0.17447
 C283 C 0.13571 0.64795 -0.18992
 C284 C 0.09179 0.58936 -0.11895
 C285 C 0.07111 0.57004 -0.10304
 H286 H 0.18546 0.66857 -0.11051
 H287 H 0.14610 0.62327 -0.08333
 H288 H 0.09268 0.61003 -0.19226
 H289 H 0.13210 0.65530 -0.21947
 C290 C -0.16961 0.73262 0.16760
 C291 C -0.15450 0.70994 0.15111
 C292 C -0.13482 0.68327 0.13262
 C293 C -0.13227 0.65073 0.14963
 C294 C -0.11060 0.62567 0.13349
 C295 C -0.09136 0.63308 0.10033
 C296 C -0.09437 0.66541 0.08293
 C297 C -0.11604 0.69050 0.09910
 C298 C -0.06786 0.60778 0.08481
 C299 C -0.04816 0.58639 0.07222
 H300 H -0.14646 0.64500 0.17573
 H301 H -0.10841 0.60074 0.14716
 H302 H -0.07955 0.67138 0.05729
 H303 H -0.11761 0.71568 0.08591
 C304 C 1.18575 0.18450 0.73862
 C305 C 1.17322 0.16920 0.71140
 C306 C 1.15812 0.14969 0.67981
 C307 C 1.16955 0.11598 0.67307
 C308 C 1.15298 0.09588 0.64443
 C309 C 1.12494 0.10940 0.62228
 C310 C 1.11410 0.14340 0.62843
 C311 C 1.13065 0.16349 0.65708
 C312 C 1.10488 0.08749 0.59605
 C313 C 1.08619 0.06915 0.57583
 H314 H 1.19063 0.10494 0.69056
 H315 H 1.16134 0.06953 0.64029
 H316 H 1.09218 0.15403 0.61180
 H317 H 1.12144 0.18944 0.66211
 C318 C 0.82338 -0.17586 0.75519
 C319 C 0.83861 -0.15775 0.73226
 C320 C 0.85617 -0.13524 0.70522
 C321 C 0.84897 -0.09988 0.70532
 C322 C 0.86556 -0.07790 0.67895
 C323 C 0.88947 -0.09112 0.65228
 C324 C 0.89679 -0.12648 0.65223
 C325 C 0.88018 -0.14849 0.67863
 C326 C 0.90604 -0.06845 0.62474
 C327 C 0.91956 -0.04934 0.60158
 H328 H 0.83045 -0.08932 0.72570
 H329 H 0.85963 -0.05064 0.67926
 H330 H 0.91519 -0.13703 0.63172
 H331 H 0.88596 -0.17577 0.67823
 C332 C 1.18052 -0.18609 0.27413
 C333 C 1.16343 -0.16714 0.29403
 C334 C 1.14372 -0.14348 0.31725
 C335 C 1.10622 -0.14698 0.32046
 C336 C 1.08713 -0.12333 0.34218
 C337 C 1.10541 -0.09601 0.36073
 C338 C 1.14291 -0.09257 0.35759
 C339 C 1.16200 -0.11621 0.33589
 C340 C 1.08571 -0.07179 0.38322
 C341 C 1.06883 -0.05200 0.40231
 H342 H 1.09177 -0.16786 0.30608
 H343 H 1.05814 -0.12630 0.34445
 H344 H 1.15736 -0.07161 0.37185
 H345 H 1.19097 -0.11315 0.33350
 C346 C 0.81521 0.18387 0.25840
 C347 C 0.83113 0.16567 0.28056
 C348 C 0.84974 0.14323 0.30661
 C349 C 0.83941 0.10835 0.30905
 C350 C 0.85732 0.08644 0.33431
 C351 C 0.88569 0.09927 0.35726
 C352 C 0.89610 0.13414 0.35475
 C353 C 0.87818 0.15607 0.32948
 C354 C 0.90364 0.07684 0.38382
 C355 C 0.91843 0.05828 0.40647
 H356 H 0.81749 0.09811 0.29150
 H357 H 0.84897 0.05956 0.33604
 H358 H 0.91794 0.14439 0.37241
 H359 H 0.88643 0.18298 0.32783
 C360 C 0.18419 0.27320 -0.16900
 C361 C 0.17087 0.29814 -0.15460
 C362 C 0.15468 0.32723 -0.13631
 C363 C 0.13958 0.35364 -0.15815
 C364 C 0.12185 0.38067 -0.14028
 C365 C 0.11918 0.38148 -0.10048
 C366 C 0.13495 0.35545 -0.07861
 C367 C 0.15270 0.32844 -0.09648
 C368 C 0.09711 0.40685 -0.08254
 C369 C 0.07653 0.42673 -0.06835
 H370 H 0.14082 0.35294 -0.18896
 H371 H 0.10937 0.40041 -0.15752
 H372 H 0.13268 0.35553 -0.04787
 H373 H 0.16416 0.30811 -0.07929
 C374 C -0.19209 0.28312 0.18140
 C375 C -0.17907 0.30899 0.16789
 C376 C -0.16317 0.33891 0.15007
 C377 C -0.17229 0.34681 0.11225
 C378 C -0.15416 0.37358 0.09336
 C379 C -0.12690 0.39261 0.11225
 C380 C -0.11858 0.38542 0.15045
 C381 C -0.13670 0.35863 0.16934
 C382 C -0.10451 0.41644 0.09138
 C383 C -0.08369 0.43457 0.07408
 H384 H -0.19257 0.33157 0.09701
 H385 H -0.16048 0.37860 0.06369
 H386 H -0.09722 0.39967 0.16518
 H387 H -0.12927 0.35260 0.19849
 C388 C -0.18154 0.72821 -0.16235
 C389 C -0.16756 0.70328 -0.14839
 C390 C -0.15016 0.67409 -0.13124
 C391 C -0.14568 0.67247 -0.09158
 C392 C -0.12644 0.64552 -0.07502
 C393 C -0.11164 0.61997 -0.09803
 C394 C -0.11685 0.62115 -0.13763
 C395 C -0.13609 0.64811 -0.15418
 C396 C -0.08802 0.59480 -0.08152
 C397 C -0.06631 0.57525 -0.06823
 H398 H -0.15629 0.69247 -0.07354
 H399 H -0.12222 0.64514 -0.04443
 H400 H -0.10517 0.60180 -0.15576
 H401 H -0.13923 0.64915 -0.18488
 C402 C 0.19210 0.71308 0.19651
 C403 C 0.18037 0.68756 0.18066
 C404 C 0.16640 0.65802 0.16000
 C405 C 0.17483 0.65391 0.12146
 C406 C 0.15881 0.62708 0.10019
 C407 C 0.13439 0.60414 0.11741
 C408 C 0.12681 0.60763 0.15624
 C409 C 0.14280 0.63450 0.17751
 C410 C 0.11364 0.57999 0.09451
 C411 C 0.09370 0.56154 0.07590
 H412 H 0.19293 0.67205 0.10758
 H413 H 0.16448 0.62495 0.07008
 H414 H 0.10756 0.59035 0.16973
 H415 H 0.13596 0.63751 0.20722
 C416 C 0.27024 1.18403 0.84176
 C417 C 0.29379 1.16948 0.85896
 C418 C 0.32145 1.15108 0.87905
 C419 C 0.35515 1.14673 0.86235
 C420 C 0.38101 1.12642 0.88036
 C421 C 0.37329 1.11041 0.91515
 C422 C 0.33990 1.11542 0.93231
 C423 C 0.31403 1.13574 0.91429
 C424 C 0.39840 1.08655 0.93140
 C425 C 0.41895 1.06540 0.94353
 H426 H 0.36110 1.15832 0.83502
 H427 H 0.40662 1.12247 0.86667
 H428 H 0.33354 1.10292 0.95905
 H429 H 0.28798 1.13880 0.92736
 C430 C 0.28573 0.80053 1.19992
 C431 C 0.31237 0.81294 1.18578
 C432 C 0.34270 0.82891 1.16728
 C433 C 0.36168 0.85614 1.18511
 C434 C 0.38772 0.87494 1.16501
 C435 C 0.39484 0.86657 1.12703
 C436 C 0.37683 0.83852 1.10968
 C437 C 0.35082 0.81970 1.12979
 C438 C 0.41699 0.88934 1.10464
 C439 C 0.43354 0.90996 1.08572
 H440 H 0.35536 0.86368 1.21396
 H441 H 0.40117 0.89686 1.17853
 H442 H 0.38180 0.83211 1.08018
 H443 H 0.33603 0.79890 1.11562
 C444 C 0.71597 1.19645 1.17245
 C445 C 0.69002 1.18410 1.15618
 C446 C 0.66013 1.16806 1.13610
 C447 C 0.66127 1.16442 1.09642
 C448 C 0.63459 1.14500 1.07725
 C449 C 0.60661 1.12923 1.09769
 C450 C 0.60471 1.13398 1.13718
 C451 C 0.63141 1.15339 1.15637
 C452 C 0.58314 1.10428 1.07925
 C453 C 0.56542 1.08123 1.06501
 H454 H 0.68351 1.17545 1.08052
 H455 H 0.63663 1.14105 1.04679
 H456 H 0.58350 1.12146 1.15334
 H457 H 0.63042 1.15582 1.18708
 C458 C 0.72294 0.80898 0.83708
 C459 C 0.69589 0.82066 0.85027
 C460 C 0.66462 0.83627 0.86640
 C461 C 0.65891 0.83456 0.90574
 C462 C 0.63138 0.85351 0.92217
 C463 C 0.60937 0.87421 0.89932
 C464 C 0.61423 0.87491 0.85980
 C465 C 0.64176 0.85596 0.84338
 C466 C 0.58550 0.89823 0.91685
 C467 C 0.56796 0.92020 0.93182
 H468 H 0.67660 0.81967 0.92388
 H469 H 0.62825 0.85317 0.95281
 H470 H 0.59775 0.89121 0.84192
 H471 H 0.64611 0.85773 0.81298
   
