data_POSCAR
  _audit_creation_date              2014-09-24
  _audit_creation_method            'ToBaCCo'
  _symmetry_space_group_name_H-M    'P1'
  _symmetry_Int_Tables_number       1
  _symmetry_cell_setting            triclinic
  loop_
  _symmetry_equiv_pos_as_xyz
 x,y,z
_cell_length_a 36.1750
_cell_length_b 36.4122
_cell_length_c 38.0746
_cell_angle_alpha 92.073400
_cell_angle_beta 89.774700
_cell_angle_gamma 89.386800
loop_
  _atom_site_label
  _atom_site_type_symbol
  _atom_site_fract_x
  _atom_site_fract_y
  _atom_site_fract_z
N1 N 0.16782 0.18217 0.17737
 N2 N -0.23259 0.77415 0.23835
 N3 N -0.19249 0.21638 -0.18932
 N4 N 0.21624 0.79683 -0.21590
 N5 N 0.19798 1.19694 0.80659
 N6 N 0.77180 0.77381 0.75224
 N7 N 0.23254 0.79077 1.22427
 N8 N 0.81087 1.21665 1.20376
 O9 O 0.53941 0.98677 0.92782
 O10 O 0.47495 0.96695 1.07402
 O11 O 0.56063 0.93759 1.02694
 O12 O 0.46468 0.93938 0.96561
 O13 O 0.54209 0.96803 1.07375
 O14 O 0.47107 0.98380 0.93094
 O15 O 0.47089 0.93323 1.02776
 O16 O 0.56991 0.94997 0.96201
 C17 C 0.56106 0.95979 0.93203
 C18 C 0.46786 0.93622 1.06001
 C19 C 0.55530 0.93899 1.05926
 C20 C 0.46354 0.95079 0.93547
 O21 O 0.46843 1.04858 0.96670
 O22 O 0.53918 1.04102 1.05760
 O23 O 0.58385 1.01906 0.97872
 O24 O 0.43301 0.99815 1.03874
 O25 O 0.47320 1.03797 1.05424
 O26 O 0.53893 1.05272 0.95736
 O27 O 0.42980 1.00513 0.97621
 O28 O 0.58340 1.00534 1.04220
 Co29 Co 0.50442 1.01578 0.95149
 Co30 Co 0.50750 1.00244 1.05986
 Co31 Co 0.56806 0.97924 1.00296
 Co32 Co 0.45439 0.97087 1.00249
 O33 O 0.50872 0.99249 1.00389
 C34 C 0.43585 1.03800 0.96877
 C35 C 0.57287 1.03578 1.05473
 C36 C 0.57249 1.04770 0.96401
 C37 C 0.44032 1.02974 1.05054
 O38 O 0.04429 0.47295 0.03417
 O39 O 0.04496 0.55376 -0.05308
 O40 O -0.00108 0.44480 -0.03980
 O41 O 0.01907 0.58476 0.04699
 O42 O 0.04122 0.48365 -0.05350
 O43 O 0.05381 0.53728 0.04882
 O44 O 0.02063 0.59550 -0.01672
 O45 O -0.00100 0.43810 0.02236
 C46 C 0.03221 0.44145 0.03063
 C47 C 0.04423 0.58574 -0.03990
 C48 C 0.03119 0.45114 -0.05049
 C49 C 0.05004 0.57105 0.05305
 O50 O -0.01443 0.54141 0.07908
 O51 O -0.02800 0.48998 -0.07516
 O52 O -0.06346 0.48043 0.02835
 O53 O -0.05066 0.58666 -0.02072
 O54 O -0.02620 0.55794 -0.06718
 O55 O -0.02307 0.47624 0.06824
 O56 O -0.05221 0.56801 0.04382
 O57 O -0.06644 0.48357 -0.03401
 Co58 Co 0.01338 0.50776 0.05274
 Co59 Co 0.00686 0.52076 -0.05608
 Co60 Co -0.03079 0.46627 -0.00527
 Co61 Co -0.01496 0.57722 0.01243
 O62 O -0.00563 0.51832 0.00055
 C63 C -0.04438 0.55832 0.07397
 C64 C -0.06019 0.48335 -0.06582
 C65 C -0.05597 0.47202 0.05859
 C66 C -0.04938 0.58058 -0.05329
 O67 O 1.08479 0.02294 0.46719
 O68 O 0.93398 0.04429 0.53189
 O69 O 0.97670 0.06414 0.45338
 O70 O 1.03237 0.03403 0.56897
 O71 O 0.92760 0.03637 0.46615
 O72 O 1.05983 0.05266 0.52320
 O73 O 0.96751 0.01902 0.57243
 O74 O 1.04009 0.05758 0.45846
 C75 C 1.07276 0.04973 0.45162
 C76 C 0.94392 0.04282 0.56325
 C77 C 0.94284 0.06225 0.45167
 C78 C 1.05144 0.05766 0.55468
 O79 O 1.09713 -0.00676 0.52861
 O80 O 0.93651 -0.03309 0.47040
 O81 O 1.03685 -0.01472 0.43439
 O82 O 0.98545 -0.05048 0.54631
 O83 O 0.93277 -0.02684 0.53634
 O84 O 1.05918 -0.03917 0.48133
 O85 O 1.04853 -0.03586 0.54482
 O86 O 0.96922 -0.00766 0.42889
 Co87 Co 1.05687 0.00650 0.50361
 Co88 Co 0.93934 0.00563 0.50127
 Co89 Co 1.00546 0.02356 0.44797
 Co90 Co 1.00784 -0.00680 0.55342
 O91 O 1.00026 0.00858 0.50009
 C92 C 1.08238 -0.02925 0.55019
 C93 C 0.94725 -0.03235 0.43906
 C94 C 1.05463 -0.04035 0.44861
 C95 C 0.95151 -0.05283 0.54746
 C96 C 1.12354 0.18601 0.26715
 C97 C 1.13472 0.15213 0.28105
 C98 C 1.15950 0.12964 0.26070
 C99 C 1.17014 0.13957 0.22687
 C100 C 1.15754 0.17253 0.21273
 C101 C 1.13495 0.19599 0.23378
 C102 C 1.17332 0.09711 0.27402
 C103 C 1.16293 0.08610 0.30711
 C104 C 1.13721 0.10673 0.32792
 C105 C 1.12213 0.13979 0.31426
 C106 C 1.09381 0.15854 0.33349
 C107 C 1.08027 0.14524 0.36468
 C108 C 1.09508 0.11343 0.37857
 C109 C 1.12470 0.09443 0.36117
 C110 C 1.14005 0.06349 0.37760
 C111 C 1.12455 0.05040 0.40831
 C112 C 1.09340 0.06763 0.42361
 C113 C 1.07953 0.09980 0.40925
 H114 H 1.10650 0.20577 0.28162
 H115 H 1.18805 0.12118 0.21142
 H116 H 1.12590 0.22233 0.22448
 H117 H 1.19241 0.07986 0.25863
 H118 H 1.17449 0.06032 0.31504
 H119 H 1.08023 0.18283 0.32432
 H120 H 1.05765 0.15989 0.37791
 H121 H 1.16385 0.04862 0.36729
 H122 H 1.13603 0.02570 0.41922
 H123 H 1.05568 0.11358 0.42128
 C124 C 0.82000 -0.14134 0.26471
 C125 C 0.83466 -0.15044 0.29777
 C126 C 0.82473 -0.18483 0.31134
 C127 C 0.80169 -0.20895 0.29223
 C128 C 0.78845 -0.19978 0.25927
 C129 C 0.79745 -0.16574 0.24585
 C130 C 0.83810 -0.19523 0.34374
 C131 C 0.86085 -0.17219 0.36345
 C132 C 0.87133 -0.13749 0.35150
 C133 C 0.85853 -0.12666 0.31785
 C134 C 0.86996 -0.09242 0.30547
 C135 C 0.89183 -0.06888 0.32576
 C136 C 0.90324 -0.07831 0.35917
 C137 C 0.89365 -0.11297 0.37236
 C138 C 0.90596 -0.12117 0.40644
 C139 C 0.92481 -0.09532 0.42706
 C140 C 0.93278 -0.06068 0.41443
 C141 C 0.92313 -0.05269 0.38001
 H142 H 0.82547 -0.11577 0.25248
 H143 H 0.79456 -0.23535 0.30253
 H144 H 0.78749 -0.15833 0.22024
 H145 H 0.83080 -0.22156 0.35409
 H146 H 0.86972 -0.18265 0.38813
 H147 H 0.86234 -0.08273 0.28011
 H148 H 0.89933 -0.04263 0.31536
 H149 H 0.90063 -0.14681 0.41860
 H150 H 0.93247 -0.10218 0.45355
 H151 H 0.92916 -0.02579 0.37022
 C152 C 0.88725 0.17697 0.75878
 C153 C 0.86973 0.16385 0.72760
 C154 C 0.83162 0.17223 0.72351
 C155 C 0.81161 0.19027 0.75069
 C156 C 0.82910 0.20140 0.78178
 C157 C 0.86707 0.19553 0.78541
 C158 C 0.81340 0.16193 0.69263
 C159 C 0.83204 0.14322 0.66551
 C160 C 0.86963 0.13306 0.66863
 C161 C 0.88849 0.14251 0.70060
 C162 C 0.92485 0.12896 0.70509
 C163 C 0.94207 0.10666 0.67940
 C164 C 0.92438 0.09809 0.64774
 C165 C 0.88850 0.11237 0.64134
 C166 C 0.87295 0.10532 0.60777
 C167 C 0.89141 0.08336 0.58253
 C168 C 0.92578 0.06743 0.58982
 C169 C 0.94231 0.07512 0.62241
 H170 H 0.91643 0.17347 0.76335
 H171 H 0.78218 0.19536 0.74804
 H172 H 0.88083 0.20439 0.80942
 H173 H 0.78428 0.16829 0.68942
 H174 H 0.81559 0.13565 0.64293
 H175 H 0.94029 0.13386 0.72891
 H176 H 0.96963 0.09611 0.68436
 H177 H 0.84687 0.11687 0.59989
 H178 H 0.87830 0.07832 0.55730
 H179 H 0.96928 0.06346 0.62797
 C180 C 1.14087 -0.17974 0.72110
 C181 C 1.16026 -0.16033 0.69535
 C182 C 1.19920 -0.15813 0.69841
 C183 C 1.21758 -0.17486 0.72607
 C184 C 1.19775 -0.19201 0.75253
 C185 C 1.15934 -0.19498 0.74926
 C186 C 1.21952 -0.13802 0.67471
 C187 C 1.20185 -0.11805 0.64919
 C188 C 1.16303 -0.11830 0.64576
 C189 C 1.14219 -0.14163 0.66776
 C190 C 1.10396 -0.14530 0.66160
 C191 C 1.08621 -0.12515 0.63640
 C192 C 1.10560 -0.10007 0.61682
 C193 C 1.14426 -0.09609 0.62107
 C194 C 1.16214 -0.06920 0.60116
 C195 C 1.14227 -0.04747 0.57806
 C196 C 1.10419 -0.05201 0.57397
 C197 C 1.08621 -0.07862 0.59322
 H198 H 1.11122 -0.18199 0.72138
 H199 H 1.24738 -0.17287 0.72810
 H200 H 1.14323 -0.20775 0.76940
 H201 H 1.24937 -0.13668 0.67666
 H202 H 1.21950 -0.10291 0.63218
 H203 H 1.08693 -0.16406 0.67554
 H204 H 1.05672 -0.12868 0.63274
 H205 H 1.19121 -0.06355 0.60355
 H206 H 1.15670 -0.02689 0.56360
 H207 H 1.05669 -0.08244 0.59022
 C208 C 0.21809 1.12276 1.11064
 C209 C 0.25545 1.12679 1.12105
 C210 C 0.26289 1.15061 1.15047
 C211 C 0.23391 1.16817 1.16929
 C212 C 0.19735 1.16321 1.15880
 C213 C 0.18963 1.14087 1.12926
 C214 C 0.29917 1.15686 1.16097
 C215 C 0.32853 1.14004 1.14297
 C216 C 0.32272 1.11551 1.11397
 C217 C 0.28553 1.10813 1.10333
 C218 C 0.27962 1.08155 1.07602
 C219 C 0.30886 1.06239 1.06005
 C220 C 0.34518 1.06946 1.06996
 C221 C 0.35281 1.09700 1.09615
 C222 C 0.39037 1.10450 1.10360
 C223 C 0.41874 1.08361 1.08768
 C224 C 0.41070 1.05468 1.06385
 C225 C 0.37393 1.04844 1.05432
 H226 H 0.20985 1.10638 1.08796
 H227 H 0.23960 1.18617 1.19189
 H228 H 0.16131 1.13744 1.12070
 H229 H 0.30498 1.17504 1.18341
 H230 H 0.35557 1.14600 1.15327
 H231 H 0.25251 1.07386 1.06708
 H232 H 0.30290 1.04156 1.03986
 H233 H 0.39884 1.12625 1.12163
 H234 H 0.44706 1.08942 1.09494
 H235 H 0.36761 1.02667 1.03515
 C236 C 0.27360 0.87782 0.81126
 C237 C 0.30672 0.86100 0.82250
 C238 C 0.30824 0.82204 0.82259
 C239 C 0.27833 0.80111 0.81018
 C240 C 0.24632 0.81834 0.79816
 C241 C 0.24395 0.85674 0.79945
 C242 C 0.33950 0.80420 0.83520
 C243 C 0.36870 0.82416 0.84935
 C244 C 0.36811 0.86298 0.85062
 C245 C 0.33772 0.88156 0.83489
 C246 C 0.33931 0.92006 0.83208
 C247 C 0.36785 0.94017 0.84714
 C248 C 0.39546 0.92284 0.86607
 C249 C 0.39641 0.88395 0.86773
 C250 C 0.42426 0.86791 0.88846
 C251 C 0.44812 0.88980 0.90862
 C252 C 0.44578 0.92810 0.90788
 C253 C 0.42075 0.94443 0.88518
 H254 H 0.26930 0.90717 0.81213
 H255 H 0.27995 0.77135 0.80955
 H256 H 0.21892 0.87048 0.79119
 H257 H 0.34107 0.77444 0.83485
 H258 H 0.39171 0.80829 0.85871
 H259 H 0.31888 0.93552 0.81814
 H260 H 0.36743 0.96981 0.84517
 H261 H 0.42678 0.83872 0.89162
 H262 H 0.46731 0.87677 0.92620
 H263 H 0.41851 0.97417 0.88501
 C264 C 0.67822 0.82559 1.22718
 C265 C 0.67290 0.82276 1.19035
 C266 C 0.69758 0.79969 1.17041
 C267 C 0.72807 0.78321 1.18634
 C268 C 0.73381 0.78755 1.22258
 C269 C 0.70819 0.80821 1.24288
 C270 C 0.69247 0.79400 1.13443
 C271 C 0.66399 0.81159 1.11733
 C272 C 0.64012 0.83677 1.13545
 C273 C 0.64488 0.84282 1.17249
 C274 C 0.62309 0.87033 1.18996
 C275 C 0.59910 0.89261 1.17156
 C276 C 0.59478 0.88748 1.13536
 C277 C 0.61351 0.85807 1.11720
 C278 C 0.60588 0.85216 1.08108
 C279 C 0.58471 0.87728 1.06296
 C280 C 0.56997 0.90879 1.08022
 C281 C 0.57327 0.91265 1.11682
 H282 H 0.65979 0.84102 1.24458
 H283 H 0.74814 0.76796 1.17024
 H284 H 0.71201 0.81165 1.27100
 H285 H 0.71106 0.77608 1.11916
 H286 H 0.66281 0.80638 1.08934
 H287 H 0.62548 0.87681 1.21767
 H288 H 0.58439 0.91464 1.18575
 H289 H 0.61639 0.82876 1.06588
 H290 H 0.58128 0.87276 1.03488
 H291 H 0.56100 0.93637 1.13062
 C292 C 0.77035 1.13651 0.85799
 C293 C 0.73437 1.14901 0.86769
 C294 C 0.72223 1.18325 0.85500
 C295 C 0.74583 1.20444 0.83487
 C296 C 0.78191 1.19247 0.82736
 C297 C 0.79367 1.15806 0.83829
 C298 C 0.68686 1.19655 0.86294
 C299 C 0.66288 1.17662 0.88315
 C300 C 0.67351 1.14246 0.89663
 C301 C 0.71011 1.12877 0.88934
 C302 C 0.72134 1.09548 0.90418
 C303 C 0.69722 1.07528 0.92400
 C304 C 0.66098 1.08727 0.92984
 C305 C 0.64862 1.12126 0.91677
 C306 C 0.61146 1.13199 0.92362
 C307 C 0.58732 1.10889 0.94066
 C308 C 0.59940 1.07467 0.95197
 C309 C 0.63663 1.06466 0.94766
 H310 H 0.78154 1.11038 0.86531
 H311 H 0.73668 1.23094 0.82586
 H312 H 0.82149 1.14832 0.83246
 H313 H 0.67754 1.22276 0.85338
 H314 H 0.63614 1.18907 0.88790
 H315 H 0.74879 1.08412 0.90109
 H316 H 0.70692 1.04956 0.93434
 H317 H 0.59963 1.15743 0.91520
 H318 H 0.55870 1.11742 0.94399
 H319 H 0.64625 1.03818 0.95632
 C320 C 0.09131 0.23355 0.13420
 C321 C 0.11038 0.26308 0.11923
 C322 C 0.14902 0.26534 0.12496
 C323 C 0.16750 0.23874 0.14422
 C324 C 0.14816 0.20988 0.15870
 C325 C 0.11007 0.20739 0.15351
 C326 C 0.16909 0.29417 0.11161
 C327 C 0.15158 0.32175 0.09355
 C328 C 0.11307 0.32134 0.08769
 C329 C 0.09240 0.29073 0.09945
 C330 C 0.05450 0.28877 0.09102
 C331 C 0.03684 0.31668 0.07356
 C332 C 0.05600 0.34784 0.06415
 C333 C 0.09443 0.35066 0.07073
 C334 C 0.11221 0.38340 0.06120
 C335 C 0.09227 0.41235 0.04703
 C336 C 0.05423 0.40950 0.04143
 C337 C 0.03649 0.37677 0.04919
 H338 H 0.06189 0.23007 0.13197
 H339 H 0.19708 0.24051 0.14831
 H340 H 0.09488 0.18493 0.16434
 H341 H 0.19871 0.29573 0.11559
 H342 H 0.16923 0.34295 0.08420
 H343 H 0.03755 0.26580 0.09738
 H344 H 0.00755 0.31421 0.06810
 H345 H 0.14118 0.38819 0.06550
 H346 H 0.10656 0.43741 0.04118
 H347 H 0.00694 0.37440 0.04508
 C348 C -0.18939 0.29736 -0.12561
 C349 C -0.17363 0.32482 -0.14598
 C350 C -0.16324 0.31538 -0.18110
 C351 C -0.17048 0.28016 -0.19557
 C352 C -0.18613 0.25310 -0.17494
 C353 C -0.19492 0.26214 -0.13971
 C354 C -0.14463 0.34077 -0.20111
 C355 C -0.13332 0.37414 -0.18599
 C356 C -0.14179 0.38388 -0.15062
 C357 C -0.16531 0.36037 -0.13162
 C358 C -0.17895 0.37275 -0.09849
 C359 C -0.16556 0.40443 -0.08209
 C360 C -0.13767 0.42424 -0.09784
 C361 C -0.12624 0.41522 -0.13283
 C362 C -0.09721 0.43580 -0.14717
 C363 C -0.07762 0.46099 -0.12614
 C364 C -0.08707 0.46706 -0.09068
 C365 C -0.11899 0.45090 -0.07763
 H366 H -0.19584 0.30168 -0.09809
 H367 H -0.16316 0.27359 -0.22271
 H368 H -0.20560 0.24170 -0.12253
 H369 H -0.13714 0.33408 -0.22821
 H370 H -0.11802 0.39189 -0.20267
 H371 H -0.19987 0.35818 -0.08449
 H372 H -0.17539 0.41206 -0.05586
 H373 H -0.08695 0.43083 -0.17355
 H374 H -0.05336 0.47369 -0.13697
 H375 H -0.12688 0.45590 -0.05034
 C376 C 0.18105 0.70463 -0.19255
 C377 C 0.16951 0.71073 -0.15715
 C378 C 0.17434 0.74634 -0.14164
 C379 C 0.19103 0.77407 -0.16069
 C380 C 0.20181 0.76749 -0.19572
 C381 C 0.19670 0.73272 -0.21145
 C382 C 0.16172 0.75437 -0.10753
 C383 C 0.14287 0.72830 -0.08883
 C384 C 0.13678 0.69263 -0.10326
 C385 C 0.15214 0.68316 -0.13717
 C386 C 0.14970 0.64644 -0.14998
 C387 C 0.13072 0.62042 -0.13156
 C388 C 0.11290 0.62997 -0.09997
 C389 C 0.11571 0.66607 -0.08509
 C390 C 0.09608 0.67427 -0.05337
 C391 C 0.07385 0.64797 -0.03795
 C392 C 0.07085 0.61260 -0.05328
 C393 C 0.09134 0.60366 -0.08380
 H394 H 0.17718 0.67890 -0.20684
 H395 H 0.19443 0.80132 -0.14879
 H396 H 0.20461 0.72749 -0.23865
 H397 H 0.16565 0.78145 -0.09543
 H398 H 0.13379 0.73683 -0.06279
 H399 H 0.16265 0.63672 -0.17413
 H400 H 0.12919 0.59264 -0.14268
 H401 H 0.09612 0.70112 -0.04054
 H402 H 0.05832 0.65564 -0.01438
 H403 H 0.08919 0.57644 -0.09612
 C404 C -0.22078 0.68002 0.19531
 C405 C -0.18188 0.67594 0.19419
 C406 C -0.16069 0.70180 0.21384
 C407 C -0.17747 0.73337 0.22908
 C408 C -0.21589 0.73915 0.22698
 C409 C -0.23742 0.71079 0.21204
 C410 C -0.12262 0.69685 0.21700
 C411 C -0.10473 0.66751 0.19975
 C412 C -0.12409 0.64315 0.17697
 C413 C -0.16319 0.64792 0.17352
 C414 C -0.18175 0.62677 0.14739
 C415 C -0.16237 0.60344 0.12398
 C416 C -0.12422 0.59871 0.12703
 C417 C -0.10507 0.61637 0.15520
 C418 C -0.06720 0.60762 0.15943
 C419 C -0.04825 0.58609 0.13415
 C420 C -0.06638 0.57285 0.10397
 C421 C -0.10467 0.57784 0.10119
 H422 H -0.23897 0.65978 0.18360
 H423 H -0.16001 0.75410 0.24125
 H424 H -0.26728 0.71312 0.21195
 H425 H -0.10634 0.71621 0.23254
 H426 H -0.07513 0.66634 0.20272
 H427 H -0.21097 0.62981 0.14268
 H428 H -0.17733 0.58949 0.10289
 H429 H -0.05143 0.61742 0.18178
 H430 H -0.01876 0.58177 0.13715
 H431 H -0.11893 0.56662 0.07828
 C432 C 1.19826 0.15328 0.71683
 C433 C 1.16152 0.15951 0.70557
 C434 C 1.13752 0.17942 0.72898
 C435 C 1.15008 0.19259 0.76194
 C436 C 1.18643 0.18548 0.77334
 C437 C 1.21029 0.16588 0.74996
 C438 C 1.10073 0.18549 0.71977
 C439 C 1.08656 0.17067 0.68857
 C440 C 1.10890 0.14950 0.66485
 C441 C 1.14744 0.14558 0.67255
 C442 C 1.17044 0.12757 0.64715
 C443 C 1.15601 0.11157 0.61653
 C444 C 1.11806 0.11220 0.61021
 C445 C 1.09389 0.13149 0.63404
 C446 C 1.05544 0.12999 0.62707
 C447 C 1.04178 0.10833 0.59910
 C448 C 1.06577 0.08846 0.57652
 C449 C 1.10395 0.09172 0.58126
 H450 H 1.21825 0.13792 0.70106
 H451 H 1.13076 0.20695 0.77958
 H452 H 1.23872 0.16055 0.75719
 H453 H 1.08236 0.20120 0.73730
 H454 H 1.05785 0.17657 0.68366
 H455 H 1.19997 0.12538 0.65014
 H456 H 1.17470 0.09734 0.59820
 H457 H 1.03499 0.14326 0.64395
 H458 H 1.01216 0.10568 0.59605
 H459 H 1.12255 0.07548 0.56437
 C460 C 0.78513 -0.18070 0.66609
 C461 C 0.82389 -0.17541 0.66515
 C462 C 0.84521 -0.19062 0.69231
 C463 C 0.82802 -0.20760 0.72042
 C464 C 0.78948 -0.21108 0.72183
 C465 C 0.76839 -0.19836 0.69391
 C466 C 0.88360 -0.18815 0.69181
 C467 C 0.90156 -0.17020 0.66528
 C468 C 0.88165 -0.15292 0.63854
 C469 C 0.84213 -0.15509 0.63874
 C470 C 0.82215 -0.13538 0.61364
 C471 C 0.83996 -0.11330 0.59000
 C472 C 0.87838 -0.11080 0.58961
 C473 C 0.89989 -0.13183 0.61276
 C474 C 0.93886 -0.13009 0.60965
 C475 C 0.95546 -0.10591 0.58696
 C476 C 0.93394 -0.08280 0.56647
 C477 C 0.89541 -0.08638 0.56697
 H478 H 0.76697 -0.17169 0.64569
 H479 H 0.84473 -0.21729 0.74183
 H480 H 0.73866 -0.20155 0.69399
 H481 H 0.90002 -0.19999 0.71240
 H482 H 0.93119 -0.16896 0.66747
 H483 H 0.79240 -0.13507 0.61258
 H484 H 0.82337 -0.09758 0.57211
 H485 H 0.95737 -0.14679 0.62457
 H486 H 0.98534 -0.10432 0.58656
 H487 H 0.87853 -0.06919 0.55060
 C488 C 1.20374 -0.12679 0.27725
 C489 C 1.18027 -0.14179 0.30272
 C490 C 1.17841 -0.18055 0.30391
 C491 C 1.19653 -0.20300 0.27820
 C492 C 1.21820 -0.18762 0.25174
 C493 C 1.22219 -0.14923 0.25234
 C494 C 1.15800 -0.19660 0.33041
 C495 C 1.13917 -0.17499 0.35573
 C496 C 1.13865 -0.13628 0.35456
 C497 C 1.15850 -0.11956 0.32680
 C498 C 1.15460 -0.08133 0.32292
 C499 C 1.13248 -0.06002 0.34550
 C500 C 1.11430 -0.07560 0.37351
 C501 C 1.11787 -0.11367 0.37934
 C502 C 1.10067 -0.12717 0.40987
 C503 C 1.08018 -0.10371 0.43292
 C504 C 1.07539 -0.06664 0.42552
 C505 C 1.09257 -0.05293 0.39583
 H506 H 1.20857 -0.09773 0.27587
 H507 H 1.19379 -0.23261 0.27858
 H508 H 1.23818 -0.13622 0.23225
 H509 H 1.15661 -0.22625 0.33165
 H510 H 1.12382 -0.18947 0.37511
 H511 H 1.16706 -0.06714 0.30163
 H512 H 1.12977 -0.03085 0.34106
 H513 H 1.10337 -0.15543 0.41707
 H514 H 1.06773 -0.11460 0.45623
 H515 H 1.08985 -0.02394 0.39056
 C516 C 0.88593 0.19389 0.26557
 C517 C 0.86699 0.17421 0.29138
 C518 C 0.82861 0.16847 0.28645
 C519 C 0.81028 0.18230 0.25716
 C520 C 0.82923 0.20264 0.23221
 C521 C 0.86743 0.20769 0.23671
 C522 C 0.80857 0.14897 0.31078
 C523 C 0.82573 0.13444 0.33979
 C524 C 0.86395 0.13889 0.34583
 C525 C 0.88484 0.15958 0.32149
 C526 C 0.92289 0.16476 0.32797
 C527 C 0.94037 0.14896 0.35617
 C528 C 0.92079 0.12754 0.37927
 C529 C 0.88218 0.12272 0.37498
 C530 C 0.86373 0.10099 0.39960
 C531 C 0.88323 0.08313 0.42570
 C532 C 0.92161 0.08656 0.42858
 C533 C 0.94000 0.10989 0.40599
 H534 H 0.91519 0.19888 0.26653
 H535 H 0.78081 0.17806 0.25418
 H536 H 0.88330 0.22188 0.21729
 H537 H 0.77919 0.14464 0.30723
 H538 H 0.80804 0.11962 0.35696
 H539 H 0.94028 0.18076 0.31154
 H540 H 0.96981 0.15311 0.35957
 H541 H 0.83442 0.09628 0.39896
 H542 H 0.86826 0.06546 0.44295
 H543 H 0.96973 0.11285 0.40798
 C544 C 0.16662 0.29399 -0.18371
 C545 C 0.15340 0.29605 -0.14866
 C546 C 0.15543 0.26373 -0.12903
 C547 C 0.17183 0.23146 -0.14352
 C548 C 0.18435 0.22951 -0.17858
 C549 C 0.18124 0.26122 -0.19844
 C550 C 0.14024 0.26348 -0.09531
 C551 C 0.12131 0.29401 -0.08127
 C552 C 0.11818 0.32667 -0.09996
 C553 C 0.13687 0.32858 -0.13295
 C554 C 0.13871 0.36298 -0.14882
 C555 C 0.12131 0.39405 -0.13377
 C556 C 0.09987 0.39167 -0.10338
 C557 C 0.09729 0.35765 -0.08655
 C558 C 0.07237 0.35547 -0.05803
 C559 C 0.05118 0.38586 -0.04674
 C560 C 0.05521 0.41990 -0.06218
 C561 C 0.08001 0.42278 -0.09031
 H562 H 0.16464 0.31686 -0.20084
 H563 H 0.17293 0.20700 -0.12811
 H564 H 0.19069 0.26072 -0.22549
 H565 H 0.14208 0.23902 -0.07996
 H566 H 0.11028 0.29168 -0.05510
 H567 H 0.15443 0.36692 -0.17249
 H568 H 0.12367 0.41995 -0.14673
 H569 H 0.06714 0.33011 -0.04518
 H570 H 0.03114 0.38254 -0.02597
 H571 H 0.08235 0.44873 -0.10321
 C572 C -0.15302 0.31175 0.20550
 C573 C -0.15344 0.32006 0.16963
 C574 C -0.17203 0.29553 0.14620
 C575 C -0.18470 0.26152 0.15758
 C576 C -0.18114 0.25175 0.19299
 C577 C -0.16722 0.27874 0.21692
 C578 C -0.17685 0.30459 0.11121
 C579 C -0.16318 0.33728 0.09890
 C580 C -0.14213 0.36124 0.12069
 C581 C -0.13585 0.35167 0.15621
 C582 C -0.11021 0.37244 0.17634
 C583 C -0.09054 0.40092 0.16180
 C584 C -0.09726 0.41124 0.12744
 C585 C -0.12495 0.39302 0.10733
 C586 C -0.13387 0.40699 0.07431
 C587 C -0.11323 0.43497 0.06018
 C588 C -0.08262 0.44967 0.07813
 C589 C -0.07569 0.43875 0.11246
 H590 H -0.14236 0.33061 0.22540
 H591 H -0.19550 0.24203 0.13818
 H592 H -0.16642 0.27397 0.24481
 H593 H -0.19130 0.28618 0.09310
 H594 H -0.16741 0.34187 0.07138
 H595 H -0.10294 0.36562 0.20278
 H596 H -0.06973 0.41486 0.17757
 H597 H -0.15666 0.39672 0.05877
 H598 H -0.12012 0.44359 0.03405
 H599 H -0.05276 0.45064 0.12700
 C600 C -0.17131 0.68986 -0.22820
 C601 C -0.16705 0.69333 -0.19123
 C602 C -0.18587 0.72293 -0.17341
 C603 C -0.20604 0.74882 -0.19206
 C604 C -0.20923 0.74556 -0.22865
 C605 C -0.19217 0.71552 -0.24645
 C606 C -0.18406 0.72709 -0.13700
 C607 C -0.16412 0.70242 -0.11754
 C608 C -0.14438 0.67274 -0.13384
 C609 C -0.14480 0.66876 -0.17135
 C610 C -0.12202 0.64123 -0.18759
 C611 C -0.09936 0.61867 -0.16791
 C612 C -0.09940 0.62164 -0.13125
 C613 C -0.12301 0.64784 -0.11377
 C614 C -0.12432 0.64810 -0.07672
 C615 C -0.10115 0.62552 -0.05787
 C616 C -0.07581 0.60143 -0.07494
 C617 C -0.07572 0.59893 -0.11184
 H618 H -0.15916 0.66749 -0.24371
 H619 H -0.21879 0.77214 -0.17805
 H620 H -0.19463 0.71224 -0.27472
 H621 H -0.19822 0.74980 -0.12330
 H622 H -0.16359 0.70837 -0.08964
 H623 H -0.12007 0.63731 -0.21572
 H624 H -0.08163 0.59862 -0.18158
 H625 H -0.14325 0.66517 -0.06133
 H626 H -0.10291 0.62749 -0.02946
 H627 H -0.05691 0.57983 -0.12543
 C628 C 0.14871 0.75327 0.18172
 C629 C 0.16199 0.72033 0.16524
 C630 C 0.19878 0.70925 0.17232
 C631 C 0.22216 0.73232 0.19258
 C632 C 0.20925 0.76639 0.20691
 C633 C 0.17178 0.77565 0.20203
 C634 C 0.21197 0.67534 0.15892
 C635 C 0.18933 0.65207 0.13887
 C636 C 0.15286 0.66252 0.13018
 C637 C 0.13968 0.69795 0.14238
 C638 C 0.10506 0.71050 0.13049
 C639 C 0.08305 0.68854 0.10902
 C640 C 0.09423 0.65299 0.09898
 C641 C 0.12915 0.63915 0.10934
 C642 C 0.13822 0.60228 0.09899
 C643 C 0.11320 0.58021 0.07989
 C644 C 0.07872 0.59432 0.07009
 C645 C 0.07000 0.63104 0.07911
 H646 H 0.12041 0.76247 0.17977
 H647 H 0.25050 0.72387 0.19722
 H648 H 0.16042 0.80137 0.21266
 H649 H 0.24004 0.66652 0.16426
 H650 H 0.20158 0.62639 0.12960
 H651 H 0.09450 0.73778 0.13652
 H652 H 0.05661 0.69939 0.10064
 H653 H 0.16385 0.58933 0.10629
 H654 H 0.12056 0.55186 0.07341
 H655 H 0.04341 0.64241 0.07178
 C656 C 0.24393 1.11516 0.84336
 C657 C 0.27037 1.13117 0.86640
 C658 C 0.27235 1.17003 0.86827
 C659 C 0.24806 1.19162 0.84867
 C660 C 0.22183 1.17545 0.82574
 C661 C 0.22035 1.13682 0.82352
 C662 C 0.29881 1.18729 0.88949
 C663 C 0.32421 1.16689 0.90818
 C664 C 0.32377 1.12810 0.90699
 C665 C 0.29536 1.11001 0.88700
 C666 C 0.29275 1.07142 0.88848
 C667 C 0.31796 1.05101 0.90736
 C668 C 0.34725 1.06797 0.92498
 C669 C 0.35077 1.10674 0.92506
 C670 C 0.38200 1.12226 0.94217
 C671 C 0.40888 1.10008 0.95746
 C672 C 0.40524 1.06185 0.95700
 C673 C 0.37379 1.04610 0.94152
 H674 H 0.24105 1.08588 0.83957
 H675 H 0.25039 1.22129 0.85041
 H676 H 0.20009 1.12310 0.80696
 H677 H 0.30026 1.21702 0.89131
 H678 H 0.34361 1.18249 0.92388
 H679 H 0.27111 1.05604 0.87560
 H680 H 0.31495 1.02142 0.90744
 H681 H 0.38736 1.15131 0.94293
 H682 H 0.43305 1.11286 0.96909
 H683 H 0.37102 1.01644 0.94051
 C684 C 0.32745 0.82767 1.21886
 C685 C 0.33403 0.82646 1.18223
 C686 C 0.30861 0.80691 1.16066
 C687 C 0.27562 0.79361 1.17480
 C688 C 0.26735 0.79820 1.21098
 C689 C 0.29502 0.81354 1.23285
 C690 C 0.31537 0.80209 1.12472
 C691 C 0.34614 0.81746 1.10937
 C692 C 0.37068 0.83976 1.12922
 C693 C 0.36422 0.84483 1.16618
 C694 C 0.38640 0.87015 1.18534
 C695 C 0.41266 0.89117 1.16868
 C696 C 0.41903 0.88672 1.13261
 C697 C 0.39974 0.85936 1.11283
 C698 C 0.40949 0.85370 1.07703
 C699 C 0.43387 0.87716 1.06075
 C700 C 0.44948 0.90696 1.07947
 C701 C 0.44336 0.91052 1.11584
 H702 H 0.34684 0.83943 1.23740
 H703 H 0.25533 0.78212 1.15682
 H704 H 0.29100 0.81575 1.26105
 H705 H 0.29630 0.78673 1.10809
 H706 H 0.34859 0.81323 1.08130
 H707 H 0.38248 0.87607 1.21305
 H708 H 0.42766 0.91163 1.18413
 H709 H 0.39838 0.83167 1.06077
 H710 H 0.43898 0.87295 1.03283
 H711 H 0.45612 0.93287 1.13079
 C712 C 0.77115 1.13317 1.16094
 C713 C 0.73735 1.14628 1.14741
 C714 C 0.72805 1.18379 1.15431
 C715 C 0.75273 1.20735 1.17252
 C716 C 0.78666 1.19405 1.18532
 C717 C 0.79499 1.15646 1.17956
 C718 C 0.69397 1.19747 1.14335
 C719 C 0.66849 1.17462 1.12640
 C720 C 0.67652 1.13711 1.11874
 C721 C 0.71218 1.12318 1.12805
 C722 C 0.72175 1.08679 1.11726
 C723 C 0.69689 1.06417 1.09948
 C724 C 0.66123 1.07649 1.09220
 C725 C 0.65030 1.11304 1.10182
 C726 C 0.61327 1.12353 1.09478
 C727 C 0.58843 1.09867 1.07919
 C728 C 0.59960 1.06272 1.06964
 C729 C 0.63627 1.05208 1.07579
 H730 H 0.77975 1.10479 1.15832
 H731 H 0.74503 1.23589 1.17774
 H732 H 0.82075 1.14502 1.18892
 H733 H 0.68663 1.22612 1.14838
 H734 H 0.64288 1.18745 1.11892
 H735 H 0.74874 1.07505 1.12150
 H736 H 0.70556 1.03642 1.09181
 H737 H 0.60230 1.15041 1.10191
 H738 H 0.56021 1.10760 1.07482
 H739 H 0.64520 1.02423 1.06877
 C740 C 0.68371 0.78761 0.80379
 C741 C 0.68006 0.82639 0.80615
 C742 C 0.70485 0.84714 0.78610
 C743 C 0.73428 0.82976 0.76762
 C744 C 0.73899 0.79142 0.76750
 C745 C 0.71259 0.77058 0.78470
 C746 C 0.70084 0.88524 0.78541
 C747 C 0.67329 0.90350 0.80492
 C748 C 0.64942 0.88441 0.82714
 C749 C 0.65332 0.84527 0.82824
 C750 C 0.63196 0.82654 0.85288
 C751 C 0.60868 0.84540 0.87651
 C752 C 0.60459 0.88347 0.87574
 C753 C 0.62338 0.90338 0.84993
 C754 C 0.61594 0.94165 0.84876
 C755 C 0.59351 0.95962 0.87417
 C756 C 0.57809 0.94012 0.90148
 C757 C 0.58279 0.90193 0.90153
 H758 H 0.66469 0.76962 0.81634
 H759 H 0.75436 0.84632 0.75437
 H760 H 0.71501 0.74090 0.78418
 H761 H 0.71947 0.90123 0.76983
 H762 H 0.67269 0.93298 0.80342
 H763 H 0.63411 0.79730 0.85591
 H764 H 0.59405 0.83001 0.89596
 H765 H 0.62726 0.95850 0.82876
 H766 H 0.58983 0.98916 0.87351
 H767 H 0.57022 0.88668 0.92233
   
