data_POSCAR
  _audit_creation_date              2014-09-24
  _audit_creation_method            'ToBaCCo'
  _symmetry_space_group_name_H-M    'P1'
  _symmetry_Int_Tables_number       1
  _symmetry_cell_setting            triclinic
  loop_
  _symmetry_equiv_pos_as_xyz
 x,y,z
_cell_length_a 48.8417
_cell_length_b 49.2556
_cell_length_c 49.1799
_cell_angle_alpha 90.884500
_cell_angle_beta 92.415000
_cell_angle_gamma 93.667600
loop_
  _atom_site_label
  _atom_site_type_symbol
  _atom_site_fract_x
  _atom_site_fract_y
  _atom_site_fract_z
C1 C 0.27773 0.47669 0.99680
 C2 C 0.26545 0.50152 0.99886
 C3 C 0.28171 0.52606 1.00028
 C4 C 0.31061 0.52627 0.99989
 C5 C 0.32246 0.50098 0.99749
 C6 C 0.30631 0.47634 0.99574
 C7 C 0.23541 0.50210 0.99907
 C8 C 0.22218 0.50168 1.02383
 C9 C 0.19358 0.50437 1.02458
 C10 C 0.17884 0.50725 0.99952
 C11 C 0.19197 0.50767 0.97469
 C12 C 0.22030 0.50492 0.97459
 H13 H 0.26503 0.45782 0.99537
 H14 H 0.27152 0.54477 1.00270
 H15 H 0.23473 0.50062 1.04240
 H16 H 0.23075 0.50567 0.95557
 H17 H 0.34440 0.50013 0.99592
 H18 H 0.15673 0.50787 0.99878
 C19 C 0.71992 0.47354 0.00509
 C20 C 0.73594 0.49703 -0.00150
 C21 C 0.72325 0.52127 -0.00697
 C22 C 0.69466 0.52208 -0.00598
 C23 C 0.67889 0.49846 0.00058
 C24 C 0.69130 0.47413 0.00616
 C25 C 0.76598 0.49614 -0.00276
 C26 C 0.77881 0.50094 -0.02740
 C27 C 0.80753 0.49973 -0.02917
 C28 C 0.82286 0.49384 -0.00518
 C29 C 0.81021 0.48929 0.01961
 C30 C 0.78170 0.49034 0.02063
 H31 H 0.72975 0.45486 0.00936
 H32 H 0.73561 0.53939 -0.01208
 H33 H 0.76612 0.50622 -0.04484
 H34 H 0.77170 0.48662 0.03960
 H35 H 0.65678 0.49902 0.00127
 H36 H 0.84476 0.49196 -0.00555
 C37 C 0.02935 0.22328 0.50039
 C38 C 0.00456 0.23605 0.50154
 C39 C -0.02033 0.22035 0.50271
 C40 C -0.02066 0.19181 0.50242
 C41 C 0.00436 0.17930 0.50160
 C42 C 0.02948 0.19479 0.50077
 C43 C 0.00470 0.26592 0.50158
 C44 C 0.00842 0.28002 0.47735
 C45 C 0.00908 0.30874 0.47696
 C46 C 0.00644 0.32274 0.50195
 C47 C 0.00277 0.30873 0.52633
 C48 C 0.00162 0.28023 0.52591
 H49 H 0.04851 0.23561 0.49989
 H50 H -0.03939 0.23042 0.50322
 H51 H 0.01160 0.26827 0.45911
 H52 H -0.00098 0.26916 0.54460
 H53 H 0.00429 0.15731 0.50166
 H54 H 0.00558 0.34462 0.50257
 C55 C 1.01770 0.78269 0.49268
 C56 C 0.99505 0.76484 0.49792
 C57 C 0.97024 0.77515 0.50504
 C58 C 0.96789 0.80331 0.50697
 C59 C 0.99076 0.82101 0.50198
 C60 C 1.01606 0.81119 0.49466
 C61 C 0.99733 0.73525 0.49534
 C62 C 0.99763 0.71914 0.51865
 C63 C 1.00175 0.69105 0.51670
 C64 C 1.00448 0.67961 0.49051
 C65 C 1.00358 0.69545 0.46707
 C66 C 1.00021 0.72336 0.46966
 H67 H 1.03616 0.77396 0.48619
 H68 H 0.95279 0.76125 0.50890
 H69 H 0.99624 0.72910 0.53826
 H70 H 0.99991 0.73589 0.45173
 H71 H 0.98859 0.84259 0.50442
 H72 H 1.00573 0.65788 0.48785
 C73 C 0.49483 0.02200 0.21890
 C74 C 0.50234 -0.00069 0.23373
 C75 C 0.50855 -0.02450 0.21988
 C76 C 0.50650 -0.02605 0.19133
 C77 C 0.49902 -0.00317 0.17677
 C78 C 0.49331 0.02097 0.19034
 C79 C 0.50238 0.00003 0.26373
 C80 C 0.47815 0.00474 0.27685
 C81 C 0.47758 0.00466 0.30537
 C82 C 0.50183 0.00037 0.32066
 C83 C 0.52635 -0.00418 0.30780
 C84 C 0.52636 -0.00456 0.27922
 H85 H 0.48994 0.04034 0.22963
 H86 H 0.51381 -0.04217 0.23139
 H87 H 0.45967 0.00822 0.26478
 H88 H 0.54497 -0.00844 0.26897
 H89 H 0.49812 -0.00400 0.15471
 H90 H 0.50160 0.00046 0.34266
 C91 C 0.49201 0.02506 0.78312
 C92 C 0.49644 0.00084 0.76923
 C93 C 0.49907 -0.02327 0.78364
 C94 C 0.49681 -0.02371 0.81220
 C95 C 0.49236 0.00107 0.82570
 C96 C 0.49000 0.02531 0.81141
 C97 C 0.49718 0.00049 0.73937
 C98 C 0.52231 -0.00012 0.72670
 C99 C 0.52309 -0.00007 0.69818
 C100 C 0.49830 -0.00014 0.68259
 C101 C 0.47296 0.00013 0.69505
 C102 C 0.47263 0.00077 0.72358
 H103 H 0.48986 0.04360 0.77186
 H104 H 0.50142 -0.04176 0.77205
 H105 H 0.54121 0.00004 0.73908
 H106 H 0.45328 0.00086 0.73359
 H107 H 0.49215 0.00225 0.84766
 H108 H 0.49873 -0.00036 0.66059
 C109 C 0.29250 0.03409 0.45880
 H110 H 0.29248 0.04930 0.47490
 C111 C 0.31247 0.03615 0.43932
 H112 H 0.32750 0.05332 0.44030
 C113 C 0.27334 -0.00719 0.43855
 H114 H 0.25870 -0.02455 0.43889
 C115 C 0.29292 -0.00589 0.41862
 H116 H 0.29298 -0.02229 0.40371
 N117 N 0.27356 0.01260 0.45818
 C118 C 0.21182 0.03973 0.51196
 H119 H 0.21260 0.02372 0.52674
 C120 C 0.19293 0.05956 0.51434
 H121 H 0.17966 0.05896 0.53143
 C122 C 0.22808 0.05943 0.47155
 H123 H 0.24130 0.05878 0.45451
 C124 C 0.20925 0.07961 0.47301
 H125 H 0.20821 0.09437 0.45698
 Zn126 Zn 0.25026 0.00952 0.48787
 N127 N 0.22881 0.03991 0.49079
 C128 C 0.27588 0.02646 0.53899
 N129 N 0.27336 0.00659 0.51936
 C130 C 0.28911 -0.01517 0.52044
 C131 C 0.30837 -0.01759 0.54188
 C132 C 0.29498 0.02490 0.56078
 C133 C 0.20792 -0.02218 0.46100
 C134 C 0.18640 -0.04217 0.45807
 C135 C 0.20010 -0.05955 0.50189
 C136 C 0.22164 -0.03942 0.50381
 N137 N 0.22495 -0.02109 0.48361
 H138 H 0.26376 0.04400 0.53734
 H139 H 0.28693 -0.03048 0.50434
 H140 H 0.32064 -0.03513 0.54236
 H141 H 0.29728 0.04133 0.57574
 H142 H 0.21068 -0.00702 0.44550
 H143 H 0.17319 -0.04259 0.43982
 H144 H 0.19709 -0.07309 0.51878
 H145 H 0.23484 -0.03767 0.52202
 C146 C 0.19100 0.07954 0.49439
 C147 C 0.31310 0.01578 0.41910
 C148 C 0.18179 -0.06085 0.47898
 C149 C 0.31178 0.00280 0.56225
 C150 C 0.71003 0.01209 0.54352
 H151 H 0.71211 0.02695 0.52763
 C152 C 0.69060 0.01488 0.56317
 H153 H 0.67817 0.03231 0.56255
 C154 C 0.72356 -0.02886 0.56316
 H155 H 0.73591 -0.04627 0.56259
 C156 C 0.70424 -0.02694 0.58317
 H157 H 0.70197 -0.04300 0.59785
 N158 N 0.72597 -0.00952 0.54380
 C159 C 0.79239 0.01713 0.49208
 H160 H 0.79066 0.00063 0.47721
 C161 C 0.81287 0.03798 0.49018
 H162 H 0.82652 0.03757 0.47342
 C163 C 0.77652 0.03745 0.53195
 H164 H 0.76272 0.03681 0.54856
 C165 C 0.79685 0.05868 0.53092
 H166 H 0.79844 0.07419 0.54684
 Zn167 Zn 0.74901 -0.01306 0.51422
 N168 N 0.77463 0.01728 0.51262
 C169 C 0.72712 0.00366 0.46304
 N170 N 0.72571 -0.01573 0.48243
 C171 C 0.70586 -0.03641 0.48092
 C172 C 0.68626 -0.03809 0.45937
 C173 C 0.70794 0.00274 0.44111
 C174 C 0.78748 -0.04434 0.53986
 C175 C 0.80573 -0.06489 0.54252
 C176 C 0.78695 -0.08468 0.49994
 C177 C 0.76894 -0.06377 0.49815
 N178 N 0.76972 -0.04402 0.51786
 H179 H 0.74250 0.02040 0.46499
 H180 H 0.70496 -0.05132 0.49684
 H181 H 0.67056 -0.05467 0.45861
 H182 H 0.70890 0.01883 0.42636
 H183 H 0.78789 -0.02817 0.55504
 H184 H 0.81982 -0.06462 0.56013
 H185 H 0.78678 -0.09959 0.48352
 H186 H 0.75515 -0.06276 0.48048
 C187 C 0.81550 0.05904 0.50990
 C188 C 0.68717 -0.00503 0.58311
 C189 C 0.80602 -0.08514 0.52212
 C190 C 0.68693 -0.01814 0.43926
 C191 C 0.45579 0.20793 1.03488
 H192 H 0.44049 0.20983 1.01858
 C193 C 0.45251 0.18711 1.05361
 H194 H 0.43432 0.17332 1.05187
 C195 C 0.49862 0.22303 1.05616
 H196 H 0.51704 0.23642 1.05644
 C197 C 0.49618 0.20246 1.07533
 H198 H 0.51280 0.20035 1.09026
 N199 N 0.47871 0.22515 1.03626
 C200 C 0.45729 0.29008 0.98198
 H201 H 0.47364 0.28840 0.96799
 C202 C 0.43901 0.31044 0.97866
 H203 H 0.44115 0.32400 0.96166
 C204 C 0.43514 0.27444 1.02129
 H205 H 0.43425 0.26078 1.03826
 C206 C 0.41647 0.29479 1.01887
 H207 H 0.40130 0.29659 1.03411
 Zn208 Zn 0.48383 0.24890 1.00686
 N209 N 0.45518 0.27269 1.00305
 C210 C 0.46431 0.22605 0.95582
 N211 N 0.48495 0.22663 0.97532
 C212 C 0.50544 0.20927 0.97419
 C213 C 0.50564 0.19025 0.95287
 C214 C 0.46360 0.20723 0.93424
 C215 C 0.51753 0.28845 1.03451
 C216 C 0.53875 0.30864 1.03825
 C217 C 0.55764 0.29353 0.99642
 C218 C 0.53605 0.27348 0.99354
 N219 N 0.51638 0.27157 1.01233
 H220 H 0.44778 0.23946 0.95746
 H221 H 0.52123 0.20973 0.99033
 H222 H 0.52168 0.17606 0.95275
 H223 H 0.44680 0.20676 0.91913
 H224 H 0.50137 0.28676 1.04889
 H225 H 0.53904 0.32207 1.05591
 H226 H 0.57242 0.29555 0.98066
 H227 H 0.53433 0.26038 0.97564
 C228 C 0.41862 0.31344 0.99758
 C229 C 0.47316 0.18378 1.07381
 C230 C 0.55882 0.31184 1.01871
 C231 C 0.48427 0.18879 0.93278
 C232 C 0.49671 0.79265 -0.02779
 H233 H 0.48279 0.79083 -0.01128
 C234 C 0.49372 0.81285 -0.04704
 H235 H 0.47708 0.82622 -0.04545
 C236 C 0.53541 0.77742 -0.04961
 H237 H 0.55204 0.76400 -0.05012
 C238 C 0.53321 0.79741 -0.06931
 H239 H 0.54824 0.79913 -0.08486
 N240 N 0.51723 0.77541 -0.02941
 C241 C 0.48990 0.70667 0.01913
 H242 H 0.50757 0.70624 0.03311
 C243 C 0.46838 0.68682 0.02042
 H244 H 0.46947 0.67135 0.03577
 C245 C 0.46734 0.72734 -0.01801
 H246 H 0.46736 0.74277 -0.03337
 C247 C 0.44529 0.70783 -0.01743
 H248 H 0.42847 0.70847 -0.03241
 Zn249 Zn 0.52073 0.75045 -0.00089
 N250 N 0.48905 0.72640 0.00016
 C251 C 0.50552 0.76955 0.05042
 N252 N 0.52537 0.77123 0.03184
 C253 C 0.54678 0.79028 0.03446
 C254 C 0.54825 0.80931 0.05594
 C255 C 0.50617 0.78814 0.07216
 C256 C 0.54755 0.71194 -0.02884
 C257 C 0.56567 0.69166 -0.03274
 C258 C 0.58952 0.70557 0.00975
 C259 C 0.57092 0.72578 0.01279
 N260 N 0.55020 0.72822 -0.00621
 H261 H 0.48833 0.75471 0.04772
 H262 H 0.56199 0.79151 0.01908
 H263 H 0.56470 0.82515 0.05695
 H264 H 0.48977 0.78693 0.08631
 H265 H 0.53062 0.71408 -0.04339
 H266 H 0.56285 0.67862 -0.05070
 H267 H 0.60510 0.70300 0.02565
 H268 H 0.57223 0.73856 0.03093
 C269 C 0.44580 0.68704 0.00180
 C270 C 0.51228 0.81562 -0.06803
 C271 C 0.58651 0.68772 -0.01293
 C272 C 0.52731 0.80883 0.07469
 C273 C 1.05923 0.47966 0.22742
 H274 H 1.05883 0.46358 0.24212
 C275 C 1.07941 0.48089 0.20801
 H276 H 1.09445 0.46567 0.20801
 C277 C 1.03893 0.51779 0.20819
 H278 H 1.02269 0.53175 0.20811
 C279 C 1.05868 0.51984 0.18860
 H280 H 1.05780 0.53585 0.17381
 N281 N 1.03940 0.49786 0.22695
 C282 C 0.99225 0.44504 0.27422
 H283 H 0.97506 0.44415 0.25961
 C284 C 0.99371 0.42511 0.29405
 H285 H 0.97759 0.40900 0.29441
 C286 C 1.03313 0.46802 0.29267
 H287 H 1.04819 0.48507 0.29214
 C288 C 1.03532 0.44863 0.31291
 H289 H 1.05239 0.45067 0.32772
 Zn290 Zn 1.00894 0.49489 0.24934
 N291 N 1.01180 0.46597 0.27392
 C292 C 0.97754 0.46664 0.20852
 N293 N 0.97783 0.48887 0.22527
 C294 C 0.95837 0.50732 0.22249
 C295 C 0.93782 0.50394 0.20182
 C296 C 0.95737 0.46242 0.18772
 C297 C 1.02751 0.54705 0.27071
 C298 C 1.02694 0.56962 0.28817
 C299 C 0.98386 0.55089 0.30447
 C300 C 0.98537 0.52857 0.28688
 N301 N 1.00692 0.52708 0.27043
 H302 H 0.99356 0.45256 0.21088
 H303 H 0.95942 0.52528 0.23546
 H304 H 0.92320 0.51941 0.19922
 H305 H 0.95770 0.44468 0.17449
 H306 H 1.04482 0.54516 0.25801
 H307 H 1.04363 0.58520 0.28836
 H308 H 0.96686 0.55143 0.31787
 H309 H 0.96959 0.51211 0.28667
 C310 C 1.01529 0.42694 0.31393
 C311 C 1.07895 0.50089 0.18794
 C312 C 1.00500 0.57163 0.30548
 C313 C 0.93747 0.48151 0.18376
 C314 C -0.05877 0.48805 0.77022
 H315 H -0.05732 0.46979 0.75805
 C316 C -0.07935 0.48911 0.78905
 H317 H -0.09357 0.47155 0.79107
 C318 C -0.04054 0.53207 0.78408
 H319 H -0.02488 0.54844 0.78244
 C320 C -0.06081 0.53405 0.80304
 H321 H -0.06090 0.55233 0.81553
 N322 N -0.03975 0.50926 0.76830
 C323 C 0.01009 0.45697 0.72722
 H324 H 0.02733 0.46114 0.74146
 C325 C 0.01025 0.43502 0.70892
 H326 H 0.02738 0.42211 0.70970
 C327 C -0.03235 0.46955 0.70769
 H328 H -0.04841 0.48370 0.70681
 C329 C -0.03311 0.44773 0.68915
 H330 H -0.04989 0.44521 0.67403
 Zn331 Zn -0.00880 0.50668 0.74682
 N332 N -0.01089 0.47386 0.72610
 C333 C 0.02324 0.48877 0.79027
 N334 N 0.02227 0.50840 0.77119
 C335 C 0.04185 0.52931 0.77091
 C336 C 0.06354 0.53099 0.79045
 C337 C 0.04466 0.48953 0.81000
 C338 C -0.02503 0.55387 0.71835
 C339 C -0.02328 0.57248 0.69717
 C340 C 0.01761 0.55200 0.68305
 C341 C 0.01514 0.53393 0.70444
 N342 N -0.00601 0.53500 0.72142
 H343 H 0.00709 0.47268 0.79032
 H344 H 0.04037 0.54504 0.75595
 H345 H 0.07889 0.54783 0.79007
 H346 H 0.04478 0.47399 0.82533
 H347 H -0.04204 0.55395 0.73168
 H348 H -0.03900 0.58685 0.69442
 H349 H 0.03448 0.55062 0.66961
 H350 H 0.02977 0.51851 0.70719
 C351 C -0.01133 0.43046 0.68927
 C352 C -0.08025 0.51215 0.80615
 C353 C -0.00202 0.57131 0.67890
 C354 C 0.06504 0.51097 0.81040
 C355 C 0.10307 0.15208 0.49831
 C356 C 0.10061 0.17541 0.48251
 C357 C 0.07688 0.18979 0.48368
 C358 C 0.05563 0.18096 0.50046
 C359 C 0.05926 0.15794 0.51635
 N360 N 0.08236 0.14422 0.51471
 C361 C 0.12655 0.13461 0.49679
 N362 N 0.12275 0.10830 0.50455
 C363 C 0.14289 0.09061 0.50393
 C364 C 0.16904 0.09907 0.49522
 C365 C 0.17355 0.12619 0.48717
 C366 C 0.15240 0.14403 0.48796
 H367 H 0.07477 0.20724 0.47082
 H368 H 0.04368 0.15070 0.52998
 H369 H 0.13822 0.06982 0.50984
 H370 H 0.19350 0.13370 0.48068
 H371 H 0.11622 0.18202 0.46868
 H372 H 0.15654 0.16494 0.48220
 C373 C 0.65081 0.59360 -0.01705
 C374 C 0.64276 0.56987 -0.03238
 C375 C 0.65761 0.54682 -0.02933
 C376 C 0.68081 0.54739 -0.01155
 C377 C 0.68928 0.57191 0.00210
 N378 N 0.67410 0.59402 -0.00071
 C379 C 0.63409 0.61773 -0.01734
 N380 N 0.64582 0.64237 -0.00860
 C381 C 0.63133 0.66505 -0.00727
 C382 C 0.60323 0.66367 -0.01492
 C383 C 0.59075 0.63844 -0.02372
 C384 C 0.60596 0.61554 -0.02487
 H385 H 0.65081 0.52839 -0.04063
 H386 H 0.70719 0.57312 0.01590
 H387 H 0.64176 0.68410 -0.00034
 H388 H 0.56896 0.63618 -0.02898
 H389 H 0.62513 0.56883 -0.04648
 H390 H 0.59535 0.59629 -0.03076
 C391 C 0.89312 -0.15865 0.51976
 C392 C 0.89268 -0.18184 0.50265
 C393 C 0.91683 -0.19512 0.49946
 C394 C 0.94137 -0.18534 0.51312
 C395 C 0.94063 -0.16288 0.53089
 N396 N 0.91701 -0.15016 0.53347
 C397 C 0.86941 -0.14144 0.52158
 N398 N 0.87437 -0.11536 0.53092
 C399 C 0.85443 -0.09746 0.53196
 C400 C 0.82738 -0.10533 0.52297
 C401 C 0.82156 -0.13231 0.51381
 C402 C 0.84242 -0.15045 0.51319
 H403 H 0.91663 -0.21220 0.48529
 H404 H 0.95900 -0.15496 0.54217
 H405 H 0.86002 -0.07682 0.53891
 H406 H 0.80088 -0.13939 0.50716
 H407 H 0.87446 -0.18901 0.49078
 H408 H 0.83728 -0.17115 0.50625
 C409 C 0.35037 0.40454 0.99047
 C410 C 0.35543 0.42573 0.97221
 C411 C 0.34028 0.44866 0.97330
 C412 C 0.31985 0.45052 0.99229
 C413 C 0.31412 0.42819 1.00899
 N414 N 0.32952 0.40612 1.00788
 C415 C 0.36805 0.38125 0.99188
 N416 N 0.35762 0.35658 1.00019
 C417 C 0.37318 0.33464 1.00221
 C418 C 0.40101 0.33693 0.99579
 C419 C 0.41218 0.36239 0.98784
 C420 C 0.39588 0.38446 0.98586
 H421 H 0.34481 0.46519 0.95958
 H422 H 0.29834 0.42882 1.02375
 H423 H 0.36373 0.31541 1.00848
 H424 H 0.43373 0.36545 0.98362
 H425 H 0.37112 0.42482 0.95739
 H426 H 0.40528 0.40398 0.98033
 C427 C 0.90532 0.14054 0.50548
 C428 C 0.90808 0.16480 0.52106
 C429 C 0.93196 0.18189 0.51970
 C430 C 0.95309 0.17486 0.50295
 C431 C 0.94922 0.15071 0.48735
 N432 N 0.92595 0.13436 0.48915
 C433 C 0.88148 0.12058 0.50709
 N434 N 0.88476 0.09426 0.49983
 C435 C 0.86416 0.07448 0.50060
 C436 C 0.83810 0.08068 0.50896
 C437 C 0.83415 0.10776 0.51641
 C438 C 0.85572 0.12775 0.51548
 H439 H 0.93426 0.20012 0.53239
 H440 H 0.96472 0.14470 0.47378
 H441 H 0.86836 0.05386 0.49506
 H442 H 0.81427 0.11358 0.52251
 H443 H 0.89255 0.17019 0.53485
 H444 H 0.85198 0.14855 0.52075
 C445 C 0.36238 0.59877 0.00224
 C446 C 0.33500 0.59952 -0.00748
 C447 C 0.31764 0.57580 -0.00768
 C448 C 0.32739 0.55098 0.00141
 C449 C 0.35490 0.55157 0.01155
 N450 N 0.37123 0.57489 0.01156
 C451 C 0.38266 0.62250 0.00191
 N452 N 0.40968 0.61785 0.00604
 C453 C 0.42994 0.63801 0.00611
 C454 C 0.42360 0.66502 0.00183
 C455 C 0.39590 0.67046 -0.00247
 C456 C 0.37536 0.64934 -0.00232
 H457 H 0.29708 0.57688 -0.01647
 H458 H 0.36352 0.53383 0.02023
 H459 H 0.45103 0.63278 0.00911
 H460 H 0.39010 0.69109 -0.00548
 H461 H 0.32705 0.61780 -0.01569
 H462 H 0.35420 0.65426 -0.00511
 C463 C 0.08464 -0.13394 0.48142
 C464 C 0.05793 -0.12539 0.47759
 C465 C 0.03545 -0.14355 0.48144
 C466 C 0.03899 -0.17052 0.48953
 C467 C 0.06630 -0.17825 0.49277
 N468 N 0.08788 -0.16005 0.48894
 C469 C 0.10944 -0.11518 0.47887
 N470 N 0.13396 -0.12255 0.48969
 C471 C 0.15737 -0.10604 0.48935
 C472 C 0.15699 -0.08015 0.47778
 C473 C 0.13206 -0.07243 0.46594
 C474 C 0.10846 -0.08986 0.46618
 H475 H 0.01533 -0.13625 0.47721
 H476 H 0.07084 -0.19825 0.49968
 H477 H 0.17618 -0.11316 0.49823
 H478 H 0.13052 -0.05261 0.45703
 H479 H 0.05400 -0.10480 0.47213
 H480 H 0.08984 -0.08323 0.45652
 C481 C 0.63755 0.40432 1.02011
 C482 C 0.63486 0.42857 1.03493
 C483 C 0.65290 0.45108 1.03092
 C484 C 0.67398 0.44947 1.01260
 C485 C 0.67705 0.42447 0.99939
 N486 N 0.65885 0.40291 1.00321
 C487 C 0.61732 0.38064 1.02151
 N488 N 0.62446 0.35561 1.01326
 C489 C 0.60648 0.33329 1.01267
 C490 C 0.57937 0.33547 1.02051
 C491 C 0.57161 0.36109 1.02900
 C492 C 0.59037 0.38361 1.02947
 H493 H 0.65027 0.46986 1.04197
 H494 H 0.69314 0.42242 0.98516
 H495 H 0.61338 0.31391 1.00606
 H496 H 0.55072 0.36396 1.03443
 H497 H 0.61898 0.43040 1.04939
 H498 H 0.58331 0.40320 1.03508
 C499 C 0.47584 0.08972 1.14198
 C500 C 0.46204 0.06428 1.13584
 C501 C 0.46735 0.04200 1.15195
 C502 C 0.48596 0.04497 1.17445
 C503 C 0.49828 0.07094 1.18075
 N504 N 0.49317 0.09227 1.16446
 C505 C 0.47291 0.11366 1.12437
 N506 N 0.48163 0.13883 1.13440
 C507 C 0.48121 0.16154 1.11904
 C508 C 0.47181 0.15970 1.09165
 C509 C 0.46256 0.13401 1.08094
 C510 C 0.46313 0.11104 1.09709
 H511 H 0.45695 0.02240 1.14680
 H512 H 0.51272 0.07407 1.19798
 H513 H 0.48839 0.18097 1.12818
 H514 H 0.45582 0.13148 1.05974
 H515 H 0.44732 0.06133 1.11887
 H516 H 0.45694 0.09149 1.08776
 C517 C 0.00325 0.64017 0.58530
 C518 C 0.01819 0.63396 0.56255
 C519 C 0.01790 0.65088 0.54018
 C520 C 0.00306 0.67452 0.54011
 C521 C -0.01047 0.68069 0.56406
 N522 N -0.01023 0.66351 0.58549
 C523 C 0.00184 0.62197 0.60902
 N524 N -0.00459 0.63220 0.63369
 C525 C -0.00617 0.61654 0.65623
 C526 C -0.00099 0.58886 0.65468
 C527 C 0.00507 0.57783 0.62936
 C528 C 0.00634 0.59416 0.60656
 H529 H 0.03028 0.64570 0.52336
 H530 H -0.02250 0.69829 0.56543
 H531 H -0.01102 0.62581 0.67539
 H532 H 0.00838 0.55639 0.62707
 H533 H 0.03043 0.61644 0.56198
 H534 H 0.01029 0.58479 0.58722
 C535 C 0.50382 0.90454 -0.14215
 C536 C 0.51601 0.90660 -0.16742
 C537 C 0.51343 0.93004 -0.18273
 C538 C 0.49892 0.95185 -0.17299
 C539 C 0.48678 0.94850 -0.14759
 N540 N 0.48961 0.92550 -0.13320
 C541 C 0.50654 0.88092 -0.12417
 N542 N 0.50162 0.88425 -0.09733
 C543 C 0.50335 0.86385 -0.07924
 C544 C 0.51032 0.83797 -0.08781
 C545 C 0.51541 0.83395 -0.11543
 C546 C 0.51347 0.85529 -0.13368
 H547 H 0.52414 0.93136 -0.20151
 H548 H 0.47421 0.96359 -0.13927
 H549 H 0.49963 0.86804 -0.05809
 H550 H 0.52040 0.81419 -0.12301
 H551 H 0.52820 0.89081 -0.17506
 H552 H 0.51685 0.85144 -0.15494
 C553 C 1.01478 0.35312 0.40392
 C554 C 1.00435 0.32587 0.40290
 C555 C 1.00302 0.31105 0.42684
 C556 C 1.01173 0.32314 0.45222
 C557 C 1.02252 0.35041 0.45204
 N558 N 1.02365 0.36430 0.42843
 C559 C 1.01561 0.37081 0.37969
 N560 N 1.02248 0.39784 0.38377
 C561 C 1.02304 0.41589 0.36316
 C562 C 1.01614 0.40712 0.33633
 C563 C 1.00933 0.37932 0.33146
 C564 C 1.00917 0.36109 0.35296
 H565 H 0.99365 0.29056 0.42531
 H566 H 1.03083 0.36075 0.47039
 H567 H 1.02817 0.43718 0.36792
 H568 H 1.00428 0.37164 0.31099
 H569 H 0.99650 0.31599 0.38417
 H570 H 1.00408 0.33983 0.34832
 C571 C 0.51935 0.90068 0.14705
 C572 C 0.53769 0.90903 0.16883
 C573 C 0.53345 0.93281 0.18356
 C574 C 0.51114 0.94830 0.17655
 C575 C 0.49313 0.93899 0.15496
 N576 N 0.49758 0.91579 0.14106
 C577 C 0.52246 0.87593 0.13030
 N578 N 0.49987 0.86452 0.11633
 C579 C 0.50090 0.84271 0.09931
 C580 C 0.52597 0.83124 0.09503
 C581 C 0.54962 0.84258 0.10923
 C582 C 0.54796 0.86486 0.12696
 H583 H 0.54778 0.93930 0.20015
 H584 H 0.47538 0.95004 0.14923
 H585 H 0.48223 0.83498 0.08841
 H586 H 0.56937 0.83436 0.10646
 H587 H 0.55489 0.89729 0.17469
 H588 H 0.56657 0.87371 0.13711
 C589 C -0.00535 0.35482 0.59972
 C590 C -0.02296 0.33151 0.59422
 C591 C -0.02014 0.31619 0.57045
 C592 C 0.00005 0.32409 0.55216
 C593 C 0.01753 0.34719 0.55870
 N594 N 0.01447 0.36168 0.58196
 C595 C -0.00754 0.37239 0.62413
 N596 N 0.01501 0.38812 0.63324
 C597 C 0.01445 0.40596 0.65451
 C598 C -0.01009 0.40926 0.66768
 C599 C -0.03362 0.39319 0.65874
 C600 C -0.03243 0.37469 0.63706
 H601 H -0.03403 0.29848 0.56614
 H602 H 0.03368 0.35368 0.54537
 H603 H 0.03296 0.41825 0.66045
 H604 H -0.05295 0.39514 0.66835
 H605 H -0.03856 0.32497 0.60810
 H606 H -0.05102 0.36312 0.63003
 C607 C 0.48090 0.09804 0.85761
 C608 C 0.46331 0.07491 0.86168
 C609 C 0.46590 0.05138 0.84615
 C610 C 0.48578 0.05085 0.82645
 C611 C 0.50254 0.07455 0.82252
 N612 N 0.49999 0.09713 0.83826
 C613 C 0.48054 0.12256 0.87527
 N614 N 0.50449 0.13759 0.88114
 C615 C 0.50605 0.15926 0.89875
 C616 C 0.48254 0.16686 0.91166
 C617 C 0.45747 0.15221 0.90516
 C618 C 0.45637 0.13011 0.88700
 H619 H 0.45263 0.03344 0.84976
 H620 H 0.51829 0.07479 0.80767
 H621 H 0.52569 0.17031 0.90288
 H622 H 0.43887 0.15731 0.91475
 H623 H 0.44842 0.07455 0.87737
 H624 H 0.43685 0.11901 0.88238
 C625 C 1.00525 0.65206 0.39137
 C626 C 0.98627 0.67208 0.39429
 C627 C 0.98638 0.68713 0.41863
 C628 C 1.00528 0.68223 0.43998
 C629 C 1.02468 0.66296 0.43574
 N630 N 1.02412 0.64853 0.41196
 C631 C 1.00482 0.63373 0.36722
 N632 N 1.02814 0.62143 0.36150
 C633 C 1.02890 0.60249 0.34122
 C634 C 1.00496 0.59427 0.32570
 C635 C 0.98072 0.60686 0.33100
 C636 C 0.98056 0.62663 0.35164
 H637 H 0.97110 0.70186 0.42114
 H638 H 1.03991 0.65896 0.45156
 H639 H 1.04795 0.59306 0.33803
 H640 H 0.96182 0.60112 0.31943
 H641 H 0.97135 0.67597 0.37817
 H642 H 0.96139 0.63530 0.35598
 C643 C 1.15096 0.50293 0.09796
 C644 C 1.17593 0.49046 0.09689
 C645 C 1.19032 0.49128 0.07289
 C646 C 1.17991 0.50427 0.04959
 C647 C 1.15497 0.51692 0.05203
 N648 N 1.14148 0.51579 0.07556
 C649 C 1.13366 0.50185 0.12200
 N650 N 1.10680 0.50724 0.11825
 C651 C 1.08921 0.50699 0.13886
 C652 C 1.09834 0.50118 0.16545
 C653 C 1.12598 0.49553 0.16993
 C654 C 1.14373 0.49593 0.14832
 H655 H 1.20883 0.48039 0.07245
 H656 H 1.14630 0.52850 0.03568
 H657 H 1.06799 0.51098 0.13430
 H658 H 1.13396 0.49129 0.19019
 H659 H 1.18396 0.47937 0.11393
 H660 H 1.16505 0.49214 0.15244
 C661 C 0.59778 -0.00098 0.65567
 C662 C 0.59472 -0.01679 0.67905
 C663 C 0.57063 -0.01608 0.69337
 C664 C 0.54958 0.00020 0.68442
 C665 C 0.55376 0.01609 0.66135
 N666 N 0.57724 0.01494 0.64770
 C667 C 0.62172 -0.00208 0.63827
 N668 N 0.61875 0.00597 0.61203
 C669 C 0.63929 0.00541 0.59434
 C670 C 0.66493 -0.00366 0.60271
 C671 C 0.66863 -0.01182 0.62980
 C672 C 0.64714 -0.01100 0.64765
 H673 H 0.56808 -0.02893 0.71087
 H674 H 0.53831 0.02931 0.65400
 H675 H 0.63530 0.01152 0.57359
 H676 H 0.68820 -0.01852 0.63726
 H677 H 0.61014 -0.03028 0.68577
 H678 H 0.65068 -0.01693 0.66851
 C679 C -0.15159 0.50895 0.89677
 C680 C -0.17976 0.50115 0.89603
 C681 C -0.19345 0.49863 0.92036
 C682 C -0.17932 0.50379 0.94576
 C683 C -0.15127 0.51263 0.94522
 N684 N -0.13852 0.51482 0.92130
 C685 C -0.13505 0.51075 0.87212
 N686 N -0.10906 0.52247 0.87486
 C687 C -0.09167 0.52380 0.85404
 C688 C -0.09996 0.51253 0.82838
 C689 C -0.12676 0.50052 0.82489
 C690 C -0.14435 0.49956 0.84662
 H691 H -0.21481 0.49129 0.91896
 H692 H -0.13935 0.51858 0.96358
 H693 H -0.07107 0.53283 0.85790
 H694 H -0.13409 0.49172 0.80541
 H695 H -0.19133 0.49679 0.87710
 H696 H -0.16455 0.48951 0.84339
 C697 C 0.40345 0.01265 0.34759
 C698 C 0.40276 -0.00292 0.32333
 C699 C 0.42679 -0.00500 0.30924
 C700 C 0.45158 0.00820 0.31923
 C701 C 0.45133 0.02383 0.34330
 N702 N 0.42770 0.02550 0.35670
 C703 C 0.37922 0.01431 0.36462
 N704 N 0.38349 0.02262 0.39107
 C705 C 0.36275 0.02386 0.40851
 C706 C 0.33560 0.01621 0.39968
 C707 C 0.33056 0.00810 0.37236
 C708 C 0.35221 0.00726 0.35474
 H709 H 0.42616 -0.01769 0.29102
 H710 H 0.46990 0.03462 0.35157
 H711 H 0.36765 0.03003 0.42945
 H712 H 0.30986 0.00252 0.36459
 H713 H 0.38428 -0.01420 0.31562
 H714 H 0.34758 0.00131 0.33373
 C715 C 0.14307 0.51546 0.90144
 C716 C 0.14038 0.53348 0.92344
 C717 C 0.15670 0.53120 0.94713
 C718 C 0.17580 0.51116 0.94898
 C719 C 0.17829 0.49390 0.92638
 N720 N 0.16184 0.49621 0.90362
 C721 C 0.12460 0.51559 0.87683
 N722 N 0.11789 0.49172 0.86311
 C723 C 0.09962 0.48991 0.84142
 C724 C 0.08683 0.51307 0.83240
 C725 C 0.09420 0.53807 0.84564
 C726 C 0.11305 0.53942 0.86781
 H727 H 0.15423 0.54492 0.96415
 H728 H 0.19265 0.47805 0.92714
 H729 H 0.09487 0.47034 0.83144
 H730 H 0.08478 0.55641 0.83938
 H731 H 0.12520 0.54853 0.92284
 H732 H 0.11835 0.55890 0.87780
 C733 C 0.59897 -0.01353 0.35784
 C734 C 0.60067 0.00190 0.33408
 C735 C 0.57714 0.00442 0.31740
 C736 C 0.55187 -0.00820 0.32433
 C737 C 0.55115 -0.02378 0.34797
 N738 N 0.57429 -0.02586 0.36392
 C739 C 0.62258 -0.01556 0.37753
 N740 N 0.61734 -0.02326 0.40337
 C741 C 0.63749 -0.02481 0.42307
 C742 C 0.66501 -0.01819 0.41737
 C743 C 0.67102 -0.01073 0.39074
 C744 C 0.64996 -0.00951 0.37075
 H745 H 0.57851 0.01700 0.29958
 H746 H 0.53220 -0.03419 0.35389
 H747 H 0.63183 -0.03044 0.44336
 H748 H 0.69203 -0.00596 0.38533
 H749 H 0.61956 0.01276 0.32873
 H750 H 0.65529 -0.00409 0.35035
 C751 C 0.86224 0.47768 0.09002
 C752 C 0.86545 0.46233 0.06616
 C753 C 0.84803 0.46561 0.04343
 C754 C 0.82714 0.48380 0.04441
 C755 C 0.82365 0.49767 0.06904
 N756 N 0.84117 0.49448 0.09083
 C757 C 0.88158 0.47684 0.11401
 N758 N 0.87354 0.48535 0.13876
 C759 C 0.89067 0.48649 0.16136
 C760 C 0.91785 0.47903 0.15978
 C761 C 0.92654 0.47024 0.13446
 C762 C 0.90860 0.46916 0.11163
 H763 H 0.85095 0.45403 0.02500
 H764 H 0.80771 0.51183 0.07064
 H765 H 0.88304 0.49326 0.18049
 H766 H 0.94752 0.46504 0.13206
 H767 H 0.88119 0.44797 0.06485
 H768 H 0.91634 0.46332 0.09226
 C769 C 0.39972 0.00031 0.64398
 C770 C 0.40214 0.01659 0.66781
 C771 C 0.42578 0.01618 0.68481
 C772 C 0.44704 -0.00025 0.67810
 C773 C 0.44358 -0.01650 0.65436
 N774 N 0.42049 -0.01566 0.63811
 C775 C 0.37613 0.00090 0.62409
 N776 N 0.37956 -0.00778 0.59812
 C777 C 0.35935 -0.00764 0.57832
 C778 C 0.33363 0.00169 0.58410
 C779 C 0.32944 0.01043 0.61084
 C780 C 0.35055 0.01000 0.63089
 H781 H 0.42779 0.02934 0.70272
 H782 H 0.45924 -0.02981 0.64861
 H783 H 0.36368 -0.01425 0.55796
 H784 H 0.30976 0.01733 0.61632
 H785 H 0.38655 0.03018 0.67296
 H786 H 0.34660 0.01638 0.65140
   
