data_POSCAR
  _audit_creation_date              2014-09-24
  _audit_creation_method            'ToBaCCo'
  _symmetry_space_group_name_H-M    'P1'
  _symmetry_Int_Tables_number       1
  _symmetry_cell_setting            triclinic
  loop_
  _symmetry_equiv_pos_as_xyz
 x,y,z
_cell_length_a 41.7468
_cell_length_b 42.0323
_cell_length_c 8.6933
_cell_angle_alpha 90.248300
_cell_angle_beta 90.002200
_cell_angle_gamma 90.062800
loop_
  _atom_site_label
  _atom_site_type_symbol
  _atom_site_fract_x
  _atom_site_fract_y
  _atom_site_fract_z
O1 O 0.22429 0.28007 0.09331
 O2 O 0.28572 0.21883 0.15843
 O3 O 0.22480 0.21810 0.09341
 O4 O 0.28500 0.28085 0.15801
 O5 O 0.27454 0.28034 0.40670
 O6 O 0.21343 0.21858 0.34081
 O7 O 0.27428 0.21848 0.40600
 O8 O 0.21358 0.28047 0.34167
 Cu9 Cu 0.25613 0.24942 0.10128
 Cu10 Cu 0.24278 0.24948 0.39829
 C11 C 0.20846 0.29086 0.20690
 C12 C 0.29051 0.20810 0.29284
 C13 C 0.20861 0.20761 0.20629
 C14 C 0.29015 0.29128 0.29312
 O15 O 0.78526 0.28103 0.34176
 O16 O 0.72504 0.21846 0.40675
 O17 O 0.78595 0.21900 0.34173
 O18 O 0.72454 0.28042 0.40644
 O19 O 0.71385 0.28037 0.15806
 O20 O 0.77450 0.21819 0.09416
 O21 O 0.71365 0.21850 0.15936
 O22 O 0.77480 0.28006 0.09307
 Cu23 Cu 0.75638 0.24974 0.39867
 Cu24 Cu 0.74303 0.24924 0.10166
 C25 C 0.79040 0.29121 0.20665
 C26 C 0.70883 0.20779 0.29390
 C27 C 0.79072 0.20800 0.20735
 C28 C 0.70872 0.29101 0.29282
 O29 O 0.72594 0.78150 0.59358
 O30 O 0.78599 0.71893 0.65907
 O31 O 0.72528 0.71956 0.59437
 O32 O 0.78686 0.78095 0.65885
 O33 O 0.77543 0.78183 0.90617
 O34 O 0.71456 0.71970 0.84271
 O35 O 0.77552 0.71995 0.90775
 O36 O 0.71459 0.78159 0.84127
 Cu37 Cu 0.75721 0.75022 0.60196
 Cu38 Cu 0.74385 0.75081 0.89898
 C39 C 0.70984 0.79218 0.70658
 C40 C 0.79109 0.70877 0.79423
 C41 C 0.70941 0.70902 0.70801
 C42 C 0.79174 0.79204 0.79312
 O43 O 0.28594 0.78128 0.84116
 O44 O 0.22454 0.71990 0.90651
 O45 O 0.28525 0.71925 0.84182
 O46 O 0.22503 0.78186 0.90614
 O47 O 0.21366 0.78132 0.65873
 O48 O 0.27479 0.71970 0.59311
 O49 O 0.21383 0.71943 0.65815
 O50 O 0.27451 0.78156 0.59358
 Cu51 Cu 0.25637 0.75062 0.89841
 Cu52 Cu 0.24302 0.75048 0.60140
 C53 C 0.29073 0.79201 0.70671
 C54 C 0.20871 0.70905 0.79296
 C55 C 0.29040 0.70882 0.70676
 C56 C 0.20883 0.79229 0.79322
 O57 O 1.03173 -0.03573 0.09209
 O58 O 0.96936 0.02475 0.15619
 O59 O 0.96909 -0.03581 0.09171
 O60 O 1.03143 0.02485 0.15580
 O61 O 1.03170 0.03506 -0.09287
 O62 O 0.96937 -0.02560 -0.15697
 O63 O 0.96906 0.03496 -0.09249
 O64 O 1.03145 -0.02552 -0.15659
 Cu65 Cu 1.00040 -0.00668 0.14839
 Cu66 Cu 1.00039 0.00592 -0.14918
 C67 C 1.04226 -0.04101 -0.04272
 C68 C 0.95855 0.04024 0.04235
 C69 C 0.95857 -0.04112 -0.04313
 C70 C 1.04222 0.04037 0.04194
 O71 O 0.53150 0.53525 0.40830
 O72 O 0.46831 0.47542 0.34472
 O73 O 0.46905 0.53602 0.40838
 O74 O 0.53053 0.47473 0.34341
 O75 O 0.53140 0.46500 0.59250
 O76 O 0.46835 0.52485 0.65591
 O77 O 0.46895 0.46425 0.59226
 O78 O 0.53058 0.52553 0.65739
 Cu79 Cu 0.49984 0.50652 0.35173
 Cu80 Cu 0.49981 0.49375 0.64899
 C81 C 0.54171 0.54079 0.54345
 C82 C 0.45795 0.45940 0.45796
 C83 C 0.45804 0.54087 0.54264
 C84 C 0.54161 0.45946 0.45737
 O85 O 0.03060 0.52504 -0.15636
 O86 O -0.03100 0.46386 -0.09188
 O87 O -0.03160 0.52437 -0.15481
 O88 O 0.03143 0.46461 -0.09217
 O89 O 0.03057 0.47470 0.15702
 O90 O -0.03090 0.53590 0.09283
 O91 O -0.03163 0.47539 0.15577
 O92 O 0.03153 0.53514 0.09283
 Cu93 Cu -0.00015 0.49328 -0.14836
 Cu94 Cu -0.00010 0.50647 0.14917
 C95 C 0.04172 0.54049 -0.04232
 C96 C -0.04199 0.45920 0.04240
 C97 C -0.04189 0.54056 -0.04141
 C98 C 0.04164 0.45926 0.04293
 O99 O 0.46910 1.03585 0.59222
 O100 O 0.53147 0.97548 0.65563
 O101 O 0.53174 1.03596 0.59254
 O102 O 0.46943 0.97540 0.65598
 O103 O 0.46913 0.96482 0.40720
 O104 O 0.53145 1.02538 0.34377
 O105 O 0.53176 0.96490 0.40685
 O106 O 0.46940 1.02528 0.34344
 Cu107 Cu 0.50043 1.00690 0.64862
 Cu108 Cu 0.50044 0.99387 0.35079
 C109 C 0.45859 1.04093 0.45741
 C110 C 0.54228 0.95983 0.54164
 C111 C 0.54225 1.04107 0.45776
 C112 C 0.45863 0.95971 0.54202
 C113 C 1.13861 0.13657 0.13664
 C114 C 1.15655 0.14749 0.01090
 C115 C 1.17982 0.17112 0.03437
 C116 C 1.18530 0.18388 0.18276
 C117 C 1.16694 0.17245 0.30752
 C118 C 1.14360 0.14889 0.28496
 C119 C 1.11404 0.11179 0.11250
 C120 C 1.09619 0.10078 0.23846
 C121 C 1.07292 0.07716 0.21498
 C122 C 1.06716 0.06489 0.06643
 C123 C 1.08523 0.07632 -0.05872
 C124 C 1.10885 0.09963 -0.03610
 C125 C 1.12511 0.13744 0.40796
 C126 C 1.10186 0.11373 0.38520
 C127 C 1.15084 0.13454 -0.13592
 C128 C 1.12740 0.11102 -0.15898
 H129 H 1.12860 0.14694 0.52272
 H130 H 1.08812 0.10556 0.48315
 H131 H 1.16462 0.14267 -0.23384
 H132 H 1.12381 0.10161 -0.27384
 H133 H 1.19360 0.17949 -0.06317
 H134 H 1.17067 0.18185 0.42250
 H135 H 1.05904 0.06865 0.31184
 H136 H 1.08109 0.06691 -0.17334
 C137 C 0.63812 0.63694 0.63799
 C138 C 0.65612 0.64777 0.51216
 C139 C 0.67941 0.67137 0.53557
 C140 C 0.68477 0.68413 0.68363
 C141 C 0.66643 0.67294 0.80849
 C142 C 0.64308 0.64937 0.78625
 C143 C 0.61356 0.61217 0.61399
 C144 C 0.59566 0.60124 0.73997
 C145 C 0.57239 0.57762 0.71656
 C146 C 0.56668 0.56527 0.56809
 C147 C 0.58481 0.57661 0.44298
 C148 C 0.60842 0.59993 0.46550
 C149 C 0.62455 0.63799 0.90926
 C150 C 0.60130 0.61427 0.88662
 C151 C 0.65046 0.63476 0.36547
 C152 C 0.62701 0.61124 0.34257
 H153 H 0.62802 0.64754 1.02394
 H154 H 0.58754 0.60615 0.98458
 H155 H 0.66428 0.64282 0.26756
 H156 H 0.62344 0.60178 0.22778
 H157 H 0.69335 0.67975 0.43863
 H158 H 0.67029 0.68255 0.92293
 H159 H 0.55846 0.56916 0.81340
 H160 H 0.58072 0.56716 0.32843
 C161 C -0.13863 0.36329 0.13595
 C162 C -0.15075 0.35817 0.28444
 C163 C -0.17391 0.33446 0.30693
 C164 C -0.18522 0.31621 0.18183
 C165 C -0.17302 0.32190 0.03333
 C166 C -0.14954 0.34527 0.00995
 C167 C -0.11399 0.38794 0.11203
 C168 C -0.10165 0.39285 -0.03618
 C169 C -0.07815 0.41625 -0.05831
 C170 C -0.06696 0.43467 0.06660
 C171 C -0.07967 0.42940 0.21457
 C172 C -0.10319 0.40605 0.23790
 C173 C -0.13661 0.35089 -0.13668
 C174 C -0.11300 0.37422 -0.15924
 C175 C -0.13948 0.37687 0.40740
 C176 C -0.11609 0.40042 0.38456
 H177 H -0.14472 0.33705 -0.23469
 H178 H -0.10349 0.37767 -0.27386
 H179 H -0.14887 0.37332 0.52216
 H180 H -0.10804 0.41430 0.48253
 H181 H -0.18328 0.33039 0.42149
 H182 H -0.18147 0.30788 -0.06348
 H183 H -0.06859 0.42005 -0.17269
 H184 H -0.07127 0.44339 0.31156
 C185 C 0.36214 0.86382 0.63630
 C186 C 0.35728 0.85156 0.78443
 C187 C 0.33388 0.82809 0.80674
 C188 C 0.31539 0.81683 0.68211
 C189 C 0.32064 0.82942 0.53415
 C190 C 0.34399 0.85292 0.51064
 C191 C 0.38675 0.88850 0.61228
 C192 C 0.39181 0.90056 0.46389
 C193 C 0.41547 0.92379 0.44137
 C194 C 0.43369 0.93524 0.56640
 C195 C 0.42807 0.92306 0.71475
 C196 C 0.40477 0.89952 0.73814
 C197 C 0.34958 0.86576 0.36406
 C198 C 0.37309 0.88918 0.34113
 C199 C 0.37595 0.86301 0.90729
 C200 C 0.39923 0.88665 0.88466
 H201 H 0.33566 0.85763 0.26626
 H202 H 0.37658 0.89852 0.22646
 H203 H 0.37255 0.85356 1.02184
 H204 H 0.41309 0.89484 0.98253
 H205 H 0.33011 0.81861 0.92110
 H206 H 0.30659 0.82097 0.43736
 H207 H 0.41950 0.93314 0.32693
 H208 H 0.44208 0.93160 0.81151
 C209 C -0.13821 0.63658 -0.13495
 C210 C -0.14905 0.65462 -0.00896
 C211 C -0.17245 0.67803 -0.03237
 C212 C -0.18462 0.68373 -0.18087
 C213 C -0.17337 0.66546 -0.30596
 C214 C -0.15031 0.64171 -0.28344
 C215 C -0.11366 0.61189 -0.11101
 C216 C -0.10292 0.59377 -0.23687
 C217 C -0.07949 0.57039 -0.21354
 C218 C -0.06680 0.56511 -0.06556
 C219 C -0.07792 0.58354 0.05935
 C220 C -0.10134 0.60697 0.03721
 C221 C -0.13910 0.62300 -0.40639
 C222 C -0.11581 0.59942 -0.38354
 C223 C -0.13615 0.64898 0.13768
 C224 C -0.11262 0.62562 0.16025
 H225 H -0.14848 0.62656 -0.52116
 H226 H -0.10780 0.58553 -0.48150
 H227 H -0.14420 0.66284 0.23568
 H228 H -0.10312 0.62216 0.27488
 H229 H -0.18085 0.69206 0.06443
 H230 H -0.18273 0.66954 -0.42052
 H231 H -0.07114 0.55639 -0.31053
 H232 H -0.06837 0.57973 0.17373
 C233 C 0.36199 1.13650 0.36318
 C234 C 0.35711 1.14875 0.21505
 C235 C 0.33369 1.17215 0.19275
 C236 C 0.31519 1.18334 0.31740
 C237 C 0.32045 1.17077 0.46535
 C238 C 0.34383 1.14734 0.48884
 C239 C 0.38663 1.11191 0.38719
 C240 C 0.39170 1.09985 0.53556
 C241 C 0.41539 1.07670 0.55808
 C242 C 0.43362 1.06532 0.43304
 C243 C 0.42798 1.07748 0.28470
 C244 C 0.40466 1.10095 0.26132
 C245 C 0.34943 1.13452 0.63541
 C246 C 0.37297 1.11117 0.65834
 C247 C 0.37579 1.13737 0.09218
 C248 C 0.39910 1.11380 0.11481
 H249 H 0.33551 1.14260 0.73322
 H250 H 0.37648 1.10184 0.77299
 H251 H 0.37238 1.14680 -0.02236
 H252 H 0.41296 1.10565 0.01693
 H253 H 0.32990 1.18162 0.07840
 H254 H 0.30640 1.17917 0.56215
 H255 H 0.41944 1.06737 0.67251
 H256 H 0.44200 1.06899 0.18794
 C257 C 1.13876 -0.13687 -0.13731
 C258 C 1.15671 -0.14773 -0.01154
 C259 C 1.18001 -0.17129 -0.03497
 C260 C 1.18551 -0.18405 -0.18333
 C261 C 1.16714 -0.17268 -0.30813
 C262 C 1.14377 -0.14918 -0.28562
 C263 C 1.11417 -0.11218 -0.11320
 C264 C 1.09630 -0.10123 -0.23919
 C265 C 1.07301 -0.07769 -0.21573
 C266 C 1.06723 -0.06544 -0.06719
 C267 C 1.08531 -0.07680 0.05798
 C268 C 1.10896 -0.10003 0.03538
 C269 C 1.12527 -0.13780 -0.40864
 C270 C 1.10199 -0.11417 -0.38592
 C271 C 1.15099 -0.13480 0.13526
 C272 C 1.12752 -0.11136 0.15829
 H273 H 1.12877 -0.14729 -0.52339
 H274 H 1.08825 -0.10604 -0.48389
 H275 H 1.16478 -0.14288 0.23320
 H276 H 1.12392 -0.10195 0.27314
 H277 H 1.19380 -0.17961 0.06259
 H278 H 1.17088 -0.18207 -0.42309
 H279 H 1.05911 -0.06923 -0.31261
 H280 H 1.08115 -0.06741 0.17259
 C281 C 0.63768 0.36318 0.36292
 C282 C 0.64259 0.35075 0.21467
 C283 C 0.66586 0.32714 0.19242
 C284 C 0.68415 0.31593 0.31727
 C285 C 0.67884 0.32869 0.46535
 C286 C 0.65564 0.35232 0.48876
 C287 C 0.61321 0.38799 0.38690
 C288 C 0.60812 0.40024 0.53539
 C289 C 0.58459 0.42359 0.55789
 C290 C 0.56650 0.43495 0.43276
 C291 C 0.57217 0.42260 0.28430
 C292 C 0.59536 0.39895 0.26091
 C293 C 0.65002 0.36534 0.63545
 C294 C 0.62666 0.38889 0.65833
 C295 C 0.62411 0.36216 0.09164
 C296 C 0.60095 0.38591 0.11427
 H297 H 0.66381 0.35725 0.73337
 H298 H 0.62313 0.39836 0.77312
 H299 H 0.62755 0.35259 -0.02304
 H300 H 0.58721 0.39405 0.01630
 H301 H 0.66968 0.31754 0.07798
 H302 H 0.69275 0.32028 0.56229
 H303 H 0.58052 0.43305 0.67244
 H304 H 0.55828 0.43107 0.18745
 C305 C 0.86206 -0.13720 -0.13768
 C306 C 0.84407 -0.14803 -0.01193
 C307 C 0.82072 -0.17157 -0.03533
 C308 C 0.81519 -0.18436 -0.18364
 C309 C 0.83362 -0.17305 -0.30843
 C310 C 0.85704 -0.14954 -0.28596
 C311 C 0.88668 -0.11247 -0.11360
 C312 C 0.90456 -0.10152 -0.23958
 C313 C 0.92786 -0.07793 -0.21614
 C314 C 0.93362 -0.06564 -0.06762
 C315 C 0.91553 -0.07701 0.05753
 C316 C 0.89188 -0.10029 0.03496
 C317 C 0.87557 -0.13816 -0.40896
 C318 C 0.89887 -0.11449 -0.38627
 C319 C 0.84979 -0.13507 0.13485
 C320 C 0.87330 -0.11161 0.15786
 H321 H 0.87207 -0.14767 -0.52370
 H322 H 0.91263 -0.10636 -0.48424
 H323 H 0.83599 -0.14314 0.23278
 H324 H 0.87690 -0.10219 0.27269
 H325 H 0.80689 -0.17985 0.06226
 H326 H 0.82986 -0.18247 -0.42334
 H327 H 0.94177 -0.06945 -0.31301
 H328 H 0.91967 -0.06759 0.17211
 C329 C 0.36120 0.36342 0.36400
 C330 C 0.35037 0.34553 0.48982
 C331 C 0.32685 0.32215 0.46636
 C332 C 0.31454 0.31632 0.31796
 C333 C 0.32579 0.33443 0.19302
 C334 C 0.34897 0.35816 0.21560
 C335 C 0.38587 0.38809 0.38802
 C336 C 0.39660 0.40607 0.26234
 C337 C 0.42014 0.42943 0.28575
 C338 C 0.43295 0.43484 0.43364
 C339 C 0.42183 0.41655 0.55836
 C340 C 0.39831 0.39314 0.53613
 C341 C 0.36017 0.37674 0.09283
 C342 C 0.38358 0.40030 0.11578
 C343 C 0.36340 0.35128 0.63635
 C344 C 0.38704 0.37463 0.65900
 H345 H 0.35070 0.37308 -0.02186
 H346 H 0.39156 0.41410 0.01798
 H347 H 0.35536 0.33753 0.73419
 H348 H 0.39662 0.37817 0.77356
 H349 H 0.31846 0.30823 0.56305
 H350 H 0.31634 0.33025 0.07853
 H351 H 0.42848 0.44333 0.18891
 H352 H 0.43148 0.42045 0.67267
 C353 C 0.13772 0.63684 -0.13678
 C354 C 0.14251 0.64913 -0.28490
 C355 C 0.16576 0.67275 -0.30717
 C356 C 0.18415 0.68414 -0.18248
 C357 C 0.17897 0.67153 -0.03451
 C358 C 0.15578 0.64786 -0.01107
 C359 C 0.11329 0.61199 -0.11281
 C360 C 0.10832 0.59988 0.03555
 C361 C 0.08481 0.57651 0.05807
 C362 C 0.06662 0.56499 -0.06692
 C363 C 0.07217 0.57719 -0.21528
 C364 C 0.09533 0.60087 -0.23867
 C365 C 0.15029 0.63498 0.13548
 C366 C 0.12696 0.61139 0.15835
 C367 C 0.12393 0.63756 -0.40779
 C368 C 0.10079 0.61377 -0.38518
 H369 H 0.16415 0.64320 0.23330
 H370 H 0.12352 0.60201 0.27300
 H371 H 0.12726 0.64703 -0.52233
 H372 H 0.08699 0.60550 -0.48306
 H373 H 0.16949 0.68225 -0.42152
 H374 H 0.19296 0.68006 0.06230
 H375 H 0.08083 0.56715 0.17252
 H376 H 0.05818 0.56860 -0.31201
 C377 C 0.63872 1.13699 0.36346
 C378 C 0.65676 1.14801 0.48914
 C379 C 0.68006 1.17158 0.46573
 C380 C 0.68549 1.18415 0.31745
 C381 C 0.66702 1.17261 0.19276
 C382 C 0.64364 1.14914 0.21527
 C383 C 0.61412 1.11228 0.38751
 C384 C 0.59617 1.10118 0.26160
 C385 C 0.57288 1.07763 0.28500
 C386 C 0.56720 1.06553 0.43341
 C387 C 0.58536 1.07704 0.55851
 C388 C 0.60901 1.10028 0.53596
 C389 C 0.62505 1.13761 0.09235
 C390 C 0.60177 1.11397 0.11500
 C391 C 0.65113 1.13523 0.63582
 C392 C 0.62766 1.11176 0.65877
 H393 H 0.62848 1.14700 -0.02227
 H394 H 0.58796 1.10572 0.01709
 H395 H 0.66497 1.14343 0.73369
 H396 H 0.62414 1.10246 0.77348
 H397 H 0.69392 1.18003 0.56320
 H398 H 0.67070 1.18188 0.07787
 H399 H 0.55892 1.06904 0.18818
 H400 H 0.58128 1.06775 0.67300
 C401 C 0.13752 0.36297 0.13694
 C402 C 0.14231 0.35068 0.28503
 C403 C 0.16554 0.32708 0.30719
 C404 C 0.18391 0.31573 0.18243
 C405 C 0.17871 0.32834 0.03451
 C406 C 0.15555 0.35198 0.01117
 C407 C 0.11310 0.38780 0.11308
 C408 C 0.10813 0.39992 -0.03525
 C409 C 0.08465 0.42327 -0.05765
 C410 C 0.06649 0.43476 0.06741
 C411 C 0.07204 0.42255 0.21572
 C412 C 0.09518 0.39889 0.23901
 C413 C 0.15005 0.36487 -0.13534
 C414 C 0.12674 0.38844 -0.15812
 C415 C 0.12375 0.36221 0.40799
 C416 C 0.10064 0.38598 0.38548
 H417 H 0.16389 0.35668 -0.23322
 H418 H 0.12331 0.39782 -0.27274
 H419 H 0.12710 0.35274 0.52250
 H420 H 0.08686 0.39423 0.48341
 H421 H 0.16928 0.31758 0.42152
 H422 H 0.19268 0.31984 -0.06235
 H423 H 0.08067 0.43263 -0.17208
 H424 H 0.05809 0.43113 0.31252
 C425 C 0.63871 0.86409 0.63589
 C426 C 0.64354 0.85185 0.78403
 C427 C 0.66688 0.82837 0.80636
 C428 C 0.68532 0.81708 0.68174
 C429 C 0.68012 0.82966 0.53376
 C430 C 0.65683 0.85318 0.51024
 C431 C 0.61414 0.88876 0.61187
 C432 C 0.60909 0.90081 0.46348
 C433 C 0.58545 0.92401 0.44094
 C434 C 0.56723 0.93543 0.56599
 C435 C 0.57286 0.92328 0.71434
 C436 C 0.59614 0.89976 0.73773
 C437 C 0.65126 0.86602 0.36365
 C438 C 0.62779 0.88943 0.34071
 C439 C 0.62491 0.86329 0.90690
 C440 C 0.60166 0.88692 0.88426
 H441 H 0.66516 0.85788 0.26584
 H442 H 0.62431 0.89876 0.22604
 H443 H 0.62829 0.85385 1.02145
 H444 H 0.58782 0.89510 0.98212
 H445 H 0.67061 0.81890 0.92074
 H446 H 0.69414 0.82118 0.43701
 H447 H 0.58141 0.93333 0.32650
 H448 H 0.55886 0.93179 0.81110
 C449 C 0.86207 0.13612 0.13697
 C450 C 0.85711 0.14852 0.28526
 C451 C 0.83373 0.17202 0.30759
 C452 C 0.81536 0.18315 0.18283
 C453 C 0.82070 0.17040 0.03474
 C454 C 0.84403 0.14689 0.01121
 C455 C 0.88667 0.11144 0.11289
 C456 C 0.89182 0.09924 -0.03565
 C457 C 0.91547 0.07601 -0.05824
 C458 C 0.93359 0.06470 0.06687
 C459 C 0.92787 0.07700 0.21537
 C460 C 0.90458 0.10055 0.23883
 C461 C 0.84971 0.13392 -0.13552
 C462 C 0.87321 0.11050 -0.15852
 C463 C 0.87566 0.13719 0.40823
 C464 C 0.89894 0.11355 0.38551
 H465 H 0.83587 0.14194 -0.23339
 H466 H 0.87678 0.10106 -0.27334
 H467 H 0.87219 0.14673 0.52293
 H468 H 0.91271 0.10546 0.48345
 H469 H 0.82988 0.18160 0.42206
 H470 H 0.80675 0.17875 -0.06216
 H471 H 0.91958 0.06657 -0.17280
 H472 H 0.94180 0.06857 0.31220
 C473 C 0.36141 0.63678 0.63622
 C474 C 0.34917 0.64203 0.78456
 C475 C 0.32601 0.66573 0.80704
 C476 C 0.31479 0.68383 0.68203
 C477 C 0.32712 0.67801 0.53368
 C478 C 0.35062 0.65465 0.51033
 C479 C 0.38606 0.61214 0.61230
 C480 C 0.39852 0.60710 0.46423
 C481 C 0.42201 0.58371 0.44211
 C482 C 0.43309 0.56542 0.56688
 C483 C 0.42027 0.57083 0.71471
 C484 C 0.39675 0.59417 0.73803
 C485 C 0.36367 0.64891 0.36386
 C486 C 0.38728 0.62559 0.34131
 C487 C 0.36034 0.62347 0.90739
 C488 C 0.38372 0.59994 0.88454
 H489 H 0.35565 0.66265 0.26598
 H490 H 0.39687 0.62205 0.22678
 H491 H 0.35086 0.62712 1.02205
 H492 H 0.39168 0.58615 0.98238
 H493 H 0.31654 0.66991 0.92148
 H494 H 0.31875 0.69191 0.43695
 H495 H 0.43166 0.57980 0.32783
 H496 H 0.42857 0.55694 0.81160
   
