data_POSCAR
  _audit_creation_date              2014-09-24
  _audit_creation_method            'ToBaCCo'
  _symmetry_space_group_name_H-M    'P1'
  _symmetry_Int_Tables_number       1
  _symmetry_cell_setting            triclinic
  loop_
  _symmetry_equiv_pos_as_xyz
 x,y,z
_cell_length_a 38.6117
_cell_length_b 41.4994
_cell_length_c 38.7910
_cell_angle_alpha 90.063600
_cell_angle_beta 90.144600
_cell_angle_gamma 90.069400
loop_
  _atom_site_label
  _atom_site_type_symbol
  _atom_site_fract_x
  _atom_site_fract_y
  _atom_site_fract_z
C1 C 0.25045 0.24886 0.25034
 C2 C 0.74912 0.75061 0.25019
 C3 C 0.75124 0.25187 0.74949
 C4 C 0.24998 0.75015 0.75083
 C5 C 0.04748 0.04825 0.01244
 H6 H 0.04827 0.04968 -0.01539
 C7 C 0.06792 0.06897 0.03231
 H8 H 0.08448 0.08623 0.01945
 C9 C 0.02448 0.02414 0.06277
 H10 H 0.00713 0.00701 0.07459
 C11 C 0.04445 0.04439 0.08364
 H12 H 0.04239 0.04227 0.11137
 N13 N 0.02666 0.02613 0.02785
 C14 C 0.01242 -0.04986 -0.04878
 H15 H -0.01556 -0.05108 -0.04973
 C16 C 0.03218 -0.07080 -0.06891
 H17 H 0.01909 -0.08800 -0.08542
 C18 C 0.06322 -0.02612 -0.02559
 H19 H 0.07527 -0.00905 -0.00827
 C20 C 0.08398 -0.04660 -0.04525
 H21 H 0.11187 -0.04471 -0.04301
 Zn22 Zn -0.00054 -0.00075 -0.00100
 N23 N 0.02812 -0.02782 -0.02798
 C24 C -0.02569 0.02473 -0.06444
 N25 N -0.02754 0.02650 -0.02948
 C26 C -0.04793 0.04872 -0.01369
 C27 C -0.06823 0.06978 -0.03317
 C28 C -0.04554 0.04533 -0.08494
 C29 C -0.01377 -0.05001 0.04631
 C30 C -0.03357 -0.07066 0.06673
 C31 C -0.08531 -0.04581 0.04389
 C32 C -0.06449 -0.02563 0.02392
 N33 N -0.02939 -0.02776 0.02583
 H34 H -0.00870 0.00748 -0.07657
 H35 H -0.04847 0.04997 0.01417
 H36 H -0.08442 0.08712 -0.01998
 H37 H -0.04376 0.04339 -0.11271
 H38 H 0.01420 -0.05154 0.04690
 H39 H -0.02052 -0.08798 0.08306
 H40 H -0.11318 -0.04354 0.04211
 H41 H -0.07649 -0.00838 0.00686
 C42 C 0.06851 -0.06928 -0.06739
 C43 C 0.06667 0.06712 0.06846
 C44 C -0.06988 -0.06861 0.06583
 C45 C -0.06730 0.06819 -0.06934
 C46 C 0.04919 0.55063 0.51168
 H47 H 0.04979 0.55188 0.48383
 C48 C 0.06943 0.57174 0.53126
 H49 H 0.08566 0.58912 0.51817
 C50 C 0.02680 0.52660 0.56232
 H51 H 0.00976 0.50933 0.57436
 C52 C 0.04659 0.54725 0.58292
 H53 H 0.04472 0.54531 0.61068
 N54 N 0.02874 0.52838 0.52737
 C55 C 0.01454 0.45191 0.45140
 H56 H -0.01343 0.45045 0.45087
 C57 C 0.03417 0.43105 0.43107
 H58 H 0.02098 0.41365 0.41487
 C59 C 0.06546 0.47622 0.47363
 H60 H 0.07759 0.49351 0.49063
 C61 C 0.08611 0.45582 0.45375
 H62 H 0.11401 0.45797 0.45551
 Zn63 Zn 0.00165 0.50113 0.49884
 N64 N 0.03034 0.47418 0.47180
 C65 C -0.02372 0.52610 0.43532
 N66 N -0.02568 0.52799 0.47027
 C67 C -0.04641 0.55003 0.48591
 C68 C -0.06696 0.57075 0.46628
 C69 C -0.04381 0.54636 0.41468
 C70 C -0.01103 0.45186 0.54635
 C71 C -0.03063 0.43074 0.56640
 C72 C -0.08261 0.45481 0.54317
 C73 C -0.06199 0.47549 0.52357
 N74 N -0.02687 0.47392 0.52580
 H75 H -0.00645 0.50902 0.42331
 H76 H -0.04703 0.55139 0.51376
 H77 H -0.08344 0.58794 0.47933
 H78 H -0.04194 0.54431 0.38692
 H79 H 0.01696 0.45076 0.54717
 H80 H -0.01742 0.41352 0.58272
 H81 H -0.11051 0.45658 0.54107
 H82 H -0.07416 0.49257 0.50644
 C83 C 0.07050 0.43291 0.43198
 C84 C 0.06838 0.57017 0.56743
 C85 C -0.06697 0.43209 0.56505
 C86 C -0.06593 0.56900 0.43012
 C87 C 0.54701 0.04887 0.51471
 H88 H 0.54743 0.05004 0.48685
 C89 C 0.56735 0.07006 0.53409
 H90 H 0.58348 0.08740 0.52082
 C91 C 0.52500 0.02495 0.56558
 H92 H 0.50809 0.00768 0.57779
 C93 C 0.54491 0.04568 0.58598
 H94 H 0.54325 0.04381 0.61376
 N95 N 0.52671 0.02663 0.53061
 C96 C 0.51265 -0.05014 0.45494
 H97 H 0.48468 -0.05174 0.45451
 C98 C 0.53234 -0.07082 0.43446
 H99 H 0.51921 -0.08823 0.41824
 C100 C 0.56349 -0.02555 0.47702
 H101 H 0.57557 -0.00821 0.49398
 C102 C 0.58420 -0.04576 0.45697
 H103 H 0.61208 -0.04342 0.45859
 Zn104 Zn 0.49962 -0.00079 0.50225
 N105 N 0.52838 -0.02778 0.47531
 C106 C 0.47448 0.02393 0.43856
 N107 N 0.47229 0.02593 0.47349
 C108 C 0.45145 0.04801 0.48892
 C109 C 0.43106 0.06871 0.46906
 C110 C 0.45457 0.04416 0.41772
 C111 C 0.48703 -0.04987 0.55003
 C112 C 0.46746 -0.07096 0.57017
 C113 C 0.41544 -0.04704 0.54684
 C114 C 0.43602 -0.02641 0.52716
 N115 N 0.47114 -0.02792 0.52937
 H116 H 0.49184 0.00684 0.42673
 H117 H 0.45064 0.04947 0.51675
 H118 H 0.41452 0.08596 0.48194
 H119 H 0.45667 0.04204 0.38998
 H120 H 0.51501 -0.05094 0.55084
 H121 H 0.48070 -0.08811 0.58654
 H122 H 0.38754 -0.04533 0.54473
 H123 H 0.42383 -0.00939 0.50996
 C124 C 0.56866 -0.06868 0.43516
 C125 C 0.56658 0.06857 0.57026
 C126 C 0.43111 -0.06967 0.56880
 C127 C 0.43238 0.06688 0.43291
 C128 C 0.54663 0.54889 0.01299
 H129 H 0.54734 0.55030 -0.01484
 C130 C 0.56699 0.56972 0.03280
 H131 H 0.58341 0.58705 0.01989
 C132 C 0.52386 0.52472 0.06340
 H133 H 0.50663 0.50751 0.07527
 C134 C 0.54376 0.54508 0.08420
 H135 H 0.54178 0.54298 0.11194
 N136 N 0.52595 0.52669 0.02846
 C137 C 0.51168 0.45069 -0.04811
 H138 H 0.48370 0.44942 -0.04897
 C139 C 0.53140 0.42975 -0.06827
 H140 H 0.51828 0.41251 -0.08472
 C141 C 0.56252 0.47452 -0.02511
 H142 H 0.57459 0.49162 -0.00786
 C143 C 0.58324 0.45404 -0.04481
 H144 H 0.61113 0.45597 -0.04267
 Zn145 Zn 0.49876 0.49973 -0.00029
 N146 N 0.52741 0.47276 -0.02739
 C147 C 0.47360 0.52530 -0.06365
 N148 N 0.47160 0.52693 -0.02869
 C149 C 0.45110 0.54904 -0.01288
 C150 C 0.43089 0.57019 -0.03235
 C151 C 0.45384 0.54599 -0.08413
 C152 C 0.48608 0.45034 0.04690
 C153 C 0.46656 0.42945 0.06729
 C154 C 0.41450 0.45405 0.04487
 C155 C 0.43504 0.47449 0.02492
 N156 N 0.47017 0.47257 0.02662
 H157 H 0.49068 0.50814 -0.07579
 H158 H 0.45046 0.55019 0.01498
 H159 H 0.41463 0.58747 -0.01916
 H160 H 0.45577 0.54418 -0.11191
 H161 H 0.51406 0.44899 0.04733
 H162 H 0.47983 0.41212 0.08343
 H163 H 0.38659 0.45612 0.04325
 H164 H 0.42283 0.49175 0.00802
 C165 C 0.56773 0.43131 -0.06687
 C166 C 0.56581 0.56791 0.06895
 C167 C 0.43023 0.43122 0.06657
 C168 C 0.43202 0.56879 -0.06852
 N169 N 0.18585 -0.22218 -0.18552
 C170 C 0.18913 -0.18973 -0.18732
 N171 N 0.21247 -0.17685 -0.20937
 N172 N 0.23189 -0.19583 -0.22914
 C173 C 0.22872 -0.22856 -0.22779
 N174 N 0.20525 -0.24119 -0.20528
 C175 C 0.16811 -0.16921 -0.16619
 C176 C 0.15048 -0.15183 -0.14856
 C177 C 0.12957 -0.13098 -0.12769
 N178 N 0.14462 -0.10918 -0.10634
 N179 N 0.12522 -0.08964 -0.08716
 C180 C 0.09007 -0.09116 -0.08862
 N181 N 0.07516 -0.11310 -0.11009
 N182 N 0.09455 -0.13265 -0.12928
 N183 N 0.21143 0.28981 0.32712
 C184 C 0.18964 0.31119 0.31211
 N185 N 0.18756 0.31233 0.27726
 N186 N 0.20664 0.29261 0.25799
 C187 C 0.22843 0.27091 0.27285
 N188 N 0.23052 0.27008 0.30786
 C189 C 0.16902 0.33237 0.33287
 C190 C 0.15168 0.35012 0.35034
 C191 C 0.13101 0.37122 0.37115
 N192 N 0.09598 0.36932 0.37016
 N193 N 0.07678 0.38890 0.38949
 C194 C 0.09189 0.41108 0.41052
 N195 N 0.12704 0.41285 0.41138
 N196 N 0.14626 0.39327 0.39205
 N197 N 0.71033 -0.20936 0.32763
 C198 C 0.68822 -0.18803 0.31299
 N199 N 0.68590 -0.18659 0.27817
 N200 N 0.70504 -0.20598 0.25856
 C201 C 0.72713 -0.22764 0.27305
 N202 N 0.72947 -0.22876 0.30804
 C203 C 0.66751 -0.16726 0.33413
 C204 C 0.65010 -0.14987 0.35195
 C205 C 0.62935 -0.12921 0.37319
 N206 N 0.59434 -0.13146 0.37248
 N207 N 0.57508 -0.11228 0.39219
 C208 C 0.59011 -0.09015 0.41336
 N209 N 0.62525 -0.08804 0.41394
 N210 N 0.64452 -0.10723 0.39423
 N211 N 0.70910 0.32476 -0.21180
 C212 C 0.68854 0.31154 -0.18735
 N213 N 0.68832 0.27912 -0.18330
 N214 N 0.70814 0.26047 -0.20307
 C215 C 0.72906 0.27354 -0.22756
 N216 N 0.72891 0.30612 -0.23156
 C217 C 0.66729 0.33171 -0.16606
 C218 C 0.64958 0.34890 -0.14831
 C219 C 0.62869 0.36965 -0.12730
 N220 N 0.59367 0.36793 -0.12879
 N221 N 0.57431 0.38746 -0.10954
 C222 C 0.58925 0.40943 -0.08813
 N223 N 0.62440 0.41099 -0.08677
 N224 N 0.64377 0.39147 -0.10601
 N225 N -0.22216 0.18977 -0.18600
 C226 C -0.18715 0.19056 -0.18812
 N227 N -0.17194 0.21135 -0.21033
 N228 N -0.19116 0.23084 -0.22979
 C229 C -0.22634 0.23039 -0.22769
 N230 N -0.24138 0.20926 -0.20546
 C231 C -0.16643 0.16942 -0.16735
 C232 C -0.14896 0.15162 -0.14999
 C233 C -0.12813 0.13039 -0.12943
 N234 N -0.10721 0.10841 -0.14465
 N235 N -0.08788 0.08868 -0.12557
 C236 C -0.08875 0.09021 -0.09057
 N237 N -0.10980 0.11233 -0.07548
 N238 N -0.12913 0.13206 -0.09456
 N239 N -0.22273 0.68760 0.31292
 C240 C -0.18775 0.68915 0.31080
 N241 N -0.17304 0.71062 0.28898
 N242 N -0.19272 0.73005 0.26992
 C243 C -0.22788 0.72882 0.27206
 N244 N -0.24243 0.70703 0.29386
 C245 C -0.16654 0.66832 0.33144
 C246 C -0.14875 0.65084 0.34881
 C247 C -0.12759 0.63004 0.36952
 N248 N -0.10630 0.60827 0.35448
 N249 N -0.08669 0.58891 0.37372
 C250 C -0.08766 0.59062 0.40871
 N251 N -0.10908 0.61253 0.42362
 N252 N -0.12869 0.63189 0.40438
 N253 N 0.27753 0.18608 0.31378
 C254 C 0.31255 0.18737 0.31198
 N255 N 0.32763 0.20859 0.29013
 N256 N 0.30827 0.22803 0.27074
 C257 C 0.27309 0.22706 0.27257
 N258 N 0.25817 0.20551 0.29440
 C259 C 0.33339 0.16651 0.33295
 C260 C 0.35087 0.14899 0.35059
 C261 C 0.37167 0.12810 0.37157
 N262 N 0.39299 0.10620 0.35679
 N263 N 0.41228 0.08678 0.37628
 C264 C 0.41095 0.08854 0.41125
 N265 N 0.38949 0.11058 0.42590
 N266 N 0.37021 0.13001 0.40642
 N267 N 0.29156 0.71338 -0.17286
 C268 C 0.31206 0.69081 -0.18760
 N269 N 0.31227 0.68786 -0.22236
 N270 N 0.29240 0.70678 -0.24180
 C271 C 0.27128 0.72935 -0.22734
 N272 N 0.27168 0.73231 -0.19231
 C273 C 0.33313 0.67010 -0.16667
 C274 C 0.35075 0.65250 -0.14924
 C275 C 0.37163 0.63134 -0.12865
 N276 N 0.39264 0.60941 -0.14386
 N277 N 0.41184 0.58959 -0.12476
 C278 C 0.41074 0.59095 -0.08976
 N279 N 0.38962 0.61302 -0.07469
 N280 N 0.37041 0.63285 -0.09377
 N281 N -0.18785 -0.18626 0.22243
 C282 C -0.19008 -0.18776 0.18760
 N283 N -0.21210 -0.20920 0.17288
 N284 N -0.23124 -0.22865 0.19241
 C285 C -0.22898 -0.22749 0.22741
 N286 N -0.20699 -0.20571 0.24197
 C287 C -0.16929 -0.16699 0.16654
 C288 C -0.15179 -0.14962 0.14878
 C289 C -0.13093 -0.12900 0.12761
 N290 N -0.14598 -0.10714 0.10644
 N291 N -0.12660 -0.08800 0.08678
 C292 C -0.09146 -0.09003 0.08756
 N293 N -0.07655 -0.11204 0.10886
 N294 N -0.09593 -0.13118 0.12852
 N295 N -0.18296 0.31203 0.72009
 C296 C -0.18643 0.31098 0.68535
 N297 N -0.20997 0.29064 0.67116
 N298 N -0.22946 0.27188 0.69114
 C299 C -0.22607 0.27269 0.72607
 N300 N -0.20243 0.29327 0.74006
 C301 C -0.16568 0.33147 0.66392
 C302 C -0.14825 0.34888 0.64614
 C303 C -0.12754 0.36983 0.62519
 N304 N -0.14276 0.39164 0.60407
 N305 N -0.12353 0.41135 0.58492
 C306 C -0.08837 0.41000 0.58620
 N307 N -0.07327 0.38804 0.60743
 N308 N -0.09250 0.36833 0.62659
 N309 N 0.32582 -0.20734 0.71536
 C310 C 0.31165 -0.19162 0.68820
 N311 N 0.27742 -0.19530 0.68149
 N312 N 0.25795 -0.21423 0.70128
 C313 C 0.27197 -0.23044 0.72850
 N314 N 0.30638 -0.22627 0.73518
 C315 C 0.33250 -0.17085 0.66717
 C316 C 0.34995 -0.15324 0.64963
 C317 C 0.37065 -0.13211 0.62886
 N318 N 0.35539 -0.11033 0.60773
 N319 N 0.37459 -0.09055 0.58864
 C320 C 0.40976 -0.09179 0.58998
 N321 N 0.42488 -0.11371 0.61123
 N322 N 0.40569 -0.13350 0.63033
 N323 N 0.31385 0.31171 0.22271
 C324 C 0.31163 0.31027 0.18787
 N325 N 0.28961 0.28885 0.17311
 N326 N 0.27044 0.26938 0.19260
 C327 C 0.27267 0.27052 0.22760
 N328 N 0.29469 0.29225 0.24221
 C329 C 0.33223 0.33124 0.16686
 C330 C 0.34951 0.34885 0.14915
 C331 C 0.37007 0.36980 0.12806
 N332 N 0.35470 0.39171 0.10716
 N333 N 0.37380 0.41118 0.08761
 C334 C 0.40896 0.40945 0.08822
 N335 N 0.42419 0.38740 0.10924
 N336 N 0.40510 0.36793 0.12880
 N337 N 0.17285 0.20875 0.21090
 C338 C 0.18770 0.18722 0.18924
 N339 N 0.22270 0.18564 0.18747
 N340 N 0.24227 0.20510 0.20671
 C341 C 0.22758 0.22697 0.22835
 N342 N 0.19241 0.22822 0.23015
 C343 C 0.16663 0.16639 0.16836
 C344 C 0.14895 0.14892 0.15077
 C345 C 0.12793 0.12812 0.12980
 N346 N 0.12926 0.13007 0.09496
 N347 N 0.10978 0.11073 0.07548
 C348 C 0.08826 0.08873 0.09013
 N349 N 0.08706 0.08693 0.12510
 N350 N 0.10653 0.10627 0.14458
 N351 N 0.17347 0.71228 0.71015
 C352 C 0.18844 0.69172 0.68755
 N353 N 0.22342 0.69056 0.68558
 N354 N 0.24287 0.70924 0.70580
 C355 C 0.22819 0.72976 0.72903
 N356 N 0.19291 0.73097 0.73037
 C357 C 0.16751 0.67109 0.66630
 C358 C 0.14993 0.65355 0.64868
 C359 C 0.12901 0.63246 0.62793
 N360 N 0.13016 0.63415 0.59307
 N361 N 0.11087 0.61441 0.57386
 C362 C 0.08974 0.59225 0.58880
 N363 N 0.08872 0.59071 0.62378
 N364 N 0.10800 0.61044 0.64300
 N365 N 0.67355 0.21483 0.70697
 C366 C 0.68801 0.19081 0.68823
 N367 N 0.72281 0.18670 0.68927
 N368 N 0.74255 0.20597 0.70855
 C369 C 0.72822 0.23005 0.72760
 N370 N 0.69328 0.23412 0.72626
 C371 C 0.66674 0.16986 0.66767
 C372 C 0.64893 0.15217 0.65047
 C373 C 0.62779 0.13099 0.63003
 N374 N 0.62860 0.13259 0.59515
 N375 N 0.60912 0.11281 0.57619
 C376 C 0.58812 0.09070 0.59139
 N377 N 0.58744 0.08925 0.62639
 N378 N 0.60692 0.10903 0.64537
 N379 N 0.67151 0.71018 0.21113
 C380 C 0.68636 0.68882 0.18927
 N381 N 0.72135 0.68747 0.18724
 N382 N 0.74092 0.70699 0.20640
 C383 C 0.72624 0.72869 0.22824
 N384 N 0.69108 0.72971 0.23031
 C385 C 0.66530 0.66789 0.16850
 C386 C 0.64767 0.65032 0.15098
 C387 C 0.62674 0.62939 0.13008
 N388 N 0.62800 0.63129 0.09523
 N389 N 0.60863 0.61179 0.07582
 C390 C 0.58729 0.58968 0.09054
 N391 N 0.58615 0.58793 0.12552
 N392 N 0.60552 0.60742 0.14494
   
