data_POSCAR
  _audit_creation_date              2014-09-24
  _audit_creation_method            'ToBaCCo'
  _symmetry_space_group_name_H-M    'P1'
  _symmetry_Int_Tables_number       1
  _symmetry_cell_setting            triclinic
  loop_
  _symmetry_equiv_pos_as_xyz
 x,y,z
_cell_length_a 38.2901
_cell_length_b 37.6032
_cell_length_c 32.6629
_cell_angle_alpha 89.099600
_cell_angle_beta 91.412600
_cell_angle_gamma 84.388600
loop_
  _atom_site_label
  _atom_site_type_symbol
  _atom_site_fract_x
  _atom_site_fract_y
  _atom_site_fract_z
C1 C 1.22221 0.23260 0.18788
 C2 C 1.25487 0.24656 0.16994
 C3 C 1.27382 0.26649 0.19842
 C4 C 1.25762 0.26859 0.24125
 C5 C 1.23547 0.21096 0.22573
 C6 C 1.25494 0.22948 0.25406
 C7 C 1.20118 0.26576 0.20392
 C8 C 1.21930 0.28454 0.23359
 H9 H 1.26127 0.24339 0.13808
 H10 H 1.27252 0.28369 0.26336
 H11 H 1.23212 0.18278 0.22941
 H12 H 1.17410 0.27351 0.19465
 C13 C 0.72286 -0.28426 0.19454
 C14 C 0.74936 -0.26512 0.17098
 C15 C 0.76497 -0.23889 0.19390
 C16 C 0.75285 -0.23670 0.23865
 C17 C 0.74310 -0.30034 0.23222
 C18 C 0.75972 -0.27513 0.25596
 C19 C 0.69694 -0.25490 0.21078
 C20 C 0.71259 -0.22975 0.23508
 H21 H 0.75454 -0.26988 0.13895
 H22 H 0.76566 -0.21700 0.25723
 H23 H 0.74711 -0.32891 0.23762
 H24 H 0.66875 -0.25458 0.20646
 C25 C 0.73431 0.22575 -0.31827
 C26 C 0.76115 0.24386 -0.33826
 C27 C 0.77608 0.27011 -0.31421
 C28 C 0.76089 0.27257 -0.27074
 C29 C 0.75085 0.20968 -0.28087
 C30 C 0.76587 0.23394 -0.25397
 C31 C 0.70806 0.25358 -0.30494
 C32 C 0.72094 0.27908 -0.27837
 H33 H 0.76859 0.23872 -0.36961
 H34 H 0.77220 0.29219 -0.25055
 H35 H 0.75376 0.18105 -0.27540
 H36 H 0.68008 0.25244 -0.30990
 C37 C 1.22948 -0.25415 -0.29301
 C38 C 1.25935 -0.23957 -0.31609
 C39 C 1.27946 -0.21745 -0.29182
 C40 C 1.26675 -0.21334 -0.24777
 C41 C 1.24673 -0.27334 -0.25502
 C42 C 1.26734 -0.25158 -0.23094
 C43 C 1.20821 -0.22132 -0.27654
 C44 C 1.22786 -0.19944 -0.25174
 H45 H 1.26394 -0.24521 -0.34798
 H46 H 1.28236 -0.19610 -0.22865
 H47 H 1.24560 -0.30160 -0.24940
 H48 H 1.17988 -0.21789 -0.27947
 C49 C 0.23236 0.20401 0.80802
 C50 C 0.25797 0.22122 0.83160
 C51 C 0.27718 0.24490 0.80887
 C52 C 0.26628 0.24749 0.76298
 C53 C 0.20845 0.23402 0.78713
 C54 C 0.22629 0.25756 0.76283
 C55 C 0.25221 0.18546 0.77319
 C56 C 0.27029 0.20879 0.74846
 H57 H 0.26194 0.21678 0.86436
 H58 H 0.28069 0.26567 0.74424
 H59 H 0.18018 0.23675 0.79003
 H60 H 0.25378 0.15682 0.76958
 C61 C 0.72537 0.71729 0.80740
 C62 C 0.74292 0.73977 0.83545
 C63 C 0.76298 0.76499 0.81630
 C64 C 0.76211 0.76225 0.76922
 C65 C 0.70407 0.74115 0.77896
 C66 C 0.72295 0.76600 0.75719
 C67 C 0.75295 0.69947 0.78306
 C68 C 0.77330 0.72268 0.76092
 H69 H 0.74097 0.73767 0.86846
 H70 H 0.77775 0.78089 0.75258
 H71 H 0.67615 0.73969 0.77469
 H72 H 0.75840 0.67068 0.78304
 C73 C 0.73439 0.23205 0.32176
 C74 C 0.75764 0.25467 0.34623
 C75 C 0.77650 0.27720 0.32191
 C76 C 0.76991 0.27328 0.27545
 C77 C 0.71106 0.25799 0.29406
 C78 C 0.72999 0.27983 0.26850
 C79 C 0.75889 0.21135 0.29274
 C80 C 0.77762 0.23317 0.26705
 H81 H 0.75945 0.25377 0.37940
 H82 H 0.78497 0.29027 0.25574
 H83 H 0.68284 0.25817 0.29307
 H84 H 0.76202 0.18245 0.29277
 C85 C 0.22841 0.73081 0.28773
 C86 C 0.24805 0.75660 0.31273
 C87 C 0.27586 0.77039 0.29169
 C88 C 0.27937 0.75724 0.24735
 C89 C 0.21565 0.75177 0.24909
 C90 C 0.24280 0.76646 0.22733
 C91 C 0.25630 0.70251 0.27346
 C92 C 0.28338 0.71617 0.25127
 H93 H 0.24180 0.76322 0.34405
 H94 H 0.30026 0.76871 0.23012
 H95 H 0.18799 0.75797 0.24176
 H96 H 0.25433 0.67412 0.27759
 O97 O 1.03949 0.05454 0.08472
 O98 O 1.07842 0.02107 0.04512
 C99 C 1.07108 0.04448 0.07321
 O100 O 0.94356 -0.06644 0.07629
 O101 O 0.90281 -0.02654 0.04305
 C102 C 0.91147 -0.05394 0.06721
 O103 O 1.04077 -0.07139 0.08015
 O104 O 1.07919 -0.04122 0.04321
 C105 C 1.07212 -0.06534 0.06997
 O106 O 0.94200 0.06700 0.08003
 O107 O 0.90204 0.03667 0.04464
 C108 C 0.91014 0.06091 0.07015
 Zr109 Zr 0.99034 0.04037 0.06318
 O110 O 0.98791 0.03184 0.12730
 O111 O 0.99249 0.09539 0.07386
 Zr112 Zr 0.99149 -0.04846 0.05831
 O113 O 0.98904 -0.05035 0.12300
 O114 O 0.99632 -0.10498 0.05637
 O115 O 1.02298 -0.00710 0.06881
 O116 O 0.96004 -0.00174 0.06828
 O117 O 0.93811 0.07301 -0.05711
 O118 O 0.90020 0.03982 -0.02332
 C119 C 0.90681 0.06594 -0.04751
 O120 O 1.03753 -0.06077 -0.07055
 O121 O 1.07746 -0.03561 -0.02935
 C122 C 1.06936 -0.05484 -0.06017
 O123 O 0.94045 -0.05989 -0.06368
 O124 O 0.90132 -0.02295 -0.02791
 C125 C 0.90883 -0.04838 -0.05368
 O126 O 1.03591 0.06243 -0.06016
 O127 O 1.07655 0.02402 -0.02455
 C128 C 1.06792 0.05044 -0.04991
 Zr129 Zr 0.98765 0.04642 -0.04017
 O130 O 0.98250 0.04715 -0.10492
 O131 O 0.98991 0.10244 -0.04083
 Zr132 Zr 0.98908 -0.04275 -0.04482
 O133 O 0.98234 -0.03833 -0.10930
 O134 O 0.99526 -0.09916 -0.04861
 Zr135 Zr 1.04256 -0.00542 0.00904
 Zr136 Zr 0.93677 0.00332 0.00917
 O137 O 0.95728 0.00479 -0.04996
 O138 O 1.01974 -0.00019 -0.05056
 O139 O 0.95783 0.05312 0.01191
 O140 O 1.02109 -0.05480 0.00623
 O141 O 1.01913 0.04762 0.01178
 O142 O 0.95902 -0.05015 0.00644
 H143 H 0.94439 -0.00137 0.09202
 H144 H 1.03721 -0.07698 0.00461
 H145 H 0.94065 0.00741 -0.07379
 H146 H 1.03360 0.06804 0.01281
 H147 H 0.97726 -0.11203 0.03817
 H148 H 0.97779 -0.10861 -0.03064
 H149 H 1.00032 -0.02348 -0.11951
 H150 H 1.00521 0.03726 -0.11590
 H151 H 0.97385 0.11249 -0.01977
 H152 H 0.98716 0.10787 0.04729
 H153 H 1.01186 0.02362 0.13775
 H154 H 1.00932 -0.03890 0.13421
 O155 O 1.05908 0.56305 0.58264
 O156 O 1.09846 0.52903 0.54408
 C157 C 1.09080 0.55284 0.57158
 O158 O 0.96709 0.43799 0.57872
 O159 O 0.92539 0.47572 0.54391
 C160 C 0.93471 0.44926 0.56915
 O161 O 1.06483 0.43802 0.58280
 O162 O 1.10128 0.46865 0.54364
 C163 C 1.09573 0.44571 0.57226
 O164 O 0.96107 0.57162 0.57949
 O165 O 0.92254 0.53905 0.54481
 C166 C 0.92961 0.56382 0.57011
 Zr167 Zr 1.01021 0.54690 0.56203
 O168 O 1.00865 0.53978 0.62643
 O169 O 1.00969 0.60252 0.57059
 Zr170 Zr 1.01444 0.45726 0.55962
 O171 O 1.01213 0.45496 0.62428
 O172 O 1.02170 0.40076 0.55766
 O173 O 1.04411 0.50037 0.56854
 O174 O 0.98172 0.50341 0.56865
 O175 O 0.95640 0.57476 0.44053
 O176 O 0.92035 0.54093 0.47638
 C177 C 0.92562 0.56663 0.45096
 O178 O 1.06037 0.44299 0.43147
 O179 O 1.09913 0.47109 0.47125
 C180 C 1.09192 0.44997 0.44179
 O181 O 0.96321 0.44323 0.43720
 O182 O 0.92334 0.47871 0.47371
 C183 C 0.93141 0.45387 0.44741
 O184 O 1.05438 0.56706 0.43642
 O185 O 1.09616 0.53126 0.47353
 C186 C 1.08672 0.55635 0.44668
 Zr187 Zr 1.00690 0.55069 0.45850
 O188 O 1.00120 0.55136 0.39380
 O189 O 1.00746 0.60694 0.45830
 Zr190 Zr 1.01149 0.46090 0.45647
 O191 O 1.00525 0.46310 0.39187
 O192 O 1.01875 0.40436 0.45564
 Zr193 Zr 1.06334 0.50153 0.50855
 Zr194 Zr 0.95816 0.50656 0.50966
 O195 O 0.97832 0.50752 0.45030
 O196 O 1.04038 0.50466 0.44906
 O197 O 0.97713 0.55740 0.51074
 O198 O 1.04398 0.45105 0.50760
 O199 O 1.03853 0.55403 0.51005
 O200 O 0.98190 0.45356 0.50812
 H201 H 0.96623 0.50354 0.59253
 H202 H 1.06099 0.42945 0.50694
 H203 H 0.96178 0.50920 0.42638
 H204 H 1.05277 0.57465 0.51017
 H205 H 1.00197 0.39275 0.54125
 H206 H 0.99981 0.39522 0.47161
 H207 H 1.02260 0.47850 0.38120
 H208 H 1.02303 0.53940 0.38272
 H209 H 0.98929 0.61662 0.47727
 H210 H 1.00915 0.61373 0.54302
 H211 H 1.03280 0.53207 0.63664
 H212 H 1.02980 0.47004 0.63529
 O213 O 0.56905 -0.05412 0.56044
 O214 O 0.53873 -0.09136 0.52100
 C215 C 0.56237 -0.08556 0.54861
 O216 O 0.43055 0.04420 0.56346
 O217 O 0.46050 0.08714 0.53327
 C218 C 0.43600 0.07722 0.55635
 O219 O 0.44591 -0.05508 0.56267
 O220 O 0.47925 -0.09181 0.52016
 C221 C 0.45685 -0.08636 0.54914
 O222 O 0.56466 0.04524 0.56065
 O223 O 0.52375 0.08736 0.53157
 C224 C 0.55201 0.07809 0.55334
 Zr225 Zr 0.54508 -0.00303 0.54306
 O226 O 0.54221 -0.00288 0.60776
 O227 O 0.60033 -0.00625 0.54970
 Zr228 Zr 0.45812 -0.00364 0.54460
 O229 O 0.46513 -0.00357 0.60914
 O230 O 0.40408 -0.00760 0.55284
 O231 O 0.50510 -0.03627 0.54917
 O232 O 0.49877 0.02793 0.55385
 O233 O 0.55647 0.05551 0.42573
 O234 O 0.52034 0.09253 0.46494
 C235 C 0.54540 0.08674 0.43927
 O236 O 0.43982 -0.04366 0.41518
 O237 O 0.47770 -0.08616 0.44880
 C238 C 0.45249 -0.07650 0.42243
 O239 O 0.42721 0.05546 0.42717
 O240 O 0.45901 0.09240 0.46514
 C241 C 0.43379 0.08681 0.43967
 O242 O 0.56262 -0.04306 0.41304
 O243 O 0.53752 -0.08601 0.44975
 C244 C 0.55835 -0.07605 0.42191
 Zr245 Zr 0.54084 0.00457 0.43957
 O246 O 0.53524 0.01376 0.37548
 O247 O 0.59615 0.00139 0.43552
 Zr248 Zr 0.45345 0.00431 0.44121
 O249 O 0.45207 0.01333 0.37699
 O250 O 0.39862 0.00060 0.44035
 Zr251 Zr 0.50467 -0.05303 0.48773
 Zr252 Zr 0.49413 0.05406 0.49629
 O253 O 0.49385 0.03639 0.43545
 O254 O 0.49997 -0.02712 0.42981
 O255 O 0.54690 0.03209 0.49352
 O256 O 0.45221 -0.03057 0.49052
 O257 O 0.55264 -0.03002 0.48883
 O258 O 0.44564 0.03174 0.49546
 H259 H 0.49810 0.04330 0.57826
 H260 H 0.43295 -0.04633 0.48945
 H261 H 0.49144 0.05455 0.41298
 H262 H 0.57502 -0.04552 0.48733
 H263 H 0.39258 -0.00426 0.52547
 H264 H 0.38829 0.01763 0.46057
 H265 H 0.46579 -0.00719 0.36452
 H266 H 0.52627 -0.00759 0.36328
 H267 H 0.60488 0.01689 0.45691
 H268 H 0.60948 -0.00420 0.52185
 H269 H 0.53775 -0.02718 0.61698
 H270 H 0.47544 -0.02770 0.61804
 O271 O 0.43497 0.43575 -0.07778
 O272 O 0.47657 0.39657 -0.04486
 C273 C 0.44959 0.40383 -0.06942
 O274 O 0.54912 0.54019 -0.08462
 O275 O 0.51238 0.57822 -0.04732
 C276 C 0.53702 0.57192 -0.07350
 O277 O 0.55721 0.44123 -0.09076
 O278 O 0.53624 0.39903 -0.04880
 C279 C 0.55502 0.40844 -0.07906
 O280 O 0.41675 0.53374 -0.06961
 O281 O 0.44919 0.57546 -0.04065
 C282 C 0.42207 0.56631 -0.06124
 Zr283 Zr 0.44838 0.48578 -0.05781
 O284 O 0.44579 0.49201 -0.12243
 O285 O 0.39399 0.48019 -0.05887
 Zr286 Zr 0.53431 0.48966 -0.06734
 O287 O 0.52200 0.49502 -0.13088
 O288 O 0.58796 0.48984 -0.08093
 O289 O 0.49501 0.45534 -0.07058
 O290 O 0.48621 0.51977 -0.06998
 O291 O 0.43488 0.53373 0.06739
 O292 O 0.45845 0.57514 0.02662
 C293 C 0.43869 0.56643 0.05598
 O294 O 0.57107 0.43883 0.05680
 O295 O 0.54079 0.39799 0.02290
 C296 C 0.56514 0.40638 0.04830
 O297 O 0.56085 0.53795 0.05170
 O298 O 0.51898 0.57719 0.01953
 C299 C 0.54726 0.56999 0.04202
 O300 O 0.44877 0.43343 0.06881
 O301 O 0.48109 0.39545 0.02650
 C302 C 0.45959 0.40170 0.05636
 Zr303 Zr 0.45840 0.48430 0.04544
 O304 O 0.46615 0.48653 0.10975
 O305 O 0.40423 0.47950 0.05242
 Zr306 Zr 0.54490 0.48784 0.03586
 O307 O 0.54924 0.49115 0.10044
 O308 O 0.60011 0.48640 0.03160
 Zr309 Zr 0.50388 0.43304 -0.01100
 Zr310 Zr 0.48925 0.54054 -0.01078
 O311 O 0.49832 0.51735 0.04810
 O312 O 0.50674 0.45366 0.04858
 O313 O 0.44214 0.51632 -0.00522
 O314 O 0.55041 0.45808 -0.01643
 O315 O 0.45110 0.45384 -0.00569
 O316 O 0.54233 0.52050 -0.01627
 H317 H 0.48149 0.53727 -0.09295
 H318 H 0.57318 0.44327 -0.01812
 H319 H 0.49899 0.53321 0.07200
 H320 H 0.43240 0.43748 -0.00394
 H321 H 0.60111 0.48771 -0.05448
 H322 H 0.60501 0.50494 0.01127
 H323 H 0.54057 0.46943 0.11237
 H324 H 0.48126 0.46481 0.11868
 H325 H 0.39109 0.49914 0.03624
 H326 H 0.38650 0.48165 -0.03017
 H327 H 0.45568 0.46924 -0.13424
 H328 H 0.51739 0.47121 -0.14101
 C329 C 1.20102 0.21020 0.16039
 C330 C 1.16947 0.19968 0.17496
 C331 C 1.15063 0.17014 0.15960
 N332 N 1.12130 0.16277 0.17910
 N333 N 1.10369 0.13570 0.16766
 C334 C 1.11479 0.11462 0.13639
 N335 N 1.14428 0.12180 0.11661
 N336 N 1.16204 0.14906 0.12818
 C337 C 1.09283 0.08658 0.12356
 C338 C 1.09977 0.06328 0.09124
 H339 H 1.15903 0.21219 0.20234
 H340 H 1.06811 0.08620 0.13896
 H341 H 1.21303 0.19724 0.13415
 H342 H 1.12495 0.06168 0.07665
 C343 C 1.20654 0.72363 0.68175
 C344 C 1.21621 0.68834 0.67088
 C345 C 1.18988 0.66611 0.65370
 N346 N 1.19948 0.63262 0.64027
 N347 N 1.17534 0.61218 0.62624
 C348 C 1.14071 0.62443 0.62554
 N349 N 1.13121 0.65778 0.63907
 N350 N 1.15527 0.67819 0.65282
 C351 C 1.11318 0.60274 0.61074
 C352 C 1.11985 0.57076 0.58995
 H353 H 1.24271 0.67639 0.67726
 H354 H 1.08624 0.61372 0.61450
 H355 H 1.18056 0.73561 0.67264
 H356 H 1.14665 0.56036 0.58426
 C357 C 0.72013 0.19938 0.65643
 C358 C 0.69224 0.20712 0.62820
 C359 C 0.67107 0.17893 0.61397
 N360 N 0.63931 0.18783 0.59526
 N361 N 0.61840 0.16269 0.58578
 C362 C 0.62848 0.12775 0.59484
 N363 N 0.66041 0.11883 0.61301
 N364 N 0.68124 0.14395 0.62260
 C365 C 0.60585 0.09956 0.58505
 C366 C 0.57195 0.10684 0.56854
 H367 H 0.68279 0.23463 0.62085
 H368 H 0.61674 0.07210 0.59004
 H369 H 0.73046 0.17162 0.66063
 H370 H 0.56099 0.13426 0.56346
 C371 C 0.70583 0.68836 0.17004
 C372 C 0.67964 0.69778 0.14031
 C373 C 0.65921 0.67071 0.12210
 N374 N 0.62947 0.68066 0.09957
 N375 N 0.60969 0.65612 0.08516
 C376 C 0.61906 0.62083 0.09289
 N377 N 0.64894 0.61097 0.11499
 N378 N 0.66859 0.63543 0.12943
 C379 C 0.59789 0.59303 0.07826
 C380 C 0.56582 0.59986 0.05703
 H381 H 0.67208 0.72570 0.13295
 H382 H 0.60841 0.56566 0.08471
 H383 H 0.71368 0.66036 0.17668
 H384 H 0.55497 0.62707 0.05028
 C385 C 0.78807 -0.21752 0.17510
 C386 C 0.79756 -0.18523 0.19023
 C387 C 0.82138 -0.16456 0.16685
 N388 N 0.81831 -0.12826 0.16753
 N389 N 0.83949 -0.10972 0.14552
 C390 C 0.86464 -0.12691 0.12234
 N391 N 0.86793 -0.16313 0.12215
 N392 N 0.84653 -0.18159 0.14366
 C393 C 0.88986 -0.10754 0.09983
 C394 C 0.88338 -0.07203 0.08636
 H395 H 0.78533 -0.17349 0.21699
 H396 H 0.91457 -0.12241 0.09266
 H397 H 0.79720 -0.22533 0.14506
 H398 H 0.85763 -0.05778 0.08939
 C399 C 0.80137 0.29038 0.66925
 C400 C 0.81171 0.32192 0.68562
 C401 C 0.83797 0.34156 0.66466
 N402 N 0.83604 0.37783 0.66536
 N403 N 0.85936 0.39553 0.64568
 C404 C 0.88572 0.37755 0.62494
 N405 N 0.88789 0.34131 0.62477
 N406 N 0.86432 0.32369 0.64390
 C407 C 0.91273 0.39629 0.60434
 C408 C 0.90667 0.43124 0.58880
 H409 H 0.79847 0.33399 0.71158
 H410 H 0.93787 0.38130 0.59948
 H411 H 0.81202 0.28217 0.64003
 H412 H 0.88058 0.44516 0.58978
 C413 C 0.30791 -0.20006 0.69478
 C414 C 0.32243 -0.20369 0.65600
 C415 C 0.35049 -0.18203 0.64323
 N416 N 0.36555 -0.18713 0.60627
 N417 N 0.38967 -0.16634 0.59374
 C418 C 0.39957 -0.13972 0.61779
 N419 N 0.38467 -0.13482 0.65476
 N420 N 0.36070 -0.15562 0.66730
 C421 C 0.42327 -0.11404 0.60334
 C422 C 0.44130 -0.11729 0.56677
 H423 H 0.31308 -0.22216 0.63422
 H424 H 0.42483 -0.09022 0.62129
 H425 H 0.31935 -0.18259 0.71630
 H426 H 0.44220 -0.14188 0.54983
 C427 C 0.30326 0.28449 0.18927
 C428 C 0.32055 0.28247 0.15194
 C429 C 0.34893 0.30507 0.14235
 N430 N 0.36748 0.29962 0.10769
 N431 N 0.39176 0.32110 0.09747
 C432 C 0.39835 0.34897 0.12154
 N433 N 0.37991 0.35430 0.15626
 N434 N 0.35579 0.33273 0.16656
 C435 C 0.42234 0.37533 0.10888
 C436 C 0.44423 0.37099 0.07528
 H437 H 0.31324 0.26423 0.12870
 H438 H 0.42084 0.40030 0.12515
 H439 H 0.31307 0.30113 0.21286
 H440 H 0.44751 0.34545 0.06027
 C441 C 0.78426 0.22351 -0.21735
 C442 C 0.78231 0.18992 -0.19886
 C443 C 0.80645 0.17465 -0.16605
 N444 N 0.80033 0.14322 -0.14788
 N445 N 0.82356 0.12665 -0.12123
 C446 C 0.85397 0.14082 -0.11191
 N447 N 0.85996 0.17247 -0.12974
 N448 N 0.83662 0.18914 -0.15631
 C449 C 0.88152 0.12102 -0.08598
 C450 C 0.87689 0.08863 -0.06619
 H451 H 0.76259 0.17316 -0.20925
 H452 H 0.90697 0.13132 -0.08437
 H453 H 0.80008 0.24228 -0.20276
 H454 H 0.85108 0.07916 -0.06558
 C455 C 0.78240 0.71536 0.28969
 C456 C 0.78422 0.68163 0.30890
 C457 C 0.81236 0.66769 0.33804
 N458 N 0.80954 0.63629 0.35816
 N459 N 0.83590 0.62111 0.38174
 C460 C 0.86629 0.63665 0.38591
 N461 N 0.86908 0.66823 0.36602
 N462 N 0.84260 0.68352 0.34252
 C463 C 0.89662 0.61865 0.40928
 C464 C 0.89445 0.58722 0.43209
 H465 H 0.76444 0.66381 0.30201
 H466 H 0.92156 0.62984 0.40734
 H467 H 0.79897 0.73491 0.30121
 H468 H 0.86920 0.57700 0.43571
 C469 C 0.27109 0.21077 0.28777
 C470 C 0.29763 0.22222 0.31289
 C471 C 0.31741 0.19617 0.34125
 N472 N 0.34938 0.20237 0.35696
 N473 N 0.36880 0.17697 0.37871
 C474 C 0.35688 0.14452 0.38544
 N475 N 0.32470 0.13869 0.37053
 N476 N 0.30537 0.16399 0.34894
 C477 C 0.37875 0.11478 0.40568
 C478 C 0.41154 0.11825 0.42359
 H479 H 0.30679 0.24828 0.30849
 H480 H 0.36884 0.08875 0.40548
 H481 H 0.26444 0.18363 0.29224
 H482 H 0.42087 0.14441 0.42629
 C483 C 0.28907 0.73618 -0.19749
 C484 C 0.28790 0.70269 -0.17905
 C485 C 0.31506 0.68670 -0.14998
 N486 N 0.31024 0.65520 -0.13144
 N487 N 0.33578 0.63786 -0.10856
 C488 C 0.36730 0.65113 -0.10337
 N489 N 0.37194 0.68317 -0.12113
 N490 N 0.34624 0.70066 -0.14409
 C491 C 0.39671 0.62924 -0.08226
 C492 C 0.39381 0.59303 -0.07539
 H493 H 0.26683 0.68663 -0.18675
 H494 H 0.42128 0.64037 -0.07597
 H495 H 0.30784 0.75351 -0.18575
 H496 H 0.36953 0.58233 -0.08429
 C497 C 1.21269 -0.17080 -0.22903
 C498 C 1.17829 -0.15577 -0.23676
 C499 C 1.15777 -0.13287 -0.20821
 N500 N 1.12468 -0.11992 -0.21976
 N501 N 1.10375 -0.10215 -0.19360
 C502 C 1.11500 -0.09666 -0.15478
 N503 N 1.14834 -0.10920 -0.14310
 N504 N 1.16938 -0.12710 -0.16940
 C505 C 1.08985 -0.07933 -0.12632
 C506 C 1.09773 -0.07042 -0.08606
 H507 H 1.16457 -0.16209 -0.26465
 H508 H 1.06314 -0.07351 -0.13807
 H509 H 1.22804 -0.16040 -0.20448
 H510 H 1.12456 -0.07357 -0.07429
 C511 C 1.20092 0.31235 0.25468
 C512 C 1.21289 0.32890 0.28974
 C513 C 1.18836 0.35341 0.31308
 N514 N 1.19845 0.36710 0.34933
 N515 N 1.17553 0.38748 0.37129
 C516 C 1.14166 0.39483 0.35775
 N517 N 1.13178 0.38139 0.32148
 N518 N 1.15461 0.36118 0.29963
 C519 C 1.11479 0.41529 0.38183
 C520 C 1.12130 0.43238 0.41854
 H521 H 1.23924 0.32216 0.30198
 H522 H 1.08806 0.41656 0.36981
 H523 H 1.17405 0.31983 0.24434
 H524 H 1.14797 0.43300 0.43013
 C525 C 0.69143 -0.20305 0.25430
 C526 C 0.70162 -0.18490 0.28870
 C527 C 0.67523 -0.16058 0.30872
 N528 N 0.67124 -0.16243 0.34985
 N529 N 0.64543 -0.14224 0.36748
 C530 C 0.62287 -0.11941 0.34454
 N531 N 0.62729 -0.11716 0.30357
 N532 N 0.65271 -0.13769 0.28590
 C533 C 0.59555 -0.09550 0.36347
 C534 C 0.58014 -0.10371 0.40023
 H535 H 0.72668 -0.19222 0.30412
 H536 H 0.58733 -0.07035 0.34781
 H537 H 0.66407 -0.19878 0.24434
 H538 H 0.58535 -0.13015 0.41400
 C539 C 0.69725 0.30281 -0.25812
 C540 C 0.70363 0.31683 -0.21972
 C541 C 0.67425 0.33601 -0.19827
 N542 N 0.67146 0.33253 -0.15703
 N543 N 0.64367 0.34830 -0.13817
 C544 C 0.61777 0.36810 -0.15995
 N545 N 0.62088 0.37191 -0.20099
 N546 N 0.64836 0.35587 -0.21985
 C547 C 0.58847 0.38845 -0.13991
 C548 C 0.57713 0.38089 -0.10070
 H549 H 0.72819 0.30950 -0.20319
 H550 H 0.57601 0.41167 -0.15653
 H551 H 0.67055 0.30654 -0.27048
 H552 H 0.58641 0.35605 -0.08502
 C553 C 1.21265 0.17906 -0.16701
 C554 C 1.18923 0.19191 -0.13753
 C555 C 1.16508 0.16906 -0.11862
 N556 N 1.13584 0.18421 -0.10075
 N557 N 1.11229 0.16395 -0.08599
 C558 C 1.11730 0.12784 -0.08828
 N559 N 1.14680 0.11258 -0.10562
 N560 N 1.17024 0.13288 -0.12069
 C561 C 1.09021 0.10632 -0.07362
 C562 C 1.09609 0.06962 -0.06636
 H563 H 1.18605 0.22028 -0.13146
 H564 H 1.06493 0.12023 -0.06679
 H565 H 1.21537 0.15081 -0.17371
 H566 H 1.12210 0.05584 -0.06905
 C567 C 1.19958 0.71504 0.31016
 C568 C 1.20704 0.69133 0.34316
 C569 C 1.18056 0.66954 0.35938
 N570 N 1.19024 0.64266 0.38678
 N571 N 1.16678 0.62157 0.40021
 C572 C 1.13283 0.62660 0.38659
 N573 N 1.12313 0.65361 0.35943
 N574 N 1.14658 0.67461 0.34594
 C575 C 1.10637 0.60414 0.40136
 C576 C 1.11450 0.57503 0.42804
 H577 H 1.23382 0.68630 0.35488
 H578 H 1.07933 0.61156 0.39170
 H579 H 1.17287 0.71996 0.29819
 H580 H 1.14153 0.56715 0.43734
 C581 C 0.71517 0.20749 0.34767
 C582 C 0.68282 0.21766 0.36475
 C583 C 0.66099 0.19040 0.37938
 N584 N 0.62794 0.19974 0.39218
 N585 N 0.60714 0.17468 0.40214
 C586 C 0.61870 0.13950 0.39927
 N587 N 0.65174 0.13026 0.38680
 N588 N 0.67247 0.15522 0.37700
 C589 C 0.59656 0.11117 0.40882
 C590 C 0.56366 0.11722 0.42597
 H591 H 0.67194 0.24535 0.36350
 H592 H 0.60763 0.08402 0.40370
 H593 H 0.72668 0.18013 0.35177
 H594 H 0.55292 0.14408 0.43301
 C595 C 0.70541 0.69215 -0.17239
 C596 C 0.67414 0.70193 -0.15233
 C597 C 0.65085 0.67476 -0.14062
 N598 N 0.62008 0.68421 -0.12198
 N599 N 0.59838 0.65965 -0.11305
 C600 C 0.60662 0.62489 -0.12286
 N601 N 0.63729 0.61557 -0.14148
 N602 N 0.65893 0.64000 -0.15026
 C603 C 0.58401 0.59687 -0.11281
 C604 C 0.55384 0.60252 -0.08982
 H605 H 0.66543 0.72990 -0.14819
 H606 H 0.59311 0.56998 -0.12171
 H607 H 0.71393 0.66386 -0.17418
 H608 H 0.54462 0.62922 -0.08041
 C609 C 0.78157 -0.21181 -0.16041
 C610 C 0.79590 -0.18193 -0.17631
 C611 C 0.81738 -0.16049 -0.15010
 N612 N 0.81863 -0.12503 -0.15789
 N613 N 0.83898 -0.10595 -0.13491
 C614 C 0.85911 -0.12179 -0.10360
 N615 N 0.85803 -0.15725 -0.09608
 N616 N 0.83732 -0.17616 -0.11861
 C617 C 0.88457 -0.10242 -0.08064
 C618 C 0.87999 -0.06586 -0.07301
 H619 H 0.79011 -0.17297 -0.20759
 H620 H 0.90798 -0.11796 -0.06849
 H621 H 0.78374 -0.21658 -0.12758
 H622 H 0.85511 -0.05051 -0.08017
 C623 C 0.79940 0.29907 0.34063
 C624 C 0.81360 0.32752 0.32150
 C625 C 0.83850 0.34739 0.34469
 N626 N 0.83698 0.38359 0.34185
 N627 N 0.85897 0.40136 0.36417
 C628 C 0.88341 0.38345 0.38976
 N629 N 0.88520 0.34730 0.39203
 N630 N 0.86293 0.32962 0.37027
 C631 C 0.90941 0.40193 0.41272
 C632 C 0.90293 0.43659 0.42714
 H633 H 0.80460 0.33696 0.29124
 H634 H 0.93446 0.38689 0.42001
 H635 H 0.80519 0.29468 0.37311
 H636 H 0.87687 0.45060 0.42435
 C637 C 0.29680 -0.20621 0.31113
 C638 C 0.32895 -0.19736 0.29692
 C639 C 0.34842 -0.17167 0.31934
 N640 N 0.38406 -0.17442 0.31982
 N641 N 0.40155 -0.15138 0.34086
 C642 C 0.38391 -0.12459 0.36173
 N643 N 0.34834 -0.12160 0.36069
 N644 N 0.33092 -0.14485 0.34017
 C645 C 0.40219 -0.09801 0.38395
 C646 C 0.43645 -0.10448 0.39967
 H647 H 0.34124 -0.21101 0.27131
 H648 H 0.38714 -0.07285 0.39025
 H649 H 0.28830 -0.19571 0.34038
 H650 H 0.45066 -0.13069 0.39726
 C651 C 0.30053 0.26365 -0.17202
 C652 C 0.32312 0.28496 -0.19143
 C653 C 0.34323 0.30832 -0.16659
 N654 N 0.37688 0.31338 -0.17538
 N655 N 0.39487 0.33454 -0.15224
 C656 C 0.37962 0.35156 -0.11987
 N657 N 0.34590 0.34685 -0.11154
 N658 N 0.32815 0.32532 -0.13420
 C659 C 0.39758 0.37731 -0.09624
 C660 C 0.43369 0.37429 -0.08894
 H661 H 0.32733 0.28373 -0.22401
 H662 H 0.38143 0.39942 -0.08330
 H663 H 0.30232 0.26192 -0.13881
 H664 H 0.44990 0.35030 -0.09693
 C665 C 1.23642 -0.21048 0.19315
 C666 C 1.20492 -0.20901 0.17044
 C667 C 1.19138 -0.17971 0.14232
 N668 N 1.16053 -0.18272 0.12218
 N669 N 1.14408 -0.15507 0.10154
 C670 C 1.15772 -0.12312 0.10013
 N671 N 1.18933 -0.12025 0.11907
 N672 N 1.20585 -0.14809 0.14000
 C673 C 1.13586 -0.09168 0.08284
 C674 C 1.09997 -0.08968 0.08985
 H675 H 1.18768 -0.22983 0.17487
 H676 H 1.14730 -0.07098 0.06585
 H677 H 1.25646 -0.19376 0.18406
 H678 H 1.09080 -0.10961 0.11029
 C679 C 1.20710 0.28601 0.74191
 C680 C 1.22026 0.30940 0.71384
 C681 C 1.19593 0.33730 0.69312
 N682 N 1.20510 0.35453 0.65869
 N683 N 1.18191 0.37800 0.63885
 C684 C 1.14887 0.38507 0.65298
 N685 N 1.14008 0.36832 0.68765
 N686 N 1.16309 0.34498 0.70731
 C687 C 1.12154 0.40851 0.63092
 C688 C 1.12627 0.42677 0.59432
 H689 H 1.24744 0.30624 0.70518
 H690 H 1.09562 0.41030 0.64381
 H691 H 1.17915 0.28929 0.74727
 H692 H 1.15218 0.42692 0.58181
 C693 C 0.70868 -0.21048 0.72611
 C694 C 0.67496 -0.21170 0.70905
 C695 C 0.66025 -0.18671 0.67666
 N696 N 0.62943 -0.19230 0.65754
 N697 N 0.61487 -0.16917 0.62927
 C698 C 0.63064 -0.13957 0.61916
 N699 N 0.66152 -0.13406 0.63817
 N700 N 0.67615 -0.15727 0.66630
 C701 C 0.61353 -0.11211 0.59097
 C702 C 0.58279 -0.11648 0.56856
 H703 H 0.65871 -0.23214 0.71839
 H704 H 0.62456 -0.08666 0.58966
 H705 H 0.72534 -0.19158 0.71352
 H706 H 0.57279 -0.14242 0.56720
 C707 C 0.71494 0.30147 0.23611
 C708 C 0.68031 0.30031 0.22190
 C709 C 0.66542 0.32116 0.18617
 N710 N 0.63413 0.31384 0.16958
 N711 N 0.61950 0.33312 0.13799
 C712 C 0.63566 0.36047 0.12187
 N713 N 0.66701 0.36772 0.13837
 N714 N 0.68176 0.34830 0.16983
 C715 C 0.61825 0.38431 0.09002
 C716 C 0.58701 0.37748 0.07009
 H717 H 0.66357 0.28212 0.23549
 H718 H 0.62901 0.40948 0.08440
 H719 H 0.73181 0.31777 0.21944
 H720 H 0.57734 0.35145 0.07288
 C721 C 0.79842 0.21983 0.23488
 C722 C 0.79636 0.18537 0.21990
 C723 C 0.81894 0.16919 0.18822
 N724 N 0.81157 0.13762 0.17216
 N725 N 0.83288 0.12082 0.14557
 C726 C 0.86249 0.13496 0.13417
 N727 N 0.86978 0.16669 0.15000
 N728 N 0.84835 0.18360 0.17651
 C729 C 0.88791 0.11518 0.10795
 C730 C 0.88159 0.08310 0.08943
 H731 H 0.77657 0.16918 0.23076
 H732 H 0.91324 0.12539 0.10483
 H733 H 0.81485 0.23749 0.21961
 H734 H 0.85571 0.07381 0.08990
 C735 C 0.79850 0.71101 0.73227
 C736 C 0.80089 0.67631 0.71688
 C737 C 0.82706 0.66228 0.68762
 N738 N 0.82285 0.63079 0.66930
 N739 N 0.84697 0.61611 0.64440
 C740 C 0.87637 0.63230 0.63702
 N741 N 0.88060 0.66390 0.65525
 N742 N 0.85632 0.67873 0.68004
 C743 C 0.90431 0.61496 0.61193
 C744 C 0.90001 0.58403 0.58994
 H745 H 0.78168 0.65834 0.72485
 H746 H 0.92931 0.62618 0.61194
 H747 H 0.81496 0.73013 0.71979
 H748 H 0.87450 0.57392 0.58793
 C749 C 0.28995 0.19790 0.71451
 C750 C 0.28688 0.16507 0.69619
 C751 C 0.30963 0.15050 0.66390
 N752 N 0.30116 0.12077 0.64467
 N753 N 0.32267 0.10466 0.61791
 C754 C 0.35356 0.11756 0.60946
 N755 N 0.36204 0.14764 0.62831
 N756 N 0.34035 0.16391 0.65509
 C757 C 0.37792 0.09657 0.58330
 C758 C 0.41181 0.10464 0.57509
 H759 H 0.26650 0.14883 0.70529
 H760 H 0.36940 0.07168 0.57230
 H761 H 0.30695 0.21611 0.70121
 H762 H 0.42048 0.13034 0.58272
 C763 C 0.30838 0.69238 0.23309
 C764 C 0.33196 0.70142 0.20373
 C765 C 0.35253 0.67293 0.18168
 N766 N 0.36953 0.68059 0.14715
 N767 N 0.38605 0.65444 0.12571
 C768 C 0.38609 0.61972 0.13804
 N769 N 0.36952 0.61215 0.17279
 N770 N 0.35302 0.63823 0.19412
 C771 C 0.40323 0.59029 0.11450
 C772 C 0.42027 0.59597 0.07822
 H773 H 0.33313 0.72886 0.19393
 H774 H 0.40255 0.56331 0.12639
 H775 H 0.30736 0.66427 0.24033
 H776 H 0.42148 0.62297 0.06664
   
