data_POSCAR
  _audit_creation_date              2014-09-24
  _audit_creation_method            'ToBaCCo'
  _symmetry_space_group_name_H-M    'P1'
  _symmetry_Int_Tables_number       1
  _symmetry_cell_setting            triclinic
  loop_
  _symmetry_equiv_pos_as_xyz
 x,y,z
_cell_length_a 53.9314
_cell_length_b 37.0450
_cell_length_c 30.7276
_cell_angle_alpha 90.149300
_cell_angle_beta 90.041800
_cell_angle_gamma 90.103000
loop_
  _atom_site_label
  _atom_site_type_symbol
  _atom_site_fract_x
  _atom_site_fract_y
  _atom_site_fract_z
C1 C 0.24914 0.26843 0.25087
 C2 C 0.24894 0.23160 0.25111
 C3 C 0.22900 0.21063 0.22920
 C4 C 0.26873 0.21057 0.27312
 C5 C 0.27058 0.28933 0.26797
 C6 C 0.22791 0.28947 0.23349
 C7 C 0.21545 0.18486 0.25274
 C8 C 0.19600 0.16598 0.23294
 C9 C 0.19003 0.17246 0.18924
 C10 C 0.20390 0.19752 0.16527
 C11 C 0.22337 0.21635 0.18509
 C12 C 0.27452 0.21671 0.31715
 C13 C 0.29392 0.19788 0.33693
 C14 C 0.30751 0.17249 0.31305
 C15 C 0.30137 0.16553 0.26956
 C16 C 0.28201 0.18437 0.24973
 C17 C 0.29470 0.28302 0.25240
 C18 C 0.31487 0.30167 0.27018
 C19 C 0.31110 0.32711 0.30326
 C20 C 0.28705 0.33422 0.31809
 C21 C 0.26688 0.31553 0.30042
 C22 C 0.23189 0.31525 0.20079
 C23 C 0.21189 0.33397 0.18279
 C24 C 0.18776 0.32730 0.19752
 C25 C 0.18372 0.30231 0.23088
 C26 C 0.20371 0.28365 0.24901
 H27 H 0.21961 0.17994 0.28670
 H28 H 0.18551 0.14662 0.25194
 H29 H 0.19963 0.20276 0.13139
 H30 H 0.23392 0.23564 0.16618
 H31 H 0.26420 0.23634 0.33598
 H32 H 0.29844 0.20332 0.37067
 H33 H 0.27772 0.17912 0.21585
 H34 H 0.29790 0.26338 0.22685
 H35 H 0.33340 0.29606 0.25838
 H36 H 0.28394 0.35391 0.34363
 H37 H 0.24842 0.32088 0.31271
 H38 H 0.25040 0.32024 0.18853
 H39 H 0.21521 0.35332 0.15706
 H40 H 0.16513 0.29705 0.24262
 H41 H 0.20031 0.26438 0.27477
 H42 H 0.31174 0.14587 0.25084
 C43 C 0.75015 0.23194 0.24948
 C44 C 0.75008 0.26877 0.24940
 C45 C 0.76983 0.28981 0.22722
 C46 C 0.73026 0.28968 0.27157
 C47 C 0.72883 0.21088 0.26662
 C48 C 0.77156 0.21103 0.23248
 C49 C 0.78316 0.31618 0.25039
 C50 C 0.80253 0.33496 0.23039
 C51 C 0.80862 0.32776 0.18695
 C52 C 0.79495 0.30223 0.16329
 C53 C 0.77555 0.28348 0.18323
 C54 C 0.72474 0.28371 0.31568
 C55 C 0.70530 0.30233 0.33567
 C56 C 0.69138 0.32735 0.31194
 C57 C 0.69726 0.33417 0.26835
 C58 C 0.71668 0.31555 0.24830
 C59 C 0.70468 0.21683 0.25099
 C60 C 0.68461 0.19804 0.26874
 C61 C 0.68852 0.17282 0.30188
 C62 C 0.71261 0.16605 0.31675
 C63 C 0.73268 0.18488 0.29909
 C64 C 0.76781 0.18474 0.20013
 C65 C 0.78794 0.16591 0.18272
 C66 C 0.81199 0.17299 0.19772
 C67 C 0.81580 0.19856 0.23069
 C68 C 0.79568 0.21736 0.24818
 H69 H 0.77892 0.32161 0.28423
 H70 H 0.81294 0.35476 0.24894
 H71 H 0.79942 0.29661 0.12957
 H72 H 0.76517 0.26374 0.16455
 H73 H 0.73532 0.26438 0.33441
 H74 H 0.70100 0.29700 0.36949
 H75 H 0.72077 0.32069 0.21438
 H76 H 0.70137 0.23630 0.22541
 H77 H 0.66605 0.20338 0.25689
 H78 H 0.71583 0.14652 0.34232
 H79 H 0.75117 0.17978 0.31139
 H80 H 0.74935 0.17937 0.18775
 H81 H 0.78480 0.14612 0.15727
 H82 H 0.83433 0.20414 0.24263
 H83 H 0.79890 0.23707 0.27366
 H84 H 0.68666 0.35358 0.24975
 C85 C 0.75061 0.77137 0.75043
 C86 C 0.75050 0.73453 0.74994
 C87 C 0.72918 0.71379 0.73204
 C88 C 0.77168 0.71341 0.76734
 C89 C 0.76997 0.79202 0.77432
 C90 C 0.73138 0.79247 0.72705
 C91 C 0.70494 0.72027 0.74689
 C92 C 0.68487 0.70185 0.72846
 C93 C 0.68885 0.67646 0.69540
 C94 C 0.71301 0.66912 0.68132
 C95 C 0.73310 0.68759 0.69967
 C96 C 0.76759 0.68693 0.79917
 C97 C 0.78756 0.66818 0.81722
 C98 C 0.81177 0.67550 0.80334
 C99 C 0.81592 0.70114 0.77076
 C100 C 0.79597 0.71987 0.75265
 C101 C 0.78415 0.81814 0.75253
 C102 C 0.80347 0.83599 0.77408
 C103 C 0.80864 0.82812 0.81773
 C104 C 0.79404 0.80292 0.84002
 C105 C 0.77472 0.78513 0.81852
 C106 C 0.72664 0.78621 0.68266
 C107 C 0.70740 0.80437 0.66161
 C108 C 0.69291 0.82929 0.68453
 C109 C 0.69806 0.83654 0.72836
 C110 C 0.71729 0.81834 0.74949
 H111 H 0.70157 0.73986 0.77242
 H112 H 0.66626 0.70757 0.73976
 H113 H 0.71629 0.64941 0.65586
 H114 H 0.75166 0.68204 0.68799
 H115 H 0.74900 0.68143 0.81073
 H116 H 0.78416 0.64830 0.84232
 H117 H 0.79947 0.73969 0.72755
 H118 H 0.78070 0.82395 0.71854
 H119 H 0.81458 0.85549 0.75646
 H120 H 0.79776 0.79667 0.87385
 H121 H 0.76370 0.76553 0.83610
 H122 H 0.73758 0.76681 0.66459
 H123 H 0.70363 0.79865 0.62765
 H124 H 0.68697 0.85581 0.74637
 H125 H 0.72073 0.82366 0.78365
 H126 H 0.83458 0.70685 0.75964
 C127 C 0.24930 0.73262 0.74945
 C128 C 0.24928 0.76945 0.74986
 C129 C 0.26866 0.79054 0.72680
 C130 C 0.22988 0.79017 0.77338
 C131 C 0.22819 0.71152 0.76728
 C132 C 0.27042 0.71187 0.73114
 C133 C 0.28288 0.81610 0.74966
 C134 C 0.30224 0.83433 0.72889
 C135 C 0.30740 0.82742 0.68500
 C136 C 0.29278 0.80282 0.66166
 C137 C 0.27341 0.78461 0.68237
 C138 C 0.22507 0.78363 0.81762
 C139 C 0.20572 0.80156 0.83876
 C140 C 0.19120 0.82655 0.81605
 C141 C 0.19643 0.83401 0.77232
 C142 C 0.21575 0.81603 0.75115
 C143 C 0.20384 0.71777 0.75282
 C144 C 0.18395 0.69929 0.77160
 C145 C 0.18823 0.67402 0.80459
 C146 C 0.21253 0.66689 0.81820
 C147 C 0.23242 0.68545 0.79951
 C148 C 0.26621 0.68615 0.69831
 C149 C 0.28612 0.66797 0.67919
 C150 C 0.31039 0.67514 0.69295
 C151 C 0.31467 0.70002 0.72649
 C152 C 0.29477 0.71814 0.74571
 H153 H 0.27942 0.82114 0.78385
 H154 H 0.31341 0.85337 0.74721
 H155 H 0.29655 0.79739 0.62765
 H156 H 0.26237 0.76544 0.66400
 H157 H 0.23605 0.76423 0.83553
 H158 H 0.20196 0.79561 0.87265
 H159 H 0.21927 0.82154 0.71711
 H160 H 0.20025 0.73732 0.72746
 H161 H 0.16525 0.70499 0.76065
 H162 H 0.21611 0.64736 0.84364
 H163 H 0.25107 0.68018 0.81094
 H164 H 0.24757 0.68085 0.68678
 H165 H 0.28263 0.64869 0.65331
 H166 H 0.33338 0.70566 0.73747
 H167 H 0.29836 0.73742 0.77152
 H168 H 0.18538 0.85334 0.75436
 O169 O 1.02501 -0.05116 0.00713
 O170 O 0.97710 0.00187 0.06353
 O171 O 0.97649 -0.05113 0.00823
 O172 O 1.02550 0.00210 0.06203
 O173 O 1.02498 0.04100 0.00755
 O174 O 0.97607 -0.01219 -0.04621
 O175 O 0.97661 0.04078 0.00906
 O176 O 1.02455 -0.01222 -0.04731
 Cu177 Cu 1.00107 -0.02855 0.04071
 Cu178 Cu 1.00050 0.01824 -0.02476
 C179 C 1.03309 -0.04038 -0.02935
 C180 C 0.96864 0.03010 0.04566
 C181 C 0.96782 -0.04038 -0.02786
 C182 C 1.03364 0.03037 0.04367
 O183 O 0.47638 0.49644 0.44233
 O184 O 0.52435 0.54859 0.50029
 O185 O 0.52483 0.49631 0.44396
 O186 O 0.47596 0.54881 0.49863
 O187 O 0.47529 0.50906 0.55220
 O188 O 0.52413 0.45659 0.49755
 O189 O 0.52366 0.50884 0.55387
 O190 O 0.47571 0.45672 0.49593
 Cu191 Cu 0.50044 0.52654 0.46587
 Cu192 Cu 0.49962 0.47878 0.53029
 C193 C 0.46781 0.46794 0.45952
 C194 C 0.53224 0.53734 0.53670
 C195 C 0.53289 0.46778 0.46174
 C196 C 0.46726 0.53764 0.53450
 O197 O -0.02408 0.45586 0.00083
 O198 O 0.02489 0.50753 -0.05458
 O199 O 0.02433 0.45593 0.00243
 O200 O -0.02351 0.50753 -0.05592
 O201 O -0.02395 0.54790 -0.00277
 O202 O 0.02386 0.49630 0.05558
 O203 O 0.02446 0.54792 -0.00145
 O204 O -0.02456 0.49622 0.05399
 Cu205 Cu 0.00047 0.47763 -0.03218
 Cu206 Cu -0.00008 0.52616 0.03172
 C207 C -0.03274 0.46750 0.03655
 C208 C 0.03305 0.53631 -0.03726
 C209 C 0.03229 0.46756 0.03871
 C210 C -0.03195 0.53625 -0.03901
 O211 O 0.47550 1.04231 0.49457
 O212 O 0.52452 0.98977 0.54825
 O213 O 0.52387 1.04245 0.49288
 O214 O 0.47602 0.98938 0.54942
 O215 O 0.47555 0.95017 0.49501
 O216 O 0.52335 1.00326 0.43845
 O217 O 0.52409 0.95055 0.49386
 O218 O 0.47496 1.00313 0.44014
 Cu219 Cu 0.50004 1.01990 0.52681
 Cu220 Cu 0.49945 0.97279 0.46139
 C221 C 0.46679 1.03141 0.45851
 C222 C 0.53278 0.96154 0.52991
 C223 C 0.53181 1.03165 0.45626
 C224 C 0.46747 0.96110 0.53147
 C225 C 1.09174 0.08521 0.09824
 C226 C 1.08791 0.11595 0.12484
 C227 C 1.10856 0.13429 0.14337
 C228 C 1.13292 0.12174 0.13522
 C229 C 1.13675 0.09115 0.10833
 C230 C 1.11610 0.07284 0.08977
 C231 C 1.12040 0.04233 0.06296
 C232 C 1.14441 0.03026 0.05476
 C233 C 1.16459 0.04817 0.07292
 C234 C 1.16093 0.07827 0.09943
 C235 C 1.10427 0.16499 0.16981
 C236 C 1.08027 0.17724 0.17770
 C237 C 1.06008 0.15929 0.15961
 C238 C 1.06374 0.12897 0.13347
 C239 C 1.15399 0.14018 0.15470
 C240 C 1.17136 0.15559 0.17114
 C241 C 1.07069 0.06627 0.07950
 C242 C 1.05353 0.05014 0.06350
 H243 H 1.10531 0.02749 0.04805
 H244 H 1.14735 0.00686 0.03424
 H245 H 1.18321 0.03870 0.06644
 H246 H 1.17722 0.09132 0.11278
 H247 H 1.11938 0.17988 0.18460
 H248 H 1.07733 0.20080 0.19796
 H249 H 1.04147 0.16891 0.16584
 H250 H 1.04745 0.11592 0.12010
 C251 C 0.58932 0.59024 0.59704
 C252 C 0.58567 0.62346 0.61897
 C253 C 0.60605 0.64106 0.63941
 C254 C 0.62994 0.62533 0.63776
 C255 C 0.63360 0.59212 0.61578
 C256 C 0.61322 0.57451 0.59537
 C257 C 0.61733 0.54131 0.57362
 C258 C 0.64088 0.52596 0.57207
 C259 C 0.66081 0.54321 0.59197
 C260 C 0.65732 0.57590 0.61363
 C261 C 0.60194 0.67425 0.66115
 C262 C 0.57838 0.68959 0.66267
 C263 C 0.55847 0.67239 0.64266
 C264 C 0.56196 0.63969 0.62102
 C265 C 0.65078 0.64335 0.65847
 C266 C 0.66814 0.65835 0.67547
 C267 C 0.56859 0.57219 0.57608
 C268 C 0.55173 0.55664 0.55833
 H269 H 0.60243 0.52685 0.55762
 H270 H 0.64368 0.50053 0.55536
 H271 H 0.67907 0.53119 0.59065
 H272 H 0.67339 0.58828 0.62862
 H273 H 0.61685 0.68866 0.67719
 H274 H 0.57556 0.71494 0.67951
 H275 H 0.54021 0.68444 0.64391
 H276 H 0.54590 0.62731 0.60598
 C277 C -0.09095 0.41443 0.09285
 C278 C -0.11525 0.42720 0.08471
 C279 C -0.13595 0.40945 0.10374
 C280 C -0.13222 0.37902 0.13074
 C281 C -0.10793 0.36611 0.13865
 C282 C -0.08723 0.38390 0.11966
 C283 C -0.06312 0.37053 0.12804
 C284 C -0.05956 0.34041 0.15439
 C285 C -0.07980 0.32300 0.17292
 C286 C -0.10374 0.33559 0.16528
 C287 C -0.16005 0.42272 0.09515
 C288 C -0.16362 0.45266 0.06851
 C289 C -0.14339 0.47001 0.04988
 C290 C -0.11944 0.45755 0.05777
 C291 C -0.15335 0.36104 0.15045
 C292 C -0.17078 0.34600 0.16698
 C293 C -0.06985 0.43273 0.07350
 C294 C -0.05266 0.44834 0.05697
 H295 H -0.04680 0.38316 0.11433
 H296 H -0.04100 0.33054 0.16043
 H297 H -0.07694 0.29960 0.19334
 H298 H -0.11889 0.32112 0.18042
 H299 H -0.17638 0.41012 0.10887
 H300 H -0.18218 0.46244 0.06229
 H301 H -0.14625 0.49327 0.02924
 H302 H -0.10431 0.47196 0.04251
 C303 C 0.40887 0.90921 0.58802
 C304 C 0.41142 0.87531 0.60870
 C305 C 0.39044 0.85854 0.62806
 C306 C 0.36703 0.87580 0.62665
 C307 C 0.36443 0.90952 0.60554
 C308 C 0.38540 0.92626 0.58614
 C309 C 0.38233 0.95996 0.56515
 C310 C 0.35921 0.97662 0.56340
 C311 C 0.33871 0.96024 0.58240
 C312 C 0.34118 0.92709 0.60328
 C313 C 0.39344 0.82463 0.64850
 C314 C 0.41651 0.80777 0.64978
 C315 C 0.43702 0.82417 0.63085
 C316 C 0.43462 0.85757 0.61052
 C317 C 0.34570 0.85895 0.64709
 C318 C 0.32812 0.84477 0.66427
 C319 C 0.43028 0.92665 0.56860
 C320 C 0.44761 0.94190 0.55202
 H321 H 0.39770 0.97377 0.54984
 H322 H 0.35720 1.00238 0.54724
 H323 H 0.32078 0.97329 0.58094
 H324 H 0.32468 0.91540 0.61752
 H325 H 0.37803 0.81075 0.66363
 H326 H 0.41847 0.78186 0.66555
 H327 H 0.45490 0.81095 0.63193
 H328 H 0.45111 0.86927 0.59623
 C329 C -0.08895 0.58898 -0.09917
 C330 C -0.08522 0.62214 -0.12102
 C331 C -0.10557 0.63976 -0.14126
 C332 C -0.12952 0.62410 -0.13952
 C333 C -0.13327 0.59098 -0.11756
 C334 C -0.11292 0.57337 -0.09732
 C335 C -0.11714 0.54030 -0.07548
 C336 C -0.14076 0.52508 -0.07373
 C337 C -0.16065 0.54231 -0.09353
 C338 C -0.15705 0.57488 -0.11524
 C339 C -0.10139 0.67292 -0.16288
 C340 C -0.07779 0.68823 -0.16444
 C341 C -0.05790 0.67102 -0.14462
 C342 C -0.06146 0.63834 -0.12312
 C343 C -0.15032 0.64214 -0.16005
 C344 C -0.16762 0.65722 -0.17690
 C345 C -0.06824 0.57090 -0.07839
 C346 C -0.05141 0.55539 -0.06070
 H347 H -0.10227 0.52587 -0.05955
 H348 H -0.14364 0.49977 -0.05694
 H349 H -0.17896 0.53038 -0.09208
 H350 H -0.17311 0.58726 -0.13013
 H351 H -0.11628 0.68734 -0.17879
 H352 H -0.07492 0.71356 -0.18119
 H353 H -0.03961 0.68304 -0.14592
 H354 H -0.04542 0.62595 -0.10820
 C355 C 0.40831 1.08519 0.40455
 C356 C 0.41176 1.11725 0.38033
 C357 C 0.39095 1.13523 0.36213
 C358 C 0.36680 1.12099 0.36821
 C359 C 0.36334 1.08907 0.39273
 C360 C 0.38415 1.07113 0.41099
 C361 C 0.38022 1.03928 0.43546
 C362 C 0.35641 1.02555 0.44165
 C363 C 0.33607 1.04310 0.42377
 C364 C 0.33938 1.07450 0.39957
 C365 C 0.39485 1.16731 0.33814
 C366 C 0.41865 1.18120 0.33226
 C367 C 0.43900 1.16358 0.35000
 C368 C 0.43571 1.13196 0.37379
 C369 C 0.34559 1.13906 0.34902
 C370 C 0.32812 1.15417 0.33281
 C371 C 0.42952 1.06666 0.42302
 C372 C 0.44680 1.05084 0.43884
 H373 H 0.39544 1.02468 0.45007
 H374 H 0.35375 1.00115 0.46039
 H375 H 0.31761 1.03233 0.42868
 H376 H 0.32297 1.08721 0.38637
 H377 H 0.37961 1.18201 0.32375
 H378 H 0.42130 1.20579 0.31385
 H379 H 0.45745 1.17447 0.34532
 H380 H 0.45211 1.11924 0.38701
 C381 C 1.09145 -0.09243 -0.08637
 C382 C 1.08892 -0.12696 -0.10571
 C383 C 1.10979 -0.14381 -0.12533
 C384 C 1.13305 -0.12598 -0.12555
 C385 C 1.13564 -0.09161 -0.10579
 C386 C 1.11478 -0.07479 -0.08611
 C387 C 1.11783 -0.04041 -0.06651
 C388 C 1.14081 -0.02316 -0.06639
 C389 C 1.16119 -0.03961 -0.08565
 C390 C 1.15874 -0.07343 -0.10518
 C391 C 1.10682 -0.17838 -0.14439
 C392 C 1.08390 -0.19580 -0.14406
 C393 C 1.06349 -0.17930 -0.12492
 C394 C 1.06587 -0.14526 -0.10593
 C395 C 1.15424 -0.14290 -0.14636
 C396 C 1.17170 -0.15710 -0.16390
 C397 C 1.07016 -0.07492 -0.06669
 C398 C 1.05290 -0.05962 -0.04995
 H399 H 1.10255 -0.02652 -0.05106
 H400 H 1.14280 0.00312 -0.05130
 H401 H 1.17901 -0.02610 -0.08547
 H402 H 1.17515 -0.08514 -0.11970
 H403 H 1.12215 -0.19233 -0.15965
 H404 H 1.08197 -0.22224 -0.15875
 H405 H 1.04573 -0.19295 -0.12477
 H406 H 1.04947 -0.13352 -0.09140
 C407 C 0.59101 0.41408 0.40609
 C408 C 0.61535 0.42662 0.41473
 C409 C 0.63603 0.40875 0.39583
 C410 C 0.63225 0.37847 0.36839
 C411 C 0.60792 0.36578 0.35999
 C412 C 0.58723 0.38366 0.37887
 C413 C 0.56309 0.37054 0.36995
 C414 C 0.55947 0.34054 0.34319
 C415 C 0.57969 0.32302 0.32478
 C416 C 0.60368 0.33539 0.33295
 C417 C 0.66018 0.42177 0.40496
 C418 C 0.66381 0.45161 0.43195
 C419 C 0.64359 0.46912 0.45039
 C420 C 0.61961 0.45688 0.44203
 C421 C 0.65335 0.36050 0.34862
 C422 C 0.67078 0.34550 0.33202
 C423 C 0.56993 0.43254 0.42524
 C424 C 0.55276 0.44834 0.44158
 H425 H 0.54678 0.38325 0.38354
 H426 H 0.54088 0.33084 0.33673
 H427 H 0.57679 0.29971 0.30406
 H428 H 0.61881 0.32084 0.31791
 H429 H 0.67650 0.40904 0.39140
 H430 H 0.68241 0.46119 0.43859
 H431 H 0.64651 0.49232 0.47127
 H432 H 0.60450 0.47140 0.45718
 C433 C 0.90882 -0.09240 -0.08347
 C434 C 0.88543 -0.07510 -0.08189
 C435 C 0.86446 -0.09164 -0.10172
 C436 C 0.86700 -0.12539 -0.12296
 C437 C 0.89030 -0.14294 -0.12398
 C438 C 0.91129 -0.12637 -0.10421
 C439 C 0.93440 -0.14436 -0.10575
 C440 C 0.93671 -0.17783 -0.12615
 C441 C 0.91619 -0.19406 -0.14544
 C442 C 0.89322 -0.17693 -0.14449
 C443 C 0.84129 -0.07381 -0.09981
 C444 C 0.83890 -0.04057 -0.07888
 C445 C 0.85940 -0.02439 -0.05949
 C446 C 0.88244 -0.04132 -0.06086
 C447 C 0.84572 -0.14192 -0.14409
 C448 C 0.82820 -0.15581 -0.16191
 C449 C 0.93028 -0.07500 -0.06400
 C450 C 0.94772 -0.05972 -0.04766
 H451 H 0.95088 -0.13281 -0.09117
 H452 H 0.95452 -0.19124 -0.12700
 H453 H 0.91808 -0.22004 -0.16124
 H454 H 0.87780 -0.19065 -0.15993
 H455 H 0.82480 -0.08534 -0.11438
 H456 H 0.82105 -0.02731 -0.07772
 H457 H 0.85745 0.00145 -0.04332
 H458 H 0.89781 -0.02765 -0.04525
 C459 C 0.41071 0.41450 0.39984
 C460 C 0.41485 0.38367 0.37353
 C461 C 0.39447 0.36581 0.35343
 C462 C 0.37008 0.37894 0.35970
 C463 C 0.36593 0.40969 0.38618
 C464 C 0.38630 0.42751 0.40633
 C465 C 0.38167 0.45814 0.43276
 C466 C 0.35762 0.47079 0.43908
 C467 C 0.33772 0.45336 0.41936
 C468 C 0.34171 0.42315 0.39319
 C469 C 0.39905 0.33494 0.32743
 C470 C 0.42308 0.32208 0.32143
 C471 C 0.44300 0.33958 0.34102
 C472 C 0.43905 0.37004 0.36681
 C473 C 0.34926 0.36068 0.33926
 C474 C 0.33189 0.34545 0.32261
 C475 C 0.43145 0.43285 0.42041
 C476 C 0.44831 0.44858 0.43796
 H477 H 0.39654 0.47260 0.44886
 H478 H 0.35443 0.49425 0.45938
 H479 H 0.31906 0.46328 0.42439
 H480 H 0.32561 0.41049 0.37861
 H481 H 0.38414 0.32039 0.31155
 H482 H 0.42624 0.29840 0.30149
 H483 H 0.46163 0.32950 0.33625
 H484 H 0.45513 0.38270 0.38143
 C485 C 0.09040 0.58947 -0.09618
 C486 C 0.08651 0.62194 -0.11939
 C487 C 0.10681 0.63943 -0.14003
 C488 C 0.13087 0.62433 -0.13735
 C489 C 0.13479 0.59201 -0.11385
 C490 C 0.11450 0.57453 -0.09319
 C491 C 0.11889 0.54226 -0.06984
 C492 C 0.14263 0.52768 -0.06699
 C493 C 0.16247 0.54479 -0.08718
 C494 C 0.15870 0.57658 -0.11039
 C495 C 0.10248 0.67189 -0.16302
 C496 C 0.07877 0.68662 -0.16557
 C497 C 0.05892 0.66952 -0.14539
 C498 C 0.06264 0.63754 -0.12252
 C499 C 0.15158 0.64211 -0.15858
 C500 C 0.16880 0.65698 -0.17603
 C501 C 0.06967 0.57128 -0.07549
 C502 C 0.05275 0.55564 -0.05815
 H503 H 0.10407 0.52797 -0.05352
 H504 H 0.14565 0.50297 -0.04903
 H505 H 0.18088 0.53337 -0.08486
 H506 H 0.17473 0.58890 -0.12550
 H507 H 0.11733 0.68620 -0.17923
 H508 H 0.07578 0.71142 -0.18335
 H509 H 0.04054 0.68108 -0.14747
 H510 H 0.04663 0.62524 -0.10733
 C511 C 0.58890 1.08549 0.39771
 C512 C 0.58476 1.11588 0.37084
 C513 C 0.60518 1.13370 0.35097
 C514 C 0.62960 1.12097 0.35806
 C515 C 0.63373 1.09066 0.38510
 C516 C 0.61333 1.07288 0.40501
 C517 C 0.61793 1.04268 0.43201
 C518 C 0.64199 1.03040 0.43910
 C519 C 0.66194 1.04777 0.41960
 C520 C 0.65798 1.07756 0.39288
 C521 C 0.60059 1.16410 0.32435
 C522 C 0.57652 1.17654 0.31756
 C523 C 0.55656 1.15907 0.33693
 C524 C 0.56053 1.12907 0.36329
 C525 C 0.65045 1.13918 0.33781
 C526 C 0.66780 1.15441 0.32123
 C527 C 0.56812 1.06713 0.41794
 C528 C 0.55126 1.05129 0.43517
 H529 H 0.60303 1.02826 0.44794
 H530 H 0.64517 1.00727 0.45983
 H531 H 0.68061 1.03812 0.42522
 H532 H 0.67410 1.09017 0.37847
 H533 H 0.61551 1.17860 0.30857
 H534 H 0.57334 1.19986 0.29715
 H535 H 0.53791 1.16883 0.33154
 H536 H 0.54442 1.11641 0.37770
 C537 C 0.08896 0.41451 0.09936
 C538 C 0.11351 0.42677 0.09215
 C539 C 0.13372 0.40898 0.11258
 C540 C 0.12926 0.37905 0.14010
 C541 C 0.10472 0.36671 0.14715
 C542 C 0.08451 0.38453 0.12675
 C543 C 0.06014 0.37173 0.13429
 C544 C 0.05587 0.34211 0.16115
 C545 C 0.07564 0.32464 0.18103
 C546 C 0.09982 0.33669 0.17426
 C547 C 0.15809 0.42166 0.10480
 C548 C 0.16237 0.45109 0.07763
 C549 C 0.14261 0.46851 0.05768
 C550 C 0.11843 0.45660 0.06472
 C551 C 0.14992 0.36082 0.16086
 C552 C 0.16714 0.34562 0.17780
 C553 C 0.06839 0.43275 0.07839
 C554 C 0.05165 0.44835 0.06054
 H555 H 0.04417 0.38442 0.11951
 H556 H 0.03712 0.33266 0.16655
 H557 H 0.07222 0.30162 0.20183
 H558 H 0.11459 0.32221 0.19043
 H559 H 0.17408 0.40900 0.11955
 H560 H 0.18113 0.46043 0.07203
 H561 H 0.14603 0.49137 0.03664
 H562 H 0.10369 0.47104 0.04843
 C563 C 0.59178 0.91002 0.58553
 C564 C 0.61508 0.92773 0.58489
 C565 C 0.63601 0.91129 0.60475
 C566 C 0.63354 0.87720 0.62501
 C567 C 0.61032 0.85926 0.62512
 C568 C 0.58937 0.87574 0.60535
 C569 C 0.56635 0.85732 0.60592
 C570 C 0.56410 0.82354 0.62538
 C571 C 0.58458 0.80741 0.64469
 C572 C 0.60746 0.82495 0.64469
 C573 C 0.65907 0.92957 0.60381
 C574 C 0.66142 0.96308 0.58372
 C575 C 0.64098 0.97913 0.56422
 C576 C 0.61803 0.96180 0.56472
 C577 C 0.65481 0.86061 0.64589
 C578 C 0.67231 0.84657 0.66342
 C579 C 0.57034 0.92729 0.56604
 C580 C 0.55290 0.94242 0.54971
 H581 H 0.54990 0.86878 0.59129
 H582 H 0.54637 0.80979 0.62547
 H583 H 0.58274 0.78118 0.65977
 H584 H 0.62284 0.81130 0.66012
 H585 H 0.67552 0.91816 0.61851
 H586 H 0.67921 0.97666 0.58327
 H587 H 0.64290 1.00516 0.54863
 H588 H 0.60268 0.97539 0.54909
 C589 C 0.91157 0.08431 0.10379
 C590 C 0.88711 0.07170 0.09648
 C591 C 0.86673 0.08983 0.11598
 C592 C 0.87094 0.12047 0.14266
 C593 C 0.89539 0.13316 0.14982
 C594 C 0.91578 0.11500 0.13036
 C595 C 0.94005 0.12816 0.13798
 C596 C 0.94408 0.15845 0.16405
 C597 C 0.92415 0.17626 0.18302
 C598 C 0.90004 0.16387 0.17613
 C599 C 0.84244 0.07676 0.10815
 C600 C 0.83841 0.04661 0.08184
 C601 C 0.85834 0.02885 0.06280
 C602 C 0.88244 0.04114 0.06990
 C603 C 0.85010 0.13901 0.16252
 C604 C 0.83275 0.15444 0.17877
 C605 C 0.93232 0.06571 0.08378
 C606 C 0.94917 0.04977 0.06668
 H607 H 0.95615 0.11523 0.12389
 H608 H 0.96277 0.16817 0.16953
 H609 H 0.92737 0.19980 0.20320
 H610 H 0.88514 0.17863 0.19159
 H611 H 0.82634 0.08967 0.12221
 H612 H 0.81972 0.03698 0.07620
 H613 H 0.85511 0.00541 0.04245
 H614 H 0.89732 0.02642 0.05431
 C615 C 0.40964 0.59108 0.59202
 C616 C 0.41326 0.62411 0.61444
 C617 C 0.39286 0.64142 0.63497
 C618 C 0.36897 0.62558 0.63291
 C619 C 0.36528 0.59279 0.61001
 C620 C 0.38568 0.57549 0.58948
 C621 C 0.38154 0.54273 0.56672
 C622 C 0.35793 0.52750 0.56435
 C623 C 0.33799 0.54441 0.58445
 C624 C 0.34152 0.57667 0.60707
 C625 C 0.39694 0.67440 0.65725
 C626 C 0.42050 0.68982 0.65920
 C627 C 0.44044 0.67293 0.63906
 C628 C 0.43697 0.64044 0.61690
 C629 C 0.34819 0.64300 0.65436
 C630 C 0.33094 0.65753 0.67208
 C631 C 0.43051 0.57290 0.57185
 C632 C 0.44753 0.55717 0.55495
 H633 H 0.39644 0.52857 0.55048
 H634 H 0.35510 0.50244 0.54681
 H635 H 0.31969 0.53248 0.58250
 H636 H 0.32542 0.58883 0.62212
 H637 H 0.38201 0.68861 0.67335
 H638 H 0.42331 0.71500 0.67646
 H639 H 0.45870 0.68505 0.64063
 H640 H 0.45304 0.62833 0.60172
   
