data_POSCAR
  _audit_creation_date              2014-09-24
  _audit_creation_method            'ToBaCCo'
  _symmetry_space_group_name_H-M    'P1'
  _symmetry_Int_Tables_number       1
  _symmetry_cell_setting            triclinic
  loop_
  _symmetry_equiv_pos_as_xyz
 x,y,z
_cell_length_a 27.8335
_cell_length_b 29.7624
_cell_length_c 30.9097
_cell_angle_alpha 92.421600
_cell_angle_beta 93.464500
_cell_angle_gamma 86.765800
loop_
  _atom_site_label
  _atom_site_type_symbol
  _atom_site_fract_x
  _atom_site_fract_y
  _atom_site_fract_z
C1 C 0.24699 0.48818 1.00264
 C2 C 0.75433 0.51059 -0.00255
 C3 C -0.02532 0.25338 0.47590
 C4 C 1.04446 0.73383 0.53713
 C5 C 0.49443 0.00552 0.24139
 C6 C 0.50135 -0.00960 0.74215
 C7 C 0.33315 0.00686 0.43445
 H8 H 0.35026 0.00370 0.46648
 C9 C 0.36120 0.01492 0.40019
 H10 H 0.39987 0.01632 0.40607
 C11 C 0.26240 0.00929 0.38771
 H12 H 0.22368 0.00751 0.38343
 C13 C 0.28922 0.01808 0.35241
 H14 H 0.27116 0.02264 0.32075
 N15 N 0.28471 0.00396 0.42774
 C16 C 0.15471 0.04045 0.47818
 H17 H 0.14199 0.00679 0.47615
 C18 C 0.12153 0.07716 0.47942
 H19 H 0.08331 0.07168 0.47824
 C20 C 0.21948 0.08921 0.47997
 H21 H 0.25784 0.09334 0.47977
 C22 C 0.18739 0.12700 0.48118
 H23 H 0.20076 0.16049 0.48143
 Zn24 Zn 0.24739 -0.00275 0.47587
 N25 N 0.20268 0.04704 0.47865
 C26 C 0.28074 0.02745 0.56008
 N27 N 0.28697 -0.00450 0.52781
 C28 C 0.32066 -0.03920 0.53236
 C29 C 0.35238 -0.04067 0.56907
 C30 C 0.31126 0.02695 0.59753
 C31 C 0.21489 -0.08684 0.43735
 C32 C 0.19283 -0.12786 0.43980
 C33 C 0.17233 -0.10550 0.51281
 C34 C 0.19422 -0.06532 0.50895
 N35 N 0.21520 -0.05680 0.47189
 H36 H 0.25254 0.05369 0.55670
 H37 H 0.32384 -0.06490 0.50673
 H38 H 0.38059 -0.06719 0.57155
 H39 H 0.30710 0.05330 0.62249
 H40 H 0.23245 -0.07948 0.40841
 H41 H 0.19325 -0.15215 0.41272
 H42 H 0.15695 -0.11221 0.54302
 H43 H 0.19548 -0.04101 0.53596
 C44 C 0.13794 0.12082 0.48069
 C45 C 0.33922 0.02163 0.35876
 C46 C 0.17211 -0.13759 0.47835
 C47 C 0.34855 -0.00653 0.60145
 C48 C 0.67080 0.00554 0.54038
 H49 H 0.66644 0.02829 0.51386
 C50 C 0.63871 0.00931 0.57367
 H51 H 0.60934 0.03478 0.57266
 C52 C 0.71315 -0.05656 0.57346
 H53 H 0.74122 -0.08305 0.57288
 C54 C 0.68214 -0.05385 0.60736
 H55 H 0.68682 -0.07797 0.63276
 N56 N 0.70739 -0.02684 0.54100
 C57 C 0.81670 0.02122 0.46186
 H58 H 0.82393 -0.00928 0.44250
 C59 C 0.84110 0.05962 0.45510
 H60 H 0.86752 0.05853 0.43069
 C61 C 0.77367 0.05950 0.51752
 H62 H 0.74778 0.05911 0.54212
 C63 C 0.79822 0.09848 0.51253
 H64 H 0.79157 0.12777 0.53377
 Zn65 Zn 0.75001 -0.03140 0.49494
 N66 N 0.78274 0.02216 0.49174
 C67 C 0.71552 -0.01230 0.40926
 N68 N 0.71348 -0.04164 0.44167
 C69 C 0.68230 -0.07542 0.43809
 C70 C 0.65020 -0.07934 0.40159
 C71 C 0.68507 -0.01567 0.37200
 C72 C 0.82679 -0.07204 0.54230
 C73 C 0.86544 -0.10249 0.55178
 C74 C 0.84634 -0.14311 0.48414
 C75 C 0.80700 -0.11244 0.47646
 N76 N 0.79837 -0.07754 0.50531
 H77 H 0.73894 0.01535 0.41281
 H78 H 0.68070 -0.09785 0.46456
 H79 H 0.62354 -0.10457 0.40010
 H80 H 0.68564 0.00926 0.34750
 H81 H 0.81945 -0.04364 0.56438
 H82 H 0.88744 -0.09785 0.58159
 H83 H 0.85381 -0.17013 0.46053
 H84 H 0.78429 -0.11574 0.44698
 C85 C 0.83164 0.09900 0.48033
 C86 C 0.64418 -0.02093 0.60737
 C87 C 0.87664 -0.13758 0.52178
 C88 C 0.65124 -0.04877 0.36835
 C89 C 0.49684 0.16761 1.04360
 H90 H 0.47372 0.16378 1.01441
 C91 C 0.49439 0.13789 1.07697
 H92 H 0.46977 0.11093 1.07281
 C93 C 0.55780 0.20665 1.08354
 H94 H 0.58313 0.23290 1.08587
 C95 C 0.55426 0.17938 1.11890
 H96 H 0.57570 0.18623 1.14859
 N97 N 0.52926 0.20033 1.04669
 C98 C 0.46415 0.30062 0.95882
 H99 H 0.49062 0.30206 0.93500
 C100 C 0.42376 0.33060 0.95673
 H101 H 0.41882 0.35333 0.93018
 C102 C 0.44036 0.27256 1.02429
 H103 H 0.44764 0.25105 1.05145
 C104 C 0.40029 0.30315 1.02422
 H105 H 0.37727 0.30476 1.05133
 Zn106 Zn 0.53085 0.23625 0.99694
 N107 N 0.47157 0.27185 0.99193
 C108 C 0.53341 0.21188 0.90561
 N109 N 0.53924 0.19659 0.94667
 C110 C 0.54885 0.15187 0.95313
 C111 C 0.54643 0.12042 0.91840
 C112 C 0.53183 0.18157 0.86976
 C113 C 0.57838 0.30800 1.03772
 C114 C 0.60837 0.34411 1.04099
 C115 C 0.64037 0.31911 0.97264
 C116 C 0.61110 0.28228 0.97154
 N117 N 0.57994 0.27812 1.00325
 H118 H 0.52869 0.24740 0.90035
 H119 H 0.55691 0.14006 0.98540
 H120 H 0.55088 0.08481 0.92451
 H121 H 0.52483 0.19403 0.83745
 H122 H 0.55247 0.30472 1.06195
 H123 H 0.60654 0.36760 1.06864
 H124 H 0.66325 0.32330 0.94613
 H125 H 0.61158 0.25842 0.94423
 C126 C 0.39140 0.33254 0.98995
 C127 C 0.52369 0.14315 1.11525
 C128 C 0.63791 0.35140 1.00700
 C129 C 0.53551 0.13515 0.87638
 C130 C 0.50649 0.82791 -0.05700
 H131 H 0.53036 0.83015 -0.02813
 C132 C 0.51089 0.85681 -0.09061
 H133 H 0.53817 0.88149 -0.08760
 C134 C 0.44183 0.79287 -0.09608
 H135 H 0.41504 0.76783 -0.09786
 C136 C 0.44501 0.82132 -0.13068
 H137 H 0.42074 0.81811 -0.15924
 N138 N 0.47293 0.79629 -0.06050
 C139 C 0.38671 0.72275 0.01235
 H140 H 0.38608 0.74994 0.03658
 C141 C 0.35405 0.68889 0.01355
 H142 H 0.32829 0.69039 0.03854
 C143 C 0.42312 0.68536 -0.04758
 H144 H 0.45118 0.68358 -0.07043
 C145 C 0.39163 0.65045 -0.04709
 H146 H 0.39545 0.62181 -0.06966
 Zn147 Zn 0.47325 0.75854 -0.01279
 N148 N 0.42108 0.71989 -0.01733
 C149 C 0.43410 0.82832 0.04037
 N150 N 0.47112 0.79662 0.03794
 C151 C 0.50781 0.79473 0.06913
 C152 C 0.50798 0.82534 0.10462
 C153 C 0.43291 0.85963 0.07530
 C154 C 0.56332 0.72304 -0.04163
 C155 C 0.60458 0.69406 -0.04090
 C156 C 0.57825 0.66160 0.02343
 C157 C 0.53724 0.69087 0.02125
 N158 N 0.53075 0.72110 -0.01070
 H159 H 0.40603 0.82983 0.01461
 H160 H 0.53779 0.77044 0.06602
 H161 H 0.53788 0.82420 0.12874
 H162 H 0.40371 0.88520 0.07658
 H163 H 0.55699 0.74638 -0.06744
 H164 H 0.62995 0.69528 -0.06599
 H165 H 0.58301 0.63743 0.04876
 H166 H 0.51031 0.68940 0.04490
 C167 C 0.35782 0.65131 -0.01523
 C168 C 0.48052 0.85312 -0.12827
 C169 C 0.61222 0.66311 -0.00800
 C170 C 0.47020 0.85821 0.10786
 C171 C 1.07279 0.47888 0.19229
 H172 H 1.04535 0.45463 0.19042
 C173 C 1.10809 0.47571 0.16200
 H174 H 1.10743 0.44906 0.13702
 C175 C 1.10415 0.54592 0.22352
 H176 H 1.10061 0.57533 0.24484
 C177 C 1.14127 0.54302 0.19490
 H178 H 1.16670 0.56933 0.19565
 N179 N 1.07093 0.51383 0.22209
 C180 C 1.01826 0.46637 0.33069
 H181 H 1.02877 0.49707 0.34744
 C182 C 1.01026 0.42954 0.35497
 H183 H 1.01478 0.43221 0.39004
 C184 C 0.99807 0.42525 0.26537
 H185 H 0.99157 0.42416 0.23057
 C186 C 0.98940 0.38747 0.28860
 H187 H 0.97731 0.35720 0.27165
 Zn188 Zn 1.01619 0.51825 0.25680
 N189 N 1.01152 0.46405 0.28668
 C190 C 0.92154 0.50208 0.22200
 N191 N 0.96076 0.52675 0.21847
 C192 C 0.96419 0.55314 0.18403
 C193 C 0.92909 0.55264 0.14974
 C194 C 0.88597 0.50011 0.18818
 C195 C 1.06180 0.57414 0.32194
 C196 C 1.06265 0.60100 0.35999
 C197 C 0.97574 0.60860 0.35352
 C198 C 0.97664 0.58348 0.31427
 N199 N 1.01920 0.56594 0.29972
 H200 H 0.91893 0.48210 0.25006
 H201 H 0.99569 0.57246 0.18197
 H202 H 0.93340 0.57197 0.12144
 H203 H 0.85648 0.47820 0.19016
 H204 H 1.09488 0.55688 0.31245
 H205 H 1.09678 0.60661 0.37759
 H206 H 0.94148 0.62007 0.36605
 H207 H 0.94311 0.57512 0.29710
 C208 C 0.99496 0.38997 0.33390
 C209 C 1.14206 0.50869 0.16249
 C210 C 1.01912 0.61598 0.37762
 C211 C 0.89078 0.52405 0.15074
 C212 C -0.06214 0.46805 0.80897
 H213 H -0.03386 0.44164 0.80753
 C214 C -0.09631 0.46734 0.84013
 H215 H -0.09457 0.44025 0.86260
 C216 C -0.09733 0.53698 0.78312
 H217 H -0.09680 0.56461 0.76163
 C218 C -0.13207 0.53773 0.81402
 H219 H -0.15851 0.56576 0.81598
 N220 N -0.06332 0.50238 0.78113
 C221 C 0.01651 0.45413 0.67041
 H222 H 0.04042 0.48144 0.66942
 C223 C 0.01417 0.42198 0.63635
 H224 H 0.03615 0.42475 0.60895
 C225 C -0.04354 0.41893 0.70612
 H226 H -0.06693 0.41857 0.73269
 C227 C -0.04609 0.38534 0.67326
 H228 H -0.07116 0.35901 0.67489
 Zn229 Zn -0.01193 0.50231 0.74364
 N230 N -0.01291 0.45268 0.70381
 C231 C 0.07531 0.46133 0.78033
 N232 N 0.04525 0.49904 0.77978
 C233 C 0.05188 0.53399 0.80888
 C234 C 0.08919 0.53147 0.84087
 C235 C 0.11221 0.45673 0.81291
 C236 C -0.05306 0.56480 0.68244
 C237 C -0.05196 0.60058 0.65442
 C238 C 0.02790 0.61480 0.68508
 C239 C 0.02538 0.57910 0.71212
 N240 N -0.01462 0.55482 0.71055
 H241 H 0.06877 0.43369 0.75729
 H242 H 0.02687 0.56317 0.80820
 H243 H 0.09275 0.55872 0.86503
 H244 H 0.13372 0.42535 0.81519
 H245 H -0.08392 0.54415 0.68089
 H246 H -0.08214 0.60784 0.63157
 H247 H 0.06077 0.63277 0.68587
 H248 H 0.05655 0.56960 0.73278
 C249 C -0.01833 0.38776 0.63710
 C250 C -0.13162 0.50257 0.84285
 C251 C -0.01069 0.62556 0.65546
 C252 C 0.11806 0.49151 0.84448
 C253 C 0.03482 0.19724 0.43644
 C254 C 0.02173 0.22271 0.47517
 C255 C 0.04580 0.20953 0.51450
 C256 C 0.08589 0.17943 0.51542
 C257 C 0.10235 0.15920 0.47724
 C258 C 0.07743 0.16839 0.43725
 C259 C 0.00467 0.19649 0.39770
 C260 C 0.01948 0.17396 0.35995
 C261 C 0.06377 0.15008 0.35999
 C262 C 0.09227 0.14662 0.39837
 H263 H -0.03121 0.21215 0.39599
 H264 H -0.00376 0.17476 0.33060
 H265 H 0.07528 0.13281 0.33056
 H266 H 0.12553 0.12601 0.39753
 H267 H 0.03148 0.21940 0.54536
 H268 H 0.10239 0.16965 0.54652
 C269 C 0.73354 0.59910 0.01832
 C270 C 0.72496 0.55734 -0.00580
 C271 C 0.68531 0.55835 -0.03677
 C272 C 0.65034 0.59331 -0.03769
 C273 C 0.65359 0.62982 -0.00842
 C274 C 0.69585 0.63406 0.01880
 C275 C 0.77810 0.60879 0.04037
 C276 C 0.78337 0.64817 0.06588
 C277 C 0.74511 0.67987 0.06907
 C278 C 0.70187 0.67332 0.04534
 H279 H 0.81017 0.58733 0.03793
 H280 H 0.81762 0.65426 0.08301
 H281 H 0.74946 0.71035 0.08897
 H282 H 0.67362 0.69975 0.04715
 H283 H 0.67878 0.53000 -0.05861
 H284 H 0.61909 0.59070 -0.06015
 C285 C 1.00659 -0.18246 0.54850
 C286 C 1.00125 -0.22985 0.54202
 C287 C 0.95360 -0.24424 0.53963
 C288 C 0.91407 -0.21405 0.53267
 C289 C 0.92020 -0.16801 0.52964
 C290 C 0.96690 -0.15169 0.53794
 C291 C 1.04925 -0.16463 0.56728
 C292 C 1.05539 -0.11843 0.56898
 C293 C 1.01921 -0.08905 0.55200
 C294 C 0.97514 -0.10534 0.53675
 H295 H 1.07719 -0.18589 0.58272
 H296 H 1.08824 -0.10536 0.58368
 H297 H 1.02462 -0.05330 0.55218
 H298 H 0.94756 -0.08119 0.52480
 H299 H 0.94691 -0.27967 0.54035
 H300 H 0.87833 -0.22689 0.52895
 C301 C 0.26878 0.39821 1.00309
 C302 C 0.28259 0.44401 0.99978
 C303 C 0.33040 0.44836 0.98716
 C304 C 0.36415 0.41252 0.98487
 C305 C 0.35202 0.36871 0.99118
 C306 C 0.30349 0.36089 0.99824
 C307 C 0.22123 0.38796 1.01022
 C308 C 0.20746 0.34384 1.01184
 C309 C 0.24085 0.30812 1.00585
 C310 C 0.28835 0.31639 0.99889
 H311 H 0.19418 0.41360 1.01512
 H312 H 0.17050 0.33738 1.01743
 H313 H 0.22985 0.27385 1.00640
 H314 H 0.31273 0.28749 0.99307
 H315 H 0.34356 0.47987 0.97836
 H316 H 0.40063 0.41941 0.97781
 C317 C 0.87041 0.21846 0.46895
 C318 C 0.92873 0.21000 0.47372
 C319 C 0.94332 0.16460 0.48011
 C320 C 0.91094 0.13087 0.48098
 C321 C 0.86081 0.13858 0.47601
 C322 C 0.84010 0.18247 0.46935
 C323 C 0.84567 0.26828 0.46677
 C324 C 0.79558 0.27345 0.46235
 C325 C 0.76853 0.23523 0.46002
 C326 C 0.78975 0.19144 0.46333
 H327 H 0.92617 0.31258 0.47333
 H328 H 0.77700 0.30606 0.46034
 H329 H 0.72966 0.23954 0.45588
 H330 H 0.76555 0.16416 0.46105
 H331 H 0.98047 0.15342 0.48586
 H332 H 0.92588 0.09710 0.48695
 C333 C 0.31494 0.54385 0.03143
 C334 C 0.27793 0.53130 -0.00122
 C335 C 0.27098 0.55936 -0.03737
 C336 C 0.29661 0.59770 -0.04099
 C337 C 0.33073 0.61074 -0.00888
 C338 C 0.34058 0.58376 0.02749
 C339 C 0.32944 0.51644 0.06683
 C340 C 0.36505 0.52861 0.09799
 C341 C 0.38871 0.56782 0.09437
 C342 C 0.37730 0.59481 0.05926
 H343 H 0.31586 0.48403 0.07022
 H344 H 0.37514 0.50681 0.12459
 H345 H 0.41693 0.57679 0.11830
 H346 H 0.39838 0.62392 0.05706
 H347 H 0.24385 0.55382 -0.06301
 H348 H 0.28915 0.61793 -0.06921
 C349 C 0.13692 -0.23622 0.53999
 C350 C 0.08911 -0.24341 0.51863
 C351 C 0.07879 -0.22176 0.47879
 C352 C 0.10841 -0.19105 0.46303
 C353 C 0.15152 -0.18141 0.48507
 C354 C 0.16827 -0.20707 0.52063
 C355 C 0.15508 -0.25347 0.58070
 C356 C 0.20161 -0.24649 0.59801
 C357 C 0.23214 -0.22135 0.57656
 C358 C 0.21567 -0.20152 0.53842
 H359 H 0.13655 -0.27363 0.60098
 H360 H 0.21419 -0.26112 0.62843
 H361 H 0.26840 -0.21646 0.58994
 H362 H 0.24031 -0.18130 0.52288
 H363 H 0.04442 -0.22317 0.46153
 H364 H 0.09526 -0.17154 0.43551
 C365 C 0.67198 0.47508 1.01924
 C366 C 0.72127 0.47100 1.00651
 C367 C 0.74185 0.42664 1.00181
 C368 C 0.71461 0.38889 1.00214
 C369 C 0.66504 0.39318 1.00685
 C370 C 0.64301 0.43676 1.01415
 C371 C 0.65024 0.51480 1.03822
 C372 C 0.60079 0.51940 1.04337
 C373 C 0.57173 0.48423 1.03099
 C374 C 0.59251 0.44309 1.01680
 H375 H 0.67028 0.54297 1.04994
 H376 H 0.58492 0.55065 1.05664
 H377 H 0.53313 0.48834 1.03376
 H378 H 0.56860 0.41634 1.00820
 H379 H 0.77927 0.42063 0.99575
 H380 H 0.73247 0.35585 0.99779
 C381 C 0.55302 0.06686 1.21273
 C382 C 0.50644 0.04908 1.21700
 C383 C 0.46723 0.07098 1.19349
 C384 C 0.47381 0.10219 1.16257
 C385 C 0.51994 0.11197 1.15151
 C386 C 0.56031 0.09321 1.17618
 C387 C 0.59226 0.06179 1.24377
 C388 C 0.63866 0.07208 1.23440
 C389 C 0.64681 0.08911 1.19454
 C390 C 0.60799 0.10006 1.16570
 H391 H 0.58809 0.05104 1.27603
 H392 H 0.66844 0.06631 1.25804
 H393 H 0.68309 0.09555 1.18665
 H394 H 0.61581 0.11410 1.13541
 H395 H 0.43069 0.06140 1.19646
 H396 H 0.44213 0.11724 1.14556
 C397 C 0.06969 0.66973 0.57798
 C398 C 0.05738 0.71492 0.58128
 C399 C 0.03367 0.73143 0.61833
 C400 C 0.00638 0.70315 0.64074
 C401 C -0.00338 0.65990 0.62381
 C402 C 0.01726 0.64528 0.58498
 C403 C 0.11430 0.65247 0.54339
 C404 C 0.10705 0.60712 0.50820
 C405 C 0.02482 0.57339 0.51794
 C406 C -0.00552 0.60149 0.55668
 H407 H 0.14521 0.67181 0.54000
 H408 H 0.13554 0.59798 0.48612
 H409 H 0.00741 0.54467 0.50180
 H410 H -0.03959 0.58934 0.56473
 H411 H 0.03228 0.76698 0.62727
 H412 H -0.00810 0.71528 0.67109
 C413 C 0.53897 0.91794 -0.21393
 C414 C 0.49989 0.95037 -0.22585
 C415 C 0.45752 0.94895 -0.20290
 C416 C 0.45094 0.91619 -0.17352
 C417 C 0.48665 0.88286 -0.16463
 C418 C 0.53023 0.88242 -0.18588
 C419 C 0.58693 0.91959 -0.22697
 C420 C 0.62181 0.88518 -0.21837
 C421 C 0.61095 0.84861 -0.19524
 C422 C 0.56588 0.84739 -0.17858
 H423 H 0.60018 0.94741 -0.24242
 H424 H 0.65775 0.88715 -0.22951
 H425 H 0.63804 0.82176 -0.18901
 H426 H 0.55928 0.81880 -0.15969
 H427 H 0.42818 0.97360 -0.20779
 H428 H 0.41786 0.91763 -0.15660
 C429 C 0.92948 0.32076 0.40810
 C430 C 0.97434 0.28898 0.42826
 C431 C 1.01864 0.29684 0.41148
 C432 C 1.02264 0.32644 0.37832
 C433 C 0.98339 0.35245 0.36037
 C434 C 0.93645 0.34958 0.37481
 C435 C 0.87897 0.32678 0.43122
 C436 C 0.84298 0.35633 0.41397
 C437 C 0.85207 0.38045 0.37781
 C438 C 0.89712 0.37786 0.35930
 H439 H 0.90466 0.27306 0.49677
 H440 H 0.80864 0.36178 0.42814
 H441 H 0.82386 0.40329 0.36451
 H442 H 0.90120 0.39960 0.33272
 H443 H 1.05181 0.28144 0.42526
 H444 H 1.05845 0.33130 0.36796
 C445 C 0.47441 0.92022 0.21971
 C446 C 0.48294 0.96535 0.20735
 C447 C 0.48294 0.97204 0.16209
 C448 C 0.47732 0.93741 0.13118
 C449 C 0.47207 0.89358 0.14302
 C450 C 0.47010 0.88448 0.18732
 C451 C 0.46862 0.90951 0.26323
 C452 C 0.46156 0.86572 0.27474
 C453 C 0.45889 0.83124 0.24323
 C454 C 0.46251 0.84045 0.19987
 H455 H 0.46715 0.93464 0.28896
 H456 H 0.45732 0.85867 0.30833
 H457 H 0.45296 0.79735 0.25232
 H458 H 0.45854 0.81283 0.17628
 H459 H 0.49046 1.00355 0.14891
 H460 H 0.47913 0.94473 0.09726
 C461 C -0.07421 0.32469 0.53917
 C462 C -0.02804 0.29162 0.52487
 C463 C 0.01502 0.30340 0.54717
 C464 C 0.01606 0.33255 0.58379
 C465 C -0.02509 0.35640 0.59892
 C466 C -0.07015 0.35437 0.57527
 C467 C -0.12325 0.32947 0.50841
 C468 C -0.16044 0.35938 0.52092
 C469 C -0.15371 0.38565 0.55898
 C470 C -0.11027 0.38398 0.58468
 H471 H -0.09389 0.27116 0.44594
 H472 H -0.19385 0.36343 0.50168
 H473 H -0.18255 0.40936 0.56831
 H474 H -0.10824 0.40812 0.61171
 H475 H 0.04942 0.29130 0.53573
 H476 H 0.05086 0.33775 0.60037
 C477 C 0.46673 0.06357 0.78898
 C478 C 0.50547 0.03195 0.77569
 C479 C 0.55021 0.03482 0.79959
 C480 C 0.55953 0.06894 0.83037
 C481 C 0.52415 0.10183 0.84057
 C482 C 0.47723 0.09923 0.82046
 C483 C 0.41746 0.06056 0.77435
 C484 C 0.38177 0.09226 0.78685
 C485 C 0.39290 0.12719 0.81587
 C486 C 0.43973 0.13025 0.83323
 H487 H 0.40351 0.03344 0.75483
 H488 H 0.34478 0.08895 0.77466
 H489 H 0.36480 0.15128 0.82606
 H490 H 0.44557 0.15677 0.85754
 H491 H 0.57942 0.01039 0.79410
 H492 H 0.59500 0.06937 0.84687
 C493 C 1.03752 0.64362 0.50865
 C494 C 1.02656 0.69305 0.50435
 C495 C 1.00018 0.70576 0.46566
 C496 C 0.99616 0.67965 0.42734
 C497 C 1.01893 0.63732 0.42185
 C498 C 1.03985 0.61556 0.45810
 C499 C 1.07896 0.58963 0.56855
 C500 C 1.09924 0.53991 0.54540
 C501 C 1.09265 0.52890 0.49135
 C502 C 1.06612 0.56226 0.45231
 H503 H 1.08772 0.59519 0.60326
 H504 H 1.11753 0.51486 0.56576
 H505 H 1.10672 0.49613 0.48014
 H506 H 1.06470 0.54602 0.42047
 H507 H 0.98309 0.73906 0.46327
 H508 H 0.97722 0.69500 0.39955
 C509 C 1.19125 0.53775 0.05475
 C510 C 1.22287 0.49818 0.04690
 C511 C 1.23055 0.46778 0.08091
 C512 C 1.20625 0.47324 0.11890
 C513 C 1.17371 0.50980 0.12570
 C514 C 1.16695 0.54322 0.09431
 C515 C 1.17863 0.56955 0.02251
 C516 C 1.14684 0.60649 0.02967
 C517 C 1.12462 0.61210 0.06847
 C518 C 1.13360 0.58046 0.10010
 H519 H 1.18997 0.56535 -0.00977
 H520 H 1.13816 0.63008 0.00427
 H521 H 1.09906 0.64034 0.07358
 H522 H 1.11313 0.58548 0.12856
 H523 H 1.25484 0.43841 0.07840
 H524 H 1.21176 0.44761 0.14286
 C525 C 0.54540 -0.05513 0.67872
 C526 C 0.54277 -0.01693 0.70938
 C527 C 0.57563 0.01706 0.70479
 C528 C 0.60762 0.01520 0.67182
 C529 C 0.60858 -0.02035 0.64117
 C530 C 0.57713 -0.05556 0.64395
 C531 C 0.51758 -0.09329 0.68137
 C532 C 0.51834 -0.12836 0.65010
 C533 C 0.54709 -0.12698 0.61522
 C534 C 0.57635 -0.09112 0.61209
 H535 H 0.49542 -0.09788 0.70765
 H536 H 0.49635 -0.15683 0.65301
 H537 H 0.54715 -0.15406 0.59072
 H538 H 0.59815 -0.09156 0.58426
 H539 H 0.57647 0.04690 0.72564
 H540 H 0.63176 0.04229 0.66997
 C541 C -0.23477 0.47822 0.91461
 C542 C -0.22277 0.50740 0.95195
 C543 C -0.18689 0.53834 0.94690
 C544 C -0.15899 0.53672 0.91124
 C545 C -0.16550 0.50435 0.87807
 C546 C -0.20383 0.47525 0.87890
 C547 C -0.27692 0.45341 0.90987
 C548 C -0.28521 0.42341 0.87471
 C549 C -0.25293 0.41833 0.84219
 C550 C -0.21302 0.44446 0.84375
 H551 H -0.30551 0.45736 0.93160
 H552 H -0.31740 0.40444 0.87241
 H553 H -0.25971 0.39510 0.81489
 H554 H -0.19002 0.44100 0.81667
 H555 H -0.17815 0.56303 0.97209
 H556 H -0.13062 0.56011 0.91035
 C557 C 0.44630 0.05603 0.29984
 C558 C 0.44794 0.02013 0.26696
 C559 C 0.40422 -0.00157 0.25723
 C560 C 0.36711 0.00158 0.28550
 C561 C 0.36987 0.02983 0.32251
 C562 C 0.40650 0.06091 0.32704
 C563 C 0.48414 0.08550 0.30853
 C564 C 0.48168 0.11977 0.34061
 C565 C 0.44172 0.12547 0.36541
 C566 C 0.40447 0.09628 0.35892
 H567 H 0.51638 0.08264 0.29151
 H568 H 0.51108 0.14201 0.34625
 H569 H 0.43978 0.15235 0.39005
 H570 H 0.37376 0.10180 0.37875
 H571 H 0.39906 -0.02406 0.22928
 H572 H 0.33759 -0.02054 0.27980
 C573 C 0.15514 0.48037 0.96513
 C574 C 0.20757 0.48147 0.96369
 C575 C 0.22626 0.47480 0.92211
 C576 C 0.19719 0.47688 0.88400
 C577 C 0.14750 0.48368 0.88528
 C578 C 0.12583 0.48285 0.92539
 C579 C 0.12977 0.47505 1.00324
 C580 C 0.07971 0.47658 1.00300
 C581 C 0.05229 0.48078 0.96458
 C582 C 0.07489 0.48276 0.92608
 H583 H 0.14628 0.46726 1.03420
 H584 H 0.06217 0.47313 1.03293
 H585 H 0.01337 0.48094 0.96436
 H586 H 0.05169 0.48298 0.89676
 H587 H 0.26481 0.47192 0.91876
 H588 H 0.21394 0.47523 0.85319
 C589 C 0.58202 -0.03424 0.25835
 C590 C 0.53704 -0.01375 0.27284
 C591 C 0.53095 -0.01428 0.31815
 C592 C 0.56709 -0.02891 0.34769
 C593 C 0.61170 -0.04480 0.33429
 C594 C 0.61909 -0.04947 0.28952
 C595 C 0.59290 -0.03744 0.21413
 C596 C 0.63676 -0.05658 0.20099
 C597 C 0.67164 -0.07244 0.23144
 C598 C 0.66320 -0.06863 0.27535
 H599 H 0.56934 -0.02314 0.18910
 H600 H 0.64403 -0.05842 0.16693
 H601 H 0.70567 -0.08718 0.22102
 H602 H 0.69136 -0.08108 0.29818
 H603 H 0.49762 -0.00440 0.33248
 H604 H 0.56058 -0.02601 0.38196
 C605 C 0.84318 0.48993 0.03509
 C606 C 0.79351 0.50733 0.03652
 C607 C 0.77750 0.51996 0.07809
 C608 C 0.80913 0.52523 0.11425
 C609 C 0.85844 0.51605 0.11145
 C610 C 0.87570 0.49628 0.07246
 C611 C 0.86164 0.46414 -0.00058
 C612 C 0.90996 0.44939 -0.00129
 C613 C 0.94136 0.45779 0.03416
 C614 C 0.92447 0.48026 0.07093
 H615 H 0.83987 0.45279 -0.02814
 H616 H 0.92286 0.43030 -0.02927
 H617 H 0.97863 0.44538 0.03378
 H618 H 0.94991 0.48346 0.09855
 H619 H 0.74015 0.52912 0.08246
 H620 H 0.79496 0.53788 0.14458
 C621 C 0.45171 0.03293 0.67888
 C622 C 0.45702 -0.00385 0.70833
 C623 C 0.42343 -0.03794 0.70182
 C624 C 0.38861 -0.03780 0.66771
 C625 C 0.38547 -0.00405 0.63778
 C626 C 0.41730 0.03135 0.64267
 C627 C 0.47956 0.07147 0.68401
 C628 C 0.47655 0.10476 0.65350
 C629 C 0.44551 0.10113 0.61695
 C630 C 0.41605 0.06495 0.61148
 H631 H 0.50353 0.07765 0.71162
 H632 H 0.49868 0.13354 0.65824
 H633 H 0.44382 0.12673 0.59297
 H634 H 0.39252 0.06361 0.58238
 H635 H 0.42418 -0.06663 0.72192
 H636 H 0.36427 -0.06505 0.66414
   
