data_POSCAR
  _audit_creation_date              2014-09-24
  _audit_creation_method            'ToBaCCo'
  _symmetry_space_group_name_H-M    'P1'
  _symmetry_Int_Tables_number       1
  _symmetry_cell_setting            triclinic
  loop_
  _symmetry_equiv_pos_as_xyz
 x,y,z
_cell_length_a 25.3873
_cell_length_b 34.9325
_cell_length_c 29.2493
_cell_angle_alpha 89.990900
_cell_angle_beta 88.611500
_cell_angle_gamma 90.452100
loop_
  _atom_site_label
  _atom_site_type_symbol
  _atom_site_fract_x
  _atom_site_fract_y
  _atom_site_fract_z
C1 C 0.27999 0.28857 0.21820
 C2 C 0.25335 0.26822 0.25305
 C3 C 0.22578 0.28779 0.28773
 C4 C 0.22377 0.32803 0.28764
 C5 C 0.25165 0.34799 0.25281
 C6 C 0.28011 0.32884 0.21794
 C7 C 0.25468 0.22609 0.25337
 C8 C 0.28369 0.20692 0.28626
 C9 C 0.28539 0.16668 0.28696
 C10 C 0.25844 0.14623 0.25305
 C11 C 0.22987 0.16510 0.21915
 C12 C 0.22756 0.20528 0.22041
 H13 H 0.30081 0.27235 0.19226
 H14 H 0.20605 0.27101 0.31400
 H15 H 0.30570 0.22392 0.31010
 H16 H 0.20429 0.22058 0.19590
 H17 H 0.25110 0.37902 0.25278
 H18 H 0.25964 0.11538 0.25393
 C19 C 0.77774 0.79054 0.21096
 C20 C 0.75153 0.76964 0.24554
 C21 C 0.72355 0.78857 0.28046
 C22 C 0.72025 0.82882 0.28090
 C23 C 0.74854 0.84935 0.24661
 C24 C 0.77690 0.83090 0.21093
 C25 C 0.75417 0.72753 0.24566
 C26 C 0.78334 0.70870 0.27874
 C27 C 0.78565 0.66847 0.27960
 C28 C 0.75887 0.64771 0.24588
 C29 C 0.73017 0.66621 0.21178
 C30 C 0.72746 0.70639 0.21272
 H31 H 0.79988 0.77457 0.18562
 H32 H 0.70539 0.77119 0.30702
 H33 H 0.80468 0.72597 0.30274
 H34 H 0.70392 0.72141 0.18817
 H35 H 0.74862 0.88039 0.24779
 H36 H 0.76012 0.61686 0.24717
 C37 C 0.76757 0.28744 0.71502
 C38 C 0.74142 0.26782 0.75071
 C39 C 0.71345 0.28808 0.78461
 C40 C 0.71000 0.32834 0.78266
 C41 C 0.73827 0.34751 0.74723
 C42 C 0.76705 0.32764 0.71317
 C43 C 0.74414 0.22575 0.75280
 C44 C 0.77369 0.20798 0.78646
 C45 C 0.77726 0.16773 0.78847
 C46 C 0.75205 0.14609 0.75438
 C47 C 0.72298 0.16359 0.71979
 C48 C 0.71852 0.20364 0.72014
 H49 H 0.78917 0.27074 0.69002
 H50 H 0.69532 0.27179 0.81216
 H51 H 0.79494 0.22615 0.80964
 H52 H 0.69501 0.21784 0.69488
 H53 H 0.73827 0.37854 0.74625
 H54 H 0.75510 0.11534 0.75545
 C55 C 0.27689 0.78838 0.71832
 C56 C 0.24843 0.76893 0.75283
 C57 C 0.22210 0.78936 0.78747
 C58 C 0.22295 0.82962 0.78758
 C59 C 0.25238 0.84869 0.75295
 C60 C 0.28083 0.82867 0.71859
 C61 C 0.24554 0.72682 0.75232
 C62 C 0.27250 0.70567 0.78480
 C63 C 0.26919 0.66548 0.78562
 C64 C 0.23972 0.64698 0.75177
 C65 C 0.21274 0.66778 0.71844
 C66 C 0.21560 0.70801 0.71951
 H67 H 0.29511 0.77136 0.69166
 H68 H 0.20039 0.77322 0.81315
 H69 H 0.29654 0.72070 0.80921
 H70 H 0.19401 0.72530 0.69593
 H71 H 0.25300 0.87973 0.75277
 H72 H 0.23791 0.61613 0.75040
 C73 C 0.07321 0.06477 0.01937
 H74 H 0.07441 0.06785 -0.01745
 C75 C 0.10448 0.08846 0.04624
 H76 H 0.12998 0.10896 0.02902
 C77 C 0.03939 0.03273 0.08520
 H78 H 0.01391 0.01111 0.10040
 C79 C 0.07010 0.05561 0.11330
 H80 H 0.06841 0.05079 0.14989
 N81 N 0.04200 0.03727 0.03907
 C82 C 0.02418 -0.05464 -0.06024
 H83 H -0.01827 -0.05770 -0.05996
 C84 C 0.05532 -0.07866 -0.08754
 H85 H 0.03641 -0.10016 -0.10833
 C86 C 0.10007 -0.02290 -0.03336
 H87 H 0.11747 -0.00138 -0.01184
 C88 C 0.13276 -0.04627 -0.06022
 H89 H 0.17464 -0.04160 -0.05847
 Zn90 Zn 0.00184 0.00540 0.00051
 N91 N 0.04682 -0.02694 -0.03450
 C92 C -0.03342 0.03275 -0.08464
 N93 N -0.03687 0.03744 -0.03855
 C94 C -0.06752 0.06522 -0.01952
 C95 C -0.09682 0.08932 -0.04713
 C96 C -0.06218 0.05604 -0.11346
 C97 C -0.02240 -0.05419 0.06156
 C98 C -0.05420 -0.07803 0.08899
 C99 C -0.13068 -0.04508 0.06205
 C100 C -0.09735 -0.02194 0.03498
 N101 N -0.04423 -0.02632 0.03593
 H102 H -0.00880 0.01067 -0.09930
 H103 H -0.06971 0.06829 0.01729
 H104 H -0.12240 0.11017 -0.03092
 H105 H -0.06031 0.05035 -0.14979
 H106 H 0.01992 -0.05764 0.06096
 H107 H -0.03592 -0.09987 0.10942
 H108 H -0.17249 -0.04060 0.05996
 H109 H -0.11413 -0.00044 0.01331
 C110 C 0.11053 -0.07449 -0.08843
 C111 C 0.10314 0.08423 0.09415
 C112 C -0.10922 -0.07326 0.09043
 C113 C -0.09359 0.08557 -0.09504
 C114 C 0.06646 0.55863 0.52308
 H115 H 0.07163 0.56152 0.48641
 C116 C 0.09433 0.58261 0.55228
 H117 H 0.12164 0.60346 0.53765
 C118 C 0.02579 0.52703 0.58637
 H119 H -0.00093 0.50536 0.59971
 C120 C 0.05289 0.55028 0.61676
 H121 H 0.04753 0.54471 0.65288
 N122 N 0.03325 0.53130 0.54048
 C123 C 0.02135 0.43952 0.44026
 H124 H -0.02104 0.43627 0.43966
 C125 C 0.05336 0.41587 0.41334
 H126 H 0.03518 0.39442 0.39198
 C127 C 0.09616 0.47169 0.46864
 H128 H 0.11272 0.49334 0.49048
 C129 C 0.12974 0.44868 0.44211
 H130 H 0.17151 0.45371 0.44439
 Zn131 Zn -0.00388 0.49941 0.49969
 N132 N 0.04303 0.46730 0.46648
 C133 C -0.03266 0.52703 0.41292
 N134 N -0.04025 0.53129 0.45879
 C135 C -0.07283 0.55870 0.47605
 C136 C -0.09984 0.58282 0.44672
 C137 C -0.05893 0.55040 0.38242
 C138 C -0.03014 0.43941 0.55896
 C139 C -0.06244 0.41573 0.58604
 C140 C -0.13833 0.44883 0.55811
 C141 C -0.10445 0.47184 0.53136
 N142 N -0.05140 0.46733 0.53304
 H143 H -0.00643 0.50533 0.39968
 H144 H -0.07810 0.56160 0.51270
 H145 H -0.12662 0.60375 0.46123
 H146 H -0.05352 0.54484 0.34632
 H147 H 0.01218 0.43607 0.55918
 H148 H -0.04456 0.39413 0.60710
 H149 H -0.18001 0.45389 0.55616
 H150 H -0.12070 0.49361 0.50974
 C151 C 0.10847 0.42051 0.41327
 C152 C 0.08709 0.57923 0.59999
 C153 C -0.11743 0.42054 0.58669
 C154 C -0.09236 0.57948 0.39904
 C155 C 0.57543 0.05697 0.51913
 H156 H 0.57748 0.05942 0.48225
 C157 C 0.60565 0.08143 0.54599
 H158 H 0.63134 0.10180 0.52875
 C159 C 0.54010 0.02609 0.58518
 H160 H 0.51425 0.00478 0.60052
 C161 C 0.56977 0.04970 0.61326
 H162 H 0.56701 0.04565 0.64995
 N163 N 0.54389 0.02974 0.53896
 C164 C 0.52530 -0.06259 0.44028
 H165 H 0.48282 -0.06541 0.44104
 C166 C 0.55569 -0.08640 0.41214
 H167 H 0.53612 -0.10738 0.39106
 C168 C 0.60192 -0.03102 0.46597
 H169 H 0.61981 -0.00932 0.48696
 C170 C 0.63391 -0.05426 0.43829
 H171 H 0.67580 -0.04903 0.43829
 Zn172 Zn 0.50392 -0.00252 0.50068
 N173 N 0.54863 -0.03507 0.46581
 C174 C 0.47026 0.02490 0.41516
 N175 N 0.46533 0.02921 0.46123
 C176 C 0.43393 0.05673 0.47985
 C177 C 0.40555 0.08104 0.45177
 C178 C 0.44253 0.04844 0.38588
 C179 C 0.48042 -0.06113 0.56293
 C180 C 0.44909 -0.08469 0.59105
 C181 C 0.37196 -0.05319 0.56306
 C182 C 0.40487 -0.03018 0.53544
 N183 N 0.45806 -0.03409 0.53643
 H184 H 0.49556 0.00308 0.40082
 H185 H 0.43069 0.05960 0.51664
 H186 H 0.37964 0.10196 0.46748
 H187 H 0.44578 0.04300 0.34956
 H188 H 0.52284 -0.06393 0.56272
 H189 H 0.46786 -0.10543 0.61270
 H190 H 0.33016 -0.04824 0.56211
 H191 H 0.38775 -0.00893 0.51362
 C192 C 0.61092 -0.08251 0.41057
 C193 C 0.60287 0.07821 0.59400
 C194 C 0.39391 -0.08104 0.59162
 C195 C 0.41054 0.07780 0.40388
 C196 C 0.57070 0.56310 0.01555
 H197 H 0.57078 0.56603 -0.02128
 C198 C 0.60254 0.58709 0.04158
 H199 H 0.62737 0.60764 0.02372
 C200 C 0.53892 0.53132 0.08227
 H201 H 0.51393 0.50977 0.09819
 C202 C 0.57028 0.55446 0.10953
 H203 H 0.56959 0.54986 0.14616
 N204 N 0.54013 0.53564 0.03609
 C205 C 0.51737 0.44377 -0.06258
 H206 H 0.47486 0.44125 -0.06130
 C207 C 0.54708 0.41920 -0.09036
 H208 H 0.52696 0.39802 -0.11075
 C209 C 0.59482 0.47485 -0.03795
 H210 H 0.61336 0.49651 -0.01733
 C211 C 0.62612 0.45089 -0.06530
 H212 H 0.66811 0.45564 -0.06549
 Zn213 Zn 0.49827 0.50378 -0.00117
 N214 N 0.54147 0.47128 -0.03756
 C215 C 0.45842 0.53120 -0.08484
 N216 N 0.45765 0.53579 -0.03870
 C217 C 0.42815 0.56354 -0.01827
 C218 C 0.39674 0.58745 -0.04432
 C219 C 0.42749 0.55429 -0.11213
 C220 C 0.47657 0.44441 0.06086
 C221 C 0.44582 0.42048 0.08904
 C222 C 0.36818 0.45300 0.06379
 C223 C 0.40049 0.47628 0.03602
 N224 N 0.45368 0.47207 0.03563
 H225 H 0.48264 0.50942 -0.10067
 H226 H 0.42846 0.56670 0.01852
 H227 H 0.37272 0.60821 -0.02647
 H228 H 0.42776 0.54948 -0.14872
 H229 H 0.51894 0.44125 0.05940
 H230 H 0.46495 0.39899 0.10938
 H231 H 0.32636 0.45788 0.06338
 H232 H 0.38286 0.49783 0.01495
 C233 C 0.60239 0.42235 -0.09213
 C234 C 0.60245 0.58318 0.08952
 C235 C 0.39071 0.42463 0.09125
 C236 C 0.39615 0.58315 -0.09219
 C237 C 0.19276 -0.14628 -0.17714
 C238 C 0.22918 -0.11900 -0.15108
 C239 C 0.20366 -0.09492 -0.12160
 C240 C 0.14314 -0.10018 -0.12023
 C241 C 0.12733 -0.09588 -0.17037
 C242 C 0.15275 -0.11994 -0.19979
 C243 C 0.16046 -0.16702 -0.13897
 C244 C 0.13487 -0.14293 -0.10951
 H245 H 0.27181 -0.11894 -0.15514
 H246 H 0.22572 -0.07478 -0.10137
 H247 H 0.09840 -0.07549 -0.18183
 H248 H 0.14506 -0.12018 -0.23615
 H249 H 0.15791 -0.19765 -0.13398
 H250 H 0.11143 -0.15341 -0.08053
 C251 C 0.19273 0.35115 0.32328
 C252 C 0.22850 0.37794 0.35067
 C253 C 0.20232 0.40117 0.38072
 C254 C 0.14187 0.39567 0.38116
 C255 C 0.12681 0.40111 0.33098
 C256 C 0.15283 0.37785 0.30105
 C257 C 0.15991 0.32937 0.36026
 C258 C 0.13376 0.35264 0.39030
 H259 H 0.27117 0.37823 0.34713
 H260 H 0.22385 0.42077 0.40209
 H261 H 0.09785 0.42162 0.31988
 H262 H 0.14557 0.37837 0.26463
 H263 H 0.15647 0.29861 0.36343
 H264 H 0.10940 0.34137 0.41828
 C265 C 0.69124 -0.15003 0.31579
 C266 C 0.72831 -0.12753 0.34701
 C267 C 0.70332 -0.10533 0.37885
 C268 C 0.64265 -0.10716 0.37699
 C269 C 0.63019 -0.09720 0.32725
 C270 C 0.65489 -0.11958 0.29555
 C271 C 0.65437 -0.17250 0.34937
 C272 C 0.62972 -0.15013 0.38131
 H273 H 0.77093 -0.13011 0.34544
 H274 H 0.72564 -0.09010 0.40422
 H275 H 0.60335 -0.07466 0.31775
 H276 H 0.64843 -0.11621 0.25921
 H277 H 0.64522 -0.20276 0.34765
 H278 H 0.60213 -0.16192 0.40663
 C279 C 0.68128 0.35091 -0.18360
 C280 C 0.64417 0.32992 -0.14889
 C281 C 0.61993 0.35360 -0.11808
 C282 C 0.63354 0.39630 -0.12458
 C283 C 0.69425 0.39771 -0.12293
 C284 C 0.71878 0.37421 -0.15363
 C285 C 0.64533 0.38089 -0.20532
 C286 C 0.62109 0.40458 -0.17475
 H287 H 0.63459 0.29968 -0.14915
 H288 H 0.59216 0.34294 -0.09220
 H289 H 0.71696 0.41367 -0.09847
 H290 H 0.76135 0.37128 -0.15515
 H291 H 0.63874 0.38297 -0.24179
 H292 H 0.59454 0.42695 -0.18534
 C293 C -0.18974 0.14829 -0.17924
 C294 C -0.13781 0.13553 -0.20243
 C295 C -0.10548 0.11582 -0.17479
 C296 C -0.12777 0.10969 -0.12586
 C297 C -0.13960 0.15063 -0.10898
 C298 C -0.17236 0.17063 -0.13635
 C299 C -0.21465 0.11137 -0.15904
 C300 C -0.18224 0.09125 -0.13181
 H301 H -0.12614 0.14316 -0.23725
 H302 H -0.06616 0.10772 -0.18622
 H303 H -0.12409 0.16301 -0.07802
 H304 H -0.18603 0.19879 -0.12642
 H305 H -0.25514 0.10247 -0.16420
 H306 H -0.19498 0.06514 -0.11454
 C307 C -0.18120 0.64652 0.31352
 C308 C -0.15831 0.66863 0.35441
 C309 C -0.12792 0.64682 0.38187
 C310 C -0.12351 0.60464 0.36694
 C311 C -0.18081 0.59074 0.36349
 C312 C -0.21088 0.61258 0.33604
 C313 C -0.13284 0.62876 0.28946
 C314 C -0.10261 0.60725 0.31706
 H315 H -0.16615 0.69824 0.36279
 H316 H -0.10917 0.65860 0.41177
 H317 H -0.19673 0.56611 0.38194
 H318 H -0.25248 0.60666 0.33157
 H319 H -0.12151 0.63461 0.25409
 H320 H -0.06511 0.59620 0.30477
 C321 C 0.31900 0.14460 0.32037
 C322 C 0.36862 0.12885 0.29619
 C323 C 0.39965 0.10758 0.32335
 C324 C 0.37822 0.10308 0.37285
 C325 C 0.37127 0.14470 0.38931
 C326 C 0.34001 0.16627 0.36234
 C327 C 0.29090 0.10930 0.34133
 C328 C 0.32180 0.08765 0.36828
 H329 H 0.37999 0.13578 0.26110
 H330 H 0.43781 0.09764 0.31115
 H331 H 0.38905 0.15635 0.41973
 H332 H 0.33015 0.19536 0.37175
 H333 H 0.24965 0.10242 0.33641
 H334 H 0.30697 0.06221 0.38581
 C335 C 0.30126 0.64310 -0.18008
 C336 C 0.30089 0.66023 -0.13151
 C337 C 0.33232 0.64158 -0.10177
 C338 C 0.36103 0.60670 -0.12287
 C339 C 0.31664 0.58206 -0.14259
 C340 C 0.28530 0.60087 -0.17202
 C341 C 0.35976 0.64199 -0.19461
 C342 C 0.39084 0.62332 -0.16487
 H343 H 0.27788 0.68496 -0.12122
 H344 H 0.33650 0.65186 -0.06714
 H345 H 0.30846 0.55279 -0.13193
 H346 H 0.24993 0.58739 -0.18463
 H347 H 0.37560 0.65539 -0.22555
 H348 H 0.43315 0.62116 -0.17039
 C349 C -0.19423 -0.14576 0.17768
 C350 C -0.14991 -0.12272 0.20020
 C351 C -0.12354 -0.09829 0.17152
 C352 C -0.14265 -0.09895 0.12205
 C353 C -0.14003 -0.14123 0.10775
 C354 C -0.16684 -0.16567 0.13631
 C355 C -0.22892 -0.11530 0.15534
 C356 C -0.20226 -0.09076 0.12679
 H357 H -0.14022 -0.12525 0.23604
 H358 H -0.09191 -0.07989 0.18315
 H359 H -0.12072 -0.15093 0.07636
 H360 H -0.17039 -0.19561 0.12739
 H361 H -0.27113 -0.11306 0.16161
 H362 H -0.22267 -0.06768 0.11032
 C363 C -0.20227 0.35091 0.67709
 C364 C -0.16088 0.37702 0.69897
 C365 C -0.13465 0.40038 0.66897
 C366 C -0.15107 0.39566 0.61902
 C367 C -0.14489 0.35269 0.60903
 C368 C -0.17135 0.32930 0.63908
 C369 C -0.23770 0.37832 0.65073
 C370 C -0.21132 0.40172 0.62063
 H371 H -0.15293 0.37717 0.73528
 H372 H -0.10477 0.42059 0.67989
 H373 H -0.12255 0.34158 0.57990
 H374 H -0.17091 0.29861 0.63429
 H375 H -0.28029 0.37894 0.65502
 H376 H -0.23255 0.42188 0.60010
 C377 C 0.31075 -0.14967 0.68443
 C378 C 0.34747 -0.11951 0.70563
 C379 C 0.37309 -0.09670 0.67460
 C380 C 0.36110 -0.10597 0.62453
 C381 C 0.37313 -0.14888 0.61953
 C382 C 0.34757 -0.17168 0.65078
 C383 C 0.27462 -0.12670 0.65328
 C384 C 0.30051 -0.10405 0.62214
 H385 H 0.35347 -0.11664 0.74211
 H386 H 0.40025 -0.07428 0.68480
 H387 H 0.40084 -0.16032 0.59430
 H388 H 0.35608 -0.20195 0.65202
 H389 H 0.23192 -0.12914 0.65452
 H390 H 0.27882 -0.08821 0.59710
 C391 C 0.30987 0.35286 0.18200
 C392 C 0.35015 0.37999 0.20374
 C393 C 0.37512 0.40399 0.17363
 C394 C 0.35860 0.39887 0.12377
 C395 C 0.36681 0.35609 0.11374
 C396 C 0.34174 0.33205 0.14392
 C397 C 0.27302 0.37933 0.15582
 C398 C 0.29808 0.40333 0.12562
 H399 H 0.35841 0.38026 0.23999
 H400 H 0.40424 0.42485 0.18438
 H401 H 0.39003 0.34553 0.08480
 H402 H 0.34463 0.30139 0.13970
 H403 H 0.23042 0.37871 0.16010
 H404 H 0.27564 0.42257 0.10482
 C405 C 0.19785 0.14311 0.18414
 C406 C 0.13908 0.14207 0.19784
 C407 C 0.10805 0.12377 0.16744
 C408 C 0.13819 0.10741 0.12567
 C409 C 0.16822 0.14238 0.10537
 C410 C 0.19959 0.16065 0.13576
 C411 C 0.21279 0.10090 0.17582
 C412 C 0.18149 0.08245 0.14574
 H413 H 0.12303 0.15529 0.22871
 H414 H 0.06560 0.12176 0.17232
 H415 H 0.16476 0.15305 0.07084
 H416 H 0.22336 0.18546 0.12610
 H417 H 0.24754 0.08718 0.18872
 H418 H 0.18906 0.05325 0.13484
 C419 C 0.17866 0.64590 0.68484
 C420 C 0.13015 0.62816 0.70932
 C421 C 0.09903 0.60676 0.68197
 C422 C 0.11924 0.60423 0.63190
 C423 C 0.12452 0.64643 0.61701
 C424 C 0.15582 0.66812 0.64421
 C425 C 0.20722 0.61194 0.66199
 C426 C 0.17626 0.59022 0.63478
 H427 H 0.11943 0.63393 0.74480
 H428 H 0.06142 0.59572 0.69460
 H429 H 0.10576 0.65829 0.58728
 H430 H 0.16443 0.69771 0.63574
 H431 H 0.24874 0.60595 0.66605
 H432 H 0.19133 0.56560 0.61614
 C433 C 0.69289 0.14028 0.68464
 C434 C 0.69596 0.15678 0.63577
 C435 C 0.66617 0.13743 0.60508
 C436 C 0.63625 0.10253 0.62568
 C437 C 0.67933 0.07859 0.64769
 C438 C 0.70908 0.09809 0.67804
 C439 C 0.63371 0.13874 0.69678
 C440 C 0.60426 0.11940 0.66611
 H441 H 0.71939 0.18173 0.62603
 H442 H 0.66370 0.14729 0.57013
 H443 H 0.68802 0.04930 0.63785
 H444 H 0.74371 0.08508 0.69212
 H445 H 0.61625 0.15239 0.72680
 H446 H 0.56173 0.11695 0.66989
 C447 C 0.69791 0.64375 0.17736
 C448 C 0.63945 0.64211 0.19202
 C449 C 0.60817 0.62326 0.16230
 C450 C 0.63777 0.60696 0.12020
 C451 C 0.66659 0.64215 0.09912
 C452 C 0.69822 0.66100 0.12884
 C453 C 0.71363 0.60168 0.16914
 C454 C 0.68207 0.58265 0.13975
 H455 H 0.62377 0.65535 0.22300
 H456 H 0.56585 0.62082 0.16787
 H457 H 0.66220 0.65249 0.06456
 H458 H 0.72128 0.68599 0.11859
 H459 H 0.74899 0.58849 0.18161
 H460 H 0.69006 0.55348 0.12898
   
