data_POSCAR
  _audit_creation_date              2014-09-24
  _audit_creation_method            'ToBaCCo'
  _symmetry_space_group_name_H-M    'P1'
  _symmetry_Int_Tables_number       1
  _symmetry_cell_setting            triclinic
  loop_
  _symmetry_equiv_pos_as_xyz
 x,y,z
_cell_length_a 37.1627
_cell_length_b 37.1463
_cell_length_c 23.1602
_cell_angle_alpha 89.841200
_cell_angle_beta 90.000400
_cell_angle_gamma 92.001300
loop_
  _atom_site_label
  _atom_site_type_symbol
  _atom_site_fract_x
  _atom_site_fract_y
  _atom_site_fract_z
O1 O -0.04121 0.29350 0.02220
 O2 O 0.03689 0.28141 -0.07449
 O3 O -0.03375 0.28511 -0.08826
 O4 O 0.02947 0.28689 0.03597
 O5 O 0.02117 0.22801 0.04414
 O6 O -0.03926 0.22588 -0.08008
 O7 O 0.02810 0.22256 -0.06740
 O8 O -0.04860 0.23426 0.02745
 Cu9 Cu -0.00142 0.29278 -0.02670
 Cu10 Cu -0.01005 0.22184 -0.01708
 C11 C -0.05901 0.26558 0.03885
 C12 C 0.04578 0.24967 -0.08740
 C13 C -0.04744 0.25494 -0.10482
 C14 C 0.03682 0.25722 0.06003
 O15 O 0.46678 0.78242 0.56640
 O16 O 0.54542 0.78797 0.46706
 O17 O 0.47418 0.78584 0.45521
 O18 O 0.53791 0.78152 0.57828
 O19 O 0.53422 0.72222 0.57279
 O20 O 0.47547 0.72670 0.44672
 O21 O 0.54382 0.72860 0.46181
 O22 O 0.46449 0.72337 0.55466
 Cu23 Cu 0.50633 0.79048 0.51755
 Cu24 Cu 0.50471 0.71934 0.50900
 C25 C 0.45126 0.75180 0.57463
 C26 C 0.55806 0.75894 0.44798
 C27 C 0.46351 0.75668 0.43076
 C28 C 0.54717 0.75074 0.59593
 O29 O 1.04442 0.72058 0.07299
 O30 O 0.96582 0.70808 -0.02543
 O31 O 1.03858 0.71252 -0.03911
 O32 O 0.97462 0.71927 0.08328
 O33 O 0.97929 0.77844 0.07440
 O34 O 1.03032 0.76953 -0.05979
 O35 O 0.96258 0.76728 -0.03093
 O36 O 1.04751 0.77761 0.04651
 Cu37 Cu 1.00618 0.70887 0.02318
 Cu38 Cu 1.00495 0.77899 0.00618
 C39 C 1.06059 0.75133 0.07362
 C40 C 0.94936 0.73600 -0.04072
 C41 C 1.04601 0.74039 -0.06969
 C42 C 0.96622 0.75056 0.09967
 O43 O 0.53051 0.21296 0.53281
 O44 O 0.45493 0.21831 0.42862
 O45 O 0.52632 0.21765 0.42109
 O46 O 0.45969 0.21420 0.54032
 O47 O 0.46316 0.27357 0.54488
 O48 O 0.52848 0.27698 0.42725
 O49 O 0.45915 0.27765 0.43381
 O50 O 0.53208 0.27234 0.53863
 Cu51 Cu 0.49255 0.20970 0.47996
 Cu52 Cu 0.49606 0.28099 0.48655
 C53 C 0.54401 0.24210 0.55344
 C54 C 0.44401 0.24913 0.41410
 C55 C 0.53911 0.24818 0.40463
 C56 C 0.44986 0.24360 0.56242
 O57 O 0.72608 0.03404 -0.05246
 O58 O 0.73272 -0.03727 0.05924
 O59 O 0.72766 0.03383 0.05997
 O60 O 0.73042 -0.03696 -0.05208
 O61 O 0.78975 -0.03190 -0.05185
 O62 O 0.78685 0.04021 0.05499
 O63 O 0.79168 -0.02840 0.05953
 O64 O 0.78545 0.03751 -0.05677
 Cu65 Cu 0.72315 -0.00207 0.00393
 Cu66 Cu 0.79428 0.00502 0.00103
 C67 C 0.75500 0.04777 -0.07366
 C68 C 0.76365 -0.04507 0.07827
 C69 C 0.75700 0.04941 0.07589
 C70 C 0.76080 -0.04726 -0.06963
 O71 O 0.22030 0.53913 0.45121
 O72 O 0.21731 0.45788 0.54575
 O73 O 0.22056 0.52886 0.56285
 O74 O 0.21850 0.46835 0.43560
 O75 O 0.27795 0.47052 0.43380
 O76 O 0.27979 0.52679 0.56354
 O77 O 0.27667 0.45713 0.54083
 O78 O 0.27967 0.53849 0.45217
 Cu79 Cu 0.21314 0.49881 0.49918
 Cu80 Cu 0.28442 0.49864 0.49846
 C81 C 0.25077 0.55248 0.43560
 C82 C 0.24674 0.44262 0.55603
 C83 C 0.25085 0.53847 0.58440
 C84 C 0.24807 0.45855 0.41389
 O85 O 0.27409 1.04193 0.05035
 O86 O 0.28064 0.96114 -0.04395
 O87 O 0.27608 1.03211 -0.05934
 O88 O 0.28160 0.97198 0.06803
 O89 O 0.22234 0.96532 0.06796
 O90 O 0.21702 1.02427 -0.05859
 O91 O 0.22132 0.95556 -0.04338
 O92 O 0.21516 1.03292 0.05205
 Cu93 Cu 0.28417 1.00221 0.00365
 Cu94 Cu 0.21322 0.99362 0.00439
 C95 C 0.24305 1.05134 0.06671
 C96 C 0.25162 0.94477 -0.05979
 C97 C 0.24534 1.03943 -0.07952
 C98 C 0.25271 0.95860 0.08980
 O99 O 0.77697 0.53720 0.55918
 O100 O 0.77706 0.46633 0.44683
 O101 O 0.77897 0.53774 0.44735
 O102 O 0.77513 0.46608 0.55883
 O103 O 0.71575 0.46604 0.55550
 O104 O 0.71955 0.53670 0.44538
 O105 O 0.71770 0.46715 0.44397
 O106 O 0.71752 0.53533 0.55675
 Cu107 Cu 0.78312 0.50187 0.50322
 Cu108 Cu 0.71176 0.50124 0.50003
 C109 C 0.74693 0.54837 0.57673
 C110 C 0.74707 0.45452 0.42677
 C111 C 0.74967 0.54986 0.42826
 C112 C 0.74457 0.45363 0.57562
 C113 C 0.17945 0.19836 0.15724
 C114 C 0.21420 0.18689 0.16889
 C115 C 0.23838 0.21034 0.19820
 C116 C 0.22758 0.24422 0.21920
 C117 C 0.19154 0.25387 0.20876
 C118 C 0.16781 0.23145 0.17705
 C119 C 0.25357 0.26924 0.25141
 C120 C 0.24564 0.30587 0.26096
 C121 C 0.26930 0.32896 0.29173
 C122 C 0.30213 0.31609 0.31081
 C123 C 0.31146 0.28051 0.30090
 C124 C 0.28674 0.25699 0.27306
 H125 H 0.16139 0.18173 0.13103
 H126 H 0.26541 0.20154 0.20424
 H127 H 0.18100 0.27845 0.22534
 H128 H 0.22144 0.31734 0.24451
 H129 H 0.32011 0.33362 0.33572
 H130 H 0.29409 0.22934 0.26877
 C131 C 0.82717 0.81677 0.19699
 C132 C 0.79224 0.82847 0.20649
 C133 C 0.76776 0.80592 0.23706
 C134 C 0.77836 0.77272 0.26077
 C135 C 0.81458 0.76292 0.25296
 C136 C 0.83868 0.78430 0.21993
 C137 C 0.75159 0.74785 0.29129
 C138 C 0.75822 0.71069 0.29734
 C139 C 0.73344 0.68719 0.32499
 C140 C 0.70083 0.70032 0.34428
 C141 C 0.69277 0.73655 0.33755
 C142 C 0.71866 0.76049 0.31322
 H143 H 0.84528 0.83241 0.16928
 H144 H 0.74047 0.81444 0.24137
 H145 H 0.82464 0.73873 0.27210
 H146 H 0.78218 0.69920 0.27993
 H147 H 0.68178 0.68232 0.36639
 H148 H 0.71247 0.78863 0.31127
 C149 C 0.80241 0.20281 0.15290
 C150 C 0.80937 0.23988 0.15664
 C151 C 0.78631 0.26109 0.18864
 C152 C 0.75624 0.24527 0.21786
 C153 C 0.74993 0.20756 0.21361
 C154 C 0.77269 0.18643 0.18061
 C155 C 0.73113 0.26819 0.25098
 C156 C 0.69466 0.25717 0.25918
 C157 C 0.67112 0.27884 0.28970
 C158 C 0.68373 0.31230 0.31036
 C159 C 0.71949 0.32418 0.30216
 C160 C 0.74331 0.30164 0.27409
 H161 H 0.81986 0.18669 0.12670
 H162 H 0.79135 0.28993 0.18848
 H163 H 0.72766 0.19422 0.23597
 H164 H 0.68401 0.23213 0.24137
 H165 H 0.66585 0.32876 0.33516
 H166 H 0.77122 0.31054 0.27036
 C167 C 0.19914 0.82172 0.20121
 C168 C 0.19073 0.78475 0.19701
 C169 C 0.21428 0.76035 0.22218
 C170 C 0.24603 0.77276 0.25089
 C171 C 0.25458 0.81022 0.25068
 C172 C 0.23185 0.83451 0.22412
 C173 C 0.27084 0.74678 0.27878
 C174 C 0.30779 0.75608 0.28653
 C175 C 0.33080 0.73271 0.31469
 C176 C 0.31736 0.69891 0.33278
 C177 C 0.28121 0.68831 0.32434
 C178 C 0.25784 0.71267 0.29881
 H179 H 0.18115 0.84090 0.18270
 H180 H 0.20853 0.73181 0.21713
 H181 H 0.27886 0.82111 0.27064
 H182 H 0.31928 0.78129 0.27057
 H183 H 0.33494 0.68115 0.35580
 H184 H 0.22966 0.70482 0.29489
 C185 C 0.68508 0.30417 0.66719
 C186 C 0.67569 0.26763 0.67392
 C187 C 0.70070 0.24448 0.69808
 C188 C 0.73417 0.25816 0.71948
 C189 C 0.74210 0.29559 0.71399
 C190 C 0.71831 0.31833 0.68616
 C191 C 0.76083 0.23378 0.74686
 C192 C 0.79770 0.24449 0.75091
 C193 C 0.82240 0.22289 0.77903
 C194 C 0.81083 0.18914 0.80006
 C195 C 0.77487 0.17708 0.79512
 C196 C 0.74979 0.19987 0.77020
 H197 H 0.66681 0.32144 0.64459
 H198 H 0.69365 0.21605 0.69973
 H199 H 0.76662 0.30772 0.73125
 H200 H 0.80788 0.26954 0.73246
 H201 H 0.82966 0.17274 0.82316
 H202 H 0.72185 0.19087 0.76972
 C203 C 0.30892 0.68126 0.68704
 C204 C 0.31800 0.71800 0.69148
 C205 C 0.29559 0.74027 0.72325
 C206 C 0.26412 0.72603 0.75093
 C207 C 0.25561 0.68868 0.74475
 C208 C 0.27746 0.66650 0.71183
 C209 C 0.23949 0.75024 0.78344
 C210 C 0.20265 0.74025 0.79185
 C211 C 0.17943 0.76295 0.82104
 C212 C 0.19271 0.79649 0.84034
 C213 C 0.22864 0.80768 0.83172
 C214 C 0.25222 0.78406 0.80517
 H215 H 0.32581 0.66416 0.66160
 H216 H 0.30215 0.76883 0.72370
 H217 H 0.23213 0.67632 0.76513
 H218 H 0.19126 0.71534 0.77478
 H219 H 0.17500 0.81395 0.86360
 H220 H 0.28019 0.79259 0.80113
 C221 C 0.30620 0.29594 0.65428
 C222 C 0.26994 0.30449 0.65835
 C223 C 0.24608 0.28106 0.68840
 C224 C 0.25840 0.24947 0.71566
 C225 C 0.29526 0.24171 0.71017
 C226 C 0.31886 0.26437 0.67860
 C227 C 0.23322 0.22484 0.74963
 C228 C 0.24190 0.18864 0.76154
 C229 C 0.21958 0.16652 0.79655
 C230 C 0.18773 0.18024 0.81804
 C231 C 0.17700 0.21488 0.80384
 C232 C 0.20036 0.23743 0.77138
 H233 H 0.32467 0.31357 0.63032
 H234 H 0.21793 0.28732 0.68845
 H235 H 0.30635 0.21840 0.73059
 H236 H 0.26566 0.17706 0.74356
 H237 H 0.17134 0.16391 0.84739
 H238 H 0.19259 0.26471 0.76362
 C239 C 0.68694 0.68755 0.69514
 C240 C 0.72208 0.67645 0.70421
 C241 C 0.74654 0.69920 0.73386
 C242 C 0.73561 0.73207 0.75766
 C243 C 0.69964 0.74223 0.74870
 C244 C 0.67550 0.72042 0.71652
 C245 C 0.76157 0.75542 0.79173
 C246 C 0.75653 0.79282 0.79723
 C247 C 0.77987 0.81446 0.83103
 C248 C 0.80927 0.79892 0.85792
 C249 C 0.81528 0.76213 0.85261
 C250 C 0.79132 0.74044 0.82013
 H251 H 0.66873 0.67102 0.66899
 H252 H 0.77401 0.69094 0.73807
 H253 H 0.68983 0.76676 0.76699
 H254 H 0.73476 0.80561 0.77512
 H255 H 0.82731 0.81546 0.88436
 H256 H 0.79554 0.71180 0.81915
 C257 C 0.26608 0.10985 0.10341
 C258 C 0.23864 0.08283 0.09913
 C259 C 0.20501 0.08914 0.12440
 C260 C 0.19828 0.12202 0.15006
 C261 C 0.22438 0.15030 0.14955
 C262 C 0.25883 0.14350 0.12758
 H263 H 0.29238 0.10594 0.08473
 H264 H 0.18343 0.06876 0.12372
 H265 H 0.17198 0.12559 0.16893
 H266 H 0.27967 0.16458 0.12653
 C267 C 0.77099 0.60654 0.61816
 C268 C 0.74527 0.57793 0.61872
 C269 C 0.71478 0.58015 0.65403
 C270 C 0.70870 0.61141 0.68497
 C271 C 0.73270 0.64134 0.68059
 C272 C 0.76467 0.63819 0.64880
 H273 H 0.79461 0.60544 0.59090
 H274 H 0.69477 0.55825 0.65566
 H275 H 0.68427 0.61283 0.71027
 H276 H 0.78358 0.66089 0.64463
 C277 C 0.80101 0.92283 0.14576
 C278 C 0.76772 0.92676 0.11798
 C279 C 0.74032 0.90016 0.12685
 C280 C 0.74752 0.86858 0.15754
 C281 C 0.78180 0.86370 0.18170
 C282 C 0.80763 0.89215 0.17804
 H283 H 0.82246 0.94319 0.14163
 H284 H 0.71425 0.90236 0.10645
 H285 H 0.72688 0.84733 0.15949
 H286 H 0.83374 0.89015 0.19834
 C287 C 0.26630 0.38026 0.55035
 C288 C 0.24708 0.40603 0.58039
 C289 C 0.23098 0.39673 0.63345
 C290 C 0.23655 0.36269 0.65805
 C291 C 0.25787 0.33770 0.62932
 C292 C 0.27127 0.34640 0.57414
 H293 H 0.27828 0.38671 0.50874
 H294 H 0.21589 0.41630 0.65705
 H295 H 0.22590 0.35663 0.70063
 H296 H 0.28694 0.32741 0.55025
 C297 C 0.90271 0.27807 0.12499
 C298 C 0.90591 0.26837 0.06680
 C299 C 0.87564 0.25497 0.03670
 C300 C 0.84310 0.24876 0.06529
 C301 C 0.84039 0.25564 0.12458
 C302 C 0.86988 0.27177 0.15388
 H303 H 0.92605 0.28802 0.14885
 H304 H 0.87783 0.24724 -0.00824
 H305 H 0.82066 0.23631 0.04204
 H306 H 0.86829 0.27689 0.19981
 C307 C 0.40905 0.76344 0.65741
 C308 C 0.41592 0.74843 0.60310
 C309 C 0.38887 0.72759 0.57569
 C310 C 0.35620 0.72006 0.60311
 C311 C 0.35004 0.73241 0.65941
 C312 C 0.37625 0.75526 0.68570
 H313 H 0.42961 0.77979 0.67902
 H314 H 0.39336 0.71643 0.53319
 H315 H 0.33614 0.70332 0.58102
 H316 H 0.37211 0.76520 0.72901
 C317 C 0.11560 0.78683 0.08725
 C318 C 0.09344 0.75694 0.10262
 C319 C 0.10532 0.73358 0.14616
 C320 C 0.13725 0.74190 0.17677
 C321 C 0.15854 0.77278 0.16248
 C322 C 0.14805 0.79384 0.11523
 H323 H 0.10836 0.80465 0.05230
 H324 H 0.08913 0.71000 0.15857
 H325 H 0.14461 0.72482 0.21250
 H326 H 0.16468 0.81637 0.09990
 C327 C 0.60363 0.21927 0.58478
 C328 C 0.57467 0.24196 0.59365
 C329 C 0.57750 0.26873 0.63608
 C330 C 0.60965 0.27478 0.66585
 C331 C 0.63987 0.25458 0.65312
 C332 C 0.63621 0.22566 0.61428
 H333 H 0.60201 0.19857 0.55195
 H334 H 0.55537 0.28630 0.64405
 H335 H 0.61163 0.29683 0.69634
 H336 H 0.65919 0.20979 0.60365
 C337 C 0.78215 0.08065 0.84294
 C338 C 0.75424 0.07714 0.88352
 C339 C 0.72941 0.10465 0.88821
 C340 C 0.73447 0.13663 0.85640
 C341 C 0.76424 0.14120 0.81925
 C342 C 0.78689 0.11218 0.81078
 H343 H 0.80142 0.05963 0.83815
 H344 H 0.70781 0.10257 0.91958
 H345 H 0.71666 0.15860 0.86387
 H346 H 0.80958 0.11468 0.78151
 C347 C 0.28353 0.58963 0.36218
 C348 C 0.25372 0.58505 0.39894
 C349 C 0.22983 0.61333 0.40482
 C350 C 0.23738 0.64667 0.37778
 C351 C 0.26873 0.65189 0.34426
 C352 C 0.29076 0.62250 0.33480
 H353 H 0.30208 0.56809 0.35626
 H354 H 0.20672 0.61043 0.43314
 H355 H 0.21997 0.66887 0.38591
 H356 H 0.31464 0.62547 0.30814
 C357 C 0.22363 0.90672 0.86376
 C358 C 0.25181 0.91238 0.90332
 C359 C 0.27606 0.88472 0.91276
 C360 C 0.27022 0.85089 0.88648
 C361 C 0.24020 0.84458 0.85039
 C362 C 0.21805 0.87338 0.83732
 H363 H 0.20476 0.92770 0.85534
 H364 H 0.29785 0.88841 0.94345
 H365 H 0.28766 0.82912 0.89729
 H366 H 0.19513 0.86947 0.80883
 C367 C 0.76972 0.39657 0.38828
 C368 C 0.74528 0.42454 0.38528
 C369 C 0.71557 0.42108 0.34811
 C370 C 0.70880 0.38923 0.31791
 C371 C 0.73131 0.35994 0.32480
 C372 C 0.76270 0.36435 0.35831
 H373 H 0.79271 0.39860 0.41698
 H374 H 0.69656 0.44243 0.34456
 H375 H 0.68487 0.38682 0.29129
 H376 H 0.78047 0.34215 0.36437
 C377 C 0.10306 0.27056 0.86923
 C378 C 0.07589 0.24370 0.87799
 C379 C 0.08069 0.20922 0.85499
 C380 C 0.11251 0.20109 0.82734
 C381 C 0.14125 0.22659 0.82402
 C382 C 0.13579 0.26188 0.84339
 H383 H 0.10017 0.29749 0.88602
 H384 H 0.05996 0.18811 0.85901
 H385 H 0.11503 0.17417 0.81031
 H386 H 0.15727 0.28227 0.84130
 C387 C 0.61988 0.78304 0.42122
 C388 C 0.59030 0.75931 0.41081
 C389 C 0.59350 0.73202 0.36964
 C390 C 0.62630 0.72672 0.34254
 C391 C 0.65688 0.74819 0.35665
 C392 C 0.65312 0.77743 0.39437
 H393 H 0.61802 0.80417 0.45310
 H394 H 0.57097 0.71363 0.36042
 H395 H 0.62831 0.70443 0.31276
 H396 H 0.67631 0.79432 0.40600
 C397 C 0.90647 0.72249 0.87789
 C398 C 0.91296 0.73348 0.93495
 C399 C 0.88529 0.74870 0.96680
 C400 C 0.85237 0.75532 0.94096
 C401 C 0.84658 0.74709 0.88256
 C402 C 0.87324 0.72920 0.85176
 H403 H 0.92777 0.71116 0.85256
 H404 H 0.88997 0.75744 1.01088
 H405 H 0.83211 0.76885 0.96563
 H406 H 0.86933 0.72283 0.80654
 C407 C 0.40974 0.28402 0.34246
 C408 C 0.41250 0.25276 0.37605
 C409 C 0.38305 0.22803 0.37871
 C410 C 0.35043 0.23593 0.35175
 C411 C 0.34702 0.26852 0.32143
 C412 C 0.37751 0.29165 0.31509
 H413 H 0.43218 0.30334 0.33922
 H414 H 0.38450 0.20385 0.40473
 H415 H 0.32738 0.21763 0.35750
 H416 H 0.37598 0.31651 0.29080
 C417 C 0.79639 0.91230 0.86829
 C418 C 0.76309 0.92098 0.89234
 C419 C 0.73366 0.89643 0.88650
 C420 C 0.73838 0.86251 0.86197
 C421 C 0.77256 0.85271 0.84289
 C422 C 0.80106 0.87854 0.84375
 H423 H 0.81947 0.93082 0.87140
 H424 H 0.70766 0.90238 0.90457
 H425 H 0.71600 0.84304 0.86198
 H426 H 0.82753 0.87184 0.82842
 C427 C 0.22093 0.40372 0.36590
 C428 C 0.24859 0.43044 0.36884
 C429 C 0.28003 0.42615 0.33626
 C430 C 0.28528 0.39426 0.30624
 C431 C 0.25935 0.36586 0.30855
 C432 C 0.22631 0.37158 0.33602
 H433 H 0.19649 0.40624 0.39084
 H434 H 0.30166 0.44646 0.33724
 H435 H 0.31074 0.39078 0.28452
 H436 H 0.20591 0.35009 0.33862
 C437 C 0.27056 0.09086 0.86522
 C438 C 0.24195 0.06612 0.87781
 C439 C 0.20824 0.07150 0.85213
 C440 C 0.20225 0.10255 0.82018
 C441 C 0.22941 0.12960 0.81440
 C442 C 0.26419 0.12261 0.83442
 H443 H 0.29705 0.08744 0.88352
 H444 H 0.18578 0.05259 0.85905
 H445 H 0.17548 0.10656 0.80337
 H446 H 0.28575 0.14284 0.83030
 C447 C 0.77843 0.60701 0.38991
 C448 C 0.74986 0.58121 0.38894
 C449 C 0.71878 0.58843 0.35707
 C450 C 0.71486 0.62204 0.33141
 C451 C 0.74178 0.64923 0.33760
 C452 C 0.77437 0.64088 0.36449
 H453 H 0.80266 0.60212 0.41427
 H454 H 0.69655 0.56882 0.35493
 H455 H 0.68976 0.62759 0.30990
 H456 H 0.79551 0.66141 0.36995
 C457 C 0.08129 0.77178 0.85584
 C458 C 0.07413 0.74069 0.88951
 C459 C 0.09931 0.71314 0.88849
 C460 C 0.13287 0.71894 0.86152
 C461 C 0.14144 0.75201 0.83429
 C462 C 0.11446 0.77728 0.82851
 H463 H 0.06230 0.79323 0.85389
 H464 H 0.09467 0.68861 0.91319
 H465 H 0.15313 0.69888 0.86624
 H466 H 0.12000 0.80259 0.80633
 C467 C 0.59478 0.22492 0.35923
 C468 C 0.56836 0.25102 0.36165
 C469 C 0.57346 0.28309 0.33005
 C470 C 0.60584 0.29056 0.30140
 C471 C 0.63393 0.26630 0.30439
 C472 C 0.62748 0.23258 0.33085
 H473 H 0.59149 0.20004 0.38344
 H474 H 0.55329 0.30345 0.33064
 H475 H 0.60992 0.31647 0.28037
 H476 H 0.64875 0.21346 0.33389
 C477 C 0.92047 0.22108 0.81752
 C478 C 0.92465 0.25279 0.85004
 C479 C 0.89761 0.27822 0.84803
 C480 C 0.86510 0.27002 0.81953
 C481 C 0.85946 0.23640 0.79257
 C482 C 0.88825 0.21305 0.78877
 H483 H 0.94111 0.20118 0.81806
 H484 H 0.90013 0.30272 0.87319
 H485 H 0.84328 0.28846 0.82327
 H486 H 0.88479 0.18724 0.76742
 C487 C 0.42878 0.72574 0.35237
 C488 C 0.43447 0.75635 0.38715
 C489 C 0.40823 0.78269 0.38797
 C490 C 0.37527 0.77652 0.35965
 C491 C 0.36824 0.74401 0.33012
 C492 C 0.39602 0.71965 0.32409
 H493 H 0.44869 0.70516 0.35041
 H494 H 0.41184 0.80644 0.41464
 H495 H 0.35425 0.79570 0.36504
 H496 H 0.39145 0.69467 0.30077
 C497 C 0.22403 0.92990 0.17619
 C498 C 0.25371 0.93322 0.13884
 C499 C 0.28096 0.90809 0.14271
 C500 C 0.27609 0.87744 0.17763
 C501 C 0.24406 0.87185 0.20928
 C502 C 0.21946 0.89968 0.21167
 H503 H 0.20295 0.94931 0.17467
 H504 H 0.30415 0.91015 0.11441
 H505 H 0.29541 0.85636 0.17474
 H506 H 0.19478 0.89624 0.23629
 C507 C 0.76897 0.39763 0.61860
 C508 C 0.74181 0.42294 0.61614
 C509 C 0.70955 0.41599 0.64638
 C510 C 0.70323 0.38302 0.67409
 C511 C 0.72884 0.35614 0.67145
 C512 C 0.76248 0.36437 0.64592
 H513 H 0.79407 0.40235 0.59559
 H514 H 0.68837 0.43530 0.64592
 H515 H 0.67737 0.37767 0.69453
 H516 H 0.78267 0.34412 0.64304
 C517 C 0.72759 0.10263 0.11946
 C518 C 0.75706 0.08000 0.11642
 C519 C 0.78896 0.08992 0.14570
 C520 C 0.79267 0.12342 0.17233
 C521 C 0.76466 0.14775 0.16983
 C522 C 0.73141 0.13642 0.14596
 H523 H 0.70270 0.09557 0.09724
 H524 H 0.81191 0.07274 0.14479
 H525 H 0.81842 0.13146 0.19108
 H526 H 0.70951 0.15484 0.14328
 C527 C 0.28546 0.57090 0.66199
 C528 C 0.25322 0.56574 0.63096
 C529 C 0.22588 0.59060 0.63810
 C530 C 0.23233 0.62210 0.67026
 C531 C 0.26613 0.62905 0.69594
 C532 C 0.29176 0.60213 0.69440
 H533 H 0.30684 0.55198 0.65802
 H534 H 0.20074 0.58733 0.61474
 H535 H 0.21217 0.64246 0.67046
 H536 H 0.31787 0.60661 0.71442
 C537 C 0.93563 0.78861 0.17190
 C538 C 0.93845 0.75514 0.14453
 C539 C 0.91078 0.72880 0.15233
 C540 C 0.87919 0.73718 0.18172
 C541 C 0.87498 0.77196 0.20399
 C542 C 0.90432 0.79684 0.20163
 H543 H 0.95669 0.80930 0.16710
 H544 H 0.91216 0.70283 0.13143
 H545 H 0.85699 0.71751 0.18268
 H546 H 0.90207 0.82362 0.21937
 C547 C 0.41643 0.27503 0.63923
 C548 C 0.42096 0.24389 0.60609
 C549 C 0.39437 0.21608 0.60819
 C550 C 0.36200 0.22120 0.63751
 C551 C 0.35602 0.25411 0.66509
 C552 C 0.38427 0.28005 0.66857
 H553 H 0.43675 0.29666 0.63912
 H554 H 0.39722 0.19180 0.58305
 H555 H 0.34050 0.20088 0.63406
 H556 H 0.38037 0.30545 0.69018
 C557 C 0.09385 0.28225 0.10460
 C558 C 0.06607 0.25556 0.10323
 C559 C 0.06981 0.22403 0.13602
 C560 C 0.10200 0.21769 0.16467
 C561 C 0.13119 0.24264 0.16096
 C562 C 0.12625 0.27580 0.13325
 H563 H 0.09176 0.30677 0.07962
 H564 H 0.04874 0.20314 0.13637
 H565 H 0.10496 0.19215 0.18656
 H566 H 0.14837 0.29544 0.12967
 C567 C 0.60296 0.77405 0.64599
 C568 C 0.57538 0.74741 0.64042
 C569 C 0.57840 0.71472 0.67031
 C570 C 0.60985 0.70737 0.70032
 C571 C 0.63911 0.73236 0.70046
 C572 C 0.63471 0.76652 0.67570
 H573 H 0.60135 0.79945 0.62322
 H574 H 0.55736 0.69388 0.66736
 H575 H 0.61229 0.68108 0.72001
 H576 H 0.65687 0.78624 0.67502
   
