data_POSCAR
  _audit_creation_date              2014-09-24
  _audit_creation_method            'ToBaCCo'
  _symmetry_space_group_name_H-M    'P1'
  _symmetry_Int_Tables_number       1
  _symmetry_cell_setting            triclinic
  loop_
  _symmetry_equiv_pos_as_xyz
 x,y,z
_cell_length_a 47.8302
_cell_length_b 49.2573
_cell_length_c 48.4477
_cell_angle_alpha 89.802000
_cell_angle_beta 88.954300
_cell_angle_gamma 91.365600
loop_
  _atom_site_label
  _atom_site_type_symbol
  _atom_site_fract_x
  _atom_site_fract_y
  _atom_site_fract_z
Si1 Si 0.25585 0.50272 1.00058
 Si2 Si 0.74636 0.49625 0.00369
 Si3 Si 0.00276 0.25515 0.50340
 Si4 Si 0.99204 0.74769 0.50231
 Si5 Si 0.50519 -0.00343 0.24919
 Si6 Si 0.49447 -0.00169 0.74717
 C7 C 0.28904 0.02392 0.46501
 H8 H 0.29099 0.03798 0.48201
 C9 C 0.30802 0.02546 0.44281
 H10 H 0.32441 0.04101 0.44271
 C11 C 0.26539 -0.01361 0.44471
 H12 H 0.24910 -0.02915 0.44577
 C13 C 0.28387 -0.01274 0.42206
 H14 H 0.28163 -0.02774 0.40592
 N15 N 0.26818 0.00467 0.46553
 C16 C 0.19973 0.03292 0.51693
 H17 H 0.19690 0.01541 0.53032
 C18 C 0.18028 0.05355 0.51768
 H19 H 0.16251 0.05199 0.53182
 C20 C 0.22574 0.05576 0.48136
 H21 H 0.24304 0.05618 0.46672
 C22 C 0.20706 0.07715 0.48183
 H23 H 0.21013 0.09400 0.46758
 Zn24 Zn 0.24413 0.00313 0.49695
 N25 N 0.22169 0.03417 0.49871
 C26 C 0.26597 0.02132 0.54771
 N27 N 0.26662 0.00120 0.52858
 C28 C 0.28451 -0.01969 0.53078
 C29 C 0.30247 -0.02111 0.55312
 C30 C 0.28382 0.02090 0.57019
 C31 C 0.19957 -0.02618 0.47494
 C32 C 0.17891 -0.04653 0.47320
 C33 C 0.19913 -0.06890 0.51229
 C34 C 0.21933 -0.04797 0.51342
 N35 N 0.21919 -0.02718 0.49485
 H36 H 0.25204 0.03808 0.54525
 H37 H 0.28490 -0.03521 0.51504
 H38 H 0.31618 -0.03820 0.55464
 H39 H 0.28348 0.03758 0.58467
 H40 H 0.19971 -0.00922 0.46069
 H41 H 0.16337 -0.04529 0.45730
 H42 H 0.19914 -0.08501 0.52755
 H43 H 0.23462 -0.04808 0.52953
 C44 C 0.18376 0.07585 0.49981
 C45 C 0.30562 0.00689 0.42099
 C46 C 0.17839 -0.06812 0.49218
 C47 C 0.30251 -0.00049 0.57314
 C48 C 0.72906 0.01996 0.54765
 H49 H 0.74199 0.03782 0.54356
 C50 C 0.71122 0.01930 0.57081
 H51 H 0.71065 0.03672 0.58436
 C52 C 0.71420 -0.02453 0.53531
 H53 H 0.71535 -0.04144 0.52117
 C54 C 0.69623 -0.02613 0.55832
 H55 H 0.68338 -0.04429 0.56164
 N56 N 0.72977 -0.00155 0.53013
 C57 C 0.80496 0.02698 0.49862
 H58 H 0.81346 0.00691 0.49955
 C59 C 0.82313 0.04953 0.49861
 H60 H 0.84544 0.04651 0.49959
 C61 C 0.76586 0.05535 0.49507
 H62 H 0.74347 0.05735 0.49359
 C63 C 0.78333 0.07851 0.49482
 H64 H 0.77422 0.09837 0.49347
 Zn65 Zn 0.75225 -0.00051 0.49751
 N66 N 0.77686 0.03023 0.49735
 C67 C 0.74191 0.00662 0.44107
 N68 N 0.72942 0.00189 0.46614
 C69 C 0.70116 -0.00100 0.46886
 C70 C 0.68439 -0.00022 0.44565
 C71 C 0.72586 0.00784 0.41729
 C72 C 0.78878 -0.03918 0.51807
 C73 C 0.80539 -0.06211 0.51740
 C74 C 0.78781 -0.07243 0.47210
 C75 C 0.77163 -0.04926 0.47360
 N76 N 0.77287 -0.03285 0.49609
 H77 H 0.76442 0.00912 0.43954
 H78 H 0.69153 -0.00416 0.48896
 H79 H 0.66193 -0.00278 0.44816
 H80 H 0.73611 0.01109 0.39740
 H81 H 0.78907 -0.02598 0.53586
 H82 H 0.81874 -0.06616 0.53466
 H83 H 0.78666 -0.08513 0.45394
 H84 H 0.75831 -0.04431 0.45664
 C85 C 0.81236 0.07572 0.49688
 C86 C 0.69429 -0.00386 0.57620
 C87 C 0.80536 -0.07889 0.49399
 C88 C 0.69674 0.00399 0.41944
 C89 C 0.46728 0.20268 1.03190
 H90 H 0.45114 0.20266 1.01654
 C91 C 0.46628 0.18321 1.05288
 H92 H 0.44895 0.16867 1.05387
 C93 C 0.51005 0.22092 1.04846
 H94 H 0.52753 0.23509 1.04619
 C95 C 0.50984 0.20180 1.06986
 H96 H 0.52720 0.20152 1.08389
 N97 N 0.48908 0.22087 1.02984
 C98 C 0.46138 0.28831 0.97948
 H99 H 0.47948 0.29090 0.96596
 C100 C 0.44028 0.30738 0.97897
 H101 H 0.44200 0.32416 0.96448
 C102 C 0.43784 0.26411 1.01565
 H103 H 0.43725 0.24777 1.03053
 C104 C 0.41613 0.28263 1.01568
 H105 H 0.39905 0.28018 1.03052
 Zn106 Zn 0.49102 0.24386 0.99817
 N107 N 0.45983 0.26710 0.99754
 C108 C 0.48753 0.23168 0.94051
 N109 N 0.49190 0.22139 0.96616
 C110 C 0.49713 0.19457 0.96977
 C111 C 0.49705 0.17686 0.94741
 C112 C 0.48762 0.21466 0.91743
 C113 C 0.52543 0.28489 1.01975
 C114 C 0.54800 0.30334 1.02056
 C115 C 0.56614 0.28385 0.97839
 C116 C 0.54336 0.26553 0.97859
 N117 N 0.52350 0.26651 0.99898
 H118 H 0.48381 0.25304 0.93786
 H119 H 0.50157 0.18678 0.99003
 H120 H 0.50119 0.15559 0.95080
 H121 H 0.48374 0.22306 0.89721
 H122 H 0.50923 0.28533 1.03561
 H123 H 0.54921 0.31753 1.03753
 H124 H 0.58120 0.28325 0.96148
 H125 H 0.54126 0.25091 0.96213
 C126 C 0.41734 0.30475 0.99733
 C127 C 0.48801 0.18228 1.07192
 C128 C 0.56862 0.30328 0.99949
 C129 C 0.49204 0.18679 0.92086
 C130 C 0.48924 0.78985 -0.03865
 H131 H 0.47089 0.78791 -0.02549
 C132 C 0.48949 0.80834 -0.06056
 H133 H 0.47117 0.82030 -0.06404
 C134 C 0.53598 0.77815 -0.04902
 H135 H 0.55439 0.76701 -0.04403
 C136 C 0.53720 0.79658 -0.07104
 H137 H 0.55635 0.79885 -0.08318
 N138 N 0.51220 0.77505 -0.03333
 C139 C 0.48442 0.70068 -0.00444
 H140 H 0.50534 0.69312 -0.00565
 C141 C 0.46196 0.68227 -0.00605
 H142 H 0.46599 0.66088 -0.00865
 C143 C 0.45357 0.73719 0.00127
 H144 H 0.45036 0.75854 0.00470
 C145 C 0.43040 0.71935 0.00010
 H146 H 0.40950 0.72722 0.00193
 Zn147 Zn 0.51174 0.75214 -0.00155
 N148 N 0.48002 0.72773 -0.00156
 C149 C 0.49324 0.76982 0.05182
 N150 N 0.51058 0.77486 0.02972
 C151 C 0.52856 0.79662 0.02914
 C152 C 0.52959 0.81450 0.05133
 C153 C 0.49364 0.78721 0.07460
 C154 C 0.55214 0.71602 -0.02256
 C155 C 0.57444 0.69833 -0.02093
 C156 C 0.58266 0.71417 0.02540
 C157 C 0.56012 0.73146 0.02294
 N158 N 0.54501 0.73170 -0.00058
 H159 H 0.47940 0.75215 0.05197
 H160 H 0.54214 0.80008 0.01131
 H161 H 0.54375 0.83195 0.05015
 H162 H 0.48003 0.78273 0.09221
 H163 H 0.53968 0.71639 -0.04097
 H164 H 0.57884 0.68511 -0.03819
 H165 H 0.59412 0.71400 0.04447
 H166 H 0.55414 0.74399 0.04022
 C167 C 0.43453 0.69157 -0.00416
 C168 C 0.51377 0.81205 -0.07695
 C169 C 0.58968 0.69681 0.00352
 C170 C 0.51209 0.80987 0.07456
 C171 C 1.03090 0.47898 0.20919
 H172 H 1.01317 0.46511 0.20715
 C173 C 1.05396 0.47701 0.19129
 H174 H 1.05395 0.46128 0.17574
 C175 C 1.05223 0.51635 0.23197
 H176 H 1.05127 0.53197 0.24752
 C177 C 1.07570 0.51515 0.21446
 H178 H 1.09253 0.53002 0.21670
 N179 N 1.03049 0.49831 0.22913
 C180 C 0.97410 0.47015 0.29521
 H181 H 0.96129 0.48785 0.29735
 C182 C 0.97109 0.44885 0.31418
 H183 H 0.95604 0.45056 0.33100
 C184 C 1.01047 0.44749 0.27158
 H185 H 1.02616 0.44724 0.25529
 C186 C 1.00795 0.42558 0.28990
 H187 H 1.02140 0.40843 0.28701
 Zn188 Zn 0.99794 0.50043 0.25182
 N189 N 0.99361 0.46918 0.27451
 C190 C 0.94444 0.48619 0.23101
 N191 N 0.96681 0.50365 0.22854
 C192 C 0.96810 0.52309 0.20855
 C193 C 0.94631 0.52551 0.18995
 C194 C 0.92210 0.48801 0.21298
 C195 C 1.01989 0.52895 0.29617
 C196 C 1.02130 0.54883 0.31654
 C197 C 0.98364 0.57194 0.29447
 C198 C 0.98286 0.55148 0.27455
 N199 N 1.00074 0.53047 0.27586
 H200 H 0.94393 0.47067 0.24682
 H201 H 0.98632 0.53647 0.20681
 H202 H 0.94813 0.54070 0.17378
 H203 H 0.90437 0.47411 0.21555
 H204 H 1.03362 0.51183 0.29688
 H205 H 1.03650 0.54711 0.33270
 H206 H 0.96875 0.58812 0.29362
 H207 H 0.96744 0.55203 0.25855
 C208 C 0.98827 0.42619 0.31180
 C209 C 1.07674 0.49535 0.19370
 C210 C 1.00275 0.57048 0.31608
 C211 C 0.92290 0.50775 0.19195
 C212 C -0.02545 0.47570 0.79462
 H213 H -0.00791 0.46225 0.79358
 C214 C -0.04638 0.47159 0.81472
 H215 H -0.04502 0.45468 0.82893
 C216 C -0.04806 0.51453 0.77770
 H217 H -0.04820 0.53167 0.76375
 C218 C -0.06955 0.51109 0.79744
 H219 H -0.08611 0.52569 0.79845
 N220 N -0.02651 0.49700 0.77679
 C221 C 0.03132 0.47387 0.71100
 H222 H 0.04692 0.49003 0.71259
 C223 C 0.03424 0.45395 0.69083
 H224 H 0.05257 0.45463 0.67740
 C225 C -0.01152 0.45365 0.72676
 H226 H -0.02966 0.45405 0.74037
 C227 C -0.00965 0.43352 0.70662
 H228 H -0.02655 0.41865 0.70500
 Zn229 Zn 0.00488 0.50271 0.75306
 N230 N 0.00878 0.47333 0.72850
 C231 C 0.05632 0.48705 0.77633
 N232 N 0.03631 0.50620 0.77604
 C233 C 0.03682 0.52731 0.79400
 C234 C 0.05836 0.53014 0.81285
 C235 C 0.07801 0.48880 0.79523
 C236 C -0.02048 0.53316 0.71263
 C237 C -0.02435 0.55478 0.69454
 C238 C 0.01530 0.57810 0.71463
 C239 C 0.01857 0.55588 0.73218
 N240 N 0.00063 0.53409 0.73103
 H241 H 0.05500 0.46986 0.76258
 H242 H 0.02026 0.54190 0.79380
 H243 H 0.05851 0.54747 0.82652
 H244 H 0.09312 0.47280 0.79572
 H245 H -0.03409 0.51533 0.71177
 H246 H -0.04087 0.55322 0.67962
 H247 H 0.02960 0.59537 0.71614
 H248 H 0.03570 0.55601 0.74637
 C249 C 0.01338 0.43357 0.68814
 C250 C -0.06861 0.48965 0.81656
 C251 C -0.00631 0.57770 0.69534
 C252 C 0.07918 0.51050 0.81399
 C253 C 0.05680 0.23872 0.52004
 C254 C 0.07944 0.22123 0.51992
 C255 C 0.07947 0.19843 0.50274
 C256 C 0.05711 0.19388 0.48478
 C257 C 0.03483 0.21164 0.48448
 C258 C 0.03431 0.23390 0.50240
 N259 N 0.10182 0.17969 0.50439
 N260 N 0.09888 0.15548 0.49567
 C261 C 0.12065 0.13613 0.49680
 C262 C 0.11361 0.10863 0.49357
 C263 C 0.13415 0.08904 0.49489
 C264 C 0.16222 0.09679 0.49884
 C265 C 0.16943 0.12444 0.50159
 C266 C 0.14871 0.14402 0.50088
 H267 H 0.05682 0.25569 0.53413
 H268 H 0.09656 0.22496 0.53383
 H269 H 0.05679 0.17653 0.47113
 H270 H 0.01765 0.20763 0.47069
 H271 H 0.09208 0.10236 0.49031
 H272 H 0.12821 0.06784 0.49246
 H273 H 0.19098 0.13078 0.50464
 H274 H 0.15460 0.16524 0.50323
 C275 C 0.72818 0.54435 -0.02321
 C276 C 0.71326 0.56835 -0.02482
 C277 C 0.69838 0.57782 -0.00182
 C278 C 0.69928 0.56338 0.02322
 C279 C 0.71423 0.53941 0.02482
 C280 C 0.72821 0.52931 0.00145
 N281 N 0.68180 0.60149 -0.00466
 N282 N 0.66690 0.61042 0.01520
 C283 C 0.64937 0.63338 0.01228
 C284 C 0.63239 0.64085 0.03464
 C285 C 0.61353 0.66188 0.03201
 C286 C 0.61138 0.67597 0.00684
 C287 C 0.62905 0.66890 -0.01540
 C288 C 0.64786 0.64776 -0.01274
 H289 H 0.73930 0.53761 -0.04140
 H290 H 0.71292 0.57940 -0.04417
 H291 H 0.68824 0.57044 0.04142
 H292 H 0.71485 0.52879 0.04438
 H293 H 0.63327 0.62984 0.05398
 H294 H 0.59995 0.66644 0.04941
 H295 H 0.62818 0.67957 -0.03493
 H296 H 0.66087 0.64242 -0.03032
 C297 C 0.94467 -0.22833 0.52792
 C298 C 0.92175 -0.21125 0.52887
 C299 C 0.91316 -0.19805 0.50498
 C300 C 0.92731 -0.20275 0.47982
 C301 C 0.95015 -0.21990 0.47886
 C302 C 0.95915 -0.23268 0.50292
 N303 N 0.89121 -0.17884 0.50708
 N304 N 0.88386 -0.16483 0.48644
 C305 C 0.86282 -0.14470 0.48852
 C306 C 0.85714 -0.12912 0.46521
 C307 C 0.83812 -0.10808 0.46686
 C308 C 0.82432 -0.10229 0.49197
 C309 C 0.82962 -0.11841 0.51525
 C310 C 0.84873 -0.13942 0.51357
 H311 H 0.95156 -0.23729 0.54696
 H312 H 0.91120 -0.20762 0.54842
 H313 H 0.92116 -0.19270 0.46106
 H314 H 0.96113 -0.22245 0.45943
 H315 H 0.86799 -0.13291 0.44584
 H316 H 0.83488 -0.09583 0.44865
 H317 H 0.81904 -0.11474 0.53478
 H318 H 0.85273 -0.15126 0.53188
 C319 C 0.30937 0.47973 1.00614
 C320 C 0.32824 0.45858 1.00640
 C321 C 0.31893 0.43171 1.00306
 C322 C 0.29022 0.42607 0.99981
 C323 C 0.27126 0.44734 0.99943
 C324 C 0.28082 0.47434 1.00212
 N325 N 0.33928 0.41086 1.00257
 N326 N 0.33295 0.38567 1.00108
 C327 C 0.35422 0.36563 1.00013
 C328 C 0.34652 0.33804 1.00130
 C329 C 0.36696 0.31816 1.00047
 C330 C 0.39547 0.32562 0.99812
 C331 C 0.40311 0.35333 0.99681
 C332 C 0.38273 0.37314 0.99788
 H333 H 0.31732 0.50022 1.00906
 H334 H 0.35028 0.46314 1.00914
 H335 H 0.28252 0.40540 0.99729
 H336 H 0.24923 0.44276 0.99669
 H337 H 0.32465 0.33196 1.00296
 H338 H 0.36048 0.29695 1.00133
 H339 H 0.42491 0.35970 0.99537
 H340 H 0.38929 0.39431 0.99690
 C341 C 0.97242 0.21121 0.52760
 C342 C 0.95116 0.19134 0.52934
 C343 C 0.93003 0.19042 0.50978
 C344 C 0.93020 0.20986 0.48845
 C345 C 0.95156 0.22973 0.48667
 C346 C 0.97276 0.23054 0.50629
 N347 N 0.90942 0.16891 0.51150
 N348 N 0.88912 0.16688 0.49495
 C349 C 0.86937 0.14458 0.49656
 C350 C 0.84685 0.14375 0.47850
 C351 C 0.82795 0.12163 0.47886
 C352 C 0.83147 0.09985 0.49722
 C353 C 0.85388 0.10094 0.51558
 C354 C 0.87263 0.12309 0.51531
 H355 H 0.98886 0.21126 0.54270
 H356 H 0.95136 0.17636 0.54575
 H357 H 0.91419 0.20939 0.47294
 H358 H 0.95166 0.24404 0.46970
 H359 H 0.84416 0.16014 0.46391
 H360 H 0.81100 0.12122 0.46434
 H361 H 0.85688 0.08463 0.53020
 H362 H 0.88983 0.12324 0.52952
 C363 C 0.27234 0.55435 0.02323
 C364 C 0.28916 0.57803 0.02388
 C365 C 0.30915 0.58338 0.00292
 C366 C 0.31140 0.56521 -0.01929
 C367 C 0.29466 0.54168 -0.01993
 C368 C 0.27558 0.53571 0.00165
 N369 N 0.32784 0.60644 0.00511
 N370 N 0.34753 0.61050 -0.01256
 C371 C 0.36767 0.63235 -0.01093
 C372 C 0.38978 0.63317 -0.03019
 C373 C 0.41116 0.65278 -0.02825
 C374 C 0.41066 0.67214 -0.00704
 C375 C 0.38792 0.67196 0.01178
 C376 C 0.36659 0.65206 0.00997
 H377 H 0.25724 0.55056 0.03973
 H378 H 0.28704 0.59194 0.04101
 H379 H 0.32649 0.56887 -0.03589
 H380 H 0.29717 0.52771 -0.03697
 H381 H 0.39077 0.61812 -0.04640
 H382 H 0.42825 0.65269 -0.04322
 H383 H 0.38714 0.68662 0.02836
 H384 H 0.34963 0.65178 0.02508
 C385 C 0.04932 -0.23740 0.49438
 C386 C 0.07210 -0.21907 0.49249
 C387 C 0.06800 -0.19111 0.49495
 C388 C 0.04078 -0.18167 0.49935
 C389 C 0.01812 -0.19996 0.50149
 C390 C 0.02223 -0.22794 0.49911
 N391 N 0.09164 -0.17271 0.49339
 N392 N 0.08853 -0.14712 0.49286
 C393 C 0.11156 -0.12804 0.49204
 C394 C 0.10598 -0.10050 0.48877
 C395 C 0.12773 -0.08110 0.48850
 C396 C 0.15554 -0.08896 0.49177
 C397 C 0.16114 -0.11666 0.49510
 C398 C 0.13932 -0.13611 0.49510
 H399 H 0.05285 -0.25894 0.49240
 H400 H 0.09295 -0.22663 0.48912
 H401 H 0.03704 -0.16018 0.50145
 H402 H -0.00251 -0.19209 0.50527
 H403 H 0.08465 -0.09405 0.48655
 H404 H 0.12276 -0.05988 0.48629
 H405 H 0.18240 -0.12325 0.49751
 H406 H 0.14410 -0.15732 0.49777
 C407 C 0.69686 0.46950 1.02386
 C408 C 0.67638 0.44883 1.02488
 C409 C 0.67870 0.42598 1.00803
 C410 C 0.70198 0.42393 0.99009
 C411 C 0.72235 0.44482 0.98883
 C412 C 0.71975 0.46792 1.00549
 N413 N 0.65684 0.40560 1.00920
 N414 N 0.65870 0.38277 0.99717
 C415 C 0.63612 0.36309 0.99815
 C416 C 0.64061 0.33676 0.98856
 C417 C 0.61887 0.31722 0.98920
 C418 C 0.59204 0.32381 0.99916
 C419 C 0.58762 0.35041 1.00856
 C420 C 0.60943 0.36978 1.00821
 H421 H 0.69456 0.48673 1.03734
 H422 H 0.65861 0.45059 1.03889
 H423 H 0.70426 0.40640 0.97690
 H424 H 0.74009 0.44276 0.97490
 H425 H 0.66108 0.33133 0.98076
 H426 H 0.62319 0.29689 0.98215
 H427 H 0.56716 0.35648 1.01576
 H428 H 0.60532 0.39009 1.01547
 C429 C 0.50674 0.05315 1.23733
 C430 C 0.50536 0.07595 1.22009
 C431 C 0.50115 0.07279 1.19172
 C432 C 0.49852 0.04648 1.18077
 C433 C 0.50009 0.02379 1.19792
 C434 C 0.50439 0.02693 1.22628
 N435 N 0.49944 0.09633 1.17438
 N436 N 0.49333 0.09409 1.14902
 C437 C 0.49164 0.11676 1.13063
 C438 C 0.48326 0.11190 1.10357
 C439 C 0.48178 0.13323 1.08469
 C440 C 0.48879 0.15995 1.09253
 C441 C 0.49723 0.16485 1.11978
 C442 C 0.49855 0.14341 1.13876
 H443 H 0.50956 0.05597 1.25928
 H444 H 0.50729 0.09609 1.22885
 H445 H 0.49518 0.04340 1.15895
 H446 H 0.49759 0.00388 1.18886
 H447 H 0.47803 0.09142 1.09706
 H448 H 0.47571 0.12872 1.06374
 H449 H 0.50262 0.18525 1.12642
 H450 H 0.50513 0.14761 1.15960
 C451 C 0.01809 0.72862 0.55104
 C452 C 0.01998 0.71184 0.57423
 C453 C -0.00218 0.69413 0.58177
 C454 C -0.02661 0.69368 0.56607
 C455 C -0.02837 0.71022 0.54273
 C456 C -0.00589 0.72751 0.53481
 N457 N 0.00114 0.67587 0.60447
 N458 N -0.01906 0.66114 0.61396
 C459 C -0.01545 0.64170 0.63557
 C460 C -0.03906 0.62847 0.64716
 C461 C -0.03618 0.60818 0.66707
 C462 C -0.00949 0.60051 0.67551
 C463 C 0.01419 0.61418 0.66408
 C464 C 0.01125 0.63466 0.64438
 H465 H 0.03562 0.74195 0.54563
 H466 H 0.03891 0.71238 0.58618
 H467 H -0.04401 0.68010 0.57141
 H468 H -0.04710 0.70916 0.53051
 H469 H -0.05975 0.63374 0.64054
 H470 H -0.05488 0.59846 0.67577
 H471 H 0.03507 0.60853 0.66970
 H472 H 0.02984 0.64445 0.63553
 C473 C 0.47597 0.94662 -0.23217
 C474 C 0.47682 0.92431 -0.21430
 C475 C 0.49793 0.92260 -0.19478
 C476 C 0.51838 0.94351 -0.19337
 C477 C 0.51742 0.96590 -0.21111
 C478 C 0.49628 0.96754 -0.23067
 N479 N 0.49758 0.89997 -0.17609
 N480 N 0.51701 0.89637 -0.15895
 C481 C 0.51625 0.87429 -0.13959
 C482 C 0.53911 0.87079 -0.12244
 C483 C 0.53858 0.85021 -0.10249
 C484 C 0.51497 0.83285 -0.09922
 C485 C 0.49215 0.83620 -0.11670
 C486 C 0.49279 0.85669 -0.13678
 H487 H 0.45918 0.94762 -0.24676
 H488 H 0.46083 0.90844 -0.21546
 H489 H 0.53480 0.94277 -0.17832
 H490 H 0.53306 0.98205 -0.20945
 H491 H 0.55725 0.88429 -0.12432
 H492 H 0.55632 0.84836 -0.08909
 H493 H 0.47380 0.82298 -0.11482
 H494 H 0.47484 0.85900 -0.14979
 C495 C 1.02331 0.27624 0.45212
 C496 C 1.02309 0.29367 0.42932
 C497 C 1.00092 0.31128 0.42570
 C498 C 0.97877 0.31124 0.44518
 C499 C 0.97916 0.29402 0.46817
 C500 C 1.00139 0.27638 0.47172
 N501 N 1.00210 0.32980 0.40284
 N502 N 0.98149 0.34427 0.39641
 C503 C 0.98339 0.36362 0.37428
 C504 C 0.95916 0.37632 0.36576
 C505 C 0.96056 0.39615 0.34504
 C506 C 0.98642 0.40393 0.33269
 C507 C 1.01070 0.39090 0.34118
 C508 C 1.00919 0.37086 0.36167
 H509 H 1.04092 0.26313 0.45460
 H510 H 1.04037 0.29367 0.41457
 H511 H 0.96154 0.32489 0.44297
 H512 H 0.96229 0.29469 0.48335
 H513 H 0.93914 0.37088 0.37530
 H514 H 0.94138 0.40540 0.33872
 H515 H 1.03102 0.39668 0.33258
 H516 H 1.02829 0.36151 0.36808
 C517 C 0.47867 0.94793 0.22909
 C518 C 0.47703 0.92523 0.21181
 C519 C 0.49920 0.91936 0.19367
 C520 C 0.52323 0.93637 0.19319
 C521 C 0.52472 0.95914 0.21016
 C522 C 0.50236 0.96526 0.22797
 N523 N 0.49662 0.89677 0.17525
 N524 N 0.51737 0.88913 0.16067
 C525 C 0.51550 0.86768 0.14090
 C526 C 0.54001 0.85957 0.12750
 C527 C 0.53896 0.84023 0.10655
 C528 C 0.51321 0.82879 0.09837
 C529 C 0.48861 0.83643 0.11241
 C530 C 0.48973 0.85573 0.13354
 H531 H 0.46134 0.95196 0.24297
 H532 H 0.45842 0.91227 0.21244
 H533 H 0.54064 0.93238 0.17932
 H534 H 0.54324 0.97222 0.20913
 H535 H 0.55998 0.86861 0.13305
 H536 H 0.55834 0.83441 0.09658
 H537 H 0.46843 0.82818 0.10645
 H538 H 0.47048 0.86182 0.14356
 C539 C -0.01558 0.27542 0.55550
 C540 C -0.01502 0.29358 0.57758
 C541 C 0.00395 0.31565 0.57740
 C542 C 0.02272 0.31922 0.55494
 C543 C 0.02241 0.30084 0.53303
 C544 C 0.00329 0.27881 0.53319
 N545 N 0.00353 0.33418 0.60009
 N546 N 0.01710 0.35671 0.59939
 C547 C 0.01667 0.37524 0.62208
 C548 C 0.02754 0.40158 0.61814
 C549 C 0.02659 0.42047 0.63955
 C550 C 0.01510 0.41318 0.66559
 C551 C 0.00471 0.38645 0.66960
 C552 C 0.00532 0.36770 0.64802
 H553 H -0.03083 0.25888 0.55599
 H554 H -0.02965 0.29069 0.59471
 H555 H 0.03761 0.33612 0.55435
 H556 H 0.03700 0.30388 0.51587
 H557 H 0.03626 0.40764 0.59821
 H558 H 0.03431 0.44095 0.63546
 H559 H -0.00380 0.37995 0.68947
 H560 H -0.00297 0.34733 0.65163
 C561 C 0.46779 0.02614 0.79069
 C562 C 0.46476 0.04685 0.81007
 C563 C 0.48357 0.06905 0.81017
 C564 C 0.50554 0.07037 0.79050
 C565 C 0.50874 0.04949 0.77127
 C566 C 0.48983 0.02728 0.77121
 N567 N 0.48064 0.08920 0.83121
 N568 N 0.49513 0.11122 0.83121
 C569 C 0.49282 0.13053 0.85315
 C570 C 0.50694 0.15569 0.85071
 C571 C 0.50615 0.17438 0.87240
 C572 C 0.49150 0.16795 0.89707
 C573 C 0.47704 0.14284 0.89931
 C574 C 0.47758 0.12434 0.87753
 H575 H 0.45318 0.00900 0.79117
 H576 H 0.44787 0.04549 0.82524
 H577 H 0.52054 0.08718 0.79038
 H578 H 0.52625 0.05061 0.75687
 H579 H 0.51884 0.16068 0.83207
 H580 H 0.51763 0.19351 0.87024
 H581 H 0.46537 0.13749 0.91799
 H582 H 0.46652 0.10503 0.87998
 C583 C 0.99730 0.73494 0.44527
 C584 C 0.99873 0.71752 0.42255
 C585 C 0.99681 0.68934 0.42634
 C586 C 0.99345 0.67877 0.45320
 C587 C 0.99185 0.69615 0.47583
 C588 C 0.99342 0.72440 0.47206
 N589 N 0.99848 0.67185 0.40280
 N590 N 0.99924 0.64618 0.40559
 C591 C 1.00054 0.62796 0.38269
 C592 C 1.00331 0.60026 0.38802
 C593 C 1.00430 0.58168 0.36636
 C594 C 1.00237 0.59052 0.33886
 C595 C 0.99952 0.61839 0.33350
 C596 C 0.99873 0.63703 0.35525
 H597 H 0.99975 0.75659 0.44189
 H598 H 1.00164 0.72595 0.40201
 H599 H 0.99206 0.65706 0.45675
 H600 H 0.98955 0.68727 0.49616
 H601 H 1.00458 0.59304 0.40909
 H602 H 1.00604 0.56031 0.37117
 H603 H 0.99814 0.62577 0.31249
 H604 H 0.99653 0.65838 0.35065
 C605 C 1.20158 0.49104 0.02260
 C606 C 1.18123 0.48843 0.04342
 C607 C 1.18818 0.49238 0.07100
 C608 C 1.21617 0.49819 0.07774
 C609 C 1.23671 0.50065 0.05677
 C610 C 1.22935 0.49790 0.02899
 N611 N 1.16610 0.49097 0.09132
 N612 N 1.16969 0.49520 0.11692
 C613 C 1.14644 0.49425 0.13607
 C614 C 1.15096 0.49925 0.16408
 C615 C 1.12842 0.49937 0.18294
 C616 C 1.10092 0.49446 0.17402
 C617 C 1.09653 0.48923 0.14591
 C618 C 1.11902 0.48910 0.12714
 H619 H 1.19537 0.48765 0.00153
 H620 H 1.15980 0.48361 0.03803
 H621 H 1.22206 0.50104 0.09902
 H622 H 1.25818 0.50518 0.06219
 H623 H 1.17196 0.50323 0.17126
 H624 H 1.13253 0.50317 0.20450
 H625 H 1.07562 0.48583 0.13826
 H626 H 1.11487 0.48531 0.10559
 C627 C 0.52859 0.02476 0.70667
 C628 C 0.55132 0.02730 0.68825
 C629 C 0.57189 0.00757 0.68750
 C630 C 0.56982 -0.01454 0.70593
 C631 C 0.54718 -0.01695 0.72453
 C632 C 0.52640 0.00266 0.72496
 N633 N 0.59394 0.00992 0.66717
 N634 N 0.61168 -0.00862 0.66340
 C635 C 0.63321 -0.00646 0.64251
 C636 C 0.65013 -0.02877 0.63746
 C637 C 0.67028 -0.02786 0.61618
 C638 C 0.67398 -0.00444 0.59972
 C639 C 0.65740 0.01816 0.60525
 C640 C 0.63713 0.01715 0.62639
 H641 H 0.51247 0.03983 0.70636
 H642 H 0.55259 0.04433 0.67405
 H643 H 0.58540 -0.03012 0.70566
 H644 H 0.54568 -0.03451 0.73797
 H645 H 0.64735 -0.04706 0.64977
 H646 H 0.68295 -0.04547 0.61255
 H647 H 0.65958 0.03636 0.59272
 H648 H 0.62431 0.03467 0.62988
 C649 C -0.23995 0.48952 0.94673
 C650 C -0.22171 0.48745 0.92396
 C651 C -0.19276 0.48716 0.92769
 C652 C -0.18225 0.48857 0.95457
 C653 C -0.20046 0.49085 0.97725
 C654 C -0.22942 0.49176 0.97349
 N655 N -0.17440 0.48629 0.90400
 N656 N -0.14809 0.48424 0.90648
 C657 C -0.12904 0.48438 0.88335
 C658 C -0.10073 0.48016 0.88808
 C659 C -0.08122 0.48138 0.86631
 C660 C -0.08972 0.48705 0.83930
 C661 C -0.11824 0.49108 0.83451
 C662 C -0.13780 0.48966 0.85635
 H663 H -0.26228 0.48976 0.94342
 H664 H -0.23010 0.48628 0.90339
 H665 H -0.15997 0.48834 0.95805
 H666 H -0.19168 0.49220 0.99762
 H667 H -0.09372 0.47625 0.90882
 H668 H -0.05936 0.47861 0.87072
 H669 H -0.12538 0.49531 0.81389
 H670 H -0.15961 0.49307 0.85222
 C671 C 0.48269 0.00184 0.30340
 C672 C 0.46137 0.00414 0.32316
 C673 C 0.43344 0.00431 0.31531
 C674 C 0.42693 0.00262 0.28717
 C675 C 0.44840 0.00050 0.26725
 C676 C 0.47639 -0.00044 0.27532
 N677 N 0.41240 0.00606 0.33655
 N678 N 0.38630 0.00478 0.33198
 C679 C 0.36625 0.00629 0.35425
 C680 C 0.33776 0.00267 0.34887
 C681 C 0.31793 0.00307 0.37047
 C682 C 0.32636 0.00730 0.39783
 C683 C 0.35495 0.01130 0.40308
 C684 C 0.37470 0.01077 0.38155
 H685 H 0.50404 0.00205 0.31032
 H686 H 0.46662 0.00569 0.34476
 H687 H 0.40543 0.00297 0.28063
 H688 H 0.44317 -0.00057 0.24562
 H689 H 0.33095 -0.00076 0.32795
 H690 H 0.29601 0.00019 0.36579
 H691 H 0.36213 0.01423 0.42395
 H692 H 0.39659 0.01361 0.38632
 C693 C 0.24103 0.48475 0.94647
 C694 C 0.22444 0.48512 0.92294
 C695 C 0.20359 0.50444 0.92031
 C696 C 0.20059 0.52439 0.94075
 C697 C 0.21738 0.52426 0.96395
 C698 C 0.23701 0.50393 0.96741
 N699 N 0.18482 0.50280 0.89763
 N700 N 0.16179 0.51523 0.89844
 C701 C 0.14197 0.51416 0.87671
 C702 C 0.11520 0.52384 0.88198
 C703 C 0.09488 0.52257 0.86171
 C704 C 0.10114 0.51207 0.83539
 C705 C 0.12832 0.50269 0.83003
 C706 C 0.14853 0.50355 0.85059
 H707 H 0.25649 0.46924 0.94845
 H708 H 0.22713 0.46978 0.90722
 H709 H 0.18494 0.53979 0.93903
 H710 H 0.21428 0.53946 0.97975
 H711 H 0.10990 0.53192 0.90212
 H712 H 0.07411 0.52937 0.86695
 H713 H 0.13407 0.49488 0.80992
 H714 H 0.16923 0.49614 0.84603
 C715 C 0.54231 -0.03013 0.28356
 C716 C 0.56524 -0.03210 0.30071
 C717 C 0.58477 -0.01065 0.30244
 C718 C 0.58186 0.01248 0.28572
 C719 C 0.55884 0.01443 0.26839
 C720 C 0.53853 -0.00657 0.26790
 N721 N 0.60584 -0.01222 0.32291
 N722 N 0.62431 0.00635 0.32667
 C723 C 0.64361 0.00451 0.34886
 C724 C 0.66479 0.02440 0.35152
 C725 C 0.68261 0.02399 0.37413
 C726 C 0.67918 0.00380 0.39459
 C727 C 0.65826 -0.01639 0.39157
 C728 C 0.64071 -0.01612 0.36891
 H729 H 0.52688 -0.04659 0.28336
 H730 H 0.56727 -0.05000 0.31350
 H731 H 0.59680 0.02929 0.28669
 H732 H 0.55655 0.03263 0.25620
 H733 H 0.66719 0.04048 0.33630
 H734 H 0.69852 0.03985 0.37607
 H735 H 0.65542 -0.03237 0.40685
 H736 H 0.62450 -0.03173 0.36741
 C737 C 0.76957 0.47266 0.05140
 C738 C 0.78748 0.47220 0.07387
 C739 C 0.80319 0.49542 0.08094
 C740 C 0.80037 0.51941 0.06552
 C741 C 0.78258 0.51982 0.04295
 C742 C 0.76724 0.49640 0.03567
 N743 N 0.82279 0.49370 0.10286
 N744 N 0.83690 0.51426 0.11111
 C745 C 0.85740 0.51224 0.13218
 C746 C 0.87055 0.53595 0.14180
 C747 C 0.89150 0.53460 0.16149
 C748 C 0.89986 0.50936 0.17179
 C749 C 0.88640 0.48557 0.16220
 C750 C 0.86533 0.48698 0.14266
 H751 H 0.75819 0.45427 0.04590
 H752 H 0.78957 0.45356 0.08549
 H753 H 0.81240 0.53758 0.07046
 H754 H 0.78129 0.53823 0.03081
 H755 H 0.86463 0.55554 0.13389
 H756 H 0.90107 0.55334 0.16870
 H757 H 0.89260 0.46577 0.16928
 H758 H 0.85564 0.46832 0.13538
 C759 C 0.46703 -0.02439 0.70151
 C760 C 0.44632 -0.02636 0.68163
 C761 C 0.42339 -0.00927 0.68269
 C762 C 0.42130 0.00988 0.70405
 C763 C 0.44224 0.01209 0.72379
 C764 C 0.46522 -0.00506 0.72259
 N765 N 0.40324 -0.01112 0.66123
 N766 N 0.38015 0.00118 0.66234
 C767 C 0.36079 -0.00015 0.64012
 C768 C 0.33390 0.00986 0.64409
 C769 C 0.31479 0.00935 0.62257
 C770 C 0.32242 -0.00084 0.59644
 C771 C 0.34953 -0.01087 0.59259
 C772 C 0.36845 -0.01067 0.61423
 H773 H 0.48472 -0.03768 0.70017
 H774 H 0.44823 -0.04110 0.66522
 H775 H 0.40386 0.02347 0.70513
 H776 H 0.44058 0.02738 0.73965
 H777 H 0.32772 0.01799 0.66396
 H778 H 0.29400 0.01683 0.62649
 H779 H 0.35642 -0.01833 0.57268
 H780 H 0.38924 -0.01827 0.61054
   
