data_POSCAR
  _audit_creation_date              2014-09-24
  _audit_creation_method            'ToBaCCo'
  _symmetry_space_group_name_H-M    'P1'
  _symmetry_Int_Tables_number       1
  _symmetry_cell_setting            triclinic
  loop_
  _symmetry_equiv_pos_as_xyz
 x,y,z
_cell_length_a 57.0083
_cell_length_b 56.7472
_cell_length_c 50.3660
_cell_angle_alpha 90.325400
_cell_angle_beta 90.129200
_cell_angle_gamma 90.066100
loop_
  _atom_site_label
  _atom_site_type_symbol
  _atom_site_fract_x
  _atom_site_fract_y
  _atom_site_fract_z
N1 N 0.19690 1.24521 0.16974
 N2 N 0.17959 1.24386 0.18681
 C3 C 0.16434 1.26145 0.18215
 C4 C 0.17243 1.27466 0.16087
 C5 C 0.19330 1.26372 0.15365
 H6 H 0.14828 1.26398 0.19311
 H7 H 0.20489 1.26846 0.13761
 Cu8 Cu 0.17807 1.21835 0.21239
 Cu9 Cu 0.22216 1.22204 0.16859
 Cu10 Cu 0.21954 1.17659 0.21439
 N11 N 0.17655 1.19284 0.23794
 N12 N 0.19295 1.17663 0.23871
 C13 C 0.18736 1.16055 0.25717
 C14 C 0.16609 1.16683 0.26866
 C15 C 0.15988 1.18758 0.25586
 H16 H 0.19784 1.14515 0.26131
 H17 H 0.14417 1.19788 0.25881
 N18 N 0.24493 1.17965 0.18813
 N19 N 0.24593 1.19689 0.17069
 C20 C 0.26460 1.19342 0.15481
 C21 C 0.27589 1.17295 0.16251
 C22 C 0.26291 1.16478 0.18378
 H23 H 0.26914 1.20454 0.13826
 H24 H 0.26603 1.14892 0.19498
 H25 H 0.20297 1.19426 0.18381
 H26 H 0.22018 1.21243 0.20791
 N27 N 0.79992 0.75412 0.16288
 N28 N 0.81673 0.75530 0.18071
 C29 C 0.83233 0.73802 0.17594
 C30 C 0.82487 0.72515 0.15403
 C31 C 0.80418 0.73595 0.14627
 H32 H 0.84833 0.73550 0.18710
 H33 H 0.79320 0.73125 0.12953
 Cu34 Cu 0.81772 0.77994 0.20767
 Cu35 Cu 0.77466 0.77707 0.16151
 Cu36 Cu 0.77659 0.82268 0.20738
 N37 N 0.81915 0.80669 0.23192
 N38 N 0.80294 0.82310 0.23205
 C39 C 0.80858 0.83960 0.25028
 C40 C 0.82969 0.83338 0.26223
 C41 C 0.83579 0.81228 0.24989
 H42 H 0.79825 0.85522 0.25398
 H43 H 0.85139 0.80191 0.25320
 N44 N 0.75135 0.81922 0.18092
 N45 N 0.75067 0.80192 0.16334
 C46 C 0.73195 0.80497 0.14738
 C47 C 0.72027 0.82524 0.15519
 C48 C 0.73305 0.83369 0.17666
 H49 H 0.72733 0.79340 0.13106
 H50 H 0.72970 0.84961 0.18789
 H51 H 0.79424 0.80422 0.17808
 H52 H 0.77569 0.78662 0.20128
 N53 N 0.80372 1.24838 -0.16724
 N54 N 0.81952 1.24798 -0.18619
 C55 C 0.83463 1.26594 -0.18242
 C56 C 0.82794 1.27836 -0.15987
 C57 C 0.80818 1.26664 -0.15083
 H58 H 0.84954 1.26947 -0.19502
 H59 H 0.79818 1.27060 -0.13315
 Cu60 Cu 0.81937 1.22365 -0.21353
 Cu61 Cu 0.77927 1.22454 -0.16441
 Cu62 Cu 0.78228 1.17770 -0.20852
 N63 N 0.82304 1.19548 -0.23528
 N64 N 0.80831 1.17777 -0.23350
 C65 C 0.81487 1.16063 -0.25046
 C66 C 0.83499 1.16785 -0.26370
 C67 C 0.83959 1.19020 -0.25341
 H68 H 0.80577 1.14401 -0.25249
 H69 H 0.85398 1.20177 -0.25838
 N70 N 0.75735 1.18083 -0.18176
 N71 N 0.75627 1.19862 -0.16483
 C72 C 0.73806 1.19520 -0.14831
 C73 C 0.72707 1.17423 -0.15515
 C74 C 0.73982 1.16566 -0.17651
 H75 H 0.73337 1.20696 -0.13224
 H76 H 0.73703 1.14919 -0.18691
 H77 H 0.79999 1.19871 -0.18126
 H78 H 0.77860 1.21383 -0.20366
 N79 N 0.19996 0.75229 -0.16771
 N80 N 0.18238 0.75306 -0.18460
 C81 C 0.16747 0.73527 -0.17937
 C82 C 0.17612 0.72262 -0.15801
 C83 C 0.19684 0.73400 -0.15120
 H84 H 0.15117 0.73222 -0.18981
 H85 H 0.20863 0.72961 -0.13516
 Cu86 Cu 0.18018 0.77813 -0.21066
 Cu87 Cu 0.22487 0.77589 -0.16732
 Cu88 Cu 0.22109 0.82049 -0.21401
 N89 N 0.17797 0.80320 -0.23670
 N90 N 0.19418 0.81960 -0.23799
 C91 C 0.18818 0.83529 -0.25673
 C92 C 0.16684 0.82855 -0.26784
 C93 C 0.16101 0.80795 -0.25454
 H94 H 0.19842 0.85076 -0.26128
 H95 H 0.14538 0.79741 -0.25713
 N96 N 0.24686 0.81825 -0.18798
 N97 N 0.24829 0.80138 -0.17015
 C98 C 0.26705 0.80549 -0.15448
 C99 C 0.27799 0.82601 -0.16274
 C100 C 0.26465 0.83350 -0.18413
 H101 H 0.27195 0.79466 -0.13781
 H102 H 0.26722 0.84930 -0.19561
 H103 H 0.20504 0.80311 -0.18291
 H104 H 0.22223 0.78482 -0.20685
 C105 C 0.47396 0.98572 -0.01572
 C106 C 0.48656 1.00332 -0.00214
 C107 C 0.47448 1.02178 0.01045
 C108 C 0.44987 1.02266 0.00978
 C109 C 0.43751 1.00508 -0.00418
 C110 C 0.44937 0.98667 -0.01721
 C111 C 0.51243 1.00261 -0.00144
 C112 C 0.52550 1.02118 -0.01226
 C113 C 0.55012 1.02055 -0.01200
 C114 C 0.56153 1.00124 -0.00038
 C115 C 0.54868 0.98259 0.01069
 C116 C 0.52406 0.98335 0.00991
 H117 H 0.48340 0.97176 -0.02583
 H118 H 0.48429 1.03538 0.02083
 H119 H 0.51644 1.03604 -0.02099
 H120 H 0.51390 0.96901 0.01819
 H121 H 0.41851 1.00537 -0.00433
 H122 H 0.58052 1.00071 0.00004
 C123 C -0.01580 0.47546 0.99028
 C124 C 0.00276 0.48726 1.00297
 C125 C 0.02023 0.47430 1.01601
 C126 C 0.01900 0.44960 1.01687
 C127 C 0.00049 0.43801 1.00374
 C128 C -0.01696 0.45076 0.99036
 C129 C 0.00355 0.51322 1.00313
 C130 C -0.01494 0.52610 1.01443
 C131 C -0.01450 0.55082 1.01459
 C132 C 0.00461 0.56253 1.00300
 C133 C 0.02316 0.54988 0.99141
 C134 C 0.02258 0.52514 0.99177
 H135 H -0.02932 0.48557 0.98036
 H136 H 0.03427 0.48353 1.02625
 H137 H -0.02967 0.51679 1.02303
 H138 H 0.03681 0.51511 0.98304
 H139 H -0.00003 0.41893 1.00345
 H140 H 0.00497 0.58162 1.00288
 C141 C 0.98317 -0.01690 0.47166
 C142 C 0.99844 -0.00211 0.48586
 C143 C 1.01312 0.01350 0.47229
 C144 C 1.01268 0.01447 0.44442
 C145 C 0.99731 -0.00047 0.43038
 C146 C 0.98240 -0.01613 0.44381
 C147 C 0.99867 -0.00264 0.51503
 C148 C 1.01286 -0.01888 0.52838
 C149 C 1.01297 -0.01968 0.55625
 C150 C 0.99865 -0.00396 0.57054
 C151 C 0.98424 0.01232 0.55734
 C152 C 0.98444 0.01289 0.52947
 H153 H 0.97162 -0.02864 0.48240
 H154 H 1.02461 0.02511 0.48349
 H155 H 1.02355 -0.03105 0.51700
 H156 H 0.97324 0.02511 0.51891
 H157 H 0.99731 -0.00028 0.40888
 H158 H 0.99916 -0.00401 0.59204
 C159 C 0.15994 0.32368 1.11359
 C160 C 0.13830 0.33167 1.12298
 C161 C 0.12836 0.32129 1.14539
 C162 C 0.13974 0.30273 1.15814
 C163 C 0.16140 0.29409 1.14866
 C164 C 0.17144 0.30511 1.12630
 C165 C 0.12559 0.34967 1.10901
 C166 C 0.11411 0.36417 1.09741
 C167 C 0.09967 0.38039 1.08395
 C168 C 0.08649 0.39353 1.07258
 C169 C 0.06977 0.40828 1.05918
 C170 C 0.04587 0.40295 1.06094
 C171 C 0.02941 0.41657 1.04743
 C172 C 0.03663 0.43574 1.03184
 C173 C 0.06067 0.44123 1.03046
 C174 C 0.07716 0.42752 1.04404
 H175 H 0.16778 0.33155 1.09617
 H176 H 0.11155 0.32731 1.15280
 H177 H 0.13121 0.29514 1.17522
 H178 H 0.18801 0.29934 1.11818
 H179 H 0.03995 0.38814 1.07266
 H180 H 0.01100 0.41216 1.04923
 H181 H 0.06674 0.45577 1.01844
 H182 H 0.09564 0.43177 1.04252
 C183 C -0.13155 0.67597 1.14072
 C184 C -0.13829 0.66850 1.11532
 C185 C -0.15756 0.67898 1.10287
 C186 C -0.16977 0.69720 1.11555
 C187 C -0.16285 0.70518 1.14092
 C188 C -0.14370 0.69416 1.15343
 C189 C -0.12462 0.65098 1.10159
 C190 C -0.11255 0.63679 1.09013
 C191 C -0.09776 0.62073 1.07678
 C192 C -0.08459 0.60751 1.06541
 C193 C -0.06824 0.59234 1.05190
 C194 C -0.05944 0.59881 1.02707
 C195 C -0.04236 0.58500 1.01466
 C196 C -0.03378 0.56455 1.02697
 C197 C -0.04314 0.55785 1.05164
 C198 C -0.06023 0.57171 1.06404
 H199 H -0.11665 0.66797 1.15056
 H200 H -0.16291 0.67337 1.08316
 H201 H -0.18432 0.70523 1.10521
 H202 H -0.13797 0.69955 1.17303
 H203 H -0.06551 0.61473 1.01749
 H204 H -0.03579 0.59037 0.99547
 H205 H -0.03675 0.54230 1.06169
 H206 H -0.06685 0.56660 1.08333
 C207 C -0.12533 0.32358 0.85776
 C208 C -0.13604 0.33583 0.87862
 C209 C -0.15886 0.32992 0.88628
 C210 C -0.17077 0.31153 0.87344
 C211 C -0.15997 0.29873 0.85278
 C212 C -0.13720 0.30521 0.84488
 C213 C -0.12309 0.35359 0.89298
 C214 C -0.11169 0.36788 0.90523
 C215 C -0.09770 0.38391 0.91979
 C216 C -0.08518 0.39697 0.93240
 C217 C -0.06957 0.41170 0.94766
 C218 C -0.06319 0.40504 0.97338
 C219 C -0.04658 0.41815 0.98757
 C220 C -0.03603 0.43808 0.97615
 C221 C -0.04304 0.44507 0.95058
 C222 C -0.05968 0.43190 0.93640
 H223 H -0.10763 0.32796 0.85173
 H224 H -0.16734 0.33930 0.90240
 H225 H -0.18835 0.30731 0.87989
 H226 H -0.12823 0.29580 0.82920
 H227 H -0.07073 0.38944 0.98229
 H228 H -0.04179 0.41256 1.00737
 H229 H -0.03507 0.46021 0.94120
 H230 H -0.06441 0.43715 0.91644
 C231 C 0.13394 0.67278 0.85769
 C232 C 0.14213 0.66547 0.88251
 C233 C 0.16189 0.67628 0.89372
 C234 C 0.17322 0.69459 0.88037
 C235 C 0.16487 0.70240 0.85560
 C236 C 0.14522 0.69108 0.84431
 C237 C 0.12948 0.64777 0.89703
 C238 C 0.11829 0.63349 0.90932
 C239 C 0.10448 0.61742 0.92383
 C240 C 0.09206 0.60430 0.93625
 C241 C 0.07644 0.58939 0.95105
 C242 C 0.06884 0.59649 0.97625
 C243 C 0.05207 0.58321 0.98977
 C244 C 0.04260 0.56267 0.97821
 C245 C 0.05089 0.55525 0.95323
 C246 C 0.06767 0.56857 0.93972
 H247 H 0.11863 0.66456 0.84882
 H248 H 0.16832 0.67084 0.91300
 H249 H 0.18816 0.70289 0.88983
 H250 H 0.13835 0.69640 0.82523
 H251 H 0.07550 0.61257 0.98521
 H252 H 0.04628 0.58917 1.00914
 H253 H 0.04375 0.53964 0.94372
 H254 H 0.07335 0.56297 0.92017
 C255 C 1.11799 0.14972 0.31507
 C256 C 1.12657 0.12847 0.32502
 C257 C 1.14854 0.12027 0.31694
 C258 C 1.16177 0.13307 0.29864
 C259 C 1.15320 0.15438 0.28798
 C260 C 1.13115 0.16261 0.29678
 C261 C 1.11241 0.11462 0.34271
 C262 C 1.10028 0.10282 0.35702
 C263 C 1.08576 0.08874 0.37314
 C264 C 1.07313 0.07646 0.38637
 C265 C 1.05783 0.06153 0.40155
 C266 C 1.06640 0.04943 0.42368
 C267 C 1.05169 0.03427 0.43780
 C268 C 1.02820 0.03101 0.42991
 C269 C 1.01971 0.04344 0.40778
 C270 C 1.03444 0.05858 0.39373
 H271 H 1.10095 0.15621 0.32117
 H272 H 1.15535 0.10380 0.32451
 H273 H 1.17856 0.12594 0.29281
 H274 H 1.12368 0.17881 0.28945
 H275 H 1.08450 0.05152 0.42985
 H276 H 1.05881 0.02472 0.45452
 H277 H 1.00165 0.04152 0.40142
 H278 H 1.02761 0.06788 0.37664
 C279 C 1.11804 -0.15561 0.68589
 C280 C 1.12633 -0.13442 0.67544
 C281 C 1.14833 -0.12590 0.68313
 C282 C 1.16187 -0.13826 0.70153
 C283 C 1.15361 -0.15947 0.71272
 C284 C 1.13152 -0.16806 0.70431
 C285 C 1.11187 -0.12089 0.65773
 C286 C 1.09959 -0.10919 0.64344
 C287 C 1.08502 -0.09510 0.62736
 C288 C 1.07245 -0.08277 0.61413
 C289 C 1.05729 -0.06770 0.59890
 C290 C 1.06578 -0.05628 0.57631
 C291 C 1.05129 -0.04090 0.56218
 C292 C 1.02812 -0.03671 0.57055
 C293 C 1.01967 -0.04854 0.59307
 C294 C 1.03418 -0.06391 0.60715
 H295 H 1.10100 -0.16238 0.68007
 H296 H 1.15492 -0.10948 0.67515
 H297 H 1.17867 -0.13085 0.70703
 H298 H 1.12427 -0.18421 0.71208
 H299 H 1.08368 -0.05903 0.56982
 H300 H 1.05837 -0.03186 0.54510
 H301 H 1.00181 -0.04595 0.59976
 H302 H 1.02742 -0.07267 0.62459
 C303 C 0.84698 -0.11943 0.31057
 C304 C 0.86858 -0.12786 0.31957
 C305 C 0.87703 -0.14943 0.31012
 C306 C 0.86415 -0.16238 0.29140
 C307 C 0.84246 -0.15394 0.28172
 C308 C 0.83402 -0.13229 0.29184
 C309 C 0.88253 -0.11395 0.33767
 C310 C 0.89446 -0.10211 0.35237
 C311 C 0.90867 -0.08800 0.36906
 C312 C 0.92098 -0.07569 0.38284
 C313 C 0.93586 -0.06070 0.39873
 C314 C 0.94766 -0.06971 0.42086
 C315 C 0.96262 -0.05518 0.43577
 C316 C 0.96600 -0.03148 0.42862
 C317 C 0.95385 -0.02257 0.40651
 C318 C 0.93893 -0.03709 0.39167
 H319 H 0.84025 -0.10274 0.31780
 H320 H 0.89376 -0.15614 0.31697
 H321 H 0.87148 -0.17887 0.28457
 H322 H 0.81749 -0.12500 0.28537
 H323 H 0.94547 -0.08799 0.42646
 H324 H 0.97187 -0.06260 0.45256
 H325 H 0.95578 -0.00430 0.40080
 H326 H 0.92986 -0.02994 0.37460
 C327 C 0.85422 0.11931 0.69090
 C328 C 0.87488 0.12871 0.68050
 C329 C 0.88206 0.15134 0.68804
 C330 C 0.86879 0.16444 0.70621
 C331 C 0.84806 0.15505 0.71728
 C332 C 0.84091 0.13230 0.70905
 C333 C 0.88901 0.11475 0.66276
 C334 C 0.90083 0.10264 0.64832
 C335 C 0.91467 0.08802 0.63191
 C336 C 0.92650 0.07517 0.61831
 C337 C 0.94066 0.05943 0.60261
 C338 C 0.95248 0.06765 0.58016
 C339 C 0.96655 0.05232 0.56528
 C340 C 0.96900 0.02859 0.57275
 C341 C 0.95689 0.02049 0.59525
 C342 C 0.94285 0.03582 0.61006
 H343 H 0.84847 0.10179 0.68517
 H344 H 0.89806 0.15879 0.68008
 H345 H 0.87510 0.18178 0.71162
 H346 H 0.82513 0.12421 0.71661
 H347 H 0.95095 0.08591 0.57425
 H348 H 0.97585 0.05913 0.54824
 H349 H 0.95814 0.00224 0.60128
 H350 H 0.93373 0.02926 0.62738
 C351 C 0.32771 1.16174 0.11687
 C352 C 0.33306 1.13829 0.12278
 C353 C 0.32027 1.12644 0.14225
 C354 C 0.30199 1.13784 0.15553
 C355 C 0.29616 1.16130 0.14945
 C356 C 0.30942 1.17320 0.13014
 C357 C 0.35093 1.12595 0.10814
 C358 C 0.36538 1.11504 0.09573
 C359 C 0.38165 1.10159 0.08101
 C360 C 0.39494 1.08952 0.06828
 C361 C 0.40998 1.07436 0.05291
 C362 C 0.43003 1.06443 0.06439
 C363 C 0.44346 1.04813 0.05008
 C364 C 0.43689 1.04146 0.02415
 C365 C 0.41708 1.05204 0.01255
 C366 C 0.40373 1.06837 0.02685
 H367 H 0.33748 1.17108 0.10179
 H368 H 0.32416 1.10824 0.14688
 H369 H 0.29216 1.12799 0.17008
 H370 H 0.30566 1.19131 0.12510
 H371 H 0.43496 1.06886 0.08460
 H372 H 0.45849 1.04013 0.05961
 H373 H 0.41178 1.04751 -0.00750
 H374 H 0.38826 1.07596 0.01777
 C375 C 0.68173 1.15857 -0.10296
 C376 C 0.67068 1.13914 -0.11479
 C377 C 0.67750 1.13167 -0.14013
 C378 C 0.69553 1.14334 -0.15346
 C379 C 0.70709 1.16264 -0.14157
 C380 C 0.69977 1.17030 -0.11627
 C381 C 0.65293 1.12630 -0.10064
 C382 C 0.63840 1.11502 -0.08888
 C383 C 0.62184 1.10118 -0.07521
 C384 C 0.60816 1.08877 -0.06359
 C385 C 0.59251 1.07320 -0.04976
 C386 C 0.57181 1.06535 -0.06194
 C387 C 0.55762 1.04871 -0.04931
 C388 C 0.56406 1.03965 -0.02440
 C389 C 0.58458 1.04813 -0.01203
 C390 C 0.59870 1.06479 -0.02465
 H391 H 0.67664 1.16446 -0.08330
 H392 H 0.66904 1.11665 -0.14947
 H393 H 0.70040 1.13713 -0.17302
 H394 H 0.70824 1.18501 -0.10642
 H395 H 0.56692 1.07166 -0.08144
 H396 H 0.54208 1.04232 -0.05944
 H397 H 0.58983 1.04172 0.00730
 H398 H 0.61468 1.07076 -0.01505
 C399 C 0.32677 0.84205 -0.11421
 C400 C 0.33462 0.86345 -0.12460
 C401 C 0.32465 0.87213 -0.14796
 C402 C 0.30664 0.85970 -0.16068
 C403 C 0.29819 0.83839 -0.15013
 C404 C 0.30873 0.82956 -0.12690
 C405 C 0.35209 0.87716 -0.11076
 C406 C 0.36619 0.88934 -0.09922
 C407 C 0.38201 0.90440 -0.08576
 C408 C 0.39485 0.91797 -0.07430
 C409 C 0.40928 0.93502 -0.06067
 C410 C 0.40368 0.95895 -0.06243
 C411 C 0.41689 0.97570 -0.04852
 C412 C 0.43594 0.96876 -0.03258
 C413 C 0.44172 0.94468 -0.03125
 C414 C 0.42840 0.92790 -0.04517
 H415 H 0.33432 0.83519 -0.09607
 H416 H 0.33052 0.88874 -0.15614
 H417 H 0.29923 0.86710 -0.17855
 H418 H 0.30289 0.81323 -0.11815
 H419 H 0.38897 0.96467 -0.07442
 H420 H 0.41224 0.99412 -0.05030
 H421 H 0.45619 0.93879 -0.01901
 H422 H 0.43285 0.90940 -0.04361
 C423 C 0.67416 0.84103 0.10374
 C424 C 0.66272 0.85983 0.11624
 C425 C 0.66954 0.86682 0.14179
 C426 C 0.68792 0.85526 0.15469
 C427 C 0.69982 0.83655 0.14216
 C428 C 0.69256 0.82942 0.11660
 C429 C 0.64496 0.87290 0.10231
 C430 C 0.63067 0.88448 0.09052
 C431 C 0.61470 0.89882 0.07654
 C432 C 0.60176 0.91171 0.06449
 C433 C 0.58718 0.92789 0.05003
 C434 C 0.56668 0.93688 0.06148
 C435 C 0.55368 0.95415 0.04828
 C436 C 0.56115 0.96273 0.02355
 C437 C 0.58140 0.95308 0.01188
 C438 C 0.59433 0.93580 0.02506
 H439 H 0.66919 0.83564 0.08383
 H440 H 0.66091 0.88147 0.15158
 H441 H 0.69289 0.86120 0.17435
 H442 H 0.70142 0.81533 0.10615
 H443 H 0.56107 0.93098 0.08088
 H444 H 0.53828 0.96141 0.05785
 H445 H 0.58739 0.95910 -0.00732
 H446 H 0.61018 0.92898 0.01603
   
