data_POSCAR
  _audit_creation_date              2014-09-24
  _audit_creation_method            'ToBaCCo'
  _symmetry_space_group_name_H-M    'P1'
  _symmetry_Int_Tables_number       1
  _symmetry_cell_setting            triclinic
  loop_
  _symmetry_equiv_pos_as_xyz
 x,y,z
_cell_length_a 41.2665
_cell_length_b 42.5291
_cell_length_c 39.8082
_cell_angle_alpha 88.390800
_cell_angle_beta 89.021900
_cell_angle_gamma 88.756500
loop_
  _atom_site_label
  _atom_site_type_symbol
  _atom_site_fract_x
  _atom_site_fract_y
  _atom_site_fract_z
C1 C 0.20835 0.20666 0.23714
 C2 C 0.19485 0.23091 0.21664
 C3 C 0.20990 0.24062 0.18640
 C4 C 0.23923 0.22619 0.17642
 C5 C 0.25395 0.20202 0.19632
 C6 C 0.23812 0.19275 0.22668
 H7 H 0.17257 0.24281 0.22410
 H8 H 0.25097 0.23500 0.15367
 H9 H 0.24731 0.17237 0.24052
 C10 C -0.18874 0.78781 0.25905
 C11 C -0.18145 0.75668 0.24955
 C12 C -0.19702 0.74312 0.22251
 C13 C -0.22110 0.76058 0.20527
 C14 C -0.22928 0.79140 0.21444
 C15 C -0.21340 0.80452 0.24148
 H16 H -0.16229 0.74321 0.26175
 H17 H -0.23232 0.75078 0.18362
 H18 H -0.22120 0.82769 0.24920
 C19 C -0.17973 0.20817 -0.25734
 C20 C -0.20555 0.19274 -0.24055
 C21 C -0.22158 0.20580 -0.21269
 C22 C -0.21243 0.23536 -0.20189
 C23 C -0.18722 0.25162 -0.21833
 C24 C -0.17138 0.23811 -0.24615
 H25 H -0.21416 0.17070 -0.24951
 H26 H -0.22386 0.24501 -0.17964
 H27 H -0.15134 0.25054 -0.25771
 C28 C 0.19364 0.80866 -0.21335
 C29 C 0.18021 0.78264 -0.19570
 C30 C 0.19048 0.77358 -0.16330
 C31 C 0.21465 0.79071 -0.14811
 C32 C 0.22857 0.81660 -0.16501
 C33 C 0.21822 0.82512 -0.19750
 H34 H 0.16012 0.77036 -0.20596
 H35 H 0.22245 0.78404 -0.12301
 H36 H 0.23060 0.84400 -0.21075
 C37 C 0.18906 1.18914 0.77293
 C38 C 0.17284 1.21403 0.78961
 C39 C 0.18789 1.23018 0.81526
 C40 C 0.21960 1.22160 0.82429
 C41 C 0.23640 1.19725 0.80812
 C42 C 0.22122 1.18153 0.78236
 H43 H 0.14797 1.22029 0.78389
 H44 H 0.23073 1.23303 0.84502
 H45 H 0.23529 1.16399 0.76902
 C46 C 0.78888 0.78907 0.74675
 C47 C 0.76188 0.80142 0.76464
 C48 C 0.74772 0.78466 0.79170
 C49 C 0.76017 0.75483 0.80076
 C50 C 0.78748 0.74165 0.78418
 C51 C 0.80108 0.75891 0.75672
 H52 H 0.75311 0.82518 0.75942
 H53 H 0.74767 0.74171 0.82051
 H54 H 0.82171 0.74913 0.74342
 C55 C 0.19239 0.80763 1.20085
 C56 C 0.17758 0.78156 1.18662
 C57 C 0.19119 0.76677 1.15841
 C58 C 0.22017 0.77793 1.14420
 C59 C 0.23554 0.80366 1.15767
 C60 C 0.22167 0.81820 1.18592
 H61 H 0.15560 0.77210 1.19759
 H62 H 0.23102 0.76627 1.12279
 H63 H 0.23289 0.83916 1.19460
 C64 C 0.78091 1.20694 1.25277
 C65 C 0.75308 1.19619 1.23673
 C66 C 0.73774 1.21424 1.21126
 C67 C 0.74991 1.24381 1.20209
 C68 C 0.77756 1.25515 1.21728
 C69 C 0.79263 1.23684 1.24272
 H70 H 0.74457 1.17265 1.24189
 H71 H 0.73792 1.25798 1.18276
 H72 H 0.81355 1.24626 1.25455
 O73 O 0.54115 0.97674 0.93446
 O74 O 0.49101 0.96093 1.04083
 O75 O 0.59434 0.98984 1.02315
 O76 O 0.44409 1.00417 0.96915
 O77 O 0.55077 0.96619 1.04262
 O78 O 0.47904 0.97946 0.93607
 O79 O 0.45039 0.99254 1.02834
 O80 O 0.55946 0.96329 0.98353
 C81 C 0.55648 0.95763 0.95316
 C82 C 0.46120 0.96535 1.03664
 C83 C 0.58127 0.97016 1.04527
 C84 C 0.45071 0.98319 0.94778
 O85 O 0.48085 1.03979 0.93077
 O86 O 0.54110 1.02650 1.06165
 O87 O 0.58004 1.01740 0.96238
 O88 O 0.47843 1.05217 1.03354
 O89 O 0.48256 1.01567 1.06895
 O90 O 0.54123 1.03926 0.93346
 O91 O 0.46829 1.06237 0.97677
 O92 O 0.56466 1.04240 1.01622
 Co93 Co 0.51100 1.00868 0.93944
 Co94 Co 0.51616 0.99412 1.04800
 Co95 Co 0.55912 1.00324 1.00044
 Co96 Co 0.46418 1.02642 1.00204
 O97 O 0.51100 1.00941 0.99465
 C98 C 0.46867 1.06274 0.94568
 C99 C 0.55781 1.04669 1.04622
 C100 C 0.57063 1.03722 0.94053
 C101 C 0.47488 1.04350 1.06287
 O102 O 0.02974 0.46722 0.04692
 O103 O 0.02740 0.52731 -0.04582
 O104 O -0.00231 0.43028 -0.02137
 O105 O -0.00845 0.55845 0.04186
 O106 O 0.03077 0.46664 -0.03816
 O107 O 0.02777 0.52320 0.04993
 O108 O -0.00339 0.56201 -0.01972
 O109 O -0.00342 0.43063 0.03926
 C110 C 0.02481 0.43874 0.04522
 C111 C 0.02158 0.55502 -0.03710
 C112 C 0.02506 0.43822 -0.03295
 C113 C 0.02035 0.55146 0.04790
 O114 O -0.03386 0.52068 0.07707
 O115 O -0.02914 0.46472 -0.06176
 O116 O -0.06407 0.45777 0.03768
 O117 O -0.06392 0.54493 -0.02557
 O118 O -0.03298 0.52307 -0.06401
 O119 O -0.03029 0.46395 0.07655
 O120 O -0.06718 0.53414 0.03762
 O121 O -0.06365 0.45363 -0.02266
 Co122 Co -0.00309 0.49387 0.05810
 Co123 Co -0.00239 0.49514 -0.04658
 Co124 Co -0.03206 0.44741 0.00835
 Co125 Co -0.03423 0.54462 0.00871
 O126 O -0.01793 0.49542 0.00679
 C127 C -0.06161 0.53048 0.06814
 C128 C -0.05666 0.45523 -0.05304
 C129 C -0.05825 0.45704 0.06805
 C130 C -0.05777 0.53920 -0.05569
 O131 O 1.07540 0.02271 0.46169
 O132 O 0.96648 0.03534 0.51206
 O133 O 0.97326 0.03371 0.45129
 O134 O 1.04235 0.00180 0.56407
 O135 O 0.93131 0.00899 0.47030
 O136 O 1.07359 0.02350 0.52512
 O137 O 0.98425 0.01327 0.55838
 O138 O 1.02952 0.04434 0.44942
 C139 C 1.05947 0.04572 0.45004
 C140 C 0.97147 0.03680 0.54295
 C141 C 0.94333 0.02852 0.44818
 C142 C 1.06344 0.02171 0.55502
 O143 O 1.07756 -0.03705 0.52757
 O144 O 0.96333 -0.04244 0.47742
 O145 O 1.04382 -0.01401 0.42655
 O146 O 0.97795 -0.04870 0.53814
 O147 O 0.94078 -0.01618 0.52936
 O148 O 1.07312 -0.03869 0.46457
 O149 O 1.03275 -0.05761 0.54270
 O150 O 0.98640 -0.02654 0.43174
 Co151 Co 1.06922 -0.00743 0.49473
 Co152 Co 0.96674 -0.00342 0.49374
 Co153 Co 1.00877 0.00778 0.44458
 Co154 Co 1.00953 -0.02148 0.54663
 O155 O 1.01578 -0.00724 0.49628
 C156 C 1.06265 -0.05878 0.54209
 C157 C 0.97003 -0.04680 0.44740
 C158 C 1.06403 -0.03553 0.43479
 C159 C 0.94930 -0.04111 0.54361
 C160 C 1.15839 0.16942 0.32318
 C161 C 1.14117 0.18487 0.29751
 C162 C 1.15756 0.19785 0.26963
 C163 C 1.19177 0.19548 0.26664
 C164 C 1.20876 0.18059 0.29351
 C165 C 1.19220 0.16767 0.32135
 C166 C 1.14122 0.15300 0.34981
 C167 C 1.12675 0.13786 0.37100
 C168 C 1.10962 0.11803 0.39479
 C169 C 1.07569 0.11800 0.39523
 C170 C 1.05912 0.09544 0.41468
 C171 C 1.07639 0.07250 0.43370
 C172 C 1.11042 0.07370 0.43433
 C173 C 1.12690 0.09629 0.41494
 H174 H 1.11490 0.18595 0.29847
 H175 H 1.14287 0.20787 0.24964
 H176 H 1.23496 0.17923 0.29359
 H177 H 1.20580 0.15580 0.34120
 H178 H 1.06209 0.13461 0.37954
 H179 H 1.03292 0.09510 0.41364
 H180 H 1.12439 0.05642 0.44880
 H181 H 1.15317 0.09599 0.41463
 C182 C 0.86824 -0.16822 0.33169
 C183 C 0.85217 -0.15015 0.30708
 C184 C 0.83295 -0.16449 0.28369
 C185 C 0.82933 -0.19753 0.28423
 C186 C 0.84537 -0.21535 0.30983
 C187 C 0.86461 -0.20080 0.33322
 C188 C 0.88888 -0.15291 0.35466
 C189 C 0.90589 -0.13849 0.37281
 C190 C 0.92551 -0.11924 0.39315
 C191 C 0.95016 -0.10150 0.37792
 C192 C 0.96602 -0.07905 0.39618
 C193 C 0.95732 -0.07402 0.42994
 C194 C 0.93375 -0.09314 0.44560
 C195 C 0.91784 -0.11554 0.42722
 H196 H 0.85502 -0.12488 0.30552
 H197 H 0.82257 -0.14945 0.26416
 H198 H 0.84260 -0.24051 0.31265
 H199 H 0.87672 -0.21500 0.35244
 H200 H 0.95619 -0.10408 0.35152
 H201 H 0.98413 -0.06475 0.38349
 H202 H 0.92651 -0.08974 0.47155
 H203 H 0.89867 -0.12903 0.43920
 C204 C 0.87613 0.16311 0.66637
 C205 C 0.87428 0.19593 0.66686
 C206 C 0.85555 0.21093 0.69158
 C207 C 0.83821 0.19332 0.71643
 C208 C 0.84023 0.16011 0.71502
 C209 C 0.85893 0.14533 0.69034
 C210 C 0.89604 0.14712 0.64197
 C211 C 0.91228 0.13184 0.62269
 C212 C 0.93082 0.11137 0.60117
 C213 C 0.92378 0.10999 0.56698
 C214 C 0.93839 0.08667 0.54737
 C215 C 0.95993 0.06431 0.56193
 C216 C 0.96801 0.06686 0.59590
 C217 C 0.95351 0.09024 0.61537
 H218 H 0.88734 0.20994 0.64818
 H219 H 0.85412 0.23634 0.69033
 H220 H 0.82888 0.14507 0.73392
 H221 H 0.86045 0.11985 0.69037
 H222 H 0.90608 0.12611 0.55580
 H223 H 0.93168 0.08524 0.52128
 H224 H 0.98463 0.05009 0.60776
 H225 H 0.95901 0.09100 0.64186
 C226 C 1.15671 -0.16089 0.69171
 C227 C 1.17194 -0.13972 0.71210
 C228 C 1.18453 -0.14977 0.74299
 C229 C 1.18212 -0.18147 0.75443
 C230 C 1.16711 -0.20267 0.73302
 C231 C 1.15453 -0.19243 0.70208
 C232 C 1.14187 -0.14951 0.66114
 C233 C 1.12900 -0.13830 0.63649
 C234 C 1.11315 -0.12278 0.60851
 C235 C 1.13058 -0.10239 0.58714
 C236 C 1.11431 -0.08293 0.56379
 C237 C 1.08033 -0.08351 0.56171
 C238 C 1.06322 -0.10545 0.58189
 C239 C 1.07956 -0.12488 0.60523
 H240 H 1.17339 -0.11511 0.70448
 H241 H 1.19447 -0.13196 0.75845
 H242 H 1.16564 -0.22747 0.73947
 H243 H 1.14288 -0.20909 0.68638
 H244 H 1.15656 -0.10042 0.58963
 H245 H 1.12816 -0.06630 0.54862
 H246 H 1.03705 -0.10644 0.58092
 H247 H 1.06580 -0.14042 0.62181
 C248 C 0.33955 1.15298 1.16420
 C249 C 0.33205 1.15485 1.19842
 C250 C 0.30427 1.17144 1.20909
 C251 C 0.28317 1.18652 1.18565
 C252 C 0.29174 1.18487 1.15116
 C253 C 0.31951 1.16825 1.14068
 C254 C 0.36715 1.13468 1.15278
 C255 C 0.38953 1.11933 1.14156
 C256 C 0.41515 1.10129 1.12572
 C257 C 0.42086 1.06963 1.13502
 C258 C 0.44219 1.05100 1.11587
 C259 C 0.45763 1.06385 1.08705
 C260 C 0.45308 1.09604 1.07906
 C261 C 0.43199 1.11460 1.09826
 H262 H 0.34759 1.14336 1.21690
 H263 H 0.30007 1.17297 1.23589
 H264 H 0.27630 1.19485 1.13177
 H265 H 0.32498 1.16676 1.11404
 H266 H 0.40779 1.05904 1.15612
 H267 H 0.44515 1.02623 1.12244
 H268 H 0.46474 1.10657 1.05703
 H269 H 0.42768 1.13900 1.09074
 C270 C 0.30270 0.87060 0.87951
 C271 C 0.27736 0.88575 0.86216
 C272 C 0.25308 0.86818 0.84810
 C273 C 0.25382 0.83512 0.85114
 C274 C 0.27912 0.82008 0.86909
 C275 C 0.30345 0.83774 0.88313
 C276 C 0.32825 0.88889 0.89273
 C277 C 0.34960 0.90472 0.90313
 C278 C 0.37504 0.92404 0.91486
 C279 C 0.36784 0.94823 0.93710
 C280 C 0.39241 0.96760 0.94770
 C281 C 0.42457 0.96298 0.93622
 C282 C 0.43156 0.93853 0.91394
 C283 C 0.40694 0.91923 0.90333
 H284 H 0.27649 0.91116 0.85928
 H285 H 0.23366 0.88045 0.83487
 H286 H 0.28048 0.79467 0.87159
 H287 H 0.32302 0.82576 0.89643
 H288 H 0.34321 0.95223 0.94609
 H289 H 0.38619 0.98622 0.96481
 H290 H 0.45605 0.93427 0.90471
 H291 H 0.41276 0.90064 0.88604
 C292 C 0.70219 0.84824 1.15781
 C293 C 0.69578 0.81655 1.16519
 C294 C 0.71803 0.79789 1.18353
 C295 C 0.74690 0.81079 1.19479
 C296 C 0.75311 0.84261 1.18701
 C297 C 0.73092 0.86114 1.16872
 C298 C 0.67967 0.86776 1.13887
 C299 C 0.66169 0.88498 1.12293
 C300 C 0.64121 0.90636 1.10369
 C301 C 0.60753 0.90297 1.10406
 C302 C 0.58789 0.92391 1.08528
 C303 C 0.60177 0.94846 1.06588
 C304 C 0.63559 0.95178 1.06587
 C305 C 0.65514 0.93086 1.08464
 H306 H 0.67361 0.80629 1.15684
 H307 H 0.71250 0.77354 1.18929
 H308 H 0.77537 0.85311 1.19473
 H309 H 0.73625 0.88557 1.16299
 H310 H 0.59646 0.88414 1.11879
 H311 H 0.56191 0.92078 1.08577
 H312 H 0.64698 0.97049 1.05127
 H313 H 0.68117 0.93378 1.08424
 C314 C 0.70580 1.15246 0.84101
 C315 C 0.73432 1.13768 0.82951
 C316 C 0.75787 1.15509 0.81217
 C317 C 0.75324 1.18761 0.80599
 C318 C 0.72459 1.20237 0.81787
 C319 C 0.70098 1.18485 0.83523
 C320 C 0.68165 1.13409 0.85857
 C321 C 0.66192 1.11796 0.87311
 C322 C 0.63888 1.09804 0.89032
 C323 C 0.64938 1.07627 0.91503
 C324 C 0.62721 1.05639 0.93132
 C325 C 0.59419 1.05802 0.92306
 C326 C 0.58385 1.08005 0.89823
 C327 C 0.60608 1.09989 0.88196
 H328 H 0.73838 1.11267 0.83397
 H329 H 0.77991 1.14314 0.80390
 H330 H 0.72027 1.22732 0.81331
 H331 H 0.67896 1.19652 0.84402
 H332 H 0.67473 1.07458 0.92163
 H333 H 0.63594 1.03978 0.95038
 H334 H 0.55859 1.08194 0.89135
 H335 H 0.59770 1.11661 0.86281
 C336 C 0.15879 0.30954 0.12537
 C337 C 0.17321 0.28312 0.11054
 C338 C 0.19090 0.26120 0.13016
 C339 C 0.19415 0.26539 0.16487
 C340 C 0.18040 0.29249 0.17928
 C341 C 0.16284 0.31437 0.15966
 C342 C 0.13831 0.33092 0.10619
 C343 C 0.12023 0.34906 0.09159
 C344 C 0.09776 0.37111 0.07602
 C345 C 0.10471 0.40318 0.07446
 C346 C 0.08134 0.42514 0.06326
 C347 C 0.05060 0.41529 0.05365
 C348 C 0.04426 0.38292 0.05402
 C349 C 0.06770 0.36098 0.06522
 H350 H 0.17014 0.27909 0.08405
 H351 H 0.20100 0.24040 0.11848
 H352 H 0.18286 0.29653 0.20585
 H353 H 0.15182 0.33475 0.17139
 H354 H 0.12783 0.41130 0.08289
 H355 H 0.08699 0.44989 0.06311
 H356 H 0.02088 0.37463 0.04659
 H357 H 0.06201 0.33622 0.06644
 C358 C -0.15307 0.33614 -0.17534
 C359 C -0.13104 0.31369 -0.18773
 C360 C -0.14217 0.28656 -0.20228
 C361 C -0.17562 0.28147 -0.20472
 C362 C -0.19766 0.30444 -0.19272
 C363 C -0.18642 0.33161 -0.17806
 C364 C -0.14109 0.36242 -0.15766
 C365 C -0.12967 0.38310 -0.14181
 C366 C -0.11449 0.40591 -0.12158
 C367 C -0.08605 0.42033 -0.13307
 C368 C -0.06810 0.43811 -0.11128
 C369 C -0.07831 0.44142 -0.07764
 C370 C -0.10790 0.42835 -0.06691
 C371 C -0.12580 0.41063 -0.08874
 H372 H -0.10518 0.31677 -0.18538
 H373 H -0.12457 0.26909 -0.21060
 H374 H -0.22353 0.30126 -0.19445
 H375 H -0.20369 0.34876 -0.16834
 H376 H -0.07696 0.41664 -0.15838
 H377 H -0.04546 0.44793 -0.12028
 H378 H -0.11646 0.43056 -0.04120
 H379 H -0.14767 0.39941 -0.07953
 C380 C 0.14136 0.69776 -0.11187
 C381 C 0.14874 0.72483 -0.09456
 C382 C 0.16544 0.74924 -0.11100
 C383 C 0.17481 0.74689 -0.14502
 C384 C 0.16785 0.71930 -0.16194
 C385 C 0.15123 0.69494 -0.14547
 C386 C 0.12248 0.67336 -0.09585
 C387 C 0.10611 0.65280 -0.08347
 C388 C 0.08605 0.62806 -0.06998
 C389 C 0.09213 0.59698 -0.07929
 C390 C 0.07144 0.57314 -0.06818
 C391 C 0.04424 0.58009 -0.04768
 C392 C 0.03866 0.61134 -0.03794
 C393 C 0.05945 0.63516 -0.04905
 H394 H 0.14109 0.72730 -0.06859
 H395 H 0.17014 0.77034 -0.09744
 H396 H 0.17509 0.71667 -0.18801
 H397 H 0.14566 0.67408 -0.15910
 H398 H 0.11259 0.59125 -0.09558
 H399 H 0.07649 0.54935 -0.07608
 H400 H 0.01801 0.61748 -0.02212
 H401 H 0.05446 0.65916 -0.04177
 C402 C -0.16437 0.65370 0.18516
 C403 C -0.14206 0.67524 0.19624
 C404 C -0.15276 0.70403 0.20877
 C405 C -0.18606 0.71176 0.21056
 C406 C -0.20843 0.68979 0.19976
 C407 C -0.19761 0.66092 0.18708
 C408 C -0.15250 0.62554 0.16943
 C409 C -0.14075 0.60337 0.15504
 C410 C -0.12471 0.57902 0.13617
 C411 C -0.09585 0.56505 0.14788
 C412 C -0.07635 0.54685 0.12649
 C413 C -0.08538 0.54278 0.09301
 C414 C -0.11562 0.55489 0.08232
 C415 C -0.13508 0.57298 0.10375
 H416 H -0.11626 0.67010 0.19442
 H417 H -0.13484 0.72063 0.21611
 H418 H -0.23422 0.69501 0.20098
 H419 H -0.21510 0.64453 0.17829
 H420 H -0.08746 0.56975 0.17286
 H421 H -0.05324 0.53781 0.13547
 H422 H -0.12334 0.55203 0.05674
 H423 H -0.15725 0.58382 0.09433
 C424 C 1.14262 0.13670 0.69862
 C425 C 1.13256 0.16769 0.70443
 C426 C 1.14769 0.18505 0.72885
 C427 C 1.17345 0.17176 0.74797
 C428 C 1.18305 0.14027 0.74164
 C429 C 1.16782 0.12309 0.71731
 C430 C 1.12733 0.11863 0.67350
 C431 C 1.11518 0.10280 0.65264
 C432 C 1.10139 0.08322 0.62789
 C433 C 1.11316 0.08437 0.59471
 C434 C 1.10075 0.06446 0.57094
 C435 C 1.07641 0.04302 0.58010
 C436 C 1.06453 0.04224 0.61346
 C437 C 1.07697 0.06221 0.63717
 H438 H 1.11316 0.17856 0.68990
 H439 H 1.13981 0.20927 0.73152
 H440 H 1.20144 0.12804 0.75631
 H441 H 1.17560 0.09896 0.71326
 H442 H 1.13214 0.10047 0.58727
 H443 H 1.11036 0.06572 0.54546
 H444 H 1.04571 0.02613 0.62130
 H445 H 1.06773 0.06106 0.66281
 C446 C 0.83553 -0.15462 0.67096
 C447 C 0.80238 -0.15049 0.67747
 C448 C 0.78687 -0.16930 0.70198
 C449 C 0.80426 -0.19275 0.72066
 C450 C 0.83772 -0.19679 0.71315
 C451 C 0.85305 -0.17793 0.68867
 C452 C 0.85209 -0.13450 0.64689
 C453 C 0.86722 -0.11803 0.62741
 C454 C 0.88692 -0.09904 0.60499
 C455 C 0.91892 -0.10867 0.59819
 C456 C 0.93897 -0.08991 0.57784
 C457 C 0.92728 -0.06119 0.56394
 C458 C 0.89497 -0.05177 0.57047
 C459 C 0.87488 -0.07062 0.59097
 H460 H 0.78849 -0.13265 0.66369
 H461 H 0.76100 -0.16580 0.70542
 H462 H 0.85291 -0.21323 0.72725
 H463 H 0.87886 -0.18112 0.68404
 H464 H 0.92853 -0.13054 0.60899
 H465 H 0.96377 -0.09775 0.57327
 H466 H 0.88541 -0.02972 0.56011
 H467 H 0.85017 -0.06290 0.59617
 C468 C 1.14892 -0.14431 0.28318
 C469 C 1.18242 -0.14359 0.27776
 C470 C 1.19681 -0.15958 0.25094
 C471 C 1.17792 -0.17676 0.22875
 C472 C 1.14404 -0.17744 0.23504
 C473 C 1.12982 -0.16136 0.26187
 C474 C 1.13402 -0.12689 0.31007
 C475 C 1.12146 -0.11191 0.33225
 C476 C 1.10642 -0.09353 0.35831
 C477 C 1.08131 -0.07209 0.35041
 C478 C 1.06730 -0.05346 0.37537
 C479 C 1.07825 -0.05600 0.40864
 C480 C 1.10323 -0.07793 0.41645
 C481 C 1.11724 -0.09652 0.39141
 H482 H 1.19752 -0.13063 0.29429
 H483 H 1.22293 -0.15911 0.24855
 H484 H 1.12790 -0.18900 0.21846
 H485 H 1.10376 -0.16183 0.26564
 H486 H 1.07272 -0.06960 0.32489
 H487 H 1.04801 -0.03694 0.36855
 H488 H 1.11219 -0.08049 0.44182
 H489 H 1.13667 -0.11304 0.39781
 C490 C 0.83098 0.14719 0.32314
 C491 C 0.79770 0.14409 0.31886
 C492 C 0.78107 0.16399 0.29615
 C493 C 0.79745 0.18754 0.27704
 C494 C 0.83109 0.19052 0.28227
 C495 C 0.84754 0.17055 0.30498
 C496 C 0.84850 0.12607 0.34555
 C497 C 0.86403 0.10863 0.36381
 C498 C 0.88363 0.08826 0.38508
 C499 C 0.86956 0.06422 0.40477
 C500 C 0.88894 0.04456 0.42530
 C501 C 0.92261 0.04880 0.42632
 C502 C 0.93650 0.07292 0.40634
 C503 C 0.91713 0.09249 0.38589
 H504 H 0.78454 0.12624 0.33306
 H505 H 0.75517 0.16124 0.29451
 H506 H 0.84550 0.20706 0.26772
 H507 H 0.87342 0.17299 0.30790
 H508 H 0.84365 0.06069 0.40427
 H509 H 0.87762 0.02613 0.44037
 H510 H 0.96235 0.07677 0.40660
 H511 H 0.92830 0.11098 0.37073
 C512 C 0.13759 0.30086 -0.12759
 C513 C 0.16958 0.30549 -0.13847
 C514 C 0.18576 0.28273 -0.15753
 C515 C 0.17010 0.25504 -0.16599
 C516 C 0.13782 0.25075 -0.15522
 C517 C 0.12169 0.27353 -0.13614
 C518 C 0.12092 0.32424 -0.10794
 C519 C 0.10650 0.34386 -0.09190
 C520 C 0.08844 0.36734 -0.07367
 C521 C 0.09616 0.39912 -0.07772
 C522 C 0.07642 0.42226 -0.06304
 C523 C 0.04856 0.41384 -0.04430
 C524 C 0.04186 0.38175 -0.03909
 C525 C 0.06166 0.35868 -0.05374
 H526 H 0.18205 0.32664 -0.13217
 H527 H 0.21052 0.28680 -0.16574
 H528 H 0.12529 0.22948 -0.16090
 H529 H 0.09690 0.26974 -0.12786
 H530 H 0.11684 0.40608 -0.09311
 H531 H 0.08224 0.44675 -0.06748
 H532 H 0.02069 0.37451 -0.02465
 H533 H 0.05549 0.33414 -0.05041
 C534 C -0.17678 0.33942 0.17997
 C535 C -0.19049 0.31876 0.15777
 C536 C -0.20589 0.29180 0.17002
 C537 C -0.20790 0.28505 0.20479
 C538 C -0.19460 0.30628 0.22704
 C539 C -0.17907 0.33330 0.21467
 C540 C -0.15878 0.36563 0.16649
 C541 C -0.14320 0.38627 0.15312
 C542 C -0.12412 0.40903 0.13465
 C543 C -0.13430 0.41970 0.10291
 C544 C -0.11347 0.43707 0.08194
 C545 C -0.08209 0.44391 0.09244
 C546 C -0.07278 0.43484 0.12519
 C547 C -0.09365 0.41730 0.14612
 H548 H -0.18861 0.32311 0.13086
 H549 H -0.21532 0.27570 0.15218
 H550 H -0.19603 0.30189 0.25394
 H551 H -0.16843 0.34909 0.23208
 H552 H -0.15774 0.41329 0.09369
 H553 H -0.12138 0.44387 0.05692
 H554 H -0.04875 0.43978 0.13394
 H555 H -0.08543 0.40897 0.17056
 C556 C -0.16697 0.65722 -0.17860
 C557 C -0.16364 0.66583 -0.21259
 C558 C -0.17919 0.69318 -0.22525
 C559 C -0.19828 0.71265 -0.20400
 C560 C -0.20172 0.70292 -0.16984
 C561 C -0.18628 0.67564 -0.15746
 C562 C -0.14913 0.63089 -0.16417
 C563 C -0.13441 0.61027 -0.14923
 C564 C -0.11728 0.58778 -0.12810
 C565 C -0.08736 0.57470 -0.13824
 C566 C -0.06858 0.55710 -0.11517
 C567 C -0.07942 0.55292 -0.08167
 C568 C -0.11020 0.56485 -0.07230
 C569 C -0.12896 0.58211 -0.09537
 H570 H -0.14878 0.65161 -0.22925
 H571 H -0.17659 0.69837 -0.25188
 H572 H -0.21464 0.71714 -0.15172
 H573 H -0.18864 0.66943 -0.13095
 H574 H -0.07797 0.57919 -0.16346
 H575 H -0.04492 0.54826 -0.12304
 H576 H -0.11931 0.56184 -0.04676
 H577 H -0.15198 0.59227 -0.08719
 C578 C 0.14145 0.69056 0.11474
 C579 C 0.14462 0.69154 0.14964
 C580 C 0.16115 0.71609 0.16388
 C581 C 0.17471 0.74000 0.14334
 C582 C 0.17179 0.73857 0.10825
 C583 C 0.15521 0.71401 0.09406
 C584 C 0.12291 0.66620 0.10036
 C585 C 0.10659 0.64608 0.08887
 C586 C 0.08612 0.62241 0.07604
 C587 C 0.05537 0.63095 0.06414
 C588 C 0.03425 0.60786 0.05423
 C589 C 0.04364 0.57588 0.05611
 C590 C 0.07496 0.56755 0.06713
 C591 C 0.09603 0.59072 0.07714
 H592 H 0.13403 0.67351 0.16588
 H593 H 0.16338 0.71635 0.19094
 H594 H 0.18165 0.75684 0.09183
 H595 H 0.15272 0.71358 0.06703
 H596 H 0.04745 0.65541 0.06320
 H597 H 0.01036 0.61500 0.04569
 H598 H 0.08287 0.54312 0.06875
 H599 H 0.11977 0.58386 0.08637
 C600 C 0.32949 1.16680 0.84497
 C601 C 0.30712 1.14476 0.83511
 C602 C 0.27718 1.15473 0.82246
 C603 C 0.26916 1.18698 0.81946
 C604 C 0.29208 1.20905 0.82881
 C605 C 0.32208 1.19898 0.84156
 C606 C 0.35904 1.15582 0.86038
 C607 C 0.38262 1.14467 0.87402
 C608 C 0.40904 1.12888 0.89102
 C609 C 0.42882 1.10744 0.87370
 C610 C 0.45004 1.08725 0.89133
 C611 C 0.45154 1.08815 0.92658
 C612 C 0.43315 1.11121 0.94352
 C613 C 0.41192 1.13137 0.92582
 H614 H 0.31252 1.11978 0.83791
 H615 H 0.25991 1.13714 0.81605
 H616 H 0.28671 1.23404 0.82648
 H617 H 0.33921 1.21622 0.84923
 H618 H 0.42659 1.10515 0.84680
 H619 H 0.46394 1.06981 0.87757
 H620 H 0.43376 1.11249 0.97064
 H621 H 0.39651 1.14770 0.93950
 C622 C 0.32023 0.84353 1.11045
 C623 C 0.31825 0.84006 1.14549
 C624 C 0.29102 0.82650 1.16088
 C625 C 0.26536 0.81630 1.14137
 C626 C 0.26791 0.81928 1.10612
 C627 C 0.29515 0.83286 1.09080
 C628 C 0.34667 0.86030 1.09487
 C629 C 0.36795 0.87575 1.08209
 C630 C 0.39213 0.89603 1.06742
 C631 C 0.42512 0.89043 1.07344
 C632 C 0.44803 0.91232 1.06214
 C633 C 0.43804 0.94016 1.04501
 C634 C 0.40496 0.94491 1.03804
 C635 C 0.38222 0.92299 1.04914
 H636 H 0.33745 0.84841 1.16095
 H637 H 0.28990 0.82420 1.18803
 H638 H 0.24838 0.81205 1.09044
 H639 H 0.29626 0.83575 1.06368
 H640 H 0.43303 0.86967 1.08769
 H641 H 0.47332 0.90804 1.06792
 H642 H 0.39649 0.96607 1.02489
 H643 H 0.35675 0.92760 1.04439
 C644 C 0.66252 1.17198 1.15557
 C645 C 0.68598 1.19013 1.13887
 C646 C 0.70988 1.20457 1.15709
 C647 C 0.71070 1.20101 1.19233
 C648 C 0.68653 1.18333 1.20897
 C649 C 0.66262 1.16888 1.19067
 C650 C 0.64009 1.15455 1.13644
 C651 C 0.62248 1.13892 1.12013
 C652 C 0.60295 1.11889 1.10056
 C653 C 0.57934 1.10025 1.11637
 C654 C 0.56342 1.07771 1.09822
 C655 C 0.57108 1.07345 1.06405
 C656 C 0.59376 1.09328 1.04800
 C657 C 0.60965 1.11579 1.06620
 H658 H 0.68634 1.19240 1.11169
 H659 H 0.72843 1.21756 1.14346
 H660 H 0.68637 1.18040 1.23609
 H661 H 0.64467 1.15474 1.20384
 H662 H 0.57406 1.10236 1.14297
 H663 H 0.54598 1.06286 1.11123
 H664 H 0.60017 1.09053 1.02173
 H665 H 0.62800 1.13000 1.05375
 C666 C 0.67311 0.82933 0.85136
 C667 C 0.69775 0.81148 0.86690
 C668 C 0.72163 0.79650 0.84745
 C669 C 0.72121 0.79921 0.81212
 C670 C 0.69605 0.81681 0.79670
 C671 C 0.67216 0.83178 0.81623
 C672 C 0.65005 0.84678 0.87139
 C673 C 0.63131 0.86255 0.88766
 C674 C 0.60960 0.88299 0.90596
 C675 C 0.58448 0.89885 0.88898
 C676 C 0.56606 0.92205 0.90504
 C677 C 0.57255 0.92976 0.93837
 C678 C 0.59676 0.91262 0.95587
 C679 C 0.61530 0.88943 0.93965
 H680 H 0.69890 0.80969 0.89406
 H681 H 0.74097 0.78354 0.86008
 H682 H 0.69495 0.81910 0.76958
 H683 H 0.65325 0.84568 0.80395
 H684 H 0.57994 0.89413 0.86288
 H685 H 0.54750 0.93475 0.89094
 H686 H 0.60239 0.91814 0.98150
 H687 H 0.63482 0.87739 0.95297
   
