data_POSCAR
  _audit_creation_date              2014-09-24
  _audit_creation_method            'ToBaCCo'
  _symmetry_space_group_name_H-M    'P1'
  _symmetry_Int_Tables_number       1
  _symmetry_cell_setting            triclinic
  loop_
  _symmetry_equiv_pos_as_xyz
 x,y,z
_cell_length_a 21.5865
_cell_length_b 17.3072
_cell_length_c 22.7774
_cell_angle_alpha 94.321000
_cell_angle_beta 91.324600
_cell_angle_gamma 88.948600
loop_
  _atom_site_label
  _atom_site_type_symbol
  _atom_site_fract_x
  _atom_site_fract_y
  _atom_site_fract_z
C1 C 0.61917 0.68816 0.61282
 N2 N 0.61004 0.64805 0.66069
 C3 C 0.65166 0.59319 0.67637
 N4 N 0.70311 0.57874 0.64390
 C5 C 0.71187 0.61753 0.59521
 N6 N 0.66981 0.67218 0.57949
 C7 C 0.88859 0.29328 0.10960
 N8 N 0.85176 0.31361 0.06380
 C9 C 0.80760 0.37001 0.07293
 N10 N 0.80324 0.40935 0.12652
 C11 C 0.84115 0.39086 0.17166
 N12 N 0.88242 0.33137 0.16362
 C13 C 0.38163 0.21816 -0.10633
 N14 N 0.34201 0.19793 -0.06488
 C15 C 0.30343 0.13721 -0.07710
 N16 N 0.30545 0.09595 -0.13037
 C17 C 0.34702 0.11431 -0.17075
 N18 N 0.38447 0.17563 -0.15862
 C19 C 0.09930 0.81612 0.38194
 N20 N 0.10279 0.85141 0.33129
 C21 C 0.15318 0.89200 0.31856
 N22 N 0.20239 0.89582 0.35714
 C23 C 0.19872 0.86198 0.40929
 N24 N 0.14679 0.82328 0.42187
 N25 N 0.00628 0.15421 0.06706
 N26 N -0.00061 0.14169 0.12267
 C27 C -0.04405 0.19013 0.14619
 C28 C -0.06785 0.23342 0.10226
 C29 C -0.03585 0.20834 0.05201
 H30 H -0.05799 0.19263 0.19165
 H31 H -0.03879 0.23268 0.00963
 Cu32 Cu 0.04555 0.06044 0.15814
 Cu33 Cu 0.07963 0.11089 0.02603
 Cu34 Cu 0.19507 0.06807 0.13079
 N35 N 0.10492 0.00016 0.19963
 N36 N 0.16493 0.00883 0.19515
 C37 C 0.19416 -0.02881 0.23835
 C38 C 0.14921 -0.06537 0.26888
 C39 C 0.09361 -0.04608 0.24228
 H40 H 0.24376 -0.03042 0.24621
 H41 H 0.04768 -0.05995 0.25591
 N42 N 0.21253 0.09539 0.04910
 N43 N 0.16850 0.10426 0.00859
 C44 C 0.19454 0.11722 -0.04274
 C45 C 0.25783 0.11838 -0.03398
 C46 C 0.26795 0.10480 0.02460
 H47 H 0.16915 0.12943 -0.08258
 H48 H 0.31231 0.10160 0.04742
 H49 H 0.12040 0.02911 0.08154
 H50 H 0.11916 0.13402 0.10664
 N51 N 0.50064 0.82396 0.56585
 N52 N 0.51333 0.85232 0.61990
 C53 C 0.55919 0.81027 0.64325
 C54 C 0.57724 0.75315 0.60147
 C55 C 0.53944 0.76329 0.55251
 H56 H 0.57642 0.81866 0.68823
 H57 H 0.53709 0.72599 0.51224
 Cu58 Cu 0.46571 0.93712 0.65773
 Cu59 Cu 0.42757 0.86249 0.52298
 Cu60 Cu 0.31524 0.92357 0.62466
 N61 N 0.40508 0.99594 0.70412
 N62 N 0.34535 0.98656 0.69429
 C63 C 0.31401 1.02655 0.73770
 C64 C 0.35694 1.06439 0.77526
 C65 C 0.41407 1.04394 0.75247
 H66 H 0.26410 1.02888 0.74109
 H67 H 0.45893 1.06012 0.77117
 N68 N 0.29623 0.89052 0.54091
 N69 N 0.33910 0.87368 0.50117
 C70 C 0.31152 0.86240 0.44753
 C71 C 0.24827 0.87128 0.45431
 C72 C 0.24018 0.88852 0.51383
 H73 H 0.33547 0.84672 0.40706
 H74 H 0.19667 0.90100 0.53547
 H75 H 0.39018 0.95526 0.57897
 H76 H 0.39115 0.85425 0.60218
 N77 N 0.97922 0.69550 0.42705
 N78 N 0.96393 0.70164 0.37108
 C79 C 1.00379 0.74900 0.34800
 C80 C 1.04749 0.77193 0.39086
 C81 C 1.03060 0.73700 0.44074
 H82 H 1.00392 0.76105 0.30207
 H83 H 1.05388 0.74088 0.48341
 Cu84 Cu 0.90303 0.63434 0.32674
 Cu85 Cu 0.92952 0.63384 0.47683
 Cu86 Cu 0.83934 0.50154 0.40404
 N87 N 0.86828 0.53941 0.28892
 N88 N 0.84733 0.48433 0.31953
 C89 C 0.83257 0.42249 0.28273
 C90 C 0.84331 0.44127 0.22600
 C91 C 0.86564 0.51571 0.23137
 H92 H 0.81566 0.36825 0.29621
 H93 H 0.88216 0.54841 0.19640
 N94 N 0.81637 0.54963 0.48041
 N95 N 0.85155 0.60146 0.50957
 C96 C 0.82099 0.63158 0.55717
 C97 C 0.76410 0.59634 0.55740
 C98 C 0.76256 0.54482 0.50830
 H99 H 0.83734 0.67858 0.58723
 H100 H 0.72384 0.50986 0.49217
 H101 H 0.93443 0.57081 0.39230
 H102 H 0.86821 0.63868 0.40894
 N103 N 0.49911 0.35980 -0.06434
 N104 N 0.48350 0.37915 -0.11749
 C105 C 0.43628 0.33517 -0.13870
 C106 C 0.42080 0.28632 -0.09632
 C107 C 0.46114 0.30374 -0.04934
 H108 H 0.41735 0.33508 -0.18311
 H109 H 0.46676 0.27246 -0.01014
 Cu110 Cu 0.53184 0.45186 -0.15762
 Cu111 Cu 0.57690 0.39622 -0.02682
 Cu112 Cu 0.68305 0.41667 -0.13680
 N113 N 0.59283 0.49716 -0.20479
 N114 N 0.65169 0.47672 -0.20097
 C115 C 0.68238 0.50694 -0.24449
 C116 C 0.64063 0.55135 -0.27525
 C117 C 0.58434 0.54427 -0.24860
 H118 H 0.73155 0.49944 -0.25176
 H119 H 0.54001 0.56826 -0.26191
 N120 N 0.70719 0.39442 -0.05511
 N121 N 0.66661 0.39455 -0.01252
 C122 C 0.69674 0.38792 0.03903
 C123 C 0.75925 0.38174 0.02837
 C124 C 0.76464 0.38538 -0.03170
 H125 H 0.67460 0.38496 0.08092
 H126 H 0.80709 0.38406 -0.05610
 H127 H 0.61633 0.47044 -0.08634
 H128 H 0.60471 0.36591 -0.10925
   
