data_POSCAR
  _audit_creation_date              2014-09-24
  _audit_creation_method            'ToBaCCo'
  _symmetry_space_group_name_H-M    'P1'
  _symmetry_Int_Tables_number       1
  _symmetry_cell_setting            triclinic
  loop_
  _symmetry_equiv_pos_as_xyz
 x,y,z
_cell_length_a 21.1040
_cell_length_b 20.9573
_cell_length_c 8.8904
_cell_angle_alpha 88.185300
_cell_angle_beta 92.519400
_cell_angle_gamma 112.626900
loop_
  _atom_site_label
  _atom_site_type_symbol
  _atom_site_fract_x
  _atom_site_fract_y
  _atom_site_fract_z
C1 C 0.48943 0.95566 0.57006
 C2 C 0.50090 0.96517 0.41407
 C3 C 0.55841 1.02111 0.36432
 C4 C 0.60469 1.06603 0.46734
 C5 C 0.59572 1.05393 0.62168
 C6 C 0.53754 0.99957 0.67343
 H7 H 0.52938 0.99176 0.79333
 H8 H 0.56727 1.02932 0.24474
 C9 C 0.05668 0.52814 0.53323
 C10 C 0.04579 0.55461 0.39100
 C11 C -0.02161 0.54150 0.33832
 C12 C -0.07808 0.50220 0.42434
 C13 C -0.06702 0.47488 0.56539
 C14 C 0.00014 0.48662 0.61555
 H15 H 0.00876 0.46770 0.72634
 H16 H -0.03009 0.56173 0.22886
 C17 C 0.44044 0.50149 0.57938
 C18 C 0.42363 0.49685 0.42546
 C19 C 0.43473 0.44858 0.33951
 C20 C 0.46499 0.40539 0.40129
 C21 C 0.47638 0.40352 0.55904
 C22 C 0.46470 0.45279 0.64797
 H23 H 0.47689 0.45489 0.76788
 H24 H 0.42558 0.44929 0.21850
 O25 O 0.44792 0.68963 -0.13297
 O26 O 0.41605 0.79861 -0.18337
 C27 C 0.37106 0.82489 -0.20824
 O28 O 0.31966 0.81270 -0.12631
 O29 O 0.21684 0.69598 -0.17290
 C30 C 0.20012 0.63575 -0.22491
 O31 O 0.22643 0.59315 -0.17706
 O32 O 0.35375 0.60097 -0.20044
 C33 C 0.41772 0.63570 -0.20748
 O34 O 0.43862 0.69916 0.16121
 O35 O 0.42004 0.81595 0.11129
 C36 C 0.37605 0.82116 0.19600
 O37 O 0.31257 0.78536 0.17721
 O38 O 0.20755 0.67015 0.12426
 C39 C 0.20279 0.61095 0.17192
 O40 O 0.23941 0.58055 0.12543
 O41 O 0.36465 0.59210 0.10076
 C42 C 0.41226 0.63388 0.18404
 Cr43 Cr 0.42664 0.74867 -0.01134
 Cr44 Cr 0.26698 0.73945 -0.00007
 Cr45 Cr 0.29731 0.59587 -0.03751
 O46 O 0.32973 0.69415 -0.01773
 O47 O 0.54232 0.25864 -0.11257
 O48 O 0.62593 0.19210 -0.12356
 C49 C 0.68416 0.18742 -0.12572
 O50 O 0.73761 0.22866 -0.05593
 O51 O 0.78823 0.35894 -0.14350
 C52 C 0.78121 0.41273 -0.19694
 O53 O 0.73805 0.43548 -0.14772
 O54 O 0.60590 0.36445 -0.19571
 C55 C 0.55274 0.30936 -0.20438
 O56 O 0.56496 0.26431 0.19186
 O57 O 0.63976 0.19126 0.17596
 C58 C 0.69478 0.21419 0.25664
 O59 O 0.74343 0.27073 0.22857
 O60 O 0.79783 0.40002 0.14547
 C61 C 0.76941 0.43769 0.19903
 O62 O 0.71224 0.43711 0.14970
 O63 O 0.58222 0.36954 0.09827
 C64 C 0.55818 0.32149 0.19708
 Cr65 Cr 0.59576 0.22982 0.03170
 Cr66 Cr 0.76348 0.31474 0.04185
 Cr67 Cr 0.66035 0.39864 -0.02290
 O68 O 0.67345 0.31443 0.01431
 N69 N 0.43213 0.91013 -0.38051
 N70 N 0.37662 0.87032 -0.33392
 N71 N 0.12185 0.55294 -0.38823
 N72 N 0.14403 0.61307 -0.33250
 N73 N 0.44714 0.55838 -0.35271
 N74 N 0.46040 0.61611 -0.30094
 N75 N 0.64300 0.09335 -0.28456
 N76 N 0.69022 0.13189 -0.20396
 N77 N 0.87928 0.43704 -0.33468
 N78 N 0.82728 0.45154 -0.31074
 N79 N 0.49162 0.35350 -0.37710
 N80 N 0.50122 0.30334 -0.31956
 N81 N 0.86006 0.49149 0.37098
 N82 N 0.80243 0.48352 0.31972
 N83 N 0.65565 0.12077 0.42054
 N84 N 0.70331 0.17371 0.38138
 N85 N 0.49544 0.37779 0.29397
 N86 N 0.52166 0.33312 0.31760
 N87 N 0.10082 0.59247 0.29454
 N88 N 0.15151 0.57500 0.27796
 N89 N 0.46180 0.91583 0.30327
 N90 N 0.40113 0.87021 0.31484
 N91 N 0.39922 0.54310 0.34629
 N92 N 0.43890 0.60289 0.30189
   
