data_POSCAR
  _audit_creation_date              2014-09-24
  _audit_creation_method            'ToBaCCo'
  _symmetry_space_group_name_H-M    'P1'
  _symmetry_Int_Tables_number       1
  _symmetry_cell_setting            triclinic
  loop_
  _symmetry_equiv_pos_as_xyz
 x,y,z
_cell_length_a 37.4962
_cell_length_b 32.0762
_cell_length_c 32.5611
_cell_angle_alpha 90.194900
_cell_angle_beta 89.542000
_cell_angle_gamma 89.231000
loop_
  _atom_site_label
  _atom_site_type_symbol
  _atom_site_fract_x
  _atom_site_fract_y
  _atom_site_fract_z
C1 C 0.30543 0.30331 0.23927
 H2 H 0.30332 0.30592 0.27234
 C3 C 0.33008 0.32735 0.21789
 H4 H 0.34628 0.34900 0.23487
 C5 C 0.28605 0.27240 0.17734
 H6 H 0.26934 0.25033 0.16173
 C7 C 0.31072 0.29539 0.15476
 H8 H 0.31262 0.29056 0.12190
 N9 N 0.28346 0.27725 0.21876
 C10 C 0.19575 0.26426 0.30644
 H11 H 0.19430 0.23062 0.30768
 C12 C 0.17206 0.28874 0.32975
 H13 H 0.15221 0.27360 0.34862
 C14 C 0.22255 0.32458 0.27884
 H15 H 0.24172 0.33852 0.25833
 C16 C 0.19946 0.35026 0.30173
 H17 H 0.20189 0.38375 0.29930
 Zn18 Zn 0.25054 0.24638 0.25041
 N19 N 0.22058 0.28240 0.28192
 C20 C 0.27781 0.21737 0.32637
 N21 N 0.27765 0.21120 0.28504
 C22 C 0.29881 0.18154 0.26702
 C23 C 0.32083 0.15604 0.29085
 C24 C 0.29978 0.19294 0.35133
 C25 C 0.20079 0.23638 0.18807
 C26 C 0.17692 0.21559 0.16281
 C27 C 0.19262 0.15122 0.19691
 C28 C 0.21651 0.17323 0.22123
 N29 N 0.22032 0.21501 0.21621
 H30 H 0.26166 0.24198 0.33997
 H31 H 0.29860 0.17778 0.23399
 H32 H 0.33687 0.13212 0.27581
 H33 H 0.30020 0.19927 0.38398
 H34 H 0.20387 0.26974 0.18524
 H35 H 0.16231 0.23321 0.14003
 H36 H 0.18942 0.11817 0.20211
 H37 H 0.23132 0.15701 0.24474
 C38 C 0.17374 0.33241 0.32764
 C39 C 0.33295 0.32375 0.17494
 C40 C 0.17239 0.17239 0.16714
 C41 C 0.32177 0.16174 0.33367
 C42 C 0.80470 0.80716 0.23404
 H43 H 0.80279 0.80934 0.26716
 C44 C 0.82949 0.83116 0.21281
 H45 H 0.84514 0.85257 0.23063
 C46 C 0.78472 0.77740 0.17199
 H47 H 0.76794 0.75550 0.15626
 C48 C 0.80923 0.80067 0.14943
 H49 H 0.81070 0.79514 0.11671
 N50 N 0.78259 0.78141 0.21348
 C51 C 0.69567 0.76376 0.30099
 H52 H 0.69499 0.73005 0.30063
 C53 C 0.67210 0.78626 0.32618
 H54 H 0.65305 0.76956 0.34485
 C55 C 0.72093 0.82623 0.27616
 H56 H 0.73976 0.84167 0.25630
 C57 C 0.69774 0.85004 0.30094
 H58 H 0.69947 0.88370 0.30046
 Zn59 Zn 0.75067 0.74932 0.24528
 N60 N 0.71984 0.78385 0.27717
 C61 C 0.77847 0.72205 0.32147
 N62 N 0.77871 0.71533 0.28021
 C63 C 0.80047 0.68590 0.26280
 C64 C 0.82248 0.66099 0.28724
 C65 C 0.80040 0.69825 0.34701
 C66 C 0.70074 0.73687 0.18346
 C67 C 0.67711 0.71493 0.15885
 C68 C 0.69509 0.65147 0.19312
 C69 C 0.71868 0.67461 0.21680
 N70 N 0.72122 0.71650 0.21142
 H71 H 0.76190 0.74653 0.33463
 H72 H 0.80059 0.68169 0.22981
 H73 H 0.83890 0.63709 0.27269
 H74 H 0.80038 0.70495 0.37961
 H75 H 0.70277 0.77033 0.18037
 H76 H 0.66165 0.73180 0.13626
 H77 H 0.69286 0.61836 0.19868
 H78 H 0.73419 0.65917 0.24020
 C79 C 0.67315 0.83000 0.32672
 C80 C 0.83235 0.82846 0.16955
 C81 C 0.67381 0.67161 0.16366
 C82 C 0.82281 0.66710 0.33003
 C83 C 0.80384 0.30822 0.73407
 H84 H 0.80135 0.31161 0.76704
 C85 C 0.82862 0.33193 0.71248
 H86 H 0.84446 0.35419 0.72916
 C87 C 0.78573 0.27526 0.67264
 H88 H 0.76955 0.25243 0.65734
 C89 C 0.81050 0.29793 0.64988
 H90 H 0.81297 0.29215 0.61721
 N91 N 0.78258 0.28109 0.71391
 C92 C 0.69460 0.26390 0.80033
 H93 H 0.69388 0.23019 0.79997
 C94 C 0.67084 0.28644 0.82525
 H95 H 0.65162 0.26978 0.84372
 C96 C 0.72015 0.32631 0.77581
 H97 H 0.73912 0.34175 0.75614
 C98 C 0.69678 0.35017 0.80030
 H99 H 0.69856 0.38383 0.79984
 Zn100 Zn 0.75043 0.24928 0.74569
 N101 N 0.71910 0.28393 0.77690
 C102 C 0.77624 0.22050 0.82243
 N103 N 0.77819 0.21548 0.78109
 C104 C 0.80141 0.18766 0.76384
 C105 C 0.82349 0.16293 0.78838
 C106 C 0.79782 0.19659 0.84825
 C107 C 0.70108 0.23640 0.68351
 C108 C 0.67760 0.21432 0.65885
 C109 C 0.69579 0.15096 0.69317
 C110 C 0.71925 0.17424 0.71689
 N111 N 0.72151 0.21617 0.71160
 H112 H 0.75858 0.24391 0.83561
 H113 H 0.80259 0.18446 0.73076
 H114 H 0.83993 0.14006 0.77256
 H115 H 0.79608 0.20384 0.88060
 H116 H 0.70300 0.26987 0.68041
 H117 H 0.66211 0.23111 0.63621
 H118 H 0.69371 0.11782 0.69870
 H119 H 0.73489 0.15891 0.74027
 C120 C 0.67200 0.33018 0.82586
 C121 C 0.83230 0.32696 0.66972
 C122 C 0.67441 0.17100 0.66372
 C123 C 0.82243 0.16681 0.83183
 C124 C 0.30432 0.80498 0.73976
 H125 H 0.30215 0.80779 0.77281
 C126 C 0.32904 0.82886 0.71830
 H127 H 0.34523 0.85059 0.73519
 C128 C 0.28507 0.77366 0.67797
 H129 H 0.26840 0.75148 0.66246
 C130 C 0.30981 0.79649 0.65531
 H131 H 0.31180 0.79141 0.62249
 N132 N 0.28243 0.77873 0.71936
 C133 C 0.19506 0.76542 0.80745
 H134 H 0.19392 0.73178 0.80902
 C135 C 0.17120 0.78984 0.83063
 H136 H 0.15157 0.77465 0.84977
 C137 C 0.22118 0.82582 0.77913
 H138 H 0.24014 0.83979 0.75839
 C139 C 0.19788 0.85143 0.80181
 H140 H 0.19991 0.88493 0.79899
 Zn141 Zn 0.24971 0.74776 0.75116
 N142 N 0.21963 0.78364 0.78264
 C143 C 0.27723 0.71880 0.82707
 N144 N 0.27707 0.71277 0.78573
 C145 C 0.29836 0.68332 0.76759
 C146 C 0.32045 0.65782 0.79131
 C147 C 0.29928 0.69437 0.85193
 C148 C 0.19978 0.73734 0.68910
 C149 C 0.17596 0.71633 0.66395
 C150 C 0.19241 0.65203 0.69773
 C151 C 0.21618 0.67426 0.72201
 N152 N 0.21960 0.71611 0.71708
 H153 H 0.26097 0.74327 0.84077
 H154 H 0.29814 0.67968 0.73455
 H155 H 0.33657 0.63403 0.77617
 H156 H 0.29967 0.70055 0.88462
 H157 H 0.20257 0.77074 0.68634
 H158 H 0.16105 0.73383 0.64133
 H159 H 0.18955 0.61891 0.70280
 H160 H 0.23123 0.65815 0.74538
 C161 C 0.17242 0.83350 0.82801
 C162 C 0.33205 0.82491 0.67539
 C163 C 0.17187 0.67306 0.66816
 C164 C 0.32136 0.66332 0.83414
 C165 C -0.00163 0.00437 0.00056
 C166 C -0.00015 0.50317 0.50058
 C167 C 0.49973 -0.00221 0.50304
 C168 C 0.49929 0.49846 0.00270
 C169 C 0.09908 -0.09025 -0.10231
 C170 C 0.10833 -0.07867 -0.14254
 C171 C 0.13226 -0.10344 -0.16518
 C172 C 0.14698 -0.13985 -0.14807
 C173 C 0.13673 -0.15054 -0.10792
 N174 N 0.11336 -0.12591 -0.08645
 C175 C 0.07359 -0.06543 -0.07692
 N176 N 0.05588 -0.08451 -0.04575
 C177 C 0.03192 -0.06404 -0.02117
 C178 C 0.02398 -0.02139 -0.02750
 C179 C 0.04380 -0.00084 -0.05816
 C180 C 0.06807 -0.02261 -0.08308
 H181 H 0.13868 -0.09451 -0.19639
 H182 H 0.14758 -0.17814 -0.09335
 H183 H 0.01997 -0.08121 0.00372
 H184 H 0.04026 0.03236 -0.06289
 H185 H 0.09673 -0.05138 -0.15688
 H186 H 0.08282 -0.00568 -0.10615
 C187 C 0.10107 0.40884 0.39806
 C188 C 0.11085 0.42106 0.35820
 C189 C 0.13454 0.39623 0.33530
 C190 C 0.14855 0.35916 0.35183
 C191 C 0.13783 0.34791 0.39168
 N192 N 0.11465 0.37258 0.41337
 C193 C 0.07565 0.43361 0.42355
 N194 N 0.05680 0.41410 0.45353
 C195 C 0.03270 0.43449 0.47799
 C196 C 0.02585 0.47756 0.47280
 C197 C 0.04688 0.49846 0.44345
 C198 C 0.07124 0.47675 0.41861
 H199 H 0.14132 0.40565 0.30434
 H200 H 0.14814 0.31982 0.40584
 H201 H 0.01974 0.41683 0.50184
 H202 H 0.04410 0.53186 0.43959
 H203 H 0.09978 0.44890 0.34432
 H204 H 0.08688 0.49390 0.39649
 C205 C 0.60099 -0.10152 0.40510
 C206 C 0.61757 -0.13809 0.41953
 C207 C 0.64128 -0.16008 0.39410
 C208 C 0.64883 -0.14577 0.35433
 C209 C 0.63253 -0.10840 0.34148
 N210 N 0.60931 -0.08757 0.36678
 C211 C 0.57485 -0.07766 0.43052
 N212 N 0.57031 -0.03610 0.42389
 C213 C 0.54668 -0.01239 0.44600
 C214 C 0.52476 -0.03039 0.47645
 C215 C 0.53002 -0.07331 0.48419
 C216 C 0.55436 -0.09689 0.46107
 H217 H 0.65401 -0.18809 0.40573
 H218 H 0.63754 -0.09625 0.31105
 H219 H 0.54483 0.02070 0.43981
 H220 H 0.51612 -0.08913 0.50862
 H221 H 0.61282 -0.14947 0.45029
 H222 H 0.55677 -0.12994 0.46711
 C223 C 0.60009 0.39890 -0.09564
 C224 C 0.61654 0.36220 -0.08129
 C225 C 0.64012 0.34011 -0.10679
 C226 C 0.64770 0.35444 -0.14654
 C227 C 0.63153 0.39192 -0.15932
 N228 N 0.60843 0.41285 -0.13395
 C229 C 0.57408 0.42285 -0.07012
 N230 N 0.56966 0.46444 -0.07667
 C231 C 0.54615 0.48822 -0.05445
 C232 C 0.52424 0.47026 -0.02397
 C233 C 0.52941 0.42731 -0.01630
 C234 C 0.55361 0.40367 -0.03953
 H235 H 0.65276 0.31202 -0.09521
 H236 H 0.63659 0.40410 -0.18973
 H237 H 0.54438 0.52132 -0.06059
 H238 H 0.51554 0.41150 0.00816
 H239 H 0.61180 0.35080 -0.05054
 H240 H 0.55592 0.37060 -0.03354
 C241 C -0.10885 0.09724 -0.09244
 C242 C -0.13935 0.11632 -0.07548
 C243 C -0.16235 0.13915 -0.10058
 C244 C -0.15557 0.14348 -0.14328
 C245 C -0.12466 0.12257 -0.15874
 N246 N -0.10274 0.10074 -0.13342
 C247 C -0.08302 0.07314 -0.06746
 N248 N -0.06178 0.04423 -0.08653
 C249 C -0.03634 0.02193 -0.06642
 C250 C -0.02993 0.02906 -0.02430
 C251 C -0.05304 0.05744 -0.00382
 C252 C -0.07901 0.07987 -0.02518
 H253 H -0.18622 0.15145 -0.08599
 H254 H -0.11622 0.12488 -0.19036
 H255 H -0.02175 -0.00160 -0.08363
 H256 H -0.05036 0.06288 0.02885
 H257 H -0.14609 0.11298 -0.04331
 H258 H -0.09503 0.10279 -0.00871
 C259 C -0.10660 0.59593 0.40654
 C260 C -0.14020 0.60826 0.42186
 C261 C -0.16337 0.63103 0.39685
 C262 C -0.15313 0.64187 0.35669
 C263 C -0.11932 0.62853 0.34257
 N264 N -0.09737 0.60613 0.36739
 C265 C -0.08095 0.57173 0.43146
 N266 N -0.05807 0.54479 0.41215
 C267 C -0.03282 0.52249 0.43254
 C268 C -0.02830 0.52773 0.47529
 C269 C -0.05296 0.55431 0.49581
 C270 C -0.07889 0.57651 0.47416
 H271 H -0.18946 0.63963 0.40884
 H272 H -0.10994 0.63650 0.31214
 H273 H -0.01693 0.50045 0.41496
 H274 H -0.05159 0.55843 0.52878
 H275 H -0.14884 0.59977 0.45246
 H276 H -0.09647 0.59786 0.49063
 C277 C 0.39348 0.09015 0.40839
 C278 C 0.36000 0.10223 0.42430
 C279 C 0.33645 0.12503 0.39985
 C280 C 0.34614 0.13614 0.35960
 C281 C 0.37977 0.12286 0.34477
 N282 N 0.40215 0.10045 0.36911
 C283 C 0.41959 0.06643 0.43311
 N284 N 0.44216 0.03895 0.41399
 C285 C 0.46746 0.01678 0.43452
 C286 C 0.47221 0.02263 0.47715
 C287 C 0.44816 0.05021 0.49734
 C288 C 0.42224 0.07222 0.47561
 H289 H 0.31052 0.13355 0.41235
 H290 H 0.38870 0.13099 0.31420
 H291 H 0.48310 -0.00573 0.41724
 H292 H 0.44985 0.05505 0.53020
 H293 H 0.35182 0.09362 0.45504
 H294 H 0.40502 0.09414 0.49187
 C295 C 0.39303 0.59130 -0.09149
 C296 C 0.35955 0.60329 -0.07553
 C297 C 0.33602 0.62626 -0.09987
 C298 C 0.34575 0.63763 -0.14003
 C299 C 0.37939 0.62446 -0.15490
 N300 N 0.40174 0.60188 -0.13069
 C301 C 0.41912 0.56741 -0.06689
 N302 N 0.44167 0.54000 -0.08615
 C303 C 0.46696 0.51771 -0.06572
 C304 C 0.47172 0.52336 -0.02307
 C305 C 0.44768 0.55086 -0.00275
 C306 C 0.42177 0.57299 -0.02437
 H307 H 0.31008 0.63469 -0.08734
 H308 H 0.38835 0.63279 -0.18540
 H309 H 0.48260 0.49528 -0.08311
 H310 H 0.44939 0.55555 0.03013
 H311 H 0.35134 0.59447 -0.04487
 H312 H 0.40457 0.59484 -0.00801
 C313 C -0.09393 -0.09806 0.10296
 C314 C -0.08791 -0.10656 0.14451
 C315 C -0.11199 -0.13090 0.16637
 C316 C -0.14249 -0.14729 0.14725
 C317 C -0.14684 -0.13843 0.10504
 N318 N -0.12295 -0.11453 0.08454
 C319 C -0.06946 -0.07197 0.07849
 N320 N -0.06761 -0.07750 0.03710
 C321 C -0.04607 -0.05434 0.01266
 C322 C -0.02410 -0.02334 0.02950
 C323 C -0.02727 -0.01596 0.07215
 C324 C -0.04935 -0.04039 0.09657
 H325 H -0.10548 -0.13792 0.19788
 H326 H -0.16986 -0.14872 0.08828
 H327 H -0.04604 -0.06001 -0.02013
 H328 H -0.01371 0.00940 0.08698
 H329 H -0.06443 -0.09538 0.15994
 H330 H -0.05150 -0.03348 0.12904
 C331 C -0.09257 0.39981 0.60178
 C332 C -0.08426 0.38680 0.64170
 C333 C -0.10850 0.36273 0.66364
 C334 C -0.14120 0.35171 0.64614
 C335 C -0.14818 0.36493 0.60581
 N336 N -0.12402 0.38817 0.58495
 C337 C -0.06797 0.42581 0.57753
 N338 N -0.06716 0.42190 0.53595
 C339 C -0.04554 0.44531 0.51184
 C340 C -0.02265 0.47510 0.52920
 C341 C -0.02467 0.48069 0.57221
 C342 C -0.04666 0.45581 0.59627
 H343 H -0.10136 0.35234 0.69412
 H344 H -0.17309 0.35761 0.59107
 H345 H -0.04622 0.44086 0.47889
 H346 H -0.01025 0.50493 0.58772
 H347 H -0.05907 0.39452 0.65563
 H348 H -0.04789 0.46113 0.62910
 C349 C 0.40606 -0.10089 0.60727
 C350 C 0.41495 -0.11437 0.64687
 C351 C 0.39106 -0.13885 0.66891
 C352 C 0.35812 -0.14972 0.65184
 C353 C 0.35047 -0.13573 0.61195
 N354 N 0.37433 -0.11224 0.59095
 C355 C 0.43059 -0.07541 0.58243
 N356 N 0.43047 -0.07956 0.54089
 C357 C 0.45223 -0.05713 0.51610
 C358 C 0.47637 -0.02824 0.53266
 C359 C 0.47530 -0.02219 0.57564
 C360 C 0.45302 -0.04606 0.60044
 H361 H 0.39868 -0.14975 0.69905
 H362 H 0.32534 -0.14278 0.59760
 H363 H 0.45091 -0.06193 0.48323
 H364 H 0.49082 0.00147 0.59055
 H365 H 0.44037 -0.10690 0.66036
 H366 H 0.45261 -0.04062 0.63326
 C367 C 0.40623 0.39906 0.10698
 C368 C 0.41538 0.38531 0.14641
 C369 C 0.39174 0.36047 0.16840
 C370 C 0.35879 0.34948 0.15145
 C371 C 0.35085 0.36377 0.11173
 N372 N 0.37448 0.38761 0.09078
 C373 C 0.43052 0.42483 0.08214
 N374 N 0.43018 0.42096 0.04059
 C375 C 0.45176 0.44359 0.01578
 C376 C 0.47597 0.47239 0.03235
 C377 C 0.47510 0.47821 0.07536
 C378 C 0.45298 0.45414 0.10017
 H379 H 0.39956 0.34938 0.19840
 H380 H 0.32569 0.35666 0.09748
 H381 H 0.45028 0.43897 -0.01710
 H382 H 0.49067 0.50180 0.09030
 H383 H 0.44084 0.39286 0.15980
 H384 H 0.45274 0.45937 0.13303
 C385 C 0.09746 0.10655 0.09311
 C386 C 0.08969 0.14762 0.10556
 C387 C 0.11404 0.16902 0.12966
 C388 C 0.14628 0.14981 0.14134
 C389 C 0.15291 0.10858 0.12830
 N390 N 0.12863 0.08826 0.10509
 C391 C 0.07212 0.08212 0.06853
 N392 N 0.07182 0.03998 0.07267
 C393 C 0.04887 0.01560 0.05163
 C394 C 0.02361 0.03331 0.02465
 C395 C 0.02533 0.07674 0.01817
 C396 C 0.04898 0.10110 0.04040
 H397 H 0.10721 0.20030 0.13984
 H398 H 0.17749 0.09257 0.13611
 H399 H 0.04996 -0.01778 0.05629
 H400 H 0.00914 0.09226 -0.00455
 H401 H 0.06470 0.16277 0.09775
 H402 H 0.04971 0.13430 0.03474
 C403 C 0.09734 0.60654 0.59425
 C404 C 0.08901 0.64727 0.60734
 C405 C 0.11325 0.66890 0.63140
 C406 C 0.14588 0.65024 0.64244
 C407 C 0.15304 0.60932 0.62884
 N408 N 0.12890 0.58878 0.60563
 C409 C 0.07225 0.58187 0.56953
 N410 N 0.07316 0.53962 0.57250
 C411 C 0.05063 0.51496 0.55118
 C412 C 0.02455 0.53244 0.52507
 C413 C 0.02489 0.57613 0.51993
 C414 C 0.04817 0.60075 0.54238
 H415 H 0.10606 0.69993 0.64202
 H416 H 0.17794 0.59375 0.63621
 H417 H 0.05270 0.48150 0.55491
 H418 H 0.00791 0.59175 0.49805
 H419 H 0.06373 0.66200 0.60006
 H420 H 0.04787 0.63412 0.53761
 C421 C 0.59939 0.10196 0.59271
 C422 C 0.59093 0.14285 0.60518
 C423 C 0.61530 0.16523 0.62832
 C424 C 0.64828 0.14721 0.63902
 C425 C 0.65556 0.10605 0.62616
 N426 N 0.63124 0.08474 0.60385
 C427 C 0.57411 0.07681 0.56877
 N428 N 0.57424 0.03469 0.57328
 C429 C 0.55119 0.00985 0.55287
 C430 C 0.52536 0.02706 0.52625
 C431 C 0.52667 0.07047 0.51941
 C432 C 0.55044 0.09525 0.54093
 H433 H 0.60795 0.19636 0.63848
 H434 H 0.68068 0.09092 0.63335
 H435 H 0.55257 -0.02347 0.55784
 H436 H 0.51000 0.08576 0.49701
 H437 H 0.56542 0.15713 0.59806
 H438 H 0.55079 0.12842 0.53498
 C439 C 0.59891 0.60268 0.09240
 C440 C 0.59043 0.64356 0.10487
 C441 C 0.61477 0.66593 0.12807
 C442 C 0.64771 0.64789 0.13885
 C443 C 0.65501 0.60674 0.12597
 N444 N 0.63073 0.58545 0.10359
 C445 C 0.57366 0.57751 0.06842
 N446 N 0.57387 0.53538 0.07284
 C447 C 0.55085 0.51052 0.05240
 C448 C 0.52496 0.52772 0.02587
 C449 C 0.52620 0.57115 0.01909
 C450 C 0.54995 0.59595 0.04062
 H451 H 0.60741 0.69706 0.13823
 H452 H 0.68013 0.59160 0.13320
 H453 H 0.55230 0.47719 0.05731
 H454 H 0.50949 0.58646 -0.00326
 H455 H 0.56493 0.65786 0.09771
 H456 H 0.55024 0.62913 0.03472
   
