data_POSCAR
  _audit_creation_date              2014-09-24
  _audit_creation_method            'ToBaCCo'
  _symmetry_space_group_name_H-M    'P1'
  _symmetry_Int_Tables_number       1
  _symmetry_cell_setting            triclinic
  loop_
  _symmetry_equiv_pos_as_xyz
 x,y,z
_cell_length_a 27.7391
_cell_length_b 27.6933
_cell_length_c 54.6236
_cell_angle_alpha 93.418300
_cell_angle_beta 86.280700
_cell_angle_gamma 82.771600
loop_
  _atom_site_label
  _atom_site_type_symbol
  _atom_site_fract_x
  _atom_site_fract_y
  _atom_site_fract_z
C1 C 0.02157 0.62665 0.99713
 C2 C 0.03458 0.60283 1.01830
 C3 C 0.03135 0.55252 1.01860
 C4 C 0.01410 0.52656 0.99873
 C5 C -0.00026 0.55205 0.97829
 C6 C 0.00406 0.60198 0.97690
 C7 C 0.01134 0.47287 0.99915
 C8 C 0.01532 0.44313 0.97701
 C9 C 0.01118 0.39321 0.97712
 C10 C 0.00632 0.37191 0.99960
 C11 C 0.00437 0.40013 1.02190
 C12 C 0.00516 0.45069 1.02156
 H13 H 0.02482 0.66496 0.99651
 H14 H 0.04474 0.53307 1.03387
 H15 H -0.01716 0.53341 0.96388
 H16 H 0.02118 0.45851 0.95949
 H17 H 0.00439 0.33307 0.99974
 H18 H 0.00165 0.47227 1.03890
 C19 C 0.37244 -0.02001 0.50179
 C20 C 0.39810 -0.02889 0.52272
 C21 C 0.44747 -0.02183 0.52220
 C22 C 0.47046 -0.00287 0.50175
 C23 C 0.44311 0.00731 0.48135
 C24 C 0.39484 -0.00267 0.48094
 C25 C 0.52242 0.00701 0.50183
 C26 C 0.55166 0.00578 0.47965
 C27 C 0.59924 0.01885 0.47917
 C28 C 0.61816 0.03041 0.50182
 C29 C 0.59093 0.02950 0.52444
 C30 C 0.54267 0.01886 0.52404
 H31 H 0.33429 -0.02490 0.50190
 H32 H 0.46781 -0.03148 0.53781
 H33 H 0.45903 0.02286 0.46555
 H34 H 0.53650 -0.00376 0.46262
 H35 H 0.65614 0.03546 0.50199
 H36 H 0.52009 0.02214 0.54109
 C37 C 0.11624 -0.01919 0.26686
 H38 H 0.11780 -0.04677 0.25191
 C39 C 0.15187 -0.02308 0.28382
 H40 H 0.18043 -0.05383 0.28178
 C41 C 0.07779 0.05450 0.28763
 H42 H 0.04864 0.08451 0.28915
 C43 C 0.11278 0.05218 0.30492
 H44 H 0.10970 0.08020 0.31983
 N45 N 0.07929 0.01845 0.26945
 C46 C 0.03433 -0.03148 0.20258
 H47 H 0.03084 0.00447 0.19576
 C48 C 0.04012 -0.07214 0.18585
 H49 H 0.04003 -0.06671 0.16639
 C50 C 0.03815 -0.08216 0.23601
 H51 H 0.03832 -0.08583 0.25561
 C52 C 0.04405 -0.12397 0.21986
 H53 H 0.04849 -0.15959 0.22720
 Zn54 Zn 0.02649 0.02048 0.24890
 N55 N 0.03325 -0.03694 0.22719
 C56 C -0.01547 0.09105 0.21899
 N57 N 0.02581 0.07544 0.22993
 C58 C 0.06740 0.09586 0.22578
 C59 C 0.06905 0.13241 0.20932
 C60 C -0.01549 0.12763 0.20247
 C61 C -0.05512 -0.01274 0.27433
 C62 C -0.09452 -0.00834 0.29195
 C63 C -0.08839 0.07768 0.29796
 C64 C -0.04897 0.07157 0.28035
 N65 N -0.03232 0.02667 0.26937
 H66 H -0.04787 0.07372 0.22242
 H67 H 0.09985 0.08252 0.23454
 H68 H 0.10277 0.14754 0.20580
 H69 H -0.04809 0.13815 0.19316
 H70 H -0.04200 -0.04804 0.26531
 H71 H -0.11052 -0.04068 0.29646
 H72 H -0.10054 0.11366 0.30669
 H73 H -0.03094 0.10262 0.27581
 C74 C 0.04524 -0.11921 0.19438
 C75 C 0.14979 0.01239 0.30347
 C76 C -0.11091 0.03714 0.30447
 C77 C 0.02750 0.14803 0.19704
 C78 C -0.06431 0.07351 0.76822
 H79 H -0.09403 0.07308 0.75639
 C80 C -0.06329 0.11353 0.78494
 H81 H -0.09196 0.14407 0.78560
 C82 C 0.00794 0.03343 0.78267
 H83 H 0.03477 0.00137 0.78210
 C84 C 0.01065 0.07282 0.79944
 H85 H 0.03972 0.07082 0.81180
 N86 N -0.02919 0.03437 0.76757
 C87 C 0.02536 -0.08090 0.71088
 H88 H -0.00257 -0.10471 0.71260
 C89 C 0.06388 -0.09215 0.69284
 H90 H 0.06574 -0.12528 0.68106
 C91 C 0.05612 -0.00839 0.72397
 H92 H 0.05221 0.02498 0.73561
 C93 C 0.09499 -0.01802 0.70609
 H94 H 0.12049 0.00833 0.70427
 Zn95 Zn -0.03366 -0.02352 0.74820
 N96 N 0.02223 -0.03967 0.72602
 C97 C -0.08561 0.01515 0.71056
 N98 N -0.08832 -0.01507 0.72916
 C99 C -0.12754 -0.03932 0.73300
 C100 C -0.16631 -0.03319 0.71788
 C101 C -0.12311 0.02172 0.69478
 C102 C -0.00592 -0.11257 0.77055
 C103 C -0.00864 -0.14483 0.78919
 C104 C -0.08075 -0.09396 0.80735
 C105 C -0.07658 -0.06270 0.78846
 N106 N -0.03956 -0.07231 0.77060
 H107 H -0.05369 0.03348 0.70773
 H108 H -0.12878 -0.06376 0.74765
 H109 H -0.19744 -0.05229 0.72155
 H110 H -0.11912 0.04469 0.67962
 H111 H 0.02406 -0.11884 0.75663
 H112 H 0.01940 -0.17574 0.78933
 H113 H -0.11042 -0.08543 0.82143
 H114 H -0.10227 -0.02992 0.78833
 C115 C 0.09912 -0.06019 0.69006
 C116 C -0.02572 0.11319 0.80100
 C117 C -0.04602 -0.13525 0.80813
 C118 C -0.16430 -0.00264 0.69827
 C119 C 0.07321 -0.32891 0.03602
 C120 C 0.08251 -0.29950 0.05635
 C121 C 0.06785 -0.31029 0.08009
 C122 C 0.04632 -0.35285 0.08351
 C123 C 0.03770 -0.38302 0.06319
 C124 C 0.04924 -0.37053 0.03896
 N125 N 0.07234 -0.27558 0.10002
 N126 N 0.05355 -0.27843 0.12169
 C127 C 0.05615 -0.24107 0.14071
 C128 C 0.02946 -0.24208 0.16329
 C129 C 0.02697 -0.20321 0.18113
 C130 C 0.05133 -0.16268 0.17662
 C131 C 0.07985 -0.16288 0.15436
 C132 C 0.08215 -0.20157 0.13656
 H133 H 0.08550 -0.31899 0.01803
 H134 H 0.09982 -0.26712 0.05353
 H135 H 0.03483 -0.36200 0.10179
 H136 H 0.01873 -0.41407 0.06661
 H137 H 0.00914 -0.27223 0.16670
 H138 H 0.00448 -0.20402 0.19801
 H139 H 0.09991 -0.13274 0.15055
 H140 H 0.10339 -0.20002 0.11935
 C141 C -0.02922 0.39453 0.06542
 C142 C -0.02971 0.37073 0.08735
 C143 C 0.00306 0.32872 0.08970
 C144 C 0.03639 0.31065 0.06980
 C145 C 0.03653 0.33400 0.04787
 C146 C 0.00368 0.37606 0.04541
 N147 N 0.00127 0.30419 0.11207
 N148 N 0.03373 0.26917 0.11580
 C149 C 0.03247 0.24212 0.13731
 C150 C 0.07155 0.20632 0.14022
 C151 C 0.07050 0.17680 0.16003
 C152 C 0.03000 0.18240 0.17729
 C153 C -0.00892 0.21906 0.17460
 C154 C -0.00767 0.24884 0.15479
 H155 H -0.05504 0.42679 0.06393
 H156 H -0.05570 0.38496 0.10250
 H157 H 0.06203 0.27819 0.07107
 H158 H 0.06266 0.31937 0.03283
 H159 H 0.10254 0.20065 0.12678
 H160 H 0.10068 0.14841 0.16135
 H161 H -0.04044 0.22440 0.18771
 H162 H -0.03836 0.27628 0.15287
 C163 C 0.38172 -0.02195 0.56867
 C164 C 0.35338 -0.02971 0.58982
 C165 C 0.31492 -0.05766 0.58830
 C166 C 0.30665 -0.08009 0.56547
 C167 C 0.33526 -0.07278 0.54433
 C168 C 0.37229 -0.04249 0.54555
 N169 N 0.28286 -0.05974 0.60976
 N170 N 0.24331 -0.07840 0.60882
 C171 C 0.20973 -0.07794 0.62993
 C172 C 0.16413 -0.09299 0.62678
 C173 C 0.12862 -0.08845 0.64643
 C174 C 0.13830 -0.06907 0.66975
 C175 C 0.18492 -0.05580 0.67305
 C176 C 0.22025 -0.05998 0.65332
 H177 H 0.40949 0.00202 0.57029
 H178 H 0.36005 -0.01215 0.60731
 H179 H 0.27740 -0.10227 0.56386
 H180 H 0.32768 -0.09000 0.52692
 H181 H 0.15551 -0.10667 0.60881
 H182 H 0.09300 -0.09839 0.64307
 H183 H 0.19394 -0.04162 0.69084
 H184 H 0.25539 -0.04838 0.65625
 C185 C -0.35015 0.06725 0.54880
 C186 C -0.32543 0.07074 0.57017
 C187 C -0.33634 0.04353 0.59003
 C188 C -0.37460 0.01497 0.58896
 C189 C -0.40036 0.01235 0.56783
 C190 C -0.38740 0.03706 0.54696
 N191 N -0.30623 0.04346 0.61034
 N192 N -0.30504 0.01052 0.62565
 C193 C -0.27315 0.00953 0.64527
 C194 C -0.26336 -0.03353 0.65719
 C195 C -0.22871 -0.03733 0.67470
 C196 C -0.20376 0.00242 0.68095
 C197 C -0.21546 0.04640 0.66966
 C198 C -0.24946 0.04980 0.65184
 H199 H -0.34021 0.08884 0.53384
 H200 H -0.29640 0.09341 0.57092
 H201 H -0.38385 -0.00618 0.60422
 H202 H -0.42803 -0.01192 0.56740
 H203 H -0.28126 -0.06489 0.65220
 H204 H -0.22033 -0.07200 0.68263
 H205 H -0.19805 0.07818 0.67442
 H206 H -0.25687 0.08370 0.64306
 C207 C -0.00361 -0.39814 0.93203
 C208 C -0.01195 -0.37287 0.91095
 C209 C -0.02560 -0.32240 0.91280
 C210 C -0.03238 -0.29750 0.93614
 C211 C -0.02392 -0.32247 0.95720
 C212 C -0.00826 -0.37323 0.95562
 N213 N -0.03041 -0.29683 0.89085
 N214 N -0.04178 -0.25075 0.89182
 C215 C -0.04501 -0.22348 0.87041
 C216 C -0.05750 -0.17292 0.87360
 C217 C -0.05851 -0.14447 0.85336
 C218 C -0.04705 -0.16620 0.82941
 C219 C -0.03509 -0.21720 0.82620
 C220 C -0.03410 -0.24568 0.84655
 H221 H 0.00932 -0.43674 0.92944
 H222 H -0.00646 -0.39252 0.89304
 H223 H -0.04372 -0.25853 0.93815
 H224 H -0.03097 -0.30161 0.97472
 H225 H -0.06563 -0.15540 0.89192
 H226 H -0.06699 -0.10526 0.85655
 H227 H -0.02650 -0.23503 0.80798
 H228 H -0.02429 -0.28479 0.84366
 C229 C 0.04665 0.36436 0.93451
 C230 C 0.04606 0.33545 0.91264
 C231 C 0.00920 0.30587 0.90955
 C232 C -0.02701 0.30518 0.92871
 C233 C -0.02602 0.33343 0.95067
 C234 C 0.01077 0.36328 0.95377
 N235 N 0.00990 0.27583 0.88721
 N236 N -0.02641 0.25429 0.88197
 C237 C -0.02592 0.22215 0.86041
 C238 C -0.06911 0.20421 0.85477
 C239 C -0.06940 0.17010 0.83490
 C240 C -0.02616 0.15290 0.82048
 C241 C 0.01705 0.17166 0.82588
 C242 C 0.01716 0.20622 0.84562
 H243 H 0.07552 0.38692 0.93655
 H244 H 0.07431 0.33612 0.89807
 H245 H -0.05571 0.28240 0.92684
 H246 H -0.05430 0.33232 0.96519
 H247 H -0.10247 0.21604 0.86612
 H248 H -0.10306 0.15580 0.83138
 H249 H 0.05081 0.15918 0.81497
 H250 H 0.05104 0.21949 0.84969
 C251 C -0.37918 -0.00952 0.43543
 C252 C -0.35015 -0.00859 0.41357
 C253 C -0.31368 0.02182 0.41216
 C254 C -0.30684 0.05198 0.43286
 C255 C -0.33562 0.05116 0.45470
 C256 C -0.37222 0.02005 0.45662
 N257 N -0.28325 0.02069 0.38985
 N258 N -0.24879 0.04687 0.38805
 C259 C -0.21679 0.04573 0.36633
 C260 C -0.17830 0.07376 0.36673
 C261 C -0.14459 0.07171 0.34647
 C262 C -0.14892 0.04161 0.32526
 C263 C -0.18835 0.01424 0.32470
 C264 C -0.22201 0.01620 0.34509
 H265 H -0.40531 -0.03537 0.43576
 H266 H -0.35555 -0.03233 0.39777
 H267 H -0.27921 0.07631 0.43219
 H268 H -0.32987 0.07646 0.46977
 H269 H -0.17382 0.09649 0.38304
 H270 H -0.11425 0.09257 0.34775
 H271 H -0.19308 -0.00883 0.30856
 H272 H -0.25166 -0.00567 0.34434
 C273 C 0.36853 0.04696 0.44592
 C274 C 0.34306 0.05291 0.42478
 C275 C 0.31704 0.01625 0.41586
 C276 C 0.31638 -0.02646 0.42849
 C277 C 0.34137 -0.03223 0.44971
 C278 C 0.36778 0.00435 0.45862
 N279 N 0.29097 0.02336 0.39428
 N280 N 0.27086 -0.01073 0.38413
 C281 C 0.24330 -0.00433 0.36303
 C282 C 0.22464 -0.04459 0.35241
 C283 C 0.19540 -0.03940 0.33262
 C284 C 0.18405 0.00645 0.32317
 C285 C 0.20355 0.04677 0.33359
 C286 C 0.23307 0.04143 0.35334
 H287 H 0.38829 0.07587 0.45252
 H288 H 0.34366 0.08609 0.41529
 H289 H 0.29639 -0.05529 0.42204
 H290 H 0.34061 -0.06562 0.45902
 H291 H 0.23212 -0.07998 0.35979
 H292 H 0.18036 -0.07097 0.32523
 H293 H 0.19574 0.08244 0.32656
 H294 H 0.24713 0.07311 0.36126
   
