data_POSCAR
  _audit_creation_date              2014-09-24
  _audit_creation_method            'ToBaCCo'
  _symmetry_space_group_name_H-M    'P1'
  _symmetry_Int_Tables_number       1
  _symmetry_cell_setting            triclinic
  loop_
  _symmetry_equiv_pos_as_xyz
 x,y,z
_cell_length_a 25.5919
_cell_length_b 25.6460
_cell_length_c 25.5426
_cell_angle_alpha 89.958800
_cell_angle_beta 89.978400
_cell_angle_gamma 90.029800
loop_
  _atom_site_label
  _atom_site_type_symbol
  _atom_site_fract_x
  _atom_site_fract_y
  _atom_site_fract_z
N1 N 0.55582 0.10564 0.02481
 N2 N 0.59345 0.13601 0.04265
 N3 N 0.44598 0.10520 -0.02628
 N4 N 0.40827 0.13517 -0.04463
 N5 N 0.44593 0.10545 0.02511
 N6 N 0.40824 0.13561 0.04312
 N7 N 0.55587 0.10510 -0.02658
 N8 N 0.59349 0.13513 -0.04510
 C9 C 0.61683 0.15397 -0.00142
 C10 C 0.38485 0.15371 -0.00085
 N11 N 0.44556 -0.02605 -0.10473
 N12 N 0.40766 -0.04429 -0.13460
 N13 N 0.55564 0.02488 -0.10576
 N14 N 0.59277 0.04247 -0.13710
 N15 N 0.55547 -0.02625 -0.10482
 N16 N 0.59475 -0.04529 -0.13728
 N17 N 0.44576 0.02513 -0.10525
 N18 N 0.40800 0.04310 -0.13543
 Mn19 Mn 0.50085 0.06550 -0.06639
 C20 C 0.38435 -0.00065 -0.15331
 C21 C 0.61667 -0.00091 -0.15613
 N22 N 0.44615 0.02658 0.10569
 N23 N 0.40831 0.04471 0.13574
 N24 N 0.55622 -0.02423 0.10597
 N25 N 0.59327 -0.04188 0.13732
 N26 N 0.55610 0.02690 0.10508
 N27 N 0.59536 0.04588 0.13763
 N28 N 0.44637 -0.02461 0.10615
 N29 N 0.40871 -0.04269 0.13643
 Mn30 Mn 0.50096 0.06655 0.06561
 C31 C 0.38509 0.00099 0.15447
 C32 C 0.61720 0.00145 0.15644
 N33 N 0.55567 -0.10489 -0.02463
 N34 N 0.59334 -0.13497 -0.04280
 N35 N 0.44613 -0.10467 0.02717
 N36 N 0.40856 -0.13478 0.04569
 N37 N 0.44582 -0.10484 -0.02422
 N38 N 0.40809 -0.13506 -0.04206
 N39 N 0.55605 -0.10441 0.02676
 N40 N 0.59397 -0.13422 0.04495
 Mn41 Mn 0.50058 -0.06591 -0.06502
 Mn42 Mn 0.50123 -0.06490 0.06693
 Cl43 Cl 0.50088 0.00032 0.00029
 C44 C 0.61710 -0.15284 0.00105
 C45 C 0.38495 -0.15329 0.00201
 N46 N 0.10572 0.44477 0.02515
 N47 N 0.13562 0.40684 0.04315
 N48 N 0.10661 0.55493 -0.02517
 N49 N 0.13676 0.59282 -0.04289
 N50 N 0.10629 0.55445 0.02625
 N51 N 0.13624 0.59199 0.04499
 N52 N 0.10593 0.44523 -0.02628
 N53 N 0.13598 0.40766 -0.04472
 C54 C 0.15377 0.38397 -0.00092
 C55 C 0.15456 0.61563 0.00137
 N56 N -0.02382 0.55656 -0.10575
 N57 N -0.04149 0.59365 -0.13697
 N58 N 0.02664 0.44657 -0.10643
 N59 N 0.04462 0.40890 -0.13666
 N60 N -0.02465 0.44695 -0.10667
 N61 N -0.04296 0.40958 -0.13704
 N62 N 0.02742 0.55627 -0.10509
 N63 N 0.04645 0.59546 -0.13771
 Mn64 Mn 0.06706 0.50073 -0.06617
 C65 C 0.00192 0.61744 -0.15627
 C66 C 0.00070 0.38597 -0.15533
 N67 N 0.02621 0.55403 0.10561
 N68 N 0.04430 0.59137 0.13618
 N69 N -0.02560 0.44459 0.10425
 N70 N -0.04403 0.40690 0.13426
 N71 N 0.02569 0.44440 0.10448
 N72 N 0.04355 0.40659 0.13461
 N73 N -0.02508 0.55421 0.10531
 N74 N -0.04328 0.59167 0.13563
 Mn75 Mn 0.06639 0.49942 0.06578
 C76 C 0.00046 0.61473 0.15447
 C77 C -0.00040 0.38331 0.15273
 N78 N -0.10467 0.44650 -0.02734
 N79 N -0.13471 0.40902 -0.04606
 N80 N -0.10423 0.55554 0.02521
 N81 N -0.13421 0.59313 0.04373
 N82 N -0.10390 0.55621 -0.02621
 N83 N -0.13367 0.59427 -0.04415
 N84 N -0.10481 0.44587 0.02408
 N85 N -0.13496 0.40798 0.04181
 Mn86 Mn -0.06468 0.50158 -0.06690
 Mn87 Mn -0.06535 0.50003 0.06511
 Cl88 Cl 0.00086 0.50043 -0.00054
 C89 C -0.15291 0.38529 -0.00242
 C90 C -0.15185 0.61702 -0.00002
 N91 N 0.02461 0.10433 0.44486
 N92 N 0.04286 0.13433 0.40701
 N93 N -0.02682 0.10484 0.55488
 N94 N -0.04498 0.13531 0.59236
 N95 N 0.02451 0.10473 0.55496
 N96 N 0.04273 0.13510 0.59246
 N97 N -0.02671 0.10428 0.44477
 N98 N -0.04485 0.13425 0.40688
 C99 C -0.00097 0.15226 0.38358
 C100 C -0.00110 0.15343 0.61554
 N101 N -0.10660 -0.02575 0.55556
 N102 N -0.13695 -0.04360 0.59337
 N103 N -0.10644 0.02486 0.44511
 N104 N -0.13670 0.04279 0.40732
 N105 N -0.10649 -0.02636 0.44543
 N106 N -0.13677 -0.04472 0.40787
 N107 N -0.10651 0.02547 0.55521
 N108 N -0.13675 0.04392 0.59275
 Mn109 Mn -0.06702 0.06527 0.49998
 C110 C -0.15501 0.00036 0.61629
 C111 C -0.15488 -0.00110 0.38435
 N112 N 0.10405 0.02523 0.55544
 N113 N 0.13426 0.04344 0.59313
 N114 N 0.10415 -0.02630 0.44548
 N115 N 0.13449 -0.04449 0.40786
 N116 N 0.10414 0.02491 0.44532
 N117 N 0.13444 0.04303 0.40763
 N118 N 0.10398 -0.02599 0.55561
 N119 N 0.13412 -0.04408 0.59342
 Mn120 Mn 0.06473 0.06520 0.50016
 C121 C 0.15228 -0.00029 0.61655
 C122 C 0.15264 -0.00074 0.38451
 N123 N -0.02692 -0.10582 0.44587
 N124 N -0.04506 -0.13611 0.40824
 N125 N 0.02429 -0.10541 0.55595
 N126 N 0.04242 -0.13576 0.59355
 N127 N -0.02704 -0.10533 0.55599
 N128 N -0.04528 -0.13564 0.59360
 N129 N 0.02441 -0.10575 0.44585
 N130 N 0.04265 -0.13597 0.40824
 Mn131 Mn -0.06717 -0.06622 0.50072
 Mn132 Mn 0.06461 -0.06626 0.50071
 Cl133 Cl -0.00122 -0.00051 0.50040
 C134 C -0.00116 -0.15419 0.38505
 C135 C -0.00147 -0.15387 0.61680
 C136 C -0.26005 0.26747 -0.00258
 C137 C -0.27966 0.24793 -0.04981
 C138 C -0.31918 0.21025 -0.04948
 C139 C -0.33962 0.19179 -0.00183
 C140 C -0.31909 0.21098 0.04543
 C141 C -0.27957 0.24864 0.04502
 C142 C -0.22133 0.30820 -0.00289
 C143 C -0.18969 0.34303 -0.00286
 H144 H -0.26489 0.26230 -0.08687
 H145 H -0.33421 0.19612 -0.08647
 H146 H -0.33404 0.19742 0.08270
 H147 H -0.26473 0.26357 0.08180
 C148 C 0.26167 0.73341 0.00236
 C149 C 0.28089 0.75293 -0.04506
 C150 C 0.32045 0.79053 -0.04517
 C151 C 0.34133 0.80897 0.00224
 C152 C 0.32120 0.78983 0.04975
 C153 C 0.28162 0.75221 0.04976
 C154 C 0.22294 0.69271 0.00227
 C155 C 0.19130 0.65789 0.00194
 H156 H 0.26578 0.73859 -0.08197
 H157 H 0.33515 0.80462 -0.08234
 H158 H 0.33653 0.80339 0.08684
 H159 H 0.26708 0.73728 0.08670
 C160 C 0.26120 0.26653 -0.00118
 C161 C 0.28092 0.24742 -0.04856
 C162 C 0.32062 0.20997 -0.04851
 C163 C 0.34113 0.19131 -0.00100
 C164 C 0.32049 0.21005 0.04640
 C165 C 0.28080 0.24749 0.04627
 C166 C 0.22233 0.30707 -0.00122
 C167 C 0.19060 0.34179 -0.00113
 H168 H 0.26610 0.26197 -0.08551
 H169 H 0.33574 0.19618 -0.08560
 H170 H 0.33549 0.19632 0.08357
 H171 H 0.26589 0.26208 0.08316
 C172 C -0.25909 0.73456 0.00072
 C173 C -0.27902 0.75352 -0.04663
 C174 C -0.31875 0.79090 -0.04654
 C175 C -0.33909 0.80967 0.00098
 C176 C -0.31824 0.79112 0.04838
 C177 C -0.27850 0.75372 0.04820
 C178 C -0.22026 0.69401 0.00054
 C179 C -0.18858 0.65925 0.00030
 H180 H -0.26435 0.73888 -0.08360
 H181 H -0.33403 0.80455 -0.08363
 H182 H -0.33313 0.80494 0.08555
 H183 H -0.26342 0.73923 0.08507
 C184 C -0.00037 -0.26203 0.26782
 C185 C 0.04712 -0.28185 0.24929
 C186 C 0.04747 -0.32149 0.21173
 C187 C 0.00026 -0.34180 0.19236
 C188 C -0.04725 -0.32112 0.21059
 C189 C -0.04752 -0.28150 0.24814
 C190 C -0.00074 -0.22308 0.30833
 C191 C -0.00101 -0.19122 0.34299
 H192 H 0.08384 -0.26712 0.26434
 H193 H 0.08463 -0.33665 0.19835
 H194 H -0.08421 -0.33599 0.19633
 H195 H -0.08449 -0.26650 0.26229
 C196 C -0.00032 0.26203 0.73207
 C197 C -0.04746 0.28215 0.75111
 C198 C -0.04714 0.32202 0.78840
 C199 C 0.00040 0.34229 0.80701
 C200 C 0.04759 0.32134 0.78828
 C201 C 0.04719 0.28146 0.75098
 C202 C -0.00070 0.22281 0.69182
 C203 C -0.00097 0.19072 0.65738
 H204 H -0.08445 0.26746 0.73666
 H205 H -0.08408 0.33738 0.80217
 H206 H 0.08477 0.33618 0.80196
 H207 H 0.08390 0.26623 0.73642
 C208 C -0.00088 0.25967 0.26581
 C209 C 0.04649 0.27911 0.24658
 C210 C 0.04666 0.31881 0.20905
 C211 C -0.00064 0.33959 0.19040
 C212 C -0.04807 0.31925 0.20925
 C213 C -0.04815 0.27954 0.24680
 C214 C -0.00095 0.22081 0.30646
 C215 C -0.00094 0.18908 0.34129
 H216 H 0.08330 0.26408 0.26111
 H217 H 0.08378 0.33369 0.19518
 H218 H -0.08508 0.33450 0.19555
 H219 H -0.08505 0.26484 0.26151
 C220 C -0.00065 -0.26242 0.73361
 C221 C -0.04752 -0.28299 0.75281
 C222 C -0.04683 -0.32281 0.79026
 C223 C 0.00100 -0.34288 0.80901
 C224 C 0.04795 -0.32108 0.78988
 C225 C 0.04701 -0.28129 0.75248
 C226 C -0.00130 -0.22322 0.69326
 C227 C -0.00150 -0.19114 0.65873
 H228 H -0.08465 -0.26866 0.73840
 H229 H -0.08387 -0.33814 0.80391
 H230 H 0.08563 -0.33501 0.80322
 H231 H 0.08354 -0.26564 0.73782
 C232 C 0.26023 -0.00054 0.73397
 C233 C 0.27984 -0.04780 0.75309
 C234 C 0.31971 -0.04792 0.79052
 C235 C 0.34047 -0.00069 0.80914
 C236 C 0.31995 0.04661 0.79038
 C237 C 0.28009 0.04664 0.75297
 C238 C 0.22119 -0.00042 0.69344
 C239 C 0.18930 -0.00030 0.65872
 H240 H 0.26480 -0.08455 0.73857
 H241 H 0.33474 -0.08492 0.80433
 H242 H 0.33515 0.08358 0.80408
 H243 H 0.26526 0.08345 0.73836
 C244 C -0.26292 -0.00083 0.26697
 C245 C -0.28353 -0.04767 0.24798
 C246 C -0.32323 -0.04709 0.21035
 C247 C -0.34316 0.00058 0.19124
 C248 C -0.32127 0.04748 0.21013
 C249 C -0.28160 0.04666 0.24770
 C250 C -0.22390 -0.00131 0.30754
 C251 C -0.19198 -0.00133 0.34224
 H252 H -0.26933 -0.08467 0.26270
 H253 H -0.33862 -0.08409 0.19687
 H254 H -0.33506 0.08505 0.19649
 H255 H -0.26591 0.08316 0.26217
 C256 C 0.26095 0.00011 0.26732
 C257 C 0.28087 -0.04693 0.24806
 C258 C 0.32074 -0.04663 0.21064
 C259 C 0.34125 0.00080 0.19212
 C260 C 0.32046 0.04790 0.21101
 C261 C 0.28056 0.04751 0.24845
 C262 C 0.22181 -0.00032 0.30779
 C263 C 0.18982 -0.00064 0.34244
 H264 H 0.26605 -0.08384 0.26245
 H265 H 0.33596 -0.08350 0.19674
 H266 H 0.33548 0.08500 0.19738
 H267 H 0.26549 0.08415 0.26317
 C268 C -0.26320 0.00077 0.73356
 C269 C -0.28204 -0.04660 0.75299
 C270 C -0.32179 -0.04720 0.79048
 C271 C -0.34361 -0.00018 0.80914
 C272 C -0.32352 0.04738 0.78988
 C273 C -0.28372 0.04773 0.75232
 C274 C -0.22412 0.00098 0.69304
 C275 C -0.19215 0.00076 0.65838
 H276 H -0.26642 -0.08318 0.73869
 H277 H -0.33571 -0.08470 0.80424
 H278 H -0.33885 0.08445 0.80319
 H279 H -0.26939 0.08465 0.73746
   
