data_POSCAR
  _audit_creation_date              2014-09-24
  _audit_creation_method            'ToBaCCo'
  _symmetry_space_group_name_H-M    'P1'
  _symmetry_Int_Tables_number       1
  _symmetry_cell_setting            triclinic
  loop_
  _symmetry_equiv_pos_as_xyz
 x,y,z
_cell_length_a 64.3741
_cell_length_b 37.1879
_cell_length_c 21.6429
_cell_angle_alpha 89.983200
_cell_angle_beta 89.981600
_cell_angle_gamma 90.047300
loop_
  _atom_site_label
  _atom_site_type_symbol
  _atom_site_fract_x
  _atom_site_fract_y
  _atom_site_fract_z
C1 C 0.74960 0.24791 0.46954
 C2 C 0.74927 0.24747 0.53256
 C3 C 0.73253 0.26545 0.56835
 C4 C 0.76581 0.22924 0.56870
 C5 C 0.76749 0.23332 0.43417
 C6 C 0.73215 0.26296 0.43289
 C7 C 0.72781 0.30174 0.55886
 C8 C 0.71166 0.31813 0.59148
 C9 C 0.69969 0.29880 0.63557
 C10 C 0.70522 0.26228 0.64554
 C11 C 0.72135 0.24608 0.61260
 C12 C 0.77719 0.24867 0.61271
 C13 C 0.79357 0.23240 0.64448
 C14 C 0.79876 0.19627 0.63317
 C15 C 0.78689 0.17654 0.59043
 C16 C 0.77050 0.19284 0.55870
 C17 C 0.76422 0.20644 0.38979
 C18 C 0.78100 0.19142 0.35807
 C19 C 0.80138 0.20319 0.36987
 C20 C 0.80455 0.23082 0.41323
 C21 C 0.78775 0.24588 0.44481
 C22 C 0.71172 0.25067 0.44152
 C23 C 0.69538 0.26578 0.40791
 C24 C 0.69919 0.29324 0.36465
 C25 C 0.71974 0.30482 0.35509
 C26 C 0.73606 0.28972 0.38872
 H27 H 0.73675 0.31753 0.52624
 H28 H 0.70953 0.34652 0.58334
 H29 H 0.69654 0.24486 0.67598
 H30 H 0.72476 0.21792 0.62051
 H31 H 0.77368 0.27669 0.62143
 H32 H 0.80218 0.24809 0.67793
 H33 H 0.76168 0.17724 0.52557
 H34 H 0.74869 0.19650 0.38081
 H35 H 0.77807 0.16998 0.32538
 H36 H 0.82002 0.24091 0.42246
 H37 H 0.79054 0.26716 0.47794
 H38 H 0.70843 0.22959 0.47465
 H39 H 0.67972 0.25644 0.41660
 H40 H 0.72321 0.32547 0.32134
 H41 H 0.75174 0.29931 0.38098
 H42 H 0.79057 0.14874 0.58044
 C43 C 0.24896 0.74547 0.46838
 C44 C 0.24889 0.74542 0.53141
 C45 C 0.23230 0.76361 0.56739
 C46 C 0.26554 0.72732 0.56736
 C47 C 0.26669 0.73063 0.43266
 C48 C 0.23134 0.76027 0.43209
 C49 C 0.22756 0.79999 0.55728
 C50 C 0.21141 0.81644 0.58987
 C51 C 0.19987 0.79693 0.63375
 C52 C 0.20504 0.76078 0.64492
 C53 C 0.22115 0.74434 0.61217
 C54 C 0.27702 0.74690 0.61094
 C55 C 0.29341 0.73070 0.64274
 C56 C 0.29852 0.69448 0.63191
 C57 C 0.28657 0.67462 0.58955
 C58 C 0.27017 0.69085 0.55779
 C59 C 0.26323 0.70343 0.38901
 C60 C 0.27989 0.68812 0.35712
 C61 C 0.30032 0.69995 0.36796
 C62 C 0.30367 0.72795 0.41047
 C63 C 0.28699 0.74326 0.44231
 C64 C 0.21095 0.74810 0.44188
 C65 C 0.19445 0.76305 0.40877
 C66 C 0.19806 0.79015 0.36470
 C67 C 0.21856 0.80159 0.35393
 C68 C 0.23504 0.78670 0.38717
 H69 H 0.23629 0.81557 0.52390
 H70 H 0.20806 0.84450 0.58110
 H71 H 0.19633 0.74496 0.67800
 H72 H 0.22463 0.71629 0.62080
 H73 H 0.27356 0.77498 0.61935
 H74 H 0.30209 0.74651 0.67589
 H75 H 0.26126 0.67513 0.52503
 H76 H 0.24765 0.69357 0.38053
 H77 H 0.27678 0.66705 0.32386
 H78 H 0.31922 0.73749 0.42011
 H79 H 0.28994 0.76465 0.47512
 H80 H 0.20782 0.72714 0.47537
 H81 H 0.17887 0.75322 0.41728
 H82 H 0.22183 0.82265 0.32075
 H83 H 0.25067 0.79634 0.37879
 H84 H 0.29019 0.64676 0.57992
 C85 C 0.24918 0.25354 -0.46906
 C86 C 0.24953 0.25267 -0.53207
 C87 C 0.26741 0.26716 -0.56771
 C88 C 0.23206 0.23739 -0.56843
 C89 C 0.23243 0.23577 -0.43296
 C90 C 0.26568 0.27214 -0.43324
 C91 C 0.26413 0.29354 -0.61274
 C92 C 0.28087 0.30857 -0.64469
 C93 C 0.30151 0.29750 -0.63264
 C94 C 0.30447 0.27003 -0.58825
 C95 C 0.28766 0.25499 -0.55663
 C96 C 0.21170 0.24974 -0.56020
 C97 C 0.19533 0.23458 -0.59364
 C98 C 0.19887 0.20666 -0.63683
 C99 C 0.21962 0.19521 -0.64563
 C100 C 0.23592 0.21047 -0.61209
 C101 C 0.22779 0.19930 -0.44145
 C102 C 0.21164 0.18311 -0.40840
 C103 C 0.19969 0.20293 -0.36535
 C104 C 0.20498 0.23949 -0.35627
 C105 C 0.22114 0.25553 -0.38941
 C106 C 0.27698 0.25317 -0.38848
 C107 C 0.29329 0.26979 -0.35690
 C108 C 0.29851 0.30581 -0.36925
 C109 C 0.28675 0.32507 -0.41283
 C110 C 0.27040 0.30845 -0.44424
 H111 H 0.24858 0.30331 -0.62191
 H112 H 0.27744 0.33020 -0.67645
 H113 H 0.31967 0.25899 -0.57884
 H114 H 0.29046 0.23385 -0.52321
 H115 H 0.20843 0.27090 -0.52723
 H116 H 0.17985 0.24398 -0.58304
 H117 H 0.25161 0.20098 -0.61986
 H118 H 0.23653 0.18341 -0.47434
 H119 H 0.20814 0.15539 -0.41921
 H120 H 0.19721 0.25586 -0.32210
 H121 H 0.22472 0.28362 -0.38144
 H122 H 0.27352 0.22517 -0.37923
 H123 H 0.30217 0.25417 -0.32399
 H124 H 0.29015 0.35304 -0.42247
 H125 H 0.26156 0.32377 -0.47771
 H126 H 0.22364 0.17525 -0.67988
 C127 C -0.25099 0.75402 -0.53205
 C128 C -0.25119 0.75464 -0.46902
 C129 C -0.26783 0.73662 -0.43285
 C130 C -0.23463 0.77315 -0.43326
 C131 C -0.23314 0.76851 -0.56781
 C132 C -0.26857 0.73898 -0.56827
 C133 C -0.27901 0.75604 -0.38859
 C134 C -0.29509 0.73976 -0.35548
 C135 C -0.30046 0.70331 -0.36550
 C136 C -0.28864 0.68384 -0.40932
 C137 C -0.27252 0.70023 -0.44214
 C138 C -0.22993 0.80949 -0.44405
 C139 C -0.21357 0.82606 -0.41259
 C140 C -0.20177 0.80672 -0.36917
 C141 C -0.20697 0.77066 -0.35708
 C142 C -0.22329 0.75409 -0.38871
 C143 C -0.21291 0.75615 -0.55713
 C144 C -0.19611 0.77122 -0.58875
 C145 C -0.19907 0.79890 -0.63274
 C146 C -0.21970 0.81015 -0.64444
 C147 C -0.23643 0.79509 -0.61249
 C148 C -0.26486 0.71239 -0.61264
 C149 C -0.28127 0.69735 -0.64603
 C150 C -0.30200 0.70864 -0.63620
 C151 C -0.30540 0.73616 -0.59220
 C152 C -0.28892 0.75120 -0.55909
 H153 H -0.27561 0.78422 -0.38078
 H154 H -0.30384 0.75667 -0.32431
 H155 H -0.29118 0.65548 -0.41723
 H156 H -0.26365 0.68445 -0.47487
 H157 H -0.23879 0.82488 -0.47734
 H158 H -0.21019 0.85405 -0.42204
 H159 H -0.22673 0.72607 -0.37961
 H160 H -0.21012 0.73486 -0.52400
 H161 H -0.18092 0.76003 -0.57967
 H162 H -0.22312 0.83193 -0.67589
 H163 H -0.25197 0.80500 -0.62134
 H164 H -0.24923 0.70258 -0.62037
 H165 H -0.27753 0.67565 -0.67728
 H166 H -0.32067 0.74734 -0.58438
 H167 H -0.29204 0.77250 -0.52628
 H168 H -0.19807 0.75497 -0.32431
 O169 O -0.02883 0.93802 0.11365
 O170 O -0.05157 0.97073 0.05460
 C171 C -0.04751 0.94751 0.09765
 O172 O 0.02993 1.06554 0.10759
 O173 O 0.05255 1.03099 0.05139
 C174 C 0.04857 1.05604 0.09133
 O175 O -0.02848 1.06239 0.11406
 O176 O -0.05142 1.03021 0.05478
 C177 C -0.04721 1.05325 0.09798
 O178 O 0.02955 0.93383 0.10659
 O179 O 0.05239 0.96855 0.05119
 C180 C 0.04825 0.94329 0.09071
 Zr181 Zr 0.00040 0.95441 0.07807
 O182 O 0.00260 0.95234 0.17558
 O183 O -0.00087 0.89776 0.07145
 Zr184 Zr 0.00068 1.04537 0.07892
 O185 O 0.00317 1.04482 0.17646
 O186 O -0.00153 1.10216 0.07971
 O187 O -0.01793 1.00001 0.09089
 O188 O 0.01858 0.99974 0.08972
 O189 O 0.02942 0.93422 -0.10679
 O190 O 0.05228 0.96884 -0.05139
 C191 C 0.04814 0.94376 -0.09114
 O192 O -0.02884 1.06268 -0.11194
 O193 O -0.05156 1.03023 -0.05226
 C194 C -0.04751 1.05330 -0.09554
 O195 O 0.02973 1.06592 -0.10670
 O196 O 0.05241 1.03117 -0.05105
 C197 C 0.04839 1.05627 -0.09087
 O198 O -0.02882 0.93798 -0.11326
 O199 O -0.05133 0.97039 -0.05324
 C200 C -0.04743 0.94749 -0.09683
 Zr201 Zr 0.00029 0.95484 -0.07782
 O202 O 0.00260 0.95507 -0.17540
 O203 O -0.00184 0.89805 -0.07725
 Zr204 Zr 0.00047 1.04585 -0.07735
 O205 O 0.00274 1.04620 -0.17493
 O206 O -0.00178 1.10264 -0.07652
 Zr207 Zr -0.03042 1.00041 0.00087
 Zr208 Zr 0.03130 0.99999 0.00023
 O209 O 0.01840 1.00026 -0.08909
 O210 O -0.01814 1.00048 -0.08948
 O211 O 0.01887 0.94761 -0.00002
 O212 O -0.01745 1.05236 0.00104
 O213 O -0.01782 0.94825 0.00032
 O214 O 0.01909 1.05258 0.00063
 H215 H 0.02804 0.99956 0.12583
 H216 H -0.02685 1.07343 0.00123
 H217 H 0.02781 1.00023 -0.12533
 H218 H -0.02735 0.92730 0.00030
 H219 H 0.00983 1.11160 0.05353
 H220 H 0.01005 1.11194 -0.05216
 H221 H -0.00886 1.03154 -0.19120
 H222 H -0.00881 0.97021 -0.19143
 H223 H 0.00808 0.88919 -0.04584
 H224 H -0.00082 0.88866 0.11449
 H225 H -0.00772 0.96947 0.19223
 H226 H -0.00869 1.03079 0.19272
 O227 O 0.47155 0.43721 0.11300
 O228 O 0.44872 0.46962 0.05381
 C229 C 0.45285 0.44646 0.09691
 O230 O 0.52970 0.56553 0.10737
 O231 O 0.55250 0.53130 0.05119
 C232 C 0.54839 0.55627 0.09119
 O233 O 0.47132 0.56165 0.11360
 O234 O 0.44863 0.52907 0.05420
 C235 C 0.45266 0.55217 0.09742
 O236 O 0.52993 0.43381 0.10605
 O237 O 0.55262 0.46886 0.05072
 C238 C 0.54859 0.44352 0.09018
 Zr239 Zr 0.50071 0.45402 0.07747
 O240 O 0.50288 0.45189 0.17497
 O241 O 0.49969 0.39736 0.07068
 Zr242 Zr 0.50054 0.54506 0.07847
 O243 O 0.50298 0.54461 0.17603
 O244 O 0.49807 0.60183 0.07898
 O245 O 0.48217 0.49939 0.09028
 O246 O 0.51865 0.49963 0.08927
 O247 O 0.52985 0.43429 -0.10733
 O248 O 0.55254 0.46922 -0.05185
 C249 C 0.54852 0.44408 -0.09162
 O250 O 0.47111 0.56200 -0.11266
 O251 O 0.44853 0.52924 -0.05304
 C252 C 0.45247 0.55237 -0.09631
 O253 O 0.52962 0.56600 -0.10710
 O254 O 0.55241 0.53158 -0.05126
 C255 C 0.54831 0.55661 -0.09113
 O256 O 0.47134 0.43772 -0.11344
 O257 O 0.44866 0.47007 -0.05364
 C258 C 0.45267 0.44714 -0.09713
 Zr259 Zr 0.50061 0.45453 -0.07847
 O260 O 0.50292 0.45477 -0.17605
 O261 O 0.49869 0.39772 -0.07834
 Zr262 Zr 0.50044 0.54557 -0.07781
 O263 O 0.50275 0.54615 -0.17537
 O264 O 0.49793 0.60233 -0.07662
 Zr265 Zr 0.46977 0.49963 0.00018
 Zr266 Zr 0.53141 0.50007 -0.00018
 O267 O 0.51855 0.50019 -0.08956
 O268 O 0.48205 0.49996 -0.09015
 O269 O 0.51921 0.44751 -0.00061
 O270 O 0.48244 0.55178 0.00049
 O271 O 0.48254 0.44761 -0.00038
 O272 O 0.51899 0.55251 0.00029
 H273 H 0.52809 0.49953 0.12541
 H274 H 0.47291 0.57270 0.00065
 H275 H 0.52797 0.50031 -0.12577
 H276 H 0.47307 0.42660 -0.00051
 H277 H 0.50952 0.61141 0.05332
 H278 H 0.50978 0.61176 -0.05248
 H279 H 0.49142 0.53090 -0.19169
 H280 H 0.49134 0.46950 -0.19212
 H281 H 0.50854 0.38893 -0.04666
 H282 H 0.49977 0.38821 0.11368
 H283 H 0.49252 0.46893 0.19163
 H284 H 0.49126 0.53020 0.19222
 C285 C 0.35265 0.34704 0.27603
 C286 C 0.33307 0.34676 0.24833
 C287 C 0.31627 0.33034 0.27801
 C288 C 0.31866 0.31369 0.33643
 C289 C 0.33871 0.31411 0.36336
 C290 C 0.35544 0.33064 0.33346
 C291 C 0.36986 0.36430 0.24562
 C292 C 0.38426 0.37879 0.22014
 C293 C 0.40147 0.39604 0.18967
 C294 C 0.39785 0.42227 0.14459
 C295 C 0.41455 0.43882 0.11458
 C296 C 0.43514 0.42930 0.12929
 C297 C 0.43859 0.40299 0.17494
 C298 C 0.42185 0.38649 0.20485
 H299 H 0.33078 0.35911 0.20350
 H300 H 0.30165 0.32978 0.25348
 H301 H 0.34156 0.30319 0.40886
 H302 H 0.37054 0.33095 0.35557
 H303 H 0.38212 0.42988 0.13252
 H304 H 0.41131 0.45898 0.07978
 H305 H 0.45420 0.39500 0.18744
 H306 H 0.42482 0.36622 0.23971
 C307 C -0.14793 0.84856 0.27624
 C308 C -0.16753 0.84851 0.24866
 C309 C -0.18434 0.83206 0.27824
 C310 C -0.18192 0.81514 0.33642
 C311 C -0.16185 0.81534 0.36323
 C312 C -0.14512 0.83190 0.33344
 C313 C -0.13071 0.86581 0.24593
 C314 C -0.11627 0.88028 0.22057
 C315 C -0.09903 0.89747 0.19025
 C316 C -0.10257 0.92381 0.14532
 C317 C -0.08582 0.94026 0.11539
 C318 C -0.06527 0.93052 0.13005
 C319 C -0.06189 0.90412 0.17559
 C320 C -0.07867 0.88772 0.20541
 H321 H -0.16983 0.86106 0.20400
 H322 H -0.19898 0.83168 0.25382
 H323 H -0.15899 0.80421 0.40858
 H324 H -0.13000 0.83203 0.35544
 H325 H -0.11827 0.93157 0.13328
 H326 H -0.08900 0.96050 0.08068
 H327 H -0.04630 0.89597 0.18803
 H328 H -0.07577 0.86736 0.24017
 C329 C 0.64785 0.65967 0.26696
 C330 C 0.64440 0.67619 0.32396
 C331 C 0.66080 0.69253 0.35565
 C332 C 0.68118 0.69265 0.33101
 C333 C 0.68425 0.67592 0.27293
 C334 C 0.66777 0.65968 0.24145
 C335 C 0.63097 0.64237 0.23504
 C336 C 0.61676 0.62778 0.20885
 C337 C 0.59965 0.61028 0.17834
 C338 C 0.57924 0.61923 0.19421
 C339 C 0.56256 0.60183 0.16563
 C340 C 0.56608 0.57514 0.12071
 C341 C 0.58670 0.56650 0.10478
 C342 C 0.60335 0.58396 0.13347
 H343 H 0.62903 0.67607 0.34441
 H344 H 0.65742 0.70353 0.40075
 H345 H 0.69918 0.67626 0.25005
 H346 H 0.67058 0.64721 0.19698
 H347 H 0.57620 0.63954 0.22893
 H348 H 0.54692 0.60920 0.17902
 H349 H 0.59000 0.54615 0.07036
 H350 H 0.61911 0.57682 0.12086
 C351 C 0.14880 1.15788 0.26570
 C352 C 0.16727 1.13902 0.27503
 C353 C 0.18377 1.15504 0.30671
 C354 C 0.18217 1.19051 0.33008
 C355 C 0.16330 1.20913 0.31979
 C356 C 0.14687 1.19295 0.28798
 C357 C 0.13172 1.14101 0.23408
 C358 C 0.11737 1.12670 0.20811
 C359 C 0.10015 1.10946 0.17781
 C360 C 0.10368 1.08300 0.13308
 C361 C 0.08692 1.06574 0.10461
 C362 C 0.06636 1.07472 0.12063
 C363 C 0.06301 1.10156 0.16540
 C364 C 0.07979 1.11876 0.19376
 H365 H 0.16886 1.11166 0.25846
 H366 H 0.19735 1.13864 0.31490
 H367 H 0.16124 1.23674 0.33407
 H368 H 0.13265 1.20792 0.28059
 H369 H 0.11939 1.07558 0.12042
 H370 H 0.09009 1.04527 0.07030
 H371 H 0.04742 1.10918 0.17883
 H372 H 0.07689 1.13919 0.22838
 C373 C 0.64952 0.34671 -0.26967
 C374 C 0.65877 0.31563 -0.24647
 C375 C 0.67545 0.29976 -0.27751
 C376 C 0.68347 0.31460 -0.33320
 C377 C 0.67377 0.34643 -0.35533
 C378 C 0.65708 0.36208 -0.32399
 C379 C 0.63221 0.36278 -0.23791
 C380 C 0.61768 0.37631 -0.21157
 C381 C 0.60033 0.39268 -0.18047
 C382 C 0.58001 0.38292 -0.19621
 C383 C 0.56313 0.39935 -0.16696
 C384 C 0.56636 0.42585 -0.12153
 C385 C 0.58689 0.43524 -0.10569
 C386 C 0.60373 0.41875 -0.13500
 H387 H 0.65318 0.30371 -0.20389
 H388 H 0.68243 0.27680 -0.25517
 H389 H 0.67801 0.35878 -0.39869
 H390 H 0.64987 0.38604 -0.34274
 H391 H 0.57721 0.36276 -0.23138
 H392 H 0.54757 0.39147 -0.18031
 H393 H 0.58998 0.45547 -0.07090
 H394 H 0.61939 0.42651 -0.12246
 C395 C 0.14871 0.84573 -0.27002
 C396 C 0.15180 0.85268 -0.33291
 C397 C 0.16850 0.83698 -0.36414
 C398 C 0.18234 0.81407 -0.33281
 C399 C 0.17913 0.80733 -0.26954
 C400 C 0.16242 0.82309 -0.23839
 C401 C 0.13145 0.86180 -0.23807
 C402 C 0.11697 0.87538 -0.21157
 C403 C 0.09969 0.89183 -0.18028
 C404 C 0.10321 0.91775 -0.13464
 C405 C 0.08646 0.93439 -0.10520
 C406 C 0.06589 0.92532 -0.12110
 C407 C 0.06253 0.89895 -0.16668
 C408 C 0.07933 0.88236 -0.19606
 H409 H 0.14125 0.87009 -0.35788
 H410 H 0.17039 0.84228 -0.41302
 H411 H 0.18965 0.79017 -0.24400
 H412 H 0.16021 0.81762 -0.18965
 H413 H 0.11892 0.92528 -0.12207
 H414 H 0.08964 0.95451 -0.07030
 H415 H 0.04693 0.89131 -0.18007
 H416 H 0.07644 0.86233 -0.23137
 C417 C 0.35071 0.64584 -0.27662
 C418 C 0.33226 0.62642 -0.28421
 C419 C 0.31524 0.64221 -0.31380
 C420 C 0.31648 0.67770 -0.33611
 C421 C 0.33511 0.69698 -0.32818
 C422 C 0.35210 0.68114 -0.29864
 C423 C 0.36823 0.62961 -0.24620
 C424 C 0.38292 0.61610 -0.22061
 C425 C 0.40040 0.60000 -0.18979
 C426 C 0.39718 0.57388 -0.14428
 C427 C 0.41411 0.55837 -0.11393
 C428 C 0.43455 0.56881 -0.12873
 C429 C 0.43762 0.59505 -0.17474
 C430 C 0.42064 0.61053 -0.20500
 H431 H 0.33100 0.59911 -0.26718
 H432 H 0.30105 0.62683 -0.31860
 H433 H 0.33665 0.72414 -0.34564
 H434 H 0.36633 0.69637 -0.29316
 H435 H 0.38157 0.56551 -0.13217
 H436 H 0.41114 0.53821 -0.07889
 H437 H 0.45312 0.60371 -0.18731
 H438 H 0.42331 0.63075 -0.24018
 C439 C -0.14903 1.14752 -0.27574
 C440 C -0.16745 1.12805 -0.28363
 C441 C -0.18448 1.14387 -0.31310
 C442 C -0.18329 1.17945 -0.33497
 C443 C -0.16469 1.19879 -0.32676
 C444 C -0.14769 1.18291 -0.29734
 C445 C -0.13151 1.13126 -0.24540
 C446 C -0.11685 1.11768 -0.21983
 C447 C -0.09941 1.10147 -0.18899
 C448 C -0.10272 1.07542 -0.14341
 C449 C -0.08585 1.05976 -0.11305
 C450 C -0.06537 1.06996 -0.12792
 C451 C -0.06221 1.09613 -0.17399
 C452 C -0.07913 1.11177 -0.20426
 H453 H -0.16867 1.10066 -0.26691
 H454 H -0.19865 1.12844 -0.31813
 H455 H -0.16319 1.22603 -0.34390
 H456 H -0.13348 1.19819 -0.29162
 H457 H -0.11836 1.06724 -0.13125
 H458 H -0.08889 1.03966 -0.07797
 H459 H -0.04668 1.10460 -0.18661
 H460 H -0.07641 1.13193 -0.23951
 C461 C 0.64900 0.65494 -0.26945
 C462 C 0.65940 0.68429 -0.24374
 C463 C 0.67606 0.70015 -0.27500
 C464 C 0.68277 0.68693 -0.33305
 C465 C 0.67204 0.65700 -0.35796
 C466 C 0.65537 0.64132 -0.32650
 C467 C 0.63173 0.63885 -0.23748
 C468 C 0.61724 0.62524 -0.21101
 C469 C 0.59994 0.60874 -0.17981
 C470 C 0.57960 0.61816 -0.19573
 C471 C 0.56277 0.60152 -0.16650
 C472 C 0.56609 0.57512 -0.12093
 C473 C 0.58664 0.56609 -0.10488
 C474 C 0.60342 0.58279 -0.13417
 H475 H 0.65471 0.69486 -0.19922
 H476 H 0.68403 0.72194 -0.25195
 H477 H 0.67573 0.64633 -0.40308
 H478 H 0.64730 0.61873 -0.34709
 H479 H 0.57673 0.63822 -0.23104
 H480 H 0.54718 0.60912 -0.18000
 H481 H 0.58979 0.54595 -0.06997
 H482 H 0.61912 0.57529 -0.12150
 C483 C 0.14922 1.15466 -0.26872
 C484 C 0.14968 1.19180 -0.27793
 C485 C 0.16627 1.20774 -0.30937
 C486 C 0.18289 1.18677 -0.33263
 C487 C 0.18208 1.14916 -0.32255
 C488 C 0.16545 1.13341 -0.29097
 C489 C 0.13198 1.13832 -0.23694
 C490 C 0.11749 1.12459 -0.21062
 C491 C 0.10016 1.10805 -0.17959
 C492 C 0.07983 1.11780 -0.19516
 C493 C 0.06297 1.10123 -0.16596
 C494 C 0.06623 1.07460 -0.12075
 C495 C 0.08676 1.06522 -0.10508
 C496 C 0.10358 1.08184 -0.13435
 H497 H 0.13707 1.20851 -0.26136
 H498 H 0.16539 1.23638 -0.31742
 H499 H 0.19458 1.13162 -0.33676
 H500 H 0.16532 1.10459 -0.28364
 H501 H 0.07701 1.13806 -0.23014
 H502 H 0.04740 1.10912 -0.17917
 H503 H 0.08987 1.04489 -0.07046
 H504 H 0.11926 1.07409 -0.12193
 C505 C 0.35083 0.35444 -0.27835
 C506 C 0.34724 0.36094 -0.34113
 C507 C 0.33015 0.34534 -0.37061
 C508 C 0.31641 0.32299 -0.33761
 C509 C 0.32012 0.31673 -0.27445
 C510 C 0.33721 0.33239 -0.24505
 C511 C 0.36848 0.37035 -0.24807
 C512 C 0.38322 0.38367 -0.22244
 C513 C 0.40070 0.39965 -0.19139
 C514 C 0.42096 0.38934 -0.20677
 C515 C 0.43792 0.40476 -0.17623
 C516 C 0.43480 0.43070 -0.12980
 C517 C 0.41434 0.44090 -0.11483
 C518 C 0.39744 0.42547 -0.14544
 H519 H 0.35771 0.37791 -0.36736
 H520 H 0.32787 0.35025 -0.41946
 H521 H 0.30970 0.29999 -0.24766
 H522 H 0.33981 0.32728 -0.19638
 H523 H 0.42365 0.36936 -0.24230
 H524 H 0.45343 0.39630 -0.18894
 H525 H 0.41134 0.46083 -0.07947
 H526 H 0.38182 0.43365 -0.13319
 C527 C -0.14950 0.85531 -0.27787
 C528 C -0.15311 0.86199 -0.34059
 C529 C -0.17019 0.84640 -0.37020
 C530 C -0.18389 0.82388 -0.33739
 C531 C -0.18016 0.81744 -0.27429
 C532 C -0.16308 0.83309 -0.24477
 C533 C -0.13185 0.87118 -0.24749
 C534 C -0.11710 0.88444 -0.22182
 C535 C -0.09957 0.90031 -0.19081
 C536 C -0.07934 0.88992 -0.20633
 C537 C -0.06233 0.90523 -0.17588
 C538 C -0.06537 0.93116 -0.12937
 C539 C -0.08580 0.94145 -0.11425
 C540 C -0.10275 0.92612 -0.14477
 H541 H -0.14267 0.87908 -0.36669
 H542 H -0.17248 0.85145 -0.41900
 H543 H -0.19055 0.80058 -0.24765
 H544 H -0.16047 0.82784 -0.19615
 H545 H -0.07671 0.86995 -0.24193
 H546 H -0.04684 0.89671 -0.18872
 H547 H -0.08874 0.96137 -0.07882
 H548 H -0.11835 0.93437 -0.13240
 C549 C 0.35191 0.64985 0.27593
 C550 C 0.35153 0.68721 0.28372
 C551 C 0.33473 0.70358 0.31347
 C552 C 0.31808 0.68274 0.33575
 C553 C 0.31861 0.64521 0.32757
 C554 C 0.33542 0.62891 0.29786
 C555 C 0.36924 0.63298 0.24559
 C556 C 0.38373 0.61876 0.22021
 C557 C 0.40102 0.60180 0.18986
 C558 C 0.42136 0.61161 0.20524
 C559 C 0.43818 0.59537 0.17545
 C560 C 0.43487 0.56905 0.12974
 C561 C 0.41433 0.55926 0.11485
 C562 C 0.39755 0.57555 0.14475
 H563 H 0.36420 0.70367 0.26677
 H564 H 0.33466 0.73255 0.31844
 H565 H 0.30618 0.62840 0.34500
 H566 H 0.33560 0.59996 0.29223
 H567 H 0.42422 0.63190 0.24015
 H568 H 0.45376 0.60355 0.18808
 H569 H 0.41119 0.53908 0.08001
 H570 H 0.38186 0.56773 0.13255
 C571 C -0.14707 1.15300 0.27769
 C572 C -0.14563 1.16192 0.34035
 C573 C -0.16234 1.17847 0.37024
 C574 C -0.18072 1.18630 0.33778
 C575 C -0.18198 1.17735 0.27472
 C576 C -0.16525 1.16082 0.24492
 C577 C -0.12994 1.13567 0.24713
 C578 C -0.11558 1.12112 0.22155
 C579 C -0.09844 1.10382 0.19099
 C580 C -0.07802 1.11305 0.20647
 C581 C -0.06134 1.09651 0.17648
 C582 C -0.06487 1.07045 0.13046
 C583 C -0.08549 1.06124 0.11547
 C584 C -0.10214 1.07783 0.14556
 H585 H -0.13165 1.15589 0.36620
 H586 H -0.16100 1.18457 0.41900
 H587 H -0.19583 1.18342 0.24832
 H588 H -0.16650 1.15412 0.19634
 H589 H -0.07499 1.13313 0.24161
 H590 H -0.04570 1.10425 0.18921
 H591 H -0.08880 1.04128 0.08038
 H592 H -0.11789 1.07046 0.13326
 C593 C 0.64868 0.34226 0.26581
 C594 C 0.66498 0.36343 0.28837
 C595 C 0.68143 0.34747 0.32030
 C596 C 0.68180 0.31007 0.33014
 C597 C 0.66535 0.28900 0.30718
 C598 C 0.64891 0.30503 0.27520
 C599 C 0.63161 0.35888 0.23382
 C600 C 0.61728 0.37303 0.20756
 C601 C 0.60008 0.39014 0.17695
 C602 C 0.60366 0.41680 0.13256
 C603 C 0.58693 0.43402 0.10394
 C604 C 0.56636 0.42480 0.11947
 C605 C 0.56296 0.39773 0.16385
 C606 C 0.57971 0.38057 0.19236
 H607 H 0.66490 0.39230 0.28161
 H608 H 0.69370 0.36447 0.33818
 H609 H 0.66531 0.26011 0.31339
 H610 H 0.63638 0.28840 0.25787
 H611 H 0.61938 0.42443 0.12033
 H612 H 0.59014 0.45467 0.06994
 H613 H 0.54735 0.38992 0.17691
 H614 H 0.57677 0.35999 0.22672
 C615 C 0.14747 0.83975 0.26704
 C616 C 0.16588 0.83137 0.23585
 C617 C 0.18230 0.81501 0.26744
 C618 C 0.18049 0.80681 0.33071
 C619 C 0.16186 0.81518 0.36154
 C620 C 0.14548 0.83155 0.32987
 C621 C 0.13066 0.85704 0.23483
 C622 C 0.11649 0.87163 0.20845
 C623 C 0.09943 0.88912 0.17779
 C624 C 0.10318 0.91566 0.13330
 C625 C 0.08656 0.93316 0.10458
 C626 C 0.06592 0.92432 0.12010
 C627 C 0.06235 0.89738 0.16460
 C628 C 0.07900 0.87996 0.19321
 H629 H 0.16756 0.83752 0.18717
 H630 H 0.19634 0.80851 0.24227
 H631 H 0.16011 0.80967 0.41039
 H632 H 0.13131 0.83803 0.35450
 H633 H 0.11895 0.92297 0.12105
 H634 H 0.08989 0.95370 0.07050
 H635 H 0.04670 0.88987 0.17768
 H636 H 0.07592 0.85947 0.22763
   
