data_POSCAR
  _audit_creation_date              2014-09-24
  _audit_creation_method            'ToBaCCo'
  _symmetry_space_group_name_H-M    'P1'
  _symmetry_Int_Tables_number       1
  _symmetry_cell_setting            triclinic
  loop_
  _symmetry_equiv_pos_as_xyz
 x,y,z
_cell_length_a 40.1487
_cell_length_b 41.0371
_cell_length_c 40.2613
_cell_angle_alpha 86.401400
_cell_angle_beta 88.253100
_cell_angle_gamma 92.720000
loop_
  _atom_site_label
  _atom_site_type_symbol
  _atom_site_fract_x
  _atom_site_fract_y
  _atom_site_fract_z
C1 C 0.72200 0.65408 0.95341
 H2 H 0.74298 0.67072 0.95717
 C3 C 0.69245 0.66635 0.94112
 H4 H 0.69129 0.69232 0.93493
 C5 C 0.69752 0.60030 0.95756
 H6 H 0.69915 0.57474 0.96513
 C7 C 0.66765 0.61146 0.94554
 H8 H 0.64677 0.59402 0.94397
 N9 N 0.72414 0.62143 0.96091
 C10 C 0.80472 0.63425 1.02298
 H11 H 0.79381 0.61592 1.04097
 C12 C 0.82979 0.65572 1.03295
 H13 H 0.83743 0.65371 1.05855
 C14 C 0.80929 0.65821 0.96789
 H15 H 0.80134 0.65886 0.94243
 C16 C 0.83529 0.67975 0.97668
 H17 H 0.84695 0.69712 0.95802
 Zn18 Zn 0.76242 0.60262 0.97953
 N19 N 0.79495 0.63555 0.99088
 C20 C 0.81210 0.58353 0.93426
 N21 N 0.78160 0.57463 0.94859
 C22 C 0.76416 0.54744 0.93954
 C23 C 0.77682 0.52883 0.91443
 C24 C 0.82523 0.56614 0.90867
 C25 C 0.72812 0.59659 1.03949
 C26 C 0.71618 0.58339 1.07042
 C27 C 0.74246 0.53319 1.05971
 C28 C 0.75415 0.54770 1.02873
 N29 N 0.74699 0.57896 1.01948
 H30 H 0.82618 0.60455 0.94198
 H31 H 0.74027 0.54028 0.95152
 H32 H 0.76256 0.50757 0.90704
 H33 H 0.84908 0.57414 0.89685
 H34 H 0.72282 0.62142 1.03151
 H35 H 0.70152 0.59893 1.08528
 H36 H 0.74919 0.50846 1.06588
 H37 H 0.76936 0.53413 1.01238
 C38 C 0.84588 0.67842 1.00964
 C39 C 0.66487 0.64485 0.93663
 C40 C 0.72317 0.55111 1.08165
 C41 C 0.80736 0.53874 0.89833
 C42 C 0.70602 0.34818 0.55781
 H43 H 0.72526 0.35677 0.57376
 C44 C 0.67486 0.33787 0.57174
 H45 H 0.67065 0.33818 0.59841
 C46 C 0.68789 0.33794 0.50378
 H47 H 0.69291 0.33922 0.47717
 C48 C 0.65627 0.32706 0.51680
 H49 H 0.63709 0.31952 0.50016
 N50 N 0.71162 0.34909 0.52430
 C51 C 0.81150 0.35961 0.47782
 H52 H 0.81591 0.38562 0.47982
 C53 C 0.83626 0.34148 0.46413
 H54 H 0.85960 0.35387 0.45539
 C55 C 0.77536 0.31229 0.48664
 H56 H 0.75158 0.30114 0.49569
 C57 C 0.79950 0.29313 0.47283
 H58 H 0.79411 0.26715 0.47169
 Zn59 Zn 0.75028 0.37267 0.50630
 N60 N 0.78170 0.34495 0.48855
 C61 C 0.79785 0.38244 0.55481
 N62 N 0.77022 0.39504 0.54125
 C63 C 0.75520 0.42039 0.55481
 C64 C 0.76791 0.43393 0.58312
 C65 C 0.81159 0.39549 0.58271
 C66 C 0.74993 0.40188 0.44025
 C67 C 0.73576 0.41925 0.41374
 C68 C 0.69439 0.43730 0.45235
 C69 C 0.70927 0.41956 0.47807
 N70 N 0.73630 0.40194 0.47165
 H71 H 0.80870 0.36143 0.54478
 H72 H 0.73290 0.42968 0.54430
 H73 H 0.75571 0.45414 0.59348
 H74 H 0.83343 0.38487 0.59323
 H75 H 0.77079 0.38714 0.43521
 H76 H 0.74615 0.41781 0.38877
 H77 H 0.67264 0.45075 0.45812
 H78 H 0.69799 0.41834 0.50284
 C79 C 0.83039 0.30785 0.46111
 C80 C 0.64919 0.32826 0.55104
 C81 C 0.70696 0.43636 0.41947
 C82 C 0.79637 0.42125 0.59749
 C83 C 0.22722 -0.19242 0.02200
 H84 H 0.24913 -0.20529 0.01563
 C85 C 0.19807 -0.21009 0.03384
 H86 H 0.19799 -0.23650 0.03678
 C87 C 0.20004 -0.14260 0.02467
 H88 H 0.20091 -0.11626 0.02061
 C89 C 0.17035 -0.15927 0.03588
 H90 H 0.14861 -0.14551 0.04101
 N91 N 0.22770 -0.15922 0.01784
 C92 C 0.30506 -0.15264 -0.05404
 H93 H 0.29285 -0.13380 -0.06825
 C94 C 0.32924 -0.16977 -0.06994
 H95 H 0.33504 -0.16355 -0.09606
 C96 C 0.31423 -0.18135 -0.00255
 H97 H 0.30852 -0.18533 0.02387
 C98 C 0.33890 -0.19921 -0.01762
 H99 H 0.35188 -0.21714 -0.00274
 Zn100 Zn 0.26432 -0.13313 -0.00214
 N101 N 0.29746 -0.15894 -0.02105
 C102 C 0.31394 -0.09041 0.02172
 N103 N 0.28456 -0.10729 0.02991
 C104 C 0.27152 -0.10886 0.06160
 C105 C 0.28851 -0.09372 0.08667
 C106 C 0.33200 -0.07523 0.04616
 C107 C 0.22639 -0.12750 -0.05599
 C108 C 0.21038 -0.11463 -0.08346
 C109 C 0.23474 -0.06134 -0.07357
 C110 C 0.25021 -0.07550 -0.04563
 N111 N 0.24564 -0.10812 -0.03753
 H112 H 0.32395 -0.08980 -0.00358
 H113 H 0.24844 -0.12280 0.06783
 H114 H 0.27808 -0.09603 0.11188
 H115 H 0.35556 -0.06233 0.03921
 H116 H 0.22396 -0.15352 -0.04957
 H117 H 0.19703 -0.13220 -0.09753
 H118 H 0.23879 -0.03530 -0.07939
 H119 H 0.26597 -0.06055 -0.03072
 C120 C 0.34622 -0.19384 -0.05195
 C121 C 0.16907 -0.19344 0.04066
 C122 C 0.21364 -0.08077 -0.09286
 C123 C 0.31960 -0.07736 0.07933
 C124 C 0.20252 0.17190 0.46772
 H125 H 0.21447 0.18203 0.48875
 C126 C 0.17484 0.18660 0.45405
 H127 H 0.16569 0.20837 0.46434
 C128 C 0.19891 0.13044 0.42933
 H129 H 0.20763 0.10788 0.42056
 C130 C 0.17183 0.14469 0.41451
 H131 H 0.16009 0.13315 0.39410
 N132 N 0.21397 0.14437 0.45511
 C133 C 0.28339 0.15172 0.52639
 H134 H 0.26624 0.13693 0.54285
 C135 C 0.30937 0.16978 0.53988
 H136 H 0.31205 0.16809 0.56661
 C137 C 0.30080 0.17167 0.47192
 H138 H 0.29751 0.17250 0.44543
 C139 C 0.32719 0.19016 0.48435
 H140 H 0.34340 0.20522 0.46707
 Zn141 Zn 0.24894 0.12180 0.47525
 N142 N 0.28028 0.15193 0.49284
 C143 C 0.28015 0.06797 0.44509
 N144 N 0.27101 0.09952 0.44164
 C145 C 0.27748 0.11795 0.41273
 C146 C 0.29489 0.10555 0.38644
 C147 C 0.29779 0.05441 0.41908
 C148 C 0.19677 0.09461 0.51684
 C149 C 0.18179 0.07933 0.54565
 C150 C 0.23507 0.05895 0.56062
 C151 C 0.24919 0.07483 0.53128
 N152 N 0.23006 0.09299 0.51055
 H153 H 0.27430 0.05349 0.46806
 H154 H 0.26877 0.14244 0.40991
 H155 H 0.29954 0.12086 0.36372
 H156 H 0.30569 0.02957 0.42225
 H157 H 0.18184 0.10918 0.50039
 H158 H 0.15571 0.08316 0.55062
 H159 H 0.25082 0.04559 0.57747
 H160 H 0.27573 0.07423 0.52606
 C161 C 0.33247 0.18844 0.51874
 C162 C 0.15947 0.17307 0.42690
 C163 C 0.20096 0.06152 0.56840
 C164 C 0.30604 0.07370 0.38963
 C165 C 0.15390 0.47387 0.22863
 H166 H 0.15159 0.45914 0.25186
 C167 C 0.17107 0.46229 0.20150
 H168 H 0.18265 0.43904 0.20461
 C169 C 0.13931 0.52059 0.19575
 H170 H 0.12583 0.54266 0.19307
 C171 C 0.15611 0.50986 0.16793
 H172 H 0.15508 0.52406 0.14447
 N173 N 0.13832 0.50251 0.22534
 C174 C 0.12295 0.54801 0.31741
 H175 H 0.10100 0.56031 0.30973
 C176 C 0.13798 0.55620 0.34659
 H177 H 0.12771 0.57526 0.36064
 C178 C 0.16183 0.50736 0.30932
 H179 H 0.17095 0.48821 0.29486
 C180 C 0.17752 0.51459 0.33881
 H181 H 0.19900 0.50134 0.34635
 Zn182 Zn 0.11040 0.51427 0.26106
 N183 N 0.13519 0.52428 0.29907
 C184 C 0.07580 0.47033 0.30673
 N185 N 0.08076 0.47795 0.27355
 C186 C 0.07110 0.45659 0.25068
 C187 C 0.05796 0.42521 0.26113
 C188 C 0.06315 0.43934 0.31815
 C189 C 0.10851 0.57984 0.24245
 C190 C 0.09578 0.60929 0.23110
 C191 C 0.04147 0.58163 0.22880
 C192 C 0.05529 0.55255 0.24061
 N193 N 0.08837 0.55223 0.24684
 H194 H 0.08377 0.48748 0.32450
 H195 H 0.07589 0.46298 0.22444
 H196 H 0.05233 0.40764 0.24287
 H197 H 0.06122 0.43302 0.34470
 H198 H 0.13480 0.57876 0.24730
 H199 H 0.11270 0.63055 0.22681
 H200 H 0.01523 0.58155 0.22332
 H201 H 0.03983 0.53021 0.24419
 C202 C 0.16559 0.53946 0.35771
 C203 C 0.17197 0.48008 0.17043
 C204 C 0.06186 0.61051 0.22399
 C205 C 0.05544 0.41598 0.29526
 C206 C -0.17996 0.02800 0.20526
 H207 H -0.18457 0.03182 0.23126
 C208 C -0.20259 0.03883 0.18190
 H209 H -0.22345 0.05156 0.19118
 C210 C -0.14664 0.00669 0.16322
 H211 H -0.12499 -0.00598 0.15586
 C212 C -0.16846 0.01726 0.13891
 H213 H -0.16270 0.01238 0.11330
 N214 N -0.15214 0.01306 0.19559
 C215 C -0.13704 -0.00922 0.29758
 H216 H -0.11613 0.00775 0.30075
 C217 C -0.15484 -0.02343 0.32553
 H218 H -0.14749 -0.01721 0.35010
 C219 C -0.17130 -0.03886 0.26186
 H220 H -0.17752 -0.04466 0.23688
 C221 C -0.18951 -0.05396 0.28916
 H222 H -0.20996 -0.07122 0.28498
 Zn223 Zn -0.12112 0.00220 0.22874
 N224 N -0.14553 -0.01708 0.26652
 C225 C -0.11803 0.06268 0.25629
 N226 N -0.09867 0.04151 0.24078
 C227 C -0.06534 0.04835 0.23517
 C228 C -0.05041 0.07748 0.24539
 C229 C -0.10403 0.09143 0.26767
 C230 C -0.09366 -0.05954 0.22748
 C231 C -0.07663 -0.08452 0.21359
 C232 C -0.05243 -0.04509 0.17166
 C233 C -0.07017 -0.02086 0.18626
 N234 N -0.09124 -0.02864 0.21298
 H235 H -0.14426 0.05669 0.26103
 H236 H -0.05016 0.03113 0.22330
 H237 H -0.02383 0.08253 0.24134
 H238 H -0.11965 0.10747 0.28091
 H239 H -0.10998 -0.06534 0.24905
 H240 H -0.08040 -0.10915 0.22479
 H241 H -0.03632 -0.03811 0.15015
 H242 H -0.06826 0.00392 0.17527
 C243 C -0.18115 -0.04642 0.32151
 C244 C -0.19673 0.03440 0.14772
 C245 C -0.05666 -0.07782 0.18448
 C246 C -0.06992 0.09907 0.26222
 C247 C 0.30522 0.52931 0.73189
 H248 H 0.30644 0.54095 0.75514
 C249 C 0.28462 0.54152 0.70720
 H250 H 0.27068 0.56277 0.71191
 C251 C 0.32354 0.48900 0.69695
 H252 H 0.33871 0.46851 0.69290
 C253 C 0.30346 0.50057 0.67146
 H254 H 0.30361 0.48897 0.64803
 N255 N 0.32500 0.50416 0.72605
 C256 C 0.36260 0.47242 0.82224
 H257 H 0.38843 0.47988 0.81642
 C258 C 0.35303 0.46062 0.85433
 H259 H 0.37180 0.45961 0.87303
 C260 C 0.30691 0.46665 0.80474
 H261 H 0.28915 0.46947 0.78523
 C262 C 0.29621 0.45414 0.83676
 H263 H 0.27017 0.44684 0.84165
 Zn264 Zn 0.35831 0.49323 0.75702
 N265 N 0.33977 0.47501 0.79815
 C266 C 0.36672 0.54930 0.79062
 N267 N 0.38260 0.53186 0.76780
 C268 C 0.41474 0.53996 0.75749
 C269 C 0.43220 0.56631 0.77073
 C270 C 0.38335 0.57515 0.80487
 C271 C 0.38683 0.43177 0.75341
 C272 C 0.40297 0.40719 0.73777
 C273 C 0.41927 0.44639 0.69226
 C274 C 0.40314 0.47033 0.70894
 N275 N 0.38652 0.46248 0.73853
 H276 H 0.34160 0.54191 0.79929
 H277 H 0.42729 0.52546 0.73998
 H278 H 0.45801 0.57211 0.76313
 H279 H 0.37065 0.58797 0.82386
 H280 H 0.37315 0.42573 0.77665
 H281 H 0.40166 0.38259 0.74933
 H282 H 0.43140 0.45289 0.66822
 H283 H 0.40221 0.49475 0.69732
 C284 C 0.31960 0.45051 0.86189
 C285 C 0.28417 0.52762 0.67615
 C286 C 0.41837 0.41408 0.70625
 C287 C 0.41659 0.58352 0.79536
 C288 C 0.66953 0.96741 0.71914
 H289 H 0.67201 0.95892 0.74479
 C290 C 0.68921 0.95447 0.69447
 H291 H 0.70623 0.93603 0.70204
 C292 C 0.64204 0.99937 0.67848
 H293 H 0.62269 1.01581 0.67207
 C294 C 0.66140 0.98739 0.65308
 H295 H 0.65707 0.99557 0.62755
 N296 N 0.64638 0.98937 0.71086
 C297 C 0.63881 1.04697 0.79085
 H298 H 0.62642 1.06494 0.77574
 C299 C 0.65375 1.05659 0.81956
 H300 H 0.65276 1.08206 0.82491
 C301 C 0.65289 0.99234 0.80276
 H302 H 0.65135 0.96705 0.79671
 C303 C 0.66810 1.00084 0.83208
 H304 H 0.67871 0.98155 0.84714
 Zn305 Zn 0.61631 1.00338 0.74393
 N306 N 0.63904 1.01544 0.78252
 C307 C 0.56672 0.96995 0.78540
 N308 N 0.58594 0.96817 0.75727
 C309 C 0.58737 0.93989 0.74149
 C310 C 0.57039 0.91144 0.75496
 C311 C 0.54918 0.94206 0.79969
 C312 C 0.61604 1.06521 0.71301
 C313 C 0.60378 1.09396 0.69933
 C314 C 0.54774 1.07121 0.71097
 C315 C 0.56121 1.04269 0.72483
 N316 N 0.59488 1.04032 0.72555
 H317 H 0.56658 0.99261 0.79777
 H318 H 0.60286 0.93895 0.71919
 H319 H 0.57280 0.88890 0.74267
 H320 H 0.53559 0.94366 0.82311
 H321 H 0.64270 1.06276 0.71413
 H322 H 0.62144 1.11358 0.69059
 H323 H 0.52092 1.07277 0.71027
 H324 H 0.54486 1.02258 0.73498
 C325 C 0.66884 1.03360 0.84108
 C326 C 0.68525 0.96436 0.66074
 C327 C 0.56920 1.09718 0.69761
 C328 C 0.55157 0.91209 0.78483
 C329 C 0.03167 0.21133 -0.16948
 H330 H 0.02779 0.23224 -0.18622
 C331 C 0.04272 0.18269 -0.18239
 H332 H 0.04810 0.18231 -0.20888
 C333 C 0.02764 0.18542 -0.11520
 H334 H 0.02167 0.18670 -0.08894
 C335 C 0.03844 0.15639 -0.12699
 H336 H 0.04136 0.13582 -0.10934
 N337 N 0.02529 0.21244 -0.13618
 C338 C -0.01555 0.30866 -0.13153
 H339 H -0.03077 0.30199 -0.10931
 C340 C -0.02098 0.33765 -0.15003
 H341 H -0.04079 0.35282 -0.14230
 C342 C 0.02842 0.29689 -0.16879
 H343 H 0.04855 0.28168 -0.17525
 C344 C 0.02305 0.32525 -0.18875
 H345 H 0.03819 0.33104 -0.21126
 Zn346 Zn 0.01046 0.24911 -0.11419
 N347 N 0.00809 0.28837 -0.14163
 C348 C 0.03124 0.28094 -0.05796
 N349 N 0.03946 0.25815 -0.07944
 C350 C 0.06982 0.24475 -0.07888
 C351 C 0.09346 0.25450 -0.05637
 C352 C 0.05418 0.29148 -0.03506
 C353 C -0.05407 0.23104 -0.12408
 C354 C -0.08709 0.22021 -0.11763
 C355 C -0.07768 0.22199 -0.05880
 C356 C -0.04450 0.23270 -0.06656
 N357 N -0.03345 0.23667 -0.09884
 H358 H 0.00733 0.29190 -0.05952
 H359 H 0.07646 0.22758 -0.09692
 H360 H 0.11775 0.24412 -0.05698
 H361 H 0.04746 0.31081 -0.01946
 H362 H -0.04460 0.23488 -0.14955
 H363 H -0.10185 0.21698 -0.13917
 H364 H -0.08542 0.21861 -0.03276
 H365 H -0.02758 0.23729 -0.04681
 C366 C -0.00227 0.34566 -0.17952
 C367 C 0.04635 0.15474 -0.16101
 C368 C -0.09973 0.21454 -0.08445
 C369 C 0.08603 0.27852 -0.03435
 C370 C 0.46859 0.22674 0.17837
 H371 H 0.45602 0.24925 0.18081
 C372 C 0.45313 0.19711 0.19077
 H373 H 0.42924 0.19735 0.20392
 C374 C 0.51440 0.19927 0.15703
 H375 H 0.53785 0.20013 0.14302
 C376 C 0.49978 0.16904 0.16899
 H377 H 0.51229 0.14693 0.16418
 N378 N 0.49806 0.22718 0.16083
 C379 C 0.53491 0.32963 0.14484
 H380 H 0.53594 0.33169 0.11790
 C381 C 0.54505 0.35635 0.16247
 H382 H 0.55409 0.37882 0.14891
 C383 C 0.52289 0.29738 0.19504
 H384 H 0.51430 0.27431 0.20757
 C385 C 0.53328 0.32344 0.21372
 H386 H 0.53236 0.32020 0.24063
 Zn387 Zn 0.51079 0.26593 0.13471
 N388 N 0.52392 0.30090 0.16120
 C389 C 0.46092 0.30735 0.11138
 N390 N 0.47230 0.27676 0.11083
 C391 C 0.45396 0.25236 0.09747
 C392 C 0.42280 0.25825 0.08425
 C393 C 0.43021 0.31434 0.09835
 C394 C 0.57811 0.26957 0.11156
 C395 C 0.60575 0.26012 0.09327
 C396 C 0.56871 0.22597 0.06259
 C397 C 0.54177 0.23639 0.08113
 N398 N 0.54690 0.25735 0.10553
 H399 H 0.47489 0.32630 0.12298
 H400 H 0.46269 0.22782 0.09858
 H401 H 0.40876 0.23805 0.07459
 H402 H 0.42193 0.33894 0.09980
 H403 H 0.58191 0.28540 0.13169
 H404 H 0.63046 0.26896 0.09952
 H405 H 0.56427 0.20832 0.04412
 H406 H 0.51694 0.22656 0.07702
 C407 C 0.54472 0.35337 0.19735
 C408 C 0.46802 0.16760 0.18476
 C409 C 0.60123 0.23747 0.06892
 C410 C 0.41019 0.28962 0.08497
 C411 C 0.95764 0.72128 0.66833
 H412 H 0.93771 0.73372 0.65630
 C413 C 0.95110 0.69047 0.68432
 H414 H 0.92609 0.67933 0.68435
 C415 C 1.01476 0.71965 0.68137
 H416 H 1.03976 0.73078 0.67893
 C417 C 1.00918 0.68889 0.69821
 H418 H 1.02993 0.67634 0.70871
 N419 N 0.98922 0.73481 0.66633
 C420 C 1.01816 0.83816 0.64560
 H421 H 1.01335 0.84101 0.61931
 C422 C 1.03184 0.86447 0.66174
 H423 H 1.03767 0.88760 0.64784
 C424 C 1.01856 0.80392 0.69529
 H425 H 1.01366 0.78022 0.70818
 C426 C 1.03316 0.82934 0.71214
 H427 H 1.03977 0.82507 0.73788
 Zn428 Zn 0.99872 0.77261 0.63770
 N429 N 1.01231 0.80847 0.66235
 C430 C 0.94421 0.81031 0.61991
 N431 N 0.96003 0.78276 0.61320
 C432 C 0.94769 0.76223 0.59070
 C433 C 0.91877 0.76940 0.57366
 C434 C 0.91573 0.81869 0.60306
 C435 C 1.06429 0.78074 0.60837
 C436 C 1.09271 0.76983 0.59244
 C437 C 1.05997 0.72241 0.57759
 C438 C 1.03234 0.73406 0.59400
 N439 N 1.03492 0.76263 0.60925
 H440 H 0.95324 0.82572 0.63876
 H441 H 0.95991 0.74005 0.58612
 H442 H 0.90952 0.75299 0.55563
 H443 H 0.90369 0.84085 0.60872
 H444 H 1.06640 0.80279 0.62155
 H445 H 1.11601 0.78393 0.59379
 H446 H 1.05731 0.69912 0.56646
 H447 H 1.00941 0.71916 0.59635
 C448 C 1.04036 0.85978 0.69506
 C449 C 0.97716 0.67365 0.69884
 C450 C 1.09097 0.73988 0.57729
 C451 C 0.90261 0.79811 0.57968
 C452 C 0.54133 0.69233 0.37751
 H453 H 0.55771 0.70391 0.39447
 C454 C 0.55100 0.66410 0.36323
 H455 H 0.57500 0.65473 0.36924
 C456 C 0.49000 0.68984 0.35017
 H457 H 0.46604 0.69992 0.34552
 C458 C 0.49877 0.66144 0.33513
 H459 H 0.48170 0.65050 0.31827
 N460 N 0.51172 0.70525 0.37006
 C461 C 0.49382 0.80923 0.36657
 H462 H 0.49904 0.81311 0.39227
 C463 C 0.48511 0.83542 0.34540
 H464 H 0.48409 0.85919 0.35554
 C465 C 0.48786 0.77298 0.32352
 H466 H 0.48899 0.74864 0.31502
 C467 C 0.47835 0.79840 0.30154
 H468 H 0.47318 0.79259 0.27638
 Zn469 Zn 0.50046 0.74476 0.38896
 N470 N 0.49431 0.77862 0.35566
 C471 C 0.56508 0.76837 0.39968
 N472 N 0.53543 0.75967 0.41581
 C473 C 0.53104 0.76310 0.44902
 C474 C 0.55720 0.77586 0.46728
 C475 C 0.59193 0.78077 0.41699
 C476 C 0.43241 0.75174 0.40253
 C477 C 0.40073 0.74233 0.41582
 C478 C 0.42559 0.70288 0.45334
 C479 C 0.45693 0.71271 0.43890
 N480 N 0.45965 0.73638 0.41358
 H481 H 0.56774 0.76585 0.37315
 H482 H 0.50714 0.75650 0.46129
 H483 H 0.55321 0.77855 0.49365
 H484 H 0.61514 0.78795 0.40351
 H485 H 0.43483 0.77006 0.38205
 H486 H 0.37913 0.75362 0.40556
 H487 H 0.42344 0.68294 0.47235
 H488 H 0.47888 0.70042 0.44678
 C489 C 0.47575 0.83025 0.31256
 C490 C 0.52999 0.64850 0.34119
 C491 C 0.39703 0.71709 0.44091
 C492 C 0.58808 0.78514 0.45115
 C493 C 0.39629 -0.01000 0.24203
 C494 C 0.13968 1.01458 0.75417
 C495 C 0.63245 0.51456 0.25544
 C496 C 0.90584 0.49314 0.73803
 C497 C 0.24320 0.37071 0.03257
 C498 C 0.73610 0.12782 0.99119
 C499 C 0.23082 0.62662 0.51455
 C500 C 0.75019 0.88426 0.49873
 C501 C -0.01080 0.24343 0.37057
 C502 C 0.98893 0.75420 0.11293
 C503 C 0.47807 0.25365 0.62888
 C504 C 0.50781 0.73562 0.86997
 C505 C 0.45091 -0.08734 0.28754
 C506 C 0.43301 -0.09246 0.25891
 N507 N 0.43117 -0.12270 0.24709
 C508 C 0.44595 -0.14826 0.26288
 C509 C 0.46293 -0.14368 0.29272
 N510 N 0.46499 -0.11288 0.30374
 N511 N 0.45292 -0.05720 0.29951
 C512 C 0.43723 -0.03196 0.28443
 C513 C 0.41796 -0.03706 0.25625
 N514 N 0.41666 -0.06746 0.24417
 H515 H 0.44274 -0.17187 0.25277
 H516 H 0.43886 -0.00830 0.29488
 C517 C 0.96836 0.42660 0.79122
 C518 C 0.95585 0.41939 0.76033
 N519 N 0.96099 0.38992 0.74810
 C520 C 0.97726 0.36680 0.76594
 C521 C 0.98770 0.37296 0.79802
 N522 N 0.98326 0.40297 0.80984
 N523 N 0.96377 0.45652 0.80280
 C524 C 0.94635 0.47917 0.78529
 C525 C 0.93115 0.47104 0.75547
 N526 N 0.93712 0.44126 0.74385
 H527 H 0.98006 0.34310 0.75610
 H528 H 0.94257 0.50246 0.79563
 C529 C 0.09508 1.10058 0.78733
 C530 C 0.08708 1.06962 0.80298
 N531 N 0.06512 1.06665 0.82939
 C532 C 0.05109 1.09336 0.84116
 C533 C 0.05955 1.12468 0.82595
 N534 N 0.08124 1.12728 0.79911
 N535 N 0.11708 1.10358 0.76101
 C536 C 0.13150 1.07702 0.74947
 C537 C 0.12355 1.04556 0.76496
 N538 N 0.10153 1.04302 0.79163
 H539 H 0.03338 1.08999 0.86201
 H540 H 0.14924 1.08084 0.72872
 C541 C 0.58932 0.59288 0.30489
 C542 C 0.56839 0.56909 0.29148
 N543 N 0.53476 0.57139 0.29454
 C544 C 0.52125 0.59643 0.31027
 C545 C 0.54238 0.62035 0.32371
 N546 N 0.57592 0.61761 0.32050
 N547 N 0.62280 0.59108 0.30216
 C548 C 0.63653 0.56648 0.28654
 C549 C 0.61593 0.54227 0.27273
 N550 N 0.58206 0.54419 0.27575
 H551 H 0.49441 0.59722 0.31261
 H552 H 0.66344 0.56585 0.28459
 C553 C 0.57020 0.43789 0.21849
 C554 C 0.59080 0.43163 0.24533
 N555 N 0.59399 0.40044 0.25763
 C556 C 0.57794 0.37497 0.24385
 C557 C 0.55837 0.38083 0.21590
 N558 N 0.55481 0.41239 0.20408
 N559 N 0.56729 0.46923 0.20628
 C560 C 0.58480 0.49452 0.21915
 C561 C 0.60714 0.48818 0.24490
 N562 N 0.60893 0.45662 0.25740
 H563 H 0.58187 0.35034 0.25362
 H564 H 0.58263 0.51911 0.20835
 C565 C 0.07004 0.93971 0.72434
 C566 C 0.10293 0.93316 0.73202
 N567 N 0.11399 0.90272 0.72934
 C568 C 0.09359 0.87838 0.71898
 C569 C 0.06094 0.88500 0.71015
 N570 N 0.04983 0.91564 0.71292
 N571 N 0.05918 0.97023 0.72769
 C572 C 0.07973 0.99448 0.73852
 C573 C 0.11307 0.98806 0.74612
 N574 N 0.12354 0.95745 0.74169
 H575 H 0.10311 0.85437 0.71651
 H576 H 0.07035 1.01863 0.73990
 C577 C 0.94460 0.58804 0.70034
 C578 C 0.95429 0.57484 0.73128
 N579 N 0.97310 0.59386 0.75079
 C580 C 0.98210 0.62557 0.74080
 C581 C 0.97104 0.63901 0.71031
 N582 N 0.95285 0.61960 0.69083
 N583 N 0.92564 0.56971 0.68083
 C584 C 0.91515 0.53879 0.69092
 C585 C 0.92357 0.52510 0.72268
 N586 N 0.94325 0.54391 0.74193
 H587 H 0.99667 0.64039 0.75690
 H588 H 0.89855 0.52628 0.67482
 C589 C 0.45132 0.07863 0.20748
 C590 C 0.41643 0.07597 0.20770
 N591 N 0.39901 0.10273 0.20001
 C592 C 0.41489 0.13235 0.19257
 C593 C 0.44998 0.13554 0.19305
 N594 N 0.46734 0.10825 0.20004
 N595 N 0.46854 0.05167 0.21539
 C596 C 0.45239 0.02242 0.22474
 C597 C 0.41712 0.02006 0.22697
 N598 N 0.40037 0.04698 0.21712
 H599 H 0.40013 0.15299 0.18594
 H600 H 0.46712 0.00167 0.23090
 C601 C 0.26988 0.42462 -0.06001
 C602 C 0.29313 0.40680 -0.04222
 N603 N 0.32389 0.40325 -0.05573
 C604 C 0.33278 0.41696 -0.08636
 C605 C 0.30989 0.43535 -0.10453
 N606 N 0.27869 0.43854 -0.09086
 N607 N 0.23866 0.42686 -0.04643
 C608 C 0.22967 0.41171 -0.01607
 C609 C 0.25300 0.39342 0.00170
 N610 N 0.28413 0.39176 -0.01233
 H611 H 0.35731 0.41278 -0.09657
 H612 H 0.20433 0.41288 -0.00642
 C613 C 0.78296 0.93807 0.40758
 C614 C 0.77404 0.90466 0.40835
 N615 N 0.77826 0.88812 0.38052
 C616 C 0.79139 0.90349 0.35188
 C617 C 0.80136 0.93689 0.35117
 N618 N 0.79673 0.95337 0.37920
 N619 N 0.77890 0.95440 0.43558
 C620 C 0.76672 0.93870 0.46451
 C621 C 0.75855 0.90468 0.46587
 N622 N 0.76264 0.88890 0.43731
 H623 H 0.79521 0.88944 0.33036
 H624 H 0.76494 0.95247 0.48646
 C625 C 0.77780 0.06352 1.06490
 C626 C 0.74984 0.08099 1.07255
 N627 N 0.73812 0.08059 1.10446
 C628 C 0.75373 0.06438 1.12948
 C629 C 0.78327 0.04815 1.12248
 N630 N 0.79380 0.04772 1.08988
 N631 N 0.78976 0.06434 1.03293
 C632 C 0.77544 0.08262 1.00837
 C633 C 0.74818 0.10157 1.01620
 N634 N 0.73599 0.09969 1.04830
 H635 H 0.74289 0.06483 1.15424
 H636 H 0.78624 0.08378 0.98334
 C637 C 0.26584 0.55964 0.59035
 C638 C 0.23816 0.57815 0.59638
 N639 N 0.22427 0.57775 0.62753
 C640 C 0.23742 0.56034 0.65333
 C641 C 0.26629 0.54295 0.64793
 N642 N 0.27940 0.54261 0.61623
 N643 N 0.27985 0.56059 0.55910
 C644 C 0.26784 0.57984 0.53379
 C645 C 0.24084 0.59964 0.54004
 N646 N 0.22672 0.59775 0.57142
 H647 H 0.22572 0.56062 0.67786
 H648 H 0.28021 0.58097 0.50945
 C649 C 0.19385 0.59221 0.42352
 C650 C 0.20733 0.57008 0.44682
 N651 N 0.20817 0.53804 0.44007
 C652 C 0.19591 0.52724 0.41125
 C653 C 0.18174 0.54947 0.38828
 N654 N 0.18133 0.58141 0.39522
 N655 N 0.19299 0.62417 0.42959
 C656 C 0.20486 0.63520 0.45810
 C657 C 0.21812 0.61329 0.48218
 N658 N 0.21901 0.58099 0.47578
 H659 H 0.19633 0.50153 0.40682
 H660 H 0.20393 0.66098 0.46211
 C661 C 0.69633 0.08900 0.90342
 C662 C 0.71006 0.06806 0.92751
 N663 N 0.71041 0.03562 0.92269
 C664 C 0.69757 0.02315 0.89490
 C665 C 0.68337 0.04420 0.87051
 N666 N 0.68348 0.07665 0.87599
 N667 N 0.69581 0.12140 0.90774
 C668 C 0.70849 0.13397 0.93525
 C669 C 0.72247 0.11324 0.95986
 N670 N 0.72271 0.08052 0.95530
 H671 H 0.69843 -0.00282 0.89257
 H672 H 0.70769 0.15999 0.93805
 C673 C 0.70657 0.93775 0.57622
 C674 C 0.73421 0.91899 0.58217
 N675 N 0.74671 0.91658 0.61307
 C676 C 0.73238 0.93159 0.63864
 C677 C 0.70367 0.94949 0.63326
 N678 N 0.69189 0.95232 0.60181
 N679 N 0.69431 0.94041 0.54517
 C680 C 0.70829 0.92476 0.51981
 C681 C 0.73567 0.90506 0.52575
 N682 N 0.74778 0.90295 0.55710
 H683 H 0.74354 0.92939 0.66268
 H684 H 0.69774 0.92696 0.49540
 C685 C 0.20168 0.41773 0.11522
 C686 C 0.21176 0.43636 0.08593
 N687 N 0.20946 0.46931 0.08473
 C688 C 0.19726 0.48442 0.11140
 C689 C 0.18671 0.46565 0.14075
 N690 N 0.18945 0.43271 0.14163
 N691 N 0.20445 0.38497 0.11704
 C692 C 0.21690 0.36981 0.09080
 C693 C 0.22685 0.38812 0.06097
 N694 N 0.22420 0.42122 0.05944
 H695 H 0.19627 0.51073 0.10963
 H696 H 0.21940 0.34362 0.09317
 C697 C -0.08621 0.28547 0.43001
 C698 C -0.09423 0.25877 0.41126
 N699 N -0.12647 0.24742 0.41025
 C700 C -0.15121 0.26181 0.42696
 C701 C -0.14340 0.28914 0.44527
 N702 N -0.11087 0.30009 0.44632
 N703 N -0.05409 0.29718 0.43059
 C704 C -0.02954 0.28349 0.41303
 C705 C -0.03732 0.25672 0.39378
 N706 N -0.06982 0.24534 0.39341
 H707 H -0.17671 0.25270 0.42482
 H708 H -0.00423 0.29373 0.41352
 C709 C 0.42568 0.76587 0.92998
 C710 C 0.42308 0.76143 0.89595
 N711 N 0.39474 0.76881 0.88039
 C712 C 0.36907 0.78149 0.89709
 C713 C 0.37208 0.78798 0.93086
 N714 N 0.40025 0.77927 0.94673
 N715 N 0.45415 0.75788 0.94531
 C716 C 0.48045 0.74652 0.92795
 C717 C 0.47864 0.74382 0.89320
 N718 N 0.44942 0.75097 0.87859
 H719 H 0.34675 0.78695 0.88385
 H720 H 0.50246 0.74048 0.94127
 C721 C 1.07832 0.78692 0.05691
 C722 C 1.07868 0.76123 0.08142
 N723 N 1.10821 0.74921 0.09053
 C724 C 1.13759 0.76220 0.07665
 C725 C 1.13755 0.78903 0.05311
 N726 N 1.10768 0.80049 0.04362
 N727 N 1.04873 0.79893 0.04798
 C728 C 1.01951 0.78716 0.06329
 C729 C 1.01976 0.76276 0.08966
 N730 N 1.04969 0.75015 0.09733
 H731 H 1.16075 0.75264 0.08508
 H732 H 0.99651 0.79793 0.05613
 C733 C 0.56565 0.28669 0.56957
 C734 C 0.55340 0.30497 0.59509
 N735 N 0.57161 0.33124 0.60454
 C736 C 0.60201 0.33970 0.59007
 C737 C 0.61506 0.32084 0.56518
 N738 N 0.59618 0.29500 0.55509
 N739 N 0.54778 0.25970 0.56120
 C740 C 0.51854 0.24978 0.57762
 C741 C 0.50637 0.26755 0.60414
 N742 N 0.52452 0.29493 0.61164
 H743 H 0.61599 0.36080 0.59816
 H744 H 0.50640 0.22691 0.57167
 C745 C 0.38869 0.22277 0.58078
 C746 C 0.41882 0.22843 0.56245
 N747 N 0.42004 0.22253 0.52965
 C748 C 0.39252 0.21086 0.51445
 C749 C 0.36225 0.20452 0.53297
 N750 N 0.36133 0.21091 0.56577
 N751 N 0.38742 0.22837 0.61356
 C752 C 0.41514 0.23874 0.62909
 C753 C 0.44608 0.24348 0.61122
 N754 N 0.44662 0.23863 0.57798
 H755 H 0.39483 0.20545 0.48858
 H756 H 0.41283 0.24357 0.65510
 C757 C 0.89976 0.72455 0.06513
 C758 C 0.93003 0.72852 0.04667
 N759 N 0.93136 0.71889 0.01496
 C760 C 0.90401 0.70478 0.00127
 C761 C 0.87414 0.69925 0.02048
 N762 N 0.87288 0.70977 0.05184
 N763 N 0.89823 0.73333 0.09694
 C764 C 0.92578 0.74523 0.11160
 C765 C 0.95685 0.74814 0.09391
 N766 N 0.95798 0.73978 0.06154
 H767 H 0.90613 0.69631 -0.02359
 H768 H 0.92375 0.75054 0.13751
 C769 C 0.59591 0.69987 0.91547
 C770 C 0.57521 0.67963 0.89736
 N771 N 0.58395 0.64884 0.89214
 C772 C 0.61247 0.63713 0.90441
 C773 C 0.63346 0.65712 0.92293
 N774 N 0.62457 0.68825 0.92780
 N775 N 0.58725 0.73095 0.91994
 C776 C 0.55890 0.74270 0.90691
 C777 C 0.53792 0.72245 0.88853
 N778 N 0.54712 0.69135 0.88435
 H779 H 0.61888 0.61267 0.89905
 H780 H 0.55305 0.76778 0.91027
 C781 C 0.07635 0.20828 0.41789
 C782 C 0.07426 0.21167 0.38318
 N783 N 0.10008 0.20330 0.36351
 C784 C 0.12795 0.19138 0.37701
 C785 C 0.13023 0.18779 0.41182
 N786 N 0.10432 0.19654 0.43150
 N787 N 0.04998 0.21587 0.43736
 C788 C 0.02171 0.22704 0.42371
 C789 C 0.01978 0.23132 0.38872
 N790 N 0.04629 0.22296 0.36961
 H791 H 0.14815 0.18476 0.36073
 H792 H 0.00104 0.23199 0.44014
 C793 C 0.51389 0.16613 0.67821
 C794 C 0.53287 0.18439 0.65328
 N795 N 0.56247 0.17374 0.64257
 C796 C 0.57434 0.14567 0.65602
 C797 C 0.55594 0.12737 0.68178
 N798 N 0.52580 0.13804 0.69204
 N799 N 0.48386 0.17685 0.68806
 C800 C 0.47184 0.20476 0.67377
 C801 C 0.49079 0.22323 0.64832
 N802 N 0.52103 0.21212 0.63935
 H803 H 0.59772 0.13765 0.64620
 H804 H 0.44801 0.21242 0.68254
 C805 C 1.01413 0.66665 0.16968
 C806 C 1.02808 0.69736 0.17652
 N807 N 1.05131 0.69945 0.20016
 C808 C 1.06170 0.67211 0.21681
 C809 C 1.04855 0.64106 0.20925
 N810 N 1.02466 0.63930 0.18605
 N811 N 0.99140 0.66449 0.14567
 C812 C 0.98197 0.69159 0.12799
 C813 C 0.99586 0.72288 0.13455
 N814 N 1.01891 0.72451 0.15875
 H815 H 1.08026 0.67465 0.23552
 H816 H 0.96449 0.68825 0.10849
 C817 C 0.96761 0.83793 0.16796
 C818 C 0.97619 0.84107 0.13398
 N819 N 0.97568 0.87073 0.11722
 C820 C 0.96663 0.89752 0.13286
 C821 C 0.95733 0.89458 0.16706
 N822 N 0.95827 0.86457 0.18362
 N823 N 0.96716 0.80801 0.18440
 C824 C 0.97490 0.78099 0.16836
 C825 C 0.98357 0.78382 0.13390
 N826 N 0.98358 0.81416 0.11791
 H827 H 0.96547 0.92034 0.11818
 H828 H 0.97273 0.75756 0.18223
 C829 C 0.45292 0.33459 0.68625
 C830 C 0.44765 0.33447 0.65206
 N831 N 0.43438 0.36054 0.63597
 C832 C 0.42588 0.38685 0.65259
 C833 C 0.43051 0.38706 0.68710
 N834 N 0.44393 0.36068 0.70312
 N835 N 0.46682 0.30855 0.70199
 C836 C 0.47542 0.28224 0.68511
 C837 C 0.46924 0.28159 0.65079
 N838 N 0.45571 0.30818 0.63540
 H839 H 0.41453 0.40686 0.63913
 H840 H 0.48716 0.26246 0.69843
 C841 C 0.46460 0.65983 0.81297
 C842 C 0.46574 0.65651 0.84777
 N843 N 0.45182 0.62931 0.86453
 C844 C 0.43648 0.60528 0.84802
 C845 C 0.43514 0.60848 0.81313
 N846 N 0.44947 0.63570 0.79631
 N847 N 0.47759 0.68766 0.79654
 C848 C 0.49176 0.71232 0.81326
 C849 C 0.49344 0.70898 0.84837
 N850 N 0.48004 0.68089 0.86442
 H851 H 0.42524 0.58393 0.86198
 H852 H 0.50096 0.73421 0.79902
 C853 C -0.04750 0.15783 0.32473
 C854 C -0.03139 0.18377 0.30516
 N855 N -0.02676 0.18095 0.27187
 C856 C -0.03786 0.15351 0.25732
 C857 C -0.05494 0.12806 0.27686
 N858 N -0.05923 0.13094 0.31014
 N859 N -0.05096 0.15974 0.35808
 C860 C -0.03947 0.18664 0.37286
 C861 C -0.02474 0.21367 0.35340
 N862 N -0.02051 0.21115 0.31984
 H863 H -0.03424 0.15192 0.23073
 H864 H -0.04189 0.18707 0.39968
 C865 C 0.01461 0.33294 0.31309
 C866 C 0.03721 0.31888 0.33499
 N867 N 0.06557 0.33590 0.34201
 C868 C 0.07219 0.36674 0.32862
 C869 C 0.04931 0.38145 0.30736
 N870 N 0.02114 0.36397 0.29960
 N871 N -0.01440 0.31606 0.30740
 C872 C -0.02214 0.28616 0.32320
 C873 C 0.00011 0.27234 0.34600
 N874 N 0.02935 0.28936 0.35085
 H875 H 0.09489 0.37993 0.33490
 H876 H -0.04611 0.27402 0.31939
 C877 C 0.54224 0.82420 0.81392
 C878 C 0.51393 0.82352 0.83513
 N879 N 0.49756 0.85132 0.83881
 C880 C 0.50852 0.88003 0.82248
 C881 C 0.53733 0.88106 0.80153
 N882 N 0.55327 0.85284 0.79765
 N883 N 0.55872 0.79639 0.81053
 C884 C 0.54819 0.76788 0.82757
 C885 C 0.51969 0.76694 0.84909
 N886 N 0.50347 0.79517 0.85214
 H887 H 0.49476 0.90168 0.82582
 H888 H 0.56190 0.74613 0.82449
 C889 C 0.68054 0.54921 0.16203
 C890 C 0.68447 0.51736 0.17504
 N891 N 0.70201 0.49684 0.15679
 C892 C 0.71563 0.50674 0.12608
 C893 C 0.71127 0.53899 0.11244
 N894 N 0.69374 0.55895 0.13158
 N895 N 0.66273 0.56986 0.17945
 C896 C 0.64839 0.56017 0.20954
 C897 C 0.65204 0.52797 0.22345
 N898 N 0.66996 0.50729 0.20524
 H899 H 0.72912 0.48917 0.11291
 H900 H 0.63333 0.57746 0.22143
 C901 C 0.19073 1.03602 0.65910
 C902 C 0.15608 1.03119 0.66250
 N903 N 0.13714 1.03315 0.63531
 C904 C 0.15118 1.04086 0.60463
 C905 C 0.18583 1.04808 0.60093
 N906 N 0.20491 1.04478 0.62844
 N907 N 0.20939 1.03262 0.68666
 C908 C 0.19484 1.02494 0.71749
 C909 C 0.15972 1.02133 0.72111
 N910 N 0.14169 1.02467 0.69304
 H911 H 0.13515 1.04163 0.58355
 H912 H 0.21063 1.02222 0.73858
 C913 C 0.19096 0.97697 0.84021
 C914 C 0.16657 0.95836 0.82496
 N915 N 0.15738 0.92797 0.83761
 C916 C 0.17195 0.91461 0.86469
 C917 C 0.19757 0.93245 0.88038
 N918 N 0.20581 0.96377 0.86766
 N919 N 0.19930 1.00784 0.82718
 C920 C 0.18431 1.02059 0.79949
 C921 C 0.15997 1.00146 0.78374
 N922 N 0.15182 0.97103 0.79782
 H923 H 0.16207 0.89081 0.87397
 H924 H 0.19094 1.04540 0.79010
 C925 C 0.68929 0.47428 0.33559
 C926 C 0.65449 0.47491 0.33751
 N927 N 0.63750 0.46349 0.36575
 C928 C 0.65378 0.45146 0.39249
 C929 C 0.68884 0.45082 0.39105
 N930 N 0.70575 0.46209 0.36231
 N931 N 0.70597 0.48612 0.30713
 C932 C 0.68936 0.49860 0.28050
 C933 C 0.65419 0.49907 0.28233
 N934 N 0.63807 0.48718 0.31117
 H935 H 0.63928 0.44176 0.41426
 H936 H 0.70364 0.50855 0.25874
 C937 C 0.85953 0.44785 0.65662
 C938 C 0.83988 0.45923 0.68243
 N939 N 0.80616 0.45812 0.68016
 C940 C 0.79126 0.44626 0.65315
 C941 C 0.81100 0.43479 0.62725
 N942 N 0.84472 0.43579 0.62993
 N943 N 0.89318 0.44999 0.65803
 C944 C 0.90825 0.46319 0.68406
 C945 C 0.88886 0.47460 0.71048
 N946 N 0.85489 0.47222 0.70874
 H947 H 0.76434 0.44538 0.65217
 H948 H 0.93520 0.46592 0.68361
 C949 C 0.33974 -0.04215 0.15986
 C950 C 0.37456 -0.04298 0.15968
 N951 N 0.39103 -0.05392 0.13295
 C952 C 0.37420 -0.06427 0.10641
 C953 C 0.33911 -0.06398 0.10663
 N954 N 0.32283 -0.05286 0.13359
 N955 N 0.32335 -0.03061 0.18627
 C956 C 0.34012 -0.02022 0.21281
 C957 C 0.37522 -0.02200 0.21351
 N958 N 0.39135 -0.03299 0.18631
 H959 H 0.38808 -0.07353 0.08588
 H960 H 0.32592 -0.01029 0.23265
 C961 C 0.33991 0.01951 0.32702
 C962 C 0.36247 0.04133 0.30876
 N963 N 0.36736 0.07230 0.31794
 C964 C 0.35016 0.08283 0.34435
 C965 C 0.32665 0.06150 0.36237
 N966 N 0.32240 0.03003 0.35348
 N967 N 0.33572 -0.01166 0.31770
 C968 C 0.35287 -0.02180 0.29076
 C969 C 0.37490 0.00042 0.27169
 N970 N 0.37926 0.03128 0.28200
 H971 H 0.35483 0.10769 0.35114
 H972 H 0.34936 -0.04685 0.28410
 C973 C 0.83889 0.52504 0.81338
 C974 C 0.85513 0.49579 0.81865
 N975 N 0.85259 0.47946 0.84913
 C976 C 0.83526 0.49159 0.87481
 C977 C 0.82058 0.52183 0.87000
 N978 N 0.82250 0.53766 0.83921
 N979 N 0.84116 0.54123 0.78294
 C980 C 0.86017 0.53028 0.75785
 C981 C 0.87921 0.50252 0.76374
 N982 N 0.87497 0.48536 0.79392
 H983 H 0.83433 0.47863 0.89910
 H984 H 0.86150 0.54402 0.73402
 C985 C 0.14675 0.67603 0.55095
 C986 C 0.17685 0.69375 0.54253
 N987 N 0.17846 0.72669 0.54474
 C988 C 0.15142 0.74260 0.55528
 C989 C 0.12122 0.72472 0.56419
 N990 N 0.11999 0.69180 0.56153
 N991 N 0.14454 0.64331 0.54826
 C992 C 0.17116 0.62734 0.53747
 C993 C 0.20179 0.64473 0.52917
 N994 N 0.20371 0.67781 0.53178
 H995 H 0.15361 0.76886 0.55629
 H996 H 0.16847 0.60124 0.53499
 C997 C 0.65362 0.17545 1.03357
 C998 C 0.68375 0.19327 1.02538
 N999 N 0.68638 0.22559 1.03096
 C1000 C 0.66028 0.24080 1.04456
 C1001 C 0.63004 0.22289 1.05279
 N1002 N 0.62764 0.19061 1.04688
 N1003 N 0.65083 0.14315 1.02852
 C1004 C 0.67686 0.12772 1.01555
 C1005 C 0.70730 0.14531 1.00701
 N1006 N 0.70984 0.17792 1.01212
 H1007 H 0.66306 0.26657 1.04866
 H1008 H 0.67388 0.10189 1.01170
 C1009 C 0.82639 0.18482 0.96444
 C1010 C 0.80659 0.17177 0.94013
 N1011 N 0.81736 0.17451 0.90791
 C1012 C 0.84739 0.18934 0.89864
 C1013 C 0.86867 0.20166 0.92305
 N1014 N 0.85688 0.19906 0.95546
 N1015 N 0.81529 0.18203 0.99677
 C1016 C 0.78556 0.16602 1.00584
 C1017 C 0.76629 0.15129 0.98155
 N1018 N 0.77755 0.15509 0.94920
 H1019 H 0.85434 0.18967 0.87260
 H1020 H 0.77772 0.16344 1.03186
 C1021 C 0.32230 0.68320 0.49099
 C1022 C 0.30235 0.67164 0.46585
 N1023 N 0.31287 0.67634 0.43355
 C1024 C 0.34277 0.69186 0.42513
 C1025 C 0.36350 0.70256 0.45018
 N1026 N 0.35276 0.69801 0.48271
 N1027 N 0.31107 0.67878 0.52324
 C1028 C 0.28115 0.66270 0.53146
 C1029 C 0.26183 0.64949 0.50635
 N1030 N 0.27321 0.65484 0.47414
 H1031 H 0.35078 0.69493 0.39915
 H1032 H 0.27310 0.65905 0.55738
 C1033 C 0.67366 0.81494 0.47141
 C1034 C 0.66685 0.83801 0.49452
 N1035 N 0.63492 0.84150 0.50520
 C1036 C 0.60925 0.82341 0.49319
 C1037 C 0.61569 0.80128 0.46871
 N1038 N 0.64800 0.79741 0.45874
 N1039 N 0.70564 0.81176 0.46061
 C1040 C 0.73098 0.83154 0.47091
 C1041 C 0.72404 0.85666 0.49223
 N1042 N 0.69194 0.85826 0.50406
 H1043 H 0.58402 0.82767 0.50139
 H1044 H 0.75603 0.82870 0.46124
 C1045 C 0.17015 0.30666 -0.00824
 C1046 C 0.16219 0.32442 0.01919
 N1047 N 0.13009 0.32460 0.03061
 C1048 C 0.10523 0.30859 0.01513
 C1049 C 0.11267 0.29222 -0.01371
 N1050 N 0.14526 0.29119 -0.02419
 N1051 N 0.20234 0.30691 -0.01976
 C1052 C 0.22680 0.32493 -0.00557
 C1053 C 0.21865 0.34428 0.02100
 N1054 N 0.18633 0.34293 0.03271
 H1055 H 0.07996 0.30923 0.02503
 H1056 H 0.25197 0.32563 -0.01609
 C1057 C 0.33638 0.33807 0.06739
 C1058 C 0.31386 0.31569 0.05403
 N1059 N 0.32300 0.28457 0.05068
 C1060 C 0.35360 0.27491 0.06008
 C1061 C 0.37633 0.29755 0.07349
 N1062 N 0.36658 0.32849 0.07665
 N1063 N 0.32813 0.36927 0.07048
 C1064 C 0.29828 0.37941 0.06052
 C1065 C 0.27525 0.35736 0.04669
 N1066 N 0.28370 0.32573 0.04392
 H1067 H 0.35969 0.24995 0.05691
 H1068 H 0.29281 0.40479 0.06255
 C1069 C 0.84129 0.85026 0.53841
 C1070 C 0.81527 0.82770 0.53209
 N1071 N 0.81879 0.79538 0.54008
 C1072 C 0.84700 0.78476 0.55440
 C1073 C 0.87266 0.80759 0.56162
 N1074 N 0.86900 0.83979 0.55320
 N1075 N 0.83818 0.88245 0.53056
 C1076 C 0.81005 0.89335 0.51688
 C1077 C 0.78317 0.87113 0.51104
 N1078 N 0.78668 0.83860 0.51890
 H1079 H 0.84887 0.75898 0.56106
 H1080 H 0.80824 0.91934 0.51182
   
