data_POSCAR
  _audit_creation_date              2014-09-24
  _audit_creation_method            'ToBaCCo'
  _symmetry_space_group_name_H-M    'P1'
  _symmetry_Int_Tables_number       1
  _symmetry_cell_setting            triclinic
  loop_
  _symmetry_equiv_pos_as_xyz
 x,y,z
_cell_length_a 44.7667
_cell_length_b 46.5430
_cell_length_c 34.2558
_cell_angle_alpha 89.981200
_cell_angle_beta 89.487500
_cell_angle_gamma 89.978300
loop_
  _atom_site_label
  _atom_site_type_symbol
  _atom_site_fract_x
  _atom_site_fract_y
  _atom_site_fract_z
C1 C 0.27425 0.27974 0.23313
 C2 C 0.25013 0.26451 0.24957
 C3 C 0.22597 0.27970 0.26599
 C4 C 0.22609 0.30978 0.26628
 C5 C 0.25005 0.32480 0.24951
 C6 C 0.27404 0.30982 0.23277
 C7 C 0.25018 0.23279 0.24964
 C8 C 0.27433 0.21762 0.26555
 C9 C 0.27421 0.18753 0.26599
 C10 C 0.25025 0.17247 0.24985
 C11 C 0.22625 0.18745 0.23361
 C12 C 0.22607 0.21754 0.23384
 H13 H 0.29285 0.26819 0.22005
 H14 H 0.20741 0.26813 0.27910
 H15 H 0.29289 0.22922 0.27817
 H16 H 0.20747 0.22907 0.22115
 H17 H 0.25001 0.34811 0.24948
 H18 H 0.25027 0.14917 0.24995
 C19 C 0.77390 0.78092 0.23342
 C20 C 0.74983 0.76569 0.24996
 C21 C 0.72571 0.78084 0.26655
 C22 C 0.72583 0.81095 0.26694
 C23 C 0.74975 0.82600 0.25006
 C24 C 0.77371 0.81103 0.23312
 C25 C 0.74987 0.73396 0.24993
 C26 C 0.77399 0.71878 0.26588
 C27 C 0.77388 0.68869 0.26620
 C28 C 0.74996 0.67366 0.24990
 C29 C 0.72601 0.68866 0.23361
 C30 C 0.72580 0.71874 0.23396
 H31 H 0.79243 0.76931 0.22024
 H32 H 0.70722 0.76917 0.27969
 H33 H 0.79252 0.73036 0.27862
 H34 H 0.70724 0.73030 0.22124
 H35 H 0.74972 0.84934 0.25009
 H36 H 0.75000 0.65035 0.24988
 C37 C 0.77412 0.27965 0.73486
 C38 C 0.75000 0.26447 0.75139
 C39 C 0.72586 0.27969 0.76780
 C40 C 0.72600 0.30980 0.76802
 C41 C 0.74997 0.32476 0.75114
 C42 C 0.77393 0.30973 0.73442
 C43 C 0.75002 0.23274 0.75146
 C44 C 0.77416 0.21756 0.76739
 C45 C 0.77404 0.18745 0.76774
 C46 C 0.75008 0.17242 0.75147
 C47 C 0.72612 0.18744 0.73522
 C48 C 0.72593 0.21752 0.73556
 H49 H 0.79269 0.26807 0.72178
 H50 H 0.70732 0.26807 0.78093
 H51 H 0.79268 0.22921 0.78005
 H52 H 0.70737 0.22909 0.72285
 H53 H 0.75003 0.34809 0.75098
 H54 H 0.75003 0.14910 0.75141
 C55 C 0.27450 0.78060 0.73297
 C56 C 0.25038 0.76534 0.74936
 C57 C 0.22620 0.78049 0.76580
 C58 C 0.22630 0.81057 0.76619
 C59 C 0.25024 0.82564 0.74949
 C60 C 0.27428 0.81071 0.73269
 C61 C 0.25044 0.73362 0.74929
 C62 C 0.27462 0.71842 0.76506
 C63 C 0.27452 0.68833 0.76533
 C64 C 0.25055 0.67331 0.74917
 C65 C 0.22652 0.68831 0.73308
 C66 C 0.22631 0.71840 0.73347
 H67 H 0.29308 0.76901 0.71988
 H68 H 0.20764 0.76888 0.77885
 H69 H 0.29320 0.72999 0.77770
 H70 H 0.20769 0.72995 0.72089
 H71 H 0.25011 0.84897 0.74959
 H72 H 0.25059 0.65000 0.74913
 C73 C 0.03993 0.04509 0.01480
 H74 H 0.04002 0.04676 -0.01670
 C75 C 0.05817 0.06307 0.03682
 H76 H 0.07245 0.07862 0.02230
 C77 C 0.02136 0.02270 0.07231
 H78 H 0.00683 0.00713 0.08606
 C79 C 0.03929 0.04027 0.09544
 H80 H 0.03873 0.03798 0.12691
 N81 N 0.02241 0.02505 0.03269
 C82 C 0.01173 -0.04288 -0.05393
 H83 H -0.01236 -0.04439 -0.05530
 C84 C 0.02954 -0.06116 -0.07664
 H85 H 0.01922 -0.07675 -0.09573
 C86 C 0.05475 -0.02099 -0.02710
 H87 H 0.06456 -0.00567 -0.00736
 C88 C 0.07335 -0.03883 -0.04927
 H89 H 0.09738 -0.03693 -0.04683
 Zn90 Zn -0.00074 0.00101 0.00019
 N91 N 0.02453 -0.02303 -0.03017
 C92 C -0.02276 0.02298 -0.07184
 N93 N -0.02383 0.02522 -0.03222
 C94 C -0.04131 0.04526 -0.01425
 C95 C -0.05948 0.06337 -0.03622
 C96 C -0.04062 0.04068 -0.09491
 C97 C -0.01331 -0.04300 0.05411
 C98 C -0.03116 -0.06130 0.07674
 C99 C -0.07492 -0.03876 0.04949
 C100 C -0.05629 -0.02091 0.02740
 N101 N -0.02607 -0.02304 0.03045
 H102 H -0.00825 0.00741 -0.08564
 H103 H -0.04141 0.04684 0.01726
 H104 H -0.07372 0.07892 -0.02164
 H105 H -0.04004 0.03848 -0.12640
 H106 H 0.01077 -0.04459 0.05546
 H107 H -0.02086 -0.07698 0.09575
 H108 H -0.09895 -0.03679 0.04708
 H109 H -0.06607 -0.00550 0.00773
 C110 C 0.06064 -0.05900 -0.07436
 C111 C 0.05802 0.06047 0.07748
 C112 C -0.06225 -0.05904 0.07449
 C113 C -0.05930 0.06088 -0.07689
 C114 C 0.04055 0.54528 0.51451
 H115 H 0.04061 0.54688 0.48300
 C116 C 0.05877 0.56334 0.53644
 H117 H 0.07301 0.57888 0.52185
 C118 C 0.02204 0.52299 0.57213
 H119 H 0.00753 0.50744 0.58596
 C120 C 0.03995 0.54065 0.59517
 H121 H 0.03941 0.53843 0.62665
 N122 N 0.02306 0.52527 0.53251
 C123 C 0.01220 0.45719 0.44615
 H124 H -0.01189 0.45569 0.44488
 C125 C 0.02995 0.43883 0.42346
 H126 H 0.01957 0.42320 0.40450
 C127 C 0.05531 0.47911 0.47272
 H128 H 0.06518 0.49447 0.49236
 C129 C 0.07384 0.46119 0.45057
 H130 H 0.09788 0.46307 0.45291
 Zn131 Zn -0.00013 0.50117 0.50014
 N132 N 0.02508 0.47709 0.46977
 C133 C -0.02223 0.52305 0.42813
 N134 N -0.02329 0.52531 0.46775
 C135 C -0.04077 0.54536 0.48570
 C136 C -0.05894 0.56346 0.46372
 C137 C -0.04008 0.54074 0.40504
 C138 C -0.01251 0.45720 0.55415
 C139 C -0.03027 0.43886 0.57684
 C140 C -0.07414 0.46133 0.54978
 C141 C -0.05560 0.47922 0.52762
 N142 N -0.02537 0.47714 0.53054
 H143 H -0.00772 0.50747 0.41433
 H144 H -0.04086 0.54695 0.51721
 H145 H -0.07317 0.57903 0.47829
 H146 H -0.03950 0.53854 0.37356
 H147 H 0.01158 0.45565 0.55539
 H148 H -0.01989 0.42319 0.59578
 H149 H -0.09818 0.46325 0.54746
 H150 H -0.06545 0.49462 0.50800
 C151 C 0.06105 0.44097 0.42562
 C152 C 0.05864 0.56083 0.57711
 C153 C -0.06136 0.44106 0.57470
 C154 C -0.05875 0.56096 0.42306
 C155 C 0.54097 0.04464 0.51515
 H156 H 0.54116 0.04626 0.48364
 C157 C 0.55912 0.06267 0.53723
 H158 H 0.57344 0.07821 0.52275
 C159 C 0.52220 0.02234 0.57262
 H160 H 0.50762 0.00680 0.58633
 C161 C 0.54003 0.03997 0.59581
 H162 H 0.53935 0.03774 0.62728
 N163 N 0.52339 0.02463 0.53300
 C164 C 0.51282 -0.04337 0.44645
 H165 H 0.48874 -0.04488 0.44505
 C166 C 0.53065 -0.06166 0.42376
 H167 H 0.52033 -0.07726 0.40468
 C168 C 0.55583 -0.02147 0.47330
 H169 H 0.56563 -0.00613 0.49303
 C170 C 0.57443 -0.03932 0.45116
 H171 H 0.59847 -0.03742 0.45361
 Zn172 Zn 0.50030 0.00057 0.50047
 N173 N 0.52561 -0.02350 0.47019
 C174 C 0.47840 0.02248 0.42835
 N175 N 0.47726 0.02475 0.46797
 C176 C 0.45976 0.04480 0.48586
 C177 C 0.44162 0.06289 0.46382
 C178 C 0.46058 0.04017 0.40520
 C179 C 0.48766 -0.04341 0.55440
 C180 C 0.46978 -0.06169 0.57704
 C181 C 0.42606 -0.03913 0.54971
 C182 C 0.44471 -0.02130 0.52761
 N183 N 0.47493 -0.02346 0.53070
 H184 H 0.49293 0.00690 0.41460
 H185 H 0.45961 0.04640 0.51737
 H186 H 0.42735 0.07845 0.47834
 H187 H 0.46121 0.03795 0.37372
 H188 H 0.51174 -0.04501 0.55579
 H189 H 0.48005 -0.07736 0.59607
 H190 H 0.40203 -0.03714 0.54727
 H191 H 0.43496 -0.00590 0.50792
 C192 C 0.56174 -0.05949 0.42607
 C193 C 0.55881 0.06014 0.57790
 C194 C 0.43870 -0.05940 0.57474
 C195 C 0.44186 0.06038 0.42316
 C196 C 0.54129 0.54516 0.01372
 H197 H 0.54147 0.54673 -0.01779
 C198 C 0.55941 0.56326 0.03574
 H199 H 0.57370 0.57879 0.02121
 C200 C 0.52255 0.52294 0.07126
 H201 H 0.50798 0.50741 0.08502
 C202 C 0.54035 0.54063 0.09439
 H203 H 0.53967 0.53846 0.12587
 N204 N 0.52373 0.52516 0.03164
 C205 C 0.51310 0.45698 -0.05462
 H206 H 0.48902 0.45549 -0.05600
 C207 C 0.53090 0.43857 -0.07715
 H208 H 0.52056 0.42290 -0.09610
 C209 C 0.55614 0.47894 -0.02793
 H210 H 0.56596 0.49434 -0.00831
 C211 C 0.57472 0.46097 -0.04993
 H212 H 0.59876 0.46284 -0.04748
 Zn213 Zn 0.50064 0.50104 -0.00081
 N214 N 0.52592 0.47692 -0.03102
 C215 C 0.47868 0.52283 -0.07296
 N216 N 0.47757 0.52516 -0.03335
 C217 C 0.46009 0.54524 -0.01549
 C218 C 0.44196 0.56333 -0.03755
 C219 C 0.46086 0.54050 -0.09613
 C220 C 0.48808 0.45713 0.05322
 C221 C 0.47025 0.43883 0.07587
 C222 C 0.42647 0.46128 0.04853
 C223 C 0.44508 0.47913 0.02642
 N224 N 0.47530 0.47705 0.02950
 H225 H 0.49319 0.50722 -0.08668
 H226 H 0.45997 0.54689 0.01602
 H227 H 0.42773 0.57893 -0.02306
 H228 H 0.46148 0.53825 -0.12761
 H229 H 0.51217 0.45558 0.05460
 H230 H 0.48056 0.42319 0.09491
 H231 H 0.40244 0.46321 0.04608
 H232 H 0.43529 0.49451 0.00671
 C233 C 0.56200 0.44070 -0.07484
 C234 C 0.55910 0.56081 0.07642
 C235 C 0.43916 0.44104 0.07357
 C236 C 0.44219 0.56076 -0.07821
 C237 C 0.11704 -0.10942 -0.13955
 C238 C 0.11537 -0.13978 -0.13808
 C239 C 0.13680 -0.15667 -0.15866
 C240 C 0.15974 -0.14308 -0.18057
 C241 C 0.16098 -0.11272 -0.18279
 C242 C 0.13957 -0.09584 -0.16222
 C243 C 0.14139 -0.06552 -0.16468
 C244 C 0.16370 -0.05227 -0.18686
 C245 C 0.18463 -0.06877 -0.20698
 C246 C 0.18340 -0.09866 -0.20507
 C247 C 0.13480 -0.18697 -0.15658
 C248 C 0.11225 -0.20023 -0.13482
 C249 C 0.09130 -0.18372 -0.11471
 C250 C 0.09274 -0.15383 -0.11620
 C251 C 0.18264 -0.16018 -0.19984
 C252 C 0.20223 -0.17385 -0.21551
 C253 C 0.09626 -0.09209 -0.11682
 C254 C 0.07965 -0.07725 -0.09762
 H255 H 0.12560 -0.05175 -0.14961
 H256 H 0.16474 -0.02906 -0.18845
 H257 H 0.20191 -0.05838 -0.22418
 H258 H 0.20017 -0.11055 -0.22128
 H259 H 0.15056 -0.20071 -0.17178
 H260 H 0.11102 -0.22344 -0.13356
 H261 H 0.07382 -0.19413 -0.09785
 H262 H 0.07593 -0.14190 -0.10012
 C263 C 0.11715 0.39021 0.36048
 C264 C 0.11585 0.35986 0.36288
 C265 C 0.13718 0.34287 0.34230
 C266 C 0.15966 0.35633 0.31946
 C267 C 0.16052 0.38666 0.31630
 C268 C 0.13920 0.40365 0.33687
 C269 C 0.14063 0.43393 0.33345
 C270 C 0.16248 0.44706 0.31036
 C271 C 0.18332 0.43045 0.29025
 C272 C 0.18247 0.40059 0.29308
 C273 C 0.13556 0.31258 0.34534
 C274 C 0.11348 0.29945 0.36803
 C275 C 0.09262 0.31606 0.38815
 C276 C 0.09369 0.34593 0.38573
 C277 C 0.18251 0.33916 0.30020
 C278 C 0.20206 0.32544 0.28456
 C279 C 0.09650 0.40768 0.38321
 C280 C 0.07998 0.42262 0.40240
 H281 H 0.12489 0.44778 0.34849
 H282 H 0.16323 0.47024 0.30806
 H283 H 0.20025 0.44074 0.27235
 H284 H 0.19915 0.38861 0.27683
 H285 H 0.15127 0.29877 0.33017
 H286 H 0.11254 0.27625 0.37001
 H287 H 0.07551 0.30575 0.40573
 H288 H 0.07697 0.35795 0.40185
 C289 C 0.61809 -0.10992 0.36081
 C290 C 0.61668 -0.14029 0.36270
 C291 C 0.63805 -0.15717 0.34202
 C292 C 0.66069 -0.14357 0.31959
 C293 C 0.66168 -0.11322 0.31697
 C294 C 0.64033 -0.09635 0.33764
 C295 C 0.64190 -0.06604 0.33477
 C296 C 0.66393 -0.05278 0.31211
 C297 C 0.68481 -0.06928 0.29190
 C298 C 0.68382 -0.09916 0.29420
 C299 C 0.63631 -0.18747 0.34454
 C300 C 0.61407 -0.20073 0.36683
 C301 C 0.59317 -0.18423 0.38705
 C302 C 0.59436 -0.15434 0.38512
 C303 C 0.68355 -0.16065 0.30020
 C304 C 0.70312 -0.17428 0.28442
 C305 C 0.59735 -0.09258 0.38358
 C306 C 0.58075 -0.07774 0.40281
 H307 H 0.62613 -0.05227 0.34990
 H308 H 0.66479 -0.02958 0.31023
 H309 H 0.70188 -0.05889 0.27433
 H310 H 0.70053 -0.11105 0.27789
 H311 H 0.65205 -0.20120 0.32928
 H312 H 0.61305 -0.22394 0.36842
 H313 H 0.57594 -0.19464 0.40431
 H314 H 0.57759 -0.14242 0.40130
 C315 C 0.61828 0.38974 -0.13941
 C316 C 0.61654 0.35939 -0.13756
 C317 C 0.63790 0.34232 -0.15795
 C318 C 0.66086 0.35570 -0.18006
 C319 C 0.66218 0.38604 -0.18265
 C320 C 0.64084 0.40311 -0.16227
 C321 C 0.64274 0.43340 -0.16511
 C322 C 0.66507 0.44646 -0.18747
 C323 C 0.68594 0.42977 -0.20740
 C324 C 0.68463 0.39990 -0.20512
 C325 C 0.63583 0.31203 -0.15549
 C326 C 0.61326 0.29897 -0.13353
 C327 C 0.59237 0.31566 -0.11360
 C328 C 0.59389 0.34554 -0.11547
 C329 C 0.68369 0.33842 -0.19916
 C330 C 0.70326 0.32466 -0.21472
 C331 C 0.59756 0.40727 -0.11689
 C332 C 0.58098 0.42227 -0.09787
 H333 H 0.62699 0.44732 -0.15019
 H334 H 0.66617 0.46965 -0.18934
 H335 H 0.70325 0.44001 -0.22474
 H336 H 0.70136 0.38786 -0.22121
 H337 H 0.65155 0.29815 -0.17054
 H338 H 0.61198 0.27577 -0.13198
 H339 H 0.57489 0.30541 -0.09659
 H340 H 0.57712 0.35762 -0.09952
 C341 C -0.11677 0.11006 -0.14098
 C342 C -0.11875 0.14006 -0.13464
 C343 C -0.14047 0.15653 -0.15482
 C344 C -0.16007 0.14289 -0.18119
 C345 C -0.15762 0.11300 -0.18824
 C346 C -0.13589 0.09654 -0.16810
 C347 C -0.13396 0.06667 -0.17548
 C348 C -0.15295 0.05344 -0.20200
 C349 C -0.17422 0.06954 -0.22167
 C350 C -0.17663 0.09898 -0.21498
 C351 C -0.14214 0.18646 -0.14785
 C352 C -0.12290 0.19976 -0.12170
 C353 C -0.10168 0.18365 -0.10195
 C354 C -0.09954 0.15414 -0.10822
 C355 C -0.18338 0.15937 -0.20012
 C356 C -0.20317 0.17272 -0.21542
 C357 C -0.09580 0.09293 -0.11874
 C358 C -0.07888 0.07846 -0.09986
 H359 H -0.11775 0.05324 -0.16094
 H360 H -0.15116 0.03058 -0.20732
 H361 H -0.18892 0.05916 -0.24224
 H362 H -0.19350 0.11059 -0.23103
 H363 H -0.15825 0.19990 -0.16256
 H364 H -0.12446 0.22268 -0.11673
 H365 H -0.08678 0.19408 -0.08167
 H366 H -0.08264 0.14252 -0.09223
 C367 C -0.11601 0.61029 0.35884
 C368 C -0.11823 0.64023 0.36562
 C369 C -0.13985 0.65675 0.34535
 C370 C -0.15913 0.64323 0.31846
 C371 C -0.15643 0.61341 0.31099
 C372 C -0.13479 0.59690 0.33123
 C373 C -0.13261 0.56710 0.32342
 C374 C -0.15128 0.55400 0.29640
 C375 C -0.17246 0.57014 0.27664
 C376 C -0.17511 0.59951 0.28374
 C377 C -0.14176 0.68661 0.35276
 C378 C -0.12285 0.69979 0.37942
 C379 C -0.10172 0.68363 0.39925
 C380 C -0.09934 0.65418 0.39256
 C381 C -0.18235 0.65974 0.29942
 C382 C -0.20207 0.67313 0.28404
 C383 C -0.09513 0.59310 0.38114
 C384 C -0.07828 0.57858 0.40005
 H385 H -0.11646 0.55364 0.33800
 H386 H -0.14930 0.53119 0.29076
 H387 H -0.18691 0.55986 0.25568
 H388 H -0.19189 0.61116 0.26760
 H389 H -0.15782 0.70009 0.33800
 H390 H -0.12460 0.72266 0.38472
 H391 H -0.08707 0.69397 0.41993
 H392 H -0.08253 0.64253 0.40864
 C393 C 0.38457 0.10960 0.35886
 C394 C 0.38145 0.13933 0.36670
 C395 C 0.35978 0.15576 0.34638
 C396 C 0.34135 0.14236 0.31838
 C397 C 0.34496 0.11278 0.30987
 C398 C 0.36665 0.09636 0.33015
 C399 C 0.36973 0.06679 0.32129
 C400 C 0.35190 0.05382 0.29321
 C401 C 0.33068 0.06988 0.27340
 C402 C 0.32714 0.09902 0.28152
 C403 C 0.35695 0.18540 0.35487
 C404 C 0.37502 0.19844 0.38264
 C405 C 0.39619 0.18238 0.40252
 C406 C 0.39946 0.15314 0.39477
 C407 C 0.31806 0.15872 0.29926
 C408 C 0.29829 0.17202 0.28384
 C409 C 0.40548 0.09245 0.38117
 C410 C 0.42234 0.07796 0.40010
 H411 H 0.38596 0.05342 0.33588
 H412 H 0.35457 0.03119 0.28678
 H413 H 0.31688 0.05970 0.25161
 H414 H 0.31036 0.11061 0.26530
 H415 H 0.34082 0.19880 0.34013
 H416 H 0.37257 0.22114 0.38876
 H417 H 0.41017 0.19261 0.42406
 H418 H 0.41627 0.14156 0.41094
 C419 C 0.38491 0.61000 -0.14250
 C420 C 0.38282 0.63997 -0.13594
 C421 C 0.36116 0.65647 -0.15616
 C422 C 0.34170 0.64289 -0.18277
 C423 C 0.34427 0.61304 -0.19004
 C424 C 0.36595 0.59655 -0.16987
 C425 C 0.36800 0.56671 -0.17747
 C426 C 0.34916 0.55355 -0.20423
 C427 C 0.32794 0.56968 -0.22393
 C428 C 0.32541 0.59908 -0.21703
 C429 C 0.35937 0.68637 -0.14896
 C430 C 0.37846 0.69960 -0.12256
 C431 C 0.39964 0.68346 -0.10278
 C432 C 0.40189 0.65398 -0.10927
 C433 C 0.31841 0.65939 -0.20171
 C434 C 0.29864 0.67277 -0.21698
 C435 C 0.40582 0.59283 -0.12021
 C436 C 0.42268 0.57834 -0.10128
 H437 H 0.38418 0.55327 -0.16291
 H438 H 0.35104 0.53071 -0.20971
 H439 H 0.31335 0.55935 -0.24470
 H440 H 0.30859 0.61072 -0.23312
 H441 H 0.34329 0.69983 -0.16369
 H442 H 0.37681 0.72249 -0.11742
 H443 H 0.41442 0.69384 -0.08230
 H444 H 0.41874 0.64234 -0.09324
 C445 C -0.11870 -0.10951 0.13954
 C446 C -0.14152 -0.09598 0.16175
 C447 C -0.16287 -0.11289 0.18235
 C448 C -0.16129 -0.14326 0.18061
 C449 C -0.13808 -0.15679 0.15913
 C450 C -0.11671 -0.13987 0.13853
 C451 C -0.09381 -0.15388 0.11707
 C452 C -0.09205 -0.18376 0.11602
 C453 C -0.11295 -0.20031 0.13616
 C454 C -0.13576 -0.18710 0.15751
 C455 C -0.18559 -0.09887 0.20416
 C456 C -0.18716 -0.06899 0.20559
 C457 C -0.16628 -0.05244 0.18545
 C458 C -0.14368 -0.06566 0.16373
 C459 C -0.18409 -0.16042 0.19996
 C460 C -0.20363 -0.17413 0.21569
 C461 C -0.09792 -0.09216 0.11684
 C462 C -0.08129 -0.07731 0.09768
 H463 H -0.07702 -0.14191 0.10099
 H464 H -0.07438 -0.19414 0.09949
 H465 H -0.11148 -0.22352 0.13525
 H466 H -0.15147 -0.20086 0.17275
 H467 H -0.20233 -0.11079 0.22037
 H468 H -0.20467 -0.05862 0.22243
 H469 H -0.16759 -0.02923 0.18666
 H470 H -0.12795 -0.05185 0.14861
 C471 C -0.11747 0.39031 0.63982
 C472 C -0.14003 0.40373 0.66261
 C473 C -0.16129 0.38671 0.68323
 C474 C -0.15987 0.35636 0.68093
 C475 C -0.13690 0.34293 0.65889
 C476 C -0.11563 0.35996 0.63827
 C477 C -0.09297 0.34606 0.61625
 C478 C -0.09135 0.31617 0.61466
 C479 C -0.11215 0.29953 0.63482
 C480 C -0.13473 0.31264 0.65671
 C481 C -0.18375 0.40063 0.70563
 C482 C -0.18515 0.43050 0.70762
 C483 C -0.16437 0.44714 0.68746
 C484 C -0.14203 0.43404 0.66516
 C485 C -0.18260 0.33912 0.70027
 C486 C -0.20209 0.32537 0.71601
 C487 C -0.09683 0.40778 0.61710
 C488 C -0.08030 0.42271 0.59791
 H489 H -0.07626 0.35810 0.60013
 H490 H -0.07386 0.30588 0.59771
 H491 H -0.11080 0.27633 0.63350
 H492 H -0.15037 0.29879 0.67194
 H493 H -0.20040 0.38862 0.72188
 H494 H -0.20246 0.44078 0.72491
 H495 H -0.16555 0.47034 0.68911
 H496 H -0.12636 0.44792 0.65006
 C497 C 0.38216 -0.10985 0.63968
 C498 C 0.35943 -0.09630 0.66204
 C499 C 0.33802 -0.11321 0.68255
 C500 C 0.33946 -0.14357 0.68057
 C501 C 0.36259 -0.15712 0.65897
 C502 C 0.38402 -0.14020 0.63846
 C503 C 0.40685 -0.15422 0.61689
 C504 C 0.40848 -0.18411 0.61563
 C505 C 0.38753 -0.20065 0.63568
 C506 C 0.36478 -0.18742 0.65714
 C507 C 0.31539 -0.09918 0.70451
 C508 C 0.31397 -0.06930 0.70619
 C509 C 0.33490 -0.05276 0.68613
 C510 C 0.35740 -0.06598 0.66426
 C511 C 0.31658 -0.16072 0.69979
 C512 C 0.29699 -0.17442 0.71540
 C513 C 0.40297 -0.09249 0.61704
 C514 C 0.41962 -0.07765 0.59791
 H515 H 0.42368 -0.14226 0.60087
 H516 H 0.42610 -0.19449 0.59901
 H517 H 0.38890 -0.22386 0.63461
 H518 H 0.34902 -0.20119 0.67230
 H519 H 0.29861 -0.11110 0.72067
 H520 H 0.29653 -0.05893 0.72315
 H521 H 0.33370 -0.02955 0.68753
 H522 H 0.37319 -0.05218 0.64921
 C523 C 0.38280 0.39046 0.13857
 C524 C 0.35968 0.40391 0.16034
 C525 C 0.33836 0.38692 0.18088
 C526 C 0.34029 0.35656 0.17954
 C527 C 0.36380 0.34312 0.15852
 C528 C 0.38513 0.36012 0.13797
 C529 C 0.40834 0.34620 0.11697
 C530 C 0.41043 0.31633 0.11632
 C531 C 0.38957 0.29971 0.13641
 C532 C 0.36646 0.31283 0.15731
 C533 C 0.31534 0.40086 0.20225
 C534 C 0.31345 0.43073 0.20330
 C535 C 0.33429 0.44735 0.18321
 C536 C 0.35718 0.43422 0.16192
 C537 C 0.31752 0.33930 0.19881
 C538 C 0.29803 0.32552 0.21447
 C539 C 0.40354 0.40787 0.11590
 C540 C 0.42014 0.42275 0.09675
 H541 H 0.42511 0.35823 0.10095
 H542 H 0.42833 0.30603 0.10014
 H543 H 0.39130 0.27651 0.13581
 H544 H 0.35079 0.29901 0.17252
 H545 H 0.29861 0.38888 0.21841
 H546 H 0.29571 0.44103 0.21980
 H547 H 0.33273 0.47055 0.18412
 H548 H 0.37287 0.44808 0.14683
 C549 C 0.11569 0.10931 0.14164
 C550 C 0.11724 0.13942 0.13603
 C551 C 0.13899 0.15582 0.15619
 C552 C 0.15908 0.14201 0.18181
 C553 C 0.15706 0.11201 0.18812
 C554 C 0.13529 0.09561 0.16800
 C555 C 0.13381 0.06562 0.17464
 C556 C 0.15328 0.05221 0.20042
 C557 C 0.17458 0.06824 0.22007
 C558 C 0.17656 0.09780 0.21410
 C559 C 0.14023 0.18586 0.14995
 C560 C 0.12052 0.19932 0.12453
 C561 C 0.09926 0.18328 0.10481
 C562 C 0.09754 0.15366 0.11036
 C563 C 0.18239 0.15847 0.20071
 C564 C 0.20217 0.17185 0.21595
 C565 C 0.09464 0.09229 0.11940
 C566 C 0.07766 0.07792 0.10050
 H567 H 0.11759 0.05223 0.16009
 H568 H 0.15182 0.02926 0.20517
 H569 H 0.18966 0.05773 0.24007
 H570 H 0.19347 0.10935 0.23012
 H571 H 0.15636 0.19925 0.16468
 H572 H 0.12176 0.22232 0.12012
 H573 H 0.08400 0.19384 0.08509
 H574 H 0.08060 0.14211 0.09441
 C575 C 0.11613 0.60998 0.64108
 C576 C 0.11807 0.63999 0.63470
 C577 C 0.13977 0.65647 0.65485
 C578 C 0.15941 0.64285 0.68122
 C579 C 0.15700 0.61296 0.68829
 C580 C 0.13529 0.59648 0.66818
 C581 C 0.13340 0.56661 0.67559
 C582 C 0.15243 0.55339 0.70211
 C583 C 0.17368 0.56950 0.72175
 C584 C 0.17605 0.59894 0.71503
 C585 C 0.14139 0.68641 0.64784
 C586 C 0.12212 0.69968 0.62169
 C587 C 0.10091 0.68356 0.60198
 C588 C 0.09882 0.65405 0.60828
 C589 C 0.18269 0.65934 0.70012
 C590 C 0.20244 0.67273 0.71538
 C591 C 0.09516 0.59285 0.61889
 C592 C 0.07823 0.57838 0.60005
 H593 H 0.11721 0.55317 0.66108
 H594 H 0.15067 0.53053 0.70744
 H595 H 0.18841 0.55913 0.74232
 H596 H 0.19290 0.61056 0.73106
 H597 H 0.15749 0.69985 0.66253
 H598 H 0.12365 0.72260 0.61670
 H599 H 0.08599 0.69398 0.58170
 H600 H 0.08193 0.64243 0.59232
 C601 C 0.61610 0.10918 0.64236
 C602 C 0.61784 0.13924 0.63639
 C603 C 0.63945 0.15571 0.65673
 C604 C 0.65920 0.14200 0.68288
 C605 C 0.65699 0.11205 0.68954
 C606 C 0.63537 0.09559 0.66924
 C607 C 0.63369 0.06565 0.67624
 C608 C 0.65283 0.05236 0.70254
 C609 C 0.67399 0.06844 0.72236
 C610 C 0.67616 0.09795 0.71605
 C611 C 0.64088 0.18570 0.65012
 C612 C 0.62150 0.19905 0.62418
 C613 C 0.60038 0.18296 0.60428
 C614 C 0.59848 0.15338 0.61019
 C615 C 0.68240 0.15849 0.70197
 C616 C 0.70210 0.17187 0.71737
 C617 C 0.59520 0.09209 0.61999
 C618 C 0.57834 0.07766 0.60100
 H619 H 0.61757 0.05223 0.66157
 H620 H 0.65123 0.02944 0.70756
 H621 H 0.68881 0.05801 0.74276
 H622 H 0.69295 0.10955 0.73222
 H623 H 0.65691 0.19913 0.66497
 H624 H 0.62288 0.22202 0.61950
 H625 H 0.58538 0.19343 0.58416
 H626 H 0.58166 0.14178 0.59408
 C627 C 0.61619 0.61012 0.14078
 C628 C 0.61807 0.64013 0.13443
 C629 C 0.63962 0.65667 0.15477
 C630 C 0.65917 0.64310 0.18129
 C631 C 0.65680 0.61320 0.18835
 C632 C 0.63524 0.59667 0.16805
 C633 C 0.63341 0.56679 0.17543
 C634 C 0.65235 0.55362 0.20210
 C635 C 0.67344 0.56978 0.22193
 C636 C 0.67575 0.59923 0.21525
 C637 C 0.64119 0.68661 0.14778
 C638 C 0.62201 0.69984 0.12146
 C639 C 0.60096 0.68367 0.10156
 C640 C 0.59891 0.65414 0.10784
 C641 C 0.68233 0.65964 0.20036
 C642 C 0.70200 0.67306 0.21575
 C643 C 0.59536 0.59294 0.11843
 C644 C 0.57856 0.57842 0.09947
 H645 H 0.61733 0.55331 0.16077
 H646 H 0.65063 0.53075 0.20740
 H647 H 0.68810 0.55945 0.24263
 H648 H 0.69249 0.61090 0.23143
 H649 H 0.65717 0.70010 0.16261
 H650 H 0.62350 0.72277 0.11649
 H651 H 0.58611 0.69404 0.08115
 H652 H 0.58215 0.64248 0.09172
   
