data_POSCAR
  _audit_creation_date              2014-09-24
  _audit_creation_method            'ToBaCCo'
  _symmetry_space_group_name_H-M    'P1'
  _symmetry_Int_Tables_number       1
  _symmetry_cell_setting            triclinic
  loop_
  _symmetry_equiv_pos_as_xyz
 x,y,z
_cell_length_a 42.7177
_cell_length_b 25.2166
_cell_length_c 14.6853
_cell_angle_alpha 90.107900
_cell_angle_beta 89.943100
_cell_angle_gamma 90.277600
loop_
  _atom_site_label
  _atom_site_type_symbol
  _atom_site_fract_x
  _atom_site_fract_y
  _atom_site_fract_z
C1 C 0.75217 0.25247 0.54388
 C2 C 0.75238 0.25289 0.45098
 C3 C 0.77892 0.23073 0.39791
 C4 C 0.72574 0.27471 0.39837
 C5 C 0.72747 0.28023 0.59656
 C6 C 0.77701 0.22542 0.59672
 C7 C 0.80985 0.24697 0.41500
 C8 C 0.83475 0.22294 0.36944
 C9 C 0.82917 0.18339 0.30369
 C10 C 0.79806 0.16826 0.28505
 C11 C 0.77322 0.19189 0.33149
 C12 C 0.73092 0.31486 0.33398
 C13 C 0.70570 0.33750 0.28785
 C14 C 0.67504 0.32008 0.30509
 C15 C 0.66998 0.27872 0.36728
 C16 C 0.69516 0.25600 0.41315
 C17 C 0.70897 0.25203 0.65906
 C18 C 0.68442 0.27721 0.70465
 C19 C 0.67830 0.33106 0.68929
 C20 C 0.69742 0.35968 0.62890
 C21 C 0.72188 0.33449 0.58309
 C22 C 0.78413 0.17182 0.58098
 C23 C 0.80944 0.14828 0.62523
 C24 C 0.82770 0.17774 0.68659
 C25 C 0.81983 0.23068 0.70491
 C26 C 0.79460 0.25427 0.66052
 H27 H 0.81474 0.27752 0.46499
 H28 H 0.85843 0.23507 0.38600
 H29 H 0.79272 0.13729 0.23640
 H30 H 0.74952 0.17877 0.31743
 H31 H 0.75438 0.32952 0.32118
 H32 H 0.71001 0.36921 0.23972
 H33 H 0.69078 0.22428 0.46118
 H34 H 0.71302 0.21021 0.67059
 H35 H 0.66993 0.25458 0.75118
 H36 H 0.69329 0.40125 0.61595
 H37 H 0.73621 0.35709 0.53610
 H38 H 0.77050 0.14866 0.53299
 H39 H 0.81503 0.10725 0.61092
 H40 H 0.83334 0.25423 0.75241
 H41 H 0.78940 0.29557 0.67380
 H42 H 0.64664 0.26414 0.38132
 C43 C 0.24509 0.73415 0.45504
 C44 C 0.24483 0.73399 0.54787
 C45 C 0.22057 0.76276 0.60039
 C46 C 0.26960 0.70675 0.60060
 C47 C 0.27172 0.71173 0.40291
 C48 C 0.21928 0.75799 0.40157
 C49 C 0.21608 0.81735 0.58762
 C50 C 0.19233 0.84380 0.63442
 C51 C 0.17283 0.81609 0.69504
 C52 C 0.17778 0.76179 0.70934
 C53 C 0.20164 0.73535 0.66280
 C54 C 0.28861 0.73594 0.66049
 C55 C 0.31400 0.71183 0.70341
 C56 C 0.32049 0.65809 0.68797
 C57 C 0.30081 0.62839 0.63062
 C58 C 0.27549 0.65253 0.58740
 C59 C 0.26641 0.67139 0.33878
 C60 C 0.29156 0.64813 0.29295
 C61 C 0.32229 0.66521 0.31036
 C62 C 0.32751 0.70648 0.37265
 C63 C 0.30240 0.72990 0.41808
 C64 C 0.18812 0.74155 0.41424
 C65 C 0.16391 0.76634 0.36683
 C66 C 0.17051 0.80775 0.30603
 C67 C 0.20174 0.82302 0.29126
 C68 C 0.22594 0.79813 0.33836
 H69 H 0.23079 0.83930 0.54070
 H70 H 0.18907 0.88568 0.62216
 H71 H 0.16295 0.73985 0.75596
 H72 H 0.20489 0.69327 0.67379
 H73 H 0.28444 0.77780 0.67145
 H74 H 0.32890 0.73525 0.74769
 H75 H 0.26088 0.62929 0.54201
 H76 H 0.24287 0.65713 0.32583
 H77 H 0.28692 0.61650 0.24493
 H78 H 0.35108 0.72034 0.38639
 H79 H 0.30690 0.76172 0.46600
 H80 H 0.18255 0.71001 0.46162
 H81 H 0.13995 0.75387 0.37866
 H82 H 0.20752 0.85456 0.24431
 H83 H 0.24984 0.81114 0.32729
 H84 H 0.30522 0.58685 0.61780
 C85 C 0.24979 0.25019 -0.45476
 C86 C 0.25077 0.25135 -0.54757
 C87 C 0.27840 0.27299 -0.59680
 C88 C 0.22473 0.23007 -0.60393
 C89 C 0.22455 0.22197 -0.40469
 C90 C 0.27473 0.27548 -0.39924
 C91 C 0.27462 0.31408 -0.65996
 C92 C 0.30070 0.33651 -0.70290
 C93 C 0.33096 0.31812 -0.68349
 C94 C 0.33461 0.27582 -0.62236
 C95 C 0.30851 0.25319 -0.57997
 C96 C 0.19378 0.24676 -0.58984
 C97 C 0.16929 0.22396 -0.63953
 C98 C 0.17536 0.18458 -0.70489
 C99 C 0.20648 0.16949 -0.72151
 C100 C 0.23093 0.19219 -0.67158
 C101 C 0.21858 0.16795 -0.42068
 C102 C 0.19440 0.14192 -0.37449
 C103 C 0.17587 0.16947 -0.31112
 C104 C 0.18222 0.22331 -0.29424
 C105 C 0.20652 0.24922 -0.34013
 C106 C 0.29245 0.24459 -0.33917
 C107 C 0.31799 0.26676 -0.29330
 C108 C 0.32593 0.32028 -0.30619
 C109 C 0.30742 0.35173 -0.36326
 C110 C 0.28195 0.32953 -0.40944
 H111 H 0.25155 0.32955 -0.67441
 H112 H 0.29729 0.36878 -0.75044
 H113 H 0.35750 0.26014 -0.60678
 H114 H 0.31182 0.22062 -0.53304
 H115 H 0.18856 0.27678 -0.53932
 H116 H 0.14550 0.23639 -0.62578
 H117 H 0.25467 0.17907 -0.68392
 H118 H 0.23259 0.14606 -0.46929
 H119 H 0.19015 0.10049 -0.38933
 H120 H 0.16824 0.24539 -0.24579
 H121 H 0.21090 0.29084 -0.32658
 H122 H 0.28714 0.20287 -0.33031
 H123 H 0.33169 0.24179 -0.24896
 H124 H 0.31309 0.39322 -0.37332
 H125 H 0.26829 0.35412 -0.45473
 H126 H 0.21204 0.13940 -0.77143
 C127 C -0.25316 0.75900 -0.45433
 C128 C -0.25327 0.76055 -0.54716
 C129 C -0.22812 0.78830 -0.59819
 C130 C -0.27839 0.73485 -0.60156
 C131 C -0.28010 0.73740 -0.40196
 C132 C -0.22596 0.77924 -0.40153
 C133 C -0.22219 0.84241 -0.58330
 C134 C -0.19701 0.86749 -0.62636
 C135 C -0.17741 0.83881 -0.68530
 C136 C -0.18385 0.78494 -0.70167
 C137 C -0.20917 0.75999 -0.65901
 C138 C -0.29564 0.76484 -0.66409
 C139 C -0.32048 0.74180 -0.71203
 C140 C -0.32824 0.68813 -0.69886
 C141 C -0.31022 0.65770 -0.63862
 C142 C -0.28549 0.68084 -0.59040
 C143 C -0.27533 0.69745 -0.33718
 C144 C -0.30075 0.67489 -0.29123
 C145 C -0.33138 0.69206 -0.30905
 C146 C -0.33602 0.73337 -0.37163
 C147 C -0.31057 0.75606 -0.41718
 C148 C -0.19577 0.75962 -0.41801
 C149 C -0.16990 0.78193 -0.37404
 C150 C -0.17387 0.82374 -0.31201
 C151 C -0.20415 0.84193 -0.29275
 C152 C -0.23006 0.81975 -0.33706
 H153 H -0.23678 0.86494 -0.53707
 H154 H -0.19276 0.90898 -0.61209
 H155 H -0.16906 0.76203 -0.74686
 H156 H -0.21343 0.71820 -0.67121
 H157 H -0.29035 0.80649 -0.67403
 H158 H -0.33364 0.76629 -0.75853
 H159 H -0.27209 0.65682 -0.54357
 H160 H -0.25198 0.68282 -0.32391
 H161 H -0.29658 0.64333 -0.24282
 H162 H -0.35921 0.74804 -0.38629
 H163 H -0.31467 0.78775 -0.46532
 H164 H -0.19222 0.72770 -0.46632
 H165 H -0.14687 0.76673 -0.38943
 H166 H -0.20763 0.87394 -0.24456
 H167 H -0.25319 0.83522 -0.32314
 H168 H -0.31559 0.61613 -0.62791
 O169 O -0.04566 0.91185 0.17130
 O170 O -0.07851 0.96064 0.08125
 C171 C -0.07324 0.92695 0.14558
 O172 O 0.04569 1.09872 0.15826
 O173 O 0.07957 1.04525 0.07890
 C174 C 0.07359 1.08348 0.13520
 O175 O -0.04216 1.09677 0.16691
 O176 O -0.07703 1.05023 0.07814
 C177 C -0.07030 1.08430 0.14136
 O178 O 0.04168 0.90205 0.16427
 O179 O 0.07734 0.95207 0.08446
 C180 C 0.07005 0.91502 0.14179
 Zr181 Zr -0.00115 0.93548 0.12104
 O182 O 0.00214 0.93997 0.26477
 O183 O -0.00630 0.85207 0.12726
 Zr184 Zr 0.00135 1.06925 0.11665
 O185 O 0.00465 1.06986 0.26050
 O186 O -0.00090 1.15308 0.11503
 O187 O -0.02800 1.00380 0.13546
 O188 O 0.02738 1.00141 0.13647
 O189 O 0.04381 0.90109 -0.15096
 O190 O 0.07848 0.95121 -0.06753
 C191 C 0.07193 0.91468 -0.12652
 O192 O -0.04135 1.09260 -0.16696
 O193 O -0.07689 1.04621 -0.08021
 C194 C -0.06973 1.07958 -0.14377
 O195 O 0.04692 1.09353 -0.15692
 O196 O 0.08004 1.04178 -0.07224
 C197 C 0.07460 1.07793 -0.13256
 O198 O -0.04400 0.90816 -0.16137
 O199 O -0.07796 0.95857 -0.07672
 C200 C -0.07189 0.92332 -0.13836
 Zr201 Zr 0.00002 0.93246 -0.10907
 O202 O 0.00389 0.92988 -0.25273
 O203 O -0.00475 0.84886 -0.10410
 Zr204 Zr 0.00218 1.06650 -0.11358
 O205 O 0.00611 1.06497 -0.25728
 O206 O 0.00022 1.15038 -0.11557
 Zr207 Zr -0.04607 1.00301 0.00180
 Zr208 Zr 0.04717 0.99914 0.00533
 O209 O 0.02825 0.99821 -0.12703
 O210 O -0.02671 1.00037 -0.13031
 O211 O 0.02716 0.92250 0.00727
 O212 O -0.02526 1.07881 0.00026
 O213 O -0.02793 0.92552 0.00522
 O214 O 0.02981 1.07723 0.00199
 H215 H 0.04159 1.00147 0.18976
 H216 H -0.03889 1.11048 -0.00133
 H217 H 0.04245 0.99695 -0.18039
 H218 H -0.04251 0.89484 0.00577
 H219 H 0.01601 1.16592 0.07457
 H220 H 0.01843 1.16391 -0.08088
 H221 H -0.01153 1.04350 -0.28096
 H222 H -0.01263 0.95296 -0.27785
 H223 H 0.01368 0.83469 -0.07165
 H224 H 0.00848 0.83674 0.08267
 H225 H -0.01663 0.95871 0.28736
 H226 H -0.01342 1.04958 0.28453
 O227 O 0.45884 0.40580 0.16773
 O228 O 0.42356 0.45180 0.08082
 C229 C 0.43054 0.41817 0.14392
 O230 O 0.54304 0.60053 0.15684
 O231 O 0.57821 0.55072 0.07541
 C232 C 0.57130 0.58752 0.13346
 O233 O 0.45512 0.59028 0.16591
 O234 O 0.42181 0.53907 0.07968
 C235 C 0.42741 0.57416 0.14200
 O236 O 0.54685 0.40653 0.15709
 O237 O 0.58014 0.45959 0.07418
 C238 C 0.57455 0.42239 0.13273
 Zr239 Zr 0.50226 0.43364 0.11569
 O240 O 0.50604 0.43501 0.25942
 O241 O 0.50040 0.34974 0.11709
 Zr242 Zr 0.49956 0.56787 0.11439
 O243 O 0.50312 0.56890 0.25815
 O244 O 0.49443 0.65134 0.11253
 O245 O 0.47312 0.49898 0.13342
 O246 O 0.52804 0.50256 0.13138
 O247 O 0.54668 0.40606 -0.15864
 O248 O 0.57986 0.46028 -0.07756
 C249 C 0.57438 0.42286 -0.13585
 O250 O 0.45438 0.58834 -0.16676
 O251 O 0.42151 0.53778 -0.07829
 C252 C 0.42677 0.57205 -0.14191
 O253 O 0.54251 0.59950 -0.15932
 O254 O 0.57797 0.55114 -0.07679
 C255 C 0.57084 0.58720 -0.13575
 O256 O 0.45837 0.40431 -0.16458
 O257 O 0.42336 0.45106 -0.07728
 C258 C 0.43015 0.41687 -0.13991
 Zr259 Zr 0.50201 0.43252 -0.11447
 O260 O 0.50511 0.43170 -0.25834
 O261 O 0.50037 0.34860 -0.11212
 Zr262 Zr 0.49916 0.56686 -0.11578
 O263 O 0.50246 0.56657 -0.25963
 O264 O 0.49383 0.65028 -0.11591
 Zr265 Zr 0.45437 0.49708 0.00074
 Zr266 Zr 0.54720 0.50332 -0.00070
 O267 O 0.52763 0.50151 -0.13222
 O268 O 0.47277 0.49770 -0.13255
 O269 O 0.53026 0.42462 0.00026
 O270 O 0.47198 0.57515 -0.00037
 O271 O 0.47516 0.42161 0.00112
 O272 O 0.52709 0.57955 -0.00122
 H273 H 0.54229 0.50352 0.18457
 H274 H 0.45708 0.60515 -0.00062
 H275 H 0.54166 0.50240 -0.18597
 H276 H 0.46156 0.38966 0.00172
 H277 H 0.51197 0.66613 0.07648
 H278 H 0.51115 0.66549 -0.07946
 H279 H 0.48552 0.54340 -0.28299
 H280 H 0.48742 0.45272 -0.28198
 H281 H 0.51893 0.33623 -0.07813
 H282 H 0.51754 0.33679 0.07768
 H283 H 0.48791 0.45494 0.28331
 H284 H 0.48631 0.54576 0.28232
 C285 C 0.39894 0.39119 0.29488
 C286 C 0.36378 0.40275 0.27911
 C287 C 0.35731 0.34269 0.27425
 C288 C 0.39222 0.33079 0.29075
 C289 C 0.36253 0.34289 0.17057
 C290 C 0.36927 0.40319 0.17490
 C291 C 0.40409 0.39123 0.19138
 C292 C 0.39769 0.33132 0.18646
 H293 H 0.41417 0.41149 0.34542
 H294 H 0.34965 0.43202 0.31770
 H295 H 0.40238 0.30131 0.33812
 H296 H 0.34739 0.32277 0.11957
 H297 H 0.36004 0.43329 0.12697
 H298 H 0.41192 0.30229 0.14766
 C299 C -0.13501 0.92023 0.17207
 C300 C -0.14467 0.86103 0.16941
 C301 C -0.15094 0.86315 0.27258
 C302 C -0.14156 0.92223 0.27571
 C303 C -0.11699 0.84660 0.29254
 C304 C -0.11040 0.84477 0.18884
 C305 C -0.10110 0.90366 0.19210
 C306 C -0.10729 0.90592 0.29505
 H307 H -0.14228 0.95069 0.12194
 H308 H -0.16026 0.84257 0.11773
 H309 H -0.15396 0.95510 0.31051
 H310 H -0.10980 0.81612 0.34269
 H311 H -0.09728 0.81322 0.15265
 H312 H -0.09158 0.92455 0.34621
 C313 C 0.62424 0.64468 0.12594
 C314 C 0.62167 0.69171 0.19356
 C315 C 0.64570 0.66438 0.25590
 C316 C 0.64857 0.61773 0.18872
 C317 C 0.61923 0.63558 0.30747
 C318 C 0.59495 0.66254 0.24475
 C319 C 0.59789 0.61598 0.17770
 C320 C 0.62183 0.58867 0.23978
 H321 H 0.62595 0.64801 0.05072
 H322 H 0.62098 0.73406 0.17333
 H323 H 0.67083 0.59948 0.16583
 H324 H 0.61732 0.63202 0.38263
 H325 H 0.57266 0.68073 0.26757
 H326 H 0.62158 0.54598 0.25824
 C327 C 0.12565 1.14290 0.12302
 C328 C 0.12428 1.18746 0.19589
 C329 C 0.14989 1.15882 0.25037
 C330 C 0.15163 1.11465 0.17785
 C331 C 0.12495 1.12746 0.30378
 C332 C 0.09903 1.15575 0.24892
 C333 C 0.10083 1.11160 0.17676
 C334 C 0.12642 1.08313 0.23099
 H335 H 0.12554 1.14893 0.04815
 H336 H 0.12366 1.23065 0.18154
 H337 H 0.17286 1.09691 0.14697
 H338 H 0.12486 1.12110 0.37858
 H339 H 0.07717 1.17242 0.27791
 H340 H 0.12721 1.04009 0.24505
 C341 C 0.60704 0.39824 -0.28504
 C342 C 0.64145 0.41565 -0.27010
 C343 C 0.65097 0.35689 -0.26412
 C344 C 0.61682 0.33928 -0.27952
 C345 C 0.64587 0.35719 -0.16032
 C346 C 0.63609 0.41614 -0.16586
 C347 C 0.60199 0.39846 -0.18148
 C348 C 0.61140 0.33987 -0.17524
 H349 H 0.59075 0.41529 -0.33591
 H350 H 0.65347 0.44770 -0.30844
 H351 H 0.60913 0.30746 -0.32692
 H352 H 0.66209 0.34023 -0.10918
 H353 H 0.64385 0.44797 -0.11854
 H354 H 0.59874 0.30900 -0.13571
 C355 C 0.13334 0.90272 -0.15646
 C356 C 0.14141 0.84296 -0.15307
 C357 C 0.14636 0.84346 -0.25692
 C358 C 0.13855 0.90301 -0.26074
 C359 C 0.11174 0.82885 -0.27241
 C360 C 0.10646 0.82867 -0.16806
 C361 C 0.09877 0.88804 -0.17218
 C362 C 0.10370 0.88861 -0.27580
 H363 H 0.14206 0.93331 -0.10813
 H364 H 0.15721 0.82408 -0.10281
 H365 H 0.15141 0.93452 -0.29810
 H366 H 0.10309 0.79827 -0.32082
 H367 H 0.09298 0.79845 -0.12935
 H368 H 0.08786 0.90758 -0.32587
 C369 C 0.39280 0.59298 -0.29165
 C370 C 0.35867 0.57498 -0.27305
 C371 C 0.34866 0.63352 -0.26822
 C372 C 0.38248 0.65178 -0.28739
 C373 C 0.35480 0.63486 -0.16500
 C374 C 0.36505 0.57616 -0.16935
 C375 C 0.39883 0.59448 -0.18859
 C376 C 0.38890 0.65288 -0.18365
 H377 H 0.40875 0.57558 -0.34326
 H378 H 0.34645 0.54227 -0.30929
 H379 H 0.38938 0.68312 -0.33657
 H380 H 0.33892 0.65212 -0.11303
 H381 H 0.35801 0.54477 -0.12040
 H382 H 0.40164 0.68467 -0.14644
 C383 C -0.12424 1.12912 -0.13961
 C384 C -0.12222 1.17917 -0.19995
 C385 C -0.14453 1.15244 -0.26863
 C386 C -0.14674 1.10261 -0.20863
 C387 C -0.11658 1.12875 -0.32079
 C388 C -0.09399 1.15526 -0.25164
 C389 C -0.09629 1.10562 -0.19151
 C390 C -0.11846 1.07865 -0.25995
 H391 H -0.12752 1.12813 -0.06484
 H392 H -0.12318 1.22039 -0.17362
 H393 H -0.16868 1.08119 -0.19101
 H394 H -0.11372 1.12889 -0.39594
 H395 H -0.07204 1.17666 -0.26920
 H396 H -0.11658 1.03702 -0.28403
 C397 C 0.63209 0.60475 -0.16686
 C398 C 0.63694 0.60645 -0.27129
 C399 C 0.64287 0.66664 -0.26502
 C400 C 0.63831 0.66523 -0.16106
 C401 C 0.60775 0.67772 -0.27923
 C402 C 0.60162 0.61724 -0.28492
 C403 C 0.59708 0.61593 -0.18118
 C404 C 0.60291 0.67596 -0.17470
 H405 H 0.64188 0.57447 -0.12022
 H406 H 0.65107 0.57791 -0.31150
 H407 H 0.65359 0.68526 -0.11031
 H408 H 0.59694 0.70739 -0.32501
 H409 H 0.58629 0.59709 -0.33536
 H410 H 0.58866 0.70415 -0.13419
 C411 C 0.13634 1.08536 -0.16518
 C412 C 0.14108 1.08507 -0.26976
 C413 C 0.15043 1.14415 -0.26538
 C414 C 0.14602 1.14461 -0.16128
 C415 C 0.11616 1.16084 -0.27929
 C416 C 0.10653 1.10158 -0.28315
 C417 C 0.10213 1.10216 -0.17932
 C418 C 0.11142 1.16101 -0.17473
 H419 H 0.14442 1.05412 -0.11762
 H420 H 0.15284 1.05277 -0.30790
 H421 H 0.16250 1.16236 -0.11125
 H422 H 0.10802 1.19203 -0.32685
 H423 H 0.08996 1.08371 -0.33280
 H424 H 0.09894 1.19190 -0.13503
 C425 C 0.37904 0.41886 -0.24390
 C426 C 0.38042 0.37290 -0.31381
 C427 C 0.35421 0.34413 -0.26108
 C428 C 0.35257 0.38983 -0.19175
 C429 C 0.37861 0.31520 -0.20231
 C430 C 0.40509 0.34431 -0.25458
 C431 C 0.40332 0.38991 -0.18533
 C432 C 0.37721 0.36120 -0.13252
 H433 H 0.37973 0.46173 -0.26061
 H434 H 0.38146 0.37751 -0.38892
 H435 H 0.33074 0.40837 -0.16614
 H436 H 0.37884 0.27249 -0.18430
 H437 H 0.42696 0.32589 -0.28016
 H438 H 0.37622 0.35673 -0.05735
 C439 C -0.13362 0.91064 -0.16853
 C440 C -0.13906 0.90949 -0.27273
 C441 C -0.14617 0.84965 -0.26695
 C442 C -0.14103 0.85058 -0.16326
 C443 C -0.11138 0.83665 -0.28307
 C444 C -0.10402 0.89675 -0.28830
 C445 C -0.09894 0.89748 -0.18481
 C446 C -0.10600 0.83780 -0.17888
 H447 H -0.14254 0.94142 -0.12109
 H448 H -0.15288 0.93884 -0.31183
 H449 H -0.15644 0.83130 -0.11206
 H450 H -0.10163 0.80637 -0.32993
 H451 H -0.08856 0.91617 -0.33920
 H452 H -0.09212 0.80862 -0.13961
 C453 C 0.40058 0.64253 0.25956
 C454 C 0.37398 0.67108 0.20793
 C455 C 0.34973 0.63978 0.26406
 C456 C 0.37604 0.61144 0.31613
 C457 C 0.34902 0.59531 0.19199
 C458 C 0.37357 0.62642 0.13548
 C459 C 0.39980 0.59819 0.18768
 C460 C 0.37565 0.56677 0.24358
 H461 H 0.42203 0.66172 0.28704
 H462 H 0.37299 0.71422 0.19339
 H463 H 0.37673 0.60540 0.39097
 H464 H 0.32803 0.57540 0.16321
 H465 H 0.37293 0.63235 0.06058
 H466 H 0.37678 0.52361 0.25785
 C467 C -0.09578 1.14621 0.27330
 C468 C -0.11734 1.18699 0.22658
 C469 C -0.14499 1.15781 0.25994
 C470 C -0.12586 1.11847 0.30812
 C471 C -0.14712 1.12509 0.17688
 C472 C -0.11764 1.15304 0.13895
 C473 C -0.09697 1.11155 0.18661
 C474 C -0.12641 1.08267 0.22248
 H475 H -0.07487 1.15583 0.31513
 H476 H -0.11482 1.23083 0.22921
 H477 H -0.13051 1.10546 0.37912
 H478 H -0.16855 1.11717 0.13636
 H479 H -0.11443 1.16966 0.06976
 H480 H -0.13088 1.03930 0.22206
 C481 C 0.60641 0.39415 0.27995
 C482 C 0.61308 0.33405 0.27300
 C483 C 0.64805 0.34666 0.25855
 C484 C 0.64160 0.40654 0.26590
 C485 C 0.64337 0.34855 0.15468
 C486 C 0.60813 0.33618 0.16872
 C487 C 0.60172 0.39589 0.17635
 C488 C 0.63657 0.40873 0.16154
 H489 H 0.59097 0.41335 0.33102
 H490 H 0.60268 0.30358 0.31843
 H491 H 0.65556 0.43533 0.30648
 H492 H 0.65878 0.32945 0.10341
 H493 H 0.59410 0.30759 0.12797
 H494 H 0.64594 0.43975 0.11524
 C495 C 0.12319 0.85980 0.13154
 C496 C 0.14687 0.88545 0.19835
 C497 C 0.14409 0.83627 0.26003
 C498 C 0.12069 0.81034 0.19369
 C499 C 0.11706 0.86199 0.31330
 C500 C 0.11960 0.91135 0.25132
 C501 C 0.09629 0.88555 0.18503
 C502 C 0.09337 0.83646 0.24649
 H503 H 0.12536 0.85917 0.05620
 H504 H 0.16858 0.90649 0.17749
 H505 H 0.12143 0.76851 0.17016
 H506 H 0.11479 0.86280 0.38861
 H507 H 0.11862 0.95272 0.27636
 H508 H 0.07112 0.81657 0.26602
   
