data_POSCAR
  _audit_creation_date              2014-09-24
  _audit_creation_method            'ToBaCCo'
  _symmetry_space_group_name_H-M    'P1'
  _symmetry_Int_Tables_number       1
  _symmetry_cell_setting            triclinic
  loop_
  _symmetry_equiv_pos_as_xyz
 x,y,z
_cell_length_a 59.6495
_cell_length_b 59.6883
_cell_length_c 16.0259
_cell_angle_alpha 90.085000
_cell_angle_beta 90.000000
_cell_angle_gamma 119.890800
loop_
  _atom_site_label
  _atom_site_type_symbol
  _atom_site_fract_x
  _atom_site_fract_y
  _atom_site_fract_z
C1 C 0.22582 0.49327 0.45846
 C2 C 0.22596 0.49317 0.54669
 C3 C 0.24643 0.49318 0.58980
 C4 C 0.26673 0.49318 0.54581
 C5 C 0.26659 0.49334 0.45777
 C6 C 0.24623 0.49344 0.41464
 H7 H 0.24617 0.49338 0.34691
 H8 H 0.24643 0.49294 0.65755
 C9 C 0.50673 -0.26707 0.45638
 C10 C 0.50667 -0.26683 0.54444
 C11 C 0.50660 -0.24641 0.58748
 C12 C 0.50673 -0.22609 0.54343
 C13 C 0.50677 -0.22635 0.45537
 C14 C 0.50671 -0.24683 0.41234
 H15 H 0.50691 -0.24683 0.34463
 H16 H 0.50672 -0.24625 0.65520
 C17 C 1.26740 0.77425 0.45277
 C18 C 1.26720 0.77400 0.54085
 C19 C 1.24683 0.75355 0.58377
 C20 C 1.22657 0.73336 0.53962
 C21 C 1.22680 0.73357 0.45171
 C22 C 1.24720 0.75394 0.40866
 H23 H 1.24716 0.75407 0.34095
 H24 H 1.24662 0.75350 0.65145
 C25 C 0.77372 0.50672 0.46018
 C26 C 0.77369 0.50661 0.54825
 C27 C 0.75326 0.50649 0.59194
 C28 C 0.73293 0.50661 0.54844
 C29 C 0.73300 0.50671 0.46037
 C30 C 0.75333 0.50670 0.41680
 H31 H 0.75343 0.50694 0.34912
 H32 H 0.75332 0.50657 0.65969
 C33 C 0.49298 0.26690 0.46084
 C34 C 0.49302 0.26692 0.54891
 C35 C 0.49310 0.24660 0.59241
 C36 C 0.49302 0.22620 0.54873
 C37 C 0.49299 0.22622 0.46067
 C38 C 0.49304 0.24658 0.41727
 H39 H 0.49286 0.24649 0.34958
 H40 H 0.49298 0.24654 0.66016
 C41 C 0.73354 0.22656 0.45718
 C42 C 0.73367 0.22657 0.54509
 C43 C 0.75401 0.24688 0.58868
 C44 C 0.77434 0.26718 0.54512
 C45 C 0.77418 0.26718 0.45704
 C46 C 0.75376 0.24690 0.41357
 H47 H 0.75374 0.24682 0.34589
 H48 H 0.75410 0.24672 0.65640
 N49 N 0.97290 0.52611 0.08786
 N50 N 0.95330 0.53023 0.09862
 N51 N 1.02741 0.53787 0.14551
 N52 N 1.04709 0.55059 0.19687
 N53 N 1.02730 0.55330 0.08735
 N54 N 1.04691 0.57696 0.09745
 N55 N 0.97301 0.51067 0.14600
 N56 N 0.95349 0.50385 0.19796
 C57 C 0.94147 0.51621 0.16743
 C58 C 1.05896 0.57486 0.16590
 N59 N 1.02760 0.47408 0.08853
 N60 N 1.04717 0.46992 0.09951
 N61 N 0.97317 0.46251 0.14666
 N62 N 0.95361 0.44995 0.19850
 N63 N 0.97315 0.44687 0.08888
 N64 N 0.95359 0.42323 0.09973
 N65 N 1.02761 0.48973 0.14628
 N66 N 1.04719 0.49665 0.19819
 Mn67 Mn 1.00030 0.50020 0.14711
 C68 C 1.05913 0.48414 0.16803
 C69 C 0.94168 0.42556 0.16823
 N70 N 1.02720 0.55308 -0.09237
 N71 N 1.04671 0.57675 -0.10350
 N72 N 0.97273 0.51021 -0.14967
 N73 N 0.95304 0.50315 -0.20113
 N74 N 0.97276 0.52585 -0.09186
 N75 N 0.95311 0.52987 -0.10231
 N76 N 1.02719 0.53744 -0.15016
 N77 N 1.04669 0.55003 -0.20224
 Mn78 Mn 1.00004 0.53985 -0.00225
 C79 C 1.05860 0.57446 -0.17216
 C80 C 0.94108 0.51560 -0.17060
 N81 N 0.97293 0.44656 -0.09084
 N82 N 0.95337 0.42286 -0.10120
 N83 N 1.02724 0.48920 -0.14937
 N84 N 1.04688 0.49616 -0.20087
 N85 N 1.02732 0.47376 -0.09119
 N86 N 1.04702 0.46978 -0.10141
 N87 N 0.97283 0.46199 -0.14900
 N88 N 0.95320 0.44924 -0.20058
 Mn89 Mn 1.00025 0.46005 -0.00117
 Mn90 Mn 1.00000 0.49970 -0.15057
 Cl91 Cl 1.00015 0.49995 -0.00172
 C92 C 0.94133 0.42493 -0.16979
 C93 C 1.05892 0.48386 -0.16996
 N94 N 0.47376 0.44677 0.08984
 N95 N 0.46964 0.42308 0.10068
 N96 N 0.46205 0.48957 0.14744
 N97 N 0.44938 0.49658 0.19895
 N98 N 0.44654 0.47402 0.08938
 N99 N 0.42286 0.46998 0.09971
 N100 N 0.48928 0.46233 0.14790
 N101 N 0.49616 0.44968 0.19988
 C102 C 0.48374 0.42530 0.16944
 C103 C 0.42505 0.48418 0.16817
 N104 N 0.52579 0.55329 0.09004
 N105 N 0.52994 0.57700 0.10087
 N106 N 0.53746 0.51052 0.14829
 N107 N 0.55010 0.50360 0.20025
 N108 N 0.55303 0.52602 0.09043
 N109 N 0.57672 0.53010 0.10134
 N110 N 0.51021 0.53778 0.14791
 N111 N 0.50332 0.55050 0.19974
 Mn112 Mn 0.49975 0.50005 0.14888
 C113 C 0.51578 0.57486 0.16942
 C114 C 0.57448 0.51600 0.16996
 N115 N 0.44654 0.47393 -0.09033
 N116 N 0.42285 0.46986 -0.10122
 N117 N 0.48937 0.46217 -0.14777
 N118 N 0.49638 0.44947 -0.19924
 N119 N 0.47380 0.44668 -0.08987
 N120 N 0.46976 0.42301 -0.10027
 N121 N 0.46211 0.48944 -0.14823
 N122 N 0.44944 0.49634 -0.20015
 Mn123 Mn 0.45989 0.46008 -0.00025
 C124 C 0.42504 0.48396 -0.16986
 C125 C 0.48397 0.42515 -0.16863
 N126 N 0.55313 0.52588 -0.08928
 N127 N 0.57682 0.52992 -0.09962
 N128 N 0.51038 0.53757 -0.14777
 N129 N 0.50339 0.55020 -0.19940
 N130 N 0.52590 0.55311 -0.08967
 N131 N 0.52990 0.57676 -0.10010
 N132 N 0.53762 0.51032 -0.14737
 N133 N 0.55033 0.50333 -0.19888
 Mn134 Mn 0.53973 0.53984 0.00037
 Mn135 Mn 0.49988 0.49987 -0.14880
 Cl136 Cl 0.49981 0.49996 0.00004
 C137 C 0.57468 0.51573 -0.16811
 C138 C 0.51575 0.57453 -0.16867
 N139 N 0.44672 -0.02720 0.08901
 N140 N 0.42302 -0.04673 0.09966
 N141 N 0.48948 0.02714 0.14758
 N142 N 0.49640 0.04667 0.19965
 N143 N 0.47392 0.02720 0.08974
 N144 N 0.46979 0.04678 0.10078
 N145 N 0.46229 -0.02727 0.14685
 N146 N 0.44962 -0.04685 0.19849
 C147 C 0.42522 -0.05873 0.16809
 C148 C 0.48394 0.05864 0.16945
 N149 N 0.55331 0.02715 0.08899
 N150 N 0.57698 0.04671 0.09978
 N151 N 0.51059 -0.02724 0.14630
 N152 N 0.50365 -0.04687 0.19768
 N153 N 0.52614 -0.02722 0.08820
 N154 N 0.53023 -0.04683 0.09838
 N155 N 0.53776 0.02712 0.14709
 N156 N 0.55041 0.04667 0.19904
 Mn157 Mn 0.50003 -0.00006 0.14795
 C158 C 0.57478 0.05862 0.16855
 C159 C 0.51608 -0.05880 0.16678
 N160 N 0.47395 0.02741 -0.08997
 N161 N 0.46985 0.04703 -0.10017
 N162 N 0.46233 -0.02693 -0.14882
 N163 N 0.44970 -0.04652 -0.20057
 N164 N 0.44679 -0.02695 -0.09071
 N165 N 0.42314 -0.04656 -0.10125
 N166 N 0.48950 0.02744 -0.14807
 N167 N 0.49643 0.04709 -0.19945
 Mn168 Mn 0.46008 0.00011 -0.00049
 C169 C 0.48400 0.05904 -0.16859
 C170 C 0.42537 -0.05847 -0.16991
 N171 N 0.52609 -0.02717 -0.09151
 N172 N 0.53019 -0.04678 -0.10252
 N173 N 0.53773 0.02732 -0.14858
 N174 N 0.55038 0.04692 -0.20008
 N175 N 0.55328 0.02724 -0.09073
 N176 N 0.57696 0.04678 -0.10120
 N177 N 0.51053 -0.02710 -0.14937
 N178 N 0.50359 -0.04666 -0.20139
 Mn179 Mn 0.53997 -0.00000 -0.00126
 Mn180 Mn 0.50002 0.00018 -0.14972
 Cl181 Cl 0.50003 0.00006 -0.00088
 C182 C 0.51603 -0.05867 -0.17120
 C183 C 0.57475 0.05879 -0.16953
 C184 C 1.16458 0.49070 0.34141
 C185 C 1.16684 0.51725 0.32887
 C186 C 1.14548 0.51602 0.29337
 C187 C 1.12393 0.48836 0.27394
 C188 C 1.11845 0.47393 0.35731
 C189 C 1.13980 0.47516 0.39274
 C190 C 1.15818 0.47806 0.25472
 C191 C 1.13682 0.47682 0.21926
 C192 C 1.18743 0.49192 0.38035
 C193 C 1.20574 0.49268 0.41516
 C194 C 1.10086 0.48695 0.23582
 C195 C 1.08184 0.48570 0.20476
 H196 H 1.18371 0.53541 0.34646
 H197 H 1.14406 0.53312 0.28054
 H198 H 1.09948 0.46371 0.38615
 H199 H 1.13910 0.46600 0.45194
 H200 H 1.16945 0.47074 0.22388
 H201 H 1.12979 0.46844 0.15802
 C202 C 0.50930 0.67404 0.34093
 C203 C 0.52429 0.66443 0.39378
 C204 C 0.52549 0.64424 0.35883
 C205 C 0.51160 0.63560 0.27437
 C206 C 0.52374 0.66007 0.22028
 C207 C 0.52253 0.68027 0.25527
 C208 C 0.48269 0.65004 0.32649
 C209 C 0.48390 0.62984 0.29147
 C210 C 0.50810 0.69576 0.37934
 C211 C 0.50734 0.71337 0.41368
 C212 C 0.51298 0.61386 0.23671
 C213 C 0.51422 0.59605 0.20593
 H214 H 0.53311 0.67271 0.45360
 H215 H 0.53534 0.63523 0.38871
 H216 H 0.53251 0.66140 0.15977
 H217 H 0.53025 0.69890 0.22475
 H218 H 0.46451 0.64900 0.34249
 H219 H 0.46675 0.61150 0.27747
 C220 C 0.32615 -0.16433 0.33798
 C221 C 0.32051 -0.14222 0.32285
 C222 C 0.34068 -0.12083 0.28821
 C223 C 0.36456 -0.12360 0.27210
 C224 C 0.35469 -0.14801 0.21811
 C225 C 0.33450 -0.16942 0.25275
 C226 C 0.35079 -0.15235 0.39157
 C227 C 0.37096 -0.13095 0.35697
 C228 C 0.30446 -0.18724 0.37605
 C229 C 0.28689 -0.20560 0.41019
 C230 C 0.38628 -0.10049 0.23483
 C231 C 0.40407 -0.08146 0.20433
 H232 H 0.30228 -0.14327 0.33812
 H233 H 0.33972 -0.10356 0.27379
 H234 H 0.36284 -0.14844 0.15796
 H235 H 0.32536 -0.18817 0.22229
 H236 H 0.35223 -0.15999 0.45155
 H237 H 0.38967 -0.12027 0.38731
 C238 C 0.83603 0.50951 0.34035
 C239 C 0.84220 0.52185 0.25336
 C240 C 0.86358 0.52313 0.21791
 C241 C 0.87669 0.51194 0.27295
 C242 C 0.85532 0.48428 0.29304
 C243 C 0.83395 0.48301 0.32852
 C244 C 0.86086 0.52537 0.39135
 C245 C 0.88222 0.52665 0.35594
 C246 C 0.81318 0.50823 0.37926
 C247 C 0.79488 0.50742 0.41406
 C248 C 0.89975 0.51338 0.23491
 C249 C 0.91877 0.51466 0.20396
 H250 H 0.83078 0.52894 0.22232
 H251 H 0.87048 0.53133 0.15647
 H252 H 0.85687 0.46722 0.28066
 H253 H 0.81719 0.46485 0.34656
 H254 H 0.86157 0.53469 0.45032
 H255 H 0.90123 0.53706 0.38454
 C256 C 0.49033 0.32653 0.34166
 C257 C 0.47449 0.33554 0.39271
 C258 C 0.47326 0.35566 0.35753
 C259 C 0.48798 0.36481 0.27469
 C260 C 0.47675 0.34057 0.21935
 C261 C 0.47798 0.32044 0.25456
 C262 C 0.51688 0.35083 0.33019
 C263 C 0.51564 0.37096 0.29494
 C264 C 0.49156 0.30492 0.38031
 C265 C 0.49234 0.28740 0.41492
 C266 C 0.48658 0.38645 0.23687
 C267 C 0.48532 0.40420 0.20600
 H268 H 0.46515 0.32695 0.45156
 H269 H 0.46286 0.36429 0.38621
 H270 H 0.46856 0.33934 0.15787
 H271 H 0.47086 0.30197 0.22328
 H272 H 0.53503 0.35214 0.34829
 H273 H 0.53274 0.38951 0.28282
 C274 C 0.67371 0.16419 0.33920
 C275 C 0.66430 0.13967 0.39200
 C276 C 0.64413 0.11827 0.35723
 C277 C 0.63534 0.12347 0.27302
 C278 C 0.65975 0.13582 0.21855
 C279 C 0.67993 0.15723 0.25335
 C280 C 0.64960 0.16671 0.32530
 C281 C 0.62942 0.14530 0.29046
 C282 C 0.69539 0.18707 0.37742
 C283 C 0.71297 0.20540 0.41168
 C284 C 0.61365 0.10037 0.23560
 C285 C 0.59588 0.08133 0.20496
 H286 H 0.67269 0.13917 0.45164
 H287 H 0.63524 0.09946 0.38707
 H288 H 0.66106 0.12841 0.15793
 H289 H 0.69852 0.16816 0.22258
 H290 H 0.64846 0.18378 0.34151
 H291 H 0.61100 0.14403 0.27681
 C292 C 0.49054 0.16491 -0.33632
 C293 C 0.47612 0.14060 -0.39076
 C294 C 0.47493 0.11916 -0.35654
 C295 C 0.48826 0.12409 -0.27119
 C296 C 0.47553 0.13598 -0.21740
 C297 C 0.47673 0.15744 -0.25165
 C298 C 0.51718 0.16766 -0.32034
 C299 C 0.51598 0.14620 -0.28605
 C300 C 0.49172 0.18783 -0.37407
 C301 C 0.49245 0.20616 -0.40829
 C302 C 0.48689 0.10094 -0.23441
 C303 C 0.48562 0.08183 -0.20434
 H304 H 0.46765 0.14028 -0.45104
 H305 H 0.46545 0.10048 -0.38752
 H306 H 0.46640 0.12823 -0.15762
 H307 H 0.46863 0.16807 -0.22125
 H308 H 0.53537 0.18492 -0.33477
 H309 H 0.53315 0.14507 -0.27111
 C310 C 0.67406 0.50907 -0.33626
 C311 C 0.68036 0.52291 -0.25155
 C312 C 0.66007 0.52412 -0.21723
 C313 C 0.63549 0.51137 -0.27102
 C314 C 0.62999 0.48366 -0.28600
 C315 C 0.65027 0.48246 -0.32035
 C316 C 0.66411 0.52345 -0.39060
 C317 C 0.64384 0.52465 -0.35633
 C318 C 0.69583 0.50788 -0.37409
 C319 C 0.71345 0.50716 -0.40842
 C320 C 0.61369 0.51276 -0.23416
 C321 C 0.59585 0.51405 -0.20401
 H322 H 0.69907 0.53102 -0.22115
 H323 H 0.66142 0.53328 -0.15741
 H324 H 0.61176 0.46651 -0.27109
 H325 H 0.64942 0.46427 -0.33486
 H326 H 0.67223 0.53189 -0.45087
 H327 H 0.63460 0.53411 -0.38724
 C328 C 0.83565 0.32579 -0.33919
 C329 C 0.84768 0.35030 -0.39307
 C330 C 0.86910 0.37049 -0.35846
 C331 C 0.87641 0.36421 -0.27332
 C332 C 0.87914 0.34030 -0.28885
 C333 C 0.85772 0.32011 -0.32350
 C334 C 0.83055 0.33429 -0.25426
 C335 C 0.85199 0.35450 -0.21960
 C336 C 0.81275 0.30411 -0.37734
 C337 C 0.79442 0.28658 -0.41178
 C338 C 0.89952 0.38594 -0.23613
 C339 C 0.91858 0.40376 -0.20578
 H340 H 0.84006 0.35166 -0.45323
 H341 H 0.87983 0.38914 -0.38896
 H342 H 0.89639 0.33932 -0.27404
 H343 H 0.85663 0.30184 -0.33839
 H344 H 0.81178 0.32524 -0.22401
 H345 H 0.85157 0.36277 -0.15963
 C346 C 0.50932 -0.16455 -0.34168
 C347 C 0.52425 -0.14009 -0.39487
 C348 C 0.52547 -0.11865 -0.36025
 C349 C 0.51167 -0.12371 -0.27574
 C350 C 0.52388 -0.13599 -0.22144
 C351 C 0.52264 -0.15745 -0.25610
 C352 C 0.48272 -0.16705 -0.32727
 C353 C 0.48395 -0.14559 -0.29258
 C354 C 0.50810 -0.18752 -0.37977
 C355 C 0.50734 -0.20591 -0.41393
 C356 C 0.51308 -0.10054 -0.23840
 C357 C 0.51438 -0.08145 -0.20776
 H358 H 0.53301 -0.13968 -0.45467
 H359 H 0.53528 -0.09988 -0.39039
 H360 H 0.53270 -0.12849 -0.16102
 H361 H 0.53040 -0.16833 -0.22538
 H362 H 0.46453 -0.18415 -0.34304
 H363 H 0.46681 -0.14431 -0.27864
 C364 C 0.32568 0.49053 -0.33950
 C365 C 0.35031 0.50332 -0.39294
 C366 C 0.37057 0.50211 -0.35849
 C367 C 0.36424 0.48824 -0.27392
 C368 C 0.34047 0.46164 -0.29051
 C369 C 0.32022 0.46285 -0.32500
 C370 C 0.33395 0.50380 -0.25400
 C371 C 0.35423 0.50259 -0.21952
 C372 C 0.30390 0.49174 -0.37742
 C373 C 0.28627 0.49252 -0.41152
 C374 C 0.38605 0.48686 -0.23678
 C375 C 0.40388 0.48559 -0.20629
 H376 H 0.35170 0.51248 -0.45271
 H377 H 0.38929 0.51022 -0.38876
 H378 H 0.33964 0.44344 -0.27654
 H379 H 0.30205 0.44569 -0.34056
 H380 H 0.32471 0.51330 -0.22326
 H381 H 0.36235 0.51107 -0.15922
 C382 C 1.16402 0.67343 -0.34336
 C383 C 1.14159 0.67874 -0.33030
 C384 C 1.12023 0.65857 -0.29550
 C385 C 1.12334 0.63503 -0.27717
 C386 C 1.14763 0.64547 -0.22228
 C387 C 1.16901 0.66565 -0.25708
 C388 C 1.15251 0.64856 -0.39572
 C389 C 1.13113 0.62839 -0.36095
 C390 C 1.18692 0.69513 -0.38150
 C391 C 1.20529 0.71273 -0.41545
 C392 C 1.10027 0.61332 -0.23967
 C393 C 1.08127 0.59556 -0.20887
 H394 H 1.14241 0.69675 -0.34705
 H395 H 1.10275 0.65932 -0.28243
 H396 H 1.14800 0.63769 -0.16143
 H397 H 1.18768 0.67516 -0.22605
 H398 H 1.16041 0.64697 -0.45503
 H399 H 1.12074 0.60953 -0.39047
 C400 C 0.83501 0.50899 -0.33725
 C401 C 0.84729 0.49702 -0.39276
 C402 C 0.86879 0.49819 -0.35886
 C403 C 0.87590 0.51121 -0.27277
 C404 C 0.85147 0.49605 -0.21949
 C405 C 0.82996 0.49489 -0.25343
 C406 C 0.85686 0.53664 -0.31982
 C407 C 0.87835 0.53781 -0.28588
 C408 C 0.81206 0.50785 -0.37467
 C409 C 0.79372 0.50715 -0.40877
 C410 C 0.89909 0.51257 -0.23633
 C411 C 0.91824 0.51387 -0.20641
 H412 H 0.83977 0.48841 -0.45343
 H413 H 0.87970 0.49060 -0.39048
 H414 H 0.85111 0.48704 -0.16034
 H415 H 0.81116 0.48488 -0.22340
 H416 H 0.85556 0.55380 -0.33304
 H417 H 0.89548 0.55597 -0.27002
 C418 C 0.49057 0.32575 -0.33599
 C419 C 0.50269 0.35003 -0.39097
 C420 C 0.50150 0.37033 -0.35685
 C421 C 0.48832 0.36436 -0.27110
 C422 C 0.50336 0.35495 -0.21762
 C423 C 0.50454 0.33463 -0.25178
 C424 C 0.46289 0.32006 -0.31919
 C425 C 0.46170 0.34035 -0.28504
 C426 C 0.49173 0.30398 -0.37364
 C427 C 0.49245 0.28637 -0.40793
 C428 C 0.48696 0.38617 -0.23446
 C429 C 0.48566 0.40401 -0.20444
 H430 H 0.51140 0.35116 -0.45145
 H431 H 0.50918 0.38884 -0.38810
 H432 H 0.51229 0.36349 -0.15819
 H433 H 0.51447 0.32575 -0.22165
 H434 H 0.44572 0.30170 -0.33298
 H435 H 0.44352 0.33939 -0.26955
 C436 C 0.67389 0.16429 -0.33764
 C437 C 0.67938 0.14205 -0.32338
 C438 C 0.65915 0.12066 -0.28907
 C439 C 0.63540 0.12360 -0.27246
 C440 C 0.62903 0.13119 -0.35694
 C441 C 0.64927 0.15259 -0.39121
 C442 C 0.66566 0.16930 -0.25212
 C443 C 0.64541 0.14789 -0.21781
 C444 C 0.69561 0.18714 -0.37536
 C445 C 0.71318 0.20545 -0.40943
 C446 C 0.61366 0.10053 -0.23564
 C447 C 0.59586 0.08150 -0.20547
 H448 H 0.69756 0.14301 -0.33895
 H449 H 0.65998 0.10329 -0.27523
 H450 H 0.61030 0.12066 -0.38725
 H451 H 0.64787 0.16040 -0.45091
 H452 H 0.67491 0.18799 -0.22124
 H453 H 0.63729 0.14824 -0.15750
 C454 C 1.16487 0.49060 -0.33696
 C455 C 1.16984 0.50404 -0.25181
 C456 C 1.14833 0.50283 -0.21762
 C457 C 1.12404 0.48830 -0.27206
 C458 C 1.12133 0.46169 -0.28788
 C459 C 1.14281 0.46290 -0.32206
 C460 C 1.15296 0.50322 -0.39100
 C461 C 1.13148 0.50200 -0.35686
 C462 C 1.18777 0.49179 -0.37473
 C463 C 1.20603 0.49254 -0.40941
 C464 C 1.10088 0.48690 -0.23549
 C465 C 1.08175 0.48559 -0.20559
 H466 H 1.18855 0.51364 -0.22109
 H467 H 1.14862 0.51140 -0.15756
 H468 H 1.10405 0.44350 -0.27361
 H469 H 1.14394 0.44575 -0.33710
 H470 H 1.16070 0.51227 -0.45091
 H471 H 1.12080 0.51001 -0.38749
 C472 C 0.50910 0.67356 -0.33674
 C473 C 0.49596 0.66545 -0.25115
 C474 C 0.49715 0.64519 -0.21677
 C475 C 0.51136 0.63509 -0.27147
 C476 C 0.53800 0.65874 -0.28824
 C477 C 0.53681 0.67897 -0.32262
 C478 C 0.49613 0.64892 -0.39018
 C479 C 0.49733 0.62868 -0.35585
 C480 C 0.50794 0.69524 -0.37462
 C481 C 0.50723 0.71276 -0.40915
 C482 C 0.51274 0.61337 -0.23466
 C483 C 0.51404 0.59559 -0.20455
 H484 H 0.48657 0.67478 -0.22029
 H485 H 0.48877 0.63715 -0.15640
 H486 H 0.55619 0.65951 -0.27446
 H487 H 0.55398 0.69709 -0.33832
 H488 H 0.48688 0.64751 -0.44985
 H489 H 0.48910 0.60993 -0.38606
 C490 C 0.32665 -0.16401 -0.33955
 C491 C 0.35088 -0.16638 -0.32693
 C492 C 0.37105 -0.14498 -0.29214
 C493 C 0.36497 -0.12333 -0.27353
 C494 C 0.34070 -0.13590 -0.21839
 C495 C 0.32053 -0.15731 -0.25315
 C496 C 0.33576 -0.13943 -0.39178
 C497 C 0.35591 -0.11804 -0.35706
 C498 C 0.30504 -0.18682 -0.37783
 C499 C 0.28757 -0.20504 -0.41260
 C500 C 0.38660 -0.10026 -0.23632
 C501 C 0.40434 -0.08121 -0.20595
 H502 H 0.35211 -0.18336 -0.34392
 H503 H 0.38957 -0.14359 -0.27928
 H504 H 0.33949 -0.12864 -0.15739
 H505 H 0.30203 -0.16841 -0.22200
 H506 H 0.32719 -0.13890 -0.45102
 H507 H 0.36462 -0.09918 -0.38651
 C508 C 0.50944 -0.16430 0.33589
 C509 C 0.49631 -0.15261 0.38857
 C510 C 0.49754 -0.13121 0.35385
 C511 C 0.51178 -0.12363 0.26989
 C512 C 0.49774 -0.14791 0.21510
 C513 C 0.49651 -0.16932 0.24986
 C514 C 0.53716 -0.14209 0.32245
 C515 C 0.53840 -0.12070 0.28770
 C516 C 0.50822 -0.18712 0.37415
 C517 C 0.50744 -0.20535 0.40889
 C518 C 0.51318 -0.10058 0.23274
 C519 C 0.51446 -0.08153 0.20252
 H520 H 0.48692 -0.16041 0.44802
 H521 H 0.48922 -0.12067 0.38352
 H522 H 0.48950 -0.14824 0.15439
 H523 H 0.48722 -0.18801 0.21899
 H524 H 0.55432 -0.14306 0.33888
 H525 H 0.55661 -0.10333 0.27431
 C526 C 0.32618 0.49092 0.33817
 C527 C 0.33545 0.47551 0.39028
 C528 C 0.35562 0.47429 0.35541
 C529 C 0.36454 0.48858 0.27186
 C530 C 0.37052 0.51626 0.29053
 C531 C 0.35033 0.51748 0.32547
 C532 C 0.32003 0.47811 0.25177
 C533 C 0.34022 0.47688 0.21686
 C534 C 0.30456 0.49211 0.37658
 C535 C 0.28704 0.49282 0.41135
 C536 C 0.38619 0.48717 0.23452
 C537 C 0.40396 0.48586 0.20412
 H538 H 0.32697 0.46644 0.44955
 H539 H 0.36443 0.46417 0.38476
 H540 H 0.38899 0.53337 0.27760
 H541 H 0.35149 0.53564 0.34252
 H542 H 0.30148 0.47070 0.22072
 H543 H 0.33898 0.46841 0.15584
 C544 C 1.16469 0.67392 0.33345
 C545 C 1.16745 0.65001 0.31823
 C546 C 1.14600 0.62977 0.28387
 C547 C 1.12393 0.63546 0.26824
 C548 C 1.13586 0.65991 0.21409
 C549 C 1.15731 0.68015 0.24842
 C550 C 1.14035 0.66425 0.38748
 C551 C 1.11892 0.64403 0.35319
 C552 C 1.18754 0.69559 0.37127
 C553 C 1.20580 0.71313 0.40566
 C554 C 1.10083 0.61376 0.23149
 C555 C 1.08174 0.59596 0.20149
 H556 H 1.18470 0.64905 0.33320
 H557 H 1.14487 0.61146 0.26937
 H558 H 1.12816 0.66120 0.15404
 H559 H 1.16800 0.69879 0.21784
 H560 H 1.14000 0.67252 0.44755
 H561 H 1.10021 0.63496 0.38386
 C562 C 0.49042 0.16400 0.34132
 C563 C 0.50408 0.15263 0.39285
 C564 C 0.50288 0.13126 0.35775
 C565 C 0.48815 0.12337 0.27458
 C566 C 0.50166 0.14755 0.21941
 C567 C 0.50286 0.16893 0.25454
 C568 C 0.46273 0.14155 0.32924
 C569 C 0.46153 0.12019 0.29411
 C570 C 0.49161 0.18683 0.37989
 C571 C 0.49236 0.20510 0.41455
 C572 C 0.48679 0.10033 0.23689
 C573 C 0.48554 0.08132 0.20607
 H574 H 0.51376 0.16062 0.45186
 H575 H 0.51154 0.12095 0.38665
 H576 H 0.50959 0.14784 0.15818
 H577 H 0.51180 0.18755 0.22345
 H578 H 0.44556 0.14235 0.34685
 H579 H 0.44334 0.10268 0.28160
 C580 C 0.67336 0.50939 0.34141
 C581 C 0.67848 0.53707 0.33005
 C582 C 0.65832 0.53830 0.29499
 C583 C 0.63500 0.51172 0.27480
 C584 C 0.62815 0.49686 0.35760
 C585 C 0.64832 0.49563 0.39263
 C586 C 0.66600 0.49710 0.25432
 C587 C 0.64582 0.49833 0.21926
 C588 C 0.69499 0.50817 0.37988
 C589 C 0.71252 0.50739 0.41444
 C590 C 0.61333 0.51311 0.23720
 C591 C 0.59557 0.51438 0.20646
 H592 H 0.69636 0.55421 0.34808
 H593 H 0.65892 0.55649 0.28296
 H594 H 0.60916 0.48814 0.38631
 H595 H 0.64661 0.48587 0.45138
 H596 H 0.67577 0.48824 0.22297
 H597 H 0.63828 0.49050 0.15783
 C598 C 0.83627 0.32682 0.33839
 C599 C 0.86099 0.33581 0.39006
 C600 C 0.88235 0.35596 0.35536
 C601 C 0.87691 0.36516 0.27237
 C602 C 0.85534 0.37129 0.29204
 C603 C 0.83396 0.35112 0.32681
 C604 C 0.84275 0.32082 0.25149
 C605 C 0.86413 0.34098 0.21675
 C606 C 0.81345 0.30519 0.37658
 C607 C 0.79521 0.28766 0.41104
 C608 C 0.89996 0.38681 0.23509
 C609 C 0.91898 0.40454 0.20456
 H610 H 0.86163 0.32716 0.44894
 H611 H 0.90129 0.36458 0.38447
 H612 H 0.85675 0.38984 0.27990
 H613 H 0.81706 0.35239 0.34448
 H614 H 0.83153 0.30237 0.21999
 H615 H 0.87123 0.33982 0.15545
   
