data_POSCAR
  _audit_creation_date              2014-09-24
  _audit_creation_method            'ToBaCCo'
  _symmetry_space_group_name_H-M    'P1'
  _symmetry_Int_Tables_number       1
  _symmetry_cell_setting            triclinic
  loop_
  _symmetry_equiv_pos_as_xyz
 x,y,z
_cell_length_a 22.9423
_cell_length_b 24.8458
_cell_length_c 11.4047
_cell_angle_alpha 89.578000
_cell_angle_beta 89.480800
_cell_angle_gamma 122.423600
loop_
  _atom_site_label
  _atom_site_type_symbol
  _atom_site_fract_x
  _atom_site_fract_y
  _atom_site_fract_z
C1 C 0.37515 0.94197 0.55267
 C2 C 0.35253 0.93586 0.43576
 C3 C 0.35461 0.98662 0.37930
 C4 C 0.38429 1.04626 0.43172
 C5 C 0.40718 1.05414 0.54983
 C6 C 0.39983 1.00045 0.60965
 H7 H 0.41575 1.00454 0.69989
 H8 H 0.33795 0.98071 0.28887
 C9 C 0.06212 0.44751 0.56407
 C10 C 0.06437 0.44070 0.44195
 C11 C 0.00285 0.40567 0.38065
 C12 C -0.06158 0.37836 0.43743
 C13 C -0.06438 0.38728 0.55970
 C14 C -0.00202 0.42241 0.62120
 H15 H -0.00333 0.42661 0.71560
 H16 H 0.00533 0.40015 0.28672
 C17 C 0.61232 0.65527 0.58857
 C18 C 0.59219 0.64401 0.46930
 C19 C 0.60387 0.60241 0.40478
 C20 C 0.63152 0.56984 0.45706
 C21 C 0.65079 0.58057 0.57604
 C22 C 0.64228 0.62413 0.63915
 H23 H 0.65645 0.63173 0.73086
 H24 H 0.58835 0.59271 0.31405
 O25 O 0.49719 0.75021 -0.06377
 O26 O 0.42131 0.79566 -0.11812
 C27 C 0.36506 0.78791 -0.15261
 O28 O 0.30649 0.75005 -0.10282
 O29 O 0.25340 0.62915 -0.14614
 C30 C 0.25707 0.58081 -0.16226
 O31 O 0.29621 0.56973 -0.10295
 O32 O 0.42969 0.65124 -0.12919
 C33 C 0.48542 0.70546 -0.13270
 O34 O 0.46095 0.74653 0.16339
 O35 O 0.39184 0.79994 0.10874
 C36 C 0.33246 0.77291 0.15748
 O37 O 0.28320 0.71839 0.12968
 O38 O 0.22940 0.59904 0.08637
 C39 C 0.25280 0.57144 0.14725
 O40 O 0.31154 0.57943 0.12958
 O41 O 0.44503 0.65381 0.10732
 C42 C 0.46839 0.69998 0.17852
 Cr43 Cr 0.43996 0.77024 0.02204
 Cr44 Cr 0.27137 0.67476 -0.00792
 Cr45 Cr 0.37041 0.61612 0.00089
 O46 O 0.36018 0.68693 0.00492
 O47 O 0.60969 0.40699 -0.09481
 O48 O 0.54098 0.28580 -0.15160
 C49 C 0.53199 0.23129 -0.16544
 O50 O 0.55547 0.20798 -0.09459
 O51 O 0.68972 0.26847 -0.11854
 C52 C 0.74850 0.31948 -0.13331
 O53 O 0.77198 0.36753 -0.06588
 O54 O 0.71942 0.43493 -0.10764
 C55 C 0.66982 0.43930 -0.14072
 O56 O 0.57758 0.37069 0.13155
 O57 O 0.50356 0.25141 0.07501
 C58 C 0.51512 0.21783 0.14422
 O59 O 0.57035 0.21768 0.14032
 O60 O 0.70443 0.26891 0.11292
 C61 C 0.74185 0.31630 0.17747
 O62 O 0.74384 0.36798 0.16806
 O63 O 0.69251 0.43845 0.12444
 C64 C 0.63292 0.41793 0.16982
 Cr65 Cr 0.56082 0.32876 -0.00937
 Cr66 Cr 0.63028 0.24351 0.01053
 Cr67 Cr 0.72878 0.39966 0.02944
 O68 O 0.64025 0.32437 0.01029
 N69 N 0.38966 0.81074 -0.36262
 N70 N 0.39417 0.85449 -0.44460
 C71 C 0.37643 0.89197 -0.39047
 C72 C 0.36149 0.87357 -0.27254
 C73 C 0.36883 0.82176 -0.26034
 H74 H 0.34701 0.89474 -0.20487
 H75 H 0.40289 0.77720 -0.37839
 H76 H 0.41539 0.86050 -0.52855
 N77 N 0.20696 0.47779 -0.26578
 N78 N 0.15474 0.44230 -0.33566
 C79 C 0.12512 0.47473 -0.36522
 C80 C 0.15926 0.53324 -0.31034
 C81 C 0.21122 0.53335 -0.24834
 H82 H 0.14622 0.56914 -0.31116
 H83 H 0.23719 0.46290 -0.22707
 H84 H 0.13819 0.39570 -0.35905
 N85 N 0.60790 0.74815 -0.18032
 N86 N 0.64370 0.73230 -0.25733
 C87 C 0.59869 0.69200 -0.33709
 C88 C 0.53341 0.68020 -0.31156
 C89 C 0.54121 0.71505 -0.21155
 H90 H 0.48524 0.64458 -0.35095
 H91 H 0.62814 0.77387 -0.10340
 H92 H 0.69522 0.74626 -0.24829
 N93 N 0.45815 0.20884 -0.33977
 N94 N 0.42284 0.15916 -0.41858
 C95 C 0.43472 0.11284 -0.39050
 C96 C 0.47665 0.13201 -0.29208
 C97 C 0.49047 0.19207 -0.26422
 H98 H 0.49618 0.10648 -0.24707
 H99 H 0.45746 0.25052 -0.33934
 H100 H 0.38834 0.15742 -0.47966
 N101 N 0.77144 0.27317 -0.30653
 N102 N 0.81938 0.29118 -0.38898
 C103 C 0.87003 0.35243 -0.37136
 C104 C 0.85387 0.37392 -0.27152
 C105 C 0.79079 0.32215 -0.23355
 H106 H 0.88382 0.42042 -0.23207
 H107 H 0.72661 0.22769 -0.30006
 H108 H 0.81814 0.26078 -0.45298
 N109 N 0.72188 0.48982 -0.33292
 N110 N 0.71550 0.52848 -0.41408
 C111 C 0.67417 0.54576 -0.36558
 C112 C 0.65321 0.51859 -0.25397
 C113 C 0.68293 0.48311 -0.23836
 H114 H 0.61718 0.52066 -0.19514
 H115 H 0.74858 0.46714 -0.34770
 H116 H 0.73997 0.54182 -0.49628
 N117 N 0.81563 0.27597 0.22876
 N118 N 0.87304 0.29542 0.29793
 C119 C 0.87972 0.34113 0.36964
 C120 C 0.82811 0.35312 0.34628
 C121 C 0.79004 0.31214 0.25561
 H122 H 0.82390 0.39140 0.38073
 H123 H 0.80151 0.24481 0.15852
 H124 H 0.90634 0.27901 0.29006
 N125 N 0.39223 0.14460 0.19753
 N126 N 0.35486 0.09509 0.27841
 C127 C 0.39981 0.09692 0.35609
 C128 C 0.46638 0.14607 0.32540
 C129 C 0.45938 0.17366 0.22471
 H130 H 0.51410 0.15534 0.36270
 H131 H 0.37184 0.15180 0.12184
 H132 H 0.30223 0.06036 0.27293
 N133 N 0.58216 0.41423 0.36301
 N134 N 0.58100 0.45387 0.43760
 C135 C 0.62297 0.51383 0.39637
 C136 C 0.65295 0.51264 0.29084
 C137 C 0.62563 0.44818 0.27365
 H138 H 0.68743 0.55238 0.23357
 H139 H 0.55273 0.36460 0.37251
 H140 H 0.55074 0.43986 0.51418
 N141 N 0.22927 0.49442 0.30893
 N142 N 0.18029 0.46043 0.38802
 C143 C 0.12969 0.47190 0.37422
 C144 C 0.14650 0.51416 0.28120
 C145 C 0.21028 0.52753 0.24277
 H146 H 0.11657 0.53252 0.24682
 H147 H 0.27453 0.49424 0.30005
 H148 H 0.18091 0.42847 0.44693
 N149 N 0.26641 0.77670 0.32774
 N150 N 0.27100 0.81969 0.40099
 C151 C 0.32592 0.87698 0.36876
 C152 C 0.35800 0.87054 0.27140
 C153 C 0.31902 0.80602 0.24915
 H154 H 0.40470 0.90709 0.22678
 H155 H 0.22902 0.72795 0.33384
 H156 H 0.23810 0.80961 0.47305
 N157 N 0.54513 0.75060 0.35030
 N158 N 0.57786 0.73616 0.42680
 C159 C 0.56165 0.67611 0.40752
 C160 C 0.51706 0.65183 0.31343
 C161 C 0.50806 0.70048 0.27974
 H162 H 0.49517 0.60567 0.27328
 H163 H 0.55006 0.79484 0.34450
 H164 H 0.61293 0.76828 0.48724
   
