data_POSCAR
  _audit_creation_date              2014-09-24
  _audit_creation_method            'ToBaCCo'
  _symmetry_space_group_name_H-M    'P1'
  _symmetry_Int_Tables_number       1
  _symmetry_cell_setting            triclinic
  loop_
  _symmetry_equiv_pos_as_xyz
 x,y,z
_cell_length_a 32.0546
_cell_length_b 32.9847
_cell_length_c 7.1090
_cell_angle_alpha 90.077300
_cell_angle_beta 90.127000
_cell_angle_gamma 90.032200
loop_
  _atom_site_label
  _atom_site_type_symbol
  _atom_site_fract_x
  _atom_site_fract_y
  _atom_site_fract_z
O1 O 0.22222 0.28929 0.03761
 O2 O 0.29839 0.21030 0.16285
 O3 O 0.22228 0.20995 0.03527
 O4 O 0.29815 0.28896 0.16649
 O5 O 0.27709 0.28853 0.46138
 O6 O 0.20063 0.21025 0.32891
 O7 O 0.27680 0.20931 0.45690
 O8 O 0.20147 0.28915 0.33309
 Cu9 Cu 0.26281 0.24964 0.07218
 Cu10 Cu 0.23635 0.24917 0.42335
 C11 C 0.19886 0.30302 0.16711
 C12 C 0.30090 0.19628 0.32856
 C13 C 0.19809 0.19652 0.16234
 C14 C 0.30086 0.30228 0.33362
 O15 O 0.79696 0.28935 0.33191
 O16 O 0.72222 0.20901 0.45585
 O17 O 0.79842 0.21051 0.32979
 O18 O 0.72138 0.28828 0.45904
 O19 O 0.70022 0.28832 0.16384
 O20 O 0.77671 0.20983 0.03549
 O21 O 0.70059 0.20959 0.16171
 O22 O 0.77612 0.28912 0.03614
 Cu23 Cu 0.76236 0.24920 0.42247
 Cu24 Cu 0.73583 0.24917 0.07087
 C25 C 0.79946 0.30310 0.16571
 C26 C 0.69815 0.19558 0.32759
 C27 C 0.80099 0.19681 0.16341
 C28 C 0.69751 0.30179 0.33067
 O29 O 0.77846 0.78892 0.96402
 O30 O 0.70269 0.70973 0.83533
 O31 O 0.77861 0.70969 0.96169
 O32 O 0.70270 0.78885 0.83605
 O33 O 0.72310 0.78877 0.54010
 O34 O 0.79979 0.71046 0.66729
 O35 O 0.72363 0.70956 0.54018
 O36 O 0.79879 0.78940 0.66797
 Cu37 Cu 0.73796 0.74925 0.92755
 Cu38 Cu 0.76394 0.74950 0.57558
 C39 C 0.80159 0.80299 0.83460
 C40 C 0.70012 0.69589 0.66914
 C41 C 0.80255 0.69644 0.83311
 C42 C 0.69985 0.80255 0.66980
 O43 O 0.22178 0.71089 0.96122
 O44 O 0.29747 0.79010 0.83468
 O45 O 0.22139 0.79001 0.95972
 O46 O 0.29758 0.71098 0.83563
 O47 O 0.27649 0.71013 0.54029
 O48 O 0.20183 0.79054 0.66263
 O49 O 0.27752 0.78927 0.53773
 O50 O 0.20034 0.71149 0.66650
 Cu51 Cu 0.26222 0.75054 0.92615
 Cu52 Cu 0.23641 0.75025 0.57349
 C53 C 0.19776 0.69767 0.83259
 C54 C 0.30063 0.80335 0.66782
 C55 C 0.19853 0.80420 0.82898
 C56 C 0.30007 0.69677 0.67010
 C57 C 1.02201 -0.12454 -0.10142
 C58 C 0.97928 -0.12452 -0.09941
 C59 C 0.96706 -0.08560 -0.05055
 N60 N 1.00096 -0.06204 -0.02012
 C61 C 1.03463 -0.08559 -0.05417
 C62 C 0.92517 -0.07314 -0.02819
 C63 C 0.91297 -0.03285 0.01083
 C64 C 0.87338 -0.02139 0.06834
 C65 C 0.87343 0.02021 0.08038
 C66 C 0.91295 0.03311 0.02809
 N67 N 0.93671 0.00056 -0.01548
 C68 C 0.92532 0.07421 0.01532
 C69 C 0.96702 0.08704 -0.00881
 C70 C 0.97931 0.12701 -0.03254
 C71 C 1.02210 0.12705 -0.03404
 C72 C 1.03455 0.08711 -0.01133
 N73 N 1.00084 0.06278 0.00458
 C74 C 1.07639 0.07439 0.00965
 C75 C 1.08903 0.03332 0.01910
 C76 C 1.12897 0.02056 0.06559
 C77 C 1.12912 -0.02102 0.05254
 C78 C 1.08914 -0.03268 0.00063
 N79 N 1.06510 0.00067 -0.02205
 C80 C 1.07670 -0.07309 -0.03632
 H81 H 1.04147 -0.15046 -0.13276
 H82 H 0.95952 -0.15037 -0.12906
 H83 H 1.03559 0.00129 -0.08177
 H84 H 0.84707 -0.04092 0.09793
 H85 H 0.84716 0.03882 0.12119
 H86 H 0.95951 0.15346 -0.04435
 H87 H 1.04181 0.15355 -0.04736
 H88 H 1.15582 -0.04032 0.07780
 H89 H 0.96569 0.00126 -0.07974
 H90 H 1.15547 0.03927 0.10312
 C91 C 0.47871 0.62423 0.60992
 C92 C 0.52147 0.62415 0.60830
 C93 C 0.53365 0.58547 0.55524
 N94 N 0.49973 0.56214 0.52184
 C95 C 0.46609 0.58560 0.55788
 C96 C 0.57551 0.57300 0.53124
 C97 C 0.58754 0.53278 0.48953
 C98 C 0.62704 0.52131 0.43070
 C99 C 0.62683 0.47974 0.41665
 C100 C 0.58732 0.46685 0.46904
 N101 N 0.56372 0.49938 0.51462
 C102 C 0.57484 0.42578 0.48066
 C103 C 0.53314 0.41305 0.50534
 C104 C 0.52075 0.37312 0.52917
 C105 C 0.47796 0.37319 0.53097
 C106 C 0.46563 0.41317 0.50827
 N107 N 0.49940 0.43741 0.49209
 C108 C 0.42387 0.42601 0.48689
 C109 C 0.41147 0.46712 0.47715
 C110 C 0.37176 0.48012 0.42798
 C111 C 0.37180 0.52169 0.44188
 C112 C 0.41163 0.53305 0.49742
 N113 N 0.43543 0.49958 0.52092
 C114 C 0.42408 0.57329 0.53702
 H115 H 0.45920 0.64996 0.64424
 H116 H 0.54127 0.64980 0.64111
 H117 H 0.46470 0.49875 0.58312
 H118 H 0.65342 0.54079 0.40180
 H119 H 0.65300 0.46111 0.37461
 H120 H 0.54047 0.34661 0.54082
 H121 H 0.45817 0.34675 0.54428
 H122 H 0.34537 0.54125 0.41489
 H123 H 0.53479 0.49863 0.57948
 H124 H 0.34531 0.46157 0.38803
 C125 C 0.02077 0.62644 0.02265
 C126 C -0.02202 0.62646 0.02250
 C127 C -0.03443 0.58648 -0.00034
 N128 N -0.00070 0.56215 -0.01466
 C129 C 0.03308 0.58645 -0.00001
 C130 C -0.07620 0.57369 -0.02284
 C131 C -0.08869 0.53260 -0.03337
 C132 C -0.12832 0.51962 -0.08422
 C133 C -0.12845 0.47806 -0.06984
 C134 C -0.08878 0.46669 -0.01227
 N135 N -0.06492 0.50014 0.01172
 C136 C -0.07659 0.42650 0.02913
 C137 C -0.03466 0.41413 0.05226
 C138 C -0.02230 0.37553 0.10566
 C139 C 0.02046 0.37551 0.10619
 C140 C 0.03291 0.41409 0.05304
 N141 N -0.00084 0.43745 0.01752
 C142 C 0.07487 0.42642 0.03086
 C143 C 0.08718 0.46660 -0.01023
 C144 C 0.12689 0.47791 -0.06678
 C145 C 0.12685 0.51947 -0.08151
 C146 C 0.08723 0.53250 -0.03176
 N147 N 0.06339 0.50007 0.01296
 C148 C 0.07482 0.57361 -0.02199
 H149 H 0.04055 0.65292 0.03503
 H150 H -0.04174 0.65296 0.03468
 H151 H 0.03425 0.50097 0.07584
 H152 H -0.15462 0.53818 -0.12555
 H153 H -0.15488 0.45852 -0.09770
 H154 H -0.04200 0.34991 0.13949
 H155 H 0.04008 0.34987 0.14049
 H156 H 0.15320 0.53799 -0.12230
 H157 H -0.03581 0.50100 0.07547
 H158 H 0.15329 0.45834 -0.09380
 C159 C 0.52217 1.12637 0.51607
 C160 C 0.47937 1.12636 0.51582
 C161 C 0.46698 1.08632 0.49500
 N162 N 0.50074 1.06199 0.48197
 C163 C 0.53452 1.08634 0.49547
 C164 C 0.42519 1.07343 0.47374
 C165 C 0.41275 1.03230 0.46468
 C166 C 0.37312 1.01920 0.41440
 C167 C 0.37304 0.97767 0.43009
 C168 C 0.41273 0.96643 0.48790
 N169 N 0.43656 0.99994 0.51069
 C170 C 0.42497 0.92632 0.53044
 C171 C 0.46688 0.91401 0.55406
 C172 C 0.47925 0.87547 0.60823
 C173 C 0.52199 0.87548 0.60893
 C174 C 0.53443 0.91402 0.55518
 N175 N 0.50068 0.93733 0.51907
 C176 C 0.57637 0.92634 0.53289
 C177 C 0.58870 0.96646 0.49082
 C178 C 0.62843 0.97770 0.43436
 C179 C 0.62839 1.01923 0.41819
 C180 C 0.58873 1.03233 0.46690
 N181 N 0.56488 0.99997 0.51250
 C182 C 0.57630 1.07347 0.47477
 H183 H 0.54194 1.15288 0.52725
 H184 H 0.45963 1.15287 0.52671
 H185 H 0.53569 1.00097 0.57486
 H186 H 0.34679 1.03766 0.37251
 H187 H 0.34663 0.95806 0.40289
 H188 H 0.45957 0.84985 0.64241
 H189 H 0.54162 0.84987 0.64376
 H190 H 0.65477 1.03768 0.37704
 H191 H 0.46568 1.00093 0.57429
 H192 H 0.65485 0.95809 0.40828
 C193 C 1.16425 0.14997 -0.06110
 C194 C 1.16833 0.16643 0.12133
 C195 C 1.14175 0.15202 0.26443
 C196 C 1.11205 0.12225 0.22652
 C197 C 1.10821 0.10606 0.04543
 C198 C 1.13442 0.11993 -0.09846
 H199 H 1.18402 0.16021 -0.17496
 H200 H 1.14375 0.16367 0.40674
 H201 H 1.09201 0.11169 0.33881
 H202 H 1.13165 0.10758 -0.23921
 C203 C 0.65062 0.64278 0.77976
 C204 C 0.66942 0.66352 0.62928
 C205 C 0.65796 0.65340 0.44389
 C206 C 0.62756 0.62368 0.41047
 C207 C 0.60880 0.60345 0.56190
 C208 C 0.62076 0.61293 0.74620
 H209 H 0.65892 0.64967 0.92410
 H210 H 0.67188 0.66892 0.32543
 H211 H 0.61846 0.61662 0.26729
 H212 H 0.60647 0.59753 0.86421
 C213 C -0.15872 0.34571 -0.05889
 C214 C -0.17007 0.33565 0.12635
 C215 C -0.15133 0.35658 0.27704
 C216 C -0.12162 0.38655 0.24380
 C217 C -0.10976 0.39596 0.05962
 C218 C -0.12849 0.37555 -0.09198
 H219 H -0.17260 0.33004 -0.17752
 H220 H -0.15954 0.34974 0.42129
 H221 H -0.10735 0.40209 0.36194
 H222 H -0.11947 0.38254 -0.23507
 C223 C 0.34295 0.84542 0.44306
 C224 C 0.33147 0.83555 0.62835
 C225 C 0.35018 0.85656 0.77890
 C226 C 0.37993 0.88647 0.74546
 C227 C 0.39184 0.89575 0.56122
 C228 C 0.37322 0.87520 0.40979
 H229 H 0.32908 0.82972 0.32452
 H230 H 0.34185 0.84987 0.92317
 H231 H 0.39413 0.90210 0.86350
 H232 H 0.38231 0.88209 0.26669
 C233 C -0.16361 0.64936 0.05305
 C234 C -0.16782 0.66616 -0.12841
 C235 C -0.14158 0.65180 -0.27307
 C236 C -0.11205 0.62179 -0.23745
 C237 C -0.10808 0.60530 -0.05721
 C238 C -0.13398 0.61908 0.08806
 H239 H -0.18314 0.65952 0.16800
 H240 H -0.14370 0.66371 -0.41476
 H241 H -0.09221 0.61132 -0.35074
 H242 H -0.13106 0.60654 0.22823
 C243 C 0.33644 1.14766 0.54979
 C244 C 0.33241 1.16466 0.36919
 C245 C 0.35911 1.15126 0.22497
 C246 C 0.38918 1.12173 0.26024
 C247 C 0.39310 1.10489 0.43993
 C248 C 0.36659 1.11785 0.58475
 H249 H 0.31638 1.15737 0.66363
 H250 H 0.35687 1.16363 0.08426
 H251 H 0.40942 1.11186 0.14721
 H252 H 0.36938 1.10499 0.72434
 C253 C 1.14732 -0.14698 -0.28470
 C254 C 1.16943 -0.16494 -0.13459
 C255 C 1.16143 -0.15137 0.05007
 C256 C 1.13139 -0.12137 0.08326
 C257 C 1.10965 -0.10387 -0.06766
 C258 C 1.11812 -0.11658 -0.25144
 H259 H 1.15260 -0.15621 -0.42903
 H260 H 1.17773 -0.16439 0.16921
 H261 H 1.12497 -0.11189 0.22626
 H262 H 1.10151 -0.10333 -0.36916
 C263 C 0.63985 0.34768 0.22847
 C264 C 0.66624 0.33352 0.37259
 C265 C 0.66241 0.35015 0.55418
 C266 C 0.63277 0.38036 0.59023
 C267 C 0.60660 0.39412 0.44545
 C268 C 0.61029 0.37763 0.26480
 H269 H 0.64197 0.33563 0.08700
 H270 H 0.68228 0.33988 0.66792
 H271 H 0.63010 0.39290 0.73060
 H272 H 0.59025 0.38807 0.15190
 C273 C 0.85058 -0.14350 -0.27618
 C274 C 0.83204 -0.16442 -0.12564
 C275 C 0.84340 -0.15416 0.05972
 C276 C 0.87347 -0.12413 0.09305
 C277 C 0.89200 -0.10373 -0.05846
 C278 C 0.88012 -0.11335 -0.24271
 H279 H 0.84233 -0.15045 -0.42050
 H280 H 0.82964 -0.16980 0.17825
 H281 H 0.88253 -0.11699 0.23620
 H282 H 0.89427 -0.09784 -0.36078
 C283 C 0.33609 0.35047 0.55859
 C284 C 0.33209 0.33405 0.37654
 C285 C 0.35840 0.34835 0.23289
 C286 C 0.38805 0.37821 0.27010
 C287 C 0.39195 0.39447 0.45117
 C288 C 0.36584 0.38060 0.59553
 H289 H 0.31630 0.34006 0.67197
 H290 H 0.35615 0.33648 0.09111
 H291 H 0.40802 0.38874 0.15753
 H292 H 0.36867 0.39295 0.73622
 C293 C 0.14004 0.65190 -0.27135
 C294 C 0.16648 0.66585 -0.12675
 C295 C 0.16269 0.64895 0.05411
 C296 C 0.13300 0.61871 0.08904
 C297 C 0.10675 0.60518 -0.05617
 C298 C 0.11044 0.62192 -0.23614
 H299 H 0.14214 0.66415 -0.41230
 H300 H 0.18260 0.65905 0.16817
 H301 H 0.13033 0.60600 0.22892
 H302 H 0.09033 0.61166 -0.34934
 C303 C 0.64201 1.15094 0.22253
 C304 C 0.66855 1.16529 0.36669
 C305 C 0.66444 1.14869 0.54854
 C306 C 0.63456 1.11868 0.58445
 C307 C 0.60831 1.10495 0.43972
 C308 C 0.61224 1.12119 0.25904
 H309 H 0.64404 1.16269 0.08058
 H310 H 0.68418 1.15886 0.66319
 H311 H 0.63173 1.10630 0.72490
 H312 H 0.59218 1.11074 0.14607
 C313 C 0.14962 0.35632 0.27876
 C314 C 0.16827 0.33549 0.12797
 C315 C 0.15679 0.34561 -0.05723
 C316 C 0.12657 0.37546 -0.09021
 C317 C 0.10796 0.39581 0.06147
 C318 C 0.11991 0.38630 0.24563
 H319 H 0.15794 0.34942 0.42296
 H320 H 0.17059 0.33002 -0.17594
 H321 H 0.11748 0.38253 -0.23329
 H322 H 0.10575 0.40180 0.36383
 C323 C 0.65791 0.84519 0.44536
 C324 C 0.66925 0.83498 0.63063
 C325 C 0.65069 0.85592 0.78134
 C326 C 0.62122 0.88610 0.74801
 C327 C 0.60941 0.89569 0.56374
 C328 C 0.62790 0.87521 0.41219
 H329 H 0.67167 0.82954 0.32672
 H330 H 0.65894 0.84898 0.92560
 H331 H 0.60709 0.90165 0.86612
 H332 H 0.61888 0.88232 0.26906
 C333 C 0.85966 0.15212 0.26534
 C334 C 0.83270 0.16546 0.12163
 C335 C 0.83653 0.14852 -0.05932
 C336 C 0.86667 0.11875 -0.09502
 C337 C 0.89337 0.10577 0.04943
 C338 C 0.88972 0.12263 0.22934
 H339 H 0.85759 0.16445 0.40630
 H340 H 0.81625 0.15818 -0.17276
 H341 H 0.86927 0.10589 -0.23478
 H342 H 0.91011 0.11276 0.34205
 C343 C 0.34974 0.64398 0.78323
 C344 C 0.33074 0.66435 0.63186
 C345 C 0.34192 0.65379 0.44691
 C346 C 0.37217 0.62394 0.41472
 C347 C 0.39109 0.60402 0.56694
 C348 C 0.37947 0.61399 0.75090
 H349 H 0.34166 0.65123 0.92728
 H350 H 0.32785 0.66902 0.32776
 H351 H 0.38100 0.61650 0.27179
 H352 H 0.39388 0.59884 0.86952
   
