data_POSCAR
  _audit_creation_date              2014-09-24
  _audit_creation_method            'ToBaCCo'
  _symmetry_space_group_name_H-M    'P1'
  _symmetry_Int_Tables_number       1
  _symmetry_cell_setting            triclinic
  loop_
  _symmetry_equiv_pos_as_xyz
 x,y,z
_cell_length_a 32.3804
_cell_length_b 35.1296
_cell_length_c 32.0754
_cell_angle_alpha 89.650500
_cell_angle_beta 88.809600
_cell_angle_gamma 89.873900
loop_
  _atom_site_label
  _atom_site_type_symbol
  _atom_site_fract_x
  _atom_site_fract_y
  _atom_site_fract_z
C1 C 0.22385 0.17224 0.24287
 C2 C 0.20887 0.16291 0.28294
 C3 C 0.17226 0.17947 0.29933
 C4 C 0.15345 0.20878 0.27584
 C5 C 0.16808 0.21813 0.23560
 C6 C 0.20254 0.19887 0.21847
 C7 C 0.25867 0.15368 0.22619
 C8 C 0.27140 0.15961 0.18432
 C9 C 0.24867 0.18523 0.15960
 C10 C 0.21503 0.20555 0.17665
 C11 C 0.19335 0.23212 0.15249
 C12 C 0.15983 0.25241 0.16997
 C13 C 0.14751 0.24533 0.21151
 H14 H 0.22500 0.14125 0.30055
 H15 H 0.12572 0.22292 0.28679
 H16 H 0.27382 0.13256 0.24528
 H17 H 0.25776 0.19019 0.12729
 H18 H 0.20308 0.23762 0.12048
 H19 H 0.12115 0.26043 0.22474
 C20 C -0.22583 0.81944 0.21944
 C21 C -0.20474 0.83519 0.25287
 C22 C -0.16393 0.82393 0.26163
 C23 C -0.14667 0.79322 0.23919
 C24 C -0.16820 0.77635 0.20672
 C25 C -0.20720 0.79042 0.19563
 C26 C -0.26405 0.83425 0.20788
 C27 C -0.28220 0.82314 0.17033
 C28 C -0.26342 0.79386 0.14663
 C29 C -0.22700 0.77618 0.16014
 C30 C -0.20913 0.74545 0.13823
 C31 C -0.17119 0.73006 0.15086
 C32 C -0.15066 0.74621 0.18447
 H33 H -0.21924 0.85835 0.26995
 H34 H -0.11666 0.78188 0.24686
 H35 H -0.27712 0.85753 0.22586
 H36 H -0.27735 0.78465 0.11794
 H37 H -0.22425 0.73392 0.11126
 H38 H -0.12096 0.73493 0.19364
 C39 C -0.22665 0.20613 -0.23951
 C40 C -0.21577 0.18864 -0.27712
 C41 C -0.18210 0.20180 -0.30093
 C42 C -0.16176 0.23516 -0.28950
 C43 C -0.17251 0.25313 -0.25181
 C44 C -0.20431 0.23782 -0.22598
 C45 C -0.25693 0.18984 -0.21371
 C46 C -0.26379 0.20248 -0.17248
 C47 C -0.24171 0.23494 -0.15921
 C48 C -0.21226 0.25279 -0.18590
 C49 C -0.18875 0.28386 -0.17243
 C50 C -0.15690 0.29921 -0.19807
 C51 C -0.14964 0.28409 -0.23798
 H52 H -0.23113 0.16261 -0.28615
 H53 H -0.13526 0.24491 -0.30779
 H54 H -0.27293 0.16510 -0.22526
 H55 H -0.24679 0.24646 -0.12836
 H56 H -0.19399 0.29503 -0.14133
 H57 H -0.12547 0.29581 -0.25806
 C58 C 0.23958 0.82284 -0.22913
 C59 C 0.21218 0.84046 -0.25679
 C60 C 0.17244 0.82517 -0.26349
 C61 C 0.16243 0.78985 -0.24459
 C62 C 0.18937 0.77202 -0.21706
 C63 C 0.22774 0.78882 -0.20869
 C64 C 0.27773 0.83967 -0.21992
 C65 C 0.30378 0.82335 -0.18993
 C66 C 0.29109 0.78959 -0.16948
 C67 C 0.25358 0.77225 -0.17872
 C68 C 0.24050 0.73963 -0.15674
 C69 C 0.20225 0.72299 -0.16501
 C70 C 0.17737 0.73862 -0.19599
 H71 H 0.22117 0.86723 -0.27128
 H72 H 0.13371 0.77562 -0.25091
 H73 H 0.28660 0.86606 -0.23529
 H74 H 0.30922 0.77739 -0.14480
 H75 H 0.25958 0.72761 -0.13258
 H76 H 0.14739 0.72617 -0.20166
 C77 C 0.16141 1.21402 0.76996
 C78 C 0.14734 1.19610 0.73362
 C79 C 0.16911 1.16503 0.71566
 C80 C 0.20474 1.15173 0.73594
 C81 C 0.21831 1.16860 0.77261
 C82 C 0.19729 1.20039 0.78919
 C83 C 0.13945 1.24456 0.78813
 C84 C 0.15319 1.26214 0.82506
 C85 C 0.19012 1.24885 0.84271
 C86 C 0.21135 1.21753 0.82598
 C87 C 0.24492 1.20156 0.84702
 C88 C 0.26375 1.16828 0.83208
 C89 C 0.25126 1.15261 0.79433
 H90 H 0.11949 1.20661 0.71927
 H91 H 0.22084 1.12651 0.72527
 H92 H 0.11224 1.25485 0.77261
 H93 H 0.20122 1.26129 0.87123
 H94 H 0.25455 1.21336 0.87643
 H95 H 0.26607 1.12684 0.78298
 C96 C 0.83624 0.75697 0.79311
 C97 C 0.85805 0.77238 0.75866
 C98 C 0.84387 0.80550 0.73819
 C99 C 0.80645 0.82232 0.75257
 C100 C 0.78532 0.80822 0.78813
 C101 C 0.80031 0.77535 0.80833
 C102 C 0.85069 0.72410 0.81345
 C103 C 0.83103 0.71030 0.85028
 C104 C 0.79493 0.72895 0.86477
 C105 C 0.77974 0.76120 0.84427
 C106 C 0.74505 0.78033 0.86040
 C107 C 0.73116 0.81434 0.84211
 C108 C 0.75058 0.82745 0.80503
 H109 H 0.88554 0.75780 0.74744
 H110 H 0.79490 0.84787 0.73765
 H111 H 0.87865 0.71054 0.80168
 H112 H 0.77781 0.71831 0.89170
 H113 H 0.72951 0.76920 0.88812
 H114 H 0.74000 0.85358 0.79060
 C115 C 0.16657 0.77035 1.22208
 C116 C 0.14638 0.79172 1.25358
 C117 C 0.15815 0.82952 1.26126
 C118 C 0.19199 0.84511 1.23887
 C119 C 0.21284 0.82404 1.20789
 C120 C 0.19950 0.78682 1.19885
 C121 C 0.15318 0.73345 1.21225
 C122 C 0.17146 0.71289 1.17862
 C123 C 0.20427 0.73010 1.15591
 C124 C 0.21849 0.76647 1.16588
 C125 C 0.25096 0.78309 1.14260
 C126 C 0.26492 0.81981 1.15187
 C127 C 0.24594 0.84002 1.18481
 H128 H 0.12026 0.77968 1.27070
 H129 H 0.20153 0.87407 1.24505
 H130 H 0.12690 0.72223 1.22956
 H131 H 0.21914 0.71518 1.13016
 H132 H 0.26564 0.76729 1.11741
 H133 H 0.25622 0.86862 1.19167
 C134 C 0.80763 1.24296 1.22924
 C135 C 0.83109 1.22678 1.26120
 C136 C 0.81889 1.19236 1.28093
 C137 C 0.78145 1.17541 1.26869
 C138 C 0.75827 1.19081 1.23612
 C139 C 0.77138 1.22471 1.21635
 C140 C 0.82082 1.27638 1.20877
 C141 C 0.79884 1.29123 1.17493
 C142 C 0.76241 1.27314 1.16276
 C143 C 0.74884 1.23982 1.18288
 C144 C 0.71409 1.22049 1.16872
 C145 C 0.70143 1.18606 1.18733
 C146 C 0.72328 1.17175 1.22162
 H147 H 0.85846 1.24171 1.27069
 H148 H 0.77115 1.14896 1.28299
 H149 H 0.84923 1.28993 1.21800
 H150 H 0.74487 1.28461 1.13715
 H151 H 0.69748 1.23174 1.14232
 H152 H 0.71454 1.14477 1.23569
 O153 O 0.54417 0.98322 0.90831
 O154 O 0.46291 0.96719 1.07208
 O155 O 0.58964 0.99077 1.03119
 O156 O 0.45926 0.95350 0.94377
 O157 O 0.53945 0.96308 1.06476
 O158 O 0.46947 0.99766 0.90099
 O159 O 0.44435 0.94202 1.01501
 O160 O 0.57204 0.96352 0.96421
 C161 C 0.56611 0.95915 0.92657
 C162 C 0.44405 0.94182 1.05357
 C163 C 0.57677 0.96441 1.05444
 C164 C 0.45724 0.96479 0.90770
 O165 O 0.47906 1.06361 0.93793
 O166 O 0.54233 1.03862 1.06940
 O167 O 0.60997 1.02672 0.95851
 O168 O 0.41777 1.01485 1.02637
 O169 O 0.46310 1.03927 1.06983
 O170 O 0.55461 1.05560 0.93531
 O171 O 0.42652 1.02695 0.95225
 O172 O 0.56267 1.05830 1.00882
 Co173 Co 0.51133 1.02265 0.92742
 Co174 Co 0.50271 1.00235 1.06174
 Co175 Co 0.56403 1.01041 0.98578
 Co176 Co 0.44221 0.98583 0.98436
 O177 O 0.50284 1.00341 0.99301
 C178 C 0.44085 1.05902 0.94138
 C179 C 0.56062 1.06293 1.04719
 C180 C 0.59352 1.05051 0.93177
 C181 C 0.42710 1.03766 1.05546
 O182 O 0.04135 0.46004 0.09136
 O183 O 0.07088 0.53041 -0.05186
 O184 O 0.02522 0.41705 -0.02579
 O185 O 0.07508 0.54162 0.02176
 O186 O 0.07034 0.46008 -0.04367
 O187 O 0.05032 0.53163 0.08342
 O188 O 0.04520 0.58512 -0.03038
 O189 O 0.01355 0.41630 0.05063
 C190 C 0.03701 0.42577 0.08036
 C191 C 0.06918 0.56653 -0.05663
 C192 C 0.06055 0.42584 -0.04003
 C193 C 0.07868 0.54434 0.06020
 O194 O -0.03212 0.53798 0.07763
 O195 O -0.00329 0.45709 -0.07828
 O196 O -0.06278 0.44629 0.03815
 O197 O -0.02705 0.55818 -0.02095
 O198 O -0.00867 0.52727 -0.07537
 O199 O -0.03610 0.46812 0.09327
 O200 O 0.00704 0.57677 0.04328
 O201 O -0.05053 0.45348 -0.03293
 Co202 Co 0.00637 0.49942 0.07912
 Co203 Co 0.02983 0.49387 -0.05522
 Co204 Co -0.01617 0.43798 0.00728
 Co205 Co 0.02318 0.54700 -0.00021
 O206 O 0.00881 0.49270 0.01108
 C207 C -0.02320 0.57128 0.06722
 C208 C -0.03995 0.44995 -0.06946
 C209 C -0.06399 0.45018 0.07628
 C210 C -0.03235 0.55090 -0.05818
 O211 O 1.07451 0.00775 0.46509
 O212 O 0.91410 0.03751 0.53868
 O213 O 0.95926 0.05535 0.43662
 O214 O 1.00521 0.03914 0.56887
 O215 O 0.90414 0.03141 0.46302
 O216 O 1.06311 0.02373 0.54017
 O217 O 0.94125 0.00759 0.58959
 O218 O 1.02960 0.04803 0.44935
 C219 C 1.06618 0.03975 0.45125
 C220 C 0.91938 0.03436 0.57675
 C221 C 0.92127 0.05571 0.44052
 C222 C 1.04215 0.04651 0.56209
 O223 O 1.04165 -0.04993 0.55332
 O224 O 0.90798 -0.04036 0.46583
 O225 O 1.02660 -0.02699 0.42250
 O226 O 0.96867 -0.05868 0.56178
 O227 O 0.90907 -0.03888 0.54382
 O228 O 1.04341 -0.06038 0.47710
 O229 O 1.01516 -0.02253 0.60869
 O230 O 0.95074 -0.01897 0.41585
 Co231 Co 1.04894 -0.01786 0.50843
 Co232 Co 0.91593 -0.00270 0.50339
 Co233 Co 0.99146 0.01263 0.43683
 Co234 Co 0.98793 -0.00921 0.56230
 O235 O 0.98317 -0.00293 0.50019
 C236 C 1.04505 -0.04285 0.59197
 C237 C 0.92082 -0.03995 0.42844
 C238 C 1.04097 -0.05722 0.43824
 C239 C 0.93062 -0.06359 0.56129
 C240 C 1.14647 0.10918 0.38017
 C241 C 1.10899 0.12335 0.39602
 N242 N 1.09571 0.15819 0.38386
 C243 C 1.11714 0.17890 0.35483
 C244 C 1.15322 0.16349 0.33568
 N245 N 1.16739 0.12936 0.35043
 N246 N 1.15949 0.07400 0.39203
 C247 C 1.13583 0.05182 0.41798
 C248 C 1.09692 0.06511 0.43163
 N249 N 1.08493 0.10094 0.42088
 H250 H 1.10506 0.20652 0.34676
 H251 H 1.14615 0.02337 0.42573
 C252 C 0.85795 -0.11008 0.34551
 C253 C 0.90125 -0.10972 0.34533
 N254 N 0.92252 -0.13274 0.31873
 C255 C 0.90251 -0.15593 0.29203
 C256 C 0.85878 -0.15554 0.29110
 N257 N 0.83805 -0.13237 0.31828
 N258 N 0.83634 -0.08793 0.37268
 C259 C 0.85621 -0.06526 0.39977
 C260 C 0.89956 -0.06411 0.39902
 N261 N 0.92126 -0.08638 0.37175
 H262 H 0.92102 -0.17263 0.27053
 H263 H 0.83835 -0.04785 0.42131
 C264 C 0.86519 0.11412 0.65818
 C265 C 0.87299 0.12347 0.61620
 N266 N 0.86337 0.15884 0.60186
 C267 C 0.84597 0.18526 0.62773
 C268 C 0.83722 0.17543 0.66942
 N269 N 0.84723 0.14011 0.68355
 N270 N 0.87581 0.07928 0.67301
 C271 C 0.89382 0.05307 0.64756
 C272 C 0.90080 0.06197 0.60531
 N273 N 0.89024 0.09705 0.59061
 H274 H 0.83848 0.21327 0.61582
 H275 H 0.90199 0.02542 0.66003
 C276 C 1.12977 -0.10443 0.66413
 C277 C 1.08746 -0.11279 0.66630
 N278 N 1.07383 -0.14150 0.69128
 C279 C 1.10048 -0.16255 0.71411
 C280 C 1.14340 -0.15449 0.71233
 N281 N 1.15648 -0.12509 0.68732
 N282 N 1.14349 -0.07591 0.63868
 C283 C 1.11671 -0.05550 0.61520
 C284 C 1.07433 -0.06373 0.61764
 N285 N 1.06063 -0.09216 0.64328
 H286 H 1.08738 -0.18404 0.73452
 H287 H 1.12830 -0.03289 0.59514
 C288 C 0.33531 1.10956 1.10703
 C289 C 0.36686 1.09473 1.13167
 N290 N 0.36709 1.10246 1.17298
 C291 C 0.33678 1.12383 1.19111
 C292 C 0.30466 1.13883 1.16666
 N293 N 0.30546 1.13162 1.12488
 N294 N 0.33419 1.10055 1.06596
 C295 C 0.36322 1.07721 1.04848
 C296 C 0.39516 1.06276 1.07307
 N297 N 0.39630 1.07214 1.11410
 H298 H 0.33877 1.12982 1.22401
 H299 H 0.36167 1.07035 1.01569
 C300 C 0.37585 0.90243 0.83438
 C301 C 0.40484 0.88375 0.85918
 N302 N 0.40349 0.84537 0.86319
 C303 C 0.37333 0.82484 0.84507
 C304 C 0.34173 0.84367 0.82325
 N305 N 0.34470 0.88213 0.81756
 N306 N 0.37774 0.94087 0.82987
 C307 C 0.40652 0.96155 0.85019
 C308 C 0.43359 0.94307 0.87745
 N309 N 0.43236 0.90446 0.88080
 H310 H 0.37381 0.79426 0.84868
 H311 H 0.40635 0.99228 0.84736
 C312 C 0.65740 0.87920 1.09780
 C313 C 0.62794 0.89598 1.12471
 N314 N 0.62685 0.88618 1.16564
 C315 C 0.65464 0.86113 1.18125
 C316 C 0.68471 0.84440 1.15458
 N317 N 0.68450 0.85337 1.11315
 N318 N 0.66024 0.89092 1.05743
 C319 C 0.63505 0.91880 1.04282
 C320 C 0.60517 0.93518 1.06959
 N321 N 0.60206 0.92304 1.10987
 H322 H 0.65308 0.85428 1.21419
 H323 H 0.63794 0.92774 1.01054
 C324 C 0.66328 1.12807 0.85938
 C325 C 0.66305 1.13051 0.90288
 N326 N 0.68503 1.15854 0.92118
 C327 C 0.70787 1.18386 0.89797
 C328 C 0.70958 1.18060 0.85399
 N329 N 0.68646 1.15270 0.83649
 N330 N 0.64109 1.10061 0.84055
 C331 C 0.61861 1.07517 0.86346
 C332 C 0.61893 1.07690 0.90706
 N333 N 0.64101 1.10471 0.92597
 H334 H 0.72566 1.20482 0.91420
 H335 H 0.60093 1.05360 0.84782
 C336 C 0.10459 0.34185 0.14467
 C337 C 0.09318 0.33593 0.10323
 N338 N 0.10469 0.30321 0.08379
 C339 C 0.12693 0.27608 0.10400
 C340 C 0.13767 0.28168 0.14580
 N341 N 0.12608 0.31458 0.16499
 N342 N 0.09403 0.37476 0.16401
 C343 C 0.07248 0.40217 0.14381
 C344 C 0.06036 0.39625 0.10251
 N345 N 0.07098 0.36308 0.08315
 H346 H 0.13525 0.25007 0.08795
 H347 H 0.06446 0.42817 0.16005
 C348 C -0.12047 0.38235 -0.13793
 C349 C -0.07790 0.38233 -0.14743
 N350 N -0.06221 0.35633 -0.17453
 C351 C -0.08701 0.33008 -0.19226
 C352 C -0.12960 0.32938 -0.18208
 N353 N -0.14518 0.35584 -0.15517
 N354 N -0.13608 0.40760 -0.10994
 C355 C -0.11089 0.43207 -0.09003
 C356 C -0.06800 0.43099 -0.09802
 N357 N -0.05257 0.40643 -0.12710
 H358 H -0.07317 0.30907 -0.21275
 H359 H -0.12397 0.45100 -0.06673
 C360 C 0.14672 0.63548 -0.13141
 C361 C 0.14311 0.64127 -0.08822
 N362 N 0.16207 0.67145 -0.07076
 C363 C 0.18379 0.69672 -0.09468
 C364 C 0.18558 0.69226 -0.13820
 N365 N 0.16715 0.66149 -0.15554
 N366 N 0.12797 0.60498 -0.14866
 C367 C 0.10497 0.58049 -0.12474
 C368 C 0.09945 0.58762 -0.08199
 N369 N 0.11894 0.61774 -0.06474
 H370 H 0.19761 0.72118 -0.08012
 H371 H 0.08939 0.55700 -0.13931
 C372 C -0.08846 0.66783 0.10924
 C373 C -0.10975 0.63399 0.10115
 N374 N -0.15154 0.63310 0.10622
 C375 C -0.17284 0.66435 0.11977
 C376 C -0.15121 0.69773 0.12939
 N377 N -0.10952 0.69850 0.12351
 N378 N -0.04692 0.66931 0.10376
 C379 C -0.02545 0.63835 0.09054
 C380 C -0.04635 0.60412 0.08319
 N381 N -0.08820 0.60266 0.08859
 H382 H -0.20594 0.66262 0.12476
 H383 H 0.00773 0.64034 0.08616
 C384 C 1.09611 0.12826 0.63968
 C385 C 1.12073 0.10208 0.61755
 N386 N 1.16154 0.09964 0.62554
 C387 C 1.17873 0.12103 0.65575
 C388 C 1.15381 0.14594 0.68019
 N389 N 1.11312 0.14953 0.67020
 N390 N 1.05500 0.13003 0.63235
 C391 C 1.03723 0.10599 0.60486
 C392 C 1.06157 0.07851 0.58395
 N393 N 1.10300 0.07777 0.59043
 H394 H 1.21161 0.11848 0.65999
 H395 H 1.00413 0.10716 0.60082
 C396 C 0.86657 -0.13578 0.64594
 C397 C 0.90971 -0.13842 0.64215
 N398 N 0.93027 -0.16161 0.66869
 C399 C 0.90977 -0.18179 0.69912
 C400 C 0.86646 -0.17751 0.70460
 N401 N 0.84634 -0.15454 0.67725
 N402 N 0.84553 -0.11359 0.61904
 C403 C 0.86571 -0.09286 0.58926
 C404 C 0.90927 -0.09308 0.58696
 N405 N 0.93035 -0.11642 0.61334
 H406 H 0.92775 -0.19887 0.72022
 H407 H 0.84779 -0.07479 0.56899
 C408 C 1.10123 -0.13502 0.35628
 C409 C 1.08890 -0.09875 0.34282
 N410 N 1.09875 -0.08696 0.30353
 C411 C 1.12071 -0.10964 0.27701
 C412 C 1.13341 -0.14605 0.29011
 N413 N 1.12294 -0.15807 0.32956
 N414 N 1.09230 -0.14602 0.39623
 C415 C 1.07200 -0.12226 0.42334
 C416 C 1.05974 -0.08582 0.40984
 N417 N 1.06846 -0.07529 0.36967
 H418 H 1.12805 -0.09942 0.24584
 H419 H 1.06593 -0.13153 0.45511
 C420 C 0.84840 0.12594 0.36371
 C421 C 0.89076 0.13297 0.36721
 N422 N 0.90847 0.16089 0.34360
 C423 C 0.88595 0.18187 0.31632
 C424 C 0.84341 0.17401 0.31135
 N425 N 0.82616 0.14608 0.33578
 N426 N 0.83032 0.09834 0.38740
 C427 C 0.85285 0.07685 0.41397
 C428 C 0.89578 0.08258 0.41641
 N429 N 0.91370 0.11084 0.39299
 H430 H 0.90211 0.20279 0.29742
 H431 H 0.83756 0.05454 0.43182
 C432 C 0.12909 0.34172 -0.10475
 C433 C 0.08664 0.34622 -0.11030
 N434 N 0.06703 0.32408 -0.13810
 C435 C 0.08784 0.29730 -0.16067
 C436 C 0.13054 0.29151 -0.15455
 N437 N 0.14977 0.31424 -0.12637
 N438 N 0.14893 0.36503 -0.07800
 C439 C 0.12801 0.39263 -0.05646
 C440 C 0.08519 0.39631 -0.06112
 N441 N 0.06567 0.37295 -0.08808
 H442 H 0.07033 0.27969 -0.18133
 H443 H 0.14444 0.41111 -0.03564
 C444 C -0.14158 0.37869 0.14820
 C445 C -0.14407 0.37958 0.10459
 N446 N -0.16733 0.35339 0.08503
 C447 C -0.18769 0.32582 0.10701
 C448 C -0.18410 0.32384 0.15069
 N449 N -0.16126 0.35073 0.17015
 N450 N -0.11746 0.40436 0.16764
 C451 C -0.09465 0.43013 0.14533
 C452 C -0.09535 0.42972 0.10147
 N453 N -0.12068 0.40472 0.08229
 H454 H -0.20471 0.30460 0.09018
 H455 H -0.07456 0.44934 0.16161
 C456 C -0.10545 0.62668 -0.12691
 C457 C -0.11203 0.62229 -0.08384
 N458 N -0.13903 0.64558 -0.06362
 C459 C -0.15949 0.67347 -0.08433
 C460 C -0.15166 0.67939 -0.12751
 N461 N -0.12472 0.65533 -0.14744
 N462 N -0.07866 0.60316 -0.14726
 C463 C -0.05722 0.57612 -0.12619
 C464 C -0.06184 0.57324 -0.08256
 N465 N -0.08958 0.59627 -0.06252
 H466 H -0.17935 0.69207 -0.06623
 H467 H -0.03506 0.55861 -0.14304
 C468 C 0.15016 0.63152 0.11115
 C469 C 0.12245 0.61041 0.13591
 N470 N 0.11324 0.62194 0.17527
 C471 C 0.12954 0.65439 0.19084
 C472 C 0.15635 0.67698 0.16568
 N473 N 0.16650 0.66399 0.12660
 N474 N 0.15801 0.62071 0.07109
 C475 C 0.13830 0.59031 0.05433
 C476 C 0.10916 0.56998 0.07872
 N477 N 0.10268 0.58038 0.11920
 H478 H 0.12165 0.66174 0.22264
 H479 H 0.14365 0.58344 0.02181
 C480 C 0.35772 1.13657 0.88723
 C481 C 0.34452 1.10112 0.90292
 N482 N 0.30532 1.08937 0.89674
 C483 C 0.27867 1.11122 0.87496
 C484 C 0.29181 1.14637 0.85849
 N485 N 0.33103 1.15857 0.86533
 N486 N 0.39757 1.14741 0.89240
 C487 C 0.42498 1.12406 0.91175
 C488 C 0.41194 1.08812 0.92640
 N489 N 0.37180 1.07794 0.92193
 H490 H 0.24765 1.10104 0.86991
 H491 H 0.45679 1.13293 0.91447
 C492 C 0.35907 0.87570 1.12420
 C493 C 0.36031 0.87331 1.08050
 N494 N 0.33130 0.85248 1.06099
 C495 C 0.30091 0.83421 1.08314
 C496 C 0.29890 0.83742 1.12689
 N497 N 0.32831 0.85810 1.14627
 N498 N 0.38792 0.89653 1.14382
 C499 C 0.41741 0.91590 1.12174
 C500 C 0.41779 0.91504 1.07782
 N501 N 0.38930 0.89330 1.05827
 H502 H 0.27784 0.81831 1.06666
 H503 H 0.43933 0.93304 1.13834
 C504 C 0.63572 1.14346 1.10619
 C505 C 0.61148 1.11779 1.12959
 N506 N 0.61514 1.11626 1.17164
 C507 C 0.64267 1.13870 1.19139
 C508 C 0.66815 1.16365 1.16797
 N509 N 0.66343 1.16565 1.12583
 N510 N 0.63262 1.14445 1.06402
 C511 C 0.60692 1.12031 1.04406
 C512 C 0.58353 1.09367 1.06735
 N513 N 0.58617 1.09348 1.10970
 H514 H 0.64472 1.13681 1.22495
 H515 H 0.60584 1.12106 1.01036
 C516 C 0.64260 0.88091 0.86178
 C517 C 0.64183 0.88256 0.90548
 N518 N 0.66911 0.86166 0.92745
 C519 C 0.69736 0.83913 0.90779
 C520 C 0.69881 0.83742 0.86386
 N521 N 0.67122 0.85862 0.84187
 N522 N 0.61557 0.90263 0.84004
 C523 C 0.58846 0.92643 0.86004
 C524 C 0.58870 0.92900 0.90381
 N525 N 0.61529 0.90659 0.92529
 H526 H 0.71934 0.82370 0.92644
 H527 H 0.56815 0.94422 0.84189
   
