data_POSCAR
  _audit_creation_date              2014-09-24
  _audit_creation_method            'ToBaCCo'
  _symmetry_space_group_name_H-M    'P1'
  _symmetry_Int_Tables_number       1
  _symmetry_cell_setting            triclinic
  loop_
  _symmetry_equiv_pos_as_xyz
 x,y,z
_cell_length_a 27.7566
_cell_length_b 28.6557
_cell_length_c 29.2039
_cell_angle_alpha 91.496600
_cell_angle_beta 90.162700
_cell_angle_gamma 90.318700
loop_
  _atom_site_label
  _atom_site_type_symbol
  _atom_site_fract_x
  _atom_site_fract_y
  _atom_site_fract_z
C1 C 0.22026 0.14764 0.19669
 C2 C 0.20506 0.11656 0.22990
 C3 C 0.15818 0.11864 0.24840
 C4 C 0.12604 0.15219 0.23135
 C5 C 0.14067 0.18308 0.19719
 C6 C 0.18845 0.18160 0.18083
 C7 C 0.26704 0.14485 0.17903
 C8 C 0.28351 0.17660 0.14650
 C9 C 0.25200 0.21180 0.13214
 C10 C 0.20430 0.21363 0.14812
 C11 C 0.17168 0.24584 0.13058
 C12 C 0.12328 0.24572 0.14447
 C13 C 0.10820 0.21487 0.17841
 H14 H 0.23117 0.09197 0.24207
 H15 H 0.08939 0.15399 0.24385
 H16 H 0.29093 0.11827 0.19162
 H17 H 0.26323 0.23611 0.10645
 H18 H 0.18343 0.26945 0.10439
 H19 H 0.07111 0.21536 0.18992
 C20 C -0.21952 0.85567 0.19838
 C21 C -0.21288 0.88206 0.23915
 C22 C -0.17025 0.87826 0.26522
 C23 C -0.13381 0.84792 0.24906
 C24 C -0.14084 0.81986 0.20947
 C25 C -0.18386 0.82373 0.18408
 C26 C -0.26167 0.86031 0.17209
 C27 C -0.26962 0.83237 0.13218
 C28 C -0.23411 0.79948 0.11930
 C29 C -0.19143 0.79524 0.14469
 C30 C -0.15653 0.76231 0.13151
 C31 C -0.11397 0.75726 0.15721
 C32 C -0.10608 0.78694 0.19570
 H33 H -0.24075 0.90625 0.24981
 H34 H -0.10091 0.84385 0.26853
 H35 H -0.28863 0.88504 0.18367
 H36 H -0.23840 0.77773 0.08876
 H37 H -0.16342 0.73973 0.10190
 H38 H -0.07319 0.78416 0.21544
 C39 C -0.17382 0.13801 -0.20145
 C40 C -0.13814 0.12725 -0.23405
 C41 C -0.10436 0.16129 -0.24693
 C42 C -0.10464 0.20525 -0.22444
 C43 C -0.14051 0.21668 -0.19257
 C44 C -0.17604 0.18342 -0.18190
 C45 C -0.20773 0.10432 -0.18866
 C46 C -0.24494 0.11569 -0.15755
 C47 C -0.24823 0.16207 -0.14036
 C48 C -0.21368 0.19562 -0.15160
 C49 C -0.21546 0.24092 -0.13212
 C50 C -0.17907 0.27329 -0.14148
 C51 C -0.14173 0.26111 -0.17160
 H52 H -0.13806 0.09297 -0.25055
 H53 H -0.07770 0.23124 -0.23244
 H54 H -0.20543 0.06959 -0.20395
 H55 H -0.27609 0.17197 -0.11622
 H56 H -0.24390 0.25048 -0.10834
 H57 H -0.11378 0.28648 -0.17882
 C58 C 0.16706 0.86621 -0.19176
 C59 C 0.14598 0.87636 -0.23420
 C60 C 0.12323 0.84086 -0.26093
 C61 C 0.11865 0.79606 -0.24277
 C62 C 0.13814 0.78593 -0.20009
 C63 C 0.16324 0.82070 -0.17468
 C64 C 0.19385 0.90016 -0.16715
 C65 C 0.21831 0.88854 -0.12693
 C66 C 0.21356 0.84350 -0.10952
 C67 C 0.18539 0.80959 -0.13271
 C68 C 0.18003 0.76439 -0.11557
 C69 C 0.15421 0.73019 -0.14087
 C70 C 0.13388 0.74097 -0.18309
 H71 H 0.15017 0.91110 -0.24744
 H72 H 0.09932 0.76865 -0.26137
 H73 H 0.19783 0.93493 -0.18049
 H74 H 0.23211 0.83489 -0.07815
 H75 H 0.19659 0.75550 -0.08331
 H76 H 0.11463 0.71410 -0.20271
 C77 C 0.14518 1.18493 0.79147
 C78 C 0.13860 1.15588 0.75224
 C79 C 0.17654 1.12758 0.73524
 C80 C 0.21984 1.12625 0.76041
 C81 C 0.22622 1.15373 0.80031
 C82 C 0.18957 1.18445 0.81498
 C83 C 0.10847 1.21505 0.80714
 C84 C 0.11640 1.24634 0.84471
 C85 C 0.16147 1.24592 0.86709
 C86 C 0.19742 1.21459 0.85330
 C87 C 0.24098 1.21244 0.87770
 C88 C 0.27601 1.17983 0.86469
 C89 C 0.26887 1.15098 0.82581
 H90 H 0.10474 1.15741 0.73385
 H91 H 0.24865 1.10313 0.74975
 H92 H 0.07459 1.21525 0.78869
 H93 H 0.16825 1.26851 0.89673
 H94 H 0.24706 1.23495 0.90761
 H95 H 0.29669 1.12647 0.81548
 C96 C 0.85511 0.79502 0.79957
 C97 C 0.88147 0.81388 0.76366
 C98 C 0.86158 0.84840 0.73565
 C99 C 0.81245 0.85961 0.74066
 C100 C 0.78570 0.84170 0.77722
 C101 C 0.80782 0.81062 0.80761
 C102 C 0.87638 0.76301 0.82927
 C103 C 0.85237 0.74968 0.86935
 C104 C 0.80571 0.76680 0.87772
 C105 C 0.78316 0.79621 0.84690
 C106 C 0.73668 0.81246 0.85566
 C107 C 0.71400 0.84240 0.82535
 C108 C 0.73825 0.85654 0.78579
 H109 H 0.91820 0.80235 0.75853
 H110 H 0.79621 0.88542 0.71907
 H111 H 0.91283 0.75120 0.82281
 H112 H 0.78581 0.75611 0.90756
 H113 H 0.71791 0.80171 0.88620
 H114 H 0.72104 0.88068 0.76301
 C115 C 0.13159 0.78534 1.18792
 C116 C 0.09806 0.79760 1.22169
 C117 C 0.10095 0.84093 1.24502
 C118 C 0.13562 0.87380 1.23135
 C119 C 0.16901 0.86220 1.19678
 C120 C 0.16793 0.81716 1.17608
 C121 C 0.12974 0.74114 1.16668
 C122 C 0.16500 0.72694 1.13477
 C123 C 0.20222 0.75851 1.12401
 C124 C 0.20320 0.80385 1.14366
 C125 C 0.23833 0.83636 1.13087
 C126 C 0.23821 0.88209 1.14959
 C127 C 0.20389 0.89453 1.18302
 H128 H 0.07036 0.77265 1.23054
 H129 H 0.13799 0.90763 1.24865
 H130 H 0.10161 0.71719 1.17676
 H131 H 0.22927 0.74892 1.09890
 H132 H 0.26464 0.82655 1.10507
 H133 H 0.20438 0.92935 1.19844
 C134 C 0.85736 1.21440 1.20079
 C135 C 0.88057 1.20604 1.24217
 C136 C 0.87933 1.16163 1.26164
 C137 C 0.85562 1.12475 1.23742
 C138 C 0.83116 1.13295 1.19607
 C139 C 0.83207 1.17809 1.17776
 C140 C 0.85828 1.25908 1.18265
 C141 C 0.83445 1.26793 1.14160
 C142 C 0.80893 1.23213 1.11854
 C143 C 0.80697 1.18729 1.13686
 C144 C 0.77928 1.15191 1.11574
 C145 C 0.77703 1.10726 1.13432
 C146 C 0.80409 1.09746 1.17367
 H147 H 0.90026 1.23458 1.25858
 H148 H 0.85380 1.09028 1.25168
 H149 H 0.87765 1.28718 1.20038
 H150 H 0.79001 1.23947 1.08703
 H151 H 0.75888 1.15921 1.08504
 H152 H 0.80209 1.06299 1.18801
 O153 O 0.52765 0.91421 0.90037
 O154 O 0.59505 0.93151 0.94332
 C155 C 0.57350 0.91165 0.90842
 O156 O 0.45707 1.10810 0.93065
 O157 O 0.39559 1.07858 0.97373
 C158 C 0.41306 1.10816 0.94528
 O159 O 0.58244 1.06270 0.91307
 O160 O 0.62157 1.00284 0.94809
 C161 C 0.61967 1.03634 0.91931
 O162 O 0.39858 0.94372 0.92537
 O163 O 0.36806 1.00217 0.97183
 C164 C 0.36323 0.96854 0.94165
 Zr165 Zr 0.47355 0.94848 0.93919
 O166 O 0.45830 0.94846 0.86823
 O167 O 0.45496 0.87700 0.94186
 Zr168 Zr 0.51329 1.06074 0.94378
 O169 O 0.50113 1.06479 0.87237
 O170 O 0.54309 1.12897 0.94545
 O171 O 0.53255 0.99229 0.92823
 O172 O 0.45324 1.01769 0.93713
 O173 O 0.41405 0.93670 1.08013
 O174 O 0.37609 0.99892 1.04784
 C175 C 0.37677 0.96315 1.07406
 O176 O 0.59824 1.05539 1.07653
 O177 O 0.62956 0.99913 1.02783
 C178 C 0.63358 1.03030 1.06063
 O179 O 0.47195 1.10319 1.08412
 O180 O 0.40260 1.07527 1.04980
 C181 C 0.42571 1.10390 1.07703
 O182 O 0.54448 0.90061 1.07224
 O183 O 0.60371 0.92669 1.02424
 C184 C 0.58802 0.89989 1.05599
 Zr185 Zr 0.48508 0.94291 1.05380
 O186 O 0.48658 0.94098 1.12619
 O187 O 0.46534 0.87148 1.04952
 Zr188 Zr 0.52403 1.05490 1.05884
 O189 O 0.52331 1.04865 1.13096
 O190 O 0.55384 1.12251 1.06798
 Zr191 Zr 0.56652 0.98005 0.99144
 Zr192 Zr 0.43154 1.02374 1.00592
 O193 O 0.46573 1.01140 1.06888
 O194 O 0.54594 0.98552 1.06086
 O195 O 0.43584 0.95041 1.00054
 O196 O 0.56093 1.05321 0.99741
 O197 O 0.51647 0.92473 0.99151
 O198 O 0.48146 1.07956 1.00587
 H199 H 0.42991 1.02531 0.91274
 H200 H 0.59052 1.07263 0.99622
 H201 H 0.44735 1.01725 1.09748
 H202 H 0.52890 0.89253 0.98750
 H203 H 0.52371 1.14829 0.96699
 H204 H 0.54461 1.14011 1.04072
 H205 H 0.55048 1.02833 1.13937
 H206 H 0.51856 0.95271 1.13630
 H207 H 0.43724 0.86877 1.02866
 H208 H 0.44772 0.86683 0.90989
 H209 H 0.47767 0.97398 0.85536
 H210 H 0.52197 1.04135 0.85692
 O211 O -0.10052 0.45359 0.08570
 O212 O -0.07401 0.39376 0.03852
 C213 C -0.10082 0.41034 0.07129
 O214 O -0.08223 0.58472 -0.06957
 O215 O -0.02121 0.62251 -0.03012
 C216 C -0.05895 0.62206 -0.05638
 O217 O -0.11883 0.45871 -0.06959
 O218 O -0.08153 0.39661 -0.03659
 C219 C -0.11498 0.41453 -0.06145
 O220 O -0.05849 0.57867 0.09563
 O221 O -0.00979 0.62023 0.04774
 C222 C -0.03723 0.61681 0.08338
 Zr223 Zr -0.05882 0.51113 0.06417
 O224 O -0.13047 0.53491 0.07225
 O225 O -0.05366 0.50336 0.13588
 Zr226 Zr -0.07133 0.51452 -0.05120
 O227 O -0.14465 0.53400 -0.05007
 O228 O -0.07402 0.51106 -0.12374
 O229 O -0.08522 0.47513 0.00636
 O230 O -0.06317 0.55405 0.00893
 O231 O 0.10223 0.53824 0.07455
 O232 O 0.06686 0.59997 0.03895
 C233 C 0.09887 0.58223 0.06558
 O234 O 0.05402 0.41584 -0.08878
 O235 O -0.00182 0.37654 -0.04634
 C236 C 0.03074 0.37830 -0.07798
 O237 O 0.08330 0.54394 -0.08861
 O238 O 0.05847 0.60318 -0.03984
 C239 C 0.08358 0.58718 -0.07413
 O240 O 0.06831 0.41107 0.06962
 O241 O 0.00539 0.37426 0.03216
 C242 C 0.04245 0.37435 0.05923
 Zr243 Zr 0.05828 0.48157 0.05105
 O244 O 0.13243 0.46702 0.04202
 O245 O 0.06488 0.47562 0.12291
 Zr246 Zr 0.04529 0.48545 -0.06389
 O247 O 0.11925 0.47205 -0.07501
 O248 O 0.03283 0.48351 -0.13550
 Zr249 Zr -0.02511 0.43096 -0.00173
 Zr250 Zr 0.01139 0.56569 0.00235
 O251 O 0.07071 0.52067 -0.00614
 O252 O 0.04984 0.44076 -0.00858
 O253 O 0.01176 0.53631 0.06781
 O254 O -0.02468 0.46065 -0.06691
 O255 O -0.01022 0.45706 0.06488
 O256 O -0.00298 0.54113 -0.06510
 H257 H -0.08490 0.58103 0.01372
 H258 H -0.03318 0.44068 -0.09398
 H259 H 0.10367 0.53377 -0.00866
 H260 H -0.01338 0.43623 0.09126
 H261 H -0.05683 0.53872 -0.13524
 H262 H 0.02425 0.51545 -0.14454
 H263 H 0.12912 0.44872 -0.05254
 H264 H 0.13496 0.43735 0.02411
 H265 H 0.05647 0.50620 0.13712
 H266 H -0.02396 0.51970 0.14625
 H267 H -0.15163 0.51330 0.05433
 H268 H -0.15256 0.54226 -0.01793
 O269 O 1.06930 -0.10132 0.55305
 O270 O 1.04942 -0.04665 0.60851
 C271 C 1.06770 -0.08628 0.59520
 O272 O 1.10201 0.05770 0.42409
 O273 O 1.03892 0.02926 0.38019
 C274 C 1.08082 0.04910 0.38507
 O275 O 1.12164 0.05554 0.55156
 O276 O 1.07094 0.03054 0.60801
 C277 C 1.11041 0.04977 0.59426
 O278 O 1.04312 -0.10478 0.42807
 O279 O 1.01389 -0.04804 0.38166
 C280 C 1.03161 -0.08900 0.38836
 Zr281 Zr 1.04409 -0.07050 0.49286
 O282 O 1.11673 -0.08689 0.47745
 O283 O 1.02935 -0.14269 0.49688
 Zr284 Zr 1.08014 0.04148 0.49120
 O285 O 1.15216 0.02134 0.47811
 O286 O 1.09862 0.11312 0.49148
 O287 O 1.07706 -0.01724 0.53171
 O288 O 1.06449 -0.01736 0.45117
 O289 O 0.88884 -0.05464 0.44944
 O290 O 0.93767 -0.02688 0.39272
 C291 C 0.89937 -0.04815 0.40674
 O292 O 0.95781 0.10721 0.57243
 O293 O 0.99219 0.05245 0.61814
 C294 C 0.97068 0.09187 0.61194
 O295 O 0.94535 0.10909 0.44578
 O296 O 0.96177 0.05272 0.39086
 C297 C 0.94612 0.09351 0.40371
 O298 O 0.90937 -0.05579 0.57781
 O299 O 0.97243 -0.02449 0.61969
 C300 C 0.93336 -0.04903 0.61596
 Zr301 Zr 0.92841 -0.03584 0.50961
 O302 O 0.85818 -0.00828 0.51733
 O303 O 0.90111 -0.10465 0.51395
 Zr304 Zr 0.96507 0.07598 0.50666
 O305 O 0.89150 0.09460 0.51173
 O306 O 0.98535 0.14726 0.50922
 Zr307 Zr 1.01448 0.00288 0.56773
 Zr308 Zr 0.99445 0.00231 0.43201
 O309 O 0.93272 0.02237 0.46924
 O310 O 0.94394 0.02299 0.55038
 O311 O 0.97730 -0.06227 0.46128
 O312 O 1.03099 0.06716 0.53812
 O313 O 0.98970 -0.06158 0.53994
 O314 O 1.01960 0.06726 0.45817
 H315 H 1.08797 -0.02625 0.42703
 H316 H 1.04235 0.09389 0.55755
 H317 H 0.90327 0.03064 0.45204
 H318 H 0.98474 -0.08915 0.55917
 H319 H 1.13403 0.11449 0.48747
 H320 H 1.01459 0.15014 0.49019
 H321 H 0.87930 0.08296 0.54114
 H322 H 0.85475 0.00263 0.54958
 H323 H 0.91701 -0.12367 0.48969
 H324 H 0.99426 -0.14653 0.49235
 H325 H 1.13613 -0.08073 0.50546
 H326 H 1.16037 -0.00309 0.50009
 N327 N 1.14955 0.03248 0.33498
 N328 N 1.17153 0.05163 0.29707
 C329 C 1.14472 0.08821 0.28370
 C330 C 1.10445 0.09201 0.31242
 C331 C 1.10950 0.05693 0.34402
 H332 H 1.07685 0.11851 0.31262
 H333 H 1.16323 0.00488 0.35365
 H334 H 1.20292 0.03814 0.28252
 N335 N 0.81765 -0.06072 0.37343
 N336 N 0.79844 -0.07953 0.33271
 C337 C 0.83524 -0.09688 0.30733
 C338 C 0.87831 -0.08833 0.33086
 C339 C 0.86568 -0.06583 0.37158
 H340 H 0.91452 -0.09684 0.31999
 H341 H 0.79782 -0.04466 0.39970
 H342 H 0.76161 -0.08200 0.32575
 N343 N 0.96565 0.16918 0.65058
 N344 N 0.94623 0.18762 0.68796
 C345 C 0.92818 0.15301 0.71348
 C346 C 0.93773 0.11042 0.69139
 C347 C 0.96105 0.12253 0.65158
 H348 H 0.92574 0.07593 0.70058
 H349 H 0.97969 0.18851 0.62381
 H350 H 0.94259 0.22351 0.69374
 N351 N 1.08605 -0.16497 0.62181
 N352 N 1.09954 -0.18560 0.66238
 C353 C 1.10711 -0.15122 0.69420
 C354 C 1.09810 -0.10819 0.67457
 C355 C 1.08479 -0.11858 0.62959
 H356 H 1.09964 -0.07388 0.69088
 H357 H 1.07696 -0.18317 0.59153
 H358 H 1.10542 -0.22134 0.66520
 N359 N 0.39625 1.18468 1.08745
 N360 N 0.35394 1.20468 1.10447
 C361 C 0.32990 1.17160 1.12753
 C362 C 0.35634 1.13048 1.12562
 C363 C 0.39692 1.13990 1.10011
 H364 H 0.34509 1.09633 1.13659
 H365 H 0.41935 1.20028 1.06411
 H366 H 0.34352 1.23901 1.09894
 N367 N 0.27801 0.98853 0.92381
 N368 N 0.23981 0.96757 0.90536
 C369 C 0.25103 0.92278 0.89540
 C370 C 0.29859 0.91502 0.90722
 C371 C 0.31442 0.95768 0.92493
 H372 H 0.31895 0.88311 0.90285
 H373 H 0.27921 1.02354 0.93463
 H374 H 0.20674 0.98371 0.89983
 N375 N 0.63269 0.82577 1.05116
 N376 N 0.67393 0.80764 1.07125
 C377 C 0.68811 0.83741 1.10549
 C378 C 0.65571 0.87456 1.10791
 C379 C 0.62203 0.86587 1.07355
 H380 H 0.65815 0.90600 1.12914
 H381 H 0.61584 0.81208 1.02170
 H382 H 0.68971 0.77631 1.06049
 N383 N 0.69321 1.01231 0.87682
 N384 N 0.73054 1.03466 0.85402
 C385 C 0.72264 1.08118 0.85724
 C386 C 0.67965 1.08895 0.88070
 C387 C 0.66283 1.04542 0.89233
 H388 H 0.66269 1.12190 0.88934
 H389 H 0.69029 0.97633 0.88109
 H390 H 0.76064 1.01745 0.84070
 N391 N 0.02145 0.29609 0.08834
 N392 N 0.04197 0.26317 0.11238
 C393 C 0.08798 0.27571 0.12135
 C394 C 0.09697 0.31887 0.10240
 C395 C 0.05382 0.33045 0.08176
 H396 H 0.13009 0.33898 0.10346
 H397 H -0.01439 0.29523 0.07734
 H398 H 0.02480 0.23228 0.12154
 N399 N -0.19076 0.39238 -0.10379
 N400 N -0.20831 0.35419 -0.12436
 C401 C -0.17748 0.31887 -0.11755
 C402 C -0.13925 0.33483 -0.09131
 C403 C -0.14884 0.38152 -0.08338
 H404 H -0.10724 0.31582 -0.08202
 H405 H -0.20642 0.42538 -0.10514
 H406 H -0.23936 0.35306 -0.14465
 N407 N 0.14481 0.60690 -0.13257
 N408 N 0.16485 0.64474 -0.14914
 C409 C 0.14911 0.68227 -0.12499
 C410 C 0.11726 0.66783 -0.09171
 C411 C 0.11531 0.61971 -0.09798
 H412 H 0.09552 0.68945 -0.06903
 H413 H 0.14987 0.57317 -0.14606
 H414 H 0.18698 0.64497 -0.17800
 N415 N -0.02745 0.66391 0.15530
 N416 N -0.04779 0.70085 0.17502
 C417 C -0.07920 0.71950 0.14526
 C418 C -0.07789 0.69329 0.10456
 C419 C -0.04477 0.65856 0.11244
 H420 H -0.10017 0.69687 0.07458
 H421 H -0.00373 0.64158 0.17172
 H422 H -0.04208 0.71106 0.20918
 N423 N 1.19152 0.06537 0.62788
 N424 N 1.20973 0.08596 0.66819
 C425 C 1.17210 0.10188 0.69344
 C426 C 1.12954 0.09074 0.67014
 C427 C 1.14331 0.06798 0.62980
 H428 H 1.09297 0.09808 0.68074
 H429 H 1.21218 0.05045 0.60156
 H430 H 1.24643 0.09062 0.67481
 N431 N 0.95831 -0.08963 0.68466
 N432 N 0.93975 -0.12079 0.71564
 C433 C 0.89218 -0.12577 0.70719
 C434 C 0.87976 -0.09830 0.66977
 C435 C 0.92251 -0.07660 0.65666
 H436 H 0.84482 -0.09531 0.65363
 H437 H 0.99465 -0.08027 0.68280
 H438 H 0.95972 -0.13408 0.74264
 N439 N 1.03515 -0.16666 0.35005
 N440 N 1.05328 -0.18518 0.31211
 C441 C 1.07055 -0.15064 0.28603
 C442 C 1.06197 -0.10805 0.30829
 C443 C 1.03984 -0.12004 0.34877
 H444 H 1.07375 -0.07364 0.29857
 H445 H 1.02189 -0.18589 0.37723
 H446 H 1.05656 -0.22109 0.30616
 N447 N 0.92825 0.17175 0.37508
 N448 N 0.91069 0.19088 0.33512
 C449 C 0.90013 0.15541 0.30519
 C450 C 0.91136 0.11321 0.32544
 C451 C 0.92889 0.12518 0.36879
 H452 H 0.90762 0.07828 0.31085
 H453 H 0.93909 0.19091 0.40427
 H454 H 0.90410 0.22643 0.33183
 N455 N 0.00828 0.30800 -0.12529
 N456 N 0.03252 0.27203 -0.14856
 C457 C 0.08014 0.27731 -0.13983
 C458 C 0.08695 0.31719 -0.11202
 C459 C 0.04153 0.33508 -0.10389
 H460 H 0.12054 0.33215 -0.09960
 H461 H -0.02891 0.31322 -0.12599
 H462 H 0.01540 0.24493 -0.16694
 N463 N -0.16324 0.39079 0.12863
 N464 N -0.18140 0.35276 0.14660
 C465 C -0.16365 0.31521 0.12388
 C466 C -0.13260 0.32978 0.09010
 C467 C -0.13305 0.37800 0.09458
 H468 H -0.10929 0.30837 0.06871
 H469 H -0.16951 0.42467 0.14121
 H470 H -0.20326 0.35256 0.17565
 N471 N -0.11031 0.68696 -0.03276
 N472 N -0.13770 0.72083 -0.05371
 C473 C -0.12546 0.72105 -0.09840
 C474 C -0.09005 0.68737 -0.10668
 C475 C -0.08212 0.66675 -0.06474
 H476 H -0.07522 0.67644 -0.13945
 H477 H -0.11584 0.67546 0.00040
 H478 H -0.16243 0.74215 -0.03643
 N479 N 0.18033 0.61715 0.07491
 N480 N 0.19839 0.65977 0.09199
 C481 C 0.16206 0.68217 0.11388
 C482 C 0.12071 0.65464 0.11080
 C483 C 0.13352 0.61487 0.08635
 H484 H 0.08454 0.66367 0.12142
 H485 H 0.19898 0.59393 0.05335
 H486 H 0.23396 0.67098 0.08817
 N487 N 0.39386 1.18570 0.91352
 N488 N 0.35695 1.20516 0.89278
 C489 C 0.31983 1.17471 0.89215
 C490 C 0.33325 1.13450 0.91381
 C491 C 0.38042 1.14291 0.92683
 H492 H 0.31290 1.10236 0.91635
 H493 H 0.42802 1.20087 0.91700
 H494 H 0.35816 1.23749 0.87711
 N495 N 0.29788 0.98430 1.10863
 N496 N 0.26187 0.96323 1.12930
 C497 C 0.27231 0.91753 1.13263
 C498 C 0.31746 0.90937 1.11371
 C499 C 0.33223 0.95261 1.09882
 H500 H 0.33622 0.87650 1.10989
 H501 H 0.29853 1.01972 1.10099
 H502 H 0.23001 0.97979 1.13928
 N503 N 0.71625 1.00676 1.08506
 N504 N 0.75387 1.02685 1.10560
 C505 C 0.74372 1.07224 1.11386
 C506 C 0.69752 1.08122 1.09871
 C507 C 0.68140 1.03892 1.08072
 H508 H 0.67841 1.11405 1.10029
 H509 H 0.71442 0.97161 1.07475
 H510 H 0.78608 1.00990 1.11299
 N511 N 0.59146 0.88135 0.82963
 N512 N 0.62929 0.86506 0.80704
 C513 C 0.66583 0.86026 0.83693
 C514 C 0.65082 0.87433 0.88027
 C515 C 0.60354 0.88754 0.87414
 H516 H 0.67191 0.87631 0.91151
 H517 H 0.55861 0.88965 0.81441
 H518 H 0.62990 0.85744 0.77188
   
