data_POSCAR
  _audit_creation_date              2014-09-24
  _audit_creation_method            'ToBaCCo'
  _symmetry_space_group_name_H-M    'P1'
  _symmetry_Int_Tables_number       1
  _symmetry_cell_setting            triclinic
  loop_
  _symmetry_equiv_pos_as_xyz
 x,y,z
_cell_length_a 20.8620
_cell_length_b 18.2082
_cell_length_c 11.0239
_cell_angle_alpha 90.020300
_cell_angle_beta 89.973700
_cell_angle_gamma 90.142700
loop_
  _atom_site_label
  _atom_site_type_symbol
  _atom_site_fract_x
  _atom_site_fract_y
  _atom_site_fract_z
O1 O 0.72746 0.34322 0.60828
 O2 O 0.82362 0.26197 0.36302
 O3 O 0.72742 0.34411 0.38617
 O4 O 0.83290 0.25637 0.61135
 O5 O 0.77013 0.15848 0.62043
 O6 O 0.67040 0.24168 0.38088
 O7 O 0.77767 0.15509 0.40024
 O8 O 0.67277 0.23976 0.62779
 Cu9 Cu 0.78635 0.30962 0.49575
 Cu10 Cu 0.71455 0.19046 0.50267
 C11 C 0.68231 0.30647 0.65622
 C12 C 0.81882 0.19341 0.34366
 C13 C 0.68024 0.30744 0.34642
 C14 C 0.81988 0.19308 0.65364
 O15 O 0.17200 0.74311 0.37673
 O16 O 0.27977 0.65617 0.59637
 O17 O 0.17298 0.74239 0.62351
 O18 O 0.26889 0.66126 0.37644
 O19 O 0.33228 0.75866 0.38359
 O20 O 0.23079 0.84422 0.61805
 O21 O 0.32755 0.76208 0.63294
 O22 O 0.22705 0.84636 0.39553
 Cu23 Cu 0.21534 0.69248 0.49813
 Cu24 Cu 0.28782 0.81104 0.50368
 C25 C 0.18120 0.80999 0.34904
 C26 C 0.32225 0.69344 0.65134
 C27 C 0.18385 0.80766 0.65923
 C28 C 0.31828 0.69570 0.34090
 O29 O 0.27986 0.34604 -0.59754
 O30 O 0.16954 0.25914 -0.38105
 O31 O 0.27118 0.33935 -0.38257
 O32 O 0.17672 0.26095 -0.63430
 O33 O 0.21791 0.15218 -0.59545
 O34 O 0.33108 0.23928 -0.38448
 O35 O 0.22973 0.15930 -0.38110
 O36 O 0.32128 0.23749 -0.63747
 Cu37 Cu 0.21509 0.30919 -0.50169
 Cu38 Cu 0.28419 0.18920 -0.50321
 C39 C 0.31954 0.30653 -0.65489
 C40 C 0.18183 0.19501 -0.34204
 C41 C 0.31936 0.30353 -0.34522
 C42 C 0.17784 0.19188 -0.65132
 O43 O -0.16657 0.74175 -0.38837
 O44 O -0.27258 0.65601 -0.61614
 O45 O -0.17535 0.73727 -0.63703
 O46 O -0.27289 0.65530 -0.39373
 O47 O -0.32677 0.75895 -0.37320
 O48 O -0.22087 0.84407 -0.59924
 O49 O -0.32899 0.75856 -0.62016
 O50 O -0.22862 0.83983 -0.37871
 Cu51 Cu -0.21347 0.68933 -0.50529
 Cu52 Cu -0.28436 0.80870 -0.49730
 C53 C -0.17915 0.80497 -0.34547
 C54 C -0.31951 0.69298 -0.65567
 C55 C -0.17982 0.80588 -0.65592
 C56 C -0.31783 0.69206 -0.34557
 N57 N -0.06472 0.86653 -0.13270
 N58 N -0.10579 0.81457 -0.16544
 N59 N 0.06994 0.92259 -0.20722
 N60 N 0.11295 0.91062 -0.29225
 N61 N 0.06911 0.86845 -0.12858
 N62 N 0.11043 0.81684 -0.16070
 N63 N -0.06536 0.92076 -0.21128
 N64 N -0.10778 0.90831 -0.29727
 C65 C -0.13301 0.84254 -0.26712
 C66 C 0.13830 0.84520 -0.26159
 N67 N 0.06752 1.13363 -0.12914
 N68 N 0.10849 1.18576 -0.16171
 N69 N -0.06627 1.07840 -0.21171
 N70 N -0.10860 1.09021 -0.29803
 N71 N -0.06620 1.13273 -0.13325
 N72 N -0.10754 1.18402 -0.16617
 N73 N 0.06896 1.07915 -0.20724
 N74 N 0.11202 1.09134 -0.29207
 Mn75 Mn 0.00174 1.00023 -0.20949
 C76 C 0.13677 1.15726 -0.26208
 C77 C -0.13436 1.15562 -0.26786
 N78 N 0.06666 0.86920 0.13569
 N79 N 0.10922 0.81908 0.16789
 N80 N -0.07096 0.92192 0.20714
 N81 N -0.11497 0.90958 0.29051
 N82 N -0.06681 0.86636 0.13178
 N83 N -0.10733 0.80977 0.17071
 N84 N 0.06527 0.92292 0.21513
 N85 N 0.10805 0.91208 0.30120
 Mn86 Mn 0.00116 0.86671 0.00161
 C87 C 0.13553 0.84772 0.27000
 C88 C -0.13712 0.84119 0.26705
 N89 N -0.06865 1.13381 0.13049
 N90 N -0.10947 1.18988 0.16938
 N91 N 0.06500 1.07983 0.21323
 N92 N 0.10847 1.09112 0.29804
 N93 N 0.06413 1.13450 0.13577
 N94 N 0.10617 1.18963 0.17443
 N95 N -0.07191 1.07854 0.20650
 N96 N -0.11580 1.09045 0.29023
 Mn97 Mn -0.00070 1.13455 0.00096
 Mn98 Mn -0.00325 1.00084 0.21088
 Cl99 Cl -0.00021 1.00053 0.00095
 C100 C -0.13868 1.15834 0.26629
 C101 C 0.13338 1.15818 0.27327
 N102 N 0.56794 0.42102 -0.21056
 N103 N 0.61112 0.40947 -0.29551
 N104 N 0.43374 0.36494 -0.13269
 N105 N 0.39275 0.31284 -0.16522
 N106 N 0.43264 0.41924 -0.21094
 N107 N 0.38997 0.40688 -0.29636
 N108 N 0.56765 0.36708 -0.13148
 N109 N 0.60956 0.31603 -0.16316
 C110 C 0.63720 0.34450 -0.26423
 C111 C 0.36506 0.34103 -0.26629
 N112 N 0.42927 0.42115 0.20667
 N113 N 0.38562 0.40915 0.29084
 N114 N 0.56619 0.36757 0.13296
 N115 N 0.60772 0.31646 0.16585
 N116 N 0.56534 0.42139 0.21229
 N117 N 0.60754 0.40963 0.29892
 N118 N 0.43290 0.36533 0.13166
 N119 N 0.39223 0.30905 0.17148
 Mn120 Mn 0.50025 0.36530 0.00010
 C121 C 0.36308 0.34080 0.26826
 C122 C 0.63394 0.34459 0.26831
 N123 N 0.43050 0.57540 -0.20996
 N124 N 0.38450 0.58751 -0.29881
 N125 N 0.56727 0.63151 -0.13323
 N126 N 0.60927 0.68263 -0.16515
 N127 N 0.56718 0.57752 -0.21216
 N128 N 0.61044 0.58897 -0.29714
 N129 N 0.43402 0.63256 -0.13777
 N130 N 0.39619 0.68595 -0.17693
 Mn131 Mn 0.49953 0.49845 -0.21117
 C132 C 0.36527 0.65670 -0.27427
 C133 C 0.63675 0.65407 -0.26619
 N134 N 0.56516 0.57866 0.21082
 N135 N 0.60759 0.59075 0.29696
 N136 N 0.43173 0.63287 0.12769
 N137 N 0.39140 0.68540 0.16038
 N138 N 0.42987 0.57847 0.20594
 N139 N 0.38723 0.59133 0.29125
 N140 N 0.56554 0.63248 0.13145
 N141 N 0.60722 0.68387 0.16395
 Mn142 Mn 0.49731 0.49991 0.20910
 Mn143 Mn 0.49975 0.63329 -0.00290
 Cl144 Cl 0.49935 0.49921 -0.00107
 C145 C 0.63380 0.65594 0.26625
 C146 C 0.36309 0.65743 0.26118
   
