data_POSCAR
  _audit_creation_date              2014-09-24
  _audit_creation_method            'ToBaCCo'
  _symmetry_space_group_name_H-M    'P1'
  _symmetry_Int_Tables_number       1
  _symmetry_cell_setting            triclinic
  loop_
  _symmetry_equiv_pos_as_xyz
 x,y,z
_cell_length_a 29.8469
_cell_length_b 28.9715
_cell_length_c 29.8665
_cell_angle_alpha 91.990900
_cell_angle_beta 81.730800
_cell_angle_gamma 98.779300
loop_
  _atom_site_label
  _atom_site_type_symbol
  _atom_site_fract_x
  _atom_site_fract_y
  _atom_site_fract_z
C1 C 0.60122 0.57531 0.00062
 C2 C 0.60283 0.52715 -0.00494
 C3 C 0.56104 0.49704 -0.00452
 C4 C 0.51860 0.51352 0.00429
 C5 C 0.51849 0.56206 0.01254
 C6 C 0.55975 0.59375 0.01054
 C7 C 0.47488 0.47976 0.00375
 C8 C 0.43533 0.49525 -0.00728
 C9 C 0.39486 0.46404 -0.01034
 C10 C 0.39488 0.41619 -0.00424
 C11 C 0.43303 0.39952 0.00814
 C12 C 0.47258 0.43157 0.01274
 H13 H 0.63284 0.59910 -0.00640
 H14 H 0.56127 0.46022 -0.01015
 H15 H 0.48635 0.57490 0.02237
 H16 H 0.43584 0.53179 -0.01351
 H17 H 0.36494 0.39148 -0.00941
 H18 H 0.50097 0.41862 0.02430
 C19 C 0.01157 0.58064 0.40292
 C20 C 0.02163 0.59642 0.44612
 C21 C 0.01133 0.56455 0.48192
 C22 C -0.01256 0.51974 0.47667
 C23 C -0.02465 0.50599 0.43393
 C24 C -0.01008 0.53459 0.39571
 C25 C -0.02247 0.48647 0.51521
 C26 C -0.02406 0.43850 0.50661
 C27 C -0.03065 0.40658 0.54190
 C28 C -0.03082 0.42328 0.58655
 C29 C -0.02740 0.47148 0.59622
 C30 C -0.02657 0.50225 0.56054
 H31 H 0.02400 0.60351 0.37461
 H32 H 0.02000 0.57518 0.51489
 H33 H -0.04631 0.47295 0.43076
 H34 H -0.01855 0.42558 0.47214
 H35 H -0.03256 0.39869 0.61336
 H36 H -0.02803 0.53874 0.56825
 C37 C 0.59294 -0.01399 0.58154
 C38 C 0.54571 -0.02037 0.59723
 C39 C 0.51485 -0.01759 0.56651
 C40 C 0.53020 -0.00647 0.52089
 C41 C 0.57777 0.00031 0.50620
 C42 C 0.61010 -0.00446 0.53556
 C43 C 0.49658 -0.00225 0.48866
 C44 C 0.50779 -0.00968 0.44176
 C45 C 0.47747 -0.00338 0.41139
 C46 C 0.43296 0.00453 0.42864
 C47 C 0.41979 0.01028 0.47545
 C48 C 0.45295 0.00967 0.50454
 H49 H 0.61590 -0.01573 0.60602
 H50 H 0.47861 -0.02378 0.57866
 H51 H 0.58917 0.00811 0.47120
 H52 H 0.54020 -0.02035 0.42815
 H53 H 0.40897 0.00668 0.40527
 H54 H 0.44475 0.01911 0.53970
 O55 O 0.45605 -0.02762 -0.04741
 O56 O 0.46769 -0.01584 0.07434
 O57 O 0.44190 0.03674 0.01629
 O58 O 0.47756 -0.08012 0.01270
 O59 O 0.54946 -0.04671 -0.00306
 O60 O 0.51330 0.07026 -0.00229
 O61 O 0.53882 0.01881 0.05617
 O62 O 0.52782 0.00542 -0.06458
 Cu63 Cu 0.45345 -0.02456 0.01541
 Cu64 Cu 0.53937 0.01526 -0.00562
 C65 C 0.49037 -0.01396 -0.07681
 C66 C 0.50571 0.00313 0.08594
 C67 C 0.47108 0.07343 0.00855
 C68 C 0.51998 -0.08315 0.00547
 O69 O -0.06386 0.52675 1.00140
 O70 O 0.06208 0.54364 0.99349
 O71 O 0.00413 0.54429 0.93731
 O72 O -0.00615 0.53014 1.06021
 O73 O -0.00860 0.45401 1.05070
 O74 O 0.00254 0.46814 0.92739
 O75 O 0.06024 0.46731 0.98571
 O76 O -0.06462 0.45084 0.99102
 Cu77 Cu -0.00082 0.54383 0.99952
 Cu78 Cu -0.00241 0.45245 0.98795
 C79 C -0.08553 0.48601 0.99615
 C80 C 0.08256 0.50807 0.98793
 C81 C 0.00444 0.50863 0.91145
 C82 C -0.00937 0.48973 1.07658
 O83 O 0.02898 -0.05880 0.46109
 O84 O 0.02203 0.06578 0.46236
 O85 O 0.08632 0.01632 0.47278
 O86 O -0.03530 -0.00750 0.45581
 O87 O -0.05579 -0.01111 0.52979
 O88 O 0.06509 0.01480 0.54668
 O89 O 0.00132 0.06448 0.53651
 O90 O 0.01048 -0.06060 0.53543
 Cu91 Cu 0.02780 0.00389 0.45557
 Cu92 Cu 0.00313 0.00156 0.54455
 C93 C 0.02221 -0.08066 0.49803
 C94 C 0.00870 0.08585 0.49914
 C95 C 0.09638 0.01883 0.51287
 C96 C -0.06631 -0.01158 0.49004
 C97 C -0.27472 0.51839 1.00212
 C98 C -0.27106 0.47544 0.98238
 C99 C -0.30720 0.44809 0.96519
 C100 C -0.34896 0.46559 0.96873
 C101 C -0.35442 0.50988 0.98981
 C102 C -0.31583 0.53621 1.00667
 O103 O -0.23612 0.53949 1.01545
 C104 C -0.20735 0.50912 1.00380
 C105 C -0.22709 0.46915 0.98372
 C106 C -0.20306 0.43273 0.96893
 C107 C -0.15665 0.43804 0.97455
 C108 C -0.13522 0.47951 0.99417
 C109 C -0.16123 0.51537 1.00928
 H110 H -0.30325 0.41467 0.94898
 H111 H -0.37602 0.44480 0.95333
 H112 H -0.31748 0.56905 1.02470
 H113 H -0.21930 0.40156 0.95327
 H114 H -0.13719 0.41035 0.96250
 H115 H -0.14595 0.54742 1.02432
 C116 C 0.26932 0.47501 0.99467
 C117 C 0.27181 0.51476 0.97008
 C118 C 0.31319 0.53898 0.94978
 C119 C 0.35354 0.52166 0.95535
 C120 C 0.35201 0.48127 0.98171
 C121 C 0.30884 0.45791 1.00158
 O122 O 0.22682 0.45623 1.01011
 C123 C 0.20180 0.48484 0.99512
 C124 C 0.22758 0.52159 0.97085
 C125 C 0.20798 0.55617 0.95289
 C126 C 0.15994 0.55232 0.95989
 C127 C 0.13283 0.51384 0.98356
 C128 C 0.15419 0.47978 1.00151
 H129 H 0.31435 0.56981 0.92994
 H130 H 0.38575 0.53962 0.93872
 H131 H 0.30576 0.42764 1.02265
 H132 H 0.22888 0.58496 0.93416
 H133 H 0.14382 0.57849 0.94585
 H134 H 0.13429 0.45022 1.01995
 C135 C 0.03453 -0.27430 0.44628
 C136 C 0.05554 -0.26405 0.48419
 C137 C 0.07195 -0.29734 0.50696
 C138 C 0.06419 -0.34361 0.49150
 C139 C 0.03897 -0.35626 0.45460
 C140 C 0.02640 -0.32007 0.43023
 O141 O 0.01924 -0.23798 0.43117
 C142 C 0.03043 -0.20430 0.46052
 C143 C 0.05237 -0.21857 0.49388
 C144 C 0.06342 -0.19019 0.53041
 C145 C 0.05194 -0.14496 0.53222
 C146 C 0.03046 -0.12917 0.49750
 C147 C 0.01971 -0.15920 0.46108
 H148 H 0.08898 -0.28826 0.53639
 H149 H 0.07743 -0.36944 0.50911
 H150 H 0.00631 -0.32728 0.40271
 H151 H 0.07971 -0.20262 0.55682
 H152 H 0.06060 -0.12191 0.56004
 H153 H 0.00276 -0.14804 0.43451
 C154 C -0.01526 0.27951 0.53894
 C155 C -0.03716 0.26406 0.50254
 C156 C -0.06005 0.29205 0.47990
 C157 C -0.05946 0.33839 0.49474
 C158 C -0.03523 0.35607 0.53085
 C159 C -0.01356 0.32575 0.55384
 O160 O 0.00459 0.24704 0.55535
 C161 C -0.00472 0.21052 0.52840
 C162 C -0.02975 0.21944 0.49525
 C163 C -0.04135 0.18717 0.46184
 C164 C -0.02691 0.14359 0.46289
 C165 C -0.00221 0.13311 0.49744
 C166 C 0.00895 0.16689 0.53082
 H167 H -0.07738 0.27883 0.45160
 H168 H -0.07723 0.36074 0.47749
 H169 H 0.00571 0.33808 0.58106
 H170 H -0.06058 0.19533 0.43582
 H171 H -0.03599 0.11753 0.43753
 H172 H 0.02796 0.15955 0.55735
 C173 C 0.53239 -0.01178 -0.27458
 C174 C 0.49253 -0.04217 -0.26318
 C175 C 0.46931 -0.06759 -0.29535
 C176 C 0.48762 -0.06103 -0.34111
 C177 C 0.52827 -0.02908 -0.35398
 C178 C 0.55100 -0.00441 -0.31985
 O179 O 0.54936 0.00864 -0.23889
 C180 C 0.51954 -0.00918 -0.20422
 C181 C 0.48397 -0.04026 -0.21719
 C182 C 0.44870 -0.06262 -0.18621
 C183 C 0.45045 -0.05290 -0.13999
 C184 C 0.48728 -0.02161 -0.12566
 C185 C 0.52216 0.00069 -0.15852
 H186 H 0.43821 -0.09166 -0.28560
 H187 H 0.47011 -0.08097 -0.36647
 H188 H 0.58167 0.02066 -0.32819
 H189 H 0.42095 -0.08685 -0.19721
 H190 H 0.42359 -0.07045 -0.11541
 H191 H 0.55071 0.02480 -0.14887
 C192 C 0.47984 -0.01188 0.28378
 C193 C 0.52344 0.01035 0.26982
 C194 C 0.55391 0.02694 0.29974
 C195 C 0.53867 0.02096 0.34608
 C196 C 0.49364 -0.00154 0.36180
 C197 C 0.46401 -0.01861 0.32981
 O198 O 0.45607 -0.02392 0.24971
 C199 C 0.48534 -0.00879 0.21354
 C200 C 0.52701 0.01241 0.22412
 C201 C 0.56249 0.03152 0.19170
 C202 C 0.55486 0.02847 0.14640
 C203 C 0.51222 0.00665 0.13427
 C204 C 0.47693 -0.01221 0.16859
 H205 H 0.58792 0.04475 0.28789
 H206 H 0.56158 0.03534 0.36974
 H207 H 0.42957 -0.03609 0.34030
 H208 H 0.59491 0.04823 0.20095
 H209 H 0.58233 0.04310 0.12081
 H210 H 0.44402 -0.02904 0.16062
 C211 C 0.52992 -0.28435 0.01125
 C212 C 0.56952 -0.25944 0.02310
 C213 C 0.60488 -0.28052 0.03440
 C214 C 0.60010 -0.32930 0.03215
 C215 C 0.56079 -0.35696 0.01741
 C216 C 0.52440 -0.33340 0.00833
 O217 O 0.50054 -0.25690 0.00195
 C218 C 0.52239 -0.21392 0.00793
 C219 C 0.56490 -0.21376 0.02054
 C220 C 0.59452 -0.17293 0.02706
 C221 C 0.57963 -0.13029 0.02076
 C222 C 0.53550 -0.12902 0.00883
 C223 C 0.50643 -0.17166 0.00233
 H224 H 0.63525 -0.26007 0.04473
 H225 H 0.62729 -0.34513 0.04283
 H226 H 0.49385 -0.35193 -0.00332
 H227 H 0.62803 -0.17386 0.03655
 H228 H 0.60216 -0.09819 0.02616
 H229 H 0.47267 -0.17187 -0.00702
 C230 C 0.46100 0.27518 0.00696
 C231 C 0.42016 0.25230 0.02826
 C232 C 0.38368 0.27528 0.04547
 C233 C 0.38909 0.32377 0.03988
 C234 C 0.43032 0.34858 0.01692
 C235 C 0.46716 0.32373 0.00088
 O236 O 0.49109 0.24636 -0.00712
 C237 C 0.46858 0.20447 0.00549
 C238 C 0.42498 0.20633 0.02708
 C239 C 0.39492 0.16673 0.04223
 C240 C 0.41039 0.12333 0.03518
 C241 C 0.45545 0.12001 0.01357
 C242 C 0.48496 0.16148 -0.00151
 H243 H 0.35197 0.25648 0.06237
 H244 H 0.36086 0.34200 0.05323
 H245 H 0.49893 0.34134 -0.01706
 H246 H 0.36064 0.16912 0.05888
 H247 H 0.38730 0.09233 0.04718
 H248 H 0.51945 0.16032 -0.01823
 C249 C -0.26512 -0.01730 0.52490
 C250 C -0.24925 0.00246 0.48350
 C251 C -0.27689 0.02254 0.45875
 C252 C -0.32305 0.02153 0.47689
 C253 C -0.34191 -0.00069 0.51900
 C254 C -0.31122 -0.01989 0.54323
 O255 O -0.23253 -0.03228 0.54405
 C256 C -0.19532 -0.02175 0.51388
 C257 C -0.20388 -0.00094 0.47596
 C258 C -0.16988 0.01327 0.44018
 C259 C -0.12497 0.00678 0.44408
 C260 C -0.11474 -0.01284 0.48367
 C261 C -0.15072 -0.02790 0.51882
 H262 H -0.26317 0.03938 0.42686
 H263 H -0.34288 0.03984 0.45800
 H264 H -0.32228 -0.03815 0.57471
 H265 H -0.17750 0.02960 0.41067
 H266 H -0.09789 0.01910 0.41715
 H267 H -0.14403 -0.04255 0.54962
 C268 C 0.29606 0.03268 0.48521
 C269 C 0.27991 0.01826 0.52862
 C270 C 0.30725 0.00197 0.55655
 C271 C 0.35308 0.00005 0.53892
 C272 C 0.37140 0.01549 0.49428
 C273 C 0.34199 0.03279 0.46750
 O274 O 0.26343 0.04290 0.46294
 C275 C 0.22588 0.03474 0.49306
 C276 C 0.23430 0.02017 0.53398
 C277 C 0.19985 0.00803 0.56986
 C278 C 0.15472 0.01019 0.56310
 C279 C 0.14471 0.02339 0.52065
 C280 C 0.18107 0.03650 0.48532
 H281 H 0.29334 -0.01061 0.59015
 H282 H 0.37350 -0.01519 0.55986
 H283 H 0.35379 0.04529 0.43355
 H284 H 0.20734 -0.00368 0.60163
 H285 H 0.12743 -0.00040 0.59041
 H286 H 0.17460 0.04621 0.45242
 C287 C -0.01680 0.52720 1.27119
 C288 C -0.01991 0.47984 1.26411
 C289 C -0.02123 0.44883 1.29869
 C290 C -0.01882 0.46732 1.34240
 C291 C -0.01531 0.51652 1.35142
 C292 C -0.01479 0.54652 1.31445
 O293 O -0.01461 0.55071 1.23336
 C294 C -0.01613 0.51734 1.20176
 C295 C -0.01944 0.47332 1.21883
 C296 C -0.02029 0.43338 1.19160
 C297 C -0.01743 0.43907 1.14476
 C298 C -0.01369 0.48419 1.12614
 C299 C -0.01331 0.52383 1.15534
 H300 H -0.02287 0.41167 1.29210
 H301 H -0.01712 0.44278 1.36832
 H302 H -0.01357 0.58387 1.31860
 H303 H -0.02264 0.39911 1.20585
 H304 H -0.01775 0.40834 1.12305
 H305 H -0.01023 0.55877 1.14235
 C306 C -0.02598 0.47973 0.72316
 C307 C 0.00071 0.52240 0.72672
 C308 C 0.01768 0.55074 0.68977
 C309 C 0.00735 0.53411 0.64724
 C310 C -0.02042 0.49013 0.64234
 C311 C -0.03784 0.46307 0.68145
 O312 O -0.03692 0.45731 0.76212
 C313 C -0.01667 0.48652 0.79086
 C314 C 0.00649 0.52705 0.77098
 C315 C 0.02991 0.56258 0.79496
 C316 C 0.02913 0.55617 0.84144
 C317 C 0.00603 0.51435 0.86251
 C318 C -0.01701 0.47897 0.83673
 H319 H 0.03932 0.58385 0.69331
 H320 H 0.02259 0.55500 0.61809
 H321 H -0.05939 0.42966 0.67970
 H322 H 0.04784 0.59420 0.77856
 H323 H 0.04678 0.58350 0.86094
 H324 H -0.03539 0.44698 0.85212
   
