data_POSCAR
  _audit_creation_date              2014-09-24
  _audit_creation_method            'ToBaCCo'
  _symmetry_space_group_name_H-M    'P1'
  _symmetry_Int_Tables_number       1
  _symmetry_cell_setting            triclinic
  loop_
  _symmetry_equiv_pos_as_xyz
 x,y,z
_cell_length_a 45.4245
_cell_length_b 52.8041
_cell_length_c 38.0743
_cell_angle_alpha 90.720700
_cell_angle_beta 88.169900
_cell_angle_gamma 89.031300
loop_
  _atom_site_label
  _atom_site_type_symbol
  _atom_site_fract_x
  _atom_site_fract_y
  _atom_site_fract_z
C1 C 1.27355 0.21733 0.26708
 C2 C 1.25357 0.23005 0.24589
 C3 C 1.23454 0.21635 0.22510
 C4 C 1.23527 0.18987 0.22511
 C5 C 1.25470 0.17719 0.24710
 C6 C 1.27400 0.19061 0.26868
 C7 C 1.25202 0.25785 0.24565
 C8 C 1.27468 0.27152 0.22945
 C9 C 1.27286 0.29816 0.22738
 C10 C 1.24784 0.31063 0.24295
 C11 C 1.22486 0.29700 0.25898
 C12 C 1.22712 0.27054 0.26005
 H13 H 1.28729 0.22857 0.28373
 H14 H 1.21967 0.22641 0.20824
 H15 H 1.29382 0.26112 0.21900
 H16 H 1.20937 0.25968 0.27171
 H17 H 1.25517 0.15670 0.24640
 H18 H 1.24535 0.33098 0.24151
 C19 C 0.77705 -0.28136 0.25770
 C20 C 0.75364 -0.26910 0.24137
 C21 C 0.73268 -0.28327 0.22413
 C22 C 0.73494 -0.30970 0.22276
 C23 C 0.75794 -0.32193 0.23998
 C24 C 0.77929 -0.30807 0.25796
 C25 C 0.75128 -0.24129 0.24143
 C26 C 0.77368 -0.22717 0.22553
 C27 C 0.77084 -0.20078 0.22336
 C28 C 0.74566 -0.18853 0.23825
 C29 C 0.72304 -0.20249 0.25444
 C30 C 0.72595 -0.22898 0.25563
 H31 H 0.79238 -0.26983 0.27173
 H32 H 0.71525 -0.27355 0.21059
 H33 H 0.79304 -0.23683 0.21420
 H34 H 0.70846 -0.24011 0.26731
 H35 H 0.75954 -0.34236 0.23811
 H36 H 0.74358 -0.16811 0.23688
 C37 C 0.77358 0.21946 -0.23170
 C38 C 0.75388 0.23193 -0.25344
 C39 C 0.73545 0.21795 -0.27477
 C40 C 0.73659 0.19141 -0.27472
 C41 C 0.75605 0.17902 -0.25242
 C42 C 0.77450 0.19290 -0.23069
 C43 C 0.75237 0.25968 -0.25400
 C44 C 0.77498 0.27316 -0.27056
 C45 C 0.77353 0.29981 -0.27237
 C46 C 0.74888 0.31248 -0.25623
 C47 C 0.72599 0.29900 -0.23977
 C48 C 0.72787 0.27252 -0.23895
 H49 H 0.78750 0.23046 -0.21492
 H50 H 0.72073 0.22785 -0.29199
 H51 H 0.79389 0.26260 -0.28133
 H52 H 0.71020 0.26180 -0.22685
 H53 H 0.75680 0.15851 -0.25189
 H54 H 0.74666 0.33287 -0.25744
 C55 C 1.27391 -0.28227 -0.23656
 C56 C 1.25448 -0.26918 -0.25802
 C57 C 1.23527 -0.28250 -0.27904
 C58 C 1.23532 -0.30897 -0.27903
 C59 C 1.25429 -0.32202 -0.25689
 C60 C 1.27368 -0.30898 -0.23499
 C61 C 1.25337 -0.24139 -0.25790
 C62 C 1.27623 -0.22784 -0.27387
 C63 C 1.27432 -0.20136 -0.27575
 C64 C 1.24957 -0.18855 -0.26066
 C65 C 1.22649 -0.20200 -0.24452
 C66 C 1.22853 -0.22852 -0.24353
 H67 H 1.28769 -0.27129 -0.21964
 H68 H 1.22070 -0.27215 -0.29595
 H69 H 1.29521 -0.23798 -0.28535
 H70 H 1.21066 -0.23929 -0.23199
 H71 H 1.25424 -0.34251 -0.25763
 H72 H 1.24814 -0.16809 -0.26188
 C73 C 0.21471 0.27455 0.74456
 C74 C 0.23018 0.25475 0.76014
 C75 C 0.21468 0.23471 0.77548
 C76 C 0.18353 0.23413 0.77564
 C77 C 0.16854 0.25434 0.75937
 C78 C 0.18389 0.27438 0.74365
 C79 C 0.26275 0.25409 0.75800
 C80 C 0.27903 0.27351 0.77316
 C81 C 0.31020 0.27351 0.77012
 C82 C 0.32433 0.25353 0.75053
 C83 C 0.30815 0.23412 0.73498
 C84 C 0.27739 0.23444 0.73931
 H85 H 0.22681 0.28986 0.73249
 H86 H 0.22736 0.21916 0.78590
 H87 H 0.26697 0.28892 0.78630
 H88 H 0.26466 0.21949 0.72774
 H89 H 0.14476 0.25499 0.75922
 H90 H 0.34807 0.25244 0.74784
 C91 C 0.71396 0.77550 0.74692
 C92 C 0.72907 0.75522 0.76186
 C93 C 0.71324 0.73527 0.77680
 C94 C 0.68213 0.73525 0.77727
 C95 C 0.66742 0.75597 0.76184
 C96 C 0.68292 0.77619 0.74618
 C97 C 0.76167 0.75417 0.75984
 C98 C 0.77825 0.77340 0.77503
 C99 C 0.80924 0.77275 0.77214
 C100 C 0.82339 0.75273 0.75303
 C101 C 0.80701 0.73354 0.73720
 C102 C 0.77616 0.73428 0.74131
 H103 H 0.72682 0.79085 0.73632
 H104 H 0.72563 0.71937 0.78675
 H105 H 0.76692 0.78894 0.78890
 H106 H 0.76322 0.71950 0.72967
 H107 H 0.64370 0.75628 0.76177
 H108 H 0.84719 0.75216 0.75029
 C109 C 0.71461 0.27654 0.24437
 C110 C 0.73024 0.25619 0.25864
 C111 C 0.71477 0.23601 0.27362
 C112 C 0.68378 0.23607 0.27472
 C113 C 0.66845 0.25654 0.26004
 C114 C 0.68365 0.27673 0.24449
 C115 C 0.76281 0.25540 0.25615
 C116 C 0.77928 0.27457 0.27160
 C117 C 0.81027 0.27396 0.26886
 C118 C 0.82453 0.25411 0.24955
 C119 C 0.80825 0.23496 0.23346
 C120 C 0.77738 0.23563 0.23744
 H121 H 0.72664 0.29199 0.23258
 H122 H 0.72695 0.22013 0.28407
 H123 H 0.76788 0.28996 0.28571
 H124 H 0.76451 0.22085 0.22570
 H125 H 0.64461 0.25661 0.26034
 H126 H 0.84834 0.25358 0.24696
 C127 C 0.21436 0.77514 0.24576
 C128 C 0.22965 0.75503 0.26094
 C129 C 0.21399 0.73485 0.27548
 C130 C 0.18291 0.73439 0.27532
 C131 C 0.16805 0.75493 0.25969
 C132 C 0.18334 0.77544 0.24454
 C133 C 0.26229 0.75475 0.26061
 C134 C 0.27760 0.77508 0.27514
 C135 C 0.30860 0.77499 0.27438
 C136 C 0.32409 0.75435 0.25851
 C137 C 0.30912 0.73400 0.24357
 C138 C 0.27817 0.73429 0.24503
 H139 H 0.22703 0.79075 0.23557
 H140 H 0.22648 0.71916 0.28585
 H141 H 0.26534 0.79097 0.28691
 H142 H 0.26634 0.71865 0.23378
 H143 H 0.14434 0.75491 0.25917
 H144 H 0.34795 0.75418 0.25762
 N145 N 1.05582 0.02406 0.03450
 N146 N 1.07539 0.04194 0.03853
 N147 N 1.03327 -0.02785 0.06057
 N148 N 1.03793 -0.04551 0.08411
 N149 N 1.05360 -0.02911 0.03532
 N150 N 1.07265 -0.04766 0.04098
 N151 N 1.03556 0.02531 0.05984
 N152 N 1.04078 0.04407 0.08184
 C153 C 1.06565 0.05434 0.06811
 C154 C 1.06249 -0.05787 0.07141
 N155 N 0.94940 -0.02402 0.03971
 N156 N 0.92923 -0.04107 0.04671
 N157 N 0.97235 0.02844 0.06271
 N158 N 0.96874 0.04723 0.08569
 N159 N 0.95175 0.02922 0.03932
 N160 N 0.93352 0.04861 0.04585
 N161 N 0.96992 -0.02463 0.06321
 N162 N 0.96426 -0.04206 0.08687
 Mn163 Mn 1.00277 0.00031 0.06194
 C164 C 0.93890 -0.05228 0.07610
 C165 C 0.94450 0.05976 0.07482
 N166 N 1.05313 -0.03012 -0.04016
 N167 N 1.07121 -0.04963 -0.04555
 N168 N 1.03531 0.02379 -0.06466
 N169 N 1.04069 0.04208 -0.08726
 N170 N 1.05567 0.02298 -0.04097
 N171 N 1.07540 0.04059 -0.04679
 N172 N 1.03292 -0.02952 -0.06405
 N173 N 1.03685 -0.04865 -0.08653
 Mn174 Mn 1.05485 -0.00307 -0.00287
 C175 C 1.06077 -0.06110 -0.07446
 C176 C 1.06581 0.05245 -0.07570
 N177 N 0.95159 0.02807 -0.03641
 N178 N 0.93343 0.04739 -0.04096
 N179 N 0.96922 -0.02651 -0.06145
 N180 N 0.96320 -0.04475 -0.08408
 N181 N 0.94898 -0.02513 -0.03604
 N182 N 0.92871 -0.04238 -0.04071
 N183 N 0.97175 0.02672 -0.06190
 N184 N 0.96776 0.04509 -0.08456
 Mn185 Mn 0.95009 0.00205 0.00164
 Mn186 Mn 1.00230 -0.00140 -0.06349
 Cl187 Cl 1.00248 -0.00055 -0.00072
 C188 C 0.94384 0.05793 -0.07100
 C189 C 0.93790 -0.05460 -0.07071
 N190 N 1.05457 0.52515 0.53490
 N191 N 1.07362 0.54349 0.53843
 N192 N 1.03366 0.47286 0.56103
 N193 N 1.03912 0.45537 0.58454
 N194 N 1.05364 0.47192 0.53537
 N195 N 1.07327 0.45375 0.54075
 N196 N 1.03462 0.52604 0.56059
 N197 N 1.03957 0.54499 0.58240
 C198 C 1.06393 0.55576 0.56813
 C199 C 1.06379 0.44344 0.57141
 N200 N 0.94966 0.47489 0.54159
 N201 N 0.93000 0.45746 0.54890
 N202 N 0.97136 0.52789 0.56464
 N203 N 0.96767 0.54664 0.58764
 N204 N 0.95038 0.52825 0.54173
 N205 N 0.93180 0.54735 0.54859
 N206 N 0.97036 0.47477 0.56485
 N207 N 0.96534 0.45734 0.58870
 Mn208 Mn 1.00250 0.50040 0.56313
 C209 C 0.94020 0.44655 0.57825
 C210 C 0.94296 0.55873 0.57729
 N211 N 1.05225 0.47129 0.45989
 N212 N 1.07038 0.45181 0.45445
 N213 N 1.03288 0.52514 0.43630
 N214 N 1.03798 0.54336 0.41346
 N215 N 1.05355 0.52441 0.45960
 N216 N 1.07319 0.54201 0.45333
 N217 N 1.03183 0.47172 0.43624
 N218 N 1.03565 0.45248 0.41391
 Mn219 Mn 1.05379 0.49815 0.49739
 C220 C 1.05978 0.44019 0.42576
 C221 C 1.06322 0.55380 0.42457
 N222 N 0.94925 0.52742 0.46615
 N223 N 0.92964 0.54564 0.46166
 N224 N 0.96815 0.47355 0.43997
 N225 N 0.96222 0.45554 0.41697
 N226 N 0.94827 0.47422 0.46582
 N227 N 0.92833 0.45670 0.46106
 N228 N 0.96905 0.52685 0.44024
 N229 N 0.96329 0.54470 0.41729
 Mn230 Mn 0.94907 0.50118 0.50383
 Mn231 Mn 1.00048 0.49934 0.43770
 Cl232 Cl 1.00143 0.49975 0.50047
 C233 C 0.93874 0.55642 0.43126
 C234 C 0.93737 0.44506 0.43057
 N235 N 0.55734 0.02485 0.53480
 N236 N 0.57705 0.04262 0.53876
 N237 N 0.53474 -0.02700 0.56083
 N238 N 0.53939 -0.04472 0.58425
 N239 N 0.55492 -0.02832 0.53540
 N240 N 0.57389 -0.04697 0.54088
 N241 N 0.53723 0.02613 0.56029
 N242 N 0.54268 0.04481 0.58234
 C243 C 0.56754 0.05499 0.56847
 C244 C 0.56380 -0.05718 0.57136
 N245 N 0.45077 -0.02300 0.54090
 N246 N 0.43082 -0.04028 0.54779
 N247 N 0.47402 0.02940 0.56385
 N248 N 0.47058 0.04816 0.58691
 N249 N 0.45327 0.03023 0.54068
 N250 N 0.43511 0.04961 0.54737
 N251 N 0.47146 -0.02368 0.56417
 N252 N 0.46617 -0.04137 0.58755
 Mn253 Mn 0.50436 0.00121 0.56264
 C254 C 0.44083 -0.05168 0.57689
 C255 C 0.44628 0.06071 0.57623
 N256 N 0.55384 -0.02909 0.45986
 N257 N 0.57162 -0.04880 0.45434
 N258 N 0.53606 0.02496 0.43590
 N259 N 0.54117 0.04343 0.41350
 N260 N 0.55660 0.02403 0.45935
 N261 N 0.57619 0.04179 0.45358
 N262 N 0.53342 -0.02835 0.43623
 N263 N 0.53688 -0.04757 0.41383
 Mn264 Mn 0.55599 -0.00216 0.49729
 C265 C 0.56077 -0.06022 0.42562
 C266 C 0.56631 0.05381 0.42493
 N267 N 0.45247 0.02936 0.46506
 N268 N 0.43405 0.04853 0.46063
 N269 N 0.46974 -0.02508 0.43953
 N270 N 0.46317 -0.04296 0.41659
 N271 N 0.44976 -0.02376 0.46523
 N272 N 0.42915 -0.04067 0.46049
 N273 N 0.47247 0.02814 0.43939
 N274 N 0.46814 0.04649 0.41676
 Mn275 Mn 0.45124 0.00321 0.50297
 Mn276 Mn 0.50293 -0.00009 0.43728
 Cl277 Cl 0.50361 0.00052 0.50002
 C278 C 0.44417 0.05916 0.43051
 C279 C 0.43785 -0.05265 0.43016
 N280 N 0.55030 0.52723 0.03693
 N281 N 0.56934 0.54545 0.04151
 N282 N 0.53002 0.47484 0.06333
 N283 N 0.53535 0.45761 0.08730
 N284 N 0.55058 0.47402 0.03833
 N285 N 0.57044 0.45625 0.04458
 N286 N 0.52967 0.52804 0.06185
 N287 N 0.53416 0.54676 0.08420
 C288 C 0.55889 0.55757 0.07100
 C289 C 0.56056 0.44601 0.07510
 N290 N 0.44658 0.47516 0.04044
 N291 N 0.42719 0.45742 0.04738
 N292 N 0.46620 0.52882 0.06331
 N293 N 0.46031 0.54713 0.08659
 N294 N 0.44613 0.52843 0.03927
 N295 N 0.42611 0.54647 0.04548
 N296 N 0.46662 0.47568 0.06451
 N297 N 0.46141 0.45841 0.08851
 Mn298 Mn 0.49812 0.50187 0.06362
 C299 C 0.43687 0.44702 0.07735
 C300 C 0.43532 0.55812 0.07496
 N301 N 0.55137 0.47245 -0.03725
 N302 N 0.57017 0.45335 -0.04189
 N303 N 0.53158 0.52565 -0.06271
 N304 N 0.53695 0.54367 -0.08578
 N305 N 0.55150 0.52561 -0.03849
 N306 N 0.57089 0.54348 -0.04436
 N307 N 0.53153 0.47224 -0.06158
 N308 N 0.53638 0.45296 -0.08355
 Mn309 Mn 0.55122 0.49980 -0.00015
 C310 C 0.56053 0.44129 -0.07079
 C311 C 0.56157 0.55472 -0.07385
 N312 N 0.44726 0.52693 -0.03632
 N313 N 0.42856 0.54585 -0.04103
 N314 N 0.46784 0.47300 -0.06050
 N315 N 0.46237 0.45497 -0.08370
 N316 N 0.44736 0.47373 -0.03535
 N317 N 0.42749 0.45631 -0.04075
 N318 N 0.46792 0.52633 -0.06126
 N319 N 0.46378 0.54484 -0.08366
 Mn320 Mn 0.44653 0.50104 0.00199
 Mn321 Mn 0.49972 0.49930 -0.06199
 Cl322 Cl 0.49888 0.50049 0.00085
 C323 C 0.43917 0.55692 -0.07060
 C324 C 0.43718 0.44457 -0.07084
 C325 C 1.22718 0.15415 0.18288
 C326 C 1.20905 0.14039 0.16107
 C327 C 1.17936 0.14744 0.15784
 C328 C 1.16831 0.16909 0.17611
 C329 C 1.18647 0.18286 0.19797
 C330 C 1.21602 0.17540 0.20178
 C331 C 1.16089 0.13172 0.13520
 C332 C 1.13148 0.13078 0.13890
 C333 C 1.11380 0.11273 0.11878
 C334 C 1.08726 0.10423 0.13391
 C335 C 1.07115 0.08565 0.11703
 C336 C 1.08126 0.07539 0.08457
 C337 C 1.10702 0.08477 0.06856
 C338 C 1.12310 0.10337 0.08540
 H339 H 1.25004 0.14830 0.18472
 H340 H 1.21818 0.12397 0.14697
 H341 H 1.14582 0.17564 0.17347
 H342 H 1.17730 0.19919 0.21222
 H343 H 1.17233 0.11891 0.11680
 H344 H 1.12012 0.14171 0.15955
 H345 H 1.07945 0.11139 0.15938
 H346 H 1.05118 0.07891 0.12978
 H347 H 1.11502 0.07748 0.04324
 H348 H 1.14281 0.11023 0.07226
 C349 C 1.22631 0.65562 0.67866
 C350 C 1.20772 0.64211 0.65711
 C351 C 1.17810 0.64952 0.65437
 C352 C 1.16758 0.67129 0.67278
 C353 C 1.18621 0.68482 0.69433
 C354 C 1.21567 0.67697 0.69772
 C355 C 1.15909 0.63402 0.63215
 C356 C 1.12976 0.63308 0.63682
 C357 C 1.11173 0.61502 0.61722
 C358 C 1.08588 0.60592 0.63337
 C359 C 1.06978 0.58709 0.61699
 C360 C 1.07921 0.57720 0.58406
 C361 C 1.10416 0.58726 0.56704
 C362 C 1.12021 0.60610 0.58336
 H363 H 1.24909 0.64946 0.68023
 H364 H 1.21644 0.62559 0.64288
 H365 H 1.14514 0.67807 0.67049
 H366 H 1.17746 0.70124 0.70873
 H367 H 1.17012 0.62126 0.61332
 H368 H 1.11887 0.64389 0.65794
 H369 H 1.07871 0.61275 0.65925
 H370 H 1.05043 0.57981 0.63052
 H371 H 1.11159 0.58028 0.54134
 H372 H 1.13932 0.61344 0.56949
 C373 C 0.72890 0.15508 0.68390
 C374 C 0.71099 0.14105 0.66214
 C375 C 0.68140 0.14814 0.65816
 C376 C 0.67023 0.17008 0.67563
 C377 C 0.68816 0.18410 0.69744
 C378 C 0.71761 0.17664 0.70198
 C379 C 0.66311 0.13218 0.63563
 C380 C 0.63368 0.13132 0.63907
 C381 C 0.61605 0.11319 0.61905
 C382 C 0.58934 0.10495 0.63404
 C383 C 0.57316 0.08641 0.61720
 C384 C 0.58334 0.07594 0.58490
 C385 C 0.60932 0.08503 0.56904
 C386 C 0.62549 0.10358 0.58585
 H387 H 0.75169 0.14918 0.68634
 H388 H 0.72021 0.12440 0.64866
 H389 H 0.64782 0.17665 0.67240
 H390 H 0.67885 0.20063 0.71109
 H391 H 0.67466 0.11918 0.61759
 H392 H 0.62222 0.14245 0.65944
 H393 H 0.58143 0.11231 0.65937
 H394 H 0.55303 0.07989 0.62984
 H395 H 0.61739 0.07755 0.54385
 H396 H 0.64536 0.11022 0.57283
 C397 C 0.72418 0.65541 0.18029
 C398 C 0.70462 0.64184 0.16012
 C399 C 0.67444 0.64800 0.16134
 C400 C 0.66420 0.66836 0.18289
 C401 C 0.68379 0.68190 0.20317
 C402 C 0.71396 0.67553 0.20210
 C403 C 0.65480 0.63293 0.13930
 C404 C 0.62551 0.63194 0.14448
 C405 C 0.60714 0.61480 0.12378
 C406 C 0.58136 0.60521 0.13947
 C407 C 0.56500 0.58714 0.12186
 C408 C 0.57415 0.57850 0.08818
 C409 C 0.59898 0.58913 0.07168
 C410 C 0.61523 0.60725 0.08918
 H411 H 0.74740 0.65043 0.17831
 H412 H 0.71314 0.62643 0.14349
 H413 H 0.64127 0.67422 0.18391
 H414 H 0.67532 0.69733 0.21978
 H415 H 0.66540 0.62080 0.11937
 H416 H 0.61487 0.64207 0.16638
 H417 H 0.57446 0.61102 0.16590
 H418 H 0.54576 0.57939 0.13504
 H419 H 0.60616 0.58313 0.04543
 H420 H 0.63422 0.61508 0.07564
 C421 C 0.80438 -0.19455 0.17100
 C422 C 0.82439 -0.18002 0.15176
 C423 C 0.83418 -0.15699 0.16543
 C424 C 0.82349 -0.14865 0.19879
 C425 C 0.80332 -0.16312 0.21793
 C426 C 0.79346 -0.18612 0.20412
 C427 C 0.85380 -0.14134 0.14330
 C428 C 0.87217 -0.12441 0.15659
 C429 C 0.88995 -0.10732 0.13437
 C430 C 0.91596 -0.09754 0.14753
 C431 C 0.93233 -0.08012 0.12816
 C432 C 0.92270 -0.07189 0.09547
 C433 C 0.89680 -0.08178 0.08212
 C434 C 0.88051 -0.09930 0.10139
 H435 H 0.79676 -0.21204 0.15954
 H436 H 0.83204 -0.18667 0.12597
 H437 H 0.82986 -0.13063 0.20972
 H438 H 0.79524 -0.15623 0.24342
 H439 H 0.85340 -0.14433 0.11513
 H440 H 0.87483 -0.12325 0.18472
 H441 H 0.92350 -0.10327 0.17300
 H442 H 0.95220 -0.07271 0.13910
 H443 H 0.88881 -0.07563 0.05707
 H444 H 0.86009 -0.10582 0.09088
 C445 C 0.81157 0.30245 0.68025
 C446 C 0.83206 0.31642 0.66084
 C447 C 0.83789 0.34147 0.67033
 C448 C 0.82276 0.35246 0.69957
 C449 C 0.80196 0.33869 0.71874
 C450 C 0.79571 0.31344 0.70931
 C451 C 0.85819 0.35627 0.64793
 C452 C 0.87419 0.37514 0.66064
 C453 C 0.89225 0.39167 0.63794
 C454 C 0.91686 0.40332 0.65192
 C455 C 0.93307 0.42058 0.63205
 C456 C 0.92455 0.42685 0.59807
 C457 C 0.90010 0.41502 0.58389
 C458 C 0.88409 0.39755 0.60361
 H459 H 0.80710 0.28351 0.67092
 H460 H 0.84316 0.30770 0.63804
 H461 H 0.82633 0.37195 0.70721
 H462 H 0.79140 0.34788 0.74147
 H463 H 0.86026 0.35115 0.62031
 H464 H 0.87445 0.37852 0.68875
 H465 H 0.92337 0.39925 0.67842
 H466 H 0.95179 0.42952 0.64365
 H467 H 0.89302 0.41961 0.55780
 H468 H 0.86473 0.38944 0.59239
 C469 C 0.30790 -0.19544 0.67175
 C470 C 0.32793 -0.18098 0.65238
 C471 C 0.33813 -0.15810 0.66612
 C472 C 0.32795 -0.14993 0.69976
 C473 C 0.30779 -0.16432 0.71902
 C474 C 0.29737 -0.18708 0.70507
 C475 C 0.35749 -0.14234 0.64375
 C476 C 0.37602 -0.12545 0.65686
 C477 C 0.39334 -0.10802 0.63460
 C478 C 0.41933 -0.09806 0.64758
 C479 C 0.43520 -0.08021 0.62837
 C480 C 0.42510 -0.07172 0.59602
 C481 C 0.39923 -0.08180 0.58283
 C482 C 0.38345 -0.09977 0.60193
 H483 H 0.29987 -0.21274 0.66018
 H484 H 0.33519 -0.18751 0.62639
 H485 H 0.33464 -0.13204 0.71081
 H486 H 0.30004 -0.15749 0.74468
 H487 H 0.35665 -0.14511 0.61558
 H488 H 0.37910 -0.12449 0.68492
 H489 H 0.42724 -0.10395 0.67280
 H490 H 0.45505 -0.07268 0.63920
 H491 H 0.39089 -0.07547 0.55803
 H492 H 0.36304 -0.10643 0.59158
 C493 C 0.31111 0.30107 0.18023
 C494 C 0.33120 0.31532 0.16060
 C495 C 0.33632 0.34058 0.16970
 C496 C 0.32093 0.35146 0.19884
 C497 C 0.30054 0.33741 0.21822
 C498 C 0.29491 0.31198 0.20910
 C499 C 0.35620 0.35566 0.14710
 C500 C 0.37167 0.37494 0.15963
 C501 C 0.38949 0.39165 0.13692
 C502 C 0.41361 0.40388 0.15115
 C503 C 0.42958 0.42131 0.13133
 C504 C 0.42133 0.42720 0.09712
 C505 C 0.39737 0.41480 0.08266
 C506 C 0.38159 0.39713 0.10235
 H507 H 0.30716 0.28197 0.17117
 H508 H 0.34255 0.30665 0.13793
 H509 H 0.32396 0.37108 0.20622
 H510 H 0.28975 0.34656 0.24083
 H511 H 0.35845 0.35040 0.11954
 H512 H 0.37176 0.37848 0.18772
 H513 H 0.41992 0.40012 0.17781
 H514 H 0.44792 0.43067 0.14316
 H515 H 0.39051 0.41908 0.05638
 H516 H 0.36261 0.38854 0.09092
 C517 C 0.78371 0.15912 -0.18682
 C518 C 0.80230 0.14600 -0.16469
 C519 C 0.83188 0.15279 -0.16210
 C520 C 0.84231 0.17363 -0.18123
 C521 C 0.82359 0.18688 -0.20326
 C522 C 0.79422 0.17953 -0.20657
 C523 C 0.85084 0.13764 -0.13915
 C524 C 0.88015 0.13535 -0.14383
 C525 C 0.89789 0.11740 -0.12329
 C526 C 0.92332 0.10616 -0.13902
 C527 C 0.93891 0.08729 -0.12164
 C528 C 0.92938 0.07950 -0.08810
 C529 C 0.90492 0.09174 -0.07155
 C530 C 0.88940 0.11061 -0.08887
 H531 H 0.76100 0.15337 -0.18837
 H532 H 0.79365 0.13021 -0.14994
 H533 H 0.86475 0.17987 -0.17911
 H534 H 0.83220 0.20260 -0.21816
 H535 H 0.83972 0.12614 -0.11966
 H536 H 0.89112 0.14479 -0.16552
 H537 H 0.93051 0.11132 -0.16534
 H538 H 0.95787 0.07830 -0.13486
 H539 H 0.89742 0.08642 -0.04543
 H540 H 0.87063 0.11961 -0.07534
 C541 C 0.82965 0.69061 0.28088
 C542 C 0.85185 0.67795 0.29875
 C543 C 0.84689 0.65402 0.31292
 C544 C 0.81972 0.64249 0.30788
 C545 C 0.79768 0.65488 0.28975
 C546 C 0.80204 0.67929 0.27596
 C547 C 0.87029 0.64099 0.33230
 C548 C 0.86376 0.62650 0.36000
 C549 C 0.88553 0.61119 0.37892
 C550 C 0.87780 0.60323 0.41290
 C551 C 0.89580 0.58624 0.43036
 C552 C 0.92184 0.57659 0.41402
 C553 C 0.93025 0.58517 0.38047
 C554 C 0.91222 0.60234 0.36298
 H555 H 0.83477 0.70885 0.26984
 H556 H 0.87286 0.68699 0.30182
 H557 H 0.81544 0.62374 0.31782
 H558 H 0.77680 0.64548 0.28807
 H559 H 0.89301 0.64405 0.32427
 H560 H 0.84108 0.62585 0.36966
 H561 H 0.85733 0.60970 0.42569
 H562 H 0.88880 0.58005 0.45627
 H563 H 0.95020 0.57796 0.36728
 H564 H 0.91859 0.60766 0.33650
 C565 C 0.28490 0.15381 0.30541
 C566 C 0.30343 0.14067 0.32756
 C567 C 0.33077 0.15040 0.33610
 C568 C 0.33896 0.17408 0.32297
 C569 C 0.32020 0.18755 0.30117
 C570 C 0.29292 0.17748 0.29150
 C571 C 0.34968 0.13542 0.35926
 C572 C 0.37919 0.13578 0.35757
 C573 C 0.39718 0.11808 0.37818
 C574 C 0.42382 0.10834 0.36353
 C575 C 0.43967 0.08961 0.38092
 C576 C 0.42925 0.08057 0.41347
 C577 C 0.40349 0.09138 0.42904
 C578 C 0.38764 0.10999 0.41163
 H579 H 0.26372 0.14563 0.30053
 H580 H 0.29641 0.12264 0.33790
 H581 H 0.35971 0.18235 0.32969
 H582 H 0.32786 0.20534 0.29084
 H583 H 0.33877 0.12182 0.37608
 H584 H 0.39037 0.14732 0.33818
 H585 H 0.43177 0.11451 0.33796
 H586 H 0.45963 0.08176 0.36850
 H587 H 0.39518 0.08506 0.45437
 H588 H 0.36773 0.11778 0.42423
 C589 C 0.28311 0.65402 -0.19806
 C590 C 0.30094 0.64058 -0.17545
 C591 C 0.32831 0.64988 -0.16619
 C592 C 0.33723 0.67344 -0.17907
 C593 C 0.31920 0.68718 -0.20138
 C594 C 0.29191 0.67755 -0.21176
 C595 C 0.34650 0.63454 -0.14268
 C596 C 0.37601 0.63468 -0.14345
 C597 C 0.39338 0.61659 -0.12275
 C598 C 0.42037 0.60710 -0.13674
 C599 C 0.43576 0.58809 -0.11939
 C600 C 0.42452 0.57848 -0.08755
 C601 C 0.39836 0.58898 -0.07259
 C602 C 0.38297 0.60790 -0.08995
 H603 H 0.26185 0.64619 -0.20347
 H604 H 0.29335 0.62266 -0.16534
 H605 H 0.35800 0.68140 -0.17179
 H606 H 0.32745 0.70483 -0.21150
 H607 H 0.33508 0.62088 -0.12648
 H608 H 0.38773 0.64633 -0.16225
 H609 H 0.42898 0.61373 -0.16178
 H610 H 0.45605 0.58048 -0.13131
 H611 H 0.38943 0.58222 -0.04779
 H612 H 0.36277 0.61549 -0.07781
 C613 C 1.18823 -0.16714 -0.24527
 C614 C 1.16468 -0.15351 -0.22938
 C615 C 1.15285 -0.16068 -0.19658
 C616 C 1.16407 -0.18262 -0.18078
 C617 C 1.18770 -0.19619 -0.19660
 C618 C 1.20038 -0.18836 -0.22872
 C619 C 1.12975 -0.14429 -0.17923
 C620 C 1.12560 -0.14292 -0.14423
 C621 C 1.10669 -0.12337 -0.12622
 C622 C 1.11376 -0.11582 -0.09213
 C623 C 1.09830 -0.09597 -0.07508
 C624 C 1.07515 -0.08344 -0.09162
 C625 C 1.06698 -0.09177 -0.12503
 C626 C 1.08262 -0.11159 -0.14226
 H627 H 1.19703 -0.16100 -0.27046
 H628 H 1.15619 -0.13689 -0.24234
 H629 H 1.15489 -0.18934 -0.15613
 H630 H 1.19651 -0.21248 -0.18320
 H631 H 1.11827 -0.13102 -0.19560
 H632 H 1.13910 -0.15454 -0.12769
 H633 H 1.13198 -0.12475 -0.07906
 H634 H 1.10488 -0.09012 -0.04915
 H635 H 1.04898 -0.08258 -0.13817
 H636 H 1.07592 -0.11749 -0.16807
 C637 C 1.18587 0.33118 0.25703
 C638 C 1.16222 0.34487 0.27257
 C639 C 1.15070 0.33830 0.30578
 C640 C 1.16228 0.31678 0.32231
 C641 C 1.18601 0.30313 0.30681
 C642 C 1.19845 0.31049 0.27434
 C643 C 1.12761 0.35493 0.32273
 C644 C 1.12374 0.35705 0.35772
 C645 C 1.10506 0.37701 0.37522
 C646 C 1.11233 0.38501 0.40905
 C647 C 1.09712 0.40518 0.42565
 C648 C 1.07400 0.41763 0.40893
 C649 C 1.06564 0.40891 0.37578
 C650 C 1.08105 0.38875 0.35899
 H651 H 1.19445 0.33690 0.23154
 H652 H 1.15345 0.36113 0.25903
 H653 H 1.15332 0.31049 0.34731
 H654 H 1.19513 0.28720 0.32072
 H655 H 1.11597 0.36783 0.30597
 H656 H 1.13737 0.34576 0.37453
 H657 H 1.13051 0.37615 0.42228
 H658 H 1.10384 0.41131 0.45139
 H659 H 1.04766 0.41803 0.36251
 H660 H 1.07419 0.38255 0.33338
 C661 C 0.68381 -0.16847 0.25351
 C662 C 0.66031 -0.15492 0.26965
 C663 C 0.64918 -0.16182 0.30290
 C664 C 0.66091 -0.18352 0.31882
 C665 C 0.68447 -0.19703 0.30271
 C666 C 0.69659 -0.18933 0.27023
 C667 C 0.62640 -0.14529 0.32060
 C668 C 0.62320 -0.14337 0.35568
 C669 C 0.60488 -0.12345 0.37382
 C670 C 0.61283 -0.11556 0.40746
 C671 C 0.59799 -0.09537 0.42453
 C672 C 0.57460 -0.08282 0.40847
 C673 C 0.56558 -0.09145 0.37556
 C674 C 0.58058 -0.11163 0.35832
 H675 H 0.69218 -0.16245 0.22806
 H676 H 0.65141 -0.13851 0.25659
 H677 H 0.65223 -0.19003 0.34383
 H678 H 0.69377 -0.21306 0.31622
 H679 H 0.61448 -0.13227 0.30429
 H680 H 0.63713 -0.15477 0.37199
 H681 H 0.63125 -0.12450 0.42014
 H682 H 0.60523 -0.08930 0.45008
 H683 H 0.54737 -0.08226 0.36280
 H684 H 0.57320 -0.11776 0.33291
 C685 C 0.68720 0.33335 -0.24049
 C686 C 0.66389 0.34709 -0.22427
 C687 C 0.65312 0.34056 -0.19071
 C688 C 0.66512 0.31914 -0.17440
 C689 C 0.68846 0.30542 -0.19061
 C690 C 0.70010 0.31266 -0.22353
 C691 C 0.63017 0.35703 -0.17328
 C692 C 0.62707 0.35940 -0.13825
 C693 C 0.60796 0.37901 -0.12066
 C694 C 0.61566 0.38791 -0.08739
 C695 C 0.59982 0.40780 -0.07092
 C696 C 0.57568 0.41903 -0.08723
 C697 C 0.56701 0.40939 -0.11976
 C698 C 0.58298 0.38951 -0.13637
 H699 H 0.69523 0.33900 -0.26625
 H700 H 0.65477 0.36329 -0.23761
 H701 H 0.65673 0.31295 -0.14908
 H702 H 0.69789 0.28950 -0.17697
 H703 H 0.61781 0.36954 -0.18988
 H704 H 0.64144 0.34862 -0.12168
 H705 H 0.63461 0.37997 -0.07457
 H706 H 0.60682 0.41469 -0.04566
 H707 H 0.54824 0.41753 -0.13269
 H708 H 0.57578 0.38255 -0.16146
 C709 C 1.13954 0.20708 -0.21989
 C710 C 1.12416 0.18720 -0.20434
 C711 C 1.13632 0.17316 -0.17721
 C712 C 1.16431 0.17975 -0.16561
 C713 C 1.17983 0.19956 -0.18122
 C714 C 1.16782 0.21376 -0.20872
 C715 C 1.11868 0.15246 -0.16128
 C716 C 1.13005 0.13401 -0.14158
 C717 C 1.11239 0.11363 -0.12510
 C718 C 1.12371 0.10133 -0.09586
 C719 C 1.10838 0.08170 -0.07972
 C720 C 1.08145 0.07365 -0.09270
 C721 C 1.07007 0.08577 -0.12209
 C722 C 1.08537 0.10557 -0.13820
 H723 H 1.12941 0.21638 -0.24168
 H724 H 1.10266 0.18258 -0.21391
 H725 H 1.17419 0.17023 -0.14385
 H726 H 1.20072 0.20433 -0.17025
 H727 H 1.09536 0.15260 -0.16625
 H728 H 1.15331 0.13378 -0.13643
 H729 H 1.14452 0.10701 -0.08534
 H730 H 1.11779 0.07270 -0.05716
 H731 H 1.04944 0.07984 -0.13279
 H732 H 1.07626 0.11403 -0.16126
 C733 C 1.13901 0.70712 0.27849
 C734 C 1.12337 0.68726 0.29375
 C735 C 1.13506 0.67328 0.32123
 C736 C 1.16288 0.67984 0.33339
 C737 C 1.17866 0.69962 0.31808
 C738 C 1.16706 0.71386 0.29036
 C739 C 1.11708 0.65274 0.33705
 C740 C 1.12814 0.63432 0.35704
 C741 C 1.11022 0.61425 0.37388
 C742 C 1.12152 0.60206 0.40320
 C743 C 1.10602 0.58271 0.41974
 C744 C 1.07890 0.57481 0.40711
 C745 C 1.06749 0.58684 0.37766
 C746 C 1.08299 0.60639 0.36114
 H747 H 1.12926 0.71638 0.25642
 H748 H 1.10203 0.68264 0.28371
 H749 H 1.17241 0.67037 0.35541
 H750 H 1.19937 0.70441 0.32951
 H751 H 1.09380 0.65302 0.33185
 H752 H 1.15139 0.63394 0.36227
 H753 H 1.14247 0.60759 0.41348
 H754 H 1.11547 0.57379 0.44233
 H755 H 1.04672 0.58102 0.36724
 H756 H 1.07384 0.61480 0.33806
 C757 C 0.64231 0.20506 0.27497
 C758 C 0.62676 0.18517 0.29030
 C759 C 0.63602 0.17423 0.32159
 C760 C 0.66107 0.18398 0.33757
 C761 C 0.67663 0.20387 0.32221
 C762 C 0.66744 0.21467 0.29075
 C763 C 0.61841 0.15340 0.33713
 C764 C 0.62913 0.13662 0.35989
 C765 C 0.61181 0.11583 0.37601
 C766 C 0.62267 0.10428 0.40610
 C767 C 0.60773 0.08434 0.42204
 C768 C 0.58160 0.07528 0.40813
 C769 C 0.57063 0.08669 0.37798
 C770 C 0.58558 0.10672 0.36198
 H771 H 0.63481 0.21276 0.25053
 H772 H 0.60749 0.17818 0.27749
 H773 H 0.66843 0.17683 0.36233
 H774 H 0.69553 0.21119 0.33540
 H775 H 0.59593 0.15192 0.32895
 H776 H 0.65173 0.13807 0.36767
 H777 H 0.64284 0.11075 0.41742
 H778 H 0.61679 0.07593 0.44524
 H779 H 0.55062 0.07998 0.36656
 H780 H 0.57675 0.11452 0.33834
 C781 C 0.63782 0.70847 -0.21894
 C782 C 0.62212 0.68862 -0.20370
 C783 C 0.63398 0.67431 -0.17663
 C784 C 0.66205 0.68056 -0.16488
 C785 C 0.67788 0.70031 -0.18020
 C786 C 0.66612 0.71485 -0.20753
 C787 C 0.61595 0.65373 -0.16092
 C788 C 0.62684 0.63538 -0.14067
 C789 C 0.60880 0.61530 -0.12402
 C790 C 0.61966 0.60338 -0.09425
 C791 C 0.60407 0.58400 -0.07789
 C792 C 0.57731 0.57577 -0.09116
 C793 C 0.56634 0.58753 -0.12107
 C794 C 0.58191 0.60713 -0.13739
 H795 H 0.62789 0.71798 -0.24070
 H796 H 0.60060 0.68427 -0.21343
 H797 H 0.67179 0.67083 -0.14321
 H798 H 0.69882 0.70481 -0.16912
 H799 H 0.59272 0.65394 -0.16637
 H800 H 0.65000 0.63507 -0.13501
 H801 H 0.64034 0.60914 -0.08348
 H802 H 0.61318 0.57530 -0.05494
 H803 H 0.54585 0.58147 -0.13198
 H804 H 0.57313 0.61534 -0.16081
 C805 C 0.81885 -0.19753 -0.17739
 C806 C 0.83556 -0.17883 -0.16137
 C807 C 0.86060 -0.16899 -0.17885
 C808 C 0.86859 -0.17863 -0.21244
 C809 C 0.85189 -0.19733 -0.22842
 C810 C 0.82680 -0.20704 -0.21110
 C811 C 0.87950 -0.14942 -0.16283
 C812 C 0.87046 -0.13380 -0.13629
 C813 C 0.88904 -0.11409 -0.12002
 C814 C 0.87926 -0.10312 -0.08781
 C815 C 0.89528 -0.08407 -0.07169
 C816 C 0.92151 -0.07535 -0.08745
 C817 C 0.93148 -0.08626 -0.11962
 C818 C 0.91542 -0.10535 -0.13582
 H819 H 0.80001 -0.20496 -0.16301
 H820 H 0.82906 -0.17268 -0.13503
 H821 H 0.88779 -0.17156 -0.22651
 H822 H 0.85849 -0.20400 -0.25455
 H823 H 0.90155 -0.14786 -0.17397
 H824 H 0.84825 -0.13532 -0.12555
 H825 H 0.85902 -0.10929 -0.07502
 H826 H 0.88698 -0.07604 -0.04692
 H827 H 0.95153 -0.07982 -0.13251
 H828 H 0.92359 -0.11268 -0.16095
 C829 C 0.85281 0.30395 0.26930
 C830 C 0.86937 0.32247 0.28586
 C831 C 0.86120 0.33164 0.31965
 C832 C 0.83616 0.32149 0.33673
 C833 C 0.81959 0.30298 0.32013
 C834 C 0.82770 0.29397 0.28622
 C835 C 0.87991 0.35106 0.33628
 C836 C 0.87067 0.36627 0.36316
 C837 C 0.88907 0.38586 0.37996
 C838 C 0.91512 0.39521 0.36412
 C839 C 0.93101 0.41419 0.38077
 C840 C 0.92119 0.42437 0.41343
 C841 C 0.89530 0.41503 0.42926
 C842 C 0.87944 0.39608 0.41267
 H843 H 0.85953 0.29764 0.24304
 H844 H 0.88858 0.32979 0.27209
 H845 H 0.82954 0.32724 0.36320
 H846 H 0.80075 0.29529 0.33420
 H847 H 0.90200 0.35285 0.32532
 H848 H 0.84846 0.36451 0.37380
 H849 H 0.92311 0.38848 0.33860
 H850 H 0.95079 0.42113 0.36782
 H851 H 0.88713 0.42251 0.45440
 H852 H 0.85944 0.38941 0.42549
 C853 C 0.31595 -0.19321 0.32296
 C854 C 0.33232 -0.17416 0.33870
 C855 C 0.35805 -0.16505 0.32181
 C856 C 0.36683 -0.17550 0.28896
 C857 C 0.35050 -0.19452 0.27329
 C858 C 0.32498 -0.20376 0.29022
 C859 C 0.37704 -0.14563 0.33785
 C860 C 0.36800 -0.12966 0.36391
 C861 C 0.38707 -0.11044 0.38030
 C862 C 0.37799 -0.09991 0.41301
 C863 C 0.39467 -0.08141 0.42932
 C864 C 0.42083 -0.07284 0.41320
 C865 C 0.43004 -0.08327 0.38048
 C866 C 0.41332 -0.10180 0.36409
 H867 H 0.29669 -0.20023 0.33694
 H868 H 0.32511 -0.16729 0.36446
 H869 H 0.38652 -0.16895 0.27533
 H870 H 0.35787 -0.20202 0.24785
 H871 H 0.39937 -0.14465 0.32736
 H872 H 0.34563 -0.13063 0.37431
 H873 H 0.35785 -0.10604 0.42607
 H874 H 0.38695 -0.07370 0.45452
 H875 H 0.44999 -0.07687 0.36730
 H876 H 0.42085 -0.10875 0.33849
 C877 C 0.31573 0.30619 -0.18348
 C878 C 0.33231 0.32473 -0.16700
 C879 C 0.36048 0.33095 -0.18036
 C880 C 0.37163 0.31790 -0.21032
 C881 C 0.35519 0.29927 -0.22675
 C882 C 0.32681 0.29289 -0.21367
 C883 C 0.37933 0.35018 -0.16352
 C884 C 0.36926 0.36762 -0.13988
 C885 C 0.38808 0.38653 -0.12255
 C886 C 0.37768 0.39767 -0.09077
 C887 C 0.39392 0.41613 -0.07381
 C888 C 0.42091 0.42417 -0.08842
 C889 C 0.43150 0.41308 -0.12020
 C890 C 0.41526 0.39446 -0.13717
 H891 H 0.29478 0.30156 -0.17112
 H892 H 0.32307 0.33348 -0.14324
 H893 H 0.39321 0.32229 -0.22135
 H894 H 0.36465 0.29068 -0.25052
 H895 H 0.40248 0.34976 -0.17116
 H896 H 0.34619 0.36812 -0.13205
 H897 H 0.35681 0.39206 -0.07896
 H898 H 0.38510 0.42434 -0.04939
 H899 H 0.45214 0.41904 -0.13219
 H900 H 0.42376 0.38690 -0.16207
 C901 C 1.13870 -0.19756 0.23870
 C902 C 1.12342 -0.17820 0.22195
 C903 C 1.13650 -0.16523 0.19381
 C904 C 1.16573 -0.17144 0.18348
 C905 C 1.18119 -0.19066 0.20037
 C906 C 1.16792 -0.20440 0.22813
 C907 C 1.11931 -0.14490 0.17676
 C908 C 1.12398 -0.13815 0.14316
 C909 C 1.10718 -0.11780 0.12541
 C910 C 1.11851 -0.10874 0.09328
 C911 C 1.10386 -0.08948 0.07558
 C912 C 1.07742 -0.07886 0.08956
 C913 C 1.06567 -0.08816 0.12133
 C914 C 1.08029 -0.10748 0.13905
 H915 H 1.12768 -0.20634 0.26087
 H916 H 1.10112 -0.17342 0.23096
 H917 H 1.17694 -0.16138 0.16256
 H918 H 1.20319 -0.19528 0.19031
 H919 H 1.10192 -0.13581 0.19258
 H920 H 1.14118 -0.14782 0.12759
 H921 H 1.13900 -0.11642 0.08194
 H922 H 1.11340 -0.08276 0.05106
 H923 H 1.04516 -0.08048 0.13256
 H924 H 1.07014 -0.11426 0.16309
 C925 C 1.14152 0.30538 0.73984
 C926 C 1.12586 0.32384 0.72176
 C927 C 1.13603 0.33215 0.68870
 C928 C 1.16224 0.32134 0.67395
 C929 C 1.17791 0.30292 0.69208
 C930 C 1.16770 0.29467 0.72517
 C931 C 1.11812 0.35136 0.67025
 C932 C 1.12864 0.36570 0.64394
 C933 C 1.11079 0.38500 0.62558
 C934 C 1.12096 0.39333 0.59254
 C935 C 1.10548 0.41201 0.57466
 C936 C 1.07953 0.42293 0.58958
 C937 C 1.06923 0.41463 0.62258
 C938 C 1.08472 0.39596 0.64049
 H939 H 1.13321 0.29956 0.76541
 H940 H 1.10571 0.33172 0.73371
 H941 H 1.17044 0.32644 0.64809
 H942 H 1.19768 0.29461 0.67977
 H943 H 1.09541 0.35372 0.67923
 H944 H 1.15135 0.36335 0.63495
 H945 H 1.14103 0.38537 0.58050
 H946 H 1.11398 0.41808 0.54929
 H947 H 1.04942 0.42287 0.63486
 H948 H 1.07647 0.39078 0.66630
 C949 C 0.68106 -0.19039 0.70130
 C950 C 0.66582 -0.17120 0.68410
 C951 C 0.63673 -0.16455 0.69450
 C952 C 0.62358 -0.17705 0.72302
 C953 C 0.63864 -0.19638 0.74011
 C954 C 0.66772 -0.20366 0.72949
 C955 C 0.61979 -0.14421 0.67713
 C956 C 0.62453 -0.13773 0.64342
 C957 C 0.60796 -0.11734 0.62548
 C958 C 0.61956 -0.10824 0.59349
 C959 C 0.60509 -0.08891 0.57569
 C960 C 0.57858 -0.07827 0.58946
 C961 C 0.56657 -0.08764 0.62105
 C962 C 0.58099 -0.10702 0.63884
 H963 H 0.70292 -0.19538 0.69114
 H964 H 0.67710 -0.16152 0.66288
 H965 H 0.60139 -0.17192 0.73207
 H966 H 0.62759 -0.20480 0.76253
 H967 H 0.60256 -0.13481 0.69285
 H968 H 0.64160 -0.14763 0.62794
 H969 H 0.64011 -0.11594 0.58236
 H970 H 0.61483 -0.08214 0.55131
 H971 H 0.54599 -0.07997 0.63211
 H972 H 0.57061 -0.11387 0.66272
 C973 C 0.64104 0.30769 0.24245
 C974 C 0.62501 0.32639 0.22523
 C975 C 0.63475 0.33535 0.19235
 C976 C 0.66093 0.32496 0.17691
 C977 C 0.67698 0.30632 0.19419
 C978 C 0.66719 0.29740 0.22708
 C979 C 0.61639 0.35467 0.17463
 C980 C 0.62657 0.36944 0.14862
 C981 C 0.60835 0.38848 0.13023
 C982 C 0.61879 0.39723 0.09754
 C983 C 0.60303 0.41560 0.07945
 C984 C 0.57649 0.42583 0.09378
 C985 C 0.56589 0.41713 0.12644
 C986 C 0.58166 0.39870 0.14458
 H987 H 0.63301 0.30133 0.26787
 H988 H 0.60488 0.33391 0.23769
 H989 H 0.66881 0.33052 0.15112
 H990 H 0.69667 0.29834 0.18128
 H991 H 0.59367 0.35662 0.18374
 H992 H 0.64935 0.36755 0.13972
 H993 H 0.63929 0.38983 0.08590
 H994 H 0.61180 0.42195 0.05436
 H995 H 0.54560 0.42483 0.13823
 H996 H 0.57313 0.39309 0.17007
 C997 C 0.81120 0.20598 0.18057
 C998 C 0.82482 0.18637 0.16074
 C999 C 0.85101 0.17487 0.17162
 C1000 C 0.86318 0.18332 0.20319
 C1001 C 0.84949 0.20294 0.22309
 C1002 C 0.82327 0.21444 0.21209
 C1003 C 0.86401 0.15354 0.15008
 C1004 C 0.89235 0.14598 0.15105
 C1005 C 0.90517 0.12415 0.13033
 C1006 C 0.93146 0.11294 0.14147
 C1007 C 0.94426 0.09218 0.12329
 C1008 C 0.93119 0.08221 0.09330
 C1009 C 0.90525 0.09368 0.08156
 C1010 C 0.89237 0.11448 0.09979
 H1011 H 0.79125 0.21464 0.17106
 H1012 H 0.81488 0.18022 0.13666
 H1013 H 0.88277 0.17448 0.21323
 H1014 H 0.85906 0.20869 0.24756
 H1015 H 0.84935 0.14391 0.13275
 H1016 H 0.90697 0.15571 0.16834
 H1017 H 0.94197 0.12009 0.16464
 H1018 H 0.96436 0.08384 0.13289
 H1019 H 0.89485 0.08656 0.05831
 H1020 H 0.87269 0.12300 0.08950
 C1021 C 0.80963 0.70450 0.68438
 C1022 C 0.82311 0.68487 0.66447
 C1023 C 0.84936 0.67336 0.67515
 C1024 C 0.86172 0.68182 0.70660
 C1025 C 0.84817 0.70146 0.72658
 C1026 C 0.82189 0.71298 0.71578
 C1027 C 0.86223 0.65203 0.65353
 C1028 C 0.89064 0.64462 0.65409
 C1029 C 0.90342 0.62283 0.63325
 C1030 C 0.93005 0.61196 0.64387
 C1031 C 0.94290 0.59127 0.62556
 C1032 C 0.92951 0.58104 0.59595
 C1033 C 0.90319 0.59216 0.58474
 C1034 C 0.89027 0.61288 0.60310
 H1035 H 0.78964 0.71318 0.67500
 H1036 H 0.81302 0.67871 0.64049
 H1037 H 0.88137 0.67296 0.71647
 H1038 H 0.85788 0.70723 0.75096
 H1039 H 0.84743 0.64230 0.63648
 H1040 H 0.90538 0.65449 0.67108
 H1041 H 0.94084 0.61932 0.66673
 H1042 H 0.96329 0.58322 0.63475
 H1043 H 0.89254 0.58482 0.56178
 H1044 H 0.87029 0.62113 0.59321
 C1045 C 0.31143 0.20518 0.68217
 C1046 C 0.32530 0.18570 0.66238
 C1047 C 0.35149 0.17433 0.67348
 C1048 C 0.36334 0.18267 0.70527
 C1049 C 0.34940 0.20215 0.72513
 C1050 C 0.32327 0.21361 0.71382
 C1051 C 0.36488 0.15324 0.65194
 C1052 C 0.39340 0.14624 0.65282
 C1053 C 0.40658 0.12468 0.63199
 C1054 C 0.43281 0.11349 0.64332
 C1055 C 0.44581 0.09285 0.62504
 C1056 C 0.43296 0.08306 0.59480
 C1057 C 0.40714 0.09459 0.58285
 C1058 C 0.39409 0.11524 0.60115
 H1059 H 0.29151 0.21380 0.67252
 H1060 H 0.31560 0.17957 0.63814
 H1061 H 0.38289 0.17385 0.71547
 H1062 H 0.35873 0.20786 0.74976
 H1063 H 0.35041 0.14335 0.63465
 H1064 H 0.40783 0.15620 0.67010
 H1065 H 0.44308 0.12050 0.66673
 H1066 H 0.46583 0.08446 0.63477
 H1067 H 0.39695 0.08761 0.55937
 H1068 H 0.37451 0.12382 0.59070
 C1069 C 0.35156 0.70280 0.24028
 C1070 C 0.36789 0.68353 0.22281
 C1071 C 0.35892 0.67368 0.19051
 C1072 C 0.33320 0.68376 0.17589
 C1073 C 0.31684 0.70301 0.19343
 C1074 C 0.32588 0.71282 0.22574
 C1075 C 0.37757 0.65372 0.17255
 C1076 C 0.36788 0.63803 0.14756
 C1077 C 0.38642 0.61815 0.12927
 C1078 C 0.37677 0.60810 0.09740
 C1079 C 0.39289 0.58889 0.07954
 C1080 C 0.41899 0.57914 0.09328
 C1081 C 0.42879 0.58913 0.12511
 C1082 C 0.41266 0.60837 0.14303
 H1083 H 0.35897 0.70981 0.26529
 H1084 H 0.38764 0.67624 0.23462
 H1085 H 0.32594 0.67746 0.15054
 H1086 H 0.29751 0.71073 0.18119
 H1087 H 0.40009 0.65202 0.18070
 H1088 H 0.34531 0.63972 0.13959
 H1089 H 0.35662 0.61512 0.08624
 H1090 H 0.38474 0.58153 0.05508
 H1091 H 0.44872 0.58182 0.13646
 H1092 H 0.42056 0.61495 0.16795
   
