data_POSCAR
  _audit_creation_date              2014-09-24
  _audit_creation_method            'ToBaCCo'
  _symmetry_space_group_name_H-M    'P1'
  _symmetry_Int_Tables_number       1
  _symmetry_cell_setting            triclinic
  loop_
  _symmetry_equiv_pos_as_xyz
 x,y,z
_cell_length_a 52.2850
_cell_length_b 52.4022
_cell_length_c 21.4027
_cell_angle_alpha 89.919000
_cell_angle_beta 89.854200
_cell_angle_gamma 120.191200
loop_
  _atom_site_label
  _atom_site_type_symbol
  _atom_site_fract_x
  _atom_site_fract_y
  _atom_site_fract_z
C1 C 0.19132 0.51114 0.50265
 C2 C 0.20660 0.51866 0.44540
 C3 C 0.23736 0.52973 0.44604
 C4 C 0.25216 0.52999 0.50182
 C5 C 0.23614 0.52382 0.55864
 C6 C 0.20585 0.51455 0.55963
 C7 C 0.28246 0.53276 0.50000
 C8 C 0.29824 0.53501 0.55574
 C9 C 0.32268 0.53072 0.55506
 C10 C 0.33358 0.52733 0.49800
 C11 C 0.31959 0.52653 0.44208
 C12 C 0.29414 0.52898 0.44307
 H13 H 0.16815 0.50486 0.50321
 H14 H 0.24903 0.53605 0.40210
 H15 H 0.24605 0.52366 0.60253
 H16 H 0.29114 0.53847 0.60065
 H17 H 0.35270 0.52443 0.49726
 H18 H 0.28296 0.52596 0.39916
 C19 C 0.48323 -0.32176 0.49785
 C20 C 0.48030 -0.31025 0.44094
 C21 C 0.47097 -0.28936 0.44209
 C22 C 0.46446 -0.28002 0.49921
 C23 C 0.46468 -0.29464 0.55477
 C24 C 0.47594 -0.31401 0.55513
 C25 C 0.46181 -0.25260 0.50187
 C26 C 0.46713 -0.23650 0.55834
 C27 C 0.47013 -0.20839 0.55888
 C28 C 0.46877 -0.19552 0.50286
 C29 C 0.46341 -0.21080 0.44655
 C30 C 0.45830 -0.23974 0.44663
 H31 H 0.48937 -0.33866 0.49737
 H32 H 0.47152 -0.27882 0.39844
 H33 H 0.45842 -0.28934 0.59877
 H34 H 0.47097 -0.24436 0.60191
 H35 H 0.47277 -0.17310 0.50282
 H36 H 0.45351 -0.25101 0.40236
 C37 C 1.32185 0.80212 0.50247
 C38 C 1.31345 0.78758 0.44474
 C39 C 1.29175 0.75738 0.44429
 C40 C 1.27512 0.74315 0.49891
 C41 C 1.28432 0.75876 0.55603
 C42 C 1.30791 0.78785 0.55795
 C43 C 1.24595 0.71451 0.49478
 C44 C 1.23089 0.69822 0.54919
 C45 C 1.20051 0.67679 0.54740
 C46 C 1.18639 0.66885 0.48910
 C47 C 1.20156 0.68239 0.43426
 C48 C 1.23081 0.70544 0.43710
 H49 H 1.33985 0.82480 0.50467
 H50 H 1.28622 0.74600 0.40016
 H51 H 1.27251 0.74951 0.59915
 H52 H 1.24177 0.70370 0.59394
 H53 H 1.16347 0.65138 0.48580
 H54 H 1.24052 0.71694 0.39396
 C55 C 0.79774 0.46055 0.50507
 C56 C 0.78495 0.45915 0.44706
 C57 C 0.75787 0.45857 0.44446
 C58 C 0.74514 0.46314 0.49898
 C59 C 0.75910 0.46507 0.55691
 C60 C 0.78494 0.46338 0.55988
 C61 C 0.72038 0.47006 0.49454
 C62 C 0.70524 0.47133 0.54864
 C63 C 0.68722 0.48428 0.54667
 C64 C 0.68132 0.49232 0.48811
 C65 C 0.69407 0.48923 0.43347
 C66 C 0.71388 0.47877 0.43686
 H67 H 0.81876 0.46114 0.50730
 H68 H 0.74826 0.45647 0.39892
 H69 H 0.75164 0.46994 0.59989
 H70 H 0.70896 0.46426 0.59327
 H71 H 0.66585 0.50029 0.48429
 H72 H 0.72489 0.47905 0.39405
 C73 C 0.52542 0.33234 0.49591
 C74 C 0.52412 0.31759 0.44076
 C75 C 0.52017 0.28920 0.44383
 C76 C 0.51510 0.27415 0.50151
 C77 C 0.51378 0.28860 0.55623
 C78 C 0.52026 0.31819 0.55432
 C79 C 0.51207 0.24403 0.50415
 C80 C 0.51783 0.23297 0.55968
 C81 C 0.51701 0.20559 0.56065
 C82 C 0.51085 0.18964 0.50448
 C83 C 0.50466 0.19990 0.44977
 C84 C 0.50457 0.22644 0.44991
 H85 H 0.52827 0.35427 0.49260
 H86 H 0.52161 0.27951 0.40045
 H87 H 0.50903 0.27745 0.60084
 H88 H 0.52460 0.24622 0.60152
 H89 H 0.50929 0.16823 0.50321
 H90 H 0.49820 0.23277 0.40726
 C91 C 0.65939 0.19629 0.50988
 C92 C 0.67332 0.20784 0.45276
 C93 C 0.69965 0.23515 0.45105
 C94 C 0.71233 0.25159 0.50647
 C95 C 0.69673 0.23974 0.56334
 C96 C 0.67125 0.21170 0.56525
 C97 C 0.74333 0.27820 0.50582
 C98 C 0.76017 0.28875 0.56161
 C99 C 0.79085 0.30887 0.55990
 C100 C 0.80465 0.31886 0.50159
 C101 C 0.78848 0.31023 0.44628
 C102 C 0.75786 0.29104 0.44856
 H103 H 0.63998 0.17438 0.51170
 H104 H 0.71076 0.24187 0.40650
 H105 H 0.70481 0.25092 0.60730
 H106 H 0.75057 0.27969 0.60656
 H107 H 0.82821 0.33441 0.49872
 H108 H 0.74617 0.28541 0.40473
 O109 O 0.95828 0.42940 0.11839
 O110 O 0.92463 0.43392 0.05783
 C111 C 0.93138 0.42203 0.10337
 O112 O 1.03846 0.56107 0.10443
 O113 O 1.07204 0.55396 0.04938
 C114 C 1.06533 0.56814 0.08974
 O115 O 0.95634 0.51479 0.11427
 O116 O 0.92358 0.47517 0.05577
 C117 C 0.92970 0.49413 0.10043
 O118 O 1.04086 0.47054 0.11273
 O119 O 1.07332 0.51040 0.05370
 C120 C 1.06745 0.49103 0.09756
 Zr121 Zr 0.99921 0.46190 0.08003
 O122 O 1.00220 0.46320 0.17872
 O123 O 0.99724 0.42053 0.07881
 Zr124 Zr 0.99750 0.52571 0.07407
 O125 O 1.00025 0.53238 0.17172
 O126 O 0.99269 0.56326 0.06288
 O127 O 0.97226 0.48034 0.09013
 O128 O 1.02389 0.50730 0.08868
 O129 O 1.04062 0.46763 -0.10776
 O130 O 1.07322 0.50923 -0.05419
 C131 C 1.06721 0.48854 -0.09470
 O132 O 0.95580 0.51266 -0.11913
 O133 O 0.92339 0.47401 -0.05727
 C134 C 0.92926 0.49243 -0.10309
 O135 O 1.03817 0.55770 -0.11513
 O136 O 1.07211 0.55209 -0.05803
 C137 C 1.06516 0.56510 -0.10093
 O138 O 0.95834 0.42714 -0.11302
 O139 O 0.92448 0.43249 -0.05485
 C140 C 0.93138 0.41982 -0.09859
 Zr141 Zr 0.99905 0.45961 -0.07561
 O142 O 1.00196 0.45631 -0.17352
 O143 O 0.99657 0.41822 -0.06458
 Zr144 Zr 0.99726 0.52327 -0.08160
 O145 O 1.00003 0.52512 -0.18032
 O146 O 0.99298 0.56137 -0.08061
 Zr147 Zr 0.95370 0.46940 -0.00015
 Zr148 Zr 1.04278 0.51585 -0.00141
 O149 O 1.02361 0.50457 -0.09095
 O150 O 0.97197 0.47761 -0.09098
 O151 O 1.02619 0.46990 0.00221
 O152 O 0.97094 0.51531 -0.00359
 O153 O 0.97297 0.44255 0.00289
 O154 O 1.02413 0.54341 -0.00463
 H155 H 1.03677 0.51461 0.12596
 H156 H 0.95670 0.52254 -0.00419
 H157 H 1.03621 0.51065 -0.12894
 H158 H 0.95961 0.42086 0.00412
 H159 H 1.01175 0.57968 0.04730
 H160 H 1.01127 0.57769 -0.06235
 H161 H 0.98609 0.50511 -0.19605
 H162 H 0.99088 0.46501 -0.19257
 H163 H 1.01630 0.42192 -0.05162
 H164 H 1.01553 0.42342 0.05845
 H165 H 0.98662 0.46688 0.19498
 H166 H 0.99481 0.51318 0.19108
 O167 O 0.44529 0.48264 0.11777
 O168 O 0.44916 0.52060 0.05735
 C169 C 0.43747 0.50178 0.10287
 O170 O 0.57727 0.53658 0.10500
 O171 O 0.57087 0.49647 0.04923
 C172 C 0.58488 0.51733 0.08977
 O173 O 0.53052 0.57165 0.11418
 O174 O 0.49034 0.56379 0.05655
 C175 C 0.50961 0.57715 0.10054
 O176 O 0.48665 0.44169 0.11019
 O177 O 0.52797 0.45182 0.05303
 C178 C 0.50809 0.43710 0.09535
 Zr179 Zr 0.47773 0.47471 0.07815
 O180 O 0.47749 0.47094 0.17657
 O181 O 0.43640 0.43501 0.07345
 Zr182 Zr 0.54118 0.54114 0.07591
 O183 O 0.54536 0.54158 0.17429
 O184 O 0.57864 0.58416 0.07059
 O185 O 0.49558 0.52003 0.09027
 O186 O 0.52321 0.49629 0.08842
 O187 O 0.48570 0.44160 -0.11175
 O188 O 0.52724 0.45157 -0.05619
 C189 C 0.50728 0.43708 -0.09810
 O190 O 0.52919 0.57143 -0.11647
 O191 O 0.48973 0.56370 -0.05586
 C192 C 0.50846 0.57696 -0.10101
 O193 O 0.57539 0.53572 -0.11339
 O194 O 0.56987 0.49599 -0.05714
 C195 C 0.58302 0.51634 -0.09942
 O196 O 0.44492 0.48321 -0.11729
 O197 O 0.44882 0.52076 -0.05570
 C198 C 0.43716 0.50234 -0.10167
 Zr199 Zr 0.47661 0.47425 -0.07758
 O200 O 0.47253 0.46831 -0.17539
 O201 O 0.43543 0.43475 -0.06641
 Zr202 Zr 0.54013 0.54079 -0.08006
 O203 O 0.54263 0.54103 -0.17880
 O204 O 0.57788 0.58366 -0.07697
 Zr205 Zr 0.48522 0.52836 0.00003
 Zr206 Zr 0.53279 0.48745 -0.00192
 O207 O 0.52192 0.49586 -0.09137
 O208 O 0.49442 0.51955 -0.09094
 O209 O 0.48684 0.45705 -0.00016
 O210 O 0.53117 0.55777 -0.00162
 O211 O 0.45861 0.48202 0.00091
 O212 O 0.55989 0.53380 -0.00291
 H213 H 0.53052 0.49065 0.12561
 H214 H 0.53835 0.57924 -0.00167
 H215 H 0.52863 0.49012 -0.12937
 H216 H 0.43686 0.47355 0.00143
 H217 H 0.59469 0.58263 0.04955
 H218 H 0.59435 0.58193 -0.05891
 H219 H 0.52271 0.53514 -0.19495
 H220 H 0.48850 0.48671 -0.19415
 H221 H 0.43956 0.41882 -0.05538
 H222 H 0.43991 0.41960 0.05571
 H223 H 0.48461 0.49089 0.19374
 H224 H 0.52568 0.53545 0.19239
 O225 O 0.46429 0.03460 0.11900
 O226 O 0.50501 0.06943 0.06544
 C227 C 0.48444 0.06169 0.10754
 O228 O 0.51478 -0.04599 0.11241
 O229 O 0.47581 -0.07777 0.05096
 C230 C 0.49491 -0.07235 0.09493
 O231 O 0.55274 0.03581 0.12637
 O232 O 0.54775 0.07001 0.06901
 C233 C 0.55959 0.06275 0.11387
 O234 O 0.42250 -0.04697 0.10654
 O235 O 0.43184 -0.07833 0.04937
 C236 C 0.41701 -0.07320 0.09135
 Zr237 Zr 0.45681 -0.00504 0.07816
 O238 O 0.45007 -0.01002 0.17594
 O239 O 0.41788 -0.00245 0.06810
 Zr240 Zr 0.52207 -0.00427 0.08365
 O241 O 0.52116 -0.00916 0.18193
 O242 O 0.56339 -0.00226 0.07728
 O243 O 0.50193 0.02106 0.09652
 O244 O 0.47669 -0.03023 0.09043
 O245 O 0.42833 -0.04229 -0.11538
 O246 O 0.43424 -0.07598 -0.05840
 C247 C 0.42143 -0.06918 -0.10175
 O248 O 0.55820 0.04173 -0.10566
 O249 O 0.55014 0.07276 -0.04390
 C250 C 0.56366 0.06785 -0.08908
 O251 O 0.52058 -0.04085 -0.10685
 O252 O 0.47874 -0.07519 -0.05531
 C253 C 0.49999 -0.06789 -0.09547
 O254 O 0.47470 0.04052 -0.11806
 O255 O 0.50885 0.07231 -0.04746
 C256 C 0.49347 0.06683 -0.09813
 Zr257 Zr 0.46098 -0.00136 -0.07736
 O258 O 0.45674 -0.00156 -0.17555
 O259 O 0.42247 0.00224 -0.07060
 Zr260 Zr 0.52627 -0.00055 -0.07182
 O261 O 0.52965 -0.00092 -0.17030
 O262 O 0.56828 0.00301 -0.06275
 Zr263 Zr 0.51335 0.04153 0.00802
 Zr264 Zr 0.46966 -0.04708 -0.00109
 O265 O 0.48141 -0.02609 -0.08903
 O266 O 0.50674 0.02513 -0.08421
 O267 O 0.44062 -0.03010 -0.00265
 O268 O 0.54173 0.02394 0.00894
 O269 O 0.46721 0.02308 0.00245
 O270 O 0.51586 -0.02913 0.00372
 H271 H 0.46970 -0.04366 0.12706
 H272 H 0.56332 0.03791 0.01125
 H273 H 0.47617 -0.03808 -0.12762
 H274 H 0.45957 0.03697 0.00193
 H275 H 0.56924 -0.00325 0.12081
 H276 H 0.56529 -0.01504 -0.04129
 H277 H 0.52246 0.01193 -0.18706
 H278 H 0.47402 -0.00196 -0.19317
 H279 H 0.40549 -0.01787 -0.06353
 H280 H 0.40261 -0.02108 0.04879
 H281 H 0.46964 0.00196 0.19572
 H282 H 0.51271 0.00246 0.19947
 C283 C 1.15540 0.50567 0.28118
 C284 C 1.14445 0.48514 0.33108
 C285 C 1.16177 0.48954 0.38404
 C286 C 1.19061 0.51395 0.38898
 C287 C 1.20235 0.53312 0.33722
 C288 C 1.18485 0.52932 0.28445
 C289 C 1.13474 0.50135 0.22810
 C290 C 1.14188 0.52184 0.17883
 C291 C 1.12065 0.51783 0.13389
 C292 C 1.09191 0.49321 0.13677
 C293 C 1.08537 0.47195 0.18348
 C294 C 1.10606 0.47609 0.22946
 C295 C 1.11606 0.46034 0.32861
 C296 C 1.09743 0.45571 0.27850
 H297 H 1.10793 0.44440 0.36651
 H298 H 1.07547 0.43636 0.27932
 H299 H 1.15276 0.47329 0.42132
 H300 H 1.22443 0.55218 0.33875
 H301 H 1.12643 0.53456 0.09827
 H302 H 1.06340 0.45269 0.18643
 H303 H 1.19456 0.54530 0.24713
 H304 H 1.16334 0.54155 0.17559
 C305 C 0.49685 0.65365 0.27865
 C306 C 0.51585 0.66175 0.33087
 C307 C 0.51083 0.67466 0.38305
 C308 C 0.48744 0.68063 0.38450
 C309 C 0.47063 0.67562 0.32985
 C310 C 0.47494 0.66184 0.27791
 C311 C 0.50071 0.63618 0.22756
 C312 C 0.48059 0.62312 0.17776
 C313 C 0.48391 0.60479 0.13472
 C314 C 0.50750 0.59931 0.14004
 C315 C 0.52826 0.61337 0.18784
 C316 C 0.52470 0.63096 0.23205
 C317 C 0.53952 0.65644 0.33155
 C318 C 0.54419 0.64188 0.28259
 H319 H 0.55448 0.66329 0.37101
 H320 H 0.56261 0.63795 0.28576
 H321 H 0.52546 0.68023 0.42290
 H322 H 0.45267 0.68027 0.32865
 H323 H 0.46752 0.59424 0.09841
 H324 H 0.54664 0.60946 0.19290
 H325 H 0.46062 0.65729 0.23816
 H326 H 0.46163 0.62594 0.17274
 C327 C 0.34821 -0.16109 0.27880
 C328 C 0.34054 -0.14999 0.33136
 C329 C 0.32962 -0.16704 0.38558
 C330 C 0.32471 -0.19600 0.38875
 C331 C 0.33025 -0.20785 0.33479
 C332 C 0.34237 -0.19047 0.28092
 C333 C 0.36249 -0.14075 0.22396
 C334 C 0.37469 -0.14775 0.17237
 C335 C 0.39066 -0.12655 0.12610
 C336 C 0.39452 -0.09805 0.12987
 C337 C 0.38043 -0.09186 0.17851
 C338 C 0.36545 -0.11239 0.22612
 C339 C 0.34361 -0.12190 0.32983
 C340 C 0.35527 -0.10373 0.27786
 H341 H 0.33707 -0.11372 0.36970
 H342 H 0.35753 -0.08200 0.27937
 H343 H 0.32374 -0.15793 0.42485
 H344 H 0.32666 -0.23007 0.33496
 H345 H 0.40115 -0.13207 0.08906
 H346 H 0.38302 -0.07006 0.18230
 H347 H 0.34699 -0.20035 0.24150
 H348 H 0.37333 -0.16894 0.16859
 C349 C 0.84007 0.47492 0.28475
 C350 C 0.85007 0.49430 0.33652
 C351 C 0.83156 0.48890 0.38806
 C352 C 0.80299 0.46424 0.38999
 C353 C 0.79250 0.44540 0.33826
 C354 C 0.81088 0.45054 0.28619
 C355 C 0.86150 0.48090 0.23208
 C356 C 0.85437 0.46304 0.17839
 C357 C 0.87606 0.46822 0.13353
 C358 C 0.90535 0.49127 0.14119
 C359 C 0.91202 0.51030 0.19231
 C360 C 0.89059 0.50526 0.23756
 C361 C 0.87874 0.51872 0.33751
 C362 C 0.89859 0.52403 0.28921
 H363 H 0.88618 0.53366 0.37700
 H364 H 0.92079 0.54284 0.29297
 H365 H 0.83951 0.50391 0.42747
 H366 H 0.77035 0.42639 0.33875
 H367 H 0.87004 0.45364 0.09368
 H368 H 0.93439 0.52853 0.19863
 H369 H 0.80204 0.43508 0.24805
 H370 H 0.83237 0.44468 0.17089
 C371 C 0.51968 0.36090 0.27419
 C372 C 0.54511 0.37467 0.31267
 C373 C 0.54716 0.35991 0.36553
 C374 C 0.52450 0.33125 0.37999
 C375 C 0.50043 0.31679 0.33931
 C376 C 0.49796 0.33139 0.28702
 C377 C 0.51668 0.37872 0.22281
 C378 C 0.49037 0.36885 0.18832
 C379 C 0.48778 0.38744 0.14502
 C380 C 0.51164 0.41580 0.13360
 C381 C 0.53813 0.42553 0.16614
 C382 C 0.54053 0.40765 0.21188
 C383 C 0.56794 0.40334 0.29915
 C384 C 0.56585 0.41931 0.24930
 H385 H 0.58757 0.41378 0.32806
 H386 H 0.58375 0.44168 0.24186
 H387 H 0.56600 0.37096 0.39652
 H388 H 0.48278 0.29458 0.34968
 H389 H 0.46694 0.37990 0.12119
 H390 H 0.55612 0.44793 0.15913
 H391 H 0.47867 0.31943 0.25799
 H392 H 0.47115 0.34739 0.19605
 C393 C 0.63517 0.14899 0.29722
 C394 C 0.63746 0.17710 0.29577
 C395 C 0.65142 0.19712 0.34512
 C396 C 0.66228 0.18901 0.39669
 C397 C 0.66056 0.16150 0.39729
 C398 C 0.64739 0.14179 0.34821
 C399 C 0.61840 0.12747 0.24622
 C400 C 0.61481 0.09901 0.24412
 C401 C 0.59671 0.07871 0.19949
 C402 C 0.58172 0.08610 0.15518
 C403 C 0.58670 0.11508 0.15415
 C404 C 0.60482 0.13573 0.19949
 C405 C 0.62482 0.18451 0.24638
 C406 C 0.60881 0.16425 0.19938
 H407 H 0.62668 0.20605 0.24485
 H408 H 0.59907 0.17089 0.16283
 H409 H 0.65258 0.21837 0.34493
 H410 H 0.66897 0.15501 0.43678
 H411 H 0.59395 0.05679 0.20082
 H412 H 0.57567 0.12127 0.11962
 H413 H 0.64630 0.12077 0.35226
 H414 H 0.62530 0.09166 0.27712
 C415 C 0.51833 0.15914 -0.27781
 C416 C 0.53203 0.15787 -0.33385
 C417 C 0.53337 0.17490 -0.38558
 C418 C 0.52097 0.19334 -0.38354
 C419 C 0.51034 0.19697 -0.32561
 C420 C 0.50876 0.17990 -0.27364
 C421 C 0.51341 0.13727 -0.22697
 C422 C 0.49789 0.13481 -0.17099
 C423 C 0.49174 0.11225 -0.12782
 C424 C 0.50059 0.09163 -0.14021
 C425 C 0.51687 0.09446 -0.19424
 C426 C 0.52344 0.11704 -0.23741
 C427 C 0.54320 0.13866 -0.33919
 C428 C 0.53909 0.11874 -0.29185
 H429 H 0.55440 0.13828 -0.38157
 H430 H 0.54735 0.10368 -0.29898
 H431 H 0.54372 0.17327 -0.42818
 H432 H 0.50088 0.21112 -0.32134
 H433 H 0.47946 0.11044 -0.08560
 H434 H 0.52413 0.07868 -0.20301
 H435 H 0.49899 0.18249 -0.23142
 H436 H 0.48986 0.14966 -0.16037
 C437 C 0.65411 0.50510 -0.29072
 C438 C 0.65615 0.47919 -0.29179
 C439 C 0.66823 0.47277 -0.34444
 C440 C 0.67653 0.49089 -0.39822
 C441 C 0.67393 0.51638 -0.39630
 C442 C 0.66319 0.52347 -0.34368
 C443 C 0.64039 0.51089 -0.23507
 C444 C 0.63889 0.53684 -0.22880
 C445 C 0.62203 0.53938 -0.18147
 C446 C 0.60656 0.51639 -0.13842
 C447 C 0.61096 0.49201 -0.13958
 C448 C 0.62749 0.48896 -0.18812
 C449 C 0.64480 0.45924 -0.24157
 C450 C 0.63029 0.46374 -0.19145
 H451 H 0.64611 0.43925 -0.24218
 H452 H 0.62075 0.44703 -0.15521
 H453 H 0.66913 0.45256 -0.34486
 H454 H 0.68114 0.53176 -0.43511
 H455 H 0.62004 0.55898 -0.18051
 H456 H 0.59988 0.47444 -0.10549
 H457 H 0.66158 0.54315 -0.34625
 H458 H 0.64981 0.55509 -0.26098
 C459 C 0.84632 0.34342 -0.28124
 C460 C 0.81756 0.33965 -0.28012
 C461 C 0.79816 0.32581 -0.33067
 C462 C 0.80811 0.31824 -0.38510
 C463 C 0.83682 0.32226 -0.38535
 C464 C 0.85541 0.33420 -0.33422
 C465 C 0.86691 0.35942 -0.22848
 C466 C 0.89497 0.36213 -0.22364
 C467 C 0.91503 0.38048 -0.17899
 C468 C 0.90768 0.39645 -0.13726
 C469 C 0.87863 0.39157 -0.13755
 C470 C 0.85817 0.37307 -0.18291
 C471 C 0.80925 0.35159 -0.23071
 C472 C 0.82936 0.36857 -0.18403
 H473 H 0.78735 0.34900 -0.22978
 H474 H 0.82231 0.37852 -0.14863
 H475 H 0.77640 0.32360 -0.32992
 H476 H 0.84503 0.31585 -0.42533
 H477 H 0.93684 0.38283 -0.17863
 H478 H 0.87229 0.40296 -0.10429
 H479 H 0.87730 0.33718 -0.33847
 H480 H 0.90212 0.35068 -0.25456
 C481 C 0.49031 -0.15285 -0.27985
 C482 C 0.46276 -0.17948 -0.28402
 C483 C 0.45690 -0.19855 -0.33503
 C484 C 0.47772 -0.19083 -0.38321
 C485 C 0.50504 -0.16471 -0.37877
 C486 C 0.51144 -0.14605 -0.32758
 C487 C 0.49500 -0.13218 -0.22699
 C488 C 0.52155 -0.10517 -0.21888
 C489 C 0.52367 -0.08508 -0.17359
 C490 C 0.49957 -0.09145 -0.13455
 C491 C 0.47381 -0.11928 -0.13900
 C492 C 0.47128 -0.13953 -0.18508
 C493 C 0.44077 -0.18620 -0.23892
 C494 C 0.44482 -0.16653 -0.19091
 H495 H 0.41970 -0.20655 -0.24200
 H496 H 0.42671 -0.17229 -0.15857
 H497 H 0.43559 -0.21861 -0.33900
 H498 H 0.52128 -0.15846 -0.41584
 H499 H 0.54399 -0.06399 -0.17070
 H500 H 0.45506 -0.12462 -0.10894
 H501 H 0.53266 -0.12602 -0.32744
 H502 H 0.54070 -0.09873 -0.24803
 C503 C 0.36279 0.51717 -0.28194
 C504 C 0.35125 0.49606 -0.33050
 C505 C 0.33729 0.50040 -0.38173
 C506 C 0.33483 0.52575 -0.38662
 C507 C 0.34511 0.54619 -0.33764
 C508 C 0.35900 0.54202 -0.28579
 C509 C 0.37949 0.51252 -0.23023
 C510 C 0.39269 0.53241 -0.18028
 C511 C 0.41010 0.52823 -0.13644
 C512 C 0.41496 0.50428 -0.14143
 C513 C 0.40050 0.48351 -0.18891
 C514 C 0.38305 0.48747 -0.23313
 C515 C 0.35443 0.47110 -0.32890
 C516 C 0.37004 0.46694 -0.28136
 H517 H 0.34529 0.45483 -0.36588
 H518 H 0.37252 0.44762 -0.28316
 H519 H 0.32885 0.48424 -0.41903
 H520 H 0.34326 0.56583 -0.34047
 H521 H 0.42059 0.54439 -0.09978
 H522 H 0.40369 0.46467 -0.19303
 H523 H 0.36713 0.55872 -0.25000
 H524 H 0.39040 0.55163 -0.17507
 C525 C 1.14722 0.63953 -0.29049
 C526 C 1.17578 0.64289 -0.29305
 C527 C 1.19435 0.65696 -0.34503
 C528 C 1.18355 0.66496 -0.39745
 C529 C 1.15463 0.66038 -0.39476
 C530 C 1.13697 0.64833 -0.34211
 C531 C 1.12791 0.62439 -0.23523
 C532 C 1.10082 0.62335 -0.22553
 C533 C 1.08155 0.60561 -0.17878
 C534 C 1.08877 0.58853 -0.14002
 C535 C 1.11717 0.59188 -0.14499
 C536 C 1.13694 0.61004 -0.19210
 C537 C 1.18469 0.63052 -0.24562
 C538 C 1.16532 0.61360 -0.19739
 H539 H 1.20641 0.63269 -0.24750
 H540 H 1.17266 0.60319 -0.16377
 H541 H 1.21621 0.65941 -0.34666
 H542 H 1.14567 0.66694 -0.43308
 H543 H 1.06029 0.60436 -0.17476
 H544 H 1.12336 0.57938 -0.11443
 H545 H 1.11494 0.64516 -0.34377
 H546 H 1.09384 0.63564 -0.25433
 C547 C 0.83826 0.47765 -0.27771
 C548 C 0.84734 0.49947 -0.32505
 C549 C 0.82898 0.49509 -0.37618
 C550 C 0.80155 0.46920 -0.38139
 C551 C 0.79170 0.44818 -0.33343
 C552 C 0.80984 0.45229 -0.28194
 C553 C 0.85996 0.48202 -0.22715
 C554 C 0.85405 0.46105 -0.17963
 C555 C 0.87610 0.46508 -0.13721
 C556 C 0.90454 0.48997 -0.14132
 C557 C 0.91002 0.51170 -0.18617
 C558 C 0.88822 0.50785 -0.22911
 C559 C 0.87513 0.52509 -0.32250
 C560 C 0.89511 0.52924 -0.27544
 H561 H 0.88185 0.54190 -0.35840
 H562 H 0.91666 0.54913 -0.27647
 H563 H 0.83642 0.51137 -0.41343
 H564 H 0.77046 0.42807 -0.33706
 H565 H 0.87112 0.44820 -0.10242
 H566 H 0.93175 0.53130 -0.18938
 H567 H 0.80156 0.43510 -0.24695
 H568 H 0.83288 0.44108 -0.17542
 C569 C 0.52169 0.36696 -0.28614
 C570 C 0.50023 0.33666 -0.29073
 C571 C 0.50104 0.31994 -0.34139
 C572 C 0.52135 0.33369 -0.39084
 C573 C 0.54212 0.36402 -0.38612
 C574 C 0.54260 0.38027 -0.33442
 C575 C 0.51987 0.38425 -0.23260
 C576 C 0.54191 0.41364 -0.22101
 C577 C 0.53782 0.42990 -0.17494
 C578 C 0.51197 0.41739 -0.13899
 C579 C 0.49047 0.38766 -0.14745
 C580 C 0.49465 0.37076 -0.19320
 C581 C 0.47709 0.32380 -0.24691
 C582 C 0.47386 0.34070 -0.20034
 H583 H 0.46044 0.30065 -0.25044
 H584 H 0.45485 0.33007 -0.16946
 H585 H 0.48417 0.29684 -0.34479
 H586 H 0.55865 0.37532 -0.42219
 H587 H 0.55425 0.45295 -0.16954
 H588 H 0.47054 0.37790 -0.11908
 H589 H 0.55889 0.40348 -0.33444
 H590 H 0.56224 0.42463 -0.24753
 C591 C 0.63350 0.15920 -0.26955
 C592 C 0.64984 0.15258 -0.31284
 C593 C 0.66307 0.17081 -0.36476
 C594 C 0.66010 0.19555 -0.37527
 C595 C 0.64478 0.20286 -0.33187
 C596 C 0.63154 0.18486 -0.27941
 C597 C 0.61798 0.13778 -0.21705
 C598 C 0.60063 0.14173 -0.17185
 C599 C 0.58450 0.11978 -0.12744
 C600 C 0.58510 0.09329 -0.12725
 C601 C 0.60372 0.08997 -0.16955
 C602 C 0.62000 0.11183 -0.21424
 C603 C 0.65208 0.12724 -0.30556
 C604 C 0.63739 0.10724 -0.25746
 H605 H 0.66479 0.12237 -0.33862
 H606 H 0.63917 0.08753 -0.25487
 H607 H 0.67499 0.16525 -0.39856
 H608 H 0.64223 0.22189 -0.33967
 H609 H 0.57033 0.12297 -0.09528
 H610 H 0.60467 0.06977 -0.16938
 H611 H 0.61933 0.19098 -0.24813
 H612 H 0.59855 0.16118 -0.17107
 C613 C 1.15481 0.49956 -0.27544
 C614 C 1.14318 0.48011 -0.32681
 C615 C 1.16039 0.48488 -0.38038
 C616 C 1.18984 0.50822 -0.38360
 C617 C 1.20230 0.52565 -0.32997
 C618 C 1.18489 0.52173 -0.27695
 C619 C 1.13422 0.49586 -0.22264
 C620 C 1.14176 0.51666 -0.17411
 C621 C 1.12052 0.51364 -0.12998
 C622 C 1.09148 0.48959 -0.13275
 C623 C 1.08452 0.46792 -0.17852
 C624 C 1.10511 0.47137 -0.22432
 C625 C 1.11427 0.45612 -0.32498
 C626 C 1.09588 0.45143 -0.27408
 H627 H 1.10560 0.44088 -0.36386
 H628 H 1.07354 0.43271 -0.27524
 H629 H 1.15081 0.46995 -0.41958
 H630 H 1.22496 0.54373 -0.33029
 H631 H 1.12655 0.53069 -0.09516
 H632 H 1.06227 0.44911 -0.18140
 H633 H 1.19521 0.53644 -0.23803
 H634 H 1.16346 0.53605 -0.17131
 C635 C 0.49179 0.64981 -0.28135
 C636 C 0.51182 0.65958 -0.33224
 C637 C 0.50650 0.67192 -0.38490
 C638 C 0.48157 0.67542 -0.38866
 C639 C 0.46299 0.66800 -0.33590
 C640 C 0.46777 0.65496 -0.28325
 C641 C 0.49684 0.63375 -0.22894
 C642 C 0.47685 0.62028 -0.17880
 C643 C 0.48130 0.60304 -0.13483
 C644 C 0.50576 0.59892 -0.13985
 C645 C 0.52665 0.61386 -0.18722
 C646 C 0.52216 0.63059 -0.23205
 C647 C 0.53695 0.65663 -0.33113
 C648 C 0.54219 0.64274 -0.28171
 H649 H 0.55257 0.66471 -0.36970
 H650 H 0.56167 0.64046 -0.28367
 H651 H 0.52237 0.67934 -0.42303
 H652 H 0.44367 0.67051 -0.33647
 H653 H 0.46505 0.59214 -0.09817
 H654 H 0.54588 0.61124 -0.19149
 H655 H 0.45224 0.64869 -0.24502
 H656 H 0.45719 0.62195 -0.17404
 C657 C 0.34477 -0.15895 -0.27824
 C658 C 0.33377 -0.14924 -0.32768
 C659 C 0.32016 -0.16753 -0.37917
 C660 C 0.31744 -0.19548 -0.38281
 C661 C 0.32662 -0.20593 -0.33237
 C662 C 0.34017 -0.18790 -0.28054
 C663 C 0.36205 -0.13738 -0.22746
 C664 C 0.37586 -0.14389 -0.17848
 C665 C 0.39401 -0.12210 -0.13588
 C666 C 0.39886 -0.09328 -0.14087
 C667 C 0.38396 -0.08703 -0.18750
 C668 C 0.36596 -0.10863 -0.23091
 C669 C 0.33736 -0.12092 -0.32676
 C670 C 0.35300 -0.10110 -0.27925
 H671 H 0.32857 -0.11367 -0.36423
 H672 H 0.35581 -0.07917 -0.28154
 H673 H 0.31264 -0.15959 -0.41781
 H674 H 0.32461 -0.22752 -0.33442
 H675 H 0.40507 -0.12761 -0.10018
 H676 H 0.38730 -0.06494 -0.19187
 H677 H 0.34760 -0.19669 -0.24379
 H678 H 0.37367 -0.16537 -0.17328
 C679 C 0.47741 -0.16069 0.27776
 C680 C 0.49994 -0.15174 0.32321
 C681 C 0.49505 -0.16868 0.37718
 C682 C 0.46798 -0.19458 0.38729
 C683 C 0.44600 -0.20428 0.34149
 C684 C 0.45055 -0.18747 0.28729
 C685 C 0.48283 -0.14045 0.22330
 C686 C 0.46151 -0.14626 0.17684
 C687 C 0.46638 -0.12494 0.13165
 C688 C 0.49256 -0.09740 0.13172
 C689 C 0.51486 -0.09249 0.17443
 C690 C 0.51011 -0.11349 0.22037
 C691 C 0.52699 -0.12555 0.31562
 C692 C 0.53198 -0.10684 0.26524
 H693 H 0.54432 -0.11899 0.35011
 H694 H 0.55298 -0.08636 0.26250
 H695 H 0.51229 -0.16149 0.41216
 H696 H 0.42506 -0.22446 0.34845
 H697 H 0.44894 -0.12946 0.09877
 H698 H 0.53540 -0.07148 0.17442
 H699 H 0.43269 -0.19552 0.25409
 H700 H 0.44054 -0.16660 0.17601
 C701 C 0.35906 0.51243 0.27937
 C702 C 0.34839 0.49166 0.32898
 C703 C 0.33422 0.49577 0.38031
 C704 C 0.33050 0.52040 0.38350
 C705 C 0.33939 0.54006 0.33299
 C706 C 0.35357 0.53619 0.28136
 C707 C 0.37689 0.50881 0.22870
 C708 C 0.39043 0.52929 0.17952
 C709 C 0.40909 0.52631 0.13694
 C710 C 0.41467 0.50285 0.14218
 C711 C 0.40007 0.48156 0.18902
 C712 C 0.38161 0.48450 0.23240
 C713 C 0.35279 0.46745 0.32833
 C714 C 0.36893 0.46387 0.28090
 H715 H 0.34424 0.45137 0.36594
 H716 H 0.37235 0.44513 0.28334
 H717 H 0.32688 0.48029 0.41908
 H718 H 0.33647 0.55910 0.33467
 H719 H 0.41991 0.54300 0.10108
 H720 H 0.40395 0.46317 0.19342
 H721 H 0.36067 0.55238 0.24442
 H722 H 0.38760 0.54819 0.17414
 C723 C 1.15006 0.64759 0.26812
 C724 C 1.17579 0.64553 0.27729
 C725 C 1.19381 0.65882 0.32964
 C726 C 1.18581 0.67309 0.37425
 C727 C 1.16078 0.67570 0.36459
 C728 C 1.14324 0.66341 0.31190
 C729 C 1.13000 0.63094 0.21499
 C730 C 1.10360 0.63107 0.20298
 C731 C 1.08349 0.61193 0.15914
 C732 C 1.08936 0.59254 0.12527
 C733 C 1.11683 0.59421 0.13258
 C734 C 1.13700 0.61297 0.17768
 C735 C 1.18247 0.62889 0.23617
 C736 C 1.16336 0.61276 0.18772
 H737 H 1.20221 0.62739 0.24301
 H738 H 1.16891 0.59927 0.15875
 H739 H 1.21301 0.65651 0.33777
 H740 H 1.15438 0.68665 0.39892
 H741 H 1.06269 0.61150 0.15358
 H742 H 1.12168 0.57948 0.10631
 H743 H 1.12392 0.66563 0.30779
 H744 H 1.09747 0.64495 0.22836
 C745 C 0.48823 0.14466 0.29011
 C746 C 0.51440 0.17258 0.29335
 C747 C 0.51882 0.19143 0.34391
 C748 C 0.49799 0.18227 0.39242
 C749 C 0.47203 0.15487 0.38901
 C750 C 0.46699 0.13633 0.33826
 C751 C 0.48519 0.12435 0.23790
 C752 C 0.45988 0.09637 0.23044
 C753 C 0.45936 0.07681 0.18593
 C754 C 0.48391 0.08459 0.14709
 C755 C 0.50835 0.11332 0.15061
 C756 C 0.50916 0.13321 0.19582
 C757 C 0.53653 0.18086 0.24781
 C758 C 0.53407 0.16149 0.20040
 H759 H 0.55651 0.20228 0.25004
 H760 H 0.55211 0.16862 0.16732
 H761 H 0.53914 0.21255 0.34734
 H762 H 0.45591 0.14755 0.42657
 H763 H 0.43983 0.05509 0.18330
 H764 H 0.52724 0.11980 0.12020
 H765 H 0.44684 0.11523 0.33894
 H766 H 0.44044 0.08881 0.25927
 C767 C 0.66456 0.51146 0.26599
 C768 C 0.66421 0.48431 0.27013
 C769 C 0.67582 0.47791 0.32321
 C770 C 0.68696 0.49790 0.37306
 C771 C 0.68863 0.52532 0.36743
 C772 C 0.67781 0.53216 0.31452
 C773 C 0.64860 0.51595 0.21291
 C774 C 0.64625 0.54144 0.20702
 C775 C 0.62704 0.54256 0.16370
 C776 C 0.60992 0.51851 0.12445
 C777 C 0.61460 0.49435 0.12506
 C778 C 0.63347 0.49271 0.16964
 C779 C 0.65082 0.46313 0.22300
 C780 C 0.63582 0.46728 0.17371
 H781 H 0.65081 0.44248 0.22568
 H782 H 0.62463 0.44964 0.14007
 H783 H 0.67444 0.45663 0.32760
 H784 H 0.69756 0.54118 0.40515
 H785 H 0.62460 0.56190 0.16310
 H786 H 0.60195 0.47584 0.09413
 H787 H 0.67903 0.55331 0.31392
 H788 H 0.65801 0.56030 0.23707
 C789 C 0.84286 0.34527 0.28268
 C790 C 0.81799 0.34897 0.29063
 C791 C 0.79895 0.33600 0.34224
 C792 C 0.80475 0.31976 0.38633
 C793 C 0.82823 0.31461 0.37603
 C794 C 0.84693 0.32695 0.32476
 C795 C 0.86461 0.36220 0.23174
 C796 C 0.89152 0.36242 0.22456
 C797 C 0.91255 0.38095 0.18099
 C798 C 0.90721 0.39943 0.14252
 C799 C 0.87973 0.39808 0.14656
 C800 C 0.85874 0.38019 0.19182
 C801 C 0.81296 0.36638 0.24829
 C802 C 0.83271 0.38136 0.19949
 H803 H 0.79375 0.36893 0.25367
 H804 H 0.82802 0.39487 0.16858
 H805 H 0.78063 0.33982 0.34992
 H806 H 0.83261 0.30157 0.40903
 H807 H 0.93344 0.38134 0.17852
 H808 H 0.87537 0.41222 0.11700
 H809 H 0.86479 0.32243 0.32004
 H810 H 0.89735 0.34931 0.25357
   
