data_POSCAR
  _audit_creation_date              2014-09-24
  _audit_creation_method            'ToBaCCo'
  _symmetry_space_group_name_H-M    'P1'
  _symmetry_Int_Tables_number       1
  _symmetry_cell_setting            triclinic
  loop_
  _symmetry_equiv_pos_as_xyz
 x,y,z
_cell_length_a 47.3138
_cell_length_b 47.5181
_cell_length_c 47.6726
_cell_angle_alpha 89.992200
_cell_angle_beta 89.971200
_cell_angle_gamma 90.024600
loop_
  _atom_site_label
  _atom_site_type_symbol
  _atom_site_fract_x
  _atom_site_fract_y
  _atom_site_fract_z
N1 N 0.29602 0.23726 0.21845
 N2 N 0.28575 0.26034 0.20714
 C3 C 0.30084 0.26668 0.18400
 C4 C 0.32156 0.24654 0.18088
 C5 C 0.31799 0.22814 0.20293
 H6 H 0.29677 0.28423 0.17013
 H7 H 0.33011 0.20930 0.20707
 Cu8 Cu 0.25295 0.27936 0.22289
 Cu9 Cu 0.27947 0.22017 0.25169
 Cu10 Cu 0.21985 0.25208 0.27931
 N11 N 0.21876 0.29620 0.23816
 N12 N 0.20595 0.28547 0.26020
 C13 C 0.18254 0.30059 0.26574
 C14 C 0.18072 0.32182 0.24615
 C15 C 0.20387 0.31854 0.22890
 H16 H 0.16766 0.29616 0.28240
 H17 H 0.20909 0.33110 0.21070
 N18 N 0.23702 0.21814 0.29579
 N19 N 0.25978 0.20601 0.28526
 C20 C 0.26589 0.18296 0.30057
 C21 C 0.24605 0.18064 0.32158
 C22 C 0.22803 0.20311 0.31807
 H23 H 0.28312 0.16859 0.29647
 H24 H 0.20949 0.20780 0.33049
 H25 H 0.23898 0.23479 0.24419
 H26 H 0.26179 0.25640 0.26785
 N27 N 0.70393 -0.23693 0.21724
 N28 N 0.71494 -0.25939 0.20535
 C29 C 0.69994 -0.26575 0.18217
 C30 C 0.67854 -0.24626 0.17965
 C31 C 0.68157 -0.22821 0.20207
 H32 H 0.70451 -0.28286 0.16791
 H33 H 0.66886 -0.20987 0.20670
 Cu34 Cu 0.74846 -0.27727 0.22085
 Cu35 Cu 0.72009 -0.22000 0.25088
 Cu36 Cu 0.77988 -0.25191 0.27864
 N37 N 0.78194 -0.29516 0.23643
 N38 N 0.79410 -0.28507 0.25914
 C39 C 0.81716 -0.30055 0.26510
 C40 C 0.81938 -0.32135 0.24509
 C41 C 0.79689 -0.31745 0.22714
 H42 H 0.83151 -0.29663 0.28232
 H43 H 0.79215 -0.32955 0.20851
 N44 N 0.76228 -0.21820 0.29533
 N45 N 0.73951 -0.20608 0.28476
 C46 C 0.73321 -0.18318 0.30021
 C47 C 0.75289 -0.18095 0.32137
 C48 C 0.77104 -0.20330 0.31777
 H49 H 0.71598 -0.16882 0.29610
 H50 H 0.78955 -0.20796 0.33023
 H51 H 0.76110 -0.23336 0.24415
 H52 H 0.73826 -0.25630 0.26640
 N53 N 0.70473 0.23725 0.78145
 N54 N 0.71546 0.25999 0.79306
 C55 C 0.70030 0.26647 0.81612
 C56 C 0.67909 0.24678 0.81889
 C57 C 0.68242 0.22850 0.79669
 H58 H 0.70462 0.28381 0.83016
 H59 H 0.66992 0.20995 0.79231
 Cu60 Cu 0.74887 0.27813 0.77755
 Cu61 Cu 0.72120 0.22005 0.74815
 Cu62 Cu 0.78071 0.25220 0.72007
 N63 N 0.78230 0.29596 0.76170
 N64 N 0.79458 0.28572 0.73913
 C65 C 0.81759 0.30127 0.73307
 C66 C 0.81964 0.32228 0.75287
 C67 C 0.79711 0.31843 0.77080
 H68 H 0.83205 0.29722 0.71596
 H69 H 0.79229 0.33066 0.78932
 N70 N 0.76351 0.21810 0.70381
 N71 N 0.74087 0.20585 0.71454
 C72 C 0.73483 0.18267 0.69940
 C73 C 0.75455 0.18040 0.67827
 C74 C 0.77245 0.20302 0.68156
 H75 H 0.71773 0.16819 0.70369
 H76 H 0.79089 0.20777 0.66900
 H77 H 0.76203 0.23402 0.75492
 H78 H 0.73900 0.25642 0.73230
 N79 N 0.29538 -0.23713 0.78245
 N80 N 0.28421 -0.25948 0.79443
 C81 C 0.29913 -0.26583 0.81766
 C82 C 0.32068 -0.24649 0.82015
 C83 C 0.31779 -0.22854 0.79762
 H84 H 0.29440 -0.28284 0.83200
 H85 H 0.33067 -0.21031 0.79295
 Cu86 Cu 0.25066 -0.27726 0.77895
 Cu87 Cu 0.27920 -0.22003 0.74887
 Cu88 Cu 0.21932 -0.25176 0.72114
 N89 N 0.21715 -0.29506 0.76338
 N90 N 0.20510 -0.28501 0.74060
 C91 C 0.18206 -0.30053 0.73459
 C92 C 0.17974 -0.32128 0.75466
 C93 C 0.20216 -0.31732 0.77269
 H94 H 0.16780 -0.29668 0.71728
 H95 H 0.20681 -0.32936 0.79138
 N96 N 0.23694 -0.21801 0.70455
 N97 N 0.25976 -0.20596 0.71510
 C98 C 0.26607 -0.18300 0.69974
 C99 C 0.24633 -0.18064 0.67866
 C100 C 0.22815 -0.20300 0.68219
 H101 H 0.28335 -0.16869 0.70388
 H102 H 0.20960 -0.20760 0.66976
 H103 H 0.23815 -0.23339 0.75567
 H104 H 0.26091 -0.25637 0.73337
 N105 N 0.70531 -0.23675 0.78269
 N106 N 0.71636 -0.25924 0.79448
 C107 C 0.70137 -0.26570 0.81764
 C108 C 0.67995 -0.24625 0.82030
 C109 C 0.68295 -0.22814 0.79793
 H110 H 0.70596 -0.28285 0.83184
 H111 H 0.67023 -0.20978 0.79343
 Cu112 Cu 0.74993 -0.27696 0.77895
 Cu113 Cu 0.72142 -0.21962 0.74916
 Cu114 Cu 0.78116 -0.25139 0.72109
 N115 N 0.78337 -0.29475 0.76316
 N116 N 0.79543 -0.28462 0.74041
 C117 C 0.81848 -0.30007 0.73432
 C118 C 0.82081 -0.32087 0.75432
 C119 C 0.79838 -0.31702 0.77237
 H120 H 0.83278 -0.29610 0.71705
 H121 H 0.79374 -0.32913 0.79103
 N122 N 0.76353 -0.21762 0.70462
 N123 N 0.74081 -0.20553 0.71535
 C124 C 0.73451 -0.18251 0.70008
 C125 C 0.75413 -0.18020 0.67888
 C126 C 0.77225 -0.20261 0.68224
 H127 H 0.71734 -0.16813 0.70436
 H128 H 0.79071 -0.20721 0.66968
 H129 H 0.73956 -0.25584 0.73352
 H130 H 0.76245 -0.23294 0.75574
 N131 N 0.29505 0.23623 0.78260
 N132 N 0.28386 0.25858 0.79453
 C133 C 0.29878 0.26499 0.81773
 C134 C 0.32033 0.24567 0.82024
 C135 C 0.31745 0.22767 0.79778
 H136 H 0.29411 0.28204 0.83201
 H137 H 0.33030 0.20942 0.79317
 Cu138 Cu 0.25028 0.27629 0.77904
 Cu139 Cu 0.27899 0.21913 0.74906
 Cu140 Cu 0.21915 0.25075 0.72115
 N141 N 0.21690 0.29409 0.76321
 N142 N 0.20487 0.28397 0.74046
 C143 C 0.18188 0.29947 0.73434
 C144 C 0.17952 0.32031 0.75429
 C145 C 0.20190 0.31640 0.77236
 H146 H 0.16761 0.29553 0.71706
 H147 H 0.20653 0.32856 0.79097
 N148 N 0.23679 0.21702 0.70468
 N149 N 0.25960 0.20502 0.71528
 C150 C 0.26588 0.18199 0.70003
 C151 C 0.24614 0.17957 0.67897
 C152 C 0.22798 0.20192 0.68240
 H153 H 0.28311 0.16766 0.70425
 H154 H 0.20942 0.20644 0.66996
 H155 H 0.26074 0.25537 0.73356
 H156 H 0.23794 0.23230 0.75577
 N157 N 0.29622 -0.23688 0.21825
 N158 N 0.28587 -0.25998 0.20704
 C159 C 0.30089 -0.26641 0.18390
 C160 C 0.32167 -0.24634 0.18070
 C161 C 0.31821 -0.22787 0.20270
 H162 H 0.29670 -0.28397 0.17007
 H163 H 0.33038 -0.20902 0.20673
 Cu164 Cu 0.25300 -0.27885 0.22277
 Cu165 Cu 0.27971 -0.21963 0.25140
 Cu166 Cu 0.21983 -0.25110 0.27895
 N167 N 0.21856 -0.29531 0.23794
 N168 N 0.20575 -0.28441 0.25988
 C169 C 0.18216 -0.29929 0.26536
 C170 C 0.18023 -0.32054 0.24581
 C171 C 0.20348 -0.31751 0.22865
 H172 H 0.16725 -0.29469 0.28193
 H173 H 0.20867 -0.33015 0.21050
 N174 N 0.23718 -0.21726 0.29538
 N175 N 0.26004 -0.20526 0.28486
 C176 C 0.26621 -0.18217 0.30008
 C177 C 0.24631 -0.17971 0.32102
 C178 C 0.22819 -0.20211 0.31754
 H179 H 0.28351 -0.16788 0.29596
 H180 H 0.20957 -0.20666 0.32991
 H181 H 0.26180 -0.25572 0.26765
 H182 H 0.23919 -0.23412 0.24378
 N183 N 0.70415 0.23616 0.21777
 N184 N 0.71499 0.25885 0.20616
 C185 C 0.69999 0.26534 0.18303
 C186 C 0.67874 0.24572 0.18022
 C187 C 0.68188 0.22745 0.20245
 H188 H 0.70445 0.28263 0.16896
 H189 H 0.66930 0.20895 0.20681
 Cu190 Cu 0.74833 0.27696 0.22176
 Cu191 Cu 0.72041 0.21895 0.25113
 Cu192 Cu 0.77990 0.25094 0.27932
 N193 N 0.78168 0.29473 0.23773
 N194 N 0.79387 0.28445 0.26031
 C195 C 0.81686 0.29998 0.26643
 C196 C 0.81904 0.32100 0.24665
 C197 C 0.79656 0.31717 0.22869
 H198 H 0.83127 0.29592 0.28356
 H199 H 0.79183 0.32941 0.21015
 N200 N 0.76258 0.21690 0.29553
 N201 N 0.73991 0.20473 0.28480
 C202 C 0.73373 0.18160 0.29997
 C203 C 0.75341 0.17929 0.32111
 C204 C 0.77142 0.20181 0.31780
 H205 H 0.71658 0.16719 0.29569
 H206 H 0.78985 0.20650 0.33036
 H207 H 0.73826 0.25529 0.26703
 H208 H 0.76131 0.23284 0.24445
 C209 C 0.23432 0.02589 0.44076
 C210 C 0.23435 0.00038 0.42622
 C211 C 0.23440 -0.02530 0.44046
 C212 C 0.23428 -0.02577 0.47010
 C213 C 0.23417 0.00001 0.48512
 C214 C 0.23418 0.02598 0.47040
 C215 C 0.23420 0.05128 0.48571
 C216 C 0.23436 0.05109 0.51492
 C217 C 0.23450 0.02560 0.52992
 C218 C 0.23432 -0.00018 0.51490
 C219 C 0.23443 -0.05126 0.48511
 C220 C 0.23455 -0.05144 0.51433
 C221 C 0.23454 -0.02615 0.52963
 C222 C 0.23492 -0.02605 0.55928
 C223 C 0.23509 -0.00054 0.57380
 C224 C 0.23495 0.02513 0.55955
 H225 H 0.23413 0.07147 0.47519
 H226 H 0.23443 0.07115 0.52568
 H227 H 0.23451 -0.07132 0.47435
 H228 H 0.23471 -0.07164 0.52485
 H229 H 0.23462 0.00052 0.40345
 H230 H 0.23556 -0.00066 0.59657
 C231 C 0.76587 -0.02569 0.55955
 C232 C 0.76584 -0.00001 0.57381
 C233 C 0.76598 0.02550 0.55927
 C234 C 0.76630 0.02560 0.52963
 C235 C 0.76632 -0.00036 0.51490
 C236 C 0.76617 -0.02614 0.52991
 C237 C 0.76613 -0.05163 0.51491
 C238 C 0.76599 -0.05180 0.48569
 C239 C 0.76588 -0.02650 0.47039
 C240 C 0.76618 -0.00054 0.48512
 C241 C 0.76640 0.05090 0.51433
 C242 C 0.76626 0.05073 0.48511
 C243 C 0.76602 0.02524 0.47010
 C244 C 0.76543 0.02480 0.44047
 C245 C 0.76512 -0.00088 0.42622
 C246 C 0.76529 -0.02640 0.44075
 H247 H 0.76611 -0.07169 0.52566
 H248 H 0.76589 -0.07199 0.47517
 H249 H 0.76651 0.07109 0.52485
 H250 H 0.76626 0.07080 0.47436
 H251 H 0.76541 0.00011 0.59658
 H252 H 0.76447 -0.00100 0.40346
 C253 C 0.44016 0.23541 -0.02539
 C254 C 0.42578 0.23554 0.00020
 C255 C 0.44042 0.23534 0.02563
 C256 C 0.47029 0.23493 0.02572
 C257 C 0.48513 0.23484 -0.00016
 C258 C 0.47002 0.23503 -0.02585
 C259 C 0.48515 0.23501 -0.05125
 C260 C 0.51459 0.23506 -0.05143
 C261 C 0.52999 0.23509 -0.02621
 C262 C 0.51514 0.23484 -0.00034
 C263 C 0.48568 0.23477 0.05094
 C264 C 0.51512 0.23475 0.05076
 C265 C 0.53025 0.23491 0.02536
 C266 C 0.56011 0.23531 0.02493
 C267 C 0.57449 0.23555 -0.00066
 C268 C 0.55987 0.23551 -0.02610
 H269 H 0.47433 0.23504 -0.07126
 H270 H 0.52521 0.23513 -0.07155
 H271 H 0.47507 0.23473 0.07106
 H272 H 0.52593 0.23469 0.07077
 H273 H 0.40284 0.23603 0.00034
 H274 H 0.59743 0.23605 -0.00077
 C275 C 0.56021 0.76427 0.02607
 C276 C 0.57485 0.76421 0.00063
 C277 C 0.56047 0.76439 -0.02495
 C278 C 0.53061 0.76468 -0.02538
 C279 C 0.51549 0.76479 0.00033
 C280 C 0.53034 0.76466 0.02620
 C281 C 0.51494 0.76479 0.05143
 C282 C 0.48550 0.76489 0.05128
 C283 C 0.47038 0.76472 0.02589
 C284 C 0.48549 0.76477 0.00018
 C285 C 0.51548 0.76470 -0.05077
 C286 C 0.48603 0.76455 -0.05092
 C287 C 0.47063 0.76451 -0.02568
 C288 C 0.44076 0.76409 -0.02555
 C289 C 0.42614 0.76406 -0.00009
 C290 C 0.44052 0.76435 0.02548
 H291 H 0.52554 0.76480 0.07155
 H292 H 0.47468 0.76500 0.07129
 H293 H 0.52630 0.76474 -0.07078
 H294 H 0.47542 0.76443 -0.07103
 H295 H 0.59779 0.76377 0.00073
 H296 H 0.40320 0.76357 -0.00018
 C297 C -0.02678 0.56001 0.23255
 C298 C -0.00117 0.57463 0.23266
 C299 C 0.02463 0.56036 0.23256
 C300 C 0.02511 0.53063 0.23220
 C301 C -0.00077 0.51553 0.23213
 C302 C -0.02686 0.53027 0.23227
 C303 C -0.05226 0.51490 0.23232
 C304 C -0.05206 0.48559 0.23252
 C305 C -0.02645 0.47057 0.23261
 C306 C -0.00057 0.48566 0.23226
 C307 C 0.05071 0.51560 0.23210
 C308 C 0.05091 0.48629 0.23217
 C309 C 0.02551 0.47091 0.23239
 C310 C 0.02543 0.44118 0.23293
 C311 C -0.00019 0.42657 0.23331
 C312 C -0.02599 0.44085 0.23322
 H313 H -0.07255 0.52543 0.23230
 H314 H -0.07221 0.47479 0.23268
 H315 H 0.07086 0.52641 0.23204
 H316 H 0.07120 0.47576 0.23214
 H317 H -0.00132 0.59747 0.23313
 H318 H -0.00005 0.40373 0.23395
 C319 C -0.02551 0.56020 0.76648
 C320 C 0.00031 0.57444 0.76642
 C321 C 0.02591 0.55982 0.76659
 C322 C 0.02594 0.53007 0.76693
 C323 C -0.00017 0.51535 0.76695
 C324 C -0.02603 0.53047 0.76676
 C325 C -0.05166 0.51547 0.76668
 C326 C -0.05191 0.48616 0.76659
 C327 C -0.02654 0.47076 0.76656
 C328 C -0.00043 0.48547 0.76685
 C329 C 0.05131 0.51467 0.76707
 C330 C 0.05106 0.48535 0.76696
 C331 C 0.02543 0.47035 0.76675
 C332 C 0.02490 0.44062 0.76627
 C333 C -0.00093 0.42638 0.76596
 C334 C -0.02651 0.44102 0.76606
 H335 H -0.07178 0.52630 0.76660
 H336 H -0.07221 0.47565 0.76646
 H337 H 0.07162 0.52519 0.76721
 H338 H 0.07119 0.47452 0.76699
 H339 H 0.00048 0.59728 0.76597
 H340 H -0.00111 0.40354 0.76537
 C341 C 0.34149 0.24426 0.15824
 C342 C 0.35784 0.24242 0.13894
 C343 C 0.37652 0.24040 0.11593
 C344 C 0.39201 0.23886 0.09591
 C345 C 0.40954 0.23732 0.07200
 C346 C 0.42394 0.23626 0.05116
 C347 C 0.65955 0.75577 0.15834
 C348 C 0.64308 0.75747 0.13914
 C349 C 0.62429 0.75932 0.11621
 C350 C 0.60873 0.76075 0.09625
 C351 C 0.59113 0.76223 0.07239
 C352 C 0.57670 0.76330 0.05158
 C353 C 0.65904 0.24465 -0.15856
 C354 C 0.64263 0.24291 -0.13929
 C355 C 0.62389 0.24096 -0.11631
 C356 C 0.60837 0.23941 -0.09631
 C357 C 0.59080 0.23779 -0.07242
 C358 C 0.57636 0.23660 -0.05161
 C359 C 0.34083 0.75554 -0.15739
 C360 C 0.35738 0.75719 -0.13825
 C361 C 0.37631 0.75904 -0.11543
 C362 C 0.39200 0.76048 -0.09556
 C363 C 0.40973 0.76199 -0.07180
 C364 C 0.42424 0.76308 -0.05104
 C365 C 0.15826 0.34195 0.24330
 C366 C 0.13904 0.35844 0.24106
 C367 C 0.11608 0.37725 0.23866
 C368 C 0.09606 0.39281 0.23686
 C369 C 0.07208 0.41039 0.23510
 C370 C 0.05114 0.42478 0.23392
 C371 C 0.15853 0.65956 0.75716
 C372 C 0.13937 0.64295 0.75921
 C373 C 0.11648 0.62400 0.76137
 C374 C 0.09650 0.60833 0.76297
 C375 C 0.07257 0.59065 0.76457
 C376 C 0.05164 0.57621 0.76566
 C377 C -0.15944 0.65950 0.24256
 C378 C -0.14030 0.64289 0.24045
 C379 C -0.11740 0.62399 0.23818
 C380 C -0.09741 0.60838 0.23646
 C381 C -0.07344 0.59078 0.23474
 C382 C -0.05250 0.57639 0.23356
 C383 C -0.15919 0.34149 0.75536
 C384 C -0.14007 0.35814 0.75750
 C385 C -0.11718 0.37707 0.75984
 C386 C -0.09718 0.39269 0.76167
 C387 C -0.07321 0.41028 0.76355
 C388 C -0.05225 0.42466 0.76487
 C389 C 0.24358 0.15823 0.34167
 C390 C 0.24160 0.13906 0.35812
 C391 C 0.23946 0.11616 0.37689
 C392 C 0.23784 0.09621 0.39242
 C393 C 0.23624 0.07233 0.40999
 C394 C 0.23518 0.05149 0.42437
 C395 C 0.75694 0.15797 0.65819
 C396 C 0.75881 0.13878 0.64175
 C397 C 0.76083 0.11586 0.62302
 C398 C 0.76238 0.09587 0.60752
 C399 C 0.76395 0.07197 0.59000
 C400 C 0.76504 0.05110 0.57565
 C401 C 0.24399 -0.15824 0.65854
 C402 C 0.24207 -0.13909 0.64206
 C403 C 0.23996 -0.11622 0.62326
 C404 C 0.23836 -0.09630 0.60769
 C405 C 0.23681 -0.07246 0.59008
 C406 C 0.23578 -0.05164 0.57567
 C407 C 0.75520 -0.15863 0.34158
 C408 C 0.75713 -0.13953 0.35812
 C409 C 0.75929 -0.11669 0.37695
 C410 C 0.76102 -0.09675 0.39250
 C411 C 0.76282 -0.07286 0.41003
 C412 C 0.76411 -0.05201 0.42438
 C413 C 0.65997 0.75584 -0.15712
 C414 C 0.64358 0.75757 -0.13784
 C415 C 0.62487 0.75950 -0.11487
 C416 C 0.60934 0.76100 -0.09489
 C417 C 0.59172 0.76251 -0.07105
 C418 C 0.57720 0.76354 -0.05031
 C419 C 0.34037 0.24363 -0.15724
 C420 C 0.35679 0.24200 -0.13801
 C421 C 0.37557 0.24021 -0.11510
 C422 C 0.39117 0.23882 -0.09518
 C423 C 0.40886 0.23737 -0.07141
 C424 C 0.42343 0.23634 -0.05071
 C425 C 0.34149 0.75588 0.15799
 C426 C 0.35776 0.75767 0.13862
 C427 C 0.37635 0.75963 0.11556
 C428 C 0.39179 0.76111 0.09551
 C429 C 0.40932 0.76257 0.07162
 C430 C 0.42381 0.76354 0.05084
 C431 C 0.65885 0.24364 0.15758
 C432 C 0.64258 0.24197 0.13822
 C433 C 0.62404 0.24014 0.11511
 C434 C 0.60867 0.23870 0.09502
 C435 C 0.59122 0.23722 0.07108
 C436 C 0.57679 0.23620 0.05029
 C437 C -0.15791 0.66009 0.75681
 C438 C -0.13869 0.64358 0.75891
 C439 C -0.11573 0.62476 0.76113
 C440 C -0.09573 0.60916 0.76280
 C441 C -0.07182 0.59148 0.76443
 C442 C -0.05100 0.57692 0.76553
 C443 C -0.15856 0.34124 0.24408
 C444 C -0.13937 0.35779 0.24198
 C445 C -0.11640 0.37660 0.23965
 C446 C -0.09636 0.39215 0.23782
 C447 C -0.07239 0.40972 0.23590
 C448 C -0.05151 0.42419 0.23452
 C449 C 0.15713 0.34055 0.75680
 C450 C 0.13797 0.35712 0.75881
 C451 C 0.11507 0.37602 0.76096
 C452 C 0.09510 0.39166 0.76259
 C453 C 0.07121 0.40936 0.76421
 C454 C 0.05039 0.42391 0.76532
 C455 C 0.15758 0.65954 0.24293
 C456 C 0.13821 0.64322 0.24072
 C457 C 0.11509 0.62459 0.23839
 C458 C 0.09499 0.60912 0.23662
 C459 C 0.07101 0.59156 0.23485
 C460 C 0.05014 0.57705 0.23362
 C461 C 0.75642 -0.15777 0.65882
 C462 C 0.75828 -0.13858 0.64240
 C463 C 0.76036 -0.11567 0.62369
 C464 C 0.76199 -0.09571 0.60818
 C465 C 0.76366 -0.07187 0.59062
 C466 C 0.76484 -0.05110 0.57616
 C467 C 0.24383 -0.15721 0.34097
 C468 C 0.24181 -0.13799 0.35734
 C469 C 0.23963 -0.11510 0.37606
 C470 C 0.23798 -0.09518 0.39162
 C471 C 0.23636 -0.07141 0.40927
 C472 C 0.23528 -0.05069 0.42381
 C473 C 0.75577 0.15686 0.34117
 C474 C 0.75771 0.13769 0.35761
 C475 C 0.75986 0.11480 0.37635
 C476 C 0.76152 0.09485 0.39187
 C477 C 0.76322 0.07100 0.40942
 C478 C 0.76439 0.05022 0.42387
 C479 C 0.24385 0.15714 0.65892
 C480 C 0.24202 0.13796 0.64249
 C481 C 0.24002 0.11506 0.62375
 C482 C 0.23850 0.09512 0.60822
 C483 C 0.23696 0.07130 0.59064
 C484 C 0.23590 0.05054 0.57617
   
