data_POSCAR
  _audit_creation_date              2014-09-24
  _audit_creation_method            'ToBaCCo'
  _symmetry_space_group_name_H-M    'P1'
  _symmetry_Int_Tables_number       1
  _symmetry_cell_setting            triclinic
  loop_
  _symmetry_equiv_pos_as_xyz
 x,y,z
_cell_length_a 33.4588
_cell_length_b 36.7030
_cell_length_c 34.3585
_cell_angle_alpha 87.546500
_cell_angle_beta 89.010200
_cell_angle_gamma 94.842600
loop_
  _atom_site_label
  _atom_site_type_symbol
  _atom_site_fract_x
  _atom_site_fract_y
  _atom_site_fract_z
N1 N 0.56276 0.68528 0.63715
 N2 N 0.54576 0.66336 0.66503
 C3 C 0.52104 0.68206 0.68643
 C4 C 0.52209 0.71729 0.67036
 C5 C 0.54851 0.71838 0.63896
 H6 H 0.50289 0.67065 0.71107
 H7 H 0.55729 0.74166 0.61940
 Cu8 Cu 0.55575 0.61206 0.66914
 Cu9 Cu 0.60305 0.66943 0.60168
 Cu10 Cu 0.63943 0.58604 0.62760
 N11 N 0.57772 0.56684 0.68533
 N12 N 0.61234 0.55804 0.67150
 C13 C 0.62160 0.52673 0.68985
 C14 C 0.59059 0.51514 0.71587
 C15 C 0.56322 0.54120 0.71217
 H16 H 0.64805 0.51276 0.68368
 H17 H 0.53530 0.54195 0.72832
 N18 N 0.66626 0.62092 0.58803
 N19 N 0.65246 0.65283 0.57896
 C20 C 0.67794 0.67161 0.55323
 C21 C 0.70880 0.65031 0.54509
 C22 C 0.70049 0.61824 0.56737
 H23 H 0.67450 0.69894 0.54144
 H24 H 0.71877 0.59532 0.56933
 H25 H 0.59273 0.61291 0.60633
 H26 H 0.62198 0.63550 0.64551
 N27 N 0.92424 0.32515 0.13541
 N28 N 0.92531 0.33651 0.17137
 C29 C 0.95014 0.31672 0.19229
 C30 C 0.96602 0.29219 0.16814
 C31 C 0.94927 0.29844 0.13222
 H32 H 0.95619 0.31992 0.22281
 H33 H 0.95396 0.28375 0.10613
 Cu34 Cu 0.89395 0.37594 0.18924
 Cu35 Cu 0.88831 0.34421 0.09575
 Cu36 Cu 0.82298 0.40153 0.12875
 N37 N 0.86014 0.41486 0.20140
 N38 N 0.83051 0.42309 0.17891
 C39 C 0.80993 0.44835 0.19584
 C40 C 0.82822 0.45684 0.23041
 C41 C 0.86008 0.43532 0.23302
 H42 H 0.78418 0.46023 0.18360
 H43 H 0.88088 0.43392 0.25669
 N44 N 0.82687 0.39081 0.07413
 N45 N 0.85074 0.36700 0.06142
 C46 C 0.84618 0.36426 0.02269
 C47 C 0.81870 0.38826 0.01073
 C48 C 0.80721 0.40478 0.04393
 H49 H 0.86276 0.34732 0.00438
 H50 H 0.78613 0.42544 0.04592
 H51 H 0.89295 0.38906 0.12990
 H52 H 0.85870 0.34881 0.14838
 N53 N 0.44516 0.16547 -0.12277
 N54 N 0.45882 0.13428 -0.13188
 C55 C 0.49921 0.13811 -0.13284
 C56 C 0.51132 0.17384 -0.12457
 C57 C 0.47637 0.19054 -0.11868
 H58 H 0.51825 0.11698 -0.14039
 H59 H 0.47382 0.21868 -0.11151
 Cu60 Cu 0.42257 0.09283 -0.14538
 Cu61 Cu 0.38791 0.17098 -0.11621
 Cu62 Cu 0.32712 0.09007 -0.11504
 N63 N 0.38121 0.06039 -0.16836
 N64 N 0.34353 0.05985 -0.15667
 C65 C 0.32061 0.03782 -0.17912
 C66 C 0.34529 0.02375 -0.20629
 C67 C 0.38364 0.03834 -0.19851
 H68 H 0.28828 0.03329 -0.17657
 H69 H 0.41088 0.03472 -0.21481
 N70 N 0.31085 0.13391 -0.09108
 N71 N 0.33263 0.16566 -0.09378
 C72 C 0.31287 0.19055 -0.07509
 C73 C 0.27740 0.17318 -0.05969
 C74 C 0.27717 0.13738 -0.07026
 H75 H 0.32446 0.21851 -0.07102
 H76 H 0.25437 0.11534 -0.06300
 H77 H 0.38102 0.11816 -0.09606
 H78 H 0.36327 0.12744 -0.14646
 N79 N 0.07509 0.82050 0.36017
 N80 N 0.07092 0.83829 0.32667
 C81 C 0.04597 0.81772 0.30437
 C82 C 0.03322 0.78584 0.32575
 C83 C 0.05195 0.78871 0.36109
 H84 H 0.03695 0.82583 0.27541
 H85 H 0.04998 0.76867 0.38522
 Cu86 Cu 0.09598 0.88785 0.31736
 Cu87 Cu 0.11231 0.83861 0.39891
 Cu88 Cu 0.17961 0.91130 0.36698
 N89 N 0.13066 0.93165 0.30289
 N90 N 0.16443 0.93938 0.32100
 C91 C 0.18448 0.96891 0.30310
 C92 C 0.16174 0.98060 0.27257
 C93 C 0.12766 0.95652 0.27329
 H94 H 0.21343 0.98102 0.31160
 H95 H 0.10350 0.95619 0.25278
 N96 N 0.18854 0.87957 0.41323
 N97 N 0.16300 0.85170 0.42491
 C98 C 0.17888 0.83317 0.45465
 C99 C 0.21576 0.85067 0.46253
 C100 C 0.22091 0.88013 0.43608
 H101 H 0.16511 0.80823 0.46883
 H102 H 0.24721 0.89931 0.43253
 H103 H 0.12235 0.89476 0.38339
 H104 H 0.14871 0.86204 0.35412
 C105 C 0.10091 0.17777 0.11663
 C106 C 0.13065 0.17220 0.08869
 C107 C 0.15336 0.14257 0.09335
 C108 C 0.14738 0.11864 0.12612
 C109 C 0.11823 0.12407 0.15381
 C110 C 0.09502 0.15404 0.14915
 C111 C 0.07636 0.20564 0.12127
 N112 N 0.05644 0.19972 0.15597
 C113 C 0.06767 0.16835 0.17330
 C114 C 0.12165 0.09848 0.18393
 N115 N 0.15259 0.07838 0.17526
 C116 C 0.16852 0.09050 0.14004
 C117 C 0.18163 0.14510 0.06373
 N118 N 0.17716 0.17580 0.04149
 C119 C 0.14614 0.19274 0.05644
 H120 H 0.07470 0.22949 0.10188
 H121 H 0.05756 0.15736 0.20186
 H122 H 0.10462 0.09613 0.21114
 H123 H 0.19456 0.08049 0.12629
 H124 H 0.20496 0.12681 0.05962
 H125 H 0.13624 0.21843 0.04528
 C126 C 0.39920 0.84678 0.62640
 C127 C 0.36940 0.85489 0.60001
 C128 C 0.34726 0.88452 0.60546
 C129 C 0.35420 0.90601 0.63783
 C130 C 0.38347 0.89788 0.66409
 C131 C 0.40593 0.86787 0.65850
 C132 C 0.42221 0.81759 0.63029
 N133 N 0.44211 0.82009 0.66421
 C134 C 0.43235 0.85064 0.68181
 C135 C 0.38067 0.92075 0.69458
 N136 N 0.35010 0.94202 0.68767
 C137 C 0.33370 0.93322 0.65310
 C138 C 0.31747 0.88326 0.57827
 N139 N 0.32058 0.85322 0.55716
 C140 C 0.35222 0.83569 0.57015
 H141 H 0.42256 0.79495 0.61112
 H142 H 0.44251 0.85889 0.71011
 H143 H 0.39799 0.92049 0.72091
 H144 H 0.30783 0.94479 0.64066
 H145 H 0.29344 0.90119 0.57600
 H146 H 0.36075 0.80986 0.56003
 C147 C 0.89661 0.65176 0.37903
 C148 C 0.86587 0.64312 0.40690
 C149 C 0.83922 0.61257 0.40332
 C150 C 0.84322 0.59011 0.37162
 C151 C 0.87387 0.59854 0.34417
 C152 C 0.90029 0.62999 0.34750
 C153 C 0.92325 0.68215 0.37303
 N154 N 0.94235 0.67980 0.33827
 C155 C 0.92861 0.64807 0.32227
 C156 C 0.86897 0.57358 0.31551
 N157 N 0.83587 0.55069 0.32457
 C158 C 0.81969 0.56066 0.35861
 C159 C 0.80982 0.61366 0.43185
 N160 N 0.81786 0.64438 0.45198
 C161 C 0.85213 0.66243 0.43702
 H162 H 0.92648 0.70553 0.39125
 H163 H 0.93722 0.63965 0.29372
 H164 H 0.88704 0.57306 0.28913
 H165 H 0.79242 0.54785 0.37243
 H166 H 0.78313 0.59495 0.43586
 H167 H 0.86506 0.68869 0.44602
 C168 C 0.66880 0.31300 -0.14118
 C169 C 0.70060 0.33959 -0.13521
 C170 C 0.70139 0.37363 -0.15445
 C171 C 0.67044 0.38169 -0.17962
 C172 C 0.63858 0.35586 -0.18448
 C173 C 0.63783 0.32140 -0.16530
 C174 C 0.65856 0.27842 -0.12475
 N175 N 0.62221 0.26610 -0.13832
 C176 C 0.60917 0.29229 -0.16275
 C177 C 0.61010 0.37267 -0.20538
 N178 N 0.62414 0.40792 -0.21370
 C179 C 0.66103 0.41377 -0.19827
 C180 C 0.73153 0.39573 -0.13865
 N181 N 0.74879 0.37625 -0.10995
 C182 C 0.73040 0.34176 -0.10796
 H183 H 0.67571 0.26374 -0.10378
 H184 H 0.58076 0.29031 -0.17747
 H185 H 0.58050 0.36075 -0.21229
 H186 H 0.67831 0.44007 -0.19813
 H187 H 0.73791 0.42472 -0.14536
 H188 H 0.73584 0.32083 -0.08597
 C189 C -0.00767 0.26591 0.17807
 C190 C 0.00350 0.25721 0.21567
 C191 C 0.02838 0.22990 0.21234
 C192 C 0.03099 0.22450 0.17297
 O193 O 0.00922 0.24618 0.15201
 H194 H -0.00566 0.26900 0.24239
 H195 H 0.04357 0.21627 0.23561
 C196 C 0.49904 0.74707 0.68285
 C197 C 0.48909 0.75312 0.72102
 C198 C 0.46766 0.78319 0.71928
 C199 C 0.46577 0.79257 0.68009
 O200 O 0.48476 0.77082 0.65791
 H201 H 0.49654 0.73745 0.74689
 H202 H 0.45377 0.79578 0.74337
 C203 C 1.00695 0.75665 0.31509
 C204 C 0.99286 0.75118 0.27803
 C205 C 0.96810 0.71954 0.28136
 C206 C 0.96862 0.70868 0.32025
 O207 O 0.99207 0.73099 0.34072
 H208 H 0.99969 0.76816 0.25184
 H209 H 0.95041 0.70693 0.25871
 C210 C 0.55241 0.19127 -0.12396
 C211 C 0.58608 0.17336 -0.11556
 C212 C 0.61740 0.19984 -0.11832
 C213 C 0.60025 0.23160 -0.12877
 O214 O 0.56093 0.22657 -0.13214
 H215 H 0.58753 0.14454 -0.10826
 H216 H 0.64887 0.19626 -0.11445
 C217 C 0.17300 0.01048 0.24367
 C218 C 0.21210 0.02188 0.23282
 C219 C 0.20943 0.04871 0.20457
 C220 C 0.16891 0.05196 0.20093
 O221 O 0.14657 0.02882 0.22450
 H222 H 0.23923 0.01142 0.24376
 H223 H 0.23395 0.06445 0.18903
 C224 C 0.58712 0.48351 -0.25994
 C225 C 0.55246 0.47030 -0.23967
 C226 C 0.56164 0.43888 -0.22065
 C227 C 0.60132 0.43576 -0.23017
 O228 O 0.61702 0.46265 -0.25398
 H229 H 0.52378 0.48187 -0.23914
 H230 H 0.54223 0.42098 -0.20130
 C231 C 0.33289 1.00124 0.76100
 C232 C 0.29468 0.99855 0.74630
 C233 C 0.29635 0.97632 0.71566
 C234 C 0.33536 0.96689 0.71439
 O235 O 0.35770 0.98193 0.74178
 H236 H 0.26885 1.01159 0.75643
 H237 H 0.27194 0.96751 0.69707
 C238 C 0.81611 0.48286 0.25870
 C239 C 0.77686 0.48864 0.26762
 C240 C 0.77905 0.51430 0.29527
 C241 C 0.81952 0.52256 0.30040
 O242 O 0.84216 0.50355 0.27838
 H243 H 0.74995 0.47552 0.25555
 H244 H 0.75435 0.52637 0.30907
 C245 C 0.24779 0.18763 -0.03383
 C246 C 0.24067 0.22397 -0.03151
 C247 C 0.21118 0.22444 -0.00346
 C248 C 0.20321 0.18836 0.00929
 O249 O 0.22525 0.16606 -0.00905
 H250 H 0.25529 0.24721 -0.04812
 H251 H 0.19820 0.24819 0.00729
 C252 C 0.74397 0.66088 0.51970
 C253 C 0.75993 0.69654 0.51321
 C254 C 0.79123 0.69480 0.48775
 C255 C 0.79161 0.65819 0.48024
 O256 O 0.76300 0.63741 0.49961
 H257 H 0.74980 0.72089 0.52552
 H258 H 0.81048 0.71760 0.47519
 C259 C 0.80569 0.39652 -0.02893
 C260 C 0.80732 0.43143 -0.04555
 C261 C 0.78818 0.42806 -0.08003
 C262 C 0.77573 0.39129 -0.08148
 O263 O 0.78641 0.37201 -0.05049
 H264 H 0.81990 0.45646 -0.03333
 H265 H 0.78236 0.45010 -0.10048
 C266 C 0.24508 0.83849 0.49041
 C267 C 0.24969 0.80229 0.50033
 C268 C 0.28040 0.80302 0.52592
 C269 C 0.29161 0.83966 0.52999
 O270 O 0.27035 0.86133 0.50850
 H271 H 0.23286 0.77831 0.48988
 H272 H 0.29229 0.77981 0.54075
   
