data_POSCAR
  _audit_creation_date              2014-09-24
  _audit_creation_method            'ToBaCCo'
  _symmetry_space_group_name_H-M    'P1'
  _symmetry_Int_Tables_number       1
  _symmetry_cell_setting            triclinic
  loop_
  _symmetry_equiv_pos_as_xyz
 x,y,z
_cell_length_a 20.5349
_cell_length_b 19.6079
_cell_length_c 25.2297
_cell_angle_alpha 91.124200
_cell_angle_beta 90.772700
_cell_angle_gamma 82.938600
loop_
  _atom_site_label
  _atom_site_type_symbol
  _atom_site_fract_x
  _atom_site_fract_y
  _atom_site_fract_z
C1 C 1.19568 0.23268 0.20454
 C2 C 1.24703 0.26544 0.17393
 C3 C 1.29984 0.27879 0.20370
 C4 C 1.29577 0.25926 0.26239
 C5 C 1.23328 0.16917 0.23002
 C6 C 1.28489 0.18294 0.26099
 C7 C 1.17715 0.28189 0.25089
 C8 C 1.22930 0.29622 0.28095
 H9 H 1.24321 0.27417 0.13166
 H10 H 1.33833 0.27081 0.28717
 H11 H 1.21601 0.11913 0.22875
 H12 H 1.12713 0.30372 0.25904
 C13 C 0.69671 -0.27011 0.20405
 C14 C 0.74750 -0.23690 0.17325
 C15 C 0.79991 -0.22228 0.20290
 C16 C 0.79632 -0.24161 0.26168
 C17 C 0.73500 -0.33297 0.22989
 C18 C 0.78632 -0.31825 0.26086
 C19 C 0.67759 -0.22061 0.25013
 C20 C 0.72957 -0.20527 0.28002
 H21 H 0.74308 -0.22767 0.13107
 H22 H 0.83867 -0.22920 0.28635
 H23 H 0.71812 -0.38320 0.22903
 H24 H 0.62743 -0.19913 0.25809
 C25 C 0.69460 0.23322 -0.29862
 C26 C 0.74350 0.26376 -0.32783
 C27 C 0.79880 0.27835 -0.29630
 C28 C 0.79362 0.25981 -0.24024
 C29 C 0.72980 0.17266 -0.27418
 C30 C 0.78338 0.18699 -0.24077
 C31 C 0.67610 0.28079 -0.25499
 C32 C 0.73057 0.29591 -0.22261
 H33 H 0.73909 0.27268 -0.37004
 H34 H 0.83632 0.27101 -0.21544
 H35 H 0.71062 0.12359 -0.27346
 H36 H 0.62571 0.30130 -0.24701
 C37 C 1.19571 -0.26677 -0.29501
 C38 C 1.24759 -0.23464 -0.32539
 C39 C 1.30027 -0.22174 -0.29533
 C40 C 1.29579 -0.24118 -0.23679
 C41 C 1.23258 -0.33057 -0.26938
 C42 C 1.28431 -0.31733 -0.23840
 C43 C 1.17729 -0.21739 -0.24885
 C44 C 1.22950 -0.20347 -0.21871
 H45 H 1.24390 -0.22536 -0.36759
 H46 H 1.33832 -0.22992 -0.21186
 H47 H 1.21513 -0.38050 -0.27092
 H48 H 1.12746 -0.19447 -0.24126
 C49 C 0.19295 0.23158 0.80064
 C50 C 0.24633 0.25256 0.83237
 C51 C 0.30134 0.26693 0.80226
 C52 C 0.29218 0.25745 0.74481
 C53 C 0.17581 0.28927 0.76104
 C54 C 0.22734 0.30265 0.73121
 C55 C 0.22291 0.17028 0.76693
 C56 C 0.27384 0.18367 0.73630
 H57 H 0.24400 0.25761 0.87512
 H58 H 0.33428 0.26876 0.72071
 H59 H 0.12647 0.31480 0.75539
 H60 H 0.19993 0.12356 0.76261
 C61 C 0.68927 0.72912 0.79730
 C62 C 0.74033 0.75495 0.82958
 C63 C 0.79536 0.77071 0.79988
 C64 C 0.78786 0.75808 0.74236
 C65 C 0.67122 0.78192 0.75802
 C66 C 0.72531 0.79782 0.72718
 C67 C 0.72174 0.67050 0.76771
 C68 C 0.77477 0.68630 0.73565
 H69 H 0.73678 0.76182 0.87218
 H70 H 0.83026 0.77058 0.71913
 H71 H 0.62145 0.80595 0.75172
 H72 H 0.70158 0.62196 0.76417
 C73 C 0.68966 0.22855 0.29952
 C74 C 0.74558 0.25050 0.33356
 C75 C 0.79801 0.26509 0.30541
 C76 C 0.78926 0.25608 0.24467
 C77 C 0.67278 0.28700 0.26057
 C78 C 0.72455 0.30117 0.23139
 C79 C 0.72055 0.16808 0.26561
 C80 C 0.77147 0.18239 0.23548
 H81 H 0.74307 0.25496 0.37634
 H82 H 0.83173 0.26813 0.22137
 H83 H 0.62334 0.31209 0.25451
 H84 H 0.69789 0.12125 0.26053
 C85 C 0.18954 0.72594 0.29634
 C86 C 0.24489 0.75002 0.33003
 C87 C 0.29686 0.76544 0.30162
 C88 C 0.28811 0.75535 0.24092
 C89 C 0.17127 0.78340 0.25679
 C90 C 0.22237 0.79858 0.22731
 C91 C 0.22184 0.66560 0.26295
 C92 C 0.27235 0.68078 0.23264
 H93 H 0.24263 0.75447 0.37281
 H94 H 0.33005 0.76819 0.21735
 H95 H 0.12146 0.80751 0.25086
 H96 H 0.20082 0.61769 0.25876
 O97 O 1.08654 0.06770 0.06669
 O98 O 0.89828 -0.05183 0.06433
 O99 O 0.92048 0.11244 0.05965
 O100 O 1.06937 -0.09868 0.06578
 O101 O 0.84980 0.05488 0.02675
 O102 O 1.14121 -0.04224 0.03524
 O103 O 0.96921 -0.13668 0.04228
 O104 O 1.01905 0.14993 0.03648
 C105 C 1.05849 0.12683 0.07185
 C106 C 0.92841 -0.10854 0.07501
 C107 C 0.86850 0.08879 0.06489
 C108 C 1.12363 -0.07853 0.07076
 O109 O 1.11587 -0.00316 -0.06403
 O110 O 0.88179 0.00322 -0.07071
 O111 O 0.99258 0.12252 -0.06886
 O112 O 0.99899 -0.12322 -0.06524
 O113 O 0.90469 -0.10947 -0.03277
 O114 O 1.08698 0.11252 -0.03352
 O115 O 1.10677 -0.10538 -0.03889
 O116 O 0.88471 0.10782 -0.04757
 Co117 Co 1.09600 0.03078 0.00107
 Co118 Co 0.89413 -0.02273 -0.00306
 Co119 Co 0.95769 0.11214 -0.00476
 Co120 Co 1.03203 -0.10486 0.00058
 O121 O 0.99502 0.00374 -0.00150
 C122 C 1.12849 -0.06580 -0.07082
 C123 C 0.87401 0.06443 -0.08262
 C124 C 1.05060 0.13134 -0.07155
 C125 C 0.94039 -0.12985 -0.07061
 O126 O 1.08942 0.56888 0.56700
 O127 O 0.90336 0.44684 0.57050
 O128 O 0.92374 0.61246 0.56211
 O129 O 1.07375 0.40286 0.57097
 O130 O 0.85321 0.55195 0.53249
 O131 O 1.14475 0.45854 0.53807
 O132 O 0.97392 0.36159 0.54902
 O133 O 1.02152 0.64978 0.53560
 C134 C 1.06084 0.62783 0.57135
 C135 C 0.93309 0.39017 0.58157
 C136 C 0.87254 0.58789 0.56929
 C137 C 1.12797 0.42334 0.57466
 O138 O 1.11712 0.49314 0.43780
 O139 O 0.88325 0.49811 0.43453
 O140 O 0.99249 0.61803 0.43171
 O141 O 1.00339 0.37220 0.44147
 O142 O 0.90883 0.38696 0.47376
 O143 O 1.08781 0.60966 0.46544
 O144 O 1.11071 0.39193 0.46610
 O145 O 0.88503 0.60301 0.45643
 Co146 Co 1.09828 0.52955 0.50231
 Co147 Co 0.89747 0.47411 0.50261
 Co148 Co 0.95936 0.60987 0.49689
 Co149 Co 1.03625 0.39337 0.50638
 O150 O 0.99786 0.50165 0.50207
 C151 C 1.13077 0.43045 0.43249
 C152 C 0.87539 0.55894 0.42169
 C153 C 1.05046 0.62664 0.42753
 C154 C 0.94484 0.36570 0.43625
 O155 O 0.58865 0.06634 0.56683
 O156 O 0.40271 -0.05629 0.56714
 O157 O 0.42280 0.10838 0.56108
 O158 O 0.57321 -0.10078 0.56867
 O159 O 0.35235 0.04895 0.52984
 O160 O 0.64438 -0.04406 0.53727
 O161 O 0.47383 -0.14105 0.54552
 O162 O 0.52038 0.14725 0.53575
 C163 C 0.56035 0.12547 0.57112
 C164 C 0.43289 -0.11279 0.57804
 C165 C 0.37111 0.08434 0.56718
 C166 C 0.62740 -0.08042 0.57311
 O167 O 0.61802 -0.00763 0.43714
 O168 O 0.38417 -0.00356 0.43180
 O169 O 0.49243 0.11716 0.43151
 O170 O 0.50352 -0.12886 0.43809
 O171 O 0.40906 -0.11513 0.47041
 O172 O 0.58762 0.10831 0.46568
 O173 O 0.61091 -0.10939 0.46400
 O174 O 0.38514 0.10106 0.45485
 Co175 Co 0.59818 0.02768 0.50184
 Co176 Co 0.39743 -0.02830 0.49969
 Co177 Co 0.45887 0.10746 0.49618
 Co178 Co 0.53615 -0.10885 0.50358
 O179 O 0.49774 -0.00058 0.50035
 C180 C 0.63129 -0.07026 0.43105
 C181 C 0.37588 0.05745 0.41964
 C182 C 0.55030 0.12627 0.42794
 C183 C 0.44497 -0.13563 0.43271
 O184 O 0.59355 0.56372 0.06400
 O185 O 0.40608 0.44206 0.06537
 O186 O 0.42655 0.60691 0.05885
 O187 O 0.57583 0.39748 0.06732
 O188 O 0.35639 0.54714 0.02745
 O189 O 0.64762 0.45320 0.03550
 O190 O 0.47669 0.35673 0.04426
 O191 O 0.52522 0.64461 0.03316
 C192 C 0.56462 0.62246 0.06879
 C193 C 0.43537 0.38524 0.07643
 C194 C 0.37492 0.58254 0.06486
 C195 C 0.62970 0.41857 0.07204
 O196 O 0.62126 0.48782 -0.06558
 O197 O 0.38784 0.49420 -0.07022
 O198 O 0.49692 0.61463 -0.07091
 O199 O 0.50731 0.36854 -0.06337
 O200 O 0.41283 0.38260 -0.03118
 O201 O 0.59247 0.60494 -0.03737
 O202 O 0.61490 0.38701 -0.03658
 O203 O 0.38945 0.59898 -0.04737
 Co204 Co 0.60225 0.52442 -0.00082
 Co205 Co 0.40114 0.46958 -0.00226
 Co206 Co 0.46319 0.60526 -0.00612
 Co207 Co 0.53945 0.38863 0.00228
 O208 O 0.50157 0.49695 -0.00164
 C209 C 0.63491 0.42503 -0.07047
 C210 C 0.37951 0.55529 -0.08234
 C211 C 0.55483 0.62368 -0.07475
 C212 C 0.44872 0.36207 -0.06886
 N213 N 1.05303 0.23568 0.12057
 N214 N 1.08876 0.26593 0.15595
 C215 C 1.13836 0.21819 0.17079
 C216 C 1.13227 0.15813 0.14323
 N217 N 1.07845 0.17099 0.11275
 H218 H 1.16606 0.11116 0.14244
 N219 N 1.05534 0.73780 0.61864
 N220 N 1.09048 0.76789 0.65456
 C221 C 1.13863 0.71945 0.67093
 C222 C 1.13239 0.65928 0.64378
 N223 N 1.07995 0.67267 0.61199
 H224 H 1.16544 0.61179 0.64402
 N225 N 0.55481 0.23549 0.61844
 N226 N 0.59045 0.26631 0.65357
 C227 C 0.64037 0.21897 0.66877
 C228 C 0.63454 0.15862 0.64123
 N229 N 0.58057 0.17086 0.61098
 H230 H 0.66838 0.11166 0.64050
 N231 N 0.55598 0.73102 0.11828
 N232 N 0.59000 0.76145 0.15479
 C233 C 0.63994 0.71438 0.17011
 C234 C 0.63597 0.65465 0.14154
 N235 N 0.58299 0.66695 0.11008
 H236 H 0.67071 0.60839 0.14081
 N237 N 0.95160 -0.18605 0.14968
 N238 N 0.91875 -0.21586 0.18588
 C239 C 0.85469 -0.19256 0.17873
 C240 C 0.84937 -0.14733 0.13724
 N241 N 0.91064 -0.14472 0.12028
 H242 H 0.80501 -0.12209 0.11902
 N243 N 0.94457 0.34492 0.67163
 N244 N 0.90842 0.31631 0.70631
 C245 C 0.85133 0.30725 0.68145
 C246 C 0.85388 0.33155 0.63045
 N247 N 0.91262 0.35386 0.62586
 H248 H 0.81637 0.33472 0.59976
 N249 N 0.45390 -0.19252 0.65158
 N250 N 0.41981 -0.22118 0.68758
 C251 C 0.35651 -0.19441 0.68109
 C252 C 0.35287 -0.14842 0.64033
 N253 N 0.41433 -0.14873 0.62304
 H254 H 0.30928 -0.12078 0.62266
 N255 N 0.45456 0.30707 0.15125
 N256 N 0.41978 0.27936 0.18732
 C257 C 0.35644 0.30521 0.17948
 C258 C 0.35357 0.34974 0.13765
 N259 N 0.41549 0.34945 0.12120
 H260 H 0.31030 0.37678 0.11907
 N261 N 0.82504 0.03925 -0.16697
 N262 N 0.80122 0.07038 -0.21025
 C263 C 0.81021 0.13722 -0.20494
 C264 C 0.84080 0.14618 -0.15634
 N265 N 0.84817 0.08371 -0.13385
 H266 H 0.85294 0.19340 -0.13793
 N267 N 0.84232 0.53101 0.33226
 N268 N 0.82056 0.56171 0.28814
 C269 C 0.81851 0.62995 0.29723
 C270 C 0.83934 0.64029 0.34882
 N271 N 0.85320 0.57712 0.36927
 H272 H 0.84084 0.68854 0.37014
 N273 N 0.34157 0.03085 0.33031
 N274 N 0.31908 0.06232 0.28669
 C275 C 0.31732 0.13038 0.29647
 C276 C 0.33906 0.13986 0.34787
 N277 N 0.35317 0.07636 0.36756
 H278 H 0.34099 0.18774 0.36960
 N279 N 0.34223 0.52942 -0.17104
 N280 N 0.31833 0.56151 -0.21399
 C281 C 0.31731 0.62944 -0.20387
 C282 C 0.34099 0.63821 -0.15305
 N283 N 0.35547 0.57447 -0.13395
 H284 H 0.34399 0.68581 -0.13119
 N285 N 1.22270 -0.06280 -0.12805
 N286 N 1.25336 -0.10045 -0.16654
 C287 C 1.22100 -0.15580 -0.17361
 C288 C 1.16982 -0.15117 -0.13870
 N289 N 1.17252 -0.09260 -0.11123
 H290 H 1.13231 -0.18511 -0.13542
 N291 N 1.22709 0.43060 0.37733
 N292 N 1.25652 0.39426 0.33764
 C293 C 1.22075 0.34227 0.32722
 C294 C 1.16884 0.34741 0.36162
 N295 N 1.17459 0.40305 0.39202
 H296 H 1.12919 0.31582 0.36287
 N297 N 0.72654 -0.06904 0.37481
 N298 N 0.75593 -0.10560 0.33522
 C299 C 0.72077 -0.15831 0.32565
 C300 C 0.66931 -0.15339 0.36040
 N301 N 0.67467 -0.09716 0.39019
 H302 H 0.63028 -0.18569 0.36240
 N303 N 0.74410 0.39062 -0.10503
 N304 N 0.77184 0.35440 -0.14548
 C305 C 0.72249 0.33697 -0.17682
 C306 C 0.66365 0.36366 -0.15431
 N307 N 0.67944 0.39679 -0.11007
 H308 H 0.61415 0.35764 -0.16716
 N309 N 1.03551 0.20390 -0.14886
 N310 N 1.07171 0.23299 -0.18282
 C311 C 1.13505 0.21524 -0.16844
 C312 C 1.13661 0.17365 -0.12502
 N313 N 1.07373 0.16823 -0.11402
 H314 H 1.17917 0.14879 -0.10412
 N315 N 1.03354 0.69348 0.34718
 N316 N 1.06876 0.72200 0.31212
 C317 C 1.13228 0.70767 0.32714
 C318 C 1.13499 0.66871 0.37211
 N319 N 1.07254 0.66144 0.38338
 H320 H 1.17805 0.64723 0.39413
 N321 N 0.53330 0.19677 0.34949
 N322 N 0.56867 0.22645 0.31522
 C323 C 0.63213 0.21100 0.33006
 C324 C 0.63471 0.17021 0.37392
 N325 N 0.57226 0.16292 0.38485
 H326 H 0.67772 0.14719 0.39528
 N327 N 0.53670 0.69477 -0.15281
 N328 N 0.57116 0.72538 -0.18718
 C329 C 0.63505 0.71118 -0.17293
 C330 C 0.63849 0.66984 -0.12897
 N331 N 0.57631 0.66126 -0.11772
 H332 H 0.68192 0.64729 -0.10790
 N333 N 0.94396 -0.16747 -0.16397
 N334 N 0.90544 -0.19290 -0.20016
 C335 C 0.84941 -0.20293 -0.17564
 C336 C 0.85514 -0.18236 -0.12299
 N337 N 0.91462 -0.16078 -0.11738
 H338 H 0.81931 -0.18157 -0.09186
 N339 N 0.95239 0.31871 0.34552
 N340 N 0.91444 0.29267 0.30924
 C341 C 0.85547 0.29068 0.33173
 C342 C 0.85859 0.31667 0.38299
 N343 N 0.91970 0.33330 0.39005
 H344 H 0.82002 0.32398 0.41211
 N345 N 0.45167 -0.18096 0.34132
 N346 N 0.41329 -0.20636 0.30501
 C347 C 0.35451 -0.20877 0.32775
 C348 C 0.35828 -0.18372 0.37926
 N349 N 0.41950 -0.16721 0.38620
 H350 H 0.32007 -0.17710 0.40871
 N351 N 0.45170 0.32511 -0.16236
 N352 N 0.41237 0.30080 -0.19848
 C353 C 0.35656 0.29097 -0.17354
 C354 C 0.36324 0.31036 -0.12081
 N355 N 0.42297 0.33117 -0.11551
 H356 H 0.32765 0.31148 -0.08947
 N357 N 1.23115 -0.09605 0.11438
 N358 N 1.25963 -0.12871 0.15580
 C359 C 1.21206 -0.15626 0.18124
 C360 C 1.15370 -0.13990 0.15396
 N361 N 1.16768 -0.10247 0.11268
 H362 H 1.10625 -0.15597 0.16188
 N363 N 1.23654 0.40525 0.61676
 N364 N 1.26531 0.37286 0.65822
 C365 C 1.21752 0.34727 0.68487
 C366 C 1.15886 0.36454 0.65838
 N367 N 1.17273 0.40051 0.61633
 H368 H 1.11115 0.34969 0.66718
 N369 N 0.73690 -0.10824 0.61169
 N370 N 0.76520 -0.14205 0.65267
 C371 C 0.71643 -0.16068 0.68245
 C372 C 0.65730 -0.13711 0.65829
 N373 N 0.67224 -0.10514 0.61435
 H374 H 0.60828 -0.14559 0.66951
 N375 N 0.73646 0.40300 0.11704
 N376 N 0.76392 0.37175 0.15943
 C377 C 0.71550 0.34592 0.18513
 C378 C 0.65778 0.36183 0.15710
 N379 N 0.67288 0.39724 0.11507
 H380 H 0.61009 0.34616 0.16478
 N381 N 0.78528 0.06281 0.12628
 N382 N 0.76028 0.08478 0.17251
 C383 C 0.79144 0.13850 0.18863
 C384 C 0.83663 0.14883 0.15037
 N385 N 0.83089 0.10073 0.11222
 H386 H 0.86921 0.18819 0.14953
 N387 N 0.79576 0.55967 0.63532
 N388 N 0.77065 0.58365 0.68102
 C389 C 0.79610 0.64259 0.69273
 C390 C 0.83855 0.65363 0.65232
 N391 N 0.83629 0.60098 0.61730
 H392 H 0.86674 0.69625 0.64779
 N393 N 0.28796 0.06049 0.62941
 N394 N 0.26282 0.08409 0.67520
 C395 C 0.29382 0.13842 0.69012
 C396 C 0.33911 0.14739 0.65156
 N397 N 0.33357 0.09789 0.61444
 H398 H 0.37164 0.18672 0.64983
 N399 N 0.29260 0.55639 0.12684
 N400 N 0.26603 0.57971 0.17219
 C401 C 0.29481 0.63553 0.18704
 C402 C 0.34035 0.64568 0.14888
 N403 N 0.33706 0.59532 0.11206
 H404 H 0.37131 0.68641 0.14712
   
