data_POSCAR
  _audit_creation_date              2014-09-24
  _audit_creation_method            'ToBaCCo'
  _symmetry_space_group_name_H-M    'P1'
  _symmetry_Int_Tables_number       1
  _symmetry_cell_setting            triclinic
  loop_
  _symmetry_equiv_pos_as_xyz
 x,y,z
_cell_length_a 52.6151
_cell_length_b 61.9417
_cell_length_c 40.8246
_cell_angle_alpha 89.800700
_cell_angle_beta 89.959000
_cell_angle_gamma 89.989600
loop_
  _atom_site_label
  _atom_site_type_symbol
  _atom_site_fract_x
  _atom_site_fract_y
  _atom_site_fract_z
C1 C 1.26938 0.22625 0.26396
 C2 C 1.24888 0.23781 0.25066
 C3 C 1.22810 0.22668 0.23762
 C4 C 1.22765 0.20410 0.23754
 C5 C 1.24814 0.19267 0.25114
 C6 C 1.26922 0.20345 0.26498
 C7 C 1.24888 0.26164 0.25104
 C8 C 1.26933 0.27319 0.23758
 C9 C 1.26914 0.29599 0.23647
 C10 C 1.24809 0.30677 0.25041
 C11 C 1.22764 0.29536 0.26417
 C12 C 1.22811 0.27277 0.26417
 H13 H 1.28457 0.23535 0.27522
 H14 H 1.21225 0.23567 0.22748
 H15 H 1.28450 0.26408 0.22625
 H16 H 1.21230 0.26379 0.27443
 H17 H 1.24800 0.17526 0.24923
 H18 H 1.24792 0.32418 0.25226
 C19 C 0.76919 -0.27402 0.26254
 C20 C 0.74868 -0.26246 0.24930
 C21 C 0.72777 -0.27358 0.23659
 C22 C 0.72723 -0.29616 0.23673
 C23 C 0.74774 -0.30759 0.25028
 C24 C 0.76894 -0.29681 0.26381
 C25 C 0.74880 -0.23864 0.24934
 C26 C 0.76924 -0.22727 0.23555
 C27 C 0.76899 -0.20462 0.23443
 C28 C 0.74833 -0.19345 0.24811
 C29 C 0.72787 -0.20464 0.26228
 C30 C 0.72819 -0.22728 0.26259
 H31 H 0.78448 -0.26491 0.27355
 H32 H 0.71192 -0.26458 0.22648
 H33 H 0.78487 -0.23610 0.22466
 H34 H 0.71237 -0.23611 0.27310
 H35 H 0.74752 -0.32501 0.24854
 H36 H 0.74844 -0.17596 0.24834
 C37 C 0.77211 0.22797 -0.23704
 C38 C 0.75078 0.23856 -0.24999
 C39 C 0.73091 0.22643 -0.26354
 C40 C 0.73233 0.20382 -0.26456
 C41 C 0.75368 0.19343 -0.25120
 C42 C 0.77363 0.20535 -0.23734
 C43 C 0.74940 0.26235 -0.24986
 C44 C 0.76938 0.27461 -0.26302
 C45 C 0.76809 0.29738 -0.26424
 C46 C 0.74632 0.30742 -0.25090
 C47 C 0.72629 0.29529 -0.23747
 C48 C 0.72791 0.27274 -0.23727
 H49 H 0.78748 0.23737 -0.22669
 H50 H 0.71475 0.23468 -0.27424
 H51 H 0.78512 0.26605 -0.27403
 H52 H 0.71246 0.26321 -0.22723
 H53 H 0.75447 0.17595 -0.25088
 H54 H 0.74526 0.32481 -0.24919
 C55 C 1.26942 -0.27438 -0.23722
 C56 C 1.24949 -0.26210 -0.25041
 C57 C 1.22798 -0.27245 -0.26295
 C58 C 1.22630 -0.29500 -0.26267
 C59 C 1.24629 -0.30715 -0.24922
 C60 C 1.26807 -0.29714 -0.23593
 C61 C 1.25092 -0.23831 -0.25035
 C62 C 1.27232 -0.22777 -0.26321
 C63 C 1.27387 -0.20516 -0.26299
 C64 C 1.25387 -0.19318 -0.24930
 C65 C 1.23245 -0.20353 -0.23604
 C66 C 1.23101 -0.22613 -0.23697
 H67 H 1.28517 -0.26583 -0.22624
 H68 H 1.21256 -0.26291 -0.27301
 H69 H 1.28772 -0.23721 -0.27344
 H70 H 1.21478 -0.23434 -0.22632
 H71 H 1.24519 -0.32455 -0.25086
 H72 H 1.25469 -0.17570 -0.24969
 C73 C 0.22257 0.26770 0.73703
 C74 C 0.23580 0.25010 0.75025
 C75 C 0.22222 0.23271 0.76378
 C76 C 0.19534 0.23270 0.76472
 C77 C 0.18255 0.25058 0.75070
 C78 C 0.19592 0.26801 0.73679
 C79 C 0.26396 0.24996 0.75027
 C80 C 0.27751 0.26726 0.76386
 C81 C 0.30439 0.26728 0.76481
 C82 C 0.31721 0.24948 0.75075
 C83 C 0.30388 0.23213 0.73679
 C84 C 0.27722 0.23243 0.73701
 H85 H 0.23313 0.28114 0.72677
 H86 H 0.23303 0.21988 0.77518
 H87 H 0.26668 0.28003 0.77528
 H88 H 0.26669 0.21904 0.72671
 H89 H 0.16206 0.25063 0.74879
 H90 H 0.33771 0.24945 0.74886
 C91 C 0.72162 0.76740 0.73734
 C92 C 0.73504 0.75007 0.75105
 C93 C 0.72174 0.73254 0.76443
 C94 C 0.69492 0.73209 0.76479
 C95 C 0.68186 0.74974 0.75052
 C96 C 0.69480 0.76748 0.73632
 C97 C 0.76320 0.75009 0.75077
 C98 C 0.77668 0.76745 0.76429
 C99 C 0.80341 0.76757 0.76443
 C100 C 0.81654 0.75018 0.75018
 C101 C 0.80333 0.73276 0.73621
 C102 C 0.77661 0.73278 0.73693
 H103 H 0.73250 0.78014 0.72581
 H104 H 0.73268 0.71909 0.77379
 H105 H 0.76628 0.78086 0.77478
 H106 H 0.76616 0.71936 0.72661
 H107 H 0.66145 0.75056 0.75292
 H108 H 0.83712 0.75022 0.74997
 C109 C 0.72508 0.26802 0.23715
 C110 C 0.73832 0.25042 0.25057
 C111 C 0.72469 0.23311 0.26421
 C112 C 0.69797 0.23335 0.26490
 C113 C 0.68501 0.25098 0.25096
 C114 C 0.69836 0.26835 0.23689
 C115 C 0.76645 0.25016 0.25043
 C116 C 0.78014 0.26744 0.26386
 C117 C 0.80686 0.26723 0.26425
 C118 C 0.81977 0.24963 0.25026
 C119 C 0.80635 0.23230 0.23638
 C120 C 0.77963 0.23262 0.23694
 H121 H 0.73565 0.28140 0.22676
 H122 H 0.73497 0.21977 0.27518
 H123 H 0.76989 0.28073 0.27489
 H124 H 0.76900 0.21925 0.22674
 H125 H 0.66444 0.25089 0.25027
 H126 H 0.84034 0.24973 0.24938
 C127 C 0.22404 0.76744 0.23618
 C128 C 0.23755 0.75018 0.24997
 C129 C 0.22435 0.73261 0.26337
 C130 C 0.19754 0.73206 0.26372
 C131 C 0.18438 0.74963 0.24939
 C132 C 0.19722 0.76740 0.23514
 C133 C 0.26571 0.75035 0.24990
 C134 C 0.27899 0.76782 0.26343
 C135 C 0.30571 0.76807 0.26381
 C136 C 0.31903 0.75073 0.24974
 C137 C 0.30603 0.73321 0.23571
 C138 C 0.27931 0.73309 0.23623
 H139 H 0.23485 0.78023 0.22466
 H140 H 0.23536 0.71922 0.27280
 H141 H 0.26843 0.78117 0.27379
 H142 H 0.26899 0.71986 0.22516
 H143 H 0.16397 0.75037 0.25180
 H144 H 0.33961 0.75057 0.25050
 N145 N 1.04522 0.02197 0.03490
 N146 N 1.06132 0.03799 0.03950
 N147 N 1.02784 -0.02358 0.05765
 N148 N 1.03212 -0.03927 0.07894
 N149 N 1.04541 -0.02342 0.03481
 N150 N 1.06209 -0.03899 0.03991
 N151 N 1.02768 0.02185 0.05778
 N152 N 1.03139 0.03778 0.07863
 C153 C 1.05242 0.04776 0.06683
 C154 C 1.05351 -0.04883 0.06746
 N155 N 0.95548 -0.02349 0.03476
 N156 N 0.93942 -0.03958 0.03915
 N157 N 0.97292 0.02181 0.05793
 N158 N 0.96885 0.03745 0.07922
 N159 N 0.95535 0.02191 0.03512
 N160 N 0.93886 0.03761 0.04026
 N161 N 0.97304 -0.02362 0.05760
 N162 N 0.96935 -0.03979 0.07821
 Mn163 Mn 1.00037 -0.00089 0.05814
 C164 C 0.94833 -0.04965 0.06630
 C165 C 0.94757 0.04724 0.06781
 N166 N 1.04529 -0.02312 -0.03567
 N167 N 1.06158 -0.03897 -0.04041
 N168 N 1.02776 0.02234 -0.05844
 N169 N 1.03189 0.03809 -0.07968
 N170 N 1.04531 0.02227 -0.03561
 N171 N 1.06185 0.03795 -0.04069
 N172 N 1.02775 -0.02308 -0.05852
 N173 N 1.03167 -0.03890 -0.07950
 Mn174 Mn 1.04558 -0.00057 -0.00039
 C175 C 1.05281 -0.04874 -0.06778
 C176 C 1.05319 0.04777 -0.06821
 N177 N 0.95544 0.02222 -0.03541
 N178 N 0.93943 0.03836 -0.03976
 N179 N 0.97293 -0.02313 -0.05856
 N180 N 0.96879 -0.03874 -0.07988
 N181 N 0.95535 -0.02319 -0.03573
 N182 N 0.93880 -0.03882 -0.04087
 N183 N 0.97300 0.02230 -0.05828
 N184 N 0.96940 0.03850 -0.07883
 Mn185 Mn 0.95512 -0.00063 -0.00031
 Mn186 Mn 1.00036 -0.00040 -0.05885
 Cl187 Cl 1.00036 -0.00062 -0.00035
 C188 C 0.94840 0.04842 -0.06691
 C189 C 0.94746 -0.04847 -0.06844
 N190 N 1.04447 0.52344 0.53582
 N191 N 1.06035 0.53962 0.54034
 N192 N 1.02692 0.47791 0.55845
 N193 N 1.03100 0.46218 0.57974
 N194 N 1.04463 0.47804 0.53579
 N195 N 1.06122 0.46242 0.54103
 N196 N 1.02677 0.52333 0.55851
 N197 N 1.03015 0.53945 0.57912
 C198 C 1.05115 0.54950 0.56741
 C199 C 1.05243 0.45258 0.56847
 N200 N 0.95471 0.47801 0.53483
 N201 N 0.93839 0.46213 0.53936
 N202 N 0.97202 0.52332 0.55812
 N203 N 0.96778 0.53893 0.57940
 N204 N 0.95459 0.52341 0.53514
 N205 N 0.93803 0.53907 0.54014
 N206 N 0.97212 0.47790 0.55785
 N207 N 0.96809 0.46194 0.57872
 Mn208 Mn 0.99946 0.50061 0.55863
 C209 C 0.94702 0.45218 0.56676
 C210 C 0.94654 0.54870 0.56779
 N211 N 1.04496 0.47831 0.46529
 N212 N 1.06107 0.46227 0.46092
 N213 N 1.02761 0.52379 0.44233
 N214 N 1.03199 0.53944 0.42099
 N215 N 1.04503 0.52370 0.46532
 N216 N 1.06173 0.53926 0.46026
 N217 N 1.02754 0.47837 0.44229
 N218 N 1.03135 0.46237 0.42159
 Mn219 Mn 1.04505 0.50087 0.50056
 C220 C 1.05232 0.45242 0.43360
 C221 C 1.05330 0.54903 0.43259
 N222 N 0.95514 0.52369 0.46463
 N223 N 0.93907 0.53975 0.46006
 N224 N 0.97276 0.47836 0.44167
 N225 N 0.96886 0.46267 0.42043
 N226 N 0.95505 0.47828 0.46433
 N227 N 0.93863 0.46256 0.45912
 N228 N 0.97282 0.52379 0.44192
 N229 N 0.96923 0.53992 0.42122
 Mn230 Mn 0.95459 0.50085 0.49972
 Mn231 Mn 1.00018 0.50108 0.44165
 Cl232 Cl 0.99982 0.50085 0.50014
 C233 C 0.94812 0.54979 0.43294
 C234 C 0.94752 0.45288 0.43169
 N235 N 0.54554 0.02313 0.53514
 N236 N 0.56186 0.03897 0.53982
 N237 N 0.52800 -0.02230 0.55807
 N238 N 0.53213 -0.03801 0.57936
 N239 N 0.54554 -0.02227 0.53520
 N240 N 0.56208 -0.03795 0.54029
 N241 N 0.52801 0.02313 0.55803
 N242 N 0.53196 0.03896 0.57898
 C243 C 0.55311 0.04876 0.56719
 C244 C 0.55343 -0.04772 0.56787
 N245 N 0.45568 -0.02215 0.53522
 N246 N 0.43971 -0.03832 0.53959
 N247 N 0.47319 0.02321 0.55821
 N248 N 0.46903 0.03880 0.57956
 N249 N 0.45560 0.02325 0.53543
 N250 N 0.43901 0.03886 0.54064
 N251 N 0.47324 -0.02222 0.55803
 N252 N 0.46970 -0.03844 0.57858
 Mn253 Mn 0.50060 0.00046 0.55849
 C254 C 0.44873 -0.04838 0.56670
 C255 C 0.44767 0.04850 0.56819
 N256 N 0.54539 -0.02203 0.46468
 N257 N 0.56152 -0.03803 0.46001
 N258 N 0.52803 0.02350 0.44188
 N259 N 0.53227 0.03920 0.42058
 N260 N 0.54561 0.02335 0.46467
 N261 N 0.56226 0.03893 0.45952
 N262 N 0.52785 -0.02192 0.44184
 N263 N 0.53158 -0.03784 0.42096
 Mn264 Mn 0.54580 0.00054 0.49992
 C265 C 0.55263 -0.04779 0.43271
 C266 C 0.55366 0.04876 0.43200
 N267 N 0.45567 0.02349 0.46494
 N268 N 0.43959 0.03956 0.46052
 N269 N 0.47308 -0.02185 0.44182
 N270 N 0.46897 -0.03749 0.42056
 N271 N 0.45552 -0.02192 0.46468
 N272 N 0.43901 -0.03759 0.45960
 N273 N 0.47322 0.02358 0.44206
 N274 N 0.46951 0.03971 0.42139
 Mn275 Mn 0.45533 0.00066 0.50007
 Mn276 Mn 0.50054 0.00084 0.44150
 Cl277 Cl 0.50057 0.00063 0.49999
 C278 C 0.44848 0.04959 0.43331
 C279 C 0.44768 -0.04725 0.43204
 N280 N 0.54409 0.52187 0.03514
 N281 N 0.56020 0.53788 0.03968
 N282 N 0.52677 0.47633 0.05795
 N283 N 0.53115 0.46069 0.07928
 N284 N 0.54426 0.47648 0.03501
 N285 N 0.56100 0.46096 0.04010
 N286 N 0.52660 0.52175 0.05810
 N287 N 0.53036 0.53768 0.07892
 C288 C 0.55136 0.54765 0.06703
 C289 C 0.55253 0.45115 0.06773
 N290 N 0.45436 0.47637 0.03545
 N291 N 0.43834 0.46027 0.03991
 N292 N 0.47183 0.52171 0.05855
 N293 N 0.46786 0.53739 0.07978
 N294 N 0.45418 0.52179 0.03584
 N295 N 0.43774 0.53752 0.04099
 N296 N 0.47198 0.47627 0.05819
 N297 N 0.46839 0.46009 0.07881
 Mn298 Mn 0.49929 0.49901 0.05860
 C299 C 0.44735 0.45020 0.06701
 C300 C 0.44655 0.54719 0.06845
 N301 N 0.54393 0.47680 -0.03549
 N302 N 0.55989 0.46067 -0.04003
 N303 N 0.52634 0.52232 -0.05808
 N304 N 0.53046 0.53807 -0.07934
 N305 N 0.54398 0.52220 -0.03536
 N306 N 0.56055 0.53784 -0.04052
 N307 N 0.52630 0.47689 -0.05822
 N308 N 0.52980 0.46082 -0.07889
 Mn309 Mn 0.54435 0.49934 -0.00018
 C310 C 0.55082 0.45081 -0.06717
 C311 C 0.55184 0.54769 -0.06798
 N312 N 0.45407 0.52212 -0.03467
 N313 N 0.43777 0.53802 -0.03920
 N314 N 0.47153 0.47684 -0.05799
 N315 N 0.46738 0.46124 -0.07930
 N316 N 0.45403 0.47672 -0.03506
 N317 N 0.43751 0.46105 -0.04014
 N318 N 0.47155 0.52226 -0.05763
 N319 N 0.46758 0.53825 -0.07846
 Mn320 Mn 0.45388 0.49925 0.00039
 Mn321 Mn 0.49893 0.49958 -0.05838
 Cl322 Cl 0.49911 0.49930 0.00011
 C323 C 0.44648 0.54800 -0.06654
 C324 C 0.44612 0.45145 -0.06777
 C325 C 1.17672 0.16195 0.22315
 C326 C 1.16706 0.16846 0.19276
 C327 C 1.17647 0.18711 0.17758
 C328 C 1.19583 0.19901 0.19247
 C329 C 1.20605 0.19230 0.22267
 C330 C 1.19607 0.17380 0.23805
 C331 C 1.14872 0.15520 0.17629
 C332 C 1.13410 0.14348 0.16229
 C333 C 1.11793 0.12907 0.14571
 C334 C 1.10495 0.11618 0.13139
 C335 C 1.09054 0.10013 0.11415
 C336 C 1.09951 0.09230 0.08420
 C337 C 1.08676 0.07551 0.06846
 C338 C 1.06490 0.06634 0.08256
 C339 C 1.05564 0.07463 0.11229
 C340 C 1.06846 0.09142 0.12804
 H341 H 1.16960 0.14751 0.23505
 H342 H 1.16925 0.19218 0.15392
 H343 H 1.20333 0.21305 0.17990
 H344 H 1.20337 0.16843 0.26150
 H345 H 1.11664 0.09888 0.07332
 H346 H 1.09427 0.06949 0.04554
 H347 H 1.03881 0.06787 0.12365
 H348 H 1.06143 0.09733 0.15130
 C349 C 1.17344 0.66453 0.72365
 C350 C 1.16420 0.67107 0.69306
 C351 C 1.17437 0.68934 0.67765
 C352 C 1.19415 0.70077 0.69246
 C353 C 1.20404 0.69395 0.72278
 C354 C 1.19322 0.67591 0.73846
 C355 C 1.14570 0.65802 0.67649
 C356 C 1.13106 0.64637 0.66241
 C357 C 1.11499 0.63192 0.64574
 C358 C 1.10220 0.61893 0.63139
 C359 C 1.08808 0.60269 0.61418
 C360 C 1.09741 0.59470 0.58450
 C361 C 1.08506 0.57765 0.56892
 C362 C 1.06322 0.56836 0.58292
 C363 C 1.05359 0.57680 0.61234
 C364 C 1.06602 0.59386 0.62794
 H365 H 1.16574 0.65036 0.73572
 H366 H 1.16748 0.69441 0.65384
 H367 H 1.20230 0.71447 0.67968
 H368 H 1.20026 0.67047 0.76201
 H369 H 1.11455 0.60136 0.57374
 H370 H 1.09284 0.57150 0.54623
 H371 H 1.03677 0.56995 0.62362
 H372 H 1.05873 0.59987 0.65100
 C373 C 0.66688 0.18411 0.71030
 C374 C 0.67320 0.16658 0.69036
 C375 C 0.69871 0.16129 0.68510
 C376 C 0.71790 0.17343 0.69976
 C377 C 0.71181 0.19104 0.71993
 C378 C 0.68609 0.19632 0.72500
 C379 C 0.65372 0.15377 0.67527
 C380 C 0.63823 0.14243 0.66213
 C381 C 0.62116 0.12845 0.64620
 C382 C 0.60755 0.11592 0.63214
 C383 C 0.59255 0.10027 0.61488
 C384 C 0.57053 0.09166 0.62907
 C385 C 0.55723 0.07518 0.61319
 C386 C 0.56597 0.06711 0.58306
 C387 C 0.58776 0.07622 0.56867
 C388 C 0.60096 0.09268 0.58452
 H389 H 0.64716 0.18829 0.71457
 H390 H 0.70379 0.14778 0.66962
 H391 H 0.73753 0.16918 0.69500
 H392 H 0.68085 0.20967 0.74066
 H393 H 0.56393 0.09737 0.65264
 H394 H 0.54048 0.06846 0.62478
 H395 H 0.59487 0.07036 0.54544
 H396 H 0.61804 0.09919 0.57341
 C397 C 0.67609 0.66180 0.22289
 C398 C 0.66637 0.66825 0.19252
 C399 C 0.67580 0.68683 0.17717
 C400 C 0.69525 0.69871 0.19188
 C401 C 0.70554 0.69206 0.22206
 C402 C 0.69554 0.67363 0.23762
 C403 C 0.64794 0.65499 0.17620
 C404 C 0.63327 0.64329 0.16228
 C405 C 0.61704 0.62890 0.14576
 C406 C 0.60402 0.61603 0.13146
 C407 C 0.58957 0.60001 0.11425
 C408 C 0.56750 0.59131 0.12819
 C409 C 0.55466 0.57453 0.11247
 C410 C 0.56387 0.56624 0.08272
 C411 C 0.58571 0.57540 0.06856
 C412 C 0.59849 0.59218 0.08427
 H413 H 0.66896 0.64740 0.23492
 H414 H 0.66853 0.69185 0.15352
 H415 H 0.70277 0.71270 0.17918
 H416 H 0.70290 0.66830 0.26106
 H417 H 0.56052 0.59721 0.15147
 H418 H 0.53784 0.56777 0.12387
 H419 H 0.59319 0.56937 0.04562
 H420 H 0.61561 0.59875 0.07335
 C421 C 0.83499 -0.18684 0.20794
 C422 C 0.82918 -0.16905 0.18808
 C423 C 0.80384 -0.16308 0.18314
 C424 C 0.78432 -0.17472 0.19812
 C425 C 0.78989 -0.19253 0.21833
 C426 C 0.81543 -0.19857 0.22296
 C427 C 0.84897 -0.15651 0.17294
 C428 C 0.86458 -0.14522 0.15979
 C429 C 0.88165 -0.13114 0.14390
 C430 C 0.89516 -0.11839 0.12994
 C431 C 0.90994 -0.10241 0.11289
 C432 C 0.90135 -0.09449 0.08273
 C433 C 0.91422 -0.07761 0.06723
 C434 C 0.93584 -0.06841 0.08176
 C435 C 0.94477 -0.07681 0.11165
 C436 C 0.93182 -0.09370 0.12719
 H437 H 0.85457 -0.19155 0.21196
 H438 H 0.79915 -0.14936 0.16774
 H439 H 0.76484 -0.16991 0.19366
 H440 H 0.82027 -0.21211 0.23860
 H441 H 0.88437 -0.10106 0.07154
 H442 H 0.90697 -0.07151 0.04416
 H443 H 0.96141 -0.07003 0.12335
 H444 H 0.93853 -0.09966 0.15062
 C445 C 0.80206 0.34255 0.69298
 C446 C 0.82680 0.33451 0.69143
 C447 C 0.83233 0.31424 0.70470
 C448 C 0.81311 0.30198 0.71943
 C449 C 0.78785 0.30981 0.72123
 C450 C 0.78281 0.33043 0.70766
 C451 C 0.84624 0.34716 0.67580
 C452 C 0.86170 0.35841 0.66227
 C453 C 0.87875 0.37232 0.64599
 C454 C 0.89238 0.38482 0.63174
 C455 C 0.90744 0.40048 0.61439
 C456 C 0.89905 0.40824 0.58405
 C457 C 0.91231 0.42476 0.56819
 C458 C 0.93412 0.43375 0.58257
 C459 C 0.94283 0.42550 0.61266
 C460 C 0.92949 0.40897 0.62854
 H461 H 0.79753 0.35817 0.68244
 H462 H 0.85152 0.30793 0.70381
 H463 H 0.81852 0.28674 0.73036
 H464 H 0.76380 0.33704 0.70685
 H465 H 0.88194 0.40183 0.57297
 H466 H 0.90521 0.43076 0.54499
 H467 H 0.95960 0.43213 0.62424
 H468 H 0.93606 0.40312 0.65210
 C469 C 0.32631 -0.16428 0.72285
 C470 C 0.33555 -0.17068 0.69225
 C471 C 0.32553 -0.18899 0.67700
 C472 C 0.30590 -0.20061 0.69198
 C473 C 0.29600 -0.19393 0.72232
 C474 C 0.30668 -0.17584 0.73784
 C475 C 0.35391 -0.15748 0.67553
 C476 C 0.36846 -0.14571 0.66136
 C477 C 0.38448 -0.13115 0.64465
 C478 C 0.39727 -0.11807 0.63031
 C479 C 0.41145 -0.10174 0.61319
 C480 C 0.40220 -0.09352 0.58354
 C481 C 0.41466 -0.07641 0.56805
 C482 C 0.43652 -0.06729 0.58210
 C483 C 0.44606 -0.07596 0.61150
 C484 C 0.43353 -0.09308 0.62700
 H485 H 0.33389 -0.15009 0.73481
 H486 H 0.33242 -0.19397 0.65318
 H487 H 0.29786 -0.21433 0.67931
 H488 H 0.29965 -0.17051 0.76140
 H489 H 0.38505 -0.10006 0.57274
 H490 H 0.40694 -0.07009 0.54537
 H491 H 0.46289 -0.06924 0.62282
 H492 H 0.44076 -0.09927 0.65003
 C493 C 0.30443 0.34019 0.19316
 C494 C 0.32879 0.33142 0.19099
 C495 C 0.33362 0.31091 0.20386
 C496 C 0.31408 0.29916 0.21889
 C497 C 0.28922 0.30779 0.22144
 C498 C 0.28488 0.32859 0.20813
 C499 C 0.34852 0.34369 0.17524
 C500 C 0.36407 0.35483 0.16165
 C501 C 0.38106 0.36879 0.14536
 C502 C 0.39450 0.38147 0.13114
 C503 C 0.40921 0.39741 0.11390
 C504 C 0.40047 0.40533 0.08382
 C505 C 0.41325 0.42222 0.06820
 C506 C 0.43495 0.43142 0.08254
 C507 C 0.44405 0.42301 0.11235
 C508 C 0.43117 0.40611 0.12800
 H509 H 0.30042 0.35599 0.18292
 H510 H 0.35252 0.30403 0.20247
 H511 H 0.31896 0.28369 0.22950
 H512 H 0.26616 0.33579 0.20780
 H513 H 0.38342 0.39878 0.07279
 H514 H 0.40587 0.42833 0.04521
 H515 H 0.46074 0.42979 0.12390
 H516 H 0.43801 0.40016 0.15137
 C517 C 0.82592 0.16436 -0.22306
 C518 C 0.83505 0.17068 -0.19238
 C519 C 0.82500 0.18899 -0.17711
 C520 C 0.80546 0.20066 -0.19215
 C521 C 0.79568 0.19406 -0.22257
 C522 C 0.80638 0.17597 -0.23810
 C523 C 0.85336 0.15744 -0.17564
 C524 C 0.86787 0.14565 -0.16148
 C525 C 0.88388 0.13107 -0.14479
 C526 C 0.89668 0.11799 -0.13048
 C527 C 0.91091 0.10167 -0.11339
 C528 C 0.90170 0.09344 -0.08371
 C529 C 0.91423 0.07637 -0.06822
 C530 C 0.93612 0.06729 -0.08232
 C531 C 0.94561 0.07596 -0.11175
 C532 C 0.93301 0.09305 -0.12724
 H533 H 0.83354 0.15017 -0.23503
 H534 H 0.83180 0.19391 -0.15324
 H535 H 0.79739 0.21438 -0.17948
 H536 H 0.79945 0.17069 -0.26172
 H537 H 0.88453 0.09995 -0.07287
 H538 H 0.90654 0.07004 -0.04552
 H539 H 0.96246 0.06928 -0.12310
 H540 H 0.94022 0.09924 -0.15030
 C541 C 0.80451 0.65907 0.30688
 C542 C 0.82890 0.66782 0.30862
 C543 C 0.83366 0.68827 0.29550
 C544 C 0.81402 0.69999 0.28067
 C545 C 0.78913 0.69139 0.27858
 C546 C 0.78486 0.67064 0.29211
 C547 C 0.84873 0.65561 0.32425
 C548 C 0.86438 0.64456 0.33778
 C549 C 0.88148 0.63070 0.35406
 C550 C 0.89500 0.61813 0.36832
 C551 C 0.90980 0.60230 0.38567
 C552 C 0.90109 0.59448 0.41584
 C553 C 0.91394 0.57769 0.43158
 C554 C 0.93568 0.56849 0.41727
 C555 C 0.94474 0.57682 0.38738
 C556 C 0.93180 0.59362 0.37161
 H557 H 0.80057 0.64331 0.31732
 H558 H 0.85258 0.69514 0.29656
 H559 H 0.81884 0.71541 0.26985
 H560 H 0.76614 0.66346 0.29278
 H561 H 0.88401 0.60103 0.42684
 H562 H 0.90658 0.57164 0.45463
 H563 H 0.96147 0.57003 0.37586
 H564 H 0.93861 0.59949 0.34817
 C565 C 0.30473 0.15920 0.30786
 C566 C 0.32908 0.16799 0.30990
 C567 C 0.33383 0.18853 0.29707
 C568 C 0.31422 0.20028 0.28223
 C569 C 0.28937 0.19164 0.27982
 C570 C 0.28511 0.17080 0.29307
 C571 C 0.34889 0.15573 0.32549
 C572 C 0.36451 0.14462 0.33895
 C573 C 0.38160 0.13070 0.35513
 C574 C 0.39514 0.11807 0.36927
 C575 C 0.40997 0.10219 0.38646
 C576 C 0.40138 0.09432 0.41666
 C577 C 0.41429 0.07750 0.43226
 C578 C 0.43596 0.06831 0.41778
 C579 C 0.44490 0.07667 0.38784
 C580 C 0.43190 0.09350 0.37221
 H581 H 0.30078 0.14337 0.31807
 H582 H 0.35272 0.19544 0.29837
 H583 H 0.31904 0.21578 0.27165
 H584 H 0.26641 0.16358 0.29350
 H585 H 0.38436 0.10087 0.42781
 H586 H 0.40703 0.07143 0.45535
 H587 H 0.46157 0.06989 0.37618
 H588 H 0.43862 0.09940 0.34875
 C589 C 0.30191 0.65771 -0.19297
 C590 C 0.32666 0.66572 -0.19146
 C591 C 0.33225 0.68594 -0.20485
 C592 C 0.31307 0.69820 -0.21963
 C593 C 0.28780 0.69041 -0.22137
 C594 C 0.28270 0.66983 -0.20770
 C595 C 0.34606 0.65307 -0.17576
 C596 C 0.36148 0.64184 -0.16217
 C597 C 0.37849 0.62794 -0.14582
 C598 C 0.39207 0.61543 -0.13152
 C599 C 0.40708 0.59978 -0.11415
 C600 C 0.39857 0.59198 -0.08387
 C601 C 0.41177 0.57543 -0.06801
 C602 C 0.43364 0.56646 -0.08232
 C603 C 0.44247 0.57475 -0.11234
 C604 C 0.42918 0.59131 -0.12822
 H605 H 0.29734 0.64212 -0.18235
 H606 H 0.35146 0.69222 -0.20399
 H607 H 0.31852 0.71341 -0.23064
 H608 H 0.26367 0.66326 -0.20686
 H609 H 0.38142 0.59837 -0.07284
 H610 H 0.40459 0.56940 -0.04485
 H611 H 0.45928 0.56814 -0.12387
 H612 H 0.43584 0.59718 -0.15174
 C613 C 1.16689 -0.18379 -0.21131
 C614 C 1.17311 -0.16625 -0.19135
 C615 C 1.19860 -0.16094 -0.18600
 C616 C 1.21786 -0.17307 -0.20056
 C617 C 1.21186 -0.19070 -0.22072
 C618 C 1.18617 -0.19599 -0.22591
 C619 C 1.15357 -0.15349 -0.17629
 C620 C 1.13802 -0.14219 -0.16314
 C621 C 1.12089 -0.12828 -0.14717
 C622 C 1.10724 -0.11579 -0.13305
 C623 C 1.09222 -0.10019 -0.11570
 C624 C 1.10061 -0.09268 -0.08531
 C625 C 1.08741 -0.07623 -0.06938
 C626 C 1.06564 -0.06708 -0.08372
 C627 C 1.05692 -0.07508 -0.11387
 C628 C 1.07021 -0.09154 -0.12984
 H629 H 1.14719 -0.18799 -0.21565
 H630 H 1.20360 -0.14742 -0.17050
 H631 H 1.23746 -0.16882 -0.19571
 H632 H 1.18100 -0.20935 -0.24158
 H633 H 1.11768 -0.09922 -0.07424
 H634 H 1.09451 -0.07043 -0.04612
 H635 H 1.04018 -0.06831 -0.12543
 H636 H 1.06364 -0.09719 -0.15344
 C637 C 1.17667 0.33750 0.27851
 C638 C 1.16707 0.33107 0.30898
 C639 C 1.17653 0.31247 0.32425
 C640 C 1.19587 0.30054 0.30935
 C641 C 1.20605 0.30717 0.27906
 C642 C 1.19602 0.32562 0.26360
 C643 C 1.14874 0.34438 0.32544
 C644 C 1.13413 0.35616 0.33937
 C645 C 1.11795 0.37065 0.35582
 C646 C 1.10497 0.38362 0.36999
 C647 C 1.09052 0.39977 0.38700
 C648 C 1.06852 0.40846 0.37291
 C649 C 1.05568 0.42535 0.38843
 C650 C 1.06483 0.43375 0.41811
 C651 C 1.08663 0.42461 0.43241
 C652 C 1.09940 0.40773 0.41690
 H653 H 1.16951 0.35190 0.26654
 H654 H 1.16935 0.30747 0.34797
 H655 H 1.20342 0.28654 0.32197
 H656 H 1.20327 0.33093 0.24008
 H657 H 1.06157 0.40246 0.34969
 H658 H 1.03891 0.43209 0.37692
 H659 H 1.09406 0.43073 0.45530
 H660 H 1.11647 0.40117 0.42793
 C661 C 0.67688 -0.18707 0.32219
 C662 C 0.66754 -0.16848 0.30679
 C663 C 0.67722 -0.16216 0.27631
 C664 C 0.69652 -0.17415 0.26151
 C665 C 0.70641 -0.19262 0.27709
 C666 C 0.69618 -0.19911 0.30741
 C667 C 0.64920 -0.15512 0.32312
 C668 C 0.63456 -0.14335 0.33704
 C669 C 0.61836 -0.12893 0.35358
 C670 C 0.60536 -0.11605 0.36790
 C671 C 0.59090 -0.10004 0.38518
 C672 C 0.56880 -0.09135 0.37134
 C673 C 0.55593 -0.07460 0.38717
 C674 C 0.56516 -0.06634 0.41690
 C675 C 0.58705 -0.07549 0.43095
 C676 C 0.59984 -0.09223 0.41514
 H677 H 0.66964 -0.19199 0.34592
 H678 H 0.67015 -0.14776 0.26424
 H679 H 0.70380 -0.16894 0.23796
 H680 H 0.70361 -0.21312 0.32013
 H681 H 0.56179 -0.09724 0.34808
 H682 H 0.53909 -0.06786 0.37585
 H683 H 0.59453 -0.06948 0.45388
 H684 H 0.61698 -0.09880 0.42598
 C685 C 0.67440 0.31104 -0.17766
 C686 C 0.66431 0.32937 -0.19300
 C687 C 0.67358 0.33590 -0.22358
 C688 C 0.69331 0.32448 -0.23847
 C689 C 0.70406 0.30638 -0.22286
 C690 C 0.69413 0.29955 -0.19254
 C691 C 0.64584 0.34245 -0.17637
 C692 C 0.63122 0.35412 -0.16226
 C693 C 0.61514 0.36858 -0.14558
 C694 C 0.60231 0.38157 -0.13123
 C695 C 0.58811 0.39779 -0.11404
 C696 C 0.56604 0.40657 -0.12780
 C697 C 0.55350 0.42358 -0.11219
 C698 C 0.56303 0.43202 -0.08273
 C699 C 0.58488 0.42278 -0.06872
 C700 C 0.59735 0.40578 -0.08433
 H701 H 0.66749 0.30596 -0.15385
 H702 H 0.66594 0.35011 -0.23560
 H703 H 0.70037 0.32992 -0.26201
 H704 H 0.70222 0.28581 -0.17982
 H705 H 0.55881 0.40055 -0.15088
 H706 H 0.53667 0.43038 -0.12347
 H707 H 0.59260 0.42892 -0.04600
 H708 H 0.61449 0.39915 -0.07355
 C709 C 1.14349 0.20161 -0.19282
 C710 C 1.15435 0.18109 -0.19045
 C711 C 1.17866 0.17753 -0.20310
 C712 C 1.19215 0.19440 -0.21794
 C713 C 1.18158 0.21536 -0.22055
 C714 C 1.15685 0.21853 -0.20767
 C715 C 1.14061 0.16377 -0.17475
 C716 C 1.12913 0.14932 -0.16145
 C717 C 1.11576 0.13242 -0.14571
 C718 C 1.10448 0.11797 -0.13214
 C719 C 1.09124 0.10062 -0.11579
 C720 C 1.10089 0.09201 -0.08659
 C721 C 1.08837 0.07493 -0.07095
 C722 C 1.06601 0.06622 -0.08435
 C723 C 1.05630 0.07507 -0.11353
 C724 C 1.06886 0.09216 -0.12916
 H725 H 1.12474 0.20462 -0.18284
 H726 H 1.18720 0.16163 -0.20163
 H727 H 1.21048 0.19054 -0.22835
 H728 H 1.14795 0.23427 -0.20756
 H729 H 1.11818 0.09843 -0.07600
 H730 H 1.09628 0.06847 -0.04848
 H731 H 1.03911 0.06870 -0.12440
 H732 H 1.06120 0.09870 -0.15173
 C733 C 1.14572 0.69236 0.28376
 C734 C 1.15688 0.68044 0.30903
 C735 C 1.18163 0.68528 0.31896
 C736 C 1.19513 0.70206 0.30393
 C737 C 1.18410 0.71456 0.27853
 C738 C 1.15909 0.70919 0.26866
 C739 C 1.14286 0.66339 0.32498
 C740 C 1.13112 0.64918 0.33847
 C741 C 1.11743 0.63255 0.35442
 C742 C 1.10586 0.61832 0.36814
 C743 C 1.09228 0.60125 0.38465
 C744 C 1.10162 0.59276 0.41410
 C745 C 1.08878 0.57590 0.42988
 C746 C 1.06642 0.56729 0.41636
 C747 C 1.05701 0.57603 0.38693
 C748 C 1.06989 0.59290 0.37117
 H749 H 1.12663 0.68862 0.27560
 H750 H 1.19043 0.67623 0.33869
 H751 H 1.21376 0.70570 0.31357
 H752 H 1.14988 0.71737 0.24846
 H753 H 1.11892 0.59909 0.42478
 H754 H 1.09647 0.56952 0.45253
 H755 H 1.03982 0.56973 0.37596
 H756 H 1.06246 0.59933 0.34840
 C757 C 0.64849 0.20279 0.31452
 C758 C 0.65626 0.18138 0.31014
 C759 C 0.67765 0.17691 0.29090
 C760 C 0.69123 0.19377 0.27613
 C761 C 0.68356 0.21535 0.28039
 C762 C 0.66202 0.21965 0.29977
 C763 C 0.64236 0.16407 0.32561
 C764 C 0.63072 0.14967 0.33876
 C765 C 0.61714 0.13284 0.35439
 C766 C 0.60569 0.11847 0.36790
 C767 C 0.59226 0.10125 0.38426
 C768 C 0.60178 0.09264 0.41352
 C769 C 0.58907 0.07568 0.42921
 C770 C 0.56665 0.06709 0.41580
 C771 C 0.55707 0.07594 0.38654
 C772 C 0.56982 0.09291 0.37086
 H773 H 0.63203 0.20646 0.32946
 H774 H 0.68383 0.16040 0.28730
 H775 H 0.70755 0.18990 0.26107
 H776 H 0.65583 0.23609 0.30392
 H777 H 0.61910 0.09896 0.42414
 H778 H 0.59689 0.06921 0.45173
 H779 H 0.53984 0.06966 0.37566
 H780 H 0.56226 0.09946 0.34824
 C781 C 0.64295 0.69243 -0.21555
 C782 C 0.65410 0.68034 -0.19045
 C783 C 0.67885 0.68510 -0.18043
 C784 C 0.69238 0.70195 -0.19525
 C785 C 0.68140 0.71459 -0.22053
 C786 C 0.65636 0.70932 -0.23044
 C787 C 0.64009 0.66316 -0.17476
 C788 C 0.62840 0.64882 -0.16148
 C789 C 0.61484 0.63203 -0.14574
 C790 C 0.60343 0.61765 -0.13216
 C791 C 0.59008 0.60039 -0.11575
 C792 C 0.59970 0.59178 -0.08653
 C793 C 0.58711 0.57476 -0.07083
 C794 C 0.56470 0.56610 -0.08418
 C795 C 0.55501 0.57495 -0.11338
 C796 C 0.56765 0.59199 -0.12907
 H797 H 0.62386 0.68875 -0.22376
 H798 H 0.68764 0.67593 -0.16083
 H799 H 0.71103 0.70550 -0.18557
 H800 H 0.64716 0.71763 -0.25053
 H801 H 0.61702 0.59814 -0.07597
 H802 H 0.59501 0.56829 -0.04836
 H803 H 0.53779 0.56862 -0.12422
 H804 H 0.56001 0.59852 -0.15166
 C805 C 0.85326 -0.18918 -0.22025
 C806 C 0.84502 -0.18058 -0.19040
 C807 C 0.82303 -0.18874 -0.17554
 C808 C 0.80940 -0.20547 -0.19033
 C809 C 0.81760 -0.21431 -0.22024
 C810 C 0.83967 -0.20592 -0.23508
 C811 C 0.85917 -0.16350 -0.17489
 C812 C 0.87092 -0.14923 -0.16171
 C813 C 0.88452 -0.13250 -0.14606
 C814 C 0.89594 -0.11818 -0.13252
 C815 C 0.90927 -0.10097 -0.11615
 C816 C 0.93162 -0.09242 -0.12959
 C817 C 0.94424 -0.07544 -0.11393
 C818 C 0.93461 -0.06680 -0.08463
 C819 C 0.91228 -0.07560 -0.07116
 C820 C 0.89971 -0.09257 -0.08683
 H821 H 0.87021 -0.18296 -0.23205
 H822 H 0.81649 -0.18226 -0.15240
 H823 H 0.79270 -0.21175 -0.17806
 H824 H 0.84630 -0.21218 -0.25830
 H825 H 0.93922 -0.09879 -0.15226
 H826 H 0.96140 -0.06900 -0.12486
 H827 H 0.90442 -0.06930 -0.04860
 H828 H 0.88244 -0.09905 -0.07617
 C829 C 0.82684 0.32364 0.29015
 C830 C 0.84826 0.31921 0.30935
 C831 C 0.85627 0.29783 0.31357
 C832 C 0.84291 0.28096 0.29878
 C833 C 0.82128 0.28523 0.27953
 C834 C 0.81342 0.30679 0.27534
 C835 C 0.86186 0.33654 0.32502
 C836 C 0.87318 0.35102 0.33831
 C837 C 0.88630 0.36797 0.35407
 C838 C 0.89735 0.38248 0.36765
 C839 C 0.91029 0.39989 0.38402
 C840 C 0.90033 0.40839 0.41305
 C841 C 0.91257 0.42553 0.42871
 C842 C 0.93496 0.43441 0.41551
 C843 C 0.94498 0.42567 0.38649
 C844 C 0.93270 0.40852 0.37085
 H845 H 0.82047 0.34013 0.28665
 H846 H 0.87277 0.29418 0.32847
 H847 H 0.84924 0.26454 0.30286
 H848 H 0.79705 0.31064 0.26037
 H849 H 0.88302 0.40185 0.42349
 H850 H 0.90443 0.43191 0.45105
 H851 H 0.96220 0.43216 0.37578
 H852 H 0.94060 0.40206 0.34841
 C853 C 0.32455 -0.18816 0.32413
 C854 C 0.34667 -0.17997 0.30964
 C855 C 0.35528 -0.18859 0.27999
 C856 C 0.34191 -0.20539 0.26495
 C857 C 0.31970 -0.21380 0.27940
 C858 C 0.31114 -0.20494 0.30914
 C859 C 0.36057 -0.16282 0.32534
 C860 C 0.37210 -0.14848 0.33867
 C861 C 0.38546 -0.13167 0.35446
 C862 C 0.39670 -0.11727 0.36806
 C863 C 0.40986 -0.09998 0.38444
 C864 C 0.40015 -0.09154 0.41365
 C865 C 0.41259 -0.07449 0.42931
 C866 C 0.43493 -0.06565 0.41590
 C867 C 0.44470 -0.07433 0.38670
 C868 C 0.43222 -0.09139 0.37107
 H869 H 0.31773 -0.18167 0.34712
 H870 H 0.37234 -0.18235 0.26848
 H871 H 0.34883 -0.21167 0.24189
 H872 H 0.29433 -0.21124 0.32113
 H873 H 0.38288 -0.09805 0.42425
 H874 H 0.40464 -0.06816 0.45178
 H875 H 0.46187 -0.06786 0.37583
 H876 H 0.43992 -0.09779 0.34849
 C877 C 0.35615 0.29817 -0.19263
 C878 C 0.34527 0.31867 -0.19021
 C879 C 0.32098 0.32229 -0.20287
 C880 C 0.30753 0.30549 -0.21777
 C881 C 0.31813 0.28454 -0.22042
 C882 C 0.34284 0.28132 -0.20753
 C883 C 0.35896 0.33592 -0.17446
 C884 C 0.37040 0.35030 -0.16113
 C885 C 0.38372 0.36714 -0.14535
 C886 C 0.39496 0.38154 -0.13176
 C887 C 0.40816 0.39881 -0.11540
 C888 C 0.39853 0.40721 -0.08611
 C889 C 0.41102 0.42422 -0.07045
 C890 C 0.43332 0.43308 -0.08393
 C891 C 0.44300 0.42445 -0.11321
 C892 C 0.43047 0.40742 -0.12884
 H893 H 0.37489 0.29511 -0.18263
 H894 H 0.31242 0.33817 -0.20138
 H895 H 0.28921 0.30940 -0.22819
 H896 H 0.35175 0.26559 -0.20745
 H897 H 0.38129 0.40068 -0.07545
 H898 H 0.40314 0.43052 -0.04791
 H899 H 0.46015 0.43094 -0.12413
 H900 H 0.43811 0.40106 -0.15149
 C901 C 1.14545 -0.20178 0.19217
 C902 C 1.15616 -0.18121 0.18987
 C903 C 1.18040 -0.17753 0.20263
 C904 C 1.19394 -0.19433 0.21757
 C905 C 1.18347 -0.21533 0.22019
 C906 C 1.15885 -0.21863 0.20711
 C907 C 1.14232 -0.16395 0.17417
 C908 C 1.13070 -0.14959 0.16088
 C909 C 1.11714 -0.13280 0.14514
 C910 C 1.10567 -0.11846 0.13157
 C911 C 1.09221 -0.10126 0.11520
 C912 C 1.10171 -0.09265 0.08590
 C913 C 1.08897 -0.07572 0.07021
 C914 C 1.06654 -0.06714 0.08365
 C915 C 1.05697 -0.07599 0.11294
 C916 C 1.06976 -0.09294 0.12861
 H917 H 1.12676 -0.20489 0.18207
 H918 H 1.18883 -0.16160 0.20120
 H919 H 1.21220 -0.19040 0.22808
 H920 H 1.15008 -0.23442 0.20696
 H921 H 1.11905 -0.09896 0.07526
 H922 H 1.09678 -0.06925 0.04767
 H923 H 1.03973 -0.06972 0.12384
 H924 H 1.06221 -0.09948 0.15126
 C925 C 1.17682 0.31207 0.67662
 C926 C 1.15477 0.32020 0.69129
 C927 C 1.14636 0.31150 0.72108
 C928 C 1.15983 0.29467 0.73603
 C929 C 1.18193 0.28628 0.72136
 C930 C 1.19032 0.29524 0.69152
 C931 C 1.14070 0.33734 0.67563
 C932 C 1.12898 0.35164 0.66233
 C933 C 1.11539 0.36840 0.64656
 C934 C 1.10398 0.38274 0.63292
 C935 C 1.09064 0.39997 0.61644
 C936 C 1.06815 0.40835 0.62968
 C937 C 1.05553 0.42536 0.61393
 C938 C 1.06528 0.43420 0.58474
 C939 C 1.08774 0.42556 0.57147
 C940 C 1.10032 0.40856 0.58724
 H941 H 1.18348 0.31863 0.65352
 H942 H 1.12936 0.31770 0.73273
 H943 H 1.15305 0.28830 0.75917
 H944 H 1.20706 0.28897 0.67939
 H945 H 1.06046 0.40183 0.65226
 H946 H 1.03826 0.43168 0.62470
 H947 H 1.09569 0.43201 0.54900
 H948 H 1.11769 0.40221 0.57674
 C949 C 0.67843 -0.17738 0.70372
 C950 C 0.65420 -0.18093 0.69086
 C951 C 0.64330 -0.20143 0.69321
 C952 C 0.65653 -0.21835 0.70827
 C953 C 0.68117 -0.21518 0.72139
 C954 C 0.69180 -0.19423 0.71877
 C955 C 0.64058 -0.16361 0.67499
 C956 C 0.62918 -0.14917 0.66156
 C957 C 0.61589 -0.13228 0.64569
 C958 C 0.60465 -0.11784 0.63204
 C959 C 0.59144 -0.10051 0.61562
 C960 C 0.56905 -0.09203 0.62896
 C961 C 0.55650 -0.07495 0.61328
 C962 C 0.56624 -0.06615 0.58406
 C963 C 0.58861 -0.07489 0.57069
 C964 C 0.60112 -0.09195 0.58639
 H965 H 0.68700 -0.16150 0.70227
 H966 H 0.62462 -0.20445 0.68306
 H967 H 0.64764 -0.23408 0.70814
 H968 H 0.71007 -0.19039 0.72934
 H969 H 0.56136 -0.09852 0.65156
 H970 H 0.53930 -0.06856 0.62413
 H971 H 0.59654 -0.06846 0.54820
 H972 H 0.61842 -0.09839 0.57581
 C973 C 0.67912 0.31223 0.17654
 C974 C 0.65699 0.32029 0.19114
 C975 C 0.64863 0.31165 0.22098
 C976 C 0.66220 0.29492 0.23605
 C977 C 0.68436 0.28659 0.22144
 C978 C 0.69272 0.29551 0.19157
 C979 C 0.64275 0.33724 0.17530
 C980 C 0.63085 0.35138 0.16188
 C981 C 0.61700 0.36792 0.14598
 C982 C 0.60534 0.38208 0.13227
 C983 C 0.59166 0.39908 0.11573
 C984 C 0.56921 0.40735 0.12919
 C985 C 0.55626 0.42417 0.11341
 C986 C 0.56568 0.43293 0.08398
 C987 C 0.58811 0.42438 0.07048
 C988 C 0.60101 0.40758 0.08628
 H989 H 0.68574 0.31875 0.15340
 H990 H 0.63158 0.31779 0.23257
 H991 H 0.65544 0.28858 0.25922
 H992 H 0.70950 0.28928 0.17948
 H993 H 0.56178 0.40090 0.15196
 H994 H 0.53903 0.43042 0.12435
 H995 H 0.59580 0.43078 0.04783
 H996 H 0.61836 0.40130 0.07562
 C997 C 0.85574 0.18881 0.22010
 C998 C 0.84703 0.18016 0.19053
 C999 C 0.82489 0.18837 0.17615
 C1000 C 0.81157 0.20520 0.19115
 C1001 C 0.82023 0.21409 0.22081
 C1002 C 0.84246 0.20566 0.23515
 C1003 C 0.86085 0.16297 0.17480
 C1004 C 0.87233 0.14860 0.16144
 C1005 C 0.88562 0.13176 0.14560
 C1006 C 0.89680 0.11734 0.13196
 C1007 C 0.90991 0.10003 0.11554
 C1008 C 0.90015 0.09160 0.08636
 C1009 C 0.91254 0.07454 0.07067
 C1010 C 0.93487 0.06566 0.08399
 C1011 C 0.94468 0.07432 0.11316
 C1012 C 0.93226 0.09140 0.12883
 H1013 H 0.87282 0.18255 0.23152
 H1014 H 0.81800 0.18186 0.15322
 H1015 H 0.79475 0.21152 0.17925
 H1016 H 0.84945 0.21196 0.25815
 H1017 H 0.88288 0.09815 0.07583
 H1018 H 0.90455 0.06822 0.04822
 H1019 H 0.96186 0.06782 0.12397
 H1020 H 0.94000 0.09778 0.15139
 C1021 C 0.82241 0.68913 0.67576
 C1022 C 0.84458 0.68100 0.69018
 C1023 C 0.85314 0.68962 0.71985
 C1024 C 0.83968 0.70634 0.73495
 C1025 C 0.81742 0.71469 0.72056
 C1026 C 0.80891 0.70584 0.69082
 C1027 C 0.85858 0.66392 0.67442
 C1028 C 0.87021 0.64963 0.66107
 C1029 C 0.88369 0.63289 0.64527
 C1030 C 0.89504 0.61854 0.63167
 C1031 C 0.90835 0.60131 0.61531
 C1032 C 0.93065 0.59273 0.62880
 C1033 C 0.94326 0.57572 0.61319
 C1034 C 0.93367 0.56707 0.58390
 C1035 C 0.91138 0.57590 0.57036
 C1036 C 0.89882 0.59290 0.58599
 H1037 H 0.81563 0.68264 0.65276
 H1038 H 0.87023 0.68342 0.73131
 H1039 H 0.84655 0.71261 0.75803
 H1040 H 0.79206 0.71209 0.67889
 H1041 H 0.93822 0.59910 0.65146
 H1042 H 0.96039 0.56925 0.62416
 H1043 H 0.90357 0.56959 0.54781
 H1044 H 0.88159 0.59940 0.57530
 C1045 C 0.32306 0.18842 0.67650
 C1046 C 0.34510 0.18021 0.69116
 C1047 C 0.35347 0.18874 0.72097
 C1048 C 0.33998 0.20549 0.73596
 C1049 C 0.31789 0.21395 0.72131
 C1050 C 0.30954 0.20516 0.69144
 C1051 C 0.35919 0.16316 0.67546
 C1052 C 0.37092 0.14892 0.66213
 C1053 C 0.38453 0.13225 0.64633
 C1054 C 0.39596 0.11798 0.63267
 C1055 C 0.40934 0.10085 0.61618
 C1056 C 0.43174 0.09234 0.62952
 C1057 C 0.44441 0.07542 0.61376
 C1058 C 0.43478 0.06679 0.58447
 C1059 C 0.41240 0.07556 0.57110
 C1060 C 0.39978 0.09246 0.58687
 H1061 H 0.31643 0.18200 0.65339
 H1062 H 0.37045 0.18247 0.73261
 H1063 H 0.34673 0.21173 0.75912
 H1064 H 0.29282 0.21151 0.67932
 H1065 H 0.43934 0.09869 0.65218
 H1066 H 0.46161 0.06900 0.62460
 H1067 H 0.40455 0.06927 0.54855
 H1068 H 0.38247 0.09891 0.57630
 C1069 C 0.35531 0.70249 0.18618
 C1070 C 0.34722 0.68114 0.19038
 C1071 C 0.32577 0.67676 0.20959
 C1072 C 0.31241 0.69364 0.22445
 C1073 C 0.32035 0.71518 0.22030
 C1074 C 0.34200 0.71940 0.20103
 C1075 C 0.36079 0.66377 0.17472
 C1076 C 0.37209 0.64926 0.16145
 C1077 C 0.38521 0.63226 0.14575
 C1078 C 0.39626 0.61772 0.13222
 C1079 C 0.40923 0.60027 0.11593
 C1080 C 0.39934 0.59174 0.08689
 C1081 C 0.41161 0.57458 0.07129
 C1082 C 0.43395 0.56568 0.08458
 C1083 C 0.44389 0.57444 0.11362
 C1084 C 0.43158 0.59162 0.12919
 H1085 H 0.37183 0.70610 0.17128
 H1086 H 0.31934 0.66029 0.21308
 H1087 H 0.29602 0.68983 0.23945
 H1088 H 0.34841 0.73580 0.19697
 H1089 H 0.38207 0.59830 0.07638
 H1090 H 0.40353 0.56819 0.04894
 H1091 H 0.46107 0.56793 0.12439
 H1092 H 0.43942 0.59808 0.15164
   
