data_POSCAR
  _audit_creation_date              2014-09-24
  _audit_creation_method            'ToBaCCo'
  _symmetry_space_group_name_H-M    'P1'
  _symmetry_Int_Tables_number       1
  _symmetry_cell_setting            triclinic
  loop_
  _symmetry_equiv_pos_as_xyz
 x,y,z
_cell_length_a 31.0614
_cell_length_b 31.6678
_cell_length_c 30.0308
_cell_angle_alpha 86.946600
_cell_angle_beta 88.399300
_cell_angle_gamma 90.884600
loop_
  _atom_site_label
  _atom_site_type_symbol
  _atom_site_fract_x
  _atom_site_fract_y
  _atom_site_fract_z
N1 N 0.19060 1.26712 0.13368
 N2 N 0.15722 1.26153 0.16131
 C3 C 0.12943 1.29307 0.15393
 C4 C 0.14606 1.32025 0.11954
 C5 C 0.18529 1.30261 0.10781
 H6 H 0.09880 1.29503 0.17151
 H7 H 0.20811 1.31396 0.08191
 Cu8 Cu 0.15214 1.21197 0.20224
 Cu9 Cu 0.23791 1.22712 0.13305
 Cu10 Cu 0.21317 1.12865 0.18515
 N11 N 0.14978 1.16287 0.24404
 N12 N 0.17391 1.13013 0.23677
 C13 C 0.16440 1.09906 0.26783
 C14 C 0.13225 1.11282 0.29654
 C15 C 0.12403 1.15380 0.28023
 H16 H 0.17926 1.06844 0.26830
 H17 H 0.10036 1.17514 0.29279
 N18 N 0.26285 1.13899 0.14371
 N19 N 0.27282 1.17643 0.12446
 C20 C 0.30814 1.17283 0.09795
 C21 C 0.32122 1.13111 0.10092
 C22 C 0.29168 1.11070 0.13036
 H23 H 0.32292 1.19864 0.07771
 H24 H 0.29064 1.07749 0.14073
 H25 H 0.19383 1.17979 0.14337
 H26 H 0.22666 1.19048 0.19271
 N27 N 0.81317 0.73779 0.14908
 N28 N 0.84569 0.73693 0.17615
 C29 C 0.87101 0.70425 0.16667
 C30 C 0.85352 0.68356 0.13161
 C31 C 0.81669 0.70583 0.12152
 H32 H 0.90073 0.69703 0.18306
 H33 H 0.79459 0.70008 0.09527
 Cu34 Cu 0.85278 0.77985 0.21964
 Cu35 Cu 0.77091 0.78249 0.14825
 Cu36 Cu 0.78744 0.86334 0.21933
 N37 N 0.85668 0.82189 0.26459
 N38 N 0.83056 0.85410 0.26435
 C39 C 0.84086 0.87931 0.29714
 C40 C 0.87575 0.86233 0.31949
 C41 C 0.88465 0.82555 0.29777
 H42 H 0.82459 0.90844 0.30309
 H43 H 0.91015 0.80357 0.30472
 N44 N 0.73882 0.86210 0.17873
 N45 N 0.73230 0.83098 0.15208
 C46 C 0.69802 0.83999 0.12708
 C47 C 0.68206 0.87866 0.13850
 C48 C 0.70861 0.89160 0.17163
 H49 H 0.68609 0.82024 0.10174
 H50 H 0.70701 0.92106 0.18814
 H51 H 0.81285 0.82705 0.16920
 H52 H 0.77776 0.79956 0.21361
 N53 N 0.84216 1.26503 -0.13342
 N54 N 0.87706 1.25889 -0.15774
 C55 C 0.90666 1.28884 -0.15018
 C56 C 0.88966 1.31539 -0.11916
 C57 C 0.84847 1.29918 -0.10934
 H58 H 0.93854 1.29039 -0.16552
 H59 H 0.82510 1.31068 -0.08577
 Cu60 Cu 0.88189 1.21163 -0.19585
 Cu61 Cu 0.79276 1.22616 -0.13252
 Cu62 Cu 0.79971 1.14299 -0.20304
 N63 N 0.87850 1.17459 -0.24508
 N64 N 0.84632 1.14762 -0.24785
 C65 C 0.85331 1.12416 -0.28330
 C66 C 0.89227 1.13707 -0.30419
 C67 C 0.90704 1.16950 -0.27881
 H68 H 0.83184 1.09904 -0.29227
 H69 H 0.93681 1.18746 -0.28346
 N70 N 0.74952 1.15111 -0.16302
 N71 N 0.74672 1.18289 -0.13644
 C72 C 0.71043 1.17790 -0.11099
 C73 C 0.68928 1.14123 -0.12204
 C74 C 0.71496 1.12528 -0.15541
 H75 H 0.70096 1.19860 -0.08512
 H76 H 0.71007 1.09578 -0.17123
 H77 H 0.82551 1.17382 -0.14996
 H78 H 0.80379 1.20713 -0.19695
 N79 N 0.17139 0.74233 -0.13229
 N80 N 0.13963 0.73938 -0.15998
 C81 C 0.11369 0.70663 -0.14589
 C82 C 0.13004 0.68791 -0.10721
 C83 C 0.16680 0.71158 -0.09973
 H84 H 0.08453 0.69781 -0.16208
 H85 H 0.18841 0.70723 -0.07235
 Cu86 Cu 0.13408 0.77949 -0.21088
 Cu87 Cu 0.21511 0.78697 -0.13930
 Cu88 Cu 0.20554 0.86032 -0.22800
 N89 N 0.12829 0.82217 -0.25939
 N90 N 0.15674 0.85308 -0.26630
 C91 C 0.14478 0.87840 -0.30096
 C92 C 0.10628 0.86293 -0.31678
 C93 C 0.09698 0.82697 -0.28934
 H94 H 0.16236 0.90673 -0.31254
 H95 H 0.06925 0.80610 -0.29049
 N96 N 0.25265 0.86238 -0.18551
 N97 N 0.25620 0.83435 -0.15179
 C98 C 0.29020 0.84509 -0.12775
 C99 C 0.30910 0.88178 -0.14708
 C100 C 0.28434 0.89176 -0.18374
 H101 H 0.29956 0.82818 -0.09747
 H102 H 0.28863 0.91881 -0.20700
 H103 H 0.17625 0.83069 -0.17177
 H104 H 0.21061 0.79743 -0.20751
 C105 C 0.50102 0.98840 -0.01453
 C106 C -0.00884 0.49985 1.02234
 C107 C 0.98772 0.00460 0.49717
 C108 C 0.14530 0.37871 1.06213
 C109 C 0.12623 0.35614 1.09961
 C110 C 0.08600 0.36958 1.11602
 C111 C 0.06467 0.40333 1.09473
 C112 C 0.08361 0.42487 1.05662
 C113 C 0.12419 0.41258 1.04089
 C114 C 0.06115 0.45742 1.03418
 C115 C 0.01991 0.46934 1.04972
 C116 C 0.00158 0.44672 1.08760
 C117 C 0.02387 0.41479 1.11019
 H118 H 0.07042 0.35364 1.14500
 H119 H 0.13937 0.42877 1.01172
 H120 H 0.07517 0.47200 1.00363
 H121 H 0.00856 0.39820 1.13906
 H122 H 0.17621 0.36998 1.04834
 H123 H -0.03079 0.45327 1.09931
 C124 C -0.14467 0.63622 1.06694
 C125 C -0.12802 0.64775 1.10779
 C126 C -0.09270 0.62560 1.12499
 C127 C -0.07368 0.59335 1.10135
 C128 C -0.09026 0.58256 1.06012
 C129 C -0.12598 0.60397 1.04337
 C130 C -0.07026 0.55130 1.03580
 C131 C -0.03412 0.52963 1.05233
 C132 C -0.01749 0.54190 1.09316
 C133 C -0.03745 0.57267 1.11765
 H134 H -0.07952 0.63361 1.15650
 H135 H -0.13915 0.59617 1.01174
 H136 H -0.08222 0.54446 1.00336
 H137 H -0.02373 0.58115 1.14880
 H138 H -0.17167 0.65253 1.05251
 H139 H 0.01193 0.52871 1.10587
 C140 C -0.04653 0.36435 0.88499
 C141 C -0.08795 0.35132 0.90087
 C142 C -0.10694 0.37213 0.93666
 C143 C -0.08447 0.40463 0.95675
 C144 C -0.04265 0.41653 0.94087
 C145 C -0.02411 0.39647 0.90484
 C146 C -0.01955 0.44781 0.96166
 C147 C -0.03770 0.46902 0.99767
 C148 C -0.07926 0.45607 1.01379
 C149 C -0.10252 0.42468 0.99321
 H150 H -0.13873 0.36270 0.94953
 H151 H 0.00793 0.40542 0.89215
 H152 H 0.01315 0.45544 0.95007
 H153 H -0.13429 0.41546 1.00644
 H154 H -0.03095 0.34966 0.85731
 H155 H -0.09352 0.46916 1.04316
 C156 C 0.12779 0.64065 0.96304
 C157 C 0.11111 0.65190 0.92100
 C158 C 0.07546 0.62900 0.90650
 C159 C 0.05623 0.59622 0.93371
 C160 C 0.07291 0.58553 0.97597
 C161 C 0.10890 0.60780 0.99022
 C162 C 0.05280 0.55344 1.00362
 C163 C 0.01644 0.53098 0.98944
 C164 C -0.00036 0.54335 0.94751
 C165 C 0.01972 0.57484 0.91977
 H166 H 0.06216 0.63675 0.87422
 H167 H 0.12217 0.60013 1.02259
 H168 H 0.06490 0.54648 1.03665
 H169 H 0.00592 0.58327 0.88783
 H170 H 0.15510 0.65751 0.97545
 H171 H -0.02995 0.52960 0.93629
 C172 C 1.12351 0.04763 0.34397
 C173 C 1.11134 0.08948 0.33255
 C174 C 1.07733 0.10693 0.35747
 C175 C 1.05574 0.08293 0.39222
 C176 C 1.06825 0.04106 0.40258
 C177 C 1.10219 0.02378 0.37843
 C178 C 1.04643 0.01682 0.43664
 C179 C 1.01271 0.03387 0.46220
 C180 C 0.99952 0.07532 0.45024
 C181 C 1.02119 0.09972 0.41617
 H182 H 1.06699 0.13890 0.34986
 H183 H 1.11223 -0.00836 0.38610
 H184 H 1.05568 -0.01571 0.44334
 H185 H 1.01044 0.13153 0.40806
 H186 H 1.14943 0.03266 0.32639
 H187 H 0.97184 0.08882 0.46645
 C188 C 1.04070 -0.13613 0.63893
 C189 C 1.08141 -0.11900 0.64860
 C190 C 1.09634 -0.08256 0.62344
 C191 C 1.07094 -0.06301 0.59074
 C192 C 1.02990 -0.07987 0.58224
 C193 C 1.01524 -0.11670 0.60626
 C194 C 1.00386 -0.05905 0.55071
 C195 C 1.01862 -0.02186 0.52650
 C196 C 1.05957 -0.00529 0.53651
 C197 C 1.08556 -0.02593 0.56747
 H198 H 1.12756 -0.06865 0.62925
 H199 H 0.98384 -0.13025 0.60017
 H200 H 0.97162 -0.07117 0.54584
 H201 H 1.11669 -0.01210 0.57418
 H202 H 1.02774 -0.16413 0.65699
 H203 H 1.07133 0.02463 0.52148
 C204 C 0.93483 -0.13976 0.37260
 C205 C 0.89836 -0.11998 0.35444
 C206 C 0.88564 -0.08119 0.37122
 C207 C 0.90936 -0.06196 0.40382
 C208 C 0.94619 -0.08169 0.42107
 C209 C 0.95841 -0.12083 0.40550
 C210 C 0.97073 -0.06145 0.45264
 C211 C 0.95860 -0.02167 0.46777
 C212 C 0.92219 -0.00229 0.44893
 C213 C 0.89750 -0.02243 0.41819
 H214 H 0.85776 -0.06499 0.35860
 H215 H 0.98657 -0.13658 0.41833
 H216 H 1.00006 -0.07603 0.46391
 H217 H 0.86973 -0.00647 0.40471
 H218 H 0.94584 -0.16967 0.36124
 H219 H 0.91312 0.02917 0.45759
 C220 C 0.95337 0.13610 0.64204
 C221 C 0.91322 0.11972 0.65878
 C222 C 0.89505 0.08486 0.63824
 C223 C 0.91675 0.06631 0.60284
 C224 C 0.95706 0.08279 0.58696
 C225 C 0.97496 0.11784 0.60662
 C226 C 0.97915 0.06355 0.55222
 C227 C 0.96110 0.02843 0.53187
 C228 C 0.92147 0.01154 0.54968
 C229 C 0.89928 0.03067 0.58398
 H230 H 0.86435 0.07130 0.64993
 H231 H 1.00589 0.13099 0.59484
 H232 H 1.01079 0.07556 0.54141
 H233 H 0.86883 0.01693 0.59647
 H234 H 0.96869 0.16293 0.65622
 H235 H 0.90775 -0.01725 0.53785
 C236 C 0.37648 1.13269 0.03819
 C237 C 0.35742 1.11178 0.07644
 C238 C 0.37237 1.07162 0.09043
 C239 C 0.40514 1.05228 0.06612
 C240 C 0.42350 1.07330 0.02741
 C241 C 0.40913 1.11359 0.01386
 C242 C 0.45523 1.05338 0.00227
 C243 C 0.47023 1.01285 0.01577
 C244 C 0.45047 0.99205 0.05398
 C245 C 0.41894 1.01173 0.07919
 H246 H 0.35847 1.05516 0.12006
 H247 H 0.42283 1.13019 -0.01583
 H248 H 0.46715 1.06915 -0.02859
 H249 H 0.40468 0.99481 0.10841
 H250 H 0.36559 1.16345 0.02636
 H251 H 0.45905 0.96003 0.06405
 C252 C 0.63865 1.13124 -0.05575
 C253 C 0.65111 1.12038 -0.09898
 C254 C 0.62832 1.08790 -0.11889
 C255 C 0.59466 1.06561 -0.09532
 C256 C 0.58352 1.07600 -0.05144
 C257 C 0.60525 1.10922 -0.03219
 C258 C 0.55188 1.05214 -0.02684
 C259 C 0.52987 1.01820 -0.04542
 C260 C 0.54152 1.00830 -0.08941
 C261 C 0.57307 1.03205 -0.11419
 H262 H 0.63715 1.07941 -0.15235
 H263 H 0.59702 1.11763 0.00148
 H264 H 0.54525 1.05915 0.00759
 H265 H 0.58160 1.02323 -0.14763
 H266 H 0.65557 1.15585 -0.03932
 H267 H 0.52769 0.98107 -0.10431
 C268 C 0.35505 0.94799 -0.14642
 C269 C 0.34586 0.90622 -0.13015
 C270 C 0.37127 0.88828 -0.09630
 C271 C 0.40433 0.91186 -0.07806
 C272 C 0.41286 0.95393 -0.09407
 C273 C 0.38824 0.97161 -0.12856
 C274 C 0.44512 0.97786 -0.07464
 C275 C 0.46985 0.96018 -0.03972
 C276 C 0.45959 0.91837 -0.02349
 C277 C 0.42799 0.89437 -0.04296
 H278 H 0.36522 0.85605 -0.08357
 H279 H 0.39423 1.00388 -0.14130
 H280 H 0.45040 1.01062 -0.08601
 H281 H 0.42120 0.86242 -0.02960
 H282 H 0.33611 0.96289 -0.17233
 H283 H 0.47503 0.90423 0.00533
 C284 C 0.62663 0.93564 0.13874
 C285 C 0.64667 0.90247 0.11723
 C286 C 0.63337 0.89274 0.07457
 C287 C 0.60080 0.91578 0.05358
 C288 C 0.58068 0.94888 0.07547
 C289 C 0.59387 0.95859 0.11809
 C290 C 0.54816 0.97204 0.05419
 C291 C 0.53447 0.96190 0.01145
 C292 C 0.55673 0.93003 -0.01047
 C293 C 0.58879 0.90682 0.01055
 H294 H 0.64893 0.86785 0.05707
 H295 H 0.57892 0.98394 0.13543
 H296 H 0.53435 0.99842 0.07068
 H297 H 0.60455 0.88213 -0.00714
 H298 H 0.63605 0.94375 0.17168
 H299 H 0.54908 0.92293 -0.04424
   
