data_POSCAR
  _audit_creation_date              2014-09-24
  _audit_creation_method            'ToBaCCo'
  _symmetry_space_group_name_H-M    'P1'
  _symmetry_Int_Tables_number       1
  _symmetry_cell_setting            triclinic
  loop_
  _symmetry_equiv_pos_as_xyz
 x,y,z
_cell_length_a 56.8759
_cell_length_b 55.1533
_cell_length_c 43.1480
_cell_angle_alpha 89.720200
_cell_angle_beta 89.917100
_cell_angle_gamma 90.143200
loop_
  _atom_site_label
  _atom_site_type_symbol
  _atom_site_fract_x
  _atom_site_fract_y
  _atom_site_fract_z
C1 C 0.26943 0.27553 0.23741
 C2 C 0.25014 0.26338 0.25057
 C3 C 0.23163 0.27678 0.26340
 C4 C 0.23238 0.30224 0.26352
 C5 C 0.25169 0.31417 0.24986
 C6 C 0.27025 0.30098 0.23663
 C7 C 0.24941 0.23662 0.25114
 C8 C 0.26783 0.22348 0.26469
 C9 C 0.26725 0.19802 0.26555
 C10 C 0.24816 0.18580 0.25199
 C11 C 0.22969 0.19874 0.23801
 C12 C 0.23035 0.22420 0.23805
 H13 H 0.28374 0.26511 0.22767
 H14 H 0.21702 0.26729 0.27416
 H15 H 0.28258 0.23315 0.27466
 H16 H 0.21612 0.23444 0.22770
 H17 H 0.25197 0.33379 0.24885
 H18 H 0.24770 0.16617 0.25227
 C19 C 0.76864 0.77589 0.23762
 C20 C 0.74920 0.76375 0.25024
 C21 C 0.73076 0.77700 0.26330
 C22 C 0.73150 0.80254 0.26438
 C23 C 0.75112 0.81439 0.25094
 C24 C 0.76989 0.80143 0.23735
 C25 C 0.74836 0.73697 0.25034
 C26 C 0.76657 0.72358 0.26399
 C27 C 0.76575 0.69812 0.26460
 C28 C 0.74666 0.68618 0.25069
 C29 C 0.72838 0.69935 0.23666
 C30 C 0.72927 0.72480 0.23691
 H31 H 0.78295 0.76506 0.22871
 H32 H 0.71659 0.76696 0.27417
 H33 H 0.78102 0.73308 0.27495
 H34 H 0.71518 0.73522 0.22653
 H35 H 0.75081 0.83388 0.24872
 H36 H 0.74636 0.66655 0.25005
 C37 C 0.76954 0.27515 0.73727
 C38 C 0.75026 0.26300 0.75029
 C39 C 0.73169 0.27634 0.76306
 C40 C 0.73218 0.30196 0.76346
 C41 C 0.75173 0.31373 0.74968
 C42 C 0.77033 0.30055 0.73655
 C43 C 0.74961 0.23622 0.75087
 C44 C 0.76804 0.22311 0.76447
 C45 C 0.76782 0.19748 0.76525
 C46 C 0.74862 0.18545 0.75120
 C47 C 0.73015 0.19843 0.73730
 C48 C 0.73070 0.22383 0.73755
 H49 H 0.78389 0.26476 0.72755
 H50 H 0.71761 0.26634 0.77421
 H51 H 0.78276 0.23323 0.77364
 H52 H 0.71646 0.23405 0.72717
 H53 H 0.75212 0.33326 0.74748
 H54 H 0.74745 0.16590 0.75158
 C55 C 0.26902 0.77547 0.73810
 C56 C 0.24963 0.76327 0.75093
 C57 C 0.23129 0.77653 0.76422
 C58 C 0.23228 0.80190 0.76520
 C59 C 0.25166 0.81397 0.75192
 C60 C 0.27032 0.80107 0.73798
 C61 C 0.24870 0.73650 0.75084
 C62 C 0.26695 0.72301 0.76424
 C63 C 0.26606 0.69756 0.76468
 C64 C 0.24687 0.68572 0.75086
 C65 C 0.22856 0.69900 0.73708
 C66 C 0.22951 0.72445 0.73751
 H67 H 0.28325 0.76466 0.72896
 H68 H 0.21661 0.76697 0.77470
 H69 H 0.28147 0.73242 0.77513
 H70 H 0.21539 0.73495 0.72732
 H71 H 0.25129 0.83356 0.75116
 H72 H 0.24651 0.66610 0.75009
 C73 C 0.02980 0.03974 0.01115
 H74 H 0.02732 0.04295 -0.01339
 C75 C 0.04434 0.05505 0.02828
 H76 H 0.05281 0.07024 0.01679
 C77 C 0.02155 0.01605 0.05586
 H78 H 0.01284 0.00062 0.06636
 C79 C 0.03593 0.03092 0.07388
 H80 H 0.03827 0.02668 0.09821
 N81 N 0.01893 0.02059 0.02506
 C82 C 0.01097 -0.03642 -0.04395
 H83 H -0.00789 -0.03899 -0.04451
 C84 C 0.02543 -0.05083 -0.06243
 H85 H 0.01753 -0.06417 -0.07754
 C86 C 0.04413 -0.01599 -0.02349
 H87 H 0.05144 -0.00265 -0.00799
 C88 C 0.05922 -0.02995 -0.04160
 H89 H 0.07801 -0.02721 -0.03966
 Zn90 Zn 0.00040 -0.00012 0.00026
 N91 N 0.02045 -0.01928 -0.02509
 C92 C -0.02199 0.01573 -0.05558
 N93 N -0.01958 0.01958 -0.02460
 C94 C -0.03106 0.03811 -0.01045
 C95 C -0.04635 0.05295 -0.02720
 C96 C -0.03712 0.03014 -0.07322
 C97 C -0.01373 -0.04494 0.02732
 C98 C -0.02761 -0.06024 0.04568
 C99 C -0.04976 -0.02537 0.06235
 C100 C -0.03549 -0.01075 0.04365
 N101 N -0.01808 -0.02069 0.02623
 H102 H -0.01235 0.00142 -0.06676
 H103 H -0.02812 0.04160 0.01386
 H104 H -0.05523 0.06762 -0.01545
 H105 H -0.03923 0.02635 -0.09766
 H106 H 0.00060 -0.05251 0.01413
 H107 H -0.02382 -0.07947 0.04627
 H108 H -0.06387 -0.01711 0.07541
 H109 H -0.03847 0.00854 0.04300
 C110 C 0.04992 -0.04762 -0.06145
 C111 C 0.04771 0.05062 0.06005
 C112 C -0.04603 -0.05051 0.06334
 C113 C -0.04973 0.04890 -0.05897
 C114 C 0.02956 0.54016 0.50869
 H115 H 0.02711 0.54331 0.48414
 C116 C 0.04400 0.55556 0.52582
 H117 H 0.05243 0.57077 0.51431
 C118 C 0.02131 0.51652 0.55345
 H119 H 0.01263 0.50108 0.56397
 C120 C 0.03560 0.53149 0.57147
 H121 H 0.03790 0.52731 0.59582
 N122 N 0.01873 0.52099 0.52262
 C123 C 0.01076 0.46407 0.45348
 H124 H -0.00810 0.46149 0.45295
 C125 C 0.02522 0.44971 0.43493
 H126 H 0.01731 0.43639 0.41980
 C127 C 0.04392 0.48450 0.47395
 H128 H 0.05124 0.49781 0.48948
 C129 C 0.05900 0.47059 0.45578
 H130 H 0.07780 0.47334 0.45769
 Zn131 Zn 0.00021 0.50028 0.49783
 N132 N 0.02024 0.48119 0.47238
 C133 C -0.02237 0.51620 0.44214
 N134 N -0.01983 0.52001 0.47311
 C135 C -0.03120 0.53854 0.48738
 C136 C -0.04652 0.55345 0.47078
 C137 C -0.03754 0.53068 0.42464
 C138 C -0.01388 0.45540 0.52480
 C139 C -0.02774 0.44007 0.54314
 C140 C -0.04988 0.47491 0.55994
 C141 C -0.03563 0.48956 0.54126
 N142 N -0.01822 0.47966 0.52379
 H143 H -0.01281 0.50188 0.43086
 H144 H -0.02815 0.54200 0.51168
 H145 H -0.05531 0.56813 0.48262
 H146 H -0.03977 0.52693 0.40021
 H147 H 0.00043 0.44786 0.51156
 H148 H -0.02395 0.42084 0.54367
 H149 H -0.06397 0.48315 0.57305
 H150 H -0.03860 0.50885 0.54067
 C151 C 0.04971 0.45294 0.43588
 C152 C 0.04731 0.55122 0.55762
 C153 C -0.04615 0.44977 0.56086
 C154 C -0.05004 0.54945 0.43902
 C155 C 0.52982 0.03948 0.51094
 H156 H 0.52729 0.04264 0.48641
 C157 C 0.54437 0.05485 0.52798
 H158 H 0.55280 0.07002 0.51642
 C159 C 0.52169 0.01586 0.55575
 H160 H 0.51303 0.00043 0.56633
 C161 C 0.53609 0.03078 0.57368
 H162 H 0.53849 0.02658 0.59800
 N163 N 0.51900 0.02034 0.52494
 C164 C 0.51100 -0.03678 0.45609
 H165 H 0.49215 -0.03938 0.45559
 C166 C 0.52546 -0.05117 0.43757
 H167 H 0.51755 -0.06453 0.42250
 C168 C 0.54417 -0.01628 0.47643
 H169 H 0.55149 -0.00292 0.49189
 C170 C 0.55925 -0.03022 0.45829
 H171 H 0.57804 -0.02744 0.46016
 Zn172 Zn 0.50046 -0.00044 0.50026
 N173 N 0.52049 -0.01961 0.47490
 C174 C 0.47796 0.01529 0.44444
 N175 N 0.48041 0.01920 0.47540
 C176 C 0.46892 0.03772 0.48954
 C177 C 0.45359 0.05251 0.47280
 C178 C 0.46279 0.02966 0.42680
 C179 C 0.48639 -0.04524 0.52743
 C180 C 0.47254 -0.06053 0.54585
 C181 C 0.45042 -0.02565 0.56255
 C182 C 0.46466 -0.01104 0.54380
 N183 N 0.48204 -0.02099 0.52633
 H184 H 0.48761 0.00099 0.43326
 H185 H 0.47189 0.04125 0.51383
 H186 H 0.44470 0.06719 0.48454
 H187 H 0.46065 0.02584 0.40238
 H188 H 0.50069 -0.05282 0.51420
 H189 H 0.47632 -0.07976 0.54644
 H190 H 0.43634 -0.01738 0.57565
 H191 H 0.46169 0.00825 0.54314
 C192 C 0.54994 -0.04792 0.43847
 C193 C 0.54782 0.05047 0.55975
 C194 C 0.45414 -0.05079 0.56355
 C195 C 0.45017 0.04842 0.44104
 C196 C 0.53008 0.53956 0.00821
 H197 H 0.52765 0.54265 -0.01635
 C198 C 0.54451 0.55501 0.02530
 H199 H 0.55295 0.57018 0.01375
 C200 C 0.52177 0.51605 0.05306
 H201 H 0.51307 0.50064 0.06364
 C202 C 0.53604 0.53106 0.07104
 H203 H 0.53832 0.52694 0.09542
 N204 N 0.51923 0.52044 0.02221
 C205 C 0.51123 0.46334 -0.04669
 H206 H 0.49237 0.46076 -0.04722
 C207 C 0.52569 0.44892 -0.06517
 H208 H 0.51778 0.43557 -0.08025
 C209 C 0.54440 0.48379 -0.02627
 H210 H 0.55172 0.49713 -0.01079
 C211 C 0.55948 0.46982 -0.04438
 H212 H 0.57828 0.47257 -0.04246
 Zn213 Zn 0.50069 0.49968 -0.00251
 N214 N 0.52072 0.48049 -0.02785
 C215 C 0.47810 0.51544 -0.05827
 N216 N 0.48068 0.51937 -0.02733
 C217 C 0.46936 0.53797 -0.01315
 C218 C 0.45404 0.55283 -0.02980
 C219 C 0.46294 0.52988 -0.07583
 C220 C 0.48651 0.45490 0.02465
 C221 C 0.47261 0.43965 0.04306
 C222 C 0.45056 0.47459 0.05970
 C223 C 0.46484 0.48916 0.04096
 N224 N 0.48222 0.47916 0.02353
 H225 H 0.48763 0.50107 -0.06948
 H226 H 0.47243 0.54150 0.01112
 H227 H 0.44527 0.56757 -0.01803
 H228 H 0.46068 0.52605 -0.10023
 H229 H 0.50080 0.44728 0.01144
 H230 H 0.47635 0.42041 0.04367
 H231 H 0.43648 0.48290 0.07278
 H232 H 0.46191 0.50846 0.04028
 C233 C 0.55018 0.45213 -0.06422
 C234 C 0.54778 0.55075 0.05713
 C235 C 0.45423 0.44944 0.06073
 C236 C 0.45047 0.54872 -0.06153
 C237 C 0.20087 -0.15100 -0.18627
 C238 C 0.17732 -0.15762 -0.19035
 C239 C 0.17164 -0.17743 -0.20909
 C240 C 0.18948 -0.19061 -0.22365
 C241 C 0.21322 -0.18409 -0.21965
 C242 C 0.21870 -0.16412 -0.20079
 C243 C 0.15910 -0.14407 -0.17510
 C244 C 0.14422 -0.13245 -0.16197
 C245 C 0.12723 -0.11853 -0.14621
 C246 C 0.11311 -0.10639 -0.13243
 C247 C 0.09672 -0.09159 -0.11558
 C248 C 0.07687 -0.10203 -0.10164
 C249 C 0.06146 -0.08771 -0.08434
 C250 C 0.06577 -0.06274 -0.08070
 C251 C 0.08563 -0.05239 -0.09511
 C252 C 0.10099 -0.06673 -0.11240
 H253 H 0.20546 -0.13575 -0.17172
 H254 H 0.15346 -0.18269 -0.21245
 H255 H 0.18470 -0.20573 -0.23829
 H256 H 0.23681 -0.15887 -0.19691
 H257 H 0.07346 -0.12128 -0.10385
 H258 H 0.04648 -0.09626 -0.07324
 H259 H 0.08925 -0.03318 -0.09310
 H260 H 0.11628 -0.05845 -0.12313
 C261 C 0.17170 0.32278 0.28918
 C262 C 0.17728 0.34303 0.30719
 C263 C 0.20078 0.35002 0.31073
 C264 C 0.21866 0.33682 0.29642
 C265 C 0.21327 0.31639 0.27833
 C266 C 0.18958 0.30952 0.27484
 C267 C 0.15903 0.35661 0.32233
 C268 C 0.14412 0.36824 0.33538
 C269 C 0.12710 0.38216 0.35107
 C270 C 0.11295 0.39429 0.36483
 C271 C 0.09653 0.40907 0.38166
 C272 C 0.10077 0.43393 0.38487
 C273 C 0.08540 0.44824 0.40219
 C274 C 0.06555 0.43785 0.41659
 C275 C 0.06126 0.41289 0.41290
 C276 C 0.07669 0.39860 0.39558
 H277 H 0.15356 0.31723 0.28625
 H278 H 0.20531 0.36561 0.32472
 H279 H 0.23674 0.34236 0.29993
 H280 H 0.18486 0.29404 0.26079
 H281 H 0.11606 0.44223 0.37416
 H282 H 0.08900 0.46745 0.40422
 H283 H 0.04629 0.40431 0.42400
 H284 H 0.07330 0.37934 0.39336
 C285 C 0.67221 -0.18020 0.29578
 C286 C 0.67701 -0.15740 0.30824
 C287 C 0.69965 -0.14773 0.30595
 C288 C 0.71751 -0.16078 0.29139
 C289 C 0.71315 -0.18399 0.27871
 C290 C 0.69002 -0.19339 0.28121
 C291 C 0.65886 -0.14394 0.32378
 C292 C 0.64404 -0.13240 0.33712
 C293 C 0.62711 -0.11856 0.35310
 C294 C 0.61302 -0.10648 0.36704
 C295 C 0.59668 -0.09174 0.38405
 C296 C 0.60091 -0.06687 0.38725
 C297 C 0.58558 -0.05259 0.40466
 C298 C 0.56578 -0.06299 0.41915
 C299 C 0.56151 -0.08797 0.41549
 C300 C 0.57690 -0.10224 0.39808
 H301 H 0.65465 -0.18779 0.29724
 H302 H 0.70362 -0.13015 0.31580
 H303 H 0.73493 -0.15290 0.29150
 H304 H 0.68519 -0.21056 0.27102
 H305 H 0.61615 -0.05855 0.37646
 H306 H 0.58916 -0.03337 0.40667
 H307 H 0.54658 -0.09656 0.42665
 H308 H 0.57351 -0.12149 0.39586
 C309 C 0.67288 0.31915 -0.20513
 C310 C 0.67749 0.34225 -0.19346
 C311 C 0.70000 0.35215 -0.19630
 C312 C 0.71793 0.33902 -0.21062
 C313 C 0.71377 0.31551 -0.22248
 C314 C 0.69075 0.30590 -0.21946
 C315 C 0.65930 0.35576 -0.17809
 C316 C 0.64443 0.36736 -0.16490
 C317 C 0.62746 0.38125 -0.14908
 C318 C 0.61334 0.39338 -0.13525
 C319 C 0.59697 0.40817 -0.11837
 C320 C 0.60122 0.43303 -0.11521
 C321 C 0.58587 0.44737 -0.09790
 C322 C 0.56602 0.43701 -0.08347
 C323 C 0.56172 0.41204 -0.08710
 C324 C 0.57713 0.39772 -0.10441
 H325 H 0.65542 0.31138 -0.20325
 H326 H 0.70383 0.36996 -0.18705
 H327 H 0.73525 0.34714 -0.21093
 H328 H 0.68605 0.28848 -0.22905
 H329 H 0.61651 0.44132 -0.12595
 H330 H 0.58948 0.46658 -0.09590
 H331 H 0.54675 0.40349 -0.07598
 H332 H 0.57372 0.37847 -0.10661
 C333 C -0.18284 0.18131 -0.18080
 C334 C -0.17803 0.15753 -0.18970
 C335 C -0.19075 0.14705 -0.21385
 C336 C -0.20840 0.16018 -0.22890
 C337 C -0.21379 0.18424 -0.22007
 C338 C -0.20043 0.19456 -0.19577
 C339 C -0.16041 0.14369 -0.17357
 C340 C -0.14587 0.13203 -0.15976
 C341 C -0.12910 0.11828 -0.14325
 C342 C -0.11501 0.10646 -0.12886
 C343 C -0.09846 0.09225 -0.11133
 C344 C -0.07692 0.08558 -0.12445
 C345 C -0.06100 0.07156 -0.10744
 C346 C -0.06644 0.06403 -0.07704
 C347 C -0.08813 0.07090 -0.06406
 C348 C -0.10401 0.08490 -0.08111
 H349 H -0.17322 0.18953 -0.16189
 H350 H -0.18703 0.12868 -0.22112
 H351 H -0.21712 0.15150 -0.24813
 H352 H -0.20413 0.21247 -0.18699
 H353 H -0.07243 0.09122 -0.14781
 H354 H -0.04435 0.06682 -0.11794
 H355 H -0.09298 0.06512 -0.04090
 H356 H -0.12067 0.08988 -0.07076
 C357 C -0.20335 0.65047 0.31331
 C358 C -0.17980 0.65744 0.31011
 C359 C -0.17396 0.67762 0.29185
 C360 C -0.19163 0.69084 0.27692
 C361 C -0.21537 0.68400 0.28007
 C362 C -0.22102 0.66363 0.29841
 C363 C -0.16174 0.64395 0.32587
 C364 C -0.14691 0.63249 0.33940
 C365 C -0.12988 0.61889 0.35564
 C366 C -0.11563 0.60713 0.36984
 C367 C -0.09897 0.59294 0.38719
 C368 C -0.10437 0.58556 0.41745
 C369 C -0.08842 0.57152 0.43432
 C370 C -0.06681 0.56464 0.42113
 C371 C -0.06152 0.57220 0.39070
 C372 C -0.07751 0.58627 0.37386
 H373 H -0.20807 0.63493 0.32749
 H374 H -0.15578 0.68315 0.28918
 H375 H -0.18670 0.70626 0.26268
 H376 H -0.23915 0.65812 0.30164
 H377 H -0.12097 0.59054 0.42795
 H378 H -0.09317 0.56570 0.45751
 H379 H -0.04492 0.56745 0.38004
 H380 H -0.07314 0.59192 0.35047
 C381 C 0.31282 0.14956 0.28263
 C382 C 0.32180 0.15748 0.31103
 C383 C 0.31325 0.17882 0.32430
 C384 C 0.29567 0.19212 0.30936
 C385 C 0.28638 0.18421 0.28093
 C386 C 0.29523 0.16283 0.26765
 C387 C 0.33941 0.14346 0.32693
 C388 C 0.35394 0.13168 0.34059
 C389 C 0.37070 0.11784 0.35697
 C390 C 0.38480 0.10596 0.37128
 C391 C 0.40134 0.09170 0.38875
 C392 C 0.39584 0.08435 0.41898
 C393 C 0.41174 0.07037 0.43601
 C394 C 0.43342 0.06351 0.42299
 C395 C 0.43881 0.07102 0.39257
 C396 C 0.42287 0.08503 0.37558
 H397 H 0.31934 0.13308 0.27214
 H398 H 0.32000 0.18505 0.34634
 H399 H 0.28901 0.20832 0.32036
 H400 H 0.28864 0.15646 0.24561
 H401 H 0.37919 0.08934 0.42936
 H402 H 0.40692 0.06459 0.45918
 H403 H 0.45546 0.06629 0.38203
 H404 H 0.42733 0.09067 0.35221
 C405 C 0.32641 0.67683 -0.20857
 C406 C 0.32059 0.65661 -0.19036
 C407 C 0.29704 0.64967 -0.18706
 C408 C 0.27935 0.66291 -0.20181
 C409 C 0.28497 0.68332 -0.22008
 C410 C 0.30872 0.69013 -0.22334
 C411 C 0.33868 0.64309 -0.17470
 C412 C 0.35353 0.63161 -0.16122
 C413 C 0.37057 0.61800 -0.14502
 C414 C 0.38483 0.60625 -0.13084
 C415 C 0.40150 0.59208 -0.11347
 C416 C 0.42293 0.58534 -0.12682
 C417 C 0.43894 0.57131 -0.10995
 C418 C 0.43368 0.56385 -0.07946
 C419 C 0.41210 0.57080 -0.06626
 C420 C 0.39614 0.58480 -0.08316
 H421 H 0.34459 0.68234 -0.21131
 H422 H 0.29234 0.63411 -0.17292
 H423 H 0.26122 0.65742 -0.19848
 H424 H 0.31362 0.70558 -0.23754
 H425 H 0.42727 0.59091 -0.15026
 H426 H 0.45551 0.56651 -0.12063
 H427 H 0.40738 0.56507 -0.04303
 H428 H 0.37956 0.58983 -0.07264
 C429 C -0.17931 -0.18428 0.18458
 C430 C -0.17349 -0.16083 0.19396
 C431 C -0.18590 -0.15008 0.21819
 C432 C -0.20430 -0.16255 0.23275
 C433 C -0.21080 -0.18619 0.22332
 C434 C -0.19767 -0.19688 0.19907
 C435 C -0.15529 -0.14747 0.17809
 C436 C -0.14038 -0.13603 0.16452
 C437 C -0.12329 -0.12235 0.14832
 C438 C -0.10903 -0.11042 0.13422
 C439 C -0.09240 -0.09591 0.11707
 C440 C -0.08468 -0.07371 0.12897
 C441 C -0.06934 -0.05909 0.11171
 C442 C -0.06153 -0.06647 0.08228
 C443 C -0.06914 -0.08898 0.07072
 C444 C -0.08449 -0.10357 0.08800
 H445 H -0.16992 -0.19271 0.16561
 H446 H -0.18140 -0.13197 0.22583
 H447 H -0.21283 -0.15371 0.25203
 H448 H -0.20214 -0.21451 0.18993
 H449 H -0.09068 -0.06761 0.15145
 H450 H -0.06356 -0.04202 0.12142
 H451 H -0.06370 -0.09503 0.04799
 H452 H -0.09045 -0.12066 0.07851
 C453 C -0.18183 0.34697 0.71994
 C454 C -0.17308 0.33878 0.69154
 C455 C -0.18241 0.31779 0.67820
 C456 C -0.20060 0.30515 0.69303
 C457 C -0.20973 0.31341 0.72140
 C458 C -0.20003 0.33438 0.73480
 C459 C -0.15505 0.35234 0.67562
 C460 C -0.14024 0.36391 0.66202
 C461 C -0.12325 0.37770 0.64579
 C462 C -0.10905 0.38970 0.63168
 C463 C -0.09247 0.40427 0.61452
 C464 C -0.08459 0.39666 0.58542
 C465 C -0.06926 0.41129 0.56815
 C466 C -0.06164 0.43377 0.57976
 C467 C -0.06943 0.44111 0.60923
 C468 C -0.08475 0.42645 0.62647
 H469 H -0.17473 0.36320 0.73048
 H470 H -0.17585 0.31136 0.65615
 H471 H -0.20790 0.28926 0.68194
 H472 H -0.20650 0.34100 0.75680
 H473 H -0.09054 0.37958 0.57589
 H474 H -0.06382 0.40527 0.54539
 H475 H -0.06364 0.45816 0.61898
 H476 H -0.09073 0.43250 0.64898
 C477 C 0.31443 -0.15035 0.71870
 C478 C 0.32680 -0.16108 0.69442
 C479 C 0.32099 -0.18453 0.68504
 C480 C 0.30267 -0.19715 0.69959
 C481 C 0.28958 -0.18650 0.72390
 C482 C 0.29607 -0.16285 0.73332
 C483 C 0.34497 -0.14770 0.67852
 C484 C 0.35987 -0.13625 0.66493
 C485 C 0.37694 -0.12257 0.64869
 C486 C 0.39119 -0.11065 0.63457
 C487 C 0.40781 -0.09615 0.61738
 C488 C 0.41568 -0.10382 0.58830
 C489 C 0.43102 -0.08924 0.57098
 C490 C 0.43866 -0.06674 0.58252
 C491 C 0.43088 -0.05934 0.61197
 C492 C 0.41555 -0.07396 0.62926
 H493 H 0.31893 -0.13224 0.72634
 H494 H 0.33034 -0.19294 0.66604
 H495 H 0.29820 -0.21478 0.69043
 H496 H 0.28759 -0.15401 0.75263
 H497 H 0.40970 -0.12091 0.57882
 H498 H 0.43644 -0.09531 0.54824
 H499 H 0.43669 -0.04228 0.62167
 H500 H 0.40958 -0.06785 0.65175
 C501 C 0.31764 0.31809 0.17843
 C502 C 0.32694 0.33913 0.19171
 C503 C 0.31810 0.34740 0.22003
 C504 C 0.29987 0.33485 0.23487
 C505 C 0.29022 0.31383 0.22153
 C506 C 0.29942 0.30550 0.19324
 C507 C 0.34502 0.35263 0.17581
 C508 C 0.35986 0.36414 0.16221
 C509 C 0.37690 0.37785 0.14596
 C510 C 0.39115 0.38976 0.13181
 C511 C 0.40778 0.40424 0.11460
 C512 C 0.41556 0.42642 0.12644
 C513 C 0.43093 0.44099 0.10915
 C514 C 0.43870 0.43355 0.07972
 C515 C 0.43102 0.41105 0.06820
 C516 C 0.41564 0.39652 0.08553
 H517 H 0.32427 0.31160 0.15644
 H518 H 0.32518 0.36367 0.23053
 H519 H 0.29336 0.34153 0.25681
 H520 H 0.29216 0.28957 0.18219
 H521 H 0.40960 0.43256 0.14893
 H522 H 0.43676 0.45804 0.11882
 H523 H 0.43644 0.40496 0.04548
 H524 H 0.40964 0.37944 0.07608
 C525 C 0.18342 0.18080 0.17909
 C526 C 0.17396 0.15987 0.19273
 C527 C 0.18229 0.15193 0.22154
 C528 C 0.20020 0.16473 0.23651
 C529 C 0.21002 0.18564 0.22281
 C530 C 0.20131 0.19362 0.19402
 C531 C 0.15624 0.14615 0.17666
 C532 C 0.14172 0.13454 0.16279
 C533 C 0.12507 0.12081 0.14609
 C534 C 0.11118 0.10897 0.13144
 C535 C 0.09499 0.09469 0.11351
 C536 C 0.07365 0.08693 0.12641
 C537 C 0.05818 0.07272 0.10902
 C538 C 0.06386 0.06609 0.07845
 C539 C 0.08532 0.07409 0.06568
 C540 C 0.10075 0.08827 0.08311
 H541 H 0.17718 0.18703 0.15672
 H542 H 0.17508 0.13575 0.23231
 H543 H 0.20633 0.15831 0.25883
 H544 H 0.20872 0.20945 0.18269
 H545 H 0.06900 0.09183 0.14992
 H546 H 0.04168 0.06708 0.11938
 H547 H 0.09038 0.06900 0.04241
 H548 H 0.11727 0.09409 0.07293
 C549 C 0.18093 0.65266 0.71977
 C550 C 0.17265 0.66093 0.69109
 C551 C 0.18217 0.68199 0.67785
 C552 C 0.20010 0.69459 0.69302
 C553 C 0.20878 0.68624 0.72166
 C554 C 0.19887 0.66522 0.73499
 C555 C 0.15498 0.64736 0.67473
 C556 C 0.14052 0.63580 0.66069
 C557 C 0.12398 0.62206 0.64384
 C558 C 0.11018 0.61016 0.62912
 C559 C 0.09413 0.59576 0.61113
 C560 C 0.10004 0.58929 0.58079
 C561 C 0.08475 0.57495 0.56335
 C562 C 0.06331 0.56684 0.57604
 C563 C 0.05748 0.57352 0.60654
 C564 C 0.07280 0.58789 0.62395
 H565 H 0.17368 0.63638 0.73024
 H566 H 0.17598 0.68847 0.65557
 H567 H 0.20758 0.71051 0.68198
 H568 H 0.20498 0.65852 0.75718
 H569 H 0.11655 0.59519 0.57069
 H570 H 0.08992 0.56983 0.54013
 H571 H 0.04099 0.56780 0.61683
 H572 H 0.06804 0.59282 0.64741
 C573 C 0.68410 0.18048 0.67810
 C574 C 0.67434 0.15976 0.69191
 C575 C 0.68240 0.15199 0.72093
 C576 C 0.70034 0.16472 0.73593
 C577 C 0.71047 0.18539 0.72205
 C578 C 0.70203 0.19324 0.69306
 C579 C 0.65658 0.14610 0.67584
 C580 C 0.64202 0.13452 0.66200
 C581 C 0.62534 0.12081 0.64535
 C582 C 0.61142 0.10896 0.63076
 C583 C 0.59519 0.09466 0.61291
 C584 C 0.57388 0.08691 0.62592
 C585 C 0.55837 0.07265 0.60862
 C586 C 0.56399 0.06599 0.57805
 C587 C 0.58541 0.07399 0.56517
 C588 C 0.60088 0.08821 0.58250
 H589 H 0.67807 0.18660 0.65558
 H590 H 0.67495 0.13598 0.73184
 H591 H 0.70624 0.15843 0.75842
 H592 H 0.70966 0.20891 0.68163
 H593 H 0.56929 0.09183 0.64943
 H594 H 0.54191 0.06701 0.61906
 H595 H 0.59043 0.06887 0.54189
 H596 H 0.61737 0.09403 0.57224
 C597 C 0.68093 0.65284 0.21931
 C598 C 0.67275 0.66097 0.19051
 C599 C 0.68230 0.68198 0.17719
 C600 C 0.70014 0.69468 0.19241
 C601 C 0.70871 0.68647 0.22117
 C602 C 0.69878 0.66550 0.23457
 C603 C 0.65515 0.64732 0.17414
 C604 C 0.64075 0.63570 0.16008
 C605 C 0.62426 0.62189 0.14324
 C606 C 0.61051 0.60993 0.12852
 C607 C 0.59449 0.59546 0.11056
 C608 C 0.60045 0.58891 0.08027
 C609 C 0.58520 0.57451 0.06285
 C610 C 0.56374 0.56643 0.07552
 C611 C 0.55786 0.57319 0.10597
 C612 C 0.57315 0.58762 0.12336
 H613 H 0.67365 0.63659 0.22984
 H614 H 0.67619 0.68837 0.15483
 H615 H 0.70764 0.71057 0.18131
 H616 H 0.70481 0.65890 0.25686
 H617 H 0.61698 0.59479 0.07018
 H618 H 0.59041 0.56932 0.03967
 H619 H 0.54135 0.56749 0.11624
 H620 H 0.56835 0.59262 0.14678
   
