data_POSCAR
  _audit_creation_date              2014-09-24
  _audit_creation_method            'ToBaCCo'
  _symmetry_space_group_name_H-M    'P1'
  _symmetry_Int_Tables_number       1
  _symmetry_cell_setting            triclinic
  loop_
  _symmetry_equiv_pos_as_xyz
 x,y,z
_cell_length_a 40.6544
_cell_length_b 41.4902
_cell_length_c 43.7782
_cell_angle_alpha 89.920000
_cell_angle_beta 89.687700
_cell_angle_gamma 96.045800
loop_
  _atom_site_label
  _atom_site_type_symbol
  _atom_site_fract_x
  _atom_site_fract_y
  _atom_site_fract_z
C1 C -0.07691 0.31789 0.00323
 C2 C -0.05904 0.31974 0.03078
 C3 C -0.02474 0.31745 0.02948
 C4 C -0.00873 0.31077 0.00196
 C5 C -0.02808 0.30595 -0.02462
 C6 C -0.06197 0.31055 -0.02468
 C7 C 0.02813 0.30955 0.00086
 C8 C 0.04597 0.31560 -0.02666
 C9 C 0.08023 0.31437 -0.02796
 C10 C 0.09751 0.30921 -0.00116
 C11 C 0.08067 0.30311 0.02669
 C12 C 0.04596 0.30251 0.02727
 H13 H -0.10344 0.31850 0.00397
 H14 H -0.01041 0.32223 0.04999
 H15 H -0.01648 0.29980 -0.04572
 H16 H 0.03371 0.32163 -0.04742
 H17 H 0.12413 0.30930 -0.00228
 H18 H 0.03300 0.29577 0.04830
 C19 C 0.41002 0.81373 0.50065
 C20 C 0.42782 0.81701 0.52796
 C21 C 0.46247 0.81843 0.52713
 C22 C 0.47962 0.81436 0.49945
 C23 C 0.46074 0.80895 0.47260
 C24 C 0.42633 0.80964 0.47292
 C25 C 0.51677 0.81557 0.49855
 C26 C 0.53447 0.82151 0.47090
 C27 C 0.56891 0.82158 0.46969
 C28 C 0.58644 0.81820 0.49667
 C29 C 0.56978 0.81230 0.52459
 C30 C 0.53501 0.81024 0.52515
 H31 H 0.38327 0.81267 0.50113
 H32 H 0.47559 0.82287 0.54835
 H33 H 0.47233 0.80416 0.45107
 H34 H 0.52200 0.82610 0.44987
 H35 H 0.61315 0.81919 0.49561
 H36 H 0.52245 0.80343 0.54635
 C37 C 1.07372 0.67794 -0.00064
 C38 C 1.05825 0.68537 0.02688
 C39 C 1.02509 0.69204 0.02591
 C40 C 1.00653 0.68842 -0.00119
 C41 C 1.02316 0.68168 -0.02850
 C42 C 1.05748 0.67859 -0.02901
 C43 C 0.96996 0.69169 -0.00075
 C44 C 0.95314 0.69977 -0.02739
 C45 C 0.91868 0.70112 -0.02733
 C46 C 0.90114 0.69634 0.00032
 C47 C 0.91755 0.69041 0.02740
 C48 C 0.95139 0.68681 0.02654
 H49 H 1.09919 0.67285 0.00006
 H50 H 1.01338 0.69871 0.04677
 H51 H 1.00949 0.68005 -0.04946
 H52 H 0.96666 0.70588 -0.04826
 H53 H 0.87472 0.69787 0.00109
 H54 H 0.96268 0.68000 0.04754
 C55 C 0.58618 0.18286 0.50387
 C56 C 0.56771 0.17946 0.53093
 C57 C 0.53321 0.17858 0.52974
 C58 C 0.51680 0.18355 0.50201
 C59 C 0.53634 0.18878 0.47528
 C60 C 0.57082 0.18769 0.47585
 C61 C 0.47976 0.18381 0.50118
 C62 C 0.46198 0.17896 0.47361
 C63 C 0.42748 0.17943 0.47288
 C64 C 0.41010 0.18260 0.50023
 C65 C 0.42702 0.18748 0.52786
 C66 C 0.46165 0.18908 0.52804
 H67 H 0.61276 0.18263 0.50491
 H68 H 0.51966 0.17394 0.55084
 H69 H 0.52522 0.19475 0.45396
 H70 H 0.47442 0.17462 0.45238
 H71 H 0.38348 0.18294 0.49983
 H72 H 0.47401 0.19447 0.54947
 C73 C 0.70266 -0.08666 0.00053
 C74 C 0.70133 -0.07145 0.02923
 C75 C 0.70176 -0.03725 0.02936
 C76 C 0.70747 -0.01862 0.00233
 C77 C 0.71290 -0.03504 -0.02508
 C78 C 0.70924 -0.06890 -0.02642
 C79 C 0.70773 0.01775 0.00257
 C80 C 0.70137 0.03496 -0.02438
 C81 C 0.70213 0.06914 -0.02479
 C82 C 0.70531 0.08521 0.00356
 C83 C 0.71217 0.06901 0.03050
 C84 C 0.71439 0.03558 0.02960
 H85 H 0.69766 -0.11267 -0.00135
 H86 H 0.69850 -0.02489 0.05052
 H87 H 0.72034 -0.02177 -0.04564
 H88 H 0.69670 0.02163 -0.04518
 H89 H 0.70150 0.11052 0.00521
 H90 H 0.72180 0.02386 0.05011
 C91 C 0.21900 0.41057 0.49744
 C92 C 0.22086 0.42836 0.52470
 C93 C 0.21547 0.46123 0.52384
 C94 C 0.20543 0.47589 0.49679
 C95 C 0.20261 0.45683 0.46992
 C96 C 0.21089 0.42485 0.46991
 C97 C 0.19853 0.51089 0.49652
 C98 C 0.20004 0.52869 0.46894
 C99 C 0.19282 0.56099 0.46815
 C100 C 0.18511 0.57610 0.49543
 C101 C 0.18665 0.56035 0.52362
 C102 C 0.19170 0.52732 0.52385
 H103 H 0.22334 0.38526 0.49748
 H104 H 0.21985 0.47519 0.54446
 H105 H 0.19468 0.46663 0.44864
 H106 H 0.20804 0.51812 0.44802
 H107 H 0.17869 0.60077 0.49481
 H108 H 0.19106 0.51497 0.54554
 C109 C 0.29302 1.08403 0.00050
 C110 C 0.29729 1.06617 0.02707
 C111 C 0.29844 1.03263 0.02469
 C112 C 0.29196 1.01607 -0.00321
 C113 C 0.28569 1.03464 -0.02924
 C114 C 0.28803 1.06880 -0.02805
 C115 C 0.29264 0.97982 -0.00499
 C116 C 0.29743 0.96386 -0.03300
 C117 C 0.29991 0.93015 -0.03423
 C118 C 0.29968 0.91284 -0.00650
 C119 C 0.29392 0.92788 0.02128
 C120 C 0.28924 0.96077 0.02174
 H121 H 0.29161 1.10987 0.00238
 H122 H 0.30491 1.01991 0.04493
 H123 H 0.28053 1.02280 -0.05084
 H124 H 0.30084 0.97758 -0.05393
 H125 H 0.30120 0.88694 -0.00637
 H126 H 0.28330 0.97119 0.04341
 C127 C 0.80207 0.59433 0.50047
 C128 C 0.79842 0.57811 0.52849
 C129 C 0.79684 0.54421 0.52937
 C130 C 0.80100 0.52606 0.50259
 C131 C 0.80447 0.54319 0.47451
 C132 C 0.80397 0.57694 0.47332
 C133 C 0.80206 0.48980 0.50398
 C134 C 0.79798 0.47069 0.47733
 C135 C 0.80165 0.43749 0.47789
 C136 C 0.80726 0.42234 0.50564
 C137 C 0.80913 0.44008 0.53285
 C138 C 0.80757 0.47374 0.53180
 H139 H 0.80190 0.62043 0.49970
 H140 H 0.79252 0.53255 0.55128
 H141 H 0.80802 0.53100 0.45319
 H142 H 0.79218 0.48111 0.45569
 H143 H 0.80867 0.39640 0.50620
 H144 H 0.81114 0.48686 0.55299
 O145 O 0.24692 0.27227 0.21331
 O146 O 0.30071 0.24177 0.27190
 O147 O 0.28570 0.22684 0.21585
 O148 O 0.26324 0.28890 0.26976
 O149 O 0.22101 0.25579 0.28660
 O150 O 0.24333 0.19351 0.23214
 O151 O 0.25849 0.20880 0.28905
 O152 O 0.20472 0.23940 0.23062
 Cu153 Cu 0.27825 0.26094 0.24111
 Cu154 Cu 0.22772 0.22102 0.26133
 C155 C 0.21680 0.26057 0.21156
 C156 C 0.28870 0.22015 0.29060
 C157 C 0.26813 0.19973 0.21444
 C158 C 0.23869 0.28292 0.28772
 O159 O 0.69875 0.75145 0.27365
 O160 O 0.75273 0.71904 0.21619
 O161 O 0.73969 0.70664 0.27400
 O162 O 0.71294 0.76337 0.21653
 O163 O 0.75357 0.79986 0.23027
 O164 O 0.77988 0.74343 0.28812
 O165 O 0.79388 0.75479 0.23035
 O166 O 0.73961 0.78762 0.28764
 Cu167 Cu 0.72196 0.73137 0.24390
 Cu168 Cu 0.77089 0.77503 0.26040
 C169 C 0.70988 0.77503 0.29042
 C170 C 0.78237 0.73172 0.21311
 C171 C 0.76411 0.71552 0.29115
 C172 C 0.72890 0.79120 0.21337
 O173 O 0.80625 0.25886 0.23379
 O174 O 0.74546 0.22167 0.28978
 O175 O 0.76312 0.20768 0.23405
 O176 O 0.78939 0.27083 0.29002
 O177 O 0.75236 0.30120 0.27223
 O178 O 0.72591 0.23777 0.21616
 O179 O 0.70808 0.25151 0.27177
 O180 O 0.76848 0.28827 0.21576
 Cu181 Cu 0.77982 0.23669 0.26357
 Cu182 Cu 0.73497 0.27271 0.24221
 C183 C 0.79745 0.27951 0.21483
 C184 C 0.71661 0.23087 0.29081
 C185 C 0.74043 0.21213 0.21519
 C186 C 0.77488 0.29642 0.29124
 O187 O 0.27923 0.76121 0.20998
 O188 O 0.24776 0.69810 0.26480
 O189 O 0.23297 0.71395 0.20923
 O190 O 0.29377 0.74648 0.26640
 O191 O 0.25789 0.77833 0.28405
 O192 O 0.19702 0.74545 0.22747
 O193 O 0.21237 0.73029 0.28281
 O194 O 0.24354 0.79326 0.22765
 Cu195 Cu 0.26714 0.72678 0.23588
 Cu196 Cu 0.22421 0.76517 0.25724
 C197 C 0.26611 0.78762 0.20880
 C198 C 0.22499 0.70356 0.28346
 C199 C 0.20473 0.72443 0.20841
 C200 C 0.28587 0.76744 0.28550
 O201 O 0.75532 0.20201 0.77041
 O202 O 0.78765 0.26478 0.71485
 O203 O 0.80228 0.24970 0.77122
 O204 O 0.74198 0.21646 0.71392
 O205 O 0.70605 0.24859 0.73103
 O206 O 0.76600 0.28109 0.78898
 O207 O 0.75250 0.29730 0.73266
 O208 O 0.71944 0.23433 0.78716
 Cu209 Cu 0.77545 0.23008 0.74089
 Cu210 Cu 0.73247 0.26871 0.76148
 C211 C 0.73211 0.20768 0.78859
 C212 C 0.77526 0.29164 0.71404
 C213 C 0.79409 0.27035 0.79047
 C214 C 0.71380 0.22699 0.71254
 O215 O 0.28655 0.74585 0.72734
 O216 O 0.22503 0.70916 0.78257
 O217 O 0.24057 0.69688 0.72633
 O218 O 0.27047 0.75748 0.78399
 O219 O 0.23589 0.79076 0.76670
 O220 O 0.20440 0.72916 0.71038
 O221 O 0.18940 0.74213 0.76688
 O222 O 0.25022 0.77732 0.71012
 Cu223 Cu 0.25931 0.72413 0.75661
 Cu224 Cu 0.21637 0.76312 0.73696
 C225 C 0.27872 0.76744 0.70891
 C226 C 0.19687 0.71968 0.78453
 C227 C 0.21741 0.70269 0.70842
 C228 C 0.25816 0.78434 0.78534
 O229 O 0.26766 0.30056 0.73098
 O230 O 0.28472 0.24051 0.78906
 O231 O 0.30410 0.25290 0.73241
 O232 O 0.24924 0.28815 0.78743
 O233 O 0.20704 0.25523 0.77062
 O234 O 0.26190 0.22001 0.71559
 O235 O 0.24321 0.20682 0.77199
 O236 O 0.22591 0.26705 0.71414
 Cu237 Cu 0.28073 0.27379 0.76161
 Cu238 Cu 0.23024 0.23389 0.74157
 C239 C 0.24425 0.29371 0.71220
 C240 C 0.26653 0.21374 0.79081
 C241 C 0.29221 0.23108 0.71401
 C242 C 0.21886 0.27738 0.78871
 O243 O 0.74084 0.71129 0.72780
 O244 O 0.71446 0.77005 0.78319
 O245 O 0.69880 0.75441 0.72691
 O246 O 0.75545 0.72713 0.78433
 O247 O 0.79520 0.76330 0.76762
 O248 O 0.73840 0.79069 0.71013
 O249 O 0.75374 0.80671 0.76649
 O250 O 0.78002 0.74802 0.71103
 Cu251 Cu 0.72339 0.73701 0.75711
 Cu252 Cu 0.77081 0.78086 0.73716
 C253 C 0.76460 0.71983 0.70957
 C254 C 0.73009 0.79816 0.78481
 C255 C 0.70906 0.77687 0.70838
 C256 C 0.78473 0.74101 0.78628
 C257 C 0.29405 0.11616 0.11334
 C258 C 0.31170 0.13084 0.08834
 C259 C 0.31413 0.11414 0.06085
 C260 C 0.29864 0.08243 0.05746
 C261 C 0.28211 0.06727 0.08281
 C262 C 0.27995 0.08387 0.11042
 C263 C 0.28874 0.13516 0.14150
 C264 C 0.25827 0.13102 0.15723
 C265 C 0.25208 0.15103 0.18185
 C266 C 0.27605 0.17590 0.19108
 C267 C 0.30691 0.17932 0.17615
 C268 C 0.31326 0.15907 0.15181
 H269 H 0.32756 0.12638 0.04201
 H270 H 0.26966 0.04297 0.08099
 H271 H 0.22799 0.14793 0.19278
 H272 H 0.32602 0.19808 0.18295
 H273 H 0.26670 0.07157 0.12932
 H274 H 0.23860 0.11322 0.14974
 H275 H 0.32262 0.15574 0.08953
 H276 H 0.33726 0.16250 0.14076
 C277 C 0.78967 0.63439 0.60985
 C278 C 0.81749 0.64023 0.59056
 C279 C 0.82031 0.62183 0.56419
 C280 C 0.79577 0.59678 0.55689
 C281 C 0.76851 0.59010 0.57648
 C282 C 0.76532 0.60890 0.60258
 C283 C 0.78534 0.65572 0.63657
 C284 C 0.76922 0.64339 0.66332
 C285 C 0.76307 0.66405 0.68742
 C286 C 0.77344 0.69736 0.68550
 C287 C 0.79056 0.70952 0.65931
 C288 C 0.79618 0.68903 0.63504
 H289 H 0.84173 0.62706 0.54949
 H290 H 0.74922 0.57096 0.57108
 H291 H 0.74998 0.65402 0.70745
 H292 H 0.79850 0.73517 0.65704
 H293 H 0.74328 0.60402 0.61650
 H294 H 0.76113 0.61780 0.66561
 H295 H 0.83711 0.65909 0.59575
 H296 H 0.80804 0.69960 0.61465
 C297 C 0.70322 0.87254 0.11128
 C298 C 0.69240 0.90349 0.11219
 C299 C 0.69081 0.92174 0.08533
 C300 C 0.70071 0.90976 0.05676
 C301 C 0.71182 0.87848 0.05663
 C302 C 0.71264 0.86020 0.08326
 C303 C 0.70614 0.85316 0.13935
 C304 C 0.69278 0.82057 0.14025
 C305 C 0.69906 0.80085 0.16496
 C306 C 0.71932 0.81318 0.18906
 C307 C 0.73178 0.84613 0.18864
 C308 C 0.72501 0.86602 0.16409
 H309 H 0.68103 0.94483 0.08745
 H310 H 0.72176 0.86815 0.03638
 H311 H 0.68911 0.77559 0.16459
 H312 H 0.74734 0.85634 0.20696
 H313 H 0.72187 0.83666 0.08212
 H314 H 0.67811 0.81018 0.12142
 H315 H 0.68482 0.91340 0.13367
 H316 H 0.73577 0.89104 0.16373
 C317 C 0.23432 0.37734 0.60857
 C318 C 0.21502 0.40337 0.60824
 C319 C 0.21135 0.42053 0.58119
 C320 C 0.22743 0.41228 0.55414
 C321 C 0.24811 0.38715 0.55515
 C322 C 0.25117 0.36960 0.58202
 C323 C 0.23526 0.35681 0.63590
 C324 C 0.22276 0.32408 0.63440
 C325 C 0.22447 0.30396 0.65974
 C326 C 0.23937 0.31610 0.68684
 C327 C 0.25153 0.34905 0.68845
 C328 C 0.24911 0.36940 0.66321
 H329 H 0.19487 0.43939 0.58122
 H330 H 0.26158 0.38065 0.53507
 H331 H 0.21517 0.27861 0.65777
 H332 H 0.26316 0.35897 0.70908
 H333 H 0.26641 0.34970 0.58204
 H334 H 0.21185 0.31408 0.61348
 H335 H 0.20171 0.40948 0.62857
 H336 H 0.25883 0.39467 0.66467
 C337 C 0.88617 0.31706 0.11405
 C338 C 0.91609 0.30294 0.11199
 C339 C 0.93516 0.30564 0.08527
 C340 C 0.92437 0.32158 0.05925
 C341 C 0.89525 0.33710 0.06194
 C342 C 0.87680 0.33530 0.08903
 C343 C 0.86371 0.31068 0.14106
 C344 C 0.82914 0.30890 0.13749
 C345 C 0.80785 0.30022 0.16194
 C346 C 0.82042 0.29223 0.19040
 C347 C 0.85479 0.29450 0.19441
 C348 C 0.87622 0.30411 0.17015
 H349 H 0.95694 0.29272 0.08440
 H350 H 0.88673 0.35107 0.04321
 H351 H 0.78140 0.29826 0.15813
 H352 H 0.86507 0.28869 0.21627
 H353 H 0.85480 0.34783 0.09004
 H354 H 0.81825 0.31286 0.11550
 H355 H 0.92411 0.28824 0.13037
 H356 H 0.90257 0.30595 0.17421
 C357 C 0.37033 0.80717 0.61086
 C358 C 0.39696 0.78862 0.60597
 C359 C 0.41663 0.79314 0.57975
 C360 C 0.40987 0.81588 0.55753
 C361 C 0.38403 0.83515 0.56265
 C362 C 0.36469 0.83110 0.58919
 C363 C 0.34735 0.79996 0.63729
 C364 C 0.31330 0.80279 0.63430
 C365 C 0.29125 0.79340 0.65807
 C366 C 0.30257 0.78037 0.68518
 C367 C 0.33658 0.77821 0.68861
 C368 C 0.35876 0.78823 0.66508
 H369 H 0.43615 0.77766 0.57608
 H370 H 0.37851 0.85300 0.54587
 H371 H 0.26512 0.79509 0.65470
 H372 H 0.34601 0.76855 0.70943
 H373 H 0.34499 0.84640 0.59244
 H374 H 0.30334 0.81105 0.61316
 H375 H 0.40180 0.76954 0.62166
 H376 H 0.38482 0.78639 0.66860
 C377 C 0.11495 0.69296 0.10849
 C378 C 0.08954 0.71289 0.10375
 C379 C 0.07016 0.70972 0.07746
 C380 C 0.07612 0.68699 0.05467
 C381 C 0.10108 0.66648 0.06000
 C382 C 0.11991 0.66922 0.08660
 C383 C 0.13730 0.69812 0.13526
 C384 C 0.17109 0.69392 0.13243
 C385 C 0.19269 0.70110 0.15673
 C386 C 0.18115 0.71321 0.18423
 C387 C 0.14733 0.71667 0.18748
 C388 C 0.12557 0.70890 0.16336
 H389 H 0.05205 0.72675 0.07428
 H390 H 0.10561 0.64751 0.04406
 H391 H 0.21872 0.69853 0.15350
 H392 H 0.13776 0.72574 0.20857
 H393 H 0.13848 0.65268 0.08992
 H394 H 0.18124 0.68630 0.11104
 H395 H 0.08540 0.73193 0.11973
 H396 H 0.09963 0.71173 0.16665
 C397 C 0.62347 0.18851 0.61421
 C398 C 0.59728 0.20747 0.60900
 C399 C 0.57808 0.20315 0.58268
 C400 C 0.58490 0.18018 0.56069
 C401 C 0.61024 0.16046 0.56616
 C402 C 0.62909 0.16432 0.59280
 C403 C 0.64607 0.19557 0.64066
 C404 C 0.68008 0.19229 0.63783
 C405 C 0.70182 0.20145 0.66163
 C406 C 0.69025 0.21470 0.68862
 C407 C 0.65628 0.21738 0.69187
 C408 C 0.63439 0.20759 0.66830
 H409 H 0.55896 0.21897 0.57873
 H410 H 0.61578 0.14244 0.54955
 H411 H 0.72794 0.19934 0.65841
 H412 H 0.64665 0.22719 0.71260
 H413 H 0.64845 0.14872 0.59631
 H414 H 0.69025 0.18380 0.61679
 H415 H 0.59247 0.22674 0.62449
 H416 H 0.60833 0.20979 0.67169
 C417 C 0.70337 0.12341 0.89193
 C418 C 0.69105 0.09060 0.89220
 C419 C 0.68954 0.07280 0.91953
 C420 C 0.70110 0.08722 0.94739
 C421 C 0.71354 0.12044 0.94634
 C422 C 0.71428 0.13815 0.91926
 C423 C 0.70631 0.14252 0.86331
 C424 C 0.69437 0.17300 0.86220
 C425 C 0.70132 0.19341 0.83711
 C426 C 0.72083 0.18396 0.81276
 C427 C 0.73154 0.15281 0.81324
 C428 C 0.72412 0.13215 0.83824
 H429 H 0.67856 0.04800 0.91836
 H430 H 0.72464 0.13301 0.96593
 H431 H 0.69267 0.21721 0.83748
 H432 H 0.74653 0.14481 0.79478
 H433 H 0.72462 0.16331 0.91946
 H434 H 0.68049 0.18143 0.88126
 H435 H 0.68225 0.07882 0.87129
 H436 H 0.73376 0.10879 0.83874
 C437 C 0.19914 0.61690 0.38503
 C438 C 0.18698 0.58397 0.38432
 C439 C 0.18483 0.56564 0.41127
 C440 C 0.19528 0.57989 0.43921
 C441 C 0.20824 0.61268 0.43950
 C442 C 0.20985 0.63101 0.41279
 C443 C 0.20152 0.63684 0.35704
 C444 C 0.18944 0.66729 0.35707
 C445 C 0.19556 0.68829 0.33233
 C446 C 0.21428 0.67938 0.30725
 C447 C 0.22501 0.64825 0.30658
 C448 C 0.21847 0.62704 0.33124
 H449 H 0.17455 0.54051 0.41031
 H450 H 0.21751 0.62421 0.46037
 H451 H 0.18692 0.71207 0.33352
 H452 H 0.23938 0.64069 0.28748
 H453 H 0.22001 0.65620 0.41371
 H454 H 0.17608 0.67518 0.37670
 H455 H 0.17866 0.57266 0.36305
 H456 H 0.22811 0.60367 0.33085
 C457 C 0.29378 0.87460 0.88391
 C458 C 0.31409 0.86658 0.90809
 C459 C 0.31703 0.88534 0.93459
 C460 C 0.30067 0.91352 0.93750
 C461 C 0.28275 0.92312 0.91214
 C462 C 0.27884 0.90365 0.88604
 C463 C 0.28663 0.85180 0.85768
 C464 C 0.27813 0.86305 0.82864
 C465 C 0.26899 0.84123 0.80501
 C466 C 0.26910 0.80775 0.80956
 C467 C 0.27853 0.79647 0.83806
 C468 C 0.28669 0.81811 0.86191
 H469 H 0.33257 0.87780 0.95270
 H470 H 0.26926 0.94424 0.91325
 H471 H 0.26202 0.85052 0.78311
 H472 H 0.27837 0.77072 0.84228
 H473 H 0.26267 0.91072 0.86826
 H474 H 0.27841 0.88869 0.82405
 H475 H 0.32747 0.84540 0.90691
 H476 H 0.29203 0.80809 0.88394
 C477 C 0.79564 0.38212 0.39485
 C478 C 0.82324 0.38208 0.41413
 C479 C 0.82499 0.39988 0.44121
 C480 C 0.79953 0.41856 0.44931
 C481 C 0.77229 0.41929 0.42990
 C482 C 0.77023 0.40105 0.40305
 C483 C 0.79271 0.36143 0.36706
 C484 C 0.77693 0.37143 0.34066
 C485 C 0.77194 0.35075 0.31554
 C486 C 0.78309 0.31985 0.31612
 C487 C 0.79999 0.31037 0.34196
 C488 C 0.80452 0.33078 0.36720
 H489 H 0.84644 0.39938 0.45571
 H490 H 0.75228 0.43344 0.43588
 H491 H 0.75896 0.35875 0.29585
 H492 H 0.80857 0.28656 0.34324
 H493 H 0.74831 0.40121 0.38915
 H494 H 0.76812 0.39513 0.33950
 H495 H 0.84360 0.36836 0.40828
 H496 H 0.81622 0.32194 0.38725
 C497 C 0.13497 0.31152 0.88800
 C498 C 0.10501 0.29171 0.89241
 C499 C 0.08647 0.29396 0.91910
 C500 C 0.09768 0.31563 0.94227
 C501 C 0.12695 0.33619 0.93769
 C502 C 0.14520 0.33445 0.91067
 C503 C 0.15649 0.30643 0.86108
 C504 C 0.19117 0.31023 0.86389
 C505 C 0.21139 0.30223 0.83977
 C506 C 0.19747 0.28963 0.81247
 C507 C 0.16299 0.28672 0.80913
 C508 C 0.14273 0.29541 0.83302
 H509 H 0.06415 0.27757 0.92234
 H510 H 0.13590 0.35325 0.95523
 H511 H 0.23792 0.30444 0.84306
 H512 H 0.15165 0.27735 0.78817
 H513 H 0.16765 0.35068 0.90785
 H514 H 0.20282 0.31799 0.88518
 H515 H 0.09652 0.27331 0.87593
 H516 H 0.11624 0.29293 0.82964
 C517 C 0.62458 0.81359 0.38691
 C518 C 0.59467 0.79391 0.39205
 C519 C 0.57567 0.79800 0.41812
 C520 C 0.58635 0.82142 0.43997
 C521 C 0.61551 0.84189 0.43454
 C522 C 0.63424 0.83828 0.40810
 C523 C 0.64654 0.80671 0.36082
 C524 C 0.68119 0.81107 0.36390
 C525 C 0.70178 0.80185 0.34053
 C526 C 0.68822 0.78741 0.31383
 C527 C 0.65376 0.78371 0.31030
 C528 C 0.63316 0.79363 0.33334
 H529 H 0.55351 0.78159 0.42208
 H530 H 0.62410 0.86023 0.45108
 H531 H 0.72831 0.80478 0.34389
 H532 H 0.64272 0.77302 0.28972
 H533 H 0.65665 0.85442 0.40463
 H534 H 0.69253 0.82044 0.38482
 H535 H 0.58661 0.77423 0.37675
 H536 H 0.60671 0.79063 0.32971
 C537 C 0.86519 0.71728 0.89021
 C538 C 0.89315 0.70021 0.88913
 C539 C 0.91073 0.69520 0.91581
 C540 C 0.90100 0.70772 0.94397
 C541 C 0.87358 0.72579 0.94460
 C542 C 0.85570 0.73021 0.91808
 C543 C 0.84530 0.72115 0.86257
 C544 C 0.86001 0.73490 0.83585
 C545 C 0.84048 0.74075 0.81060
 C546 C 0.80608 0.73225 0.81152
 C547 C 0.79170 0.71731 0.83791
 C548 C 0.81109 0.71210 0.86328
 H549 H 0.93140 0.68081 0.91449
 H550 H 0.86587 0.73659 0.96559
 H551 H 0.85218 0.75230 0.79055
 H552 H 0.76525 0.71069 0.83937
 H553 H 0.83445 0.74389 0.91928
 H554 H 0.88639 0.74210 0.83492
 H555 H 0.90076 0.68993 0.86783
 H556 H 0.79933 0.70125 0.88363
 C557 C 0.37202 0.18624 0.39009
 C558 C 0.36180 0.16250 0.41220
 C559 C 0.38031 0.15947 0.43871
 C560 C 0.40981 0.17958 0.44339
 C561 C 0.42090 0.20220 0.42078
 C562 C 0.40213 0.20570 0.39458
 C563 C 0.35058 0.19213 0.36348
 C564 C 0.36453 0.20357 0.33547
 C565 C 0.34443 0.21218 0.31161
 C566 C 0.30988 0.20886 0.31490
 C567 C 0.29577 0.19614 0.34227
 C568 C 0.31587 0.18817 0.36637
 H569 H 0.37138 0.14171 0.45580
 H570 H 0.44333 0.21833 0.42410
 H571 H 0.35594 0.22160 0.29061
 H572 H 0.26919 0.19356 0.34551
 H573 H 0.41062 0.22468 0.37855
 H574 H 0.39105 0.20622 0.33200
 H575 H 0.33922 0.14653 0.40930
 H576 H 0.30408 0.18005 0.38765
 C577 C 0.71443 0.87901 0.88901
 C578 C 0.72730 0.86713 0.91592
 C579 C 0.72651 0.88453 0.94306
 C580 C 0.71218 0.91393 0.94403
 C581 C 0.69982 0.92610 0.91682
 C582 C 0.70122 0.90888 0.88946
 C583 C 0.71477 0.85977 0.86076
 C584 C 0.73054 0.87292 0.83430
 C585 C 0.73444 0.85321 0.80891
 C586 C 0.72206 0.82026 0.80950
 C587 C 0.70462 0.80773 0.83544
 C588 C 0.70128 0.82724 0.86093
 H589 H 0.73710 0.87487 0.96332
 H590 H 0.68832 0.94847 0.91681
 H591 H 0.74794 0.86349 0.78920
 H592 H 0.69493 0.78242 0.83663
 H593 H 0.69117 0.91840 0.86886
 H594 H 0.74116 0.89798 0.83383
 H595 H 0.73814 0.84436 0.91586
 H596 H 0.68885 0.81676 0.88112
 C597 C 0.21856 0.37021 0.38713
 C598 C 0.24501 0.37461 0.40770
 C599 C 0.24226 0.39239 0.43443
 C600 C 0.21317 0.40656 0.44105
 C601 C 0.18682 0.40273 0.42030
 C602 C 0.18936 0.38434 0.39367
 C603 C 0.22164 0.35013 0.35946
 C604 C 0.25030 0.35475 0.34126
 C605 C 0.25513 0.33370 0.31715
 C606 C 0.23157 0.30727 0.31094
 C607 C 0.20233 0.30330 0.32851
 C608 C 0.19731 0.32469 0.35242
 H609 H 0.26298 0.39519 0.45001
 H610 H 0.16414 0.41339 0.42500
 H611 H 0.27790 0.33748 0.30408
 H612 H 0.18367 0.28323 0.32423
 H613 H 0.16866 0.38130 0.37810
 H614 H 0.26932 0.37435 0.34610
 H615 H 0.26764 0.36371 0.40338
 H616 H 0.17509 0.32051 0.36624
 C617 C 0.28165 0.12736 0.89262
 C618 C 0.26303 0.09684 0.89483
 C619 C 0.26558 0.07707 0.92050
 C620 C 0.28594 0.08779 0.94524
 C621 C 0.30476 0.11822 0.94269
 C622 C 0.30311 0.13731 0.91666
 C623 C 0.27831 0.14923 0.86592
 C624 C 0.28311 0.18313 0.86959
 C625 C 0.28033 0.20383 0.84486
 C626 C 0.27158 0.19130 0.81600
 C627 C 0.26618 0.15762 0.81209
 C628 C 0.27001 0.13675 0.83669
 H629 H 0.25004 0.05425 0.92152
 H630 H 0.32202 0.12694 0.96032
 H631 H 0.28392 0.22978 0.84853
 H632 H 0.25940 0.14748 0.78993
 H633 H 0.31903 0.15988 0.91546
 H634 H 0.28837 0.19395 0.89173
 H635 H 0.24573 0.08842 0.87715
 H636 H 0.26666 0.11090 0.83266
 C637 C 0.79523 0.63108 0.39036
 C638 C 0.77354 0.60308 0.39673
 C639 C 0.77755 0.58459 0.42291
 C640 C 0.80290 0.59397 0.44367
 C641 C 0.82515 0.62130 0.43714
 C642 C 0.82164 0.63940 0.41058
 C643 C 0.78917 0.65242 0.36385
 C644 C 0.79713 0.68623 0.36570
 C645 C 0.78985 0.70649 0.34169
 C646 C 0.77376 0.69361 0.31544
 C647 C 0.76602 0.65993 0.31326
 C648 C 0.77399 0.63953 0.33701
 H649 H 0.75985 0.56380 0.42774
 H650 H 0.84499 0.62885 0.45282
 H651 H 0.79581 0.73242 0.34413
 H652 H 0.75387 0.64934 0.29314
 H653 H 0.83943 0.66019 0.40619
 H654 H 0.80806 0.69734 0.38611
 H655 H 0.75255 0.59606 0.38222
 H656 H 0.76811 0.61365 0.33429
 C657 C 0.11236 0.68276 0.88726
 C658 C 0.07845 0.67229 0.88725
 C659 C 0.06043 0.66967 0.91470
 C660 C 0.07577 0.67814 0.94301
 C661 C 0.11014 0.68838 0.94234
 C662 C 0.12801 0.69033 0.91507
 C663 C 0.13156 0.68784 0.85852
 C664 C 0.16295 0.67685 0.85605
 C665 C 0.18352 0.68597 0.83121
 C666 C 0.17324 0.70657 0.80845
 C667 C 0.14114 0.71623 0.81013
 C668 C 0.12040 0.70679 0.83491
 H669 H 0.03466 0.66040 0.91329
 H670 H 0.12353 0.69712 0.96243
 H671 H 0.20802 0.67796 0.83055
 H672 H 0.13246 0.73197 0.79287
 H673 H 0.15402 0.69928 0.91562
 H674 H 0.17199 0.66202 0.87391
 H675 H 0.06591 0.66602 0.86597
 H676 H 0.09636 0.71574 0.83644
 C677 C 0.63044 0.20004 0.39396
 C678 C 0.59847 0.18362 0.39283
 C679 C 0.57903 0.17966 0.41934
 C680 C 0.59103 0.19248 0.44739
 C681 C 0.62282 0.20953 0.44817
 C682 C 0.64236 0.21301 0.42184
 C683 C 0.65136 0.20434 0.36619
 C684 C 0.68459 0.19797 0.36709
 C685 C 0.70536 0.20497 0.34190
 C686 C 0.69342 0.21895 0.31547
 C687 C 0.65984 0.22420 0.31418
 C688 C 0.63893 0.21672 0.33924
 H689 H 0.55485 0.16607 0.41795
 H690 H 0.63257 0.22053 0.46910
 H691 H 0.73112 0.20074 0.34365
 H692 H 0.64995 0.23492 0.29409
 H693 H 0.66669 0.22636 0.42314
 H694 H 0.69463 0.18814 0.38756
 H695 H 0.58879 0.17337 0.37156
 H696 H 0.61342 0.22193 0.33807
 C697 C 0.88011 0.29965 0.89416
 C698 C 0.90702 0.28148 0.89855
 C699 C 0.92644 0.28545 0.92481
 C700 C 0.91913 0.30719 0.94806
 C701 C 0.89217 0.32546 0.94344
 C702 C 0.87331 0.32203 0.91682
 C703 C 0.85856 0.29444 0.86667
 C704 C 0.82448 0.29771 0.86863
 C705 C 0.80392 0.29126 0.84342
 C706 C 0.81671 0.28071 0.81577
 C707 C 0.85074 0.27788 0.81347
 C708 C 0.87149 0.28503 0.83850
 H709 H 0.94600 0.26990 0.92745
 H710 H 0.88620 0.34347 0.95985
 H711 H 0.77769 0.29322 0.84598
 H712 H 0.86127 0.26994 0.79235
 H713 H 0.85349 0.33725 0.91399
 H714 H 0.81330 0.30418 0.88993
 H715 H 0.91262 0.26334 0.88212
 H716 H 0.89766 0.28297 0.83575
 C717 C 0.37037 0.79734 0.38979
 C718 C 0.39295 0.77528 0.39781
 C719 C 0.41138 0.77946 0.42464
 C720 C 0.40728 0.80547 0.44424
 C721 C 0.38492 0.82759 0.43633
 C722 C 0.36687 0.82374 0.40928
 C723 C 0.34968 0.79208 0.36190
 C724 C 0.31677 0.79969 0.36196
 C725 C 0.29659 0.79295 0.33658
 C726 C 0.30862 0.77800 0.31065
 C727 C 0.34169 0.77107 0.31017
 C728 C 0.36207 0.77825 0.33543
 H729 H 0.42830 0.76194 0.43045
 H730 H 0.38170 0.84807 0.45096
 H731 H 0.27110 0.79829 0.33779
 H732 H 0.35169 0.75969 0.29043
 H733 H 0.35026 0.84157 0.40360
 H734 H 0.30610 0.80979 0.38204
 H735 H 0.39585 0.75431 0.38377
 H736 H 0.38747 0.77270 0.33428
 C737 C 0.28903 0.87287 0.10483
 C738 C 0.26360 0.89188 0.09707
 C739 C 0.26531 0.90992 0.07005
 C740 C 0.29223 0.90901 0.05002
 C741 C 0.31769 0.89017 0.05765
 C742 C 0.31625 0.87248 0.08488
 C743 C 0.28634 0.85246 0.13288
 C744 C 0.29747 0.82149 0.13275
 C745 C 0.29243 0.80113 0.15812
 C746 C 0.27574 0.81105 0.18407
 C747 C 0.26566 0.84238 0.18474
 C748 C 0.27112 0.86296 0.15950
 H749 H 0.24524 0.92408 0.06446
 H750 H 0.33890 0.88947 0.04266
 H751 H 0.30023 0.77700 0.15680
 H752 H 0.25291 0.85075 0.20452
 H753 H 0.33655 0.85860 0.09034
 H754 H 0.30883 0.81234 0.11257
 H755 H 0.24192 0.89223 0.11147
 H756 H 0.26292 0.88692 0.16068
 C757 C 0.80603 0.38394 0.61584
 C758 C 0.78436 0.40788 0.61141
 C759 C 0.78664 0.42725 0.58517
 C760 C 0.81022 0.42285 0.56246
 C761 C 0.83258 0.39978 0.56715
 C762 C 0.83075 0.38078 0.59368
 C763 C 0.80134 0.36109 0.64233
 C764 C 0.80768 0.32851 0.63920
 C765 C 0.80057 0.30635 0.66303
 C766 C 0.78637 0.31599 0.69039
 C767 C 0.78083 0.34861 0.69398
 C768 C 0.78856 0.37096 0.67037
 H769 H 0.76882 0.44460 0.58188
 H770 H 0.85115 0.39611 0.55002
 H771 H 0.80484 0.28128 0.65950
 H772 H 0.77017 0.35679 0.71495
 H773 H 0.84843 0.36326 0.59652
 H774 H 0.81689 0.31967 0.61790
 H775 H 0.76460 0.41077 0.62749
 H776 H 0.78407 0.39592 0.67404
 C777 C 0.72201 0.12498 0.11329
 C778 C 0.73516 0.13788 0.08568
 C779 C 0.73300 0.11927 0.05916
 C780 C 0.71702 0.08751 0.05951
 C781 C 0.70461 0.07430 0.08743
 C782 C 0.70732 0.09284 0.11417
 C783 C 0.72342 0.14556 0.14080
 C784 C 0.73796 0.13567 0.16774
 C785 C 0.74256 0.15692 0.19250
 C786 C 0.73210 0.18813 0.19082
 C787 C 0.71601 0.19726 0.16436
 C788 C 0.71198 0.17627 0.13949
 H789 H 0.74368 0.12991 0.03829
 H790 H 0.69194 0.05002 0.08845
 H791 H 0.75497 0.14924 0.21266
 H792 H 0.70781 0.22117 0.16234
 H793 H 0.69706 0.08248 0.13533
 H794 H 0.74701 0.11207 0.16913
 H795 H 0.74717 0.16244 0.08467
 H796 H 0.70047 0.18424 0.11894
 C797 C 0.18878 0.61687 0.60661
 C798 C 0.20170 0.63038 0.57921
 C799 C 0.20081 0.61196 0.55262
 C800 C 0.18621 0.57961 0.55242
 C801 C 0.17298 0.56610 0.57999
 C802 C 0.17457 0.58451 0.60693
 C803 C 0.19164 0.63673 0.63470
 C804 C 0.20805 0.62623 0.66040
 C805 C 0.21559 0.64732 0.68492
 C806 C 0.20637 0.67907 0.68430
 C807 C 0.18831 0.68881 0.65926
 C808 C 0.18127 0.66795 0.63461
 H809 H 0.21245 0.62302 0.53234
 H810 H 0.16134 0.54143 0.58079
 H811 H 0.22940 0.63908 0.70398
 H812 H 0.18086 0.71308 0.65808
 H813 H 0.16449 0.57363 0.62794
 H814 H 0.21650 0.60233 0.66082
 H815 H 0.21342 0.65507 0.57856
 H816 H 0.16855 0.67650 0.61499
 C817 C 0.86337 0.69762 0.11135
 C818 C 0.85233 0.67428 0.08927
 C819 C 0.87022 0.67128 0.06219
 C820 C 0.89994 0.69092 0.05700
 C821 C 0.91181 0.71317 0.07946
 C822 C 0.89361 0.71674 0.10615
 C823 C 0.84265 0.70352 0.13867
 C824 C 0.85727 0.71513 0.16620
 C825 C 0.83774 0.72387 0.19063
 C826 C 0.80315 0.72033 0.18843
 C827 C 0.78841 0.70740 0.16159
 C828 C 0.80788 0.69944 0.13690
 H829 H 0.86074 0.65384 0.04517
 H830 H 0.93450 0.72887 0.07570
 H831 H 0.84970 0.73350 0.21122
 H832 H 0.76175 0.70473 0.15919
 H833 H 0.90273 0.73547 0.12206
 H834 H 0.88386 0.71785 0.16887
 H835 H 0.82965 0.65853 0.09265
 H836 H 0.79553 0.69127 0.11604
 C837 C 0.37245 0.19978 0.61088
 C838 C 0.36399 0.17302 0.59169
 C839 C 0.38165 0.16914 0.56470
 C840 C 0.40849 0.19160 0.55654
 C841 C 0.41747 0.21798 0.57586
 C842 C 0.39951 0.22217 0.60262
 C843 C 0.35236 0.20511 0.63864
 C844 C 0.36713 0.21968 0.66492
 C845 C 0.34776 0.22717 0.68992
 C846 C 0.31325 0.21982 0.68939
 C847 C 0.29862 0.20401 0.66373
 C848 C 0.31788 0.19696 0.63860
 H849 H 0.37456 0.14838 0.55030
 H850 H 0.43792 0.23578 0.56987
 H851 H 0.35975 0.23921 0.70945
 H852 H 0.27204 0.19832 0.66249
 H853 H 0.40637 0.24342 0.61641
 H854 H 0.39366 0.22566 0.66608
 H855 H 0.34377 0.15494 0.59754
 H856 H 0.30548 0.18625 0.61867
 C857 C 0.13684 0.28802 0.10800
 C858 C 0.10808 0.30394 0.10979
 C859 C 0.08969 0.30864 0.08350
 C860 C 0.09941 0.29707 0.05496
 C861 C 0.12777 0.28036 0.05353
 C862 C 0.14640 0.27616 0.07967
 C863 C 0.15692 0.28350 0.13551
 C864 C 0.19141 0.29098 0.13457
 C865 C 0.21073 0.28482 0.15980
 C866 C 0.19598 0.27054 0.18632
 C867 C 0.16136 0.26376 0.18751
 C868 C 0.14198 0.27046 0.16243
 H869 H 0.06827 0.32198 0.08545
 H870 H 0.13557 0.27030 0.03221
 H871 H 0.23733 0.29018 0.15813
 H872 H 0.14930 0.25278 0.20766
 H873 H 0.16814 0.26326 0.07783
 H874 H 0.20345 0.30131 0.11413
 H875 H 0.10029 0.31338 0.13140
 H876 H 0.11544 0.26438 0.16365
 C877 C 0.62650 0.80043 0.60600
 C878 C 0.59723 0.81551 0.60759
 C879 C 0.57866 0.81924 0.58124
 C880 C 0.58876 0.80744 0.55292
 C881 C 0.61762 0.79149 0.55175
 C882 C 0.63643 0.78833 0.57792
 C883 C 0.64690 0.79715 0.63341
 C884 C 0.68100 0.80691 0.63238
 C885 C 0.70094 0.80161 0.65735
 C886 C 0.68723 0.78592 0.68364
 C887 C 0.65293 0.77691 0.68497
 C888 C 0.63287 0.78278 0.66014
 H889 H 0.55680 0.83196 0.58294
 H890 H 0.62568 0.78124 0.53061
 H891 H 0.72730 0.80870 0.65561
 H892 H 0.64171 0.76482 0.70497
 H893 H 0.65863 0.77609 0.57632
 H894 H 0.69226 0.81824 0.61202
 H895 H 0.58921 0.82507 0.62908
 H896 H 0.60661 0.77498 0.66133
   
