data_POSCAR
  _audit_creation_date              2014-09-24
  _audit_creation_method            'ToBaCCo'
  _symmetry_space_group_name_H-M    'P1'
  _symmetry_Int_Tables_number       1
  _symmetry_cell_setting            triclinic
  loop_
  _symmetry_equiv_pos_as_xyz
 x,y,z
_cell_length_a 35.4470
_cell_length_b 39.5442
_cell_length_c 41.7997
_cell_angle_alpha 90.668700
_cell_angle_beta 88.740300
_cell_angle_gamma 96.268600
loop_
  _atom_site_label
  _atom_site_type_symbol
  _atom_site_fract_x
  _atom_site_fract_y
  _atom_site_fract_z
N1 N 0.60842 0.69049 0.60653
 N2 N 0.59081 0.68217 0.63378
 C3 C 0.55697 0.69471 0.63465
 C4 C 0.55317 0.71133 0.60617
 C5 C 0.58628 0.70823 0.58889
 H6 H 0.53624 0.69103 0.65402
 H7 H 0.59363 0.71791 0.56520
 Cu8 Cu 0.61293 0.65384 0.66449
 Cu9 Cu 0.65856 0.67699 0.59643
 Cu10 Cu 0.66748 0.59865 0.62955
 N11 N 0.62894 0.61593 0.68773
 N12 N 0.64757 0.59283 0.67338
 C13 C 0.65143 0.56768 0.69414
 C14 C 0.63538 0.57621 0.72324
 C15 C 0.62154 0.60703 0.71836
 H16 H 0.66599 0.54556 0.68875
 H17 H 0.60626 0.62138 0.73552
 N18 N 0.69892 0.61727 0.59257
 N19 N 0.69699 0.64826 0.58172
 C20 C 0.72575 0.65637 0.56082
 C21 C 0.74650 0.62898 0.55785
 C22 C 0.72880 0.60448 0.57814
 H23 H 0.73184 0.68081 0.54938
 H24 H 0.73877 0.58044 0.58395
 H25 H 0.63247 0.63243 0.61231
 H26 H 0.67349 0.64983 0.63713
 N27 N 0.89178 0.31754 0.10313
 N28 N 0.90856 0.33149 0.12856
 C29 C 0.94224 0.31912 0.13177
 C30 C 0.94686 0.29678 0.10656
 C31 C 0.91442 0.29651 0.08882
 H32 H 0.96203 0.32614 0.15067
 H33 H 0.90724 0.28138 0.06764
 Cu34 Cu 0.88413 0.36447 0.15454
 Cu35 Cu 0.84028 0.32519 0.09234
 Cu36 Cu 0.81475 0.40221 0.12053
 N37 N 0.86029 0.40057 0.17650
 N38 N 0.83190 0.41405 0.16366
 C39 C 0.81906 0.43670 0.18435
 C40 C 0.84089 0.43773 0.21135
 C41 C 0.86695 0.41470 0.20560
 H42 H 0.79575 0.45144 0.17998
 H43 H 0.88829 0.40804 0.22178
 N44 N 0.78984 0.37734 0.08418
 N45 N 0.79775 0.34671 0.07530
 C46 C 0.77327 0.33437 0.05282
 C47 C 0.74929 0.35865 0.04685
 C48 C 0.76053 0.38569 0.06697
 H49 H 0.77300 0.30961 0.04151
 H50 H 0.74714 0.40885 0.07003
 H51 H 0.85752 0.37427 0.10252
 H52 H 0.82131 0.35355 0.13123
 N53 N 0.38673 0.16599 -0.14242
 N54 N 0.39156 0.15041 -0.16995
 C55 C 0.41105 0.17246 -0.19030
 C56 C 0.41903 0.20320 -0.17443
 C57 C 0.40301 0.19823 -0.14422
 H58 H 0.42133 0.16600 -0.21389
 H59 H 0.40522 0.21608 -0.12438
 Cu60 Cu 0.37806 0.10143 -0.17422
 Cu61 Cu 0.36555 0.14220 -0.10461
 Cu62 Cu 0.33210 0.05736 -0.11407
 N63 N 0.36409 0.05246 -0.17740
 N64 N 0.34805 0.03517 -0.15306
 C65 C 0.34331 0.00188 -0.16081
 C66 C 0.35674 -0.00180 -0.19174
 C67 C 0.36968 0.03070 -0.20165
 H68 H 0.33051 -0.01809 -0.14531
 H69 H 0.38274 0.03777 -0.22458
 N70 N 0.32541 0.08284 -0.07397
 N71 N 0.33630 0.11572 -0.07103
 C72 C 0.32524 0.12647 -0.04196
 C73 C 0.30742 0.09885 -0.02569
 C74 C 0.30817 0.07156 -0.04647
 H75 H 0.33022 0.15232 -0.03305
 H76 H 0.29618 0.04565 -0.04212
 H77 H 0.37782 0.09305 -0.11648
 H78 H 0.33238 0.10701 -0.13057
 N79 N 0.09410 0.83359 0.36971
 N80 N 0.08065 0.84469 0.34318
 C81 C 0.06162 0.81840 0.32754
 C82 C 0.06246 0.78950 0.34574
 C83 C 0.08311 0.80006 0.37245
 H84 H 0.04719 0.82035 0.30521
 H85 H 0.09014 0.78455 0.39215
 Cu86 Cu 0.08631 0.89302 0.33356
 Cu87 Cu 0.12554 0.86360 0.39817
 Cu88 Cu 0.16401 0.93833 0.36144
 N89 N 0.09845 0.94073 0.32280
 N90 N 0.13009 0.95783 0.33254
 C91 C 0.13358 0.98910 0.31976
 C92 C 0.10194 0.99196 0.30173
 C93 C 0.08010 0.96090 0.30418
 H94 H 0.15710 1.00843 0.32368
 H95 H 0.05353 0.95330 0.29253
 N96 N 0.18457 0.92070 0.40054
 N97 N 0.16992 0.89237 0.41457
 C98 C 0.18992 0.88752 0.44083
 C99 C 0.21796 0.91446 0.44369
 C100 C 0.21371 0.93509 0.41791
 H101 H 0.18405 0.86634 0.45700
 H102 H 0.23040 0.95893 0.41237
 H103 H 0.11756 0.91287 0.38289
 H104 H 0.14692 0.88600 0.35776
 N105 N 0.10961 0.20814 0.11498
 N106 N 0.09484 0.20737 0.14417
 C107 C 0.06480 0.22554 0.14522
 C108 C 0.06060 0.23793 0.11491
 C109 C 0.08908 0.22627 0.09620
 H110 H 0.04568 0.22710 0.16557
 H111 H 0.09352 0.22953 0.07070
 Cu112 Cu 0.11180 0.17754 0.17611
 Cu113 Cu 0.15304 0.18399 0.10302
 Cu114 Cu 0.18696 0.13489 0.16209
 N115 N 0.11986 0.13782 0.20107
 N116 N 0.15067 0.12243 0.19663
 C117 C 0.14958 0.09589 0.21660
 C118 C 0.11582 0.09428 0.23385
 C119 C 0.09736 0.12100 0.22344
 H120 H 0.17034 0.07778 0.21677
 H121 H 0.06945 0.12715 0.23081
 N122 N 0.20971 0.13917 0.11881
 N123 N 0.19705 0.15793 0.09625
 C124 C 0.21637 0.15314 0.06872
 C125 C 0.24174 0.12992 0.07439
 C126 C 0.23677 0.12134 0.10616
 H127 H 0.21056 0.16372 0.04584
 H128 H 0.25025 0.10224 0.11865
 H129 H 0.14180 0.14489 0.13544
 H130 H 0.17395 0.18299 0.14785
 N131 N 0.38861 0.80039 0.59895
 N132 N 0.40004 0.80328 0.62870
 C133 C 0.42922 0.78464 0.63241
 C134 C 0.43636 0.76958 0.60325
 C135 C 0.41027 0.77999 0.58249
 H136 H 0.44550 0.78407 0.65394
 H137 H 0.40844 0.77464 0.55710
 Cu138 Cu 0.37910 0.83467 0.65863
 Cu139 Cu 0.34928 0.82665 0.58345
 Cu140 Cu 0.35383 0.90422 0.62302
 N141 N 0.36856 0.87447 0.68331
 N142 N 0.36035 0.90225 0.66916
 C143 C 0.35679 0.92666 0.69141
 C144 C 0.36253 0.91297 0.72091
 C145 C 0.36979 0.87986 0.71515
 H146 H 0.34971 0.95198 0.68649
 H147 H 0.37600 0.86136 0.73259
 N148 N 0.33181 0.89625 0.58015
 N149 N 0.32757 0.86592 0.56622
 C150 C 0.30847 0.86769 0.53893
 C151 C 0.30087 0.90090 0.53554
 C152 C 0.31604 0.91849 0.56179
 H153 H 0.30143 0.84663 0.52261
 H154 H 0.31465 0.94506 0.56757
 H155 H 0.38127 0.86349 0.60715
 H156 H 0.33199 0.85465 0.62391
 N157 N 0.97396 0.63440 0.38711
 N158 N 0.97233 0.62148 0.35797
 C159 C 0.99106 0.64384 0.33755
 C160 C 1.00576 0.67179 0.35518
 C161 C 0.99467 0.66504 0.38653
 H162 H 0.99228 0.64070 0.31181
 H163 H 0.99828 0.68227 0.40679
 Cu164 Cu 0.94334 0.57776 0.34939
 Cu165 Cu 0.94314 0.61325 0.42209
 Cu166 Cu 0.86711 0.55676 0.39723
 N167 N 0.90360 0.54287 0.33700
 N168 N 0.87252 0.53648 0.35472
 C169 C 0.84750 0.51474 0.33878
 C170 C 0.86441 0.50679 0.31001
 C171 C 0.89992 0.52493 0.30946
 H172 H 0.81917 0.50576 0.34725
 H173 H 0.92041 0.52663 0.28983
 N174 N 0.86843 0.57962 0.43961
 N175 N 0.89801 0.60021 0.44921
 C176 C 0.88932 0.61457 0.47736
 C177 C 0.85273 0.60216 0.48599
 C178 C 0.84014 0.58002 0.46172
 H179 H 0.90705 0.63468 0.48925
 H180 H 0.81168 0.56751 0.45910
 H181 H 0.92373 0.56417 0.40513
 H182 H 0.90220 0.60111 0.38882
 N183 N 0.54878 0.33944 -0.14166
 N184 N 0.55762 0.34830 -0.17137
 C185 C 0.53627 0.32762 -0.19144
 C186 C 0.51277 0.30510 -0.17293
 C187 C 0.52131 0.31322 -0.14155
 H188 H 0.53761 0.32901 -0.21727
 H189 H 0.50936 0.30054 -0.12028
 Cu190 Cu 0.59478 0.38714 -0.18055
 Cu191 Cu 0.57462 0.36103 -0.10514
 Cu192 Cu 0.64694 0.42433 -0.12068
 N193 N 0.61971 0.43342 -0.18381
 N194 N 0.63798 0.44868 -0.15961
 C195 C 0.64803 0.48158 -0.16684
 C196 C 0.63614 0.48666 -0.19744
 C197 C 0.61820 0.45584 -0.20762
 H198 H 0.66203 0.50040 -0.15084
 H199 H 0.60293 0.45076 -0.22959
 N200 N 0.64117 0.40094 -0.07933
 N201 N 0.61317 0.37679 -0.07353
 C202 C 0.61953 0.36155 -0.04587
 C203 C 0.65281 0.37718 -0.03357
 C204 C 0.66598 0.40212 -0.05523
 H205 H 0.60305 0.33889 -0.03687
 H206 H 0.69318 0.41745 -0.05511
 H207 H 0.59166 0.40819 -0.12573
 H208 H 0.62401 0.37385 -0.13092
 N209 N 0.01316 0.24560 0.07535
 N210 N -0.01827 0.26054 0.07262
 C211 C -0.02284 0.27795 0.10013
 C212 C 0.00671 0.27309 0.11998
 N213 N 0.02841 0.25272 0.10358
 H214 H 0.01150 0.28260 0.14410
 N215 N 0.48177 0.74921 0.56507
 N216 N 0.51347 0.73428 0.56492
 C217 C 0.52037 0.72760 0.59567
 C218 C 0.49203 0.73889 0.61474
 N219 N 0.46857 0.75225 0.59472
 H220 H 0.48915 0.73808 0.64057
 N221 N 1.01444 0.71525 0.31404
 N222 N 1.02868 0.74750 0.31096
 C223 C 1.04523 0.75694 0.33891
 C224 C 1.04074 0.72949 0.35924
 N225 N 1.02129 0.70409 0.34285
 H226 H 1.04939 0.72842 0.38386
 N227 N 0.48433 0.26545 -0.21335
 N228 N 0.45937 0.23790 -0.21474
 C229 C 0.44510 0.23266 -0.18479
 C230 C 0.46205 0.25765 -0.16507
 N231 N 0.48638 0.27751 -0.18367
 H232 H 0.45820 0.26029 -0.13944
 N233 N 0.06395 0.05683 0.25798
 N234 N 0.05906 0.02888 0.27551
 C235 C 0.09400 0.02144 0.28306
 C236 C 0.12044 0.04550 0.26963
 N237 N 0.10058 0.06707 0.25418
 H238 H 0.15107 0.04668 0.27025
 N239 N 0.62482 0.54614 -0.19858
 N240 N 0.62324 0.57066 -0.21969
 C241 C 0.63355 0.55807 -0.24834
 C242 C 0.64130 0.52497 -0.24422
 N243 N 0.63550 0.51861 -0.21288
 H244 H 0.64936 0.50701 -0.26218
 N245 N 0.35540 0.91311 0.77902
 N246 N 0.35330 0.93511 0.80299
 C247 C 0.35720 0.96637 0.78997
 C248 C 0.36157 0.96295 0.75731
 N249 N 0.36023 0.92936 0.75147
 H250 H 0.36519 0.98284 0.73958
 N251 N 0.81015 0.48516 0.27815
 N252 N 0.80286 0.46744 0.25145
 C253 C 0.83627 0.45807 0.24045
 C254 C 0.86432 0.47068 0.26105
 N255 N 0.84684 0.48743 0.28419
 H256 H 0.89444 0.46831 0.25920
 N257 N 0.27084 0.08117 0.05307
 N258 N 0.28778 0.07162 0.02639
 C259 C 0.29076 0.09859 0.00671
 C260 C 0.27504 0.12493 0.02198
 N261 N 0.26291 0.11299 0.05080
 H262 H 0.27194 0.14995 0.01281
 N263 N 0.83806 0.64767 0.52199
 N264 N 0.81004 0.65597 0.54091
 C265 C 0.78322 0.62906 0.54108
 C266 C 0.79547 0.60394 0.52151
 N267 N 0.82983 0.61667 0.51002
 H268 H 0.78036 0.57956 0.51526
 N269 N 0.67011 0.33098 -0.00118
 N270 N 0.69588 0.32488 0.01983
 C271 C 0.71688 0.35476 0.02547
 C272 C 0.70339 0.37947 0.00716
 N273 N 0.67423 0.36350 -0.00915
 H274 H 0.71429 0.40604 0.00519
 N275 N 0.28509 0.94688 0.50167
 N276 N 0.26368 0.95142 0.47680
 C277 C 0.24550 0.92068 0.46935
 C278 C 0.25651 0.89709 0.49022
 N279 N 0.28123 0.91446 0.50994
 H280 H 0.24736 0.87009 0.49110
   
