data_POSCAR
  _audit_creation_date              2014-09-24
  _audit_creation_method            'ToBaCCo'
  _symmetry_space_group_name_H-M    'P1'
  _symmetry_Int_Tables_number       1
  _symmetry_cell_setting            triclinic
  loop_
  _symmetry_equiv_pos_as_xyz
 x,y,z
_cell_length_a 33.6754
_cell_length_b 36.1885
_cell_length_c 22.7506
_cell_angle_alpha 89.893400
_cell_angle_beta 90.015300
_cell_angle_gamma 89.838100
loop_
  _atom_site_label
  _atom_site_type_symbol
  _atom_site_fract_x
  _atom_site_fract_y
  _atom_site_fract_z
C1 C 0.32158 0.27707 0.38763
 C2 C 0.32353 0.23916 0.38952
 C3 C 0.31278 0.22659 0.33414
 N4 N 0.30312 0.25544 0.29921
 C5 C 0.30889 0.28628 0.33161
 C6 C 0.31454 0.18950 0.31421
 C7 C 0.28809 0.17767 0.26919
 C8 C 0.29243 0.14621 0.23479
 C9 C 0.25910 0.14372 0.20013
 C10 C 0.23544 0.17395 0.21338
 N11 N 0.25356 0.19488 0.25468
 C12 C 0.19770 0.18136 0.18813
 C13 C 0.18400 0.21824 0.18156
 C14 C 0.14536 0.22896 0.16820
 C15 C 0.14562 0.26668 0.16239
 C16 C 0.18415 0.27785 0.17344
 N17 N 0.20758 0.24832 0.18526
 C18 C 0.19770 0.31462 0.17071
 C19 C 0.23433 0.32518 0.19503
 C20 C 0.25447 0.35752 0.18210
 C21 C 0.28546 0.35977 0.22140
 C22 C 0.28281 0.32897 0.25757
 N23 N 0.25212 0.30766 0.24031
 C24 C 0.30526 0.32243 0.30891
 H25 H 0.32839 0.29563 0.42345
 H26 H 0.33213 0.22273 0.42724
 H27 H 0.24058 0.28524 0.26349
 H28 H 0.31724 0.12721 0.23340
 H29 H 0.25334 0.12247 0.16785
 H30 H 0.11936 0.21170 0.16403
 H31 H 0.12020 0.28393 0.15229
 H32 H 0.30679 0.38201 0.22389
 H33 H 0.24120 0.21783 0.27556
 H34 H 0.24699 0.37780 0.14883
 C35 C 0.82739 0.26661 0.13557
 C36 C 0.82932 0.22898 0.14163
 C37 C 0.81361 0.22071 0.19627
 N38 N 0.80330 0.25221 0.22456
 C39 C 0.81221 0.28055 0.18787
 C40 C 0.81147 0.18488 0.22099
 C41 C 0.78509 0.17576 0.26720
 C42 C 0.78363 0.14187 0.29594
 C43 C 0.75126 0.14288 0.33277
 C44 C 0.73375 0.17726 0.32546
 N45 N 0.75440 0.19702 0.28531
 C46 C 0.69815 0.18878 0.35268
 C47 C 0.68602 0.22607 0.35394
 C48 C 0.64884 0.23854 0.37119
 C49 C 0.65044 0.27638 0.37041
 C50 C 0.68845 0.28561 0.35238
 N51 N 0.71015 0.25490 0.34235
 C52 C 0.70375 0.32169 0.34966
 C53 C 0.73899 0.33015 0.31921
 C54 C 0.76125 0.36177 0.32752
 C55 C 0.79140 0.36070 0.28676
 C56 C 0.78591 0.32899 0.25330
 N57 N 0.75439 0.31007 0.27448
 C58 C 0.80847 0.31863 0.20305
 H59 H 0.83577 0.28148 0.09629
 H60 H 0.84027 0.21010 0.10863
 H61 H 0.74139 0.28698 0.25511
 H62 H 0.80293 0.11826 0.28985
 H63 H 0.74140 0.12061 0.36098
 H64 H 0.62328 0.22217 0.38330
 H65 H 0.62642 0.29493 0.38189
 H66 H 0.81465 0.38108 0.28234
 H67 H 0.74537 0.22180 0.26629
 H68 H 0.75635 0.38324 0.35980
 C69 C 0.64750 0.73070 0.66279
 C70 C 0.64848 0.76840 0.65723
 C71 C 0.68625 0.77928 0.67389
 N72 N 0.70845 0.74967 0.68910
 C73 C 0.68488 0.71992 0.68195
 C74 C 0.70086 0.81562 0.67095
 C75 C 0.73467 0.82677 0.70278
 C76 C 0.75533 0.85937 0.69419
 C77 C 0.78402 0.86081 0.73742
 C78 C 0.77955 0.82928 0.77162
 N79 N 0.74976 0.80854 0.74968
 C80 C 0.80010 0.82096 0.82430
 C81 C 0.80266 0.78409 0.84461
 C82 C 0.81272 0.77329 0.90114
 C83 C 0.81553 0.73544 0.90040
 C84 C 0.80768 0.72441 0.84320
 N85 N 0.79908 0.75416 0.80942
 C86 C 0.81042 0.68777 0.82136
 C87 C 0.78558 0.67678 0.77381
 C88 C 0.78999 0.64528 0.73929
 C89 C 0.75751 0.64359 0.70269
 C90 C 0.73487 0.67464 0.71424
 N91 N 0.75211 0.69482 0.75714
 C92 C 0.69835 0.68320 0.68715
 H93 H 0.62225 0.71331 0.65319
 H94 H 0.62421 0.78581 0.64262
 H95 H 0.73950 0.71773 0.77778
 H96 H 0.75008 0.88004 0.66060
 H97 H 0.80545 0.88274 0.74305
 H98 H 0.81728 0.79077 0.93907
 H99 H 0.82253 0.71801 0.93771
 H100 H 0.75166 0.62240 0.67034
 H101 H 0.73747 0.78540 0.76997
 H102 H 0.81416 0.62557 0.73919
 C103 C 0.16092 0.77271 0.88386
 C104 C 0.15922 0.73490 0.88288
 C105 C 0.17641 0.72366 0.83051
 N106 N 0.19003 0.75338 0.80065
 C107 C 0.18060 0.78354 0.83305
 C108 C 0.17702 0.68692 0.80861
 C109 C 0.20704 0.67570 0.76828
 C110 C 0.20632 0.64401 0.73377
 C111 C 0.24195 0.64237 0.70436
 C112 C 0.26310 0.67351 0.72028
 N113 N 0.24172 0.69374 0.75906
 C114 C 0.30177 0.68187 0.70043
 C115 C 0.31714 0.71812 0.70036
 C116 C 0.35599 0.72744 0.68684
 C117 C 0.35771 0.76533 0.68666
 C118 C 0.31987 0.77786 0.70012
 N119 N 0.29511 0.74896 0.70837
 C120 C 0.30813 0.81535 0.70116
 C121 C 0.27046 0.82710 0.72127
 C122 C 0.25468 0.86202 0.71228
 C123 C 0.21985 0.86365 0.74347
 C124 C 0.21463 0.82930 0.76994
 N125 N 0.24595 0.80737 0.75628
 C126 C 0.18527 0.82032 0.81250
 H127 H 0.14882 0.78967 0.91849
 H128 H 0.14628 0.71768 0.91673
 H129 H 0.25287 0.78225 0.77608
 H130 H 0.18256 0.62421 0.72911
 H131 H 0.25093 0.62105 0.67379
 H132 H 0.38045 0.70890 0.67750
 H133 H 0.38378 0.78175 0.67730
 H134 H 0.20193 0.88827 0.74798
 H135 H 0.25191 0.71667 0.78216
 H136 H 0.26754 0.88453 0.68742
 O137 O 0.95999 0.01793 0.08758
 O138 O 1.03924 -0.04299 0.03293
 O139 O 1.03704 0.02192 0.07982
 O140 O 0.96303 -0.04794 0.03638
 O141 O 0.95636 -0.02075 -0.05016
 O142 O 1.03120 0.04800 -0.00758
 O143 O 1.03317 -0.01810 -0.05534
 O144 O 0.95410 0.04347 -0.00026
 Cu145 Cu 0.99997 -0.01524 0.06819
 Cu146 Cu 0.99331 0.01588 -0.03705
 C147 C 0.94383 0.04128 0.05333
 C148 C 1.04938 -0.04127 -0.02070
 C149 C 1.04676 0.04688 0.04327
 C150 C 0.94776 -0.04657 -0.01469
 O151 O 0.45967 0.49149 0.41864
 O152 O 0.53342 0.56008 0.46852
 O153 O 0.53611 0.49855 0.41112
 O154 O 0.45622 0.55606 0.47085
 O155 O 0.45993 0.52681 0.55585
 O156 O 0.54240 0.47004 0.49656
 O157 O 0.53731 0.53127 0.55399
 O158 O 0.46657 0.46169 0.50293
 Cu159 Cu 0.49551 0.52955 0.43393
 Cu160 Cu 0.50159 0.49462 0.53610
 C161 C 0.45195 0.46411 0.45173
 C162 C 0.54820 0.55699 0.51977
 C163 C 0.55311 0.47468 0.44343
 C164 C 0.44472 0.55185 0.52348
 O165 O 0.03082 0.49850 -0.11031
 O166 O -0.04022 0.43505 -0.03959
 O167 O -0.04755 0.49670 -0.10131
 O168 O 0.03487 0.43695 -0.05299
 O169 O 0.03791 0.46802 0.03038
 O170 O -0.04147 0.53034 -0.02089
 O171 O -0.03898 0.46911 0.04094
 O172 O 0.03472 0.53035 -0.02768
 Cu173 Cu -0.00640 0.46395 -0.08477
 Cu174 Cu -0.00165 0.50265 0.01396
 C175 C 0.04518 0.52494 -0.08050
 C176 C -0.05089 0.44087 0.01314
 C177 C -0.05793 0.52410 -0.07001
 C178 C 0.04979 0.44177 -0.00237
 O179 O 0.45685 1.03868 0.49167
 O180 O 0.53374 0.98463 0.56592
 O181 O 0.53379 1.04067 0.49527
 O182 O 0.45759 0.97727 0.55506
 O183 O 0.46424 0.94227 0.47632
 O184 O 0.53771 1.00596 0.41575
 O185 O 0.54083 0.94970 0.48714
 O186 O 0.46042 1.00267 0.41351
 Cu187 Cu 0.49458 1.01387 0.53476
 Cu188 Cu 0.50126 0.97162 0.44039
 C189 C 0.44581 1.03044 0.44013
 C190 C 0.55081 0.95827 0.53938
 C191 C 0.54861 1.03396 0.44495
 C192 C 0.44860 0.94843 0.52599
 C193 C 1.12720 0.12958 0.09733
 C194 C 1.12455 0.09608 0.12803
 N195 N 1.14729 0.09067 0.17655
 C196 C 1.17232 0.11741 0.19620
 C197 C 1.17420 0.15177 0.16673
 N198 N 1.15153 0.15652 0.11755
 N199 N 1.10480 0.13497 0.04845
 C200 C 1.07948 0.10843 0.02914
 C201 C 1.07584 0.07516 0.06073
 N202 N 1.09871 0.06980 0.10949
 H203 H 1.18907 0.11245 0.23605
 H204 H 1.06171 0.11365 -0.00966
 C205 C 0.63355 0.63257 0.58253
 C206 C 0.62207 0.60199 0.61636
 N207 N 0.63756 0.59717 0.67094
 C208 C 0.66356 0.62200 0.69375
 C209 C 0.67426 0.65327 0.66069
 N210 N 0.65924 0.65748 0.60543
 N211 N 0.61765 0.63762 0.52824
 C212 C 0.59045 0.61357 0.50635
 C213 C 0.57835 0.58322 0.54056
 N214 N 0.59478 0.57815 0.59472
 H215 H 0.67472 0.61807 0.73795
 H216 H 0.57812 0.61835 0.46306
 C217 C -0.11651 0.36171 0.10774
 C218 C -0.12943 0.39851 0.10540
 N219 N -0.16337 0.40825 0.13353
 C220 C -0.18466 0.38299 0.16468
 C221 C -0.17094 0.34606 0.16971
 N222 N -0.13703 0.33686 0.14029
 N223 N -0.08383 0.35126 0.07706
 C224 C -0.06322 0.37615 0.04441
 C225 C -0.07522 0.41334 0.04364
 N226 N -0.10812 0.42375 0.07435
 H227 H -0.21257 0.39164 0.18378
 H228 H -0.03697 0.36727 0.02081
 C229 C 0.37139 0.86772 0.59642
 C230 C 0.38460 0.89724 0.63129
 N231 N 0.37326 0.89915 0.68848
 C232 C 0.34916 0.87297 0.71227
 C233 C 0.33570 0.84354 0.67729
 N234 N 0.34729 0.84166 0.62008
 N235 N 0.38279 0.86561 0.53940
 C236 C 0.40702 0.89157 0.51556
 C237 C 0.42054 0.92117 0.55026
 N238 N 0.40884 0.92327 0.60752
 H239 H 0.34037 0.87511 0.75790
 H240 H 0.41578 0.88894 0.46999
 C241 C -0.14281 0.59985 -0.13476
 C242 C -0.10853 0.61203 -0.10597
 N243 N -0.10119 0.64871 -0.10207
 C244 C -0.12674 0.67396 -0.12521
 C245 C -0.16217 0.66222 -0.15301
 N246 N -0.16881 0.62507 -0.15672
 N247 N -0.14894 0.56303 -0.14192
 C248 C -0.12213 0.53784 -0.12156
 C249 C -0.08812 0.55004 -0.09167
 N250 N -0.08225 0.58695 -0.08450
 H251 H -0.11835 0.70275 -0.12385
 H252 H -0.12746 0.50865 -0.12811
 C253 C 0.36293 1.10282 0.36130
 C254 C 0.39766 1.11605 0.38760
 N255 N 0.40534 1.15274 0.38710
 C256 C 0.37944 1.17709 0.36258
 C257 C 0.34309 1.16453 0.33859
 N258 N 0.33639 1.12725 0.33823
 N259 N 0.35645 1.06576 0.35906
 C260 C 0.38312 1.04142 0.38252
 C261 C 0.41722 1.05489 0.41077
 N262 N 0.42359 1.09196 0.41244
 H263 H 0.38802 1.20582 0.36051
 H264 H 0.37730 1.01205 0.38059
 C265 C 1.13183 -0.11935 -0.08556
 C266 C 1.10832 -0.09840 -0.12418
 N267 N 1.11060 -0.10472 -0.18283
 C268 C 1.13553 -0.13093 -0.20468
 C269 C 1.15964 -0.15181 -0.16621
 N270 N 1.15680 -0.14541 -0.10737
 N271 N 1.12884 -0.11376 -0.02678
 C272 C 1.10313 -0.08829 -0.00477
 C273 C 1.07935 -0.06730 -0.04329
 N274 N 1.08271 -0.07285 -0.10229
 H275 H 1.13581 -0.13606 -0.25156
 H276 H 1.10113 -0.08467 0.04235
 C277 C 0.64038 0.40459 0.36985
 C278 C 0.63013 0.40174 0.42954
 N279 N 0.64666 0.37469 0.46301
 C280 C 0.67229 0.34981 0.43915
 C281 C 0.68135 0.35171 0.37889
 N282 N 0.66555 0.37947 0.34584
 N283 N 0.62344 0.43128 0.33618
 C284 C 0.59619 0.45494 0.35920
 C285 C 0.58493 0.45151 0.41855
 N286 N 0.60258 0.42509 0.45242
 H287 H 0.68440 0.32793 0.46633
 H288 H 0.58285 0.47566 0.33101
 C289 C 0.87796 -0.13112 -0.08755
 C290 C 0.86383 -0.09463 -0.08632
 N291 N 0.82812 -0.08657 -0.11095
 C292 C 0.80629 -0.11320 -0.13795
 C293 C 0.82152 -0.14941 -0.14279
 N294 N 0.85694 -0.15734 -0.11648
 N295 N 0.91280 -0.13962 -0.06066
 C296 C 0.93457 -0.11307 -0.03346
 C297 C 0.92153 -0.07619 -0.03485
 N298 N 0.88631 -0.06782 -0.06125
 H299 H 0.77755 -0.10603 -0.15596
 H300 H 0.96271 -0.12034 -0.01345
 C301 C 0.38525 0.37573 0.38346
 C302 C 0.36884 0.41143 0.38580
 N303 N 0.33126 0.41711 0.36621
 C304 C 0.30963 0.38890 0.34330
 C305 C 0.32674 0.35346 0.33786
 N306 N 0.36415 0.34785 0.35895
 N307 N 0.42215 0.36956 0.40533
 C308 C 0.44359 0.39759 0.42900
 C309 C 0.42786 0.43357 0.42946
 N310 N 0.39072 0.43973 0.40784
 H311 H 0.27953 0.39419 0.32885
 H312 H 0.47309 0.39207 0.44587
 C313 C 0.12903 0.59935 -0.15001
 C314 C 0.09141 0.61155 -0.13210
 N315 N 0.08185 0.64779 -0.13707
 C316 C 0.10854 0.67268 -0.15776
 C317 C 0.14749 0.66124 -0.17271
 N318 N 0.15615 0.62438 -0.16912
 N319 N 0.13791 0.56272 -0.14754
 C320 C 0.11088 0.53782 -0.12728
 C321 C 0.07376 0.55029 -0.10728
 N322 N 0.06490 0.58693 -0.11031
 H323 H 0.09896 0.70101 -0.16344
 H324 H 0.11867 0.50881 -0.12511
 C325 C 0.63266 1.10724 0.37164
 C326 C 0.62034 1.11107 0.43030
 N327 N 0.63502 1.13907 0.46335
 C328 C 0.66104 1.16376 0.44009
 C329 C 0.67247 1.16065 0.38083
 N330 N 0.65825 1.13212 0.34822
 N331 N 0.61812 1.07921 0.33862
 C332 C 0.59153 1.05493 0.36141
 C333 C 0.57850 1.05904 0.41984
 N334 N 0.59346 1.08706 0.45296
 H335 H 0.67216 1.18604 0.46714
 H336 H 0.58029 1.03297 0.33384
 C337 C 0.13258 0.36462 0.06489
 C338 C 0.12124 0.39568 0.09786
 N339 N 0.13566 0.40013 0.15306
 C340 C 0.16081 0.37481 0.17698
 C341 C 0.17186 0.34344 0.14438
 N342 N 0.15743 0.33914 0.08891
 N343 N 0.11797 0.36011 0.00980
 C344 C 0.09219 0.38507 -0.01369
 C345 C 0.08015 0.41588 0.01963
 N346 N 0.09523 0.42042 0.07468
 H347 H 0.17157 0.37874 0.22136
 H348 H 0.08067 0.38050 -0.05748
 C349 C 0.63681 0.89526 0.63094
 C350 C 0.62798 0.88759 0.57183
 N351 N 0.64573 0.85844 0.54500
 C352 C 0.67119 0.83611 0.57500
 C353 C 0.67885 0.84289 0.63481
 N354 N 0.66180 0.87268 0.66113
 N355 N 0.61875 0.92408 0.65803
 C356 C 0.59179 0.94534 0.62904
 C357 C 0.58197 0.93717 0.57029
 N358 N 0.60070 0.90856 0.54295
 H359 H 0.68426 0.81248 0.55313
 H360 H 0.57762 0.96792 0.65212
 C361 C 0.86036 0.11780 0.11990
 C362 C 0.89042 0.10321 0.15596
 N363 N 0.89414 0.11540 0.21205
 C364 C 0.86914 0.14156 0.23379
 C365 C 0.83860 0.15585 0.19819
 N366 N 0.83494 0.14348 0.14192
 N367 N 0.85775 0.10676 0.06302
 C368 C 0.88399 0.08188 0.04046
 C369 C 0.91385 0.06694 0.07665
 N370 N 0.91618 0.07794 0.13374
 H371 H 0.87299 0.15119 0.27845
 H372 H 0.88150 0.07377 -0.00516
 C373 C 0.36267 0.62888 0.59334
 C374 C 0.37577 0.59884 0.62745
 N375 N 0.36322 0.59565 0.68399
 C376 C 0.33853 0.62137 0.70809
 C377 C 0.32627 0.65194 0.67440
 N378 N 0.33854 0.65477 0.61759
 N379 N 0.37500 0.63218 0.53689
 C380 C 0.40028 0.60708 0.51301
 C381 C 0.41443 0.57737 0.54729
 N382 N 0.40155 0.57391 0.60388
 H383 H 0.32927 0.61850 0.75342
 H384 H 0.40990 0.61082 0.46800
   
