data_POSCAR
  _audit_creation_date              2014-09-24
  _audit_creation_method            'ToBaCCo'
  _symmetry_space_group_name_H-M    'P1'
  _symmetry_Int_Tables_number       1
  _symmetry_cell_setting            triclinic
  loop_
  _symmetry_equiv_pos_as_xyz
 x,y,z
_cell_length_a 44.3865
_cell_length_b 47.8619
_cell_length_c 30.4829
_cell_angle_alpha 90.068300
_cell_angle_beta 89.879300
_cell_angle_gamma 90.146700
loop_
  _atom_site_label
  _atom_site_type_symbol
  _atom_site_fract_x
  _atom_site_fract_y
  _atom_site_fract_z
C1 C 0.17087 0.26264 0.19339
 C2 C 0.17135 0.23403 0.19497
 C3 C 0.20079 0.22639 0.20446
 N4 N 0.21808 0.24942 0.20988
 C5 C 0.19980 0.27154 0.20297
 C6 C 0.21188 0.19866 0.20561
 C7 C 0.24014 0.19254 0.22492
 C8 C 0.25779 0.16961 0.21445
 C9 C 0.28269 0.17076 0.24103
 C10 C 0.27952 0.19421 0.26748
 N11 N 0.25373 0.20770 0.25685
 C12 C 0.29984 0.20231 0.30119
 C13 C 0.30098 0.23038 0.31613
 C14 C 0.31447 0.23947 0.35465
 C15 C 0.31350 0.26808 0.35417
 C16 C 0.29856 0.27555 0.31612
 N17 N 0.29091 0.25249 0.29291
 C18 C 0.29473 0.30318 0.30112
 C19 C 0.27475 0.31010 0.26687
 C20 C 0.27377 0.33564 0.24545
 C21 C 0.24963 0.33455 0.21722
 C22 C 0.23640 0.30850 0.22257
 N23 N 0.25183 0.29377 0.25288
 C24 C 0.20942 0.29964 0.20242
 H25 H 0.15141 0.27545 0.18632
 H26 H 0.15218 0.22045 0.18960
 H27 H 0.24503 0.27497 0.26691
 H28 H 0.25342 0.15391 0.18968
 H29 H 0.30119 0.15609 0.24051
 H30 H 0.32434 0.22686 0.38028
 H31 H 0.32284 0.28172 0.37899
 H32 H 0.24232 0.35126 0.19588
 H33 H 0.24446 0.22477 0.27327
 H34 H 0.28849 0.35344 0.25014
 C35 C 0.82370 0.23393 0.17553
 C36 C 0.82447 0.26258 0.17584
 C37 C 0.79711 0.27133 0.19284
 N38 N 0.77977 0.24902 0.20324
 C39 C 0.79608 0.22610 0.19309
 C40 C 0.78766 0.29942 0.19604
 C41 C 0.76071 0.30719 0.21733
 C42 C 0.74620 0.33257 0.21197
 C43 C 0.72261 0.33292 0.24130
 C44 C 0.72363 0.30785 0.26403
 N45 N 0.74671 0.29218 0.24889
 C46 C 0.70550 0.30089 0.30055
 C47 C 0.70306 0.27313 0.31572
 C48 C 0.69208 0.26533 0.35645
 C49 C 0.69134 0.23670 0.35669
 C50 C 0.70149 0.22795 0.31582
 N51 N 0.70899 0.25030 0.29098
 C52 C 0.70217 0.19987 0.30090
 C53 C 0.72098 0.19193 0.26513
 C54 C 0.71829 0.16743 0.24098
 C55 C 0.74204 0.16678 0.21204
 C56 C 0.75806 0.19140 0.21791
 N57 N 0.74510 0.20660 0.25033
 C58 C 0.78516 0.19840 0.19591
 H59 H 0.84137 0.22055 0.16310
 H60 H 0.84292 0.27542 0.16421
 H61 H 0.75412 0.22449 0.26474
 H62 H 0.75225 0.34924 0.18963
 H63 H 0.70692 0.34994 0.24593
 H64 H 0.68542 0.27886 0.38322
 H65 H 0.68409 0.22377 0.38387
 H66 H 0.74670 0.15001 0.18928
 H67 H 0.75483 0.27398 0.26328
 H68 H 0.70109 0.15148 0.24381
 C69 C 0.66825 0.73201 0.70326
 C70 C 0.66684 0.76062 0.70127
 C71 C 0.69549 0.77045 0.71081
 N72 N 0.71433 0.74886 0.71841
 C73 C 0.69772 0.72536 0.71386
 C74 C 0.70438 0.79877 0.70961
 C75 C 0.73256 0.80817 0.72542
 C76 C 0.74478 0.83439 0.71747
 C77 C 0.77103 0.83605 0.74123
 C78 C 0.77423 0.81073 0.76276
 N79 N 0.75065 0.79391 0.75308
 C80 C 0.79685 0.80461 0.79374
 C81 C 0.80239 0.77734 0.80925
 C82 C 0.81983 0.77096 0.84545
 C83 C 0.82101 0.74239 0.84772
 C84 C 0.80510 0.73218 0.81191
 N85 N 0.79345 0.75366 0.78871
 C86 C 0.80253 0.70359 0.79978
 C87 C 0.78030 0.69466 0.76926
 C88 C 0.78115 0.66985 0.74558
 C89 C 0.75474 0.66820 0.72230
 C90 C 0.73874 0.69230 0.73153
 N91 N 0.75448 0.70843 0.75995
 C92 C 0.70956 0.69807 0.71562
 H93 H 0.64978 0.71774 0.69712
 H94 H 0.64705 0.77278 0.69340
 H95 H 0.74653 0.72628 0.77573
 H96 H 0.73552 0.85081 0.69722
 H97 H 0.78571 0.85410 0.74306
 H98 H 0.83046 0.78532 0.86810
 H99 H 0.83236 0.73057 0.87296
 H100 H 0.74815 0.65127 0.70076
 H101 H 0.74542 0.77520 0.76866
 H102 H 0.79895 0.65445 0.74504
 C103 C 0.19438 0.76130 0.85950
 C104 C 0.19602 0.73273 0.85855
 C105 C 0.20481 0.72542 0.81640
 N106 N 0.20918 0.74860 0.79177
 C107 C 0.20229 0.77054 0.81794
 C108 C 0.20739 0.69772 0.80030
 C109 C 0.22607 0.69204 0.76355
 C110 C 0.22441 0.66855 0.73683
 C111 C 0.24818 0.67013 0.70790
 C112 C 0.26324 0.69482 0.71706
 N113 N 0.24951 0.70820 0.75066
 C114 C 0.29020 0.70360 0.69668
 C115 C 0.29962 0.73172 0.69720
 C116 C 0.32766 0.74134 0.68395
 C117 C 0.32642 0.76998 0.68560
 C118 C 0.29764 0.77677 0.69974
 N119 N 0.28133 0.75337 0.70693
 C120 C 0.28575 0.80400 0.70199
 C121 C 0.25801 0.80973 0.72272
 C122 C 0.24065 0.83324 0.71536
 C123 C 0.21648 0.83158 0.74358
 C124 C 0.22022 0.80745 0.76828
 N125 N 0.24535 0.79401 0.75469
 C126 C 0.20173 0.79873 0.80381
 H127 H 0.18826 0.77389 0.88765
 H128 H 0.19144 0.71891 0.88585
 H129 H 0.25504 0.77664 0.76964
 H130 H 0.20792 0.65188 0.73810
 H131 H 0.25374 0.65488 0.68294
 H132 H 0.34686 0.72906 0.67367
 H133 H 0.34447 0.78415 0.67681
 H134 H 0.19831 0.84655 0.74565
 H135 H 0.25766 0.72576 0.76711
 H136 H 0.24487 0.84975 0.69188
 O137 O 1.03121 0.04259 -0.01588
 O138 O 0.97144 -0.00301 -0.05958
 O139 O 0.97317 0.04408 -0.01478
 O140 O 1.03021 -0.00352 -0.06029
 O141 O 1.02923 -0.02810 0.00093
 O142 O 0.97223 0.01968 0.04672
 O143 O 0.97072 -0.02661 0.00256
 O144 O 1.03103 0.01855 0.04582
 Cu145 Cu 1.00137 0.02236 -0.04393
 Cu146 Cu 1.00083 -0.00653 0.03021
 C147 C 1.04129 0.03844 0.02252
 C148 C 0.96093 -0.02267 -0.03603
 C149 C 0.96329 0.04020 0.02386
 C150 C 1.03948 -0.02393 -0.03747
 O151 O 0.52836 0.46103 0.52487
 O152 O 0.47313 0.50964 0.57150
 O153 O 0.47011 0.46366 0.52647
 O154 O 0.53166 0.50844 0.56830
 O155 O 0.53087 0.53245 0.50661
 O156 O 0.47117 0.48685 0.46395
 O157 O 0.47225 0.53315 0.50932
 O158 O 0.52959 0.48543 0.46348
 Cu159 Cu 0.50096 0.48335 0.55404
 Cu160 Cu 0.50099 0.51190 0.47968
 C161 C 0.53819 0.46468 0.48617
 C162 C 0.46301 0.52958 0.54846
 C163 C 0.46043 0.46745 0.48770
 C164 C 0.54149 0.52840 0.54468
 O165 O -0.03077 0.53264 0.00531
 O166 O 0.02639 0.48937 0.05958
 O167 O 0.02684 0.53531 0.01326
 O168 O -0.03185 0.48632 0.05065
 O169 O -0.02626 0.46167 -0.00999
 O170 O 0.03258 0.51058 -0.04734
 O171 O 0.03195 0.46468 -0.00101
 O172 O -0.02584 0.50768 -0.05526
 Cu173 Cu -0.00289 0.51328 0.03838
 Cu174 Cu 0.00372 0.48366 -0.03447
 C175 C -0.03787 0.52775 -0.03429
 C176 C 0.03889 0.46954 0.03870
 C177 C 0.03941 0.53155 -0.02374
 C178 C -0.03909 0.46559 0.02677
 O179 O 0.47134 1.02665 0.48986
 O180 O 0.52710 0.97895 0.53825
 O181 O 0.52944 1.02510 0.49232
 O182 O 0.46853 0.98090 0.53612
 O183 O 0.46892 0.95588 0.47530
 O184 O 0.53004 1.00008 0.43145
 O185 O 0.52740 0.95413 0.47724
 O186 O 0.47116 1.00142 0.42919
 Cu187 Cu 0.49913 1.00535 0.52030
 Cu188 Cu 0.49947 0.97540 0.44715
 C189 C 0.46174 1.02217 0.45125
 C190 C 0.53667 0.95826 0.51611
 C191 C 0.53994 1.02034 0.45427
 C192 C 0.45829 0.96081 0.51327
 C193 C 1.19154 0.15075 0.20654
 C194 C 1.17382 0.12973 0.18771
 C195 C 1.15970 0.13404 0.14732
 C196 C 1.16396 0.15954 0.12540
 C197 C 1.18147 0.18062 0.14423
 C198 C 1.19512 0.17680 0.18552
 N199 N 1.14037 0.11273 0.12991
 N200 N 1.12778 0.11537 0.09268
 C201 C 1.10744 0.09496 0.07520
 C202 C 1.09553 0.09925 0.03335
 C203 C 1.07445 0.08061 0.01594
 C204 C 1.06477 0.05732 0.04032
 C205 C 1.07711 0.05281 0.08219
 C206 C 1.09832 0.07147 0.09950
 H207 H 1.20145 0.14701 0.23844
 H208 H 1.17070 0.11016 0.20496
 H209 H 1.15351 0.16334 0.09392
 H210 H 1.18463 0.19988 0.12613
 H211 H 1.10234 0.11732 0.01438
 H212 H 1.06540 0.08472 -0.01637
 H213 H 1.07014 0.03506 0.10176
 H214 H 1.10720 0.06777 0.13203
 C215 C 0.68222 0.65264 0.72559
 C216 C 0.66434 0.63089 0.70931
 C217 C 0.65534 0.63073 0.66531
 C218 C 0.66481 0.65249 0.63747
 C219 C 0.68266 0.67422 0.65373
 C220 C 0.69125 0.67459 0.69801
 N221 N 0.63600 0.60878 0.64997
 N222 N 0.62707 0.60778 0.61035
 C223 C 0.60702 0.58662 0.59442
 C224 C 0.59781 0.58780 0.55066
 C225 C 0.57700 0.56853 0.53434
 C226 C 0.56499 0.54757 0.56163
 C227 C 0.57480 0.54600 0.60541
 C228 C 0.59563 0.56541 0.62175
 H229 H 0.68873 0.65257 0.75982
 H230 H 0.65720 0.61427 0.73109
 H231 H 0.65821 0.65285 0.60331
 H232 H 0.68964 0.69089 0.63191
 H233 H 0.60644 0.60403 0.52931
 H234 H 0.57002 0.57031 0.50044
 H235 H 0.56596 0.53014 0.62726
 H236 H 0.60245 0.56409 0.65575
 C237 C -0.18136 0.34273 0.20461
 C238 C -0.16267 0.36357 0.18756
 C239 C -0.15531 0.36382 0.14292
 C240 C -0.16738 0.34318 0.11510
 C241 C -0.18630 0.32241 0.13211
 C242 C -0.19313 0.32186 0.17711
 N243 N -0.13509 0.38488 0.12708
 N244 N -0.12563 0.38537 0.08765
 C245 C -0.10494 0.40629 0.07254
 C246 C -0.09347 0.40439 0.02988
 C247 C -0.07228 0.42380 0.01477
 C248 C -0.06233 0.44562 0.04216
 C249 C -0.07432 0.44776 0.08476
 C250 C -0.09537 0.42824 0.09988
 H251 H -0.18642 0.34266 0.23939
 H252 H -0.15352 0.37936 0.20927
 H253 H -0.16210 0.34303 0.08042
 H254 H -0.19540 0.30661 0.11036
 H255 H -0.10067 0.38758 0.00849
 H256 H -0.06356 0.42160 -0.01825
 H257 H -0.06713 0.46430 0.10667
 H258 H -0.10396 0.43021 0.13300
 C259 C 0.31269 0.85001 0.70538
 C260 C 0.33057 0.87069 0.68597
 C261 C 0.33849 0.86884 0.64157
 C262 C 0.32742 0.84649 0.61627
 C263 C 0.30947 0.82588 0.63561
 C264 C 0.30249 0.82719 0.68051
 N265 N 0.35886 0.88908 0.62357
 N266 N 0.36840 0.88748 0.58425
 C267 C 0.38970 0.90698 0.56653
 C268 C 0.40002 0.90314 0.52356
 C269 C 0.42203 0.92083 0.50599
 C270 C 0.43409 0.94278 0.53122
 C271 C 0.42326 0.94690 0.57415
 C272 C 0.40129 0.92914 0.59169
 H273 H 0.30749 0.85137 0.74006
 H274 H 0.33893 0.88781 0.70579
 H275 H 0.33311 0.84466 0.58184
 H276 H 0.30156 0.80854 0.61584
 H277 H 0.39130 0.88611 0.50388
 H278 H 0.42983 0.91712 0.47281
 H279 H 0.43205 0.96361 0.59442
 H280 H 0.39367 0.93252 0.62503
 C281 C -0.14615 0.69000 -0.17779
 C282 C -0.12641 0.67089 -0.15872
 C283 C -0.13671 0.64469 -0.14519
 C284 C -0.16719 0.63771 -0.15067
 C285 C -0.18719 0.65707 -0.16871
 C286 C -0.17706 0.68368 -0.18243
 N287 N -0.11604 0.62600 -0.12452
 N288 N -0.12070 0.59980 -0.12229
 C289 C -0.10019 0.58183 -0.09971
 C290 C -0.09881 0.55349 -0.11096
 C291 C -0.07838 0.53577 -0.08995
 C292 C -0.05977 0.54606 -0.05634
 C293 C -0.06176 0.57433 -0.04436
 C294 C -0.08154 0.59216 -0.06620
 H295 H -0.13704 0.70966 -0.18943
 H296 H -0.10288 0.67641 -0.15489
 H297 H -0.17569 0.61765 -0.13984
 H298 H -0.21081 0.65149 -0.17065
 H299 H -0.11317 0.54527 -0.13661
 H300 H -0.07731 0.51401 -0.09960
 H301 H -0.04755 0.58278 -0.01870
 H302 H -0.08247 0.61394 -0.05669
 C303 C 0.35058 1.18943 0.32708
 C304 C 0.37039 1.17006 0.34530
 C305 C 0.36078 1.14289 0.35442
 C306 C 0.33088 1.13521 0.34549
 C307 C 0.31078 1.15475 0.32817
 C308 C 0.32024 1.18231 0.31874
 N309 N 0.38169 1.12374 0.37352
 N310 N 0.37758 1.09742 0.37288
 C311 C 0.39846 1.07875 0.39325
 C312 C 0.39897 1.05067 0.38042
 C313 C 0.41971 1.03222 0.39902
 C314 C 0.43968 1.04149 0.43170
 C315 C 0.43864 1.06953 0.44527
 C316 C 0.41842 1.08810 0.42587
 H317 H 0.35928 1.20991 0.31875
 H318 H 0.39348 1.17614 0.35175
 H319 H 0.32291 1.11433 0.35279
 H320 H 0.28757 1.14847 0.32325
 H321 H 0.38362 1.04321 0.35542
 H322 H 0.41996 1.01066 0.38819
 H323 H 0.45385 1.07720 0.47030
 H324 H 0.41823 1.10967 0.43657
 C325 C 1.15308 -0.19030 -0.16102
 C326 C 1.13377 -0.17155 -0.14007
 C327 C 1.14255 -0.14386 -0.13330
 C328 C 1.17132 -0.13514 -0.14684
 C329 C 1.19098 -0.15404 -0.16697
 C330 C 1.18212 -0.18196 -0.17492
 N331 N 1.12182 -0.12507 -0.11272
 N332 N 1.12490 -0.09867 -0.11490
 C333 C 1.10407 -0.08010 -0.09403
 C334 C 1.10290 -0.05223 -0.10764
 C335 C 1.08187 -0.03392 -0.08926
 C336 C 1.06218 -0.04309 -0.05608
 C337 C 1.06396 -0.07088 -0.04155
 C338 C 1.08453 -0.08935 -0.06069
 H339 H 1.14484 -0.21123 -0.16740
 H340 H 1.11158 -0.17847 -0.12992
 H341 H 1.17875 -0.11388 -0.14126
 H342 H 1.21342 -0.14688 -0.17535
 H343 H 1.11790 -0.04485 -0.13321
 H344 H 1.08109 -0.01255 -0.10085
 H345 H 1.04899 -0.07849 -0.01610
 H346 H 1.08520 -0.11078 -0.04943
 C347 C 0.70234 0.34801 0.33723
 C348 C 0.68575 0.36913 0.35777
 C349 C 0.65495 0.36552 0.36592
 C350 C 0.64067 0.34076 0.35237
 C351 C 0.65703 0.31998 0.33075
 C352 C 0.68808 0.32329 0.32323
 N353 N 0.63847 0.38726 0.38748
 N354 N 0.61414 0.38203 0.40805
 C355 C 0.59650 0.40342 0.42841
 C356 C 0.57600 0.39588 0.46122
 C357 C 0.55771 0.41603 0.48088
 C358 C 0.55904 0.44400 0.46706
 C359 C 0.57954 0.45157 0.43392
 C360 C 0.59844 0.43147 0.41506
 H361 H 0.72629 0.35096 0.33210
 H362 H 0.69700 0.38814 0.36803
 H363 H 0.61678 0.33769 0.35786
 H364 H 0.64546 0.30128 0.31984
 H365 H 0.57421 0.37430 0.47156
 H366 H 0.54190 0.40959 0.50605
 H367 H 0.58094 0.47300 0.42269
 H368 H 0.61397 0.43766 0.38941
 C369 C 0.84020 -0.16254 -0.21584
 C370 C 0.85885 -0.14115 -0.20034
 C371 C 0.85406 -0.12958 -0.15871
 C372 C 0.82982 -0.13922 -0.13299
 C373 C 0.81087 -0.16032 -0.14878
 C374 C 0.81617 -0.17229 -0.19009
 N375 N 0.87443 -0.10859 -0.14303
 N376 N 0.87458 -0.10071 -0.10315
 C377 C 0.89520 -0.08000 -0.08725
 C378 C 0.89856 -0.07661 -0.04195
 C379 C 0.91971 -0.05774 -0.02526
 C380 C 0.93749 -0.04151 -0.05376
 C381 C 0.93341 -0.04429 -0.09928
 C382 C 0.91260 -0.06355 -0.11594
 H383 H 0.84451 -0.17158 -0.24783
 H384 H 0.87743 -0.13390 -0.22045
 H385 H 0.82559 -0.13050 -0.10079
 H386 H 0.79234 -0.16762 -0.12862
 H387 H 0.88523 -0.08912 -0.01954
 H388 H 0.92224 -0.05594 0.00996
 H389 H 0.94686 -0.03211 -0.12199
 H390 H 0.91026 -0.06571 -0.15112
 C391 C 0.33922 0.33505 0.29698
 C392 C 0.35812 0.35525 0.31535
 C393 C 0.35242 0.36566 0.35747
 C394 C 0.32699 0.35620 0.38075
 C395 C 0.30772 0.33635 0.36200
 C396 C 0.31395 0.32542 0.32022
 N397 N 0.37303 0.38549 0.37584
 N398 N 0.37305 0.39185 0.41639
 C399 C 0.39405 0.41169 0.43389
 C400 C 0.39802 0.41343 0.47936
 C401 C 0.41950 0.43166 0.49711
 C402 C 0.43694 0.44882 0.46953
 C403 C 0.43232 0.44753 0.42396
 C404 C 0.41123 0.42902 0.40627
 H405 H 0.34433 0.32676 0.26474
 H406 H 0.37761 0.36243 0.29712
 H407 H 0.32207 0.36411 0.41326
 H408 H 0.28826 0.32911 0.38029
 H409 H 0.38488 0.40022 0.50099
 H410 H 0.42249 0.43229 0.53235
 H411 H 0.44546 0.46044 0.40185
 H412 H 0.40845 0.42818 0.37101
 C413 C 0.16118 0.68035 -0.16381
 C414 C 0.14493 0.65906 -0.14325
 C415 C 0.15756 0.63243 -0.13825
 C416 C 0.18666 0.62743 -0.15397
 C417 C 0.20327 0.64889 -0.17373
 C418 C 0.19078 0.67578 -0.17924
 N419 N 0.14096 0.61016 -0.11813
 N420 N 0.11830 0.61506 -0.09369
 C421 C 0.10034 0.59329 -0.07482
 C422 C 0.08021 0.60007 -0.04112
 C423 C 0.06113 0.57972 -0.02349
 C424 C 0.06143 0.55230 -0.04004
 C425 C 0.08183 0.54545 -0.07369
 C426 C 0.10136 0.56574 -0.09071
 H427 H 0.15016 0.70027 -0.16862
 H428 H 0.12222 0.66328 -0.13205
 H429 H 0.19669 0.60698 -0.15019
 H430 H 0.22621 0.64454 -0.18368
 H431 H 0.07914 0.62127 -0.02878
 H432 H 0.04548 0.58567 0.00216
 H433 H 0.08252 0.52448 -0.08704
 H434 H 0.11662 0.56011 -0.11701
 C435 C 0.65297 1.18693 0.33255
 C436 C 0.63386 1.16748 0.35237
 C437 C 0.64364 1.14025 0.36022
 C438 C 0.67318 1.13270 0.34888
 C439 C 0.69266 1.15235 0.32997
 C440 C 0.68282 1.17981 0.32105
 N441 N 0.62314 1.12088 0.38003
 N442 N 0.62682 1.09454 0.37820
 C443 C 0.60593 1.07583 0.39883
 C444 C 0.60432 1.04802 0.38476
 C445 C 0.58291 1.02980 0.40279
 C446 C 0.56336 1.03903 0.43608
 C447 C 0.56569 1.06671 0.45111
 C448 C 0.58657 1.08504 0.43236
 H449 H 0.64403 1.20743 0.32523
 H450 H 0.61107 1.17349 0.36085
 H451 H 0.68133 1.11181 0.35533
 H452 H 0.71566 1.14618 0.32316
 H453 H 0.61917 1.04065 0.35901
 H454 H 0.58166 1.00852 0.39078
 H455 H 0.55083 1.07440 0.47661
 H456 H 0.58757 1.10640 0.44401
 C457 C 0.18500 0.31713 0.13383
 C458 C 0.16673 0.33615 0.11167
 C459 C 0.15386 0.35872 0.13402
 C460 C 0.15968 0.36224 0.17905
 C461 C 0.17796 0.34318 0.20128
 C462 C 0.19066 0.32043 0.17884
 N463 N 0.13454 0.37731 0.11044
 N464 N 0.12200 0.39825 0.12855
 C465 C 0.10220 0.41640 0.10493
 C466 C 0.08894 0.43888 0.12700
 C467 C 0.06869 0.45641 0.10536
 C468 C 0.06133 0.45170 0.06108
 C469 C 0.07502 0.42931 0.03882
 C470 C 0.09527 0.41181 0.06052
 H471 H 0.19466 0.29972 0.11598
 H472 H 0.16239 0.33320 0.07702
 H473 H 0.14994 0.37951 0.19706
 H474 H 0.18199 0.34597 0.23605
 H475 H 0.09409 0.44264 0.16121
 H476 H 0.05856 0.47346 0.12347
 H477 H 0.06985 0.42511 0.00474
 H478 H 0.10523 0.39456 0.04272
 C479 C 0.67191 0.84141 0.71494
 C480 C 0.65285 0.86118 0.69591
 C481 C 0.64532 0.85933 0.65142
 C482 C 0.65707 0.83734 0.62600
 C483 C 0.67616 0.81760 0.64501
 C484 C 0.68370 0.81950 0.68960
 N485 N 0.62574 0.87993 0.63293
 N486 N 0.61790 0.87931 0.59280
 C487 C 0.59821 0.89975 0.57416
 C488 C 0.58975 0.89702 0.53020
 C489 C 0.57002 0.91618 0.51116
 C490 C 0.55843 0.93856 0.53588
 C491 C 0.56728 0.94147 0.57994
 C492 C 0.58697 0.92221 0.59897
 H493 H 0.67753 0.84319 0.74940
 H494 H 0.64393 0.87799 0.71582
 H495 H 0.65160 0.83546 0.59154
 H496 H 0.68519 0.80089 0.62495
 H497 H 0.59829 0.87981 0.51074
 H498 H 0.56369 0.91334 0.47715
 H499 H 0.55875 0.95844 0.59989
 H500 H 0.59323 0.92480 0.63303
 C501 C 0.79220 0.16358 0.13499
 C502 C 0.80930 0.14304 0.11387
 C503 C 0.83758 0.13556 0.13029
 C504 C 0.84811 0.14793 0.16913
 C505 C 0.83051 0.16764 0.19120
 C506 C 0.80263 0.17592 0.17396
 N507 N 0.85554 0.11565 0.10708
 N508 N 0.88387 0.11904 0.10349
 C509 C 0.90267 0.09896 0.08213
 C510 C 0.92839 0.10818 0.05979
 C511 C 0.94757 0.08899 0.03948
 C512 C 0.94187 0.06023 0.04286
 C513 C 0.91631 0.05091 0.06579
 C514 C 0.89649 0.07021 0.08470
 H515 H 0.77090 0.16994 0.12095
 H516 H 0.80100 0.13363 0.08391
 H517 H 0.86981 0.14216 0.18244
 H518 H 0.83891 0.17696 0.22118
 H519 H 0.93345 0.13029 0.05788
 H520 H 0.96736 0.09654 0.02228
 H521 H 0.91163 0.02877 0.06881
 H522 H 0.87687 0.06274 0.10233
 C523 C 0.31556 0.68574 0.62849
 C524 C 0.33421 0.66651 0.60715
 C525 C 0.34632 0.64389 0.63014
 C526 C 0.33920 0.64044 0.67481
 C527 C 0.32061 0.65966 0.69616
 C528 C 0.30890 0.68260 0.67329
 N529 N 0.36630 0.62514 0.60787
 N530 N 0.37800 0.60434 0.62735
 C531 C 0.39855 0.58564 0.60620
 C532 C 0.41002 0.56325 0.63026
 C533 C 0.43076 0.54495 0.61135
 C534 C 0.44049 0.54878 0.56781
 C535 C 0.42874 0.57120 0.54350
 C536 C 0.40791 0.58951 0.56254
 H537 H 0.30655 0.70322 0.61025
 H538 H 0.33948 0.66938 0.57275
 H539 H 0.34825 0.62311 0.69333
 H540 H 0.31572 0.65692 0.73072
 H541 H 0.40299 0.56009 0.66394
 H542 H 0.43932 0.52791 0.63102
 H543 H 0.43577 0.57469 0.50991
 H544 H 0.39935 0.60674 0.54331
   
