data_POSCAR
  _audit_creation_date              2014-09-24
  _audit_creation_method            'ToBaCCo'
  _symmetry_space_group_name_H-M    'P1'
  _symmetry_Int_Tables_number       1
  _symmetry_cell_setting            triclinic
  loop_
  _symmetry_equiv_pos_as_xyz
 x,y,z
_cell_length_a 21.7843
_cell_length_b 18.3137
_cell_length_c 23.0181
_cell_angle_alpha 91.145600
_cell_angle_beta 89.090900
_cell_angle_gamma 89.707300
loop_
  _atom_site_label
  _atom_site_type_symbol
  _atom_site_fract_x
  _atom_site_fract_y
  _atom_site_fract_z
N1 N 0.51741 0.69159 0.57674
 N2 N 0.50070 0.67063 0.62890
 C3 C 0.45293 0.71151 0.64811
 C4 C 0.43820 0.76002 0.60528
 C5 C 0.47966 0.74569 0.56023
 H6 H 0.43151 0.70753 0.69065
 H7 H 0.48459 0.77551 0.52034
 Cu8 Cu 0.54444 0.59392 0.66785
 Cu9 Cu 0.59233 0.65247 0.53958
 Cu10 Cu 0.69603 0.60165 0.64553
 N11 N 0.60020 0.53764 0.71364
 N12 N 0.65996 0.54607 0.70948
 C13 C 0.68683 0.50817 0.75201
 C14 C 0.64118 0.47134 0.78238
 C15 C 0.58691 0.49149 0.75641
 H16 H 0.73585 0.50496 0.75845
 H17 H 0.54077 0.47698 0.76962
 N18 N 0.72083 0.62668 0.56485
 N19 N 0.68059 0.64099 0.52414
 C20 C 0.70981 0.64486 0.47253
 C21 C 0.77157 0.63336 0.48103
 C22 C 0.77730 0.62230 0.53998
 H23 H 0.68765 0.65410 0.43158
 H24 H 0.81872 0.60746 0.56229
 H25 H 0.62425 0.56946 0.59529
 H26 H 0.62352 0.66691 0.62059
 N27 N 0.96222 0.29529 0.09052
 N28 N 0.95477 0.28323 0.14649
 C29 C 0.99687 0.23449 0.16315
 C30 C 1.03410 0.21577 0.11564
 C31 C 1.01068 0.25584 0.07022
 H32 H 1.00234 0.21801 0.20761
 H33 H 1.02654 0.25517 0.02546
 Cu34 Cu 0.89780 0.33997 0.19679
 Cu35 Cu 0.90465 0.35690 0.04727
 Cu36 Cu 0.80034 0.44857 0.12928
 N37 N 0.86293 0.42707 0.23516
 N38 N 0.82563 0.47118 0.20812
 C39 C 0.81296 0.52975 0.24267
 C40 C 0.84369 0.52114 0.29414
 C41 C 0.87508 0.45574 0.28797
 H42 H 0.78562 0.57629 0.23044
 H43 H 0.90674 0.43258 0.31840
 N44 N 0.78459 0.42264 0.04883
 N45 N 0.82626 0.38923 0.01572
 C46 C 0.80253 0.37609 -0.03719
 C47 C 0.74274 0.40178 -0.03645
 C48 C 0.73267 0.43043 0.01876
 H49 H 0.82554 0.34586 -0.07211
 H50 H 0.69004 0.45276 0.03630
 H51 H 0.90705 0.40767 0.12936
 H52 H 0.85252 0.33092 0.11697
 N53 N 0.48130 0.19926 -0.07571
 N54 N 0.49549 0.17955 -0.12951
 C55 C 0.54149 0.22122 -0.14919
 C56 C 0.55787 0.26908 -0.10515
 C57 C 0.51917 0.25351 -0.05872
 H58 H 0.56089 0.21790 -0.19273
 H59 H 0.51637 0.28216 -0.01719
 Cu60 Cu 0.45208 0.10245 -0.16988
 Cu61 Cu 0.40965 0.15704 -0.03650
 Cu62 Cu 0.30240 0.09911 -0.13834
 N63 N 0.39671 0.04370 -0.21543
 N64 N 0.33714 0.04468 -0.20536
 C65 C 0.30961 0.00247 -0.24595
 C66 C 0.35499 -0.02768 -0.28203
 C67 C 0.40952 -0.00024 -0.26135
 H68 H 0.26074 -0.00724 -0.24795
 H69 H 0.45508 -0.01069 -0.27906
 N70 N 0.28095 0.12563 -0.05660
 N71 N 0.32241 0.14190 -0.01712
 C72 C 0.29473 0.14733 0.03546
 C73 C 0.23278 0.13514 0.02852
 C74 C 0.22545 0.12181 -0.03023
 H75 H 0.31789 0.15924 0.07575
 H76 H 0.18340 0.10653 -0.05156
 H77 H 0.37886 0.07249 -0.09314
 H78 H 0.37272 0.16969 -0.11504
 N79 N 0.03613 0.79675 0.40883
 N80 N 0.03590 0.78946 0.35195
 C81 C -0.00697 0.74089 0.33635
 C82 C -0.03706 0.71759 0.38614
 C83 C -0.00883 0.75512 0.43150
 H84 H -0.01771 0.72708 0.29178
 H85 H -0.01870 0.75087 0.47750
 Cu86 Cu 0.08602 0.85053 0.30311
 Cu87 Cu 0.09739 0.85798 0.44727
 Cu88 Cu 0.21404 0.92162 0.35638
 N89 N 0.12635 0.93160 0.26580
 N90 N 0.17869 0.95769 0.28462
 C91 C 0.19667 1.01261 0.25012
 C92 C 0.15217 1.02192 0.20858
 C93 C 0.10831 0.96980 0.21987
 H94 H 0.23720 1.04549 0.25655
 H95 H 0.06609 0.96083 0.19671
 N96 N 0.22398 0.90982 0.44034
 N97 N 0.17862 0.89042 0.47551
 C98 C 0.20047 0.88486 0.52971
 C99 C 0.26236 0.90088 0.52809
 C100 C 0.27588 0.91600 0.47083
 H101 H 0.17466 0.86463 0.56649
 H102 H 0.32066 0.92761 0.45235
 H103 H 0.12579 0.92697 0.38199
 H104 H 0.15791 0.83233 0.38110
 C105 C 0.08603 0.16958 0.11550
 C106 C 0.13073 0.17148 0.07062
 C107 C 0.18542 0.13100 0.07453
 C108 C 0.19448 0.08551 0.12199
 C109 C 0.14819 0.07836 0.16423
 C110 C 0.09497 0.12125 0.16148
 H111 H 0.12505 0.20716 0.03412
 H112 H 0.23584 0.05257 0.12417
 H113 H 0.05993 0.11506 0.19490
 C114 C 0.39351 0.82034 0.61071
 C115 C 0.35187 0.83405 0.56650
 C116 C 0.30673 0.88857 0.57426
 C117 C 0.30475 0.93128 0.62566
 C118 C 0.34913 0.92097 0.66831
 C119 C 0.39229 0.86433 0.66112
 H120 H 0.35312 0.80072 0.52704
 H121 H 0.27104 0.97473 0.63091
 H122 H 0.42590 0.85529 0.69451
 C123 C 0.91320 0.66901 0.38855
 C124 C 0.90207 0.62112 0.34122
 C125 C 0.85097 0.57530 0.34127
 C126 C 0.80864 0.57929 0.38736
 C127 C 0.81901 0.62604 0.43514
 C128 C 0.87238 0.66875 0.43675
 H129 H 0.93397 0.61740 0.30468
 H130 H 0.76816 0.54511 0.38652
 H131 H 0.87918 0.70555 0.47348
 C132 C 0.60254 0.32865 -0.11065
 C133 C 0.60070 0.37289 -0.15943
 C134 C 0.64665 0.42483 -0.17017
 C135 C 0.69599 0.43040 -0.13158
 C136 C 0.69588 0.38944 -0.08058
 C137 C 0.64888 0.33901 -0.07003
 H138 H 0.56387 0.36496 -0.18999
 H139 H 0.73193 0.47010 -0.13861
 H140 H 0.64966 0.30622 -0.03135
   
