data_POSCAR
  _audit_creation_date              2014-09-24
  _audit_creation_method            'ToBaCCo'
  _symmetry_space_group_name_H-M    'P1'
  _symmetry_Int_Tables_number       1
  _symmetry_cell_setting            triclinic
  loop_
  _symmetry_equiv_pos_as_xyz
 x,y,z
_cell_length_a 34.5802
_cell_length_b 34.6677
_cell_length_c 34.7968
_cell_angle_alpha 90.021700
_cell_angle_beta 90.039700
_cell_angle_gamma 90.035300
loop_
  _atom_site_label
  _atom_site_type_symbol
  _atom_site_fract_x
  _atom_site_fract_y
  _atom_site_fract_z
N1 N 0.31154 0.23396 0.20412
 N2 N 0.29537 0.26456 0.18854
 C3 C 0.31579 0.27498 0.15723
 C4 C 0.34612 0.24952 0.15324
 C5 C 0.34274 0.22387 0.18329
 H6 H 0.30922 0.29916 0.13871
 H7 H 0.36153 0.19973 0.18948
 Cu8 Cu 0.24945 0.28762 0.21117
 Cu9 Cu 0.29083 0.20931 0.25010
 Cu10 Cu 0.20877 0.25043 0.29043
 N11 N 0.20353 0.31068 0.23382
 N12 N 0.18782 0.29598 0.26499
 C13 C 0.15676 0.31719 0.27486
 C14 C 0.15302 0.34658 0.24848
 C15 C 0.18296 0.34180 0.22281
 H16 H 0.13831 0.31167 0.29933
 H17 H 0.18918 0.35966 0.19810
 N18 N 0.23425 0.20432 0.31187
 N19 N 0.26549 0.18866 0.29654
 C20 C 0.27568 0.15756 0.31746
 C21 C 0.24963 0.15371 0.34714
 C22 C 0.22378 0.18359 0.34293
 H23 H 0.30006 0.13897 0.31155
 H24 H 0.19914 0.18960 0.36108
 H25 H 0.23422 0.22649 0.24231
 H26 H 0.26531 0.25812 0.27279
 N27 N 0.68809 -0.23472 0.20300
 N28 N 0.70450 -0.26527 0.18753
 C29 C 0.68410 -0.27606 0.15628
 C30 C 0.65354 -0.25089 0.15225
 C31 C 0.65672 -0.22503 0.18218
 H32 H 0.69078 -0.30038 0.13798
 H33 H 0.63764 -0.20111 0.18840
 Cu34 Cu 0.75049 -0.28804 0.21039
 Cu35 Cu 0.70853 -0.20986 0.24909
 Cu36 Cu 0.79067 -0.25055 0.28976
 N37 N 0.79647 -0.31088 0.23327
 N38 N 0.81194 -0.29598 0.26450
 C39 C 0.84294 -0.31707 0.27479
 C40 C 0.84689 -0.34658 0.24860
 C41 C 0.81714 -0.34206 0.22259
 H42 H 0.86113 -0.31143 0.29947
 H43 H 0.81104 -0.36015 0.19798
 N44 N 0.76496 -0.20458 0.31108
 N45 N 0.73369 -0.18905 0.29566
 C46 C 0.72331 -0.15804 0.31666
 C47 C 0.74929 -0.15415 0.34645
 C48 C 0.77526 -0.18390 0.34224
 H49 H 0.69884 -0.13956 0.31074
 H50 H 0.79986 -0.18986 0.36049
 H51 H 0.76518 -0.22674 0.24150
 H52 H 0.73416 -0.25850 0.27185
 N53 N 0.68914 0.23487 0.79602
 N54 N 0.70545 0.26550 0.81143
 C55 C 0.68497 0.27632 0.84256
 C56 C 0.65443 0.25110 0.84661
 C57 C 0.65776 0.22516 0.81679
 H58 H 0.69157 0.30069 0.86084
 H59 H 0.63875 0.20114 0.81064
 Cu60 Cu 0.75144 0.28827 0.78863
 Cu61 Cu 0.70973 0.20996 0.75013
 Cu62 Cu 0.79182 0.25079 0.70933
 N63 N 0.79726 0.31132 0.76578
 N64 N 0.81290 0.29655 0.73459
 C65 C 0.84385 0.31790 0.72451
 C66 C 0.84751 0.34744 0.75082
 C67 C 0.81770 0.34261 0.77662
 H68 H 0.86220 0.31240 0.69995
 H69 H 0.81143 0.36056 0.80127
 N70 N 0.76611 0.20448 0.68820
 N71 N 0.73488 0.18900 0.70376
 C72 C 0.72435 0.15790 0.68299
 C73 C 0.75013 0.15378 0.65315
 C74 C 0.77622 0.18358 0.65709
 H75 H 0.69979 0.13955 0.68902
 H76 H 0.80067 0.18951 0.63866
 H77 H 0.76654 0.22708 0.75753
 H78 H 0.73544 0.25863 0.72709
 N79 N 0.31159 -0.23514 0.79628
 N80 N 0.29559 -0.26596 0.81158
 C81 C 0.31619 -0.27654 0.84276
 C82 C 0.34645 -0.25094 0.84692
 C83 C 0.34283 -0.22507 0.81712
 H84 H 0.30975 -0.30090 0.86107
 H85 H 0.36151 -0.20077 0.81110
 Cu86 Cu 0.24944 -0.28908 0.78905
 Cu87 Cu 0.29085 -0.21025 0.75059
 Cu88 Cu 0.20878 -0.25073 0.70993
 N89 N 0.20329 -0.31155 0.76587
 N90 N 0.18758 -0.29635 0.73492
 C91 C 0.15634 -0.31724 0.72477
 C92 C 0.15246 -0.34694 0.75076
 C93 C 0.18253 -0.34273 0.77648
 H94 H 0.13793 -0.31133 0.70032
 H95 H 0.18879 -0.36099 0.80090
 N96 N 0.23443 -0.20457 0.68880
 N97 N 0.26570 -0.18915 0.70435
 C98 C 0.27630 -0.15814 0.68353
 C99 C 0.25051 -0.15406 0.65367
 C100 C 0.22434 -0.18375 0.65766
 H101 H 0.30091 -0.13984 0.68953
 H102 H 0.19986 -0.18965 0.63922
 H103 H 0.23420 -0.22763 0.75851
 H104 H 0.26519 -0.25901 0.72767
 N105 N 0.68928 -0.23476 0.79645
 N106 N 0.70565 -0.26535 0.81181
 C107 C 0.68529 -0.27612 0.84303
 C108 C 0.65479 -0.25091 0.84719
 C109 C 0.65799 -0.22503 0.81733
 H110 H 0.69200 -0.30041 0.86134
 H111 H 0.63897 -0.20104 0.81124
 Cu112 Cu 0.75188 -0.28801 0.78933
 Cu113 Cu 0.70962 -0.20991 0.75051
 Cu114 Cu 0.79147 -0.25043 0.70947
 N115 N 0.79743 -0.31089 0.76573
 N116 N 0.81281 -0.29595 0.73451
 C117 C 0.84379 -0.31705 0.72413
 C118 C 0.84777 -0.34661 0.75028
 C119 C 0.81811 -0.34208 0.77632
 H120 H 0.86193 -0.31138 0.69946
 H121 H 0.81211 -0.36013 0.80095
 N122 N 0.76563 -0.20439 0.68839
 N123 N 0.73445 -0.18897 0.70404
 C124 C 0.72372 -0.15803 0.68317
 C125 C 0.74936 -0.15400 0.65320
 C126 C 0.77554 -0.18365 0.65714
 H127 H 0.69915 -0.13974 0.68923
 H128 H 0.79991 -0.18958 0.63861
 H129 H 0.73533 -0.25865 0.72787
 H130 H 0.76653 -0.22675 0.75804
 N131 N 0.31173 0.23450 0.79571
 N132 N 0.29585 0.26548 0.81079
 C133 C 0.31638 0.27627 0.84190
 C134 C 0.34649 0.25068 0.84627
 C135 C 0.34290 0.22452 0.81668
 H136 H 0.31005 0.30082 0.86002
 H137 H 0.36152 0.20016 0.81086
 Cu138 Cu 0.24996 0.28859 0.78831
 Cu139 Cu 0.29089 0.20950 0.75004
 Cu140 Cu 0.20888 0.25041 0.70951
 N141 N 0.20407 0.31125 0.76537
 N142 N 0.18806 0.29611 0.73455
 C143 C 0.15677 0.31706 0.72478
 C144 C 0.15325 0.34671 0.75090
 C145 C 0.18351 0.34239 0.77627
 H146 H 0.13801 0.31116 0.70060
 H147 H 0.18993 0.36053 0.80075
 N148 N 0.23422 0.20418 0.68841
 N149 N 0.26544 0.18857 0.70384
 C150 C 0.27565 0.15743 0.68301
 C151 C 0.24963 0.15351 0.65332
 C152 C 0.22377 0.18338 0.65738
 H153 H 0.30009 0.13891 0.68896
 H154 H 0.19919 0.18937 0.63910
 H155 H 0.26554 0.25820 0.72706
 H156 H 0.23442 0.22707 0.75803
 N157 N 0.31222 -0.23399 0.20422
 N158 N 0.29598 -0.26457 0.18862
 C159 C 0.31645 -0.27509 0.15738
 C160 C 0.34687 -0.24971 0.15351
 C161 C 0.34352 -0.22402 0.18350
 H162 H 0.30987 -0.29931 0.13890
 H163 H 0.36242 -0.19996 0.18977
 Cu164 Cu 0.25000 -0.28753 0.21118
 Cu165 Cu 0.29164 -0.20932 0.25012
 Cu166 Cu 0.20930 -0.24989 0.29035
 N167 N 0.20379 -0.31005 0.23367
 N168 N 0.18811 -0.29520 0.26478
 C169 C 0.15685 -0.31615 0.27456
 C170 C 0.15296 -0.34550 0.24816
 C171 C 0.18301 -0.34100 0.22259
 H172 H 0.13838 -0.31052 0.29900
 H173 H 0.18918 -0.35896 0.19794
 N174 N 0.23514 -0.20403 0.31182
 N175 N 0.26648 -0.18859 0.29648
 C176 C 0.27706 -0.15768 0.31748
 C177 C 0.25118 -0.15374 0.34722
 C178 C 0.22498 -0.18335 0.34301
 H179 H 0.30165 -0.13933 0.31162
 H180 H 0.20039 -0.18924 0.36127
 H181 H 0.26570 -0.25807 0.27287
 H182 H 0.23485 -0.22639 0.24222
 N183 N 0.68762 0.23406 0.20466
 N184 N 0.70320 0.26529 0.18976
 C185 C 0.68272 0.27585 0.15855
 C186 C 0.65299 0.24981 0.15391
 C187 C 0.65673 0.22368 0.18347
 H188 H 0.68895 0.30042 0.14044
 H189 H 0.63849 0.19895 0.18902
 Cu190 Cu 0.74903 0.28867 0.21226
 Cu191 Cu 0.70868 0.20896 0.25010
 Cu192 Cu 0.79059 0.24993 0.29060
 N193 N 0.79486 0.31136 0.23542
 N194 N 0.81109 0.29587 0.26593
 C195 C 0.84228 0.31683 0.27593
 C196 C 0.84554 0.34689 0.25032
 C197 C 0.81522 0.34280 0.22496
 H198 H 0.86115 0.31070 0.29996
 H199 H 0.80863 0.36128 0.20080
 N200 N 0.76556 0.20347 0.31145
 N201 N 0.73429 0.18786 0.29610
 C202 C 0.72412 0.15671 0.31694
 C203 C 0.75023 0.15283 0.34656
 C204 C 0.77609 0.18271 0.34244
 H205 H 0.69958 0.13825 0.31112
 H206 H 0.80062 0.18882 0.36074
 H207 H 0.73391 0.25773 0.27330
 H208 H 0.76502 0.22699 0.24188
 C209 C 0.25150 -0.02000 0.37942
 C210 C 0.24972 0.01951 0.37935
 C211 C 0.24896 0.03105 0.41752
 N212 N 0.25016 -0.00017 0.44073
 C213 C 0.25171 -0.03144 0.41762
 C214 C 0.24824 0.06988 0.42996
 C215 C 0.24871 0.08192 0.46890
 C216 C 0.25306 0.11995 0.48060
 C217 C 0.25310 0.11992 0.52005
 C218 C 0.24876 0.08186 0.53167
 N219 N 0.24538 0.05900 0.50027
 C220 C 0.24833 0.06975 0.57059
 C221 C 0.24901 0.03095 0.58311
 C222 C 0.24987 0.01952 0.62132
 C223 C 0.25157 -0.01999 0.62136
 C224 C 0.25164 -0.03154 0.58319
 N225 N 0.25007 -0.00034 0.56000
 C226 C 0.25190 -0.07036 0.57073
 C227 C 0.25101 -0.08236 0.53180
 C228 C 0.24586 -0.12029 0.52010
 C229 C 0.24590 -0.12025 0.48065
 C230 C 0.25108 -0.08229 0.46906
 N231 N 0.25488 -0.05950 0.50046
 C232 C 0.25205 -0.07023 0.43016
 H233 H 0.25230 -0.03820 0.35415
 H234 H 0.24922 0.03763 0.35404
 H235 H 0.26254 -0.03065 0.50045
 H236 H 0.25640 0.14519 0.46260
 H237 H 0.25647 0.14513 0.53810
 H238 H 0.24952 0.03772 0.64659
 H239 H 0.25245 -0.03812 0.64667
 H240 H 0.24206 -0.14539 0.46259
 H241 H 0.23857 0.02996 0.50029
 H242 H 0.24198 -0.14546 0.53810
 C243 C 0.75130 0.12100 0.48022
 C244 C 0.74977 0.12110 0.51960
 C245 C 0.74894 0.08280 0.53110
 N246 N 0.74986 0.05948 0.50000
 C247 C 0.75130 0.08265 0.46883
 C248 C 0.74838 0.07033 0.56980
 C249 C 0.74868 0.03124 0.58182
 C250 C 0.75302 0.01951 0.61971
 C251 C 0.75288 -0.02010 0.61968
 C252 C 0.74846 -0.03180 0.58178
 N253 N 0.74519 -0.00028 0.55901
 C254 C 0.74787 -0.07089 0.56972
 C255 C 0.74839 -0.08348 0.53104
 C256 C 0.74911 -0.12183 0.51962
 C257 C 0.75063 -0.12188 0.48024
 C258 C 0.75075 -0.08357 0.46876
 N259 N 0.74937 -0.06028 0.49987
 C260 C 0.75088 -0.07108 0.43007
 C261 C 0.75009 -0.03201 0.41812
 C262 C 0.74491 -0.02029 0.38034
 C263 C 0.74505 0.01930 0.38037
 C264 C 0.75031 0.03098 0.41817
 N265 N 0.75409 -0.00053 0.44088
 C266 C 0.75139 0.07003 0.43018
 H267 H 0.75208 0.14635 0.46208
 H268 H 0.74948 0.14653 0.53765
 H269 H 0.76179 -0.00052 0.46961
 H270 H 0.75645 0.03760 0.64484
 H271 H 0.75619 -0.03820 0.64480
 H272 H 0.74877 -0.14719 0.53774
 H273 H 0.75137 -0.14728 0.46216
 H274 H 0.74123 0.03741 0.35532
 H275 H 0.73839 -0.00029 0.53007
 H276 H 0.74097 -0.03836 0.35526
 C277 C 0.37838 0.25271 -0.02011
 C278 C 0.37828 0.25103 0.01925
 C279 C 0.41668 0.25021 0.03079
 N280 N 0.44006 0.25132 -0.00028
 C281 C 0.41684 0.25282 -0.03146
 C282 C 0.42918 0.24939 0.06948
 C283 C 0.46836 0.24989 0.08151
 C284 C 0.48008 0.25412 0.11942
 C285 C 0.51977 0.25413 0.11944
 C286 C 0.53151 0.24990 0.08153
 N287 N 0.49994 0.24664 0.05870
 C288 C 0.57068 0.24936 0.06955
 C289 C 0.58335 0.25018 0.03093
 C290 C 0.62181 0.25100 0.01960
 C291 C 0.62190 0.25278 -0.01977
 C292 C 0.58350 0.25293 -0.03133
 N293 N 0.56013 0.25135 -0.00028
 C294 C 0.57100 0.25317 -0.07002
 C295 C 0.53183 0.25218 -0.08202
 C296 C 0.52011 0.24680 -0.11979
 C297 C 0.48041 0.24670 -0.11980
 C298 C 0.46868 0.25202 -0.08203
 N299 N 0.50025 0.25606 -0.05930
 C300 C 0.42951 0.25291 -0.07009
 H301 H 0.35297 0.25349 -0.03828
 H302 H 0.35280 0.25061 0.03729
 H303 H 0.50019 0.26385 -0.03059
 H304 H 0.46195 0.25738 0.14456
 H305 H 0.53791 0.25739 0.14460
 H306 H 0.64722 0.25053 0.03778
 H307 H 0.64739 0.25360 -0.03779
 H308 H 0.46228 0.24266 -0.14485
 H309 H 0.49999 0.23992 0.02975
 H310 H 0.53825 0.24285 -0.14482
 C311 C 0.48105 0.74989 0.12134
 C312 C 0.52066 0.74821 0.12141
 C313 C 0.53220 0.74737 0.08324
 N314 N 0.50087 0.74842 0.06003
 C315 C 0.46954 0.74997 0.08314
 C316 C 0.57113 0.74678 0.07080
 C317 C 0.58320 0.74721 0.03186
 C318 C 0.62131 0.75165 0.02019
 C319 C 0.62127 0.75167 -0.01927
 C320 C 0.58312 0.74725 -0.03093
 N321 N 0.56023 0.74381 0.00047
 C322 C 0.57096 0.74683 -0.06987
 C323 C 0.53202 0.74737 -0.08238
 C324 C 0.52050 0.74827 -0.12058
 C325 C 0.48087 0.74980 -0.12061
 C326 C 0.46933 0.74973 -0.08245
 N327 N 0.50066 0.74824 -0.05926
 C328 C 0.43039 0.74986 -0.07000
 C329 C 0.41839 0.74903 -0.03106
 C330 C 0.38035 0.74400 -0.01936
 C331 C 0.38042 0.74412 0.02009
 C332 C 0.41849 0.74922 0.03170
 N333 N 0.44133 0.75290 0.00030
 C334 C 0.43062 0.75028 0.07060
 H335 H 0.46283 0.75074 0.14661
 H336 H 0.53886 0.74785 0.14672
 H337 H 0.47026 0.76047 0.00030
 H338 H 0.64661 0.75506 0.03821
 H339 H 0.64653 0.75510 -0.03730
 H340 H 0.53872 0.74807 -0.14585
 H341 H 0.46267 0.75068 -0.14592
 H342 H 0.35522 0.74041 0.03815
 H343 H 0.53112 0.73699 0.00044
 H344 H 0.35509 0.74019 -0.03736
 C345 C -0.02064 0.37940 0.24998
 C346 C 0.01897 0.37934 0.24824
 C347 C 0.03053 0.41765 0.24732
 N348 N -0.00075 0.44095 0.24838
 C349 C -0.03210 0.41775 0.25000
 C350 C 0.06946 0.43014 0.24663
 C351 C 0.08152 0.46922 0.24706
 C352 C 0.11962 0.48099 0.25161
 C353 C 0.11956 0.52059 0.25155
 C354 C 0.08143 0.53222 0.24695
 N355 N 0.05855 0.50068 0.24352
 C356 C 0.06927 0.57125 0.24632
 C357 C 0.03037 0.58381 0.24683
 C358 C 0.01891 0.62216 0.24758
 C359 C -0.02070 0.62220 0.24919
 C360 C -0.03227 0.58389 0.24933
 N361 N -0.00099 0.56060 0.24788
 C362 C -0.07119 0.57138 0.24959
 C363 C -0.08321 0.53231 0.24883
 C364 C -0.12124 0.52053 0.24377
 C365 C -0.12118 0.48093 0.24395
 C366 C -0.08311 0.46934 0.24912
 N367 N -0.06028 0.50087 0.25277
 C368 C -0.07098 0.43032 0.25028
 H369 H -0.03888 0.35404 0.25089
 H370 H 0.03714 0.35393 0.24792
 H371 H -0.03135 0.50090 0.26039
 H372 H 0.14490 0.46295 0.25517
 H373 H 0.14480 0.53874 0.25504
 H374 H 0.03716 0.64754 0.24723
 H375 H -0.03887 0.64760 0.24999
 H376 H -0.14637 0.46276 0.24022
 H377 H 0.02948 0.50067 0.23655
 H378 H -0.14648 0.53857 0.23988
 C379 C 0.12133 0.48075 0.75311
 C380 C 0.12145 0.52028 0.75158
 C381 C 0.08307 0.53184 0.75076
 N382 N 0.05966 0.50063 0.75170
 C383 C 0.08286 0.46933 0.75312
 C384 C 0.07060 0.57069 0.75008
 C385 C 0.03140 0.58275 0.75040
 C386 C 0.01968 0.62080 0.75451
 C387 C -0.02003 0.62079 0.75442
 C388 C -0.03180 0.58272 0.75025
 N389 N -0.00021 0.55984 0.74711
 C390 C -0.07100 0.57065 0.74969
 C391 C -0.08367 0.53183 0.75030
 C392 C -0.12213 0.52039 0.75102
 C393 C -0.12222 0.48085 0.75255
 C394 C -0.08383 0.46929 0.75267
 N395 N -0.06046 0.50051 0.75130
 C396 C -0.07132 0.43044 0.75276
 C397 C -0.03214 0.41846 0.75192
 C398 C -0.02040 0.38055 0.74664
 C399 C 0.01929 0.38058 0.74673
 C400 C 0.03101 0.41851 0.75207
 N401 N -0.00057 0.44129 0.75592
 C402 C 0.07018 0.43054 0.75312
 H403 H 0.14672 0.46253 0.75387
 H404 H 0.14696 0.53839 0.75126
 H405 H -0.00053 0.47011 0.76366
 H406 H 0.03783 0.64605 0.75773
 H407 H -0.03816 0.64604 0.75756
 H408 H -0.14753 0.53860 0.75065
 H409 H -0.14770 0.46271 0.75325
 H410 H 0.03743 0.35545 0.74283
 H411 H -0.00026 0.53077 0.74053
 H412 H -0.03853 0.35540 0.74265
 C413 C 0.37521 0.24958 0.12379
 C414 C 0.39968 0.24954 0.09911
 C415 C 0.62570 0.74830 0.12464
 C416 C 0.60097 0.74758 0.10017
 C417 C 0.62511 0.25185 -0.12419
 C418 C 0.60053 0.25248 -0.09963
 C419 C 0.37575 0.74903 -0.12378
 C420 C 0.40050 0.74932 -0.09933
 C421 C 0.12384 0.37604 0.24781
 C422 C 0.09924 0.40067 0.24726
 C423 C 0.12479 0.62516 0.75075
 C424 C 0.10019 0.60045 0.75052
 C425 C -0.12558 0.62546 0.24869
 C426 C -0.10099 0.60082 0.24903
 C427 C -0.12510 0.37561 0.75133
 C428 C -0.10078 0.40058 0.75195
 C429 C 0.24919 0.12431 0.37622
 C430 C 0.24875 0.09962 0.40062
 C431 C 0.74970 0.12447 0.62393
 C432 C 0.74914 0.09986 0.59942
 C433 C 0.25089 -0.12479 0.62447
 C434 C 0.25133 -0.10013 0.60005
 C435 C 0.74961 -0.12494 0.37573
 C436 C 0.75013 -0.10049 0.40039
 C437 C 0.62546 0.74829 -0.12363
 C438 C 0.60076 0.74761 -0.09920
 C439 C 0.37566 0.25135 -0.12443
 C440 C 0.40011 0.25205 -0.09977
 C441 C 0.37613 0.75009 0.12431
 C442 C 0.40082 0.75011 0.09989
 C443 C 0.62426 0.24969 0.12418
 C444 C 0.60003 0.24955 0.09929
 C445 C -0.12480 0.62533 0.75018
 C446 C -0.10043 0.60047 0.74999
 C447 C -0.12535 0.37632 0.25014
 C448 C -0.10075 0.40091 0.25014
 C449 C 0.12405 0.37606 0.75165
 C450 C 0.09959 0.40078 0.75233
 C451 C 0.12368 0.62523 0.24747
 C452 C 0.09903 0.60068 0.24692
 C453 C 0.74888 -0.12484 0.62392
 C454 C 0.74842 -0.10033 0.59935
 C455 C 0.25139 -0.12457 0.37644
 C456 C 0.25167 -0.09996 0.40088
 C457 C 0.75049 0.12374 0.37585
 C458 C 0.75087 0.09937 0.40051
 C459 C 0.24926 0.12415 0.62428
 C460 C 0.24885 0.09948 0.59989
   
