data_POSCAR
  _audit_creation_date              2014-09-24
  _audit_creation_method            'ToBaCCo'
  _symmetry_space_group_name_H-M    'P1'
  _symmetry_Int_Tables_number       1
  _symmetry_cell_setting            triclinic
  loop_
  _symmetry_equiv_pos_as_xyz
 x,y,z
_cell_length_a 29.5804
_cell_length_b 29.3601
_cell_length_c 29.3711
_cell_angle_alpha 90.185400
_cell_angle_beta 90.113000
_cell_angle_gamma 89.900700
loop_
  _atom_site_label
  _atom_site_type_symbol
  _atom_site_fract_x
  _atom_site_fract_y
  _atom_site_fract_z
C1 C 0.45947 1.00018 -0.52488
 C2 C 0.45957 1.00000 -0.47688
 C3 C 0.50089 1.00009 -0.45341
 C4 C 0.54220 1.00019 -0.47682
 C5 C 0.54212 1.00006 -0.52491
 C6 C 0.50073 1.00013 -0.54836
 H7 H 0.50063 1.00015 -0.58536
 H8 H 0.50079 1.00006 -0.41642
 C9 C -0.54219 1.47691 0.00020
 C10 C -0.54216 1.52491 -0.00005
 C11 C -0.50087 1.54830 -0.00005
 C12 C -0.45971 1.52464 0.00003
 C13 C -0.45977 1.47672 -0.00005
 C14 C -0.50099 1.45331 0.00012
 H15 H -0.50100 1.41634 0.00018
 H16 H -0.50068 1.58530 -0.00011
 C17 C 0.00004 0.47562 0.45872
 C18 C -0.00009 0.52355 0.45853
 C19 C 0.00038 0.54741 0.49985
 C20 C 0.00079 0.52417 0.54141
 C21 C 0.00056 0.47623 0.54160
 C22 C 0.00028 0.45237 0.50027
 H23 H 0.00024 0.41538 0.50055
 H24 H 0.00041 0.58441 0.49957
 O25 O -0.11655 1.00143 -0.06244
 O26 O 0.11668 0.99822 -0.06154
 O27 O -0.00145 1.06159 -0.11695
 O28 O 0.00189 0.93800 -0.11723
 O29 O 0.00182 0.88283 -0.06141
 O30 O -0.00161 1.11682 -0.06083
 O31 O 0.06119 0.99825 -0.11704
 O32 O -0.06085 1.00133 -0.11751
 Zr33 Zr 0.00010 0.99982 -0.08012
 O34 O 0.04122 0.95865 -0.04119
 O35 O -0.04118 1.04105 -0.04132
 C36 C -0.10264 1.00211 -0.10435
 C37 C 0.10292 0.99749 -0.10356
 C38 C -0.00225 1.10349 -0.10286
 C39 C 0.00270 0.89612 -0.10336
 H40 H 0.06019 1.06028 -0.06011
 O41 O 0.04097 1.04078 -0.04080
 H42 H -0.06006 0.93935 -0.06089
 O43 O -0.04093 0.95889 -0.04134
 O44 O 0.11645 1.00133 0.06255
 O45 O -0.11677 0.99850 0.06165
 O46 O 0.06069 1.11689 0.00212
 O47 O 0.06090 0.88275 -0.00155
 O48 O -0.06080 0.88286 0.00111
 O49 O -0.06100 1.11699 -0.00145
 O50 O 0.00126 1.06177 0.11737
 O51 O -0.00187 0.93818 0.11704
 O52 O 0.00131 1.11692 0.06153
 O53 O -0.00171 0.88293 0.06095
 O54 O 0.11648 1.06175 0.00218
 O55 O -0.11669 1.06194 -0.00178
 O56 O -0.11658 0.93800 0.00104
 O57 O 0.11659 0.93780 -0.00121
 O58 O 0.06076 1.00141 0.11763
 O59 O -0.06127 0.99852 0.11715
 Zr60 Zr 0.07999 0.99980 0.00037
 Zr61 Zr -0.08009 0.99994 -0.00026
 Zr62 Zr -0.00012 1.07960 0.00026
 Zr63 Zr 0.00002 0.92015 -0.00014
 Zr64 Zr -0.00019 0.99994 0.08024
 O65 O -0.04124 0.95879 0.04110
 O66 O 0.04101 1.04105 0.04163
 C67 C 0.10255 1.00209 0.10446
 C68 C -0.10301 0.99781 0.10367
 C69 C 0.10248 1.10366 0.00296
 C70 C 0.10266 0.89591 -0.00212
 C71 C -0.10258 0.89610 0.00176
 C72 C -0.10276 1.10382 -0.00238
 C73 C 0.00199 1.10365 0.10349
 C74 C -0.00262 0.89629 0.10296
 H75 H -0.06040 1.06048 0.06052
 O76 O -0.04114 1.04091 0.04112
 H77 H 0.06007 0.93934 0.06070
 O78 O 0.04090 0.95889 0.04125
 C79 C 0.42046 1.00055 0.45006
 C80 C 0.38782 1.00101 0.42532
 C81 C 0.35106 1.00166 0.39303
 C82 C 0.33688 1.04297 0.37404
 C83 C 0.30476 1.04336 0.33900
 C84 C 0.28648 1.00233 0.32228
 C85 C 0.30018 0.96105 0.34235
 C86 C 0.33229 0.96075 0.37740
 C87 C 0.25440 1.00253 0.28317
 C88 C 0.25763 0.96928 0.24866
 C89 C 0.22792 0.96978 0.21153
 C90 C 0.19459 1.00350 0.20829
 C91 C 0.19108 1.03673 0.24240
 C92 C 0.22077 1.03632 0.27955
 C93 C 0.16322 1.00334 0.17064
 C94 C 0.13615 1.00294 0.13984
 H95 H 0.35157 1.07482 0.38544
 H96 H 0.29539 1.07566 0.32397
 H97 H 0.28629 0.92895 0.33073
 H98 H 0.34320 0.92854 0.39160
 H99 H 0.28355 0.94323 0.25001
 H100 H 0.23095 0.94385 0.18538
 H101 H 0.16521 1.06283 0.24043
 H102 H 0.21705 1.06208 0.30574
 C103 C -0.41905 0.99969 0.44983
 C104 C -0.38664 0.99922 0.42491
 C105 C -0.35018 0.99854 0.39242
 C106 C -0.33175 1.03945 0.37669
 C107 C -0.29996 1.03909 0.34148
 C108 C -0.28623 0.99775 0.32133
 C109 C -0.30417 0.95674 0.33813
 C110 C -0.33598 0.95719 0.37333
 C111 C -0.25443 0.99746 0.28211
 C112 C -0.22066 0.96382 0.27840
 C113 C -0.19117 0.96336 0.24120
 C114 C -0.19503 0.99639 0.20713
 C115 C -0.22853 1.02995 0.21046
 C116 C -0.25804 1.03049 0.24763
 C117 C -0.16377 0.99657 0.16952
 C118 C -0.13670 0.99697 0.13882
 H119 H -0.34269 1.07170 0.39096
 H120 H -0.28632 1.07118 0.32980
 H121 H -0.29478 0.92439 0.32305
 H122 H -0.35041 0.92534 0.38480
 H123 H -0.21665 0.93823 0.30456
 H124 H -0.16517 0.93740 0.23917
 H125 H -0.23182 1.05573 0.18435
 H126 H -0.28407 1.05642 0.24907
 C127 C -0.41890 1.00058 -0.45152
 C128 C -0.38641 1.00104 -0.42657
 C129 C -0.34985 1.00171 -0.39405
 C130 C -0.33109 0.96080 -0.37850
 C131 C -0.29920 0.96112 -0.34324
 C132 C -0.28573 1.00241 -0.32287
 C133 C -0.30401 1.04343 -0.33950
 C134 C -0.33590 1.04303 -0.37475
 C135 C -0.25388 1.00263 -0.28357
 C136 C -0.22036 1.03639 -0.27958
 C137 C -0.19085 1.03680 -0.24228
 C138 C -0.19445 1.00360 -0.20837
 C139 C -0.22769 0.96992 -0.21197
 C140 C -0.25721 0.96942 -0.24925
 C141 C -0.16322 1.00341 -0.17061
 C142 C -0.13622 1.00298 -0.13974
 H143 H -0.34183 0.92858 -0.39293
 H144 H -0.28531 0.92902 -0.33169
 H145 H -0.29482 1.07574 -0.32425
 H146 H -0.35059 1.07487 -0.38608
 H147 H -0.21655 1.06212 -0.30561
 H148 H -0.16505 1.06287 -0.24004
 H149 H -0.23079 0.94401 -0.18599
 H150 H -0.28306 0.94340 -0.25089
 C151 C 0.41858 0.99955 -0.45012
 C152 C 0.38636 0.99903 -0.42499
 C153 C 0.35006 0.99829 -0.39232
 C154 C 0.33619 0.95692 -0.37338
 C155 C 0.30446 0.95642 -0.33813
 C156 C 0.28624 0.99740 -0.32112
 C157 C 0.29966 1.03875 -0.34109
 C158 C 0.33139 1.03916 -0.37637
 C159 C 0.25446 0.99707 -0.28190
 C160 C 0.25783 1.03019 -0.24727
 C161 C 0.22830 1.02963 -0.21012
 C162 C 0.19501 0.99598 -0.20696
 C163 C 0.19140 0.96286 -0.24117
 C164 C 0.22091 0.96333 -0.27835
 C165 C 0.16372 0.99617 -0.16938
 C166 C 0.13662 0.99660 -0.13870
 H167 H 0.35081 0.92510 -0.38504
 H168 H 0.29531 0.92407 -0.32318
 H169 H 0.28581 1.07082 -0.32926
 H170 H 0.34206 1.07142 -0.39052
 H171 H 0.28369 1.05620 -0.24859
 H172 H 0.23140 1.05549 -0.18390
 H173 H 0.16556 0.93683 -0.23928
 H174 H 0.21707 0.93767 -0.30463
 C175 C 0.41676 1.45040 0.00074
 C176 C 0.38435 1.42557 0.00134
 C177 C 0.34784 1.39326 0.00216
 C178 C 0.33416 1.37425 0.04353
 C179 C 0.30237 1.33907 0.04406
 C180 C 0.28397 1.32227 0.00311
 C181 C 0.29710 1.34240 -0.03822
 C182 C 0.32888 1.37759 -0.03866
 C183 C 0.25244 1.28293 0.00343
 C184 C 0.25615 1.24828 -0.02961
 C185 C 0.22694 1.21090 -0.02900
 C186 C 0.19369 1.20758 0.00463
 C187 C 0.18973 1.24182 0.03767
 C188 C 0.21893 1.27923 0.03715
 C189 C 0.16274 1.16981 0.00446
 C190 C 0.13590 1.13896 0.00398
 H191 H 0.34902 1.38573 0.07530
 H192 H 0.29339 1.32396 0.07638
 H193 H 0.28307 1.33067 -0.07024
 H194 H 0.33944 1.39185 -0.07091
 H195 H 0.28203 1.24976 -0.05557
 H196 H 0.23025 1.18464 -0.05478
 H197 H 0.16388 1.23975 0.06367
 H198 H 0.21490 1.30554 0.06274
 C199 C 0.41891 0.54996 -0.00046
 C200 C 0.38623 0.57456 -0.00097
 C201 C 0.34940 0.60664 -0.00169
 C202 C 0.33534 0.62564 -0.04301
 C203 C 0.30327 0.66068 -0.04344
 C204 C 0.28498 0.67735 -0.00243
 C205 C 0.29849 0.65720 0.03885
 C206 C 0.33054 0.62215 0.03918
 C207 C 0.25323 0.71661 -0.00263
 C208 C 0.25694 0.75123 0.03044
 C209 C 0.22756 0.78858 0.02990
 C210 C 0.19413 0.79190 -0.00368
 C211 C 0.19014 0.75768 -0.03674
 C212 C 0.21951 0.72030 -0.03629
 C213 C 0.16306 0.82968 -0.00348
 C214 C 0.13615 0.86056 -0.00303
 H215 H 0.35012 0.61428 -0.07482
 H216 H 0.29400 0.67580 -0.07571
 H217 H 0.28455 0.66883 0.07092
 H218 H 0.34140 0.60790 0.07139
 H219 H 0.28298 0.74976 0.05636
 H220 H 0.23090 0.81483 0.05570
 H221 H 0.16416 0.75975 -0.06271
 H222 H 0.21548 0.69401 -0.06191
 C223 C -0.41855 0.55092 0.00038
 C224 C -0.38599 0.57555 0.00083
 C225 C -0.34926 0.60762 0.00147
 C226 C -0.33510 0.62681 0.04277
 C227 C -0.30306 0.66177 0.04314
 C228 C -0.28489 0.67816 0.00210
 C229 C -0.29850 0.65783 -0.03917
 C230 C -0.33054 0.62286 -0.03945
 C231 C -0.25311 0.71729 0.00225
 C232 C -0.25690 0.75175 -0.03077
 C233 C -0.22749 0.78898 -0.03027
 C234 C -0.19397 0.79233 0.00323
 C235 C -0.18990 0.75827 0.03623
 C236 C -0.21929 0.72102 0.03581
 C237 C -0.16291 0.83001 0.00302
 C238 C -0.13602 0.86081 0.00260
 H239 H -0.34977 0.61566 0.07460
 H240 H -0.29370 0.67704 0.07540
 H241 H -0.28466 0.66925 -0.07126
 H242 H -0.34146 0.60846 -0.07164
 H243 H -0.28301 0.75025 -0.05662
 H244 H -0.23090 0.81511 -0.05602
 H245 H -0.16385 0.76038 0.06213
 H246 H -0.21521 0.69484 0.06139
 C247 C -0.41868 1.45018 -0.00049
 C248 C -0.38618 1.42536 -0.00100
 C249 C -0.34952 1.39308 -0.00172
 C250 C -0.33068 1.37763 0.03916
 C251 C -0.29869 1.34251 0.03880
 C252 C -0.28525 1.32224 -0.00252
 C253 C -0.30355 1.33883 -0.04352
 C254 C -0.33554 1.37394 -0.04307
 C255 C -0.25348 1.28298 -0.00278
 C256 C -0.21978 1.27923 -0.03634
 C257 C -0.19038 1.24189 -0.03683
 C258 C -0.19431 1.20776 -0.00391
 C259 C -0.22773 1.21114 0.02957
 C260 C -0.25715 1.24846 0.03015
 C261 C -0.16320 1.17001 -0.00375
 C262 C -0.13626 1.13916 -0.00331
 H263 H -0.34147 1.39200 0.07139
 H264 H -0.28475 1.33094 0.07086
 H265 H -0.29432 1.32361 -0.07583
 H266 H -0.35031 1.38526 -0.07487
 H267 H -0.21578 1.30546 -0.06184
 H268 H -0.16441 1.23977 -0.06271
 H269 H -0.23103 1.18495 0.05526
 H270 H -0.28317 1.24997 0.05599
 C271 C 0.00010 1.45055 0.41959
 C272 C 0.00029 1.42611 0.38661
 C273 C 0.00064 1.39425 0.34944
 C274 C 0.04179 1.37879 0.33177
 C275 C 0.04243 1.34367 0.29957
 C276 C 0.00184 1.32352 0.28479
 C277 C -0.03943 1.34020 0.30182
 C278 C -0.03998 1.37529 0.33404
 C279 C 0.00255 1.28412 0.25312
 C280 C -0.02964 1.28049 0.21800
 C281 C -0.02957 1.24277 0.18892
 C282 C 0.00255 1.20821 0.19461
 C283 C 0.03479 1.21151 0.22934
 C284 C 0.03481 1.24923 0.25847
 C285 C 0.00286 1.16997 0.16402
 C286 C 0.00270 1.13890 0.13719
 H287 H 0.07343 1.39305 0.34374
 H288 H 0.07466 1.33195 0.28658
 H289 H -0.07119 1.32501 0.29151
 H290 H -0.07198 1.38666 0.34796
 H291 H -0.05456 1.30703 0.21276
 H292 H -0.05447 1.24063 0.16189
 H293 H 0.05983 1.18493 0.23395
 H294 H 0.05957 1.25075 0.28563
 C295 C 0.00041 1.45011 -0.41697
 C296 C 0.00013 1.42573 -0.38412
 C297 C -0.00033 1.39392 -0.34711
 C298 C 0.04023 1.37485 -0.33167
 C299 C 0.03959 1.33978 -0.29966
 C300 C -0.00174 1.32324 -0.28287
 C301 C -0.04229 1.34351 -0.29768
 C302 C -0.04155 1.37860 -0.32968
 C303 C -0.00255 1.28386 -0.25144
 C304 C -0.03477 1.24906 -0.25711
 C305 C -0.03484 1.21135 -0.22821
 C306 C -0.00272 1.20797 -0.19339
 C307 C 0.02937 1.24245 -0.18738
 C308 C 0.02951 1.28016 -0.21623
 C309 C -0.00309 1.16975 -0.16303
 C310 C -0.00296 1.13870 -0.13639
 H311 H 0.07228 1.38611 -0.34541
 H312 H 0.07131 1.32450 -0.28932
 H313 H -0.07456 1.33189 -0.28488
 H314 H -0.07315 1.39295 -0.34169
 H315 H -0.05944 1.25064 -0.28435
 H316 H -0.05985 1.18485 -0.23307
 H317 H 0.05418 1.24025 -0.16028
 H318 H 0.05440 1.30662 -0.21074
 C319 C 0.00154 0.54923 -0.41946
 C320 C 0.00231 0.57368 -0.38650
 C321 C 0.00328 0.60555 -0.34935
 C322 C -0.03716 0.62018 -0.32946
 C323 C -0.03679 0.65537 -0.29734
 C324 C 0.00411 0.67646 -0.28488
 C325 C 0.04473 0.66057 -0.30407
 C326 C 0.04426 0.62539 -0.33620
 C327 C 0.00422 0.71605 -0.25344
 C328 C 0.03805 0.72064 -0.22003
 C329 C 0.03841 0.75841 -0.19097
 C330 C 0.00509 0.79205 -0.19504
 C331 C -0.02864 0.78785 -0.22820
 C332 C -0.02909 0.75012 -0.25726
 C333 C 0.00464 0.83000 -0.16410
 C334 C 0.00393 0.86092 -0.13711
 H335 H -0.06909 0.60523 -0.33966
 H336 H -0.06851 0.66646 -0.28264
 H337 H 0.07666 0.67647 -0.29555
 H338 H 0.07569 0.61466 -0.35184
 H339 H 0.06386 0.69476 -0.21601
 H340 H 0.06447 0.76121 -0.16514
 H341 H -0.05464 0.81368 -0.23151
 H342 H -0.05513 0.74789 -0.28313
 C343 C -0.00088 0.54968 0.41710
 C344 C -0.00166 0.57406 0.38425
 C345 C -0.00265 0.60590 0.34727
 C346 C 0.03779 0.62060 0.32764
 C347 C 0.03736 0.65576 0.29572
 C348 C -0.00360 0.67676 0.28322
 C349 C -0.04422 0.66080 0.30214
 C350 C -0.04369 0.62564 0.33406
 C351 C -0.00380 0.71635 0.25202
 C352 C -0.03751 0.72085 0.21849
 C353 C -0.03795 0.75861 0.18966
 C354 C -0.00483 0.79231 0.19407
 C355 C 0.02879 0.78820 0.22735
 C356 C 0.02931 0.75048 0.25620
 C357 C -0.00444 0.83025 0.16335
 C358 C -0.00378 0.86113 0.13653
 H359 H 0.06976 0.60572 0.33789
 H360 H 0.06908 0.66691 0.28122
 H361 H -0.07619 0.67663 0.29357
 H362 H -0.07512 0.61486 0.34950
 H363 H -0.06316 0.69491 0.21420
 H364 H -0.06391 0.76134 0.16372
 H365 H 0.05463 0.81408 0.23094
 H366 H 0.05526 0.74831 0.28216
   
