data_POSCAR
  _audit_creation_date              2014-09-24
  _audit_creation_method            'ToBaCCo'
  _symmetry_space_group_name_H-M    'P1'
  _symmetry_Int_Tables_number       1
  _symmetry_cell_setting            triclinic
  loop_
  _symmetry_equiv_pos_as_xyz
 x,y,z
_cell_length_a 37.8052
_cell_length_b 37.7374
_cell_length_c 23.5382
_cell_angle_alpha 89.995300
_cell_angle_beta 89.856300
_cell_angle_gamma 90.005900
loop_
  _atom_site_label
  _atom_site_type_symbol
  _atom_site_fract_x
  _atom_site_fract_y
  _atom_site_fract_z
C1 C -0.00122 0.26678 -0.02723
 C2 C -0.00054 0.26676 0.03073
 C3 C -0.03361 0.26759 0.06494
 C4 C 0.03322 0.26441 0.06271
 C5 C 0.03185 0.26754 -0.06142
 C6 C -0.03496 0.26451 -0.05926
 C7 C -0.05899 0.29433 0.05696
 C8 C -0.09100 0.29339 0.08685
 C9 C -0.09776 0.26590 0.12549
 C10 C -0.07203 0.23983 0.13491
 C11 C -0.04009 0.24077 0.10498
 C12 C 0.04170 0.29044 0.10309
 C13 C 0.07375 0.28884 0.13254
 C14 C 0.09745 0.26105 0.12226
 C15 C 0.08880 0.23463 0.08291
 C16 C 0.05677 0.23617 0.05350
 C17 C 0.03829 0.24070 -0.10143
 C18 C 0.07021 0.23977 -0.13142
 C19 C 0.09590 0.26581 -0.12207
 C20 C 0.08925 0.29328 -0.08348
 C21 C 0.05728 0.29427 -0.05350
 C22 C -0.05860 0.23633 -0.05009
 C23 C -0.09050 0.23475 -0.07986
 C24 C -0.09893 0.26107 -0.11952
 C25 C -0.07516 0.28883 -0.12969
 C26 C -0.04325 0.29046 -0.09988
 H27 H -0.05422 0.31556 0.02694
 H28 H -0.11055 0.31385 0.07917
 H29 H -0.07678 0.21841 0.16469
 H30 H -0.02080 0.21999 0.11186
 H31 H 0.02374 0.31224 0.11107
 H32 H 0.08011 0.30935 0.16305
 H33 H 0.05038 0.21546 0.02338
 H34 H 0.01899 0.21993 -0.10828
 H35 H 0.07508 0.21842 -0.16121
 H36 H 0.10891 0.31363 -0.07606
 H37 H 0.05256 0.31551 -0.02349
 H38 H -0.05236 0.21567 -0.01981
 H39 H -0.10860 0.21304 -0.07191
 H40 H -0.08135 0.30926 -0.16044
 H41 H -0.02521 0.31221 -0.10785
 H42 H 0.10684 0.21288 0.07487
 C43 C 0.49953 0.76916 0.47169
 C44 C 0.50048 0.76919 0.52963
 C45 C 0.46758 0.77002 0.56417
 C46 C 0.53435 0.76682 0.56127
 C47 C 0.53242 0.76994 0.43713
 C48 C 0.46565 0.76676 0.44007
 C49 C 0.44217 0.79677 0.55642
 C50 C 0.41027 0.79577 0.58656
 C51 C 0.40368 0.76827 0.62512
 C52 C 0.42938 0.74223 0.63436
 C53 C 0.46123 0.74317 0.60422
 C54 C 0.54290 0.79272 0.60181
 C55 C 0.57493 0.79097 0.63127
 C56 C 0.59856 0.76313 0.62084
 C57 C 0.58987 0.73686 0.58125
 C58 C 0.55786 0.73856 0.55182
 C59 C 0.53870 0.74308 0.39707
 C60 C 0.57050 0.74214 0.36680
 C61 C 0.59622 0.76819 0.37591
 C62 C 0.58970 0.79568 0.41451
 C63 C 0.55785 0.79668 0.44478
 C64 C 0.44214 0.73851 0.44956
 C65 C 0.41014 0.73676 0.42010
 C66 C 0.40148 0.76300 0.38042
 C67 C 0.42510 0.79084 0.36996
 C68 C 0.45711 0.79263 0.39946
 H69 H 0.44682 0.81801 0.52637
 H70 H 0.39058 0.81611 0.57923
 H71 H 0.42455 0.72086 0.66412
 H72 H 0.48053 0.72238 0.61091
 H73 H 0.52497 0.81453 0.60999
 H74 H 0.58132 0.81136 0.66197
 H75 H 0.55142 0.71792 0.52160
 H76 H 0.51938 0.72230 0.39045
 H77 H 0.57528 0.72077 0.33701
 H78 H 0.60941 0.81601 0.42175
 H79 H 0.55325 0.81793 0.47482
 H80 H 0.44858 0.71790 0.47984
 H81 H 0.39216 0.71499 0.42827
 H82 H 0.41872 0.81119 0.33919
 H83 H 0.47504 0.81444 0.39124
 H84 H 0.60786 0.71508 0.57310
 C85 C 1.00103 0.73235 -0.02994
 C86 C 1.00010 0.73226 0.02800
 C87 C 1.03300 0.73147 0.06232
 C88 C 0.96623 0.73459 0.05988
 C89 C 0.96812 0.73161 -0.06422
 C90 C 1.03490 0.73483 -0.06181
 C91 C 1.05849 0.70479 0.05434
 C92 C 1.09031 0.70577 0.08445
 C93 C 1.09673 0.73316 0.12323
 C94 C 1.07097 0.75914 0.13264
 C95 C 1.03920 0.75823 0.10252
 C96 C 0.95761 0.70856 0.10025
 C97 C 0.92554 0.71025 0.12987
 C98 C 0.90196 0.73815 0.11975
 C99 C 0.91072 0.76454 0.08034
 C100 C 0.94277 0.76290 0.05076
 C101 C 0.96178 0.75856 -0.10405
 C102 C 0.92992 0.75959 -0.13391
 C103 C 0.90420 0.73354 -0.12461
 C104 C 0.91078 0.70595 -0.08627
 C105 C 0.94269 0.70486 -0.05642
 C106 C 1.05834 0.76312 -0.05242
 C107 C 1.09042 0.76489 -0.08191
 C108 C 1.09924 0.73862 -0.12156
 C109 C 1.07563 0.71075 -0.13197
 C110 C 1.04354 0.70896 -0.10240
 H111 H 1.05394 0.68362 0.02418
 H112 H 1.11004 0.68548 0.07698
 H113 H 1.07567 0.78043 0.16257
 H114 H 1.01984 0.77896 0.10940
 H115 H 0.97550 0.68671 0.10817
 H116 H 0.91908 0.68977 0.16044
 H117 H 0.94927 0.78362 0.02066
 H118 H 0.98109 0.77936 -0.11079
 H119 H 0.92510 0.78103 -0.16351
 H120 H 0.89108 0.68560 -0.07890
 H121 H 0.94733 0.68354 -0.02655
 H122 H 1.05181 0.78373 -0.02214
 H123 H 1.10831 0.78673 -0.07366
 H124 H 1.08203 0.69031 -0.16267
 H125 H 1.02565 0.68713 -0.11053
 H126 H 0.89277 0.78636 0.07244
 C127 C 0.50058 0.23177 0.46992
 C128 C 0.49959 0.23166 0.52788
 C129 C 0.53248 0.23076 0.56223
 C130 C 0.46568 0.23389 0.55977
 C131 C 0.46769 0.23092 0.43557
 C132 C 0.53449 0.23421 0.43808
 C133 C 0.55790 0.20402 0.55423
 C134 C 0.58972 0.20490 0.58435
 C135 C 0.59622 0.23224 0.62316
 C136 C 0.57052 0.25829 0.63260
 C137 C 0.53875 0.25748 0.60247
 C138 C 0.45721 0.20794 0.60035
 C139 C 0.42517 0.20956 0.63009
 C140 C 0.40144 0.23732 0.61989
 C141 C 0.41004 0.26364 0.58023
 C142 C 0.44206 0.26206 0.55054
 C143 C 0.46133 0.25779 0.39561
 C144 C 0.42952 0.25866 0.36559
 C145 C 0.40387 0.23253 0.37485
 C146 C 0.41047 0.20503 0.41334
 C147 C 0.44233 0.20409 0.44336
 C148 C 0.55805 0.26240 0.44761
 C149 C 0.59014 0.26410 0.41812
 C150 C 0.59886 0.23789 0.37837
 C151 C 0.57518 0.21014 0.36783
 C152 C 0.54308 0.20839 0.39736
 H153 H 0.55330 0.18287 0.52404
 H154 H 0.60940 0.18455 0.57686
 H155 H 0.57529 0.27955 0.66256
 H156 H 0.51945 0.27826 0.60938
 H157 H 0.47521 0.18619 0.60838
 H158 H 0.41886 0.18914 0.66083
 H159 H 0.44843 0.28274 0.52029
 H160 H 0.48058 0.27863 0.38887
 H161 H 0.42467 0.28004 0.33588
 H162 H 0.39083 0.18462 0.42071
 H163 H 0.44700 0.18283 0.47333
 H164 H 0.55159 0.28298 0.47798
 H165 H 0.60816 0.28581 0.42637
 H166 H 0.58160 0.18979 0.33702
 H167 H 0.52513 0.18663 0.38911
 H168 H 0.39198 0.28535 0.57225
 C169 C 0.73267 -0.00082 -0.03034
 C170 C 0.73279 -0.00018 0.02761
 C171 C 0.73210 -0.03330 0.06172
 C172 C 0.73518 0.03362 0.05971
 C173 C 0.73179 0.03232 -0.06440
 C174 C 0.73505 -0.03460 -0.06248
 C175 C 0.70547 -0.05882 0.05388
 C176 C 0.70644 -0.09078 0.08394
 C177 C 0.73382 -0.09734 0.12257
 C178 C 0.75981 -0.07153 0.13177
 C179 C 0.75888 -0.03964 0.10169
 C180 C 0.70932 0.04205 0.10043
 C181 C 0.71103 0.07408 0.13017
 C182 C 0.73879 0.09780 0.11982
 C183 C 0.76504 0.08921 0.08008
 C184 C 0.76338 0.05720 0.05038
 C185 C 0.75845 0.03879 -0.10472
 C186 C 0.75928 0.07076 -0.13461
 C187 C 0.73329 0.09652 -0.12485
 C188 C 0.70599 0.08980 -0.08592
 C189 C 0.70512 0.05776 -0.05606
 C190 C 0.76332 -0.05811 -0.05362
 C191 C 0.76497 -0.09013 -0.08331
 C192 C 0.73859 -0.09882 -0.12264
 C193 C 0.71074 -0.07513 -0.13254
 C194 C 0.70907 -0.04310 -0.10278
 H195 H 0.68427 -0.05417 0.02392
 H196 H 0.68608 -0.11045 0.07652
 H197 H 0.78113 -0.07622 0.16156
 H198 H 0.77958 -0.02026 0.10848
 H199 H 0.68756 0.02405 0.10851
 H200 H 0.69066 0.08041 0.16099
 H201 H 0.78397 0.05084 0.01999
 H202 H 0.77917 0.01947 -0.11189
 H203 H 0.78054 0.07557 -0.16462
 H204 H 0.68563 0.10943 -0.07807
 H205 H 0.68401 0.05301 -0.02582
 H206 H 0.78400 -0.05169 -0.02357
 H207 H 0.78679 -0.10809 -0.07544
 H208 H 0.69022 -0.08144 -0.16299
 H209 H 0.68725 -0.02516 -0.11049
 H210 H 0.78675 0.10728 0.07199
 C211 C 0.23176 0.49938 0.47221
 C212 C 0.23175 0.50047 0.53015
 C213 C 0.23087 0.46757 0.56471
 C214 C 0.23409 0.53448 0.56177
 C215 C 0.23101 0.53227 0.43764
 C216 C 0.23400 0.46536 0.44057
 C217 C 0.20410 0.44217 0.55715
 C218 C 0.20510 0.41023 0.58720
 C219 C 0.23260 0.40361 0.62549
 C220 C 0.25866 0.42932 0.63458
 C221 C 0.25773 0.46121 0.60452
 C222 C 0.20823 0.54307 0.60244
 C223 C 0.20993 0.57522 0.63189
 C224 C 0.23767 0.59893 0.62133
 C225 C 0.26390 0.59021 0.58159
 C226 C 0.26224 0.55808 0.55218
 C227 C 0.25788 0.53852 0.39759
 C228 C 0.25889 0.57036 0.36741
 C229 C 0.23290 0.59614 0.37661
 C230 C 0.20538 0.58964 0.41517
 C231 C 0.20431 0.55775 0.44535
 C232 C 0.26209 0.44169 0.44994
 C233 C 0.26369 0.40958 0.42042
 C234 C 0.23748 0.40097 0.38082
 C235 C 0.20980 0.42475 0.37050
 C236 C 0.20815 0.45686 0.40005
 H237 H 0.18286 0.44684 0.52728
 H238 H 0.18475 0.39053 0.57998
 H239 H 0.28004 0.42446 0.66414
 H240 H 0.27853 0.48051 0.61107
 H241 H 0.18649 0.52509 0.61074
 H242 H 0.18958 0.58162 0.66269
 H243 H 0.28285 0.55162 0.52186
 H244 H 0.27863 0.51915 0.39093
 H245 H 0.28027 0.57513 0.33764
 H246 H 0.18508 0.60940 0.42247
 H247 H 0.18306 0.55316 0.47540
 H248 H 0.28269 0.44808 0.48013
 H249 H 0.28535 0.39149 0.42849
 H250 H 0.18946 0.41843 0.33979
 H251 H 0.18647 0.47491 0.39191
 H252 H 0.28560 0.60826 0.57333
 C253 C 0.26729 1.00081 -0.02960
 C254 C 0.26734 1.00021 0.02836
 C255 C 0.26804 1.03335 0.06240
 C256 C 0.26511 0.96643 0.06055
 C257 C 0.26796 0.96765 -0.06361
 C258 C 0.26495 1.03458 -0.06179
 C259 C 0.29462 1.05891 0.05422
 C260 C 0.29363 1.09088 0.08425
 C261 C 0.26629 1.09741 0.12319
 C262 C 0.24036 1.07156 0.13273
 C263 C 0.24131 1.03966 0.10268
 C264 C 0.29117 0.95804 0.10076
 C265 C 0.28963 0.92603 0.13058
 C266 C 0.26184 0.90228 0.12083
 C267 C 0.23539 0.91083 0.08161
 C268 C 0.23689 0.94283 0.05183
 C269 C 0.24109 0.96120 -0.10336
 C270 C 0.24005 0.92921 -0.13315
 C271 C 0.26604 0.90341 -0.12388
 C272 C 0.29354 0.91010 -0.08552
 C273 C 0.29462 0.94216 -0.05575
 C274 C 0.23675 1.05816 -0.05265
 C275 C 0.23515 1.09017 -0.08237
 C276 C 0.26151 1.09877 -0.12200
 C277 C 0.28929 1.07500 -0.13217
 C278 C 0.29090 1.04299 -0.10237
 H279 H 0.31578 1.05428 0.02402
 H280 H 0.31395 1.11059 0.07656
 H281 H 0.21907 1.07622 0.16276
 H282 H 0.22065 1.02025 0.10973
 H283 H 0.31296 0.97606 0.10837
 H284 H 0.31015 0.91973 0.16099
 H285 H 0.21615 0.94916 0.02185
 H286 H 0.22037 0.98056 -0.11015
 H287 H 0.21864 0.92443 -0.16273
 H288 H 0.31390 0.89044 -0.07805
 H289 H 0.31588 0.94689 -0.02595
 H290 H 0.21609 1.05181 -0.02236
 H291 H 0.21338 1.10819 -0.07430
 H292 H 0.30979 1.08124 -0.16285
 H293 H 0.31267 1.02498 -0.11029
 H294 H 0.21366 0.89274 0.07399
 C295 C 0.76830 0.50059 0.47122
 C296 C 0.76823 0.49951 0.52916
 C297 C 0.76904 0.53241 0.56370
 C298 C 0.76587 0.46550 0.56081
 C299 C 0.76926 0.46771 0.43665
 C300 C 0.76596 0.53461 0.43960
 C301 C 0.79580 0.55783 0.55596
 C302 C 0.79476 0.58977 0.58600
 C303 C 0.76722 0.59638 0.62445
 C304 C 0.74117 0.57065 0.63370
 C305 C 0.74214 0.53876 0.60366
 C306 C 0.79160 0.45697 0.60152
 C307 C 0.78984 0.42484 0.63103
 C308 C 0.76217 0.40108 0.62050
 C309 C 0.73607 0.40973 0.58073
 C310 C 0.73778 0.44184 0.55125
 C311 C 0.74256 0.46139 0.39655
 C312 C 0.74178 0.42957 0.36631
 C313 C 0.76783 0.40388 0.37549
 C314 C 0.79518 0.41044 0.41410
 C315 C 0.79603 0.44231 0.44434
 C316 C 0.73778 0.55817 0.44915
 C317 C 0.73608 0.59028 0.41967
 C318 C 0.76229 0.59901 0.37992
 C319 C 0.79007 0.57534 0.36942
 C320 C 0.79182 0.54322 0.39894
 H321 H 0.81707 0.55317 0.52598
 H322 H 0.81510 0.60948 0.57866
 H323 H 0.71976 0.57551 0.66339
 H324 H 0.72135 0.51944 0.61034
 H325 H 0.81328 0.47499 0.60981
 H326 H 0.81010 0.41848 0.66187
 H327 H 0.71727 0.44826 0.52091
 H328 H 0.72177 0.48069 0.38989
 H329 H 0.72052 0.42475 0.33650
 H330 H 0.81552 0.39075 0.42139
 H331 H 0.81716 0.44695 0.47442
 H332 H 0.71717 0.55169 0.47946
 H333 H 0.71435 0.60829 0.42788
 H334 H 0.81042 0.58175 0.33860
 H335 H 0.81357 0.52526 0.39066
 H336 H 0.71442 0.39165 0.57249
 O337 O 0.23234 0.27850 0.32184
 O338 O 0.24318 0.19214 0.25084
 O339 O 0.28090 0.22970 0.32076
 O340 O 0.19414 0.24045 0.25208
 O341 O 0.21988 0.26697 0.17911
 O342 O 0.30668 0.25623 0.24781
 O343 O 0.26894 0.21868 0.17789
 O344 O 0.25809 0.30501 0.24888
 Cu345 Cu 0.23497 0.23259 0.29374
 Cu346 Cu 0.26593 0.26447 0.20607
 C347 C 0.24370 0.30630 0.29757
 C348 C 0.25789 0.19085 0.20239
 C349 C 0.30842 0.24113 0.29588
 C350 C 0.19240 0.25521 0.20375
 O351 O 0.76746 0.72149 0.32096
 O352 O 0.75687 0.80787 0.25002
 O353 O 0.71912 0.77051 0.32046
 O354 O 0.80565 0.75932 0.25063
 O355 O 0.77962 0.73289 0.17804
 O356 O 0.69307 0.74407 0.24789
 O357 O 0.73083 0.78142 0.17744
 O358 O 0.74143 0.69507 0.24838
 Cu359 Cu 0.76497 0.76740 0.29285
 Cu360 Cu 0.73367 0.73562 0.20562
 C361 C 0.75595 0.69373 0.29686
 C362 C 0.74206 0.80922 0.20176
 C363 C 0.69150 0.75920 0.29595
 C364 C 0.80721 0.74452 0.20230
 O365 O 0.80805 0.24289 0.25075
 O366 O 0.72134 0.23242 0.32056
 O367 O 0.75946 0.19412 0.25081
 O368 O 0.77034 0.28077 0.32049
 O369 O 0.74448 0.30694 0.24747
 O370 O 0.73361 0.22027 0.17781
 O371 O 0.69548 0.25857 0.24756
 O372 O 0.78218 0.26905 0.17774
 Cu373 Cu 0.76734 0.23484 0.29302
 Cu374 Cu 0.73626 0.26628 0.20528
 C375 C 0.80974 0.25775 0.20247
 C376 C 0.69381 0.24402 0.29608
 C377 C 0.74500 0.19261 0.20231
 C378 C 0.75926 0.30847 0.29573
 O379 O 0.25698 0.69320 0.24889
 O380 O 0.26774 0.77989 0.17916
 O381 O 0.30570 0.74185 0.24920
 O382 O 0.21951 0.73082 0.17884
 O383 O 0.19307 0.75686 0.25164
 O384 O 0.27929 0.76787 0.32200
 O385 O 0.24133 0.80592 0.25196
 O386 O 0.23055 0.71925 0.32169
 Cu387 Cu 0.26523 0.73388 0.20668
 Cu388 Cu 0.23347 0.76518 0.29418
 C389 C 0.24190 0.69160 0.29703
 C390 C 0.25604 0.80750 0.20354
 C391 C 0.30701 0.75642 0.29770
 C392 C 0.19175 0.74196 0.20338
 O393 O 0.76742 0.27852 0.67876
 O394 O 0.75654 0.19185 0.74872
 O395 O 0.71903 0.22954 0.67868
 O396 O 0.80532 0.24043 0.74888
 O397 O 0.77900 0.26655 0.82167
 O398 O 0.69270 0.25567 0.75149
 O399 O 0.73022 0.21798 0.82153
 O400 O 0.74110 0.30465 0.75155
 Cu401 Cu 0.76480 0.23252 0.70641
 Cu402 Cu 0.73317 0.26392 0.79390
 C403 C 0.75579 0.30618 0.70310
 C404 C 0.74155 0.19030 0.79694
 C405 C 0.69131 0.24076 0.70325
 C406 C 0.80668 0.25501 0.79737
 O407 O 0.23230 0.72152 0.67949
 O408 O 0.24278 0.80814 0.74971
 O409 O 0.28065 0.77054 0.67984
 O410 O 0.19399 0.75956 0.74937
 O411 O 0.21989 0.73337 0.82230
 O412 O 0.30657 0.74434 0.75276
 O413 O 0.26870 0.78194 0.82263
 O414 O 0.25820 0.69533 0.75241
 Cu415 Cu 0.23474 0.76751 0.70724
 Cu416 Cu 0.26588 0.73603 0.79488
 C417 C 0.24378 0.69384 0.70387
 C418 C 0.25754 0.80965 0.79800
 C419 C 0.30823 0.75932 0.70458
 C420 C 0.19235 0.74491 0.79781
 O421 O 0.25650 0.30629 0.75254
 O422 O 0.26732 0.21946 0.82170
 O423 O 0.30535 0.25777 0.75174
 O424 O 0.21892 0.26838 0.82236
 O425 O 0.19273 0.24244 0.74945
 O426 O 0.27917 0.23184 0.67884
 O427 O 0.24115 0.19352 0.74880
 O428 O 0.23031 0.28034 0.67963
 Cu429 Cu 0.26475 0.26552 0.79444
 Cu430 Cu 0.23328 0.23434 0.70681
 C431 C 0.24153 0.30796 0.70444
 C432 C 0.25574 0.19188 0.79720
 C433 C 0.30681 0.24333 0.70313
 C434 C 0.19124 0.25722 0.79780
 O435 O 0.74343 0.69368 0.75179
 O436 O 0.73285 0.78048 0.82119
 O437 O 0.69470 0.74230 0.75160
 O438 O 0.78117 0.73147 0.82120
 O439 O 0.80732 0.75741 0.74803
 O440 O 0.72085 0.76823 0.67845
 O441 O 0.75899 0.80642 0.74804
 O442 O 0.76958 0.71962 0.67862
 Cu443 Cu 0.73532 0.73444 0.79383
 Cu444 Cu 0.76675 0.76562 0.70590
 C445 C 0.75834 0.69201 0.70352
 C446 C 0.74444 0.80806 0.79659
 C447 C 0.69322 0.75679 0.70304
 C448 C 0.80884 0.74257 0.79633
 C449 C 0.26420 0.12915 0.15053
 C450 C 0.26165 0.15731 0.17440
 C451 C 0.76484 0.63000 0.65292
 C452 C 0.76216 0.65828 0.67625
 C453 C 0.73589 0.87092 0.14992
 C454 C 0.73838 0.84277 0.17379
 C455 C 0.23496 0.36998 0.65393
 C456 C 0.23766 0.34169 0.67723
 C457 C 0.87168 0.26389 0.15142
 C458 C 0.84342 0.26140 0.17495
 C459 C 0.37012 0.76592 0.65373
 C460 C 0.34189 0.76322 0.67719
 C461 C 0.13017 0.73543 0.15199
 C462 C 0.15826 0.73809 0.17566
 C463 C 0.62968 0.23441 0.65192
 C464 C 0.65779 0.23698 0.67557
 C465 C 0.73532 0.12837 0.84811
 C466 C 0.73782 0.15662 0.82455
 C467 C 0.23530 0.62970 0.34795
 C468 C 0.23802 0.65793 0.32446
 C469 C 0.26386 0.87156 0.84913
 C470 C 0.26127 0.84331 0.82560
 C471 C 0.76564 0.37034 0.34677
 C472 C 0.76305 0.34212 0.32322
 C473 C 0.12946 0.26357 0.84922
 C474 C 0.15765 0.26098 0.82556
 C475 C 0.62972 0.76584 0.34712
 C476 C 0.65790 0.76313 0.32351
 C477 C 0.87065 0.73595 0.84699
 C478 C 0.84245 0.73867 0.82366
 C479 C 0.37033 0.23478 0.34635
 C480 C 0.34211 0.23738 0.32303
 C481 C 0.74004 0.86969 0.84916
 C482 C 0.74172 0.84164 0.82477
 C483 C 0.23908 0.36772 0.35088
 C484 C 0.24086 0.33974 0.32626
 C485 C 0.26012 0.13025 0.84976
 C486 C 0.25847 0.15830 0.82537
 C487 C 0.76060 0.63228 0.35005
 C488 C 0.75879 0.66027 0.32549
 C489 C 0.13075 0.74021 0.85034
 C490 C 0.15879 0.74202 0.82601
 C491 C 0.63217 0.23951 0.34867
 C492 C 0.66023 0.24126 0.32433
 C493 C 0.86797 0.25954 0.85045
 C494 C 0.84008 0.25781 0.82587
 C495 C 0.36832 0.76126 0.35062
 C496 C 0.34040 0.75938 0.32615
 C497 C 0.26043 0.86905 0.15075
 C498 C 0.25877 0.84103 0.17521
 C499 C 0.76049 0.36778 0.65030
 C500 C 0.75867 0.33974 0.67473
 C501 C 0.74037 0.13104 0.14966
 C502 C 0.74215 0.15907 0.17406
 C503 C 0.23928 0.63225 0.65106
 C504 C 0.24103 0.66030 0.67547
 C505 C 0.86872 0.73976 0.14957
 C506 C 0.84071 0.74158 0.17398
 C507 C 0.36824 0.23886 0.64990
 C508 C 0.34027 0.24058 0.67452
 C509 C 0.13074 0.25961 0.15175
 C510 C 0.15881 0.25795 0.17584
 C511 C 0.63176 0.76147 0.65053
 C512 C 0.65974 0.75965 0.67484
   
