data_POSCAR
  _audit_creation_date              2014-09-24
  _audit_creation_method            'ToBaCCo'
  _symmetry_space_group_name_H-M    'P1'
  _symmetry_Int_Tables_number       1
  _symmetry_cell_setting            triclinic
  loop_
  _symmetry_equiv_pos_as_xyz
 x,y,z
_cell_length_a 58.0120
_cell_length_b 58.0137
_cell_length_c 58.0976
_cell_angle_alpha 89.942900
_cell_angle_beta 89.965600
_cell_angle_gamma 90.004000
loop_
  _atom_site_label
  _atom_site_type_symbol
  _atom_site_fract_x
  _atom_site_fract_y
  _atom_site_fract_z
C1 C 0.25011 0.26746 0.23252
 C2 C 0.26732 0.26738 0.21556
 C3 C 0.28440 0.25030 0.21562
 C4 C 0.28440 0.23317 0.23263
 C5 C 0.26732 0.23299 0.24973
 C6 C 0.25007 0.25019 0.24971
 C7 C 0.23293 0.28447 0.23263
 C8 C 0.21582 0.28438 0.24966
 C9 C 0.21574 0.26729 0.26671
 C10 C 0.23279 0.25014 0.26687
 C11 C 0.23289 0.23294 0.28386
 C12 C 0.25000 0.21590 0.28385
 C13 C 0.26715 0.21592 0.26686
 H14 H 0.26747 0.28056 0.20230
 H15 H 0.29770 0.22002 0.23253
 H16 H 0.23283 0.29778 0.21951
 H17 H 0.20241 0.26737 0.27982
 H18 H 0.21968 0.23277 0.29709
 H19 H 0.28032 0.20265 0.26700
 C20 C 0.74966 -0.26727 0.23251
 C21 C 0.73246 -0.26716 0.21554
 C22 C 0.71536 -0.25008 0.21560
 C23 C 0.71535 -0.23298 0.23264
 C24 C 0.73243 -0.23284 0.24973
 C25 C 0.74968 -0.25004 0.24969
 C26 C 0.76685 -0.28428 0.23260
 C27 C 0.78397 -0.28423 0.24962
 C28 C 0.78401 -0.26716 0.26668
 C29 C 0.76695 -0.25002 0.26684
 C30 C 0.76683 -0.23286 0.28384
 C31 C 0.74972 -0.21583 0.28384
 C32 C 0.73258 -0.21581 0.26686
 H33 H 0.73237 -0.28035 0.20231
 H34 H 0.70207 -0.21980 0.23260
 H35 H 0.76691 -0.29755 0.21944
 H36 H 0.79731 -0.26721 0.27982
 H37 H 0.78002 -0.23272 0.29707
 H38 H 0.71941 -0.20255 0.26702
 C39 C 0.75015 0.26760 0.76724
 C40 C 0.73300 0.26743 0.78428
 C41 C 0.71597 0.25029 0.78430
 C42 C 0.71597 0.23318 0.76727
 C43 C 0.73299 0.23310 0.75011
 C44 C 0.75017 0.25037 0.75006
 C45 C 0.76727 0.28468 0.76706
 C46 C 0.78433 0.28469 0.74996
 C47 C 0.78438 0.26762 0.73290
 C48 C 0.76738 0.25041 0.73282
 C49 C 0.76727 0.23324 0.71583
 C50 C 0.75022 0.21614 0.71592
 C51 C 0.73314 0.21606 0.73298
 H52 H 0.73291 0.28062 0.79751
 H53 H 0.70274 0.21995 0.76738
 H54 H 0.76733 0.29794 0.78022
 H55 H 0.79762 0.26772 0.71970
 H56 H 0.78041 0.23315 0.70254
 H57 H 0.72002 0.20274 0.73290
 C58 C 0.24956 -0.26789 0.76784
 C59 C 0.26672 -0.26779 0.78485
 C60 C 0.28384 -0.25076 0.78475
 C61 C 0.28395 -0.23370 0.76767
 C62 C 0.26692 -0.23354 0.75053
 C63 C 0.24963 -0.25070 0.75059
 C64 C 0.23233 -0.28487 0.76778
 C65 C 0.21526 -0.28482 0.75070
 C66 C 0.21530 -0.26777 0.73357
 C67 C 0.23241 -0.25068 0.73339
 C68 C 0.23262 -0.23355 0.71633
 C69 C 0.24978 -0.21655 0.71631
 C70 C 0.26686 -0.21654 0.73334
 H71 H 0.26679 -0.28092 0.79815
 H72 H 0.29728 -0.22059 0.76775
 H73 H 0.23221 -0.29811 0.78099
 H74 H 0.20205 -0.26782 0.72040
 H75 H 0.21946 -0.23340 0.70307
 H76 H 0.28007 -0.20331 0.73317
 C77 C 0.75016 -0.26753 0.76760
 C78 C 0.73301 -0.26740 0.78463
 C79 C 0.71594 -0.25032 0.78458
 C80 C 0.71587 -0.23325 0.76752
 C81 C 0.73289 -0.23312 0.75036
 C82 C 0.75013 -0.25033 0.75037
 C83 C 0.76733 -0.28456 0.76749
 C84 C 0.78439 -0.28453 0.75038
 C85 C 0.78439 -0.26747 0.73327
 C86 C 0.76734 -0.25033 0.73314
 C87 C 0.76717 -0.23319 0.71609
 C88 C 0.75006 -0.21615 0.71612
 C89 C 0.73298 -0.21611 0.73318
 H90 H 0.73291 -0.28054 0.79793
 H91 H 0.70257 -0.22010 0.76764
 H92 H 0.76743 -0.29781 0.78069
 H93 H 0.79764 -0.26755 0.72007
 H94 H 0.78031 -0.23306 0.70280
 H95 H 0.71981 -0.20284 0.73305
 C96 C 0.25011 0.26702 0.76698
 C97 C 0.26730 0.26689 0.78395
 C98 C 0.28436 0.24980 0.78389
 C99 C 0.28438 0.23270 0.76688
 C100 C 0.26732 0.23257 0.74978
 C101 C 0.25009 0.24979 0.74980
 C102 C 0.23294 0.28404 0.76687
 C103 C 0.21586 0.28399 0.74984
 C104 C 0.21579 0.26693 0.73278
 C105 C 0.23283 0.24978 0.73263
 C106 C 0.23294 0.23261 0.71564
 C107 C 0.25004 0.21557 0.71567
 C108 C 0.26716 0.21553 0.73266
 H109 H 0.26745 0.28006 0.79719
 H110 H 0.29766 0.21955 0.76699
 H111 H 0.23284 0.29733 0.77999
 H112 H 0.20248 0.26705 0.71968
 H113 H 0.21976 0.23248 0.70241
 H114 H 0.28032 0.20225 0.73252
 C115 C 0.24989 -0.26770 0.23239
 C116 C 0.26711 -0.26762 0.21542
 C117 C 0.28427 -0.25061 0.21553
 C118 C 0.28434 -0.23355 0.23261
 C119 C 0.26724 -0.23338 0.24969
 C120 C 0.24992 -0.25052 0.24961
 C121 C 0.23264 -0.28465 0.23244
 C122 C 0.21551 -0.28457 0.24947
 C123 C 0.21550 -0.26754 0.26657
 C124 C 0.23263 -0.25047 0.26676
 C125 C 0.23279 -0.23335 0.28380
 C126 C 0.24998 -0.21638 0.28383
 C127 C 0.26714 -0.21639 0.26686
 H128 H 0.26716 -0.28078 0.20216
 H129 H 0.29767 -0.22043 0.23259
 H130 H 0.23254 -0.29788 0.21925
 H131 H 0.20219 -0.26757 0.27970
 H132 H 0.21959 -0.23318 0.29702
 H133 H 0.28036 -0.20318 0.26704
 C134 C 0.75066 0.26793 0.23271
 C135 C 0.73356 0.26775 0.21565
 C136 C 0.71654 0.25062 0.21566
 C137 C 0.71646 0.23354 0.23272
 C138 C 0.73343 0.23346 0.24992
 C139 C 0.75062 0.25072 0.24994
 C140 C 0.76779 0.28499 0.23285
 C141 C 0.78479 0.28501 0.24999
 C142 C 0.78479 0.26796 0.26710
 C143 C 0.76778 0.25077 0.26720
 C144 C 0.76761 0.23361 0.28424
 C145 C 0.75055 0.21653 0.28417
 C146 C 0.73352 0.21644 0.26708
 H147 H 0.73346 0.28089 0.20236
 H148 H 0.70320 0.22036 0.23258
 H149 H 0.76789 0.29824 0.21965
 H150 H 0.79800 0.26807 0.28032
 H151 H 0.78072 0.23352 0.29755
 H152 H 0.72039 0.20313 0.26719
 O153 O 0.26900 0.02195 0.47741
 O154 O 0.26909 -0.02296 0.52229
 O155 O 0.26906 -0.02295 0.47745
 O156 O 0.26904 0.02194 0.52224
 O157 O 0.23092 0.02189 0.52229
 O158 O 0.23094 -0.02300 0.47750
 O159 O 0.23097 -0.02301 0.52234
 O160 O 0.23088 0.02190 0.47746
 Cu161 Cu 0.27290 -0.00050 0.49984
 Cu162 Cu 0.22708 -0.00056 0.49990
 C163 C 0.24993 0.02950 0.46986
 C164 C 0.25005 -0.03056 0.52989
 C165 C 0.25001 -0.03054 0.46992
 C166 C 0.24997 0.02949 0.52982
 O167 O 0.76923 0.02242 0.52241
 O168 O 0.76912 -0.02241 0.47754
 O169 O 0.76921 0.02249 0.47759
 O170 O 0.76914 -0.02248 0.52237
 O171 O 0.73102 -0.02241 0.52241
 O172 O 0.73109 0.02256 0.47763
 O173 O 0.73100 -0.02233 0.47758
 O174 O 0.73111 0.02249 0.52245
 Cu175 Cu 0.77302 -0.00000 0.49997
 Cu176 Cu 0.72721 0.00008 0.50002
 C177 C 0.75019 0.03002 0.53001
 C178 C 0.75004 -0.02993 0.46999
 C179 C 0.75016 0.03012 0.47005
 C180 C 0.75007 -0.03003 0.52996
 O181 O 0.47824 0.26935 0.02192
 O182 O 0.52312 0.26929 -0.02297
 O183 O 0.47822 0.26925 -0.02291
 O184 O 0.52313 0.26939 0.02186
 O185 O 0.52316 0.23127 0.02198
 O186 O 0.47825 0.23113 -0.02279
 O187 O 0.52315 0.23117 -0.02285
 O188 O 0.47827 0.23123 0.02204
 Cu189 Cu 0.50067 0.27317 -0.00054
 Cu190 Cu 0.50071 0.22735 -0.00039
 C191 C 0.47068 0.25030 0.02956
 C192 C 0.53071 0.25022 -0.03048
 C193 C 0.47065 0.25017 -0.03040
 C194 C 0.53073 0.25035 0.02948
 O195 O 0.52232 0.76849 0.02320
 O196 O 0.47744 0.76839 -0.02165
 O197 O 0.47742 0.76841 0.02318
 O198 O 0.52234 0.76849 -0.02164
 O199 O 0.52241 0.73037 -0.02159
 O200 O 0.47749 0.73029 0.02323
 O201 O 0.47752 0.73027 -0.02160
 O202 O 0.52239 0.73037 0.02324
 Cu203 Cu 0.49987 0.77229 0.00077
 Cu204 Cu 0.49996 0.72648 0.00083
 C205 C 0.52993 0.74945 0.03079
 C206 C 0.46991 0.74932 -0.02919
 C207 C 0.46987 0.74934 0.03077
 C208 C 0.52995 0.74944 -0.02918
 O209 O 0.02210 0.47831 0.26854
 O210 O -0.02282 0.52319 0.26854
 O211 O -0.02279 0.47830 0.26861
 O212 O 0.02209 0.52320 0.26848
 O213 O 0.02206 0.52318 0.23041
 O214 O -0.02282 0.47827 0.23055
 O215 O -0.02285 0.52317 0.23047
 O216 O 0.02207 0.47829 0.23048
 Cu217 Cu -0.00035 0.50076 0.27238
 Cu218 Cu -0.00039 0.50073 0.22663
 C219 C 0.02966 0.47072 0.24951
 C220 C -0.03041 0.53076 0.24950
 C221 C -0.03037 0.47070 0.24960
 C222 C 0.02965 0.53076 0.24942
 O223 O 0.02202 0.52250 0.76942
 O224 O -0.02290 0.47762 0.76921
 O225 O 0.02200 0.47761 0.76927
 O226 O -0.02288 0.52251 0.76936
 O227 O -0.02280 0.52267 0.73129
 O228 O 0.02207 0.47777 0.73120
 O229 O -0.02283 0.47778 0.73114
 O230 O 0.02209 0.52267 0.73135
 Cu231 Cu -0.00045 0.50004 0.77315
 Cu232 Cu -0.00036 0.50024 0.72740
 C233 C 0.02964 0.53016 0.75042
 C234 C -0.03045 0.47012 0.75014
 C235 C 0.02961 0.47011 0.75022
 C236 C -0.03041 0.53017 0.75034
 C237 C 0.30198 0.25034 0.19812
 C238 C 0.31669 0.25038 0.18346
 C239 C 0.33425 0.25042 0.16594
 C240 C 0.32904 0.25797 0.14367
 C241 C 0.34607 0.25799 0.12662
 C242 C 0.36857 0.25045 0.13166
 C243 C 0.37363 0.24290 0.15413
 C244 C 0.35656 0.24289 0.17114
 C245 C 0.38667 0.25044 0.11356
 C246 C 0.40934 0.25734 0.11874
 C247 C 0.42637 0.25731 0.10170
 C248 C 0.42098 0.25040 0.07926
 C249 C 0.39850 0.24351 0.07393
 C250 C 0.38144 0.24353 0.09095
 C251 C 0.43853 0.25036 0.06173
 C252 C 0.45321 0.25033 0.04704
 H253 H 0.31184 0.26390 0.13948
 H254 H 0.34171 0.26418 0.10958
 H255 H 0.39069 0.23672 0.15847
 H256 H 0.36076 0.23694 0.18832
 H257 H 0.41384 0.26303 0.13591
 H258 H 0.44371 0.26274 0.10600
 H259 H 0.39416 0.23806 0.05663
 H260 H 0.36424 0.23785 0.08648
 C261 C 0.69872 0.74991 0.19906
 C262 C 0.68400 0.74988 0.18441
 C263 C 0.66644 0.74985 0.16693
 C264 C 0.64835 0.76577 0.16788
 C265 C 0.63128 0.76575 0.15090
 C266 C 0.63209 0.74975 0.13272
 C267 C 0.65036 0.73381 0.13192
 C268 C 0.66741 0.73388 0.14892
 C269 C 0.61396 0.74970 0.11467
 C270 C 0.60517 0.72878 0.10611
 C271 C 0.58812 0.72875 0.08912
 C272 C 0.57963 0.74959 0.08043
 C273 C 0.58825 0.77048 0.08881
 C274 C 0.60529 0.77056 0.10582
 C275 C 0.56208 0.74953 0.06292
 C276 C 0.54740 0.74949 0.04825
 H277 H 0.64740 0.77816 0.18179
 H278 H 0.61729 0.77803 0.15216
 H279 H 0.65163 0.72149 0.11799
 H280 H 0.68138 0.72152 0.14797
 H281 H 0.61127 0.71244 0.11278
 H282 H 0.58151 0.71247 0.08280
 H283 H 0.58185 0.78672 0.08216
 H284 H 0.61191 0.78693 0.11183
 C285 C 0.69937 0.25025 -0.19909
 C286 C 0.68468 0.25023 -0.18440
 C287 C 0.66714 0.25022 -0.16687
 C288 C 0.65042 0.23284 -0.16646
 C289 C 0.63337 0.23281 -0.14944
 C290 C 0.63283 0.25020 -0.13257
 C291 C 0.64973 0.26760 -0.13314
 C292 C 0.66676 0.26760 -0.15019
 C293 C 0.61473 0.25020 -0.11448
 C294 C 0.62022 0.25593 -0.09159
 C295 C 0.60316 0.25591 -0.07457
 C296 C 0.58042 0.25019 -0.08018
 C297 C 0.57477 0.24447 -0.10288
 C298 C 0.59180 0.24446 -0.11993
 C299 C 0.56287 0.25018 -0.06264
 C300 C 0.54818 0.25019 -0.04796
 H301 H 0.65060 0.21926 -0.17926
 H302 H 0.62079 0.21902 -0.14929
 H303 H 0.64961 0.28139 -0.12059
 H304 H 0.67958 0.28118 -0.15039
 H305 H 0.63775 0.26012 -0.08679
 H306 H 0.60773 0.26029 -0.05703
 H307 H 0.55720 0.24008 -0.10742
 H308 H 0.58697 0.24027 -0.13743
 C309 C 0.30138 0.74922 -0.19773
 C310 C 0.31606 0.74920 -0.18306
 C311 C 0.33359 0.74920 -0.16553
 C312 C 0.33423 0.73158 -0.14908
 C313 C 0.35124 0.73157 -0.13204
 C314 C 0.36788 0.74921 -0.13125
 C315 C 0.36709 0.76685 -0.14789
 C316 C 0.35005 0.76683 -0.16490
 C317 C 0.38596 0.74922 -0.11316
 C318 C 0.40881 0.75539 -0.11854
 C319 C 0.42581 0.75538 -0.10149
 C320 C 0.42024 0.74924 -0.07887
 C321 C 0.39758 0.74308 -0.07333
 C322 C 0.38054 0.74306 -0.09035
 C323 C 0.43776 0.74925 -0.06133
 C324 C 0.45244 0.74928 -0.04665
 H325 H 0.32160 0.71782 -0.14946
 H326 H 0.35156 0.71760 -0.11968
 H327 H 0.37946 0.78082 -0.14756
 H328 H 0.34968 0.78059 -0.17752
 H329 H 0.41359 0.75992 -0.13598
 H330 H 0.44332 0.76012 -0.10598
 H331 H 0.39306 0.73836 -0.05586
 H332 H 0.36307 0.73852 -0.08560
 C333 C 0.19826 0.30191 0.24964
 C334 C 0.18356 0.31661 0.24962
 C335 C 0.16603 0.33416 0.24960
 C336 C 0.17057 0.35578 0.23990
 C337 C 0.15355 0.37285 0.23988
 C338 C 0.13174 0.36850 0.24958
 C339 C 0.12736 0.34670 0.25928
 C340 C 0.14440 0.32966 0.25929
 C341 C 0.11365 0.38662 0.24956
 C342 C 0.09051 0.38096 0.24496
 C343 C 0.07350 0.39803 0.24494
 C344 C 0.07936 0.42097 0.24954
 C345 C 0.10230 0.42679 0.25415
 C346 C 0.11935 0.40975 0.25416
 C347 C 0.06183 0.43853 0.24952
 C348 C 0.04714 0.45324 0.24951
 H349 H 0.18723 0.35942 0.23229
 H350 H 0.15736 0.38934 0.23201
 H351 H 0.11085 0.34292 0.26714
 H352 H 0.14073 0.31300 0.26691
 H353 H 0.08562 0.36338 0.24106
 H354 H 0.05580 0.39335 0.24128
 H355 H 0.10702 0.44448 0.25780
 H356 H 0.13694 0.41461 0.25807
 C357 C 0.19860 0.69863 0.75074
 C358 C 0.18386 0.68397 0.75078
 C359 C 0.16628 0.66646 0.75081
 C360 C 0.14398 0.67172 0.74329
 C361 C 0.12689 0.65472 0.74329
 C362 C 0.13190 0.63220 0.75080
 C363 C 0.15439 0.62710 0.75832
 C364 C 0.17145 0.64413 0.75833
 C365 C 0.11377 0.61411 0.75076
 C366 C 0.11898 0.59146 0.74383
 C367 C 0.10189 0.57446 0.74377
 C368 C 0.07941 0.57984 0.75065
 C369 C 0.07405 0.60230 0.75758
 C370 C 0.09110 0.61934 0.75764
 C371 C 0.06184 0.56232 0.75057
 C372 C 0.04713 0.54764 0.75050
 H373 H 0.13981 0.68894 0.73737
 H374 H 0.10984 0.65911 0.73711
 H375 H 0.15872 0.61002 0.76449
 H376 H 0.18864 0.63989 0.76424
 H377 H 0.13618 0.58697 0.73815
 H378 H 0.10621 0.55714 0.73830
 H379 H 0.05672 0.60664 0.76300
 H380 H 0.08663 0.63653 0.76335
 C381 C -0.19940 0.69918 0.24959
 C382 C -0.18468 0.68451 0.24957
 C383 C -0.16710 0.66700 0.24956
 C384 C -0.17231 0.64465 0.24218
 C385 C -0.15525 0.62762 0.24217
 C386 C -0.13272 0.63275 0.24954
 C387 C -0.12767 0.65529 0.25693
 C388 C -0.14476 0.67228 0.25694
 C389 C -0.11458 0.61467 0.24954
 C390 C -0.09196 0.61991 0.24249
 C391 C -0.07490 0.60288 0.24248
 C392 C -0.08020 0.58042 0.24952
 C393 C -0.10263 0.57503 0.25657
 C394 C -0.11972 0.59203 0.25657
 C395 C -0.06262 0.56290 0.24950
 C396 C -0.04791 0.54823 0.24950
 H397 H -0.18953 0.64039 0.23637
 H398 H -0.15960 0.61053 0.23610
 H399 H -0.11059 0.65970 0.26299
 H400 H -0.14056 0.68952 0.26276
 H401 H -0.08753 0.63709 0.23669
 H402 H -0.05760 0.60722 0.23692
 H403 H -0.10691 0.55771 0.26211
 H404 H -0.13688 0.58753 0.26238
 C405 C -0.19909 0.30133 0.74992
 C406 C -0.18442 0.31606 0.74990
 C407 C -0.16690 0.33363 0.74988
 C408 C -0.16576 0.34955 0.76792
 C409 C -0.14875 0.36662 0.76794
 C410 C -0.13262 0.36798 0.74988
 C411 C -0.13391 0.35187 0.73183
 C412 C -0.15096 0.33483 0.73184
 C413 C -0.11451 0.38609 0.74990
 C414 C -0.09185 0.38091 0.74295
 C415 C -0.07482 0.39796 0.74299
 C416 C -0.08019 0.42041 0.74996
 C417 C -0.10267 0.42576 0.75689
 C418 C -0.11973 0.40873 0.75687
 C419 C -0.06264 0.43796 0.75001
 C420 C -0.04794 0.45265 0.75006
 H421 H -0.17799 0.34873 0.78201
 H422 H -0.14802 0.37857 0.78223
 H423 H -0.12195 0.35265 0.71754
 H424 H -0.15172 0.32262 0.71776
 H425 H -0.08722 0.36359 0.73777
 H426 H -0.05746 0.39362 0.73766
 H427 H -0.10703 0.44310 0.76225
 H428 H -0.13706 0.41334 0.76203
 C429 C 0.24997 0.19833 0.30135
 C430 C 0.24994 0.18361 0.31602
 C431 C 0.24993 0.16605 0.33354
 C432 C 0.26584 0.16702 0.35161
 C433 C 0.26584 0.14998 0.36864
 C434 C 0.24990 0.13171 0.36782
 C435 C 0.23397 0.13090 0.34957
 C436 C 0.23400 0.14797 0.33256
 C437 C 0.24988 0.11359 0.38591
 C438 C 0.24653 0.09029 0.38007
 C439 C 0.24654 0.07325 0.39710
 C440 C 0.24987 0.07925 0.42019
 C441 C 0.25319 0.10237 0.42618
 C442 C 0.25321 0.11944 0.40918
 C443 C 0.24987 0.06170 0.43771
 C444 C 0.24989 0.04699 0.45239
 H445 H 0.27829 0.18091 0.35249
 H446 H 0.27850 0.15093 0.38229
 H447 H 0.22130 0.11723 0.34861
 H448 H 0.22156 0.14709 0.31869
 H449 H 0.24422 0.08521 0.36229
 H450 H 0.24401 0.05540 0.39226
 H451 H 0.25572 0.10721 0.44401
 H452 H 0.25553 0.13724 0.41426
 C453 C 0.75023 0.19860 0.69842
 C454 C 0.75026 0.18390 0.68376
 C455 C 0.75030 0.16637 0.66626
 C456 C 0.74327 0.14391 0.67160
 C457 C 0.74329 0.12686 0.65460
 C458 C 0.75034 0.13207 0.63200
 C459 C 0.75737 0.15471 0.62681
 C460 C 0.75736 0.17172 0.64384
 C461 C 0.75034 0.11398 0.61392
 C462 C 0.74292 0.11909 0.59142
 C463 C 0.74290 0.10204 0.57443
 C464 C 0.75030 0.07968 0.57966
 C465 C 0.75772 0.07442 0.60197
 C466 C 0.75774 0.09144 0.61900
 C467 C 0.75026 0.06215 0.56215
 C468 C 0.75022 0.04747 0.54748
 H469 H 0.73772 0.13960 0.68888
 H470 H 0.73750 0.10969 0.65906
 H471 H 0.76318 0.15918 0.60967
 H472 H 0.76289 0.18904 0.63954
 H473 H 0.73684 0.13618 0.58705
 H474 H 0.73706 0.10629 0.55723
 H475 H 0.76354 0.05718 0.60619
 H476 H 0.76383 0.08704 0.63606
 C477 C 0.24985 -0.19904 0.69874
 C478 C 0.24992 -0.18438 0.68402
 C479 C 0.24999 -0.16686 0.66646
 C480 C 0.25117 -0.14356 0.67258
 C481 C 0.25121 -0.12653 0.65555
 C482 C 0.25008 -0.13258 0.63212
 C483 C 0.24893 -0.15606 0.62615
 C484 C 0.24887 -0.17306 0.64322
 C485 C 0.25010 -0.11449 0.61400
 C486 C 0.26278 -0.11754 0.59357
 C487 C 0.26278 -0.10051 0.57652
 C488 C 0.25010 -0.08022 0.57965
 C489 C 0.23744 -0.07702 0.59990
 C490 C 0.23743 -0.09402 0.61697
 C491 C 0.25009 -0.06271 0.56208
 C492 C 0.25008 -0.04803 0.54738
 H493 H 0.25211 -0.13857 0.69053
 H494 H 0.25241 -0.10863 0.66068
 H495 H 0.24775 -0.16126 0.60830
 H496 H 0.24789 -0.19105 0.63830
 H497 H 0.27294 -0.13296 0.59089
 H498 H 0.27270 -0.10313 0.56094
 H499 H 0.22751 -0.06141 0.60247
 H500 H 0.22726 -0.09129 0.63236
 C501 C 0.74973 -0.19830 0.30135
 C502 C 0.74976 -0.18362 0.31603
 C503 C 0.74979 -0.16610 0.33355
 C504 C 0.73247 -0.14931 0.33393
 C505 C 0.73248 -0.13230 0.35096
 C506 C 0.74986 -0.13185 0.36785
 C507 C 0.76720 -0.14880 0.36731
 C508 C 0.76714 -0.16581 0.35027
 C509 C 0.74989 -0.11378 0.38596
 C510 C 0.77065 -0.10338 0.39294
 C511 C 0.77066 -0.08637 0.40998
 C512 C 0.74994 -0.07954 0.42027
 C513 C 0.72920 -0.08978 0.41346
 C514 C 0.72915 -0.10677 0.39641
 C515 C 0.74997 -0.06204 0.43782
 C516 C 0.75000 -0.04738 0.45251
 H517 H 0.71900 -0.14934 0.32103
 H518 H 0.71908 -0.11932 0.35073
 H519 H 0.78063 -0.14910 0.38024
 H520 H 0.78059 -0.17877 0.35018
 H521 H 0.78685 -0.10818 0.38502
 H522 H 0.78681 -0.07852 0.41508
 H523 H 0.71307 -0.08466 0.42136
 H524 H 0.71293 -0.11465 0.39163
 C525 C 0.69842 0.74967 -0.19788
 C526 C 0.68374 0.74967 -0.18319
 C527 C 0.66622 0.74966 -0.16565
 C528 C 0.64943 0.73235 -0.16531
 C529 C 0.63240 0.73232 -0.14827
 C530 C 0.63195 0.74963 -0.13133
 C531 C 0.64893 0.76696 -0.13182
 C532 C 0.66593 0.76696 -0.14888
 C533 C 0.61388 0.74961 -0.11322
 C534 C 0.61943 0.75515 -0.09030
 C535 C 0.60240 0.75510 -0.07326
 C536 C 0.57962 0.74954 -0.07889
 C537 C 0.57391 0.74402 -0.10162
 C538 C 0.59091 0.74404 -0.11868
 C539 C 0.56210 0.74950 -0.06134
 C540 C 0.54742 0.74947 -0.04665
 H541 H 0.64954 0.71883 -0.17817
 H542 H 0.61976 0.71858 -0.14818
 H543 H 0.64887 0.78068 -0.11920
 H544 H 0.67881 0.78048 -0.14903
 H545 H 0.63699 0.75921 -0.08549
 H546 H 0.60701 0.75934 -0.05570
 H547 H 0.55631 0.73975 -0.10617
 H548 H 0.58604 0.73999 -0.13621
 C549 C 0.30192 0.24981 -0.19864
 C550 C 0.31663 0.24982 -0.18399
 C551 C 0.33418 0.24985 -0.16650
 C552 C 0.33483 0.23227 -0.15002
 C553 C 0.35186 0.23229 -0.13300
 C554 C 0.36850 0.24993 -0.13228
 C555 C 0.36771 0.26752 -0.14895
 C556 C 0.35064 0.26747 -0.16594
 C557 C 0.38661 0.24997 -0.11422
 C558 C 0.40945 0.25606 -0.11966
 C559 C 0.42648 0.25608 -0.10264
 C560 C 0.42092 0.25004 -0.07998
 C561 C 0.39825 0.24397 -0.07439
 C562 C 0.38120 0.24392 -0.09138
 C563 C 0.43846 0.25007 -0.06249
 C564 C 0.45316 0.25011 -0.04783
 H565 H 0.32220 0.21851 -0.15034
 H566 H 0.35220 0.21835 -0.12060
 H567 H 0.38008 0.28149 -0.14867
 H568 H 0.35026 0.28121 -0.17858
 H569 H 0.41422 0.26050 -0.13713
 H570 H 0.44400 0.26074 -0.10717
 H571 H 0.39375 0.23933 -0.05689
 H572 H 0.36372 0.23944 -0.08659
 C573 C 0.30092 0.74936 0.19899
 C574 C 0.31565 0.74933 0.18434
 C575 C 0.33323 0.74931 0.16686
 C576 C 0.32809 0.74162 0.14462
 C577 C 0.34515 0.74162 0.12761
 C578 C 0.36760 0.74929 0.13264
 C579 C 0.37258 0.75698 0.15506
 C580 C 0.35549 0.75699 0.17204
 C581 C 0.38573 0.74929 0.11459
 C582 C 0.40841 0.74249 0.11986
 C583 C 0.42546 0.74249 0.10285
 C584 C 0.42010 0.74929 0.08037
 C585 C 0.39760 0.75609 0.07494
 C586 C 0.38052 0.75609 0.09192
 C587 C 0.43766 0.74930 0.06287
 C588 C 0.45238 0.74931 0.04821
 H589 H 0.31092 0.73559 0.14045
 H590 H 0.34085 0.73532 0.11061
 H591 H 0.38960 0.76327 0.15939
 H592 H 0.35963 0.76304 0.18919
 H593 H 0.41289 0.73688 0.13707
 H594 H 0.44281 0.73714 0.10722
 H595 H 0.39328 0.76145 0.05760
 H596 H 0.36330 0.76170 0.08739
 C597 C 0.69906 0.25058 0.19810
 C598 C 0.68442 0.25056 0.18339
 C599 C 0.66694 0.25055 0.16583
 C600 C 0.65870 0.27141 0.15696
 C601 C 0.64170 0.27142 0.13991
 C602 C 0.63273 0.25053 0.13150
 C603 C 0.64114 0.22965 0.14053
 C604 C 0.65813 0.22968 0.15759
 C605 C 0.61467 0.25052 0.11340
 C606 C 0.61538 0.23439 0.09534
 C607 C 0.59836 0.23439 0.07831
 C608 C 0.58041 0.25048 0.07910
 C609 C 0.57954 0.26659 0.09699
 C610 C 0.59655 0.26664 0.11402
 C611 C 0.56289 0.25044 0.06159
 C612 C 0.54820 0.25040 0.04692
 H613 H 0.66546 0.28767 0.16317
 H614 H 0.63580 0.28777 0.13310
 H615 H 0.63437 0.21330 0.13463
 H616 H 0.66434 0.21343 0.16439
 H617 H 0.62926 0.22196 0.09421
 H618 H 0.59924 0.22188 0.06450
 H619 H 0.56568 0.27908 0.09780
 H620 H 0.59535 0.27907 0.12786
 C621 C -0.19900 0.69888 0.75038
 C622 C -0.18430 0.68419 0.75040
 C623 C -0.16677 0.66665 0.75042
 C624 C -0.17190 0.64444 0.75831
 C625 C -0.15488 0.62737 0.75833
 C626 C -0.13248 0.63233 0.75045
 C627 C -0.12750 0.65473 0.74257
 C628 C -0.14455 0.67176 0.74256
 C629 C -0.11439 0.61422 0.75045
 C630 C -0.09165 0.61950 0.75702
 C631 C -0.07463 0.60244 0.75700
 C632 C -0.08009 0.57990 0.75042
 C633 C -0.10265 0.57446 0.74386
 C634 C -0.11970 0.59149 0.74387
 C635 C -0.06256 0.56235 0.75039
 C636 C -0.04788 0.54766 0.75037
 H637 H -0.18904 0.64032 0.76450
 H638 H -0.15917 0.61039 0.76478
 H639 H -0.11051 0.65900 0.73612
 H640 H -0.14041 0.68889 0.73635
 H641 H -0.08708 0.63676 0.76246
 H642 H -0.05723 0.60681 0.76218
 H643 H -0.10705 0.55708 0.73867
 H644 H -0.13696 0.58695 0.73844
 C645 C -0.19863 0.30164 0.25000
 C646 C -0.18396 0.31636 0.24999
 C647 C -0.16646 0.33393 0.24997
 C648 C -0.16533 0.34987 0.26800
 C649 C -0.14834 0.36696 0.26798
 C650 C -0.13224 0.36833 0.24991
 C651 C -0.13352 0.35221 0.23186
 C652 C -0.15053 0.33514 0.23191
 C653 C -0.11418 0.38648 0.24986
 C654 C -0.09152 0.38132 0.24292
 C655 C -0.07454 0.39842 0.24288
 C656 C -0.07997 0.42089 0.24976
 C657 C -0.10246 0.42620 0.25670
 C658 C -0.11946 0.40912 0.25676
 C659 C -0.06248 0.43847 0.24971
 C660 C -0.04782 0.45320 0.24966
 H661 H -0.17753 0.34904 0.28210
 H662 H -0.14762 0.37893 0.28226
 H663 H -0.12157 0.35299 0.21756
 H664 H -0.15130 0.32292 0.21784
 H665 H -0.08685 0.36400 0.23780
 H666 H -0.05717 0.39411 0.23755
 H667 H -0.10686 0.44355 0.26200
 H668 H -0.13680 0.41370 0.26191
 C669 C 0.19831 0.30152 0.74986
 C670 C 0.18361 0.31620 0.74989
 C671 C 0.16607 0.33373 0.74994
 C672 C 0.17181 0.35656 0.75518
 C673 C 0.15478 0.37361 0.75522
 C674 C 0.13175 0.36803 0.75004
 C675 C 0.12617 0.34502 0.74481
 C676 C 0.14323 0.32800 0.74476
 C677 C 0.11365 0.38613 0.75008
 C678 C 0.09167 0.38156 0.75928
 C679 C 0.07464 0.39861 0.75930
 C680 C 0.07933 0.42042 0.75014
 C681 C 0.10112 0.42515 0.74094
 C682 C 0.11818 0.40813 0.74091
 C683 C 0.06178 0.43795 0.75015
 C684 C 0.04708 0.45263 0.75018
 H685 H 0.18943 0.36117 0.75928
 H686 H 0.15957 0.39110 0.75960
 H687 H 0.10866 0.34023 0.74046
 H688 H 0.13861 0.31039 0.74062
 H689 H 0.08774 0.36490 0.76673
 H690 H 0.05784 0.39479 0.76652
 H691 H 0.10491 0.44196 0.73374
 H692 H 0.13482 0.41209 0.73344
 C693 C 0.19882 0.69891 0.24941
 C694 C 0.18406 0.68428 0.24936
 C695 C 0.16645 0.66681 0.24931
 C696 C 0.14420 0.67205 0.25699
 C697 C 0.12708 0.65508 0.25697
 C698 C 0.13203 0.63263 0.24928
 C699 C 0.15447 0.62755 0.24159
 C700 C 0.17155 0.64455 0.24161
 C701 C 0.11387 0.61458 0.24928
 C702 C 0.11905 0.59187 0.25606
 C703 C 0.10195 0.57490 0.25607
 C704 C 0.07945 0.58037 0.24932
 C705 C 0.07412 0.60290 0.24254
 C706 C 0.09119 0.61991 0.24253
 C707 C 0.06187 0.56288 0.24934
 C708 C 0.04715 0.54822 0.24937
 H709 H 0.14009 0.68922 0.26306
 H710 H 0.11006 0.65945 0.26327
 H711 H 0.15873 0.61052 0.23528
 H712 H 0.18871 0.64033 0.23557
 H713 H 0.13626 0.58730 0.26164
 H714 H 0.10625 0.55752 0.26141
 H715 H 0.05677 0.60731 0.23722
 H716 H 0.08673 0.63715 0.23694
 C717 C 0.75001 -0.19864 0.69857
 C718 C 0.74999 -0.18397 0.68386
 C719 C 0.74998 -0.16645 0.66632
 C720 C 0.73689 -0.14640 0.66924
 C721 C 0.73688 -0.12936 0.65221
 C722 C 0.74997 -0.13216 0.63201
 C723 C 0.76306 -0.15240 0.62923
 C724 C 0.76305 -0.16941 0.64629
 C725 C 0.74997 -0.11406 0.61391
 C726 C 0.74934 -0.12012 0.59047
 C727 C 0.74934 -0.10306 0.57345
 C728 C 0.75000 -0.07976 0.57961
 C729 C 0.75065 -0.07356 0.60287
 C730 C 0.75063 -0.09058 0.61992
 C731 C 0.75002 -0.06222 0.56208
 C732 C 0.75004 -0.04752 0.54740
 H733 H 0.72665 -0.14397 0.68465
 H734 H 0.72639 -0.11412 0.65472
 H735 H 0.77354 -0.15493 0.61402
 H736 H 0.77330 -0.18484 0.64389
 H737 H 0.74852 -0.13802 0.58530
 H738 H 0.74877 -0.10805 0.55549
 H739 H 0.75123 -0.05557 0.60783
 H740 H 0.75143 -0.08538 0.63780
 C741 C 0.25000 -0.19888 0.30136
 C742 C 0.25002 -0.18423 0.31606
 C743 C 0.25003 -0.16674 0.33360
 C744 C 0.22937 -0.16030 0.34424
 C745 C 0.22935 -0.14329 0.36127
 C746 C 0.25004 -0.13250 0.36789
 C747 C 0.27072 -0.13912 0.35709
 C748 C 0.27069 -0.15612 0.34005
 C749 C 0.25004 -0.11443 0.38598
 C750 C 0.26766 -0.11367 0.40260
 C751 C 0.26764 -0.09666 0.41963
 C752 C 0.25003 -0.08019 0.42027
 C753 C 0.23243 -0.08079 0.40383
 C754 C 0.23241 -0.09779 0.38679
 C755 C 0.25002 -0.06268 0.43780
 C756 C 0.25002 -0.04801 0.45247
 H757 H 0.21328 -0.16846 0.33942
 H758 H 0.21320 -0.13880 0.36947
 H759 H 0.28687 -0.13093 0.36159
 H760 H 0.28677 -0.16093 0.33186
 H761 H 0.28130 -0.12641 0.40261
 H762 H 0.28131 -0.09639 0.43232
 H763 H 0.21875 -0.06807 0.40413
 H764 H 0.21877 -0.09773 0.37408
 C765 C 0.75052 0.19900 0.30170
 C766 C 0.75049 0.18430 0.31639
 C767 C 0.75045 0.16675 0.33390
 C768 C 0.76649 0.16759 0.35185
 C769 C 0.76647 0.15054 0.36888
 C770 C 0.75038 0.13240 0.36815
 C771 C 0.73433 0.13172 0.35001
 C772 C 0.73437 0.14879 0.33302
 C773 C 0.75035 0.11427 0.38622
 C774 C 0.74680 0.09101 0.38037
 C775 C 0.74677 0.07396 0.39739
 C776 C 0.75027 0.07991 0.42046
 C777 C 0.75381 0.10300 0.42646
 C778 C 0.75387 0.12008 0.40947
 C779 C 0.75022 0.06235 0.43796
 C780 C 0.75019 0.04763 0.45262
 H781 H 0.77906 0.18139 0.35266
 H782 H 0.77924 0.15139 0.38244
 H783 H 0.72154 0.11815 0.34914
 H784 H 0.72183 0.14802 0.31922
 H785 H 0.74435 0.08596 0.36260
 H786 H 0.74408 0.05613 0.39255
 H787 H 0.75647 0.10780 0.44428
 H788 H 0.75635 0.13786 0.41455
 C789 C 0.25002 0.19803 0.69817
 C790 C 0.25002 0.18335 0.68351
 C791 C 0.25002 0.16582 0.66600
 C792 C 0.25807 0.14366 0.67106
 C793 C 0.25807 0.12661 0.65407
 C794 C 0.25002 0.13154 0.63175
 C795 C 0.24198 0.15390 0.62684
 C796 C 0.24198 0.17091 0.64387
 C797 C 0.25002 0.11345 0.61368
 C798 C 0.25643 0.11881 0.59093
 C799 C 0.25642 0.10176 0.57394
 C800 C 0.24999 0.07917 0.57943
 C801 C 0.24357 0.07366 0.60200
 C802 C 0.24358 0.09068 0.61902
 C803 C 0.24997 0.06164 0.56192
 C804 C 0.24997 0.04696 0.54726
 H805 H 0.26439 0.13956 0.68812
 H806 H 0.26465 0.10966 0.65830
 H807 H 0.23540 0.15815 0.60992
 H808 H 0.23565 0.18800 0.63979
 H809 H 0.26176 0.13610 0.58634
 H810 H 0.26148 0.10619 0.55653
 H811 H 0.23849 0.05624 0.60642
 H812 H 0.23827 0.08608 0.63630
   
