data_POSCAR
  _audit_creation_date              2014-09-24
  _audit_creation_method            'ToBaCCo'
  _symmetry_space_group_name_H-M    'P1'
  _symmetry_Int_Tables_number       1
  _symmetry_cell_setting            triclinic
  loop_
  _symmetry_equiv_pos_as_xyz
 x,y,z
_cell_length_a 48.1036
_cell_length_b 48.0666
_cell_length_c 48.6943
_cell_angle_alpha 89.886500
_cell_angle_beta 90.337500
_cell_angle_gamma 92.338000
loop_
  _atom_site_label
  _atom_site_type_symbol
  _atom_site_fract_x
  _atom_site_fract_y
  _atom_site_fract_z
C1 C -0.05135 0.31952 0.02495
 C2 C -0.06588 0.32067 -0.00016
 C3 C -0.05259 0.31870 -0.02566
 C4 C -0.02308 0.31775 -0.02616
 C5 C -0.00780 0.31684 -0.00118
 C6 C -0.02180 0.31839 0.02439
 C7 C -0.00561 0.32116 0.04849
 C8 C 0.02319 0.31973 0.04786
 C9 C 0.03723 0.31595 0.02303
 C10 C 0.02175 0.31524 -0.00182
 C11 C -0.00820 0.32024 -0.05091
 C12 C 0.02047 0.31803 -0.05152
 C13 C 0.03580 0.31371 -0.02735
 C14 C 0.06512 0.31050 -0.02793
 C15 C 0.07988 0.31171 -0.00293
 C16 C 0.06649 0.31420 0.02230
 H17 H -0.01489 0.32536 0.06813
 H18 H 0.03438 0.32224 0.06709
 H19 H -0.01846 0.32466 -0.07015
 H20 H 0.03059 0.32071 -0.07118
 H21 H -0.08843 0.31997 0.00020
 H22 H 0.10210 0.30869 -0.00269
 C23 C 0.43190 0.81104 0.52455
 C24 C 0.41701 0.81036 0.49977
 C25 C 0.43053 0.81138 0.47440
 C26 C 0.45998 0.81337 0.47369
 C27 C 0.47538 0.81430 0.49867
 C28 C 0.46129 0.81389 0.52415
 C29 C 0.47694 0.81676 0.54854
 C30 C 0.50588 0.81813 0.54804
 C31 C 0.52034 0.81645 0.52315
 C32 C 0.50494 0.81528 0.49819
 C33 C 0.47447 0.81496 0.44873
 C34 C 0.50340 0.81549 0.44825
 C35 C 0.51902 0.81475 0.47273
 C36 C 0.54838 0.81391 0.47240
 C37 C 0.56330 0.81528 0.49715
 C38 C 0.54979 0.81640 0.52249
 H39 H 0.46695 0.81822 0.56830
 H40 H 0.51676 0.82057 0.56744
 H41 H 0.46362 0.81584 0.42925
 H42 H 0.51341 0.81674 0.42843
 H43 H 0.39452 0.80768 0.50021
 H44 H 0.58577 0.81415 0.49677
 C45 C 1.04548 0.70582 -0.02911
 C46 C 1.06096 0.70238 -0.00510
 C47 C 1.04913 0.70324 0.02116
 C48 C 1.01975 0.70613 0.02314
 C49 C 1.00352 0.70897 -0.00128
 C50 C 1.01666 0.70998 -0.02728
 C51 C 1.00099 0.71688 -0.05054
 C52 C 0.97256 0.72053 -0.04883
 C53 C 0.95820 0.71647 -0.02396
 C54 C 0.97423 0.71232 0.00034
 C55 C 1.00631 0.70860 0.04857
 C56 C 0.97768 0.71068 0.05015
 C57 C 0.96127 0.71270 0.02637
 C58 C 0.93230 0.71579 0.02804
 C59 C 0.91661 0.71836 0.00408
 C60 C 0.92874 0.71896 -0.02214
 H61 H 1.01067 0.72044 -0.07029
 H62 H 0.96231 0.72746 -0.06724
 H63 H 1.01752 0.70967 0.06777
 H64 H 0.96867 0.71128 0.07042
 H65 H 1.08293 0.69852 -0.00706
 H66 H 0.89425 0.71955 0.00615
 C67 C 0.56142 0.20549 0.52423
 C68 C 0.57532 0.20735 0.49913
 C69 C 0.56091 0.20920 0.47413
 C70 C 0.53137 0.20904 0.47435
 C71 C 0.51691 0.20528 0.49956
 C72 C 0.53200 0.20361 0.52456
 C73 C 0.51732 0.20027 0.54929
 C74 C 0.48841 0.19918 0.54963
 C75 C 0.47287 0.20033 0.52515
 C76 C 0.48728 0.20387 0.49986
 C77 C 0.51590 0.21371 0.45034
 C78 C 0.48696 0.21285 0.45067
 C79 C 0.47217 0.20698 0.47498
 C80 C 0.44270 0.20535 0.47538
 C81 C 0.42895 0.20102 0.50036
 C82 C 0.44335 0.19896 0.52526
 H83 H 0.52802 0.19844 0.56876
 H84 H 0.47853 0.19765 0.56945
 H85 H 0.52597 0.21872 0.43106
 H86 H 0.47639 0.21725 0.43161
 H87 H 0.59788 0.20806 0.49914
 H88 H 0.40638 0.19956 0.50047
 C89 C 0.70383 -0.05073 -0.02268
 C90 C 0.69924 -0.06493 0.00236
 C91 C 0.69771 -0.05092 0.02760
 C92 C 0.69732 -0.02138 0.02731
 C93 C 0.70335 -0.00652 0.00273
 C94 C 0.70810 -0.02119 -0.02192
 C95 C 0.71928 -0.00607 -0.04434
 C96 C 0.72205 0.02284 -0.04383
 C97 C 0.71336 0.03816 -0.02105
 C98 C 0.70544 0.02315 0.00305
 C99 C 0.68985 -0.00636 0.05072
 C100 C 0.69156 0.02253 0.05100
 C101 C 0.70047 0.03763 0.02775
 C102 C 0.70426 0.06689 0.02857
 C103 C 0.71072 0.08148 0.00446
 C104 C 0.71479 0.06791 -0.02072
 H105 H 0.72701 -0.01648 -0.06224
 H106 H 0.73188 0.03292 -0.06131
 H107 H 0.68235 -0.01685 0.06908
 H108 H 0.68574 0.03291 0.06968
 H109 H 0.69739 -0.08742 0.00234
 H110 H 0.71198 0.10401 0.00550
 C111 C 0.18677 0.42288 0.52609
 C112 C 0.18923 0.40915 0.50097
 C113 C 0.19150 0.42382 0.47619
 C114 C 0.19127 0.45329 0.47638
 C115 C 0.18782 0.46749 0.50158
 C116 C 0.18516 0.45221 0.52646
 C117 C 0.18046 0.46660 0.55099
 C118 C 0.17956 0.49548 0.55133
 C119 C 0.18353 0.51116 0.52719
 C120 C 0.18713 0.49705 0.50195
 C121 C 0.19415 0.46894 0.45207
 C122 C 0.19451 0.49789 0.45255
 C123 C 0.19054 0.51243 0.47716
 C124 C 0.19046 0.54192 0.47786
 C125 C 0.18675 0.55537 0.50296
 C126 C 0.18364 0.54059 0.52755
 H127 H 0.17707 0.45563 0.57018
 H128 H 0.17557 0.50537 0.57077
 H129 H 0.19637 0.45903 0.43234
 H130 H 0.19794 0.50863 0.43329
 H131 H 0.19040 0.38666 0.50078
 H132 H 0.18709 0.57795 0.50347
 C133 C 0.30456 0.92649 0.02433
 C134 C 0.30604 0.91276 -0.00085
 C135 C 0.30639 0.92720 -0.02600
 C136 C 0.30703 0.95687 -0.02552
 C137 C 0.30504 0.97112 -0.00012
 C138 C 0.30403 0.95588 0.02488
 C139 C 0.30363 0.97049 0.04983
 C140 C 0.30310 0.99935 0.05029
 C141 C 0.30316 1.01489 0.02582
 C142 C 0.30478 1.00076 0.00036
 C143 C 0.31211 0.97275 -0.04940
 C144 C 0.31216 1.00166 -0.04890
 C145 C 0.30688 1.01619 -0.02455
 C146 C 0.30615 1.04581 -0.02399
 C147 C 0.30474 1.05915 0.00161
 C148 C 0.30275 1.04427 0.02624
 H149 H 0.30420 0.95980 0.06938
 H150 H 0.30327 1.00938 0.07016
 H151 H 0.31710 0.96305 -0.06867
 H152 H 0.31726 1.01246 -0.06781
 H153 H 0.30498 0.89017 -0.00073
 H154 H 0.30326 1.08160 0.00243
 C155 C 0.81645 0.45424 0.47529
 C156 C 0.81577 0.43902 0.49983
 C157 C 0.81500 0.45219 0.52541
 C158 C 0.81550 0.48166 0.52664
 C159 C 0.81611 0.49741 0.50196
 C160 C 0.81718 0.48371 0.47624
 C161 C 0.81941 0.49985 0.45218
 C162 C 0.81879 0.52874 0.45319
 C163 C 0.81580 0.54266 0.47829
 C164 C 0.81529 0.52692 0.50298
 C165 C 0.81588 0.49583 0.55188
 C166 C 0.81486 0.52469 0.55287
 C167 C 0.81359 0.54058 0.52867
 C168 C 0.81113 0.56983 0.52948
 C169 C 0.81168 0.58503 0.50493
 C170 C 0.81375 0.57195 0.47943
 H171 H 0.82185 0.49031 0.43228
 H172 H 0.82078 0.54004 0.43403
 H173 H 0.81707 0.48476 0.57118
 H174 H 0.81529 0.53443 0.57289
 H175 H 0.81446 0.41645 0.49897
 H176 H 0.80909 0.60733 0.50560
 O177 O 0.25236 0.20410 0.22862
 O178 O 0.23203 0.25729 0.27831
 O179 O 0.21473 0.24133 0.22978
 O180 O 0.26904 0.21988 0.27770
 O181 O 0.29935 0.24935 0.25819
 O182 O 0.24426 0.27215 0.21126
 O183 O 0.26254 0.28730 0.26000
 O184 O 0.28183 0.23467 0.20961
 Cu185 Cu 0.23905 0.22756 0.25543
 Cu186 Cu 0.27492 0.26395 0.23282
 C187 C 0.27047 0.21038 0.21048
 C188 C 0.24422 0.28125 0.27797
 C189 C 0.22014 0.26037 0.21228
 C190 C 0.29336 0.23107 0.27632
 O191 O 0.74406 0.79423 0.23326
 O192 O 0.76619 0.74322 0.28495
 O193 O 0.78108 0.75666 0.23508
 O194 O 0.73027 0.78227 0.28373
 O195 O 0.69875 0.75147 0.26824
 O196 O 0.74975 0.72601 0.21898
 O197 O 0.73475 0.71269 0.26884
 O198 O 0.71252 0.76352 0.21766
 Cu199 Cu 0.75854 0.77215 0.26089
 Cu200 Cu 0.72077 0.73535 0.24188
 C201 C 0.72466 0.78744 0.21642
 C202 C 0.75410 0.71921 0.28576
 C203 C 0.77412 0.73728 0.21845
 C204 C 0.70589 0.77119 0.28451
 O205 O 0.80929 0.24687 0.24127
 O206 O 0.75685 0.22731 0.29349
 O207 O 0.76980 0.20855 0.24472
 O208 O 0.79658 0.26489 0.28986
 O209 O 0.76648 0.29317 0.27172
 O210 O 0.74112 0.23732 0.22510
 O211 O 0.72694 0.25471 0.27364
 O212 O 0.78032 0.27608 0.22278
 Cu213 Cu 0.78600 0.23396 0.26918
 Cu214 Cu 0.75079 0.26818 0.24639
 C215 C 0.80380 0.26485 0.22306
 C216 C 0.73307 0.23788 0.29267
 C217 C 0.75129 0.21339 0.22681
 C218 C 0.78574 0.28853 0.28891
 O219 O 0.24220 0.69235 0.26369
 O220 O 0.26412 0.74918 0.21659
 O221 O 0.28099 0.73185 0.26465
 O222 O 0.22587 0.70977 0.21575
 O223 O 0.19631 0.73603 0.23717
 O224 O 0.25263 0.76092 0.28386
 O225 O 0.23402 0.77641 0.23584
 O226 O 0.21496 0.72098 0.28519
 Cu227 Cu 0.25624 0.71800 0.23819
 Cu228 Cu 0.22158 0.75140 0.26252
 C229 C 0.22523 0.69719 0.28282
 C230 C 0.25230 0.77232 0.21773
 C231 C 0.27629 0.75017 0.28264
 C232 C 0.20167 0.71909 0.21809
 O233 O 0.76910 0.20383 0.75809
 O234 O 0.79388 0.25747 0.70874
 O235 O 0.80857 0.24240 0.75830
 O236 O 0.75431 0.21897 0.70890
 O237 O 0.72553 0.24828 0.72710
 O238 O 0.78014 0.27265 0.77547
 O239 O 0.76470 0.28688 0.72612
 O240 O 0.74133 0.23403 0.77653
 Cu241 Cu 0.78438 0.22772 0.73171
 Cu242 Cu 0.75002 0.26343 0.75304
 C243 C 0.75137 0.21000 0.77609
 C244 C 0.78319 0.28122 0.70870
 C245 C 0.80354 0.26134 0.77554
 C246 C 0.73065 0.22976 0.70947
 O247 O 0.23300 0.78160 0.76160
 O248 O 0.21382 0.72350 0.71471
 O249 O 0.19836 0.73881 0.76344
 O250 O 0.24744 0.76736 0.71216
 O251 O 0.28049 0.74205 0.72959
 O252 O 0.23191 0.71509 0.78228
 O253 O 0.24659 0.69873 0.73343
 O254 O 0.26677 0.75706 0.77879
 Cu255 Cu 0.21982 0.75526 0.73609
 Cu256 Cu 0.25975 0.72567 0.75773
 C257 C 0.25312 0.77911 0.77839
 C258 C 0.22701 0.70113 0.71609
 C259 C 0.20691 0.72266 0.78204
 C260 C 0.27230 0.75946 0.71194
 O261 O 0.25827 0.27524 0.73477
 O262 O 0.27698 0.21879 0.78187
 O263 O 0.29129 0.23385 0.73214
 O264 O 0.24491 0.26084 0.78483
 O265 O 0.21027 0.23386 0.76903
 O266 O 0.25612 0.20860 0.71474
 O267 O 0.24281 0.19207 0.76476
 O268 O 0.22288 0.24915 0.71914
 Cu269 Cu 0.27136 0.24977 0.76007
 Cu270 Cu 0.22959 0.21814 0.74034
 C271 C 0.23741 0.27181 0.71881
 C272 C 0.26294 0.19582 0.78152
 C273 C 0.28143 0.21724 0.71396
 C274 C 0.21976 0.25184 0.78616
 O275 O 0.73915 0.71912 0.73193
 O276 O 0.71323 0.76676 0.78415
 O277 O 0.69787 0.75238 0.73407
 O278 O 0.75339 0.73326 0.78192
 O279 O 0.78099 0.76684 0.76500
 O280 O 0.72499 0.78635 0.71738
 O281 O 0.74027 0.80082 0.76742
 O282 O 0.76632 0.75313 0.71534
 Cu283 Cu 0.72306 0.73952 0.75955
 Cu284 Cu 0.75575 0.78027 0.73959
 C285 C 0.75726 0.72795 0.71475
 C286 C 0.72287 0.79174 0.78516
 C287 C 0.70198 0.77237 0.71729
 C288 C 0.77656 0.74689 0.78180
 C289 C 0.27441 0.05598 0.06739
 C290 C 0.26966 0.07253 0.09033
 C291 C 0.28879 0.09396 0.09776
 C292 C 0.31317 0.09831 0.08226
 C293 C 0.31803 0.08164 0.05944
 C294 C 0.29867 0.06037 0.05179
 N295 N 0.28251 0.11160 0.12039
 N296 N 0.29774 0.13301 0.12645
 C297 C 0.29129 0.15124 0.14855
 C298 C 0.30743 0.17585 0.15200
 C299 C 0.30089 0.19489 0.17236
 C300 C 0.27813 0.18949 0.18985
 C301 C 0.26234 0.16440 0.18679
 C302 C 0.26878 0.14546 0.16623
 H303 H 0.25896 0.04004 0.06150
 H304 H 0.25073 0.06908 0.10199
 H305 H 0.32826 0.11478 0.08756
 H306 H 0.33673 0.08552 0.04751
 H307 H 0.32483 0.18051 0.13852
 H308 H 0.31354 0.21396 0.17425
 H309 H 0.24467 0.15966 0.19992
 H310 H 0.25603 0.12651 0.16398
 C311 C 0.78164 0.57783 0.57069
 C312 C 0.77490 0.59352 0.59365
 C313 C 0.79140 0.61695 0.60114
 C314 C 0.81527 0.62421 0.58574
 C315 C 0.82217 0.60837 0.56290
 C316 C 0.80537 0.58508 0.55516
 N317 N 0.78286 0.63355 0.62372
 N318 N 0.79523 0.65661 0.62990
 C319 C 0.78618 0.67353 0.65204
 C320 C 0.79906 0.69984 0.65600
 C321 C 0.78986 0.71745 0.67654
 C322 C 0.76764 0.70891 0.69365
 C323 C 0.75509 0.68222 0.68998
 C324 C 0.76421 0.66471 0.66929
 H325 H 0.76806 0.56033 0.56471
 H326 H 0.75638 0.58784 0.60524
 H327 H 0.82833 0.64227 0.59111
 H328 H 0.84038 0.61447 0.55100
 H329 H 0.81602 0.70686 0.64283
 H330 H 0.80003 0.73783 0.67889
 H331 H 0.73793 0.67503 0.70281
 H332 H 0.75393 0.64442 0.66665
 C333 C 0.71644 0.94254 0.07413
 C334 C 0.71944 0.92632 0.09769
 C335 C 0.70528 0.90051 0.10007
 C336 C 0.68768 0.89109 0.07862
 C337 C 0.68467 0.90726 0.05494
 C338 C 0.69891 0.93340 0.05232
 N339 N 0.71010 0.88385 0.12392
 N340 N 0.69794 0.86014 0.12757
 C341 C 0.70369 0.84314 0.15096
 C342 C 0.68968 0.81722 0.15357
 C343 C 0.69600 0.79938 0.17522
 C344 C 0.71659 0.80720 0.19468
 C345 C 0.73020 0.83354 0.19237
 C346 C 0.72382 0.85138 0.17070
 H347 H 0.72890 0.96175 0.07253
 H348 H 0.73338 0.93362 0.11392
 H349 H 0.67651 0.87113 0.07998
 H350 H 0.67073 0.89946 0.03893
 H351 H 0.67415 0.81063 0.13849
 H352 H 0.68511 0.77925 0.17639
 H353 H 0.74614 0.84019 0.20701
 H354 H 0.73496 0.87134 0.16913
 C355 C 0.16863 0.38360 0.55576
 C356 C 0.17113 0.36625 0.57865
 C357 C 0.19294 0.37081 0.59749
 C358 C 0.21206 0.39334 0.59345
 C359 C 0.20959 0.41066 0.57056
 C360 C 0.18788 0.40591 0.55152
 N361 N 0.19599 0.35156 0.61970
 N362 N 0.21555 0.35433 0.63733
 C363 C 0.21938 0.33441 0.65882
 C364 C 0.24166 0.33856 0.67715
 C365 C 0.24717 0.31858 0.69715
 C366 C 0.23039 0.29400 0.69910
 C367 C 0.20758 0.29024 0.68109
 C368 C 0.20211 0.31024 0.66112
 H369 H 0.15192 0.37944 0.54115
 H370 H 0.15637 0.34887 0.58146
 H371 H 0.22920 0.39720 0.60761
 H372 H 0.22494 0.42746 0.56736
 H373 H 0.25514 0.35709 0.67555
 H374 H 0.26489 0.32212 0.71069
 H375 H 0.19424 0.27157 0.68205
 H376 H 0.18474 0.30655 0.64719
 C377 C 0.90910 0.33357 0.05283
 C378 C 0.89201 0.33006 0.07580
 C379 C 0.89779 0.31024 0.09584
 C380 C 0.92125 0.29406 0.09283
 C381 C 0.93842 0.29752 0.06986
 C382 C 0.93274 0.31746 0.04946
 N383 N 0.87891 0.30625 0.11833
 N384 N 0.88280 0.28865 0.13740
 C385 C 0.86336 0.28412 0.15935
 C386 C 0.86915 0.26462 0.17975
 C387 C 0.85007 0.25873 0.20075
 C388 C 0.82469 0.27225 0.20167
 C389 C 0.81911 0.29218 0.18138
 C390 C 0.83826 0.29809 0.16042
 H391 H 0.90394 0.34922 0.03780
 H392 H 0.87395 0.34262 0.07782
 H393 H 0.92595 0.27829 0.10787
 H394 H 0.95542 0.28365 0.06748
 H395 H 0.88838 0.25369 0.17917
 H396 H 0.85503 0.24326 0.21601
 H397 H 0.79979 0.30297 0.18148
 H398 H 0.83326 0.31325 0.14488
 C399 C 0.42196 0.78298 0.56688
 C400 C 0.40601 0.77692 0.59013
 C401 C 0.38369 0.79331 0.59682
 C402 C 0.37775 0.81635 0.58025
 C403 C 0.39388 0.82258 0.55708
 C404 C 0.41611 0.80593 0.55023
 N405 N 0.36684 0.78543 0.61987
 N406 N 0.34461 0.79757 0.62565
 C407 C 0.32755 0.78888 0.64832
 C408 C 0.30182 0.80087 0.65181
 C409 C 0.28395 0.79161 0.67273
 C410 C 0.29171 0.77026 0.69066
 C411 C 0.31790 0.75874 0.68753
 C412 C 0.33564 0.76789 0.66649
 H413 H 0.43863 0.76951 0.56159
 H414 H 0.41063 0.75902 0.60264
 H415 H 0.36052 0.82928 0.58502
 H416 H 0.38887 0.84019 0.54432
 H417 H 0.29538 0.81706 0.63794
 H418 H 0.26396 0.80097 0.67468
 H419 H 0.32448 0.74228 0.70100
 H420 H 0.35549 0.75834 0.66424
 C421 C 0.09323 0.71779 0.04313
 C422 C 0.11200 0.71729 0.06498
 C423 C 0.10569 0.70183 0.08853
 C424 C 0.08073 0.68569 0.08964
 C425 C 0.06218 0.68542 0.06729
 C426 C 0.06764 0.70231 0.04401
 N427 N 0.12521 0.70304 0.11078
 N428 N 0.11854 0.69806 0.13561
 C429 C 0.13919 0.70031 0.15690
 C430 C 0.13131 0.70721 0.18359
 C431 C 0.15157 0.71290 0.20382
 C432 C 0.17996 0.71095 0.19774
 C433 C 0.18767 0.70257 0.17133
 C434 C 0.16750 0.69758 0.15102
 H435 H 0.09849 0.73111 0.02579
 H436 H 0.13129 0.72967 0.06387
 H437 H 0.07590 0.67294 0.10747
 H438 H 0.04387 0.67158 0.06806
 H439 H 0.10956 0.70939 0.18839
 H440 H 0.14508 0.71918 0.22407
 H441 H 0.20938 0.70094 0.16605
 H442 H 0.17405 0.69206 0.13057
 C443 C 0.57542 0.22969 0.56783
 C444 C 0.59249 0.23253 0.59102
 C445 C 0.61310 0.21347 0.59617
 C446 C 0.61622 0.19108 0.57804
 C447 C 0.59899 0.18811 0.55491
 C448 C 0.57845 0.20738 0.54967
 N449 N 0.63118 0.21802 0.61930
 N450 N 0.65181 0.20298 0.62416
 C451 C 0.67021 0.20850 0.64690
 C452 C 0.69433 0.19339 0.64944
 C453 C 0.71375 0.19979 0.67019
 C454 C 0.70918 0.22137 0.68890
 C455 C 0.68445 0.23588 0.68685
 C456 C 0.66518 0.22958 0.66600
 H457 H 0.56006 0.24508 0.56382
 H458 H 0.59005 0.24996 0.60473
 H459 H 0.63210 0.17614 0.58157
 H460 H 0.60181 0.17094 0.54095
 H461 H 0.69842 0.17709 0.63486
 H462 H 0.73255 0.18818 0.67128
 H463 H 0.68030 0.25261 0.70092
 H464 H 0.64661 0.24150 0.66453
 C465 C 0.73600 0.10968 0.95728
 C466 C 0.73959 0.12711 0.93454
 C467 C 0.72744 0.11993 0.90932
 C468 C 0.71113 0.09516 0.90706
 C469 C 0.70691 0.07794 0.93001
 C470 C 0.71966 0.08464 0.95551
 N471 N 0.73147 0.13861 0.88667
 N472 N 0.72782 0.13120 0.86179
 C473 C 0.73177 0.15091 0.83992
 C474 C 0.73890 0.14160 0.81376
 C475 C 0.74500 0.16076 0.79273
 C476 C 0.74317 0.18947 0.79743
 C477 C 0.73482 0.19864 0.82336
 C478 C 0.72947 0.17957 0.84451
 H479 H 0.74666 0.11564 0.97615
 H480 H 0.75221 0.14619 0.93650
 H481 H 0.70103 0.08957 0.88781
 H482 H 0.69286 0.05988 0.92796
 H483 H 0.74067 0.11956 0.80996
 H484 H 0.75130 0.15317 0.77288
 H485 H 0.73336 0.22065 0.82756
 H486 H 0.72371 0.18719 0.86451
 C487 C 0.21776 0.58017 0.45448
 C488 C 0.22210 0.59871 0.43273
 C489 C 0.20521 0.59692 0.40932
 C490 C 0.18350 0.57649 0.40793
 C491 C 0.17860 0.55837 0.43011
 C492 C 0.19594 0.55986 0.45345
 N493 N 0.20981 0.61695 0.38793
 N494 N 0.20234 0.61260 0.36315
 C495 C 0.20672 0.63386 0.34283
 C496 C 0.21120 0.62645 0.31547
 C497 C 0.21728 0.64703 0.29575
 C498 C 0.21795 0.67531 0.30307
 C499 C 0.21241 0.68268 0.33031
 C500 C 0.20719 0.66214 0.35011
 H501 H 0.23122 0.58190 0.47237
 H502 H 0.23874 0.61453 0.43407
 H503 H 0.16991 0.57513 0.39014
 H504 H 0.16117 0.54340 0.42921
 H505 H 0.21082 0.60472 0.30961
 H506 H 0.22137 0.64089 0.27482
 H507 H 0.21290 0.70435 0.33647
 H508 H 0.20350 0.66829 0.37111
 C509 C 0.31955 0.88696 0.94665
 C510 C 0.31625 0.87017 0.92341
 C511 C 0.29756 0.87695 0.90263
 C512 C 0.28242 0.90118 0.90505
 C513 C 0.28581 0.91817 0.92823
 C514 C 0.30449 0.91136 0.94945
 N515 N 0.29360 0.85821 0.88000
 N516 N 0.27584 0.86182 0.86098
 C517 C 0.27174 0.84205 0.83917
 C518 C 0.25052 0.84576 0.81986
 C519 C 0.24481 0.82570 0.79956
 C520 C 0.26035 0.80158 0.79828
 C521 C 0.28218 0.79837 0.81722
 C522 C 0.28780 0.81835 0.83747
 H523 H 0.33428 0.88102 0.96230
 H524 H 0.32801 0.85151 0.92178
 H525 H 0.26757 0.90666 0.88936
 H526 H 0.27284 0.93596 0.93008
 H527 H 0.23798 0.86393 0.82094
 H528 H 0.22787 0.82880 0.78528
 H529 H 0.29460 0.78009 0.81679
 H530 H 0.30439 0.81500 0.85207
 C531 C 0.79098 0.44221 0.43167
 C532 C 0.78733 0.42598 0.40806
 C533 C 0.80615 0.40552 0.40179
 C534 C 0.82915 0.40180 0.41920
 C535 C 0.83291 0.41815 0.44276
 C536 C 0.81384 0.43847 0.44918
 N537 N 0.80065 0.38801 0.37847
 N538 N 0.81568 0.36766 0.37268
 C539 C 0.80936 0.34949 0.35002
 C540 C 0.82494 0.32582 0.34663
 C541 C 0.81780 0.30636 0.32622
 C542 C 0.79496 0.31040 0.30869
 C543 C 0.77999 0.33475 0.31147
 C544 C 0.78704 0.35409 0.33202
 H545 H 0.77571 0.45736 0.43657
 H546 H 0.76942 0.42889 0.39494
 H547 H 0.84393 0.38602 0.41484
 H548 H 0.85050 0.41476 0.45618
 H549 H 0.84218 0.32205 0.36035
 H550 H 0.82981 0.28787 0.32457
 H551 H 0.76228 0.33846 0.29832
 H552 H 0.77472 0.37230 0.33418
 C553 C 0.06907 0.28471 0.92859
 C554 C 0.08451 0.27732 0.90567
 C555 C 0.11123 0.28901 0.90145
 C556 C 0.12235 0.30850 0.92039
 C557 C 0.10698 0.31593 0.94333
 C558 C 0.07995 0.30432 0.94779
 N559 N 0.12693 0.28016 0.87832
 N560 N 0.15162 0.28954 0.87382
 C561 C 0.16779 0.28045 0.85114
 C562 C 0.19498 0.29140 0.84810
 C563 C 0.21175 0.28235 0.82683
 C564 C 0.20156 0.26211 0.80809
 C565 C 0.17406 0.25139 0.81096
 C566 C 0.15731 0.26045 0.83232
 H567 H 0.04905 0.27412 0.93184
 H568 H 0.07584 0.26197 0.89142
 H569 H 0.14299 0.31787 0.91761
 H570 H 0.11616 0.33124 0.95733
 H571 H 0.20330 0.30680 0.86248
 H572 H 0.23280 0.29106 0.82522
 H573 H 0.16557 0.23578 0.79690
 H574 H 0.13633 0.25166 0.83423
 C575 C 0.55821 0.78479 0.43142
 C576 C 0.57376 0.77928 0.40809
 C577 C 0.59557 0.79759 0.40010
 C578 C 0.60151 0.82184 0.41554
 C579 C 0.58584 0.82745 0.43883
 C580 C 0.56403 0.80899 0.44688
 N581 N 0.61195 0.79050 0.37691
 N582 N 0.63325 0.80514 0.36958
 C583 C 0.65006 0.79740 0.34692
 C584 C 0.67477 0.81278 0.34175
 C585 C 0.69267 0.80461 0.32106
 C586 C 0.68599 0.78094 0.30503
 C587 C 0.66071 0.76602 0.30969
 C588 C 0.64292 0.77412 0.33053
 H589 H 0.54182 0.77002 0.43764
 H590 H 0.56915 0.76045 0.39648
 H591 H 0.61837 0.83624 0.40980
 H592 H 0.59079 0.84606 0.45067
 H593 H 0.68046 0.83077 0.35423
 H594 H 0.71193 0.81661 0.31790
 H595 H 0.65499 0.74770 0.29769
 H596 H 0.62385 0.76193 0.33410
 C597 C 0.88831 0.74003 0.95634
 C598 C 0.86972 0.74250 0.93449
 C599 C 0.87328 0.72769 0.91026
 C600 C 0.89533 0.70959 0.90826
 C601 C 0.91355 0.70637 0.93051
 C602 C 0.91079 0.72207 0.95479
 N603 N 0.85362 0.73088 0.88845
 N604 N 0.85942 0.72688 0.86334
 C605 C 0.83870 0.73008 0.84246
 C606 C 0.84670 0.73888 0.81613
 C607 C 0.82653 0.74431 0.79617
 C608 C 0.79812 0.74004 0.80210
 C609 C 0.79023 0.73011 0.82816
 C610 C 0.81032 0.72551 0.84829
 H611 H 0.88536 0.75283 0.97428
 H612 H 0.85270 0.75644 0.93627
 H613 H 0.89793 0.69737 0.88987
 H614 H 0.92925 0.69095 0.92894
 H615 H 0.86852 0.74245 0.81138
 H616 H 0.83308 0.75185 0.77616
 H617 H 0.76846 0.72677 0.83326
 H618 H 0.80372 0.71849 0.86846
 C619 C 0.40443 0.22887 0.45092
 C620 C 0.38640 0.23148 0.42863
 C621 C 0.38912 0.21489 0.40535
 C622 C 0.40989 0.19519 0.40466
 C623 C 0.42747 0.19197 0.42736
 C624 C 0.42512 0.20908 0.45056
 N625 N 0.36980 0.21783 0.38325
 N626 N 0.37503 0.21090 0.35868
 C627 C 0.35450 0.21376 0.33761
 C628 C 0.36283 0.21989 0.31069
 C629 C 0.34295 0.22527 0.29045
 C630 C 0.31447 0.22358 0.29678
 C631 C 0.30618 0.21611 0.32347
 C632 C 0.32603 0.21158 0.34381
 H633 H 0.40204 0.24212 0.46866
 H634 H 0.37032 0.24658 0.42941
 H635 H 0.41195 0.18184 0.38697
 H636 H 0.44275 0.17605 0.42695
 H637 H 0.38474 0.22157 0.30567
 H638 H 0.34980 0.23090 0.26996
 H639 H 0.28435 0.21480 0.32888
 H640 H 0.31919 0.20660 0.36445
 C641 C 0.71488 0.90682 0.95181
 C642 C 0.71402 0.89100 0.92778
 C643 C 0.70229 0.90152 0.90366
 C644 C 0.69116 0.92792 0.90400
 C645 C 0.69134 0.94354 0.92823
 C646 C 0.70375 0.93356 0.95252
 N647 N 0.70223 0.88597 0.87859
 N648 N 0.70399 0.85962 0.87879
 C649 C 0.70590 0.84354 0.85422
 C650 C 0.70124 0.81468 0.85575
 C651 C 0.70538 0.79798 0.83282
 C652 C 0.71494 0.80989 0.80805
 C653 C 0.71906 0.83897 0.80635
 C654 C 0.71432 0.85573 0.82920
 H655 H 0.72527 0.89832 0.96953
 H656 H 0.72315 0.87078 0.92788
 H657 H 0.68183 0.93618 0.88558
 H658 H 0.68114 0.96321 0.92802
 H659 H 0.69490 0.80505 0.87497
 H660 H 0.70229 0.77563 0.83484
 H661 H 0.72646 0.84869 0.78753
 H662 H 0.71827 0.87801 0.82764
 C663 C 0.17344 0.38793 0.44285
 C664 C 0.17668 0.37127 0.41969
 C665 C 0.20096 0.37381 0.40404
 C666 C 0.22216 0.39327 0.41187
 C667 C 0.21904 0.40975 0.43521
 C668 C 0.19454 0.40737 0.45072
 N669 N 0.20394 0.35576 0.38096
 N670 N 0.22425 0.35850 0.36441
 C671 C 0.22773 0.33976 0.34196
 C672 C 0.24935 0.34522 0.32339
 C673 C 0.25424 0.32661 0.30210
 C674 C 0.23765 0.30199 0.29918
 C675 C 0.21563 0.29679 0.31760
 C676 C 0.21064 0.31554 0.33876
 H677 H 0.15455 0.38555 0.45478
 H678 H 0.16030 0.35623 0.41399
 H679 H 0.24126 0.39538 0.40028
 H680 H 0.23579 0.42422 0.44132
 H681 H 0.26268 0.36378 0.32567
 H682 H 0.27142 0.33119 0.28833
 H683 H 0.20248 0.27804 0.31590
 H684 H 0.19381 0.31082 0.35290
 C685 C 0.32082 0.08814 0.95078
 C686 C 0.31881 0.10566 0.92802
 C687 C 0.30102 0.09845 0.90617
 C688 C 0.28537 0.07316 0.90713
 C689 C 0.28743 0.05548 0.92986
 C690 C 0.30533 0.06260 0.95204
 N691 N 0.29848 0.11772 0.88391
 N692 N 0.28188 0.11327 0.86380
 C693 C 0.27894 0.13328 0.84222
 C694 C 0.25894 0.12809 0.82168
 C695 C 0.25420 0.14809 0.80146
 C696 C 0.26951 0.17366 0.80143
 C697 C 0.29018 0.17844 0.82162
 C698 C 0.29483 0.15847 0.84185
 H699 H 0.33492 0.09442 0.96728
 H700 H 0.33091 0.12516 0.92755
 H701 H 0.27115 0.06731 0.89062
 H702 H 0.27410 0.03679 0.93054
 H703 H 0.24657 0.10876 0.82172
 H704 H 0.23815 0.14374 0.78619
 H705 H 0.30235 0.19789 0.82219
 H706 H 0.31047 0.16297 0.85746
 C707 C 0.82987 0.61232 0.45013
 C708 C 0.82621 0.63011 0.42774
 C709 C 0.80392 0.62540 0.40950
 C710 C 0.78536 0.60244 0.41376
 C711 C 0.78892 0.58476 0.43620
 C712 C 0.81127 0.58949 0.45450
 N713 N 0.79991 0.64470 0.38750
 N714 N 0.78049 0.64089 0.36988
 C715 C 0.77538 0.66033 0.34829
 C716 C 0.75414 0.65389 0.32937
 C717 C 0.74757 0.67282 0.30879
 C718 C 0.76214 0.69872 0.30682
 C719 C 0.78379 0.70500 0.32564
 C720 C 0.79040 0.68595 0.34621
 H721 H 0.84702 0.61651 0.46424
 H722 H 0.84055 0.64780 0.42479
 H723 H 0.76782 0.59847 0.40010
 H724 H 0.77399 0.56763 0.43957
 H725 H 0.74240 0.63424 0.33081
 H726 H 0.73078 0.66730 0.29466
 H727 H 0.79541 0.72475 0.32467
 H728 H 0.80690 0.69140 0.36068
 C729 C 0.05227 0.68694 0.92323
 C730 C 0.06789 0.68560 0.89913
 C731 C 0.09269 0.70163 0.89649
 C732 C 0.10120 0.71985 0.91768
 C733 C 0.08524 0.72182 0.94132
 C734 C 0.06074 0.70525 0.94446
 N735 N 0.10899 0.69961 0.87218
 N736 N 0.13523 0.70403 0.87323
 C737 C 0.15234 0.70475 0.84935
 C738 C 0.18112 0.70310 0.85268
 C739 C 0.19884 0.70727 0.83032
 C740 C 0.18797 0.71387 0.80439
 C741 C 0.15899 0.71463 0.80087
 C742 C 0.14124 0.70984 0.82317
 H743 H 0.03377 0.67354 0.92544
 H744 H 0.06112 0.67152 0.88287
 H745 H 0.12010 0.73273 0.91583
 H746 H 0.09219 0.73608 0.95738
 H747 H 0.18987 0.69938 0.87283
 H748 H 0.22109 0.70679 0.83364
 H749 H 0.15011 0.71967 0.78107
 H750 H 0.11904 0.71144 0.82024
 C751 C 0.57292 0.19315 0.42643
 C752 C 0.58996 0.19462 0.40318
 C753 C 0.61282 0.21358 0.40220
 C754 C 0.61788 0.23182 0.42432
 C755 C 0.60039 0.23098 0.44713
 C756 C 0.57779 0.21152 0.44856
 N757 N 0.63078 0.21405 0.37880
 N758 N 0.65642 0.22135 0.38119
 C759 C 0.67490 0.22343 0.35825
 C760 C 0.70353 0.22216 0.36300
 C761 C 0.72234 0.22569 0.34140
 C762 C 0.71282 0.23145 0.31474
 C763 C 0.68404 0.23265 0.30993
 C764 C 0.66516 0.22830 0.33148
 H765 H 0.55611 0.17748 0.42728
 H766 H 0.58587 0.18038 0.38630
 H767 H 0.63527 0.24684 0.42385
 H768 H 0.60468 0.24536 0.46387
 H769 H 0.71129 0.21860 0.38358
 H770 H 0.74441 0.22495 0.34573
 H771 H 0.67620 0.23712 0.28957
 H772 H 0.64310 0.22965 0.32744
 C773 C 0.90674 0.33144 0.94685
 C774 C 0.88957 0.32765 0.92379
 C775 C 0.89550 0.30777 0.90398
 C776 C 0.91883 0.29149 0.90752
 C777 C 0.93598 0.29518 0.93057
 C778 C 0.93054 0.31557 0.95043
 N779 N 0.87707 0.30391 0.88099
 N780 N 0.88166 0.28665 0.86192
 C781 C 0.86278 0.28213 0.83938
 C782 C 0.86885 0.26236 0.81948
 C783 C 0.84999 0.25612 0.79820
 C784 C 0.82465 0.26963 0.79653
 C785 C 0.81896 0.29005 0.81614
 C786 C 0.83784 0.29625 0.83738
 H787 H 0.90171 0.34732 0.96156
 H788 H 0.87153 0.34020 0.92137
 H789 H 0.92355 0.27559 0.89275
 H790 H 0.95307 0.28141 0.93325
 H791 H 0.88801 0.25134 0.82080
 H792 H 0.85499 0.24028 0.78344
 H793 H 0.79965 0.30085 0.81543
 H794 H 0.83269 0.31167 0.85250
 C795 C 0.39205 0.82723 0.44403
 C796 C 0.37409 0.82327 0.42156
 C797 C 0.37673 0.80047 0.40407
 C798 C 0.39780 0.78165 0.40919
 C799 C 0.41565 0.78550 0.43175
 C800 C 0.41299 0.80839 0.44930
 N801 N 0.35708 0.79624 0.38208
 N802 N 0.35911 0.77675 0.36463
 C803 C 0.33888 0.77172 0.34330
 C804 C 0.34328 0.75077 0.32410
 C805 C 0.32327 0.74422 0.30394
 C806 C 0.29832 0.75846 0.30276
 C807 C 0.29416 0.77986 0.32179
 C808 C 0.31429 0.78649 0.34186
 H809 H 0.38944 0.84481 0.45752
 H810 H 0.35784 0.83781 0.41796
 H811 H 0.40010 0.76370 0.39613
 H812 H 0.43126 0.77038 0.43582
 H813 H 0.36212 0.73920 0.32502
 H814 H 0.32711 0.72760 0.28965
 H815 H 0.27520 0.79125 0.32144
 H816 H 0.31038 0.80275 0.35651
 C817 C 0.32294 0.89024 0.05582
 C818 C 0.31999 0.87245 0.07845
 C819 C 0.29639 0.87316 0.09507
 C820 C 0.27566 0.89203 0.08883
 C821 C 0.27849 0.90967 0.06605
 C822 C 0.30224 0.90903 0.04947
 N823 N 0.29345 0.85383 0.11740
 N824 N 0.27359 0.85474 0.13449
 C825 C 0.26989 0.83476 0.15617
 C826 C 0.24865 0.83819 0.17520
 C827 C 0.24341 0.81829 0.19569
 C828 C 0.25927 0.79439 0.19734
 C829 C 0.28094 0.79122 0.17847
 C830 C 0.28627 0.81126 0.15810
 H831 H 0.34125 0.88920 0.04307
 H832 H 0.33600 0.85788 0.08293
 H833 H 0.25708 0.89277 0.10118
 H834 H 0.26202 0.92358 0.06114
 H835 H 0.23585 0.85618 0.17389
 H836 H 0.22652 0.82133 0.20983
 H837 H 0.29354 0.77307 0.17920
 H838 H 0.30279 0.80811 0.14357
 C839 C 0.78771 0.43646 0.56664
 C840 C 0.78350 0.41875 0.58914
 C841 C 0.80251 0.39831 0.59520
 C842 C 0.82614 0.39595 0.57863
 C843 C 0.83048 0.41384 0.55622
 C844 C 0.81135 0.43431 0.55012
 N845 N 0.79687 0.37988 0.61782
 N846 N 0.81176 0.35927 0.62328
 C847 C 0.80539 0.34078 0.64571
 C848 C 0.82042 0.31665 0.64883
 C849 C 0.81361 0.29744 0.66960
 C850 C 0.79170 0.30224 0.68777
 C851 C 0.77713 0.32688 0.68502
 C852 C 0.78383 0.34593 0.66414
 H853 H 0.77238 0.45168 0.56192
 H854 H 0.76513 0.42063 0.60163
 H855 H 0.84108 0.38024 0.58288
 H856 H 0.84867 0.41165 0.54352
 H857 H 0.83710 0.31245 0.63478
 H858 H 0.82526 0.27869 0.67120
 H859 H 0.76013 0.33121 0.69865
 H860 H 0.77195 0.36449 0.66225
 C861 C 0.68588 0.10537 0.05716
 C862 C 0.68720 0.12209 0.08065
 C863 C 0.70614 0.11672 0.10176
 C864 C 0.72344 0.09398 0.09939
 C865 C 0.72221 0.07734 0.07590
 C866 C 0.70350 0.08296 0.05454
 N867 N 0.70866 0.13559 0.12446
 N868 N 0.72540 0.13170 0.14431
 C869 C 0.72937 0.15129 0.16625
 C870 C 0.74842 0.14562 0.18713
 C871 C 0.75485 0.16541 0.20742
 C872 C 0.74231 0.19134 0.20710
 C873 C 0.72243 0.19659 0.18663
 C874 C 0.71601 0.17675 0.16636
 H875 H 0.67147 0.11018 0.04081
 H876 H 0.67388 0.13964 0.08215
 H877 H 0.73842 0.08951 0.11532
 H878 H 0.73634 0.06047 0.07404
 H879 H 0.75888 0.12610 0.18722
 H880 H 0.77023 0.16069 0.22289
 H881 H 0.71237 0.21633 0.18582
 H882 H 0.70120 0.18162 0.15041
 C883 C 0.16224 0.57677 0.55668
 C884 C 0.16337 0.59479 0.57919
 C885 C 0.18495 0.59346 0.59850
 C886 C 0.20507 0.57327 0.59546
 C887 C 0.20400 0.55532 0.57290
 C888 C 0.18268 0.55705 0.55324
 N889 N 0.18702 0.61390 0.61987
 N890 N 0.20615 0.61371 0.63803
 C891 C 0.20947 0.63489 0.65856
 C892 C 0.23066 0.63270 0.67812
 C893 C 0.23592 0.65392 0.69723
 C894 C 0.22007 0.67789 0.69701
 C895 C 0.19836 0.67977 0.67770
 C896 C 0.19307 0.65844 0.65863
 H897 H 0.14583 0.57864 0.54154
 H898 H 0.14785 0.61035 0.58121
 H899 H 0.22207 0.57193 0.61000
 H900 H 0.22028 0.54065 0.57031
 H901 H 0.24348 0.61470 0.67821
 H902 H 0.25278 0.65178 0.71181
 H903 H 0.18576 0.69793 0.67702
 H904 H 0.17660 0.66063 0.64363
 C905 C 0.92233 0.73986 0.07214
 C906 C 0.90686 0.74214 0.09614
 C907 C 0.88598 0.72210 0.10254
 C908 C 0.88109 0.69924 0.08495
 C909 C 0.89673 0.69682 0.06105
 C910 C 0.91740 0.71714 0.05448
 N911 N 0.86926 0.72620 0.12626
 N912 N 0.84811 0.71051 0.13190
 C913 C 0.83102 0.71571 0.15514
 C914 C 0.80590 0.70034 0.15830
 C915 C 0.78760 0.70675 0.17937
 C916 C 0.79434 0.72857 0.19773
 C917 C 0.82010 0.74321 0.19513
 C918 C 0.83823 0.73691 0.17400
 H919 H 0.93787 0.75598 0.06709
 H920 H 0.91065 0.75993 0.10946
 H921 H 0.86498 0.68354 0.08946
 H922 H 0.89247 0.67933 0.04745
 H923 H 0.80013 0.68394 0.14390
 H924 H 0.76795 0.69505 0.18089
 H925 H 0.82596 0.76009 0.20896
 H926 H 0.85761 0.74900 0.17208
 C927 C 0.42892 0.17482 0.56949
 C928 C 0.41232 0.17322 0.59305
 C929 C 0.39204 0.19282 0.59749
 C930 C 0.38900 0.21446 0.57846
 C931 C 0.40616 0.21661 0.55548
 C932 C 0.42638 0.19690 0.55075
 N933 N 0.37512 0.19106 0.62159
 N934 N 0.35037 0.19949 0.62118
 C935 C 0.33342 0.20040 0.64521
 C936 C 0.30450 0.20064 0.64208
 C937 C 0.28747 0.20451 0.66479
 C938 C 0.29923 0.20913 0.69094
 C939 C 0.32825 0.20840 0.69418
 C940 C 0.34523 0.20370 0.67152
 H941 H 0.44379 0.15891 0.56591
 H942 H 0.41483 0.15639 0.60755
 H943 H 0.37366 0.22999 0.58165
 H944 H 0.40364 0.23371 0.54127
 H945 H 0.29519 0.19837 0.62186
 H946 H 0.26519 0.20528 0.66168
 H947 H 0.33781 0.21199 0.71412
 H948 H 0.36759 0.20393 0.67431
 C949 C 0.10628 0.33221 0.05143
 C950 C 0.12431 0.32953 0.07380
 C951 C 0.12030 0.30757 0.09246
 C952 C 0.09767 0.28845 0.08874
 C953 C 0.07973 0.29103 0.06630
 C954 C 0.08391 0.31293 0.04746
 N955 N 0.14020 0.30428 0.11409
 N956 N 0.13721 0.28520 0.13211
 C957 C 0.15758 0.28079 0.15304
 C958 C 0.15223 0.25992 0.17255
 C959 C 0.17231 0.25374 0.19221
 C960 C 0.19828 0.26831 0.19259
 C961 C 0.20341 0.28969 0.17329
 C962 C 0.18321 0.29592 0.15368
 H963 H 0.11002 0.34904 0.03692
 H964 H 0.14176 0.34428 0.07635
 H965 H 0.09426 0.27115 0.10275
 H966 H 0.06293 0.27563 0.06326
 H967 H 0.13258 0.24809 0.17222
 H968 H 0.16768 0.23715 0.20676
 H969 H 0.22317 0.30131 0.17306
 H970 H 0.18784 0.31213 0.13874
 C971 C 0.58839 0.83608 0.55229
 C972 C 0.60615 0.83428 0.57502
 C973 C 0.60314 0.81197 0.59344
 C974 C 0.58191 0.79145 0.58896
 C975 C 0.56426 0.79316 0.56615
 C976 C 0.56727 0.81556 0.54770
 N977 N 0.62251 0.81002 0.61579
 N978 N 0.62024 0.79083 0.63379
 C979 C 0.64009 0.78798 0.65559
 C980 C 0.63570 0.76663 0.67482
 C981 C 0.65543 0.76205 0.69535
 C982 C 0.68009 0.77876 0.69693
 C983 C 0.68417 0.80064 0.67795
 C984 C 0.66433 0.80524 0.65745
 H985 H 0.59127 0.85333 0.53809
 H986 H 0.62252 0.85012 0.57812
 H987 H 0.57931 0.77386 0.60274
 H988 H 0.54849 0.77680 0.56264
 H989 H 0.61712 0.75318 0.67359
 H990 H 0.65163 0.74502 0.70960
 H991 H 0.70292 0.81388 0.67859
 H992 H 0.66821 0.82188 0.64279
   
