data_POSCAR
  _audit_creation_date              2014-09-24
  _audit_creation_method            'ToBaCCo'
  _symmetry_space_group_name_H-M    'P1'
  _symmetry_Int_Tables_number       1
  _symmetry_cell_setting            triclinic
  loop_
  _symmetry_equiv_pos_as_xyz
 x,y,z
_cell_length_a 32.2854
_cell_length_b 32.2828
_cell_length_c 26.6998
_cell_angle_alpha 89.946600
_cell_angle_beta 89.933000
_cell_angle_gamma 89.176500
loop_
  _atom_site_label
  _atom_site_type_symbol
  _atom_site_fract_x
  _atom_site_fract_y
  _atom_site_fract_z
O1 O 0.04165 0.30754 -0.04582
 O2 O -0.04006 0.30486 0.05099
 O3 O 0.04138 0.30529 0.05143
 O4 O -0.03947 0.30625 -0.04658
 O5 O -0.03737 0.23784 -0.04740
 O6 O 0.04270 0.23694 0.04918
 O7 O -0.03786 0.23652 0.04961
 O8 O 0.04295 0.23912 -0.04716
 Cu9 Cu 0.00064 0.31292 0.00277
 Cu10 Cu 0.00269 0.23080 0.00095
 C11 C 0.05651 0.27361 -0.06255
 C12 C -0.05327 0.27018 0.06643
 C13 C 0.05636 0.27075 0.06621
 C14 C -0.05236 0.27192 -0.06331
 O15 O 0.53899 0.80649 0.45027
 O16 O 0.45650 0.80988 0.54654
 O17 O 0.53807 0.80786 0.54734
 O18 O 0.45770 0.80939 0.44864
 O19 O 0.45632 0.74105 0.45121
 O20 O 0.53709 0.73946 0.54761
 O21 O 0.45658 0.74149 0.54816
 O22 O 0.53678 0.73819 0.45131
 Cu23 Cu 0.49779 0.81535 0.49813
 Cu24 Cu 0.49647 0.73327 0.49967
 C25 C 0.55229 0.77147 0.43496
 C26 C 0.44237 0.77606 0.56348
 C27 C 0.55187 0.77325 0.56341
 C28 C 0.44307 0.77527 0.43353
 O29 O 0.95787 0.69857 -0.05263
 O30 O 1.03938 0.69758 0.04449
 O31 O 0.95810 0.69758 0.04507
 O32 O 1.03926 0.69983 -0.05288
 O33 O 1.03671 0.76812 -0.05118
 O34 O 0.95716 0.76594 0.04619
 O35 O 1.03775 0.76597 0.04553
 O36 O 0.95623 0.76686 -0.05027
 Cu37 Cu 0.99879 0.69147 -0.00419
 Cu38 Cu 0.99685 0.77349 -0.00230
 C39 C 0.94259 0.73299 -0.06742
 C40 C 1.05280 0.73174 0.06107
 C41 C 0.94345 0.73164 0.06179
 C42 C 1.05218 0.73464 -0.06830
 O43 O 0.46112 0.19471 0.45383
 O44 O 0.54419 0.19360 0.54932
 O45 O 0.46273 0.19494 0.55135
 O46 O 0.54235 0.19118 0.45166
 O47 O 0.54315 0.25958 0.45109
 O48 O 0.46420 0.26325 0.54965
 O49 O 0.54460 0.26193 0.54744
 O50 O 0.46258 0.26303 0.45328
 Cu51 Cu 0.50253 0.18666 0.50173
 Cu52 Cu 0.50376 0.26872 0.50020
 C53 C 0.44726 0.22938 0.43797
 C54 C 0.55889 0.22783 0.56409
 C55 C 0.44940 0.22989 0.56681
 C56 C 0.55660 0.22495 0.43488
 O57 O 0.69348 0.03530 -0.04796
 O58 O 0.69306 -0.04499 0.05078
 O59 O 0.69583 0.03640 0.04952
 O60 O 0.69234 -0.04574 -0.04675
 O61 O 0.76074 -0.04753 -0.04807
 O62 O 0.76415 0.03322 0.04783
 O63 O 0.76139 -0.04731 0.04898
 O64 O 0.76188 0.03287 -0.04842
 Cu65 Cu 0.68675 -0.00454 0.00166
 Cu66 Cu 0.76883 -0.00757 -0.00002
 C67 C 0.72793 0.04808 -0.06452
 C68 C 0.72724 -0.06027 0.06624
 C69 C 0.73077 0.04929 0.06435
 C70 C 0.72622 -0.06070 -0.06360
 O71 O 0.19063 0.54383 0.45204
 O72 O 0.19409 0.46354 0.55083
 O73 O 0.19427 0.54518 0.54957
 O74 O 0.19266 0.46256 0.45350
 O75 O 0.26105 0.46277 0.45156
 O76 O 0.26259 0.54452 0.54639
 O77 O 0.26241 0.46398 0.54807
 O78 O 0.25903 0.54322 0.45008
 Cu79 Cu 0.18597 0.50383 0.50185
 Cu80 Cu 0.26805 0.50360 0.49881
 C81 C 0.22447 0.55743 0.43467
 C82 C 0.22900 0.44961 0.56563
 C83 C 0.22892 0.55937 0.56369
 C84 C 0.22686 0.44832 0.43667
 O85 O 0.30434 1.04383 0.04991
 O86 O 0.30172 0.96358 -0.04855
 O87 O 0.30209 1.04497 -0.04758
 O88 O 0.30162 0.96257 0.04891
 O89 O 0.23328 0.96513 0.04923
 O90 O 0.23380 1.04691 -0.04542
 O91 O 0.23339 0.96634 -0.04709
 O92 O 0.23598 1.04560 0.05116
 Cu93 Cu 0.30937 1.00355 0.00054
 Cu94 Cu 0.22735 1.00629 0.00208
 C95 C 0.27051 1.05874 0.06695
 C96 C 0.26696 0.95078 -0.06396
 C97 C 0.26775 1.06045 -0.06239
 C98 C 0.26708 0.94928 0.06471
 O99 O 0.80652 0.53525 0.54910
 O100 O 0.80979 0.45437 0.45105
 O101 O 0.80694 0.53561 0.45162
 O102 O 0.80866 0.45373 0.54875
 O103 O 0.74027 0.45368 0.54857
 O104 O 0.73863 0.53378 0.45133
 O105 O 0.74140 0.45344 0.45164
 O106 O 0.73819 0.53428 0.54755
 Cu107 Cu 0.81492 0.49478 0.50027
 Cu108 Cu 0.73285 0.49356 0.49976
 C109 C 0.77164 0.54922 0.56410
 C110 C 0.77588 0.43992 0.43506
 C111 C 0.77221 0.54902 0.43547
 C112 C 0.77458 0.43954 0.56482
 O113 O 0.22493 0.28041 0.18783
 O114 O 0.31623 0.25823 0.26601
 O115 O 0.28030 0.22242 0.18959
 O116 O 0.26028 0.31634 0.26437
 O117 O 0.22178 0.28026 0.31653
 O118 O 0.24146 0.18639 0.24145
 O119 O 0.27755 0.22207 0.31790
 O120 O 0.18614 0.24461 0.23999
 Cu121 Cu 0.27439 0.27299 0.22183
 Cu122 Cu 0.22790 0.22972 0.28425
 C123 C 0.19023 0.26522 0.19978
 C124 C 0.31227 0.23724 0.30593
 C125 C 0.26320 0.18870 0.20188
 C126 C 0.23834 0.31413 0.30379
 O127 O 0.75895 0.81232 0.24059
 O128 O 0.78021 0.71896 0.31586
 O129 O 0.81500 0.75477 0.23835
 O130 O 0.72327 0.77588 0.31682
 O131 O 0.68498 0.73969 0.26477
 O132 O 0.77674 0.71787 0.18697
 O133 O 0.74205 0.68204 0.26445
 O134 O 0.72102 0.77551 0.18872
 Cu135 Cu 0.77320 0.76909 0.28313
 Cu136 Cu 0.72735 0.72498 0.22120
 C137 C 0.73734 0.80961 0.20104
 C138 C 0.76390 0.68483 0.30385
 C139 C 0.81115 0.73388 0.19836
 C140 C 0.68862 0.76068 0.30468
 O141 O 0.72420 0.21604 0.31285
 O142 O 0.81791 0.23546 0.23795
 O143 O 0.78084 0.27255 0.31298
 O144 O 0.76041 0.18054 0.23560
 O145 O 0.72321 0.21931 0.18386
 O146 O 0.74405 0.31104 0.26054
 O147 O 0.78080 0.27374 0.18556
 O148 O 0.68744 0.25520 0.26112
 Cu149 Cu 0.77445 0.22224 0.28014
 Cu150 Cu 0.73011 0.26864 0.21760
 C151 C 0.69004 0.23316 0.30049
 C152 C 0.81514 0.25723 0.19842
 C153 C 0.76534 0.30742 0.30028
 C154 C 0.73921 0.18454 0.19576
 O155 O 0.18239 0.76199 0.23617
 O156 O 0.27559 0.78112 0.31180
 O157 O 0.23926 0.81724 0.23552
 O158 O 0.21862 0.72489 0.31229
 O159 O 0.25585 0.68670 0.25998
 O160 O 0.27678 0.77887 0.18363
 O161 O 0.31277 0.74239 0.26000
 O162 O 0.21974 0.72389 0.18385
 Cu163 Cu 0.22525 0.77506 0.27929
 Cu164 Cu 0.27003 0.72907 0.21674
 C165 C 0.18542 0.74068 0.19632
 C166 C 0.30994 0.76440 0.29932
 C167 C 0.26067 0.81354 0.19578
 C168 C 0.23445 0.69015 0.29973
 O169 O 0.78212 0.27248 0.68726
 O170 O 0.76337 0.17929 0.76330
 O171 O 0.72776 0.21501 0.68570
 O172 O 0.81936 0.23624 0.76257
 O173 O 0.78058 0.27295 0.81482
 O174 O 0.68896 0.25240 0.73726
 O175 O 0.72406 0.21624 0.81468
 O176 O 0.74375 0.30964 0.73955
 Cu177 Cu 0.77704 0.22189 0.71967
 Cu178 Cu 0.73046 0.26638 0.78193
 C179 C 0.76542 0.30679 0.69994
 C180 C 0.74102 0.18199 0.80242
 C181 C 0.69306 0.23130 0.69736
 C182 C 0.81557 0.25778 0.80210
 O183 O 0.31300 0.74578 0.73840
 O184 O 0.22014 0.72544 0.81370
 O185 O 0.25617 0.69020 0.73607
 O186 O 0.27595 0.78159 0.81453
 O187 O 0.23857 0.82039 0.76302
 O188 O 0.21894 0.72905 0.68445
 O189 O 0.18241 0.76363 0.76194
 O190 O 0.27562 0.78443 0.68671
 Cu191 Cu 0.27004 0.73183 0.78078
 Cu192 Cu 0.22510 0.77829 0.71893
 C193 C 0.31001 0.76779 0.69911
 C194 C 0.18568 0.74199 0.80157
 C195 C 0.23511 0.69429 0.69613
 C196 C 0.25979 0.81639 0.80283
 O197 O 0.18673 0.24416 0.76230
 O198 O 0.28010 0.22312 0.68725
 O199 O 0.24434 0.18830 0.76453
 O200 O 0.22318 0.27994 0.68610
 O201 O 0.25928 0.31834 0.73811
 O202 O 0.28099 0.22657 0.81618
 O203 O 0.31699 0.26125 0.73872
 O204 O 0.22326 0.28218 0.81434
 Cu205 Cu 0.22998 0.23008 0.71983
 Cu206 Cu 0.27390 0.27598 0.78187
 C207 C 0.18928 0.26566 0.80195
 C208 C 0.31423 0.23939 0.69930
 C209 C 0.26509 0.19214 0.80462
 C210 C 0.23841 0.31461 0.69811
 O211 O 0.74142 0.68138 0.73516
 O212 O 0.71928 0.77408 0.81134
 O213 O 0.68346 0.73763 0.73566
 O214 O 0.77649 0.71792 0.81198
 O215 O 0.81345 0.75575 0.76002
 O216 O 0.72030 0.77516 0.68327
 O217 O 0.75599 0.81178 0.75893
 O218 O 0.77845 0.71917 0.68324
 Cu219 Cu 0.72648 0.72384 0.77865
 Cu220 Cu 0.77076 0.76912 0.71602
 C221 C 0.76285 0.68473 0.69547
 C222 C 0.73485 0.80850 0.79883
 C223 C 0.68612 0.75918 0.69601
 C224 C 0.81044 0.73474 0.80011
 C225 C 0.27038 0.09151 0.10278
 C226 C 0.24683 0.08097 0.15114
 C227 C 0.24463 0.11274 0.18461
 C228 C 0.26634 0.15231 0.16684
 C229 C 0.31083 0.13818 0.15445
 C230 C 0.31307 0.10635 0.12089
 C231 C 0.24876 0.13076 0.08245
 C232 C 0.24655 0.16237 0.11589
 H233 H 0.23342 0.05094 0.15870
 H234 H 0.22932 0.10962 0.22060
 H235 H 0.33817 0.15181 0.17092
 H236 H 0.34248 0.09300 0.10885
 H237 H 0.23637 0.13358 0.04476
 H238 H 0.23209 0.19201 0.10681
 C239 C 0.76976 0.58510 0.60009
 C240 C 0.79432 0.62260 0.58171
 C241 C 0.79282 0.65560 0.61335
 C242 C 0.76674 0.64823 0.66076
 C243 C 0.72423 0.63523 0.64107
 C244 C 0.72569 0.60232 0.60952
 C245 C 0.78710 0.57566 0.65255
 C246 C 0.78551 0.60876 0.68438
 H247 H 0.81197 0.62295 0.54713
 H248 H 0.80919 0.68400 0.60544
 H249 H 0.69531 0.65083 0.65091
 H250 H 0.69786 0.59003 0.59269
 H251 H 0.79951 0.54561 0.66366
 H252 H 0.79669 0.60705 0.72266
 C253 C 0.72813 0.90688 0.10208
 C254 C 0.68577 0.89109 0.12031
 C255 C 0.68868 0.85924 0.15384
 C256 C 0.73344 0.84602 0.16609
 C257 C 0.75343 0.83648 0.11512
 C258 C 0.75059 0.86811 0.08174
 C259 C 0.75146 0.91783 0.15035
 C260 C 0.75431 0.88604 0.18382
 H261 H 0.65609 0.90383 0.10835
 H262 H 0.66164 0.84499 0.17036
 H263 H 0.76871 0.80724 0.10606
 H264 H 0.76350 0.86575 0.04431
 H265 H 0.76426 0.94813 0.15785
 H266 H 0.76957 0.88941 0.21975
 C267 C 0.23098 0.41411 0.60215
 C268 C 0.27517 0.40214 0.61880
 C269 C 0.27687 0.36931 0.65050
 C270 C 0.23446 0.35105 0.66307
 C271 C 0.20880 0.38789 0.68329
 C272 C 0.20697 0.42099 0.65134
 C273 C 0.21332 0.37417 0.58010
 C274 C 0.21508 0.34121 0.61182
 H275 H 0.30282 0.41867 0.60796
 H276 H 0.30576 0.35844 0.66676
 H277 H 0.19342 0.38793 0.71947
 H278 H 0.19013 0.44938 0.66028
 H279 H 0.20063 0.37197 0.54256
 H280 H 0.20375 0.31100 0.60115
 C281 C 0.91345 0.26827 0.10164
 C282 C 0.92517 0.24627 0.15086
 C283 C 0.89301 0.24271 0.18367
 C284 C 0.85193 0.26161 0.16434
 C285 C 0.86229 0.30661 0.15109
 C286 C 0.89442 0.31022 0.11824
 C287 C 0.87666 0.24381 0.08116
 C288 C 0.84467 0.24033 0.11383
 H289 H 0.95617 0.23485 0.15941
 H290 H 0.89675 0.22825 0.22012
 H291 H 0.84596 0.33333 0.16649
 H292 H 0.90527 0.34018 0.10577
 H293 H 0.87612 0.22951 0.04447
 H294 H 0.81688 0.22331 0.10478
 C295 C 0.40755 0.77585 0.60092
 C296 C 0.38932 0.81839 0.61613
 C297 C 0.35733 0.81604 0.64949
 C298 C 0.34648 0.77148 0.66443
 C299 C 0.33855 0.74916 0.61473
 C300 C 0.37035 0.75143 0.58165
 C301 C 0.41937 0.75487 0.65065
 C302 C 0.38747 0.75251 0.68392
 H303 H 0.40062 0.84776 0.60229
 H304 H 0.34145 0.84333 0.66409
 H305 H 0.31041 0.73245 0.60647
 H306 H 0.36939 0.73642 0.54537
 H307 H 0.45031 0.74330 0.65917
 H308 H 0.39138 0.73893 0.72084
 C309 C 0.08774 0.73254 0.09831
 C310 C 0.10468 0.69009 0.11588
 C311 C 0.13670 0.69265 0.14903
 C312 C 0.14893 0.73730 0.16154
 C313 C 0.15758 0.75755 0.11056
 C314 C 0.12571 0.75499 0.07757
 C315 C 0.07657 0.75565 0.14687
 C316 C 0.10852 0.75822 0.17995
 H317 H 0.09251 0.66060 0.10372
 H318 H 0.15173 0.66544 0.16508
 H319 H 0.18643 0.77263 0.10118
 H320 H 0.12743 0.76771 0.03996
 H321 H 0.04601 0.76854 0.15476
 H322 H 0.10503 0.77334 0.21602
 C323 C 0.59455 0.22818 0.60033
 C324 C 0.63286 0.20437 0.58097
 C325 C 0.66558 0.20454 0.61311
 C326 C 0.65708 0.22872 0.66187
 C327 C 0.64306 0.27198 0.64436
 C328 C 0.61046 0.27182 0.61238
 C329 C 0.58520 0.20882 0.65168
 C330 C 0.61798 0.20910 0.68395
 H331 H 0.63417 0.18876 0.54498
 H332 H 0.69468 0.18890 0.60441
 H333 H 0.65770 0.30047 0.65603
 H334 H 0.59749 0.30032 0.59705
 H335 H 0.55541 0.19601 0.66175
 H336 H 0.61628 0.19642 0.72155
 C337 C 0.72958 0.08306 0.89837
 C338 C 0.68805 0.09753 0.87538
 C339 C 0.69168 0.13004 0.84289
 C340 C 0.73636 0.14508 0.83650
 C341 C 0.75094 0.15443 0.88998
 C342 C 0.74749 0.12212 0.92217
 C343 C 0.75760 0.07374 0.85311
 C344 C 0.76127 0.10613 0.82081
 H345 H 0.65850 0.08336 0.88345
 H346 H 0.66530 0.14357 0.82336
 H347 H 0.76118 0.18455 0.90221
 H348 H 0.75543 0.12463 0.96157
 H349 H 0.77289 0.04403 0.84673
 H350 H 0.77980 0.10386 0.78696
 C351 C 0.22485 0.59213 0.39721
 C352 C 0.18262 0.60736 0.37688
 C353 C 0.18549 0.63961 0.34385
 C354 C 0.23017 0.65358 0.33434
 C355 C 0.24739 0.66289 0.38662
 C356 C 0.24465 0.63092 0.41936
 C357 C 0.25056 0.58191 0.35030
 C358 C 0.25345 0.61398 0.31745
 H359 H 0.15318 0.59393 0.38713
 H360 H 0.15856 0.65364 0.32597
 H361 H 0.25927 0.69268 0.39764
 H362 H 0.25459 0.63344 0.45808
 H363 H 0.26485 0.55183 0.34323
 H364 H 0.27030 0.61104 0.28241
 C365 C 0.26544 0.91537 0.89940
 C366 C 0.22135 0.90178 0.88588
 C367 C 0.22025 0.86913 0.85397
 C368 C 0.26311 0.85266 0.83803
 C369 C 0.28524 0.89061 0.81648
 C370 C 0.28647 0.92349 0.84866
 C371 C 0.28683 0.87596 0.91955
 C372 C 0.28568 0.84321 0.88761
 H373 H 0.19322 0.91676 0.89951
 H374 H 0.19136 0.85673 0.84047
 H375 H 0.29880 0.89151 0.77928
 H376 H 0.30097 0.95254 0.83889
 H377 H 0.30192 0.87406 0.95577
 H378 H 0.29984 0.81349 0.89688
 C379 C 0.77538 0.40526 0.39761
 C380 C 0.81759 0.38951 0.37770
 C381 C 0.81459 0.35733 0.34468
 C382 C 0.76981 0.34396 0.33475
 C383 C 0.75198 0.33484 0.38679
 C384 C 0.75485 0.36673 0.41949
 C385 C 0.75020 0.41586 0.35044
 C386 C 0.74719 0.38387 0.31757
 H387 H 0.84712 0.40255 0.38823
 H388 H 0.84150 0.34296 0.32708
 H389 H 0.73927 0.30533 0.39758
 H390 H 0.74410 0.36440 0.45785
 H391 H 0.73634 0.44613 0.34324
 H392 H 0.73069 0.38705 0.28235
 C393 C 0.09144 0.27332 0.90018
 C394 C 0.13017 0.25107 0.92077
 C395 C 0.16211 0.24877 0.88769
 C396 C 0.15275 0.26908 0.83681
 C397 C 0.11305 0.24797 0.81844
 C398 C 0.08104 0.25028 0.85160
 C399 C 0.10689 0.31594 0.88272
 C400 C 0.13902 0.31364 0.84948
 H401 H 0.13237 0.23836 0.95836
 H402 H 0.19151 0.23393 0.89700
 H403 H 0.11003 0.23295 0.78231
 H404 H 0.05092 0.23726 0.84374
 H405 H 0.09370 0.34531 0.89506
 H406 H 0.15314 0.34095 0.83348
 C407 C 0.58826 0.76915 0.39916
 C408 C 0.62820 0.78614 0.42199
 C409 C 0.66150 0.78403 0.39079
 C410 C 0.65195 0.76498 0.33928
 C411 C 0.63297 0.72279 0.35130
 C412 C 0.59981 0.72485 0.38245
 C413 C 0.58229 0.79343 0.35002
 C414 C 0.61571 0.79123 0.31862
 H415 H 0.63015 0.79864 0.45965
 H416 H 0.69177 0.79485 0.40202
 H417 H 0.64367 0.69378 0.33514
 H418 H 0.58281 0.69739 0.39292
 H419 H 0.55425 0.81072 0.34073
 H420 H 0.61630 0.80675 0.28254
 C421 C 0.90889 0.73341 0.89784
 C422 C 0.89090 0.77681 0.88574
 C423 C 0.85845 0.77640 0.85345
 C424 C 0.84658 0.73293 0.83571
 C425 C 0.88673 0.71419 0.81389
 C426 C 0.91938 0.71444 0.84640
 C427 C 0.87153 0.70878 0.91671
 C428 C 0.83904 0.70845 0.88432
 H429 H 0.90235 0.80556 0.90115
 H430 H 0.84252 0.80462 0.84165
 H431 H 0.88925 0.70176 0.77623
 H432 H 0.94982 0.70233 0.83636
 H433 H 0.87074 0.69272 0.95241
 H434 H 0.81075 0.69203 0.89267
 C435 C 0.41135 0.23086 0.40205
 C436 C 0.39442 0.27490 0.39171
 C437 C 0.36164 0.27614 0.36000
 C438 C 0.34845 0.23346 0.34106
 C439 C 0.38787 0.21413 0.31799
 C440 C 0.42084 0.21276 0.34998
 C441 C 0.37363 0.20677 0.42075
 C442 C 0.34072 0.20806 0.38892
 H443 H 0.40677 0.30288 0.40811
 H444 H 0.34624 0.30502 0.34959
 H445 H 0.38964 0.20238 0.27995
 H446 H 0.45084 0.19997 0.33925
 H447 H 0.37306 0.18960 0.45568
 H448 H 0.31217 0.19201 0.39699
 C449 C 0.72652 0.90490 0.89857
 C450 C 0.68399 0.88846 0.88241
 C451 C 0.68643 0.85684 0.84856
 C452 C 0.73105 0.84458 0.83410
 C453 C 0.75055 0.88511 0.81560
 C454 C 0.74811 0.91661 0.84937
 C455 C 0.75036 0.86657 0.91764
 C456 C 0.75278 0.83516 0.88401
 H457 H 0.65457 0.90064 0.89605
 H458 H 0.65919 0.84212 0.83331
 H459 H 0.76458 0.88902 0.77897
 H460 H 0.76003 0.94723 0.84155
 H461 H 0.76449 0.86440 0.95440
 H462 H 0.76890 0.80618 0.89219
 C463 C 0.22802 0.41300 0.40002
 C464 C 0.25089 0.37494 0.42153
 C465 C 0.25413 0.34268 0.38909
 C466 C 0.23407 0.35104 0.33788
 C467 C 0.18913 0.36405 0.34991
 C468 C 0.18590 0.39650 0.38253
 C469 C 0.25124 0.42329 0.35141
 C470 C 0.25449 0.39094 0.31891
 H471 H 0.26335 0.37343 0.45927
 H472 H 0.26953 0.31370 0.39907
 H473 H 0.16224 0.34920 0.33394
 H474 H 0.15619 0.40926 0.39435
 H475 H 0.26366 0.45360 0.34305
 H476 H 0.26973 0.39382 0.28285
 C477 C 0.26736 0.09414 0.90290
 C478 C 0.22378 0.11132 0.89005
 C479 C 0.22399 0.14371 0.85768
 C480 C 0.26742 0.15632 0.84057
 C481 C 0.29115 0.16445 0.88951
 C482 C 0.29102 0.13197 0.92208
 C483 C 0.28715 0.08391 0.85183
 C484 C 0.28718 0.11650 0.81920
 H485 H 0.19505 0.09943 0.90509
 H486 H 0.19563 0.15916 0.84550
 H487 H 0.30669 0.19318 0.89806
 H488 H 0.30625 0.13320 0.95829
 H489 H 0.29997 0.05368 0.84213
 H490 H 0.30014 0.11418 0.78176
 C491 C 0.77057 0.58478 0.39917
 C492 C 0.72635 0.59900 0.38523
 C493 C 0.72494 0.63194 0.35369
 C494 C 0.76763 0.64808 0.33848
 C495 C 0.78963 0.65679 0.38846
 C496 C 0.79109 0.62373 0.42004
 C497 C 0.79217 0.57688 0.34859
 C498 C 0.79060 0.61008 0.31674
 H499 H 0.69835 0.58415 0.39817
 H500 H 0.69594 0.64463 0.33975
 H501 H 0.80319 0.68625 0.39828
 H502 H 0.80586 0.62512 0.45645
 H503 H 0.80728 0.54777 0.33869
 H504 H 0.80446 0.60939 0.27970
 C505 C 0.08587 0.73623 0.89710
 C506 C 0.12641 0.71950 0.91999
 C507 C 0.15937 0.72075 0.88835
 C508 C 0.14905 0.73873 0.83629
 C509 C 0.11325 0.71229 0.81689
 C510 C 0.08009 0.71096 0.84874
 C511 C 0.09632 0.78015 0.87865
 C512 C 0.12920 0.78129 0.84706
 H513 H 0.12906 0.70782 0.95805
 H514 H 0.18998 0.71005 0.89968
 H515 H 0.11391 0.69611 0.78128
 H516 H 0.05235 0.69372 0.84018
 H517 H 0.07868 0.80798 0.88797
 H518 H 0.13893 0.80981 0.82948
 C519 C 0.59136 0.22504 0.39741
 C520 C 0.63117 0.24166 0.42075
 C521 C 0.66337 0.24390 0.38824
 C522 C 0.65321 0.22951 0.33492
 C523 C 0.63672 0.18538 0.34167
 C524 C 0.60428 0.18296 0.37449
 C525 C 0.58270 0.25318 0.35211
 C526 C 0.61498 0.25564 0.31950
 H527 H 0.63426 0.24948 0.46012
 H528 H 0.69395 0.25293 0.40022
 H529 H 0.64927 0.15851 0.32216
 H530 H 0.58916 0.15396 0.38290
 H531 H 0.55347 0.26943 0.34593
 H532 H 0.61308 0.27412 0.28558
 C533 C 0.91308 0.27037 0.89921
 C534 C 0.89494 0.31218 0.88111
 C535 C 0.86293 0.30831 0.84807
 C536 C 0.85204 0.26311 0.83635
 C537 C 0.89303 0.24324 0.81807
 C538 C 0.92492 0.24713 0.85098
 C539 C 0.87588 0.24704 0.92029
 C540 C 0.84414 0.24328 0.88758
 H541 H 0.90634 0.34212 0.89278
 H542 H 0.84707 0.33487 0.83160
 H543 H 0.89695 0.22796 0.78215
 H544 H 0.95587 0.23521 0.84314
 H545 H 0.87453 0.23451 0.95789
 H546 H 0.81573 0.22793 0.89758
 C547 C 0.40836 0.77438 0.39603
 C548 C 0.39451 0.81621 0.37319
 C549 C 0.36218 0.81313 0.34040
 C550 C 0.34673 0.76864 0.33356
 C551 C 0.38556 0.74343 0.31803
 C552 C 0.41773 0.74654 0.35067
 C553 C 0.36891 0.75674 0.41927
 C554 C 0.33685 0.75381 0.38680
 H555 H 0.40892 0.84555 0.38162
 H556 H 0.34906 0.83977 0.32094
 H557 H 0.38790 0.72509 0.28408
 H558 H 0.44731 0.73095 0.34448
 H559 H 0.36600 0.74841 0.45843
 H560 H 0.30660 0.74359 0.39866
 C561 C 0.26594 0.91325 0.10051
 C562 C 0.22208 0.89694 0.11055
 C563 C 0.22118 0.86396 0.14202
 C564 C 0.26397 0.84999 0.16104
 C565 C 0.28963 0.84220 0.11321
 C566 C 0.29057 0.87529 0.08164
 C567 C 0.28375 0.92213 0.15272
 C568 C 0.28271 0.88897 0.18448
 H569 H 0.19399 0.90985 0.09415
 H570 H 0.19248 0.84894 0.15222
 H571 H 0.30606 0.81344 0.10496
 H572 H 0.30782 0.87466 0.04675
 H573 H 0.29609 0.95187 0.16372
 H574 H 0.29429 0.89029 0.22259
 C575 C 0.77389 0.40466 0.60221
 C576 C 0.81632 0.38683 0.61847
 C577 C 0.81373 0.35476 0.65163
 C578 C 0.76906 0.34340 0.66543
 C579 C 0.74932 0.38416 0.68456
 C580 C 0.75192 0.41616 0.65144
 C581 C 0.75022 0.36723 0.58221
 C582 C 0.74769 0.33533 0.61514
 H583 H 0.84581 0.39845 0.60543
 H584 H 0.84092 0.33914 0.66687
 H585 H 0.73500 0.38783 0.72111
 H586 H 0.73984 0.44696 0.65974
 H587 H 0.73596 0.36614 0.54551
 H588 H 0.73148 0.30700 0.60635
 C589 C 0.73275 0.08516 0.10021
 C590 C 0.71318 0.07703 0.15176
 C591 C 0.71472 0.11009 0.18354
 C592 C 0.73566 0.14825 0.16082
 C593 C 0.77839 0.13254 0.14336
 C594 C 0.77698 0.09961 0.11186
 C595 C 0.71027 0.12409 0.08038
 C596 C 0.71168 0.15707 0.11201
 H597 H 0.69939 0.04782 0.16233
 H598 H 0.70212 0.10921 0.22122
 H599 H 0.80740 0.14635 0.15464
 H600 H 0.80494 0.08547 0.09655
 H601 H 0.69468 0.12563 0.04440
 H602 H 0.69709 0.18661 0.10286
 C603 C 0.23018 0.59521 0.59976
 C604 C 0.27414 0.61042 0.61146
 C605 C 0.27500 0.64322 0.64321
 C606 C 0.23204 0.65811 0.66084
 C607 C 0.20785 0.66673 0.61212
 C608 C 0.20699 0.63385 0.58026
 C609 C 0.21084 0.58651 0.65129
 C610 C 0.21181 0.61946 0.68329
 H611 H 0.30235 0.59683 0.59609
 H612 H 0.30378 0.65743 0.65462
 H613 H 0.19273 0.69606 0.60323
 H614 H 0.19131 0.63525 0.54432
 H615 H 0.19756 0.55702 0.66169
 H616 H 0.19925 0.61818 0.72098
 C617 C 0.90839 0.73159 0.09904
 C618 C 0.91933 0.71247 0.15021
 C619 C 0.88704 0.71245 0.18333
 C620 C 0.84681 0.73154 0.16217
 C621 C 0.85881 0.77491 0.14417
 C622 C 0.89090 0.77505 0.11136
 C623 C 0.87077 0.70725 0.08080
 C624 C 0.83856 0.70713 0.11374
 H625 H 0.94978 0.70005 0.15954
 H626 H 0.88983 0.69990 0.22092
 H627 H 0.84319 0.80325 0.15612
 H628 H 0.90242 0.80366 0.09557
 H629 H 0.86967 0.69113 0.04520
 H630 H 0.81011 0.69084 0.10599
 C631 C 0.41399 0.23197 0.60356
 C632 C 0.40048 0.27632 0.61793
 C633 C 0.36768 0.27803 0.64970
 C634 C 0.35096 0.23549 0.66462
 C635 C 0.34178 0.21389 0.61450
 C636 C 0.37469 0.21213 0.58276
 C637 C 0.42178 0.21001 0.65393
 C638 C 0.38871 0.21187 0.68598
 H639 H 0.41585 0.30414 0.60533
 H640 H 0.35564 0.30711 0.66422
 H641 H 0.31210 0.20082 0.60467
 H642 H 0.37294 0.19760 0.54622
 H643 H 0.45073 0.19448 0.66356
 H644 H 0.38935 0.19784 0.72293
 C645 C 0.09185 0.26977 0.10264
 C646 C 0.10821 0.22589 0.11497
 C647 C 0.14079 0.22526 0.14699
 C648 C 0.15429 0.26834 0.16425
 C649 C 0.16260 0.29223 0.11538
 C650 C 0.12993 0.29287 0.08320
 C651 C 0.08219 0.28944 0.15383
 C652 C 0.11494 0.28870 0.18615
 H653 H 0.09558 0.19758 0.09978
 H654 H 0.15579 0.19655 0.15882
 H655 H 0.19153 0.30735 0.10664
 H656 H 0.13111 0.30835 0.04711
 H657 H 0.05223 0.30276 0.16377
 H658 H 0.11305 0.30151 0.22367
 C659 C 0.58721 0.77122 0.60004
 C660 C 0.62499 0.74809 0.57815
 C661 C 0.65729 0.74423 0.61046
 C662 C 0.64924 0.76398 0.66192
 C663 C 0.63671 0.80913 0.65046
 C664 C 0.60424 0.81299 0.61800
 C665 C 0.57673 0.74772 0.64837
 C666 C 0.60912 0.74385 0.68075
 H667 H 0.62628 0.73589 0.54028
 H668 H 0.68606 0.72854 0.60025
 H669 H 0.65190 0.83572 0.66669
 H670 H 0.59180 0.84295 0.60660
 H671 H 0.54631 0.73553 0.65663
 H672 H 0.60614 0.72830 0.71660
   
