data_POSCAR
  _audit_creation_date              2014-09-24
  _audit_creation_method            'ToBaCCo'
  _symmetry_space_group_name_H-M    'P1'
  _symmetry_Int_Tables_number       1
  _symmetry_cell_setting            triclinic
  loop_
  _symmetry_equiv_pos_as_xyz
 x,y,z
_cell_length_a 48.0700
_cell_length_b 49.0396
_cell_length_c 46.6115
_cell_angle_alpha 91.485100
_cell_angle_beta 89.290000
_cell_angle_gamma 94.682800
loop_
  _atom_site_label
  _atom_site_type_symbol
  _atom_site_fract_x
  _atom_site_fract_y
  _atom_site_fract_z
C1 C 0.26521 0.44894 0.98763
 C2 C 0.24647 0.44948 1.01456
 C3 C 0.23315 0.47288 1.01845
 C4 C 0.23931 0.49345 0.99417
 C5 C 0.24532 0.45370 0.96313
 C6 C 0.23195 0.47710 0.96614
 C7 C 0.28455 0.47519 0.98992
 C8 C 0.27126 0.49846 0.99332
 H9 H 0.24257 0.43207 1.02821
 H10 H 0.22891 0.51272 0.99662
 H11 H 0.24116 0.43906 0.94562
 H12 H 0.30708 0.47511 0.98983
 C13 C 0.73514 0.55103 0.01356
 C14 C 0.75474 0.54628 0.03834
 C15 C 0.76800 0.52278 0.03563
 C16 C 0.76085 0.50635 0.00758
 C17 C 0.75415 0.55027 -0.01314
 C18 C 0.76738 0.52680 -0.01673
 C19 C 0.71571 0.52485 0.01121
 C20 C 0.72889 0.50150 0.00813
 H21 H 0.75886 0.56102 0.05576
 H22 H 0.77113 0.48699 0.00529
 H23 H 0.75820 0.56761 -0.02687
 H24 H 0.69318 0.52502 0.01118
 C25 C 0.04776 0.23070 0.50736
 C26 C 0.04528 0.24680 0.48186
 C27 C 0.01998 0.26054 0.48036
 C28 C 0.00202 0.25550 0.50574
 C29 C 0.04460 0.25134 0.53235
 C30 C 0.02060 0.26432 0.53170
 C31 C 0.02116 0.21146 0.50842
 C32 C -0.00283 0.22420 0.50763
 H33 H 0.06298 0.25103 0.46771
 H34 H -0.01802 0.26497 0.50642
 H35 H 0.06091 0.25699 0.54770
 H36 H 0.02146 0.18941 0.50902
 C37 C 0.95199 0.76950 0.49307
 C38 C 0.95498 0.74835 0.46863
 C39 C 0.97910 0.73555 0.46918
 C40 C 0.99804 0.74493 0.49470
 C41 C 0.95507 0.75302 0.52029
 C42 C 0.97932 0.74035 0.52166
 C43 C 0.97855 0.78873 0.49147
 C44 C 1.00262 0.77614 0.49222
 H45 H 0.93861 0.74268 0.45335
 H46 H 1.01800 0.73518 0.49473
 H47 H 0.93829 0.74983 0.53577
 H48 H 0.97815 0.81075 0.49053
 C49 C 0.49794 0.05174 0.22234
 C50 C 0.47374 0.05045 0.24417
 C51 C 0.47206 0.02776 0.26056
 C52 C 0.49545 0.00862 0.25392
 C53 C 0.52381 0.04980 0.24104
 C54 C 0.52295 0.02702 0.25737
 C55 C 0.49469 0.02605 0.20620
 C56 C 0.49337 0.00207 0.22319
 H57 H 0.45999 0.06669 0.24740
 H58 H 0.49365 -0.00946 0.26763
 H59 H 0.54044 0.06599 0.24259
 H60 H 0.49583 0.02540 0.18298
 C61 C 0.50200 -0.05268 0.77594
 C62 C 0.47599 -0.05078 0.75749
 C63 C 0.47678 -0.02818 0.74094
 C64 C 0.50429 -0.00980 0.74378
 C65 C 0.52606 -0.05146 0.75394
 C66 C 0.52767 -0.02892 0.73732
 C67 C 0.50554 -0.02537 0.79262
 C68 C 0.50673 -0.00293 0.77601
 H69 H 0.45923 -0.06685 0.75625
 H70 H 0.50563 0.00874 0.73062
 H71 H 0.53983 -0.06770 0.75090
 H72 H 0.50613 -0.02408 0.81585
 C73 C 0.29612 0.01955 0.47580
 H74 H 0.29798 0.03444 0.49335
 C75 C 0.31515 0.02135 0.45296
 H76 H 0.33171 0.03773 0.45281
 C77 C 0.27255 -0.02027 0.45473
 H78 H 0.25621 -0.03670 0.45573
 C79 C 0.29118 -0.01922 0.43145
 H80 H 0.28899 -0.03470 0.41444
 N81 N 0.27517 -0.00085 0.47615
 C82 C 0.21155 0.03201 0.53168
 H83 H 0.20892 0.01641 0.54770
 C84 C 0.19533 0.05441 0.53314
 H85 H 0.18017 0.05613 0.55035
 C86 C 0.23397 0.04859 0.48922
 H87 H 0.24862 0.04602 0.47181
 C88 C 0.21819 0.07127 0.48988
 H89 H 0.22093 0.08618 0.47312
 Zn90 Zn 0.25112 -0.00179 0.50860
 N91 N 0.23057 0.02962 0.51007
 C92 C 0.27462 0.01687 0.56229
 N93 N 0.27410 -0.00282 0.54111
 C94 C 0.29153 -0.02331 0.54145
 C95 C 0.31024 -0.02477 0.56388
 C96 C 0.29308 0.01618 0.58516
 C97 C 0.20650 -0.03477 0.48501
 C98 C 0.18663 -0.05712 0.48271
 C99 C 0.20530 -0.07533 0.52546
 C100 C 0.22485 -0.05263 0.52697
 N101 N 0.22526 -0.03305 0.50674
 H102 H 0.26111 0.03336 0.56127
 H103 H 0.29102 -0.03839 0.52407
 H104 H 0.32415 -0.04108 0.56388
 H105 H 0.29357 0.03200 0.60184
 H106 H 0.20701 -0.01871 0.46949
 H107 H 0.17176 -0.05830 0.46536
 H108 H 0.20503 -0.09078 0.54167
 H109 H 0.23946 -0.05061 0.54445
 C110 C 0.19870 0.07421 0.51202
 C111 C 0.31262 0.00182 0.43057
 C112 C 0.18607 -0.07759 0.50309
 C113 C 0.31108 -0.00481 0.58588
 C114 C 0.70730 0.02025 0.52597
 H115 H 0.70740 0.03650 0.51069
 C116 C 0.68832 0.01940 0.54892
 H117 H 0.67380 0.03509 0.55145
 C118 C 0.72549 -0.02055 0.54093
 H119 H 0.73956 -0.03641 0.53742
 C120 C 0.70686 -0.02217 0.56416
 H121 H 0.70684 -0.03911 0.57862
 N122 N 0.72550 0.00054 0.52250
 C123 C 0.79373 0.03751 0.47016
 H124 H 0.79405 0.02250 0.45275
 C125 C 0.81334 0.06016 0.47074
 H126 H 0.82885 0.06263 0.45375
 C127 C 0.77366 0.05228 0.51404
 H128 H 0.75853 0.04889 0.53115
 C129 C 0.79290 0.07520 0.51545
 H130 H 0.79243 0.08946 0.53356
 Zn131 Zn 0.74922 0.00221 0.48976
 N132 N 0.77430 0.03407 0.49152
 C133 C 0.72831 0.02366 0.43886
 N134 N 0.72587 0.00261 0.45744
 C135 C 0.70531 -0.01803 0.45459
 C136 C 0.68625 -0.01814 0.43222
 C137 C 0.70967 0.02434 0.41618
 C138 C 0.78955 -0.03075 0.50903
 C139 C 0.80584 -0.05305 0.50913
 C140 C 0.78364 -0.07004 0.46522
 C141 C 0.76774 -0.04740 0.46594
 N142 N 0.77069 -0.02852 0.48786
 H143 H 0.74430 0.04022 0.44188
 H144 H 0.70353 -0.03423 0.46999
 H145 H 0.66977 -0.03451 0.43028
 H146 H 0.71152 0.04131 0.40166
 H147 H 0.79173 -0.01525 0.52597
 H148 H 0.82064 -0.05478 0.52620
 H149 H 0.78109 -0.08507 0.44782
 H150 H 0.75312 -0.04498 0.44897
 C151 C 0.81292 0.07916 0.49361
 C152 C 0.68809 -0.00204 0.56814
 C153 C 0.80274 -0.07294 0.48711
 C154 C 0.68840 0.00330 0.41292
 C155 C 0.48679 0.21363 1.00487
 H156 H 0.47174 0.20994 0.98785
 C157 C 0.48557 0.19674 1.02856
 H158 H 0.46952 0.17996 1.02988
 C159 C 0.52640 0.23975 1.02380
 H160 H 0.54256 0.25622 1.02167
 C161 C 0.52594 0.22332 1.04787
 H162 H 0.54158 0.22734 1.06431
 N163 N 0.50678 0.23484 1.00307
 C164 C 0.47091 0.29220 0.94687
 H165 H 0.48675 0.29439 0.93023
 C166 C 0.44743 0.30720 0.94593
 H167 H 0.44513 0.32099 0.92849
 C168 C 0.45484 0.27221 0.99047
 H169 H 0.45804 0.25907 1.00815
 C170 C 0.43111 0.28681 0.99034
 H171 H 0.41604 0.28464 1.00777
 Zn172 Zn 0.50701 0.25631 0.96990
 N173 N 0.47408 0.27500 0.96884
 C174 C 0.48885 0.22907 0.91786
 N175 N 0.50921 0.23196 0.93802
 C176 C 0.53078 0.21563 0.93751
 C177 C 0.53241 0.19531 0.91619
 C178 C 0.48967 0.20893 0.89615
 C179 C 0.53789 0.30251 0.99172
 C180 C 0.56020 0.32245 0.99419
 C181 C 0.58177 0.30215 0.95260
 C182 C 0.55900 0.28253 0.95090
 N183 N 0.53786 0.28284 0.97060
 H184 H 0.47151 0.24175 0.91906
 H185 H 0.54634 0.21799 0.95415
 H186 H 0.54934 0.18202 0.91632
 H187 H 0.47307 0.20629 0.88057
 H188 H 0.52064 0.30246 1.00686
 H189 H 0.56016 0.33787 1.01126
 H190 H 0.59864 0.30170 0.93701
 H191 H 0.55833 0.26709 0.93393
 C192 C 0.42739 0.30447 0.96791
 C193 C 0.50528 0.20169 1.05028
 C194 C 0.58241 0.32215 0.97457
 C195 C 0.51154 0.19177 0.89549
 C196 C 0.47437 0.78246 -0.00727
 H197 H 0.45797 0.78341 0.00875
 C198 C 0.47476 0.79923 -0.03103
 H199 H 0.45859 0.81314 -0.03341
 C200 C 0.51582 0.76358 -0.02352
 H201 H 0.53206 0.75004 -0.02029
 C202 C 0.51700 0.78002 -0.04761
 H203 H 0.53399 0.77891 -0.06297
 N204 N 0.49454 0.76488 -0.00411
 C205 C 0.45566 0.70125 0.05051
 H206 H 0.47018 0.70202 0.06811
 C207 C 0.43276 0.68176 0.05001
 H208 H 0.42959 0.66742 0.06727
 C209 C 0.44258 0.71819 0.00584
 H210 H 0.44680 0.73191 -0.01171
 C211 C 0.41946 0.69906 0.00452
 H212 H 0.40590 0.69828 -0.01393
 Zn213 Zn 0.49262 0.74357 0.02925
 N214 N 0.46010 0.71900 0.02863
 C215 C 0.47056 0.76762 0.08022
 N216 N 0.49206 0.76839 0.06090
 C217 C 0.51325 0.78853 0.06216
 C218 C 0.51339 0.80901 0.08350
 C219 C 0.46986 0.78779 0.10193
 C220 C 0.52656 0.70314 0.00992
 C221 C 0.54963 0.68758 0.00930
 C222 C 0.56652 0.71180 0.05227
 C223 C 0.54312 0.72694 0.05209
 N224 N 0.52397 0.72269 0.03082
 H225 H 0.45358 0.75185 0.07842
 H226 H 0.52978 0.78893 0.04618
 H227 H 0.53011 0.82522 0.08402
 H228 H 0.45244 0.78742 0.11691
 H229 H 0.51083 0.69994 -0.00650
 H230 H 0.55171 0.67231 -0.00764
 H231 H 0.58184 0.71549 0.06908
 H232 H 0.54040 0.74211 0.06888
 C233 C 0.41457 0.68061 0.02672
 C234 C 0.49624 0.79795 -0.05139
 C235 C 0.56989 0.69211 0.03054
 C236 C 0.49141 0.80875 0.10342
 C237 C 1.03535 0.46738 0.21151
 H238 H 1.01859 0.45126 0.21087
 C239 C 1.05744 0.46693 0.19184
 H240 H 1.05778 0.45036 0.17604
 C241 C 1.05501 0.50910 0.23236
 H242 H 1.05369 0.52576 0.24780
 C243 C 1.07751 0.50945 0.21302
 H244 H 1.09360 0.52625 0.21379
 N245 N 1.03458 0.48816 0.23135
 C246 C 0.97981 0.45398 0.29926
 H247 H 0.96407 0.46855 0.30017
 C248 C 0.97854 0.43246 0.31846
 H249 H 0.96173 0.43036 0.33414
 C250 C 1.02147 0.43933 0.27838
 H251 H 1.03852 0.44238 0.26320
 C252 C 1.02098 0.41756 0.29716
 H253 H 1.03751 0.40379 0.29617
 Zn254 Zn 1.00261 0.48764 0.25557
 N255 N 1.00099 0.45694 0.27964
 C256 C 0.94997 0.46628 0.23252
 N257 N 0.97133 0.48625 0.23113
 C258 C 0.97169 0.50609 0.21123
 C259 C 0.94968 0.50680 0.19212
 C260 C 0.92746 0.46624 0.21374
 C261 C 1.02417 0.52386 0.29918
 C262 C 1.02495 0.54667 0.31790
 C263 C 0.98288 0.55993 0.29616
 C264 C 0.98287 0.53693 0.27789
 N265 N 1.00345 0.51954 0.27953
 H266 H 0.95034 0.45038 0.24808
 H267 H 0.98911 0.52149 0.21036
 H268 H 0.95009 0.52282 0.17652
 H269 H 0.91042 0.45043 0.21503
 H270 H 1.03999 0.50947 0.30039
 H271 H 1.04145 0.54994 0.33353
 H272 H 0.96634 0.57358 0.29477
 H273 H 0.96617 0.53284 0.26272
 C274 C 0.99937 0.41413 0.31743
 C275 C 1.07867 0.48818 0.19255
 C276 C 1.00408 0.56485 0.31634
 C277 C 0.92732 0.48677 0.19345
 C278 C -0.03684 0.49072 0.78968
 H279 H -0.02186 0.47541 0.78978
 C280 C -0.05878 0.48975 0.80967
 H281 H -0.06080 0.47360 0.82516
 C282 C -0.05201 0.53106 0.77006
 H283 H -0.04898 0.54746 0.75505
 C284 C -0.07424 0.53084 0.78968
 H285 H -0.08837 0.54695 0.78953
 N286 N -0.03392 0.51110 0.77033
 C287 C 0.01668 0.48004 0.70027
 H288 H 0.03291 0.49664 0.69919
 C289 C 0.01711 0.45768 0.68117
 H290 H 0.03375 0.45698 0.66534
 C291 C -0.02491 0.46069 0.72215
 H292 H -0.04140 0.46208 0.73794
 C293 C -0.02526 0.43792 0.70342
 H294 H -0.04189 0.42172 0.70501
 Zn295 Zn -0.00236 0.51215 0.74552
 N296 N -0.00390 0.48099 0.72050
 C297 C 0.04717 0.49254 0.76689
 N298 N 0.02957 0.51290 0.76908
 C299 C 0.03316 0.53314 0.78957
 C300 C 0.05526 0.53346 0.80883
 C301 C 0.06951 0.49211 0.78568
 C302 C -0.02194 0.54435 0.70295
 C303 C -0.02210 0.56630 0.68450
 C304 C 0.02091 0.58570 0.70575
 C305 C 0.02027 0.56335 0.72386
 N306 N -0.00109 0.54336 0.72229
 H307 H 0.04359 0.47623 0.75103
 H308 H 0.01855 0.54877 0.79121
 H309 H 0.05779 0.54945 0.82529
 H310 H 0.08319 0.47563 0.78402
 H311 H -0.03842 0.52797 0.70187
 H312 H -0.03880 0.56690 0.66919
 H313 H 0.03798 0.60152 0.70705
 H314 H 0.03696 0.56190 0.73891
 C315 C -0.00397 0.43636 0.68286
 C316 C -0.07758 0.51005 0.80972
 C317 C -0.00049 0.58717 0.68591
 C318 C 0.07351 0.51267 0.80693
 C319 C 0.10366 0.18314 0.48373
 C320 C 0.11475 0.17663 0.51003
 C321 C 0.10545 0.18898 0.53535
 C322 C 0.08479 0.20743 0.53446
 C323 C 0.07337 0.21426 0.50809
 C324 C 0.08300 0.20154 0.48275
 C325 C 0.13404 0.15571 0.51117
 C326 C 0.14952 0.13761 0.51189
 C327 C 0.16704 0.11588 0.51240
 C328 C 0.18161 0.09700 0.51246
 H329 H 0.11030 0.17328 0.46402
 H330 H 0.11348 0.18366 0.55591
 H331 H 0.07701 0.21532 0.55462
 H332 H 0.07382 0.20500 0.46221
 C333 C 0.68891 0.60815 -0.00430
 C334 C 0.67870 0.61525 0.02285
 C335 C 0.68839 0.60304 0.04716
 C336 C 0.70776 0.58334 0.04430
 C337 C 0.71818 0.57585 0.01704
 C338 C 0.70826 0.58847 -0.00725
 C339 C 0.65649 0.63316 0.02545
 C340 C 0.63723 0.64741 0.02724
 C341 C 0.61411 0.66338 0.02889
 C342 C 0.59406 0.67661 0.02987
 H343 H 0.68110 0.61706 -0.02334
 H344 H 0.68018 0.60796 0.06825
 H345 H 0.71354 0.57315 0.06338
 H346 H 0.71434 0.58230 -0.02871
 C347 C 0.89504 -0.18403 0.51619
 C348 C 0.88498 -0.17667 0.48971
 C349 C 0.89526 -0.18823 0.46439
 C350 C 0.91591 -0.20667 0.46550
 C351 C 0.92631 -0.21428 0.49206
 C352 C 0.91568 -0.20244 0.51738
 C353 C 0.86591 -0.15558 0.48849
 C354 C 0.85067 -0.13727 0.48773
 C355 C 0.83352 -0.11526 0.48716
 C356 C 0.81932 -0.09611 0.48696
 H357 H 0.88765 -0.17477 0.53592
 H358 H 0.88805 -0.18225 0.44372
 H359 H 0.92450 -0.21401 0.44547
 H360 H 0.92410 -0.20639 0.53814
 C361 C 0.31056 0.39052 1.00381
 C362 C 0.32094 0.38421 0.97650
 C363 C 0.31187 0.39759 0.95264
 C364 C 0.29287 0.41755 0.95613
 C365 C 0.28218 0.42418 0.98354
 C366 C 0.29157 0.41048 1.00738
 C367 C 0.34263 0.36576 0.97334
 C368 C 0.36143 0.35099 0.97117
 C369 C 0.38402 0.33436 0.96925
 C370 C 0.40367 0.32057 0.96824
 H371 H 0.31791 0.38071 1.02252
 H372 H 0.32022 0.39328 0.93146
 H373 H 0.28745 0.42856 0.93745
 H374 H 0.28532 0.41592 1.02900
 C375 C 0.93961 0.16922 0.52335
 C376 C 0.91860 0.17608 0.50502
 C377 C 0.92256 0.19981 0.48884
 C378 C 0.94782 0.21619 0.49044
 C379 C 0.96938 0.20877 0.50803
 C380 C 0.96480 0.18543 0.52487
 C381 C 0.89390 0.15763 0.50184
 C382 C 0.87416 0.14094 0.49950
 C383 C 0.85204 0.12025 0.49713
 C384 C 0.83388 0.10183 0.49538
 H385 H 0.93677 0.15095 0.53600
 H386 H 0.90646 0.20525 0.47450
 H387 H 0.95091 0.23395 0.47709
 H388 H 0.98087 0.17948 0.53897
 C389 C 0.32763 0.55638 -0.01385
 C390 C 0.31910 0.57533 0.00669
 C391 C 0.29394 0.56987 0.02176
 C392 C 0.27773 0.54518 0.01675
 C393 C 0.28672 0.52568 -0.00320
 C394 C 0.31158 0.53175 -0.01879
 C395 C 0.33712 0.59960 0.01289
 C396 C 0.35350 0.61914 0.01737
 C397 C 0.37389 0.64119 0.02168
 C398 C 0.39210 0.65943 0.02449
 H399 H 0.34700 0.56041 -0.02570
 H400 H 0.28718 0.58439 0.03777
 H401 H 0.25879 0.54090 0.02922
 H402 H 0.31879 0.51730 -0.03461
 C403 C 0.07723 -0.19863 0.51000
 C404 C 0.08090 -0.17523 0.49330
 C405 C 0.05969 -0.16889 0.47494
 C406 C 0.03460 -0.18529 0.47392
 C407 C 0.03031 -0.20830 0.49130
 C408 C 0.05207 -0.21520 0.50890
 C409 C 0.10547 -0.15654 0.49600
 C410 C 0.12510 -0.13968 0.49798
 C411 C 0.14709 -0.11883 0.49999
 C412 C 0.16517 -0.10032 0.50150
 H413 H 0.09349 -0.20366 0.52437
 H414 H 0.06229 -0.15088 0.46189
 H415 H 0.01836 -0.17974 0.45980
 H416 H 0.04922 -0.23269 0.52266
 C417 C 0.70562 0.43010 0.98015
 C418 C 0.68046 0.42494 0.99531
 C419 C 0.67221 0.44402 1.01585
 C420 C 0.68848 0.46853 1.02064
 C421 C 0.71331 0.47433 1.00491
 C422 C 0.72207 0.45468 0.98503
 C423 C 0.66205 0.40095 0.98907
 C424 C 0.64526 0.38176 0.98454
 C425 C 0.62430 0.36025 0.98012
 C426 C 0.60556 0.34257 0.97713
 H427 H 0.71215 0.41548 0.96413
 H428 H 0.65283 0.44022 1.02775
 H429 H 0.68146 0.48312 1.03642
 H430 H 0.74099 0.45876 0.97248
 C431 C 0.47574 0.10670 1.17222
 C432 C 0.50135 0.11648 1.16033
 C433 C 0.52594 0.10608 1.16924
 C434 C 0.52496 0.08584 1.18986
 C435 C 0.49934 0.07601 1.20241
 C436 C 0.47467 0.08646 1.19285
 C437 C 0.50224 0.13585 1.13763
 C438 C 0.50300 0.15156 1.11814
 C439 C 0.50386 0.16942 1.09487
 C440 C 0.50455 0.18430 1.07468
 H441 H 0.45649 0.11419 1.16498
 H442 H 0.54584 0.11308 1.15969
 H443 H 0.54424 0.07731 1.19519
 H444 H 0.45440 0.07843 1.20055
 C445 C -0.02377 0.70709 0.59486
 C446 C -0.00550 0.68655 0.59071
 C447 C 0.00927 0.68472 0.56481
 C448 C 0.00511 0.70272 0.54278
 C449 C -0.01424 0.72271 0.54606
 C450 C -0.02798 0.72512 0.57285
 C451 C -0.00301 0.66647 0.61234
 C452 C -0.00155 0.64906 0.62994
 C453 C -0.00052 0.62806 0.64998
 C454 C -0.00021 0.60966 0.66661
 H455 H -0.03513 0.70890 0.61494
 H456 H 0.02362 0.66899 0.56140
 H457 H 0.01672 0.70026 0.52314
 H458 H -0.04215 0.74082 0.57700
 C459 C 0.52525 0.89378 -0.17296
 C460 C 0.49977 0.88330 -0.16134
 C461 C 0.47490 0.89288 -0.17067
 C462 C 0.47548 0.91294 -0.19146
 C463 C 0.50098 0.92339 -0.20378
 C464 C 0.52591 0.91383 -0.19376
 C465 C 0.49921 0.86398 -0.13862
 C466 C 0.49868 0.84826 -0.11914
 C467 C 0.49795 0.83035 -0.09591
 C468 C 0.49723 0.81541 -0.07576
 H469 H 0.54469 0.88693 -0.16543
 H470 H 0.45508 0.88535 -0.16133
 H471 H 0.45596 0.92080 -0.19710
 H472 H 0.54604 0.92239 -0.20134
 C473 C 1.02743 0.29845 0.41126
 C474 C 1.00603 0.31596 0.41393
 C475 C 0.98817 0.31418 0.43775
 C476 C 0.99210 0.29553 0.45925
 C477 C 1.01443 0.27833 0.45769
 C478 C 1.03151 0.27979 0.43267
 C479 C 1.00308 0.33637 0.39272
 C480 C 1.00126 0.35379 0.37520
 C481 C 0.99986 0.37453 0.35490
 C482 C 0.99929 0.39247 0.33774
 H483 H 1.04120 0.29937 0.39267
 H484 H 0.97137 0.32756 0.43998
 H485 H 0.97773 0.29566 0.47711
 H486 H 1.04806 0.26649 0.42897
 C487 C 0.49860 0.92650 0.21286
 C488 C 0.48865 0.92234 0.18491
 C489 C 0.47958 0.94427 0.17010
 C490 C 0.48082 0.97037 0.18286
 C491 C 0.49123 0.97522 0.21092
 C492 C 0.49981 0.95263 0.22584
 C493 C 0.48875 0.89601 0.17060
 C494 C 0.48899 0.87470 0.15717
 C495 C 0.48950 0.85072 0.13989
 C496 C 0.49020 0.83109 0.12389
 H497 H 0.50596 0.90965 0.22443
 H498 H 0.47168 0.94125 0.14847
 H499 H 0.47289 0.98646 0.17068
 H500 H 0.50886 0.95498 0.24695
 C501 C -0.00349 0.33041 0.56372
 C502 C 0.00500 0.32907 0.59223
 C503 C 0.01778 0.30614 0.60118
 C504 C 0.02242 0.28485 0.58162
 C505 C 0.01435 0.28621 0.55280
 C506 C 0.00112 0.30912 0.54415
 C507 C 0.00166 0.35167 0.61197
 C508 C -0.00054 0.37081 0.62838
 C509 C -0.00243 0.39344 0.64747
 C510 C -0.00346 0.41293 0.66365
 H511 H -0.01323 0.34814 0.55650
 H512 H 0.02445 0.30487 0.62318
 H513 H 0.03237 0.26733 0.58903
 H514 H -0.00487 0.31106 0.52209
 C515 C 0.52699 0.05778 0.82532
 C516 C 0.51189 0.07801 0.81376
 C517 C 0.49597 0.07212 0.78908
 C518 C 0.49477 0.04590 0.77632
 C519 C 0.50936 0.02529 0.78827
 C520 C 0.52576 0.03161 0.81268
 C521 C 0.51173 0.10420 0.82837
 C522 C 0.51164 0.12545 0.84193
 C523 C 0.51158 0.14946 0.85923
 C524 C 0.51155 0.16920 0.87517
 H525 H 0.53938 0.06211 0.84442
 H526 H 0.48406 0.08760 0.78007
 H527 H 0.48171 0.04152 0.75774
 H528 H 0.53756 0.01627 0.82209
 C529 C 1.00456 0.67046 0.43591
 C530 C 0.99518 0.67159 0.40771
 C531 C 0.98142 0.69411 0.39930
 C532 C 0.97665 0.71516 0.41912
 C533 C 0.98553 0.71395 0.44771
 C534 C 0.99982 0.69150 0.45574
 C535 C 0.99862 0.64914 0.38780
 C536 C 1.00089 0.63006 0.37132
 C537 C 1.00282 0.60749 0.35216
 C538 C 1.00379 0.58809 0.33584
 H539 H 1.01510 0.65306 0.44272
 H540 H 0.97408 0.69524 0.37751
 H541 H 0.96597 0.73236 0.41207
 H542 H 1.00657 0.68964 0.47749
 C543 C 1.17414 0.49798 0.06475
 C544 C 1.17735 0.48411 0.09018
 C545 C 1.19943 0.46748 0.09266
 C546 C 1.21786 0.46426 0.06960
 C547 C 1.21437 0.47748 0.04352
 C548 C 1.19255 0.49480 0.04167
 C549 C 1.15732 0.48608 0.11322
 C550 C 1.14005 0.48726 0.13210
 C551 C 1.11927 0.48812 0.15371
 C552 C 1.10103 0.48840 0.17169
 H553 H 1.15711 0.51094 0.06257
 H554 H 1.20224 0.45676 0.11232
 H555 H 1.23485 0.45143 0.07234
 H556 H 1.18909 0.50548 0.02232
 C557 C 0.56589 -0.00532 0.66940
 C558 C 0.59223 -0.01470 0.67341
 C559 C 0.59773 -0.02815 0.69856
 C560 C 0.57685 -0.03252 0.71946
 C561 C 0.55008 -0.02356 0.71545
 C562 C 0.54500 -0.00966 0.69029
 C563 C 0.61335 -0.01115 0.65138
 C564 C 0.63082 -0.00852 0.63268
 C565 C 0.65101 -0.00586 0.61049
 C566 C 0.66803 -0.00393 0.59131
 H567 H 0.56138 0.00507 0.64996
 H568 H 0.61810 -0.03541 0.70195
 H569 H 0.58176 -0.04276 0.73883
 H570 H 0.52478 -0.00263 0.68629
 C571 C -0.19803 0.53181 0.90946
 C572 C -0.17593 0.51528 0.91238
 C573 C -0.17299 0.50158 0.93797
 C574 C -0.19170 0.50485 0.96077
 C575 C -0.21355 0.52207 0.95848
 C576 C -0.21675 0.53512 0.93224
 C577 C -0.15568 0.51315 0.88956
 C578 C -0.13833 0.51183 0.87078
 C579 C -0.11759 0.51075 0.84916
 C580 C -0.09953 0.51023 0.83101
 H581 H -0.20064 0.54239 0.88967
 H582 H -0.15596 0.48869 0.94047
 H583 H -0.18845 0.49431 0.98027
 H584 H -0.23375 0.54788 0.92918
 C585 C 0.43415 0.00497 0.32886
 C586 C 0.40751 0.01348 0.32438
 C587 C 0.40176 0.02613 0.29881
 C588 C 0.42267 0.03051 0.27793
 C589 C 0.44967 0.02235 0.28240
 C590 C 0.45506 0.00933 0.30800
 C591 C 0.38641 0.01002 0.34642
 C592 C 0.36902 0.00750 0.36521
 C593 C 0.34902 0.00503 0.38759
 C594 C 0.33225 0.00333 0.40701
 H595 H 0.43887 -0.00472 0.34866
 H596 H 0.38119 0.03277 0.29509
 H597 H 0.41764 0.04018 0.25824
 H598 H 0.47553 0.00310 0.31237
 C599 C 0.19671 0.48509 0.89468
 C600 C 0.17330 0.49858 0.90314
 C601 C 0.16963 0.50608 0.93202
 C602 C 0.18899 0.49965 0.95244
 C603 C 0.21220 0.48544 0.94432
 C604 C 0.21605 0.47863 0.91506
 C605 C 0.15244 0.50350 0.88240
 C606 C 0.13472 0.50682 0.86504
 C607 C 0.11369 0.50980 0.84474
 C608 C 0.09550 0.51155 0.82745
 H609 H 0.19982 0.47924 0.87236
 H610 H 0.15153 0.51645 0.93885
 H611 H 0.18522 0.50511 0.97459
 H612 H 0.23400 0.46825 0.90787
 C613 C 0.59544 0.02758 0.28941
 C614 C 0.58999 0.01237 0.31409
 C615 C 0.56293 0.00093 0.31966
 C616 C 0.54126 0.00516 0.30098
 C617 C 0.54623 0.02116 0.27653
 C618 C 0.57380 0.03185 0.27070
 C619 C 0.61186 0.00941 0.33428
 C620 C 0.62991 0.00741 0.35164
 C621 C 0.65067 0.00557 0.37247
 C622 C 0.66807 0.00436 0.39068
 H623 H 0.61637 0.03639 0.28476
 H624 H 0.55848 -0.01093 0.33871
 H625 H 0.52066 -0.00366 0.30629
 H626 H 0.57881 0.04351 0.25167
 C627 C 0.80274 0.51504 0.10748
 C628 C 0.82578 0.50086 0.09934
 C629 C 0.82935 0.49285 0.07060
 C630 C 0.81029 0.49946 0.04998
 C631 C 0.78745 0.51436 0.05773
 C632 C 0.78367 0.52168 0.08688
 C633 C 0.84651 0.49580 0.12017
 C634 C 0.86432 0.49237 0.13740
 C635 C 0.88570 0.48933 0.15728
 C636 C 0.90442 0.48764 0.17396
 H637 H 0.79971 0.52130 0.12968
 H638 H 0.84718 0.48194 0.06402
 H639 H 0.81402 0.49354 0.02795
 H640 H 0.76600 0.53258 0.09383
 C641 C 0.40384 -0.02797 0.71018
 C642 C 0.40920 -0.01346 0.68502
 C643 C 0.43638 -0.00284 0.67865
 C644 C 0.45824 -0.00715 0.69704
 C645 C 0.45333 -0.02238 0.72202
 C646 C 0.42569 -0.03232 0.72861
 C647 C 0.38711 -0.01047 0.66508
 C648 C 0.36899 -0.00846 0.64781
 C649 C 0.34827 -0.00665 0.62693
 C650 C 0.33104 -0.00557 0.60853
 H651 H 0.38284 -0.03619 0.71542
 H652 H 0.44077 0.00843 0.65919
 H653 H 0.47895 0.00095 0.69114
 H654 H 0.42082 -0.04343 0.74803
   
