data_POSCAR
  _audit_creation_date              2014-09-24
  _audit_creation_method            'ToBaCCo'
  _symmetry_space_group_name_H-M    'P1'
  _symmetry_Int_Tables_number       1
  _symmetry_cell_setting            triclinic
  loop_
  _symmetry_equiv_pos_as_xyz
 x,y,z
_cell_length_a 39.1996
_cell_length_b 42.1519
_cell_length_c 38.2916
_cell_angle_alpha 91.791900
_cell_angle_beta 88.465900
_cell_angle_gamma 90.174700
loop_
  _atom_site_label
  _atom_site_type_symbol
  _atom_site_fract_x
  _atom_site_fract_y
  _atom_site_fract_z
C1 C 0.31123 0.27429 0.22539
 H2 H 0.32139 0.26143 0.24668
 C3 C 0.33314 0.29315 0.20554
 H4 H 0.35993 0.29429 0.21168
 C5 C 0.26400 0.29003 0.19286
 H6 H 0.23701 0.28919 0.18826
 C7 C 0.28501 0.30930 0.17239
 H8 H 0.27394 0.32253 0.15174
 N9 N 0.27740 0.27249 0.21838
 C10 C 0.18370 0.26563 0.27398
 H11 H 0.17380 0.24463 0.26088
 C12 C 0.16138 0.28591 0.29285
 H13 H 0.13437 0.28041 0.29395
 C14 C 0.23089 0.29795 0.28939
 H15 H 0.25804 0.30252 0.28768
 C16 C 0.20953 0.31866 0.30890
 H17 H 0.22037 0.33932 0.32200
 Zn18 Zn 0.24828 0.24588 0.24544
 N19 N 0.21770 0.27218 0.27223
 C20 C 0.26893 0.22431 0.31112
 N21 N 0.27514 0.22212 0.27599
 C22 C 0.30061 0.20336 0.26216
 C23 C 0.32101 0.18591 0.28384
 C24 C 0.28887 0.20738 0.33379
 C25 C 0.19901 0.22984 0.19485
 C26 C 0.18008 0.20990 0.17287
 C27 C 0.21165 0.16523 0.19294
 C28 C 0.22947 0.18591 0.21508
 N29 N 0.22331 0.21771 0.21540
 H30 H 0.24847 0.23916 0.32164
 H31 H 0.30522 0.20215 0.23417
 H32 H 0.34141 0.17145 0.27233
 H33 H 0.28341 0.20924 0.36165
 H34 H 0.19356 0.25494 0.19616
 H35 H 0.16072 0.21990 0.15684
 H36 H 0.21692 0.14002 0.19298
 H37 H 0.24805 0.17631 0.23206
 C38 C 0.17424 0.31288 0.31050
 C39 C 0.32016 0.31077 0.17841
 C40 C 0.18658 0.17721 0.17158
 C41 C 0.31531 0.18786 0.32018
 C42 C 0.80857 0.77749 0.22489
 H43 H 0.82265 0.76071 0.23949
 C44 C 0.82646 0.79891 0.20413
 H45 H 0.85402 0.79802 0.20407
 C46 C 0.75607 0.80037 0.21042
 H47 H 0.72864 0.80135 0.21354
 C48 C 0.77287 0.82244 0.18959
 H49 H 0.75735 0.83882 0.17580
 N50 N 0.77392 0.77814 0.22719
 C51 C 0.68432 0.76700 0.28557
 H52 H 0.67480 0.74623 0.27171
 C53 C 0.66155 0.78681 0.30447
 H54 H 0.63460 0.78107 0.30506
 C55 C 0.73089 0.79976 0.30184
 H56 H 0.75794 0.80484 0.30015
 C57 C 0.70907 0.82005 0.32132
 H58 H 0.71948 0.84085 0.33452
 Zn59 Zn 0.74885 0.74945 0.25559
 N60 N 0.71822 0.77400 0.28424
 C61 C 0.77529 0.72902 0.31939
 N62 N 0.77883 0.72653 0.28397
 C63 C 0.80293 0.70723 0.26840
 C64 C 0.82459 0.68951 0.28855
 C65 C 0.79652 0.71180 0.34056
 C66 C 0.70070 0.73213 0.20443
 C67 C 0.68171 0.71158 0.18319
 C68 C 0.71057 0.66729 0.20774
 C69 C 0.72850 0.68864 0.22903
 N70 N 0.72371 0.72050 0.22675
 H71 H 0.75573 0.74407 0.33137
 H72 H 0.80508 0.70535 0.24018
 H73 H 0.84370 0.67446 0.27562
 H74 H 0.79295 0.71376 0.36868
 H75 H 0.69657 0.75736 0.20343
 H76 H 0.66351 0.72120 0.16558
 H77 H 0.71474 0.64204 0.20980
 H78 H 0.74597 0.67955 0.24752
 C79 C 0.67384 0.81389 0.32238
 C80 C 0.80880 0.82200 0.18574
 C81 C 0.68683 0.67876 0.18453
 C82 C 0.82150 0.69163 0.32516
 C83 C 0.82161 0.27415 0.72839
 H84 H 0.83246 0.26130 0.74936
 C85 C 0.84276 0.29309 0.70775
 H86 H 0.86972 0.29454 0.71305
 C87 C 0.77331 0.28894 0.69683
 H88 H 0.74622 0.28741 0.69277
 C89 C 0.79350 0.30832 0.67570
 H90 H 0.78172 0.32119 0.65518
 N91 N 0.78756 0.27223 0.72254
 C92 C 0.70495 0.25711 0.79862
 H93 H 0.70389 0.23145 0.79829
 C94 C 0.68199 0.27478 0.81977
 H95 H 0.66370 0.26238 0.83607
 C96 C 0.73106 0.30413 0.77845
 H97 H 0.75033 0.31544 0.76239
 C98 C 0.70827 0.32274 0.79880
 H99 H 0.70995 0.34831 0.79756
 Zn100 Zn 0.75933 0.24626 0.75106
 N101 N 0.72904 0.27194 0.77878
 C102 C 0.78405 0.22687 0.81595
 N103 N 0.78710 0.22235 0.78073
 C104 C 0.81016 0.20143 0.76641
 C105 C 0.82966 0.18263 0.78762
 C106 C 0.80353 0.20914 0.83823
 C107 C 0.70503 0.23243 0.70699
 C108 C 0.68404 0.21416 0.68532
 C109 C 0.71900 0.16855 0.69576
 C110 C 0.73900 0.18757 0.71764
 N111 N 0.73223 0.21910 0.72230
 H112 H 0.76626 0.24416 0.82704
 H113 H 0.81353 0.19937 0.73830
 H114 H 0.84817 0.16705 0.77464
 H115 H 0.79851 0.21275 0.86594
 H116 H 0.69940 0.25729 0.71185
 H117 H 0.66272 0.22522 0.67308
 H118 H 0.72488 0.14355 0.69217
 H119 H 0.75980 0.17688 0.73074
 C120 C 0.68338 0.30812 0.82006
 C121 C 0.82873 0.31049 0.68098
 C122 C 0.69123 0.18188 0.67920
 C123 C 0.82656 0.18578 0.82453
 C124 C 0.32240 0.77243 0.72541
 H125 H 0.33380 0.75873 0.74534
 C126 C 0.34311 0.79212 0.70523
 H127 H 0.37026 0.79304 0.70972
 C128 C 0.27322 0.78958 0.69686
 H129 H 0.24595 0.78898 0.69403
 C130 C 0.29298 0.80967 0.67616
 H131 H 0.28064 0.82380 0.65705
 N132 N 0.28813 0.77109 0.72061
 C133 C 0.19816 0.76552 0.78260
 H134 H 0.18640 0.74535 0.76960
 C135 C 0.17839 0.78550 0.80471
 H136 H 0.15140 0.78066 0.80836
 C137 C 0.24776 0.79575 0.79488
 H138 H 0.27488 0.79948 0.79087
 C139 C 0.22905 0.81608 0.81751
 H140 H 0.24183 0.83570 0.83063
 Zn141 Zn 0.26010 0.74452 0.74869
 N142 N 0.23215 0.77111 0.77794
 C143 C 0.28222 0.72114 0.81257
 N144 N 0.28781 0.71968 0.77734
 C145 C 0.31293 0.70106 0.76257
 C146 C 0.33386 0.68328 0.78346
 C147 C 0.30256 0.70380 0.83441
 C148 C 0.20704 0.73056 0.70165
 C149 C 0.18671 0.71152 0.68008
 C150 C 0.21961 0.66601 0.69563
 C151 C 0.23890 0.68581 0.71740
 N152 N 0.23272 0.71759 0.71972
 H153 H 0.26189 0.73568 0.82388
 H154 H 0.31694 0.70030 0.73449
 H155 H 0.35408 0.66905 0.77125
 H156 H 0.29747 0.70509 0.86235
 H157 H 0.20179 0.75565 0.70446
 H158 H 0.16641 0.72222 0.66588
 H159 H 0.22498 0.64081 0.69397
 H160 H 0.25879 0.67559 0.73233
 C161 C 0.19388 0.81110 0.82254
 C162 C 0.32845 0.81100 0.68012
 C163 C 0.19317 0.67887 0.67667
 C164 C 0.32888 0.68466 0.81993
 C165 C 0.04310 0.04383 0.00938
 H166 H 0.04706 0.04204 -0.01868
 C167 C 0.06187 0.06577 0.02913
 H168 H 0.08046 0.08078 0.01622
 C169 C 0.01347 0.02699 0.06033
 H170 H -0.00577 0.01218 0.07234
 C171 C 0.03116 0.04906 0.08096
 H172 H 0.02587 0.05068 0.10887
 N173 N 0.01999 0.02451 0.02527
 C174 C 0.00860 -0.05415 -0.05028
 H175 H -0.01897 -0.05563 -0.04964
 C176 C 0.02766 -0.07505 -0.07187
 H177 H 0.01448 -0.09286 -0.08744
 C178 C 0.05900 -0.02958 -0.02978
 H179 H 0.07116 -0.01214 -0.01301
 C180 C 0.07910 -0.04989 -0.05124
 H181 H 0.10658 -0.04723 -0.05127
 Zn182 Zn -0.00489 -0.00456 -0.00295
 N183 N 0.02438 -0.03168 -0.03020
 C184 C -0.02424 0.01916 -0.06767
 N185 N -0.03168 0.01953 -0.03277
 C186 C -0.05664 0.03854 -0.01848
 C187 C -0.07597 0.05753 -0.03970
 C188 C -0.04255 0.03809 -0.08975
 C189 C -0.01529 -0.04951 0.04771
 C190 C -0.03304 -0.07093 0.06850
 C191 C -0.08538 -0.05492 0.04224
 C192 C -0.06659 -0.03367 0.02199
 N193 N -0.03220 -0.03123 0.02525
 H194 H -0.00352 0.00476 -0.07839
 H195 H -0.06158 0.03888 0.00946
 H196 H -0.09627 0.07185 -0.02782
 H197 H -0.03552 0.03795 -0.11728
 H198 H 0.01213 -0.04741 0.04938
 H199 H -0.01907 -0.08486 0.08659
 H200 H -0.11263 -0.05696 0.03886
 H201 H -0.07944 -0.01970 0.00320
 C202 C 0.06343 -0.07288 -0.07289
 C203 C 0.05591 0.06853 0.06536
 C204 C -0.06857 -0.07398 0.06584
 C205 C -0.06896 0.05759 -0.07592
 C206 C 0.04424 0.55336 0.51283
 H207 H 0.04839 0.55188 0.48478
 C208 C 0.06328 0.57469 0.53307
 H209 H 0.08218 0.58962 0.52052
 C210 C 0.01427 0.53593 0.56332
 H211 H -0.00508 0.52104 0.57499
 C212 C 0.03228 0.55737 0.58446
 H213 H 0.02707 0.55841 0.61239
 N214 N 0.02094 0.53392 0.52825
 C215 C 0.01348 0.45353 0.45389
 H216 H -0.01396 0.45180 0.45206
 C217 C 0.03442 0.43163 0.43556
 H218 H 0.02275 0.41293 0.41993
 C219 C 0.06168 0.47924 0.47787
 H220 H 0.07231 0.49734 0.49492
 C221 C 0.08357 0.45803 0.45978
 H222 H 0.11084 0.46083 0.46247
 Zn223 Zn -0.00318 0.50486 0.49920
 N224 N 0.02732 0.47693 0.47429
 C225 C -0.02398 0.52568 0.43287
 N226 N -0.02845 0.52907 0.46813
 C227 C -0.05063 0.55078 0.48261
 C228 C -0.07008 0.56963 0.46143
 C229 C -0.04287 0.54412 0.41067
 C230 C -0.01855 0.46053 0.55021
 C231 C -0.03899 0.44092 0.57080
 C232 C -0.08845 0.45976 0.54144
 C233 C -0.06707 0.47910 0.52150
 N234 N -0.03284 0.47942 0.52647
 H235 H -0.00564 0.50884 0.42186
 H236 H -0.05339 0.55322 0.51076
 H237 H -0.08817 0.58621 0.47355
 H238 H -0.03877 0.54127 0.38268
 H239 H 0.00880 0.46092 0.55328
 H240 H -0.02714 0.42663 0.59008
 H241 H -0.11557 0.45958 0.53679
 H242 H -0.07787 0.49354 0.50180
 C243 C 0.07006 0.43375 0.43825
 C244 C 0.05746 0.57671 0.56937
 C245 C -0.07449 0.44039 0.56661
 C246 C -0.06642 0.56639 0.42490
 C247 C 0.53978 0.05917 0.51544
 H248 H 0.54382 0.05770 0.48737
 C249 C 0.55876 0.08062 0.53558
 H250 H 0.57745 0.09569 0.52292
 C251 C 0.51035 0.04141 0.56609
 H252 H 0.49130 0.02627 0.57787
 C253 C 0.52836 0.06289 0.58716
 H254 H 0.52345 0.06371 0.61514
 N255 N 0.51682 0.03950 0.53099
 C256 C 0.51076 -0.04216 0.45843
 H257 H 0.48335 -0.04417 0.45645
 C258 C 0.53199 -0.06447 0.44117
 H259 H 0.52059 -0.08373 0.42616
 C260 C 0.55857 -0.01540 0.48194
 H261 H 0.56891 0.00328 0.49843
 C262 C 0.58075 -0.03700 0.46488
 H263 H 0.60797 -0.03398 0.46775
 Zn264 Zn 0.49327 0.00987 0.50221
 N265 N 0.52427 -0.01810 0.47814
 C266 C 0.47291 0.02920 0.43528
 N267 N 0.46791 0.03315 0.47043
 C268 C 0.44498 0.05455 0.48415
 C269 C 0.42510 0.07231 0.46227
 C270 C 0.45371 0.04664 0.41241
 C271 C 0.47852 -0.03444 0.55316
 C272 C 0.45845 -0.05442 0.57363
 C273 C 0.40856 -0.03579 0.54482
 C274 C 0.42960 -0.01615 0.52490
 N275 N 0.46387 -0.01558 0.52963
 H276 H 0.49186 0.01265 0.42490
 H277 H 0.44182 0.05746 0.51222
 H278 H 0.40631 0.08852 0.47381
 H279 H 0.45827 0.04335 0.38452
 H280 H 0.50590 -0.03385 0.55602
 H281 H 0.47057 -0.06885 0.59262
 H282 H 0.38140 -0.03621 0.54040
 H283 H 0.41850 -0.00174 0.50535
 C284 C 0.56757 -0.06205 0.44420
 C285 C 0.55329 0.08244 0.57194
 C286 C 0.42295 -0.05526 0.56961
 C287 C 0.42922 0.06841 0.42582
 C288 C 0.54818 0.54665 0.01796
 H289 H 0.55468 0.54386 -0.00960
 C290 C 0.56645 0.56797 0.03892
 H291 H 0.58708 0.58162 0.02743
 C292 C 0.51302 0.53255 0.06640
 H293 H 0.49192 0.51896 0.07689
 C294 C 0.53020 0.55408 0.08819
 H295 H 0.52259 0.55657 0.11554
 N296 N 0.52253 0.52897 0.03207
 C297 C 0.51869 0.45278 -0.04748
 H298 H 0.49194 0.45331 -0.05369
 C299 C 0.54096 0.43276 -0.06674
 H300 H 0.53106 0.41852 -0.08819
 C301 C 0.56387 0.47166 -0.01260
 H302 H 0.57262 0.48643 0.00892
 C303 C 0.58692 0.45158 -0.03074
 H304 H 0.61319 0.45122 -0.02276
 Zn305 Zn 0.49934 0.50053 0.00169
 N306 N 0.53062 0.47247 -0.02177
 C307 C 0.48409 0.52384 -0.06540
 N308 N 0.47639 0.52555 -0.03053
 C309 C 0.45236 0.54607 -0.01716
 C310 C 0.43386 0.56485 -0.03926
 C311 C 0.46622 0.54222 -0.08845
 C312 C 0.48053 0.45712 0.05236
 C313 C 0.45879 0.43800 0.07212
 C314 C 0.41144 0.45616 0.03899
 C315 C 0.43410 0.47497 0.01987
 N316 N 0.46788 0.47544 0.02715
 H317 H 0.50423 0.50844 -0.07547
 H318 H 0.44719 0.54740 0.01074
 H319 H 0.41412 0.58031 -0.02815
 H320 H 0.47271 0.54055 -0.11611
 H321 H 0.50758 0.45765 0.05729
 H322 H 0.46929 0.42414 0.09259
 H323 H 0.38469 0.45589 0.03262
 H324 H 0.42465 0.48888 -0.00099
 C325 C 0.57576 0.43218 -0.05873
 C326 C 0.55750 0.57180 0.07450
 C327 C 0.42369 0.43743 0.06563
 C328 C 0.44049 0.56285 -0.07548
 C329 C 0.18558 -0.15855 -0.12059
 C330 C 0.17349 -0.16753 -0.15369
 C331 C 0.14191 -0.15589 -0.16408
 C332 C 0.12267 -0.13540 -0.14177
 C333 C 0.13492 -0.12669 -0.10842
 C334 C 0.16639 -0.13843 -0.09808
 C335 C 0.11551 -0.10640 -0.08601
 C336 C 0.08409 -0.09436 -0.09658
 C337 C 0.07243 -0.10297 -0.13001
 C338 C 0.09145 -0.12338 -0.15232
 H339 H 0.13260 -0.16239 -0.18974
 H340 H 0.17618 -0.13201 -0.07261
 H341 H 0.12469 -0.10033 -0.06020
 H342 H 0.08180 -0.12962 -0.17789
 H343 H 0.20973 -0.16745 -0.11197
 H344 H 0.04870 -0.09363 -0.13916
 C345 C 0.12052 0.34493 0.31524
 C346 C 0.15093 0.33504 0.33015
 C347 C 0.15906 0.34658 0.36376
 C348 C 0.13710 0.36775 0.38226
 C349 C 0.10678 0.37783 0.36685
 C350 C 0.09872 0.36625 0.33334
 C351 C 0.08507 0.39935 0.38515
 C352 C 0.09298 0.41076 0.41893
 C353 C 0.12303 0.40015 0.43412
 C354 C 0.14493 0.37899 0.41593
 H355 H 0.18227 0.33880 0.37563
 H356 H 0.07558 0.37370 0.32112
 H357 H 0.06229 0.40754 0.37282
 H358 H 0.16793 0.37132 0.42826
 H359 H 0.11390 0.33655 0.28927
 H360 H 0.12952 0.40796 0.46031
 C361 C 0.61977 -0.15455 0.32541
 C362 C 0.64997 -0.16388 0.34116
 C363 C 0.65755 -0.15137 0.37453
 C364 C 0.63531 -0.12972 0.39191
 C365 C 0.60524 -0.12020 0.37563
 C366 C 0.59766 -0.13282 0.34242
 C367 C 0.58330 -0.09813 0.39273
 C368 C 0.59076 -0.08559 0.42617
 C369 C 0.62057 -0.09562 0.44226
 C370 C 0.64267 -0.11736 0.42526
 H371 H 0.68060 -0.15867 0.38705
 H372 H 0.57472 -0.12580 0.32954
 H373 H 0.56072 -0.09039 0.37971
 H374 H 0.66549 -0.12456 0.43825
 H375 H 0.61359 -0.16361 0.29956
 H376 H 0.62669 -0.08691 0.46824
 C377 C 0.62532 0.31718 -0.15177
 C378 C 0.65914 0.32747 -0.15757
 C379 C 0.66965 0.35641 -0.14188
 C380 C 0.64676 0.37485 -0.12113
 C381 C 0.61301 0.36409 -0.11528
 C382 C 0.60257 0.33518 -0.13064
 C383 C 0.59017 0.38249 -0.09440
 C384 C 0.60033 0.41201 -0.07981
 C385 C 0.63401 0.42251 -0.08611
 C386 C 0.65704 0.40402 -0.10630
 H387 H 0.69572 0.36452 -0.14548
 H388 H 0.57670 0.32664 -0.12666
 H389 H 0.56456 0.37368 -0.08944
 H390 H 0.68277 0.41276 -0.11071
 H391 H 0.61618 0.29537 -0.16395
 H392 H 0.64251 0.44536 -0.07598
 C393 C -0.14868 0.17659 -0.11902
 C394 C -0.15520 0.16703 -0.15408
 C395 C -0.14246 0.13698 -0.16596
 C396 C -0.12459 0.11740 -0.14382
 C397 C -0.11822 0.12779 -0.10927
 C398 C -0.13026 0.15742 -0.09721
 C399 C -0.09998 0.10835 -0.08727
 C400 C -0.08857 0.07815 -0.09912
 C401 C -0.09574 0.06782 -0.13347
 C402 C -0.11335 0.08730 -0.15563
 H403 H -0.14802 0.12747 -0.19176
 H404 H -0.12538 0.16590 -0.07079
 H405 H -0.09436 0.11697 -0.06110
 H406 H -0.11835 0.07872 -0.18198
 H407 H -0.15602 0.19969 -0.10838
 H408 H -0.08800 0.04449 -0.14322
 C409 C -0.14245 0.68602 0.37779
 C410 C -0.15615 0.67259 0.34714
 C411 C -0.14867 0.64077 0.33777
 C412 C -0.12803 0.62256 0.35881
 C413 C -0.11450 0.63631 0.38961
 C414 C -0.12175 0.66808 0.39879
 C415 C -0.09412 0.61801 0.41083
 C416 C -0.08721 0.58599 0.40187
 C417 C -0.10073 0.57264 0.37106
 C418 C -0.12091 0.59075 0.34973
 H419 H -0.15944 0.63000 0.31445
 H420 H -0.11152 0.67903 0.42225
 H421 H -0.08348 0.62879 0.43420
 H422 H -0.13116 0.57979 0.32627
 H423 H -0.14748 0.71056 0.38536
 H424 H -0.09623 0.54796 0.36376
 C425 C 0.34884 0.18401 0.37475
 C426 C 0.33694 0.16974 0.34371
 C427 C 0.34599 0.13813 0.33512
 C428 C 0.36661 0.12099 0.35722
 C429 C 0.37854 0.13564 0.38828
 C430 C 0.36953 0.16716 0.39679
 C431 C 0.39922 0.11852 0.41034
 C432 C 0.40793 0.08675 0.40202
 C433 C 0.39579 0.07245 0.37105
 C434 C 0.37541 0.08942 0.34884
 H435 H 0.33661 0.12674 0.31146
 H436 H 0.37849 0.17878 0.42047
 H437 H 0.40875 0.13006 0.43383
 H438 H 0.36635 0.07777 0.32521
 H439 H 0.34254 0.20843 0.38174
 H440 H 0.40159 0.04790 0.36423
 C441 C 0.36229 0.67987 -0.12556
 C442 C 0.35093 0.66627 -0.15719
 C443 C 0.36045 0.63496 -0.16664
 C444 C 0.38069 0.61735 -0.14463
 C445 C 0.39171 0.63121 -0.11278
 C446 C 0.38252 0.66253 -0.10358
 C447 C 0.41154 0.61348 -0.09054
 C448 C 0.42044 0.58192 -0.09957
 C449 C 0.40953 0.56847 -0.13145
 C450 C 0.38986 0.58602 -0.15378
 H451 H 0.35154 0.62408 -0.19076
 H452 H 0.39086 0.67357 -0.07933
 H453 H 0.42018 0.62429 -0.06627
 H454 H 0.38157 0.57498 -0.17806
 H455 H 0.35574 0.70409 -0.11794
 H456 H 0.41567 0.54410 -0.13884
 C457 C -0.18764 -0.12595 0.15777
 C458 C -0.17346 -0.15591 0.16448
 C459 C -0.14098 -0.16319 0.14935
 C460 C -0.12333 -0.14140 0.12855
 C461 C -0.13792 -0.11158 0.12252
 C462 C -0.17007 -0.10413 0.13721
 C463 C -0.12007 -0.08967 0.10199
 C464 C -0.08776 -0.09725 0.08721
 C465 C -0.07371 -0.12722 0.09308
 C466 C -0.09128 -0.14905 0.11356
 H467 H -0.12963 -0.18628 0.15241
 H468 H -0.18158 -0.08126 0.13305
 H469 H -0.13111 -0.06656 0.09798
 H470 H -0.07978 -0.17193 0.11767
 H471 H -0.21178 -0.11841 0.16951
 H472 H -0.04918 -0.13396 0.08152
 C473 C -0.11717 0.32008 0.64642
 C474 C -0.14927 0.33091 0.65887
 C475 C -0.16016 0.36137 0.65023
 C476 C -0.13924 0.38081 0.62959
 C477 C -0.10705 0.36964 0.61720
 C478 C -0.09629 0.33922 0.62570
 C479 C -0.08612 0.38908 0.59656
 C480 C -0.09680 0.41972 0.58825
 C481 C -0.12887 0.43057 0.60083
 C482 C -0.14990 0.41130 0.62125
 H483 H -0.18468 0.37014 0.66004
 H484 H -0.07172 0.33024 0.61636
 H485 H -0.06170 0.38018 0.58666
 H486 H -0.17444 0.42031 0.63066
 H487 H -0.10837 0.29658 0.65239
 H488 H -0.13755 0.45420 0.59530
 C489 C 0.38180 -0.17829 0.64479
 C490 C 0.35001 -0.16780 0.65849
 C491 C 0.33903 -0.13694 0.65159
 C492 C 0.35953 -0.11681 0.63137
 C493 C 0.39145 -0.12762 0.61778
 C494 C 0.40231 -0.15841 0.62459
 C495 C 0.41198 -0.10748 0.59763
 C496 C 0.40112 -0.07655 0.59087
 C497 C 0.36930 -0.06606 0.60452
 C498 C 0.34871 -0.08600 0.62459
 H499 H 0.31479 -0.12842 0.66238
 H500 H 0.42665 -0.16712 0.61429
 H501 H 0.43622 -0.11603 0.58685
 H502 H 0.32436 -0.07728 0.63489
 H503 H 0.39064 -0.20208 0.64938
 H504 H 0.36053 -0.04223 0.60006
 C505 C 0.37550 0.31905 0.14559
 C506 C 0.34322 0.33054 0.15665
 C507 C 0.33323 0.36098 0.14695
 C508 C 0.35525 0.37976 0.12671
 C509 C 0.38768 0.36797 0.11589
 C510 C 0.39750 0.33755 0.12537
 C511 C 0.40979 0.38678 0.09582
 C512 C 0.40004 0.41739 0.08647
 C513 C 0.36767 0.42884 0.09733
 C514 C 0.34549 0.41021 0.11725
 H515 H 0.30857 0.37027 0.15564
 H516 H 0.42222 0.32809 0.11720
 H517 H 0.43445 0.37746 0.08722
 H518 H 0.32077 0.41969 0.12540
 H519 H 0.38362 0.29553 0.15230
 H520 H 0.35969 0.45247 0.09087
 C521 C 0.18405 0.13384 0.12570
 C522 C 0.16698 0.15557 0.14851
 C523 C 0.13114 0.15615 0.14969
 C524 C 0.11248 0.13489 0.12866
 C525 C 0.12989 0.11333 0.10546
 C526 C 0.16567 0.11308 0.10411
 C527 C 0.11123 0.09211 0.08438
 C528 C 0.07543 0.09159 0.08684
 C529 C 0.05836 0.11281 0.11023
 C530 C 0.07671 0.13449 0.13076
 H531 H 0.11788 0.17263 0.16759
 H532 H 0.17942 0.09665 0.08659
 H533 H 0.12451 0.07550 0.06664
 H534 H 0.06296 0.15075 0.14848
 H535 H 0.21168 0.13317 0.12442
 H536 H 0.03075 0.11278 0.11234
 C537 C 0.18844 0.63712 0.62922
 C538 C 0.17243 0.65826 0.65351
 C539 C 0.13661 0.65940 0.65580
 C540 C 0.11695 0.63934 0.63434
 C541 C 0.13333 0.61840 0.60969
 C542 C 0.16906 0.61753 0.60729
 C543 C 0.11370 0.59843 0.58814
 C544 C 0.07793 0.59854 0.59145
 C545 C 0.06188 0.61914 0.61627
 C546 C 0.08122 0.63957 0.63735
 H547 H 0.12414 0.67542 0.67478
 H548 H 0.18202 0.60157 0.58863
 H549 H 0.12622 0.58227 0.56933
 H550 H 0.06825 0.65538 0.65617
 H551 H 0.21602 0.63605 0.62698
 H552 H 0.03432 0.61960 0.61908
 C553 C 0.68541 0.14206 0.62995
 C554 C 0.66994 0.16211 0.65570
 C555 C 0.63416 0.16294 0.65910
 C556 C 0.61404 0.14359 0.63733
 C557 C 0.62988 0.12366 0.61134
 C558 C 0.66556 0.12315 0.60779
 C559 C 0.60982 0.10426 0.58963
 C560 C 0.57413 0.10397 0.59401
 C561 C 0.55861 0.12367 0.62006
 C562 C 0.57837 0.14351 0.64138
 H563 H 0.62208 0.17810 0.67918
 H564 H 0.67811 0.10797 0.58806
 H565 H 0.62198 0.08877 0.56990
 H566 H 0.56580 0.15856 0.66121
 H567 H 0.71293 0.14127 0.62677
 H568 H 0.53111 0.12385 0.62372
 C569 C 0.68464 0.63318 0.14136
 C570 C 0.66744 0.65653 0.16193
 C571 C 0.63171 0.65846 0.16100
 C572 C 0.61326 0.63709 0.13988
 C573 C 0.63087 0.61399 0.11880
 C574 C 0.66654 0.61224 0.11973
 C575 C 0.61249 0.59292 0.09731
 C576 C 0.57669 0.59415 0.09716
 C577 C 0.55937 0.61676 0.11865
 C578 C 0.57752 0.63825 0.13964
 H579 H 0.61831 0.67623 0.17717
 H580 H 0.68041 0.59461 0.10386
 H581 H 0.62594 0.57524 0.08107
 H582 H 0.56361 0.65570 0.15574
 H583 H 0.71220 0.63146 0.14170
 H584 H 0.53178 0.61810 0.11874
   
