data_POSCAR
  _audit_creation_date              2014-09-24
  _audit_creation_method            'ToBaCCo'
  _symmetry_space_group_name_H-M    'P1'
  _symmetry_Int_Tables_number       1
  _symmetry_cell_setting            triclinic
  loop_
  _symmetry_equiv_pos_as_xyz
 x,y,z
_cell_length_a 18.0472
_cell_length_b 18.4187
_cell_length_c 18.1972
_cell_angle_alpha 88.288300
_cell_angle_beta 88.438700
_cell_angle_gamma 88.156000
loop_
  _atom_site_label
  _atom_site_type_symbol
  _atom_site_fract_x
  _atom_site_fract_y
  _atom_site_fract_z
C1 C -0.11239 0.50741 0.25741
 C2 C -0.03983 0.51893 0.23429
 C3 C -0.01624 0.58859 0.21687
 C4 C -0.06553 0.64817 0.22179
 C5 C -0.13651 0.63680 0.25639
 C6 C -0.15922 0.56571 0.27894
 C7 C 0.01477 0.45926 0.23853
 C8 C 0.00509 0.39527 0.20312
 C9 C 0.05873 0.33907 0.20719
 C10 C 0.12528 0.34993 0.24575
 C11 C 0.13499 0.41660 0.28251
 C12 C 0.07551 0.46685 0.28199
 H13 H -0.12899 0.45184 0.26452
 H14 H 0.04005 0.59496 0.19581
 H15 H -0.04527 0.38905 0.17304
 H16 H 0.07386 0.51269 0.31670
 H17 H -0.17145 0.68364 0.26820
 H18 H 0.16806 0.30751 0.24609
 C19 C -0.10506 0.49922 0.73335
 C20 C -0.05780 0.49114 0.79168
 C21 C -0.05258 0.42642 0.83180
 C22 C -0.07315 0.36153 0.80054
 C23 C -0.11987 0.36892 0.73867
 C24 C -0.14084 0.43924 0.70916
 C25 C 0.00752 0.53365 0.78785
 C26 C 0.00937 0.59901 0.82291
 C27 C 0.06914 0.64403 0.80965
 C28 C 0.13122 0.61755 0.76826
 C29 C 0.12913 0.55014 0.73312
 C30 C 0.06646 0.50927 0.74281
 H31 H -0.11222 0.55221 0.70660
 H32 H -0.02156 0.42741 0.88138
 H33 H -0.03698 0.61573 0.85836
 H34 H 0.06293 0.45839 0.71472
 H35 H -0.14420 0.32167 0.71646
 H36 H 0.17998 0.64884 0.76364
 C37 C 0.27022 -0.09349 0.48150
 C38 C 0.24951 -0.02161 0.49592
 C39 C 0.21455 -0.00320 0.56234
 C40 C 0.19733 -0.05575 0.61559
 C41 C 0.20909 -0.12871 0.59564
 C42 C 0.25187 -0.14837 0.53250
 C43 C 0.26123 0.03559 0.44090
 C44 C 0.23840 0.02635 0.36988
 C45 C 0.23589 0.08490 0.31961
 C46 C 0.26215 0.15304 0.34035
 C47 C 0.28801 0.16087 0.41255
 C48 C 0.28487 0.10255 0.46223
 H49 H 0.30218 -0.10513 0.43182
 H50 H 0.19840 0.05248 0.56973
 H51 H 0.21626 -0.02533 0.35537
 H52 H 0.30155 0.10931 0.51839
 H53 H 0.18375 -0.17132 0.62753
 H54 H 0.26053 0.19915 0.30227
 C55 C 0.69505 -0.10002 0.49033
 C56 C 0.73079 -0.03578 0.47156
 C57 C 0.76253 -0.02494 0.40177
 C58 C 0.76164 -0.07830 0.34951
 C59 C 0.72694 -0.14541 0.36886
 C60 C 0.69336 -0.15667 0.44067
 C61 C 0.73784 0.02088 0.52511
 C62 C 0.77301 0.00545 0.59145
 C63 C 0.78734 0.06130 0.63985
 C64 C 0.76476 0.13313 0.61908
 C65 C 0.72788 0.14821 0.55290
 C66 C 0.71449 0.09163 0.50664
 H67 H 0.66654 -0.10429 0.54326
 H68 H 0.79088 0.02515 0.38882
 H69 H 0.78904 -0.05049 0.60479
 H70 H 0.68344 0.10159 0.45714
 H71 H 0.72655 -0.18803 0.32913
 H72 H 0.77673 0.17845 0.65274
 C73 C 0.47775 0.28058 1.11805
 C74 C 0.47728 0.23114 1.06272
 C75 C 0.42187 0.18114 1.06047
 C76 C 0.35379 0.19427 1.09728
 C77 C 0.35466 0.24345 1.15697
 C78 C 0.41931 0.28308 1.16920
 C79 C 0.52446 0.24052 0.99809
 C80 C 0.59796 0.21789 0.99966
 C81 C 0.64012 0.21405 0.93445
 C82 C 0.60704 0.23761 0.86684
 C83 C 0.53330 0.26846 0.86731
 C84 C 0.49267 0.26699 0.93329
 H85 H 0.52367 0.31687 1.12143
 H86 H 0.43018 0.13789 1.02222
 H87 H 0.62033 0.19711 1.05126
 H88 H 0.43542 0.28626 0.93469
 H89 H 0.30738 0.25158 1.19357
 H90 H 0.63904 0.23514 0.81578
 C91 C 0.54318 0.69717 1.10805
 C92 C 0.54961 0.73435 1.04097
 C93 C 0.61541 0.76920 1.02166
 C94 C 0.67396 0.76863 1.07016
 C95 C 0.66541 0.73564 1.14040
 C96 C 0.59997 0.69915 1.15852
 C97 C 0.49098 0.73180 0.98745
 C98 C 0.41685 0.75357 1.00400
 C99 C 0.36431 0.75860 0.94797
 C100 C 0.38778 0.73349 0.87712
 C101 C 0.46325 0.71198 0.86077
 C102 C 0.51282 0.71135 0.91708
 H103 H 0.49306 0.66819 1.12200
 H104 H 0.62067 0.79788 0.96887
 H105 H 0.40267 0.77298 1.05838
 H106 H 0.57023 0.69494 0.90589
 H107 H 0.70861 0.73836 1.18035
 H108 H 0.34621 0.72960 0.83599
 B109 B 0.99625 1.07569 0.04496
 B110 B 1.00280 1.07887 -0.05167
 B111 B 1.08008 1.05104 -0.00297
 B112 B 1.05230 1.00049 0.07389
 B113 B 0.95377 0.99810 0.07459
 B114 B 0.92292 1.04455 -0.00500
 B115 B 1.00934 0.92526 -0.04937
 B116 B 1.00815 0.92368 0.04737
 B117 B 0.93068 0.95093 -0.00352
 B118 B 0.95971 1.00235 -0.08190
 B119 B 1.05539 1.00454 -0.08118
 B120 B 1.08691 0.95548 -0.00421
 B121 B 0.56744 0.50459 0.46788
 B122 B 0.56158 0.49816 0.56285
 B123 B 0.52742 0.57647 0.51533
 B124 B 0.48773 0.54873 0.43465
 B125 B 0.49384 0.45529 0.43299
 B126 B 0.54062 0.42398 0.51098
 B127 B 0.40561 0.49130 0.55668
 B128 B 0.41115 0.49464 0.46052
 B129 B 0.44492 0.41900 0.51021
 B130 B 0.48371 0.44839 0.59025
 B131 B 0.47870 0.54343 0.58898
 B132 B 0.43131 0.56963 0.51180
 C133 C 1.02473 1.20756 0.20927
 C134 C 1.04159 1.27140 0.16917
 C135 C 1.01264 1.27785 0.09813
 C136 C 0.97765 1.21975 0.06689
 C137 C 0.98084 1.14907 0.09786
 C138 C 0.99201 1.14832 0.17464
 C139 C 0.93233 1.14960 0.23467
 C140 C 0.97254 1.20647 0.27347
 H141 H 1.01216 1.32975 0.06854
 H142 H 0.94484 1.23174 0.01985
 H143 H 0.92839 1.09837 0.26797
 H144 H 0.87851 1.17137 0.21455
 H145 H 0.99984 1.18566 0.32425
 H146 H 0.93927 1.25792 0.27985
 C147 C 1.03033 0.73483 0.17738
 C148 C 0.95572 0.71561 0.18903
 C149 C 0.90295 0.76621 0.16537
 C150 C 0.92338 0.82817 0.12588
 C151 C 0.99677 0.84733 0.10386
 C152 C 1.05097 0.80034 0.13881
 C153 C 1.10009 0.81537 0.20350
 C154 C 1.07962 0.74461 0.23965
 H155 H 0.84433 0.75834 0.17481
 H156 H 0.87801 0.86426 0.12081
 H157 H 1.08199 0.86255 0.23644
 H158 H 1.16080 0.81354 0.19300
 H159 H 1.04933 0.75093 0.29327
 H160 H 1.12598 0.70364 0.24018
 C161 C 0.99882 1.29010 -0.10649
 C162 C 0.95494 1.29347 -0.16975
 C163 C 0.95251 1.22793 -0.20747
 C164 C 0.98347 1.16263 -0.17705
 C165 C 1.00706 1.15626 -0.10398
 C166 C 1.02850 1.22308 -0.07788
 C167 C 1.10393 1.25454 -0.08225
 C168 C 1.07078 1.32676 -0.10231
 H169 H 0.93064 1.22652 -0.26208
 H170 H 0.98727 1.11651 -0.21191
 H171 H 1.13475 1.23525 -0.13076
 H172 H 1.13313 1.25510 -0.02964
 H173 H 1.09172 1.34916 -0.15620
 H174 H 1.07125 1.36524 -0.05638
 C175 C 1.01174 0.76550 -0.19602
 C176 C 1.06318 0.71519 -0.16542
 C177 C 1.08774 0.72949 -0.09547
 C178 C 1.06081 0.79064 -0.05779
 C179 C 1.01121 0.84420 -0.08839
 C180 C 0.98583 0.82873 -0.16026
 C181 C 0.90966 0.81424 -0.19279
 C182 C 0.94247 0.75112 -0.23369
 H183 H 1.12359 0.69024 -0.06701
 H184 H 1.07884 0.79450 -0.00292
 H185 H 0.88627 0.85136 -0.23454
 H186 H 0.86449 0.79814 -0.15466
 H187 H 0.94835 0.76167 -0.29405
 H188 H 0.91474 0.70009 -0.21790
 C189 C 1.22747 1.04799 0.19276
 C190 C 1.19467 1.07543 0.25684
 C191 C 1.11924 1.06216 0.26750
 C192 C 1.07870 1.02712 0.21520
 C193 C 1.10814 1.00460 0.14678
 C194 C 1.18657 1.01329 0.13947
 C195 C 1.25175 0.95998 0.13210
 C196 C 1.29510 1.00171 0.18515
 H197 H 1.09122 1.07725 0.31855
 H198 H 1.02177 1.02660 0.22793
 H199 H 1.27811 0.96139 0.07618
 H200 H 1.24061 0.90533 0.15610
 H201 H 1.34171 1.03155 0.15859
 H202 H 1.30896 0.96995 0.23613
 C203 C 1.15818 1.03614 -0.28449
 C204 C 1.16761 0.96488 -0.30951
 C205 C 1.15026 0.91173 -0.25634
 C206 C 1.11825 0.92913 -0.18835
 C207 C 1.10200 1.00025 -0.16292
 C208 C 1.12764 1.05460 -0.21551
 C209 C 1.14029 1.13395 -0.23880
 C210 C 1.17206 1.11030 -0.31198
 H211 H 1.15991 0.85485 -0.26494
 H212 H 1.11417 0.88279 -0.15396
 H213 H 1.18330 1.16140 -0.21053
 H214 H 1.09279 1.17059 -0.25040
 H215 H 1.23222 1.12033 -0.32011
 H216 H 1.13600 1.12777 -0.35829
 C217 C 0.78422 0.99433 0.23039
 C218 C 0.80487 0.93823 0.27977
 C219 C 0.87980 0.91668 0.27279
 C220 C 0.92625 0.94462 0.21486
 C221 C 0.90174 0.99208 0.15558
 C222 C 0.82908 1.02153 0.17298
 C223 C 0.76665 1.07611 0.15472
 C224 C 0.72074 1.04512 0.21935
 H225 H 0.90358 0.87890 0.31308
 H226 H 0.98141 0.92231 0.21396
 H227 H 0.73772 1.06899 0.10274
 H228 H 0.78029 1.13327 0.16328
 H229 H 0.67053 1.01696 0.20278
 H230 H 0.71253 1.08298 0.26551
 C231 C 0.87237 0.98418 -0.28631
 C232 C 0.82442 1.04494 -0.29360
 C233 C 0.82176 1.09177 -0.23475
 C234 C 0.86435 1.07732 -0.17266
 C235 C 0.91278 1.01532 -0.16159
 C236 C 0.91880 0.97294 -0.22501
 C237 C 0.98205 0.96016 -0.27948
 C238 C 0.93005 0.96465 -0.34188
 H239 H 0.78683 1.14057 -0.23503
 H240 H 0.86248 1.12138 -0.13566
 H241 H 1.00878 0.90553 -0.27659
 H242 H 1.01873 1.00666 -0.28396
 H243 H 0.92037 0.91115 -0.36608
 H244 H 0.94217 1.00933 -0.38254
 C245 C 1.29080 1.11770 0.00752
 C246 C 1.28862 1.16243 0.06994
 C247 C 1.21757 1.18164 0.09626
 C248 C 1.15444 1.15214 0.06718
 C249 C 1.15395 1.10452 0.00739
 C250 C 1.22504 1.09317 -0.02536
 C251 C 1.25466 1.12825 -0.09614
 C252 C 1.32671 1.14017 -0.06324
 H253 H 1.20904 1.21677 0.14236
 H254 H 1.10797 1.16136 0.09989
 H255 H 1.26156 1.09509 -0.14495
 H256 H 1.23046 1.18223 -0.10723
 H257 H 1.34246 1.19807 -0.06663
 H258 H 1.37092 1.10070 -0.08143
 C259 C 0.71890 1.10671 -0.07730
 C260 C 0.71019 1.17903 -0.05963
 C261 C 0.76185 1.20178 -0.00859
 C262 C 0.82262 1.15633 0.01426
 C263 C 0.83717 1.08526 -0.01171
 C264 C 0.77434 1.06001 -0.05073
 C265 C 0.73880 0.99975 -0.09313
 C266 C 0.67874 1.05398 -0.11875
 H267 H 0.75326 1.25397 0.01680
 H268 H 0.85164 1.17455 0.05972
 H269 H 0.71122 0.95711 -0.05951
 H270 H 0.77256 0.97671 -0.13897
 H271 H 0.62285 1.04398 -0.09401
 H272 H 0.68023 1.06611 -0.17887
 C273 C 1.27095 0.84834 -0.09461
 C274 C 1.29464 0.79782 -0.04112
 C275 C 1.25378 0.80100 0.02644
 C276 C 1.19247 0.85161 0.03650
 C277 C 1.17138 0.90747 -0.01387
 C278 C 1.21820 0.90460 -0.07825
 C279 C 1.27051 0.95730 -0.11435
 C280 C 1.32084 0.89607 -0.13809
 H281 H 1.26815 0.76401 0.07154
 H282 H 1.16225 0.85043 0.08574
 H283 H 1.29965 0.98880 -0.07402
 H284 H 1.24862 0.98572 -0.16345
 H285 H 1.37769 0.89833 -0.11620
 H286 H 1.31860 0.88670 -0.19790
 C287 C 0.78932 0.78247 0.00057
 C288 C 0.73552 0.80855 0.05015
 C289 C 0.73630 0.88167 0.06599
 C290 C 0.79461 0.92420 0.03984
 C291 C 0.85672 0.89826 -0.00183
 C292 C 0.85076 0.82342 -0.02155
 C293 C 0.89695 0.75192 -0.01941
 C294 C 0.82849 0.71103 0.00283
 H295 H 0.69230 0.90627 0.09954
 H296 H 0.79231 0.97751 0.05703
 H297 H 0.91824 0.73136 -0.07238
 H298 H 0.94018 0.74590 0.02195
 H299 H 0.83035 0.68577 0.05901
 H300 H 0.80946 0.67517 -0.04048
 C301 C 0.76365 0.48092 0.35540
 C302 C 0.77644 0.55118 0.32476
 C303 C 0.72722 0.60620 0.34949
 C304 C 0.66807 0.59112 0.39864
 C305 C 0.65130 0.52036 0.42682
 C306 C 0.70590 0.46677 0.40826
 C307 C 0.76524 0.42960 0.45560
 C308 C 0.82058 0.43561 0.39416
 H309 H 0.73123 0.66183 0.33001
 H310 H 0.63057 0.63603 0.40568
 H311 H 0.75897 0.37295 0.47431
 H312 H 0.78539 0.46252 0.49857
 H313 H 0.83253 0.38299 0.36713
 H314 H 0.87062 0.46571 0.40813
 C315 C 0.21586 0.50763 0.34551
 C316 C 0.20361 0.43697 0.32252
 C317 C 0.26144 0.38775 0.33948
 C318 C 0.32402 0.40909 0.37840
 C319 C 0.33536 0.47981 0.40721
 C320 C 0.27752 0.52846 0.38307
 C321 C 0.25335 0.60661 0.37076
 C322 C 0.18787 0.58251 0.32906
 H323 H 0.25987 0.33216 0.32246
 H324 H 0.36454 0.36659 0.38363
 H325 H 0.29065 0.63747 0.33293
 H326 H 0.23339 0.63314 0.42185
 H327 H 0.19150 0.59606 0.26919
 H328 H 0.13500 0.59823 0.35793
 C329 C 0.73191 0.41095 0.68216
 C330 C 0.79199 0.45194 0.66451
 C331 C 0.77845 0.51333 0.61830
 C332 C 0.70751 0.52718 0.58747
 C333 C 0.64253 0.49009 0.61037
 C334 C 0.66036 0.43217 0.66146
 C335 C 0.63600 0.40691 0.73783
 C336 C 0.71260 0.38255 0.75611
 H337 H 0.82378 0.54722 0.60039
 H338 H 0.70795 0.56379 0.54140
 H339 H 0.60511 0.35753 0.73576
 H340 H 0.61664 0.44922 0.77652
 H341 H 0.72137 0.32256 0.76071
 H342 H 0.73603 0.41358 0.80114
 C343 C 0.24374 0.47304 0.71169
 C344 C 0.19015 0.52206 0.68475
 C345 C 0.19478 0.54096 0.60998
 C346 C 0.25824 0.52112 0.56761
 C347 C 0.32157 0.48551 0.59851
 C348 C 0.30831 0.45396 0.66946
 C349 C 0.29467 0.37521 0.69274
 C350 C 0.22850 0.39858 0.73870
 H351 H 0.15174 0.57521 0.58531
 H352 H 0.26091 0.54462 0.51385
 H353 H 0.33725 0.35035 0.72891
 H354 H 0.27888 0.33949 0.64851
 H355 H 0.23670 0.39166 0.79887
 H356 H 0.17554 0.37792 0.71904
 C357 C 0.54251 0.70593 0.28227
 C358 C 0.58555 0.66742 0.23168
 C359 C 0.59305 0.59288 0.24266
 C360 C 0.55704 0.55814 0.30231
 C361 C 0.50620 0.59383 0.35296
 C362 C 0.50163 0.67106 0.33938
 C363 C 0.43948 0.72613 0.31995
 C364 C 0.48801 0.76462 0.26517
 H365 H 0.62643 0.56080 0.20442
 H366 H 0.57569 0.50270 0.30985
 H367 H 0.42448 0.76413 0.36426
 H368 H 0.39211 0.70125 0.29335
 H369 H 0.50636 0.81806 0.28350
 H370 H 0.46549 0.76527 0.20908
 C371 C 0.47950 0.72068 0.72012
 C372 C 0.49325 0.68585 0.78780
 C373 C 0.53132 0.61859 0.78292
 C374 C 0.53003 0.57986 0.71738
 C375 C 0.48397 0.60109 0.65869
 C376 C 0.46541 0.67857 0.65878
 C377 C 0.39345 0.72863 0.64885
 C378 C 0.42627 0.77936 0.70476
 H379 H 0.55452 0.59169 0.83117
 H380 H 0.55947 0.52972 0.71616
 H381 H 0.24794 0.66247 0.64891
 H382 H 0.40915 0.75825 0.59568
 H383 H 0.39667 0.79707 0.75427
 H384 H 0.45516 0.82624 0.67825
 C385 C 0.42469 0.40062 0.23299
 C386 C 0.43157 0.32567 0.23461
 C387 C 0.47418 0.29553 0.29167
 C388 C 0.50024 0.33922 0.34762
 C389 C 0.48690 0.41480 0.35150
 C390 C 0.45166 0.44402 0.28624
 C391 C 0.41455 0.50884 0.24578
 C392 C 0.38583 0.45763 0.18959
 H393 H 0.48742 0.23772 0.29349
 H394 H 0.52683 0.31121 0.39089
 H395 H 0.45277 0.54690 0.21736
 H396 H 0.36971 0.53725 0.27651
 H397 H 0.41091 0.46485 0.13349
 H398 H 0.32467 0.45213 0.19262
 C399 C 0.48863 0.38563 0.80696
 C400 C 0.49997 0.31021 0.80371
 C401 C 0.48495 0.27936 0.73641
 C402 C 0.46516 0.32388 0.67442
 C403 C 0.46954 0.40109 0.67234
 C404 C 0.47297 0.43034 0.74435
 C405 C 0.41867 0.47216 0.79515
 C406 C 0.44306 0.42668 0.86038
 H407 H 0.49006 0.22103 0.73097
 H408 H 0.45618 0.29672 0.62550
 H409 H 0.35960 0.46422 0.78907
 H410 H 0.42940 0.52968 0.80279
 H411 H 0.39728 0.39534 0.88647
 H412 H 0.47753 0.45622 0.89863
 C413 C 0.68100 0.72875 0.51576
 C414 C 0.65421 0.77987 0.46250
 C415 C 0.57764 0.77765 0.45067
 C416 C 0.53407 0.72097 0.48125
 C417 C 0.56461 0.65989 0.51968
 C418 C 0.63641 0.67170 0.54483
 C419 C 0.65768 0.69006 0.62144
 C420 C 0.71055 0.74451 0.58907
 H421 H 0.55057 0.82080 0.41859
 H422 H 0.47698 0.72379 0.47002
 H423 H 0.68634 0.64584 0.65310
 H424 H 0.61164 0.71679 0.65286
 H425 H 0.76967 0.72640 0.59347
 H426 H 0.69797 0.79978 0.60909
 C427 C 0.68638 0.25300 0.46820
 C428 C 0.69285 0.22031 0.53791
 C429 C 0.65334 0.25454 0.59418
 C430 C 0.60867 0.31609 0.57956
 C431 C 0.59871 0.35057 0.51049
 C432 C 0.64179 0.31462 0.45316
 C433 C 0.66781 0.30689 0.37211
 C434 C 0.71652 0.24132 0.39363
 H435 H 0.65382 0.23227 0.64999
 H436 H 0.58298 0.33751 0.62535
 H437 H 0.70118 0.35034 0.34712
 H438 H 0.62769 0.28878 0.33244
 H439 H 0.77691 0.25124 0.38904
 H440 H 0.69878 0.19014 0.36970
 C441 C 0.28573 0.73589 0.58639
 C442 C 0.28069 0.77996 0.52569
 C443 C 0.31193 0.74883 0.46149
 C444 C 0.35351 0.68097 0.46115
 C445 C 0.37182 0.63578 0.52140
 C446 C 0.33036 0.65050 0.58551
 C447 C 0.32975 0.64022 0.70393
 C448 C 0.27664 0.74566 0.69493
 H449 H 0.30407 0.77673 0.40906
 H450 H 0.37317 0.66032 0.41071
 H451 H 0.29274 0.59881 0.72772
 H452 H 0.37448 0.63417 0.74342
 H453 H 0.29411 0.79843 0.71374
 H454 H 0.21793 0.74599 0.71476
 C455 C 0.40123 0.22435 0.44188
 C456 C 0.32441 0.22567 0.43833
 C457 C 0.28567 0.27840 0.47993
 C458 C 0.32380 0.33421 0.51376
 C459 C 0.40266 0.33852 0.50973
 C460 C 0.43863 0.27599 0.48024
 C461 C 0.48852 0.21498 0.51053
 C462 C 0.45114 0.16237 0.46347
 H463 H 0.22566 0.27872 0.48324
 H464 H 0.28926 0.37877 0.53175
 H465 H 0.47994 0.20018 0.56955
 H466 H 0.54678 0.21783 0.49250
 H467 H 0.42498 0.11822 0.49654
 H468 H 0.48643 0.14361 0.41625
   
