data_POSCAR
  _audit_creation_date              2014-09-24
  _audit_creation_method            'ToBaCCo'
  _symmetry_space_group_name_H-M    'P1'
  _symmetry_Int_Tables_number       1
  _symmetry_cell_setting            triclinic
  loop_
  _symmetry_equiv_pos_as_xyz
 x,y,z
_cell_length_a 23.9271
_cell_length_b 25.4807
_cell_length_c 20.5387
_cell_angle_alpha 90.630800
_cell_angle_beta 89.454600
_cell_angle_gamma 89.943500
loop_
  _atom_site_label
  _atom_site_type_symbol
  _atom_site_fract_x
  _atom_site_fract_y
  _atom_site_fract_z
C1 C 0.32806 0.00660 0.24767
 C2 C 0.17230 0.00147 0.74466
 C3 C 0.67926 0.50776 0.24919
 C4 C 0.82562 0.49836 0.74978
 C5 C 0.25500 0.39640 0.99317
 C6 C 0.74896 0.11101 1.00163
 C7 C 0.25415 0.61595 0.49321
 C8 C 0.74975 0.91739 0.50762
 C9 C -0.00009 0.25210 0.39824
 C10 C -0.00042 0.75688 0.10172
 C11 C 0.49915 0.25627 0.59099
 C12 C 0.50270 0.74921 0.89514
 C13 C -0.24337 0.60141 1.00939
 C14 C -0.25000 0.39994 0.50796
 C15 C 0.25340 -0.10611 0.00205
 C16 C 0.25024 1.10384 0.49319
 C17 C 0.17138 0.50637 0.24755
 C18 C -0.16379 0.99824 0.26105
 C19 C 0.32455 0.49936 -0.25119
 C20 C 0.67323 -0.00534 -0.25791
 C21 C -0.00025 0.24986 0.89052
 C22 C 0.50125 0.25138 0.09605
 C23 C 0.00015 0.74720 0.61397
 C24 C 0.50202 0.74421 0.38632
 B25 B -0.03608 0.02944 1.06587
 B26 B -0.05390 0.02726 0.98705
 B27 B -0.00685 0.07181 1.01355
 B28 B 0.03255 0.04309 1.07289
 B29 B 0.00867 -0.01954 1.08061
 B30 B -0.04509 -0.02876 1.02755
 B31 B 0.05001 -0.00781 0.95679
 B32 B 0.06687 -0.00775 1.03632
 B33 B 0.01888 -0.05141 1.00909
 B34 B -0.01928 -0.02281 0.94996
 B35 B 0.00358 0.03964 0.94261
 B36 B 0.05655 0.04960 0.99718
 B37 B 0.45662 0.52428 0.55259
 B38 B 0.44467 0.52553 0.47217
 B39 B 0.49099 0.56813 0.50460
 B40 B 0.52545 0.53758 0.56531
 B41 B 0.50058 0.47506 0.56896
 B42 B 0.45052 0.46724 0.51112
 B43 B 0.54717 0.48804 0.44810
 B44 B 0.56067 0.48766 0.52888
 B45 B 0.51487 0.44505 0.49765
 B46 B 0.47904 0.47532 0.43704
 B47 B 0.50430 0.53794 0.43271
 B48 B 0.55557 0.54502 0.48962
 B49 B 0.53964 0.97649 0.54565
 B50 B 0.55944 0.98730 0.46857
 B51 B 0.51327 0.93889 0.48382
 B52 B 0.47090 0.96018 0.54703
 B53 B 0.49223 1.02252 0.56802
 B54 B 0.54637 1.03818 0.51987
 B55 B 0.45824 1.02374 0.44137
 B56 B 0.43747 1.01454 0.51912
 B57 B 0.48446 1.06137 0.50182
 B58 B 0.52588 1.03898 0.44099
 B59 B 0.50444 0.97859 0.42013
 B60 B 0.44886 0.96212 0.46874
 B61 B 0.05508 0.48457 1.04086
 B62 B 0.06597 0.48943 0.96075
 B63 B 0.02311 0.44185 0.98757
 B64 B -0.01187 0.46658 1.05515
 B65 B 0.00932 0.53080 1.06525
 B66 B 0.05731 0.54383 1.00594
 B67 B -0.04129 0.52192 0.94651
 B68 B -0.05075 0.51779 1.02792
 B69 B -0.00792 0.56461 0.99799
 B70 B 0.02648 0.53916 0.93177
 B71 B 0.00492 0.47652 0.92204
 B72 B -0.04309 0.46231 0.98139
 B73 B 0.03704 0.52614 0.43988
 B74 B 0.06427 0.52059 0.51434
 B75 B 0.01578 0.56662 0.50101
 B76 B -0.03103 0.54196 0.44700
 B77 B -0.01070 0.47901 0.42808
 B78 B 0.04915 0.46629 0.47020
 B79 B -0.03456 0.48455 0.55780
 B80 B -0.06122 0.49043 0.48341
 B81 B -0.01258 0.44407 0.49690
 B82 B 0.03405 0.46927 0.55124
 B83 B 0.01353 0.53158 0.57004
 B84 B -0.04578 0.54479 0.52804
 B85 B 0.54488 0.01912 -0.05715
 B86 B 0.55994 0.01767 0.02245
 B87 B 0.51322 0.06120 -0.00441
 B88 B 0.47650 0.03244 -0.06633
 B89 B 0.50155 -0.03024 -0.07506
 B90 B 0.55346 -0.03859 -0.01965
 B91 B 0.45553 -0.01847 0.04688
 B92 B 0.44251 -0.01852 -0.03345
 B93 B 0.48920 -0.06154 -0.00455
 B94 B 0.52480 -0.03237 0.05713
 B95 B 0.50043 0.03003 0.06529
 B96 B 0.44891 0.03898 0.00907
 B97 B 0.46270 0.48427 -0.05439
 B98 B 0.44783 0.48364 0.02619
 B99 B 0.49362 0.44014 -0.00356
 B100 B 0.53135 0.46890 -0.06433
 B101 B 0.50902 0.53193 -0.07030
 B102 B 0.45727 0.54123 -0.01323
 B103 B 0.55098 0.51984 0.05104
 B104 B 0.56707 0.51822 -0.02830
 B105 B 0.52074 0.56297 0.00068
 B106 B 0.48286 0.53384 0.06181
 B107 B 0.50603 0.47094 0.06813
 B108 B 0.55811 0.46196 0.01231
 B109 B -0.03277 0.97125 0.44942
 B110 B -0.05298 0.98767 0.52449
 B111 B -0.00828 0.93752 0.51426
 B112 B 0.03517 0.95307 0.45067
 B113 B 0.01631 1.01451 0.42377
 B114 B -0.03868 1.03509 0.46972
 B115 B 0.04898 1.02350 0.55021
 B116 B 0.06996 1.00794 0.47457
 B117 B 0.02448 1.05770 0.48658
 B118 B -0.01863 1.04082 0.54835
 B119 B 0.00065 0.98110 0.57485
 B120 B 0.05591 0.95976 0.52906
 B121 B 0.77353 0.21387 0.21223
 B122 B 0.75154 0.18625 0.28241
 B123 B 0.80392 0.23053 0.28391
 B124 B 0.79117 0.27649 0.22754
 B125 B 0.72933 0.26163 0.19146
 B126 B 0.70496 0.20477 0.22601
 B127 B 0.70858 0.27984 0.32054
 B128 B 0.73227 0.30728 0.25047
 B129 B 0.67853 0.26316 0.24841
 B130 B 0.69114 0.21648 0.30603
 B131 B 0.75334 0.23163 0.34196
 B132 B 0.77752 0.28761 0.30786
 B133 B 0.73053 0.78638 0.69975
 B134 B 0.74985 0.80983 0.77254
 B135 B 0.69350 0.76998 0.76776
 B136 B 0.70749 0.72433 0.70896
 B137 B 0.77166 0.73548 0.67821
 B138 B 0.79866 0.78834 0.71781
 B139 B 0.78211 0.71365 0.80777
 B140 B 0.76210 0.68953 0.73516
 B141 B 0.81756 0.72830 0.73915
 B142 B 0.80561 0.77512 0.79764
 B143 B 0.73998 0.76417 0.82908
 B144 B 0.71412 0.71060 0.78994
 B145 B 0.27800 0.27729 0.79626
 B146 B 0.24948 0.30971 0.73427
 B147 B 0.30487 0.26993 0.71907
 B148 B 0.29906 0.21828 0.76975
 B149 B 0.23791 0.22536 0.81372
 B150 B 0.20771 0.28265 0.79105
 B151 B 0.21127 0.21851 0.68467
 B152 B 0.24058 0.18758 0.74748
 B153 B 0.18436 0.22635 0.76029
 B154 B 0.19056 0.27875 0.71090
 B155 B 0.25050 0.27109 0.66713
 B156 B 0.28109 0.21380 0.68967
 B157 B 0.21924 0.72605 0.30123
 B158 B 0.23633 0.69733 0.23003
 B159 B 0.18720 0.74428 0.23219
 B160 B 0.20693 0.78929 0.28905
 B161 B 0.26872 0.77029 0.32091
 B162 B 0.28596 0.71340 0.28385
 B163 B 0.28478 0.78622 0.19119
 B164 B 0.26739 0.81507 0.26255
 B165 B 0.31643 0.76775 0.25963
 B166 B 0.29587 0.72299 0.20286
 B167 B 0.23472 0.74230 0.17099
 B168 B 0.21728 0.79980 0.20805
 B169 B 0.27866 0.72046 0.69869
 B170 B 0.25706 0.68913 0.76524
 B171 B 0.31027 0.73277 0.77046
 B172 B 0.29516 0.78213 0.71875
 B173 B 0.23380 0.76882 0.68246
 B174 B 0.21010 0.71099 0.71196
 B175 B 0.21488 0.77868 0.81356
 B176 B 0.23662 0.80985 0.74607
 B177 B 0.18451 0.76671 0.74101
 B178 B 0.19755 0.71718 0.79321
 B179 B 0.26037 0.72978 0.82956
 B180 B 0.28341 0.78811 0.80043
 B181 B 0.21753 0.29046 0.19901
 B182 B 0.24443 0.31898 0.26573
 B183 B 0.18918 0.27883 0.27374
 B184 B 0.19630 0.22926 0.21935
 B185 B 0.25664 0.23858 0.17790
 B186 B 0.28723 0.29454 0.20660
 B187 B 0.28290 0.22668 0.30613
 B188 B 0.25466 0.19688 0.24043
 B189 B 0.31056 0.23668 0.23040
 B190 B 0.30386 0.28702 0.28580
 B191 B 0.24232 0.27793 0.32781
 B192 B 0.21318 0.22174 0.29908
 B193 B 0.77943 0.79343 0.31075
 B194 B 0.75935 0.81574 0.23811
 B195 B 0.81578 0.77548 0.24223
 B196 B 0.80233 0.73108 0.30153
 B197 B 0.73785 0.74303 0.33296
 B198 B 0.71090 0.79599 0.29357
 B199 B 0.72739 0.71866 0.20399
 B200 B 0.74803 0.69557 0.27630
 B201 B 0.69251 0.73490 0.27211
 B202 B 0.70408 0.78056 0.21358
 B203 B 0.76901 0.76847 0.18181
 B204 B 0.79522 0.71562 0.22096
 B205 B 0.71388 0.21412 0.79606
 B206 B 0.73979 0.18696 0.72712
 B207 B 0.68541 0.22924 0.72286
 B208 B 0.69496 0.27658 0.77997
 B209 B 0.75506 0.26381 0.81923
 B210 B 0.78322 0.20814 0.78650
 B211 B 0.78121 0.28046 0.69163
 B212 B 0.75411 0.30778 0.75950
 B213 B 0.80812 0.26591 0.76543
 B214 B 0.79979 0.21840 0.70739
 B215 B 0.73859 0.23110 0.66739
 B216 B 0.71126 0.28700 0.70016
 N217 N 0.43939 1.07139 0.33423
 N218 N 0.41088 1.06157 0.28074
 C219 C 0.37550 1.02137 0.29182
 C220 C 0.38386 1.00350 0.35361
 C221 C 0.42292 1.03756 0.38048
 H222 H 0.36396 0.97008 0.37607
 H223 H 0.47107 1.09941 0.33780
 H224 H 0.41491 1.08295 0.23788
 N225 N -0.14493 0.50421 0.92063
 N226 N -0.17796 0.49677 0.87091
 C227 C -0.15107 0.51085 0.81671
 C228 C -0.09859 0.53141 0.83393
 C229 C -0.09598 0.52623 0.90144
 H230 H -0.06478 0.54216 0.80138
 H231 H -0.15343 0.48648 0.96490
 H232 H -0.21617 0.47724 0.87371
 N233 N 0.14336 0.02676 0.91260
 N234 N 0.17499 0.02770 0.86104
 C235 C 0.15043 -0.00015 0.81390
 C236 C 0.10167 -0.02353 0.83921
 C237 C 0.09952 -0.00637 0.90397
 H238 H 0.07071 -0.04621 0.81317
 H239 H 0.15135 0.05292 0.95078
 H240 H 0.21178 0.04961 0.85911
 N241 N 0.56615 0.44567 0.33689
 N242 N 0.59459 0.45681 0.28372
 C243 C 0.63396 0.49285 0.29777
 C244 C 0.62779 0.50728 0.36277
 C245 C 0.58502 0.47540 0.38669
 H246 H 0.64996 0.53779 0.38874
 H247 H 0.53165 0.42067 0.33720
 H248 H 0.58610 0.44024 0.23823
 N249 N 0.59028 0.57998 0.13870
 N250 N 0.62190 0.57603 0.19034
 C251 C 0.64909 0.52923 0.18953
 C252 C 0.63274 0.50228 0.13375
 C253 C 0.59457 0.53550 0.10400
 H254 H 0.64197 0.46215 0.12011
 H255 H 0.56240 0.61084 0.13105
 H256 H 0.61976 0.60377 0.22755
 N257 N 0.06068 1.06389 0.66129
 N258 N 0.08376 1.04614 0.71452
 C259 C 0.12538 1.01237 0.69850
 C260 C 0.12938 1.01018 0.63141
 C261 C 0.08553 1.04114 0.60910
 H262 H 0.15765 0.98571 0.60305
 H263 H 0.02454 1.08690 0.66177
 H264 H 0.07181 1.05875 0.76116
 N265 N -0.05102 0.44349 0.66964
 N266 N -0.08419 0.45153 0.72037
 C267 C -0.12650 0.48383 0.70364
 C268 C -0.12010 0.49593 0.63862
 C269 C -0.07120 0.47004 0.61888
 H270 H -0.14542 0.52264 0.61092
 H271 H -0.01333 0.42284 0.67132
 H272 H -0.07643 0.43638 0.76645
 N273 N 0.35131 -0.00543 0.07710
 N274 N 0.31924 0.00182 0.12818
 C275 C 0.34997 -0.00595 0.18090
 C276 C 0.40320 -0.02369 0.16220
 C277 C 0.40261 -0.02305 0.09472
 H278 H 0.43889 -0.03009 0.19310
 H279 H 0.33977 0.01058 0.03309
 H280 H 0.27864 0.01681 0.12632
 N281 N 0.34553 0.49685 0.06863
 N282 N 0.29618 0.47621 0.05475
 C283 C 0.30246 0.42851 0.02693
 C284 C 0.35996 0.41892 0.02380
 C285 C 0.38623 0.46404 0.04783
 H286 H 0.37981 0.38689 -0.00222
 H287 H 0.35103 0.53589 0.08326
 H288 H 0.25963 0.49759 0.05529
 N289 N -0.14863 1.02449 0.53233
 N290 N -0.19640 1.00601 0.51257
 C291 C -0.20099 0.95410 0.52653
 C292 C -0.14844 0.93865 0.54522
 C293 C -0.11573 0.98379 0.54567
 H294 H -0.13445 0.89901 0.54390
 H295 H -0.13601 1.06290 0.52255
 H296 H -0.21823 1.02773 0.47849
 N297 N -0.15077 0.01842 0.92651
 N298 N -0.20157 0.03944 0.93154
 C299 C -0.20058 0.07905 0.97572
 C300 C -0.14628 0.08228 0.99911
 C301 C -0.11583 0.04403 0.96722
 H302 H -0.13143 0.10626 1.03870
 H303 H -0.14096 -0.01439 0.89767
 H304 H -0.23667 0.02545 0.90701
 N305 N 0.34675 0.51897 0.41387
 N306 N 0.29695 0.54149 0.42210
 C307 C 0.30229 0.58445 0.46063
 C308 C 0.35873 0.58924 0.47533
 C309 C 0.38560 0.54688 0.44671
 H310 H 0.37712 0.61506 0.51110
 H311 H 0.35290 0.48247 0.39127
 H312 H 0.25946 0.52546 0.40554
 N313 N 0.16245 0.51911 0.57127
 N314 N 0.21088 0.54408 0.56549
 C315 C 0.20747 0.57946 0.51753
 C316 C 0.15393 0.57628 0.49223
 C317 C 0.12685 0.53796 0.52676
 H318 H 0.13634 0.59901 0.45331
 H319 H 0.15406 0.49004 0.60545
 H320 H 0.24498 0.53836 0.59523
 N321 N 0.66063 0.00825 0.07243
 N322 N 0.70983 0.03169 0.06460
 C323 C 0.70289 0.07491 0.02805
 C324 C 0.64659 0.07887 0.01400
 C325 C 0.62098 0.03641 0.04206
 H326 H 0.62709 0.10608 -0.01853
 H327 H 0.65505 -0.02789 0.09508
 H328 H 0.74769 0.01703 0.08168
 N329 N 0.65461 1.02351 0.47157
 N330 N 0.69529 1.00229 0.50349
 C331 C 0.70311 0.95258 0.48274
 C332 C 0.65644 0.93896 0.44738
 C333 C 0.62328 0.98426 0.44771
 H334 H 0.64605 0.89936 0.43374
 H335 H 0.64298 1.06262 0.47953
 H336 H 0.71263 1.02104 0.54401
 N337 N 0.17123 0.50283 0.92133
 N338 N 0.21962 0.48005 0.93575
 C339 C 0.21078 0.43268 0.96227
 C340 C 0.15375 0.42645 0.96537
 C341 C 0.12896 0.47125 0.93985
 H342 H 0.13282 0.39794 0.99458
 H343 H 0.16743 0.54187 0.90705
 H344 H 0.25763 0.49904 0.93503
 N345 N 0.01550 0.35104 0.52841
 N346 N 0.02340 0.30497 0.50031
 C347 C -0.00790 0.29998 0.44594
 C348 C -0.03257 0.34955 0.43661
 C349 C -0.01714 0.38093 0.49100
 H350 H -0.05309 0.36271 0.39299
 H351 H 0.03799 0.36347 0.56909
 H352 H 0.05413 0.27905 0.51611
 N353 N 0.52310 -0.15413 0.02591
 N354 N 0.53258 -0.19951 -0.00391
 C355 C 0.50396 -0.20166 -0.06018
 C356 C 0.47530 -0.15404 -0.06601
 C357 C 0.48894 -0.12440 -0.01041
 H358 H 0.45154 -0.14102 -0.10738
 H359 H 0.54369 -0.14228 0.06820
 H360 H 0.55938 -0.22828 0.01388
 N361 N 0.00598 -0.14804 0.96682
 N362 N -0.00638 -0.19475 0.99100
 C363 C -0.00106 -0.19398 1.05672
 C364 C 0.01317 -0.14265 1.07373
 C365 C 0.01930 -0.11463 1.01548
 H366 H 0.01492 -0.12703 1.12264
 H367 H 0.00220 -0.13854 0.91771
 H368 H -0.01961 -0.22622 0.96212
 N369 N 0.50736 0.34945 0.45521
 N370 N 0.50139 0.30197 0.47941
 C371 C 0.51591 0.30138 0.54334
 C372 C 0.52858 0.35311 0.55990
 C373 C 0.52337 0.38263 0.50251
 H374 H 0.53027 0.36779 0.60918
 H375 H 0.49387 0.35976 0.40890
 H376 H 0.48105 0.27226 0.45354
 N377 N 0.52127 1.15201 0.47045
 N378 N 0.53125 1.19787 0.49743
 C379 C 0.49763 1.20527 0.54975
 C380 C 0.46849 1.15833 0.55948
 C381 C 0.48466 1.12476 0.50743
 H382 H 0.44372 1.14959 0.60185
 H383 H 0.54401 1.13852 0.42999
 H384 H 0.56281 1.22277 0.48069
 N385 N 0.03114 0.65748 0.97621
 N386 N 0.03903 0.70237 1.00746
 C387 C 0.00363 0.70631 1.05869
 C388 C -0.02671 0.65886 1.06105
 C389 C -0.00767 0.62826 1.00746
 H390 H -0.05539 0.64680 1.09905
 H391 H 0.05595 0.64542 0.93668
 H392 H 0.06911 0.72993 0.99380
 N393 N 0.48527 0.65635 0.02905
 N394 N 0.47362 0.69986 -0.00263
 C395 C 0.50202 0.70076 -0.05973
 C396 C 0.53304 0.65409 -0.06387
 C397 C 0.52074 0.62610 -0.00656
 H398 H 0.55747 0.64038 -0.10528
 H399 H 0.46507 0.64564 0.07220
 H400 H 0.44585 0.72851 0.01478
 N401 N 0.01128 1.15265 0.52659
 N402 N -0.00115 1.19909 0.50358
 C403 C 0.01379 1.20248 0.44005
 C404 C 0.03228 1.15166 0.42133
 C405 C 0.02996 1.12089 0.47834
 H406 H 0.04106 1.13771 0.37239
 H407 H 0.00098 1.14186 0.57405
 H408 H -0.02434 1.22619 0.53110
 N409 N 0.82874 0.70299 0.91819
 N410 N 0.81621 0.67783 0.97216
 C411 C 0.78183 0.63745 0.95798
 C412 C 0.77211 0.63748 0.89169
 C413 C 0.80149 0.68050 0.86794
 H414 H 0.74155 0.61402 0.86653
 H415 H 0.85082 0.73833 0.91742
 H416 H 0.82938 0.68950 1.01847
 N417 N 0.33095 0.14699 0.35153
 N418 N 0.31175 0.11188 0.39275
 C419 C 0.27801 0.13460 0.43733
 C420 C 0.27713 0.18796 0.42303
 C421 C 0.30656 0.19305 0.36427
 H422 H 0.25381 0.21895 0.44684
 H423 H 0.35357 0.13823 0.30945
 H424 H 0.31629 0.07206 0.38598
 N425 N 0.67196 0.36684 0.36273
 N426 N 0.69714 0.39972 0.40262
 C427 C 0.72248 0.37291 0.44970
 C428 C 0.71272 0.31976 0.43741
 C429 C 0.68575 0.31740 0.37736
 H430 H 0.72849 0.28657 0.46382
 H431 H 0.65183 0.37846 0.32102
 H432 H 0.70098 0.43963 0.39425
 N433 N 0.16742 0.85874 0.86440
 N434 N 0.18613 0.89103 0.90955
 C435 C 0.21911 0.86524 0.95067
 C436 C 0.21875 0.81278 0.93200
 C437 C 0.19027 0.81124 0.87316
 H438 H 0.24260 0.78092 0.95163
 H439 H 0.14581 0.87131 0.82371
 H440 H 0.18115 0.93116 0.90860
 N441 N 0.33162 0.78940 0.07983
 N442 N 0.31570 0.81468 0.02741
 C443 C 0.28476 0.85654 0.04642
 C444 C 0.28882 0.86170 0.11300
 C445 C 0.31263 0.81555 0.13304
 H446 H 0.26788 0.89052 0.14351
 H447 H 0.34924 0.75187 0.07856
 H448 H 0.32578 0.80283 -0.02008
 N449 N 0.82581 0.28952 0.57795
 N450 N 0.81146 0.31855 0.52774
 C451 C 0.78266 0.36083 0.54969
 C452 C 0.78603 0.36132 0.61621
 C453 C 0.80796 0.31312 0.63354
 H454 H 0.76648 0.38987 0.64661
 H455 H 0.84115 0.25125 0.57332
 H456 H 0.81879 0.30775 0.47930
 N457 N 0.16701 0.20903 0.57008
 N458 N 0.18116 0.18030 0.51826
 C459 C 0.21304 0.13950 0.53716
 C460 C 0.21078 0.13881 0.60366
 C461 C 0.18687 0.18604 0.62398
 H462 H 0.23183 0.11055 0.63176
 H463 H 0.14946 0.24649 0.56757
 H464 H 0.17105 0.19021 0.47070
 N465 N 0.67951 0.70399 0.09494
 N466 N 0.69199 0.67627 0.04223
 C467 C 0.72628 0.63648 0.05845
 C468 C 0.73548 0.63938 0.12435
 C469 C 0.70663 0.68352 0.14595
 H470 H 0.76727 0.61824 0.14963
 H471 H 0.65897 0.74016 0.09380
 H472 H 0.68160 0.68784 -0.00477
 N473 N 0.27713 0.60670 0.23883
 N474 N 0.25935 0.56151 0.26024
 C475 C 0.20407 0.55781 0.24969
 C476 C 0.18513 0.60632 0.22772
 C477 C 0.23278 0.63643 0.22251
 H478 H 0.14273 0.61851 0.21826
 H479 H 0.31864 0.61867 0.24377
 H480 H 0.28524 0.53613 0.28560
 N481 N 0.78069 0.09665 0.73992
 N482 N 0.76214 0.04926 0.75077
 C483 C 0.71017 0.04311 0.72591
 C484 C 0.69394 0.09271 0.70325
 C485 C 0.73925 0.12561 0.71557
 H486 H 0.65327 0.10528 0.68746
 H487 H 0.81870 0.11021 0.75823
 H488 H 0.78320 0.02472 0.78262
 N489 N 0.74206 0.09433 0.34202
 N490 N 0.76470 0.04664 0.33712
 C491 C 0.80307 0.04618 0.28841
 C492 C 0.80368 0.09630 0.26215
 C493 C 0.76501 0.12568 0.29636
 H494 H 0.82863 0.10975 0.22191
 H495 H 0.71093 0.10488 0.37567
 H496 H 0.75291 0.01468 0.36547
 N497 N 0.21568 0.59798 0.75209
 N498 N 0.23325 0.55038 0.73764
 C499 C 0.28900 0.54872 0.74596
 C500 C 0.30803 0.59891 0.76064
 C501 C 0.26017 0.62844 0.76614
 H502 H 0.35074 0.61166 0.76748
 H503 H 0.17414 0.60994 0.74745
 H504 H 0.20705 0.52080 0.72021
 N505 N 0.21705 0.40039 0.77497
 N506 N 0.23883 0.44718 0.78513
 C507 C 0.28783 0.45051 0.75280
 C508 C 0.29859 0.40249 0.72359
 C509 C 0.25255 0.37155 0.73773
 H510 H 0.33781 0.39166 0.70154
 H511 H 0.17997 0.38776 0.79698
 H512 H 0.22009 0.47603 0.81403
 N513 N 0.72016 0.91043 0.22990
 N514 N 0.74043 0.95854 0.23570
 C515 C 0.79684 0.95657 0.23201
 C516 C 0.81164 0.90450 0.21853
 C517 C 0.76276 0.87632 0.22162
 H518 H 0.85243 0.88706 0.21625
 H519 H 0.67823 0.90087 0.23794
 H520 H 0.71573 0.99110 0.24750
 N521 N 0.78702 0.90017 0.75158
 N522 N 0.76389 0.94394 0.73289
 C523 C 0.71272 0.94943 0.76060
 C524 C 0.70100 0.90246 0.79272
 C525 C 0.74851 0.87135 0.78296
 H526 H 0.66150 0.88988 0.81310
 H527 H 0.82596 0.88765 0.73394
 H528 H 0.78193 0.96705 0.69664
 N529 N 0.28219 0.40953 0.24937
 N530 N 0.26138 0.45582 0.23721
 C531 C 0.20948 0.46031 0.26354
 C532 C 0.19444 0.41111 0.28652
 C533 C 0.24171 0.37989 0.27520
 H534 H 0.15299 0.39848 0.30055
 H535 H 0.32067 0.39667 0.23066
 H536 H 0.28057 0.48097 0.20402
 N537 N 0.07879 0.21463 0.73988
 N538 N 0.03149 0.22432 0.77163
 C539 C 0.04059 0.22644 0.83673
 C540 C 0.09826 0.21777 0.84472
 C541 C 0.12133 0.21207 0.78199
 H542 H 0.12130 0.22394 0.88925
 H543 H 0.08263 0.21665 0.68926
 H544 H -0.00386 0.23564 0.74655
 N545 N 0.59173 0.72232 0.24243
 N546 N 0.54323 0.72950 0.27133
 C547 C 0.54843 0.72597 0.33717
 C548 C 0.60506 0.71887 0.34944
 C549 C 0.63097 0.71806 0.28790
 H550 H 0.62520 0.72276 0.39619
 H551 H 0.59828 0.72825 0.19272
 H552 H 0.50947 0.74386 0.24522
 N553 N 0.58028 0.30918 0.23195
 N554 N 0.53672 0.30542 0.19276
 C555 C 0.54257 0.26358 0.15196
 C556 C 0.59368 0.24043 0.16623
 C557 C 0.61676 0.27053 0.21762
 H558 H 0.61283 0.20765 0.14057
 H559 H 0.58493 0.33868 0.26691
 H560 H 0.50416 0.33272 0.19248
 N561 N 0.08084 0.79536 0.75209
 N562 N 0.03439 0.78943 0.71878
 C563 C 0.04570 0.76504 0.66104
 C564 C 0.10251 0.75728 0.65686
 C565 C 0.12346 0.77672 0.71592
 H566 H 0.12506 0.73693 0.61824
 H567 H 0.08208 0.80857 0.80027
 H568 H -0.00495 0.79887 0.73783
 N569 N 0.91963 0.69210 0.74856
 N570 N 0.96648 0.69555 0.71399
 C571 C 0.95590 0.71878 0.65615
 C572 C 0.89887 0.72582 0.65256
 C573 C 0.87763 0.71144 0.71319
 H574 H 0.87696 0.74651 0.61474
 H575 H 0.91742 0.68009 0.79698
 H576 H 1.00578 0.68619 0.73233
 N577 N 0.36306 0.19582 0.13141
 N578 N 0.40654 0.20579 0.09378
 C579 C 0.44229 0.23823 0.12467
 C580 C 0.41802 0.24941 0.18650
 C581 C 0.36701 0.22174 0.18906
 H582 H 0.43302 0.27640 0.22323
 H583 H 0.32839 0.17536 0.11404
 H584 H 0.41021 0.19096 0.04639
 N585 N 0.40475 0.71396 0.26128
 N586 N 0.43979 0.70029 0.30644
 C587 C 0.44763 0.74098 0.34771
 C588 C 0.40883 0.78018 0.33206
 C589 C 0.38076 0.76056 0.27719
 H590 H 0.40078 0.81657 0.35815
 H591 H 0.39476 0.68853 0.22294
 H592 H 0.46311 0.66563 0.30339
 N593 N 0.86669 0.31413 0.85241
 N594 N 0.91237 0.30781 0.88657
 C595 C 0.94236 0.26691 0.86254
 C596 C 0.91092 0.24532 0.81133
 C597 C 0.86491 0.27858 0.80342
 H598 H 0.91758 0.20807 0.78666
 H599 H 0.83450 0.33914 0.86773
 H600 H 0.91986 0.33005 0.92825
 N601 N 0.57292 0.92166 0.64282
 N602 N 0.60508 0.92828 0.69416
 C603 C 0.63651 0.97216 0.68742
 C604 C 0.62222 0.99453 0.62874
 C605 C 0.58180 0.96125 0.60156
 H606 H 0.63448 1.03280 0.61178
 H607 H 0.54236 0.89259 0.63877
 H608 H 0.60206 0.90462 0.73500
 N609 N 0.15435 0.50742 1.07533
 N610 N 0.18217 0.51586 1.12864
 C611 C 0.15382 0.49570 1.17851
 C612 C 0.10584 0.47077 1.15496
 C613 C 0.10719 0.47995 1.08822
 H614 H 0.07139 0.45526 1.18328
 H615 H 0.16425 0.52841 1.03382
 H616 H 0.21723 0.54011 1.13085
 N617 N -0.05552 0.07011 1.17693
 N618 N -0.08372 0.05595 1.22907
 C619 C -0.12294 0.02052 1.21184
 C620 C -0.11919 0.01156 1.14551
 C621 C -0.07480 0.04293 1.12529
 H622 H -0.14162 -0.01752 1.11726
 H623 H -0.02051 0.09456 1.17826
 H624 H -0.07579 0.07007 1.27604
 N625 N 0.35542 0.50512 0.58105
 N626 N 0.32765 0.48820 0.63132
 C627 C 0.35561 0.50003 0.68549
 C628 C 0.40499 0.52586 0.66834
 C629 C 0.40417 0.52714 0.60035
 H630 H 0.43793 0.53895 0.70036
 H631 H 0.34296 0.49429 0.53454
 H632 H 0.28939 0.46877 0.62768
 N633 N 0.36518 0.51402 -0.08609
 N634 N 0.33515 0.52405 -0.13673
 C635 C 0.35834 0.50173 -0.18954
 C636 C 0.40813 0.47667 -0.17104
 C637 C 0.41104 0.48563 -0.10341
 H638 H 0.43797 0.45623 -0.20204
 H639 H 0.35465 0.53080 -0.04133
 H640 H 0.29872 0.54647 -0.13384
 N641 N -0.05563 0.92421 0.34357
 N642 N -0.08588 0.93619 0.29263
 C643 C -0.12675 0.97040 0.31042
 C644 C -0.12083 0.98115 0.37593
 C645 C -0.07423 0.95211 0.39519
 H646 H -0.14066 1.01312 0.40204
 H647 H -0.01807 0.90336 0.34030
 H648 H -0.07369 0.92613 0.24518
 N649 N 0.04636 0.55809 0.32318
 N650 N 0.07686 0.54515 0.27177
 C651 C 0.12116 0.51628 0.29071
 C652 C 0.11950 0.51260 0.35756
 C653 C 0.07070 0.53860 0.37644
 H654 H 0.14850 0.49165 0.38799
 H655 H 0.00787 0.57735 0.32091
 H656 H 0.06754 0.55690 0.22454
 N657 N 0.56670 0.06371 -0.16439
 N658 N 0.59478 0.05189 -0.21782
 C659 C 0.63359 0.01507 -0.20504
 C660 C 0.62912 0.00251 -0.13948
 C661 C 0.58503 0.03364 -0.11561
 H662 H 0.65087 -0.02828 -0.11420
 H663 H 0.53142 0.08781 -0.16392
 H664 H 0.58429 0.06641 -0.26336
 N665 N 0.66996 0.49222 -0.04744
 N666 N 0.71862 0.51259 -0.03089
 C667 C 0.71272 0.56464 -0.02108
 C668 C 0.65689 0.57710 -0.03315
 C669 C 0.63050 0.53014 -0.04697
 H670 H 0.63579 0.61356 -0.02319
 H671 H 0.66292 0.45185 -0.05120
 H672 H 0.75350 0.48980 -0.02102
 N673 N 0.17152 0.98252 0.46836
 N674 N 0.21843 1.00744 0.47991
 C675 C 0.21199 1.05949 0.46793
 C676 C 0.15717 1.06659 0.44819
 C677 C 0.13217 1.01761 0.45350
 H678 H 0.13625 1.10374 0.44305
 H679 H 0.16487 0.94342 0.48115
 H680 H 0.24977 0.98834 0.50498
 N681 N 0.12809 -0.07529 1.09707
 N682 N 0.17407 -0.10257 1.08536
 C683 C 0.20831 -0.07652 1.04414
 C684 C 0.18056 -0.02998 1.03007
 C685 C 0.12710 -0.03221 1.05990
 H686 H 0.19826 -0.00069 1.00008
 H687 H 0.09578 -0.08873 1.12659
 H688 H 0.17874 -0.14127 1.10039
 N689 N 0.62356 0.43098 0.60310
 N690 N 0.67103 0.40500 0.59477
 C691 C 0.70025 0.42597 0.54473
 C692 C 0.66678 0.46541 0.51944
 C693 C 0.61832 0.46631 0.55544
 H694 H 0.67345 0.48689 0.47561
 H695 H 0.59375 0.42197 0.63851
 H696 H 0.67931 0.37017 0.61877
 N697 N -0.16413 0.51639 0.48029
 N698 N -0.21285 0.49390 0.49063
 C699 C -0.20717 0.44110 0.48526
 C700 C -0.15113 0.43076 0.47100
 C701 C -0.12501 0.47918 0.47095
 H702 H -0.13105 0.39295 0.47044
 H703 H -0.15719 0.55656 0.48698
 H704 H -0.24668 0.51574 0.50765
 N705 N 0.34255 -0.01058 -0.08466
 N706 N 0.29290 -0.03106 -0.07031
 C707 C 0.29956 -0.07374 -0.03291
 C708 C 0.35709 -0.08200 -0.02828
 C709 C 0.38305 -0.03996 -0.05782
 H710 H 0.37787 -0.10939 0.00297
 H711 H 0.34797 0.02597 -0.10634
 H712 H 0.25543 -0.01384 -0.08275
 N713 N 0.37242 1.07115 0.59210
 N714 N 0.32706 1.09938 0.58132
 C715 C 0.30011 1.07921 0.52935
 C716 C 0.33343 1.03870 0.50478
 C717 C 0.37887 1.03523 0.54409
 H718 H 0.32739 1.01626 0.46101
 H719 H 0.40078 1.07911 0.62914
 H720 H 0.31860 1.13455 0.60565
 N721 N -0.14862 0.50766 1.08784
 N722 N -0.19904 0.52868 1.08002
 C723 C -0.19461 0.57150 1.04199
 C724 C -0.13801 0.57932 1.03013
 C725 C -0.11013 0.53722 1.05672
 H726 H -0.11963 0.60642 0.99625
 H727 H -0.14164 0.47110 1.10877
 H728 H -0.23619 0.51155 1.09632
 N729 N 0.00948 0.66487 0.46686
 N730 N 0.00431 0.71128 0.49613
 C731 C 0.01819 0.70757 0.55973
 C732 C 0.03339 0.65524 0.56981
 C733 C 0.02603 0.62891 0.51015
 H734 H 0.04004 0.63727 0.61660
 H735 H -0.00391 0.65702 0.41949
 H736 H -0.01443 0.74317 0.47367
 N737 N 0.50765 0.15732 -0.04156
 N738 N 0.50381 0.20475 -0.01571
 C739 C 0.51684 0.20439 0.04880
 C740 C 0.52765 0.15187 0.06365
 C741 C 0.52134 0.12330 0.00473
 H742 H 0.53259 0.13589 0.11183
 H743 H 0.49508 0.14803 -0.08880
 H744 H 0.48609 0.23558 -0.04145
 N745 N -0.04385 0.17034 1.03157
 N746 N -0.04273 0.21496 0.99841
 C747 C -0.00965 0.20923 0.94490
 C748 C 0.01040 0.15827 0.94502
 C749 C -0.01243 0.13410 0.99990
 H750 H 0.03629 0.13985 0.90784
 H751 H -0.06674 0.16481 1.07447
 H752 H -0.06603 0.24816 1.01136
 N753 N 0.52299 0.66424 0.53152
 N754 N 0.52883 0.70851 0.49857
 C755 C 0.49799 0.70595 0.44399
 C756 C 0.47115 0.65728 0.44385
 C757 C 0.48835 0.63125 0.49940
 H758 H 0.44765 0.63972 0.40481
 H759 H 0.54697 0.65484 0.57199
 H760 H 0.55683 0.73828 0.51112
 N761 N 0.55392 0.87795 0.39454
 N762 N 0.54805 0.83146 0.36794
 C763 C 0.51648 0.80109 0.40668
 C764 C 0.50060 0.83195 0.46155
 C765 C 0.52658 0.88113 0.45252
 H766 H 0.47169 0.82127 0.49997
 H767 H 0.57280 0.90838 0.36882
 H768 H 0.56381 0.82250 0.32160
 N769 N 0.06239 0.37791 0.89863
 N770 N 0.05783 0.33022 0.87523
 C771 C 0.02817 0.30050 0.91659
 C772 C 0.01503 0.33280 0.97174
 C773 C 0.03682 0.38273 0.95776
 H774 H -0.01314 0.32387 1.01148
 H775 H 0.07791 0.40773 0.86923
 H776 H 0.06959 0.32090 0.82741
 N777 N 0.53478 0.34965 -0.02659
 N778 N 0.54274 0.30593 0.00544
 C779 C 0.50320 0.30053 0.05233
 C780 C 0.47127 0.34660 0.05297
 C781 C 0.49291 0.37732 0.00159
 H782 H 0.44100 0.35825 0.08981
 H783 H 0.56227 0.36271 -0.06277
 H784 H 0.57611 0.28048 -0.00438
 N785 N -0.05397 0.87900 0.60203
 N786 N -0.05469 0.83116 0.62483
 C787 C -0.02233 0.79964 0.58731
 C788 C -0.00007 0.83125 0.53699
 C789 C -0.02383 0.88120 0.54610
 H790 H 0.03320 0.82110 0.50311
 H791 H -0.07132 0.91047 0.62820
 H792 H -0.07315 0.82234 0.66957
 N793 N 0.17065 0.30143 0.08676
 N794 N 0.18591 0.32422 0.03169
 C795 C 0.22513 0.36125 0.04395
 C796 C 0.23200 0.36307 0.11056
 C797 C 0.19872 0.32317 0.13680
 H798 H 0.26370 0.38548 0.13487
 H799 H 0.14517 0.26822 0.08895
 H800 H 0.16913 0.31415 -0.01346
 N801 N 0.66653 0.83107 0.61403
 N802 N 0.67161 0.86520 0.56622
 C803 C 0.72429 0.88535 0.56449
 C804 C 0.75330 0.86143 0.61398
 C805 C 0.71561 0.82720 0.64422
 H806 H 0.79733 0.86560 0.62379
 H807 H 0.63044 0.80945 0.62395
 H808 H 0.63899 0.87237 0.53454
 N809 N 0.32700 0.71554 0.58744
 N810 N 0.31426 0.69146 0.53235
 C811 C 0.28032 0.65041 0.54534
 C812 C 0.27283 0.64768 0.61123
 C813 C 0.30125 0.69067 0.63679
 H814 H 0.24244 0.62363 0.63556
 H815 H 0.34746 0.75169 0.58998
 H816 H 0.32643 0.70452 0.48630
 N817 N 0.82038 0.20969 0.09944
 N818 N 0.80635 0.18770 0.04339
 C819 C 0.77130 0.14729 0.05478
 C820 C 0.76440 0.14274 0.12122
 C821 C 0.79453 0.18426 0.14849
 H822 H 0.73584 0.11664 0.14606
 H823 H 0.84272 0.24477 0.10319
 H824 H 0.81979 0.20090 -0.00211
 N825 N 0.66895 0.20676 0.90926
 N826 N 0.68631 0.18551 0.96395
 C827 C 0.72202 0.14579 0.94995
 C828 C 0.72508 0.14063 0.88305
 C829 C 0.69332 0.18199 0.85796
 H830 H 0.75374 0.11536 0.85701
 H831 H 0.64615 0.24171 0.90771
 H832 H 0.67489 0.19909 1.01039
 N833 N 0.17488 0.71828 0.41428
 N834 N 0.19174 0.69330 0.46660
 C835 C 0.22574 0.65351 0.44774
 C836 C 0.22657 0.65074 0.38170
 C837 C 0.19706 0.69440 0.36110
 H838 H 0.25445 0.62599 0.35422
 H839 H 0.15438 0.75450 0.41578
 H840 H 0.18241 0.70503 0.51437
 N841 N 0.82279 0.81061 0.42164
 N842 N 0.80884 0.83826 0.47389
 C843 C 0.77415 0.87791 0.45757
 C844 C 0.76627 0.87465 0.39070
 C845 C 0.79666 0.83031 0.36975
 H846 H 0.73742 0.89756 0.36249
 H847 H 0.84482 0.77522 0.42325
 H848 H 0.82059 0.82730 0.52053
 N849 N 0.33344 0.35136 0.84974
 N850 N 0.31901 0.38546 0.89554
 C851 C 0.28239 0.36426 0.93756
 C852 C 0.27233 0.31347 0.91563
 C853 C 0.30242 0.30815 0.85704
 H854 H 0.24155 0.28624 0.93338
 H855 H 0.35951 0.36002 0.81035
 H856 H 0.33042 0.42428 0.89551
 N857 N 0.71383 0.39955 0.75077
 N858 N 0.73316 0.44641 0.73671
 C859 C 0.78787 0.44933 0.75279
 C860 C 0.80427 0.39975 0.77192
 C861 C 0.75645 0.36903 0.76969
 H862 H 0.84660 0.38692 0.77787
 H863 H 0.67359 0.38711 0.73876
 H864 H 0.70989 0.47271 0.70941
 N865 N 0.22520 0.90512 0.27223
 N866 N 0.23989 0.95379 0.26310
 C867 C 0.29599 0.95784 0.26752
 C868 C 0.31802 0.90751 0.27489
 C869 C 0.27143 0.87527 0.27670
 H870 H 0.36138 0.89569 0.27069
 H871 H 0.18394 0.89245 0.26702
 H872 H 0.21145 0.98117 0.24568
 N873 N 0.27311 0.90052 0.76878
 N874 N 0.25583 0.94902 0.76966
 C875 C 0.20746 0.95278 0.73672
 C876 C 0.19172 0.90274 0.71639
 C877 C 0.23450 0.87072 0.73913
 H878 H 0.15207 0.89077 0.69618
 H879 H 0.30870 0.88837 0.79356
 H880 H 0.27492 0.97797 0.79803
 N881 N 0.77548 0.39836 0.27027
 N882 N 0.76151 0.44810 0.27261
 C883 C 0.71402 0.45634 0.23904
 C884 C 0.69655 0.40627 0.21607
 C885 C 0.73567 0.37025 0.23971
 H886 H 0.65727 0.39591 0.19406
 H887 H 0.80961 0.38404 0.29593
 H888 H 0.78142 0.47394 0.30453
 N889 N 0.79080 0.60414 0.26510
 N890 N 0.77169 0.55696 0.25152
 C891 C 0.71827 0.55253 0.27267
 C892 C 0.70310 0.60143 0.29964
 C893 C 0.74892 0.63397 0.28943
 H894 H 0.66234 0.61370 0.31694
 H895 H 0.82973 0.61727 0.24859
 H896 H 0.79365 0.53070 0.22144
 N897 N 0.28364 0.09739 0.73202
 N898 N 0.26441 0.04984 0.72075
 C899 C 0.20961 0.04910 0.73749
 C900 C 0.19312 0.09896 0.75566
 C901 C 0.24068 0.12792 0.75198
 H902 H 0.15193 0.11211 0.77012
 H903 H 0.32431 0.10938 0.72082
 H904 H 0.28851 0.01988 0.69972
 N905 N 0.22344 0.10731 0.28166
 N906 N 0.24569 0.06077 0.28971
 C907 C 0.28874 0.05420 0.24763
 C908 C 0.29589 0.10089 0.21401
 C909 C 0.25440 0.13442 0.23821
 H910 H 0.33126 0.11016 0.18363
 H911 H 0.19125 0.12160 0.31163
 H912 H 0.23379 0.03603 0.32758
 N913 N 0.71995 0.59993 0.74496
 N914 N 0.73798 0.55264 0.75694
 C915 C 0.79044 0.54630 0.73312
 C916 C 0.80885 0.59544 0.71279
 C917 C 0.76276 0.62858 0.72232
 H918 H 0.85150 0.60644 0.70186
 H919 H 0.68126 0.61365 0.76196
 H920 H 0.71666 0.52841 0.78942
 N921 N 0.91660 0.74430 0.24899
 N922 N 0.95441 0.72801 0.20645
 C923 C 0.94945 0.75437 0.15016
 C924 C 0.90204 0.78679 0.15721
 C925 C 0.88086 0.77813 0.22084
 H926 H 0.88371 0.81098 0.12008
 H927 H 0.91283 0.72812 0.29532
 H928 H 0.98547 0.70075 0.21756
 N929 N 0.36295 0.31732 0.63050
 N930 N 0.40876 0.31096 0.59522
 C931 C 0.44030 0.27176 0.61946
 C932 C 0.41017 0.25188 0.67312
 C933 C 0.36231 0.28373 0.68078
 H934 H 0.41999 0.21720 0.70073
 H935 H 0.33003 0.34119 0.61568
 H936 H 0.41601 0.33235 0.55300
 N937 N 0.41079 0.76520 0.75659
 N938 N 0.45242 0.77884 0.79447
 C939 C 0.45081 0.75110 0.84998
 C940 C 0.40151 0.72072 0.84816
 C941 C 0.37625 0.73158 0.78769
 H942 H 0.38482 0.69660 0.88673
 H943 H 0.40450 0.78241 0.71134
 H944 H 0.48298 0.80599 0.78088
 N945 N 0.90667 0.19473 0.27554
 N946 N 0.95546 0.20181 0.30423
 C947 C 0.94990 0.23544 0.35546
 C948 C 0.89374 0.24956 0.35936
 C949 C 0.86736 0.22268 0.30768
 H950 H 0.87493 0.27691 0.39359
 H951 H 0.90114 0.17257 0.23307
 H952 H 0.99270 0.18479 0.28751
 N953 N 0.08554 0.31222 0.27002
 N954 N 0.03756 0.30228 0.30022
 C955 C 0.04642 0.27039 0.35146
 C956 C 0.10341 0.26179 0.35494
 C957 C 0.12721 0.28850 0.30187
 H958 H 0.12442 0.23721 0.38955
 H959 H 0.08920 0.33330 0.22686
 H960 H -0.00109 0.31647 0.28499
 N961 N 0.59209 0.74203 0.75107
 N962 N 0.55140 0.72510 0.78894
 C963 C 0.55419 0.74834 0.84812
 C964 C 0.60316 0.77912 0.84791
 C965 C 0.62740 0.77307 0.78518
 H966 H 0.62056 0.80030 0.88890
 H967 H 0.59771 0.72819 0.70341
 H968 H 0.52062 0.69904 0.77297
 N969 N 0.57856 0.23402 0.74220
 N970 N 0.53351 0.24860 0.71015
 C971 C 0.54362 0.24718 0.64520
 C972 C 0.59980 0.23161 0.63723
 C973 C 0.62096 0.22383 0.70031
 H974 H 0.62319 0.22998 0.59191
 H975 H 0.58149 0.23589 0.79290
 H976 H 0.49789 0.26231 0.73422
 N977 N 0.08901 0.78232 0.24076
 N978 N 0.04784 0.79333 0.20127
 C979 C 0.05048 0.76209 0.14768
 C980 C 0.09855 0.73082 0.15349
 C981 C 0.12251 0.74549 0.21342
 H982 H 0.11522 0.70317 0.11798
 H983 H 0.09564 0.80292 0.28425
 H984 H 0.01652 0.82050 0.21305
   
