data_POSCAR
  _audit_creation_date              2014-09-24
  _audit_creation_method            'ToBaCCo'
  _symmetry_space_group_name_H-M    'P1'
  _symmetry_Int_Tables_number       1
  _symmetry_cell_setting            triclinic
  loop_
  _symmetry_equiv_pos_as_xyz
 x,y,z
_cell_length_a 23.9739
_cell_length_b 24.5095
_cell_length_c 30.1922
_cell_angle_alpha 90.796700
_cell_angle_beta 96.948500
_cell_angle_gamma 91.311200
loop_
  _atom_site_label
  _atom_site_type_symbol
  _atom_site_fract_x
  _atom_site_fract_y
  _atom_site_fract_z
N1 N 0.59310 0.72123 0.62020
 N2 N 0.56677 0.70254 0.65283
 C3 C 0.52416 0.73575 0.65889
 C4 C 0.52400 0.77733 0.62824
 C5 C 0.56861 0.76705 0.60460
 H6 H 0.49382 0.72851 0.68204
 H7 H 0.58033 0.78917 0.57625
 Cu8 Cu 0.58777 0.63356 0.68084
 Cu9 Cu 0.65096 0.67984 0.59549
 Cu10 Cu 0.62948 0.54158 0.60933
 N11 N 0.60740 0.56001 0.69961
 N12 N 0.61923 0.52297 0.67044
 C13 C 0.62661 0.47474 0.69076
 C14 C 0.62081 0.48234 0.73544
 C15 C 0.60872 0.53704 0.73998
 H16 H 0.63764 0.43762 0.67447
 H17 H 0.60031 0.55823 0.77004
 N18 N 0.66816 0.57179 0.56070
 N19 N 0.68031 0.62432 0.55781
 C20 C 0.71166 0.63189 0.52427
 C21 C 0.71920 0.58163 0.50492
 C22 C 0.69105 0.54439 0.52869
 H23 H 0.72703 0.67113 0.51431
 H24 H 0.68900 0.50052 0.52409
 H25 H 0.59517 0.61853 0.60148
 H26 H 0.66373 0.61168 0.63716
 N27 N 0.96343 0.34714 0.08288
 N28 N 0.96220 0.32874 0.12348
 C29 C 0.99457 0.28470 0.12904
 C30 C 1.01886 0.27621 0.09028
 C31 C 0.99859 0.31686 0.06176
 H32 H 1.00217 0.26238 0.15975
 H33 H 1.00726 0.32304 0.02782
 Cu34 Cu 0.92492 0.36807 0.16735
 Cu35 Cu 0.91596 0.40632 0.05998
 Cu36 Cu 0.83081 0.46169 0.13215
 N37 N 0.90339 0.42448 0.20757
 N38 N 0.86784 0.46223 0.19319
 C39 C 0.86061 0.49623 0.22720
 C40 C 0.89319 0.47866 0.26499
 C41 C 0.91969 0.43288 0.25148
 H42 H 0.83263 0.53035 0.22480
 H43 H 0.94857 0.40764 0.27193
 N44 N 0.81517 0.46854 0.06732
 N45 N 0.84816 0.44811 0.03962
 C46 C 0.82156 0.44996 -0.00222
 C47 C 0.76926 0.47225 -0.00064
 C48 C 0.76696 0.48413 0.04397
 H49 H 0.83657 0.43099 -0.03095
 H50 H 0.73069 0.49749 0.05885
 H51 H 0.90970 0.44712 0.11979
 H52 H 0.85861 0.38900 0.10334
 N53 N 0.48746 0.15097 -0.07271
 N54 N 0.48622 0.14839 -0.11634
 C55 C 0.52059 0.18765 -0.12939
 C56 C 0.54546 0.21544 -0.09170
 C57 C 0.52398 0.19086 -0.05627
 H58 H 0.52708 0.19540 -0.16360
 H59 H 0.53209 0.20281 -0.02142
 Cu60 Cu 0.44056 0.09303 -0.15139
 Cu61 Cu 0.43670 0.10626 -0.04165
 Cu62 Cu 0.32331 0.05062 -0.11143
 N63 N 0.39368 0.03431 -0.18073
 N64 N 0.34648 0.01892 -0.16592
 C65 C 0.31986 -0.01881 -0.19425
 C66 C 0.35263 -0.02794 -0.22822
 C67 C 0.39923 0.00632 -0.21853
 H68 H 0.27942 -0.03758 -0.19063
 H69 H 0.43345 0.01201 -0.23842
 N70 N 0.32106 0.06517 -0.04730
 N71 N 0.36548 0.08290 -0.02036
 C72 C 0.35085 0.08988 0.02095
 C73 C 0.29440 0.07647 0.01985
 C74 C 0.27679 0.06079 -0.02389
 H75 H 0.37830 0.10715 0.04895
 H76 H 0.23458 0.04875 -0.03792
 H77 H 0.40513 0.04636 -0.08899
 H78 H 0.37919 0.11729 -0.09587
 N79 N 0.03597 0.80541 0.37012
 N80 N -0.00183 0.83662 0.34866
 C81 C -0.05278 0.81187 0.34646
 C82 C -0.04606 0.76140 0.36607
 C83 C 0.01094 0.75820 0.38013
 H84 H -0.09136 0.82855 0.33048
 H85 H 0.03199 0.72571 0.39887
 Cu86 Cu 0.02022 0.90371 0.32150
 Cu87 Cu 0.11282 0.83216 0.38843
 Cu88 Cu 0.14124 0.96595 0.36206
 N89 N 0.05781 0.95558 0.28612
 N90 N 0.10594 0.97960 0.30168
 C91 C 0.12342 1.01163 0.26991
 C92 C 0.08393 1.00726 0.23254
 C93 C 0.04278 0.97158 0.24405
 H94 H 0.16192 1.03605 0.27374
 H95 H 0.00519 0.95748 0.22321
 N96 N 0.18395 0.92901 0.41178
 N97 N 0.17556 0.87697 0.42038
 C98 C 0.20757 0.86493 0.45868
 C99 C 0.23634 0.91194 0.47507
 C100 C 0.22051 0.95170 0.44448
 H101 H 0.20573 0.82646 0.47564
 H102 H 0.23219 0.99461 0.44709
 H103 H 0.08487 0.91047 0.38939
 H104 H 0.12083 0.88953 0.34034
 N105 N 0.13592 0.11748 0.10551
 N106 N 0.35199 0.88889 0.62149
 N107 N 0.85450 0.59328 0.39254
 N108 N 0.63983 0.39194 -0.12173
 N109 N 0.12600 0.19305 0.05524
 N110 N 0.09061 0.23756 0.04979
 C111 C 0.05703 0.23613 0.08251
 C112 C 0.06839 0.19048 0.10832
 C113 C 0.11126 0.16434 0.09002
 H114 H 0.04874 0.17843 0.13724
 H115 H 0.15726 0.18456 0.03511
 H116 H 0.09275 0.26769 0.02589
 N117 N 0.43284 0.87979 0.57937
 N118 N 0.47882 0.85085 0.58160
 C119 C 0.48108 0.81879 0.61769
 C120 C 0.43466 0.82812 0.63990
 C121 C 0.40525 0.86693 0.61421
 H122 H 0.42288 0.80819 0.66926
 H123 H 0.42071 0.90746 0.55424
 H124 H 0.50725 0.85231 0.55802
 N125 N 0.82920 0.68677 0.38300
 N126 N 0.85722 0.73443 0.37223
 C127 C 0.91199 0.72297 0.37234
 C128 C 0.92003 0.66817 0.38124
 C129 C 0.86740 0.64710 0.38755
 H130 H 0.95888 0.64627 0.38255
 H131 H 0.78579 0.68257 0.38317
 H132 H 0.83856 0.77226 0.36700
 N133 N 0.64513 0.32452 -0.06152
 N134 N 0.61925 0.27833 -0.05317
 C135 C 0.58407 0.26302 -0.08959
 C136 C 0.58731 0.30113 -0.12267
 C137 C 0.62686 0.33953 -0.10355
 H138 H 0.56158 0.30246 -0.15463
 H139 H 0.67355 0.34576 -0.03817
 H140 H 0.62502 0.25829 -0.02271
 N141 N 0.05419 0.06462 0.12407
 N142 N 0.04033 0.03533 0.15761
 C143 C 0.08480 0.03446 0.18951
 C144 C 0.12940 0.06405 0.17556
 C145 C 0.10781 0.08244 0.13396
 H146 H 0.17070 0.07206 0.19347
 H147 H 0.02727 0.07242 0.09513
 H148 H 0.00072 0.01715 0.15873
 N149 N 0.63379 0.36280 -0.19844
 N150 N 0.63012 0.38905 -0.23935
 C151 C 0.62636 0.44304 -0.23139
 C152 C 0.62880 0.45278 -0.18578
 C153 C 0.63324 0.40164 -0.16644
 H154 H 0.62765 0.49187 -0.16883
 H155 H 0.64085 0.32122 -0.19427
 H156 H 0.62974 0.36925 -0.27023
 N157 N 0.28666 0.89426 0.67778
 N158 N 0.28669 0.91651 0.71791
 C159 C 0.33849 0.93750 0.73156
 C160 C 0.37337 0.92731 0.69908
 C161 C 0.33869 0.89981 0.66573
 H162 H 0.41631 0.94147 0.69825
 H163 H 0.25117 0.87751 0.65844
 H164 H 0.25105 0.91958 0.73446
 N165 N 0.90317 0.50725 0.38252
 N166 N 0.91343 0.47640 0.34823
 C167 C 0.89600 0.50251 0.31017
 C168 C 0.87473 0.55238 0.32054
 C169 C 0.88017 0.55368 0.36655
 H170 H 0.85443 0.58183 0.29798
 H171 H 0.90978 0.49575 0.41588
 H172 H 0.92939 0.43714 0.35096
 N173 N 0.23784 0.10844 0.12140
 N174 N 0.28017 0.09777 0.09865
 C175 C 0.25949 0.08457 0.05621
 C176 C 0.20131 0.08647 0.05171
 C177 C 0.18969 0.10216 0.09379
 H178 H 0.17202 0.08090 0.02170
 H179 H 0.24219 0.12214 0.15457
 H180 H 0.32246 0.10135 0.11177
 N181 N 0.78486 0.52609 0.41434
 N182 N 0.74960 0.52263 0.44468
 C183 C 0.75159 0.57027 0.46767
 C184 C 0.78976 0.60570 0.45150
 C185 C 0.80986 0.57610 0.41761
 H186 H 0.80256 0.64632 0.46378
 H187 H 0.79164 0.49447 0.39223
 H188 H 0.72490 0.48807 0.44950
 N189 N 0.63315 0.46071 -0.06325
 N190 N 0.66820 0.48212 -0.03004
 C191 C 0.72109 0.46864 -0.03594
 C192 C 0.71965 0.43853 -0.07523
 C193 C 0.66320 0.43416 -0.09120
 H194 H 0.75342 0.41602 -0.08698
 H195 H 0.58940 0.46043 -0.06467
 H196 H 0.65544 0.50163 -0.00214
 N197 N 0.29938 0.96179 0.58199
 N198 N 0.27039 0.96846 0.54245
 C199 C 0.26782 0.92063 0.51956
 C200 C 0.29684 0.88171 0.54536
 C201 C 0.31607 0.90980 0.58452
 H202 H 0.30330 0.83947 0.53687
 H203 H 0.30832 0.99251 0.60629
 H204 H 0.25210 1.00500 0.53173
   
