data_POSCAR
  _audit_creation_date              2014-09-24
  _audit_creation_method            'ToBaCCo'
  _symmetry_space_group_name_H-M    'P1'
  _symmetry_Int_Tables_number       1
  _symmetry_cell_setting            triclinic
  loop_
  _symmetry_equiv_pos_as_xyz
 x,y,z
_cell_length_a 27.8216
_cell_length_b 28.9059
_cell_length_c 28.1668
_cell_angle_alpha 92.953300
_cell_angle_beta 93.349300
_cell_angle_gamma 92.059900
loop_
  _atom_site_label
  _atom_site_type_symbol
  _atom_site_fract_x
  _atom_site_fract_y
  _atom_site_fract_z
N1 N 0.18584 1.28895 0.18068
 N2 N 0.14416 1.27872 0.19802
 C3 C 0.11197 1.30958 0.18428
 C4 C 0.13492 1.34213 0.15807
 C5 C 0.18194 1.32773 0.15639
 H6 H 0.07467 1.30868 0.19324
 H7 H 0.21013 1.34213 0.13603
 Cu8 Cu 0.13564 1.22655 0.23755
 Cu9 Cu 0.23941 1.24721 0.18650
 Cu10 Cu 0.19800 1.13521 0.20556
 N11 N 0.12471 1.16737 0.26500
 N12 N 0.14880 1.13120 0.25175
 C13 C 0.13396 1.09444 0.27519
 C14 C 0.09823 1.10818 0.30484
 C15 C 0.09407 1.15516 0.29774
 H16 H 0.15026 1.06106 0.27278
 H17 H 0.06993 1.17860 0.31448
 N18 N 0.25945 1.14957 0.17733
 N19 N 0.27686 1.19206 0.17266
 C20 C 0.32037 1.18975 0.15412
 C21 C 0.33097 1.14346 0.14742
 C22 C 0.29106 1.11917 0.16172
 H23 H 0.34211 1.21944 0.14512
 H24 H 0.28506 1.08195 0.16010
 H25 H 0.18614 1.19837 0.17537
 H26 H 0.21757 1.19889 0.23571
 N27 N 0.81675 0.73075 0.13934
 N28 N 0.84074 0.72344 0.17976
 C29 C 0.87121 0.68900 0.17231
 C30 C 0.86589 0.67421 0.12483
 C31 C 0.83122 0.70141 0.10481
 H32 H 0.89558 0.67567 0.19917
 H33 H 0.81707 0.69951 0.06814
 Cu34 Cu 0.83090 0.76064 0.23784
 Cu35 Cu 0.76680 0.77608 0.13512
 Cu36 Cu 0.77084 0.85804 0.22967
 N37 N 0.81936 0.79939 0.29461
 N38 N 0.79539 0.83741 0.29063
 C39 C 0.79954 0.86244 0.33218
 C40 C 0.82805 0.83938 0.36482
 C41 C 0.83969 0.79907 0.33926
 H42 H 0.78814 0.89771 0.33581
 H43 H 0.86435 0.77334 0.35088
 N44 N 0.73273 0.86462 0.16960
 N45 N 0.73109 0.83363 0.13339
 C46 C 0.70180 0.84830 0.09787
 C47 C 0.68414 0.89030 0.11292
 C48 C 0.70403 0.89942 0.15851
 H49 H 0.69342 0.82967 0.06394
 H50 H 0.69768 0.92912 0.18194
 H51 H 0.80861 0.81834 0.18089
 H52 H 0.75515 0.79115 0.20721
 N53 N 0.82771 1.28206 -0.16174
 N54 N 0.85241 1.28678 -0.19970
 C55 C 0.87704 1.32792 -0.19558
 C56 C 0.86681 1.35044 -0.15287
 C57 C 0.83581 1.31991 -0.13219
 H58 H 0.90256 1.33947 -0.22042
 H59 H 0.82269 1.32358 -0.09684
 Cu60 Cu 0.85478 1.23615 -0.24769
 Cu61 Cu 0.79189 1.22479 -0.15069
 Cu62 Cu 0.76835 1.15233 -0.25124
 N63 N 0.86194 1.17676 -0.28206
 N64 N 0.82811 1.14381 -0.28325
 C65 C 0.84291 1.10610 -0.30738
 C66 C 0.88923 1.11531 -0.32173
 C67 C 0.89927 1.16132 -0.30583
 H68 H 0.82178 1.07394 -0.31258
 H69 H 0.93038 1.18297 -0.31243
 N70 N 0.72766 1.15218 -0.19675
 N71 N 0.74008 1.17585 -0.15640
 C72 C 0.70941 1.16382 -0.12356
 C73 C 0.67561 1.13113 -0.14424
 C74 C 0.68776 1.12579 -0.19130
 H75 H 0.71126 1.17828 -0.08731
 H76 H 0.66909 1.10472 -0.21990
 H77 H 0.81708 1.17815 -0.20008
 H78 H 0.77372 1.22145 -0.22111
 N79 N 0.16570 0.73528 -0.15585
 N80 N 0.15032 0.71277 -0.19617
 C81 C 0.12743 0.67276 -0.18594
 C82 C 0.12914 0.67006 -0.13670
 C83 C 0.15186 0.71130 -0.11923
 H84 H 0.11225 0.64692 -0.21226
 H85 H 0.16008 0.72222 -0.08229
 Cu86 Cu 0.16257 0.73825 -0.25856
 Cu87 Cu 0.21390 0.78725 -0.15116
 Cu88 Cu 0.25068 0.82097 -0.25363
 N89 N 0.16488 0.78548 -0.30667
 N90 N 0.19858 0.81866 -0.30248
 C91 C 0.18976 0.84966 -0.33526
 C92 C 0.14899 0.83495 -0.36371
 C93 C 0.13385 0.79395 -0.34366
 H94 H 0.20988 0.88229 -0.33523
 H95 H 0.10193 0.77253 -0.35403
 N96 N 0.29151 0.83162 -0.19574
 N97 N 0.27682 0.81829 -0.15496
 C98 C 0.30930 0.83333 -0.11977
 C99 C 0.34673 0.85677 -0.13977
 C100 C 0.33389 0.85551 -0.18808
 H101 H 0.30469 0.82978 -0.08224
 H102 H 0.35270 0.87271 -0.21516
 H103 H 0.17789 0.79504 -0.21625
 H104 H 0.22611 0.75204 -0.21363
 C105 C 0.47100 1.05351 0.03025
 C106 C 0.51561 1.03384 0.05554
 C107 C 0.54190 1.00645 0.02718
 C108 C 0.52298 1.00324 -0.02524
 C109 C 0.49273 1.08030 -0.01010
 C110 C 0.52050 1.05426 -0.03910
 C111 C 0.44354 1.01228 0.00388
 C112 C 0.47026 0.98613 -0.02478
 H113 H 0.52456 1.03977 0.09337
 H114 H 0.54472 0.98047 -0.04763
 H115 H 0.49096 1.11726 -0.01287
 H116 H 0.40498 1.00619 0.00534
 C117 C 0.04024 0.47473 1.04107
 C118 C 0.07085 0.50578 1.01069
 C119 C 0.04481 0.53500 0.98335
 C120 C -0.01012 0.52767 0.98589
 C121 C 0.00794 0.50770 1.06751
 C122 C -0.01887 0.53466 1.03904
 C123 C 0.00657 0.44826 1.00291
 C124 C -0.01991 0.47550 0.97446
 H125 H 0.10954 0.50366 1.00953
 H126 H -0.03186 0.55003 0.96277
 H127 H 0.00662 0.50958 1.10593
 H128 H 0.00643 0.41104 0.99603
 C129 C 1.01776 0.00834 0.45761
 C130 C 1.00175 0.03795 0.50092
 C131 C 0.98481 0.01271 0.53639
 C132 C 0.98454 -0.03985 0.52575
 C133 C 1.05362 -0.02487 0.47948
 C134 C 1.03733 -0.04895 0.51610
 C135 C 0.97273 -0.02172 0.44258
 C136 C 0.95611 -0.04765 0.47726
 H137 H 0.99959 0.07515 0.50306
 H138 H 0.96981 -0.06015 0.55437
 H139 H 1.08927 -0.02864 0.46662
 H140 H 0.95611 -0.02351 0.40672
 C141 C 0.04324 0.40146 1.08625
 C142 C 0.06563 0.36982 1.11464
 C143 C 0.11303 0.37798 1.13370
 C144 C 0.13561 0.42234 1.12892
 C145 C 0.11105 0.45588 1.10218
 C146 C 0.06668 0.44336 1.07587
 C147 C 0.13012 0.50166 1.10575
 N148 N 0.17260 0.51241 1.13047
 N149 N 0.19671 0.48070 1.15353
 C150 C 0.17943 0.43636 1.15423
 H151 H 0.00684 0.39256 1.07237
 H152 H 0.04620 0.33738 1.11931
 H153 H 0.11033 0.52952 1.09180
 H154 H 0.19907 0.41356 1.17665
 C155 C -0.04785 0.61443 1.04657
 C156 C -0.07555 0.64825 1.06747
 C157 C -0.10861 0.63663 1.10095
 C158 C -0.11603 0.58968 1.11157
 C159 C -0.08860 0.55511 1.08961
 C160 C -0.05284 0.56807 1.05829
 C161 C -0.09882 0.50850 1.09896
 N162 N -0.13308 0.49778 1.12934
 N163 N -0.15812 0.53038 1.15068
 C164 C -0.15088 0.57590 1.14277
 H165 H -0.02113 0.62479 1.02229
 H166 H -0.07000 0.68402 1.05868
 H167 H -0.08072 0.48036 1.08175
 H168 H -0.17293 0.60073 1.16040
 C169 C -0.02973 0.42661 0.90007
 C170 C -0.05728 0.39572 0.86912
 C171 C -0.10741 0.39166 0.87153
 C172 C -0.13045 0.42329 0.90212
 C173 C -0.10230 0.45451 0.93400
 C174 C -0.05139 0.45452 0.93427
 C175 C -0.12628 0.48346 0.96567
 N176 N -0.17511 0.48231 0.96422
 N177 N -0.20154 0.45399 0.93341
 C178 C -0.18092 0.42453 0.90230
 H179 H 0.00919 0.42636 0.89965
 H180 H -0.03878 0.37231 0.84579
 H181 H -0.10686 0.50734 0.99111
 H182 H -0.20417 0.40289 0.87757
 C183 C 0.04818 0.57502 0.90694
 C184 C 0.06935 0.60629 0.87725
 C185 C 0.11200 0.63165 0.89227
 C186 C 0.13435 0.62360 0.93759
 C187 C 0.10945 0.59693 0.96975
 C188 C 0.06747 0.57001 0.95353
 C189 C 0.12704 0.59937 1.01761
 N190 N 0.17078 0.61990 1.03034
 N191 N 0.19758 0.63897 0.99837
 C192 C 0.18102 0.64120 0.95235
 H193 H 0.01619 0.55495 0.89349
 H194 H 0.05179 0.61125 0.84265
 H195 H 0.10574 0.58642 1.04502
 H196 H 0.20469 0.65623 0.92774
 C197 C 1.04486 0.08172 0.41802
 C198 C 1.06220 0.10541 0.38056
 C199 C 1.07501 0.08205 0.33861
 C200 C 1.06644 0.03312 0.33358
 C201 C 1.05028 0.00843 0.37262
 C202 C 1.03828 0.03315 0.41553
 C203 C 1.04590 -0.04044 0.36667
 N204 N 1.05298 -0.06215 0.32405
 N205 N 1.06394 -0.03863 0.28660
 C206 C 1.07024 0.00808 0.28972
 H207 H 1.03817 0.10274 0.44935
 H208 H 1.06815 0.14258 0.38609
 H209 H 1.03648 -0.06211 0.39493
 H210 H 1.07630 0.02508 0.25729
 C211 C 1.04856 -0.12073 0.56012
 C212 C 1.07584 -0.15017 0.58780
 C213 C 1.12500 -0.14000 0.60029
 C214 C 1.14712 -0.10108 0.57976
 C215 C 1.11811 -0.06790 0.55781
 C216 C 1.06850 -0.07885 0.54565
 C217 C 1.14032 -0.02474 0.54936
 N218 N 1.18897 -0.01911 0.55350
 N219 N 1.21673 -0.05344 0.56625
 C220 C 1.19746 -0.09443 0.57880
 H221 H 1.01115 -0.13053 0.55074
 H222 H 1.05741 -0.18015 0.60072
 H223 H 1.11976 0.00468 0.53978
 H224 H 1.22165 -0.12171 0.58703
 C225 C 0.92848 -0.12734 0.45231
 C226 C 0.89620 -0.15636 0.42376
 C227 C 0.85100 -0.14058 0.40776
 C228 C 0.83494 -0.09917 0.43028
 C229 C 0.86869 -0.06850 0.45647
 C230 C 0.91642 -0.08214 0.46557
 C231 C 0.85367 -0.02461 0.47180
 N232 N 0.80662 -0.01429 0.46573
 N233 N 0.77394 -0.04473 0.44487
 C234 C 0.78643 -0.08688 0.42724
 H235 H 0.96491 -0.13835 0.45944
 H236 H 0.90942 -0.18880 0.41002
 H237 H 0.87876 0.00132 0.48886
 H238 H 0.75836 -0.11066 0.41141
 C239 C 0.91743 0.02285 0.58892
 C240 C 0.89390 0.04808 0.62332
 C241 C 0.91743 0.08543 0.65057
 C242 C 0.96821 0.09218 0.64687
 C243 C 0.99132 0.06810 0.60977
 C244 C 0.96479 0.03475 0.57922
 C245 C 1.04106 0.07642 0.60600
 N246 N 1.06640 0.10515 0.63861
 N247 N 1.04552 0.12545 0.67509
 C248 C 0.99769 0.11939 0.68075
 H249 H 0.89745 -0.00465 0.56805
 H250 H 0.85603 0.03964 0.62602
 H251 H 1.06042 0.05919 0.57848
 H252 H 0.98400 0.13385 0.71309
 C253 C 0.42181 1.12268 0.05562
 C254 C 0.38932 1.14443 0.08431
 C255 C 0.37247 1.12332 0.12399
 C256 C 0.39110 1.08039 0.13658
 C257 C 0.42116 1.05625 0.10549
 C258 C 0.43819 1.07824 0.06478
 C259 C 0.43228 1.01045 0.11630
 N260 N 0.41893 0.99285 0.15743
 N261 N 0.39462 1.01741 0.18849
 C262 C 0.38048 1.06058 0.17958
 H263 H 0.43157 1.14047 0.02472
 H264 H 0.37549 1.17722 0.07393
 H265 H 0.45103 0.98789 0.09277
 H266 H 0.36157 1.07920 0.20653
 C267 C 0.57711 1.11830 -0.05870
 C268 C 0.61518 1.13567 -0.08314
 C269 C 0.63405 1.10981 -0.12076
 C270 C 0.61199 1.06559 -0.13478
 C271 C 0.56957 1.05045 -0.11326
 C272 C 0.55401 1.07532 -0.07250
 C273 C 0.54443 1.01041 -0.13317
 N274 N 0.56371 0.98401 -0.16779
 N275 N 0.60636 0.99522 -0.18393
 C276 C 0.63137 1.03472 -0.16824
 H277 H 0.56715 1.13829 -0.02751
 H278 H 0.63062 1.16954 -0.07148
 H279 H 0.50966 0.99994 -0.12150
 H280 H 0.66671 1.04045 -0.18099
 C281 C 0.42044 0.96383 -0.09782
 C282 C 0.39047 0.93242 -0.12573
 C283 C 0.38542 0.88610 -0.11382
 C284 C 0.41413 0.87050 -0.07495
 C285 C 0.44494 0.90259 -0.04672
 C286 C 0.44704 0.94971 -0.05778
 C287 C 0.47185 0.88654 -0.00757
 N288 N 0.46883 0.84102 0.00186
 N289 N 0.44065 0.81068 -0.02513
 C290 C 0.41327 0.82381 -0.06320
 H291 H 0.42123 1.00000 -0.10626
 H292 H 0.36886 0.94510 -0.15520
 H293 H 0.49544 0.90966 0.01532
 H294 H 0.39163 0.79754 -0.08419
 C295 C 0.57006 0.95149 0.08618
 C296 C 0.60388 0.92297 0.10642
 C297 C 0.64898 0.91863 0.08766
 C298 C 0.66059 0.94409 0.04801
 C299 C 0.62659 0.97432 0.02813
 C300 C 0.58052 0.97748 0.04706
 C301 C 0.64091 1.00172 -0.00872
 N302 N 0.68524 0.99760 -0.02572
 N303 N 0.71658 0.96837 -0.00788
 C304 C 0.70590 0.94167 0.02855
 H305 H 0.53515 0.95306 0.10119
 H306 H 0.59472 0.90396 0.13703
 H307 H 0.61792 1.02714 -0.02336
 H308 H 0.73306 0.91917 0.04219
   
