data_POSCAR
  _audit_creation_date              2014-09-24
  _audit_creation_method            'ToBaCCo'
  _symmetry_space_group_name_H-M    'P1'
  _symmetry_Int_Tables_number       1
  _symmetry_cell_setting            triclinic
  loop_
  _symmetry_equiv_pos_as_xyz
 x,y,z
_cell_length_a 20.9231
_cell_length_b 20.9231
_cell_length_c 35.7617
_cell_angle_alpha 89.893100
_cell_angle_beta 90.125600
_cell_angle_gamma 90.024500
loop_
  _atom_site_label
  _atom_site_type_symbol
  _atom_site_fract_x
  _atom_site_fract_y
  _atom_site_fract_z
O1 O -0.05323 0.43864 1.03554
 O2 O -0.05331 0.56339 0.96274
 O3 O -0.05329 0.43871 0.96281
 O4 O -0.05326 0.56325 1.03547
 O5 O 0.05244 0.56332 1.03558
 O6 O 0.05241 0.43878 0.96292
 O7 O 0.05238 0.56346 0.96284
 O8 O 0.05247 0.43871 1.03565
 Cu9 Cu -0.06393 0.50099 0.99912
 Cu10 Cu 0.06309 0.50108 0.99925
 C11 C -0.00036 0.41747 1.04779
 C12 C -0.00048 0.58467 0.95060
 C13 C -0.00044 0.41754 0.95071
 C14 C -0.00040 0.58445 1.04770
 O15 O 0.56342 -0.05335 0.53723
 O16 O 0.43862 -0.05319 0.46443
 O17 O 0.56324 -0.05321 0.46450
 O18 O 0.43874 -0.05334 0.53716
 O19 O 0.43880 0.05236 0.53712
 O20 O 0.56329 0.05250 0.46446
 O21 O 0.43868 0.05251 0.46439
 O22 O 0.56347 0.05234 0.53719
 Cu23 Cu 0.50100 -0.06394 0.50084
 Cu24 Cu 0.50107 0.06309 0.50079
 C25 C 0.58470 -0.00053 0.54940
 C26 C 0.41744 -0.00032 0.45221
 C27 C 0.58442 -0.00033 0.45230
 C28 C 0.41757 -0.00051 0.54929
 Si29 Si 0.00012 0.00026 0.25000
 Si30 Si -0.00040 -0.00054 0.75000
 C31 C -0.00039 -0.36612 0.07543
 C32 C -0.00037 -0.32392 0.09833
 C33 C -0.00035 -0.27279 0.12519
 C34 C 0.05761 -0.24803 0.13849
 C35 C 0.05768 -0.19685 0.16359
 C36 C -0.00023 -0.17021 0.17549
 C37 C -0.05820 -0.19532 0.16244
 C38 C -0.05827 -0.24650 0.13734
 C39 C -0.00012 -0.11604 0.20021
 C40 C -0.00003 -0.07007 0.22045
 H41 H 0.10267 -0.26788 0.12920
 H42 H 0.10278 -0.17767 0.17343
 H43 H -0.10324 -0.17495 0.17138
 H44 H -0.10336 -0.26516 0.12715
 C45 C -0.00032 0.36791 0.07555
 C46 C -0.00029 0.32559 0.09847
 C47 C -0.00023 0.27429 0.12533
 C48 C 0.05775 0.24883 0.13816
 C49 C 0.05781 0.19746 0.16325
 C50 C -0.00011 0.17135 0.17560
 C51 C -0.05810 0.19717 0.16302
 C52 C -0.05816 0.24854 0.13794
 C53 C -0.00005 0.11698 0.20029
 C54 C 0.00002 0.07084 0.22049
 H55 H 0.10281 0.26826 0.12851
 H56 H 0.10291 0.17773 0.17271
 H57 H -0.10315 0.17722 0.17232
 H58 H -0.10326 0.26775 0.12812
 C59 C 0.36796 -0.00056 0.57690
 C60 C 0.32555 -0.00060 0.59967
 C61 C 0.27410 -0.00063 0.62631
 C62 C 0.24785 -0.05858 0.63859
 C63 C 0.19632 -0.05859 0.66344
 C64 C 0.17082 -0.00064 0.67610
 C65 C 0.19742 0.05730 0.66407
 C66 C 0.24896 0.05731 0.63922
 C67 C 0.11634 -0.00062 0.70058
 C68 C 0.07015 -0.00059 0.72063
 H69 H 0.26680 -0.10365 0.62870
 H70 H 0.17599 -0.10366 0.67248
 H71 H 0.17796 0.10238 0.67361
 H72 H 0.26877 0.10239 0.62982
 C73 C -0.36830 -0.00058 0.57561
 C74 C -0.32590 -0.00063 0.59849
 C75 C -0.27450 -0.00067 0.62530
 C76 C -0.24820 -0.05862 0.63758
 C77 C -0.19673 -0.05862 0.66261
 C78 C -0.17136 -0.00068 0.67545
 C79 C -0.19800 0.05726 0.66342
 C80 C -0.24947 0.05727 0.63839
 C81 C -0.11696 -0.00064 0.70013
 C82 C -0.07084 -0.00061 0.72037
 H83 H -0.26706 -0.10368 0.62755
 H84 H -0.17637 -0.10369 0.67165
 H85 H -0.17864 0.10234 0.67310
 H86 H -0.26932 0.10235 0.62899
 C87 C -0.00051 -0.36834 0.92440
 C88 C -0.00053 -0.32596 0.90151
 C89 C -0.00054 -0.27457 0.87471
 C90 C 0.05741 -0.24927 0.86183
 C91 C 0.05741 -0.19782 0.83680
 C92 C -0.00053 -0.17146 0.82455
 C93 C -0.05848 -0.19710 0.83718
 C94 C -0.05849 -0.24855 0.86221
 C95 C -0.00050 -0.11707 0.79987
 C96 C -0.00046 -0.07096 0.77964
 H97 H 0.10249 -0.26890 0.87140
 H98 H 0.10250 -0.17824 0.82729
 H99 H -0.10355 -0.17696 0.82796
 H100 H -0.10357 -0.26762 0.87207
 C101 C -0.00045 0.36792 0.92310
 C102 C -0.00045 0.32550 0.90034
 C103 C -0.00045 0.27403 0.87370
 C104 C -0.05840 0.24829 0.86103
 C105 C -0.05840 0.19674 0.83618
 C106 C -0.00044 0.17072 0.82391
 C107 C 0.05751 0.19682 0.83632
 C108 C 0.05750 0.24837 0.86116
 C109 C -0.00043 0.11623 0.79943
 C110 C -0.00042 0.07003 0.77937
 H111 H -0.10348 0.26764 0.87063
 H112 H -0.10347 0.17681 0.82684
 H113 H 0.10259 0.17695 0.82708
 H114 H 0.10258 0.26778 0.87087
 C115 C -0.36616 -0.00028 0.42457
 C116 C -0.32398 -0.00023 0.40167
 C117 C -0.27286 -0.00017 0.37481
 C118 C -0.24761 0.05781 0.36188
 C119 C -0.19643 0.05789 0.33678
 C120 C -0.17032 -0.00003 0.32451
 C121 C -0.19592 -0.05801 0.33718
 C122 C -0.24710 -0.05809 0.36228
 C123 C -0.11616 0.00006 0.29979
 C124 C -0.07019 0.00014 0.27955
 H125 H -0.26705 0.10287 0.37147
 H126 H -0.17687 0.10299 0.32724
 H127 H -0.17596 -0.10306 0.32795
 H128 H -0.26614 -0.10319 0.37218
 C129 C 0.36786 -0.00025 0.42445
 C130 C 0.32553 -0.00020 0.40153
 C131 C 0.27422 -0.00012 0.37467
 C132 C 0.24862 -0.05803 0.36193
 C133 C 0.19723 -0.05796 0.33685
 C134 C 0.17124 0.00002 0.32441
 C135 C 0.19720 0.05794 0.33689
 C136 C 0.24859 0.05787 0.36197
 C137 C 0.11686 0.00009 0.29972
 C138 C 0.07071 0.00016 0.27951
 H139 H 0.26796 -0.10314 0.37165
 H140 H 0.17740 -0.10302 0.32745
 H141 H 0.17734 0.10305 0.32753
 H142 H 0.26790 0.10292 0.37173
   
