data_POSCAR
  _audit_creation_date              2014-09-24
  _audit_creation_method            'ToBaCCo'
  _symmetry_space_group_name_H-M    'P1'
  _symmetry_Int_Tables_number       1
  _symmetry_cell_setting            triclinic
  loop_
  _symmetry_equiv_pos_as_xyz
 x,y,z
_cell_length_a 29.0023
_cell_length_b 29.1079
_cell_length_c 29.2500
_cell_angle_alpha 90.166900
_cell_angle_beta 89.983100
_cell_angle_gamma 89.736800
loop_
  _atom_site_label
  _atom_site_type_symbol
  _atom_site_fract_x
  _atom_site_fract_y
  _atom_site_fract_z
C1 C 0.00554 0.50031 0.24737
 C2 C 0.00150 0.49840 0.75319
 C3 C 0.25135 0.00271 0.50373
 C4 C 0.75358 0.00018 0.50195
 C5 C 0.49578 0.25642 0.99515
 C6 C 0.49900 0.74658 0.99538
 B7 B 0.99883 1.04705 0.03139
 B8 B 0.99741 1.04624 -0.02755
 B9 B 1.04559 1.02671 0.00095
 B10 B 1.02734 0.99748 0.04995
 B11 B 0.96859 1.00073 0.05187
 B12 B 0.94881 1.03000 0.00349
 B13 B 0.99263 0.95030 -0.02612
 B14 B 0.99563 0.95033 0.03239
 B15 B 0.94664 0.97177 0.00527
 B16 B 0.96509 0.99917 -0.04408
 B17 B 1.02454 0.99662 -0.04626
 B18 B 1.04350 0.96720 0.00103
 B19 B 0.55362 0.50232 0.46873
 B20 B 0.54914 0.50566 0.52726
 B21 B 0.52957 0.55097 0.49365
 B22 B 0.50490 0.52745 0.44504
 B23 B 0.50827 0.46868 0.44902
 B24 B 0.53592 0.45517 0.49933
 B25 B 0.45304 0.49980 0.52083
 B26 B 0.45738 0.49659 0.46231
 B27 B 0.47677 0.45127 0.49569
 B28 B 0.50180 0.47450 0.54416
 B29 B 0.49813 0.53338 0.54041
 B30 B 0.47064 0.54702 0.49000
 C31 C 1.01554 1.37260 0.16808
 C32 C 1.05474 1.39013 0.18990
 C33 C 1.05263 1.43168 0.21366
 C34 C 1.01062 1.45620 0.21787
 C35 C 0.97304 1.44100 0.19122
 C36 C 0.97510 1.39930 0.16752
 C37 C 1.01636 1.32583 0.14781
 C38 C 0.99342 1.31649 0.10656
 C39 C 0.99192 1.27175 0.08926
 C40 C 1.01326 1.23542 0.11288
 C41 C 1.03715 1.24490 0.15351
 C42 C 1.03861 1.28962 0.17084
 C43 C 1.00938 1.18768 0.09572
 C44 C 1.04724 1.15776 0.09595
 C45 C 1.04337 1.11352 0.07770
 C46 C 1.00182 1.09731 0.05805
 C47 C 0.96370 1.12748 0.06101
 C48 C 0.96734 1.17167 0.07897
 H49 H 1.08712 1.37148 0.18882
 H50 H 1.08426 1.44405 0.22866
 H51 H 0.94107 1.46038 0.19086
 H52 H 0.94442 1.38715 0.15030
 H53 H 0.97661 1.34378 0.08768
 H54 H 0.97402 1.26552 0.05736
 H55 H 1.05347 1.21749 0.17264
 H56 H 1.05596 1.29560 0.20307
 H57 H 1.08022 1.16883 0.10924
 H58 H 1.07368 1.09195 0.07915
 H59 H 0.93052 1.11872 0.04768
 H60 H 0.93701 1.19352 0.07944
 C61 C 0.99770 0.61756 0.15429
 C62 C 1.03597 0.58782 0.15387
 C63 C 1.03694 0.54905 0.18184
 C64 C 1.00013 0.53943 0.21191
 C65 C 0.95943 0.56578 0.20712
 C66 C 0.95870 0.60491 0.17972
 C67 C 0.99962 0.66313 0.13150
 C68 C 0.95956 0.68356 0.11337
 C69 C 0.96028 0.72882 0.09771
 C70 C 1.00124 0.75418 0.09897
 C71 C 1.04180 0.73333 0.11478
 C72 C 1.04095 0.68838 0.13129
 C73 C 1.00129 0.80278 0.08502
 C74 C 1.03147 0.81821 0.05167
 C75 C 1.02928 0.86361 0.03672
 C76 C 0.99857 0.89709 0.05550
 C77 C 0.96887 0.87944 0.08975
 C78 C 0.97003 0.83372 0.10401
 H79 H 1.06584 0.59525 0.13301
 H80 H 1.06779 0.52795 0.18215
 H81 H 0.92817 0.55744 0.22526
 H82 H 0.92807 0.62628 0.18027
 H83 H 0.92740 0.66489 0.11192
 H84 H 0.92879 0.74419 0.08483
 H85 H 1.07371 0.75249 0.11606
 H86 H 1.07230 0.67422 0.14567
 H87 H 1.05495 0.79439 0.03504
 H88 H 1.04862 0.86938 0.00655
 H89 H 0.94377 0.89869 0.10727
 H90 H 0.94619 0.82247 0.13020
 C91 C 1.02330 1.36655 -0.17682
 C92 C 1.00554 1.36899 -0.22131
 C93 C 0.99898 1.41113 -0.24265
 C94 C 1.00792 1.45303 -0.21987
 C95 C 1.02777 1.45060 -0.17589
 C96 C 1.03475 1.40792 -0.15441
 C97 C 1.02816 1.32080 -0.15421
 C98 C 1.01783 1.31538 -0.10761
 C99 C 1.01633 1.27155 -0.08805
 C100 C 1.02454 1.23188 -0.11468
 C101 C 1.03735 1.23752 -0.16064
 C102 C 1.03947 1.28135 -0.18001
 C103 C 1.01720 1.18506 -0.09519
 C104 C 1.04383 1.14703 -0.10869
 C105 C 1.03638 1.10353 -0.08945
 C106 C 1.00234 1.09584 -0.05550
 C107 C 0.97557 1.13469 -0.04389
 C108 C 0.98233 1.17784 -0.06313
 H109 H 0.99581 1.33823 -0.23973
 H110 H 0.98604 1.41090 -0.27735
 H111 H 1.03860 1.48141 -0.15827
 H112 H 1.04975 1.40730 -0.12054
 H113 H 1.00895 1.34479 -0.08661
 H114 H 1.00772 1.26878 -0.05215
 H115 H 1.04396 1.20801 -0.18230
 H116 H 1.04888 1.28417 -0.21570
 H117 H 1.07168 1.15101 -0.13298
 H118 H 1.06024 1.07767 -0.09946
 H119 H 0.94819 1.13296 -0.02029
 H120 H 0.95959 1.20561 -0.05286
 C121 C 0.98067 0.62893 -0.17320
 C122 C 1.00332 0.62705 -0.21550
 C123 C 1.01039 0.58539 -0.23788
 C124 C 0.99715 0.54319 -0.21811
 C125 C 0.97303 0.54523 -0.17617
 C126 C 0.96565 0.58745 -0.15362
 C127 C 0.97287 0.67447 -0.15072
 C128 C 0.97848 0.68031 -0.10327
 C129 C 0.97654 0.72434 -0.08357
 C130 C 0.96929 0.76335 -0.11099
 C131 C 0.96152 0.75727 -0.15794
 C132 C 0.96289 0.71344 -0.17746
 C133 C 0.97263 0.81044 -0.09150
 C134 C 0.99960 0.84367 -0.11306
 C135 C 1.00517 0.88728 -0.09374
 C136 C 0.98467 0.89981 -0.05176
 C137 C 0.95445 0.86661 -0.03264
 C138 C 0.94956 0.82256 -0.05131
 H139 H 1.01569 0.65804 -0.23170
 H140 H 1.02606 0.58656 -0.27142
 H141 H 0.95900 0.51437 -0.16120
 H142 H 0.94702 0.58776 -0.12154
 H143 H 0.98638 0.65116 -0.08169
 H144 H 0.98276 0.72814 -0.04724
 H145 H 0.95497 0.78662 -0.17971
 H146 H 0.95695 0.71020 -0.21387
 H147 H 1.01751 0.83557 -0.14460
 H148 H 1.02644 0.90987 -0.11253
 H149 H 0.93544 0.87321 -0.00181
 H150 H 0.92753 0.79799 -0.03430
 C151 C 1.17484 0.99450 0.37361
 C152 C 1.16187 0.96734 0.41119
 C153 C 1.18552 0.97068 0.45308
 C154 C 1.22177 1.00244 0.45928
 C155 C 1.23546 1.02790 0.42043
 C156 C 1.21244 1.02415 0.37887
 C157 C 1.15046 0.99228 0.32856
 C158 C 1.14604 1.03220 0.30194
 C159 C 1.12663 1.03059 0.25839
 C160 C 1.10960 0.98924 0.24015
 C161 C 1.11303 0.94925 0.26702
 C162 C 1.13333 0.95073 0.31068
 C163 C 1.08798 0.98909 0.19366
 C164 C 1.08994 0.95096 0.16423
 C165 C 1.07037 0.95308 0.12026
 C166 C 1.05203 0.99452 0.10180
 C167 C 1.04496 1.02942 0.13485
 C168 C 1.06337 1.02760 0.17875
 H169 H 1.13346 0.94353 0.40832
 H170 H 1.17573 0.94804 0.48070
 H171 H 1.26538 1.04986 0.42088
 H172 H 1.22524 1.04386 0.35025
 H173 H 1.15782 1.06507 0.31467
 H174 H 1.12550 1.06205 0.23878
 H175 H 1.09977 0.91686 0.25458
 H176 H 1.13639 0.91920 0.32998
 H177 H 1.10642 0.91936 0.17495
 H178 H 1.07033 0.92167 0.10083
 H179 H 1.01972 1.05572 0.13027
 H180 H 1.05590 1.05572 0.20196
 C181 C 1.18057 1.01401 -0.36402
 C182 C 1.22856 1.01089 -0.36713
 C183 C 1.24996 1.00797 -0.40960
 C184 C 1.22422 1.00794 -0.45075
 C185 C 1.17604 1.01413 -0.44744
 C186 C 1.15445 1.01617 -0.40449
 C187 C 1.15823 1.01249 -0.31845
 C188 C 1.12237 0.98147 -0.31034
 C189 C 1.10354 0.97714 -0.26664
 C190 C 1.11946 1.00441 -0.23004
 C191 C 1.15540 1.03556 -0.23826
 C192 C 1.17475 1.03937 -0.28197
 C193 C 1.09731 1.00122 -0.18416
 C194 C 1.12251 1.00462 -0.14340
 C195 C 1.10033 1.00101 -0.10080
 C196 C 1.05217 0.99465 -0.09660
 C197 C 1.02895 0.98850 -0.13865
 C198 C 1.05017 0.99295 -0.18094
 H199 H 1.24956 1.00903 -0.33657
 H200 H 1.28713 1.00428 -0.41049
 H201 H 1.15473 1.01745 -0.47749
 H202 H 1.11729 1.01959 -0.40283
 H203 H 1.10981 0.95956 -0.33757
 H204 H 1.07684 0.95182 -0.26149
 H205 H 1.16812 1.05745 -0.21111
 H206 H 1.20249 1.06353 -0.28740
 H207 H 1.15950 1.00931 -0.14428
 H208 H 1.12178 1.00256 -0.07175
 H209 H 0.99537 0.97498 -0.14095
 H210 H 1.02923 0.98889 -0.21131
 C211 C 0.83193 1.01619 0.37540
 C212 C 0.85141 1.03059 0.41697
 C213 C 0.82732 1.02475 0.45812
 C214 C 0.78411 1.00255 0.45877
 C215 C 0.76471 0.98964 0.41637
 C216 C 0.78849 0.99553 0.37570
 C217 C 0.85571 1.02279 0.33119
 C218 C 0.83046 1.03771 0.29300
 C219 C 0.85031 1.03753 0.24967
 C220 C 0.89606 1.02282 0.24353
 C221 C 0.92223 1.01035 0.28211
 C222 C 0.90220 1.01037 0.32564
 C223 C 0.91510 1.01823 0.19669
 C224 C 0.94304 0.98094 0.18478
 C225 C 0.95885 0.97573 0.14002
 C226 C 0.94632 1.00592 0.10428
 C227 C 0.92022 1.04450 0.11832
 C228 C 0.90441 1.05041 0.16298
 H229 H 0.88451 1.04765 0.41741
 H230 H 0.84210 1.03868 0.48910
 H231 H 0.73035 0.97543 0.41436
 H232 H 0.77257 0.98404 0.34421
 H233 H 0.79474 1.04817 0.29647
 H234 H 0.82911 1.04707 0.22072
 H235 H 0.95789 0.99973 0.27854
 H236 H 0.92237 0.99876 0.35458
 H237 H 0.95322 0.95578 0.21008
 H238 H 0.98428 0.94970 0.13529
 H239 H 0.91043 1.07065 0.09537
 H240 H 0.88401 1.08060 0.17112
 C241 C 0.81960 0.98805 -0.36421
 C242 C 0.84355 0.97292 -0.40330
 C243 C 0.82297 0.97582 -0.44665
 C244 C 0.77860 0.99527 -0.45174
 C245 C 0.75381 1.00648 -0.41165
 C246 C 0.77408 1.00344 -0.36884
 C247 C 0.84142 0.98924 -0.31847
 C248 C 0.83420 1.02757 -0.29001
 C249 C 0.85202 1.02857 -0.24586
 C250 C 0.87785 0.99140 -0.22911
 C251 C 0.88570 0.95316 -0.25765
 C252 C 0.86774 0.95216 -0.30210
 C253 C 0.89722 0.99346 -0.18231
 C254 C 0.89667 0.95519 -0.15357
 C255 C 0.91574 0.95766 -0.10976
 C256 C 0.93556 0.99871 -0.09233
 C257 C 0.93594 1.03650 -0.12267
 C258 C 0.91679 1.03416 -0.16623
 H259 H 0.87840 0.95976 -0.40046
 H260 H 0.84188 0.96295 -0.47590
 H261 H 0.71853 1.01861 -0.41352
 H262 H 0.75403 1.01343 -0.33915
 H263 H 0.81455 1.05692 -0.30192
 H264 H 0.84512 1.05833 -0.22459
 H265 H 0.90603 0.92429 -0.24575
 H266 H 0.87361 0.92213 -0.32329
 H267 H 0.88130 0.92328 -0.16484
 H268 H 0.91350 0.92709 -0.08954
 H269 H 0.95336 1.06771 -0.11524
 H270 H 0.91917 1.06396 -0.18818
 C271 C 1.35845 1.19382 0.00599
 C272 C 1.39614 1.16674 -0.00753
 C273 C 1.44028 1.18578 -0.01060
 C274 C 1.44851 1.23201 0.00222
 C275 C 1.40944 1.25863 0.01492
 C276 C 1.36543 1.23988 0.01691
 C277 C 1.31158 1.17451 0.00746
 C278 C 1.27564 1.19433 -0.01808
 C279 C 1.23172 1.17454 -0.01815
 C280 C 1.22301 1.13501 0.00788
 C281 C 1.25868 1.11695 0.03530
 C282 C 1.30263 1.13608 0.03455
 C283 C 1.17862 1.10996 0.00400
 C284 C 1.17917 1.06223 0.00433
 C285 C 1.13861 1.03744 0.00190
 C286 C 1.09452 1.05770 -0.00089
 C287 C 1.09516 1.10650 -0.00457
 C288 C 1.13605 1.13212 -0.00164
 H289 H 1.39103 1.13129 -0.01762
 H290 H 1.46686 1.16457 -0.02563
 H291 H 1.41181 1.29484 0.02160
 H292 H 1.33658 1.26160 0.02664
 H293 H 1.28201 1.22422 -0.03910
 H294 H 1.20523 1.18911 -0.03985
 H295 H 1.25286 1.08735 0.05684
 H296 H 1.32971 1.12091 0.05516
 H297 H 1.21150 1.04342 0.00485
 H298 H 1.14464 1.00249 -0.00297
 H299 H 1.06405 1.12644 -0.00638
 H300 H 1.13403 1.16926 -0.00249
 C301 C 0.62197 1.17171 -0.01838
 C302 C 0.58552 1.15703 0.00949
 C303 C 0.54398 1.18180 0.01123
 C304 C 0.53759 1.22296 -0.01387
 C305 C 0.57374 1.23506 -0.04416
 C306 C 0.61455 1.20974 -0.04669
 C307 C 0.66856 1.14983 -0.01606
 C308 C 0.70838 1.17698 -0.02063
 C309 C 0.75226 1.15733 -0.01819
 C310 C 0.75764 1.11015 -0.01028
 C311 C 0.71816 1.08283 -0.00509
 C312 C 0.67403 1.10241 -0.00821
 C313 C 0.80453 1.09002 -0.00701
 C314 C 0.81632 1.06073 0.02880
 C315 C 0.86108 1.04319 0.03236
 C316 C 0.89665 1.05447 0.00104
 C317 C 0.88242 1.08173 -0.03629
 C318 C 0.83799 1.10013 -0.03975
 H319 H 0.58978 1.12781 0.03191
 H320 H 0.51805 1.17032 0.03517
 H321 H 0.57220 1.26498 -0.06561
 H322 H 0.64102 1.22103 -0.07017
 H323 H 0.70582 1.21378 -0.02524
 H324 H 0.78216 1.17924 -0.02154
 H325 H 0.72148 1.04623 0.00074
 H326 H 0.64429 1.08034 -0.00495
 H327 H 0.79087 1.05120 0.05413
 H328 H 0.86623 1.01853 0.05894
 H329 H 0.90498 1.08964 -0.06365
 H330 H 0.82952 1.12162 -0.06877
 C331 C 1.36395 0.81387 -0.01791
 C332 C 1.36824 0.76639 -0.01133
 C333 C 1.41151 0.74600 -0.00737
 C334 C 1.45229 0.77238 -0.00823
 C335 C 1.44794 0.81983 -0.01713
 C336 C 1.40431 0.84032 -0.02136
 C337 C 1.31738 0.83546 -0.01949
 C338 C 1.30926 0.87781 0.00221
 C339 C 1.26475 0.89612 0.00455
 C340 C 1.22711 0.87237 -0.01437
 C341 C 1.23537 0.83085 -0.03756
 C342 C 1.28002 0.81263 -0.04015
 C343 C 1.17957 0.89098 -0.00929
 C344 C 1.14826 0.89053 -0.04567
 C345 C 1.10569 0.91316 -0.04189
 C346 C 1.09235 0.93726 -0.00199
 C347 C 1.12451 0.93606 0.03422
 C348 C 1.16645 0.91281 0.03125
 H349 H 1.33806 0.74488 -0.00823
 H350 H 1.41332 0.70913 -0.00266
 H351 H 1.47788 0.84122 -0.02190
 H352 H 1.40218 0.87685 -0.02794
 H353 H 1.33707 0.89620 0.01870
 H354 H 1.25979 0.92887 0.02155
 H355 H 1.20717 0.81186 -0.05265
 H356 H 1.28520 0.78035 -0.05792
 H357 H 1.15745 0.87458 -0.07793
 H358 H 1.08486 0.91338 -0.07156
 H359 H 1.12331 0.96125 0.06062
 H360 H 1.19011 0.91503 0.05979
 C361 C 0.62535 0.82605 0.01565
 C362 C 0.58491 0.83848 0.03902
 C363 C 0.54412 0.81356 0.03220
 C364 C 0.54224 0.77737 -0.00008
 C365 C 0.58386 0.76496 -0.02234
 C366 C 0.62442 0.78905 -0.01482
 C367 C 0.66930 0.85042 0.02280
 C368 C 0.70874 0.82562 0.03597
 C369 C 0.75196 0.84654 0.03612
 C370 C 0.75662 0.89238 0.02226
 C371 C 0.71691 0.91771 0.01062
 C372 C 0.67347 0.89694 0.01124
 C373 C 0.80308 0.91277 0.01808
 C374 C 0.81542 0.93758 -0.02077
 C375 C 0.85936 0.95667 -0.02438
 C376 C 0.89412 0.94929 0.00888
 C377 C 0.87803 0.93017 0.04997
 C378 C 0.83456 0.91008 0.05406
 H379 H 0.58529 0.86648 0.06346
 H380 H 0.51408 0.82227 0.05247
 H381 H 0.58600 0.73548 -0.04483
 H382 H 0.65544 0.77852 -0.03274
 H383 H 0.70617 0.78961 0.04484
 H384 H 0.78206 0.82635 0.04517
 H385 H 0.71963 0.95331 0.00036
 H386 H 0.64348 0.91649 0.00063
 H387 H 0.79061 0.94357 -0.04780
 H388 H 0.86297 0.98174 -0.05067
 H389 H 0.89516 0.93739 0.08096
 H390 H 0.82434 0.89542 0.08649
 C391 C 0.88361 0.49959 0.33602
 C392 C 0.91212 0.53832 0.33341
 C393 C 0.95222 0.53726 0.30696
 C394 C 0.96411 0.49804 0.28085
 C395 C 0.93829 0.45770 0.28832
 C396 C 0.89813 0.45879 0.31461
 C397 C 0.83790 0.50216 0.35894
 C398 C 0.82068 0.46449 0.38343
 C399 C 0.77611 0.46554 0.40147
 C400 C 0.74774 0.50444 0.39583
 C401 C 0.76536 0.54257 0.37234
 C402 C 0.80987 0.54141 0.35403
 C403 C 0.69975 0.50479 0.41370
 C404 C 0.66372 0.52474 0.38875
 C405 C 0.61842 0.52358 0.40511
 C406 C 0.60677 0.50273 0.44718
 C407 C 0.64396 0.48184 0.47083
 C408 C 0.68921 0.48336 0.45502
 H409 H 0.90296 0.56978 0.35112
 H410 H 0.97281 0.56812 0.30473
 H411 H 0.94819 0.42510 0.27354
 H412 H 0.87761 0.42789 0.31673
 H413 H 0.84151 0.43395 0.38832
 H414 H 0.76350 0.43533 0.41889
 H415 H 0.74466 0.57328 0.36792
 H416 H 0.82182 0.57081 0.33486
 H417 H 0.67020 0.54015 0.35573
 H418 H 0.59286 0.53705 0.38288
 H419 H 0.63896 0.46237 0.50141
 H420 H 0.71600 0.46737 0.47536
 C421 C 0.13138 0.51417 0.32836
 C422 C 0.10327 0.47531 0.33276
 C423 C 0.06160 0.47260 0.30904
 C424 C 0.04791 0.50779 0.27875
 C425 C 0.07334 0.54909 0.27960
 C426 C 0.11493 0.55184 0.30335
 C427 C 0.17893 0.51416 0.34690
 C428 C 0.21541 0.53131 0.32036
 C429 C 0.26084 0.52824 0.33583
 C430 C 0.27075 0.50789 0.37814
 C431 C 0.23421 0.49169 0.40521
 C432 C 0.18876 0.49471 0.38970
 C433 C 0.31902 0.50301 0.39395
 C434 C 0.33367 0.46263 0.41518
 C435 C 0.37802 0.45911 0.43317
 C436 C 0.40976 0.49559 0.43130
 C437 C 0.39502 0.53483 0.40676
 C438 C 0.35068 0.53864 0.38856
 H439 H 0.11459 0.44595 0.35251
 H440 H 0.04151 0.44144 0.31167
 H441 H 0.06207 0.57931 0.26132
 H442 H 0.13479 0.58319 0.30137
 H443 H 0.20899 0.54575 0.28687
 H444 H 0.28832 0.54059 0.31409
 H445 H 0.24081 0.47672 0.43844
 H446 H 0.16130 0.48177 0.41112
 H447 H 0.31055 0.43370 0.41847
 H448 H 0.38578 0.42753 0.44899
 H449 H 0.41700 0.56361 0.40189
 H450 H 0.34071 0.57027 0.37177
 C451 C 0.86841 0.50094 0.68247
 C452 C 0.87410 0.47619 0.72295
 C453 C 0.91654 0.47556 0.74519
 C454 C 0.95557 0.49746 0.72628
 C455 C 0.94896 0.52380 0.68632
 C456 C 0.90589 0.52538 0.66461
 C457 C 0.82262 0.50241 0.66043
 C458 C 0.79976 0.54441 0.65423
 C459 C 0.75504 0.54552 0.63645
 C460 C 0.73257 0.50464 0.62345
 C461 C 0.75605 0.46262 0.62929
 C462 C 0.80038 0.46153 0.64806
 C463 C 0.68553 0.50603 0.60279
 C464 C 0.65395 0.47026 0.60899
 C465 C 0.61099 0.47106 0.58712
 C466 C 0.59670 0.50796 0.55904
 C467 C 0.62891 0.54379 0.55463
 C468 C 0.67208 0.54299 0.57545
 H469 H 0.84519 0.45838 0.73813
 H470 H 0.91855 0.45796 0.77767
 H471 H 0.97694 0.54364 0.67211
 H472 H 0.90179 0.54561 0.63384
 H473 H 0.81607 0.57627 0.66436
 H474 H 0.73790 0.57848 0.63358
 H475 H 0.74051 0.43053 0.61887
 H476 H 0.81755 0.42873 0.65265
 H477 H 0.66237 0.44124 0.63053
 H478 H 0.58973 0.44196 0.59252
 H479 H 0.62222 0.57295 0.53474
 H480 H 0.69540 0.57108 0.56869
 C481 C 0.13064 0.49561 0.67448
 C482 C 0.09001 0.47745 0.65533
 C483 C 0.04809 0.47930 0.67937
 C484 C 0.04553 0.49961 0.72321
 C485 C 0.08687 0.51584 0.74266
 C486 C 0.12802 0.51545 0.71826
 C487 C 0.17604 0.49296 0.65018
 C488 C 0.21722 0.48998 0.67542
 C489 C 0.25997 0.49053 0.65378
 C490 C 0.26342 0.49190 0.60581
 C491 C 0.22224 0.49340 0.58024
 C492 C 0.17915 0.49438 0.60214
 C493 C 0.30983 0.49236 0.58331
 C494 C 0.31723 0.51466 0.54152
 C495 C 0.36148 0.51704 0.52242
 C496 C 0.40078 0.49803 0.54424
 C497 C 0.39223 0.47668 0.58671
 C498 C 0.34812 0.47264 0.60502
 H499 H 0.09069 0.46064 0.62230
 H500 H 0.01808 0.46366 0.66402
 H501 H 0.08740 0.52936 0.77718
 H502 H 0.15786 0.53077 0.73424
 H503 H 0.21682 0.48728 0.71229
 H504 H 0.29031 0.49064 0.67525
 H505 H 0.22310 0.49378 0.54326
 H506 H 0.14841 0.49700 0.58134
 H507 H 0.28920 0.53177 0.52397
 H508 H 0.36440 0.53656 0.49156
 H509 H 0.41908 0.46503 0.60822
 H510 H 0.34461 0.45440 0.63698
 C511 C 0.50765 0.66626 0.12188
 C512 C 0.47398 0.70040 0.11674
 C513 C 0.47104 0.72570 0.07658
 C514 C 0.50031 0.71632 0.03893
 C515 C 0.53553 0.68319 0.04530
 C516 C 0.53898 0.65829 0.08614
 C517 C 0.51020 0.64059 0.16540
 C518 C 0.55167 0.63765 0.19002
 C519 C 0.55232 0.61819 0.23376
 C520 C 0.51166 0.60078 0.25319
 C521 C 0.47063 0.60229 0.22774
 C522 C 0.46988 0.62217 0.18442
 C523 C 0.51127 0.58247 0.30042
 C524 C 0.48728 0.54234 0.31058
 C525 C 0.48469 0.52643 0.35540
 C526 C 0.50632 0.54925 0.39245
 C527 C 0.52939 0.59045 0.38110
 C528 C 0.53227 0.60650 0.33617
 H529 H 0.45062 0.70850 0.14456
 H530 H 0.44615 0.75343 0.07599
 H531 H 0.56063 0.67674 0.01863
 H532 H 0.56594 0.63269 0.08974
 H533 H 0.58309 0.65196 0.17615
 H534 H 0.58445 0.61709 0.25259
 H535 H 0.43873 0.58949 0.24201
 H536 H 0.43752 0.62398 0.16600
 H537 H 0.47017 0.52313 0.28377
 H538 H 0.46407 0.49640 0.36020
 H539 H 0.54410 0.61188 0.40652
 H540 H 0.54981 0.63859 0.32962
 C541 C 0.50339 0.67739 0.86209
 C542 C 0.49869 0.65090 0.90204
 C543 C 0.49660 0.67197 0.94519
 C544 C 0.50081 0.72005 0.94952
 C545 C 0.50410 0.74615 0.90907
 C546 C 0.50515 0.72534 0.86634
 C547 C 0.50524 0.65600 0.81580
 C548 C 0.53115 0.67653 0.78071
 C549 C 0.52954 0.65956 0.73611
 C550 C 0.50299 0.62073 0.72549
 C551 C 0.47887 0.59879 0.76102
 C552 C 0.47960 0.61647 0.80550
 C553 C 0.50008 0.60343 0.67762
 C554 C 0.45969 0.58295 0.66150
 C555 C 0.45785 0.56384 0.61780
 C556 C 0.49572 0.56473 0.58758
 C557 C 0.53486 0.58881 0.60338
 C558 C 0.53741 0.60711 0.64747
 H559 H 0.49680 0.61382 0.90009
 H560 H 0.49122 0.65040 0.97466
 H561 H 0.50594 0.78327 0.91070
 H562 H 0.50673 0.74720 0.83652
 H563 H 0.55240 0.70625 0.78747
 H564 H 0.54835 0.67768 0.70985
 H565 H 0.45911 0.56800 0.75451
 H566 H 0.45904 0.59979 0.83143
 H567 H 0.42924 0.58113 0.68282
 H568 H 0.42623 0.54820 0.60932
 H569 H 0.56462 0.59296 0.58251
 H570 H 0.56940 0.62280 0.65817
 C571 C 0.50578 0.32824 0.12751
 C572 C 0.52617 0.28520 0.12124
 C573 C 0.52580 0.26390 0.07863
 C574 C 0.50510 0.28471 0.03994
 C575 C 0.48669 0.32957 0.04667
 C576 C 0.48728 0.35100 0.08960
 C577 C 0.50246 0.34786 0.17410
 C578 C 0.51470 0.39363 0.18271
 C579 C 0.51476 0.41062 0.22746
 C580 C 0.50211 0.38224 0.26420
 C581 C 0.48815 0.33704 0.25533
 C582 C 0.48849 0.31997 0.21072
 C583 C 0.50525 0.39931 0.31173
 C584 C 0.46981 0.39194 0.34321
 C585 C 0.47235 0.41081 0.38715
 C586 C 0.51034 0.43743 0.40171
 C587 C 0.54655 0.44158 0.36985
 C588 C 0.54419 0.42329 0.32592
 H589 H 0.54170 0.26731 0.14984
 H590 H 0.54095 0.23039 0.07799
 H591 H 0.46895 0.34754 0.01957
 H592 H 0.47113 0.38439 0.09359
 H593 H 0.52555 0.41576 0.15506
 H594 H 0.52506 0.44585 0.23347
 H595 H 0.47835 0.31451 0.28305
 H596 H 0.47824 0.28471 0.20482
 H597 H 0.43928 0.37305 0.33336
 H598 H 0.44342 0.40511 0.40868
 H599 H 0.57706 0.45942 0.37737
 H600 H 0.57289 0.42836 0.30279
 C601 C 0.48913 0.33353 0.86657
 C602 C 0.46524 0.29228 0.87197
 C603 C 0.46610 0.26911 0.91344
 C604 C 0.48989 0.28686 0.95182
 C605 C 0.51397 0.32868 0.94582
 C606 C 0.51291 0.35201 0.90403
 C607 C 0.49164 0.35500 0.82086
 C608 C 0.48468 0.40239 0.81518
 C609 C 0.48557 0.42174 0.77144
 C610 C 0.49381 0.39403 0.73274
 C611 C 0.50170 0.34680 0.73877
 C612 C 0.50051 0.32752 0.78228
 C613 C 0.49485 0.41410 0.68619
 C614 C 0.47706 0.38995 0.64877
 C615 C 0.48011 0.40784 0.60468
 C616 C 0.50046 0.45106 0.59574
 C617 C 0.51860 0.47426 0.63432
 C618 C 0.51570 0.45649 0.67842
 H619 H 0.44668 0.27721 0.84355
 H620 H 0.44912 0.23620 0.91454
 H621 H 0.53611 0.34202 0.97241
 H622 H 0.53272 0.38322 0.90027
 H623 H 0.47759 0.42420 0.84442
 H624 H 0.47906 0.45821 0.76784
 H625 H 0.50940 0.32473 0.70988
 H626 H 0.50698 0.29103 0.78585
 H627 H 0.46089 0.35683 0.65340
 H628 H 0.46839 0.38593 0.57810
 H629 H 0.53790 0.50526 0.63112
 H630 H 0.53135 0.47541 0.70628
 C631 C 0.67553 0.87197 0.50388
 C632 C 0.65420 0.91288 0.51867
 C633 C 0.67822 0.95459 0.51766
 C634 C 0.72366 0.95648 0.50049
 C635 C 0.74498 0.91476 0.48749
 C636 C 0.72109 0.87360 0.48814
 C637 C 0.65137 0.82720 0.50519
 C638 C 0.67577 0.78719 0.51735
 C639 C 0.65509 0.74425 0.51418
 C640 C 0.60929 0.74033 0.49950
 C641 C 0.58399 0.78027 0.48930
 C642 C 0.60495 0.82342 0.49190
 C643 C 0.58834 0.69441 0.49528
 C644 C 0.54598 0.68517 0.51564
 C645 C 0.52832 0.64073 0.51513
 C646 C 0.55144 0.60357 0.49338
 C647 C 0.59375 0.61453 0.47209
 C648 C 0.61199 0.65878 0.47323
 H649 H 0.61944 0.91241 0.53217
 H650 H 0.66149 0.98491 0.53135
 H651 H 0.78067 0.91392 0.47663
 H652 H 0.73857 0.84287 0.47621
 H653 H 0.71116 0.78903 0.52899
 H654 H 0.67486 0.71398 0.52334
 H655 H 0.54848 0.77792 0.47807
 H656 H 0.58537 0.85358 0.48211
 H657 H 0.52732 0.71197 0.53370
 H658 H 0.49708 0.63612 0.53410
 H659 H 0.61468 0.58901 0.45635
 H660 H 0.64508 0.66502 0.45725
 C661 C 0.68730 0.13531 0.49470
 C662 C 0.66601 0.09733 0.47386
 C663 C 0.68647 0.05360 0.47610
 C664 C 0.72782 0.04670 0.50063
 C665 C 0.75010 0.08587 0.51852
 C666 C 0.73004 0.12912 0.51603
 C667 C 0.66578 0.18161 0.49492
 C668 C 0.66862 0.20899 0.53445
 C669 C 0.65118 0.25358 0.53478
 C670 C 0.62979 0.27186 0.49579
 C671 C 0.62641 0.24446 0.45624
 C672 C 0.64422 0.19964 0.45582
 C673 C 0.60975 0.31876 0.49740
 C674 C 0.61356 0.34893 0.46051
 C675 C 0.59316 0.39253 0.46252
 C676 C 0.56784 0.40790 0.50110
 C677 C 0.56651 0.37722 0.53821
 C678 C 0.58655 0.33378 0.53652
 H679 H 0.63342 0.10134 0.45623
 H680 H 0.67002 0.02541 0.45842
 H681 H 0.78364 0.08321 0.53453
 H682 H 0.74843 0.15800 0.53053
 H683 H 0.68446 0.19589 0.56533
 H684 H 0.65478 0.27392 0.56562
 H685 H 0.60955 0.25749 0.42587
 H686 H 0.64187 0.17943 0.42478
 H687 H 0.63231 0.33889 0.43003
 H688 H 0.59745 0.41361 0.43318
 H689 H 0.54987 0.38510 0.56918
 H690 H 0.58267 0.31140 0.56577
 C691 C 0.31740 0.86663 0.49544
 C692 C 0.32902 0.90147 0.46434
 C693 C 0.30881 0.94522 0.46778
 C694 C 0.27717 0.95583 0.50304
 C695 C 0.26507 0.91984 0.53319
 C696 C 0.28547 0.87663 0.53000
 C697 C 0.33747 0.81962 0.49190
 C698 C 0.31031 0.78085 0.50162
 C699 C 0.32948 0.73676 0.50087
 C700 C 0.37607 0.73032 0.48972
 C701 C 0.40314 0.76883 0.47916
 C702 C 0.38407 0.81304 0.48035
 C703 C 0.39636 0.68356 0.48858
 C704 C 0.42432 0.67014 0.45216
 C705 C 0.44507 0.62691 0.45172
 C706 C 0.43926 0.59474 0.48723
 C707 C 0.41022 0.60911 0.52344
 C708 C 0.38874 0.65229 0.52397
 H709 H 0.35280 0.89459 0.43659
 H710 H 0.31742 0.97078 0.44241
 H711 H 0.23874 0.92388 0.55902
 H712 H 0.27577 0.85078 0.55471
 H713 H 0.27403 0.78452 0.50962
 H714 H 0.30774 0.70759 0.50840
 H715 H 0.43933 0.76476 0.47085
 H716 H 0.40607 0.84212 0.47327
 H717 H 0.43044 0.69327 0.42387
 H718 H 0.46595 0.62005 0.42314
 H719 H 0.40413 0.58793 0.55231
 H720 H 0.36741 0.66178 0.55293
 C721 C 0.33502 0.12762 0.50876
 C722 C 0.28693 0.12946 0.50653
 C723 C 0.26139 0.08922 0.50415
 C724 C 0.28298 0.04556 0.50431
 C725 C 0.33157 0.04401 0.50797
 C726 C 0.35730 0.08473 0.50923
 C727 C 0.36110 0.17101 0.51021
 C728 C 0.39049 0.18284 0.47416
 C729 C 0.40988 0.22673 0.47226
 C730 C 0.40087 0.25938 0.50688
 C731 C 0.37294 0.24639 0.54400
 C732 C 0.35286 0.20288 0.54534
 C733 C 0.41915 0.30712 0.50365
 C734 C 0.39353 0.34467 0.52005
 C735 C 0.41050 0.38941 0.51673
 C736 C 0.45375 0.39914 0.49659
 C737 C 0.47765 0.36077 0.47828
 C738 C 0.46144 0.31594 0.48249
 H739 H 0.26910 0.16225 0.50609
 H740 H 0.22418 0.09200 0.50219
 H741 H 0.34999 0.01184 0.51071
 H742 H 0.39453 0.08281 0.51156
 H743 H 0.39666 0.15887 0.44640
 H744 H 0.43047 0.23548 0.44272
 H745 H 0.36610 0.27001 0.57186
 H746 H 0.33023 0.19426 0.57348
 H747 H 0.35959 0.33980 0.53461
 H748 H 0.38777 0.41590 0.52796
 H749 H 0.50858 0.36455 0.45875
 H750 H 0.48235 0.28821 0.46888
   
