data_POSCAR
  _audit_creation_date              2014-09-24
  _audit_creation_method            'ToBaCCo'
  _symmetry_space_group_name_H-M    'P1'
  _symmetry_Int_Tables_number       1
  _symmetry_cell_setting            triclinic
  loop_
  _symmetry_equiv_pos_as_xyz
 x,y,z
_cell_length_a 59.7361
_cell_length_b 60.5664
_cell_length_c 60.0113
_cell_angle_alpha 90.043300
_cell_angle_beta 89.990600
_cell_angle_gamma 89.676000
loop_
  _atom_site_label
  _atom_site_type_symbol
  _atom_site_fract_x
  _atom_site_fract_y
  _atom_site_fract_z
N1 N 0.26203 0.21767 0.20046
 N2 N 0.25407 0.23676 0.19365
 C3 C 0.26568 0.24336 0.17564
 C4 C 0.28191 0.22757 0.17088
 C5 C 0.27900 0.21148 0.18705
 H6 H 0.26276 0.25873 0.16696
 H7 H 0.28859 0.19644 0.18910
 Cu8 Cu 0.22989 0.25173 0.20932
 Cu9 Cu 0.25038 0.20273 0.22668
 Cu10 Cu 0.20333 0.22573 0.25127
 N11 N 0.20152 0.26243 0.22109
 N12 N 0.19123 0.25233 0.23748
 C13 C 0.17245 0.26360 0.24265
 C14 C 0.17082 0.28181 0.22873
 C15 C 0.18962 0.28045 0.21523
 H16 H 0.16093 0.25889 0.25566
 H17 H 0.19456 0.29190 0.20236
 N18 N 0.21816 0.19889 0.26273
 N19 N 0.23611 0.19014 0.25337
 C20 C 0.24262 0.17241 0.26528
 C21 C 0.22807 0.16980 0.28307
 C22 C 0.21276 0.18694 0.28084
 H23 H 0.25699 0.16222 0.26134
 H24 H 0.19897 0.19075 0.29187
 H25 H 0.21847 0.21540 0.22201
 H26 H 0.23662 0.22980 0.24280
 N27 N 0.73901 -0.21726 0.19949
 N28 N 0.74847 -0.23498 0.19098
 C29 C 0.73678 -0.24138 0.17293
 C30 C 0.71888 -0.22691 0.16989
 C31 C 0.72100 -0.21177 0.18718
 H32 H 0.74094 -0.25568 0.16297
 H33 H 0.71020 -0.19788 0.19085
 Cu34 Cu 0.77479 -0.24821 0.20478
 Cu35 Cu 0.75035 -0.20291 0.22626
 Cu36 Cu 0.79751 -0.22614 0.25082
 N37 N 0.80136 -0.26102 0.21852
 N38 N 0.81013 -0.25233 0.23654
 C39 C 0.82796 -0.26449 0.24283
 C40 C 0.83061 -0.28193 0.22796
 C41 C 0.81332 -0.27904 0.21271
 H42 H 0.83802 -0.26088 0.25732
 H43 H 0.80947 -0.28934 0.19854
 N44 N 0.78228 -0.19965 0.26271
 N45 N 0.76433 -0.19084 0.25339
 C46 C 0.75771 -0.17327 0.26554
 C47 C 0.77216 -0.17084 0.28341
 C48 C 0.78754 -0.18789 0.28102
 H49 H 0.74340 -0.16301 0.26163
 H50 H 0.80135 -0.19170 0.29200
 H51 H 0.78322 -0.21297 0.22241
 H52 H 0.76499 -0.23071 0.24010
 N53 N 0.74212 0.21843 0.80201
 N54 N 0.75127 0.23626 0.81042
 C55 C 0.73934 0.24279 0.82832
 C56 C 0.72173 0.22827 0.83133
 C57 C 0.72411 0.21299 0.81426
 H58 H 0.74314 0.25710 0.83836
 H59 H 0.71331 0.19919 0.81068
 Cu60 Cu 0.77752 0.24943 0.79669
 Cu61 Cu 0.75377 0.20393 0.77539
 Cu62 Cu 0.80080 0.22702 0.75097
 N63 N 0.80405 0.26213 0.78304
 N64 N 0.81306 0.25328 0.76516
 C65 C 0.83080 0.26537 0.75889
 C66 C 0.83317 0.28294 0.77363
 C67 C 0.81578 0.28019 0.78878
 H68 H 0.84100 0.26164 0.74450
 H69 H 0.81173 0.29061 0.80283
 N70 N 0.78594 0.20047 0.73913
 N71 N 0.76804 0.19172 0.74840
 C72 C 0.76164 0.17414 0.73626
 C73 C 0.77619 0.17164 0.71844
 C74 C 0.79139 0.18867 0.72087
 H75 H 0.74739 0.16392 0.74011
 H76 H 0.80519 0.19246 0.70991
 H77 H 0.78649 0.21405 0.77939
 H78 H 0.76815 0.23164 0.76146
 N79 N 0.25872 -0.21731 0.80273
 N80 N 0.24950 -0.23511 0.81110
 C81 C 0.26135 -0.24165 0.82904
 C82 C 0.27898 -0.22717 0.83211
 C83 C 0.27670 -0.21191 0.81504
 H84 H 0.25747 -0.25594 0.83906
 H85 H 0.28755 -0.19814 0.81149
 Cu86 Cu 0.22326 -0.24823 0.79729
 Cu87 Cu 0.24720 -0.20281 0.77608
 Cu88 Cu 0.20017 -0.22578 0.75153
 N89 N 0.19672 -0.26086 0.78357
 N90 N 0.18779 -0.25199 0.76567
 C91 C 0.17004 -0.26404 0.75934
 C92 C 0.16759 -0.28159 0.77405
 C93 C 0.18493 -0.27888 0.78925
 H94 H 0.15989 -0.26029 0.74492
 H95 H 0.18893 -0.28931 0.80330
 N96 N 0.21515 -0.19929 0.73975
 N97 N 0.23305 -0.19058 0.74906
 C98 C 0.23955 -0.17303 0.73695
 C99 C 0.22505 -0.17050 0.71911
 C100 C 0.20978 -0.18748 0.72149
 H101 H 0.25382 -0.16286 0.74084
 H102 H 0.19599 -0.19123 0.71050
 H103 H 0.21444 -0.21284 0.78000
 H104 H 0.23277 -0.23049 0.76210
 N105 N 0.73649 -0.22074 0.79618
 N106 N 0.74392 -0.24042 0.80174
 C107 C 0.73216 -0.24782 0.81932
 C108 C 0.71638 -0.23194 0.82511
 C109 C 0.71971 -0.21495 0.80999
 H110 H 0.73470 -0.26376 0.82703
 H111 H 0.71058 -0.19954 0.80895
 Cu112 Cu 0.76776 -0.25494 0.78518
 Cu113 Cu 0.74858 -0.20447 0.77099
 Cu114 Cu 0.79542 -0.22681 0.74545
 N115 N 0.79614 -0.26534 0.77322
 N116 N 0.80690 -0.25437 0.75774
 C117 C 0.82568 -0.26549 0.75229
 C118 C 0.82688 -0.28460 0.76508
 C119 C 0.80771 -0.28379 0.77823
 H120 H 0.83742 -0.26000 0.73981
 H121 H 0.80235 -0.29570 0.79048
 N122 N 0.78118 -0.19911 0.73551
 N123 N 0.76329 -0.19061 0.74521
 C124 C 0.75710 -0.17219 0.73421
 C125 C 0.77181 -0.16889 0.71669
 C126 C 0.78687 -0.18631 0.71810
 H127 H 0.74281 -0.16206 0.73854
 H128 H 0.80062 -0.18979 0.70691
 H129 H 0.76193 -0.23071 0.75321
 H130 H 0.78013 -0.21814 0.77515
 N131 N 0.25977 0.21759 0.80057
 N132 N 0.24844 0.23368 0.81008
 C133 C 0.26002 0.24114 0.82778
 C134 C 0.27970 0.22901 0.82952
 C135 C 0.27890 0.21421 0.81191
 H136 H 0.25444 0.25438 0.83855
 H137 H 0.29142 0.20205 0.80741
 Cu138 Cu 0.21972 0.24348 0.79847
 Cu139 Cu 0.24904 0.20241 0.77408
 Cu140 Cu 0.20166 0.22413 0.74903
 N141 N 0.19561 0.25783 0.78219
 N142 N 0.18861 0.25025 0.76292
 C143 C 0.17203 0.26336 0.75532
 C144 C 0.16841 0.28014 0.77066
 C145 C 0.18375 0.27603 0.78752
 H146 H 0.16329 0.26079 0.73978
 H147 H 0.18640 0.28571 0.80242
 N148 N 0.21736 0.19774 0.73768
 N149 N 0.23546 0.18948 0.74719
 C150 C 0.24241 0.17176 0.73547
 C151 C 0.22800 0.16866 0.71767
 C152 C 0.21230 0.18548 0.71967
 H153 H 0.25688 0.16182 0.73966
 H154 H 0.19840 0.18878 0.70864
 H155 H 0.23285 0.23042 0.76248
 H156 H 0.21523 0.20948 0.77713
 N157 N 0.26064 -0.22002 0.20010
 N158 N 0.25148 -0.23812 0.19231
 C159 C 0.26357 -0.24543 0.17482
 C160 C 0.28133 -0.23117 0.17147
 C161 C 0.27885 -0.21522 0.18787
 H162 H 0.25993 -0.26024 0.16548
 H163 H 0.28947 -0.20113 0.19081
 Cu164 Cu 0.22496 -0.25054 0.20620
 Cu165 Cu 0.24865 -0.20425 0.22580
 Cu166 Cu 0.20100 -0.22583 0.25038
 N167 N 0.19807 -0.26234 0.21995
 N168 N 0.18882 -0.25260 0.23724
 C169 C 0.17087 -0.26427 0.24377
 C170 C 0.16867 -0.28236 0.22981
 C171 C 0.18627 -0.28054 0.21486
 H172 H 0.16026 -0.25987 0.25768
 H173 H 0.19045 -0.29185 0.20154
 N174 N 0.21583 -0.19889 0.26121
 N175 N 0.23400 -0.19072 0.25192
 C176 C 0.24038 -0.17272 0.26343
 C177 C 0.22551 -0.16936 0.28084
 C178 C 0.21016 -0.18629 0.27885
 H179 H 0.25484 -0.16285 0.25947
 H180 H 0.19617 -0.18953 0.28975
 H181 H 0.23380 -0.23120 0.24072
 H182 H 0.21595 -0.21434 0.22161
 N183 N 0.73900 0.21970 0.19984
 N184 N 0.74813 0.23782 0.19210
 C185 C 0.73607 0.24510 0.17460
 C186 C 0.71836 0.23078 0.17117
 C187 C 0.72084 0.21484 0.18757
 H188 H 0.73971 0.25990 0.16528
 H189 H 0.71025 0.20072 0.19044
 Cu190 Cu 0.77460 0.25032 0.20602
 Cu191 Cu 0.75101 0.20395 0.22552
 Cu192 Cu 0.79863 0.22559 0.25011
 N193 N 0.80149 0.26213 0.21978
 N194 N 0.81077 0.25239 0.23703
 C195 C 0.82873 0.26405 0.24354
 C196 C 0.83089 0.28216 0.22961
 C197 C 0.81327 0.28034 0.21470
 H198 H 0.83936 0.25965 0.25742
 H199 H 0.80907 0.29164 0.20140
 N200 N 0.78385 0.19864 0.26091
 N201 N 0.76568 0.19044 0.25163
 C202 C 0.75935 0.17242 0.26311
 C203 C 0.77425 0.16907 0.28048
 C204 C 0.78956 0.18604 0.27851
 H205 H 0.74490 0.16251 0.25914
 H206 H 0.80356 0.18929 0.28939
 H207 H 0.76580 0.23091 0.24049
 H208 H 0.78368 0.21411 0.22131
 C209 C 0.23803 0.01032 0.47993
 C210 C 0.23495 -0.01283 0.47962
 C211 C 0.23350 -0.02433 0.49985
 C212 C 0.23515 -0.01340 0.52040
 C213 C 0.23830 0.00974 0.52072
 C214 C 0.23993 0.02122 0.50048
 H215 H 0.24174 0.03903 0.50073
 H216 H 0.23155 -0.04212 0.49960
 C217 C 0.76626 0.01370 0.52008
 C218 C 0.76313 -0.00943 0.52054
 C219 C 0.76139 -0.02105 0.50037
 C220 C 0.76314 -0.01028 0.47975
 C221 C 0.76623 0.01286 0.47930
 C222 C 0.76780 0.02450 0.49947
 H223 H 0.76973 0.04229 0.49911
 H224 H 0.75958 -0.03885 0.50073
 C225 C 0.47920 0.24227 0.01048
 C226 C 0.47962 0.24241 -0.01309
 C227 C 0.50032 0.24251 -0.02416
 C228 C 0.52060 0.24224 -0.01236
 C229 C 0.52016 0.24210 0.01120
 C230 C 0.49947 0.24224 0.02227
 H231 H 0.49914 0.24205 0.04034
 H232 H 0.50065 0.24253 -0.04223
 C233 C 0.48021 0.75861 0.01222
 C234 C 0.47978 0.75871 -0.01134
 C235 C 0.50006 0.75871 -0.02314
 C236 C 0.52075 0.75882 -0.01207
 C237 C 0.52118 0.75870 0.01150
 C238 C 0.50090 0.75849 0.02329
 H239 H 0.50122 0.75849 0.04136
 H240 H 0.49974 0.75887 -0.04121
 C241 C 0.01158 0.47955 0.23751
 C242 C -0.01210 0.47979 0.23753
 C243 C -0.02352 0.50010 0.23771
 C244 C -0.01195 0.52020 0.23768
 C245 C 0.01173 0.51996 0.23759
 C246 C 0.02315 0.49964 0.23761
 H247 H 0.04130 0.49947 0.23751
 H248 H -0.04167 0.50028 0.23769
 C249 C 0.01251 0.48058 0.76196
 C250 C -0.01117 0.48038 0.76190
 C251 C -0.02294 0.50049 0.76171
 C252 C -0.01173 0.52079 0.76177
 C253 C 0.01195 0.52100 0.76186
 C254 C 0.02372 0.50089 0.76185
 H255 H 0.04187 0.50104 0.76197
 H256 H -0.04109 0.50034 0.76171
 C257 C 0.31517 0.24562 0.12012
 C258 C 0.33288 0.23042 0.12026
 C259 C 0.33368 0.21399 0.13661
 C260 C 0.31699 0.21288 0.15289
 C261 C 0.29922 0.22826 0.15311
 C262 C 0.29845 0.24456 0.13639
 C263 C 0.35062 0.23204 0.10411
 C264 C 0.36579 0.23346 0.09095
 C265 C 0.38394 0.23518 0.07600
 C266 C 0.39978 0.23671 0.06366
 C267 C 0.41911 0.23860 0.04948
 C268 C 0.42338 0.22274 0.03299
 C269 C 0.44278 0.22407 0.02001
 C270 C 0.45804 0.24133 0.02335
 C271 C 0.45355 0.25726 0.03980
 C272 C 0.43417 0.25592 0.05276
 H273 H 0.31439 0.25843 0.10754
 H274 H 0.34736 0.20216 0.13693
 H275 H 0.31831 0.20016 0.16546
 H276 H 0.28501 0.25658 0.13582
 H277 H 0.41191 0.20919 0.03041
 H278 H 0.44610 0.21143 0.00765
 H279 H 0.46513 0.27067 0.04266
 H280 H 0.43108 0.26823 0.06551
 C281 C 0.66769 0.78697 0.13682
 C282 C 0.66782 0.77009 0.12094
 C283 C 0.68508 0.75441 0.12101
 C284 C 0.70206 0.75548 0.13701
 C285 C 0.70207 0.77228 0.15335
 C286 C 0.68462 0.78812 0.15285
 C287 C 0.64992 0.76854 0.10497
 C288 C 0.63465 0.76718 0.09192
 C289 C 0.61643 0.76552 0.07704
 C290 C 0.60057 0.76404 0.06472
 C291 C 0.58124 0.76222 0.05054
 C292 C 0.56622 0.74483 0.05365
 C293 C 0.54685 0.74353 0.04068
 C294 C 0.54233 0.75958 0.02438
 C295 C 0.55754 0.77692 0.02122
 C296 C 0.57693 0.77820 0.03421
 H297 H 0.65437 0.79919 0.13693
 H298 H 0.68533 0.74124 0.10879
 H299 H 0.71498 0.74294 0.13647
 H300 H 0.68373 0.80141 0.16484
 H301 H 0.56935 0.73242 0.06629
 H302 H 0.53531 0.73007 0.04340
 H303 H 0.55419 0.78965 0.00898
 H304 H 0.58837 0.79180 0.03176
 C305 C 0.68367 0.24935 -0.12247
 C306 C 0.66905 0.23159 -0.11983
 C307 C 0.67187 0.21259 -0.13282
 C308 C 0.68912 0.21141 -0.14853
 C309 C 0.70381 0.22927 -0.15152
 C310 C 0.70095 0.24821 -0.13817
 C311 C 0.65076 0.23306 -0.10425
 C312 C 0.63519 0.23433 -0.09152
 C313 C 0.61665 0.23585 -0.07700
 C314 C 0.60055 0.23719 -0.06496
 C315 C 0.58097 0.23885 -0.05105
 C316 C 0.56573 0.25620 -0.05426
 C317 C 0.54622 0.25741 -0.04145
 C318 C 0.54178 0.24133 -0.02522
 C319 C 0.55719 0.22399 -0.02200
 C320 C 0.57671 0.22280 -0.03483
 H321 H 0.68159 0.26418 -0.11255
 H322 H 0.66064 0.19874 -0.13091
 H323 H 0.69086 0.19648 -0.15828
 H324 H 0.71177 0.26234 -0.14002
 H325 H 0.56881 0.26867 -0.06681
 H326 H 0.53453 0.27088 -0.04422
 H327 H 0.55391 0.21123 -0.00982
 H328 H 0.58832 0.20923 -0.03230
 C329 C 0.32873 0.78844 -0.13187
 C330 C 0.33150 0.76943 -0.11891
 C331 C 0.31686 0.75169 -0.12163
 C332 C 0.29963 0.75285 -0.13737
 C333 C 0.29684 0.77180 -0.15069
 C334 C 0.31154 0.78964 -0.14763
 C335 C 0.34974 0.76792 -0.10330
 C336 C 0.36528 0.76664 -0.09054
 C337 C 0.38379 0.76510 -0.07600
 C338 C 0.39987 0.76374 -0.06394
 C339 C 0.41943 0.76207 -0.05003
 C340 C 0.43479 0.74484 -0.05341
 C341 C 0.45429 0.74363 -0.04060
 C342 C 0.45860 0.75960 -0.02419
 C343 C 0.44308 0.77681 -0.02080
 C344 C 0.42357 0.77799 -0.03362
 H345 H 0.33998 0.80228 -0.12991
 H346 H 0.31889 0.73685 -0.11173
 H347 H 0.28880 0.73873 -0.13928
 H348 H 0.30984 0.80458 -0.15735
 H349 H 0.43180 0.73247 -0.06610
 H350 H 0.46606 0.73027 -0.04350
 H351 H 0.44626 0.78948 -0.00847
 H352 H 0.41186 0.79147 -0.03096
 C353 C 0.12184 0.31793 0.24682
 C354 C 0.12109 0.33351 0.22964
 C355 C 0.13625 0.33195 0.21193
 C356 C 0.15224 0.31501 0.21149
 C357 C 0.15334 0.29937 0.22882
 C358 C 0.13781 0.30096 0.24642
 C359 C 0.10524 0.35150 0.23048
 C360 C 0.09229 0.36682 0.23128
 C361 C 0.07753 0.38507 0.23234
 C362 C 0.06529 0.40094 0.23336
 C363 C 0.05116 0.42023 0.23473
 C364 C 0.03480 0.42422 0.21848
 C365 C 0.02170 0.44343 0.21944
 C366 C 0.02479 0.45876 0.23675
 C367 C 0.04117 0.45459 0.25303
 C368 C 0.05424 0.43542 0.25203
 H369 H 0.11023 0.31903 0.26065
 H370 H 0.13583 0.34393 0.19854
 H371 H 0.16371 0.31427 0.19757
 H372 H 0.13816 0.28937 0.26011
 H373 H 0.03236 0.41264 0.20494
 H374 H 0.00940 0.44648 0.20655
 H375 H 0.04382 0.46622 0.26648
 H376 H 0.06689 0.43253 0.26465
 C377 C 0.11949 0.68362 0.75560
 C378 C 0.11991 0.66686 0.77158
 C379 C 0.13587 0.66737 0.78860
 C380 C 0.15148 0.68445 0.78956
 C381 C 0.15148 0.70141 0.77341
 C382 C 0.13507 0.70075 0.75648
 C383 C 0.10434 0.64885 0.77027
 C384 C 0.09159 0.63352 0.76914
 C385 C 0.07703 0.61529 0.76775
 C386 C 0.06495 0.59946 0.76651
 C387 C 0.05097 0.58023 0.76496
 C388 C 0.03446 0.57630 0.78103
 C389 C 0.02153 0.55714 0.77993
 C390 C 0.02494 0.54178 0.76268
 C391 C 0.04146 0.54588 0.74657
 C392 C 0.05437 0.56502 0.74769
 H393 H 0.10720 0.68338 0.74232
 H394 H 0.13636 0.65445 0.80107
 H395 H 0.16355 0.68407 0.80296
 H396 H 0.13416 0.71328 0.74370
 H397 H 0.03178 0.58789 0.79454
 H398 H 0.00912 0.55413 0.79271
 H399 H 0.04438 0.53423 0.73317
 H400 H 0.06715 0.56786 0.73522
 C401 C -0.13710 0.66715 0.21288
 C402 C -0.12123 0.66640 0.22997
 C403 C -0.12108 0.68295 0.24622
 C404 C -0.13683 0.70011 0.24550
 C405 C -0.15314 0.70102 0.22847
 C406 C -0.15288 0.68426 0.21209
 C407 C -0.10548 0.64836 0.23108
 C408 C -0.09259 0.63299 0.23200
 C409 C -0.07788 0.61471 0.23311
 C410 C -0.06566 0.59882 0.23409
 C411 C -0.05153 0.57953 0.23534
 C412 C -0.05456 0.56428 0.25258
 C413 C -0.04149 0.54510 0.25343
 C414 C -0.02516 0.54099 0.23708
 C415 C -0.02213 0.55638 0.21984
 C416 C -0.03522 0.57559 0.21902
 H417 H -0.13738 0.65440 0.20021
 H418 H -0.10887 0.68251 0.25956
 H419 H -0.13613 0.71247 0.25847
 H420 H -0.16485 0.68407 0.19860
 H421 H -0.06718 0.56713 0.26526
 H422 H -0.04411 0.53342 0.26683
 H423 H -0.00986 0.55337 0.20689
 H424 H -0.03282 0.58721 0.20552
 C425 C -0.13523 0.33401 0.78836
 C426 C -0.11922 0.33455 0.77139
 C427 C -0.11874 0.31781 0.75536
 C428 C -0.13430 0.30066 0.75617
 C429 C -0.15076 0.29996 0.77306
 C430 C -0.15083 0.31692 0.78924
 C431 C -0.10365 0.35258 0.77016
 C432 C -0.09090 0.36791 0.76909
 C433 C -0.07633 0.38614 0.76776
 C434 C -0.06424 0.40196 0.76655
 C435 C -0.05025 0.42118 0.76502
 C436 C -0.03388 0.42522 0.78121
 C437 C -0.02093 0.44437 0.78011
 C438 C -0.02418 0.45961 0.76274
 C439 C -0.04057 0.45540 0.74653
 C440 C -0.05349 0.43627 0.74764
 H441 H -0.13577 0.34692 0.80086
 H442 H -0.10641 0.31807 0.74212
 H443 H -0.13334 0.28814 0.74336
 H444 H -0.16293 0.31728 0.80261
 H445 H -0.03132 0.41373 0.79480
 H446 H -0.00863 0.44747 0.79297
 H447 H -0.04335 0.46696 0.73303
 H448 H -0.06615 0.43335 0.73507
 C449 C 0.21226 0.13460 0.33297
 C450 C 0.23138 0.12139 0.33546
 C451 C 0.24930 0.12376 0.32067
 C452 C 0.24819 0.13937 0.30354
 C453 C 0.22910 0.15289 0.30097
 C454 C 0.21110 0.15023 0.31586
 C455 C 0.23273 0.10569 0.35342
 C456 C 0.23382 0.09276 0.36865
 C457 C 0.23503 0.07788 0.38671
 C458 C 0.23597 0.06542 0.40234
 C459 C 0.23695 0.05087 0.42128
 C460 C 0.21949 0.03608 0.42535
 C461 C 0.21996 0.02264 0.44428
 C462 C 0.23799 0.02377 0.45928
 C463 C 0.25551 0.03856 0.45503
 C464 C 0.25501 0.05200 0.43611
 H465 H 0.19827 0.13290 0.34432
 H466 H 0.26421 0.11365 0.32247
 H467 H 0.26244 0.14097 0.29256
 H468 H 0.19606 0.16013 0.31436
 H469 H 0.20537 0.03516 0.41407
 H470 H 0.20609 0.01164 0.44743
 H471 H 0.26952 0.03974 0.46642
 H472 H 0.26857 0.06344 0.43317
 C473 C 0.79243 0.13665 0.66835
 C474 C 0.77341 0.12354 0.66568
 C475 C 0.75540 0.12592 0.68041
 C476 C 0.75634 0.14143 0.69766
 C477 C 0.77533 0.15484 0.70041
 C478 C 0.79341 0.15217 0.68557
 C479 C 0.77225 0.10796 0.64758
 C480 C 0.77135 0.09515 0.63223
 C481 C 0.77041 0.08045 0.61398
 C482 C 0.76973 0.06819 0.59817
 C483 C 0.76910 0.05393 0.57897
 C484 C 0.75115 0.03950 0.57579
 C485 C 0.75026 0.02622 0.55673
 C486 C 0.76740 0.02719 0.54071
 C487 C 0.78538 0.04166 0.54406
 C488 C 0.78624 0.05492 0.56310
 H489 H 0.80648 0.13494 0.65705
 H490 H 0.74056 0.11590 0.67846
 H491 H 0.74203 0.14305 0.70858
 H492 H 0.80839 0.16199 0.68721
 H493 H 0.73773 0.03868 0.58791
 H494 H 0.73608 0.01541 0.55432
 H495 H 0.79876 0.04267 0.53192
 H496 H 0.80018 0.06607 0.56536
 C497 C 0.20900 -0.13547 0.66905
 C498 C 0.22808 -0.12246 0.66639
 C499 C 0.24607 -0.12491 0.68112
 C500 C 0.24505 -0.14040 0.69836
 C501 C 0.22599 -0.15372 0.70109
 C502 C 0.20793 -0.15097 0.68626
 C503 C 0.22933 -0.10692 0.64829
 C504 C 0.23027 -0.09416 0.63291
 C505 C 0.23123 -0.07954 0.61464
 C506 C 0.23190 -0.06736 0.59877
 C507 C 0.23249 -0.05323 0.57950
 C508 C 0.25046 -0.03885 0.57617
 C509 C 0.25129 -0.02569 0.55704
 C510 C 0.23408 -0.02674 0.54110
 C511 C 0.21608 -0.04115 0.54461
 C512 C 0.21528 -0.05428 0.56372
 H513 H 0.19496 -0.13370 0.65775
 H514 H 0.26097 -0.11497 0.67918
 H515 H 0.25935 -0.14208 0.70928
 H516 H 0.19291 -0.16071 0.68789
 H517 H 0.26393 -0.03798 0.58822
 H518 H 0.26548 -0.01493 0.55451
 H519 H 0.20265 -0.04221 0.53254
 H520 H 0.20132 -0.06539 0.56610
 C521 C 0.78802 -0.13570 0.33340
 C522 C 0.76892 -0.12247 0.33593
 C523 C 0.75096 -0.12486 0.32120
 C524 C 0.75203 -0.14048 0.30405
 C525 C 0.77113 -0.15399 0.30141
 C526 C 0.78914 -0.15134 0.31628
 C527 C 0.76765 -0.10668 0.35385
 C528 C 0.76663 -0.09365 0.36901
 C529 C 0.76553 -0.07862 0.38698
 C530 C 0.76469 -0.06602 0.40253
 C531 C 0.76383 -0.05130 0.42136
 C532 C 0.74589 -0.05233 0.43634
 C533 C 0.74551 -0.03873 0.45517
 C534 C 0.76304 -0.02388 0.45918
 C535 C 0.78094 -0.02284 0.44402
 C536 C 0.78129 -0.03644 0.42518
 H537 H 0.80204 -0.13398 0.34471
 H538 H 0.73605 -0.11475 0.32303
 H539 H 0.73777 -0.14209 0.29309
 H540 H 0.80419 -0.16123 0.31472
 H541 H 0.73232 -0.06382 0.43359
 H542 H 0.73159 -0.03983 0.46668
 H543 H 0.79482 -0.01180 0.44698
 H544 H 0.79533 -0.03561 0.41379
 C545 C 0.68289 0.74807 -0.12502
 C546 C 0.66582 0.76394 -0.12399
 C547 C 0.66547 0.78133 -0.13930
 C548 C 0.68200 0.78279 -0.15570
 C549 C 0.69916 0.76682 -0.15707
 C550 C 0.69946 0.74949 -0.14142
 C551 C 0.64832 0.76223 -0.10761
 C552 C 0.63328 0.76108 -0.09427
 C553 C 0.61523 0.76012 -0.07916
 C554 C 0.59941 0.75966 -0.06670
 C555 C 0.58006 0.75959 -0.05242
 C556 C 0.56360 0.77592 -0.05503
 C557 C 0.54441 0.77569 -0.04176
 C558 C 0.54147 0.75915 -0.02565
 C559 C 0.55806 0.74280 -0.02305
 C560 C 0.57729 0.74305 -0.03637
 H561 H 0.68332 0.73453 -0.11324
 H562 H 0.65229 0.79368 -0.13869
 H563 H 0.68104 0.79630 -0.16743
 H564 H 0.71244 0.73697 -0.14177
 H565 H 0.56555 0.78877 -0.06743
 H566 H 0.53184 0.78845 -0.04400
 H567 H 0.55598 0.72974 -0.01092
 H568 H 0.58988 0.73027 -0.03429
 C569 C 0.31567 0.25220 -0.12385
 C570 C 0.33244 0.23606 -0.12222
 C571 C 0.33186 0.21758 -0.13618
 C572 C 0.31469 0.21524 -0.15178
 C573 C 0.29777 0.23141 -0.15368
 C574 C 0.29844 0.24990 -0.13945
 C575 C 0.35045 0.23844 -0.10650
 C576 C 0.36588 0.23999 -0.09366
 C577 C 0.38433 0.24128 -0.07905
 C578 C 0.40043 0.24190 -0.06697
 C579 C 0.42006 0.24205 -0.05308
 C580 C 0.43654 0.22580 -0.05605
 C581 C 0.45586 0.22595 -0.04295
 C582 C 0.45889 0.24232 -0.02666
 C583 C 0.44230 0.25863 -0.02375
 C584 C 0.42295 0.25846 -0.03688
 H585 H 0.31599 0.26662 -0.11315
 H586 H 0.34475 0.20496 -0.13505
 H587 H 0.31469 0.20069 -0.16223
 H588 H 0.28584 0.26276 -0.14048
 H589 H 0.43450 0.21305 -0.06854
 H590 H 0.46842 0.21321 -0.04544
 H591 H 0.44445 0.27155 -0.01146
 H592 H 0.41033 0.27116 -0.03451
 C593 C 0.33548 0.77888 0.14001
 C594 C 0.33383 0.76361 0.12261
 C595 C 0.31497 0.75013 0.12101
 C596 C 0.29783 0.75186 0.13682
 C597 C 0.29935 0.76712 0.15447
 C598 C 0.31839 0.78065 0.15582
 C599 C 0.35168 0.76175 0.10659
 C600 C 0.36697 0.76051 0.09354
 C601 C 0.38527 0.75949 0.07870
 C602 C 0.40125 0.75902 0.06645
 C603 C 0.42076 0.75896 0.05238
 C604 C 0.42382 0.74252 0.03622
 C605 C 0.44313 0.74237 0.02301
 C606 C 0.45948 0.75874 0.02581
 C607 C 0.45626 0.77516 0.04204
 C608 C 0.43700 0.77529 0.05522
 H609 H 0.35005 0.78937 0.14143
 H610 H 0.31351 0.73826 0.10758
 H611 H 0.28341 0.74128 0.13509
 H612 H 0.32033 0.79247 0.16918
 H613 H 0.41140 0.72975 0.03396
 H614 H 0.44543 0.72940 0.01077
 H615 H 0.46865 0.78794 0.04444
 H616 H 0.43482 0.78806 0.06769
 C617 C 0.68495 0.24937 0.12058
 C618 C 0.66607 0.23590 0.12211
 C619 C 0.66435 0.22066 0.13951
 C620 C 0.68138 0.21891 0.15538
 C621 C 0.70042 0.23244 0.15410
 C622 C 0.70202 0.24766 0.13645
 C623 C 0.64828 0.23778 0.10604
 C624 C 0.63306 0.23907 0.09292
 C625 C 0.61484 0.24020 0.07800
 C626 C 0.59893 0.24081 0.06567
 C627 C 0.57950 0.24104 0.05150
 C628 C 0.56318 0.22477 0.05410
 C629 C 0.54396 0.22511 0.04086
 C630 C 0.54088 0.24170 0.02480
 C631 C 0.55733 0.25801 0.02222
 C632 C 0.57659 0.25764 0.03550
 H633 H 0.68646 0.26122 0.10715
 H634 H 0.64978 0.21018 0.14088
 H635 H 0.67939 0.20712 0.16874
 H636 H 0.71645 0.25824 0.13476
 H637 H 0.56524 0.21188 0.06645
 H638 H 0.53149 0.21238 0.04309
 H639 H 0.55514 0.27110 0.01012
 H640 H 0.58908 0.27037 0.03342
 C641 C -0.12186 0.68339 0.74911
 C642 C -0.12367 0.66500 0.76301
 C643 C -0.14167 0.66343 0.77778
 C644 C -0.15791 0.68010 0.77859
 C645 C -0.15648 0.69874 0.76455
 C646 C -0.13807 0.70013 0.74985
 C647 C -0.10731 0.64749 0.76199
 C648 C -0.09399 0.63249 0.76138
 C649 C -0.07886 0.61452 0.76097
 C650 C -0.06639 0.59881 0.76094
 C651 C -0.05210 0.57962 0.76132
 C652 C -0.05497 0.56374 0.77799
 C653 C -0.04169 0.54470 0.77816
 C654 C -0.02531 0.54135 0.76170
 C655 C -0.02244 0.55737 0.74502
 C656 C -0.03576 0.57645 0.74487
 H657 H -0.10796 0.68476 0.73759
 H658 H -0.14323 0.64923 0.78863
 H659 H -0.17155 0.67809 0.79023
 H660 H -0.13603 0.71401 0.73874
 H661 H -0.06760 0.56600 0.79077
 H662 H -0.04415 0.53256 0.79117
 H663 H -0.01009 0.55497 0.73201
 H664 H -0.03347 0.58859 0.73183
 C665 C -0.13409 0.33205 0.21443
 C666 C -0.12052 0.33418 0.23329
 C667 C -0.12256 0.31913 0.25083
 C668 C -0.13821 0.30209 0.24959
 C669 C -0.15210 0.29991 0.23076
 C670 C -0.14976 0.31505 0.21314
 C671 C -0.10488 0.35210 0.23475
 C672 C -0.09210 0.36739 0.23574
 C673 C -0.07754 0.38563 0.23659
 C674 C -0.06550 0.40152 0.23700
 C675 C -0.05164 0.42086 0.23706
 C676 C -0.03553 0.42394 0.25372
 C677 C -0.02252 0.44308 0.25390
 C678 C -0.02546 0.45924 0.23735
 C679 C -0.04164 0.45601 0.22071
 C680 C -0.05462 0.43692 0.22055
 H681 H -0.13264 0.34361 0.20074
 H682 H -0.11218 0.32067 0.26555
 H683 H -0.13959 0.29090 0.26354
 H684 H -0.15994 0.31382 0.19830
 H685 H -0.03317 0.41166 0.26663
 H686 H -0.01033 0.44539 0.26704
 H687 H -0.04415 0.46827 0.20779
 H688 H -0.06706 0.43472 0.20761
 C689 C 0.13239 0.32961 0.78639
 C690 C 0.12114 0.33383 0.76639
 C691 C 0.12518 0.32042 0.74781
 C692 C 0.14046 0.30291 0.74919
 C693 C 0.15197 0.29857 0.76921
 C694 C 0.14769 0.31213 0.78782
 C695 C 0.10575 0.35212 0.76490
 C696 C 0.09309 0.36765 0.76388
 C697 C 0.07859 0.38610 0.76299
 C698 C 0.06653 0.40211 0.76255
 C699 C 0.05258 0.42155 0.76244
 C700 C 0.03642 0.42463 0.74581
 C701 C 0.02325 0.44381 0.74561
 C702 C 0.02608 0.46002 0.76214
 C703 C 0.04233 0.45679 0.77875
 C704 C 0.05546 0.43765 0.77892
 H705 H 0.12939 0.33989 0.80088
 H706 H 0.11660 0.32358 0.73221
 H707 H 0.14338 0.29299 0.73447
 H708 H 0.15603 0.30925 0.80355
 H709 H 0.03411 0.41231 0.73293
 H710 H 0.01101 0.44612 0.73250
 H711 H 0.04475 0.46907 0.79164
 H712 H 0.06794 0.43545 0.79184
 C713 C 0.13362 0.66775 0.21463
 C714 C 0.12010 0.66561 0.23353
 C715 C 0.12218 0.68065 0.25110
 C716 C 0.13783 0.69769 0.24984
 C717 C 0.15167 0.69988 0.23098
 C718 C 0.14928 0.68474 0.21334
 C719 C 0.10446 0.64769 0.23500
 C720 C 0.09168 0.63240 0.23601
 C721 C 0.07713 0.61415 0.23685
 C722 C 0.06510 0.59826 0.23724
 C723 C 0.05125 0.57890 0.23727
 C724 C 0.03521 0.57576 0.25398
 C725 C 0.02221 0.55661 0.25412
 C726 C 0.02509 0.54051 0.23747
 C727 C 0.04121 0.54380 0.22078
 C728 C 0.05418 0.56291 0.22067
 H729 H 0.13213 0.65619 0.20093
 H730 H 0.11184 0.67911 0.26584
 H731 H 0.13925 0.70888 0.26381
 H732 H 0.15943 0.68598 0.19847
 H733 H 0.03288 0.58799 0.26696
 H734 H 0.01007 0.55425 0.26729
 H735 H 0.04368 0.53159 0.20780
 H736 H 0.06657 0.56516 0.20769
 C737 C 0.75090 -0.12164 0.68052
 C738 C 0.76901 -0.11871 0.66607
 C739 C 0.78822 -0.13181 0.66846
 C740 C 0.78924 -0.14795 0.68507
 C741 C 0.77102 -0.15124 0.69955
 C742 C 0.75188 -0.13776 0.69717
 C743 C 0.76769 -0.10274 0.64838
 C744 C 0.76664 -0.08969 0.63326
 C745 C 0.76548 -0.07482 0.61520
 C746 C 0.76459 -0.06249 0.59948
 C747 C 0.76367 -0.04824 0.58032
 C748 C 0.78122 -0.03366 0.57595
 C749 C 0.78090 -0.02072 0.55666
 C750 C 0.76295 -0.02218 0.54162
 C751 C 0.74530 -0.03671 0.54621
 C752 C 0.74565 -0.04965 0.56548
 H753 H 0.73591 -0.11163 0.67877
 H754 H 0.80235 -0.12967 0.65736
 H755 H 0.80433 -0.15779 0.68649
 H756 H 0.73747 -0.13985 0.70784
 H757 H 0.79533 -0.03256 0.58723
 H758 H 0.79486 -0.00990 0.55326
 H759 H 0.73134 -0.03812 0.53479
 H760 H 0.73202 -0.06095 0.56866
 C761 C 0.24660 -0.12334 0.31827
 C762 C 0.22820 -0.12001 0.33233
 C763 C 0.20879 -0.13245 0.32928
 C764 C 0.20781 -0.14832 0.31240
 C765 C 0.22630 -0.15200 0.29830
 C766 C 0.24567 -0.13919 0.30135
 C767 C 0.22942 -0.10434 0.35031
 C768 C 0.23030 -0.09156 0.36568
 C769 C 0.23117 -0.07703 0.38404
 C770 C 0.23175 -0.06502 0.40005
 C771 C 0.23223 -0.05120 0.41954
 C772 C 0.21505 -0.05267 0.43532
 C773 C 0.21585 -0.03998 0.45474
 C774 C 0.23381 -0.02560 0.45857
 C775 C 0.25097 -0.02411 0.44261
 C776 C 0.25015 -0.03682 0.42317
 H777 H 0.26175 -0.11385 0.32054
 H778 H 0.19444 -0.13000 0.34007
 H779 H 0.19255 -0.15763 0.31045
 H780 H 0.26028 -0.14162 0.29097
 H781 H 0.20115 -0.06379 0.43271
 H782 H 0.20246 -0.04137 0.46683
 H783 H 0.26513 -0.01336 0.44539
 H784 H 0.26360 -0.03566 0.41113
 C785 C 0.79120 0.13211 0.32874
 C786 C 0.77181 0.11965 0.33184
 C787 C 0.75336 0.12297 0.31787
 C788 C 0.75420 0.13885 0.30099
 C789 C 0.77354 0.15169 0.29790
 C790 C 0.79209 0.14800 0.31190
 C791 C 0.77070 0.10396 0.34979
 C792 C 0.76992 0.09118 0.36515
 C793 C 0.76920 0.07667 0.38352
 C794 C 0.76877 0.06469 0.39953
 C795 C 0.76846 0.05093 0.41906
 C796 C 0.75060 0.03654 0.42287
 C797 C 0.74994 0.02391 0.44236
 C798 C 0.76721 0.02551 0.45818
 C799 C 0.78513 0.03988 0.45416
 C800 C 0.78576 0.05249 0.43470
 H801 H 0.80559 0.12966 0.33947
 H802 H 0.73822 0.11346 0.32018
 H803 H 0.73955 0.14128 0.29068
 H804 H 0.80734 0.15734 0.30992
 H805 H 0.73706 0.03530 0.41093
 H806 H 0.73581 0.01316 0.44527
 H807 H 0.79860 0.04136 0.46614
 H808 H 0.79962 0.06362 0.43195
 C809 C 0.21268 0.13218 0.66857
 C810 C 0.23213 0.11945 0.66609
 C811 C 0.25013 0.12255 0.68064
 C812 C 0.24875 0.13841 0.69753
 C813 C 0.22933 0.15146 0.70007
 C814 C 0.21126 0.14806 0.68543
 C815 C 0.23373 0.10358 0.64830
 C816 C 0.23495 0.09056 0.63315
 C817 C 0.23620 0.07567 0.61510
 C818 C 0.23710 0.06328 0.59940
 C819 C 0.23798 0.04893 0.58030
 C820 C 0.22041 0.03431 0.57607
 C821 C 0.22066 0.02125 0.55685
 C822 C 0.23856 0.02262 0.54172
 C823 C 0.25622 0.03720 0.54617
 C824 C 0.25594 0.05025 0.56538
 H825 H 0.19864 0.12991 0.65739
 H826 H 0.26530 0.11283 0.67882
 H827 H 0.26306 0.14061 0.70833
 H828 H 0.19596 0.15757 0.68694
 H829 H 0.20635 0.03327 0.58742
 H830 H 0.20670 0.01041 0.55356
 H831 H 0.27013 0.03854 0.53468
 H832 H 0.26957 0.06158 0.56845
   
