data_POSCAR
  _audit_creation_date              2014-09-24
  _audit_creation_method            'ToBaCCo'
  _symmetry_space_group_name_H-M    'P1'
  _symmetry_Int_Tables_number       1
  _symmetry_cell_setting            triclinic
  loop_
  _symmetry_equiv_pos_as_xyz
 x,y,z
_cell_length_a 35.7407
_cell_length_b 35.3818
_cell_length_c 35.2973
_cell_angle_alpha 92.886900
_cell_angle_beta 90.856900
_cell_angle_gamma 89.555900
loop_
  _atom_site_label
  _atom_site_type_symbol
  _atom_site_fract_x
  _atom_site_fract_y
  _atom_site_fract_z
C1 C 0.74894 0.67700 0.95027
 H2 H 0.77733 0.67527 0.94047
 C3 C 0.72340 0.70021 0.93209
 H4 H 0.73273 0.71650 0.90889
 C5 C 0.70157 0.65589 0.99022
 H6 H 0.69260 0.63716 1.01148
 C7 C 0.67514 0.67903 0.97301
 H8 H 0.64634 0.67817 0.98191
 N9 N 0.73760 0.65474 0.97821
 C10 C 0.83148 0.64198 1.04286
 H11 H 0.81424 0.63427 1.06607
 C12 C 0.86708 0.65709 1.05049
 H13 H 0.87670 0.66101 1.07962
 C14 C 0.84028 0.64572 0.97679
 H15 H 0.83024 0.64030 0.94802
 C16 C 0.87579 0.66083 0.98309
 H17 H 0.89235 0.66748 0.95889
 Zn18 Zn 0.77094 0.61617 0.99400
 N19 N 0.81867 0.63698 1.00642
 C20 C 0.74947 0.58224 0.92401
 N21 N 0.77607 0.58135 0.95191
 C22 C 0.80770 0.56006 0.94742
 C23 C 0.81469 0.54068 0.91269
 C24 C 0.75540 0.56358 0.88893
 C25 C 0.73989 0.61377 1.06629
 C26 C 0.72156 0.59766 1.09604
 C27 C 0.72831 0.53637 1.06331
 C28 C 0.74598 0.55387 1.03386
 N29 N 0.75090 0.59197 1.03564
 H30 H 0.72431 0.59894 0.92828
 H31 H 0.82847 0.55993 0.97003
 H32 H 0.84092 0.52559 0.90895
 H33 H 0.73464 0.56614 0.86651
 H34 H 0.74420 0.64403 1.06696
 H35 H 0.71263 0.61627 1.11945
 H36 H 0.72422 0.50603 1.06073
 H37 H 0.75512 0.53707 1.00924
 C38 C 0.88963 0.66681 1.02028
 C39 C 0.68579 0.70069 0.94276
 C40 C 0.71475 0.55837 1.09465
 C41 C 0.78888 0.54357 0.88251
 C42 C 0.69831 0.33055 0.50208
 H43 H 0.72202 0.31848 0.48719
 C44 C 0.67183 0.30646 0.51622
 H45 H 0.67609 0.27616 0.51260
 C46 C 0.66258 0.38416 0.52263
 H47 H 0.65816 0.41437 0.52351
 C48 C 0.63546 0.36102 0.53751
 H49 H 0.61081 0.37384 0.55031
 N50 N 0.69338 0.36871 0.50541
 C51 C 0.76915 0.37421 0.41806
 H52 H 0.75100 0.39277 0.40274
 C53 C 0.79718 0.35428 0.39851
 H54 H 0.79986 0.35758 0.36834
 C55 C 0.78858 0.34817 0.47574
 H56 H 0.78512 0.34612 0.50596
 C57 C 0.81757 0.32818 0.45732
 H58 H 0.83606 0.31049 0.47346
 Zn59 Zn 0.72727 0.40070 0.48122
 N60 N 0.76521 0.37093 0.45602
 C61 C 0.78822 0.43269 0.52234
 N62 N 0.75040 0.43493 0.51767
 C63 C 0.72948 0.45788 0.54129
 C64 C 0.74604 0.47647 0.57314
 C65 C 0.80572 0.45010 0.55404
 C66 C 0.67736 0.40148 0.42212
 C67 C 0.66077 0.41330 0.38886
 C68 C 0.68763 0.47522 0.40162
 C69 C 0.70424 0.46197 0.43478
 N70 N 0.69948 0.42534 0.44369
 H71 H 0.80492 0.41611 0.50244
 H72 H 0.69974 0.46060 0.53645
 H73 H 0.72877 0.49301 0.59282
 H74 H 0.83556 0.44631 0.55825
 H75 H 0.67446 0.37240 0.42962
 H76 H 0.64460 0.39325 0.37130
 H77 H 0.69291 0.50384 0.39375
 H78 H 0.72242 0.48020 0.45218
 C79 C 0.82206 0.33125 0.41818
 C80 C 0.63976 0.32159 0.53390
 C81 C 0.66663 0.45019 0.37769
 C82 C 0.78431 0.47105 0.58062
 C83 C 0.24767 -0.18939 0.01036
 H84 H 0.27321 -0.19972 -0.00243
 C85 C 0.22089 -0.21524 0.02078
 H86 H 0.22614 -0.24521 0.01543
 C87 C 0.21018 -0.13822 0.03395
 H88 H 0.20662 -0.10816 0.03993
 C89 C 0.18276 -0.16309 0.04502
 H90 H 0.15794 -0.15169 0.05869
 N91 N 0.24170 -0.15159 0.01660
 C92 C 0.35507 -0.13193 0.01621
 H93 H 0.35277 -0.11194 0.04018
 C94 C 0.38966 -0.14885 0.00835
 H95 H 0.41351 -0.14184 0.02658
 C96 C 0.32749 -0.16448 -0.03734
 H97 H 0.30314 -0.17019 -0.05522
 C98 C 0.36174 -0.18155 -0.04661
 H99 H 0.36337 -0.20069 -0.07144
 Zn100 Zn 0.27800 -0.11570 0.00414
 N101 N 0.32473 -0.14004 -0.00643
 C102 C 0.29061 -0.09773 0.08049
 N103 N 0.28344 -0.08197 0.04680
 C104 C 0.28005 -0.04387 0.04430
 C105 C 0.28501 -0.01989 0.07667
 C106 C 0.29624 -0.07488 0.11332
 C107 C 0.22598 -0.07553 -0.04030
 C108 C 0.21183 -0.06044 -0.07347
 C109 C 0.27155 -0.07306 -0.10280
 C110 C 0.28456 -0.08749 -0.06897
 N111 N 0.26140 -0.08974 -0.03897
 H112 H 0.29259 -0.12818 0.08162
 H113 H 0.27400 -0.03208 0.01720
 H114 H 0.28290 0.01045 0.07427
 H115 H 0.30238 -0.08804 0.13975
 H116 H 0.20822 -0.07673 -0.01595
 H117 H 0.18320 -0.05035 -0.07358
 H118 H 0.29052 -0.07279 -0.12645
 H119 H 0.31307 -0.09755 -0.06708
 C120 C 0.39336 -0.17369 -0.02360
 C121 C 0.18793 -0.20219 0.03834
 C122 C 0.23429 -0.06018 -0.10597
 C123 C 0.29385 -0.03543 0.11155
 C124 C 0.17348 0.19745 0.48301
 H125 H 0.19827 0.20233 0.46696
 C126 C 0.13965 0.21424 0.47228
 H127 H 0.13907 0.23253 0.44860
 C128 C 0.14334 0.16592 0.53152
 H129 H 0.14415 0.14582 0.55346
 C130 C 0.10916 0.18281 0.52232
 H131 H 0.08440 0.17590 0.53781
 N132 N 0.17472 0.17312 0.51172
 C133 C 0.28101 0.17251 0.56610
 H134 H 0.27036 0.15531 0.58783
 C135 C 0.31628 0.18905 0.57130
 H136 H 0.33177 0.18481 0.59732
 C137 C 0.27541 0.19620 0.50471
 H138 H 0.26049 0.19720 0.47797
 C139 C 0.31049 0.21305 0.50868
 H140 H 0.32147 0.22788 0.48520
 Zn141 Zn 0.21953 0.14459 0.52059
 N142 N 0.26156 0.17582 0.53292
 C143 C 0.26732 0.10201 0.47310
 N144 N 0.23217 0.11684 0.47531
 C145 C 0.20847 0.11537 0.44479
 C146 C 0.22066 0.10040 0.40973
 C147 C 0.28058 0.08655 0.43866
 C148 C 0.20208 0.12535 0.59481
 C149 C 0.19474 0.10129 0.62389
 C150 C 0.20939 0.04790 0.58118
 C151 C 0.21582 0.07295 0.55269
 N152 N 0.21192 0.11090 0.55988
 H153 H 0.28563 0.10369 0.49781
 H154 H 0.18048 0.12687 0.44723
 H155 H 0.20182 0.10062 0.38542
 H156 H 0.30912 0.07625 0.43733
 H157 H 0.19936 0.15565 0.59984
 H158 H 0.18660 0.11335 0.65136
 H159 H 0.21227 0.01775 0.57490
 H160 H 0.22358 0.06198 0.52477
 C161 C 0.33186 0.20874 0.54188
 C162 C 0.10687 0.20650 0.49174
 C163 C 0.19820 0.06202 0.61711
 C164 C 0.25743 0.08660 0.40616
 C165 C 0.20789 0.44583 0.22710
 H166 H 0.21524 0.43956 0.25585
 C167 C 0.22864 0.42948 0.19720
 H168 H 0.25202 0.41102 0.20339
 C169 C 0.16709 0.47500 0.18366
 H170 H 0.14198 0.49112 0.17820
 C171 C 0.18737 0.45977 0.15305
 H172 H 0.17773 0.46494 0.12457
 N173 N 0.17721 0.46748 0.21987
 C174 C 0.16458 0.53574 0.31757
 H175 H 0.14812 0.55556 0.30203
 C176 C 0.18145 0.54804 0.35185
 H177 H 0.17804 0.57732 0.36150
 C178 C 0.18728 0.47345 0.32478
 H179 H 0.18833 0.44410 0.31477
 C180 C 0.20458 0.48455 0.35931
 H181 H 0.21954 0.46365 0.37516
 Zn182 Zn 0.14294 0.48201 0.25883
 N183 N 0.16811 0.49909 0.30438
 C184 C 0.08997 0.44095 0.29871
 N185 N 0.11472 0.43888 0.26978
 C186 C 0.12263 0.40531 0.25095
 C187 C 0.10664 0.37187 0.26204
 C188 C 0.07275 0.40816 0.31030
 C189 C 0.13164 0.55187 0.22898
 C190 C 0.11289 0.58168 0.21265
 C191 C 0.05456 0.54918 0.22057
 C192 C 0.07460 0.51973 0.23690
 N193 N 0.11251 0.52161 0.24060
 H194 H 0.08454 0.46789 0.31355
 H195 H 0.14226 0.40409 0.22798
 H196 H 0.11401 0.34533 0.24731
 H197 H 0.05384 0.41018 0.33399
 H198 H 0.16182 0.55245 0.23188
 H199 H 0.12911 0.60522 0.20373
 H200 H 0.02447 0.54712 0.21721
 H201 H 0.05998 0.49517 0.24590
 C202 C 0.20176 0.52231 0.37327
 C203 C 0.21792 0.43578 0.15962
 C204 C 0.07387 0.58043 0.20773
 C205 C 0.08172 0.37298 0.29232
 C206 C -0.16590 -0.02020 0.21258
 H207 H -0.17749 -0.03594 0.23488
 C208 C -0.18982 -0.00709 0.18459
 H209 H -0.21928 -0.01378 0.18587
 C210 C -0.11416 0.00871 0.18499
 H211 H -0.08463 0.01527 0.18579
 C212 C -0.13728 0.02295 0.15654
 H213 H -0.12496 0.03992 0.13541
 N214 N -0.12869 -0.01266 0.21216
 C215 C -0.12914 -0.03352 0.32610
 H216 H -0.11351 -0.00822 0.33385
 C217 C -0.15216 -0.04925 0.35288
 H218 H -0.15440 -0.03555 0.38087
 C219 C -0.14527 -0.08226 0.28043
 H220 H -0.14227 -0.09510 0.25216
 C221 C -0.16884 -0.09856 0.30601
 H222 H -0.18396 -0.12397 0.29710
 Zn223 Zn -0.09706 -0.02906 0.25218
 N224 N -0.12677 -0.04975 0.29037
 C225 C -0.09393 0.04418 0.28166
 N226 N -0.07155 0.01408 0.27229
 C227 C -0.03367 0.01628 0.27589
 C228 C -0.01698 0.05004 0.28980
 C229 C -0.07856 0.07823 0.29555
 C230 C -0.05463 -0.09488 0.25885
 C231 C -0.03830 -0.12901 0.24596
 C232 C -0.03830 -0.10619 0.18264
 C233 C -0.05557 -0.07277 0.19659
 N234 N -0.06405 -0.06808 0.23403
 H235 H -0.12394 0.04168 0.27810
 H236 H -0.01647 -0.00801 0.26783
 H237 H 0.01319 0.05147 0.29257
 H238 H -0.09731 0.10152 0.30266
 H239 H -0.06180 -0.09070 0.28843
 H240 H -0.03269 -0.15077 0.26584
 H241 H -0.03311 -0.11013 0.15255
 H242 H -0.06374 -0.05149 0.17716
 C243 C -0.17285 -0.08185 0.34262
 C244 C -0.17581 0.01499 0.15603
 C245 C -0.03074 -0.13528 0.20730
 C246 C -0.03957 0.08162 0.29980
 C247 C 0.33992 0.56894 0.73546
 H248 H 0.34514 0.58078 0.76389
 C249 C 0.32128 0.59039 0.70893
 H250 H 0.31191 0.61872 0.71732
 C251 C 0.34711 0.51801 0.68983
 H252 H 0.35800 0.49011 0.68231
 C253 C 0.32847 0.53847 0.66237
 H254 H 0.32499 0.52579 0.63403
 N255 N 0.35249 0.53354 0.72552
 C256 C 0.36841 0.47543 0.83008
 H257 H 0.39761 0.46760 0.82740
 C258 C 0.34776 0.46278 0.86011
 H259 H 0.36156 0.44558 0.88068
 C260 C 0.31512 0.50693 0.80584
 H261 H 0.30231 0.52343 0.78416
 C262 C 0.29345 0.49515 0.83567
 H263 H 0.26411 0.50293 0.83678
 Zn264 Zn 0.38151 0.50881 0.76190
 N265 N 0.35187 0.49684 0.80358
 C266 C 0.42021 0.55782 0.81415
 N267 N 0.41969 0.54296 0.77785
 C268 C 0.44239 0.55648 0.75115
 C269 C 0.46636 0.58667 0.76041
 C270 C 0.44341 0.58829 0.82451
 C271 C 0.37418 0.43507 0.73490
 C272 C 0.38413 0.39944 0.71965
 C273 C 0.44783 0.42093 0.71491
 C274 C 0.43671 0.45620 0.73100
 N275 N 0.40028 0.46260 0.74027
 H276 H 0.40132 0.54734 0.83473
 H277 H 0.44062 0.54495 0.72222
 H278 H 0.48346 0.59778 0.73854
 H279 H 0.44270 0.60024 0.85331
 H280 H 0.34545 0.44089 0.74264
 H281 H 0.36280 0.37798 0.71569
 H282 H 0.47684 0.41615 0.70760
 H283 H 0.45713 0.47832 0.73597
 C284 C 0.30964 0.47228 0.86293
 C285 C 0.31566 0.57535 0.67174
 C286 C 0.42128 0.39204 0.70925
 C287 C 0.46627 0.60359 0.79724
 C288 C 0.67733 0.97334 0.69551
 H289 H 0.68095 0.95551 0.71918
 C290 C 0.69581 0.96384 0.66167
 H291 H 0.71407 0.93928 0.66016
 C292 C 0.64760 1.02535 0.66768
 H293 H 0.62781 1.04847 0.66923
 C294 C 0.66611 1.01733 0.63362
 H295 H 0.66058 1.03474 0.60976
 N296 N 0.65325 1.00339 0.69790
 C297 C 0.65299 1.05577 0.80769
 H298 H 0.63462 1.07821 0.79911
 C299 C 0.67357 1.06062 0.84166
 H300 H 0.67101 1.08714 0.85807
 C301 C 0.67673 0.99351 0.79791
 H302 H 0.67671 0.96680 0.78180
 C303 C 0.69763 0.99706 0.83155
 H304 H 0.71416 0.97304 0.84001
 Zn305 Zn 0.62393 1.01246 0.74265
 N306 N 0.65497 1.02259 0.78645
 C307 C 0.58171 0.96552 0.78664
 N308 N 0.59675 0.96822 0.75174
 C309 C 0.59580 0.93862 0.72564
 C310 C 0.58134 0.90385 0.73511
 C311 C 0.56680 0.93130 0.79725
 C312 C 0.55289 1.04724 0.73114
 C313 C 0.52898 1.07611 0.71952
 C314 C 0.58237 1.11737 0.71767
 C315 C 0.60514 1.08789 0.72938
 N316 N 0.59036 1.05334 0.73488
 H317 H 0.58289 0.98951 0.80686
 H318 H 0.60736 0.94150 0.69784
 H319 H 0.58207 0.88022 0.71440
 H320 H 0.55638 0.92949 0.82570
 H321 H 0.54173 1.01950 0.73543
 H322 H 0.49948 1.07037 0.71509
 H323 H 0.59509 1.14422 0.71244
 H324 H 0.63505 1.09195 0.73214
 C325 C 0.69601 1.03079 0.85433
 C326 C 0.68994 0.98578 0.63008
 C327 C 0.54393 1.11132 0.71144
 C328 C 0.56754 0.89957 0.77166
 C329 C 0.03913 0.17847 -0.13678
 H330 H 0.06008 0.19629 -0.12285
 C331 C 0.04971 0.14357 -0.15358
 H332 H 0.07884 0.13514 -0.15230
 C333 C -0.02428 0.16745 -0.15427
 H334 H -0.05313 0.17694 -0.15404
 C335 C -0.01495 0.13214 -0.17118
 H336 H -0.03680 0.11465 -0.18422
 N337 N 0.00269 0.18979 -0.13758
 C338 C -0.03158 0.30825 -0.13597
 H339 H -0.02766 0.31599 -0.10613
 C340 C -0.04324 0.33551 -0.16096
 H341 H -0.04830 0.36412 -0.14993
 C342 C -0.02995 0.26120 -0.18612
 H343 H -0.02465 0.23225 -0.19584
 C344 C -0.04166 0.28752 -0.21208
 H345 H -0.04545 0.27838 -0.24162
 Zn346 Zn -0.01166 0.23611 -0.11271
 N347 N -0.02583 0.27179 -0.14873
 C348 C 0.05605 0.27346 -0.10493
 N349 N 0.02975 0.25611 -0.08460
 C350 C 0.03431 0.25203 -0.04670
 C351 C 0.06691 0.26504 -0.02801
 C352 C 0.08877 0.28713 -0.08738
 C353 C -0.08561 0.24528 -0.08713
 C354 C -0.11850 0.23412 -0.07034
 C355 C -0.08407 0.18376 -0.04155
 C356 C -0.05166 0.19608 -0.05894
 N357 N -0.05315 0.22590 -0.08182
 H358 H 0.05186 0.27600 -0.13511
 H359 H 0.01307 0.23809 -0.03111
 H360 H 0.07041 0.26114 0.00207
 H361 H 0.10946 0.30021 -0.10443
 H362 H -0.08662 0.26848 -0.10580
 H363 H -0.14396 0.24974 -0.07619
 H364 H -0.08203 0.15923 -0.02453
 H365 H -0.02565 0.18065 -0.05570
 C366 C -0.04890 0.32513 -0.19954
 C367 C 0.02248 0.11986 -0.17098
 C368 C -0.11858 0.20212 -0.04811
 C369 C 0.09472 0.28268 -0.04848
 C370 C 0.44823 0.23826 0.16501
 H371 H 0.43673 0.26488 0.15628
 C372 C 0.42725 0.21571 0.18775
 H373 H 0.39984 0.22554 0.19666
 C374 C 0.49711 0.19265 0.16213
 H375 H 0.52391 0.18336 0.15127
 C376 C 0.47686 0.16897 0.18488
 H377 H 0.48865 0.14182 0.19158
 N378 N 0.48252 0.22665 0.15275
 C379 C 0.54041 0.32990 0.12380
 H380 H 0.55157 0.32115 0.09639
 C381 C 0.54674 0.36667 0.13901
 H382 H 0.56302 0.38611 0.12332
 C383 C 0.50429 0.31588 0.17699
 H384 H 0.48787 0.29623 0.19199
 C385 C 0.50897 0.35255 0.19259
 H386 H 0.49600 0.36067 0.21935
 Zn387 Zn 0.50472 0.25865 0.11791
 N388 N 0.51885 0.30559 0.14256
 C389 C 0.45547 0.30317 0.07418
 N390 N 0.46647 0.26747 0.08189
 C391 C 0.44707 0.23672 0.06811
 C392 C 0.41398 0.24129 0.04736
 C393 C 0.42284 0.30901 0.05298
 C394 C 0.57667 0.22422 0.11380
 C395 C 0.60697 0.20620 0.09564
 C396 C 0.57503 0.21289 0.03554
 C397 C 0.54523 0.23028 0.05484
 N398 N 0.54633 0.23525 0.09331
 H399 H 0.47096 0.32723 0.08588
 H400 H 0.45628 0.20868 0.07508
 H401 H 0.39795 0.21659 0.03806
 H402 H 0.41372 0.33770 0.04855
 H403 H 0.57717 0.22913 0.14431
 H404 H 0.63072 0.19738 0.11248
 H405 H 0.57343 0.20899 0.00494
 H406 H 0.52122 0.23985 0.03893
 C407 C 0.52990 0.37854 0.17327
 C408 C 0.44123 0.18035 0.19762
 C409 C 0.60623 0.20019 0.05596
 C410 C 0.40108 0.27783 0.04034
 C411 C 0.99334 0.68650 0.68922
 H412 H 1.01377 0.70684 0.69984
 C413 C 0.98674 0.65431 0.70942
 H414 H 1.00221 0.65017 0.73552
 C415 C 0.94886 0.66652 0.64205
 H416 H 0.93474 0.67122 0.61536
 C417 C 0.94090 0.63435 0.66168
 H418 H 0.92062 0.61436 0.64977
 N419 N 0.97490 0.69164 0.65584
 C420 C 1.04940 0.76199 0.66271
 H421 H 1.06071 0.73423 0.65514
 C422 C 1.07228 0.78939 0.68067
 H423 H 1.10112 0.78232 0.68717
 C424 C 0.99843 0.80519 0.66198
 H425 H 0.96992 0.81153 0.65385
 C426 C 1.02030 0.83342 0.68014
 H427 H 1.00805 0.86111 0.68595
 Zn428 Zn 0.98597 0.73260 0.62547
 N429 N 1.01323 0.77025 0.65374
 C430 C 0.91391 0.76164 0.63393
 N431 N 0.94030 0.75282 0.60753
 C432 C 0.93375 0.75798 0.57008
 C433 C 0.89990 0.77382 0.55811
 C434 C 0.87965 0.77725 0.62320
 C435 C 1.03006 0.67889 0.58506
 C436 C 1.05979 0.66743 0.56200
 C437 C 1.06115 0.73008 0.53781
 C438 C 1.03172 0.74060 0.56192
 N439 N 1.01740 0.71524 0.58548
 H440 H 0.91971 0.75680 0.66346
 H441 H 0.95479 0.75005 0.54946
 H442 H 0.89537 0.77794 0.52823
 H443 H 0.85920 0.78449 0.64476
 H444 H 1.01883 0.65931 0.60438
 H445 H 1.07075 0.63891 0.56343
 H446 H 1.07358 0.75101 0.52062
 H447 H 1.02182 0.76960 0.56352
 C448 C 1.05786 0.82574 0.68940
 C449 C 0.96039 0.62769 0.69554
 C450 C 1.07639 0.69352 0.53893
 C451 C 0.87245 0.78393 0.58493
 C452 C 0.50869 0.70766 0.36706
 H453 H 0.50250 0.70098 0.39577
 C454 C 0.52376 0.67962 0.34235
 H455 H 0.52967 0.65190 0.35268
 C456 C 0.50591 0.75086 0.31802
 H457 H 0.49812 0.77821 0.30815
 C458 C 0.52054 0.72361 0.29231
 H459 H 0.52438 0.73072 0.26314
 N460 N 0.50081 0.74279 0.35487
 C461 C 0.43352 0.83931 0.36350
 H462 H 0.41123 0.82473 0.37688
 C463 C 0.42573 0.87335 0.34652
 H464 H 0.39727 0.88393 0.34698
 C465 C 0.49753 0.84357 0.34809
 H466 H 0.52558 0.83192 0.34917
 C467 C 0.49115 0.87800 0.33137
 H468 H 0.51456 0.89232 0.31941
 Zn469 Zn 0.47994 0.77987 0.38960
 N470 N 0.46896 0.82507 0.36405
 C471 C 0.52568 0.82844 0.43545
 N472 N 0.51496 0.79171 0.42996
 C473 C 0.53164 0.76410 0.45002
 C474 C 0.56278 0.77242 0.47346
 C475 C 0.55697 0.83782 0.45783
 C476 C 0.40992 0.74765 0.38034
 C477 C 0.37597 0.73223 0.39049
 C478 C 0.39486 0.74069 0.45638
 C479 C 0.42842 0.75644 0.44494
 N480 N 0.43518 0.75961 0.40743
 H481 H 0.51108 0.85053 0.42121
 H482 H 0.52200 0.73532 0.44671
 H483 H 0.57721 0.74983 0.48741
 H484 H 0.56645 0.86687 0.45989
 H485 H 0.41622 0.75032 0.35071
 H486 H 0.35626 0.72292 0.36842
 H487 H 0.38987 0.73845 0.48634
 H488 H 0.44900 0.76609 0.46594
 C489 C 0.45484 0.89354 0.33048
 C490 C 0.52992 0.68754 0.30442
 C491 C 0.36814 0.72839 0.42890
 C492 C 0.57675 0.80937 0.47586
 C493 C 0.39454 0.00749 0.28105
 C494 C 0.37183 -0.00738 0.24638
 C495 C 0.34576 0.01772 0.23420
 C496 C 0.34440 0.05501 0.25820
 C497 C 0.41111 0.04507 0.26927
 C498 C 0.38458 0.06992 0.25751
 C499 C 0.36554 0.01877 0.31123
 C500 C 0.33909 0.04336 0.29900
 H501 H 0.37790 -0.03421 0.23164
 H502 H 0.32296 0.07535 0.24846
 H503 H 0.44063 0.05162 0.27078
 H504 H 0.36550 0.00746 0.33915
 C505 C 0.09413 1.00854 0.77424
 C506 C 0.11540 1.02493 0.74152
 C507 C 0.14376 1.00224 0.72830
 C508 C 0.14845 0.96551 0.74919
 C509 C 0.08121 0.96930 0.75893
 C510 C 0.10985 0.94677 0.74594
 C511 C 0.12396 1.00061 0.80453
 C512 C 0.15250 0.97830 0.79119
 H513 H 0.10725 1.05108 0.72899
 H514 H 0.17173 0.94712 0.73861
 H515 H 0.05246 0.96002 0.75933
 H516 H 0.12285 1.01222 0.83346
 C517 C 0.58734 0.57056 0.24122
 C518 C 0.61714 0.57238 0.21072
 C519 C 0.63209 0.53817 0.19991
 C520 C 0.61620 0.50516 0.22098
 C521 C 0.55860 0.54178 0.22524
 C522 C 0.57372 0.50749 0.21475
 C523 C 0.60692 0.55097 0.27416
 C524 C 0.62168 0.51643 0.26338
 H525 H 0.62434 0.59844 0.19793
 H526 H 0.62875 0.47733 0.21244
 H527 H 0.52876 0.54728 0.22494
 H528 H 0.60636 0.56150 0.30341
 C529 C 0.89579 0.44014 0.74299
 C530 C 0.87342 0.44298 0.70557
 C531 C 0.85833 0.47795 0.70085
 C532 C 0.86717 0.50678 0.73341
 C533 C 0.92511 0.47143 0.74248
 C534 C 0.91006 0.50624 0.73711
 C535 C 0.86849 0.45332 0.77416
 C536 C 0.85364 0.48817 0.76896
 H537 H 0.86832 0.41910 0.68588
 H538 H 0.85494 0.53531 0.72970
 H539 H 0.95494 0.46622 0.74464
 H540 H 0.86106 0.43638 0.79758
 C541 C 0.25984 0.39310 -0.03514
 C542 C 0.22403 0.37023 -0.04316
 C543 C 0.21767 0.34381 -0.01723
 C544 C 0.24806 0.34213 0.01383
 C545 C 0.25583 0.40955 0.00569
 C546 C 0.25013 0.38265 0.03123
 C547 C 0.29137 0.36335 -0.03284
 C548 C 0.28487 0.33681 -0.00734
 H549 H 0.20473 0.37612 -0.06604
 H550 H 0.24326 0.32050 0.03492
 H551 H 0.25933 0.43924 0.01378
 H552 H 0.31731 0.36375 -0.04807
 C553 C 0.76483 0.07852 1.04729
 C554 C 0.72970 0.10319 1.05321
 C555 C 0.71879 0.12175 1.02207
 C556 C 0.74415 0.11421 0.98778
 C557 C 0.75602 0.05242 1.01255
 C558 C 0.74521 0.07093 0.98138
 C559 C 0.79481 0.10574 1.03404
 C560 C 0.78358 0.12457 1.00292
 H561 H 0.71503 0.10540 1.07981
 H562 H 0.73559 0.12949 0.96235
 H563 H 0.75874 0.02192 1.01263
 H564 H 0.82095 0.11159 1.04893
 C565 C 0.25928 0.62508 0.55232
 C566 C 0.21982 0.64192 0.55249
 C567 C 0.20611 0.64904 0.51744
 C568 C 0.23312 0.63853 0.48516
 C569 C 0.25658 0.58943 0.52563
 C570 C 0.24270 0.59653 0.49044
 C571 C 0.28303 0.65267 0.53116
 C572 C 0.26960 0.65952 0.49585
 H573 H 0.20434 0.64777 0.57827
 H574 H 0.22182 0.64488 0.45678
 H575 H 0.26375 0.56120 0.53372
 H576 H 0.30905 0.66398 0.54270
 C577 C 0.75603 0.88116 0.45699
 C578 C 0.71857 0.86042 0.45776
 C579 C 0.70658 0.85436 0.49322
 C580 C 0.73301 0.86941 0.52494
 C581 C 0.74970 0.91774 0.48136
 C582 C 0.73766 0.91158 0.51708
 C583 C 0.78329 0.85749 0.48002
 C584 C 0.77125 0.85138 0.51565
 H585 H 0.70241 0.85214 0.43257
 H586 H 0.72283 0.86379 0.55357
 H587 H 0.75329 0.94571 0.47091
 H588 H 0.80976 0.84725 0.46901
 C589 C -0.05702 0.26761 0.37924
 C590 C -0.05663 0.22868 0.35848
 C591 C -0.02181 0.21338 0.35403
 C592 C 0.00969 0.23890 0.37054
 C593 C -0.03624 0.26181 0.41702
 C594 C -0.00111 0.24693 0.41234
 C595 C -0.03101 0.29197 0.35690
 C596 C 0.00382 0.27705 0.35228
 H597 H -0.08211 0.21431 0.34963
 H598 H 0.03803 0.22666 0.36631
 H599 H -0.04792 0.26831 0.44468
 H600 H -0.03972 0.31861 0.34570
 C601 C 1.07481 0.73518 0.08988
 C602 C 1.07800 0.70138 0.11508
 C603 C 1.04493 0.69096 0.13001
 C604 C 1.01152 0.71573 0.11851
 C605 C 1.04504 0.72416 0.06011
 C606 C 1.01186 0.71402 0.07477
 C607 C 1.05680 0.76681 0.11502
 C608 C 1.02377 0.75641 0.13015
 H609 H 1.10431 0.68708 0.12006
 H610 H 0.98459 0.70769 0.13095
 H611 H 1.04994 0.72474 0.02995
 H612 H 1.07003 0.79352 0.12279
 C613 C 0.52718 0.26240 0.59128
 C614 C 0.53331 0.22854 0.61577
 C615 C 0.50220 0.21743 0.63365
 C616 C 0.46732 0.24142 0.62528
 C617 C 0.49496 0.25124 0.56417
 C618 C 0.46344 0.24061 0.58177
 C619 C 0.51083 0.29363 0.61835
 C620 C 0.47926 0.28237 0.63610
 H621 H 0.56034 0.21495 0.61854
 H622 H 0.44200 0.23227 0.63996
 H623 H 0.49630 0.25423 0.53384
 H624 H 0.52234 0.32169 0.62245
 C625 C 0.50380 0.77325 0.90609
 C626 C 0.49071 0.73719 0.88406
 C627 C 0.51413 0.72555 0.85557
 C628 C 0.54826 0.75113 0.85169
 C629 C 0.54361 0.76400 0.91987
 C630 C 0.56681 0.75259 0.89124
 C631 C 0.50878 0.80268 0.87618
 C632 C 0.53197 0.79097 0.84768
 H633 H 0.46553 0.72238 0.89090
 H634 H 0.56743 0.74172 0.82858
 H635 H 0.55272 0.76663 0.94925
 H636 H 0.49524 0.83017 0.87769
 N637 N 0.45866 -0.01835 0.28920
 N638 N 0.47537 -0.04901 0.30167
 C639 C 0.44831 -0.07134 0.31453
 C640 C 0.41435 -0.05318 0.30931
 N641 N 0.42204 -0.02027 0.29372
 H642 H 0.38656 -0.06283 0.31554
 N643 N 0.91213 0.37414 0.72273
 N644 N 0.92684 0.34339 0.73705
 C645 C 0.93639 0.35256 0.77348
 C646 C 0.92722 0.39024 0.78086
 N647 N 0.91194 0.40255 0.74862
 H648 H 0.93013 0.40695 0.80725
 N649 N 0.02784 1.02619 0.78601
 N650 N 0.00811 1.05539 0.80003
 C651 C 0.03281 1.08240 0.81160
 C652 C 0.06835 1.06873 0.80413
 N653 N 0.06408 1.03366 0.78830
 H654 H 0.09486 1.08284 0.80904
 N655 N 0.55892 0.63057 0.22364
 N656 N 0.54362 0.66171 0.23907
 C657 C 0.54486 0.65852 0.27695
 C658 C 0.56164 0.62418 0.28426
 N659 N 0.57026 0.60773 0.25018
 H660 H 0.56669 0.61237 0.31153
 N661 N 0.51655 0.47078 0.21682
 N662 N 0.50425 0.43641 0.20703
 C663 C 0.53215 0.41814 0.18825
 C664 C 0.56206 0.44245 0.18680
 N665 N 0.55120 0.47496 0.20504
 H666 H 0.58922 0.43669 0.17457
 N667 N 0.13274 0.88412 0.72575
 N668 N 0.11997 0.85149 0.71098
 C669 C 0.08259 0.85543 0.70667
 C670 C 0.07286 0.89170 0.71947
 N671 N 0.10492 0.90861 0.73110
 H672 H 0.04540 0.90474 0.71967
 N673 N 0.96602 0.54451 0.74888
 N674 N 0.98008 0.57700 0.73874
 C675 C 0.95457 0.59253 0.71547
 C676 C 0.92427 0.56860 0.71191
 N677 N 0.93253 0.53910 0.73312
 H678 H 0.89915 0.57176 0.69483
 N679 N 0.36789 0.13475 0.24518
 N680 N 0.38204 0.16463 0.22964
 C681 C 0.41729 0.15544 0.21930
 C682 C 0.42437 0.11871 0.22936
 N683 N 0.39280 0.10694 0.24533
 H684 H 0.44912 0.10160 0.22399
 N685 N 0.24029 0.44870 -0.07015
 N686 N 0.25231 0.47034 -0.09700
 C687 C 0.28659 0.45735 -0.10679
 C688 C 0.29503 0.42698 -0.08516
 N689 N 0.26547 0.42231 -0.06265
 H690 H 0.31997 0.40963 -0.08666
 N691 N 0.75461 0.86902 0.38762
 N692 N 0.77309 0.87769 0.35711
 C693 C 0.80036 0.90187 0.36876
 C694 C 0.79794 0.90774 0.40778
 N695 N 0.76888 0.88680 0.41837
 H696 H 0.81577 0.92486 0.42669
 N697 N 0.74810 0.03699 1.09742
 N698 N 0.76283 0.01966 1.12643
 C699 C 0.79947 0.02855 1.12838
 C700 C 0.80666 0.05231 1.09919
 N701 N 0.77370 0.05698 1.08075
 H702 H 0.83301 0.06468 1.09199
 N703 N 0.27427 0.64765 0.61748
 N704 N 0.28868 0.63570 0.64951
 C705 C 0.29768 0.59889 0.64309
 C706 C 0.28825 0.58866 0.60584
 N707 N 0.27362 0.61989 0.59087
 H708 H 0.29205 0.56140 0.59118
 N709 N 0.24825 0.53160 0.46386
 N710 N 0.23793 0.51100 0.43312
 C711 C 0.21911 0.53429 0.41031
 C712 C 0.21832 0.56993 0.42822
 N713 N 0.23675 0.56708 0.46147
 H714 H 0.20503 0.59519 0.41835
 N715 N 0.74801 0.01592 0.93732
 N716 N 0.73541 0.00442 0.90328
 C717 C 0.71543 0.03330 0.88936
 C718 C 0.71656 0.06328 0.91633
 N719 N 0.73705 0.05111 0.94573
 H720 H 0.70298 0.09064 0.91534
 N721 N 0.72318 0.97764 0.53491
 N722 N 0.71043 0.99836 0.56435
 C723 C 0.70668 0.97489 0.59300
 C724 C 0.71750 0.93906 0.58006
 N725 N 0.72745 0.94189 0.54368
 H726 H 0.71671 0.91336 0.59533
 N727 N 0.26187 0.36756 0.09678
 N728 N 0.25446 0.38126 0.13148
 C729 C 0.23599 0.41432 0.12781
 C730 C 0.23260 0.42058 0.08953
 N731 N 0.24900 0.39076 0.07131
 H732 H 0.21814 0.44344 0.07609
 N733 N -0.11535 0.28926 0.35031
 N734 N -0.14747 0.30593 0.35922
 C735 C -0.14763 0.31120 0.39729
 C736 C -0.11432 0.29712 0.41153
 N737 N -0.09490 0.28374 0.38117
 H738 H -0.10481 0.29794 0.44077
 N739 N 0.48827 0.79410 0.97204
 N740 N 0.45958 0.80846 0.99140
 C741 C 0.43029 0.80972 0.96691
 C742 C 0.44202 0.79564 0.93186
 N743 N 0.47831 0.78625 0.93624
 H744 H 0.42638 0.79389 0.90535
 N745 N 1.13135 0.71767 0.05453
 N746 N 1.16140 0.73300 0.04040
 C747 C 1.15960 0.77042 0.04948
 C748 C 1.12728 0.77752 0.06983
 N749 N 1.11057 0.74380 0.07254
 H750 H 1.11679 0.80449 0.08099
 N751 N 0.57907 0.24470 0.54975
 N752 N 0.60906 0.25890 0.53449
 C753 C 0.61046 0.29574 0.54602
 C754 C 0.58002 0.30373 0.56907
 N755 N 0.56122 0.27095 0.57074
 H756 H 0.57248 0.33053 0.58306
 N757 N 0.42363 0.24321 0.52543
 N758 N 0.38887 0.23589 0.51412
 C759 C 0.37097 0.22238 0.54391
 C760 C 0.39623 0.22162 0.57406
 N761 N 0.42872 0.23480 0.56127
 H762 H 0.39156 0.21204 0.60220
 N763 N 0.98107 0.70543 0.01324
 N764 N 0.94921 0.69319 -0.00217
 C765 C 0.92752 0.68279 0.02639
 C766 C 0.94736 0.68921 0.06014
 N767 N 0.98065 0.70332 0.05056
 H768 H 0.93872 0.68367 0.08854
 N769 N 0.63148 0.74502 0.87149
 N770 N 0.66377 0.73202 0.88455
 C771 C 0.65773 0.72088 0.91997
 C772 C 0.62056 0.72772 0.92824
 N773 N 0.60527 0.74271 0.89731
 H774 H 0.60568 0.72114 0.95353
 N775 N 0.01148 0.23505 0.47895
 N776 N 0.03953 0.22433 0.50103
 C777 C 0.07008 0.22098 0.47907
 C778 C 0.05973 0.22983 0.44272
 N779 N 0.02297 0.23831 0.44377
 H780 H 0.07710 0.22900 0.41787
 N781 N 0.47269 0.16938 0.67079
 N782 N 0.48269 0.14085 0.69190
 C783 C 0.52046 0.14042 0.69368
 C784 C 0.53316 0.16942 0.67280
 N785 N 0.50268 0.18674 0.65886
 H786 H 0.56189 0.17642 0.66735
 N787 N 1.00993 0.64525 0.16529
 N788 N 1.01645 0.61560 0.18611
 C789 C 1.05396 0.61097 0.18819
 C790 C 1.07005 0.63871 0.16786
 N791 N 1.04182 0.65947 0.15399
 H792 H 1.09946 0.64295 0.16311
 N793 N 0.98619 0.76622 0.18670
 N794 N 0.97213 0.79431 0.20841
 C795 C 0.98168 0.82684 0.19277
 C796 C 1.00219 0.81774 0.16066
 N797 N 1.00436 0.77968 0.15798
 H798 H 1.01411 0.83677 0.14110
 N799 N 0.42608 0.29507 0.67670
 N800 N 0.40980 0.32332 0.69624
 C801 C 0.43136 0.35405 0.69305
 C802 C 0.46167 0.34359 0.67078
 N803 N 0.45718 0.30652 0.66108
 H804 H 0.48382 0.36145 0.66148
 N805 N 0.52789 0.68295 0.80103
 N806 N 0.51620 0.65049 0.78478
 C807 C 0.48841 0.63811 0.80634
 C808 C 0.48329 0.66428 0.83623
 N809 N 0.50839 0.69183 0.83184
 H810 H 0.46296 0.66360 0.85855
 N811 N 0.01774 0.15925 0.33429
 N812 N 0.01417 0.12399 0.32005
 C813 C -0.02279 0.11778 0.31458
 C814 C -0.04162 0.15054 0.32587
 N815 N -0.01550 0.17570 0.33797
 H816 H -0.07148 0.15541 0.32581
 N817 N 0.06160 0.27831 0.31647
 N818 N 0.08276 0.30298 0.29975
 C819 C 0.06653 0.33733 0.30564
 C820 C 0.03468 0.33288 0.32644
 N821 N 0.03255 0.29570 0.33251
 H822 H 0.01505 0.35452 0.33624
 N823 N 0.55456 0.80090 0.78423
 N824 N 0.56389 0.82911 0.76304
 C825 C 0.55681 0.86161 0.78346
 C826 C 0.54256 0.85225 0.81795
 N827 N 0.54167 0.81421 0.81725
 H828 H 0.53528 0.87099 0.84191
 N829 N 0.66530 0.50010 0.15145
 N830 N 0.68752 0.50480 0.12234
 C831 C 0.69475 0.54222 0.12170
 C832 C 0.67625 0.56017 0.15184
 N833 N 0.65805 0.53303 0.16938
 H834 H 0.67495 0.59007 0.15962
 N835 N 0.18638 0.98471 0.67706
 N836 N 0.20128 0.99946 0.64705
 C837 C 0.18947 1.03575 0.64689
 C838 C 0.16674 1.04273 0.67776
 N839 N 0.16545 1.01017 0.69578
 H840 H 0.15190 1.06862 0.68569
 N841 N 0.21726 0.95881 0.80024
 N842 N 0.24019 0.94852 0.82773
 C843 C 0.22066 0.95070 0.86030
 C844 C 0.18481 0.96327 0.85164
 N845 N 0.18399 0.96780 0.81403
 H846 H 0.16116 0.96745 0.87019
 N847 N 0.63609 0.45278 0.28125
 N848 N 0.64719 0.43423 0.31102
 C849 C 0.65341 0.46023 0.33963
 C850 C 0.64578 0.49565 0.32629
 N851 N 0.63496 0.48961 0.28971
 H852 H 0.64747 0.52283 0.34167
 N853 N 0.80930 0.51479 0.67075
 N854 N 0.78882 0.51407 0.63909
 C855 C 0.80127 0.48445 0.61712
 C856 C 0.82978 0.46686 0.63646
 N857 N 0.83386 0.48654 0.66979
 H858 H 0.84509 0.44150 0.62764
 N859 N 0.30592 0.03908 0.18274
 N860 N 0.29179 0.02616 0.14969
 C861 C 0.30177 -0.01064 0.14554
 C862 C 0.32250 -0.01981 0.17709
 N863 N 0.32455 0.01194 0.19956
 H864 H 0.33587 -0.04658 0.18245
 N865 N 0.27700 0.07088 0.30759
 N866 N 0.25430 0.08216 0.33530
 C867 C 0.27192 0.07492 0.36827
 C868 C 0.30626 0.05862 0.35974
 N869 N 0.30829 0.05668 0.32167
 H870 H 0.32812 0.05017 0.37914
 N871 N 0.79934 0.52788 0.78260
 N872 N 0.78105 0.54258 0.81222
 C873 C 0.79789 0.52957 0.84354
 C874 C 0.82708 0.50605 0.83204
 N875 N 0.82693 0.50587 0.79394
 H876 H 0.84751 0.49197 0.84945
 N877 N 0.15960 0.68650 0.48386
 N878 N 0.12482 0.69917 0.48858
 C879 C 0.11208 0.68395 0.52021
 C880 C 0.14017 0.66197 0.53484
 N881 N 0.16934 0.66436 0.51157
 H882 H 0.13992 0.64707 0.56088
 N883 N 0.67215 0.15974 0.98985
 N884 N 0.64213 0.18074 0.99771
 C885 C 0.63739 0.18076 1.03557
 C886 C 0.66553 0.15890 1.05065
 N887 N 0.68656 0.14625 1.02121
 H888 H 0.66995 0.15250 1.08002
 N889 N 0.78903 0.18269 0.97003
 N890 N 0.81493 0.20436 0.95612
 C891 C 0.84861 0.18897 0.96449
 C892 C 0.84217 0.15700 0.98481
 N893 N 0.80472 0.15418 0.98732
 H894 H 0.86223 0.13681 0.99523
 N895 N 0.27780 0.68630 0.43431
 N896 N 0.30335 0.70441 0.41550
 C897 C 0.33252 0.71101 0.43958
 C898 C 0.32389 0.69637 0.47388
 N899 N 0.28957 0.68113 0.46940
 H900 H 0.34157 0.69546 0.49894
 N901 N 0.66413 0.81394 0.52667
 N902 N 0.62943 0.80092 0.52291
 C903 C 0.61383 0.81770 0.49295
 C904 C 0.64005 0.84092 0.47827
 N905 N 0.67099 0.83776 0.49991
 H906 H 0.63732 0.85742 0.45335
 N907 N 0.17402 0.30209 0.01237
 N908 N 0.14122 0.28577 0.00538
 C909 C 0.12995 0.29549 -0.02948
 C910 C 0.15707 0.31840 -0.04361
 N911 N 0.18405 0.32182 -0.01667
 H912 H 0.15710 0.33142 -0.07066
 N913 N 0.30468 0.27486 0.01276
 N914 N 0.33543 0.25807 0.02522
 C915 C 0.36350 0.28322 0.02345
 C916 C 0.34898 0.31589 0.00910
 N917 N 0.31237 0.30945 0.00280
 H918 H 0.36295 0.34251 0.00572
 N919 N 0.78139 0.82584 0.57777
 N920 N 0.80753 0.80798 0.59711
 C921 C 0.83665 0.80176 0.57367
 C922 C 0.82741 0.81647 0.53920
 N923 N 0.79274 0.83127 0.54295
 H924 H 0.84458 0.81727 0.51431
   
