data_POSCAR
  _audit_creation_date              2014-09-24
  _audit_creation_method            'ToBaCCo'
  _symmetry_space_group_name_H-M    'P1'
  _symmetry_Int_Tables_number       1
  _symmetry_cell_setting            triclinic
  loop_
  _symmetry_equiv_pos_as_xyz
 x,y,z
_cell_length_a 20.7177
_cell_length_b 21.0828
_cell_length_c 20.5678
_cell_angle_alpha 79.116500
_cell_angle_beta 88.559800
_cell_angle_gamma 87.706700
loop_
  _atom_site_label
  _atom_site_type_symbol
  _atom_site_fract_x
  _atom_site_fract_y
  _atom_site_fract_z
O1 O 0.59648 0.51541 0.01450
 O2 O 0.43218 0.48897 0.08335
 O3 O 0.53375 0.41617 0.07062
 O4 O 0.49657 0.59089 0.03079
 O5 O 0.45829 0.58135 -0.06623
 O6 O 0.49935 0.40668 -0.02766
 O7 O 0.39625 0.48661 -0.01638
 O8 O 0.56017 0.51626 -0.08581
 Cu9 Cu 0.51831 0.50382 0.05968
 Cu10 Cu 0.47647 0.49368 -0.05836
 C11 C 0.60598 0.52149 -0.04747
 C12 C 0.38593 0.48465 0.04507
 C13 C 0.52281 0.38165 0.02822
 C14 C 0.46969 0.61549 -0.02345
 O15 O -0.06693 0.56554 0.53163
 O16 O -0.01251 0.40297 0.50796
 O17 O -0.00378 0.47046 0.60187
 O18 O -0.07650 0.50099 0.43688
 O19 O 0.01693 0.53560 0.39244
 O20 O 0.08744 0.51123 0.55771
 O21 O 0.08005 0.44186 0.46557
 O22 O 0.02329 0.60551 0.48421
 Cu23 Cu -0.04911 0.48059 0.52390
 Cu24 Cu 0.06122 0.52740 0.47056
 C25 C -0.03108 0.61320 0.51223
 C26 C 0.04302 0.39481 0.48266
 C27 C 0.05346 0.48753 0.60800
 C28 C -0.04175 0.52306 0.38660
 O29 O 0.48659 0.08607 0.54675
 O30 O 0.48244 0.01364 0.39772
 O31 O 0.40365 0.01933 0.49687
 O32 O 0.56613 0.07727 0.44733
 O33 O 0.60840 -0.01424 0.50300
 O34 O 0.44616 -0.07035 0.55616
 O35 O 0.52018 -0.07931 0.45485
 O36 O 0.52948 -0.00485 0.60292
 Cu37 Cu 0.48058 0.05838 0.46674
 Cu38 Cu 0.53117 -0.05123 0.53455
 C39 C 0.50770 0.05272 0.60053
 C40 C 0.49932 -0.04536 0.40125
 C41 C 0.39726 -0.03494 0.53524
 C42 C 0.61491 0.04077 0.46622
 C43 C 0.55800 0.18102 -0.08801
 C44 C 0.55323 0.15429 -0.14364
 C45 C 0.52008 0.09772 -0.12459
 N46 N 0.50456 0.08900 -0.05943
 C47 C 0.52773 0.13972 -0.03700
 C48 C 0.50121 0.05683 -0.16728
 C49 C 0.47779 -0.00572 -0.14322
 C50 C 0.44574 -0.04203 -0.18098
 C51 C 0.43599 -0.10115 -0.14165
 C52 C 0.46075 -0.09937 -0.07990
 N53 N 0.48669 -0.04102 -0.08163
 C54 C 0.46445 -0.15242 -0.02588
 C55 C 0.48229 -0.14543 0.03815
 C56 C 0.50207 -0.19506 0.08880
 C57 C 0.50892 -0.16800 0.14384
 C58 C 0.49095 -0.10318 0.12573
 N59 N 0.47539 -0.08951 0.06098
 C60 C 0.48429 -0.05787 0.16839
 C61 C 0.47807 0.00911 0.14231
 C62 C 0.45337 0.05579 0.17647
 C63 C 0.46364 0.11477 0.13679
 C64 C 0.49366 0.10252 0.07924
 N65 N 0.50143 0.03807 0.08246
 C66 C 0.51862 0.15014 0.02831
 H67 H 0.58112 0.22559 -0.08553
 H68 H 0.57232 0.17417 -0.19235
 H69 H 0.52909 0.01570 0.04963
 H70 H 0.43115 -0.02809 -0.23196
 H71 H 0.41453 -0.14090 -0.15838
 H72 H 0.51145 -0.24545 0.08687
 H73 H 0.52578 -0.19354 0.19128
 H74 H 0.45104 0.16145 0.14914
 H75 H 0.51508 -0.02865 -0.04525
 H76 H 0.43069 0.04847 0.22513
 C77 C -0.05738 0.53210 0.79941
 C78 C -0.11677 0.54129 0.82761
 C79 C -0.10940 0.52560 0.89565
 N80 N -0.04770 0.50461 0.90951
 C81 C -0.01568 0.50850 0.85079
 C82 C -0.15937 0.52527 0.94415
 C83 C -0.14544 0.51233 1.01260
 C84 C -0.18812 0.48910 1.06400
 C85 C -0.15755 0.49083 1.12212
 C86 C -0.09758 0.51626 1.10498
 N87 N -0.09001 0.52791 1.03828
 C88 C -0.05286 0.53272 1.14934
 C89 C 0.01318 0.53790 1.13191
 C90 C 0.05858 0.56704 1.16379
 C91 C 0.11754 0.55474 1.13588
 C92 C 0.10609 0.51810 1.08832
 N93 N 0.04224 0.50850 1.08554
 C94 C 0.15351 0.49006 1.05095
 C95 C 0.13744 0.47054 0.99151
 C96 C 0.17550 0.43059 0.95865
 C97 C 0.14583 0.42991 0.89970
 C98 C 0.09042 0.46925 0.89834
 N99 N 0.08518 0.49312 0.95479
 C100 C 0.04944 0.48715 0.84357
 H101 H -0.04730 0.54159 0.74677
 H102 H -0.16005 0.55629 0.79992
 H103 H 0.05234 0.52941 0.96364
 H104 H -0.23600 0.47156 1.06136
 H105 H -0.17757 0.47483 1.17127
 H106 H 0.05021 0.59459 1.20276
 H107 H 0.16331 0.57149 1.14883
 H108 H 0.16343 0.40392 0.86181
 H109 H -0.05226 0.55274 1.01169
 H110 H 0.22027 0.40503 0.97490
 C111 C 0.13778 -0.15982 0.54805
 C112 C 0.08254 -0.19206 0.54359
 C113 C 0.03346 -0.14548 0.52743
 N114 N 0.05697 -0.08593 0.52374
 C115 C 0.12064 -0.09448 0.53704
 C116 C -0.03111 -0.15833 0.51472
 C117 C -0.07823 -0.10949 0.49037
 C118 C -0.13438 -0.12114 0.45989
 C119 C -0.16775 -0.06323 0.44359
 C120 C -0.13132 -0.01713 0.46419
 N121 N -0.07651 -0.04567 0.49265
 C122 C -0.15062 0.04909 0.45638
 C123 C -0.10826 0.09897 0.46144
 C124 C -0.12567 0.16420 0.45188
 C125 C -0.07032 0.19651 0.45547
 C126 C -0.02087 0.15003 0.46982
 N127 N -0.04428 0.09049 0.47317
 C128 C 0.04400 0.16298 0.48112
 C129 C 0.09138 0.11434 0.50514
 C130 C 0.14791 0.12642 0.53464
 C131 C 0.18098 0.06847 0.55192
 C132 C 0.14411 0.02193 0.53263
 N133 N 0.08924 0.05028 0.50414
 C134 C 0.16302 -0.04450 0.54181
 H135 H 0.18495 -0.18270 0.55848
 H136 H 0.07995 -0.24399 0.55078
 H137 H 0.05549 0.02829 0.48009
 H138 H -0.14933 -0.16653 0.44895
 H139 H -0.21325 -0.05589 0.41804
 H140 H -0.17307 0.18699 0.44294
 H141 H -0.06794 0.24840 0.44900
 H142 H 0.22657 0.06147 0.57731
 H143 H -0.04325 -0.02405 0.51769
 H144 H 0.16320 0.17209 0.54454
 C145 C -0.32909 0.53618 0.92585
 C146 C -0.31517 0.58829 0.87713
 C147 C -0.24946 0.59125 0.87666
 C148 C -0.22799 0.53929 0.92370
 O149 O -0.27677 0.50682 0.95431
 H150 H -0.34898 0.62272 0.84911
 H151 H -0.22105 0.62896 0.84792
 C152 C 0.32300 0.47939 1.07027
 C153 C 0.30645 0.46816 1.13671
 C154 C 0.24065 0.46822 1.13889
 C155 C 0.22169 0.48146 1.07357
 O156 O 0.27186 0.48717 1.03196
 H157 H 0.33847 0.46021 1.17849
 H158 H 0.21020 0.45992 1.18297
 C159 C -0.05113 -0.32573 0.52300
 C160 C -0.10643 -0.31325 0.55800
 C161 C -0.10592 -0.24908 0.55986
 C162 C -0.05084 -0.22680 0.52517
 O163 O -0.01743 -0.27337 0.50282
 H164 H -0.14207 -0.34713 0.58066
 H165 H -0.14128 -0.22162 0.58386
 C166 C 0.06412 0.33036 0.47152
 C167 C 0.11809 0.31822 0.43462
 C168 C 0.11764 0.25392 0.43324
 C169 C 0.06369 0.23145 0.46991
 O170 O 0.03108 0.27790 0.49315
 H171 H 0.15274 0.35245 0.41043
 H172 H 0.15214 0.22656 0.40815
 C173 C 0.50458 0.07823 -0.34168
 C174 C 0.47977 0.13903 -0.33716
 C175 C 0.47812 0.14062 -0.27112
 C176 C 0.50248 0.08087 -0.24020
 O177 O 0.51880 0.04318 -0.28311
 H178 H 0.46204 0.17646 -0.37682
 H179 H 0.45828 0.17934 -0.24801
 C180 C 0.49293 -0.07416 0.34236
 C181 C 0.46723 -0.13337 0.34262
 C182 C 0.46007 -0.13619 0.27740
 C183 C 0.48380 -0.07911 0.24204
 O184 O 0.50286 -0.04130 0.28191
 H185 H 0.45154 -0.16817 0.38513
 H186 H 0.43732 -0.17409 0.25845
 C187 C 0.44874 -0.31634 -0.03578
 C188 C 0.38911 -0.29432 -0.06032
 C189 C 0.38647 -0.23002 -0.05884
 C190 C 0.44563 -0.21723 -0.03559
 O191 O 0.48307 -0.27004 -0.02024
 H192 H 0.35123 -0.32238 -0.07488
 H193 H 0.34597 -0.19648 -0.07239
 C194 C 0.53707 0.31181 0.04497
 C195 C 0.57100 0.28253 0.10008
 C196 C 0.57016 0.21813 0.09996
 C197 C 0.53540 0.21281 0.04499
 O198 O 0.51555 0.26971 0.01111
 H199 H 0.59283 0.30545 0.13653
 H200 H 0.59113 0.17939 0.13628
 C201 C -0.32018 0.06204 0.44481
 C202 C -0.30690 0.10937 0.39062
 C203 C -0.24117 0.11130 0.38696
 C204 C -0.21946 0.06611 0.44027
 O205 O -0.26740 0.03546 0.47472
 H206 H -0.34099 0.13763 0.35684
 H207 H -0.21246 0.14135 0.34951
 C208 C 0.33232 -0.05662 0.55592
 C209 C 0.31856 -0.10304 0.61075
 C210 C 0.25283 -0.10552 0.61329
 C211 C 0.23167 -0.06151 0.55881
 O212 O 0.27989 -0.03115 0.52459
 H213 H 0.35228 -0.13023 0.64572
 H214 H 0.22375 -0.13491 0.65091
 C215 C -0.06874 0.53339 1.32033
 C216 C -0.13058 0.55619 1.30425
 C217 C -0.13335 0.56103 1.23721
 C218 C -0.07339 0.53901 1.21787
 O219 O -0.03411 0.52309 1.26845
 H220 H -0.16826 0.56944 1.33709
 H221 H -0.17405 0.57903 1.20626
 C222 C 0.07870 0.48378 0.67456
 C223 C 0.13852 0.50418 0.68776
 C224 C 0.13699 0.50487 0.75392
 C225 C 0.07633 0.48463 0.77622
 O226 O 0.04128 0.47137 0.72801
 H227 H 0.17689 0.52065 0.65270
 H228 H 0.17409 0.52202 0.78173
   
