data_POSCAR
  _audit_creation_date              2014-09-24
  _audit_creation_method            'ToBaCCo'
  _symmetry_space_group_name_H-M    'P1'
  _symmetry_Int_Tables_number       1
  _symmetry_cell_setting            triclinic
  loop_
  _symmetry_equiv_pos_as_xyz
 x,y,z
_cell_length_a 36.6685
_cell_length_b 29.3156
_cell_length_c 21.1140
_cell_angle_alpha 90.657200
_cell_angle_beta 89.393600
_cell_angle_gamma 104.426900
loop_
  _atom_site_label
  _atom_site_type_symbol
  _atom_site_fract_x
  _atom_site_fract_y
  _atom_site_fract_z
O1 O 0.44109 0.99217 0.55811
 O2 O 0.50478 1.07580 0.45749
 O3 O 0.44366 1.00844 0.43851
 O4 O 0.50399 1.05524 0.57553
 O5 O 0.53850 1.00529 0.55313
 O6 O 0.47596 0.95513 0.42213
 O7 O 0.53665 1.02369 0.43179
 O8 O 0.47498 0.94027 0.54391
 Cu9 Cu 0.47012 1.03810 0.50905
 Cu10 Cu 0.50996 0.97592 0.48599
 C11 C 0.44682 0.95215 0.56874
 C12 C 0.53145 1.06492 0.42715
 C13 C 0.44904 0.97301 0.40783
 C14 C 0.53208 1.03854 0.58698
 O15 O 0.04722 0.49347 0.56516
 O16 O -0.01193 0.42487 0.43905
 O17 O 0.04847 0.49470 0.44076
 O18 O -0.01143 0.42194 0.56201
 O19 O -0.04741 0.47195 0.56485
 O20 O 0.01197 0.54420 0.44329
 O21 O -0.04785 0.47511 0.44138
 O22 O 0.01127 0.54353 0.56561
 Cu23 Cu 0.02181 0.45383 0.50137
 Cu24 Cu -0.02169 0.51355 0.50418
 C25 C 0.03932 0.53057 0.58689
 C26 C -0.04001 0.43839 0.41875
 C27 C 0.04041 0.53181 0.42115
 C28 C -0.03973 0.43454 0.58443
 O29 O 0.46094 0.47783 0.43736
 O30 O 0.52968 0.46177 0.55500
 O31 O 0.46191 0.47475 0.55948
 O32 O 0.52826 0.46470 0.43166
 O33 O 0.55271 0.54149 0.43579
 O34 O 0.48631 0.55139 0.56464
 O35 O 0.55409 0.53855 0.55838
 O36 O 0.48486 0.55472 0.44055
 Cu37 Cu 0.49288 0.46207 0.49558
 Cu38 Cu 0.52181 0.55430 0.50022
 C39 C 0.46105 0.51890 0.41878
 C40 C 0.55375 0.49732 0.57671
 C41 C 0.46256 0.51471 0.58405
 C42 C 0.55183 0.50128 0.41184
 O43 O 0.34369 0.64613 -0.05242
 O44 O 0.34099 0.73240 -0.07393
 C45 C 0.32149 0.76058 -0.08939
 O46 O 0.29248 0.76458 -0.05847
 O47 O 0.23114 0.69896 -0.07391
 C48 C 0.21466 0.65646 -0.08549
 O49 O 0.22128 0.62217 -0.05529
 O50 O 0.28593 0.60142 -0.07099
 C51 C 0.32094 0.61351 -0.08264
 O52 O 0.34066 0.66294 0.07358
 O53 O 0.34127 0.75090 0.05202
 C54 C 0.31722 0.76859 0.08049
 O55 O 0.28245 0.75662 0.06806
 O56 O 0.21988 0.69264 0.05215
 C57 C 0.21417 0.65464 0.08335
 O58 O 0.23139 0.62296 0.07152
 O59 O 0.29456 0.59860 0.05510
 C60 C 0.32306 0.62097 0.08623
 Cr61 Cr 0.33950 0.69738 -0.00012
 Cr62 Cr 0.25767 0.72632 -0.00290
 Cr63 Cr 0.25936 0.61393 0.00006
 O64 O 0.28547 0.67921 -0.00097
 O65 O 0.66474 0.34083 -0.08442
 O66 O 0.65177 0.25213 -0.05543
 C67 C 0.67271 0.22789 -0.07959
 O68 O 0.70659 0.23302 -0.06358
 O69 O 0.77370 0.28825 -0.04981
 C70 C 0.78365 0.32563 -0.08291
 O71 O 0.77096 0.36165 -0.07347
 O72 O 0.71412 0.40018 -0.06245
 C73 C 0.68557 0.38131 -0.09594
 O74 O 0.66086 0.36427 0.03937
 O75 O 0.65245 0.27697 0.06785
 C76 C 0.66715 0.24613 0.09087
 O77 O 0.69413 0.23268 0.06414
 O78 O 0.76074 0.28849 0.07679
 C79 C 0.78180 0.32913 0.08590
 O80 O 0.77998 0.36439 0.05284
 O81 O 0.72051 0.39755 0.06456
 C82 C 0.68547 0.39235 0.07276
 Cr83 Cr 0.65949 0.30870 -0.00805
 Cr84 Cr 0.73293 0.26268 0.00640
 Cr85 Cr 0.74514 0.37850 -0.00461
 O86 O 0.71259 0.31645 -0.00222
 C87 C 0.40402 0.86400 -0.30472
 C88 C 0.36796 0.86998 -0.30360
 C89 C 0.35568 0.89934 -0.34488
 C90 C 0.38185 0.92454 -0.38836
 C91 C 0.41955 0.92008 -0.38999
 C92 C 0.43063 0.88850 -0.34840
 O93 O 0.41004 0.83594 -0.25900
 C94 C 0.37712 0.82431 -0.22849
 C95 C 0.35057 0.84439 -0.25403
 C96 C 0.31479 0.83901 -0.22824
 C97 C 0.30578 0.81159 -0.17379
 C98 C 0.33241 0.79002 -0.14627
 C99 C 0.36863 0.79638 -0.17443
 H100 H 0.32722 0.90364 -0.34263
 H101 H 0.37293 0.94842 -0.42002
 H102 H 0.45935 0.88508 -0.34781
 H103 H 0.29460 0.85569 -0.24901
 H104 H 0.27789 0.80694 -0.15339
 H105 H 0.38968 0.78074 -0.15439
 C106 C 0.11139 0.56995 -0.28802
 C107 C 0.10477 0.61281 -0.27229
 C108 C 0.07699 0.63001 -0.30059
 C109 C 0.05502 0.60193 -0.34718
 C110 C 0.06150 0.55769 -0.36562
 C111 C 0.09040 0.54174 -0.33532
 O112 O 0.13859 0.55981 -0.25397
 C113 C 0.14942 0.59724 -0.21622
 C114 C 0.12977 0.63080 -0.22605
 C115 C 0.13680 0.67316 -0.19270
 C116 C 0.16525 0.68132 -0.14714
 C117 C 0.18558 0.64700 -0.13505
 C118 C 0.17742 0.60422 -0.17012
 H119 H 0.07219 0.66376 -0.28696
 H120 H 0.03324 0.61517 -0.36930
 H121 H 0.09611 0.50817 -0.34737
 H122 H 0.12101 0.69907 -0.20155
 H123 H 0.17102 0.71410 -0.12051
 H124 H 0.19263 0.57754 -0.16222
 C125 C 0.41300 0.56322 -0.28717
 C126 C 0.38474 0.52410 -0.27290
 C127 C 0.38107 0.48098 -0.30338
 C128 C 0.40757 0.47803 -0.35067
 C129 C 0.43678 0.51814 -0.36750
 C130 C 0.43926 0.56142 -0.33487
 O131 O 0.41191 0.60052 -0.25161
 C132 C 0.38218 0.58460 -0.21431
 C133 C 0.36438 0.53816 -0.22581
 C134 C 0.33220 0.51466 -0.19307
 C135 C 0.31781 0.54006 -0.14646
 C136 C 0.33606 0.58777 -0.13282
 C137 C 0.36879 0.61027 -0.16734
 H138 H 0.35870 0.45060 -0.29101
 H139 H 0.40488 0.44449 -0.37461
 H140 H 0.46115 0.59275 -0.34566
 H141 H 0.31858 0.47815 -0.20322
 H142 H 0.29281 0.52238 -0.12031
 H143 H 0.38310 0.64676 -0.15840
 C144 C 0.57877 0.11539 -0.27666
 C145 C 0.60929 0.09705 -0.26700
 C146 C 0.61568 0.05932 -0.30195
 C147 C 0.58967 0.03983 -0.34918
 C148 C 0.55805 0.05831 -0.36078
 C149 C 0.55251 0.09656 -0.32346
 O150 O 0.57837 0.15183 -0.23890
 C151 C 0.60936 0.15660 -0.20481
 C152 C 0.62928 0.12398 -0.22032
 C153 C 0.66308 0.12321 -0.19180
 C154 C 0.67701 0.15753 -0.14539
 C155 C 0.65704 0.19167 -0.12817
 C156 C 0.62254 0.19089 -0.15836
 H157 H 0.64001 0.04563 -0.29355
 H158 H 0.59451 0.01068 -0.37715
 H159 H 0.52887 0.11172 -0.33119
 H160 H 0.67833 0.09732 -0.20512
 H161 H 0.70337 0.15738 -0.12285
 H162 H 0.60675 0.21660 -0.14686
 C163 C 0.88546 0.39542 -0.29427
 C164 C 0.89339 0.35454 -0.27401
 C165 C 0.92292 0.33803 -0.29926
 C166 C 0.94515 0.36481 -0.34703
 C167 C 0.93753 0.40733 -0.36877
 C168 C 0.90688 0.42234 -0.34175
 O169 O 0.85707 0.40599 -0.26313
 C170 C 0.84681 0.37110 -0.22224
 C171 C 0.86792 0.33847 -0.22681
 C172 C 0.86207 0.29963 -0.18706
 C173 C 0.83359 0.29465 -0.14046
 C174 C 0.81195 0.32850 -0.13430
 C175 C 0.81863 0.36691 -0.17660
 H176 H 0.92890 0.30596 -0.28237
 H177 H 0.96836 0.35238 -0.36668
 H178 H 0.90008 0.45454 -0.35630
 H179 H 0.87909 0.27442 -0.19125
 H180 H 0.82899 0.26511 -0.10849
 H181 H 0.80279 0.39350 -0.17359
 C182 C 0.60365 0.44120 -0.30247
 C183 C 0.63335 0.47843 -0.28697
 C184 C 0.63872 0.52259 -0.31428
 C185 C 0.61238 0.52856 -0.35932
 C186 C 0.58152 0.49058 -0.37625
 C187 C 0.57736 0.44622 -0.34736
 O188 O 0.60282 0.40267 -0.26961
 C189 C 0.63265 0.41580 -0.23252
 C190 C 0.65241 0.46175 -0.24135
 C191 C 0.68410 0.48289 -0.20618
 C192 C 0.69557 0.45573 -0.15950
 C193 C 0.67520 0.40842 -0.14867
 C194 C 0.64350 0.38822 -0.18655
 H195 H 0.66212 0.55152 -0.30100
 H196 H 0.61606 0.56275 -0.38093
 H197 H 0.55402 0.41661 -0.35863
 H198 H 0.69914 0.51919 -0.21373
 H199 H 0.71981 0.47195 -0.13101
 H200 H 0.62710 0.35242 -0.17953
 C201 C 0.89006 0.40582 0.28577
 C202 C 0.88965 0.35919 0.27664
 C203 C 0.91199 0.33664 0.31126
 C204 C 0.93562 0.36324 0.35743
 C205 C 0.93604 0.41119 0.36859
 C206 C 0.91289 0.43269 0.33197
 O207 O 0.86695 0.42063 0.24754
 C208 C 0.85144 0.38242 0.21368
 C209 C 0.86420 0.34381 0.22998
 C210 C 0.85104 0.29985 0.20169
 C211 C 0.82363 0.29548 0.15466
 C212 C 0.81031 0.33489 0.13626
 C213 C 0.82462 0.37908 0.16622
 H214 H 0.91124 0.29991 0.30306
 H215 H 0.95308 0.34627 0.38514
 H216 H 0.91272 0.46928 0.33906
 H217 H 0.86135 0.26993 0.21555
 H218 H 0.81312 0.26146 0.13203
 H219 H 0.81481 0.40968 0.15363
 C220 C 0.59834 0.12494 0.30171
 C221 C 0.59669 0.17058 0.31346
 C222 C 0.57510 0.18326 0.36150
 C223 C 0.55377 0.14739 0.39906
 C224 C 0.55481 0.09956 0.38932
 C225 C 0.57828 0.08837 0.34047
 O226 O 0.61783 0.12071 0.24920
 C227 C 0.62855 0.16470 0.22780
 C228 C 0.61646 0.19629 0.26620
 C229 C 0.62204 0.24356 0.25210
 C230 C 0.64022 0.25910 0.19518
 C231 C 0.65219 0.22748 0.15309
 C232 C 0.64716 0.17963 0.17028
 H233 H 0.57375 0.21944 0.36861
 H234 H 0.53646 0.15729 0.43607
 H235 H 0.57915 0.05233 0.33058
 H236 H 0.61186 0.26744 0.28306
 H237 H 0.64425 0.29587 0.18315
 H238 H 0.65549 0.15465 0.13863
 C239 C 0.59714 0.45252 0.27438
 C240 C 0.62992 0.48719 0.26715
 C241 C 0.63850 0.52771 0.30469
 C242 C 0.61227 0.53254 0.35171
 C243 C 0.57857 0.49679 0.36077
 C244 C 0.57100 0.45629 0.32124
 O245 O 0.59424 0.41687 0.23394
 C246 C 0.62596 0.42913 0.20059
 C247 C 0.64894 0.47169 0.21920
 C248 C 0.68410 0.49034 0.19179
 C249 C 0.69603 0.46397 0.14338
 C250 C 0.67255 0.42026 0.12288
 C251 C 0.63693 0.40283 0.15191
 H252 H 0.66446 0.55456 0.29814
 H253 H 0.61853 0.56368 0.38172
 H254 H 0.54549 0.42847 0.32671
 H255 H 0.70186 0.52371 0.20756
 H256 H 0.72340 0.47769 0.12165
 H257 H 0.61862 0.36927 0.13803
 C258 C 0.11352 0.57277 0.29258
 C259 C 0.10682 0.61554 0.27806
 C260 C 0.07933 0.63305 0.30857
 C261 C 0.05776 0.60526 0.35590
 C262 C 0.06404 0.56090 0.37193
 C263 C 0.09256 0.54465 0.33976
 O264 O 0.14048 0.56230 0.25709
 C265 C 0.15101 0.59929 0.21938
 C266 C 0.13132 0.63288 0.23038
 C267 C 0.13751 0.67423 0.19589
 C268 C 0.16507 0.68121 0.14791
 C269 C 0.18573 0.64698 0.13514
 C270 C 0.17851 0.60545 0.17187
 H271 H 0.07448 0.66675 0.29611
 H272 H 0.03613 0.61836 0.37992
 H273 H 0.09796 0.51091 0.35044
 H274 H 0.12160 0.70011 0.20538
 H275 H 0.17006 0.71322 0.12055
 H276 H 0.19361 0.57853 0.16354
 C277 C 0.40580 0.89295 0.27266
 C278 C 0.37240 0.90554 0.26556
 C279 C 0.36301 0.94114 0.30146
 C280 C 0.38893 0.96430 0.34709
 C281 C 0.42329 0.95130 0.35623
 C282 C 0.43184 0.91531 0.31778
 O283 O 0.40912 0.85782 0.23460
 C284 C 0.37702 0.84783 0.20286
 C285 C 0.35350 0.87587 0.22020
 C286 C 0.31798 0.87045 0.19434
 C287 C 0.30626 0.83478 0.14866
 C288 C 0.33012 0.80556 0.12939
 C289 C 0.36613 0.81246 0.15702
 H290 H 0.33649 0.95036 0.29511
 H291 H 0.38181 0.99152 0.37621
 H292 H 0.45769 0.90434 0.32352
 H293 H 0.29983 0.89269 0.20905
 H294 H 0.27867 0.83023 0.12800
 H295 H 0.38491 0.79061 0.14391
 C296 C 0.41058 0.57084 0.29364
 C297 C 0.38107 0.53277 0.28050
 C298 C 0.37591 0.48985 0.31093
 C299 C 0.40234 0.48587 0.35669
 C300 C 0.43314 0.52456 0.37136
 C301 C 0.43708 0.56781 0.33944
 O302 O 0.41079 0.60796 0.25797
 C303 C 0.38074 0.59292 0.22160
 C304 C 0.36160 0.54719 0.23371
 C305 C 0.32970 0.52405 0.20060
 C306 C 0.31706 0.54894 0.15273
 C307 C 0.33640 0.59615 0.13859
 C308 C 0.36869 0.61843 0.17409
 H309 H 0.35255 0.46033 0.29946
 H310 H 0.39877 0.45255 0.38061
 H311 H 0.46039 0.59787 0.34906
 H312 H 0.31520 0.48797 0.21094
 H313 H 0.29233 0.53113 0.12639
 H314 H 0.38424 0.65425 0.16458
   
