data_POSCAR
  _audit_creation_date              2014-09-24
  _audit_creation_method            'ToBaCCo'
  _symmetry_space_group_name_H-M    'P1'
  _symmetry_Int_Tables_number       1
  _symmetry_cell_setting            triclinic
  loop_
  _symmetry_equiv_pos_as_xyz
 x,y,z
_cell_length_a 19.0358
_cell_length_b 18.7018
_cell_length_c 19.0491
_cell_angle_alpha 91.640200
_cell_angle_beta 89.987700
_cell_angle_gamma 90.605900
loop_
  _atom_site_label
  _atom_site_type_symbol
  _atom_site_fract_x
  _atom_site_fract_y
  _atom_site_fract_z
Si1 Si -0.00253 0.50598 0.25639
 Si2 Si 0.00257 0.49480 0.74206
 Si3 Si 0.23938 -0.00286 0.49099
 Si4 Si 0.75995 0.00160 0.49603
 Si5 Si 0.50427 0.24817 0.99665
 Si6 Si 0.49941 0.74907 1.01171
 B7 B 1.00282 1.07692 0.04213
 B8 B 1.04670 1.00119 0.06797
 B9 B 0.95658 1.00233 0.06964
 B10 B 0.92840 1.04824 -0.00231
 B11 B 1.00289 1.07697 -0.04664
 B12 B 1.07651 1.04581 -0.00435
 B13 B 0.99863 0.92731 -0.05238
 B14 B 0.95526 1.00330 -0.07716
 B15 B 1.04542 1.00112 -0.07970
 B16 B 1.07367 0.95362 -0.00573
 B17 B 0.99948 0.92681 0.03870
 B18 B 0.92632 0.95660 -0.00497
 B19 B 0.57393 0.50051 0.45917
 B20 B 0.57370 0.49998 0.54942
 B21 B 0.54560 0.57525 0.50634
 B22 B 0.49928 0.54647 0.43164
 B23 B 0.49981 0.45420 0.42896
 B24 B 0.54499 0.42538 0.50062
 B25 B 0.42666 0.50030 0.54911
 B26 B 0.42582 0.50035 0.45872
 B27 B 0.45348 0.42553 0.50191
 B28 B 0.49947 0.45351 0.57593
 B29 B 0.50065 0.54541 0.57970
 B30 B 0.45582 0.57556 0.50584
 C31 C 0.98978 1.30118 0.13457
 C32 C 0.93939 1.25004 0.15213
 C33 C 0.94327 1.18029 0.12370
 C34 C 0.99275 1.42803 0.19842
 C35 C 1.04599 1.21349 0.05970
 C36 C 1.04250 1.28289 0.08749
 C37 C 0.99014 1.37123 0.16730
 C38 C 0.99923 1.15818 0.07960
 H39 H 0.89708 1.26389 0.18789
 H40 H 0.90189 1.14461 0.13745
 H41 H 1.08392 1.20573 0.01902
 H42 H 1.08078 1.32251 0.07141
 C43 C 0.99343 0.71747 0.15245
 C44 C 0.98135 0.78177 0.18944
 C45 C 0.98395 0.84707 0.15471
 C46 C 0.99424 0.59169 0.21331
 C47 C 1.01118 0.78395 0.04720
 C48 C 1.00851 0.71917 0.08134
 C49 C 0.99312 0.64944 0.18649
 C50 C 0.99850 0.85054 0.08171
 H51 H 0.97120 0.78175 0.24539
 H52 H 0.97901 0.89434 0.18730
 H53 H 1.02321 0.77871 -0.00653
 H54 H 1.01870 0.66998 0.05174
 C55 C 1.00666 1.29639 -0.13772
 C56 C 1.06470 1.25206 -0.14472
 C57 C 1.06398 1.18521 -0.11382
 C58 C 1.00410 1.41913 -0.20169
 C59 C 0.95093 1.20873 -0.06590
 C60 C 0.95051 1.27547 -0.09640
 C61 C 1.00563 1.36421 -0.17064
 C62 C 1.00414 1.15781 -0.08015
 H63 H 1.11168 1.27038 -0.17116
 H64 H 1.11322 1.16112 -0.10714
 H65 H 0.91314 1.20198 -0.02518
 H66 H 0.90763 1.31176 -0.08536
 C67 C 1.00292 0.71376 -0.16384
 C68 C 1.06052 0.75998 -0.16798
 C69 C 1.05693 0.82888 -0.13781
 C70 C 1.00656 0.58115 -0.21370
 C71 C 0.93727 0.80687 -0.10467
 C72 C 0.94057 0.73827 -0.13459
 C73 C 1.00646 0.64136 -0.19007
 C74 C 0.99647 0.85314 -0.10133
 H75 H 1.10889 0.74228 -0.19256
 H76 H 1.10380 0.86178 -0.13999
 H77 H 0.88806 0.82025 -0.08283
 H78 H 0.89457 0.70365 -0.13329
 C79 C 1.14829 0.99383 0.27837
 C80 C 1.13277 1.05939 0.24997
 C81 C 1.10563 1.06208 0.18236
 C82 C 1.19509 0.99243 0.40790
 C83 C 1.11504 0.93447 0.16927
 C84 C 1.14205 0.93144 0.23715
 C85 C 1.17229 0.99168 0.34926
 C86 C 1.09086 0.99936 0.14191
 H87 H 1.13897 1.10849 0.28109
 H88 H 1.08836 1.11349 0.16690
 H89 H 1.11396 0.88525 0.13865
 H90 H 1.15751 0.88043 0.25750
 C91 C 1.12505 0.99663 -0.30731
 C92 C 1.15575 1.04278 -0.25789
 C93 C 1.13217 1.04476 -0.18859
 C94 C 1.18312 0.99275 -0.43284
 C95 C 1.04602 0.95589 -0.21785
 C96 C 1.06946 0.95343 -0.28741
 C97 C 1.15339 0.99307 -0.37713
 C98 C 1.07788 0.99954 -0.16344
 H99 H 1.19888 1.07756 -0.27279
 H100 H 1.16035 1.08250 -0.15794
 H101 H 1.00090 0.92299 -0.20913
 H102 H 1.04372 0.91793 -0.32555
 C103 C 0.86600 0.98985 0.28857
 C104 C 0.92239 1.03465 0.27465
 C105 C 0.94668 1.04082 0.20619
 C106 C 0.81037 0.99279 0.41565
 C107 C 0.85809 0.95943 0.16414
 C108 C 0.83277 0.95314 0.23288
 C109 C 0.83716 0.98961 0.35836
 C110 C 0.91832 1.00123 0.14846
 H111 H 0.94625 1.06718 0.31639
 H112 H 0.98458 1.08142 0.19936
 H113 H 0.82617 0.93593 0.12431
 H114 H 0.78585 0.92146 0.24209
 C115 C 0.86075 1.00396 -0.29337
 C116 C 0.84305 0.94973 -0.24757
 C117 C 0.86979 0.95094 -0.17911
 C118 C 0.80846 1.00224 -0.42200
 C119 C 0.93074 1.06107 -0.20176
 C120 C 0.90403 1.05999 -0.26996
 C121 C 0.83388 1.00271 -0.36404
 C122 C 0.91424 1.00677 -0.15350
 H123 H 0.80941 0.90565 -0.26509
 H124 H 0.85647 0.90646 -0.14790
 H125 H 0.96794 1.10276 -0.19007
 H126 H 0.91888 1.10215 -0.30508
 C127 C 1.29958 1.13277 -0.00348
 C128 C 1.25200 1.15740 0.04673
 C129 C 1.18326 1.13074 0.04721
 C130 C 1.42553 1.19301 -0.00508
 C131 C 1.20968 1.05315 -0.05036
 C132 C 1.27868 1.07944 -0.05150
 C133 C 1.36925 1.16304 -0.00503
 C134 C 1.15735 1.08168 -0.00471
 H135 H 1.26814 1.19699 0.08633
 H136 H 1.15244 1.14981 0.08967
 H137 H 1.19905 1.00625 -0.08300
 H138 H 1.31593 1.05676 -0.08871
 C139 C 0.71142 1.14177 -0.00790
 C140 C 0.73765 1.11499 0.05394
 C141 C 0.80593 1.08911 0.05652
 C142 C 0.58501 1.19819 -0.00753
 C143 C 0.82274 1.11755 -0.06436
 C144 C 0.75431 1.14378 -0.06704
 C145 C 0.64191 1.17080 -0.00883
 C146 C 0.85136 1.08915 -0.00222
 H147 H 0.70516 1.11392 0.10066
 H148 H 0.82067 1.06916 0.10562
 H149 H 0.85286 1.12075 -0.11153
 H150 H 0.73500 1.16558 -0.11538
 C151 C 1.28846 0.84987 0.00929
 C152 C 1.27455 0.91379 0.04471
 C153 C 1.20693 0.94159 0.04431
 C154 C 1.41727 0.79759 0.00838
 C155 C 1.16460 0.83954 -0.02035
 C156 C 1.23257 0.81101 -0.02065
 C157 C 1.35903 0.82249 0.00807
 C158 C 1.15046 0.90991 0.00460
 H159 H 1.31610 0.94289 0.07243
 H160 H 1.20176 0.99065 0.07404
 H161 H 1.12486 0.80368 -0.03804
 H162 H 1.24116 0.75808 -0.04346
 C163 C 0.70994 0.85542 0.00450
 C164 C 0.72197 0.91662 -0.03337
 C165 C 0.78958 0.94519 -0.03842
 C166 C 0.58170 0.79939 0.01043
 C167 C 0.83490 0.85058 0.03024
 C168 C 0.76685 0.82140 0.03511
 C169 C 0.63971 0.82601 0.00852
 C170 C 0.84819 0.91576 -0.00434
 H171 H 0.67907 0.94210 -0.06007
 H172 H 0.79479 0.98928 -0.07215
 H173 H 0.87558 0.82216 0.05557
 H174 H 0.75870 0.77246 0.06322
 C175 C 0.79375 0.48971 0.36846
 C176 C 0.77478 0.54410 0.41515
 C177 C 0.70712 0.54631 0.44229
 C178 C 0.91888 0.49716 0.30913
 C179 C 0.67666 0.43856 0.37895
 C180 C 0.74486 0.43597 0.35089
 C181 C 0.86258 0.49186 0.33746
 C182 C 0.65370 0.49671 0.42256
 H183 H 0.81254 0.58525 0.43109
 H184 H 0.69935 0.58755 0.48020
 H185 H 0.64367 0.39249 0.36830
 H186 H 0.75950 0.39160 0.31632
 C187 C 0.20866 0.49700 0.35767
 C188 C 0.22454 0.54251 0.41412
 C189 C 0.29204 0.54443 0.44229
 C190 C 0.08111 0.50033 0.30215
 C191 C 0.32945 0.45643 0.35833
 C192 C 0.26164 0.45423 0.32908
 C193 C 0.13897 0.49755 0.32787
 C194 C 0.34767 0.50131 0.41704
 H195 H 0.18492 0.57790 0.43603
 H196 H 0.29967 0.58418 0.48153
 H197 H 0.36557 0.42082 0.33484
 H198 H 0.25064 0.41867 0.28444
 C199 C 0.78865 0.49747 0.65060
 C200 C 0.76024 0.56182 0.63051
 C201 C 0.69163 0.56358 0.60464
 C202 C 0.91921 0.49291 0.69660
 C203 C 0.67743 0.43979 0.62477
 C204 C 0.74584 0.43695 0.65097
 C205 C 0.86026 0.49437 0.67395
 C206 C 0.65038 0.50090 0.59287
 H207 H 0.79121 0.61075 0.63408
 H208 H 0.67437 0.61471 0.59167
 H209 H 0.64983 0.39107 0.62414
 H210 H 0.76566 0.38691 0.66988
 C211 C 0.21104 0.48982 0.64172
 C212 C 0.24059 0.55547 0.62545
 C213 C 0.30960 0.55941 0.60182
 C214 C 0.08197 0.48849 0.69101
 C215 C 0.32195 0.43319 0.61581
 C216 C 0.25253 0.42884 0.63945
 C217 C 0.13991 0.48721 0.66611
 C218 C 0.35099 0.49787 0.59122
 H219 H 0.20976 0.60382 0.62950
 H220 H 0.32683 0.61124 0.58613
 H221 H 0.35248 0.38543 0.61858
 H222 H 0.23151 0.37805 0.65621
 C223 C 0.48723 0.65463 0.22308
 C224 C 0.45875 0.58698 0.23135
 C225 C 0.45735 0.55738 0.29747
 C226 C 0.49641 0.70581 0.09552
 C227 C 0.50460 0.66425 0.34907
 C228 C 0.50669 0.69520 0.28279
 C229 C 0.49271 0.68249 0.15370
 C230 C 0.49004 0.59047 0.35685
 H231 H 0.43822 0.55639 0.18656
 H232 H 0.43364 0.50607 0.29916
 H233 H 0.51021 0.69999 0.39381
 H234 H 0.52216 0.75081 0.27847
 C235 C 0.50019 0.63218 0.80537
 C236 C 0.44521 0.64697 0.76025
 C237 C 0.44591 0.62091 0.69077
 C238 C 0.50029 0.69179 0.93304
 C239 C 0.55541 0.56430 0.71102
 C240 C 0.55525 0.59036 0.78061
 C241 C 0.50055 0.66198 0.87602
 C242 C 0.50228 0.58120 0.66170
 H243 H 0.40129 0.67878 0.77870
 H244 H 0.40137 0.63376 0.66108
 H245 H 0.59436 0.52538 0.70056
 H246 H 0.59734 0.57596 0.81564
 C247 C 0.50723 0.34929 0.21243
 C248 C 0.46708 0.31810 0.26518
 C249 C 0.46652 0.34823 0.33360
 C250 C 0.50462 0.29591 0.08167
 C251 C 0.54767 0.43905 0.29714
 C252 C 0.54852 0.40909 0.22922
 C253 C 0.50544 0.32111 0.14089
 C254 C 0.50562 0.41083 0.35165
 H255 H 0.43428 0.27171 0.25299
 H256 H 0.43002 0.32540 0.37003
 H257 H 0.57743 0.48802 0.30522
 H258 H 0.57998 0.43421 0.18922
 C259 C 0.49918 0.35473 0.79020
 C260 C 0.45557 0.41156 0.77586
 C261 C 0.45350 0.43900 0.70854
 C262 C 0.50246 0.29973 0.91695
 C263 C 0.53628 0.35146 0.66809
 C264 C 0.53846 0.32368 0.73566
 C265 C 0.50122 0.32643 0.85995
 C266 C 0.49601 0.41223 0.65255
 H267 H 0.42330 0.43538 0.81697
 H268 H 0.41925 0.48344 0.70265
 H269 H 0.56624 0.32333 0.62841
 H270 H 0.57088 0.27769 0.74520
 C271 C 0.64380 0.79500 0.50145
 C272 C 0.64858 0.74849 0.44322
 C273 C 0.62108 0.67908 0.44610
 C274 C 0.70404 0.92270 0.49772
 C275 C 0.58769 0.70088 0.56615
 C276 C 0.61488 0.77042 0.56353
 C277 C 0.67435 0.86558 0.49929
 C278 C 0.58618 0.65410 0.50639
 H279 H 0.67350 0.76575 0.39536
 H280 H 0.62583 0.64531 0.39944
 H281 H 0.57082 0.68360 0.61665
 H282 H 0.61440 0.80452 0.61048
 C283 C 0.65945 0.21524 0.48345
 C284 C 0.69699 0.27775 0.50115
 C285 C 0.66328 0.34418 0.50092
 C286 C 0.71581 0.08699 0.49171
 C287 C 0.55867 0.28709 0.45948
 C288 C 0.59116 0.22076 0.45919
 C289 C 0.69041 0.14557 0.48803
 C290 C 0.59010 0.34970 0.48910
 H291 H 0.75219 0.27543 0.51461
 H292 H 0.69602 0.39092 0.50786
 H293 H 0.50715 0.28656 0.43895
 H294 H 0.56232 0.17359 0.44073
 C295 C 0.36117 0.79586 0.49135
 C296 C 0.35092 0.74522 0.43711
 C297 C 0.38012 0.67705 0.44144
 C298 C 0.29633 0.92007 0.49078
 C299 C 0.43001 0.71025 0.55284
 C300 C 0.40135 0.77825 0.54890
 C301 C 0.32770 0.86444 0.49024
 C302 C 0.41893 0.65592 0.50097
 H303 H 0.32025 0.75819 0.39137
 H304 H 0.37181 0.64148 0.39681
 H305 H 0.46210 0.70295 0.59698
 H306 H 0.41074 0.81719 0.59120
 C307 C 0.33587 0.21515 0.50445
 C308 C 0.39861 0.22492 0.54027
 C309 C 0.43161 0.29150 0.54202
 C310 C 0.28157 0.08451 0.49567
 C311 C 0.33745 0.34145 0.47802
 C312 C 0.30356 0.27426 0.47544
 C313 C 0.30566 0.14436 0.49910
 C314 C 0.40636 0.35035 0.50518
 H315 H 0.42352 0.18043 0.56532
 H316 H 0.48094 0.29321 0.56669
 H317 H 0.30698 0.38566 0.46246
 H318 H 0.25204 0.26877 0.45165
   
