data_POSCAR
  _audit_creation_date              2014-09-24
  _audit_creation_method            'ToBaCCo'
  _symmetry_space_group_name_H-M    'P1'
  _symmetry_Int_Tables_number       1
  _symmetry_cell_setting            triclinic
  loop_
  _symmetry_equiv_pos_as_xyz
 x,y,z
_cell_length_a 38.2718
_cell_length_b 41.6934
_cell_length_c 21.4781
_cell_angle_alpha 89.730100
_cell_angle_beta 90.121200
_cell_angle_gamma 90.002800
loop_
  _atom_site_label
  _atom_site_type_symbol
  _atom_site_fract_x
  _atom_site_fract_y
  _atom_site_fract_z
C1 C 1.27665 0.21734 0.28302
 C2 C 1.24812 0.23486 0.26014
 C3 C 1.21803 0.21869 0.24063
 C4 C 1.21641 0.18511 0.24279
 C5 C 1.24534 0.16775 0.26578
 C6 C 1.27616 0.18355 0.28575
 C7 C 1.25075 0.27012 0.25394
 C8 C 1.28097 0.28371 0.22774
 C9 C 1.28402 0.31707 0.21954
 C10 C 1.25621 0.33657 0.23936
 C11 C 1.22610 0.32348 0.26613
 C12 C 1.22337 0.29014 0.27322
 H13 H 1.29875 0.23066 0.30078
 H14 H 1.19607 0.23230 0.22266
 H15 H 1.30126 0.26789 0.21088
 H16 H 1.20016 0.27983 0.29406
 H17 H 1.24432 0.14186 0.26400
 H18 H 1.25865 0.36244 0.23791
 C19 C 0.77359 -0.28825 0.27903
 C20 C 0.74733 -0.26777 0.25601
 C21 C 0.71597 -0.28086 0.23378
 C22 C 0.71012 -0.31381 0.23665
 C23 C 0.73618 -0.33401 0.26013
 C24 C 0.76823 -0.32180 0.28210
 C25 C 0.75100 -0.23250 0.25949
 C26 C 0.78139 -0.21687 0.23918
 C27 C 0.78362 -0.18316 0.24001
 C28 C 0.75489 -0.16527 0.26219
 C29 C 0.72456 -0.18086 0.28373
 C30 C 0.72309 -0.21435 0.28227
 H31 H 0.79698 -0.27758 0.29830
 H32 H 0.69566 -0.26528 0.21559
 H33 H 0.80310 -0.23097 0.22212
 H34 H 0.69967 -0.22647 0.29811
 H35 H 0.73161 -0.35960 0.25811
 H36 H 0.75601 -0.13932 0.26234
 C37 C 0.78070 0.21800 -0.24016
 C38 C 0.75009 0.23311 -0.26119
 C39 C 0.72238 0.21441 -0.28336
 C40 C 0.72419 0.18092 -0.28309
 C41 C 0.75500 0.16592 -0.26211
 C42 C 0.78344 0.18432 -0.24026
 C43 C 0.74592 0.26837 -0.25888
 C44 C 0.77230 0.28905 -0.28055
 C45 C 0.76673 0.32258 -0.28382
 C46 C 0.73423 0.33456 -0.26367
 C47 C 0.70802 0.31414 -0.24151
 C48 C 0.71415 0.28124 -0.23837
 H49 H 0.80219 0.23244 -0.22315
 H50 H 0.69918 0.22611 -0.30148
 H51 H 0.79606 0.27855 -0.29850
 H52 H 0.69378 0.26553 -0.22101
 H53 H 0.75636 0.13998 -0.26075
 H54 H 0.72944 0.36011 -0.26179
 C55 C 1.28381 -0.28289 -0.22776
 C56 C 1.25240 -0.26928 -0.24943
 C57 C 1.22585 -0.28934 -0.27222
 C58 C 1.23123 -0.32258 -0.27557
 C59 C 1.26309 -0.33554 -0.25556
 C60 C 1.28995 -0.31603 -0.23194
 C61 C 1.24904 -0.23391 -0.25247
 C62 C 1.27739 -0.21570 -0.27385
 C63 C 1.27616 -0.18219 -0.27502
 C64 C 1.24530 -0.16665 -0.25627
 C65 C 1.21622 -0.18452 -0.23533
 C66 C 1.21840 -0.21823 -0.23376
 H67 H 1.30416 -0.26713 -0.21085
 H68 H 1.20173 -0.27906 -0.28968
 H69 H 1.30057 -0.22781 -0.29056
 H70 H 1.19638 -0.23229 -0.21758
 H71 H 1.26604 -0.36137 -0.25569
 H72 H 1.24435 -0.14069 -0.25609
 C73 C 0.21555 0.28159 0.73021
 C74 C 0.23129 0.25352 0.75244
 C75 C 0.21018 0.22832 0.77412
 C76 C 0.17324 0.23075 0.77499
 C77 C 0.15814 0.25964 0.75186
 C78 C 0.17916 0.28503 0.72940
 C79 C 0.27002 0.25090 0.75350
 C80 C 0.29036 0.27680 0.77472
 C81 C 0.32721 0.27517 0.77584
 C82 C 0.34307 0.24672 0.75501
 C83 C 0.32327 0.22065 0.73409
 C84 C 0.28673 0.22287 0.73311
 H85 H 0.23187 0.30107 0.71368
 H86 H 0.22311 0.20655 0.78897
 H87 H 0.27702 0.29759 0.79296
 H88 H 0.27139 0.20290 0.71608
 H89 H 0.13016 0.26309 0.75258
 H90 H 0.37119 0.24514 0.75110
 C91 C 0.71406 0.77938 0.73764
 C92 C 0.73284 0.75219 0.75730
 C93 C 0.71496 0.72633 0.78458
 C94 C 0.67851 0.72706 0.79256
 C95 C 0.66035 0.75459 0.77258
 C96 C 0.67744 0.78099 0.74503
 C97 C 0.77128 0.75020 0.74926
 C98 C 0.79313 0.77555 0.76724
 C99 C 0.82975 0.77280 0.76327
 C100 C 0.84425 0.74424 0.73937
 C101 C 0.82253 0.71856 0.72107
 C102 C 0.78620 0.72204 0.72590
 H103 H 0.72830 0.79929 0.71747
 H104 H 0.73001 0.70615 0.80171
 H105 H 0.78154 0.79727 0.78540
 H106 H 0.76924 0.70276 0.71076
 H107 H 0.63214 0.75403 0.77245
 H108 H 0.87236 0.74152 0.73725
 C109 C 0.71266 0.27506 0.22375
 C110 C 0.73264 0.24924 0.24669
 C111 C 0.71557 0.22117 0.26682
 C112 C 0.67898 0.21895 0.26397
 C113 C 0.65961 0.24494 0.24103
 C114 C 0.67613 0.27301 0.22078
 C115 C 0.77122 0.25205 0.25014
 C116 C 0.78644 0.28022 0.27289
 C117 C 0.82285 0.28396 0.27514
 C118 C 0.84431 0.25859 0.25450
 C119 C 0.82945 0.23009 0.23090
 C120 C 0.79282 0.22708 0.22965
 H121 H 0.72560 0.29659 0.20723
 H122 H 0.73065 0.20126 0.28519
 H123 H 0.76973 0.29916 0.29017
 H124 H 0.78098 0.20531 0.21210
 H125 H 0.63132 0.24371 0.24098
 H126 H 0.87244 0.26144 0.25489
 C127 C 0.20672 0.77284 0.22875
 C128 C 0.22848 0.74770 0.24805
 C129 C 0.21365 0.71958 0.27189
 C130 C 0.17719 0.71557 0.27631
 C131 C 0.15560 0.74128 0.25559
 C132 C 0.16989 0.77023 0.23123
 C133 C 0.26702 0.75010 0.24137
 C134 C 0.28523 0.77756 0.26122
 C135 C 0.32181 0.77919 0.25578
 C136 C 0.33996 0.75315 0.23047
 C137 C 0.32228 0.72568 0.21048
 C138 C 0.28581 0.72434 0.21584
 H139 H 0.21910 0.79466 0.21271
 H140 H 0.23115 0.70025 0.28456
 H141 H 0.27105 0.79741 0.28147
 H142 H 0.27198 0.70333 0.19944
 H143 H 0.12762 0.73866 0.25814
 H144 H 0.36825 0.75376 0.22857
 O145 O 1.06072 -0.04604 0.11441
 O146 O 1.02917 -0.08084 0.05350
 C147 C 1.05192 -0.07473 0.09668
 O148 O 0.93561 0.04543 0.10679
 O149 O 0.97027 0.08098 0.05312
 C150 C 0.94517 0.07432 0.09147
 O151 O 0.93744 -0.04377 0.11116
 O152 O 0.96911 -0.07975 0.05323
 C153 C 0.94544 -0.07262 0.09436
 O154 O 1.06547 0.04356 0.10917
 O155 O 1.03321 0.08024 0.05297
 C156 C 1.05772 0.07258 0.09240
 Zr157 Zr 1.04392 -0.00047 0.08013
 O158 O 1.03875 0.00017 0.17816
 O159 O 1.09921 -0.00225 0.07934
 Zr160 Zr 0.95654 0.00054 0.07829
 O161 O 0.96183 0.00092 0.17624
 O162 O 0.90136 -0.00069 0.08228
 O163 O 0.99984 -0.02909 0.09063
 O164 O 1.00048 0.02851 0.09058
 O165 O 1.06634 0.04602 -0.10466
 O166 O 1.03180 0.08127 -0.05074
 C167 C 1.05697 0.07483 -0.08896
 O168 O 0.93978 -0.04412 -0.11473
 O169 O 0.97119 -0.07989 -0.05533
 C170 C 0.94841 -0.07307 -0.09808
 O171 O 0.93612 0.04542 -0.10698
 O172 O 0.96896 0.08121 -0.05047
 C173 C 0.94425 0.07419 -0.08978
 O174 O 1.06343 -0.04350 -0.11036
 O175 O 1.03142 -0.07980 -0.05302
 C176 C 1.05514 -0.07247 -0.09399
 Zr177 Zr 1.04487 0.00101 -0.07740
 O178 O 1.04287 0.00488 -0.17572
 O179 O 1.10006 -0.00122 -0.07899
 Zr180 Zr 0.95713 0.00085 -0.07932
 O181 O 0.95815 0.00480 -0.17763
 O182 O 0.90192 -0.00075 -0.07692
 Zr183 Zr 1.00029 -0.04770 -0.00041
 Zr184 Zr 1.00087 0.04880 0.00085
 O185 O 1.00107 0.02929 -0.08931
 O186 O 1.00107 -0.02797 -0.09101
 O187 O 1.05134 0.02874 0.00201
 O188 O 0.95015 -0.02710 -0.00094
 O189 O 1.05066 -0.02755 0.00114
 O190 O 0.95015 0.02921 -0.00046
 H191 H 1.00055 0.04307 0.12692
 H192 H 0.92921 -0.04105 -0.00187
 H193 H 1.00115 0.04423 -0.12534
 H194 H 1.07153 -0.04159 0.00203
 H195 H 0.89282 0.00798 0.04209
 H196 H 0.89395 -0.00069 -0.12087
 H197 H 0.97191 -0.01348 -0.19355
 H198 H 1.03249 -0.01515 -0.19196
 H199 H 1.10837 0.00844 -0.03967
 H200 H 1.10710 -0.00333 0.12326
 H201 H 1.06271 0.00039 0.19562
 H202 H 0.93775 0.00193 0.19297
 O203 O 1.04854 0.55648 0.61637
 O204 O 1.08763 0.52787 0.55738
 C205 C 1.07990 0.54917 0.59896
 O206 O 0.95143 0.44012 0.60765
 O207 O 0.91221 0.47149 0.55365
 C208 C 0.92004 0.44808 0.59113
 O209 O 1.04760 0.44262 0.61489
 O210 O 1.08741 0.47073 0.55579
 C211 C 1.07911 0.44897 0.59708
 O212 O 0.95230 0.56063 0.60842
 O213 O 0.91251 0.53113 0.55229
 C214 C 0.92088 0.55424 0.59022
 Zr215 Zr 1.00006 0.54010 0.58191
 O216 O 0.99845 0.53505 0.67991
 O217 O 1.00168 0.59090 0.58097
 Zr218 Zr 0.99975 0.46051 0.58172
 O219 O 0.99843 0.46611 0.67940
 O220 O 1.00130 0.40992 0.58832
 O221 O 1.03188 0.50016 0.59382
 O222 O 0.96844 0.50035 0.59268
 O223 O 0.95158 0.56106 0.39809
 O224 O 0.91227 0.52938 0.45087
 C225 C 0.92016 0.55294 0.41386
 O226 O 1.04905 0.44462 0.39076
 O227 O 1.08815 0.47324 0.45002
 C228 C 1.08042 0.45200 0.40828
 O229 O 0.95252 0.44021 0.39704
 O230 O 0.91256 0.46989 0.45202
 C231 C 0.92103 0.44675 0.41431
 O232 O 1.04777 0.55877 0.39223
 O233 O 1.08755 0.53026 0.45082
 C234 C 1.07927 0.55226 0.40998
 Zr235 Zr 0.99982 0.54054 0.42399
 O236 O 0.99607 0.53697 0.32583
 O237 O 1.00174 0.59114 0.41863
 Zr238 Zr 1.00020 0.46075 0.42397
 O239 O 0.99632 0.46246 0.32562
 O240 O 1.00227 0.41003 0.42575
 Zr241 Zr 1.05274 0.50051 0.50302
 Zr242 Zr 0.94716 0.50045 0.50247
 O243 O 0.96876 0.50057 0.41257
 O244 O 1.03194 0.50082 0.41193
 O245 O 0.96920 0.54665 0.50284
 O246 O 1.03008 0.45456 0.50295
 O247 O 1.03002 0.54639 0.50323
 O248 O 0.96922 0.45423 0.50258
 H249 H 0.95204 0.50042 0.62835
 H250 H 1.04483 0.43504 0.50252
 H251 H 0.95242 0.50047 0.37671
 H252 H 1.04474 0.56592 0.50409
 H253 H 0.99501 0.40171 0.54662
 H254 H 1.00274 0.40290 0.38177
 H255 H 1.01738 0.47353 0.30974
 H256 H 1.01903 0.52981 0.31002
 H257 H 0.99473 0.59917 0.46004
 H258 H 1.00239 0.59817 0.62482
 H259 H 0.99762 0.55698 0.69727
 H260 H 0.99721 0.44413 0.69698
 O261 O 0.56043 -0.04683 0.61205
 O262 O 0.52923 -0.08241 0.55209
 C263 C 0.55230 -0.07555 0.59437
 O264 O 0.43414 0.04276 0.60475
 O265 O 0.46815 0.07876 0.55070
 C266 C 0.44296 0.07161 0.58861
 O267 O 0.43681 -0.04578 0.61080
 O268 O 0.46755 -0.08192 0.55160
 C269 C 0.44406 -0.07461 0.59293
 O270 O 0.56510 0.04190 0.60519
 O271 O 0.53238 0.07843 0.54961
 C272 C 0.55758 0.07079 0.58763
 Zr273 Zr 0.54287 -0.00200 0.57809
 O274 O 0.53796 -0.00089 0.67615
 O275 O 0.59819 -0.00360 0.57694
 Zr276 Zr 0.45592 -0.00156 0.57799
 O277 O 0.46223 -0.00074 0.67572
 O278 O 0.40083 -0.00297 0.58433
 O279 O 0.49922 -0.03105 0.58992
 O280 O 0.49956 0.02693 0.58915
 O281 O 0.56488 0.04298 0.39411
 O282 O 0.53083 0.07889 0.44761
 C283 C 0.55612 0.07178 0.41002
 O284 O 0.43771 -0.04612 0.38642
 O285 O 0.46918 -0.08205 0.44558
 C286 C 0.44599 -0.07497 0.40361
 O287 O 0.43352 0.04296 0.39387
 O288 O 0.46686 0.07898 0.44877
 C289 C 0.44144 0.07174 0.41114
 O290 O 0.56189 -0.04553 0.38810
 O291 O 0.53050 -0.08182 0.44640
 C292 C 0.55430 -0.07441 0.40561
 Zr293 Zr 0.54266 -0.00133 0.42019
 O294 O 0.53865 0.00240 0.32202
 O295 O 0.59778 -0.00334 0.41510
 Zr296 Zr 0.45550 -0.00136 0.42016
 O297 O 0.45675 0.00254 0.32184
 O298 O 0.40027 -0.00310 0.42219
 Zr299 Zr 0.49913 -0.04979 0.49898
 Zr300 Zr 0.49940 0.04677 0.49911
 O301 O 0.49909 0.02726 0.40901
 O302 O 0.49911 -0.03050 0.40798
 O303 O 0.54975 0.02658 0.49923
 O304 O 0.44904 -0.02909 0.49899
 O305 O 0.54927 -0.02928 0.49922
 O306 O 0.44889 0.02683 0.49908
 H307 H 0.49978 0.04180 0.62503
 H308 H 0.42786 -0.04274 0.49855
 H309 H 0.49893 0.04233 0.37318
 H310 H 0.57043 -0.04295 0.49984
 H311 H 0.39178 0.00340 0.54289
 H312 H 0.39231 -0.00308 0.37822
 H313 H 0.46909 -0.01656 0.30581
 H314 H 0.53029 -0.01849 0.30613
 H315 H 0.60667 0.00345 0.45628
 H316 H 0.60628 -0.00444 0.62077
 H317 H 0.56196 -0.00034 0.69337
 H318 H 0.43832 0.00014 0.69320
 O319 O 0.44043 0.45588 -0.11641
 O320 O 0.47148 0.41986 -0.05655
 C321 C 0.44867 0.42699 -0.09912
 O322 O 0.56848 0.54415 -0.10252
 O323 O 0.53399 0.57950 -0.04867
 C324 C 0.55967 0.57279 -0.08554
 O325 O 0.56295 0.45526 -0.11248
 O326 O 0.53063 0.41954 -0.05471
 C327 C 0.55381 0.42649 -0.09642
 O328 O 0.43865 0.54559 -0.10912
 O329 O 0.47196 0.58065 -0.05172
 C330 C 0.44767 0.57417 -0.09177
 Zr331 Zr 0.45817 0.50036 -0.08114
 O332 O 0.46373 0.50191 -0.17908
 O333 O 0.40286 0.49976 -0.08128
 Zr334 Zr 0.54567 0.49976 -0.07781
 O335 O 0.54117 0.50220 -0.17580
 O336 O 0.60079 0.49695 -0.08143
 O337 O 0.50183 0.47122 -0.09176
 O338 O 0.50232 0.52854 -0.09013
 O339 O 0.43438 0.54350 0.10277
 O340 O 0.46949 0.57921 0.05053
 C341 C 0.44369 0.57229 0.08710
 O342 O 0.56146 0.45366 0.11346
 O343 O 0.52997 0.41882 0.05257
 C344 C 0.55286 0.42513 0.09529
 O345 O 0.56440 0.54355 0.10910
 O346 O 0.53124 0.57964 0.05329
 C347 C 0.55555 0.57244 0.09290
 O348 O 0.43828 0.45412 0.10810
 O349 O 0.47069 0.41880 0.05020
 C350 C 0.44694 0.42547 0.09086
 Zr351 Zr 0.45658 0.49920 0.07667
 O352 O 0.45832 0.50230 0.17504
 O353 O 0.40142 0.49677 0.07866
 Zr354 Zr 0.54438 0.49881 0.07978
 O355 O 0.54332 0.50126 0.17820
 O356 O 0.59958 0.49730 0.07790
 Zr357 Zr 0.50082 0.45164 -0.00123
 Zr358 Zr 0.50147 0.54740 0.00030
 O359 O 0.50045 0.52710 0.09007
 O360 O 0.50015 0.47005 0.09003
 O361 O 0.45070 0.52813 -0.00211
 O362 O 0.55132 0.47146 0.00071
 O363 O 0.45067 0.47213 -0.00296
 O364 O 0.55206 0.52759 0.00180
 H365 H 0.50310 0.54366 -0.12586
 H366 H 0.57206 0.45725 0.00082
 H367 H 0.49992 0.54167 0.12638
 H368 H 0.42968 0.45823 -0.00404
 H369 H 0.60950 0.50476 -0.04084
 H370 H 0.60738 0.49744 0.12194
 H371 H 0.52885 0.48317 0.19326
 H372 H 0.46816 0.48194 0.19116
 H373 H 0.39308 0.50563 0.03849
 H374 H 0.39519 0.50012 -0.12535
 H375 H 0.43988 0.50337 -0.19678
 H376 H 0.56540 0.50265 -0.19192
 C377 C 1.12716 0.13482 0.16936
 C378 C 1.14264 0.12478 0.22533
 C379 C 1.17137 0.14131 0.24965
 C380 C 1.18508 0.16816 0.21827
 C381 C 1.16899 0.17838 0.16253
 C382 C 1.14031 0.16176 0.13820
 C383 C 1.10011 0.11553 0.14145
 C384 C 1.07931 0.09730 0.11849
 H385 H 1.13293 0.10376 0.24958
 H386 H 1.18295 0.13305 0.29289
 H387 H 1.17923 0.19868 0.13677
 H388 H 1.12894 0.16948 0.09438
 C389 C 1.15472 0.60975 0.66252
 C390 C 1.18899 0.60796 0.64060
 C391 C 1.21354 0.63071 0.65915
 C392 C 1.20411 0.65555 0.69997
 C393 C 1.16938 0.65772 0.72048
 C394 C 1.14479 0.63486 0.70185
 C395 C 1.12941 0.58660 0.64246
 C396 C 1.10749 0.56833 0.62383
 H397 H 1.19675 0.58893 0.60935
 H398 H 1.24006 0.62876 0.64205
 H399 H 1.16156 0.67649 0.75226
 H400 H 1.11814 0.63662 0.71843
 C401 C 0.63416 0.12977 0.65005
 C402 C 0.66782 0.11987 0.63304
 C403 C 0.69725 0.13595 0.65582
 C404 C 0.69334 0.16224 0.69582
 C405 C 0.65940 0.17172 0.71335
 C406 C 0.63004 0.15559 0.69062
 C407 C 0.60426 0.11216 0.62798
 C408 C 0.58113 0.09502 0.60944
 H409 H 0.67131 0.09968 0.60208
 H410 H 0.72297 0.12829 0.64114
 H411 H 0.65559 0.19163 0.74483
 H412 H 0.60419 0.16318 0.70484
 C413 C 0.61857 0.63939 0.16950
 C414 C 0.63067 0.63311 0.22976
 C415 C 0.65962 0.64951 0.25266
 C416 C 0.67676 0.67235 0.21540
 C417 C 0.66328 0.67990 0.15625
 C418 C 0.63435 0.66328 0.13318
 C419 C 0.59372 0.61797 0.14232
 C420 C 0.57508 0.59799 0.11973
 H421 H 0.61878 0.61445 0.25790
 H422 H 0.66941 0.64361 0.29868
 H423 H 0.67625 0.69733 0.12673
 H424 H 0.62538 0.66795 0.08613
 C425 C 0.87524 -0.13468 0.17037
 C426 C 0.85894 -0.12413 0.22493
 C427 C 0.82940 -0.14002 0.24791
 C428 C 0.81564 -0.16677 0.21661
 C429 C 0.83255 -0.17755 0.16235
 C430 C 0.86204 -0.16154 0.13932
 C431 C 0.90301 -0.11578 0.14332
 C432 C 0.92413 -0.09761 0.12072
 H433 H 0.86863 -0.10316 0.24905
 H434 H 0.81729 -0.13135 0.29012
 H435 H 0.82237 -0.19780 0.13669
 H436 H 0.87400 -0.16965 0.09651
 C437 C 0.84405 0.38786 0.65267
 C438 C 0.80876 0.39545 0.64652
 C439 C 0.78335 0.37378 0.66642
 C440 C 0.79271 0.34390 0.69336
 C441 C 0.82864 0.33637 0.69772
 C442 C 0.85399 0.35824 0.67776
 C443 C 0.87007 0.41024 0.63203
 C444 C 0.89236 0.42831 0.61394
 H445 H 0.80082 0.41810 0.62595
 H446 H 0.75638 0.38034 0.65842
 H447 H 0.83759 0.31432 0.71915
 H448 H 0.88139 0.35215 0.68249
 C449 C 0.36763 -0.13284 0.65852
 C450 C 0.33424 -0.12252 0.64028
 C451 C 0.30438 -0.13798 0.66298
 C452 C 0.30753 -0.16407 0.70417
 C453 C 0.34120 -0.17396 0.72300
 C454 C 0.37102 -0.15844 0.70033
 C455 C 0.39792 -0.11583 0.63610
 C456 C 0.42107 -0.09892 0.61662
 H457 H 0.33129 -0.10251 0.60834
 H458 H 0.27890 -0.13002 0.64724
 H459 H 0.34446 -0.19372 0.75539
 H460 H 0.39663 -0.16635 0.71551
 C461 C 0.37448 0.36260 0.14957
 C462 C 0.34157 0.37590 0.13903
 C463 C 0.31181 0.36040 0.16043
 C464 C 0.31425 0.33107 0.19321
 C465 C 0.34768 0.31702 0.20067
 C466 C 0.37765 0.33292 0.17947
 C467 C 0.40424 0.38109 0.13133
 C468 C 0.42587 0.39995 0.11411
 H469 H 0.33890 0.39869 0.11499
 H470 H 0.28684 0.37141 0.15012
 H471 H 0.35118 0.29483 0.22625
 H472 H 0.40318 0.32250 0.18779
 C473 C 0.87440 0.13644 -0.16645
 C474 C 0.85882 0.12577 -0.22169
 C475 C 0.82961 0.14159 -0.24618
 C476 C 0.81547 0.16839 -0.21575
 C477 C 0.83173 0.17938 -0.16091
 C478 C 0.86091 0.16342 -0.13633
 C479 C 0.90180 0.11755 -0.13813
 C480 C 0.92275 0.09929 -0.11526
 H481 H 0.86880 0.10473 -0.24515
 H482 H 0.81795 0.13277 -0.28877
 H483 H 0.82121 0.19970 -0.13595
 H484 H 0.87235 0.17163 -0.09306
 C485 C 0.84469 0.61328 0.35040
 C486 C 0.85495 0.64290 0.32577
 C487 C 0.82986 0.66470 0.30435
 C488 C 0.79391 0.65706 0.30669
 C489 C 0.78422 0.62723 0.33340
 C490 C 0.80936 0.60564 0.35477
 C491 C 0.87045 0.59085 0.37201
 C492 C 0.89256 0.57272 0.39067
 H493 H 0.88240 0.64902 0.32243
 H494 H 0.83904 0.68675 0.28330
 H495 H 0.75715 0.62063 0.33999
 H496 H 0.80117 0.58299 0.37498
 C497 C 0.36539 0.13217 0.35073
 C498 C 0.36934 0.16261 0.32449
 C499 C 0.34009 0.17948 0.30297
 C500 C 0.30600 0.16624 0.30719
 C501 C 0.30274 0.13527 0.33361
 C502 C 0.33208 0.11858 0.35517
 C503 C 0.39523 0.11402 0.37178
 C504 C 0.41814 0.09637 0.38967
 H505 H 0.39508 0.17318 0.31991
 H506 H 0.34481 0.20236 0.28065
 H507 H 0.27751 0.12412 0.34019
 H508 H 0.32871 0.09497 0.37558
 C509 C 0.38267 0.63909 -0.16953
 C510 C 0.37197 0.66776 -0.14210
 C511 C 0.34216 0.68355 -0.16426
 C512 C 0.32215 0.67030 -0.21325
 C513 C 0.33460 0.64219 -0.24217
 C514 C 0.36450 0.62683 -0.22045
 C515 C 0.40885 0.61939 -0.14107
 C516 C 0.42815 0.60000 -0.11802
 H517 H 0.38569 0.67713 -0.10193
 H518 H 0.33360 0.70471 -0.13966
 H519 H 0.32149 0.63193 -0.28208
 H520 H 0.37269 0.60463 -0.24203
 C521 C 1.12462 -0.13516 -0.16910
 C522 C 1.13706 -0.16231 -0.13751
 C523 C 1.16645 -0.17870 -0.15961
 C524 C 1.18400 -0.16802 -0.21346
 C525 C 1.17093 -0.14105 -0.24545
 C526 C 1.14150 -0.12477 -0.22340
 C527 C 1.09713 -0.11583 -0.14271
 C528 C 1.07627 -0.09745 -0.12041
 H529 H 1.12463 -0.17031 -0.09490
 H530 H 1.17610 -0.19912 -0.13342
 H531 H 1.18357 -0.13244 -0.28738
 H532 H 1.13239 -0.10360 -0.24795
 C533 C 1.15288 0.39155 0.33715
 C534 C 1.16215 0.36476 0.37315
 C535 C 1.18494 0.34175 0.34918
 C536 C 1.19868 0.34542 0.28899
 C537 C 1.18845 0.37199 0.25262
 C538 C 1.16567 0.39491 0.27660
 C539 C 1.12911 0.41488 0.36160
 C540 C 1.10788 0.43312 0.38252
 H541 H 1.15204 0.36184 0.41992
 H542 H 1.19273 0.32171 0.37832
 H543 H 1.19847 0.37519 0.20587
 H544 H 1.15821 0.41531 0.24810
 C545 C 0.63084 -0.13283 0.34219
 C546 C 0.64410 -0.15853 0.37697
 C547 C 0.67513 -0.17349 0.35891
 C548 C 0.69348 -0.16288 0.30585
 C549 C 0.68030 -0.13670 0.27173
 C550 C 0.64918 -0.12178 0.28984
 C551 C 0.60050 -0.11564 0.36352
 C552 C 0.57731 -0.09870 0.38237
 H553 H 0.63064 -0.16682 0.41836
 H554 H 0.68486 -0.19339 0.38650
 H555 H 0.69363 -0.12825 0.23036
 H556 H 0.63950 -0.10151 0.26320
 C557 C 0.61543 0.35969 -0.17610
 C558 C 0.63090 0.33536 -0.14041
 C559 C 0.66020 0.31922 -0.16301
 C560 C 0.67436 0.32767 -0.22111
 C561 C 0.65752 0.35093 -0.25794
 C562 C 0.62820 0.36688 -0.23546
 C563 C 0.59061 0.38090 -0.14840
 C564 C 0.57235 0.40082 -0.12482
 H565 H 0.62146 0.33002 -0.09398
 H566 H 0.67291 0.30147 -0.13378
 H567 H 0.66781 0.35752 -0.30318
 H568 H 0.61660 0.38594 -0.26306
 C569 C 1.11212 0.15175 -0.15778
 C570 C 1.14639 0.15624 -0.13714
 C571 C 1.16618 0.18228 -0.15849
 C572 C 1.15234 0.20482 -0.20167
 C573 C 1.11727 0.20022 -0.22101
 C574 C 1.09756 0.17398 -0.19950
 C575 C 1.09212 0.12450 -0.13527
 C576 C 1.07599 0.10169 -0.11503
 H577 H 1.15789 0.13963 -0.10400
 H578 H 1.19199 0.18503 -0.13875
 H579 H 1.10515 0.21590 -0.25496
 H580 H 1.07100 0.17088 -0.21596
 C581 C 1.13680 0.62589 0.34143
 C582 C 1.16935 0.63669 0.36182
 C583 C 1.18241 0.66625 0.34107
 C584 C 1.16316 0.68599 0.29921
 C585 C 1.13001 0.67475 0.27997
 C586 C 1.11718 0.64510 0.30069
 C587 C 1.12162 0.59667 0.36600
 C588 C 1.10507 0.57429 0.38649
 H589 H 1.18443 0.62257 0.39474
 H590 H 1.20711 0.67397 0.36040
 H591 H 1.11427 0.68797 0.24680
 H592 H 1.09167 0.63720 0.28501
 C593 C 0.61792 0.14174 0.33735
 C594 C 0.64670 0.15312 0.37106
 C595 C 0.66780 0.17731 0.34600
 C596 C 0.66011 0.19036 0.28712
 C597 C 0.63189 0.17795 0.25280
 C598 C 0.61092 0.15380 0.27782
 C599 C 0.59540 0.11778 0.36368
 C600 C 0.57682 0.09727 0.38509
 H601 H 0.65240 0.14374 0.41711
 H602 H 0.68917 0.18671 0.37355
 H603 H 0.62565 0.18745 0.20707
 H604 H 0.58892 0.14491 0.25117
 C605 C 0.61991 0.64757 -0.14215
 C606 C 0.60786 0.67867 -0.13225
 C607 C 0.62763 0.70484 -0.15202
 C608 C 0.65998 0.70046 -0.18262
 C609 C 0.67238 0.66874 -0.18990
 C610 C 0.65237 0.64259 -0.17012
 C611 C 0.59869 0.62088 -0.12363
 C612 C 0.58066 0.59883 -0.10717
 H613 H 0.58302 0.68273 -0.10946
 H614 H 0.61761 0.72852 -0.14194
 H615 H 0.69651 0.66371 -0.21410
 H616 H 0.66192 0.61846 -0.17775
 C617 C 0.89363 -0.14878 -0.17061
 C618 C 0.86393 -0.15849 -0.13760
 C619 C 0.84358 -0.18411 -0.15876
 C620 C 0.85245 -0.20060 -0.21360
 C621 C 0.88266 -0.19103 -0.24615
 C622 C 0.90305 -0.16526 -0.22485
 C623 C 0.91409 -0.12197 -0.14806
 C624 C 0.93022 -0.09955 -0.12673
 H625 H 0.85643 -0.14620 -0.09534
 H626 H 0.82094 -0.19117 -0.13182
 H627 H 0.89013 -0.20305 -0.28867
 H628 H 0.92599 -0.15809 -0.25087
 C629 C 0.86351 0.37238 0.34989
 C630 C 0.83513 0.37294 0.30876
 C631 C 0.82231 0.34426 0.28376
 C632 C 0.83777 0.31453 0.29931
 C633 C 0.86648 0.31427 0.34017
 C634 C 0.87918 0.34295 0.36525
 C635 C 0.87871 0.40173 0.37321
 C636 C 0.89530 0.42429 0.39253
 H637 H 0.82313 0.39550 0.29558
 H638 H 0.80044 0.34535 0.25175
 H639 H 0.87871 0.29186 0.35358
 H640 H 0.90145 0.34219 0.39646
 C641 C 0.38531 -0.14500 0.32845
 C642 C 0.39172 -0.15701 0.26891
 C643 C 0.37015 -0.18080 0.24430
 C644 C 0.34188 -0.19293 0.27901
 C645 C 0.33497 -0.18003 0.33805
 C646 C 0.35664 -0.15621 0.36266
 C647 C 0.40804 -0.12107 0.35436
 C648 C 0.42629 -0.10052 0.37646
 H649 H 0.41362 -0.14826 0.24183
 H650 H 0.37583 -0.19009 0.19841
 H651 H 0.31364 -0.18918 0.36602
 H652 H 0.35137 -0.14691 0.40871
 C653 C 0.39062 0.35326 -0.16660
 C654 C 0.40289 0.32190 -0.16094
 C655 C 0.38193 0.29624 -0.17914
 C656 C 0.34801 0.30135 -0.20373
 C657 C 0.33588 0.33333 -0.20817
 C658 C 0.35706 0.35896 -0.18990
 C659 C 0.41195 0.37941 -0.14568
 C660 C 0.42935 0.40115 -0.12594
 H661 H 0.42859 0.31721 -0.14166
 H662 H 0.39218 0.27238 -0.17140
 H663 H 0.31067 0.33902 -0.22817
 H664 H 0.34728 0.38326 -0.19418
 C665 C 1.10659 -0.15143 0.16738
 C666 C 1.09346 -0.17313 0.21146
 C667 C 1.11390 -0.19914 0.23211
 C668 C 1.14825 -0.20398 0.20942
 C669 C 1.16062 -0.18191 0.16409
 C670 C 1.14013 -0.15614 0.14366
 C671 C 1.08597 -0.12446 0.14532
 C672 C 1.06990 -0.10172 0.12456
 H673 H 1.06750 -0.16983 0.23036
 H674 H 1.10297 -0.21440 0.26792
 H675 H 1.18573 -0.18490 0.14193
 H676 H 1.15050 -0.13991 0.10872
 C677 C 1.13796 0.37588 0.66541
 C678 C 1.12415 0.36101 0.71869
 C679 C 1.13696 0.33122 0.73897
 C680 C 1.16384 0.31578 0.70618
 C681 C 1.17745 0.33084 0.65250
 C682 C 1.16454 0.36056 0.63223
 C683 C 1.12193 0.40485 0.64135
 C684 C 1.10498 0.42704 0.62093
 H685 H 1.10312 0.37229 0.74423
 H686 H 1.12621 0.32050 0.78076
 H687 H 1.19788 0.31943 0.62576
 H688 H 1.17493 0.37133 0.59016
 C689 C 0.61358 -0.14492 0.67111
 C690 C 0.60328 -0.16147 0.72450
 C691 C 0.62494 -0.18493 0.75020
 C692 C 0.65745 -0.19265 0.72268
 C693 C 0.66820 -0.17448 0.67041
 C694 C 0.64629 -0.15101 0.64471
 C695 C 0.59068 -0.12141 0.64397
 C696 C 0.57217 -0.10111 0.62140
 H697 H 0.57837 -0.15636 0.74620
 H698 H 0.61615 -0.19662 0.79246
 H699 H 0.69245 -0.17950 0.64662
 H700 H 0.65459 -0.13803 0.60349
 C701 C 0.61129 0.35101 0.16079
 C702 C 0.60434 0.31989 0.14034
 C703 C 0.62591 0.29462 0.15885
 C704 C 0.65474 0.30021 0.19807
 C705 C 0.66186 0.33167 0.21767
 C706 C 0.64019 0.35695 0.19909
 C707 C 0.58950 0.37699 0.14034
 C708 C 0.57198 0.39884 0.12117
 H709 H 0.58228 0.31516 0.11001
 H710 H 0.62011 0.27067 0.14245
 H711 H 0.68367 0.33656 0.24838
 H712 H 0.64589 0.38106 0.21471
 C713 C 0.89108 0.15101 0.16174
 C714 C 0.90177 0.16753 0.21527
 C715 C 0.88225 0.19366 0.23728
 C716 C 0.85163 0.20355 0.20620
 C717 C 0.84154 0.18711 0.15187
 C718 C 0.86105 0.16113 0.12996
 C719 C 0.91064 0.12373 0.13890
 C720 C 0.92648 0.10100 0.11819
 H721 H 0.92501 0.16006 0.24030
 H722 H 0.89063 0.20562 0.27939
 H723 H 0.81851 0.19441 0.12608
 H724 H 0.85258 0.14884 0.08823
 C725 C 0.86297 0.62931 0.64999
 C726 C 0.83533 0.62918 0.69249
 C727 C 0.82248 0.65816 0.71603
 C728 C 0.83719 0.68776 0.69763
 C729 C 0.86509 0.68761 0.65523
 C730 C 0.87781 0.65863 0.63161
 C731 C 0.87840 0.59971 0.62855
 C732 C 0.89512 0.57695 0.61069
 H733 H 0.82398 0.60673 0.70799
 H734 H 0.80128 0.65739 0.74930
 H735 H 0.87674 0.70992 0.63969
 H736 H 0.89951 0.65907 0.59930
 C737 C 0.38250 0.14229 0.66141
 C738 C 0.35334 0.15367 0.62854
 C739 C 0.33292 0.17832 0.65334
 C740 C 0.34167 0.19184 0.71112
 C741 C 0.37031 0.17947 0.74463
 C742 C 0.39060 0.15487 0.71987
 C743 C 0.40440 0.11790 0.63518
 C744 C 0.42256 0.09717 0.61375
 H745 H 0.34681 0.14394 0.58330
 H746 H 0.31120 0.18765 0.62640
 H747 H 0.37737 0.18931 0.78951
 H748 H 0.41293 0.14602 0.74588
 C749 C 0.38370 0.64642 0.14696
 C750 C 0.35525 0.64099 0.18646
 C751 C 0.33463 0.66670 0.20599
 C752 C 0.34236 0.69810 0.18625
 C753 C 0.37062 0.70320 0.14562
 C754 C 0.39115 0.67749 0.12611
 C755 C 0.40522 0.62017 0.12742
 C756 C 0.42312 0.59829 0.10994
 H757 H 0.34924 0.61697 0.20264
 H758 H 0.31326 0.66215 0.23781
 H759 H 0.37689 0.72710 0.12913
 H760 H 0.41294 0.68187 0.09510
   
