data_POSCAR
  _audit_creation_date              2014-09-24
  _audit_creation_method            'ToBaCCo'
  _symmetry_space_group_name_H-M    'P1'
  _symmetry_Int_Tables_number       1
  _symmetry_cell_setting            triclinic
  loop_
  _symmetry_equiv_pos_as_xyz
 x,y,z
_cell_length_a 37.4385
_cell_length_b 38.8439
_cell_length_c 35.6965
_cell_angle_alpha 91.766800
_cell_angle_beta 88.803500
_cell_angle_gamma 91.660000
loop_
  _atom_site_label
  _atom_site_type_symbol
  _atom_site_fract_x
  _atom_site_fract_y
  _atom_site_fract_z
C1 C 0.18485 0.19682 0.21422
 C2 C 0.17053 0.22608 0.19817
 C3 C 0.18805 0.24254 0.16812
 C4 C 0.22033 0.22959 0.15376
 C5 C 0.23551 0.20035 0.16871
 C6 C 0.21735 0.18447 0.19895
 H7 H 0.14601 0.23675 0.20927
 H8 H 0.23425 0.24351 0.13182
 H9 H 0.22679 0.16023 0.20828
 C10 C -0.20327 0.80738 0.22526
 C11 C -0.18770 0.77699 0.21019
 C12 C -0.20260 0.75877 0.17926
 C13 C -0.23384 0.77063 0.16360
 C14 C -0.25001 0.80040 0.17795
 C15 C -0.23485 0.81834 0.20872
 H16 H -0.16261 0.76850 0.22058
 H17 H -0.24585 0.75646 0.14024
 H18 H -0.24834 0.84077 0.21980
 C19 C -0.21770 0.20428 -0.25143
 C20 C -0.20181 0.23562 -0.23758
 C21 C -0.21833 0.25515 -0.20860
 C22 C -0.25164 0.24413 -0.19430
 C23 C -0.26769 0.21305 -0.20664
 C24 C -0.25106 0.19366 -0.23551
 H25 H -0.17530 0.24373 -0.24692
 H26 H -0.26478 0.25948 -0.17253
 H27 H -0.26451 0.17019 -0.24524
 C28 C 0.19691 0.80234 -0.24896
 C29 C 0.18152 0.77122 -0.23538
 C30 C 0.19921 0.75197 -0.20908
 C31 C 0.23296 0.76322 -0.19697
 C32 C 0.24843 0.79427 -0.20880
 C33 C 0.23065 0.81340 -0.23504
 H34 H 0.15590 0.76151 -0.24510
 H35 H 0.24700 0.74797 -0.17740
 H36 H 0.24214 0.83828 -0.24210
 C37 C 0.20382 1.20342 0.76430
 C38 C 0.19215 1.23344 0.78349
 C39 C 0.20485 1.24320 0.81903
 C40 C 0.23052 1.22336 0.83553
 C41 C 0.24362 1.19395 0.81670
 C42 C 0.23032 1.18428 0.78122
 H43 H 0.17283 1.24959 0.77112
 H44 H 0.24041 1.23099 0.86295
 H45 H 0.23891 1.16021 0.76848
 C46 C 0.82252 0.80640 0.76359
 C47 C 0.83425 0.77654 0.78059
 C48 C 0.81884 0.76466 0.81442
 C49 C 0.79041 0.78316 0.83086
 C50 C 0.77764 0.81251 0.81422
 C51 C 0.79363 0.82380 0.78071
 H52 H 0.85610 0.76277 0.76769
 H53 H 0.77689 0.77408 0.85592
 H54 H 0.78488 0.84771 0.76969
 C55 C 0.20941 0.78051 1.27062
 C56 C 0.19603 0.75068 1.25176
 C57 C 0.20874 0.74058 1.21602
 C58 C 0.23755 0.75902 1.19968
 C59 C 0.25260 0.78818 1.21846
 C60 C 0.23871 0.79835 1.25392
 H61 H 0.17523 0.73483 1.26460
 H62 H 0.24685 0.75191 1.17164
 H63 H 0.24965 0.82165 1.26705
 C64 C 0.81059 1.19963 1.25825
 C65 C 0.77926 1.18294 1.24461
 C66 C 0.76193 1.19466 1.21299
 C67 C 0.77557 1.22423 1.19522
 C68 C 0.80655 1.24140 1.20843
 C69 C 0.82319 1.22941 1.24013
 H70 H 0.76902 1.15959 1.25714
 H71 H 0.76319 1.23288 1.17015
 H72 H 0.84582 1.24423 1.25097
 O73 O 0.53394 0.96312 0.93338
 O74 O 0.46230 0.98451 1.08543
 O75 O 0.56735 0.97851 1.03311
 O76 O 0.45066 0.93926 0.97779
 O77 O 0.51947 0.95883 1.05979
 O78 O 0.46728 0.96275 0.92672
 O79 O 0.45474 0.94891 1.04150
 O80 O 0.57301 0.99248 0.96706
 C81 C 0.56519 0.96806 0.94426
 C82 C 0.44823 0.95693 1.07460
 C83 C 0.55160 0.95569 1.05169
 C84 C 0.45277 0.93834 0.94329
 O85 O 0.46711 1.02870 0.93205
 O86 O 0.52422 1.01547 1.09751
 O87 O 0.54478 1.05517 0.98412
 O88 O 0.43025 1.01572 1.03534
 O89 O 0.47809 1.04213 1.05702
 O90 O 0.53454 1.03027 0.93087
 O91 O 0.42574 1.00361 0.96756
 O92 O 0.54271 1.04298 1.04886
 Co93 Co 0.50065 0.99619 0.93737
 Co94 Co 0.49992 1.00069 1.05626
 Co95 Co 0.55203 1.01540 1.00763
 Co96 Co 0.44478 0.97853 1.00540
 O97 O 0.49792 0.99636 0.99918
 C98 C 0.43526 1.02538 0.94327
 C99 C 0.54725 1.03697 1.08300
 C100 C 0.54437 1.05628 0.94956
 C101 C 0.44528 1.04198 1.05075
 O102 O 0.03766 0.47807 0.05304
 O103 O 0.03073 0.53280 -0.07894
 O104 O 0.00288 0.42950 -0.04094
 O105 O 0.04876 0.54125 0.03552
 O106 O 0.03257 0.46832 -0.07343
 O107 O 0.01298 0.53326 0.08006
 O108 O 0.05704 0.54634 -0.02818
 O109 O 0.01560 0.43287 0.02553
 C110 C 0.03972 0.44698 0.04467
 C111 C 0.05651 0.54645 -0.06261
 C112 C 0.02878 0.43818 -0.06229
 C113 C 0.04146 0.54666 0.06899
 O114 O -0.04805 0.51994 0.05241
 O115 O -0.03660 0.46576 -0.07683
 O116 O -0.05062 0.45763 0.04068
 O117 O -0.01045 0.57067 -0.03607
 O118 O -0.03721 0.53105 -0.07240
 O119 O -0.02126 0.47362 0.09025
 O120 O -0.02015 0.56587 0.03197
 O121 O -0.06289 0.45650 -0.02447
 Co122 Co -0.00551 0.49787 0.05027
 Co123 Co -0.00254 0.49940 -0.06870
 Co124 Co -0.02188 0.44882 -0.00035
 Co125 Co 0.01707 0.55183 0.00052
 O126 O -0.00186 0.50090 -0.00676
 C127 C -0.04710 0.55181 0.04784
 C128 C -0.06332 0.45515 -0.05903
 C129 C -0.04441 0.45252 0.07474
 C130 C -0.03373 0.56166 -0.06016
 O131 O 1.06891 0.04131 0.46321
 O132 O 0.92549 0.01245 0.53650
 O133 O 0.97553 0.02412 0.42754
 O134 O 1.02702 0.05880 0.55402
 O135 O 0.95001 0.04132 0.47884
 O136 O 1.07632 0.03875 0.53266
 O137 O 0.96644 0.04830 0.54820
 O138 O 1.03888 0.01179 0.42098
 C139 C 1.05864 0.03733 0.43033
 C140 C 0.93483 0.03941 0.55326
 C141 C 0.95729 0.04586 0.44534
 C142 C 1.05979 0.06125 0.55053
 O143 O 1.07408 -0.02722 0.52958
 O144 O 0.91530 -0.01567 0.47023
 O145 O 1.02429 -0.05225 0.44835
 O146 O 0.97359 -0.01969 0.56894
 O147 O 0.95421 -0.04383 0.51700
 O148 O 1.07417 -0.02592 0.45894
 O149 O 1.03854 -0.00680 0.57470
 O150 O 0.96222 -0.04179 0.44965
 Co151 Co 1.06713 0.00650 0.49613
 Co152 Co 0.95418 -0.00131 0.49668
 Co153 Co 1.00089 -0.01280 0.44191
 Co154 Co 1.00161 0.01866 0.55657
 O155 O 1.00832 0.00416 0.49954
 C156 C 1.06327 -0.02645 0.56319
 C157 C 0.92947 -0.03623 0.44528
 C158 C 1.05723 -0.05276 0.44979
 C159 C 0.95913 -0.04513 0.55149
 C160 C 1.16837 0.14080 0.29705
 C161 C 1.13119 0.14104 0.30079
 C162 C 1.11169 0.16102 0.27700
 C163 C 1.12923 0.18013 0.24908
 C164 C 1.16683 0.17934 0.24404
 C165 C 1.18600 0.15969 0.26921
 C166 C 1.11337 0.11995 0.32849
 C167 C 1.09953 0.10160 0.35167
 C168 C 1.08439 0.07950 0.37891
 C169 C 1.07226 0.06033 0.40227
 H170 H 1.18386 0.12580 0.31562
 H171 H 1.08281 0.16133 0.27954
 H172 H 1.11278 0.19384 0.23034
 H173 H 1.21488 0.15936 0.26834
 C174 C 0.85038 -0.16911 0.31089
 C175 C 0.84422 -0.13386 0.31520
 C176 C 0.82251 -0.11810 0.28985
 C177 C 0.80696 -0.13731 0.26041
 C178 C 0.81266 -0.17310 0.25543
 C179 C 0.83490 -0.18854 0.28139
 C180 C 0.86083 -0.11345 0.34489
 C181 C 0.87505 -0.09582 0.36909
 C182 C 0.89250 -0.07485 0.39664
 C183 C 0.90851 -0.05701 0.41937
 H184 H 0.86713 -0.18168 0.33042
 H185 H 0.81796 -0.09070 0.29251
 H186 H 0.79184 -0.12330 0.24074
 H187 H 0.83954 -0.21589 0.28009
 C188 C 0.81106 0.12638 0.69175
 C189 C 0.83611 0.14088 0.66694
 C190 C 0.84319 0.17643 0.66872
 C191 C 0.82544 0.19739 0.69532
 C192 C 0.80001 0.18322 0.72089
 C193 C 0.79324 0.14713 0.71834
 C194 C 0.85539 0.11896 0.64067
 C195 C 0.87197 0.10029 0.61942
 C196 C 0.89229 0.07841 0.59538
 C197 C 0.91084 0.06016 0.57566
 H198 H 0.80571 0.09881 0.69104
 H199 H 0.86251 0.18802 0.64954
 H200 H 0.83109 0.22482 0.69477
 H201 H 0.77555 0.13411 0.73794
 C202 C 1.17954 -0.13257 0.67834
 C203 C 1.14226 -0.13364 0.67748
 C204 C 1.12295 -0.15673 0.69995
 C205 C 1.14078 -0.17830 0.72363
 C206 C 1.17855 -0.17710 0.72561
 C207 C 1.19750 -0.15397 0.70197
 C208 C 1.12401 -0.11074 0.65374
 C209 C 1.10932 -0.09129 0.63370
 C210 C 1.09272 -0.06842 0.60984
 C211 C 1.07903 -0.04906 0.58894
 H212 H 1.19485 -0.11511 0.66069
 H213 H 1.09400 -0.15772 0.69963
 H214 H 1.12444 -0.19447 0.74164
 H215 H 1.22639 -0.15282 0.70061
 C216 C 0.31977 1.15063 1.15900
 C217 C 0.32803 1.15379 1.12092
 C218 C 0.30699 1.17409 1.09902
 C219 C 0.27719 1.19040 1.11489
 C220 C 0.26746 1.18633 1.15309
 C221 C 0.29000 1.16671 1.17496
 C222 C 0.35627 1.13383 1.10402
 C223 C 0.37886 1.11540 1.09060
 C224 C 0.40387 1.09184 1.07576
 C225 C 0.42374 1.07001 1.06388
 H226 H 0.33602 1.13513 1.17632
 H227 H 0.31294 1.17643 1.06935
 H228 H 0.26072 1.20427 1.09629
 H229 H 0.28522 1.16402 1.20474
 C230 C 0.33866 0.83946 0.80626
 C231 C 0.34207 0.83667 0.84505
 C232 C 0.31559 0.81925 0.86579
 C233 C 0.28552 0.80511 0.84808
 C234 C 0.28148 0.80807 0.80919
 C235 C 0.30853 0.82518 0.78836
 C236 C 0.37063 0.85446 0.86452
 C237 C 0.39272 0.87075 0.88217
 C238 C 0.41623 0.89180 0.90370
 C239 C 0.43419 0.91184 0.92214
 H240 H 0.35888 0.85327 0.79002
 H241 H 0.31767 0.81746 0.89590
 H242 H 0.26486 0.79280 0.86509
 H243 H 0.30623 0.82768 0.75839
 C244 C 0.66126 0.84267 1.16406
 C245 C 0.66098 0.84491 1.12500
 C246 C 0.68869 0.83074 1.10318
 C247 C 0.71706 0.81524 1.12038
 C248 C 0.71817 0.81386 1.15969
 C249 C 0.68962 0.82720 1.18132
 C250 C 0.63420 0.86459 1.10767
 C251 C 0.61296 0.88275 1.09360
 C252 C 0.58966 0.90603 1.07787
 C253 C 0.57130 0.92771 1.06531
 H254 H 0.64005 0.85371 1.18124
 H255 H 0.68895 0.83265 1.07296
 H256 H 0.73884 0.80557 1.10301
 H257 H 0.68951 0.82611 1.21160
 C258 C 0.66957 1.18669 0.87253
 C259 C 0.64261 1.16852 0.85320
 C260 C 0.64372 1.16647 0.81395
 C261 C 0.67228 1.18188 0.79413
 C262 C 0.70009 1.19932 0.81346
 C263 C 0.69810 1.20194 0.85288
 C264 C 0.61650 1.14870 0.87400
 C265 C 0.59669 1.13045 0.89210
 C266 C 0.57598 1.10698 0.91329
 C267 C 0.56039 1.08493 0.93064
 H268 H 0.66927 1.18794 0.90291
 H269 H 0.62312 1.15213 0.79875
 H270 H 0.67293 1.17969 0.76381
 H271 H 0.71940 1.21455 0.86868
 C272 C 0.14242 0.32798 0.15812
 C273 C 0.14249 0.33087 0.11910
 C274 C 0.15784 0.30516 0.09621
 C275 C 0.17281 0.27661 0.11216
 C276 C 0.17259 0.27329 0.15134
 C277 C 0.15738 0.29942 0.17416
 C278 C 0.12484 0.35900 0.10246
 C279 C 0.10862 0.38160 0.08851
 C280 C 0.08748 0.40664 0.07242
 C281 C 0.06713 0.42632 0.05924
 H282 H 0.13044 0.34761 0.17614
 H283 H 0.15772 0.30689 0.06597
 H284 H 0.18390 0.25676 0.09381
 H285 H 0.15720 0.29785 0.20439
 C286 C -0.18427 0.31756 -0.13307
 C287 C -0.16624 0.34258 -0.15410
 C288 C -0.16464 0.33897 -0.19330
 C289 C -0.18134 0.31043 -0.21137
 C290 C -0.19980 0.28533 -0.19031
 C291 C -0.20082 0.28916 -0.15095
 C292 C -0.14779 0.37065 -0.13478
 C293 C -0.13146 0.39274 -0.11729
 C294 C -0.11058 0.41678 -0.09617
 C295 C -0.09050 0.43550 -0.07850
 H296 H -0.18520 0.31978 -0.10273
 H297 H -0.15038 0.35805 -0.20984
 H298 H -0.18017 0.30816 -0.24168
 H299 H -0.21411 0.26990 -0.13386
 C300 C 0.16907 0.68822 -0.13608
 C301 C 0.15144 0.66275 -0.15777
 C302 C 0.14871 0.66654 -0.19653
 C303 C 0.16391 0.69571 -0.21354
 C304 C 0.18198 0.72125 -0.19184
 C305 C 0.18415 0.71724 -0.15290
 C306 C 0.13463 0.63393 -0.13938
 C307 C 0.11972 0.61117 -0.12240
 C308 C 0.10053 0.58635 -0.10142
 C309 C 0.08193 0.56695 -0.08335
 H310 H 0.17087 0.68582 -0.10601
 H311 H 0.13477 0.64709 -0.21352
 H312 H 0.16198 0.69808 -0.24357
 H313 H 0.19725 0.73680 -0.13533
 C314 C -0.15332 0.67457 0.16785
 C315 C -0.15131 0.67039 0.12874
 C316 C -0.16602 0.69502 0.10630
 C317 C -0.18263 0.72365 0.12276
 C318 C -0.18483 0.72815 0.16204
 C319 C -0.16997 0.70325 0.18442
 C320 C -0.13259 0.64192 0.11141
 C321 C -0.11583 0.61903 0.09646
 C322 C -0.09443 0.59358 0.07885
 C323 C -0.07415 0.57340 0.06421
 H324 H -0.14183 0.65579 0.18553
 H325 H -0.16427 0.69233 0.07602
 H326 H -0.19320 0.74262 0.10469
 H327 H -0.17149 0.70582 0.21470
 C328 C 1.13537 0.18659 0.69035
 C329 C 1.15332 0.16414 0.66579
 C330 C 1.18876 0.15624 0.67241
 C331 C 1.20590 0.16995 0.70418
 C332 C 1.18777 0.19176 0.73024
 C333 C 1.15228 0.20032 0.72212
 C334 C 1.13398 0.14625 0.63646
 C335 C 1.11691 0.12968 0.61372
 C336 C 1.09652 0.10821 0.58936
 C337 C 1.07932 0.08788 0.57050
 H338 H 1.10767 0.19237 0.68582
 H339 H 1.20291 0.13879 0.65348
 H340 H 1.23351 0.16355 0.70779
 H341 H 1.13617 0.21565 0.74135
 C342 C 0.84030 -0.14604 0.67492
 C343 C 0.87669 -0.15155 0.66885
 C344 C 0.89486 -0.17209 0.69308
 C345 C 0.87696 -0.18654 0.72377
 C346 C 0.84027 -0.18061 0.73109
 C347 C 0.82222 -0.16038 0.70561
 C348 C 0.89604 -0.13350 0.63993
 C349 C 0.91207 -0.11658 0.61704
 C350 C 0.93008 -0.09438 0.59202
 C351 C 0.94429 -0.07316 0.57239
 H352 H 0.82596 -0.13010 0.65627
 H353 H 0.92324 -0.17600 0.68901
 H354 H 0.89289 -0.20045 0.74282
 H355 H 0.79390 -0.15599 0.70866
 C356 C 1.13601 -0.19633 0.33874
 C357 C 1.15347 -0.17218 0.36209
 C358 C 1.19028 -0.16622 0.35780
 C359 C 1.20931 -0.18313 0.32893
 C360 C 1.19171 -0.20611 0.30338
 C361 C 1.15477 -0.21319 0.30983
 C362 C 1.13267 -0.15018 0.38646
 C363 C 1.11461 -0.13023 0.40432
 C364 C 1.09351 -0.10510 0.42244
 C365 C 1.07621 -0.08205 0.43587
 H366 H 1.10736 -0.20073 0.34148
 H367 H 1.20408 -0.14753 0.37588
 H368 H 1.23778 -0.17785 0.32686
 H369 H 1.13911 -0.22945 0.29092
 C370 C 0.88715 0.17626 0.31758
 C371 C 0.87008 0.15463 0.34321
 C372 C 0.83305 0.14925 0.34219
 C373 C 0.81318 0.16473 0.31494
 C374 C 0.83005 0.18591 0.28790
 C375 C 0.86748 0.19181 0.29031
 C376 C 0.89092 0.13546 0.36819
 C377 C 0.90811 0.11780 0.38778
 C378 C 0.92725 0.09505 0.40922
 C379 C 0.94212 0.07366 0.42635
 H380 H 0.91593 0.18015 0.31777
 H381 H 0.81956 0.13252 0.36205
 H382 H 0.78453 0.16032 0.31575
 H383 H 0.88244 0.20654 0.26978
 C384 C 0.16223 0.32901 -0.16150
 C385 C 0.14757 0.32427 -0.12561
 C386 C 0.15491 0.29456 -0.10627
 C387 C 0.17554 0.26891 -0.12349
 C388 C 0.18877 0.27271 -0.16032
 C389 C 0.18277 0.30340 -0.17877
 C390 C 0.12270 0.34859 -0.11016
 C391 C 0.10108 0.36876 -0.09838
 C392 C 0.07545 0.39241 -0.08556
 C393 C 0.05376 0.41298 -0.07497
 H394 H 0.15673 0.35194 -0.17667
 H395 H 0.14356 0.29064 -0.07850
 H396 H 0.17948 0.24535 -0.10885
 H397 H 0.19295 0.30704 -0.20704
 C398 C -0.12231 0.30029 0.16632
 C399 C -0.14216 0.32835 0.15626
 C400 C -0.17942 0.32737 0.16135
 C401 C -0.19661 0.29861 0.17731
 C402 C -0.17655 0.27078 0.18848
 C403 C -0.13932 0.27174 0.18223
 C404 C -0.12364 0.35781 0.14078
 C405 C -0.10645 0.38137 0.12759
 C406 C -0.08506 0.40761 0.11121
 C407 C -0.06639 0.42882 0.09571
 H408 H -0.09354 0.30061 0.16219
 H409 H -0.19507 0.34891 0.15344
 H410 H -0.22529 0.29851 0.18192
 H411 H -0.12327 0.25042 0.19000
 C412 C -0.15218 0.70593 -0.11129
 C413 C -0.13429 0.68102 -0.13292
 C414 C -0.13397 0.68241 -0.17193
 C415 C -0.15037 0.70926 -0.18936
 C416 C -0.16740 0.73561 -0.16806
 C417 C -0.16880 0.73285 -0.12860
 C418 C -0.11452 0.65501 -0.11535
 C419 C -0.09688 0.63348 -0.10157
 C420 C -0.07532 0.60847 -0.08644
 C421 C -0.05643 0.58713 -0.07417
 H422 H -0.15242 0.70513 -0.08097
 H423 H -0.12055 0.66295 -0.18896
 H424 H -0.15011 0.70869 -0.21968
 H425 H -0.18061 0.75252 -0.11060
 C426 C 0.18686 0.65894 0.15827
 C427 C 0.14937 0.65870 0.15991
 C428 C 0.13178 0.68576 0.17833
 C429 C 0.15132 0.71257 0.19567
 C430 C 0.18893 0.71277 0.19508
 C431 C 0.20662 0.68597 0.17572
 C432 C 0.12826 0.63139 0.14239
 C433 C 0.10892 0.60986 0.12769
 C434 C 0.08519 0.58621 0.10955
 C435 C 0.06484 0.56736 0.09236
 H436 H 0.20074 0.63821 0.14378
 H437 H 0.10284 0.68609 0.17940
 H438 H 0.13697 0.73323 0.20973
 H439 H 0.23553 0.68555 0.17487
 C440 C 0.29008 1.14314 0.88965
 C441 C 0.31810 1.12892 0.86835
 C442 C 0.32223 1.13649 0.83041
 C443 C 0.29826 1.15796 0.81370
 C444 C 0.26983 1.17217 0.83478
 C445 C 0.26608 1.16465 0.87300
 C446 C 0.34250 1.10637 0.88528
 C447 C 0.36312 1.08746 0.89913
 C448 C 0.38764 1.06544 0.91494
 C449 C 0.40906 1.04691 0.92807
 H450 H 0.28661 1.13739 0.91903
 H451 H 0.34390 1.12569 0.81370
 H452 H 0.30202 1.16357 0.78433
 H453 H 0.24417 1.17480 0.88982
 C454 C 0.33658 0.81639 1.16429
 C455 C 0.33416 0.85235 1.16668
 C456 C 0.30490 0.86710 1.18535
 C457 C 0.27838 0.84619 1.20181
 C458 C 0.28069 0.81005 1.20001
 C459 C 0.30996 0.79533 1.18079
 C460 C 0.36094 0.87438 1.14925
 C461 C 0.38244 0.89348 1.13423
 C462 C 0.40657 0.91614 1.11553
 C463 C 0.42621 0.93520 1.09801
 H464 H 0.35900 0.80465 1.14969
 H465 H 0.30248 0.89484 1.18704
 H466 H 0.25579 0.85834 1.21563
 H467 H 0.31248 0.76762 1.17902
 C468 C 0.67174 1.17131 1.17025
 C469 C 0.67274 1.13525 1.16834
 C470 C 0.70290 1.11882 1.18064
 C471 C 0.73183 1.13817 1.19492
 C472 C 0.73107 1.17440 1.19728
 C473 C 0.70075 1.19080 1.18459
 C474 C 0.64353 1.11487 1.15272
 C475 C 0.61996 1.09711 1.13896
 C476 C 0.59340 1.07589 1.12155
 C477 C 0.57170 1.05786 1.10509
 H478 H 0.64861 1.18435 1.16061
 H479 H 0.70419 1.09098 1.17893
 H480 H 0.75505 1.12476 1.20367
 H481 H 0.69934 1.21861 1.18618
 C482 C 0.69395 0.86473 0.82803
 C483 C 0.69362 0.87103 0.86685
 C484 C 0.72037 0.85774 0.88857
 C485 C 0.74750 0.83842 0.87154
 C486 C 0.74824 0.83217 0.83248
 C487 C 0.72106 0.84544 0.81093
 C488 C 0.66611 0.89154 0.88426
 C489 C 0.64310 0.90892 0.89857
 C490 C 0.61611 0.92944 0.91496
 C491 C 0.59295 0.94706 0.92857
 H492 H 0.67333 0.87485 0.81095
 H493 H 0.72044 0.86255 0.91863
 H494 H 0.76830 0.82894 0.88881
 H495 H 0.72070 0.84074 0.78087
   
