data_POSCAR
  _audit_creation_date              2014-09-24
  _audit_creation_method            'ToBaCCo'
  _symmetry_space_group_name_H-M    'P1'
  _symmetry_Int_Tables_number       1
  _symmetry_cell_setting            triclinic
  loop_
  _symmetry_equiv_pos_as_xyz
 x,y,z
_cell_length_a 32.1850
_cell_length_b 32.4843
_cell_length_c 27.4730
_cell_angle_alpha 89.805800
_cell_angle_beta 89.755200
_cell_angle_gamma 90.083900
loop_
  _atom_site_label
  _atom_site_type_symbol
  _atom_site_fract_x
  _atom_site_fract_y
  _atom_site_fract_z
O1 O 0.03857 0.31903 -0.05071
 O2 O -0.04242 0.31497 0.04447
 O3 O 0.03900 0.31767 0.04396
 O4 O -0.04267 0.31509 -0.04992
 O5 O -0.03979 0.24713 -0.05030
 O6 O 0.04141 0.24976 0.04296
 O7 O -0.03839 0.24722 0.04502
 O8 O 0.03997 0.25103 -0.05235
 Cu9 Cu -0.00211 0.32355 -0.00299
 Cu10 Cu 0.00109 0.24199 -0.00370
 C11 C 0.05250 0.28564 -0.06823
 C12 C -0.05393 0.28034 0.06149
 C13 C 0.05382 0.28396 0.05974
 C14 C -0.05485 0.28060 -0.06629
 O15 O 0.54067 0.81567 0.44796
 O16 O 0.46196 0.81610 0.54586
 O17 O 0.54303 0.81501 0.54241
 O18 O 0.45938 0.81496 0.45084
 O19 O 0.45996 0.74696 0.45060
 O20 O 0.54201 0.74705 0.54306
 O21 O 0.46205 0.74811 0.54632
 O22 O 0.53985 0.74765 0.44780
 Cu23 Cu 0.50118 0.82228 0.49668
 Cu24 Cu 0.50085 0.74064 0.49700
 C25 C 0.55340 0.78160 0.43099
 C26 C 0.44915 0.78212 0.56335
 C27 C 0.55642 0.78088 0.55870
 C28 C 0.44603 0.78087 0.43452
 O29 O 1.04432 0.69246 0.04340
 O30 O 0.96197 0.68745 -0.04987
 O31 O 1.04340 0.69007 -0.05087
 O32 O 0.96310 0.68722 0.04545
 O33 O 0.96004 0.75512 0.04390
 O34 O 1.03955 0.75781 -0.05256
 O35 O 0.95982 0.75541 -0.05180
 O36 O 1.03965 0.76020 0.04294
 Cu37 Cu 1.00337 0.68247 -0.00285
 Cu38 Cu 0.99938 0.76388 -0.00452
 C39 C 1.05563 0.72735 0.05962
 C40 C 0.94761 0.72077 -0.06740
 C41 C 1.05503 0.72445 -0.06849
 C42 C 0.94851 0.72080 0.06172
 O43 O 0.53920 0.18538 0.54365
 O44 O 0.45862 0.18637 0.44852
 O45 O 0.53996 0.18504 0.44911
 O46 O 0.45791 0.18545 0.54309
 O47 O 0.45905 0.25341 0.54328
 O48 O 0.54028 0.25301 0.44896
 O49 O 0.46026 0.25437 0.44790
 O50 O 0.53898 0.25341 0.54434
 Cu51 Cu 0.49885 0.17870 0.49607
 Cu52 Cu 0.49971 0.26037 0.49610
 C53 C 0.55237 0.21931 0.56057
 C54 C 0.44611 0.22063 0.43167
 C55 C 0.55385 0.21901 0.43275
 C56 C 0.44482 0.21956 0.55954
 O57 O 0.69322 0.03793 -0.04661
 O58 O 0.69725 -0.04390 0.04624
 O59 O 0.69778 0.03761 0.04751
 O60 O 0.69429 -0.04226 -0.04769
 O61 O 0.76282 -0.04122 -0.05189
 O62 O 0.76631 0.03707 0.04386
 O63 O 0.76572 -0.04307 0.04264
 O64 O 0.76174 0.03772 -0.05103
 Cu65 Cu 0.68871 -0.00264 0.00067
 Cu66 Cu 0.77102 -0.00226 -0.00413
 C67 C 0.72683 0.05134 -0.06516
 C68 C 0.73216 -0.05815 0.05956
 C69 C 0.73278 0.05131 0.06137
 C70 C 0.72811 -0.05503 -0.06631
 O71 O 0.19342 0.46561 0.54652
 O72 O 0.19170 0.54386 0.44928
 O73 O 0.19107 0.46339 0.45218
 O74 O 0.19534 0.54671 0.54329
 O75 O 0.26387 0.54470 0.54028
 O76 O 0.25962 0.46313 0.44873
 O77 O 0.26022 0.54236 0.44561
 O78 O 0.26201 0.46494 0.54384
 Cu79 Cu 0.18596 0.50492 0.49834
 Cu80 Cu 0.26829 0.50360 0.49445
 C81 C 0.22796 0.45190 0.56167
 C82 C 0.22568 0.55637 0.43072
 C83 C 0.22479 0.44948 0.43454
 C84 C 0.23053 0.56007 0.55695
 O85 O 0.30344 1.04830 0.04221
 O86 O 0.30393 0.96379 -0.04749
 O87 O 0.30116 1.04521 -0.05123
 O88 O 0.30655 0.96753 0.04677
 O89 O 0.23802 0.96554 0.04981
 O90 O 0.23274 1.04217 -0.04872
 O91 O 0.23536 0.96230 -0.04487
 O92 O 0.23505 1.04461 0.04592
 Cu93 Cu 0.31070 1.00630 -0.00292
 Cu94 Cu 0.22848 1.00332 0.00062
 C95 C 0.26898 1.06102 0.05924
 C96 C 0.26955 0.94850 -0.06109
 C97 C 0.26596 1.05771 -0.06600
 C98 C 0.27311 0.95346 0.06514
 O99 O 0.80697 0.53886 0.54506
 O100 O 0.80773 0.45792 0.45103
 O101 O 0.80559 0.53871 0.45185
 O102 O 0.80882 0.45804 0.54650
 O103 O 0.74022 0.45747 0.54927
 O104 O 0.73701 0.53564 0.45281
 O105 O 0.73918 0.45611 0.45336
 O106 O 0.73835 0.53679 0.54646
 Cu107 Cu 0.81426 0.49810 0.49846
 Cu108 Cu 0.73182 0.49586 0.50062
 C109 C 0.77238 0.55225 0.56086
 C110 C 0.77342 0.44379 0.43558
 C111 C 0.77056 0.55138 0.43687
 C112 C 0.77501 0.44478 0.56474
 O113 O 0.23842 0.19051 0.23229
 O114 O 0.21992 0.28078 0.31023
 O115 O 0.18392 0.24767 0.23525
 O116 O 0.27674 0.22278 0.30737
 O117 O 0.31469 0.26198 0.25873
 O118 O 0.22206 0.28623 0.18594
 O119 O 0.25864 0.31864 0.26083
 O120 O 0.27810 0.22836 0.18391
 Cu121 Cu 0.22613 0.23158 0.27660
 Cu122 Cu 0.27232 0.27754 0.21741
 C123 C 0.26066 0.19434 0.19427
 C124 C 0.23602 0.31518 0.29859
 C125 C 0.18723 0.27072 0.19799
 C126 C 0.31154 0.23855 0.29564
 O127 O 0.76309 0.81178 0.23184
 O128 O 0.77799 0.72257 0.31297
 O129 O 0.81797 0.75529 0.23915
 O130 O 0.72278 0.78121 0.30673
 O131 O 0.68627 0.74132 0.25803
 O132 O 0.78164 0.71594 0.18962
 O133 O 0.74078 0.68402 0.26337
 O134 O 0.72493 0.77315 0.18326
 Cu135 Cu 0.77408 0.77151 0.27791
 Cu136 Cu 0.72984 0.72472 0.21840
 C137 C 0.74185 0.80736 0.19339
 C138 C 0.76125 0.68831 0.30237
 C139 C 0.81596 0.73200 0.20224
 C140 C 0.68835 0.76525 0.29442
 O141 O 0.81730 0.24186 0.23693
 O142 O 0.72355 0.21796 0.30850
 O143 O 0.76289 0.18480 0.23458
 O144 O 0.77940 0.27719 0.30974
 O145 O 0.74019 0.31333 0.25961
 O146 O 0.72483 0.22167 0.18390
 O147 O 0.68602 0.25517 0.25767
 O148 O 0.78011 0.28034 0.18695
 Cu149 Cu 0.77436 0.22682 0.27799
 Cu150 Cu 0.72893 0.27121 0.21686
 C151 C 0.81459 0.26465 0.19949
 C152 C 0.68883 0.23277 0.29546
 C153 C 0.74196 0.18789 0.19566
 C154 C 0.76238 0.31095 0.29755
 O155 O 0.27702 0.78190 0.30992
 O156 O 0.18473 0.76353 0.23456
 O157 O 0.21956 0.72474 0.30741
 O158 O 0.24099 0.81947 0.23785
 O159 O 0.27959 0.78408 0.18619
 O160 O 0.25900 0.68946 0.25655
 O161 O 0.22243 0.72641 0.18372
 O162 O 0.31514 0.74588 0.25849
 Cu163 Cu 0.22674 0.77581 0.27783
 Cu164 Cu 0.27277 0.73291 0.21586
 C165 C 0.31184 0.76698 0.29713
 C166 C 0.18791 0.74220 0.19610
 C167 C 0.23607 0.69105 0.29420
 C168 C 0.26365 0.81789 0.19997
 O169 O 0.77766 0.27693 0.68811
 O170 O 0.75735 0.18345 0.75992
 O171 O 0.72101 0.21896 0.68614
 O172 O 0.81307 0.24016 0.76106
 O173 O 0.77463 0.27696 0.81139
 O174 O 0.68254 0.25572 0.73643
 O175 O 0.71789 0.21919 0.81032
 O176 O 0.73832 0.31285 0.73836
 Cu177 Cu 0.77103 0.22627 0.71850
 Cu178 Cu 0.72441 0.26969 0.77933
 C179 C 0.76146 0.31086 0.70090
 C180 C 0.73458 0.18545 0.79766
 C181 C 0.68607 0.23398 0.69830
 C182 C 0.80958 0.26203 0.79907
 O183 O 0.31764 0.74545 0.74003
 O184 O 0.22127 0.72084 0.80687
 O185 O 0.26161 0.68990 0.73243
 O186 O 0.27824 0.77798 0.81400
 O187 O 0.24216 0.81775 0.76443
 O188 O 0.22510 0.72960 0.68319
 O189 O 0.18629 0.76215 0.75790
 O190 O 0.28250 0.78617 0.69068
 Cu191 Cu 0.27314 0.72957 0.77855
 Cu192 Cu 0.23050 0.77781 0.71881
 C193 C 0.31639 0.76938 0.70344
 C194 C 0.18754 0.73805 0.79433
 C195 C 0.24127 0.69499 0.69340
 C196 C 0.26241 0.81270 0.80351
 O197 O 0.26189 0.31751 0.73412
 O198 O 0.27641 0.22519 0.80984
 O199 O 0.31478 0.25822 0.73532
 O200 O 0.22197 0.28464 0.80732
 O201 O 0.18317 0.24860 0.75688
 O202 O 0.27612 0.22088 0.68602
 O203 O 0.23562 0.18957 0.76101
 O204 O 0.22254 0.28185 0.68389
 Cu205 Cu 0.27273 0.27486 0.77677
 Cu206 Cu 0.22572 0.23157 0.71654
 C207 C 0.23987 0.31547 0.69601
 C208 C 0.25768 0.19204 0.79910
 C209 C 0.31122 0.23540 0.69816
 C210 C 0.18671 0.27080 0.79457
 O211 O 0.72533 0.78205 0.68429
 O212 O 0.81790 0.75758 0.75705
 O213 O 0.78092 0.72390 0.68257
 O214 O 0.76236 0.81483 0.75878
 O215 O 0.72302 0.77759 0.80817
 O216 O 0.74148 0.68653 0.73171
 O217 O 0.77961 0.71935 0.80637
 O218 O 0.68704 0.74368 0.73367
 Cu219 Cu 0.77559 0.77329 0.71570
 Cu220 Cu 0.72914 0.72802 0.77535
 C221 C 0.69048 0.76656 0.69628
 C222 C 0.81456 0.73461 0.79434
 C223 C 0.76353 0.68996 0.69349
 C224 C 0.73948 0.81178 0.79637
 C225 C 0.23081 0.10426 0.11592
 C226 C 0.26784 0.09408 0.09179
 C227 C 0.30266 0.11983 0.09951
 C228 C 0.30046 0.15293 0.13255
 C229 C 0.26413 0.15976 0.16013
 C230 C 0.22921 0.13584 0.14969
 C231 C 0.20139 0.11200 0.18304
 C232 C 0.20285 0.07747 0.14594
 H233 H 0.33153 0.11455 0.08014
 H234 H 0.32756 0.17219 0.13778
 H235 H 0.17012 0.12612 0.18660
 H236 H 0.21662 0.10394 0.21805
 H237 H 0.17250 0.07200 0.12790
 H238 H 0.21867 0.04928 0.15950
 C239 C 0.73553 0.59493 0.62244
 C240 C 0.77117 0.58728 0.59468
 C241 C 0.80353 0.61658 0.59627
 C242 C 0.80119 0.65044 0.62818
 C243 C 0.76696 0.65492 0.65994
 C244 C 0.73369 0.62760 0.65463
 C245 C 0.71036 0.60302 0.69173
 C246 C 0.71234 0.56714 0.65639
 H247 H 0.83066 0.61323 0.57318
 H248 H 0.82666 0.67223 0.62915
 H249 H 0.67832 0.61486 0.69743
 H250 H 0.72852 0.59778 0.72553
 H251 H 0.68144 0.55833 0.64178
 H252 H 0.73161 0.54104 0.66965
 C253 C 0.77202 0.89430 0.10964
 C254 C 0.73386 0.90832 0.09164
 C255 C 0.69795 0.88537 0.10426
 C256 C 0.70046 0.85179 0.13677
 C257 C 0.73851 0.84156 0.15873
 C258 C 0.77417 0.86210 0.14269
 C259 C 0.80834 0.88187 0.17068
 C260 C 0.80608 0.91732 0.13448
 H261 H 0.66789 0.89341 0.08944
 H262 H 0.67246 0.83502 0.14630
 H263 H 0.83780 0.86417 0.16818
 H264 H 0.79873 0.89064 0.20817
 H265 H 0.83430 0.92006 0.11123
 H266 H 0.79519 0.94663 0.15095
 C267 C 0.19664 0.39124 0.60427
 C268 C 0.22846 0.42046 0.60035
 C269 C 0.26132 0.41816 0.63397
 C270 C 0.26399 0.38492 0.66690
 C271 C 0.23448 0.35274 0.66585
 C272 C 0.19986 0.35789 0.63576
 C273 C 0.18040 0.32923 0.60011
 C274 C 0.17675 0.36579 0.56566
 H275 H 0.28577 0.44110 0.63351
 H276 H 0.29055 0.38312 0.69088
 H277 H 0.14982 0.31751 0.61306
 H278 H 0.20230 0.30524 0.58689
 H279 H 0.14407 0.37515 0.55889
 H280 H 0.19644 0.36297 0.53246
 C281 C 0.90905 0.24152 0.12426
 C282 C 0.91671 0.27849 0.09924
 C283 C 0.89416 0.31358 0.11450
 C284 C 0.86135 0.30977 0.14851
 C285 C 0.85176 0.27125 0.16939
 C286 C 0.87798 0.23821 0.15904
 C287 C 0.86739 0.19530 0.14419
 C288 C 0.90146 0.19894 0.10592
 H289 H 0.89980 0.34337 0.09790
 H290 H 0.84259 0.33646 0.15705
 H291 H 0.83570 0.19276 0.12848
 H292 H 0.87456 0.17250 0.17322
 H293 H 0.88949 0.19857 0.06801
 H294 H 0.92823 0.17819 0.11290
 C295 C 0.39291 0.81514 0.61321
 C296 C 0.41967 0.78200 0.60460
 C297 C 0.41735 0.74819 0.63684
 C298 C 0.38542 0.74566 0.67196
 C299 C 0.35455 0.77638 0.67464
 C300 C 0.36065 0.81205 0.64673
 C301 C 0.33170 0.83609 0.61534
 C302 C 0.36709 0.83961 0.57867
 H303 H 0.43885 0.72275 0.63331
 H304 H 0.38297 0.71807 0.69403
 H305 H 0.32308 0.86606 0.63194
 H306 H 0.30520 0.81738 0.60187
 H307 H 0.37885 0.87159 0.57417
 H308 H 0.36101 0.82294 0.54426
 C309 C 0.10920 0.69553 0.11027
 C310 C 0.08523 0.72974 0.09677
 C311 C 0.09163 0.76667 0.12285
 C312 C 0.12363 0.76981 0.15740
 C313 C 0.15105 0.73676 0.16530
 C314 C 0.14181 0.69923 0.14297
 C315 C 0.16875 0.67032 0.11509
 C316 C 0.13313 0.66613 0.07923
 H317 H 0.07270 0.79356 0.11579
 H318 H 0.12863 0.79900 0.17542
 H319 H 0.17504 0.64152 0.13574
 H320 H 0.19662 0.68562 0.09917
 H321 H 0.11897 0.63490 0.07923
 H322 H 0.14040 0.67891 0.04255
 C323 C 0.61497 0.19015 0.60175
 C324 C 0.58305 0.21926 0.60007
 C325 C 0.58164 0.24920 0.63701
 C326 C 0.61408 0.25242 0.67104
 C327 C 0.64912 0.22649 0.66789
 C328 C 0.64758 0.19407 0.63439
 C329 C 0.67879 0.17991 0.59777
 C330 C 0.64307 0.17551 0.56209
 H331 H 0.55643 0.27123 0.63830
 H332 H 0.61301 0.27703 0.69749
 H333 H 0.69295 0.14996 0.60809
 H334 H 0.70127 0.20446 0.58731
 H335 H 0.63663 0.14302 0.55199
 H336 H 0.64487 0.19742 0.53094
 C337 C 0.75699 0.08522 0.86096
 C338 C 0.72535 0.08255 0.89591
 C339 C 0.69193 0.11042 0.89202
 C340 C 0.69374 0.14340 0.85851
 C341 C 0.72842 0.14821 0.82743
 C342 C 0.75820 0.11692 0.82716
 C343 C 0.80448 0.11966 0.82908
 C344 C 0.80314 0.08491 0.86627
 H345 H 0.66590 0.10851 0.91703
 H346 H 0.66910 0.16606 0.85853
 H347 H 0.81559 0.14937 0.84433
 H348 H 0.81921 0.11058 0.79406
 H349 H 0.81345 0.09455 0.90310
 H350 H 0.81715 0.05585 0.85268
 C351 C 0.25757 0.59045 0.35760
 C352 C 0.22496 0.58730 0.39129
 C353 C 0.19146 0.61498 0.38619
 C354 C 0.19396 0.64813 0.35297
 C355 C 0.22944 0.65342 0.32329
 C356 C 0.25947 0.62236 0.32402
 C357 C 0.30564 0.62548 0.32781
 C358 C 0.30354 0.59054 0.36473
 H359 H 0.16477 0.61284 0.41019
 H360 H 0.16915 0.67061 0.35221
 H361 H 0.31602 0.65521 0.34367
 H362 H 0.32146 0.61669 0.29334
 H363 H 0.31268 0.60010 0.40202
 H364 H 0.31821 0.56168 0.35153
 C365 C 0.23378 0.90676 0.87607
 C366 C 0.26869 0.91353 0.90505
 C367 C 0.30061 0.88383 0.90393
 C368 C 0.29862 0.85036 0.87136
 C369 C 0.26533 0.84686 0.83838
 C370 C 0.23244 0.87465 0.84311
 C371 C 0.21087 0.90020 0.80574
 C372 C 0.21221 0.93543 0.84199
 H373 H 0.32712 0.88663 0.92784
 H374 H 0.32374 0.82823 0.87071
 H375 H 0.17886 0.88901 0.79847
 H376 H 0.23032 0.90576 0.77280
 H377 H 0.18097 0.94440 0.85568
 H378 H 0.23232 0.96148 0.83007
 C379 C 0.80719 0.38820 0.38594
 C380 C 0.77298 0.41347 0.39577
 C381 C 0.73774 0.40911 0.36586
 C382 C 0.73531 0.37697 0.33175
 C383 C 0.76762 0.34791 0.32777
 C384 C 0.80429 0.35577 0.35334
 C385 C 0.83080 0.32841 0.38383
 C386 C 0.83411 0.36395 0.41955
 H387 H 0.71130 0.42937 0.37027
 H388 H 0.70696 0.37319 0.31112
 H389 H 0.86078 0.32099 0.36568
 H390 H 0.81349 0.30151 0.39880
 H391 H 0.86599 0.37695 0.42201
 H392 H 0.81877 0.35753 0.45499
 C393 C 0.11601 0.31487 0.89189
 C394 C 0.08300 0.28685 0.89194
 C395 C 0.08064 0.25856 0.85335
 C396 C 0.11325 0.25541 0.81932
 C397 C 0.14939 0.27970 0.82410
 C398 C 0.14881 0.31095 0.85918
 C399 C 0.18014 0.32259 0.89665
 C400 C 0.14421 0.32701 0.93238
 H401 H 0.05461 0.23749 0.85093
 H402 H 0.11147 0.23176 0.79173
 H403 H 0.19562 0.35234 0.88793
 H404 H 0.20149 0.29688 0.90595
 H405 H 0.13896 0.35931 0.94410
 H406 H 0.14478 0.30395 0.96239
 C407 C 0.61508 0.81129 0.38772
 C408 C 0.58389 0.78139 0.39095
 C409 C 0.58327 0.75037 0.35522
 C410 C 0.61596 0.74691 0.32123
 C411 C 0.65046 0.77372 0.32319
 C412 C 0.64795 0.80717 0.35517
 C413 C 0.67857 0.82353 0.39094
 C414 C 0.64255 0.82817 0.42650
 H415 H 0.55862 0.72764 0.35507
 H416 H 0.61567 0.72133 0.29605
 H417 H 0.69199 0.85349 0.37908
 H418 H 0.70163 0.80005 0.40258
 H419 H 0.63518 0.86079 0.43497
 H420 H 0.64477 0.80746 0.45871
 C421 C 0.88475 0.69106 0.89223
 C422 C 0.91731 0.71958 0.89271
 C423 C 0.91959 0.74836 0.85433
 C424 C 0.88737 0.75134 0.82005
 C425 C 0.85169 0.72625 0.82420
 C426 C 0.85240 0.69462 0.85906
 C427 C 0.82061 0.68234 0.89608
 C428 C 0.85591 0.67877 0.93238
 H429 H 0.94527 0.76990 0.85224
 H430 H 0.88905 0.77535 0.79267
 H431 H 0.80599 0.65224 0.88740
 H432 H 0.79849 0.70755 0.90479
 H433 H 0.86142 0.64671 0.94503
 H434 H 0.85433 0.70233 0.96156
 C435 C 0.38343 0.19216 0.38995
 C436 C 0.41529 0.22140 0.39232
 C437 C 0.41640 0.25236 0.35629
 C438 C 0.38374 0.25636 0.32268
 C439 C 0.34878 0.23015 0.32526
 C440 C 0.35063 0.19679 0.35768
 C441 C 0.31967 0.18139 0.39407
 C442 C 0.35560 0.17621 0.42933
 H443 H 0.44152 0.27458 0.35550
 H444 H 0.38456 0.28178 0.29708
 H445 H 0.30556 0.15166 0.38291
 H446 H 0.29715 0.20548 0.40547
 H447 H 0.36222 0.14350 0.43835
 H448 H 0.35389 0.19722 0.46117
 C449 C 0.75906 0.91240 0.85972
 C450 C 0.72724 0.91412 0.89453
 C451 C 0.69473 0.88513 0.89080
 C452 C 0.69766 0.85219 0.85757
 C453 C 0.73257 0.84846 0.82666
 C454 C 0.76132 0.88075 0.82620
 C455 C 0.80767 0.87962 0.82814
 C456 C 0.80518 0.91432 0.86505
 H457 H 0.66862 0.88618 0.91576
 H458 H 0.67366 0.82879 0.85762
 H459 H 0.82209 0.88921 0.79305
 H460 H 0.81972 0.85032 0.84363
 H461 H 0.81825 0.94384 0.85123
 H462 H 0.81581 0.90502 0.90194
 C463 C 0.25457 0.41667 0.36032
 C464 C 0.22378 0.41783 0.39638
 C465 C 0.19207 0.38785 0.39446
 C466 C 0.19498 0.35466 0.36153
 C467 C 0.22901 0.35170 0.32915
 C468 C 0.25677 0.38479 0.32715
 C469 C 0.30317 0.38507 0.32712
 C470 C 0.30075 0.42005 0.36366
 H471 H 0.16672 0.38845 0.42050
 H472 H 0.17168 0.33059 0.36284
 H473 H 0.31621 0.39473 0.29133
 H474 H 0.31659 0.35631 0.34247
 H475 H 0.31245 0.44981 0.34892
 H476 H 0.31279 0.41146 0.40019
 C477 C 0.29877 0.11385 0.88856
 C478 C 0.26363 0.09010 0.90024
 C479 C 0.22527 0.10280 0.88025
 C480 C 0.22353 0.13541 0.84640
 C481 C 0.25980 0.15691 0.83281
 C482 C 0.29677 0.14695 0.85652
 C483 C 0.33838 0.13736 0.83522
 C484 C 0.34051 0.10110 0.87024
 H485 H 0.19671 0.08687 0.88951
 H486 H 0.19384 0.14383 0.83086
 H487 H 0.36160 0.16175 0.84321
 H488 H 0.33664 0.12806 0.79635
 H489 H 0.36498 0.10463 0.89836
 H490 H 0.33987 0.07071 0.85174
 C491 C 0.79848 0.61701 0.40194
 C492 C 0.76828 0.58593 0.40224
 C493 C 0.73313 0.59140 0.37253
 C494 C 0.73101 0.62465 0.33976
 C495 C 0.76351 0.65371 0.33688
 C496 C 0.79591 0.65042 0.37041
 C497 C 0.84172 0.65081 0.36179
 C498 C 0.84450 0.61419 0.39624
 H499 H 0.70794 0.56927 0.37341
 H500 H 0.70416 0.62736 0.31633
 H501 H 0.85660 0.67906 0.37639
 H502 H 0.85015 0.64324 0.32355
 H503 H 0.86101 0.62137 0.43064
 H504 H 0.85449 0.58532 0.37798
 C505 C 0.09230 0.76230 0.86797
 C506 C 0.08444 0.72572 0.89369
 C507 C 0.10683 0.69034 0.87900
 C508 C 0.13976 0.69358 0.84502
 C509 C 0.14967 0.73181 0.82352
 C510 C 0.12349 0.76505 0.83321
 C511 C 0.13401 0.80820 0.84715
 C512 C 0.09987 0.80516 0.88541
 H513 H 0.10103 0.66078 0.89610
 H514 H 0.15846 0.66671 0.83714
 H515 H 0.12684 0.83050 0.81760
 H516 H 0.16567 0.81101 0.86288
 H517 H 0.07312 0.82580 0.87792
 H518 H 0.11178 0.80610 0.92333
 C519 C 0.58714 0.25101 0.35954
 C520 C 0.58539 0.21905 0.39376
 C521 C 0.61445 0.18682 0.38900
 C522 C 0.64761 0.19008 0.35540
 C523 C 0.65138 0.22500 0.32502
 C524 C 0.61898 0.25362 0.32560
 C525 C 0.62050 0.29949 0.32862
 C526 C 0.58560 0.29661 0.36595
 H527 H 0.61331 0.16062 0.41346
 H528 H 0.67121 0.16636 0.35482
 H529 H 0.61083 0.31440 0.29401
 H530 H 0.65022 0.31104 0.34399
 H531 H 0.55586 0.30992 0.35285
 H532 H 0.59517 0.30649 0.40297
 C533 C 0.88170 0.30825 0.89289
 C534 C 0.91371 0.27926 0.89509
 C535 C 0.91455 0.24818 0.85945
 C536 C 0.88162 0.24391 0.82629
 C537 C 0.84666 0.26997 0.82900
 C538 C 0.84864 0.30336 0.86109
 C539 C 0.81792 0.31850 0.89772
 C540 C 0.85414 0.32396 0.93250
 H541 H 0.93978 0.22616 0.85851
 H542 H 0.88230 0.21854 0.80083
 H543 H 0.79563 0.29422 0.90957
 H544 H 0.80356 0.34813 0.88650
 H545 H 0.85282 0.30292 0.96451
 H546 H 0.86066 0.35672 0.94119
 C547 C 0.38367 0.81035 0.39304
 C548 C 0.41485 0.78051 0.39550
 C549 C 0.41554 0.74990 0.35927
 C550 C 0.38314 0.74694 0.32518
 C551 C 0.34889 0.77392 0.32747
 C552 C 0.35115 0.80683 0.36020
 C553 C 0.32005 0.82215 0.39625
 C554 C 0.35555 0.82571 0.43227
 H555 H 0.44022 0.72728 0.35852
 H556 H 0.38355 0.72184 0.29935
 H557 H 0.29674 0.79837 0.40670
 H558 H 0.30691 0.85244 0.38546
 H559 H 0.35286 0.80360 0.46306
 H560 H 0.36268 0.85799 0.44264
 C561 C 0.24331 0.92000 0.13969
 C562 C 0.27490 0.92273 0.10466
 C563 C 0.30782 0.89421 0.10784
 C564 C 0.30540 0.86060 0.14047
 C565 C 0.27062 0.85576 0.17141
 C566 C 0.24157 0.88771 0.17270
 C567 C 0.19522 0.88611 0.17114
 C568 C 0.19715 0.92152 0.13486
 H569 H 0.33372 0.89596 0.08262
 H570 H 0.32956 0.83744 0.13970
 H571 H 0.18093 0.89484 0.20652
 H572 H 0.18333 0.85698 0.15516
 H573 H 0.18396 0.95064 0.14937
 H574 H 0.18628 0.91280 0.09793
 C575 C 0.80564 0.38328 0.60578
 C576 C 0.77596 0.41462 0.60466
 C577 C 0.74590 0.41546 0.64205
 C578 C 0.74291 0.38287 0.67579
 C579 C 0.76928 0.34837 0.67188
 C580 C 0.80210 0.35063 0.63830
 C581 C 0.81650 0.32017 0.60135
 C582 C 0.82005 0.35585 0.56570
 H583 H 0.72341 0.44020 0.64369
 H584 H 0.71799 0.38331 0.70239
 H585 H 0.79199 0.29759 0.59133
 H586 H 0.84703 0.30652 0.61099
 H587 H 0.79716 0.35404 0.53563
 H588 H 0.85256 0.36258 0.55438
 C589 C 0.70434 0.11592 0.09745
 C590 C 0.73490 0.08534 0.09655
 C591 C 0.77018 0.09097 0.12605
 C592 C 0.77216 0.12395 0.15908
 C593 C 0.73943 0.15262 0.16230
 C594 C 0.70680 0.14908 0.12911
 C595 C 0.66106 0.14868 0.13830
 C596 C 0.65841 0.11234 0.10371
 H597 H 0.79563 0.06923 0.12470
 H598 H 0.79921 0.12693 0.18214
 H599 H 0.64569 0.17683 0.12402
 H600 H 0.65308 0.14063 0.17660
 H601 H 0.64150 0.11958 0.06956
 H602 H 0.64897 0.08315 0.12194
 C603 C 0.20274 0.62517 0.59331
 C604 C 0.23332 0.59458 0.59144
 C605 C 0.26900 0.59999 0.62032
 C606 C 0.27137 0.63254 0.65381
 C607 C 0.23859 0.66101 0.65828
 C608 C 0.20558 0.65797 0.62552
 C609 C 0.15994 0.65747 0.63536
 C610 C 0.15688 0.62155 0.60020
 H611 H 0.29440 0.57822 0.61838
 H612 H 0.29865 0.63516 0.67655
 H613 H 0.14444 0.68581 0.62179
 H614 H 0.15235 0.64897 0.67363
 H615 H 0.13961 0.62923 0.56642
 H616 H 0.14760 0.59216 0.61808
 C617 C 0.89197 0.68707 0.11113
 C618 C 0.91883 0.72031 0.10274
 C619 C 0.91659 0.75380 0.13515
 C620 C 0.88476 0.75596 0.17033
 C621 C 0.85383 0.72520 0.17295
 C622 C 0.85973 0.68982 0.14476
 C623 C 0.83061 0.66626 0.11323
 C624 C 0.86592 0.66312 0.07644
 H625 H 0.93816 0.77928 0.13177
 H626 H 0.88245 0.78334 0.19257
 H627 H 0.80418 0.68521 0.10003
 H628 H 0.82187 0.63610 0.12956
 H629 H 0.85985 0.68025 0.04223
 H630 H 0.87749 0.63117 0.07157
 C631 C 0.41294 0.25161 0.63318
 C632 C 0.41352 0.21997 0.59878
 C633 C 0.38364 0.18839 0.60371
 C634 C 0.35083 0.19213 0.63769
 C635 C 0.34824 0.22687 0.66824
 C636 C 0.38143 0.25468 0.66745
 C637 C 0.38125 0.30061 0.66475
 C638 C 0.41578 0.29722 0.62704
 H639 H 0.38389 0.16240 0.57913
 H640 H 0.32658 0.16899 0.63841
 H641 H 0.39161 0.31489 0.69936
 H642 H 0.35176 0.31310 0.64978
 H643 H 0.44599 0.30961 0.63992
 H644 H 0.40622 0.30774 0.59019
 C645 C 0.08658 0.25201 0.13277
 C646 C 0.08493 0.28422 0.09890
 C647 C 0.11372 0.31669 0.10411
 C648 C 0.14656 0.31349 0.13788
 C649 C 0.15023 0.27837 0.16794
 C650 C 0.11808 0.24944 0.16681
 C651 C 0.12014 0.20365 0.16302
 C652 C 0.08553 0.20646 0.12571
 H653 H 0.11264 0.34304 0.07990
 H654 H 0.16998 0.33744 0.13887
 H655 H 0.11042 0.18815 0.19736
 H656 H 0.15011 0.19285 0.14738
 H657 H 0.05582 0.19265 0.13860
 H658 H 0.09552 0.19703 0.08859
 C659 C 0.58994 0.74788 0.63071
 C660 C 0.58815 0.78038 0.59722
 C661 C 0.61699 0.81279 0.60265
 C662 C 0.64987 0.80938 0.63630
 C663 C 0.65359 0.77411 0.66606
 C664 C 0.62151 0.74509 0.66466
 C665 C 0.62361 0.69931 0.66050
 C666 C 0.58901 0.70238 0.62316
 H667 H 0.61580 0.83938 0.57883
 H668 H 0.67322 0.83338 0.63754
 H669 H 0.61382 0.68363 0.69470
 H670 H 0.65360 0.68847 0.64492
 H671 H 0.55932 0.68840 0.63585
 H672 H 0.59902 0.69332 0.58592
   
