data_POSCAR
  _audit_creation_date              2014-09-24
  _audit_creation_method            'ToBaCCo'
  _symmetry_space_group_name_H-M    'P1'
  _symmetry_Int_Tables_number       1
  _symmetry_cell_setting            triclinic
  loop_
  _symmetry_equiv_pos_as_xyz
 x,y,z
_cell_length_a 47.6428
_cell_length_b 47.6425
_cell_length_c 40.4560
_cell_angle_alpha 89.964200
_cell_angle_beta 89.964300
_cell_angle_gamma 89.963400
loop_
  _atom_site_label
  _atom_site_type_symbol
  _atom_site_fract_x
  _atom_site_fract_y
  _atom_site_fract_z
O1 O 0.02703 0.30361 -0.03151
 O2 O -0.02796 0.30354 0.03275
 O3 O 0.02688 0.30365 0.03286
 O4 O -0.02781 0.30357 -0.03163
 O5 O -0.02762 0.25715 -0.03149
 O6 O 0.02688 0.25723 0.03280
 O7 O -0.02777 0.25712 0.03269
 O8 O 0.02702 0.25719 -0.03137
 Cu9 Cu -0.00048 0.30829 0.00061
 Cu10 Cu -0.00037 0.25250 0.00067
 C11 C 0.03637 0.28036 -0.04217
 C12 C -0.03722 0.28027 0.04345
 C13 C 0.03618 0.28041 0.04359
 C14 C -0.03701 0.28030 -0.04232
 O15 O 0.52713 0.80298 0.46761
 O16 O 0.47243 0.80307 0.53216
 O17 O 0.52727 0.80294 0.53198
 O18 O 0.47228 0.80301 0.46778
 O19 O 0.47234 0.75659 0.46792
 O20 O 0.52714 0.75652 0.53192
 O21 O 0.47247 0.75665 0.53211
 O22 O 0.52701 0.75656 0.46774
 Cu23 Cu 0.49978 0.80770 0.49988
 Cu24 Cu 0.49973 0.75191 0.49993
 C25 C 0.53637 0.77971 0.45690
 C26 C 0.46315 0.77983 0.54291
 C27 C 0.53655 0.77967 0.54267
 C28 C 0.46297 0.77977 0.45713
 O29 O 1.02837 0.69760 0.03210
 O30 O 0.97343 0.69758 -0.03216
 O31 O 1.02827 0.69756 -0.03229
 O32 O 0.97353 0.69754 0.03221
 O33 O 0.97357 0.74397 0.03208
 O34 O 1.02814 0.74398 -0.03223
 O35 O 0.97348 0.74400 -0.03210
 O36 O 1.02823 0.74401 0.03197
 Cu37 Cu 1.00091 0.69287 -0.00003
 Cu38 Cu 1.00085 0.74866 -0.00007
 C39 C 1.03764 0.72085 0.04277
 C40 C 0.96412 0.72084 -0.04286
 C41 C 1.03752 0.72082 -0.04304
 C42 C 0.96424 0.72079 0.04291
 O43 O 0.47279 0.19578 0.46767
 O44 O 0.52746 0.19583 0.53218
 O45 O 0.47263 0.19577 0.53206
 O46 O 0.52763 0.19594 0.46781
 O47 O 0.52741 0.24236 0.46793
 O48 O 0.47261 0.24219 0.53197
 O49 O 0.52725 0.24225 0.53210
 O50 O 0.47276 0.24220 0.46779
 Cu51 Cu 0.50014 0.19113 0.49993
 Cu52 Cu 0.49999 0.24692 0.49995
 C53 C 0.46349 0.21902 0.45696
 C54 C 0.53665 0.21910 0.54291
 C55 C 0.46327 0.21901 0.54275
 C56 C 0.53687 0.21923 0.45714
 O57 O 0.69637 -0.02705 0.03158
 O58 O 0.69643 0.02794 -0.03268
 O59 O 0.69633 -0.02690 -0.03280
 O60 O 0.69640 0.02778 0.03170
 O61 O 0.74282 0.02760 0.03156
 O62 O 0.74275 -0.02690 -0.03273
 O63 O 0.74285 0.02776 -0.03261
 O64 O 0.74279 -0.02704 0.03144
 Cu65 Cu 0.69168 0.00045 -0.00055
 Cu66 Cu 0.74747 0.00035 -0.00059
 C67 C 0.71961 -0.03639 0.04225
 C68 C 0.71970 0.03720 -0.04338
 C69 C 0.71957 -0.03620 -0.04353
 C70 C 0.71966 0.03699 0.04240
 O71 O 0.19688 0.52724 0.46790
 O72 O 0.19702 0.47254 0.53246
 O73 O 0.19693 0.52738 0.53229
 O74 O 0.19705 0.47240 0.46809
 O75 O 0.24347 0.47257 0.46815
 O76 O 0.24335 0.52737 0.53215
 O77 O 0.24344 0.47270 0.53232
 O78 O 0.24330 0.52723 0.46795
 Cu79 Cu 0.19227 0.49989 0.50019
 Cu80 Cu 0.24805 0.49998 0.50014
 C81 C 0.22011 0.53653 0.45714
 C82 C 0.22029 0.46332 0.54317
 C83 C 0.22017 0.53672 0.54295
 C84 C 0.22032 0.46313 0.45740
 O85 O 0.30237 1.02834 0.03224
 O86 O 0.30244 0.97341 -0.03201
 O87 O 0.30241 1.02825 -0.03214
 O88 O 0.30247 0.97350 0.03236
 O89 O 0.25605 0.97357 0.03230
 O90 O 0.25599 1.02814 -0.03201
 O91 O 0.25602 0.97348 -0.03188
 O92 O 0.25596 1.02823 0.03218
 Cu93 Cu 0.30712 1.00088 0.00011
 Cu94 Cu 0.25134 1.00086 0.00015
 C95 C 0.27911 1.03763 0.04295
 C96 C 0.27919 0.96410 -0.04267
 C97 C 0.27915 1.03751 -0.04286
 C98 C 0.27923 0.96422 0.04309
 O99 O 0.80419 0.52718 0.53239
 O100 O 0.80416 0.47251 0.46789
 O101 O 0.80419 0.52734 0.46801
 O102 O 0.80405 0.47234 0.53226
 O103 O 0.75763 0.47254 0.53213
 O104 O 0.75777 0.52734 0.46810
 O105 O 0.75774 0.47270 0.46796
 O106 O 0.75777 0.52719 0.53227
 Cu107 Cu 0.80885 0.49983 0.50014
 Cu108 Cu 0.75306 0.49995 0.50011
 C109 C 0.78094 0.53648 0.54310
 C110 C 0.78090 0.46331 0.45716
 C111 C 0.78096 0.53669 0.45733
 C112 C 0.78076 0.46309 0.54293
 O113 O 0.23242 0.27076 0.20793
 O114 O 0.29408 0.25479 0.25946
 O115 O 0.27084 0.23206 0.20751
 O116 O 0.25566 0.29349 0.25984
 O117 O 0.22927 0.26705 0.29231
 O118 O 0.24445 0.20562 0.23998
 O119 O 0.26769 0.22834 0.29193
 O120 O 0.20603 0.24432 0.24040
 Cu121 Cu 0.26592 0.26544 0.23041
 Cu122 Cu 0.23420 0.23366 0.26943
 C123 C 0.20886 0.26007 0.21533
 C124 C 0.29125 0.23905 0.28454
 C125 C 0.26004 0.20852 0.21477
 C126 C 0.24006 0.29059 0.28504
 O127 O 0.75548 0.79420 0.24001
 O128 O 0.77126 0.73278 0.29216
 O129 O 0.79425 0.75584 0.24021
 O130 O 0.73249 0.77114 0.29197
 O131 O 0.70630 0.74456 0.25952
 O132 O 0.76805 0.72925 0.20776
 O133 O 0.74506 0.70620 0.25971
 O134 O 0.72928 0.76762 0.20757
 Cu135 Cu 0.76601 0.76617 0.26936
 Cu136 Cu 0.73453 0.73422 0.23037
 C137 C 0.73989 0.79123 0.21485
 C138 C 0.76066 0.70917 0.28487
 C139 C 0.79152 0.74013 0.21511
 C140 C 0.70902 0.76027 0.28462
 O141 O 0.79441 0.24465 0.23980
 O142 O 0.73297 0.22912 0.29201
 O143 O 0.75582 0.20617 0.23994
 O144 O 0.77155 0.26762 0.29187
 O145 O 0.74507 0.29412 0.25957
 O146 O 0.72933 0.23266 0.20764
 O147 O 0.70649 0.25561 0.25971
 O148 O 0.76792 0.27115 0.20750
 Cu149 Cu 0.76636 0.23422 0.26917
 Cu150 Cu 0.73453 0.26606 0.23034
 C151 C 0.79149 0.26036 0.21470
 C152 C 0.70941 0.23990 0.28480
 C153 C 0.74008 0.20909 0.21489
 C154 C 0.76080 0.29119 0.28462
 O155 O 0.20548 0.75555 0.23984
 O156 O 0.26689 0.77095 0.29205
 O157 O 0.24397 0.79413 0.24015
 O158 O 0.22839 0.73238 0.29178
 O159 O 0.25493 0.70610 0.25929
 O160 O 0.27050 0.76786 0.20766
 O161 O 0.29343 0.74468 0.25955
 O162 O 0.23201 0.72928 0.20735
 Cu163 Cu 0.23350 0.76590 0.26923
 Cu164 Cu 0.26539 0.73433 0.23018
 C165 C 0.20843 0.74000 0.21464
 C166 C 0.29048 0.76024 0.28475
 C167 C 0.25969 0.79138 0.21505
 C168 C 0.23921 0.70887 0.28440
 O169 O 0.75531 0.20556 0.76026
 O170 O 0.77086 0.26699 0.70806
 O171 O 0.79380 0.24414 0.76013
 O172 O 0.73235 0.22842 0.70819
 O173 O 0.70586 0.25491 0.74050
 O174 O 0.76731 0.27063 0.79243
 O175 O 0.74437 0.29348 0.74036
 O176 O 0.72882 0.23205 0.79257
 Cu177 Cu 0.76575 0.23360 0.73090
 Cu178 Cu 0.73391 0.26544 0.76972
 C179 C 0.73960 0.20848 0.78536
 C180 C 0.76009 0.29056 0.71527
 C181 C 0.79088 0.25987 0.78518
 C182 C 0.70878 0.23918 0.71544
 O183 O 0.29360 0.74485 0.74068
 O184 O 0.23199 0.72927 0.79255
 O185 O 0.25509 0.70628 0.74062
 O186 O 0.27049 0.76785 0.79258
 O187 O 0.24409 0.79426 0.76008
 O188 O 0.22869 0.73269 0.70813
 O189 O 0.20559 0.75568 0.76006
 O190 O 0.26720 0.77125 0.70818
 Cu191 Cu 0.26545 0.73440 0.76988
 Cu192 Cu 0.23373 0.76613 0.73083
 C193 C 0.29075 0.76051 0.71553
 C194 C 0.20844 0.74002 0.78521
 C195 C 0.23947 0.70914 0.71546
 C196 C 0.25971 0.79140 0.78524
 O197 O 0.20597 0.24440 0.76036
 O198 O 0.26740 0.22856 0.70827
 O199 O 0.24437 0.20568 0.76031
 O200 O 0.22901 0.26730 0.70835
 O201 O 0.25557 0.29360 0.74072
 O202 O 0.27093 0.23198 0.79267
 O203 O 0.29396 0.25486 0.74063
 O204 O 0.23252 0.27070 0.79273
 Cu205 Cu 0.23401 0.23383 0.73106
 Cu206 Cu 0.26593 0.26543 0.76995
 C207 C 0.20892 0.26005 0.78547
 C208 C 0.29101 0.23921 0.71552
 C209 C 0.26007 0.20848 0.78541
 C210 C 0.23987 0.29080 0.71563
 O211 O 0.73276 0.77090 0.70750
 O212 O 0.79432 0.75576 0.75964
 O213 O 0.77149 0.73250 0.70778
 O214 O 0.75558 0.79415 0.75936
 O215 O 0.72923 0.76773 0.79191
 O216 O 0.74514 0.70608 0.74032
 O217 O 0.76797 0.72934 0.79218
 O218 O 0.70641 0.74448 0.74005
 Cu219 Cu 0.76620 0.76599 0.73029
 Cu220 Cu 0.73453 0.73424 0.76940
 C221 C 0.70924 0.76008 0.71484
 C222 C 0.79149 0.74016 0.78485
 C223 C 0.76083 0.70893 0.71520
 C224 C 0.73989 0.79130 0.78448
 C225 C 0.25183 0.13692 0.12266
 C226 C 0.27772 0.13113 0.10056
 C227 C 0.27612 0.09994 0.11006
 C228 C 0.25026 0.10542 0.13184
 C229 C 0.27152 0.14175 0.15218
 C230 C 0.26992 0.11057 0.16171
 C231 C 0.29740 0.13630 0.13041
 C232 C 0.29585 0.10472 0.13955
 C233 C 0.27799 0.07693 0.08614
 C234 C 0.27884 0.05830 0.06602
 C235 C 0.26827 0.16529 0.17515
 C236 C 0.26488 0.18491 0.19353
 H237 H 0.23370 0.15040 0.11595
 H238 H 0.28095 0.13935 0.07515
 H239 H 0.23089 0.09248 0.13217
 H240 H 0.26668 0.10237 0.18712
 H241 H 0.31675 0.14926 0.13009
 H242 H 0.31397 0.09120 0.14622
 C243 C 0.78254 0.61217 0.66280
 C244 C 0.75832 0.59994 0.64170
 C245 C 0.77780 0.59995 0.61142
 C246 C 0.80209 0.61180 0.63212
 C247 C 0.77296 0.64190 0.65328
 C248 C 0.79245 0.64192 0.62301
 C249 C 0.74872 0.63000 0.63256
 C250 C 0.76823 0.62969 0.60197
 C251 C 0.77978 0.57690 0.58761
 C252 C 0.78068 0.55826 0.56753
 C253 C 0.76952 0.66553 0.67606
 C254 C 0.76594 0.68523 0.69424
 H255 H 0.78839 0.60525 0.68808
 H256 H 0.74431 0.58242 0.64912
 H257 H 0.82406 0.60404 0.63165
 H258 H 0.80644 0.65944 0.61558
 H259 H 0.72673 0.63774 0.63297
 H260 H 0.76236 0.63665 0.57671
 C261 C 0.70162 0.87682 0.14944
 C262 C 0.72094 0.90300 0.14829
 C263 C 0.72283 0.90000 0.11054
 C264 C 0.70348 0.87422 0.11129
 C265 C 0.72776 0.85809 0.15252
 C266 C 0.72964 0.85513 0.11476
 C267 C 0.74710 0.88388 0.15174
 C268 C 0.74893 0.88123 0.11367
 C269 C 0.72081 0.92306 0.08669
 C270 C 0.71988 0.94174 0.06663
 C271 C 0.73123 0.83450 0.17540
 C272 C 0.73480 0.81486 0.19370
 H273 H 0.68221 0.87473 0.16442
 H274 H 0.71734 0.92296 0.16180
 H275 H 0.68551 0.87051 0.09440
 H276 H 0.73326 0.83520 0.10121
 H277 H 0.76508 0.88760 0.16862
 H278 H 0.76837 0.88328 0.09872
 C279 C 0.24942 0.36449 0.62600
 C280 C 0.22480 0.36871 0.60156
 C281 C 0.22345 0.39979 0.61154
 C282 C 0.24804 0.39589 0.63566
 C283 C 0.22815 0.35783 0.65347
 C284 C 0.22680 0.38890 0.66349
 C285 C 0.20355 0.36171 0.62936
 C286 C 0.20214 0.39318 0.63898
 C287 C 0.22151 0.42286 0.58770
 C288 C 0.22060 0.44151 0.56761
 C289 C 0.23148 0.33419 0.67630
 C290 C 0.23493 0.31450 0.69455
 H291 H 0.26890 0.35244 0.62090
 H292 H 0.22396 0.36065 0.57584
 H293 H 0.26632 0.41019 0.63800
 H294 H 0.22765 0.39693 0.68922
 H295 H 0.18529 0.34738 0.62703
 H296 H 0.18267 0.40526 0.64404
 C297 C 0.85679 0.28821 0.11936
 C298 C 0.88550 0.30201 0.12713
 C299 C 0.90031 0.27713 0.11040
 C300 C 0.87197 0.26340 0.10229
 C301 C 0.85838 0.27230 0.15236
 C302 C 0.87323 0.24745 0.13559
 C303 C 0.88670 0.28604 0.16053
 C304 C 0.90190 0.26121 0.14339
 C305 C 0.92339 0.27910 0.08656
 C306 C 0.94207 0.27999 0.06649
 C307 C 0.83477 0.26889 0.17523
 C308 C 0.81512 0.26537 0.19354
 H309 H 0.83798 0.29928 0.10973
 H310 H 0.89082 0.32447 0.12338
 H311 H 0.86615 0.25410 0.07809
 H312 H 0.86794 0.22498 0.13930
 H313 H 0.89248 0.29532 0.18475
 H314 H 0.92071 0.25014 0.15301
 C315 C 0.38885 0.76924 0.66269
 C316 C 0.39334 0.75048 0.63187
 C317 C 0.39967 0.77688 0.61135
 C318 C 0.39555 0.79571 0.64180
 C319 C 0.35774 0.77225 0.65333
 C320 C 0.36404 0.79867 0.63283
 C321 C 0.36191 0.75346 0.62287
 C322 C 0.36855 0.77988 0.60203
 C323 C 0.42272 0.77876 0.58749
 C324 C 0.44136 0.77961 0.56737
 C325 C 0.33412 0.76894 0.67619
 C326 C 0.31444 0.76548 0.69446
 H327 H 0.39692 0.76484 0.68790
 H328 H 0.40563 0.73069 0.63122
 H329 H 0.40966 0.81311 0.64929
 H330 H 0.35172 0.81844 0.63350
 H331 H 0.34783 0.73605 0.61533
 H332 H 0.36045 0.78428 0.57683
 C333 C 0.13830 0.70420 0.12731
 C334 C 0.10683 0.70210 0.13682
 C335 C 0.09991 0.72381 0.10992
 C336 C 0.13099 0.72586 0.10006
 C337 C 0.14168 0.72841 0.15207
 C338 C 0.13472 0.75007 0.12515
 C339 C 0.11061 0.72636 0.16198
 C340 C 0.10332 0.74800 0.13469
 C341 C 0.07692 0.72194 0.08599
 C342 C 0.05829 0.72110 0.06586
 C343 C 0.16522 0.73168 0.17505
 C344 C 0.18482 0.73509 0.19342
 H345 H 0.15294 0.68623 0.12454
 H346 H 0.09509 0.68235 0.14134
 H347 H 0.13913 0.72563 0.07434
 H348 H 0.14642 0.76984 0.12057
 H349 H 0.10250 0.72660 0.18770
 H350 H 0.08869 0.76599 0.13747
 C351 C 0.63867 0.20298 0.62843
 C352 C 0.60725 0.20057 0.63808
 C353 C 0.60006 0.22229 0.61131
 C354 C 0.63108 0.22464 0.60130
 C355 C 0.64192 0.22714 0.65326
 C356 C 0.63468 0.24882 0.62646
 C357 C 0.61091 0.22479 0.66332
 C358 C 0.60334 0.24645 0.63615
 C359 C 0.57704 0.22031 0.58745
 C360 C 0.55842 0.21938 0.56735
 C361 C 0.66550 0.23057 0.67611
 C362 C 0.68514 0.23412 0.69437
 H363 H 0.65347 0.18514 0.62552
 H364 H 0.59570 0.18070 0.64258
 H365 H 0.63913 0.22456 0.57554
 H366 H 0.64620 0.26870 0.62192
 H367 H 0.60289 0.22489 0.68908
 H368 H 0.58856 0.26430 0.63906
 C369 C 0.72598 0.11054 0.83769
 C370 C 0.74732 0.10334 0.86532
 C371 C 0.72284 0.09967 0.88967
 C372 C 0.70143 0.10649 0.86243
 C373 C 0.72766 0.14159 0.84771
 C374 C 0.70316 0.13795 0.87205
 C375 C 0.74903 0.13472 0.87497
 C376 C 0.72451 0.13073 0.89964
 C377 C 0.72087 0.07659 0.91351
 C378 C 0.71998 0.05791 0.93358
 C379 C 0.73107 0.16520 0.82483
 C380 C 0.73459 0.18485 0.80652
 H381 H 0.72662 0.10250 0.81195
 H382 H 0.76546 0.08886 0.86280
 H383 H 0.68183 0.09461 0.85755
 H384 H 0.68504 0.15245 0.87456
 H385 H 0.76864 0.14657 0.87990
 H386 H 0.72389 0.13879 0.92537
 C387 C 0.22618 0.61075 0.33661
 C388 C 0.24751 0.60378 0.36434
 C389 C 0.22299 0.59995 0.38860
 C390 C 0.20159 0.60653 0.36127
 C391 C 0.22756 0.64183 0.34656
 C392 C 0.20303 0.63802 0.37082
 C393 C 0.24891 0.63519 0.37392
 C394 C 0.22437 0.63104 0.39851
 C395 C 0.22114 0.57692 0.41251
 C396 C 0.22031 0.55830 0.43266
 C397 C 0.23083 0.66544 0.32368
 C398 C 0.23427 0.68514 0.30543
 H399 H 0.22696 0.60267 0.31089
 H400 H 0.26578 0.58945 0.36193
 H401 H 0.18211 0.59447 0.35635
 H402 H 0.18477 0.65237 0.37321
 H403 H 0.26840 0.64722 0.37889
 H404 H 0.22360 0.63915 0.42421
 C405 C 0.29569 0.87965 0.84733
 C406 C 0.27408 0.90376 0.85150
 C407 C 0.27613 0.90041 0.88919
 C408 C 0.29777 0.87670 0.88543
 C409 C 0.27142 0.85842 0.84737
 C410 C 0.27347 0.85511 0.88507
 C411 C 0.24980 0.88214 0.85116
 C412 C 0.25190 0.87915 0.88917
 C413 C 0.27805 0.92352 0.91297
 C414 C 0.27894 0.94222 0.93299
 C415 C 0.26810 0.83477 0.82456
 C416 C 0.26465 0.81508 0.80632
 H417 H 0.31366 0.87958 0.82985
 H418 H 0.27436 0.92403 0.83796
 H419 H 0.31752 0.87472 0.89979
 H420 H 0.27319 0.83485 0.89864
 H421 H 0.23004 0.88413 0.83682
 H422 H 0.23390 0.87917 0.90662
 C423 C 0.76848 0.38908 0.33782
 C424 C 0.75079 0.39280 0.36965
 C425 C 0.77772 0.39990 0.38875
 C426 C 0.79549 0.39656 0.35730
 C427 C 0.77286 0.35805 0.34679
 C428 C 0.79981 0.36511 0.36588
 C429 C 0.75513 0.36145 0.37827
 C430 C 0.78209 0.36886 0.39770
 C431 C 0.77970 0.42292 0.41261
 C432 C 0.78062 0.44154 0.43271
 C433 C 0.76943 0.33447 0.32395
 C434 C 0.76587 0.31483 0.30569
 H435 H 0.76285 0.39712 0.31293
 H436 H 0.73065 0.40444 0.37145
 H437 H 0.81211 0.41127 0.34896
 H438 H 0.81994 0.35346 0.36406
 H439 H 0.73849 0.34677 0.38666
 H440 H 0.78771 0.36080 0.42259
 C441 C 0.11117 0.27613 0.83760
 C442 C 0.10261 0.25381 0.86360
 C443 C 0.10005 0.27715 0.88962
 C444 C 0.10823 0.29953 0.86401
 C445 C 0.14201 0.27223 0.84772
 C446 C 0.13947 0.29557 0.87373
 C447 C 0.13378 0.24988 0.87335
 C448 C 0.13089 0.27325 0.89969
 C449 C 0.07695 0.27917 0.91343
 C450 C 0.05825 0.28010 0.93347
 C451 C 0.16562 0.26875 0.82487
 C452 C 0.18528 0.26516 0.80660
 H453 H 0.10333 0.27728 0.81180
 H454 H 0.08721 0.23666 0.85968
 H455 H 0.09745 0.31997 0.86045
 H456 H 0.15489 0.31271 0.87764
 H457 H 0.14452 0.22943 0.87696
 H458 H 0.13877 0.27209 0.92548
 C459 C 0.63658 0.75191 0.37578
 C460 C 0.63106 0.77758 0.39829
 C461 C 0.59991 0.77660 0.38854
 C462 C 0.60511 0.75096 0.36635
 C463 C 0.64189 0.77192 0.34665
 C464 C 0.61076 0.77094 0.33686
 C465 C 0.63672 0.79758 0.36883
 C466 C 0.60518 0.79665 0.35943
 C467 C 0.57683 0.77852 0.41237
 C468 C 0.55817 0.77942 0.43245
 C469 C 0.66555 0.76861 0.32385
 C470 C 0.68528 0.76518 0.30563
 H471 H 0.64973 0.73347 0.38226
 H472 H 0.63916 0.78033 0.42380
 H473 H 0.59187 0.73181 0.36559
 H474 H 0.60268 0.76818 0.31134
 H475 H 0.64998 0.81671 0.36958
 H476 H 0.59199 0.81507 0.35299
 C477 C 0.85885 0.70855 0.87686
 C478 C 0.88919 0.69977 0.86760
 C479 C 0.90045 0.72392 0.88897
 C480 C 0.87048 0.73263 0.89857
 C481 C 0.85848 0.72860 0.84710
 C482 C 0.86977 0.75271 0.86850
 C483 C 0.88843 0.71988 0.83744
 C484 C 0.90007 0.74397 0.85921
 C485 C 0.92355 0.72200 0.91277
 C486 C 0.94224 0.72111 0.93280
 C487 C 0.83484 0.73189 0.82426
 C488 C 0.81516 0.73530 0.80598
 H489 H 0.84163 0.69401 0.88386
 H490 H 0.89745 0.67798 0.86751
 H491 H 0.86333 0.73786 0.92395
 H492 H 0.86154 0.77451 0.86863
 H493 H 0.89555 0.71467 0.81204
 H494 H 0.91727 0.75851 0.85221
 C495 C 0.38937 0.22680 0.33668
 C496 C 0.39560 0.24733 0.36543
 C497 C 0.40010 0.22212 0.38851
 C498 C 0.39425 0.20151 0.36015
 C499 C 0.35823 0.22693 0.34655
 C500 C 0.36270 0.20170 0.36962
 C501 C 0.36413 0.24750 0.37494
 C502 C 0.36895 0.22225 0.39835
 C503 C 0.42311 0.22016 0.41238
 C504 C 0.44173 0.21926 0.43250
 C505 C 0.33463 0.23036 0.32372
 C506 C 0.31495 0.23393 0.30551
 H507 H 0.39750 0.22871 0.31105
 H508 H 0.40937 0.26608 0.36396
 H509 H 0.40692 0.18258 0.35435
 H510 H 0.34891 0.18297 0.37108
 H511 H 0.35150 0.26645 0.38079
 H512 H 0.36079 0.22036 0.42396
 C513 C 0.74882 0.88253 0.84953
 C514 C 0.72407 0.90364 0.85043
 C515 C 0.72274 0.90031 0.88817
 C516 C 0.74744 0.87957 0.88759
 C517 C 0.72767 0.85836 0.84635
 C518 C 0.72633 0.85507 0.88410
 C519 C 0.70294 0.87907 0.84686
 C520 C 0.70157 0.87615 0.88502
 C521 C 0.72074 0.92337 0.91197
 C522 C 0.71982 0.94202 0.93205
 C523 C 0.73115 0.83472 0.82359
 C524 C 0.73475 0.81501 0.80542
 H525 H 0.76828 0.88490 0.83469
 H526 H 0.72311 0.92387 0.83686
 H527 H 0.76572 0.88001 0.90459
 H528 H 0.72730 0.83485 0.89770
 H529 H 0.68468 0.87858 0.82984
 H530 H 0.68212 0.87379 0.89988
 C531 C 0.24940 0.38180 0.35029
 C532 C 0.22453 0.40276 0.35150
 C533 C 0.22357 0.39945 0.38926
 C534 C 0.24838 0.37885 0.38838
 C535 C 0.22836 0.35750 0.34738
 C536 C 0.22739 0.35422 0.38515
 C537 C 0.20352 0.37807 0.34821
 C538 C 0.20252 0.37515 0.38638
 C539 C 0.22159 0.42255 0.41305
 C540 C 0.22064 0.44125 0.43307
 C541 C 0.23172 0.33388 0.32453
 C542 C 0.23516 0.31423 0.30622
 H543 H 0.26871 0.38428 0.33521
 H544 H 0.22333 0.42298 0.33793
 H545 H 0.26681 0.37940 0.40514
 H546 H 0.22861 0.33401 0.39875
 H547 H 0.18511 0.37747 0.33142
 H548 H 0.18322 0.37268 0.40148
 C549 C 0.27308 0.11046 0.83788
 C550 C 0.29764 0.10629 0.86255
 C551 C 0.27621 0.09973 0.88989
 C552 C 0.25172 0.10353 0.86560
 C553 C 0.27164 0.14156 0.84777
 C554 C 0.25026 0.13495 0.87513
 C555 C 0.29614 0.13779 0.87205
 C556 C 0.27477 0.13084 0.89974
 C557 C 0.27807 0.07673 0.91383
 C558 C 0.27889 0.05812 0.93400
 C559 C 0.26838 0.16514 0.82484
 C560 C 0.26497 0.18480 0.80653
 H561 H 0.27235 0.10236 0.81217
 H562 H 0.31714 0.09422 0.85767
 H563 H 0.23348 0.08920 0.86321
 H564 H 0.23074 0.14699 0.88007
 H565 H 0.31437 0.15214 0.87443
 H566 H 0.27549 0.13897 0.92544
 C567 C 0.77524 0.64565 0.38481
 C568 C 0.75362 0.62172 0.38929
 C569 C 0.77777 0.60034 0.38908
 C570 C 0.79946 0.62394 0.38495
 C571 C 0.77282 0.64228 0.34716
 C572 C 0.79701 0.62093 0.34688
 C573 C 0.75115 0.61867 0.35132
 C574 C 0.77536 0.59693 0.35143
 C575 C 0.77979 0.57726 0.41291
 C576 C 0.78072 0.55857 0.43296
 C577 C 0.76934 0.66588 0.32429
 C578 C 0.76576 0.68553 0.30601
 H579 H 0.77515 0.66594 0.39830
 H580 H 0.73579 0.62182 0.40698
 H581 H 0.81935 0.62584 0.39904
 H582 H 0.81481 0.62088 0.32917
 H583 H 0.73125 0.61675 0.33725
 H584 H 0.77544 0.57663 0.33797
 C585 C 0.11037 0.72938 0.83794
 C586 C 0.10485 0.70368 0.86057
 C587 C 0.09973 0.72373 0.88969
 C588 C 0.10486 0.74937 0.86744
 C589 C 0.14154 0.72833 0.84756
 C590 C 0.13636 0.74835 0.87669
 C591 C 0.13643 0.70268 0.86979
 C592 C 0.13091 0.72268 0.89926
 C593 C 0.07673 0.72188 0.91364
 C594 C 0.05813 0.72106 0.93381
 C595 C 0.16511 0.73162 0.82462
 C596 C 0.18477 0.73506 0.80631
 H597 H 0.10219 0.73217 0.81246
 H598 H 0.09162 0.68528 0.85423
 H599 H 0.09164 0.76855 0.86673
 H600 H 0.14956 0.76675 0.88308
 H601 H 0.14968 0.68351 0.87049
 H602 H 0.13911 0.71991 0.92474
 C603 C 0.63998 0.20432 0.37301
 C604 C 0.63139 0.22656 0.39904
 C605 C 0.60055 0.22270 0.38896
 C606 C 0.60875 0.20040 0.36328
 C607 C 0.64250 0.22775 0.34706
 C608 C 0.61166 0.22389 0.33693
 C609 C 0.63425 0.25001 0.37277
 C610 C 0.60309 0.24612 0.36300
 C611 C 0.57746 0.22059 0.41276
 C612 C 0.55876 0.21959 0.43279
 C613 C 0.66611 0.23126 0.32422
 C614 C 0.68577 0.23484 0.30594
 H615 H 0.65542 0.18717 0.37686
 H616 H 0.63926 0.22763 0.42483
 H617 H 0.59799 0.17997 0.35965
 H618 H 0.60382 0.22283 0.31113
 H619 H 0.64498 0.27045 0.37644
 H620 H 0.58766 0.26329 0.35914
 C621 C 0.86085 0.25476 0.87919
 C622 C 0.89216 0.24986 0.87075
 C623 C 0.89959 0.27699 0.88928
 C624 C 0.86860 0.28193 0.89805
 C625 C 0.85774 0.27204 0.84733
 C626 C 0.86514 0.29919 0.86583
 C627 C 0.88872 0.26710 0.83853
 C628 C 0.89653 0.29430 0.85743
 C629 C 0.92260 0.27903 0.91313
 C630 C 0.94122 0.27999 0.93323
 C631 C 0.83417 0.26855 0.82449
 C632 C 0.81452 0.26497 0.80624
 H633 H 0.84593 0.23846 0.88791
 H634 H 0.90351 0.22960 0.87303
 H635 H 0.86057 0.28805 0.92279
 H636 H 0.85376 0.31943 0.86354
 H637 H 0.89673 0.26097 0.81379
 H638 H 0.91148 0.31059 0.84876
 C639 C 0.38841 0.77382 0.33699
 C640 C 0.39239 0.79824 0.36188
 C641 C 0.39930 0.77670 0.38897
 C642 C 0.39570 0.75234 0.36446
 C643 C 0.35737 0.77198 0.34706
 C644 C 0.36433 0.75048 0.37417
 C645 C 0.36094 0.79635 0.37156
 C646 C 0.36825 0.77486 0.39900
 C647 C 0.42239 0.77863 0.41277
 C648 C 0.44109 0.77952 0.43280
 C649 C 0.33376 0.76865 0.32421
 C650 C 0.31411 0.76519 0.30591
 H651 H 0.39644 0.77335 0.31123
 H652 H 0.40420 0.81791 0.35710
 H653 H 0.41024 0.73427 0.36179
 H654 H 0.35254 0.73080 0.37900
 H655 H 0.34639 0.81441 0.37422
 H656 H 0.36020 0.77531 0.42475
 C657 C 0.24852 0.88051 0.14672
 C658 C 0.27099 0.90394 0.14862
 C659 C 0.27621 0.90060 0.11135
 C660 C 0.25379 0.87752 0.10914
 C661 C 0.27151 0.85855 0.15315
 C662 C 0.27674 0.85524 0.11588
 C663 C 0.29397 0.88160 0.15543
 C664 C 0.29923 0.87866 0.11775
 C665 C 0.27812 0.92371 0.08756
 C666 C 0.27899 0.94239 0.06751
 C667 C 0.26817 0.83487 0.17591
 C668 C 0.26469 0.81513 0.19408
 H669 H 0.22763 0.88101 0.15888
 H670 H 0.26865 0.92423 0.16181
 H671 H 0.23728 0.87607 0.08986
 H672 H 0.27907 0.83496 0.10266
 H673 H 0.31045 0.88300 0.17473
 H674 H 0.32011 0.87817 0.10556
 C675 C 0.79692 0.36116 0.62891
 C676 C 0.77575 0.36835 0.60111
 C677 C 0.77731 0.39941 0.61112
 C678 C 0.79853 0.39262 0.63856
 C679 C 0.77226 0.35747 0.65301
 C680 C 0.77381 0.38852 0.66306
 C681 C 0.75107 0.36432 0.62555
 C682 C 0.75266 0.39570 0.63523
 C683 C 0.77941 0.42251 0.58732
 C684 C 0.78042 0.44121 0.56728
 C685 C 0.76874 0.33386 0.67586
 C686 C 0.76515 0.31420 0.69414
 H687 H 0.81508 0.34669 0.62658
 H688 H 0.77657 0.36030 0.57539
 H689 H 0.81808 0.40452 0.64364
 H690 H 0.77298 0.39655 0.68880
 H691 H 0.73151 0.35244 0.62042
 H692 H 0.73448 0.41015 0.63757
 C693 C 0.70525 0.14036 0.12583
 C694 C 0.72803 0.13108 0.10079
 C695 C 0.72295 0.10039 0.11079
 C696 C 0.70011 0.10928 0.13548
 C697 C 0.72791 0.14224 0.15274
 C698 C 0.72283 0.11155 0.16280
 C699 C 0.75071 0.13329 0.12803
 C700 C 0.74561 0.10228 0.13771
 C701 C 0.72092 0.07737 0.08694
 C702 C 0.71997 0.05875 0.06684
 C703 C 0.73139 0.16581 0.17558
 C704 C 0.73498 0.18545 0.19383
 H705 H 0.68869 0.15629 0.12121
 H706 H 0.73015 0.13887 0.07504
 H707 H 0.67927 0.09913 0.13826
 H708 H 0.72072 0.10380 0.18856
 H709 H 0.77156 0.14341 0.12520
 H710 H 0.76218 0.08637 0.14233
 C711 C 0.20248 0.63751 0.63037
 C712 C 0.22290 0.63148 0.60141
 C713 C 0.22317 0.60031 0.61121
 C714 C 0.20270 0.60595 0.63982
 C715 C 0.22782 0.64221 0.65318
 C716 C 0.22809 0.61106 0.66301
 C717 C 0.24826 0.63652 0.62455
 C718 C 0.24849 0.60504 0.63402
 C719 C 0.22126 0.57725 0.58737
 C720 C 0.22040 0.55858 0.56731
 C721 C 0.23113 0.66581 0.67606
 C722 C 0.23456 0.68547 0.69434
 H723 H 0.18360 0.65113 0.62914
 H724 H 0.22075 0.63963 0.57583
 H725 H 0.18394 0.59311 0.64581
 H726 H 0.23026 0.60292 0.68860
 H727 H 0.26703 0.64933 0.61850
 H728 H 0.26740 0.59145 0.63528
 C729 C 0.85873 0.74060 0.11790
 C730 C 0.88878 0.75184 0.12380
 C731 C 0.90066 0.72382 0.11123
 C732 C 0.87093 0.71255 0.10499
 C733 C 0.85866 0.72848 0.15310
 C734 C 0.87050 0.70044 0.14056
 C735 C 0.88839 0.73976 0.15934
 C736 C 0.90064 0.71168 0.14642
 C737 C 0.92375 0.72192 0.08741
 C738 C 0.94242 0.72105 0.06734
 C739 C 0.83499 0.73179 0.17589
 C740 C 0.81527 0.73522 0.19410
 H741 H 0.84125 0.75254 0.10640
 H742 H 0.89654 0.77296 0.11666
 H743 H 0.86400 0.70133 0.08238
 H744 H 0.86271 0.67934 0.14772
 H745 H 0.89531 0.75099 0.18195
 H746 H 0.91815 0.69976 0.15787
 C747 C 0.36077 0.24415 0.62110
 C748 C 0.39204 0.24935 0.62941
 C749 C 0.39970 0.22215 0.61111
 C750 C 0.36875 0.21692 0.60247
 C751 C 0.35784 0.22707 0.65314
 C752 C 0.36547 0.19985 0.63486
 C753 C 0.38879 0.23231 0.66180
 C754 C 0.39683 0.20504 0.64313
 C755 C 0.42275 0.22015 0.58723
 C756 C 0.44142 0.21924 0.56715
 C757 C 0.33427 0.23054 0.67605
 C758 C 0.31463 0.23411 0.69437
 H759 H 0.34570 0.26028 0.61228
 H760 H 0.40320 0.26969 0.62692
 H761 H 0.36075 0.21058 0.57782
 H762 H 0.35428 0.17953 0.63737
 H763 H 0.39677 0.23866 0.68645
 H764 H 0.41193 0.18892 0.65191
 C765 C 0.13519 0.25132 0.12582
 C766 C 0.10380 0.25242 0.13557
 C767 C 0.09974 0.27725 0.11180
 C768 C 0.13082 0.27618 0.10172
 C769 C 0.14175 0.27233 0.15355
 C770 C 0.13772 0.29717 0.12979
 C771 C 0.11068 0.27339 0.16367
 C772 C 0.10624 0.29830 0.13951
 C773 C 0.07665 0.27925 0.08804
 C774 C 0.05798 0.28016 0.06799
 C775 C 0.16542 0.26884 0.17627
 C776 C 0.18514 0.26523 0.19441
 H777 H 0.14735 0.23197 0.12042
 H778 H 0.08960 0.23404 0.13770
 H779 H 0.13885 0.27735 0.07600
 H780 H 0.15194 0.31554 0.12768
 H781 H 0.10268 0.27221 0.18941
 H782 H 0.09406 0.31764 0.14486
 C783 C 0.63583 0.75071 0.62485
 C784 C 0.60441 0.75164 0.63454
 C785 C 0.60026 0.77648 0.61078
 C786 C 0.63136 0.77557 0.60077
 C787 C 0.64224 0.77172 0.65263
 C788 C 0.63812 0.79657 0.62888
 C789 C 0.61115 0.77263 0.66268
 C790 C 0.60662 0.79753 0.63854
 C791 C 0.57715 0.77844 0.58701
 C792 C 0.55844 0.77937 0.56700
 C793 C 0.66588 0.76839 0.67545
 C794 C 0.68556 0.76496 0.69372
 H795 H 0.64808 0.73142 0.61945
 H796 H 0.59030 0.73319 0.63661
 H797 H 0.63943 0.77679 0.57507
 H798 H 0.65225 0.81500 0.62682
 H799 H 0.60310 0.77139 0.68839
 H800 H 0.59434 0.81681 0.64389
   
