data_POSCAR
  _audit_creation_date              2014-09-24
  _audit_creation_method            'ToBaCCo'
  _symmetry_space_group_name_H-M    'P1'
  _symmetry_Int_Tables_number       1
  _symmetry_cell_setting            triclinic
  loop_
  _symmetry_equiv_pos_as_xyz
 x,y,z
_cell_length_a 58.4020
_cell_length_b 58.4167
_cell_length_c 58.5273
_cell_angle_alpha 89.999000
_cell_angle_beta 90.016000
_cell_angle_gamma 90.036500
loop_
  _atom_site_label
  _atom_site_type_symbol
  _atom_site_fract_x
  _atom_site_fract_y
  _atom_site_fract_z
N1 N 0.17097 0.22505 0.23066
 N2 N 0.17717 0.20689 0.24234
 C3 C 0.16257 0.20398 0.25991
 C4 C 0.14631 0.22128 0.25926
 C5 C 0.15228 0.23432 0.24037
 H6 H 0.16368 0.19021 0.27216
 H7 H 0.14370 0.24941 0.23401
 Cu8 Cu 0.20359 0.18872 0.23325
 Cu9 Cu 0.18749 0.23539 0.20371
 Cu10 Cu 0.23515 0.20391 0.18765
 N11 N 0.23071 0.17152 0.22432
 N12 N 0.24290 0.17754 0.20643
 C13 C 0.26044 0.16284 0.20393
 C14 C 0.25930 0.14662 0.22120
 C15 C 0.24012 0.15274 0.23379
 H16 H 0.27302 0.16395 0.19045
 H17 H 0.23340 0.14414 0.24868
 N18 N 0.22458 0.23117 0.17085
 N19 N 0.20645 0.24315 0.17696
 C20 C 0.20370 0.26063 0.16222
 C21 C 0.22094 0.25969 0.14597
 C22 C 0.23383 0.24073 0.15206
 H23 H 0.19013 0.27312 0.16330
 H24 H 0.24888 0.23431 0.14348
 H25 H 0.20042 0.20375 0.19453
 H26 H 0.21882 0.22201 0.21325
 N27 N 0.67112 0.72523 0.73075
 N28 N 0.67733 0.70708 0.74244
 C29 C 0.66277 0.70419 0.76005
 C30 C 0.64648 0.72147 0.75938
 C31 C 0.65243 0.73449 0.74047
 H32 H 0.66397 0.69052 0.77241
 H33 H 0.64388 0.74960 0.73415
 Cu34 Cu 0.70382 0.68902 0.73333
 Cu35 Cu 0.68765 0.73562 0.70378
 Cu36 Cu 0.73527 0.70412 0.68766
 N37 N 0.73081 0.67169 0.72433
 N38 N 0.74296 0.67770 0.70643
 C39 C 0.76050 0.66301 0.70389
 C40 C 0.75939 0.64679 0.72115
 C41 C 0.74026 0.65292 0.73382
 H42 H 0.77308 0.66415 0.69042
 H43 H 0.73368 0.64440 0.74882
 N44 N 0.72471 0.73138 0.67090
 N45 N 0.70659 0.74337 0.67702
 C46 C 0.70392 0.76092 0.66235
 C47 C 0.72119 0.76000 0.64613
 C48 C 0.73404 0.74100 0.65218
 H49 H 0.69041 0.77347 0.66351
 H50 H 0.74914 0.73462 0.64366
 H51 H 0.70061 0.70404 0.69458
 H52 H 0.71902 0.72227 0.71326
 N53 N 0.32857 0.77524 0.73068
 N54 N 0.32236 0.79339 0.74236
 C55 C 0.33701 0.79636 0.75991
 C56 C 0.35332 0.77909 0.75923
 C57 C 0.34732 0.76603 0.74037
 H58 H 0.33584 0.81005 0.77225
 H59 H 0.35583 0.75088 0.73409
 Cu60 Cu 0.29551 0.81106 0.73349
 Cu61 Cu 0.31190 0.76471 0.70382
 Cu62 Cu 0.26423 0.79622 0.68769
 N63 N 0.26882 0.82879 0.72427
 N64 N 0.25667 0.82280 0.70636
 C65 C 0.23918 0.83755 0.70378
 C66 C 0.24028 0.85385 0.72106
 C67 C 0.25946 0.84762 0.73372
 H68 H 0.22662 0.83629 0.69030
 H69 H 0.26617 0.85606 0.74871
 N70 N 0.27468 0.76880 0.67104
 N71 N 0.29281 0.75683 0.67718
 C72 C 0.29552 0.73929 0.66251
 C73 C 0.27827 0.74017 0.64627
 C74 C 0.26540 0.75917 0.65229
 H75 H 0.30911 0.72681 0.66362
 H76 H 0.25036 0.76559 0.64368
 H77 H 0.29885 0.79626 0.69474
 H78 H 0.28040 0.77785 0.71319
 N79 N 0.82943 0.27476 0.23128
 N80 N 0.82286 0.29255 0.24329
 C81 C 0.83738 0.29547 0.26093
 C82 C 0.85409 0.27854 0.25999
 C83 C 0.84832 0.26570 0.24083
 H84 H 0.83584 0.30898 0.27342
 H85 H 0.85705 0.25084 0.23420
 Cu86 Cu 0.79610 0.31025 0.23431
 Cu87 Cu 0.81302 0.26440 0.20420
 Cu88 Cu 0.76501 0.29560 0.18839
 N89 N 0.76921 0.32775 0.22536
 N90 N 0.75722 0.32192 0.20729
 C91 C 0.73993 0.33685 0.20453
 C92 C 0.74102 0.35303 0.22183
 C93 C 0.75991 0.34665 0.23473
 H94 H 0.72759 0.33597 0.19080
 H95 H 0.76651 0.35516 0.24973
 N96 N 0.77571 0.26844 0.17150
 N97 N 0.79400 0.25662 0.17746
 C98 C 0.79685 0.23925 0.16261
 C99 C 0.77952 0.24012 0.14643
 C100 C 0.76650 0.25894 0.15267
 H101 H 0.81055 0.22689 0.16355
 H102 H 0.75143 0.26535 0.14411
 H103 H 0.79979 0.29601 0.19528
 H104 H 0.78163 0.27716 0.21354
 N105 N 0.82890 0.72536 0.26897
 N106 N 0.82237 0.70747 0.25701
 C107 C 0.83690 0.70457 0.23939
 C108 C 0.85351 0.72155 0.24030
 C109 C 0.84777 0.73441 0.25938
 H110 H 0.83551 0.69104 0.22687
 H111 H 0.85661 0.74927 0.26593
 Cu112 Cu 0.79567 0.68970 0.26602
 Cu113 Cu 0.81253 0.73566 0.29607
 Cu114 Cu 0.76486 0.70405 0.31225
 N115 N 0.76894 0.67204 0.27515
 N116 N 0.75707 0.67773 0.29336
 C117 C 0.73976 0.66279 0.29607
 C118 C 0.74071 0.64676 0.27862
 C119 C 0.75953 0.65325 0.26567
 H120 H 0.72744 0.66364 0.30980
 H121 H 0.76595 0.64491 0.25049
 N122 N 0.77553 0.73127 0.32907
 N123 N 0.79365 0.74328 0.32293
 C124 C 0.79634 0.76082 0.33762
 C125 C 0.77908 0.75988 0.35385
 C126 C 0.76624 0.74086 0.34782
 H127 H 0.80985 0.77340 0.33646
 H128 H 0.75115 0.73446 0.35635
 H129 H 0.79948 0.70403 0.30500
 H130 H 0.78094 0.72268 0.28692
 N131 N 0.32939 0.22489 -0.23095
 N132 N 0.32334 0.20657 -0.24247
 C133 C 0.33799 0.20358 -0.26000
 C134 C 0.35422 0.22102 -0.25952
 C135 C 0.34806 0.23419 -0.24071
 H136 H 0.33677 0.18975 -0.27219
 H137 H 0.35639 0.24946 -0.23445
 Cu138 Cu 0.29655 0.18885 -0.23345
 Cu139 Cu 0.31260 0.23553 -0.20418
 Cu140 Cu 0.26485 0.20398 -0.18811
 N141 N 0.26975 0.17115 -0.22443
 N142 N 0.25740 0.17732 -0.20672
 C143 C 0.23981 0.16266 -0.20427
 C144 C 0.24107 0.14630 -0.22139
 C145 C 0.26038 0.15230 -0.23386
 H146 H 0.22704 0.16396 -0.19099
 H147 H 0.26709 0.14368 -0.24875
 N148 N 0.27523 0.23147 -0.17152
 N149 N 0.29338 0.24347 -0.17761
 C150 C 0.29602 0.26103 -0.16293
 C151 C 0.27871 0.26012 -0.14675
 C152 C 0.26587 0.24109 -0.15282
 H153 H 0.30961 0.27351 -0.16398
 H154 H 0.25082 0.23464 -0.14426
 H155 H 0.29956 0.20402 -0.19476
 H156 H 0.28123 0.22214 -0.21357
 N157 N 0.67103 0.27449 -0.23112
 N158 N 0.67724 0.29263 -0.24285
 C159 C 0.66261 0.29553 -0.26040
 C160 C 0.64622 0.27824 -0.25972
 C161 C 0.65228 0.26524 -0.24076
 H162 H 0.66386 0.30929 -0.27265
 H163 H 0.64375 0.25017 -0.23428
 Cu164 Cu 0.70366 0.31083 -0.23368
 Cu165 Cu 0.68755 0.26425 -0.20403
 Cu166 Cu 0.73484 0.29615 -0.18767
 N167 N 0.73056 0.32834 -0.22458
 N168 N 0.74255 0.32253 -0.20648
 C169 C 0.76001 0.33731 -0.20388
 C170 C 0.75904 0.35339 -0.22127
 C171 C 0.74005 0.34708 -0.23409
 H172 H 0.77250 0.33630 -0.19030
 H173 H 0.73357 0.35546 -0.24921
 N174 N 0.72438 0.26885 -0.17090
 N175 N 0.70643 0.25666 -0.17715
 C176 C 0.70389 0.23905 -0.16252
 C177 C 0.72109 0.24012 -0.14622
 C178 C 0.73375 0.25930 -0.15217
 H179 H 0.69050 0.22635 -0.16375
 H180 H 0.74877 0.26581 -0.14359
 H181 H 0.70011 0.29604 -0.19485
 H182 H 0.71885 0.27786 -0.21324
 N183 N 0.17098 0.77540 0.26939
 N184 N 0.17707 0.79372 0.25789
 C185 C 0.16245 0.79670 0.24033
 C186 C 0.14629 0.77927 0.24082
 C187 C 0.15234 0.76610 0.25958
 H188 H 0.16359 0.81048 0.22807
 H189 H 0.14393 0.75082 0.26571
 Cu190 Cu 0.20382 0.81143 0.26697
 Cu191 Cu 0.18767 0.76475 0.29620
 Cu192 Cu 0.23537 0.79631 0.31240
 N193 N 0.23058 0.82913 0.27606
 N194 N 0.24289 0.82298 0.29381
 C195 C 0.26047 0.83766 0.29630
 C196 C 0.25928 0.85406 0.27913
 C197 C 0.23994 0.84798 0.26662
 H198 H 0.27315 0.83628 0.30966
 H199 H 0.23316 0.85648 0.25171
 N200 N 0.22493 0.76882 0.32897
 N201 N 0.20680 0.75682 0.32281
 C202 C 0.20410 0.73926 0.33745
 C203 C 0.22135 0.74016 0.35371
 C204 C 0.23421 0.75918 0.34770
 H205 H 0.19051 0.72676 0.33634
 H206 H 0.24924 0.76562 0.35633
 H207 H 0.20065 0.79625 0.30564
 H208 H 0.21903 0.77812 0.28690
 N209 N 0.47527 0.42066 0.48108
 N210 N 0.45740 0.42719 0.49304
 C211 C 0.45449 0.41265 0.51067
 C212 C 0.47148 0.39606 0.50976
 C213 C 0.48433 0.40180 0.49067
 H214 H 0.44098 0.41405 0.52318
 H215 H 0.49920 0.39298 0.48412
 Cu216 Cu 0.43965 0.45389 0.48396
 Cu217 Cu 0.48556 0.43708 0.45393
 Cu218 Cu 0.45392 0.48469 0.43775
 N219 N 0.42190 0.48058 0.47488
 N220 N 0.42758 0.49243 0.45667
 C221 C 0.41265 0.50973 0.45394
 C222 C 0.39661 0.50878 0.47138
 C223 C 0.40310 0.48997 0.48436
 H224 H 0.41350 0.52204 0.44020
 H225 H 0.39477 0.48355 0.49954
 N226 N 0.48115 0.47408 0.42090
 N227 N 0.49317 0.45598 0.42704
 C228 C 0.51070 0.45332 0.41233
 C229 C 0.50973 0.47058 0.39609
 C230 C 0.49071 0.48339 0.40214
 H231 H 0.52328 0.43984 0.41347
 H232 H 0.48429 0.49847 0.39361
 H233 H 0.47259 0.46866 0.46307
 H234 H 0.45391 0.45010 0.44502
 N235 N -0.02483 -0.07885 0.98077
 N236 N -0.04330 -0.07298 0.99213
 C237 C -0.04625 -0.08762 1.00966
 C238 C -0.02867 -0.10360 1.00929
 C239 C -0.01542 -0.09740 0.99062
 H240 H -0.06018 -0.08669 1.02175
 H241 H -0.00008 -0.10571 0.98454
 Cu242 Cu -0.06172 -0.04681 0.98292
 Cu243 Cu -0.01440 -0.06217 0.95393
 Cu244 Cu -0.04614 -0.01486 0.93762
 N245 N -0.07884 -0.01968 0.97394
 N246 N -0.07266 -0.00733 0.95624
 C247 C -0.08722 0.01033 0.95387
 C248 C -0.10354 0.00908 0.97102
 C249 C -0.09760 -0.01026 0.98345
 H250 H -0.08589 0.02314 0.94063
 H251 H -0.10621 -0.01698 0.99834
 N252 N -0.01873 -0.02520 0.92098
 N253 N -0.00662 -0.04319 0.92722
 C254 C 0.01090 -0.04587 0.91251
 C255 C 0.00984 -0.02874 0.89615
 C256 C -0.00922 -0.01596 0.90216
 H257 H 0.02347 -0.05937 0.91367
 H258 H -0.01576 -0.00101 0.89350
 H259 H -0.02837 -0.03102 0.96349
 H260 H -0.04606 -0.04957 0.94438
 N261 N 1.02506 0.57908 0.98066
 N262 N 1.04309 0.57273 0.99248
 C263 C 1.04605 0.58736 1.01003
 C264 C 1.02891 0.60378 1.00921
 C265 C 1.01594 0.59790 0.99025
 H266 H 1.05966 0.58608 1.02246
 H267 H 1.00095 0.60658 0.98381
 Cu268 Cu 1.06079 0.54589 0.98381
 Cu269 Cu 1.01469 0.56255 0.95368
 Cu270 Cu 1.04652 0.51527 0.93730
 N271 N 1.07869 0.51949 0.97422
 N272 N 1.07298 0.50764 0.95602
 C273 C 1.08785 0.49029 0.95331
 C274 C 1.10387 0.49120 0.97077
 C275 C 1.09746 0.51005 0.98371
 H276 H 1.08691 0.47790 0.93964
 H277 H 1.10574 0.51639 0.99895
 N278 N 1.01915 0.52567 0.92062
 N279 N 1.00700 0.54362 0.92688
 C280 C 0.98941 0.54623 0.91224
 C281 C 0.99046 0.52908 0.89590
 C282 C 1.00961 0.51638 0.90184
 H283 H 0.97677 0.55966 0.91345
 H284 H 1.01614 0.50142 0.89320
 H285 H 1.02790 0.53104 0.96282
 H286 H 1.04649 0.54985 0.94490
 N287 N 0.52487 0.07905 0.48088
 N288 N 0.54214 0.07201 0.49342
 C289 C 0.54463 0.08623 0.51137
 C290 C 0.52801 0.10316 0.51005
 C291 C 0.51577 0.09793 0.49040
 H292 H 0.55778 0.08451 0.52423
 H293 H 0.50155 0.10732 0.48323
 Cu294 Cu 0.56025 0.04543 0.48463
 Cu295 Cu 0.51655 0.06408 0.45232
 Cu296 Cu 0.54443 0.01350 0.43964
 N297 N 0.57874 0.01975 0.47412
 N298 N 0.57258 0.00752 0.45632
 C299 C 0.58768 -0.00957 0.45326
 C300 C 0.60430 -0.00811 0.47013
 C301 C 0.59804 0.01083 0.48301
 H302 H 0.58625 -0.02237 0.44002
 H303 H 0.60660 0.01740 0.49800
 N304 N 0.51839 0.02502 0.42162
 N305 N 0.50752 0.04415 0.42663
 C306 C 0.49036 0.04716 0.41155
 C307 C 0.49045 0.02910 0.39617
 C308 C 0.50857 0.01544 0.40314
 H309 H 0.47870 0.06150 0.41181
 H310 H 0.51422 -0.00036 0.39541
 H311 H 0.52651 0.03263 0.46368
 H312 H 0.54757 0.04781 0.44505
 N313 N -0.02540 0.07950 0.51941
 N314 N -0.04375 0.07343 0.50793
 C315 C -0.04674 0.08802 0.49036
 C316 C -0.02930 0.10416 0.49082
 C317 C -0.01610 0.09812 0.50958
 H318 H -0.06054 0.08687 0.47813
 H319 H -0.00080 0.10653 0.51569
 Cu320 Cu -0.06147 0.04674 0.51696
 Cu321 Cu -0.01477 0.06278 0.54623
 Cu322 Cu -0.04641 0.01512 0.56235
 N323 N -0.07920 0.02004 0.52601
 N324 N -0.07305 0.00770 0.54374
 C325 C -0.08773 -0.00986 0.54619
 C326 C -0.10407 -0.00858 0.52905
 C327 C -0.09805 0.01071 0.51656
 H328 H -0.08645 -0.02263 0.55948
 H329 H -0.10663 0.01741 0.50165
 N330 N -0.01893 0.02548 0.57894
 N331 N -0.00689 0.04359 0.57283
 C332 C 0.01065 0.04623 0.58753
 C333 C 0.00969 0.02894 0.60374
 C334 C -0.00935 0.01614 0.59767
 H335 H 0.02318 0.05979 0.58647
 H336 H -0.01584 0.00111 0.60624
 H337 H -0.02820 0.03143 0.53687
 H338 H -0.04630 0.04982 0.55564
 N339 N 0.47521 0.57921 0.01930
 N340 N 0.45686 0.57317 0.00780
 C341 C 0.45392 0.58778 -0.00976
 C342 C 0.47136 0.60393 -0.00926
 C343 C 0.48453 0.59786 0.00950
 H344 H 0.44013 0.58667 -0.02201
 H345 H 0.49980 0.60628 0.01566
 Cu346 Cu 0.43871 0.54666 0.01674
 Cu347 Cu 0.48578 0.56251 0.04610
 Cu348 Cu 0.45254 0.51672 0.06365
 N349 N 0.42188 0.51920 0.02548
 N350 N 0.42757 0.50740 0.04371
 C351 C 0.41301 0.48972 0.04616
 C352 C 0.39718 0.49040 0.02849
 C353 C 0.40346 0.50938 0.01567
 H354 H 0.41377 0.47753 0.06002
 H355 H 0.39513 0.51577 0.00048
 N356 N 0.48085 0.52590 0.07946
 N357 N 0.49345 0.54342 0.07283
 C358 C 0.51135 0.54563 0.08716
 C359 C 0.51005 0.52865 0.10367
 C360 C 0.49046 0.51644 0.09812
 H361 H 0.52432 0.55874 0.08568
 H362 H 0.48357 0.50180 0.10705
 H363 H 0.47130 0.53129 0.03755
 H364 H 0.45395 0.55132 0.05536
 N365 N 0.52482 -0.07896 0.01921
 N366 N 0.54269 -0.07242 0.00725
 C367 C 0.54559 -0.08693 -0.01039
 C368 C 0.52859 -0.10353 -0.00949
 C369 C 0.51574 -0.09782 0.00961
 H370 H 0.55910 -0.08552 -0.02290
 H371 H 0.50088 -0.10666 0.01615
 Cu372 Cu 0.56046 -0.04574 0.01634
 Cu373 Cu 0.51455 -0.06259 0.04637
 Cu374 Cu 0.54623 -0.01498 0.06258
 N375 N 0.57823 -0.01906 0.02543
 N376 N 0.57258 -0.00721 0.04365
 C377 C 0.58753 0.01009 0.04637
 C378 C 0.60355 0.00913 0.02891
 C379 C 0.59703 -0.00967 0.01594
 H380 H 0.58672 0.02240 0.06011
 H381 H 0.60533 -0.01609 0.00075
 N382 N 0.51900 -0.02563 0.07943
 N383 N 0.50696 -0.04373 0.07328
 C384 C 0.48944 -0.04642 0.08799
 C385 C 0.49041 -0.02919 0.10425
 C386 C 0.50944 -0.01635 0.09820
 H387 H 0.47685 -0.05992 0.08682
 H388 H 0.51585 -0.00127 0.10675
 H389 H 0.52754 -0.03099 0.03726
 H390 H 0.54621 -0.04956 0.05529
 N391 N 1.02505 0.42073 0.51923
 N392 N 1.04337 0.42679 0.50771
 C393 C 1.04633 0.41220 0.49015
 C394 C 1.02889 0.39607 0.49064
 C395 C 1.01572 0.40210 0.50942
 H396 H 1.06011 0.41334 0.47789
 H397 H 1.00044 0.39370 0.51554
 Cu398 Cu 1.06113 0.45347 0.51680
 Cu399 Cu 1.01445 0.43743 0.54605
 Cu400 Cu 1.04612 0.48507 0.56218
 N401 N 1.07886 0.48018 0.52579
 N402 N 1.07275 0.49250 0.54355
 C403 C 1.08744 0.51005 0.54602
 C404 C 1.10376 0.50878 0.52886
 C405 C 1.09771 0.48952 0.51635
 H406 H 1.08619 0.52280 0.55932
 H407 H 1.10628 0.48282 0.50143
 N408 N 1.01866 0.47470 0.57878
 N409 N 1.00662 0.45659 0.57266
 C410 C 0.98907 0.45395 0.58735
 C411 C 0.99005 0.47122 0.60357
 C412 C 1.00909 0.48403 0.59752
 H413 H 0.97655 0.44039 0.58628
 H414 H 1.01558 0.49905 0.60610
 H415 H 1.02788 0.46878 0.53671
 H416 H 1.04601 0.45037 0.55545
 C417 C 0.37440 -0.00034 0.25020
 C418 C 0.12551 -0.00041 0.74979
 C419 C 0.62559 0.49977 0.25006
 C420 C 0.87456 0.50000 0.74987
 C421 C 0.25003 0.37539 -0.00012
 C422 C 0.75022 0.12469 0.00015
 C423 C 0.25014 0.62446 0.49989
 C424 C 0.74980 0.87554 0.49983
 C425 C -0.00024 0.25006 0.37467
 C426 C 0.00016 0.75003 0.12490
 C427 C 0.50008 0.24981 0.62575
 C428 C 0.49986 0.75011 0.87476
 C429 C 0.10474 0.21368 0.30870
 C430 C 0.08982 0.23208 0.30530
 C431 C 0.09330 0.24693 0.28689
 C432 C 0.11164 0.24346 0.27195
 C433 C 0.12680 0.22499 0.27516
 C434 C 0.12311 0.21015 0.29378
 C435 C 0.07087 0.23572 0.32060
 C436 C 0.05489 0.23888 0.33324
 C437 C 0.03603 0.24268 0.34784
 C438 C 0.01977 0.24599 0.36010
 H439 H 0.10220 0.20204 0.32290
 H440 H 0.08183 0.26123 0.28408
 H441 H 0.11382 0.25532 0.25794
 H442 H 0.13434 0.19581 0.29696
 C443 C 0.59345 0.74718 0.78696
 C444 C 0.58993 0.73231 0.80536
 C445 C 0.60483 0.71389 0.80876
 C446 C 0.62320 0.71034 0.79385
 C447 C 0.62696 0.72520 0.77527
 C448 C 0.61180 0.74368 0.77203
 C449 C 0.57097 0.73593 0.82064
 C450 C 0.55499 0.73904 0.83331
 C451 C 0.53614 0.74277 0.84793
 C452 C 0.51987 0.74605 0.86019
 H453 H 0.58200 0.76148 0.78413
 H454 H 0.60224 0.70224 0.82293
 H455 H 0.63436 0.69593 0.79699
 H456 H 0.61397 0.75551 0.75800
 C457 C 0.39481 0.78649 0.80881
 C458 C 0.40968 0.76803 0.80545
 C459 C 0.40617 0.75319 0.78703
 C460 C 0.38789 0.75676 0.77202
 C461 C 0.37278 0.77529 0.77520
 C462 C 0.37650 0.79010 0.79383
 C463 C 0.42862 0.76437 0.82077
 C464 C 0.44460 0.76124 0.83344
 C465 C 0.46348 0.75748 0.84803
 C466 C 0.47979 0.75420 0.86026
 H467 H 0.39738 0.79811 0.82301
 H468 H 0.41759 0.73885 0.78423
 H469 H 0.38572 0.74494 0.75798
 H470 H 0.36535 0.80452 0.79696
 C471 C -0.10541 0.28616 0.30890
 C472 C -0.09023 0.26805 0.30525
 C473 C -0.09341 0.25349 0.28658
 C474 C -0.11174 0.25695 0.27161
 C475 C -0.12731 0.27511 0.27505
 C476 C -0.12377 0.28970 0.29397
 C477 C -0.07133 0.26439 0.32060
 C478 C -0.05539 0.26123 0.33330
 C479 C -0.03657 0.25745 0.34793
 C480 C -0.02029 0.25415 0.36017
 H481 H -0.10306 0.29758 0.32330
 H482 H -0.08171 0.23943 0.28356
 H483 H -0.11348 0.24524 0.25743
 H484 H -0.13507 0.30391 0.29748
 C485 C -0.09308 0.74682 0.21302
 C486 C -0.08980 0.73214 0.19444
 C487 C -0.10497 0.71396 0.19083
 C488 C -0.12338 0.71048 0.20571
 C489 C -0.12690 0.72518 0.22447
 C490 C -0.11147 0.74339 0.22792
 C491 C -0.07086 0.73574 0.17912
 C492 C -0.05491 0.73886 0.16642
 C493 C -0.03609 0.74262 0.15176
 C494 C -0.01984 0.74593 0.13948
 H495 H -0.08142 0.76094 0.21601
 H496 H -0.10258 0.70245 0.17651
 H497 H -0.13477 0.69628 0.20240
 H498 H -0.11346 0.75509 0.24209
 C499 C 0.39505 0.21321 0.69186
 C500 C 0.40970 0.23188 0.69496
 C501 C 0.40595 0.24697 0.71311
 C502 C 0.38767 0.24343 0.72812
 C503 C 0.37269 0.22464 0.72529
 C504 C 0.37673 0.20959 0.70683
 C505 C 0.42869 0.23552 0.67965
 C506 C 0.44472 0.23864 0.66702
 C507 C 0.46365 0.24241 0.65246
 C508 C 0.47999 0.24570 0.64026
 H509 H 0.39780 0.20139 0.67786
 H510 H 0.41720 0.26150 0.71570
 H511 H 0.38549 0.25556 0.74189
 H512 H 0.36589 0.19492 0.70376
 C513 C 0.60532 0.28608 0.69171
 C514 C 0.59041 0.26766 0.69507
 C515 C 0.59400 0.25274 0.71339
 C516 C 0.61238 0.25618 0.72831
 C517 C 0.62762 0.27471 0.72521
 C518 C 0.62374 0.28960 0.70658
 C519 C 0.57138 0.26409 0.67979
 C520 C 0.55536 0.26098 0.66714
 C521 C 0.53646 0.25721 0.65254
 C522 C 0.52014 0.25391 0.64031
 H523 H 0.60271 0.29777 0.67758
 H524 H 0.58253 0.23841 0.71618
 H525 H 0.61443 0.24419 0.74222
 H526 H 0.63479 0.30407 0.70330
 C527 C 0.09383 0.75304 0.21258
 C528 C 0.09016 0.76809 0.19436
 C529 C 0.10479 0.78679 0.19128
 C530 C 0.12303 0.79045 0.20633
 C531 C 0.12691 0.77542 0.22476
 C532 C 0.11204 0.75664 0.22766
 C533 C 0.07129 0.76439 0.17897
 C534 C 0.05536 0.76123 0.16626
 C535 C 0.03652 0.75744 0.15163
 C536 C 0.02022 0.75414 0.13940
 H537 H 0.08258 0.73850 0.21515
 H538 H 0.10209 0.79858 0.17724
 H539 H 0.13399 0.80508 0.20344
 H540 H 0.11433 0.74466 0.24153
 C541 C 0.30857 0.10463 0.21435
 C542 C 0.30493 0.08987 0.23280
 C543 C 0.28641 0.09359 0.24748
 C544 C 0.27158 0.11201 0.24375
 C545 C 0.27505 0.12701 0.22522
 C546 C 0.29378 0.12306 0.21058
 C547 C 0.32014 0.07085 0.23657
 C548 C 0.33281 0.05485 0.23965
 C549 C 0.34749 0.03600 0.24324
 C550 C 0.35982 0.01972 0.24635
 H551 H 0.32285 0.10190 0.20286
 H552 H 0.28340 0.08225 0.26182
 H553 H 0.25748 0.11441 0.25547
 H554 H 0.29716 0.13413 0.19617
 C555 C 0.78661 0.59376 0.74725
 C556 C 0.80512 0.59013 0.73255
 C557 C 0.80870 0.60492 0.71411
 C558 C 0.79387 0.62331 0.71040
 C559 C 0.77517 0.62721 0.72510
 C560 C 0.77173 0.61215 0.74358
 C561 C 0.82035 0.57114 0.73629
 C562 C 0.83302 0.55517 0.73938
 C563 C 0.84769 0.53633 0.74298
 C564 C 0.86000 0.52006 0.74606
 H565 H 0.78364 0.58237 0.76156
 H566 H 0.82296 0.60223 0.70258
 H567 H 0.79717 0.63438 0.69596
 H568 H 0.75760 0.61444 0.75528
 C569 C 0.78649 0.40616 0.75234
 C570 C 0.80492 0.40993 0.76712
 C571 C 0.80840 0.39529 0.78570
 C572 C 0.79351 0.37694 0.78950
 C573 C 0.77487 0.37293 0.77473
 C574 C 0.77157 0.38782 0.75609
 C575 C 0.82019 0.42889 0.76332
 C576 C 0.83291 0.44484 0.76021
 C577 C 0.84763 0.46366 0.75665
 C578 C 0.85997 0.47993 0.75362
 H579 H 0.78360 0.41744 0.73792
 H580 H 0.82260 0.39809 0.79729
 H581 H 0.79671 0.36601 0.80405
 H582 H 0.75749 0.38544 0.74434
 C583 C 0.30838 -0.10538 0.28573
 C584 C 0.30461 -0.09040 0.26751
 C585 C 0.28581 -0.09380 0.25312
 C586 C 0.27082 -0.11210 0.25690
 C587 C 0.27437 -0.12741 0.27524
 C588 C 0.29346 -0.12369 0.28960
 C589 C 0.31993 -0.07145 0.26371
 C590 C 0.33268 -0.05551 0.26061
 C591 C 0.34744 -0.03669 0.25705
 C592 C 0.35980 -0.02042 0.25400
 H593 H 0.32288 -0.10289 0.29703
 H594 H 0.28269 -0.08227 0.23895
 H595 H 0.25652 -0.11403 0.24533
 H596 H 0.29710 -0.13479 0.30390
 C597 C 0.19153 -0.10528 0.71411
 C598 C 0.19513 -0.09051 0.73253
 C599 C 0.21368 -0.09414 0.74718
 C600 C 0.22861 -0.11248 0.74344
 C601 C 0.22525 -0.12759 0.72490
 C602 C 0.20639 -0.12364 0.71029
 C603 C 0.17987 -0.07153 0.73630
 C604 C 0.16717 -0.05556 0.73939
 C605 C 0.15246 -0.03673 0.74296
 C606 C 0.14011 -0.02047 0.74601
 H607 H 0.17722 -0.10261 0.70262
 H608 H 0.21664 -0.08277 0.76151
 H609 H 0.24270 -0.11461 0.75522
 H610 H 0.20290 -0.13458 0.69582
 C611 C 0.71392 0.40622 0.24778
 C612 C 0.69559 0.41002 0.23287
 C613 C 0.69213 0.39531 0.21435
 C614 C 0.70689 0.37685 0.21073
 C615 C 0.72541 0.37278 0.22563
 C616 C 0.72873 0.38775 0.24421
 C617 C 0.68032 0.42899 0.23655
 C618 C 0.66755 0.44490 0.23959
 C619 C 0.65272 0.46362 0.24314
 C620 C 0.64027 0.47979 0.24623
 H621 H 0.71676 0.41751 0.26220
 H622 H 0.67799 0.39810 0.20269
 H623 H 0.70365 0.36583 0.19626
 H624 H 0.74269 0.38530 0.25609
 C625 C 0.69188 0.60437 0.28606
 C626 C 0.69525 0.58981 0.26741
 C627 C 0.71351 0.59372 0.25246
 C628 C 0.72831 0.61219 0.25608
 C629 C 0.72506 0.62704 0.27476
 C630 C 0.70664 0.62284 0.28973
 C631 C 0.67998 0.57083 0.26366
 C632 C 0.66724 0.55490 0.26057
 C633 C 0.65249 0.53612 0.25697
 C634 C 0.64013 0.51986 0.25388
 H635 H 0.67782 0.60145 0.29779
 H636 H 0.71632 0.58250 0.23799
 H637 H 0.74223 0.61473 0.24418
 H638 H 0.70349 0.63374 0.30431
 C639 C 0.21380 0.09325 0.75248
 C640 C 0.19500 0.08988 0.76690
 C641 C 0.19121 0.10490 0.78510
 C642 C 0.20614 0.12322 0.78890
 C643 C 0.22516 0.12682 0.77453
 C644 C 0.22877 0.11157 0.75623
 C645 C 0.17973 0.07089 0.76317
 C646 C 0.16704 0.05489 0.76013
 C647 C 0.15237 0.03602 0.75660
 C648 C 0.14007 0.01970 0.75357
 H649 H 0.21692 0.08170 0.73834
 H650 H 0.17672 0.10243 0.79640
 H651 H 0.20266 0.13447 0.80315
 H652 H 0.24312 0.11365 0.74477
 C653 C 0.24705 0.28726 0.09320
 C654 C 0.23229 0.30575 0.08965
 C655 C 0.21380 0.30922 0.10442
 C656 C 0.21007 0.29426 0.12269
 C657 C 0.22482 0.27556 0.12648
 C658 C 0.24337 0.27226 0.11145
 C659 C 0.23605 0.32109 0.07078
 C660 C 0.23923 0.33381 0.05489
 C661 C 0.24296 0.34851 0.03612
 C662 C 0.24616 0.36082 0.01989
 H663 H 0.26143 0.28440 0.08186
 H664 H 0.20225 0.32350 0.10182
 H665 H 0.19560 0.29746 0.13374
 H666 H 0.25511 0.25815 0.11366
 C667 C 0.71407 0.80951 0.60456
 C668 C 0.73254 0.80602 0.58978
 C669 C 0.74730 0.78752 0.59334
 C670 C 0.74364 0.77256 0.61163
 C671 C 0.72511 0.77590 0.62667
 C672 C 0.71037 0.79459 0.62287
 C673 C 0.73626 0.82131 0.57087
 C674 C 0.73934 0.83402 0.55494
 C675 C 0.74295 0.84869 0.53614
 C676 C 0.74603 0.86099 0.51988
 H677 H 0.70250 0.82376 0.60193
 H678 H 0.76163 0.78461 0.58195
 H679 H 0.75538 0.75844 0.61383
 H680 H 0.69590 0.79781 0.63393
 C681 C 0.78604 0.80954 0.39526
 C682 C 0.76755 0.80603 0.41002
 C683 C 0.75283 0.78748 0.40649
 C684 C 0.75656 0.77248 0.38827
 C685 C 0.77512 0.77581 0.37326
 C686 C 0.78982 0.79457 0.37702
 C687 C 0.76376 0.82135 0.42889
 C688 C 0.76057 0.83404 0.44479
 C689 C 0.75683 0.84870 0.46357
 C690 C 0.75364 0.86098 0.47981
 H691 H 0.79757 0.82385 0.39786
 H692 H 0.73847 0.78458 0.41785
 H693 H 0.74484 0.75832 0.38608
 H694 H 0.80428 0.79780 0.36596
 C695 C 0.28594 0.30946 -0.10496
 C696 C 0.26748 0.30592 -0.09015
 C697 C 0.25268 0.28745 -0.09380
 C698 C 0.25629 0.27257 -0.11217
 C699 C 0.27482 0.27594 -0.12721
 C700 C 0.28960 0.29462 -0.12334
 C701 C 0.26379 0.32117 -0.07118
 C702 C 0.26069 0.33385 -0.05523
 C703 C 0.25704 0.34852 -0.03641
 C704 C 0.25389 0.36083 -0.02016
 H705 H 0.29753 0.32370 -0.10229
 H706 H 0.23833 0.28452 -0.08244
 H707 H 0.24451 0.25848 -0.11444
 H708 H 0.30404 0.29788 -0.13441
 C709 C 0.74723 0.21287 -0.09328
 C710 C 0.73265 0.19418 -0.08982
 C711 C 0.71431 0.19048 -0.10473
 C712 C 0.71055 0.20536 -0.12305
 C713 C 0.72510 0.22425 -0.12675
 C714 C 0.74351 0.22778 -0.11159
 C715 C 0.73642 0.17891 -0.07089
 C716 C 0.73956 0.16621 -0.05496
 C717 C 0.74322 0.15154 -0.03615
 C718 C 0.74636 0.13924 -0.01990
 H719 H 0.76147 0.21593 -0.08180
 H720 H 0.70287 0.17609 -0.10218
 H721 H 0.69621 0.20197 -0.13423
 H722 H 0.75512 0.24204 -0.11373
 C723 C 0.24726 0.71269 0.40662
 C724 C 0.23247 0.69419 0.41015
 C725 C 0.21402 0.69070 0.39533
 C726 C 0.21037 0.70561 0.37700
 C727 C 0.22517 0.72429 0.37322
 C728 C 0.24366 0.72763 0.38832
 C729 C 0.23621 0.67885 0.42903
 C730 C 0.23938 0.66611 0.44492
 C731 C 0.24313 0.65139 0.46366
 C732 C 0.24632 0.63905 0.47987
 H733 H 0.26159 0.71558 0.41803
 H734 H 0.20244 0.67644 0.39793
 H735 H 0.19594 0.70238 0.36589
 H736 H 0.25544 0.74174 0.38612
 C737 C 0.25237 0.71261 0.59335
 C738 C 0.26719 0.69415 0.58983
 C739 C 0.28563 0.69070 0.60468
 C740 C 0.28925 0.70563 0.62300
 C741 C 0.27444 0.72429 0.62676
 C742 C 0.25595 0.72757 0.61166
 C743 C 0.26357 0.67882 0.57091
 C744 C 0.26055 0.66608 0.55498
 C745 C 0.25700 0.65135 0.53620
 C746 C 0.25394 0.63902 0.51995
 H747 H 0.23805 0.71547 0.58194
 H748 H 0.29724 0.67648 0.60209
 H749 H 0.30368 0.70244 0.63411
 H750 H 0.24416 0.74166 0.61385
 C751 C 0.75322 0.21250 0.09378
 C752 C 0.76809 0.19413 0.09006
 C753 C 0.78671 0.19075 0.10470
 C754 C 0.79050 0.20571 0.12296
 C755 C 0.77565 0.22430 0.12690
 C756 C 0.75695 0.22748 0.11203
 C757 C 0.76431 0.17885 0.07115
 C758 C 0.76111 0.16619 0.05521
 C759 C 0.75733 0.15156 0.03640
 C760 C 0.75410 0.13927 0.02016
 H761 H 0.73871 0.21526 0.08257
 H762 H 0.79832 0.17655 0.10200
 H763 H 0.80506 0.20258 0.13392
 H764 H 0.74509 0.24148 0.11437
 C765 C 0.46394 0.35469 0.55940
 C766 C 0.48214 0.33955 0.55586
 C767 C 0.49679 0.34277 0.53724
 C768 C 0.49333 0.36108 0.52225
 C769 C 0.47511 0.37651 0.52565
 C770 C 0.46043 0.37303 0.54444
 C771 C 0.48579 0.32069 0.57129
 C772 C 0.48893 0.30481 0.58409
 C773 C 0.49271 0.28606 0.59885
 C774 C 0.49600 0.26984 0.61118
 H775 H 0.45245 0.35233 0.57374
 H776 H 0.51092 0.33112 0.53429
 H777 H 0.50501 0.36304 0.50806
 H778 H 0.44621 0.38439 0.54771
 C779 C -0.00263 0.84379 0.03734
 C780 C -0.01778 0.84003 0.05545
 C781 C -0.03649 0.85464 0.05852
 C782 C -0.04004 0.87295 0.04356
 C783 C -0.02491 0.87694 0.02524
 C784 C -0.00614 0.86209 0.02235
 C785 C -0.01416 0.82110 0.07078
 C786 C -0.01103 0.80515 0.08347
 C787 C -0.00726 0.78632 0.09810
 C788 C -0.00395 0.77005 0.11036
 H789 H 0.01191 0.83257 0.03478
 H790 H -0.04835 0.85187 0.07249
 H791 H -0.05468 0.88389 0.04645
 H792 H 0.00592 0.86446 0.00854
 C793 C 0.00315 0.65666 0.03699
 C794 C 0.01804 0.66014 0.05537
 C795 C 0.03650 0.64527 0.05871
 C796 C 0.04006 0.62697 0.04373
 C797 C 0.02518 0.62326 0.02514
 C798 C 0.00666 0.63838 0.02198
 C799 C 0.01442 0.67902 0.07074
 C800 C 0.01129 0.69494 0.08346
 C801 C 0.00753 0.71375 0.09811
 C802 C 0.00424 0.73001 0.11037
 H803 H -0.01120 0.66809 0.03423
 H804 H 0.04815 0.64781 0.07289
 H805 H 0.05448 0.61581 0.04684
 H806 H -0.00521 0.63621 0.00798
 C807 C 0.53578 0.14465 0.55955
 C808 C 0.51781 0.16002 0.55584
 C809 C 0.50322 0.15690 0.53714
 C810 C 0.50650 0.13846 0.52226
 C811 C 0.52449 0.12281 0.52584
 C812 C 0.53911 0.12620 0.54470
 C813 C 0.51429 0.17895 0.57123
 C814 C 0.51122 0.19485 0.58402
 C815 C 0.50749 0.21360 0.59879
 C816 C 0.50419 0.22980 0.61115
 H817 H 0.54724 0.14691 0.57394
 H818 H 0.48926 0.16873 0.53407
 H819 H 0.49485 0.13656 0.50802
 H820 H 0.55317 0.11467 0.54811
 C821 C -0.00317 0.15656 0.46243
 C822 C -0.01826 0.16016 0.44424
 C823 C -0.03696 0.14551 0.44121
 C824 C -0.04057 0.12731 0.45631
 C825 C -0.02550 0.12349 0.47472
 C826 C -0.00672 0.13838 0.47756
 C827 C -0.01460 0.17900 0.42881
 C828 C -0.01143 0.19492 0.41608
 C829 C -0.00763 0.21374 0.40144
 C830 C -0.00432 0.23002 0.38919
 H831 H 0.01137 0.16782 0.46496
 H832 H -0.04878 0.14816 0.42718
 H833 H -0.05519 0.11633 0.45345
 H834 H 0.00529 0.13612 0.49142
 C835 C 0.49717 0.65674 0.96277
 C836 C 0.48224 0.66019 0.94441
 C837 C 0.46376 0.64533 0.94116
 C838 C 0.46020 0.62705 0.95618
 C839 C 0.47512 0.62336 0.97474
 C840 C 0.49367 0.63849 0.97783
 C841 C 0.48584 0.67907 0.92900
 C842 C 0.48891 0.69498 0.91625
 C843 C 0.49258 0.71379 0.90156
 C844 C 0.49581 0.73006 0.88929
 H845 H 0.51152 0.66819 0.96549
 H846 H 0.45205 0.64786 0.92701
 H847 H 0.44574 0.61591 0.95313
 H848 H 0.50554 0.63636 0.99184
 C849 C 0.53614 0.85511 0.94089
 C850 C 0.51795 0.83995 0.94443
 C851 C 0.50329 0.84316 0.96305
 C852 C 0.50674 0.86148 0.97803
 C853 C 0.52496 0.87693 0.97462
 C854 C 0.53964 0.87346 0.95584
 C855 C 0.51431 0.82106 0.92904
 C856 C 0.51115 0.80515 0.91630
 C857 C 0.50734 0.78636 0.90162
 C858 C 0.50399 0.77012 0.88932
 H859 H 0.54764 0.85276 0.92655
 H860 H 0.48917 0.83149 0.96600
 H861 H 0.49506 0.86342 0.99221
 H862 H 0.55386 0.88484 0.95257
 C863 C 0.03644 0.35467 0.44107
 C864 C 0.01774 0.34002 0.44415
 C865 C 0.00267 0.34366 0.46234
 C866 C 0.00626 0.36186 0.47743
 C867 C 0.02504 0.37673 0.47456
 C868 C 0.04008 0.37289 0.45613
 C869 C 0.01407 0.32114 0.42877
 C870 C 0.01091 0.30520 0.41608
 C871 C 0.00714 0.28636 0.40146
 C872 C 0.00385 0.27009 0.38921
 H873 H 0.04824 0.35199 0.42704
 H874 H -0.01185 0.33240 0.46490
 H875 H -0.00574 0.36413 0.49130
 H876 H 0.05470 0.38386 0.45325
 C877 C 0.34369 0.53612 0.49759
 C878 C 0.33981 0.55438 0.48263
 C879 C 0.35436 0.55769 0.46396
 C880 C 0.37277 0.54288 0.46027
 C881 C 0.37693 0.52445 0.47525
 C882 C 0.36210 0.52125 0.49395
 C883 C 0.32091 0.56971 0.48639
 C884 C 0.30504 0.58253 0.48947
 C885 C 0.28634 0.59739 0.49304
 C886 C 0.27016 0.60983 0.49610
 H887 H 0.33249 0.53336 0.51209
 H888 H 0.35148 0.57175 0.45223
 H889 H 0.38364 0.54599 0.44566
 H890 H 0.36460 0.50733 0.50586
 C891 C 0.84357 0.03631 -0.00267
 C892 C 0.84013 0.05504 -0.01714
 C893 C 0.85502 0.05878 -0.03546
 C894 C 0.87331 0.04387 -0.03931
 C895 C 0.87700 0.02494 -0.02486
 C896 C 0.86186 0.02136 -0.00647
 C897 C 0.82122 0.07033 -0.01333
 C898 C 0.80530 0.08306 -0.01024
 C899 C 0.78652 0.09779 -0.00669
 C900 C 0.77027 0.11013 -0.00364
 H901 H 0.83209 0.03322 0.01155
 H902 H 0.85247 0.07321 -0.04681
 H903 H 0.88445 0.04728 -0.05366
 H904 H 0.86399 0.00704 0.00503
 C905 C 0.65649 0.03642 0.00261
 C906 C 0.66042 0.05469 0.01756
 C907 C 0.64591 0.05803 0.03625
 C908 C 0.62747 0.04322 0.03997
 C909 C 0.62325 0.02480 0.02501
 C910 C 0.63806 0.02158 0.00628
 C911 C 0.67936 0.07000 0.01377
 C912 C 0.69526 0.08280 0.01067
 C913 C 0.71398 0.09763 0.00708
 C914 C 0.73019 0.11006 0.00399
 H915 H 0.66767 0.03365 -0.01190
 H916 H 0.64883 0.07209 0.04797
 H917 H 0.61662 0.04635 0.05459
 H918 H 0.63552 0.00766 -0.00562
 C919 C 0.15671 0.53601 0.50260
 C920 C 0.16012 0.55478 0.51703
 C921 C 0.14519 0.55855 0.53530
 C922 C 0.12688 0.54363 0.53915
 C923 C 0.12324 0.52465 0.52475
 C924 C 0.13841 0.52104 0.50640
 C925 C 0.17905 0.57008 0.51323
 C926 C 0.19498 0.58282 0.51016
 C927 C 0.21378 0.59756 0.50664
 C928 C 0.23005 0.60990 0.50363
 H929 H 0.16821 0.53291 0.48841
 H930 H 0.14770 0.57302 0.54662
 H931 H 0.11570 0.54708 0.55345
 H932 H 0.13629 0.50670 0.49492
 C933 C 0.15648 0.46358 -0.00272
 C934 C 0.16019 0.44516 -0.01751
 C935 C 0.14557 0.44175 -0.03612
 C936 C 0.12729 0.45669 -0.03995
 C937 C 0.12335 0.47533 -0.02519
 C938 C 0.13821 0.47857 -0.00650
 C939 C 0.17907 0.42983 -0.01370
 C940 C 0.19497 0.41707 -0.01058
 C941 C 0.21373 0.40232 -0.00699
 C942 C 0.22997 0.38996 -0.00393
 H943 H 0.16773 0.46640 0.01174
 H944 H 0.14831 0.42754 -0.04771
 H945 H 0.11635 0.45352 -0.05451
 H946 H 0.13586 0.49263 0.00526
 C947 C 0.65669 0.96408 0.49681
 C948 C 0.66023 0.94550 0.48217
 C949 C 0.64564 0.94212 0.46353
 C950 C 0.62755 0.95724 0.45953
 C951 C 0.62375 0.97601 0.47417
 C952 C 0.63861 0.97923 0.49286
 C953 C 0.67897 0.93005 0.48611
 C954 C 0.69479 0.91722 0.48930
 C955 C 0.71350 0.90243 0.49295
 C956 C 0.72973 0.89007 0.49604
 H957 H 0.66792 0.96687 0.51129
 H958 H 0.64826 0.92780 0.45207
 H959 H 0.61662 0.95409 0.44497
 H960 H 0.63635 0.99338 0.50455
 C961 C 0.84304 0.96416 0.50271
 C962 C 0.83965 0.94536 0.51711
 C963 C 0.85458 0.94158 0.53539
 C964 C 0.87286 0.95653 0.53928
 C965 C 0.87648 0.97554 0.52491
 C966 C 0.86131 0.97915 0.50655
 C967 C 0.82075 0.93005 0.51327
 C968 C 0.80483 0.91731 0.51016
 C969 C 0.78606 0.90255 0.50660
 C970 C 0.76982 0.89017 0.50357
 H971 H 0.83154 0.96726 0.48851
 H972 H 0.85209 0.92709 0.54668
 H973 H 0.88404 0.95307 0.55358
 H974 H 0.86341 0.99350 0.49509
 C975 C 0.34394 0.46339 0.00249
 C976 C 0.34009 0.44504 0.01736
 C977 C 0.35481 0.44150 0.03586
 C978 C 0.37337 0.45619 0.03948
 C979 C 0.37750 0.47470 0.02460
 C980 C 0.36249 0.47811 0.00606
 C981 C 0.32105 0.42985 0.01363
 C982 C 0.30508 0.41715 0.01052
 C983 C 0.28629 0.40240 0.00687
 C984 C 0.27006 0.39001 0.00374
 H985 H 0.33260 0.46633 -0.01186
 H986 H 0.35194 0.42738 0.04752
 H987 H 0.38438 0.45292 0.05396
 H988 H 0.36493 0.49212 -0.00575
 C989 C 0.53730 0.49687 0.34338
 C990 C 0.55586 0.48217 0.33984
 C991 C 0.55937 0.46369 0.35462
 C992 C 0.54440 0.45990 0.37287
 C993 C 0.52565 0.47457 0.37664
 C994 C 0.52230 0.49312 0.36162
 C995 C 0.57120 0.48595 0.32097
 C996 C 0.58396 0.48908 0.30508
 C997 C 0.59870 0.49273 0.28632
 C998 C 0.61103 0.49588 0.27009
 H999 H 0.53439 0.51122 0.33202
 H1000 H 0.57367 0.45218 0.35202
 H1001 H 0.54764 0.44544 0.38392
 H1002 H 0.50814 0.50481 0.36381
 C1003 C 0.03705 -0.00297 0.84300
 C1004 C 0.05565 -0.01764 0.83955
 C1005 C 0.05926 -0.03596 0.85448
 C1006 C 0.04439 -0.03961 0.87284
 C1007 C 0.02562 -0.02493 0.87657
 C1008 C 0.02214 -0.00657 0.86135
 C1009 C 0.07096 -0.01395 0.82063
 C1010 C 0.08373 -0.01089 0.80474
 C1011 C 0.09852 -0.00730 0.78601
 C1012 C 0.11091 -0.00421 0.76981
 H1013 H 0.03406 0.01126 0.83152
 H1014 H 0.07360 -0.04745 0.85195
 H1015 H 0.04772 -0.05395 0.88402
 H1016 H 0.00794 0.00509 0.86348
 C1017 C 0.03704 0.00277 0.65660
 C1018 C 0.05559 0.01747 0.66019
 C1019 C 0.05914 0.03597 0.64544
 C1020 C 0.04424 0.03973 0.62712
 C1021 C 0.02551 0.02501 0.62327
 C1022 C 0.02211 0.00648 0.63830
 C1023 C 0.07096 0.01361 0.67903
 C1024 C 0.08375 0.01037 0.69487
 C1025 C 0.09853 0.00660 0.71357
 C1026 C 0.11091 0.00341 0.72976
 H1027 H 0.03410 -0.01160 0.66794
 H1028 H 0.07343 0.04750 0.64808
 H1029 H 0.04751 0.05418 0.61606
 H1030 H 0.00796 -0.00525 0.63604
 C1031 C 0.53726 0.50260 0.15668
 C1032 C 0.55595 0.51718 0.16015
 C1033 C 0.55969 0.53548 0.14521
 C1034 C 0.54483 0.53920 0.12685
 C1035 C 0.52594 0.52464 0.12314
 C1036 C 0.52237 0.50628 0.13834
 C1037 C 0.57122 0.51343 0.17909
 C1038 C 0.58394 0.51032 0.19502
 C1039 C 0.59865 0.50669 0.21380
 C1040 C 0.61100 0.50357 0.23003
 H1041 H 0.53417 0.48840 0.16818
 H1042 H 0.57408 0.54691 0.14776
 H1043 H 0.54822 0.55355 0.11569
 H1044 H 0.50811 0.49468 0.13619
 C1045 C 0.44072 -0.03616 0.14566
 C1046 C 0.44422 -0.01768 0.16045
 C1047 C 0.46279 -0.00297 0.15694
 C1048 C 0.47781 -0.00670 0.13873
 C1049 C 0.47448 -0.02523 0.12368
 C1050 C 0.45571 -0.03993 0.12743
 C1051 C 0.42887 -0.01395 0.17932
 C1052 C 0.41612 -0.01087 0.19522
 C1053 C 0.40137 -0.00727 0.21397
 C1054 C 0.38901 -0.00417 0.23019
 H1055 H 0.42641 -0.04769 0.14824
 H1056 H 0.46569 0.01137 0.16832
 H1057 H 0.49200 0.00500 0.13657
 H1058 H 0.45249 -0.05440 0.11637
 C1059 C 0.96278 0.49724 0.65652
 C1060 C 0.94427 0.48248 0.66012
 C1061 C 0.94069 0.46404 0.64531
 C1062 C 0.95554 0.46036 0.62695
 C1063 C 0.97425 0.47511 0.62311
 C1064 C 0.97766 0.49361 0.63817
 C1065 C 0.92899 0.48623 0.67903
 C1066 C 0.91626 0.48936 0.69493
 C1067 C 0.90152 0.49304 0.71366
 C1068 C 0.88916 0.49619 0.72987
 H1069 H 0.96573 0.51157 0.66790
 H1070 H 0.92642 0.45249 0.64795
 H1071 H 0.95225 0.44594 0.61585
 H1072 H 0.99178 0.50536 0.63592
 C1073 C 0.96306 0.50303 0.84299
 C1074 C 0.94438 0.51761 0.83958
 C1075 C 0.94075 0.53594 0.85450
 C1076 C 0.95570 0.53969 0.87278
 C1077 C 0.97457 0.52513 0.87643
 C1078 C 0.97804 0.50673 0.86125
 C1079 C 0.92902 0.51382 0.82073
 C1080 C 0.91624 0.51066 0.80486
 C1081 C 0.90148 0.50697 0.78613
 C1082 C 0.88913 0.50382 0.76991
 H1083 H 0.96606 0.48879 0.83151
 H1084 H 0.92635 0.54736 0.85201
 H1085 H 0.95235 0.55403 0.88397
 H1086 H 0.99229 0.49512 0.86336
 C1087 C 0.44117 0.03630 0.35427
 C1088 C 0.44434 0.01748 0.33986
 C1089 C 0.46258 0.00247 0.34376
 C1090 C 0.47758 0.00624 0.36200
 C1091 C 0.47457 0.02513 0.37667
 C1092 C 0.45614 0.04012 0.37253
 C1093 C 0.42896 0.01362 0.32101
 C1094 C 0.41618 0.01042 0.30515
 C1095 C 0.40139 0.00669 0.28643
 C1096 C 0.38900 0.00352 0.27023
 H1097 H 0.42710 0.04804 0.35140
 H1098 H 0.46522 -0.01215 0.33268
 H1099 H 0.49150 -0.00569 0.36447
 H1100 H 0.45311 0.05480 0.38336
   
