data_POSCAR
  _audit_creation_date              2014-09-24
  _audit_creation_method            'ToBaCCo'
  _symmetry_space_group_name_H-M    'P1'
  _symmetry_Int_Tables_number       1
  _symmetry_cell_setting            triclinic
  loop_
  _symmetry_equiv_pos_as_xyz
 x,y,z
_cell_length_a 37.8638
_cell_length_b 41.7297
_cell_length_c 38.0484
_cell_angle_alpha 89.425100
_cell_angle_beta 91.587100
_cell_angle_gamma 88.086000
loop_
  _atom_site_label
  _atom_site_type_symbol
  _atom_site_fract_x
  _atom_site_fract_y
  _atom_site_fract_z
C1 C 0.23154 0.18429 0.21783
 C2 C 0.21904 0.16930 0.24807
 C3 C 0.18532 0.17766 0.26074
 C4 C 0.16484 0.20186 0.24312
 C5 C 0.17693 0.21681 0.21292
 C6 C 0.21047 0.20818 0.20022
 C7 C 0.26417 0.17468 0.20415
 C8 C 0.27590 0.18821 0.17250
 C9 C 0.25506 0.21287 0.15591
 C10 C 0.22243 0.22279 0.16935
 C11 C 0.20081 0.24606 0.15158
 C12 C 0.16707 0.25414 0.16394
 C13 C 0.15536 0.23948 0.19454
 H14 H 0.23563 0.15088 0.26089
 H15 H 0.13878 0.20855 0.25236
 H16 H 0.27927 0.15585 0.21791
 H17 H 0.26363 0.22364 0.13165
 H18 H 0.20957 0.25684 0.12743
 H19 H 0.12921 0.24564 0.20389
 C20 C -0.21993 0.82881 0.23494
 C21 C -0.19733 0.84284 0.25958
 C22 C -0.16120 0.83339 0.26243
 C23 C -0.14830 0.80919 0.24022
 C24 C -0.17090 0.79452 0.21582
 C25 C -0.20679 0.80465 0.21287
 C26 C -0.25524 0.83961 0.23126
 C27 C -0.27788 0.82708 0.20534
 C28 C -0.26470 0.80231 0.18371
 C29 C -0.22934 0.79121 0.18726
 C30 C -0.21589 0.76743 0.16500
 C31 C -0.18052 0.75657 0.16853
 C32 C -0.15808 0.77028 0.19386
 H33 H -0.20804 0.86231 0.27495
 H34 H -0.12058 0.80170 0.24194
 H35 H -0.26485 0.85868 0.24807
 H36 H -0.28105 0.79197 0.16339
 H37 H -0.23299 0.75710 0.14510
 H38 H -0.13047 0.76256 0.19593
 C39 C -0.16717 0.13572 -0.16771
 C40 C -0.14480 0.12255 -0.19286
 C41 C -0.12141 0.14189 -0.21068
 C42 C -0.11970 0.17459 -0.20261
 C43 C -0.14137 0.18797 -0.17690
 C44 C -0.16548 0.16852 -0.15967
 C45 C -0.19118 0.11658 -0.15048
 C46 C -0.21421 0.12984 -0.12569
 C47 C -0.21154 0.16249 -0.11708
 C48 C -0.18732 0.18171 -0.13379
 C49 C -0.18400 0.21378 -0.12429
 C50 C -0.15934 0.23299 -0.14042
 C51 C -0.13851 0.22016 -0.16727
 H52 H -0.14592 0.09727 -0.19903
 H53 H -0.10092 0.18939 -0.21562
 H54 H -0.19250 0.09140 -0.15707
 H55 H -0.22739 0.17320 -0.09685
 H56 H -0.19998 0.22365 -0.10351
 H57 H -0.11881 0.23450 -0.17943
 C58 C 0.20953 0.80669 -0.21235
 C59 C 0.19690 0.81724 -0.24550
 C60 C 0.17193 0.79962 -0.26478
 C61 C 0.16015 0.77087 -0.25014
 C62 C 0.17315 0.75971 -0.21711
 C63 C 0.19772 0.77787 -0.19802
 C64 C 0.23316 0.82513 -0.19293
 C65 C 0.24539 0.81510 -0.15926
 C66 C 0.23352 0.78640 -0.14499
 C67 C 0.20997 0.76759 -0.16428
 C68 C 0.19808 0.73892 -0.15016
 C69 C 0.17378 0.72044 -0.16896
 C70 C 0.16150 0.73098 -0.20260
 H71 H 0.20552 0.84010 -0.25501
 H72 H 0.14077 0.75713 -0.26447
 H73 H 0.24116 0.84779 -0.20375
 H74 H 0.24271 0.77874 -0.11889
 H75 H 0.20747 0.73112 -0.12417
 H76 H 0.14300 0.71717 -0.21777
 C77 C 0.15905 1.24502 0.77743
 C78 C 0.14330 1.22835 0.74959
 C79 C 0.15826 1.19919 0.73776
 C80 C 0.18952 1.18669 0.75471
 C81 C 0.20501 1.20267 0.78334
 C82 C 0.18974 1.23200 0.79463
 C83 C 0.14413 1.27429 0.78867
 C84 C 0.15907 1.29086 0.81724
 C85 C 0.18955 1.27725 0.83462
 C86 C 0.20472 1.24797 0.82362
 C87 C 0.23430 1.23411 0.84172
 C88 C 0.24950 1.20478 0.83105
 C89 C 0.23489 1.18929 0.80156
 H90 H 0.11928 1.23827 0.73692
 H91 H 0.20113 1.16386 0.74704
 H92 H 0.12051 1.28410 0.77516
 H93 H 0.20183 1.28885 0.85682
 H94 H 0.24542 1.24604 0.86447
 H95 H 0.24579 1.16627 0.79354
 C96 C 0.82634 0.78101 0.77471
 C97 C 0.84656 0.79556 0.74907
 C98 C 0.83309 0.82212 0.72924
 C99 C 0.79867 0.83427 0.73611
 C100 C 0.77829 0.82008 0.76202
 C101 C 0.79200 0.79310 0.78109
 C102 C 0.84034 0.75485 0.79450
 C103 C 0.82034 0.73987 0.82020
 C104 C 0.78564 0.75172 0.82596
 C105 C 0.77164 0.77858 0.80698
 C106 C 0.73802 0.79174 0.81429
 C107 C 0.72471 0.81958 0.79646
 C108 C 0.74474 0.83301 0.76981
 H109 H 0.87304 0.78603 0.74451
 H110 H 0.78756 0.85513 0.72226
 H111 H 0.86708 0.74609 0.78979
 H112 H 0.76994 0.74130 0.84618
 H113 H 0.72271 0.78028 0.83410
 H114 H 0.73455 0.85422 0.75571
 C115 C 0.16420 0.78176 1.20502
 C116 C 0.14467 0.79408 1.23296
 C117 C 0.15255 0.82375 1.24773
 C118 C 0.18018 0.84144 1.23413
 C119 C 0.19940 0.82982 1.20553
 C120 C 0.19148 0.79977 1.19106
 C121 C 0.15607 0.75213 1.19022
 C122 C 0.17452 0.74025 1.16104
 C123 C 0.20143 0.75870 1.14715
 C124 C 0.21013 0.78818 1.16196
 C125 C 0.23647 0.80668 1.14739
 C126 C 0.24421 0.83685 1.16131
 C127 C 0.22557 0.84819 1.19040
 H128 H 0.12314 0.78063 1.24324
 H129 H 0.18577 0.86475 1.24486
 H130 H 0.13443 0.73932 1.20096
 H131 H 0.21565 0.75015 1.12452
 H132 H 0.24987 0.79807 1.12437
 H133 H 0.23119 0.87157 1.20097
 C134 C 0.82167 1.21830 1.20502
 C135 C 0.83468 1.20333 1.23622
 C136 C 0.82219 1.17339 1.24710
 C137 C 0.79551 1.15928 1.22643
 C138 C 0.78250 1.17386 1.19499
 C139 C 0.79585 1.20339 1.18407
 C140 C 0.83433 1.24799 1.19442
 C141 C 0.82209 1.26303 1.16297
 C142 C 0.79664 1.24771 1.14181
 C143 C 0.78352 1.21796 1.15215
 C144 C 0.75835 1.20244 1.13107
 C145 C 0.74462 1.17315 1.14191
 C146 C 0.75673 1.15909 1.17400
 H147 H 0.85421 1.21559 1.25179
 H148 H 0.78528 1.13643 1.23444
 H149 H 0.85406 1.25945 1.21075
 H150 H 0.78660 1.25876 1.11757
 H151 H 0.74917 1.21324 1.10629
 H152 H 0.74693 1.13615 1.18215
 O153 O 0.53054 0.96787 0.92120
 O154 O 0.47302 0.95073 1.03539
 O155 O 0.53585 0.94839 1.03047
 O156 O 0.42154 0.98992 0.95163
 O157 O 0.51911 0.97243 1.07748
 O158 O 0.46405 0.97271 0.91665
 O159 O 0.42552 0.97651 1.01593
 O160 O 0.53564 0.94122 0.96936
 C161 C 0.53778 0.94198 0.93703
 C162 C 0.44024 0.95162 1.02983
 C163 C 0.53987 0.95120 1.06333
 C164 C 0.43220 0.97360 0.92561
 O165 O 0.46666 1.03360 0.91966
 O166 O 0.51572 1.02708 1.04611
 O167 O 0.56766 0.99789 0.96025
 O168 O 0.44864 1.03826 1.02674
 O169 O 0.45928 1.00325 1.06545
 O170 O 0.53129 1.03089 0.93293
 O171 O 0.44238 1.04959 0.96691
 O172 O 0.56262 1.00838 1.02258
 Co173 Co 0.49808 1.00073 0.92866
 Co174 Co 0.49573 0.98885 1.03868
 Co175 Co 0.54564 0.97605 0.99497
 Co176 Co 0.43931 1.01186 0.99029
 O177 O 0.49286 0.99607 0.98571
 C178 C 0.44771 1.05334 0.93526
 C179 C 0.54764 1.02957 1.04055
 C180 C 0.56137 1.02449 0.94537
 C181 C 0.44517 1.02950 1.05755
 O182 O 0.02545 0.47563 0.06680
 O183 O -0.00734 0.53769 -0.06824
 O184 O 0.03163 0.45803 -0.01366
 O185 O 0.03677 0.55675 0.03147
 O186 O 0.01357 0.48055 -0.06208
 O187 O 0.01687 0.53346 0.07724
 O188 O 0.03030 0.54897 -0.02947
 O189 O 0.00169 0.43772 0.03851
 C190 C 0.02508 0.44676 0.05946
 C191 C 0.02175 0.54859 -0.06074
 C192 C 0.03712 0.46477 -0.04478
 C193 C 0.03816 0.55169 0.06360
 O194 O -0.05049 0.53096 0.07222
 O195 O -0.05385 0.46629 -0.04774
 O196 O -0.05965 0.45862 0.01354
 O197 O -0.04116 0.56702 -0.02601
 O198 O -0.06860 0.52444 -0.04313
 O199 O -0.04599 0.47010 0.06703
 O200 O -0.03245 0.57055 0.03836
 O201 O -0.02263 0.42533 -0.02561
 Co202 Co -0.01365 0.50237 0.06485
 Co203 Co -0.02714 0.50249 -0.04909
 Co204 Co -0.01380 0.46043 -0.00040
 Co205 Co -0.00275 0.55645 0.00326
 O206 O -0.01314 0.50741 0.00758
 C207 C -0.05167 0.56005 0.06264
 C208 C -0.04486 0.43671 -0.04996
 C209 C -0.06648 0.45726 0.04519
 C210 C -0.06858 0.55415 -0.03842
 O211 O 1.10313 0.00663 0.47223
 O212 O 0.95770 0.05287 0.53199
 O213 O 1.00055 0.05751 0.44807
 O214 O 1.05037 0.02480 0.56529
 O215 O 0.94908 0.04677 0.46568
 O216 O 1.07106 0.04165 0.51568
 O217 O 0.98695 0.02459 0.57272
 O218 O 1.05971 0.03696 0.45148
 C219 C 1.09129 0.02659 0.44811
 C220 C 0.96945 0.04967 0.56296
 C221 C 0.96853 0.06412 0.44834
 C222 C 1.06680 0.04551 0.54798
 O223 O 1.09137 -0.01392 0.53554
 O224 O 0.94153 -0.01384 0.47444
 O225 O 1.03699 -0.02267 0.43491
 O226 O 0.98628 -0.03803 0.55196
 O227 O 0.94198 -0.00670 0.53967
 O228 O 1.06222 -0.03924 0.48284
 O229 O 1.04711 -0.03990 0.54663
 O230 O 0.97585 -0.00132 0.43087
 Co231 Co 1.06438 0.00174 0.49813
 Co232 Co 0.95374 0.01857 0.50286
 Co233 Co 1.01775 0.01651 0.44649
 Co234 Co 1.01747 -0.00604 0.55478
 O235 O 1.01098 0.00698 0.50186
 C236 C 1.07935 -0.03703 0.55113
 C237 C 0.95007 -0.01626 0.44298
 C238 C 1.05363 -0.04437 0.45182
 C239 C 0.95396 -0.03272 0.55174
 C240 C 1.17024 0.16213 0.28933
 C241 C 1.18516 0.13580 0.30815
 C242 C 1.16438 0.11867 0.33400
 N243 N 1.17855 0.09265 0.35164
 N244 N 1.15923 0.07639 0.37405
 C245 C 1.12505 0.08556 0.37942
 N246 N 1.11099 0.11155 0.36186
 N247 N 1.13027 0.12778 0.33958
 C248 C 1.10281 0.06806 0.40335
 C249 C 1.11512 0.04209 0.42397
 H250 H 1.21142 0.12635 0.30326
 H251 H 1.07552 0.07644 0.40510
 H252 H 1.14397 0.17042 0.29644
 H253 H 1.14242 0.03362 0.42306
 C254 C 0.86253 -0.15149 0.28549
 C255 C 0.85171 -0.13147 0.31263
 C256 C 0.87581 -0.11132 0.33263
 N257 N 0.86336 -0.09514 0.36060
 N258 N 0.88387 -0.07541 0.37837
 C259 C 0.91760 -0.07086 0.36874
 N260 N 0.93014 -0.08697 0.34061
 N261 N 0.90957 -0.10687 0.32281
 C262 C 0.94004 -0.04899 0.38870
 C263 C 0.92871 -0.03663 0.42045
 H264 H 0.82447 -0.13035 0.32038
 H265 H 0.96587 -0.04352 0.37916
 H266 H 0.89067 -0.15574 0.28233
 H267 H 0.90367 -0.04377 0.43063
 C268 C 0.90145 0.12702 0.76296
 C269 C 0.90998 0.14272 0.73200
 C270 C 0.92839 0.12540 0.70418
 N271 N 0.92513 0.13582 0.67031
 N272 N 0.93940 0.11873 0.64458
 C273 C 0.95768 0.09080 0.65194
 N274 N 0.96165 0.08084 0.68587
 N275 N 0.94717 0.09776 0.71151
 C276 C 0.97123 0.07021 0.62407
 C277 C 0.96065 0.07425 0.58891
 H278 H 0.89983 0.16689 0.72659
 H279 H 0.98751 0.04941 0.63206
 H280 H 0.90856 0.10177 0.76625
 H281 H 0.94393 0.09469 0.58071
 C282 C 1.15685 -0.18903 0.70302
 C283 C 1.17022 -0.16370 0.68365
 C284 C 1.14948 -0.14615 0.65608
 N285 N 1.16422 -0.12147 0.63902
 N286 N 1.14506 -0.10312 0.61637
 C287 C 1.11037 -0.10870 0.61002
 N288 N 1.09568 -0.13364 0.62676
 N289 N 1.11487 -0.15202 0.64945
 C290 C 1.08841 -0.08722 0.58695
 C291 C 1.10201 -0.06016 0.57120
 H292 H 1.19634 -0.15513 0.68946
 H293 H 1.06059 -0.09203 0.58352
 H294 H 1.13326 -0.20016 0.69285
 H295 H 1.12984 -0.05530 0.57429
 C296 C 0.30618 1.17660 1.15537
 C297 C 0.32827 1.15098 1.16734
 C298 C 0.35283 1.13424 1.14395
 N299 N 0.37000 1.10683 1.15522
 N300 N 0.38988 1.08973 1.13344
 C301 C 0.39328 1.09942 1.09957
 N302 N 0.37654 1.12707 1.08843
 N303 N 0.35659 1.14414 1.11018
 C304 C 0.41330 1.07989 1.07464
 C305 C 0.42774 1.04968 1.08363
 H306 H 0.32610 1.14074 1.19329
 H307 H 0.41542 1.08896 1.04802
 H308 H 0.31147 1.18684 1.12982
 H309 H 0.42565 1.04031 1.11011
 C310 C 0.26934 0.83506 0.86181
 C311 C 0.29356 0.85471 0.84609
 C312 C 0.31511 0.87720 0.86596
 N313 N 0.34082 0.89278 0.84940
 N314 N 0.36026 0.91385 0.86656
 C315 C 0.35454 0.92032 0.90087
 N316 N 0.32862 0.90491 0.91743
 N317 N 0.30923 0.88369 0.90027
 C318 C 0.37650 0.94309 0.92003
 C319 C 0.40756 0.95380 0.90588
 H320 H 0.29721 0.85354 0.81800
 H321 H 0.36936 0.94996 0.94636
 H322 H 0.26833 0.83381 0.89022
 H323 H 0.41576 0.94511 0.88054
 C324 C 0.68822 0.84165 1.20070
 C325 C 0.66329 0.83353 1.17487
 C326 C 0.63444 0.85610 1.16369
 N327 N 0.61600 0.85054 1.13350
 N328 N 0.59309 0.87259 1.12020
 C329 C 0.58768 0.90103 1.13658
 N330 N 0.60527 0.90625 1.16742
 N331 N 0.62837 0.88421 1.18066
 C332 C 0.56560 0.92671 1.11958
 C333 C 0.55963 0.92619 1.08340
 H334 H 0.66664 0.81218 1.15938
 H335 H 0.55655 0.94706 1.13474
 H336 H 0.68188 0.86232 1.21668
 H337 H 0.57093 0.90667 1.06835
 C338 C 0.76090 1.10998 0.88934
 C339 C 0.73211 1.12111 0.90852
 C340 C 0.70506 1.09940 0.92019
 N341 N 0.67215 1.11127 0.92666
 N342 N 0.64668 1.09170 0.93532
 C343 C 0.65333 1.05960 0.93812
 N344 N 0.68646 1.04779 0.93246
 N345 N 0.71187 1.06733 0.92346
 C346 C 0.62507 1.03773 0.94589
 C347 C 0.58974 1.04670 0.93952
 H348 H 0.72656 1.14642 0.91190
 H349 H 0.63227 1.01349 0.95446
 H350 H 0.76265 1.08457 0.88365
 H351 H 0.58272 1.07028 0.92879
 C352 C 0.14244 0.27624 0.14441
 C353 C 0.15317 0.30387 0.12760
 C354 C 0.12692 0.32642 0.11122
 N355 N 0.13436 0.35779 0.10719
 N356 N 0.10995 0.37862 0.09395
 C357 C 0.07736 0.36873 0.08405
 N358 N 0.07018 0.33727 0.08745
 N359 N 0.09445 0.31653 0.10098
 C360 C 0.05001 0.39134 0.06985
 C361 C 0.05197 0.42424 0.07464
 H362 H 0.18063 0.31034 0.12910
 H363 H 0.02717 0.38175 0.05637
 H364 H 0.11442 0.27208 0.14603
 H365 H 0.07374 0.43377 0.08987
 C366 C -0.15295 0.26470 -0.12525
 C367 C -0.13507 0.28884 -0.14207
 C368 C -0.11984 0.31473 -0.12142
 N369 N -0.10873 0.34170 -0.13734
 N370 N -0.09288 0.36417 -0.11855
 C371 C -0.08723 0.36015 -0.08332
 N372 N -0.09818 0.33316 -0.06755
 N373 N -0.11431 0.31094 -0.08621
 C374 C -0.06795 0.38327 -0.06231
 C375 C -0.06469 0.41505 -0.07252
 H376 H -0.13044 0.28788 -0.16998
 H377 H -0.05711 0.37510 -0.03700
 H378 H -0.16065 0.26840 -0.09832
 H379 H -0.07826 0.42443 -0.09605
 C380 C 0.16167 0.69082 -0.15182
 C381 C 0.13361 0.67273 -0.16412
 C382 C 0.11993 0.64642 -0.14297
 N383 N 0.09095 0.63090 -0.15444
 N384 N 0.07688 0.60853 -0.13444
 C385 C 0.09134 0.60085 -0.10225
 N386 N 0.12057 0.61607 -0.09099
 N387 N 0.13462 0.63841 -0.11097
 C388 C 0.07437 0.57853 -0.07844
 C389 C 0.04284 0.56403 -0.08746
 H390 H 0.11968 0.67881 -0.18854
 H391 H 0.08546 0.57560 -0.05200
 H392 H 0.17442 0.68388 -0.12693
 H393 H 0.03189 0.56629 -0.11400
 C394 C -0.16710 0.73149 0.14489
 C395 C -0.14381 0.70709 0.15706
 C396 C -0.12944 0.68240 0.13376
 N397 N -0.11527 0.65470 0.14774
 N398 N -0.10105 0.63246 0.12713
 C399 C -0.10018 0.63722 0.09181
 N400 N -0.11415 0.66503 0.07782
 N401 N -0.12873 0.68717 0.09841
 C402 C -0.08254 0.61358 0.06933
 C403 C -0.07536 0.58227 0.08106
 H404 H -0.13675 0.70540 0.18482
 H405 H -0.07412 0.62116 0.04365
 H406 H -0.17741 0.73107 0.11806
 H407 H -0.08622 0.57415 0.10552
 C408 C 1.14043 0.18302 0.71054
 C409 C 1.15480 0.15746 0.69148
 C410 C 1.13313 0.13949 0.66616
 N411 N 1.14865 0.12347 0.63948
 N412 N 1.12952 0.10588 0.61748
 C413 C 1.09419 0.10335 0.62162
 N414 N 1.07871 0.11922 0.64842
 N415 N 1.09776 0.13714 0.67013
 C416 C 1.07335 0.08167 0.59961
 C417 C 1.08373 0.07210 0.56633
 H418 H 1.18268 0.15105 0.69377
 H419 H 1.04952 0.07233 0.61033
 H420 H 1.11385 0.19146 0.70302
 H421 H 1.10557 0.08353 0.55403
 C422 C 0.85507 -0.16431 0.70407
 C423 C 0.84506 -0.13937 0.68060
 C424 C 0.87013 -0.12511 0.65641
 N425 N 0.85844 -0.10203 0.63316
 N426 N 0.88078 -0.08801 0.61190
 C427 C 0.91576 -0.09650 0.61303
 N428 N 0.92748 -0.11971 0.63617
 N429 N 0.90509 -0.13379 0.65743
 C430 C 0.94096 -0.07967 0.59104
 C431 C 0.92969 -0.05461 0.56848
 H432 H 0.81826 -0.12969 0.67920
 H433 H 0.96894 -0.08556 0.59445
 H434 H 0.88187 -0.17410 0.70251
 H435 H 0.90169 -0.04866 0.56554
 C436 C 1.12980 -0.16320 0.27554
 C437 C 1.14294 -0.14600 0.30399
 C438 C 1.11945 -0.13129 0.33004
 N439 N 1.13285 -0.12198 0.36164
 N440 N 1.11226 -0.10695 0.38457
 C441 C 1.07752 -0.10047 0.37666
 N442 N 1.06413 -0.10980 0.34507
 N443 N 1.08463 -0.12512 0.32229
 C444 C 1.05571 -0.08020 0.39966
 C445 C 1.06572 -0.07395 0.43441
 H446 H 1.17121 -0.14357 0.30751
 H447 H 1.03308 -0.06725 0.38775
 H448 H 1.10199 -0.16855 0.27434
 H449 H 1.08659 -0.08850 0.44729
 C450 C 0.83528 0.15691 0.27768
 C451 C 0.86478 0.16556 0.29821
 C452 C 0.87797 0.14650 0.32908
 N453 N 0.91018 0.15230 0.34383
 N454 N 0.92291 0.13489 0.37121
 C455 C 0.90375 0.11115 0.38508
 N456 N 0.87138 0.10559 0.37058
 N457 N 0.85873 0.12289 0.34309
 C458 C 0.91792 0.09056 0.41428
 C459 C 0.95341 0.09011 0.42545
 H460 H 0.88036 0.18563 0.29088
 H461 H 0.90059 0.07302 0.42502
 H462 H 0.82247 0.13510 0.28514
 H463 H 0.97134 0.10647 0.41354
 C464 C 0.14241 0.31997 -0.17255
 C465 C 0.15297 0.33876 -0.14402
 C466 C 0.13227 0.36740 -0.13319
 N467 N 0.14021 0.38155 -0.10212
 N468 N 0.12055 0.40626 -0.09086
 C469 C 0.09234 0.41796 -0.11041
 N470 N 0.08480 0.40419 -0.14178
 N471 N 0.10437 0.37938 -0.15297
 C472 C 0.06809 0.44293 -0.09671
 C473 C 0.06883 0.45129 -0.06131
 H474 H 0.17578 0.33203 -0.12765
 H475 H 0.04591 0.45108 -0.11346
 H476 H 0.11897 0.32818 -0.18749
 H477 H 0.09003 0.44183 -0.04411
 C478 C -0.16325 0.29467 0.15388
 C479 C -0.16872 0.31108 0.12183
 C480 C -0.15129 0.34152 0.11432
 N481 N -0.15512 0.35551 0.08199
 N482 N -0.13838 0.38225 0.07444
 C483 C -0.11725 0.39613 0.09899
 N484 N -0.11373 0.38232 0.13140
 N485 N -0.13043 0.35559 0.13894
 C486 C -0.09620 0.42420 0.09036
 C487 C -0.09536 0.43701 0.05638
 H488 H -0.18490 0.30118 0.10107
 H489 H -0.07807 0.43273 0.11042
 H490 H -0.14609 0.30530 0.17348
 H491 H -0.11294 0.42799 0.03611
 C492 C -0.16323 0.71478 -0.15973
 C493 C -0.18006 0.69429 -0.13666
 C494 C -0.15883 0.67172 -0.11402
 N495 N -0.17169 0.64316 -0.10383
 N496 N -0.15181 0.62260 -0.08398
 C497 C -0.11863 0.63022 -0.07322
 N498 N -0.10617 0.65897 -0.08290
 N499 N -0.12578 0.67926 -0.10302
 C500 C -0.09529 0.60811 -0.05230
 C501 C -0.09863 0.57489 -0.05129
 H502 H -0.20855 0.69359 -0.13604
 H503 H -0.07175 0.61830 -0.04078
 H504 H -0.13502 0.71058 -0.16263
 H505 H -0.12138 0.56410 -0.06365
 C506 C 0.16602 0.71147 0.14412
 C507 C 0.14269 0.68903 0.15684
 C508 C 0.13048 0.66213 0.13543
 N509 N 0.10977 0.63989 0.14989
 N510 N 0.09635 0.61670 0.13033
 C511 C 0.10308 0.61491 0.09550
 N512 N 0.12401 0.63701 0.08109
 N513 N 0.13753 0.66015 0.10068
 C514 C 0.08560 0.59145 0.07285
 C515 C 0.06338 0.56859 0.08627
 H516 H 0.13248 0.69087 0.18299
 H517 H 0.08790 0.59407 0.04466
 H518 H 0.17838 0.70625 0.11936
 H519 H 0.06174 0.56536 0.11446
 C520 C 0.27895 1.19004 0.85283
 C521 C 0.30401 1.16815 0.84004
 C522 C 0.33108 1.15192 0.86320
 N523 N 0.35696 1.13327 0.84908
 N524 N 0.38060 1.11721 0.86971
 C525 C 0.37925 1.11913 0.90529
 N526 N 0.35345 1.13788 0.91941
 N527 N 0.32988 1.15405 0.89878
 C528 C 0.40336 1.09934 0.92839
 C529 C 0.43046 1.08002 0.91496
 H530 H 0.30399 1.16266 0.81230
 H531 H 0.39778 1.09794 0.95613
 H532 H 0.28131 1.19724 0.88005
 H533 H 0.43626 1.08185 0.88731
 C534 C 0.26952 0.85806 1.14431
 C535 C 0.29796 0.84675 1.12471
 C536 C 0.32031 0.86865 1.10520
 N537 N 0.35181 0.85799 1.09269
 N538 N 0.37192 0.87757 1.07457
 C539 C 0.36101 0.90844 1.06795
 N540 N 0.32940 0.91896 1.08017
 N541 N 0.30947 0.89950 1.09850
 C542 C 0.38269 0.93087 1.04848
 C543 C 0.41864 0.92542 1.04265
 H544 H 0.30439 0.82130 1.12396
 H545 H 0.37047 0.95394 1.04128
 H546 H 0.26577 0.88369 1.14771
 H547 H 0.43174 0.90321 1.05155
 C548 C 0.71901 1.15678 1.11856
 C549 C 0.69150 1.13899 1.13155
 C550 C 0.66747 1.12068 1.10872
 N551 N 0.63663 1.11041 1.12148
 N552 N 0.61540 1.09245 1.10196
 C553 C 0.62434 1.08377 1.06896
 N554 N 0.65524 1.09397 1.05620
 N555 N 0.67632 1.11221 1.07562
 C556 C 0.60235 1.06185 1.04817
 C557 C 0.56751 1.05576 1.05662
 H558 H 0.68696 1.13885 1.15953
 H559 H 0.61423 1.04949 1.02632
 H560 H 0.72109 1.15982 1.09039
 H561 H 0.55484 1.06970 1.07687
 C562 C 0.69077 0.83614 0.80546
 C563 C 0.67303 0.83096 0.83667
 C564 C 0.64323 0.85188 0.84761
 N565 N 0.62845 0.84674 0.87918
 N566 N 0.60324 0.86670 0.89074
 C567 C 0.59178 0.89259 0.87115
 N568 N 0.60624 0.89752 0.83937
 N569 N 0.63146 0.87754 0.82779
 C570 C 0.56645 0.91656 0.88508
 C571 C 0.55389 0.91427 0.91912
 H572 H 0.68245 0.81263 0.85519
 H573 H 0.56047 0.93806 0.86955
 H574 H 0.68088 0.85527 0.78802
 H575 H 0.56004 0.89285 0.93472
   
