data_POSCAR
  _audit_creation_date              2014-09-24
  _audit_creation_method            'ToBaCCo'
  _symmetry_space_group_name_H-M    'P1'
  _symmetry_Int_Tables_number       1
  _symmetry_cell_setting            triclinic
  loop_
  _symmetry_equiv_pos_as_xyz
 x,y,z
_cell_length_a 10.6170
_cell_length_b 10.6324
_cell_length_c 10.6507
_cell_angle_alpha 106.827100
_cell_angle_beta 72.939000
_cell_angle_gamma 72.736200
loop_
  _atom_site_label
  _atom_site_type_symbol
  _atom_site_fract_x
  _atom_site_fract_y
  _atom_site_fract_z
C1 C 0.62261 0.52363 0.01360
 C2 C 0.52218 0.62402 -0.01460
 C3 C 0.40336 0.59756 -0.02799
 C4 C 0.37673 0.47892 -0.01612
 C5 C 0.47618 0.38005 0.01333
 C6 C 0.59403 0.40651 0.02824
 H7 H 0.66429 0.33457 0.05765
 H8 H 0.33218 0.66867 -0.05740
 C9 C -0.02509 0.38669 0.52984
 C10 C 0.02330 0.47330 0.61659
 C11 C 0.04632 0.58612 0.58546
 C12 C 0.02235 0.62050 0.47424
 C13 C -0.02331 0.53112 0.38526
 C14 C -0.04940 0.42027 0.41884
 H15 H -0.08717 0.35480 0.35347
 H16 H 0.08545 0.64963 0.65097
 C17 C 0.47693 0.01777 0.38152
 C18 C 0.38441 -0.02195 0.47369
 C19 C 0.41228 -0.03962 0.58967
 C20 C 0.52653 -0.01999 0.62115
 C21 C 0.62299 0.01553 0.52534
 C22 C 0.59209 0.03581 0.41081
 H23 H 0.65897 0.07030 0.34223
 H24 H 0.34264 -0.07284 0.65724
 O25 O 0.40579 0.00900 -0.14628
 O26 O 0.35952 0.06822 0.22709
 O27 O 0.35869 0.22746 0.06817
 O28 O 0.40449 -0.14426 0.01036
 O29 O 0.64140 -0.23063 -0.06742
 O30 O 0.59645 0.14020 -0.01699
 O31 O 0.59714 -0.01345 0.14179
 O32 O 0.64297 -0.07168 -0.23085
 Cu33 Cu 0.35931 0.04741 0.04697
 Cu34 Cu 0.64262 -0.05150 -0.05079
 C35 C 0.52746 -0.02941 -0.24899
 C36 C 0.47541 0.02635 0.24463
 C37 C 0.47465 0.24364 0.02334
 C38 C 0.52521 -0.24735 -0.02571
 O39 O -0.23014 0.64172 1.06329
 O40 O 0.14327 0.59603 1.00975
 O41 O -0.01138 0.59489 0.85526
 O42 O -0.07482 0.64456 1.22840
 O43 O 0.01143 0.40743 1.14632
 O44 O 0.07221 0.35779 0.77274
 O45 O 0.22934 0.36012 0.93634
 O46 O -0.14501 0.40603 0.99113
 Cu47 Cu -0.05038 0.64217 1.04699
 Cu48 Cu 0.04888 0.35992 0.95424
 C49 C -0.24786 0.52613 1.02445
 C50 C 0.24688 0.47591 0.97472
 C51 C 0.03024 0.47265 0.75364
 C52 C -0.03077 0.53015 1.24769
 O53 O 0.05868 -0.22628 0.35917
 O54 O 0.01582 0.14476 0.40629
 O55 O 0.22959 -0.07575 0.35826
 O56 O -0.14873 0.00042 0.40946
 O57 O -0.22618 0.05629 0.64172
 O58 O 0.14257 0.01798 0.59521
 O59 O -0.07724 0.22935 0.64319
 O60 O 0.00454 -0.15065 0.59113
 Cu61 Cu 0.04617 -0.04667 0.36037
 Cu62 Cu -0.04737 0.04563 0.64083
 C63 C 0.03092 -0.24942 0.47227
 C64 C -0.03065 0.24797 0.52885
 C65 C 0.24663 -0.02828 0.47307
 C66 C -0.24785 0.02617 0.52812
   
