data_POSCAR
  _audit_creation_date              2014-09-24
  _audit_creation_method            'ToBaCCo'
  _symmetry_space_group_name_H-M    'P1'
  _symmetry_Int_Tables_number       1
  _symmetry_cell_setting            triclinic
  loop_
  _symmetry_equiv_pos_as_xyz
 x,y,z
_cell_length_a 25.9748
_cell_length_b 39.7761
_cell_length_c 25.9912
_cell_angle_alpha 89.949700
_cell_angle_beta 90.038300
_cell_angle_gamma 90.188200
loop_
  _atom_site_label
  _atom_site_type_symbol
  _atom_site_fract_x
  _atom_site_fract_y
  _atom_site_fract_z
C1 C 1.15134 0.27429 0.24382
 H2 H 1.14581 0.25496 0.21518
 C3 C 1.11101 0.29625 0.25505
 H4 H 1.07492 0.29332 0.23479
 C5 C 1.20575 0.30228 0.30324
 H6 H 1.24308 0.30464 0.32140
 C7 C 1.16662 0.32487 0.31544
 H8 H 1.17408 0.34446 0.34342
 N9 N 1.19748 0.27752 0.26813
 C10 C 1.26133 0.22482 0.14877
 H11 H 1.29019 0.24412 0.14358
 C12 C 1.24995 0.20301 0.10818
 H13 H 1.27034 0.20601 0.07221
 C14 C 1.20141 0.19677 0.20261
 H15 H 1.18307 0.19436 0.23981
 C16 C 1.18906 0.17434 0.16322
 H17 H 1.16081 0.15479 0.17034
 Zn18 Zn 1.25370 0.24940 0.25127
 N19 N 1.23685 0.22146 0.19476
 C20 C 1.30363 0.19529 0.29813
 N21 N 1.27048 0.22095 0.30726
 C22 C 1.24801 0.22486 0.35407
 C23 C 1.25891 0.20257 0.39417
 C24 C 1.31512 0.17212 0.33680
 C25 C 1.30141 0.30255 0.19976
 C26 C 1.34053 0.32524 0.18726
 C27 C 1.39673 0.29635 0.24664
 C28 C 1.35639 0.27427 0.25819
 N29 N 1.30995 0.27766 0.23456
 H30 H 1.32057 0.19256 0.26036
 H31 H 1.22111 0.24508 0.36038
 H32 H 1.23993 0.20665 0.43060
 H33 H 1.34139 0.15182 0.32795
 H34 H 1.26390 0.30491 0.18203
 H35 H 1.33284 0.34494 0.15953
 H36 H 1.43312 0.29332 0.26630
 H37 H 1.36210 0.25466 0.28638
 C38 C 1.21344 0.17727 0.11524
 C39 C 1.11848 0.32205 0.29124
 C40 C 1.38896 0.32235 0.21080
 C41 C 1.29263 0.17532 0.38591
 C42 C 0.65078 -0.22511 0.24197
 H43 H 0.64567 -0.24414 0.21281
 C44 C 0.61042 -0.20314 0.25298
 H45 H 0.57466 -0.20575 0.23202
 C46 C 0.70434 -0.19781 0.30295
 H47 H 0.74136 -0.19576 0.32182
 C48 C 0.66518 -0.17522 0.31493
 H49 H 0.67228 -0.15591 0.34344
 N50 N 0.69651 -0.22218 0.26714
 C51 C 0.76167 -0.27499 0.14857
 H52 H 0.79077 -0.25582 0.14352
 C53 C 0.75045 -0.29687 0.10805
 H54 H 0.77117 -0.29408 0.07223
 C55 C 0.70101 -0.30264 0.20209
 H56 H 0.68230 -0.30484 0.23913
 C57 C 0.68880 -0.32513 0.16277
 H58 H 0.66030 -0.34454 0.16978
 Zn59 Zn 0.75291 -0.25010 0.25078
 N60 N 0.73672 -0.27811 0.19434
 C61 C 0.80514 -0.30265 0.29871
 N62 N 0.76935 -0.27838 0.30685
 C63 C 0.74441 -0.27576 0.35267
 C64 C 0.75569 -0.29792 0.39282
 C65 C 0.81739 -0.32541 0.33766
 C66 C 0.80090 -0.19727 0.19896
 C67 C 0.84001 -0.17458 0.18656
 C68 C 0.89532 -0.20241 0.24794
 C69 C 0.85500 -0.22451 0.25935
 N70 N 0.80906 -0.22171 0.23460
 H71 H 0.82383 -0.30446 0.26163
 H72 H 0.71528 -0.25678 0.35803
 H73 H 0.73494 -0.29552 0.42868
 H74 H 0.84592 -0.34462 0.33033
 H75 H 0.76373 -0.19534 0.18042
 H76 H 0.83269 -0.15528 0.15809
 H77 H 0.93132 -0.20498 0.26846
 H78 H 0.86037 -0.24363 0.28837
 C79 C 0.71362 -0.32242 0.11499
 C80 C 0.61748 -0.17770 0.28980
 C81 C 0.88799 -0.17698 0.21112
 C82 C 0.79256 -0.32324 0.38547
 C83 C 0.65103 0.27558 -0.25861
 H84 H 0.64549 0.25642 -0.28750
 C85 C 0.61075 0.29752 -0.24711
 H86 H 0.57467 0.29476 -0.26746
 C87 C 0.70543 0.30314 -0.19869
 H88 H 0.74272 0.30531 -0.18040
 C89 C 0.66635 0.32571 -0.18623
 H90 H 0.67380 0.34511 -0.15794
 N91 N 0.69714 0.27863 -0.23420
 C92 C 0.70100 0.19774 -0.29943
 H93 H 0.68309 0.19529 -0.26204
 C94 C 0.68850 0.17520 -0.33864
 H95 H 0.66057 0.15552 -0.33116
 C96 C 0.76000 0.22607 -0.35396
 H97 H 0.78847 0.24560 -0.35946
 C98 C 0.74845 0.20414 -0.39438
 H99 H 0.76838 0.20724 -0.43059
 Zn100 Zn 0.75324 0.25049 -0.25127
 N101 N 0.73612 0.22258 -0.30769
 C102 C 0.74592 0.22513 -0.14905
 N103 N 0.76990 0.22200 -0.19530
 C104 C 0.80469 0.19717 -0.20384
 C105 C 0.81698 0.17441 -0.16485
 C106 C 0.75724 0.20300 -0.10886
 C107 C 0.85648 0.27451 -0.24538
 C108 C 0.89698 0.29660 -0.25628
 C109 C 0.84005 0.32748 -0.31254
 C110 C 0.80097 0.30452 -0.30101
 N111 N 0.80970 0.27874 -0.26787
 H112 H 0.71754 0.24454 -0.14331
 H113 H 0.82260 0.19491 -0.24125
 H114 H 0.84475 0.15479 -0.17250
 H115 H 0.73729 0.20587 -0.07265
 H116 H 0.86249 0.25421 -0.21847
 H117 H 0.93339 0.29228 -0.23731
 H118 H 0.83151 0.34788 -0.33884
 H119 H 0.76320 0.30750 -0.31797
 C120 C 0.71236 0.17818 -0.38687
 C121 C 0.61824 0.32308 -0.21054
 C122 C 0.88916 0.32395 -0.29005
 C123 C 0.79319 0.17715 -0.11657
 C124 C 1.15078 -0.22513 -0.25781
 H125 H 1.14550 -0.24425 -0.28682
 C126 C 1.11047 -0.20315 -0.24669
 H127 H 1.07457 -0.20582 -0.26740
 C128 C 1.20469 -0.19767 -0.19732
 H129 H 1.24182 -0.19556 -0.17869
 C130 C 1.16559 -0.17507 -0.18523
 H131 H 1.17285 -0.15569 -0.15686
 N132 N 1.19665 -0.22213 -0.23293
 C133 C 1.26133 -0.27550 -0.35123
 H134 H 1.29042 -0.25637 -0.35656
 C135 C 1.24999 -0.29757 -0.39147
 H136 H 1.27064 -0.29495 -0.42736
 C137 C 1.20078 -0.30288 -0.29726
 H138 H 1.18217 -0.30490 -0.26015
 C139 C 1.18846 -0.32556 -0.33630
 H140 H 1.15996 -0.34493 -0.32901
 Zn141 Zn 1.25296 -0.25011 -0.24930
 N142 N 1.23649 -0.27839 -0.30537
 C143 C 1.30540 -0.30244 -0.20107
 N144 N 1.26964 -0.27815 -0.19300
 C145 C 1.24486 -0.27536 -0.14712
 C146 C 1.25624 -0.29739 -0.10683
 C147 C 1.31774 -0.32509 -0.16199
 C148 C 1.30070 -0.19744 -0.30183
 C149 C 1.33969 -0.17471 -0.31448
 C150 C 1.39527 -0.20229 -0.25308
 C151 C 1.35506 -0.22442 -0.24141
 N152 N 1.30903 -0.22175 -0.26603
 H153 H 1.32396 -0.30439 -0.23819
 H154 H 1.21574 -0.25637 -0.14182
 H155 H 1.23561 -0.29488 -0.07093
 H156 H 1.34622 -0.34433 -0.16927
 H157 H 1.26345 -0.19560 -0.32026
 H158 H 1.33222 -0.15549 -0.34305
 H159 H 1.43133 -0.20474 -0.23263
 H160 H 1.36058 -0.24343 -0.21226
 C161 C 1.21316 -0.32309 -0.38417
 C162 C 1.11773 -0.17762 -0.21003
 C163 C 1.38775 -0.17696 -0.29004
 C164 C 1.29305 -0.32275 -0.11412
 C165 C 0.30011 0.19672 0.69779
 H166 H 0.26278 0.19466 0.67956
 C167 C 0.33908 0.17414 0.68512
 H168 H 0.33150 0.15483 0.65674
 C169 C 0.35475 0.22409 0.75772
 H170 H 0.36040 0.24320 0.78668
 C171 C 0.39492 0.20213 0.74603
 H172 H 0.43107 0.20481 0.76629
 N173 N 0.30859 0.22115 0.73337
 C174 C 0.14957 0.22529 0.74393
 H175 H 0.14372 0.24539 0.71662
 C176 C 0.10909 0.20322 0.75487
 H177 H 0.07269 0.20714 0.73564
 C178 C 0.20479 0.19570 0.80047
 H179 H 0.24244 0.19287 0.81774
 C180 C 0.16568 0.17280 0.81206
 H181 H 0.17382 0.15253 0.83869
 Zn182 Zn 0.25270 0.24935 0.75035
 N183 N 0.19619 0.22126 0.76688
 C184 C 0.20133 0.30252 0.70282
 N185 N 0.23625 0.27776 0.69438
 C186 C 0.26042 0.27465 0.64823
 C187 C 0.24913 0.29674 0.60800
 C188 C 0.18907 0.32522 0.66379
 C189 C 0.24578 0.27394 0.85287
 C190 C 0.25734 0.29592 0.89319
 C191 C 0.31764 0.32457 0.83745
 C192 C 0.30513 0.30197 0.79836
 N193 N 0.26984 0.27726 0.80667
 H194 H 0.18330 0.30474 0.74017
 H195 H 0.28892 0.25530 0.64260
 H196 H 0.26921 0.29390 0.57184
 H197 H 0.16118 0.34479 0.67134
 H198 H 0.21714 0.25452 0.85839
 H199 H 0.23728 0.29299 0.92936
 H200 H 0.34571 0.34416 0.82995
 H201 H 0.32316 0.30429 0.76100
 C202 C 0.11689 0.17623 0.78911
 C203 C 0.38725 0.17668 0.70931
 C204 C 0.29361 0.32176 0.88562
 C205 C 0.21304 0.32250 0.61560
 C206 C 0.79937 0.69690 0.69600
 H207 H 0.76217 0.69470 0.67754
 C208 C 0.83848 0.67427 0.68389
 H209 H 0.83115 0.65480 0.65568
 C210 C 0.85350 0.72456 0.75606
 H211 H 0.85890 0.74378 0.78489
 C212 C 0.89380 0.70257 0.74491
 H213 H 0.92976 0.70535 0.76545
 N214 N 0.80750 0.72148 0.73142
 C215 C 0.64819 0.72529 0.74236
 H216 H 0.64213 0.74533 0.71500
 C217 C 0.60780 0.70320 0.75369
 H218 H 0.57128 0.70705 0.73468
 C219 C 0.70380 0.69589 0.79873
 H220 H 0.74155 0.69314 0.81581
 C221 C 0.66479 0.67298 0.81070
 H222 H 0.67312 0.65279 0.83742
 Zn223 Zn 0.75132 0.74962 0.74820
 N224 N 0.69496 0.72137 0.76505
 C225 C 0.69966 0.80268 0.70037
 N226 N 0.73462 0.77793 0.69204
 C227 C 0.75882 0.77480 0.64589
 C228 C 0.74759 0.79691 0.60563
 C229 C 0.68747 0.82541 0.66131
 C230 C 0.74437 0.77441 0.85066
 C231 C 0.75596 0.79640 0.89098
 C232 C 0.81610 0.82511 0.83517
 C233 C 0.80355 0.80250 0.79606
 N234 N 0.76835 0.77773 0.80442
 H235 H 0.68158 0.80493 0.73770
 H236 H 0.78733 0.75545 0.64032
 H237 H 0.76775 0.79406 0.56952
 H238 H 0.65960 0.84499 0.66882
 H239 H 0.71581 0.75494 0.85625
 H240 H 0.73598 0.79341 0.92719
 H241 H 0.84414 0.84471 0.82763
 H242 H 0.82154 0.80484 0.75869
 C243 C 0.61583 0.67631 0.78808
 C244 C 0.88646 0.67691 0.70846
 C245 C 0.79220 0.82226 0.88340
 C246 C 0.71154 0.82271 0.61316
 C247 C 0.80211 0.19758 0.19489
 H248 H 0.76508 0.19562 0.17602
 C249 C 0.84120 0.17498 0.18276
 H250 H 0.83404 0.15575 0.15413
 C251 C 0.85578 0.22466 0.25601
 H252 H 0.86096 0.24362 0.28527
 C253 C 0.89607 0.20267 0.24485
 H254 H 0.93186 0.20518 0.26579
 N255 N 0.81003 0.22185 0.23083
 C256 C 0.65156 0.22453 0.23817
 H257 H 0.64642 0.24369 0.20918
 C258 C 0.61107 0.20251 0.24933
 H259 H 0.57518 0.20519 0.22866
 C260 C 0.70526 0.19709 0.29869
 H261 H 0.74235 0.19503 0.31738
 C262 C 0.66598 0.17446 0.31085
 H263 H 0.67308 0.15510 0.33928
 Zn264 Zn 0.75376 0.24985 0.24721
 N265 N 0.69739 0.22158 0.26310
 C266 C 0.70188 0.30255 0.19947
 N267 N 0.73758 0.27825 0.19124
 C268 C 0.76248 0.27563 0.14540
 C269 C 0.75120 0.29782 0.10528
 C270 C 0.68963 0.32535 0.16058
 C271 C 0.74477 0.27464 0.34945
 C272 C 0.75586 0.29650 0.39003
 C273 C 0.81786 0.32469 0.33562
 C274 C 0.80578 0.30222 0.29623
 N275 N 0.76994 0.27775 0.30380
 H276 H 0.68322 0.30435 0.23656
 H277 H 0.79154 0.25661 0.13997
 H278 H 0.77188 0.29542 0.06938
 H279 H 0.66114 0.34457 0.16797
 H280 H 0.71557 0.25552 0.35435
 H281 H 0.73495 0.29373 0.42574
 H282 H 0.84644 0.34407 0.32875
 H283 H 0.82465 0.30441 0.25928
 C284 C 0.61812 0.17701 0.28609
 C285 C 0.88892 0.17734 0.20786
 C286 C 0.79279 0.32201 0.38327
 C287 C 0.71439 0.32316 0.11273
 C288 C 0.30192 0.69747 0.19817
 H289 H 0.26442 0.69510 0.18038
 C290 C 0.34089 0.67482 0.18575
 H291 H 0.33311 0.65515 0.15799
 C292 C 0.35698 0.72569 0.25678
 H293 H 0.36278 0.74523 0.28505
 C294 C 0.39717 0.70365 0.24530
 H295 H 0.43352 0.70667 0.26508
 N296 N 0.31057 0.72230 0.23306
 C297 C 0.15193 0.72515 0.24288
 H298 H 0.14632 0.74458 0.21441
 C299 C 0.11156 0.70307 0.25425
 H300 H 0.07535 0.70601 0.23424
 C301 C 0.20657 0.69707 0.30181
 H302 H 0.24399 0.69474 0.31975
 C303 C 0.16739 0.67436 0.31415
 H304 H 0.17491 0.65470 0.34200
 Zn305 Zn 0.25441 0.75033 0.25009
 N306 N 0.19820 0.72194 0.26691
 C307 C 0.20207 0.80304 0.20205
 N308 N 0.23742 0.77850 0.19387
 C309 C 0.26168 0.77541 0.14775
 C310 C 0.25016 0.79734 0.10736
 C311 C 0.18958 0.82560 0.16285
 C312 C 0.24888 0.77432 0.35313
 C313 C 0.25977 0.79646 0.39342
 C314 C 0.31596 0.82744 0.33631
 C315 C 0.30448 0.80440 0.29744
 N316 N 0.27133 0.77856 0.30634
 H317 H 0.18390 0.80523 0.23934
 H318 H 0.29045 0.75621 0.14230
 H319 H 0.27036 0.79454 0.07127
 H320 H 0.16141 0.84501 0.17023
 H321 H 0.22197 0.75397 0.35927
 H322 H 0.24079 0.79213 0.42982
 H323 H 0.34222 0.84790 0.32764
 H324 H 0.32140 0.80740 0.25969
 C325 C 0.11910 0.67718 0.29029
 C326 C 0.38927 0.67768 0.20944
 C327 C 0.29346 0.82391 0.38539
 C328 C 0.21372 0.82293 0.11473
 N329 N 1.11004 0.03547 -0.00289
 N330 N 1.13824 0.06206 -0.01473
 N331 N 1.09870 -0.03541 0.04636
 N332 N 1.11887 -0.06186 0.06938
 N333 N 1.10991 -0.03541 -0.00290
 N334 N 1.13807 -0.06188 -0.01475
 N335 N 1.09882 0.03536 0.04636
 N336 N 1.11902 0.06185 0.06939
 C337 C 1.14363 0.07813 0.03086
 C338 C 1.14344 -0.07800 0.03082
 N339 N 0.95582 -0.03563 0.09420
 N340 N 0.93281 -0.06203 0.11478
 N341 N 1.00523 0.03522 0.10537
 N342 N 1.01729 0.06175 0.13345
 N343 N 0.95593 0.03516 0.09414
 N344 N 0.93309 0.06167 0.11422
 N345 N 1.00512 -0.03554 0.10541
 N346 N 1.01702 -0.06186 0.13397
 Mn347 Mn 1.05232 -0.00010 0.07641
 C348 C 0.97145 -0.07801 0.13958
 C349 C 0.97181 0.07786 0.13877
 N350 N 1.05066 -0.03539 -0.09652
 N351 N 1.07351 -0.06189 -0.11658
 N352 N 1.00152 0.03532 -0.10781
 N353 N 0.98967 0.06170 -0.13626
 N354 N 1.05079 0.03543 -0.09645
 N355 N 1.07379 0.06194 -0.11671
 N356 N 1.00136 -0.03546 -0.10774
 N357 N 0.98931 -0.06200 -0.13580
 Mn358 Mn 1.08092 0.00003 -0.05006
 C359 C 1.03480 -0.07810 -0.14111
 C360 C 1.03522 0.07795 -0.14155
 N361 N 0.89666 0.03515 0.00053
 N362 N 0.86853 0.06163 0.01240
 N363 N 0.90773 -0.03564 -0.04870
 N364 N 0.88744 -0.06213 -0.07169
 N365 N 0.89655 -0.03572 0.00056
 N366 N 0.86831 -0.06228 0.01245
 N367 N 0.90787 0.03517 -0.04873
 N368 N 0.88772 0.06164 -0.07172
 Mn369 Mn 0.92567 -0.00026 0.04772
 Mn370 Mn 0.95426 -0.00015 -0.07880
 Cl371 Cl 1.00329 -0.00012 -0.00118
 C372 C 0.86316 0.07778 -0.03314
 C373 C 0.86283 -0.07838 -0.03310
 N374 N 1.10912 0.53496 0.49882
 N375 N 1.13748 0.56146 0.48701
 N376 N 1.09768 0.46411 0.54793
 N377 N 1.11793 0.43766 0.57089
 N378 N 1.10906 0.46420 0.49870
 N379 N 1.13739 0.43783 0.48682
 N380 N 1.09773 0.53490 0.54804
 N381 N 1.11800 0.56138 0.57108
 C382 C 1.14280 0.57756 0.53254
 C383 C 1.14271 0.42165 0.53232
 N384 N 0.95458 0.46367 0.59514
 N385 N 0.93145 0.43719 0.61536
 N386 N 1.00383 0.53467 0.60681
 N387 N 1.01565 0.56130 0.63480
 N388 N 0.95457 0.53451 0.59541
 N389 N 0.93153 0.56102 0.61527
 N390 N 1.00379 0.46381 0.60674
 N391 N 1.01547 0.43745 0.63533
 Mn392 Mn 1.05113 0.49937 0.57795
 C393 C 0.96988 0.42120 0.64044
 C394 C 0.97006 0.57734 0.63989
 N395 N 1.05031 0.46423 0.40485
 N396 N 1.07332 0.43773 0.38493
 N397 N 1.00113 0.53502 0.39359
 N398 N 0.98939 0.56156 0.36542
 N399 N 1.05039 0.53503 0.40499
 N400 N 1.07352 0.56156 0.38494
 N401 N 1.00106 0.46413 0.39339
 N402 N 0.98922 0.43754 0.36533
 Mn403 Mn 1.08026 0.49960 0.45149
 C404 C 1.03479 0.42146 0.36024
 C405 C 1.03503 0.57774 0.36024
 N406 N 0.89582 0.53455 0.50160
 N407 N 0.86758 0.56095 0.51357
 N408 N 0.90719 0.46393 0.45213
 N409 N 0.88701 0.43746 0.42902
 N410 N 0.89581 0.46378 0.50135
 N411 N 0.86752 0.43723 0.51308
 N412 N 0.90724 0.53472 0.45238
 N413 N 0.88711 0.56124 0.42951
 Mn414 Mn 0.92465 0.49912 0.54873
 Mn415 Mn 0.95379 0.49945 0.42230
 Cl416 Cl 1.00246 0.49939 0.50012
 C417 C 0.86235 0.57722 0.46814
 C418 C 0.86225 0.42119 0.46749
 N419 N 0.60903 0.03588 0.49582
 N420 N 0.63711 0.06252 0.48393
 N421 N 0.59790 -0.03500 0.54519
 N422 N 0.61790 -0.06151 0.56820
 N423 N 0.60918 -0.03500 0.49595
 N424 N 0.63721 -0.06154 0.48411
 N425 N 0.59775 0.03582 0.54506
 N426 N 0.61782 0.06238 0.56803
 C427 C 0.64240 0.07867 0.52947
 C428 C 0.64246 -0.07768 0.52967
 N429 N 0.45492 -0.03545 0.59281
 N430 N 0.43201 -0.06191 0.61333
 N431 N 0.50404 0.03550 0.60396
 N432 N 0.51591 0.06191 0.63235
 N433 N 0.45474 0.03536 0.59272
 N434 N 0.43171 0.06170 0.61311
 N435 N 0.50421 -0.03526 0.60409
 N436 N 0.51620 -0.06157 0.63263
 Mn437 Mn 0.55133 0.00027 0.57511
 C438 C 0.47070 -0.07783 0.63816
 C439 C 0.47035 0.07789 0.63783
 N440 N 0.55005 -0.03517 0.40227
 N441 N 0.57298 -0.06171 0.38240
 N442 N 0.50063 0.03547 0.39083
 N443 N 0.48870 0.06181 0.36230
 N444 N 0.54991 0.03561 0.40212
 N445 N 0.57289 0.06205 0.38163
 N446 N 0.50077 -0.03530 0.39095
 N447 N 0.48881 -0.06192 0.36304
 Mn448 Mn 0.58011 0.00033 0.44867
 C449 C 0.53434 -0.07801 0.35790
 C450 C 0.53426 0.07801 0.35681
 N451 N 0.39556 0.03518 0.49899
 N452 N 0.36707 0.06150 0.51079
 N453 N 0.40712 -0.03562 0.44985
 N454 N 0.38702 -0.06217 0.42684
 N455 N 0.39573 -0.03566 0.49906
 N456 N 0.36738 -0.06219 0.51086
 N457 N 0.40698 0.03528 0.44978
 N458 N 0.38674 0.06173 0.42678
 Mn459 Mn 0.42467 -0.00015 0.54626
 Mn460 Mn 0.45351 -0.00004 0.41981
 Cl461 Cl 0.50240 0.00011 0.49747
 C462 C 0.36182 0.07771 0.46529
 C463 C 0.36220 -0.07837 0.46533
 N464 N 0.60974 0.53590 -0.00255
 N465 N 0.63793 0.56246 -0.01449
 N466 N 0.59900 0.46495 0.04652
 N467 N 0.61948 0.43849 0.06923
 N468 N 0.60999 0.46514 -0.00279
 N469 N 0.63830 0.43882 -0.01499
 N470 N 0.59879 0.53573 0.04677
 N471 N 0.61918 0.56218 0.06974
 C472 C 0.64359 0.57847 0.03108
 C473 C 0.64400 0.42258 0.03040
 N474 N 0.45630 0.46442 0.09523
 N475 N 0.43344 0.43789 0.11560
 N476 N 0.50547 0.53539 0.10636
 N477 N 0.51753 0.56199 0.13431
 N478 N 0.45612 0.53525 0.09535
 N479 N 0.43325 0.56174 0.11548
 N480 N 0.50566 0.46451 0.10618
 N481 N 0.51775 0.43803 0.13435
 Mn482 Mn 0.55260 0.50014 0.07702
 C483 C 0.47222 0.42180 0.14002
 C484 C 0.47200 0.57804 0.13982
 N485 N 0.55042 0.46506 -0.09607
 N486 N 0.57341 0.43865 -0.11627
 N487 N 0.50083 0.53569 -0.10697
 N488 N 0.48882 0.56202 -0.13552
 N489 N 0.55014 0.53589 -0.09581
 N490 N 0.57302 0.56237 -0.11630
 N491 N 0.50106 0.46483 -0.10704
 N492 N 0.48912 0.43824 -0.13507
 Mn493 Mn 0.58061 0.50051 -0.04966
 C494 C 0.53474 0.42230 -0.14063
 C495 C 0.53433 0.57831 -0.14106
 N496 N 0.39651 0.53514 0.00199
 N497 N 0.36841 0.56157 0.01413
 N498 N 0.40769 0.46443 -0.04744
 N499 N 0.38756 0.43784 -0.07027
 N500 N 0.39672 0.46434 0.00188
 N501 N 0.36879 0.43768 0.01395
 N502 N 0.40748 0.53524 -0.04733
 N503 N 0.38719 0.56174 -0.07009
 Mn504 Mn 0.42586 0.49979 0.04897
 Mn505 Mn 0.45389 0.50004 -0.07775
 Cl506 Cl 0.50323 0.50012 -0.00036
 C507 C 0.36280 0.57778 -0.03132
 C508 C 0.36327 0.42153 -0.03153
 C509 C 1.20116 0.15284 0.07398
 C510 C 1.21596 0.15533 0.02297
 C511 C 1.19628 0.12741 -0.00048
 C512 C 1.17113 0.11002 0.03787
 O513 O 1.17385 0.12531 0.08284
 H514 H 1.23798 0.17512 0.00467
 H515 H 1.19970 0.12060 -0.04064
 C516 C 1.20081 0.65227 0.57494
 C517 C 1.21572 0.65446 0.52393
 C518 C 1.19587 0.62649 0.50082
 C519 C 1.17052 0.60938 0.53934
 O520 O 1.17327 0.62489 0.58411
 H521 H 1.23789 0.67408 0.50541
 H522 H 1.19929 0.61946 0.46075
 C523 C 0.69992 0.15360 0.57208
 C524 C 0.71450 0.15598 0.52100
 C525 C 0.69480 0.12797 0.49779
 C526 C 0.66983 0.11063 0.53632
 O527 O 0.67270 0.12605 0.58120
 H528 H 0.73641 0.17572 0.50248
 H529 H 0.69809 0.12107 0.45766
 C530 C 0.70139 0.65310 0.07385
 C531 C 0.71625 0.65550 0.02285
 C532 C 0.69646 0.62757 -0.00048
 C533 C 0.67122 0.61029 0.03794
 O534 O 0.67398 0.62566 0.08282
 H535 H 0.73834 0.67523 0.00450
 H536 H 0.69986 0.62068 -0.04061
 C537 C 0.92898 -0.15237 0.19853
 C538 C 0.98005 -0.15440 0.21339
 C539 C 1.00323 -0.12653 0.19317
 C540 C 0.96467 -0.10964 0.16767
 O541 O 0.91983 -0.12519 0.17069
 H542 H 0.99856 -0.17385 0.23576
 H543 H 1.04336 -0.11943 0.19644
 C544 C 0.92667 0.34669 0.69932
 C545 C 0.97711 0.34598 0.71719
 C546 C 1.00035 0.37384 0.69704
 C547 C 0.96276 0.38961 0.66872
 O548 O 0.91839 0.37333 0.66980
 H549 H 0.99554 0.32763 0.74168
 H550 H 1.03987 0.38178 0.70254
 C551 C 0.42861 -0.15228 0.69718
 C552 C 0.47972 -0.15422 0.71191
 C553 C 0.50274 -0.12632 0.69164
 C554 C 0.46406 -0.10949 0.66623
 O555 O 0.41928 -0.12512 0.66936
 H556 H 0.49837 -0.17364 0.73424
 H557 H 0.54285 -0.11916 0.69483
 C558 C 0.42996 0.34702 0.19818
 C559 C 0.48115 0.34484 0.21255
 C560 C 0.50425 0.37283 0.19259
 C561 C 0.46555 0.38995 0.16770
 O562 O 0.42067 0.37442 0.17086
 H563 H 0.49981 0.32523 0.23447
 H564 H 0.54443 0.37985 0.19565
 C565 C 0.80558 0.15250 -0.07562
 C566 C 0.79107 0.15473 -0.02452
 C567 C 0.81078 0.12677 -0.00138
 C568 C 0.83569 0.10960 -0.03996
 O569 O 0.83277 0.12508 -0.08482
 H570 H 0.76924 0.17437 -0.00593
 H571 H 0.80756 0.11980 0.03876
 C572 C 0.80477 0.65199 0.42621
 C573 C 0.78984 0.65394 0.47722
 C574 C 0.80954 0.62592 0.50016
 C575 C 0.83482 0.60901 0.46154
 O576 O 0.83217 0.62470 0.41687
 H577 H 0.76777 0.67345 0.49585
 H578 H 0.80605 0.61872 0.54018
 C579 C 0.30318 0.15237 0.42302
 C580 C 0.28533 0.15282 0.47342
 C581 C 0.30539 0.12487 0.49624
 C582 C 0.33363 0.10929 0.45847
 O583 O 0.33261 0.12578 0.41436
 H584 H 0.26093 0.17105 0.49212
 H585 H 0.29988 0.11675 0.53561
 C586 C 0.30531 0.65256 -0.07327
 C587 C 0.29060 0.65464 -0.02222
 C588 C 0.31028 0.62663 0.00079
 C589 C 0.33533 0.60960 -0.03786
 O590 O 0.33255 0.62521 -0.08259
 H591 H 0.26868 0.67423 -0.00360
 H592 H 0.30694 0.61952 0.04086
 C593 C 1.07686 -0.15298 -0.19805
 C594 C 1.02581 -0.15522 -0.21297
 C595 C 1.00278 -0.12719 -0.19352
 C596 C 1.04140 -0.10999 -0.16840
 O597 O 1.08614 -0.12551 -0.17091
 H598 H 1.00722 -0.17492 -0.23487
 H599 H 0.96270 -0.12018 -0.19706
 C600 C 1.07745 0.34661 0.30336
 C601 C 1.02637 0.34420 0.28859
 C602 C 1.00315 0.37218 0.30801
 C603 C 1.04167 0.38953 0.33302
 O604 O 1.08656 0.37415 0.33044
 H605 H 1.00785 0.32443 0.26676
 H606 H 0.96301 0.37904 0.30453
 C607 C 0.57658 -0.15304 0.30157
 C608 C 0.52556 -0.15534 0.28656
 C609 C 0.50247 -0.12725 0.30576
 C610 C 0.54103 -0.10998 0.33085
 O611 O 0.58579 -0.12550 0.32856
 H612 H 0.50703 -0.17511 0.26475
 H613 H 0.46240 -0.12026 0.30208
 C614 C 0.57725 0.34760 -0.19810
 C615 C 0.52610 0.34517 -0.21260
 C616 C 0.50293 0.37309 -0.19291
 C617 C 0.54155 0.39043 -0.16804
 O618 O 0.58646 0.37509 -0.17094
 H619 H 0.50751 0.32543 -0.23441
 H620 H 0.46276 0.37992 -0.19613
 C621 C 1.07796 0.15259 -0.19987
 C622 C 1.02751 0.15352 -0.21738
 C623 C 1.00433 0.12558 -0.19743
 C624 C 1.04213 0.10960 -0.16960
 O625 O 1.08651 0.12583 -0.17079
 H626 H 1.00918 0.17215 -0.24146
 H627 H 0.96475 0.11772 -0.20270
 C628 C 1.07798 0.65255 0.30268
 C629 C 1.02687 0.65484 0.28803
 C630 C 1.00355 0.62686 0.30773
 C631 C 1.04204 0.60963 0.33277
 O632 O 1.08701 0.62509 0.32994
 H633 H 1.00840 0.67451 0.26610
 H634 H 0.96336 0.61991 0.30440
 C635 C 0.57699 0.15244 0.29837
 C636 C 0.52599 0.15454 0.28329
 C637 C 0.50267 0.12664 0.30329
 C638 C 0.54110 0.10968 0.32886
 O639 O 0.58597 0.12520 0.32610
 H640 H 0.50762 0.17405 0.26093
 H641 H 0.46255 0.11957 0.29981
 C642 C 0.57693 0.65272 -0.20040
 C643 C 0.52637 0.65362 -0.21758
 C644 C 0.50324 0.62578 -0.19720
 C645 C 0.54116 0.60988 -0.16944
 O646 O 0.58559 0.62606 -0.17109
 H647 H 0.50792 0.67215 -0.24173
 H648 H 0.46361 0.61794 -0.20215
 C649 C 0.80478 -0.15315 -0.07562
 C650 C 0.79019 -0.15546 -0.02453
 C651 C 0.81010 -0.12750 -0.00137
 C652 C 0.83517 -0.11026 -0.03993
 O653 O 0.83218 -0.12569 -0.08479
 H654 H 0.76818 -0.17513 -0.00597
 H655 H 0.80688 -0.12057 0.03876
 C656 C 0.80480 0.34651 0.42445
 C657 C 0.78964 0.34414 0.47536
 C658 C 0.80925 0.37209 0.49877
 C659 C 0.83471 0.38935 0.46048
 O660 O 0.83224 0.37396 0.41560
 H661 H 0.76746 0.32441 0.49361
 H662 H 0.80560 0.37900 0.53887
 C663 C 0.30394 -0.15325 0.42268
 C664 C 0.28606 -0.15399 0.47307
 C665 C 0.30599 -0.12600 0.49607
 C666 C 0.33419 -0.11011 0.45841
 O667 O 0.33326 -0.12645 0.41420
 H668 H 0.26172 -0.17244 0.49164
 H669 H 0.30042 -0.11804 0.53548
 C670 C 0.30601 0.34644 -0.07351
 C671 C 0.29158 0.34413 -0.02238
 C672 C 0.31121 0.37223 0.00060
 C673 C 0.33596 0.38953 -0.03811
 O674 O 0.33304 0.37401 -0.08288
 H675 H 0.26985 0.32437 -0.00371
 H676 H 0.30802 0.37921 0.04071
 C677 C 1.20122 -0.15256 0.07363
 C678 C 1.21581 -0.15487 0.02256
 C679 C 1.19601 -0.12699 -0.00074
 C680 C 1.17098 -0.10979 0.03774
 O681 O 1.17390 -0.12518 0.08267
 H682 H 1.23777 -0.17450 0.00410
 H683 H 1.19927 -0.12008 -0.04089
 C684 C 1.20066 0.34711 0.57467
 C685 C 1.21536 0.34497 0.52361
 C686 C 1.19552 0.37290 0.50050
 C687 C 1.17038 0.38993 0.53907
 O688 O 1.17326 0.37442 0.58388
 H689 H 1.23738 0.32542 0.50504
 H690 H 1.19880 0.37993 0.46039
 C691 C 0.69939 -0.15260 0.57220
 C692 C 0.71401 -0.15486 0.52113
 C693 C 0.69456 -0.12683 0.49797
 C694 C 0.66969 -0.10960 0.53651
 O695 O 0.67238 -0.12511 0.58136
 H696 H 0.73574 -0.17456 0.50258
 H697 H 0.69793 -0.11985 0.45785
 C698 C 0.70207 0.34793 0.07203
 C699 C 0.71686 0.34601 0.02098
 C700 C 0.69698 0.37401 -0.00189
 C701 C 0.67174 0.39086 0.03683
 O702 O 0.67460 0.37516 0.08147
 H703 H 0.73895 0.32654 0.00227
 H704 H 0.70029 0.38122 -0.04192
 C705 C 0.92978 0.15270 0.19584
 C706 C 0.98081 0.15490 0.21081
 C707 C 1.00384 0.12688 0.19131
 C708 C 0.96522 0.10973 0.16611
 O709 O 0.92049 0.12527 0.16861
 H710 H 0.99940 0.17457 0.23279
 H711 H 1.04390 0.11985 0.19488
 C712 C 0.92744 0.65229 0.69647
 C713 C 0.97850 0.65468 0.71135
 C714 C 1.00169 0.62666 0.69205
 C715 C 0.96318 0.60931 0.66701
 O716 O 0.91832 0.62474 0.66945
 H717 H 0.99701 0.67445 0.73316
 H718 H 1.04180 0.61975 0.69563
 C719 C 0.42812 0.15219 0.69653
 C720 C 0.47927 0.15443 0.71110
 C721 C 0.50232 0.12663 0.69093
 C722 C 0.46362 0.10955 0.66573
 O723 O 0.41879 0.12493 0.66888
 H724 H 0.49794 0.17398 0.73325
 H725 H 0.54245 0.11970 0.69405
 C726 C 0.43008 0.65301 0.19704
 C727 C 0.48129 0.65533 0.21139
 C728 C 0.50421 0.62730 0.19180
 C729 C 0.46541 0.60999 0.16712
 O730 O 0.42062 0.62547 0.17006
 H731 H 0.50007 0.67506 0.23305
 H732 H 0.54435 0.62036 0.19495
   
