data_POSCAR
  _audit_creation_date              2014-09-24
  _audit_creation_method            'ToBaCCo'
  _symmetry_space_group_name_H-M    'P1'
  _symmetry_Int_Tables_number       1
  _symmetry_cell_setting            triclinic
  loop_
  _symmetry_equiv_pos_as_xyz
 x,y,z
_cell_length_a 34.0812
_cell_length_b 35.1383
_cell_length_c 34.2487
_cell_angle_alpha 90.180700
_cell_angle_beta 90.500900
_cell_angle_gamma 94.969500
loop_
  _atom_site_label
  _atom_site_type_symbol
  _atom_site_fract_x
  _atom_site_fract_y
  _atom_site_fract_z
C1 C 0.20155 0.52022 1.05526
 H2 H 0.19584 0.53757 1.03014
 C3 C 0.17739 0.52088 1.08817
 H4 H 0.15376 0.53946 1.08778
 C5 C 0.23863 0.47406 1.08488
 H6 H 0.26151 0.45480 1.08338
 C7 C 0.21590 0.47433 1.11841
 H8 H 0.22235 0.45554 1.14223
 N9 N 0.23111 0.49658 1.05397
 C10 C 0.31853 0.52869 0.96498
 H11 H 0.31497 0.50250 0.94814
 C12 C 0.34927 0.55607 0.95666
 H13 H 0.36924 0.55081 0.93319
 C14 C 0.29803 0.56603 1.01756
 H15 H 0.27864 0.56906 1.04199
 C16 C 0.32848 0.59447 1.01005
 H17 H 0.33228 0.61913 1.02913
 Zn18 Zn 0.25893 0.49061 1.00672
 N19 N 0.29403 0.53377 0.99529
 C20 C 0.22129 0.50760 0.93590
 N21 N 0.22137 0.48211 0.96569
 C22 C 0.19296 0.45259 0.96825
 C23 C 0.16305 0.44780 0.93998
 C24 C 0.19194 0.50397 0.90712
 C25 C 0.32251 0.45663 1.03679
 C26 C 0.34807 0.42864 1.04424
 C27 C 0.30964 0.38630 1.00002
 C28 C 0.28449 0.41524 0.99356
 N29 N 0.29110 0.44942 1.01233
 H30 H 0.24329 0.53160 0.93497
 H31 H 0.19307 0.43324 0.99275
 H32 H 0.14040 0.42439 0.94275
 H33 H 0.19230 0.52559 0.88476
 H34 H 0.32734 0.48419 1.05103
 H35 H 0.37265 0.43497 1.06416
 H36 H 0.30333 0.35910 0.98545
 H37 H 0.25965 0.41022 0.97385
 C38 C 0.35498 0.58921 0.97955
 C39 C 0.18407 0.49707 1.12024
 C40 C 0.34196 0.39297 1.02581
 C41 C 0.16213 0.47369 0.90888
 C42 C 0.82932 0.51459 -0.04695
 H43 H 0.84260 0.51981 -0.01850
 C44 C 0.85355 0.51087 -0.07917
 H45 H 0.88515 0.51360 -0.07485
 C46 C 0.77240 0.50748 -0.08735
 H47 H 0.74084 0.50657 -0.09063
 C48 C 0.79552 0.50396 -0.12037
 H49 H 0.78144 0.50037 -0.14878
 N50 N 0.78947 0.51266 -0.05145
 C51 C 0.70411 0.56857 0.01721
 H52 H 0.69963 0.54829 0.04080
 C53 C 0.68024 0.59872 0.01403
 H54 H 0.65729 0.60108 0.03529
 C55 C 0.73764 0.58773 -0.04080
 H56 H 0.75959 0.58289 -0.06241
 C57 C 0.71412 0.61810 -0.04532
 H58 H 0.71818 0.63657 -0.07049
 Zn59 Zn 0.75720 0.51778 -0.00703
 N60 N 0.73174 0.56336 -0.01023
 C61 C 0.79382 0.55110 0.06066
 N62 N 0.78903 0.51862 0.03876
 C63 C 0.80976 0.48818 0.04686
 C64 C 0.83698 0.48988 0.07765
 C65 C 0.82069 0.55401 0.09172
 C66 C 0.68644 0.48204 -0.03229
 C67 C 0.65374 0.45555 -0.03414
 C68 C 0.68255 0.41959 0.01703
 C69 C 0.71488 0.44713 0.01807
 N70 N 0.71637 0.47745 -0.00671
 H71 H 0.77790 0.57538 0.05326
 H72 H 0.80651 0.46320 0.02818
 H73 H 0.85421 0.46583 0.08212
 H74 H 0.82470 0.58038 0.10832
 H75 H 0.68740 0.50702 -0.05068
 H76 H 0.63013 0.46013 -0.05452
 H77 H 0.68162 0.39614 0.03746
 H78 H 0.73829 0.44443 0.03904
 C79 C 0.68477 0.62367 -0.01792
 C80 C 0.83657 0.50535 -0.11650
 C81 C 0.65144 0.42378 -0.00949
 C82 C 0.84287 0.52332 0.10047
 C83 C -0.05661 0.27578 0.43503
 H84 H -0.07930 0.25295 0.44013
 C85 C -0.06099 0.30143 0.40452
 H86 H -0.08707 0.29774 0.38610
 C87 C 0.00400 0.30917 0.45380
 H88 H 0.02884 0.31238 0.47379
 C89 C 0.00146 0.33476 0.42302
 H90 H 0.02444 0.35778 0.42046
 N91 N -0.02423 0.27985 0.45861
 C92 C -0.08092 0.19369 0.52767
 H93 H -0.08168 0.21142 0.55346
 C94 C -0.10493 0.15928 0.52527
 H95 H -0.12394 0.15102 0.54946
 C96 C -0.05300 0.18168 0.46618
 H97 H -0.03208 0.19031 0.44363
 C98 C -0.07618 0.14721 0.46267
 H99 H -0.07311 0.12951 0.43710
 Zn100 Zn -0.01767 0.24657 0.50097
 N101 N -0.05549 0.20399 0.49837
 C102 C -0.05710 0.29172 0.55087
 N103 N -0.02240 0.27589 0.54671
 C104 C 0.00873 0.28549 0.57098
 C105 C 0.00596 0.31312 0.60013
 C106 C -0.06115 0.31936 0.57948
 C107 C 0.05272 0.23020 0.46404
 C108 C 0.08584 0.21019 0.45867
 C109 C 0.07625 0.18315 0.52300
 C110 C 0.04310 0.20359 0.52708
 N111 N 0.03193 0.22642 0.49774
 H112 H -0.08106 0.28419 0.53059
 H113 H 0.03645 0.27346 0.56636
 H114 H 0.03181 0.32173 0.61759
 H115 H -0.08855 0.33273 0.58128
 H116 H 0.04249 0.24698 0.44030
 H117 H 0.10121 0.21253 0.43111
 H118 H 0.08341 0.16390 0.54605
 H119 H 0.02524 0.19999 0.55298
 C120 C -0.10233 0.13537 0.49247
 C121 C -0.03136 0.33097 0.39755
 C122 C 0.09773 0.18597 0.48808
 C123 C -0.02918 0.33106 0.60401
 C124 C 0.99065 0.68302 0.54021
 H125 H 0.96552 0.67727 0.52091
 C126 C 0.99872 0.65663 0.56892
 H127 H 0.97960 0.63052 0.57136
 C128 C 1.04744 0.72306 0.55850
 H129 H 1.06692 0.74849 0.55363
 C130 C 1.05693 0.69715 0.58722
 H131 H 1.08336 0.70313 0.60477
 N132 N 1.01470 0.71562 0.53578
 C133 C 0.94195 0.78820 0.46794
 H134 H 0.96032 0.79335 0.44257
 C135 C 0.90845 0.80804 0.47252
 H136 H 0.90159 0.82825 0.45028
 C137 C 0.93163 0.75854 0.52946
 H138 H 0.94172 0.74068 0.55241
 C139 C 0.89803 0.77787 0.53529
 H140 H 0.88217 0.77403 0.56247
 Zn141 Zn 1.00437 0.74769 0.49336
 N142 N 0.95319 0.76451 0.49648
 C143 C 0.98114 0.70702 0.42317
 N144 N 1.01132 0.71860 0.44792
 C145 C 1.04717 0.70482 0.44472
 C146 C 1.05347 0.67722 0.41675
 C147 C 0.98616 0.67926 0.39461
 C148 C 1.03446 0.81499 0.52698
 C149 C 1.05682 0.84983 0.53113
 C150 C 1.08936 0.83741 0.47055
 C151 C 1.06601 0.80271 0.46739
 N152 N 1.03934 0.79226 0.49556
 H153 H 0.95255 0.71758 0.42700
 H154 H 1.07034 0.71388 0.46538
 H155 H 1.08182 0.66550 0.41579
 H156 H 0.96114 0.66898 0.37673
 H157 H 1.01267 0.80612 0.54865
 H158 H 1.05218 0.86771 0.55621
 H159 H 1.10974 0.84565 0.44742
 H160 H 1.06870 0.78459 0.44217
 C161 C 0.88646 0.80358 0.50705
 C162 C 1.03229 0.66363 0.59288
 C163 C 1.08472 0.86145 0.50284
 C164 C 1.02258 0.66336 0.39185
 C165 C 0.42507 -0.04039 0.29081
 H166 H 0.43100 -0.06537 0.27413
 C167 C 0.39421 -0.04259 0.31755
 H168 H 0.37652 -0.06943 0.32134
 C169 C 0.44101 0.02488 0.30660
 H170 H 0.45980 0.05094 0.30238
 C171 C 0.41057 0.02397 0.33355
 H172 H 0.40690 0.04950 0.35033
 N173 N 0.44796 -0.00707 0.28626
 C174 C 0.48322 -0.04676 0.18202
 H175 H 0.47434 -0.02104 0.16865
 C176 C 0.48684 -0.07905 0.15889
 H177 H 0.48071 -0.07690 0.12803
 C178 C 0.50400 -0.07903 0.23810
 H179 H 0.51108 -0.07855 0.26897
 C180 C 0.50871 -0.11173 0.21600
 H181 H 0.51924 -0.13641 0.23032
 Zn182 Zn 0.49105 -0.00276 0.25187
 N183 N 0.49177 -0.04731 0.22085
 C184 C 0.57351 0.00088 0.26253
 N185 N 0.53864 0.00213 0.28131
 C186 C 0.53693 0.00164 0.32097
 C187 C 0.57095 -0.00098 0.34335
 C188 C 0.60835 -0.00189 0.28384
 C189 C 0.44895 0.04235 0.20355
 C190 C 0.44149 0.07305 0.17975
 C191 C 0.50864 0.09934 0.19031
 C192 C 0.51475 0.06813 0.21423
 N193 N 0.48518 0.04019 0.21988
 H194 H 0.57398 0.00032 0.23096
 H195 H 0.50894 0.00136 0.33547
 H196 H 0.56803 -0.00329 0.37467
 H197 H 0.63568 -0.00411 0.26844
 H198 H 0.42580 0.02001 0.20901
 H199 H 0.41250 0.07410 0.16678
 H200 H 0.53247 0.12138 0.18651
 H201 H 0.54306 0.06627 0.22822
 C202 C 0.50021 -0.11220 0.17575
 C203 C 0.38657 -0.01015 0.33926
 C204 C 0.47161 0.10178 0.17237
 C205 C 0.60732 -0.00327 0.32479
 C206 C 0.54468 -0.02900 0.69553
 H207 H 0.52147 -0.05203 0.69594
 C208 C 0.57538 -0.02999 0.66885
 H209 H 0.57517 -0.05402 0.64904
 C210 C 0.57072 0.03163 0.71876
 H211 H 0.56841 0.05600 0.73765
 C212 C 0.60184 0.03187 0.69248
 H213 H 0.62340 0.05638 0.69165
 N214 N 0.54272 0.00161 0.71967
 C215 C 0.46975 -0.03028 0.82070
 H216 H 0.45457 -0.00462 0.82303
 C217 C 0.46530 -0.05776 0.85000
 H218 H 0.44619 -0.05322 0.87439
 C219 C 0.51428 -0.06648 0.78708
 H220 H 0.53358 -0.06975 0.76273
 C221 C 0.51066 -0.09477 0.81577
 H222 H 0.52673 -0.11973 0.81221
 Zn223 Zn 0.49791 0.00452 0.75200
 N224 N 0.49367 -0.03512 0.78981
 C225 C 0.41587 0.00041 0.73798
 N226 N 0.45161 0.00207 0.72038
 C227 C 0.45472 0.00547 0.68093
 C228 C 0.42115 0.00777 0.65769
 C229 C 0.38159 0.00285 0.71588
 C230 C 0.52706 0.05668 0.81014
 C231 C 0.52785 0.08982 0.83292
 C232 C 0.47779 0.11247 0.79066
 C233 C 0.47797 0.07898 0.76876
 N234 N 0.50186 0.05163 0.77920
 H235 H 0.41392 -0.00145 0.76933
 H236 H 0.48334 0.00808 0.66746
 H237 H 0.42475 0.01212 0.62664
 H238 H 0.35351 0.00249 0.73051
 H239 H 0.54591 0.03451 0.81762
 H240 H 0.54807 0.09285 0.85741
 H241 H 0.45788 0.13354 0.78238
 H242 H 0.45850 0.07464 0.74378
 C243 C 0.48605 -0.09042 0.84802
 C244 C 0.60444 0.00092 0.66695
 C245 C 0.50220 0.11792 0.82374
 C246 C 0.38394 0.00676 0.67526
 C247 C 0.22236 0.06608 0.50998
 C248 C 0.25143 0.05514 0.54150
 C249 C 0.27128 0.02441 0.53180
 C250 C 0.25997 0.00740 0.49148
 C251 C 0.24737 0.07197 0.47314
 C252 C 0.26684 0.04125 0.46308
 C253 C 0.19554 0.02960 0.50228
 C254 C 0.21512 -0.00131 0.49286
 H255 H 0.25755 0.07205 0.56766
 H256 H 0.27582 -0.01798 0.48453
 H257 H 0.25023 0.09855 0.45705
 H258 H 0.16378 0.02905 0.50345
 C259 C 0.76506 -0.07194 0.49012
 C260 C 0.73886 -0.07947 0.52594
 C261 C 0.71925 -0.04915 0.53697
 C262 C 0.72714 -0.01396 0.51045
 C263 C 0.73699 -0.05928 0.45841
 C264 C 0.71705 -0.02887 0.46902
 C265 C 0.79180 -0.03591 0.50017
 C266 C 0.77205 -0.00533 0.51041
 H267 H 0.73524 -0.10684 0.54055
 H268 H 0.71110 0.01105 0.51837
 H269 H 0.73193 -0.07458 0.43111
 H270 H 0.82359 -0.03504 0.49897
 C271 C 0.45800 0.26675 1.00076
 C272 C 0.46692 0.23987 0.96730
 C273 C 0.50185 0.22401 0.97145
 C274 C 0.52460 0.23658 1.00884
 C275 C 0.46049 0.24255 1.03777
 C276 C 0.49545 0.22658 1.04197
 C277 C 0.49394 0.29600 1.00299
 C278 C 0.52894 0.28036 1.00717
 H279 H 0.44600 0.23223 0.94403
 H280 H 0.55309 0.22367 1.01218
 H281 H 0.43658 0.23872 1.05833
 H282 H 0.49114 0.32643 1.00276
 C283 C 0.55310 0.73557 0.01000
 C284 C 0.55829 0.76024 -0.02679
 C285 C 0.52645 0.77907 -0.03656
 C286 C 0.49185 0.77176 -0.00803
 C287 C 0.54335 0.76153 0.04080
 C288 C 0.51001 0.78214 0.03219
 C289 C 0.51546 0.70940 0.00260
 C290 C 0.48327 0.72813 -0.00672
 H291 H 0.58549 0.76346 -0.04307
 H292 H 0.46533 0.78669 -0.01505
 H293 H 0.56147 0.76637 0.06673
 H294 H 0.51404 0.67896 0.00795
 C295 C 1.01033 0.45908 0.27690
 C296 C 0.97467 0.45107 0.24939
 C297 C 0.96746 0.48072 0.22578
 C298 C 0.99750 0.51583 0.23084
 C299 C 1.04334 0.46896 0.25124
 C300 C 1.03768 0.49982 0.22523
 C301 C 1.00317 0.49614 0.29831
 C302 C 0.99682 0.52593 0.27441
 H303 H 0.95761 0.42363 0.24738
 H304 H 0.99280 0.54026 0.21142
 H305 H 1.06864 0.45241 0.25045
 H306 H 1.00333 0.49844 0.32988
 C307 C 0.00866 0.53438 0.71959
 C308 C -0.02226 0.52829 0.75155
 C309 C -0.01732 0.49802 0.77531
 C310 C 0.01869 0.47665 0.76503
 C311 C 0.04817 0.53787 0.74171
 C312 C 0.05353 0.50782 0.76566
 C313 C 0.00739 0.49615 0.69814
 C314 C 0.01246 0.46581 0.72175
 H315 H -0.04457 0.54793 0.75623
 H316 H 0.02231 0.45156 0.78386
 H317 H 0.06937 0.56258 0.73971
 H318 H 0.00386 0.49371 0.66674
 C319 C 0.12950 0.16114 0.47937
 C320 C 0.15015 0.14409 0.50656
 C321 C 0.17737 0.11591 0.49492
 C322 C 0.19961 0.09935 0.52109
 H323 H 0.14630 0.14990 0.53729
 H324 H 0.17785 0.10708 0.46456
 H325 H 0.13559 0.15603 0.44884
 H326 H 0.19821 0.10727 0.55163
 C327 C 0.65707 0.65304 -0.02550
 C328 C 0.63667 0.66888 0.00252
 C329 C 0.60602 0.69424 -0.00766
 C330 C 0.58787 0.71329 0.01974
 H331 H 0.64189 0.66267 0.03298
 H332 H 0.59722 0.69636 -0.03801
 H333 H 0.65288 0.66152 -0.05558
 H334 H 0.59600 0.70997 0.05016
 C335 C 0.85464 -0.17179 0.51677
 C336 C 0.83550 -0.15197 0.49051
 C337 C 0.80854 -0.12390 0.50341
 C338 C 0.78791 -0.10483 0.47777
 H339 H 0.84038 -0.15540 0.45957
 H340 H 0.80689 -0.11740 0.53429
 H341 H 0.84752 -0.16893 0.54739
 H342 H 0.79064 -0.11056 0.44683
 C343 C 0.37001 0.36412 1.03475
 C344 C 0.37586 0.33419 1.01196
 C345 C 0.40839 0.31047 1.02093
 C346 C 0.41990 0.28509 0.99523
 H347 H 0.35900 0.32880 0.98529
 H348 H 0.42538 0.31594 1.04760
 H349 H 0.38890 0.36940 1.06021
 H350 H 0.40365 0.28033 0.96804
 C351 C 0.87617 0.09698 0.48894
 C352 C 0.84414 0.08483 0.50927
 C353 C 0.82590 0.04565 0.50302
 C354 C 0.79119 0.03337 0.51849
 H355 H 0.83100 0.10349 0.52964
 H356 H 0.84079 0.02692 0.48406
 H357 H 0.88714 0.07770 0.46762
 H358 H 0.77517 0.05290 0.53542
 C359 C 0.39120 0.61484 -0.02679
 C360 C 0.39663 0.65127 -0.01499
 C361 C 0.43593 0.67205 -0.01853
 C362 C 0.44285 0.70901 -0.00911
 H363 H 0.37300 0.66523 -0.00163
 H364 H 0.46011 0.65617 -0.02780
 H365 H 0.41518 0.60258 -0.04160
 H366 H 0.41846 0.72552 -0.00192
 C367 C 0.10641 -0.10047 0.50741
 C368 C 0.14087 -0.08977 0.49059
 C369 C 0.15974 -0.05109 0.49788
 C370 C 0.19577 -0.03991 0.48488
 H371 H 0.15547 -0.10935 0.47239
 H372 H 0.14392 -0.03178 0.51525
 H373 H 0.09377 -0.08046 0.52685
 H374 H 0.21231 -0.06006 0.46934
 C375 C 0.61510 0.39751 0.98866
 C376 C 0.61142 0.36189 1.00266
 C377 C 0.57322 0.33911 0.99867
 C378 C 0.56764 0.30285 1.01060
 H379 H 0.63598 0.34949 1.01643
 H380 H 0.54924 0.35256 0.98503
 H381 H 0.58991 0.40804 0.97391
 H382 H 0.59225 0.28890 1.02242
 C383 C 0.46285 0.13356 1.14623
 C384 C 0.49026 0.15462 1.12611
 C385 C 0.47877 0.18313 1.09767
 C386 C 0.50540 0.20066 1.07384
 H387 H 0.52103 0.14951 1.12880
 H388 H 0.44798 0.18815 1.09505
 H389 H 0.43212 0.13812 1.14131
 H390 H 0.53580 0.19399 1.07614
 C391 C 0.04321 0.63565 0.62239
 C392 C 0.01627 0.61346 0.64184
 C393 C 0.02767 0.58475 0.67002
 C394 C 0.00053 0.56695 0.69304
 H395 H -0.01477 0.61667 0.63726
 H396 H 0.05795 0.57764 0.67137
 H397 H 0.07418 0.63409 0.62907
 H398 H -0.02977 0.57390 0.69027
 C399 C 0.48103 0.88118 -0.11999
 C400 C 0.50642 0.85510 -0.11248
 C401 C 0.50102 0.82916 -0.07881
 C402 C 0.52786 0.80468 -0.07079
 H403 H 0.53235 0.85354 -0.13020
 H404 H 0.47579 0.83112 -0.06023
 H405 H 0.45624 0.88299 -0.10062
 H406 H 0.55318 0.80422 -0.08971
 C407 C 0.96391 0.35610 0.36631
 C408 C 0.99422 0.38098 0.35111
 C409 C 0.98653 0.40699 0.32201
 C410 C 1.01711 0.42896 0.30357
 H411 H 1.02435 0.37951 0.36078
 H412 H 0.95621 0.41027 0.31390
 H413 H 0.93531 0.35503 0.35195
 H414 H 1.04712 0.42590 0.31317
 C415 C 0.50714 0.85509 0.15391
 C416 C 0.49615 0.84889 0.11480
 C417 C 0.50868 0.81800 0.09412
 C418 C 0.49576 0.81029 0.05588
 H419 H 0.47762 0.86781 0.09996
 H420 H 0.52865 0.79995 0.10827
 H421 H 0.52206 0.83294 0.16845
 H422 H 0.47305 0.82667 0.04375
 C423 C -0.03242 0.36499 0.62926
 C424 C -0.00742 0.37629 0.65824
 C425 C -0.00998 0.41403 0.67644
 C426 C 0.01244 0.42622 0.70700
 H427 H 0.01570 0.35895 0.66741
 H428 H -0.03012 0.43285 0.66364
 H429 H -0.05610 0.38268 0.62236
 H430 H 0.03082 0.40693 0.72163
 C431 C 0.49859 0.15245 0.84806
 C432 C 0.51266 0.15712 0.88454
 C433 C 0.50240 0.18973 0.90834
 C434 C 0.51523 0.19440 0.94518
 H435 H 0.52954 0.13598 0.89805
 H436 H 0.48307 0.20943 0.89581
 H437 H 0.48096 0.17405 0.83627
 H438 H 0.53601 0.17561 0.95685
 C439 C 1.02855 0.62943 0.36749
 C440 C 1.00486 0.61593 0.33830
 C441 C 1.01114 0.57859 0.32083
 C442 C 0.99157 0.56475 0.28911
 H443 H 0.98049 0.63124 0.32826
 H444 H 1.03227 0.56158 0.33484
 H445 H 1.05353 0.61370 0.37516
 H446 H 0.97244 0.58235 0.27313
 C447 C 1.15988 0.49352 0.15337
 C448 C 1.12425 0.50993 0.15836
 C449 C 1.10084 0.49959 0.19055
 C450 C 1.06389 0.51315 0.19589
 H451 H 1.11352 0.52903 0.13684
 H452 H 1.11165 0.47972 0.21123
 H453 H 1.16850 0.47454 0.17628
 H454 H 1.05454 0.53462 0.17603
 C455 C 0.63602 0.00332 0.63724
 C456 C 0.64797 -0.02692 0.61827
 C457 C 0.67781 -0.02198 0.58734
 C458 C 0.69089 -0.05225 0.56949
 H459 H 0.63577 -0.05552 0.62524
 H460 H 0.68892 0.00667 0.57928
 H461 H 0.65018 0.03141 0.63080
 H462 H 0.68062 -0.08067 0.57931
 C463 C -0.13941 0.50408 0.84785
 C464 C -0.10248 0.49388 0.84743
 C465 C -0.07938 0.49798 0.81140
 C466 C -0.04222 0.48861 0.80963
 H467 H -0.08879 0.48384 0.87366
 H468 H -0.09277 0.51033 0.78616
 H469 H -0.15277 0.51233 0.82063
 H470 H -0.02945 0.47436 0.83406
 C471 C 0.35501 -0.01342 0.36888
 C472 C 0.33804 0.01665 0.38295
 C473 C 0.30918 0.01228 0.41467
 C474 C 0.29382 0.04287 0.42950
 H475 H 0.34570 0.04498 0.37155
 H476 H 0.30123 -0.01597 0.42605
 H477 H 0.34545 -0.04171 0.37955
 H478 H 0.30157 0.07062 0.41658
 C479 C 0.12854 0.46944 0.88068
 C480 C 0.12719 0.48863 0.84699
 C481 C 0.09158 0.48533 0.82197
 C482 C 0.08926 0.50745 0.79044
 H483 H 0.15202 0.50752 0.83766
 H484 H 0.06673 0.46607 0.83064
 H485 H 0.10343 0.44989 0.88835
 H486 H 0.11404 0.52771 0.78353
 C487 C 0.64350 -0.01102 0.34678
 C488 C 0.64837 -0.00476 0.38518
 C489 C 0.68217 -0.01833 0.40651
 C490 C 0.68613 -0.01292 0.44509
 H491 H 0.62676 0.00932 0.40156
 H492 H 0.70312 -0.03380 0.39065
 H493 H 0.66656 -0.02356 0.33083
 H494 H 0.66568 0.00388 0.46012
 C495 C 0.87340 0.52831 0.13163
 C496 C 0.88928 0.49923 0.14906
 C497 C 0.92091 0.50602 0.17848
 C498 C 0.93540 0.47657 0.19644
 H499 H 0.87900 0.47003 0.14190
 H500 H 0.93197 0.53507 0.18542
 H501 H 0.88304 0.55723 0.14077
 H502 H 0.92260 0.44788 0.18995
 C503 C 0.34775 0.01313 0.65286
 C504 C 0.34355 0.00664 0.61450
 C505 C 0.30854 0.01772 0.59338
 C506 C 0.30374 0.01060 0.55520
 H507 H 0.36627 -0.00602 0.59827
 H508 H 0.28708 0.03263 0.60915
 H509 H 0.32365 0.02408 0.66867
 H510 H 0.32453 -0.00584 0.54023
   
