data_POSCAR
  _audit_creation_date              2014-09-24
  _audit_creation_method            'ToBaCCo'
  _symmetry_space_group_name_H-M    'P1'
  _symmetry_Int_Tables_number       1
  _symmetry_cell_setting            triclinic
  loop_
  _symmetry_equiv_pos_as_xyz
 x,y,z
_cell_length_a 21.3230
_cell_length_b 21.4190
_cell_length_c 53.1260
_cell_angle_alpha 91.618800
_cell_angle_beta 91.133900
_cell_angle_gamma 120.844600
loop_
  _atom_site_label
  _atom_site_type_symbol
  _atom_site_fract_x
  _atom_site_fract_y
  _atom_site_fract_z
C1 C -0.08350 0.03069 0.51963
 C2 C -0.15246 -0.03044 0.50595
 C3 C -0.13857 -0.07285 0.48829
 C4 C -0.05641 -0.04645 0.48662
 C5 C -0.04586 -0.00660 0.53122
 C6 C -0.03209 -0.04894 0.51368
 C7 C -0.03530 0.07501 0.49874
 C8 C -0.01931 0.03504 0.48119
 H9 H -0.20693 -0.04180 0.50983
 H10 H -0.04302 -0.07722 0.47292
 H11 H -0.04036 -0.00869 0.55143
 H12 H -0.01440 0.13283 0.49753
 C13 C 0.93448 -0.16126 0.17847
 C14 C 1.00026 -0.15898 0.16653
 C15 C 1.04260 -0.09629 0.15236
 C16 C 1.01224 -0.04449 0.15234
 C17 C 0.96326 -0.09406 0.19345
 C18 C 1.00739 -0.02952 0.18053
 C19 C 0.89174 -0.15551 0.15635
 C20 C 0.93204 -0.09234 0.14254
 H21 H 1.01352 -0.20112 0.16869
 H22 H 1.04309 0.00466 0.14145
 H23 H 0.95729 -0.09328 0.21368
 H24 H 0.83462 -0.19526 0.15203
 C25 C 0.08631 1.09542 0.85892
 C26 C 0.08165 1.15675 0.84664
 C27 C 0.01890 1.13125 0.83005
 C28 C -0.03057 1.04806 0.82867
 C29 C 0.01453 1.05126 0.87199
 C30 C -0.04821 1.02738 0.85616
 C31 C 0.08275 1.04642 0.83705
 C32 C 0.02011 1.02025 0.82067
 H33 H 0.12336 1.21335 0.84993
 H34 H -0.07958 1.02738 0.81582
 H35 H 0.01185 1.04558 0.89222
 H36 H 0.12254 1.02964 0.83557
 O37 O 0.44982 -0.00174 -0.01485
 O38 O 0.59925 0.00800 0.02380
 O39 O 0.47564 0.00221 0.03303
 O40 O 0.56837 -0.00087 -0.02414
 O41 O 0.62717 0.11919 -0.02408
 O42 O 0.53261 0.12214 0.03306
 O43 O 0.65773 0.12801 0.02458
 O44 O 0.50823 0.11838 -0.01502
 Cu45 Cu 0.51775 -0.01004 0.00466
 Cu46 Cu 0.58795 0.13416 0.00491
 C47 C 0.45371 0.05640 -0.02169
 C48 C 0.65447 0.06943 0.03051
 C49 C 0.48621 0.06231 0.04227
 C50 C 0.61265 0.05840 -0.03409
 O51 O 0.00323 0.59580 0.64146
 O52 O 0.00094 0.49390 0.69721
 O53 O 0.00354 0.61605 0.69013
 O54 O -0.01111 0.46864 0.64837
 O55 O 0.10930 0.52327 0.64871
 O56 O 0.12399 0.67089 0.69028
 O57 O 0.12148 0.55057 0.69719
 O58 O 0.12371 0.65015 0.64220
 Cu59 Cu -0.01300 0.53792 0.66925
 Cu60 Cu 0.13153 0.60390 0.66956
 C61 C 0.06463 0.64125 0.63268
 C62 C 0.06161 0.50568 0.70667
 C63 C 0.06626 0.66877 0.69717
 C64 C 0.04655 0.47080 0.64147
 O65 O 0.55662 0.43505 0.35778
 O66 O 0.44459 0.32707 0.30165
 O67 O 0.56454 0.44980 0.30943
 O68 O 0.43621 0.30614 0.35016
 O69 O 0.37182 0.36016 0.35274
 O70 O 0.49959 0.50336 0.31227
 O71 O 0.37949 0.38038 0.30474
 O72 O 0.49152 0.48832 0.36061
 Cu73 Cu 0.50675 0.37373 0.32975
 Cu74 Cu 0.42905 0.43832 0.33312
 C75 C 0.54436 0.48153 0.36832
 C76 C 0.39370 0.33633 0.29343
 C77 C 0.55319 0.50043 0.30368
 C78 C 0.38133 0.30802 0.35800
 C79 C -0.09420 0.07782 0.53862
 C80 C -0.03327 0.13232 0.55248
 C81 C -0.03338 0.18804 0.56913
 N82 N 0.03091 0.24107 0.57998
 N83 N 0.03366 0.29368 0.59473
 C84 C -0.02789 0.29531 0.59923
 N85 N -0.09251 0.24198 0.58847
 N86 N -0.09526 0.18925 0.57362
 C87 C -0.02475 0.35385 0.61541
 C88 C 0.04173 0.41210 0.62503
 H89 H 0.01907 0.13639 0.55011
 H90 H -0.07545 0.35135 0.61964
 H91 H -0.14695 0.07336 0.53992
 H92 H 0.09241 0.41511 0.62036
 C93 C 0.88864 0.77299 0.19368
 C94 C 0.82507 0.76371 0.20415
 C95 C 0.78219 0.70810 0.22212
 N96 N 0.72457 0.70781 0.23255
 N97 N 0.68541 0.65930 0.24937
 C98 C 0.70241 0.60918 0.25643
 N99 N 0.75998 0.60919 0.24593
 N100 N 0.79937 0.65795 0.22909
 C101 C 0.65880 0.55527 0.27493
 C102 C 0.60129 0.55632 0.28658
 H103 H 0.80771 0.80190 0.19987
 H104 H 0.67140 0.51361 0.27915
 H105 H 0.90836 0.73688 0.19822
 H106 H 0.58927 0.59842 0.28242
 C107 C 0.15178 0.11865 -0.12356
 C108 C 0.15774 0.06535 -0.11110
 C109 C 0.21942 0.07930 -0.09438
 N110 N 0.21837 0.02198 -0.08382
 N111 N 0.27352 0.03183 -0.06878
 C112 C 0.33200 0.09949 -0.06368
 N113 N 0.33312 0.15716 -0.07417
 N114 N 0.27772 0.14728 -0.08930
 C115 C 0.39333 0.10977 -0.04728
 C116 C 0.39351 0.05009 -0.03752
 H117 H 0.11435 0.00902 -0.11408
 H118 H 0.43903 0.16436 -0.04319
 H119 H 0.19443 0.17540 -0.12133
 H120 H 0.34788 -0.00434 -0.04195
 C121 C -0.01128 0.90171 0.52094
 C122 C 0.02048 0.90681 0.54469
 C123 C 0.02252 0.84606 0.55587
 N124 N 0.07222 0.86021 0.57477
 N125 N 0.06959 0.80627 0.58743
 C126 C 0.01636 0.73612 0.58198
 N127 N -0.03356 0.72180 0.56304
 N128 N -0.03035 0.77584 0.55012
 C129 C 0.00988 0.67771 0.59768
 C130 C 0.06973 0.68798 0.61220
 H131 H 0.04322 0.95687 0.55613
 H132 H -0.04267 0.62809 0.59871
 H133 H -0.02105 0.85774 0.50780
 H134 H 0.12309 0.73509 0.60930
 C135 C 0.04594 0.03450 0.19354
 C136 C 0.10622 0.09643 0.18464
 C137 C 0.15446 0.15543 0.20292
 N138 N 0.22767 0.18285 0.20323
 N139 N 0.27067 0.22825 0.22202
 C140 C 0.24194 0.24818 0.24103
 N141 N 0.16908 0.22252 0.24029
 N142 N 0.12600 0.17641 0.22170
 C143 C 0.28748 0.29376 0.26282
 C144 C 0.35129 0.29550 0.27044
 H145 H 0.12648 0.09594 0.16619
 H146 H 0.26686 0.32119 0.27442
 H147 H 0.03478 0.03594 0.21334
 H148 H 0.36908 0.26379 0.25983
 C149 C 0.88358 -0.00183 -0.13321
 C150 C 0.82634 0.00436 -0.14333
 C151 C 0.76867 -0.00484 -0.12649
 N152 N 0.75173 0.04801 -0.12406
 N153 N 0.70932 0.04669 -0.10572
 C154 C 0.68209 -0.00780 -0.08927
 N155 N 0.69711 -0.06182 -0.09222
 N156 N 0.74021 -0.06001 -0.11033
 C157 C 0.64063 -0.00712 -0.06762
 C158 C 0.64788 0.05712 -0.05746
 H159 H 0.83230 0.03161 -0.16074
 H160 H 0.60917 -0.05732 -0.05798
 H161 H 0.87928 -0.01920 -0.11401
 H162 H 0.68268 0.10815 -0.06624
 C163 C 0.10510 -0.08582 0.14040
 C164 C 0.15368 -0.02278 0.12824
 C165 C 0.21667 -0.01651 0.11498
 N166 N 0.26638 0.04782 0.10541
 N167 N 0.32207 0.05352 0.09258
 C168 C 0.33008 -0.00499 0.08882
 N169 N 0.28052 -0.06919 0.09846
 N170 N 0.22503 -0.07482 0.11135
 C171 C 0.38763 -0.00156 0.07300
 C172 C 0.44153 0.06286 0.06298
 H173 H 0.14691 0.02383 0.12842
 H174 H 0.38433 -0.05242 0.06772
 H175 H 0.11695 -0.12930 0.14103
 H176 H 0.44664 0.11419 0.06882
 C177 C 0.80405 0.86673 0.47486
 C178 C 0.81319 0.81662 0.46037
 C179 C 0.75257 0.75481 0.44581
 N180 N 0.76352 0.70369 0.43455
 N181 N 0.71036 0.64864 0.42055
 C182 C 0.64415 0.64266 0.41723
 N183 N 0.63310 0.69370 0.42853
 N184 N 0.68622 0.74866 0.44262
 C185 C 0.58652 0.58483 0.40045
 C186 C 0.59431 0.52988 0.38897
 H187 H 0.86558 0.82037 0.45994
 H188 H 0.53849 0.58803 0.39597
 H189 H 0.74928 0.85726 0.47649
 H190 H 0.64141 0.52552 0.39391
 C191 C 0.00323 0.17460 0.81498
 C192 C 0.04884 0.24975 0.81339
 C193 C 0.03469 0.29103 0.79469
 N194 N 0.08727 0.36057 0.79062
 N195 N 0.07739 0.39753 0.77281
 C196 C 0.01438 0.36655 0.75842
 N197 N -0.03883 0.29737 0.76276
 N198 N -0.02878 0.26020 0.78052
 C199 C 0.00508 0.40585 0.73769
 C200 C 0.06497 0.46815 0.72891
 H201 H 0.09902 0.27916 0.82474
 H202 H -0.04799 0.38287 0.72812
 H203 H -0.04600 0.14712 0.80299
 H204 H 0.11851 0.48817 0.73777
 C205 C 0.89653 -0.07849 0.12303
 C206 C 0.92243 -0.01219 0.11157
 C207 C 0.87362 -0.00431 0.09349
 N208 N 0.88158 0.06180 0.08962
 N209 N 0.83303 0.06729 0.07501
 C210 C 0.77501 0.00680 0.06373
 N211 N 0.76817 -0.05878 0.06719
 N212 N 0.81633 -0.06425 0.08180
 C213 C 0.71797 0.00947 0.04861
 C214 C 0.71563 0.07254 0.04514
 H215 H 0.97398 0.03535 0.11767
 H216 H 0.67439 -0.04181 0.04031
 H217 H 0.84132 -0.12183 0.11781
 H218 H 0.75932 0.12457 0.05286
 C219 C 0.02614 0.07131 0.46149
 C220 C 0.05756 0.04376 0.44518
 C221 C 0.10836 0.09205 0.42649
 N222 N 0.16364 0.08364 0.41826
 N223 N 0.21302 0.13166 0.40310
 C224 C 0.20851 0.18949 0.39558
 N225 N 0.15239 0.19673 0.40336
 N226 N 0.10349 0.14917 0.41855
 C227 C 0.26337 0.24552 0.37986
 C228 C 0.32776 0.24868 0.37315
 H229 H 0.05095 -0.00925 0.44754
 H230 H 0.25321 0.28766 0.37394
 H231 H 0.04163 0.12774 0.45974
 H232 H 0.33867 0.20686 0.37881
 C233 C 0.00535 0.97284 0.79963
 C234 C 0.05879 0.96037 0.79001
 C235 C 0.04513 0.90370 0.77083
 N236 N 0.10296 0.90028 0.76246
 N237 N 0.09313 0.84697 0.74643
 C238 C 0.02494 0.79462 0.73817
 N239 N -0.03320 0.79817 0.74638
 N240 N -0.02334 0.85176 0.76248
 C241 C 0.01430 0.73407 0.72119
 C242 C 0.07375 0.72884 0.71351
 H243 H 0.11505 0.99377 0.79675
 H244 H -0.04076 0.69267 0.71501
 H245 H -0.04836 0.94649 0.79035
 H246 H 0.12867 0.77073 0.71964
   
