data_POSCAR
  _audit_creation_date              2014-09-24
  _audit_creation_method            'ToBaCCo'
  _symmetry_space_group_name_H-M    'P1'
  _symmetry_Int_Tables_number       1
  _symmetry_cell_setting            triclinic
  loop_
  _symmetry_equiv_pos_as_xyz
 x,y,z
_cell_length_a 25.9054
_cell_length_b 25.8705
_cell_length_c 25.9152
_cell_angle_alpha 90.376500
_cell_angle_beta 89.331600
_cell_angle_gamma 89.541000
loop_
  _atom_site_label
  _atom_site_type_symbol
  _atom_site_fract_x
  _atom_site_fract_y
  _atom_site_fract_z
C1 C -0.06753 0.50967 0.27037
 C2 C -0.01799 0.52084 0.25187
 C3 C -0.00803 0.56895 0.22985
 C4 C -0.04762 0.60607 0.22433
 C5 C -0.09749 0.59391 0.24326
 C6 C -0.10815 0.54600 0.26706
 C7 C 0.02305 0.48096 0.25333
 C8 C 0.01356 0.43148 0.23364
 C9 C 0.05247 0.39339 0.23233
 C10 C 0.10102 0.40527 0.25333
 C11 C 0.11064 0.45447 0.27473
 C12 C 0.07152 0.49232 0.27369
 H13 H -0.07299 0.47313 0.28964
 H14 H 0.03011 0.57545 0.21377
 H15 H -0.02442 0.42304 0.21893
 H16 H 0.07802 0.53022 0.29031
 H17 H -0.12812 0.62205 0.23947
 H18 H 0.13183 0.37678 0.25213
 C19 C -0.06751 0.48582 0.72714
 C20 C -0.01796 0.47719 0.74623
 C21 C -0.00461 0.42852 0.76550
 C22 C -0.04051 0.38776 0.76702
 C23 C -0.08984 0.39698 0.74588
 C24 C -0.10348 0.44577 0.72601
 C25 C 0.02008 0.51933 0.74681
 C26 C 0.00732 0.56667 0.77035
 C27 C 0.04398 0.60645 0.77430
 C28 C 0.09321 0.59799 0.75162
 C29 C 0.10660 0.55065 0.72806
 C30 C 0.06975 0.51130 0.72627
 H31 H -0.07737 0.52332 0.71147
 H32 H 0.03450 0.42291 0.77858
 H33 H -0.03032 0.57043 0.78858
 H34 H 0.07959 0.47415 0.70916
 H35 H -0.11914 0.36747 0.74714
 H36 H 0.12090 0.62900 0.75012
 C37 C 0.25538 -0.07241 0.49871
 C38 C 0.24039 -0.02173 0.51130
 C39 C 0.21930 -0.01089 0.56006
 C40 C 0.21276 -0.05037 0.59629
 C41 C 0.22929 -0.10097 0.58370
 C42 C 0.25190 -0.11283 0.53499
 C43 C 0.24605 0.01970 0.47266
 C44 C 0.22712 0.01232 0.42279
 C45 C 0.23098 0.05128 0.38527
 C46 C 0.25566 0.09779 0.39896
 C47 C 0.27634 0.10519 0.44843
 C48 C 0.27061 0.06607 0.48532
 H49 H 0.26930 -0.07961 0.45986
 H50 H 0.20628 0.02810 0.56899
 H51 H 0.20644 -0.02297 0.41472
 H52 H 0.28667 0.07085 0.52345
 H53 H 0.22703 -0.12988 0.61352
 H54 H 0.26024 0.12809 0.37078
 C55 C 0.73703 -0.07576 0.49715
 C56 C 0.75388 -0.02619 0.48395
 C57 C 0.77297 -0.01717 0.43425
 C58 C 0.77644 -0.05731 0.39779
 C59 C 0.75979 -0.10715 0.41148
 C60 C 0.73859 -0.11701 0.46107
 C61 C 0.75295 0.01611 0.52267
 C62 C 0.77535 0.00868 0.57100
 C63 C 0.77664 0.04881 0.60823
 C64 C 0.75302 0.09649 0.59575
 C65 C 0.73013 0.10430 0.54741
 C66 C 0.73062 0.06398 0.51101
 H67 H 0.72374 -0.08184 0.53635
 H68 H 0.78697 0.02097 0.42456
 H69 H 0.79088 -0.02924 0.57933
 H70 H 0.71367 0.06981 0.47344
 H71 H 0.76063 -0.13700 0.38206
 H72 H 0.75353 0.12856 0.62267
 C73 C 0.48650 0.26975 1.07155
 C74 C 0.47737 0.24782 1.02308
 C75 C 0.42941 0.22563 1.01281
 C76 C 0.39040 0.22370 1.05114
 C77 C 0.40021 0.24659 1.09955
 C78 C 0.44757 0.27044 1.10949
 C79 C 0.51730 0.24957 0.98221
 C80 C 0.56607 0.22740 0.98981
 C81 C 0.60455 0.22847 0.95069
 C82 C 0.59263 0.25386 0.90400
 C83 C 0.54374 0.27643 0.89639
 C84 C 0.50628 0.27361 0.93554
 H85 H 0.52307 0.28837 1.07884
 H86 H 0.42402 0.20754 0.97547
 H87 H 0.57382 0.21053 1.02706
 H88 H 0.46828 0.29032 0.92982
 H89 H 0.37041 0.24804 1.12919
 H90 H 0.62048 0.25507 0.87263
 C91 C 0.50490 0.73555 1.07577
 C92 C 0.51431 0.75700 1.02702
 C93 C 0.56084 0.78291 1.01747
 C94 C 0.59877 0.78786 1.05592
 C95 C 0.58850 0.76520 1.10438
 C96 C 0.54241 0.73847 1.11433
 C97 C 0.47645 0.75141 0.98493
 C98 C 0.42575 0.76996 0.99119
 C99 C 0.39092 0.76969 0.94958
 C100 C 0.40775 0.74745 0.90211
 C101 C 0.45779 0.72629 0.89608
 C102 C 0.49210 0.72974 0.93751
 H103 H 0.46960 0.71436 1.08273
 H104 H 0.56583 0.80090 0.98021
 H105 H 0.41524 0.78820 1.02758
 H106 H 0.53137 0.71557 0.93303
 H107 H 0.61726 0.76572 1.13426
 H108 H 0.38103 0.74384 0.87052
 B109 B 1.00122 1.05512 0.03471
 B110 B 1.03304 0.99999 0.05376
 B111 B 0.96660 1.00279 0.05634
 B112 B 0.94543 1.03707 0.00345
 B113 B 0.99945 1.05509 -0.03207
 B114 B 1.05355 1.03235 -0.00106
 B115 B 0.99587 0.94706 -0.03206
 B116 B 0.96330 1.00276 -0.05115
 B117 B 1.02974 0.99989 -0.05434
 B118 B 1.05131 0.96592 -0.00137
 B119 B 0.99765 0.94713 0.03425
 B120 B 0.94335 0.97026 0.00354
 B121 B 0.55598 0.49745 0.46723
 B122 B 0.50253 0.53323 0.44954
 B123 B 0.50055 0.46695 0.44762
 B124 B 0.53443 0.44340 0.49974
 B125 B 0.55707 0.49533 0.53500
 B126 B 0.53838 0.55090 0.50271
 B127 B 0.44997 0.50062 0.53775
 B128 B 0.50189 0.46408 0.55544
 B129 B 0.50610 0.53089 0.55697
 B130 B 0.47094 0.55365 0.50508
 B131 B 0.44784 0.50142 0.47135
 B132 B 0.46774 0.44594 0.50190
 C133 C 1.02394 1.24659 0.16040
 C134 C 1.05737 1.24924 0.20251
 C135 C 1.06611 1.29674 0.22655
 C136 C 1.04224 1.34190 0.20829
 C137 C 1.00841 1.33712 0.16628
 N138 N 1.00022 1.29032 0.14379
 C139 C 1.01803 1.19813 0.13103
 N140 N 0.97055 1.18054 0.11821
 C141 C 0.96407 1.13629 0.09017
 C142 C 1.00678 1.10775 0.07061
 C143 C 1.05570 1.12573 0.08609
 C144 C 1.06148 1.17013 0.11555
 H145 H 1.09143 1.29794 0.25945
 H146 H 0.98964 1.37067 0.15008
 H147 H 0.92548 1.12397 0.08397
 H148 H 1.09026 1.10385 0.08025
 H149 H 1.07667 1.21485 0.21649
 H150 H 1.09983 1.18234 0.12628
 C151 C 0.98139 0.74692 0.14756
 C152 C 1.02132 0.72259 0.17437
 C153 C 1.01180 0.67623 0.19983
 C154 C 0.96232 0.65371 0.19925
 C155 C 0.92348 0.67996 0.17177
 N156 N 0.93406 0.72468 0.14676
 C157 C 0.98916 0.79565 0.11927
 N158 N 0.95910 0.80591 0.07820
 C159 C 0.96222 0.85070 0.05145
 C160 C 0.99560 0.89104 0.06591
 C161 C 1.02779 0.87911 0.10795
 C162 C 1.02477 0.83258 0.13460
 H163 H 1.04313 0.65927 0.22134
 H164 H 0.88527 0.66410 0.16771
 H165 H 0.93596 0.85470 0.02089
 H166 H 1.05517 0.90532 0.12203
 H167 H 1.05975 0.73862 0.17520
 H168 H 1.04912 0.82659 0.16771
 C169 C 0.99290 1.24684 -0.15754
 C170 C 1.02028 1.29143 -0.14485
 C171 C 1.00997 1.33743 -0.17032
 C172 C 0.97228 1.33989 -0.20921
 C173 C 0.94717 1.29322 -0.22199
 N174 N 0.95791 1.24875 -0.19620
 C175 C 0.99856 1.19940 -0.12664
 N176 N 0.99723 1.15198 -0.14940
 C177 C 0.99998 1.10746 -0.12166
 C178 C 1.00108 1.10836 -0.06700
 C179 C 1.00542 1.15792 -0.04431
 C180 C 1.00364 1.20273 -0.07328
 H181 H 1.02980 1.37140 -0.15675
 H182 H 0.91957 1.29147 -0.25288
 H183 H 0.99899 1.07160 -0.14286
 H184 H 1.01082 1.16332 -0.00387
 H185 H 1.04874 1.29111 -0.11456
 H186 H 1.00501 1.23976 -0.05363
 C187 C 1.01143 0.74465 -0.14307
 C188 C 0.97070 0.71720 -0.16512
 C189 C 0.98121 0.67159 -0.19247
 C190 C 1.03236 0.65300 -0.19851
 C191 C 1.07178 0.68221 -0.17553
 N192 N 1.06039 0.72626 -0.14909
 C193 C 1.00419 0.79426 -0.11536
 N194 N 1.04594 0.82476 -0.10976
 C195 C 1.04389 0.87102 -0.08519
 C196 C 0.99753 0.89069 -0.06310
 C197 C 0.95373 0.85941 -0.07046
 C198 C 0.95671 0.81158 -0.09558
 H199 H 0.94912 0.65252 -0.21066
 H200 H 1.11162 0.66952 -0.17642
 H201 H 1.07821 0.89348 -0.08741
 H202 H 0.91613 0.87176 -0.05839
 H203 H 0.93130 0.73117 -0.16281
 H204 H 0.92206 0.78888 -0.09906
 C205 C 1.15691 1.02832 0.24306
 C206 C 1.16268 1.07861 0.26232
 C207 C 1.18890 1.08655 0.30824
 C208 C 1.20888 1.04430 0.33593
 C209 C 1.20397 0.99459 0.31357
 N210 N 1.17853 0.98801 0.26845
 C211 C 1.12487 1.01857 0.19764
 N212 N 1.14044 0.98442 0.16054
 C213 C 1.11240 0.97602 0.11718
 C214 C 1.06563 1.00300 0.10836
 C215 C 1.04763 1.03412 0.15000
 C216 C 1.07712 1.04294 0.19336
 H217 H 1.19017 1.12559 0.32331
 H218 H 1.22077 0.96083 0.33138
 H219 H 1.12653 0.94722 0.09035
 H220 H 1.01086 1.05358 0.14957
 H221 H 1.14605 1.11142 0.24253
 H222 H 1.06239 1.06840 0.22355
 C223 C 1.13897 0.98365 -0.25838
 C224 C 1.17460 1.01880 -0.27914
 C225 C 1.19920 1.00743 -0.32614
 C226 C 1.18839 0.96138 -0.35276
 C227 C 1.15258 0.92740 -0.33074
 N228 N 1.12913 0.93930 -0.28500
 C229 C 1.11121 0.99258 -0.20871
 N230 N 1.07063 0.96194 -0.19721
 C231 C 1.04449 0.96488 -0.15165
 C232 C 1.05915 0.99885 -0.11175
 C233 C 1.09926 1.03292 -0.12521
 C234 C 1.12572 1.02969 -0.17238
 H235 H 1.22683 1.03463 -0.34157
 H236 H 1.14243 0.89187 -0.35027
 H237 H 1.01390 0.93855 -0.14715
 H238 H 1.11220 1.06157 -0.09954
 H239 H 1.18319 1.05496 -0.26017
 H240 H 1.15779 1.05533 -0.17906
 C241 C 0.84688 0.97692 0.25183
 C242 C 0.80974 1.01107 0.27290
 C243 C 0.78563 0.99912 0.31973
 C244 C 0.79828 0.95335 0.34575
 C245 C 0.83464 0.91972 0.32281
 N246 N 0.85799 0.93242 0.27744
 C247 C 0.87639 0.98842 0.20398
 N248 N 0.92210 0.96376 0.19599
 C249 C 0.95118 0.97041 0.15278
 C250 C 0.93505 1.00259 0.11222
 C251 C 0.88922 1.03092 0.12208
 C252 C 0.85962 1.02362 0.16688
 H253 H 0.75752 1.02602 0.33599
 H254 H 0.84591 0.88431 0.34179
 H255 H 0.98747 0.95139 0.15160
 H256 H 0.87502 1.05914 0.09627
 H257 H 0.80036 1.04735 0.25466
 H258 H 0.82369 1.04478 0.17144
 C259 C 0.84961 1.02508 -0.24834
 C260 C 0.86552 0.99645 -0.29180
 C261 C 0.84163 1.00442 -0.33885
 C262 C 0.80153 1.04125 -0.34370
 C263 C 0.78789 1.07020 -0.29900
 N264 N 0.81180 1.06140 -0.25336
 C265 C 0.87425 1.01739 -0.19777
 N266 N 0.87660 1.05713 -0.16349
 C267 C 0.90152 1.05292 -0.11774
 C268 C 0.92838 1.00719 -0.10412
 C269 C 0.92192 0.96523 -0.13822
 C270 C 0.89578 0.96989 -0.18442
 H271 H 0.85673 0.98298 -0.37172
 H272 H 0.75685 1.09832 -0.29921
 H273 H 0.90300 1.08700 -0.09444
 H274 H 0.93544 0.92768 -0.12982
 H275 H 0.89714 0.96895 -0.29007
 H276 H 0.89209 0.93616 -0.20898
 C277 C 1.24957 1.14897 0.02247
 C278 C 1.27510 1.17399 -0.01801
 C279 C 1.32177 1.19852 -0.00873
 C280 C 1.34275 1.19940 0.04124
 C281 C 1.31492 1.17438 0.08085
 N282 N 1.27025 1.14948 0.07038
 C283 C 1.20158 1.12067 0.01370
 N284 N 1.19609 1.07278 0.03349
 C285 C 1.15286 1.04446 0.02636
 C286 C 1.10984 1.06360 -0.00083
 C287 C 1.11728 1.11300 -0.02275
 C288 C 1.16219 1.14124 -0.01589
 H289 H 1.34022 1.21829 -0.04057
 H290 H 1.32966 1.17218 0.11966
 H291 H 1.15395 1.00638 0.04046
 H292 H 1.09163 1.12914 -0.04956
 H293 H 1.25959 1.17374 -0.05664
 H294 H 1.16601 1.17879 -0.03373
 C295 C 0.74948 1.15632 -0.02492
 C296 C 0.74621 1.19812 -0.05890
 C297 C 0.69843 1.22178 -0.06743
 C298 C 0.65346 1.20451 -0.04175
 C299 C 0.65899 1.16202 -0.00823
 N300 N 0.70580 1.13930 -0.00127
 C301 C 0.79870 1.12903 -0.01517
 N302 N 0.79761 1.07890 -0.00052
 C303 C 0.84115 1.05094 0.00842
 C304 C 0.89102 1.07226 0.00226
 C305 C 0.89102 1.12600 -0.00661
 C306 C 0.84610 1.15404 -0.01668
 H307 H 0.69763 1.25488 -0.09269
 H308 H 0.62605 1.14505 0.01097
 H309 H 0.83524 1.01436 0.02566
 H310 H 0.92501 1.14780 -0.00387
 H311 H 0.78000 1.21210 -0.07922
 H312 H 0.84858 1.19513 -0.02384
 C313 C 1.24524 0.84324 -0.03181
 C314 C 1.26952 0.84261 -0.08034
 C315 C 1.31664 0.81664 -0.08706
 C316 C 1.34103 0.79263 -0.04499
 C317 C 1.31460 0.79408 0.00305
 N318 N 1.26807 0.81851 0.00816
 C319 C 1.19651 0.87230 -0.02328
 N320 N 1.19034 0.91941 -0.04500
 C321 C 1.14685 0.94839 -0.03796
 C322 C 1.10510 0.93128 -0.00692
 C323 C 1.11041 0.88060 0.01252
 C324 C 1.15618 0.85208 0.00621
 H325 H 1.33510 0.81820 -0.12469
 H326 H 1.33008 0.77476 0.03643
 H327 H 1.14594 0.98517 -0.05631
 H328 H 1.07893 0.86053 0.02949
 H329 H 1.25223 0.86220 -0.11275
 H330 H 1.15907 0.81357 0.02213
 C331 C 0.74045 0.86450 0.02715
 C332 C 0.71315 0.84308 -0.01408
 C333 C 0.66643 0.81820 -0.00474
 C334 C 0.64620 0.81379 0.04588
 C335 C 0.67555 0.83566 0.08608
 N336 N 0.72088 0.85987 0.07578
 C337 C 0.79044 0.89108 0.01950
 N338 N 0.82348 0.89484 0.05957
 C339 C 0.86997 0.91858 0.05550
 C340 C 0.88744 0.94007 0.00833
 C341 C 0.85157 0.93838 -0.03237
 C342 C 0.80412 0.91386 -0.02733
 H343 H 0.64789 0.80038 -0.03741
 H344 H 0.66203 0.83560 0.12566
 H345 H 0.89374 0.91815 0.08902
 H346 H 0.85766 0.95771 -0.06777
 H347 H 0.72816 0.84405 -0.05318
 H348 H 0.77790 0.91463 -0.05950
 C349 C 0.74617 0.51398 0.33549
 C350 C 0.77742 0.47303 0.31749
 C351 C 0.82491 0.48357 0.29400
 C352 C 0.84220 0.53491 0.28815
 C353 C 0.80861 0.57464 0.30566
 N354 N 0.76284 0.56321 0.32870
 C355 C 0.69676 0.50653 0.36390
 N356 N 0.67083 0.54923 0.38040
 C357 C 0.62733 0.54702 0.40973
 C358 C 0.60753 0.49960 0.42810
 C359 C 0.62999 0.45559 0.40416
 C360 C 0.67501 0.45828 0.37407
 H361 H 0.84714 0.45099 0.27934
 H362 H 0.81939 0.61485 0.30422
 H363 H 0.60693 0.58280 0.41497
 H364 H 0.61366 0.41829 0.40785
 H365 H 0.76619 0.43315 0.32146
 H366 H 0.69157 0.42277 0.35900
 C367 C 0.25121 0.48819 0.35377
 C368 C 0.22946 0.52566 0.32137
 C369 C 0.18426 0.51438 0.29466
 C370 C 0.16060 0.46596 0.29996
 C371 C 0.18395 0.42950 0.33220
 N372 N 0.22765 0.44148 0.35801
 C373 C 0.29830 0.49727 0.38457
 N374 N 0.30828 0.46470 0.42394
 C375 C 0.35174 0.46737 0.45243
 C376 C 0.39141 0.50271 0.44120
 C377 C 0.37862 0.53980 0.40360
 C378 C 0.33343 0.53686 0.37466
 H379 H 0.16769 0.54361 0.26999
 H380 H 0.16672 0.39200 0.33813
 H381 H 0.35444 0.44042 0.48266
 H382 H 0.40344 0.57079 0.39495
 H383 H 0.24610 0.56361 0.31729
 H384 H 0.32731 0.56464 0.34434
 C385 C 0.74898 0.47028 0.65721
 C386 C 0.77784 0.42524 0.64578
 C387 C 0.82541 0.41727 0.66874
 C388 C 0.84523 0.45432 0.70248
 C389 C 0.81619 0.49979 0.71172
 N390 N 0.76926 0.50653 0.68929
 C391 C 0.69724 0.47795 0.63444
 N392 N 0.67768 0.52592 0.62500
 C393 C 0.63281 0.53284 0.59840
 C394 C 0.60741 0.49055 0.57472
 C395 C 0.62290 0.44237 0.59421
 C396 C 0.66732 0.43542 0.62231
 H397 H 0.84720 0.38249 0.65931
 H398 H 0.83045 0.52949 0.73734
 H399 H 0.61726 0.57142 0.59638
 H400 H 0.60277 0.40811 0.58657
 H401 H 0.76427 0.39648 0.61874
 H402 H 0.67815 0.39669 0.63379
 C403 C 0.25674 0.52916 0.65999
 C404 C 0.25144 0.55826 0.70559
 C405 C 0.20266 0.56468 0.72819
 C406 C 0.15904 0.54263 0.70526
 C407 C 0.16634 0.51322 0.65996
 N408 N 0.21428 0.50721 0.63892
 C409 C 0.30708 0.52174 0.63383
 N410 N 0.31612 0.47734 0.60713
 C411 C 0.36004 0.46895 0.57918
 C412 C 0.39792 0.50731 0.57415
 C413 C 0.38965 0.55246 0.60437
 C414 C 0.34473 0.55999 0.63360
 H415 H 0.19924 0.58649 0.76388
 H416 H 0.13396 0.49590 0.64055
 H417 H 0.36393 0.43221 0.56149
 H418 H 0.41676 0.58351 0.60460
 H419 H 0.28460 0.57520 0.72404
 H420 H 0.33891 0.59621 0.65409
 C421 C 0.52423 0.65452 0.25522
 C422 C 0.57104 0.65180 0.22750
 C423 C 0.57673 0.67936 0.18190
 C424 C 0.53604 0.70994 0.16355
 C425 C 0.48993 0.71225 0.19266
 N426 N 0.48527 0.68503 0.23737
 C427 C 0.51678 0.62359 0.30255
 N428 N 0.48911 0.64276 0.34332
 C429 C 0.48322 0.61612 0.38825
 C430 C 0.50553 0.56648 0.39488
 C431 C 0.53196 0.54619 0.35108
 C432 C 0.53790 0.57408 0.30589
 H433 H 0.61279 0.67612 0.16051
 H434 H 0.45785 0.73583 0.17999
 H435 H 0.45899 0.63336 0.41760
 H436 H 0.54963 0.50850 0.35088
 H437 H 0.60313 0.62870 0.24102
 H438 H 0.55870 0.55660 0.27367
 C439 C 0.50150 0.64603 0.75587
 C440 C 0.51924 0.62819 0.80369
 C441 C 0.50519 0.65449 0.84899
 C442 C 0.47394 0.69908 0.84735
 C443 C 0.45812 0.71645 0.79867
 N444 N 0.47198 0.68989 0.75500
 C445 C 0.51202 0.61756 0.70659
 N446 N 0.50698 0.64258 0.66092
 C447 C 0.51038 0.61747 0.61459
 C448 C 0.51429 0.56332 0.61157
 C449 C 0.52983 0.53956 0.65775
 C450 C 0.52646 0.56528 0.70515
 H451 H 0.51808 0.63919 0.88547
 H452 H 0.43482 0.75113 0.79527
 H453 H 0.51193 0.64007 0.58068
 H454 H 0.54527 0.50091 0.65808
 H455 H 0.54373 0.59438 0.80668
 H456 H 0.53418 0.54360 0.73973
 C457 C 0.47176 0.35372 0.24952
 C458 C 0.42685 0.36297 0.22123
 C459 C 0.41856 0.33511 0.17590
 C460 C 0.45525 0.29870 0.15842
 C461 C 0.49983 0.29083 0.18755
 N462 N 0.50673 0.31792 0.23198
 C463 C 0.48131 0.38200 0.29807
 N464 N 0.45715 0.42777 0.30778
 C465 C 0.46414 0.45480 0.35220
 C466 C 0.49688 0.43648 0.39153
 C467 C 0.52208 0.38908 0.38065
 C468 C 0.51502 0.36231 0.33458
 H469 H 0.38394 0.34256 0.15403
 H470 H 0.52887 0.26292 0.17523
 H471 H 0.44502 0.49126 0.35539
 H472 H 0.54741 0.37093 0.40659
 H473 H 0.39824 0.39104 0.23424
 H474 H 0.53501 0.32584 0.32824
 C475 C 0.50588 0.35225 0.75532
 C476 C 0.49251 0.37557 0.80284
 C477 C 0.50504 0.35081 0.84868
 C478 C 0.53119 0.30313 0.84766
 C479 C 0.54410 0.28117 0.79961
 N480 N 0.53137 0.30594 0.75540
 C481 C 0.49687 0.37772 0.70506
 N482 N 0.51982 0.35717 0.66233
 C483 C 0.51886 0.38076 0.61577
 C484 C 0.49689 0.43039 0.60962
 C485 C 0.46669 0.44792 0.65225
 C486 C 0.46724 0.42274 0.69967
 H487 H 0.49504 0.36939 0.88506
 H488 H 0.56380 0.24417 0.79714
 H489 H 0.53623 0.36018 0.58466
 H490 H 0.44623 0.48398 0.65179
 H491 H 0.47371 0.41291 0.80533
 H492 H 0.44564 0.43969 0.73150
 C493 C 0.66957 0.73874 0.49287
 C494 C 0.65335 0.78285 0.52008
 C495 C 0.67720 0.82993 0.51084
 C496 C 0.71738 0.83397 0.47379
 C497 C 0.73363 0.78773 0.44876
 N498 N 0.70951 0.74212 0.45859
 C499 C 0.63827 0.69154 0.49545
 N500 N 0.65954 0.64450 0.50521
 C501 C 0.63022 0.60090 0.50786
 C502 C 0.57580 0.60261 0.50145
 C503 C 0.55683 0.65017 0.48436
 C504 C 0.58624 0.69463 0.48363
 H505 H 0.66108 0.86347 0.53041
 H506 H 0.76560 0.78740 0.42159
 H507 H 0.65023 0.56440 0.51075
 H508 H 0.52042 0.65330 0.46760
 H509 H 0.62093 0.78125 0.54680
 H510 H 0.56903 0.73071 0.47120
 C511 C 0.65795 0.24914 0.51247
 C512 C 0.70595 0.24853 0.53725
 C513 C 0.72974 0.20137 0.54820
 C514 C 0.70592 0.15476 0.53479
 C515 C 0.65817 0.15702 0.50980
 N516 N 0.63555 0.20341 0.49984
 C517 C 0.62917 0.29779 0.50318
 N518 N 0.57711 0.29600 0.49843
 C519 C 0.54725 0.33915 0.49437
 C520 C 0.56897 0.38921 0.49668
 C521 C 0.62356 0.39045 0.49686
 C522 C 0.65344 0.34570 0.50040
 H523 H 0.76675 0.20137 0.56719
 H524 H 0.63821 0.12196 0.49934
 H525 H 0.50702 0.33311 0.49004
 H526 H 0.64390 0.42671 0.49715
 H527 H 0.72446 0.28377 0.54954
 H528 H 0.69498 0.34913 0.50164
 C529 C 0.32462 0.74203 0.51013
 C530 C 0.33765 0.78381 0.47889
 C531 C 0.31251 0.83094 0.48578
 C532 C 0.27326 0.83727 0.52369
 C533 C 0.25885 0.79253 0.55151
 N534 N 0.28508 0.74704 0.54476
 C535 C 0.35989 0.69725 0.51196
 N536 N 0.34250 0.64823 0.50523
 C537 C 0.37426 0.60605 0.50411
 C538 C 0.43176 0.61230 0.51014
 C539 C 0.44878 0.66834 0.52174
 C540 C 0.41184 0.70692 0.52149
 H541 H 0.32754 0.86284 0.46374
 H542 H 0.22726 0.79335 0.57907
 H543 H 0.35654 0.56887 0.50139
 H544 H 0.44845 0.63454 0.51561
 H545 H 0.36954 0.78085 0.45154
 H546 H 0.42455 0.74597 0.52915
 C547 C 0.35729 0.24515 0.48231
 C548 C 0.32580 0.22295 0.52056
 C549 C 0.29959 0.17720 0.50975
 C550 C 0.30465 0.15341 0.46104
 C551 C 0.33699 0.17669 0.42419
 N552 N 0.36171 0.22138 0.43546
 C553 C 0.38383 0.29498 0.49003
 N554 N 0.39364 0.32463 0.44824
 C555 C 0.41746 0.37100 0.45141
 C556 C 0.43443 0.39146 0.49907
 C557 C 0.42268 0.36094 0.54276
 C558 C 0.39812 0.31328 0.53856
 H559 H 0.27442 0.16115 0.53908
 H560 H 0.34294 0.15934 0.38646
 H561 H 0.41902 0.39277 0.41671
 H562 H 0.42846 0.37438 0.58119
 H563 H 0.32004 0.24134 0.55781
 H564 H 0.39051 0.29132 0.57316
   
