data_POSCAR
  _audit_creation_date              2014-09-24
  _audit_creation_method            'ToBaCCo'
  _symmetry_space_group_name_H-M    'P1'
  _symmetry_Int_Tables_number       1
  _symmetry_cell_setting            triclinic
  loop_
  _symmetry_equiv_pos_as_xyz
 x,y,z
_cell_length_a 37.9710
_cell_length_b 37.7064
_cell_length_c 34.4714
_cell_angle_alpha 89.642400
_cell_angle_beta 90.024800
_cell_angle_gamma 89.825300
loop_
  _atom_site_label
  _atom_site_type_symbol
  _atom_site_fract_x
  _atom_site_fract_y
  _atom_site_fract_z
C1 C 1.26982 0.20864 0.27083
 C2 C 1.24493 0.22633 0.24789
 C3 C 1.21797 0.20735 0.23011
 C4 C 1.21535 0.17056 0.23517
 C5 C 1.23995 0.15295 0.25907
 C6 C 1.26752 0.17169 0.27745
 C7 C 1.24483 0.26526 0.24557
 C8 C 1.27071 0.28349 0.22455
 C9 C 1.27011 0.32095 0.22174
 C10 C 1.24308 0.33921 0.24181
 C11 C 1.21728 0.32100 0.26321
 C12 C 1.21827 0.28396 0.26459
 H13 H 1.28922 0.22453 0.28572
 H14 H 1.19920 0.22145 0.21197
 H15 H 1.28994 0.26786 0.20901
 H16 H 1.19896 0.26945 0.28147
 H17 H 1.23783 0.12450 0.26245
 H18 H 1.24228 0.36783 0.24204
 C19 C 0.77953 -0.29418 0.26607
 C20 C 0.75093 -0.27662 0.24902
 C21 C 0.72417 -0.29603 0.23146
 C22 C 0.72551 -0.33319 0.23070
 C23 C 0.75410 -0.35078 0.24860
 C24 C 0.78159 -0.33163 0.26674
 C25 C 0.74832 -0.23770 0.25079
 C26 C 0.77248 -0.21649 0.23075
 C27 C 0.77014 -0.17930 0.23214
 C28 C 0.74305 -0.16377 0.25440
 C29 C 0.71869 -0.18489 0.27508
 C30 C 0.72162 -0.22196 0.27276
 H31 H 0.79880 -0.27814 0.28095
 H32 H 0.70269 -0.28188 0.21755
 H33 H 0.79250 -0.22921 0.21325
 H34 H 0.70383 -0.23886 0.28896
 H35 H 0.75502 -0.37939 0.24740
 H36 H 0.74101 -0.13518 0.25572
 C37 C 0.77908 0.21406 -0.23592
 C38 C 0.75292 0.23389 -0.25467
 C39 C 0.72582 0.21668 -0.27444
 C40 C 0.72433 0.17950 -0.27558
 C41 C 0.75063 0.15971 -0.25609
 C42 C 0.77819 0.17680 -0.23619
 C43 C 0.75300 0.27283 -0.25254
 C44 C 0.77963 0.29248 -0.27058
 C45 C 0.77918 0.32998 -0.27018
 C46 C 0.75132 0.34686 -0.24998
 C47 C 0.72468 0.32720 -0.23141
 C48 C 0.72574 0.29014 -0.23316
 H49 H 0.79938 0.22785 -0.21993
 H50 H 0.70634 0.23257 -0.28962
 H51 H 0.79927 0.27796 -0.28677
 H52 H 0.70580 0.27443 -0.21862
 H53 H 0.74968 0.13103 -0.25635
 H54 H 0.75041 0.37539 -0.24770
 C55 C 1.27198 -0.28752 -0.22748
 C56 C 1.24368 -0.27097 -0.24627
 C57 C 1.21704 -0.29123 -0.26277
 C58 C 1.21836 -0.32826 -0.26103
 C59 C 1.24661 -0.34487 -0.24177
 C60 C 1.27385 -0.32489 -0.22437
 C61 C 1.24150 -0.23218 -0.24884
 C62 C 1.26451 -0.21350 -0.27301
 C63 C 1.26058 -0.17676 -0.27828
 C64 C 1.23366 -0.15884 -0.25820
 C65 C 1.21058 -0.17745 -0.23355
 C66 C 1.21470 -0.21425 -0.22924
 H67 H 1.29125 -0.27069 -0.21370
 H68 H 1.19584 -0.27791 -0.27815
 H69 H 1.28441 -0.22795 -0.28903
 H70 H 1.19734 -0.22912 -0.21028
 H71 H 1.24754 -0.37350 -0.24162
 H72 H 1.23048 -0.13049 -0.26206
 C73 C 0.21843 0.26530 0.72782
 C74 C 0.23609 0.23810 0.74765
 C75 C 0.21682 0.21147 0.76639
 C76 C 0.17957 0.21187 0.76659
 C77 C 0.16233 0.23975 0.74627
 C78 C 0.18146 0.26631 0.72652
 C79 C 0.27495 0.23831 0.75033
 C80 C 0.29202 0.26642 0.76878
 C81 C 0.32908 0.26703 0.77307
 C82 C 0.34850 0.23839 0.75705
 C83 C 0.33156 0.21002 0.73818
 C84 C 0.29468 0.21014 0.73549
 H85 H 0.23375 0.28524 0.71271
 H86 H 0.23145 0.19191 0.78294
 H87 H 0.27554 0.28655 0.78172
 H88 H 0.28119 0.18882 0.72074
 H89 H 0.13393 0.24064 0.74486
 H90 H 0.37693 0.23815 0.75819
 C91 C 0.71060 0.77481 0.73104
 C92 C 0.73025 0.74707 0.74695
 C93 C 0.71331 0.71857 0.76476
 C94 C 0.67629 0.71778 0.76842
 C95 C 0.65670 0.74568 0.75088
 C96 C 0.67351 0.77455 0.73209
 C97 C 0.76893 0.74884 0.74657
 C98 C 0.78586 0.77517 0.76793
 C99 C 0.82271 0.77742 0.76847
 C100 C 0.84248 0.75287 0.74685
 C101 C 0.82576 0.72639 0.72483
 C102 C 0.78878 0.72451 0.72518
 H103 H 0.72485 0.79563 0.71614
 H104 H 0.72960 0.69709 0.77554
 H105 H 0.77010 0.79329 0.78501
 H106 H 0.77519 0.70485 0.70803
 H107 H 0.62852 0.74676 0.75481
 H108 H 0.87093 0.75442 0.74716
 C109 C 0.71243 0.27900 0.23316
 C110 C 0.73202 0.25255 0.25187
 C111 C 0.71491 0.22498 0.27137
 C112 C 0.67799 0.22358 0.27247
 C113 C 0.65846 0.25013 0.25316
 C114 C 0.67549 0.27798 0.23342
 C115 C 0.77060 0.25377 0.25112
 C116 C 0.78840 0.28005 0.27164
 C117 C 0.82533 0.28123 0.27159
 C118 C 0.84415 0.25577 0.25022
 C119 C 0.82644 0.22937 0.22914
 C120 C 0.78949 0.22856 0.23003
 H121 H 0.72616 0.29978 0.21751
 H122 H 0.73056 0.20525 0.28659
 H123 H 0.77331 0.29890 0.28851
 H124 H 0.77516 0.20896 0.21352
 H125 H 0.62997 0.24919 0.25353
 H126 H 0.87264 0.25652 0.24999
 C127 C 0.21673 0.78329 0.23385
 C128 C 0.23673 0.75667 0.25164
 C129 C 0.21999 0.72877 0.27108
 C130 C 0.18288 0.72708 0.27354
 C131 C 0.16317 0.75399 0.25436
 C132 C 0.17961 0.78231 0.23421
 C133 C 0.27555 0.75792 0.24942
 C134 C 0.29395 0.78598 0.26642
 C135 C 0.33087 0.78752 0.26443
 C136 C 0.34912 0.76064 0.24445
 C137 C 0.33093 0.73267 0.22629
 C138 C 0.29400 0.73150 0.22943
 H139 H 0.23074 0.80345 0.21763
 H140 H 0.23656 0.70969 0.28597
 H141 H 0.27942 0.80609 0.28209
 H142 H 0.27923 0.71079 0.21520
 H143 H 0.13483 0.75296 0.25509
 H144 H 0.37756 0.76169 0.24292
 O145 O 1.05629 0.01527 0.04896
 O146 O 0.93471 -0.01608 0.05140
 O147 O 0.97931 0.06079 0.04672
 O148 O 1.01403 -0.06103 0.05220
 O149 O 0.92963 0.04327 0.02684
 O150 O 1.06224 -0.04444 0.02771
 O151 O 0.95389 -0.06652 0.03350
 O152 O 1.03813 0.06475 0.02694
 C153 C 1.05367 0.04759 0.05303
 C154 C 0.93675 -0.04833 0.05730
 C155 C 0.94727 0.05982 0.05133
 C156 C 1.04630 -0.05920 0.05492
 O157 O 1.05421 -0.02172 -0.04658
 O158 O 0.93484 0.01733 -0.04654
 O159 O 1.01626 0.05650 -0.04910
 O160 O 0.97445 -0.06301 -0.04263
 O161 O 0.92660 -0.04143 -0.02166
 O162 O 1.06417 0.03751 -0.02584
 O163 O 1.03365 -0.07021 -0.02444
 O164 O 0.95730 0.06617 -0.02881
 Co165 Co 1.05280 -0.00313 0.00115
 Co166 Co 0.93784 0.00059 0.00244
 Co167 Co 0.99758 0.05591 -0.00089
 Co168 Co 0.99421 -0.05903 0.00449
 O169 O 0.99554 -0.00143 0.00180
 C170 C 1.04985 -0.05385 -0.05063
 C171 C 0.93941 0.04919 -0.05284
 C172 C 1.04837 0.05341 -0.05249
 C173 C 0.94249 -0.05922 -0.04661
 O174 O 1.06709 0.51497 0.54845
 O175 O 0.94554 0.48588 0.55015
 O176 O 0.98815 0.56127 0.54600
 O177 O 1.02513 0.43960 0.54952
 O178 O 0.93925 0.54477 0.52378
 O179 O 1.07346 0.45554 0.52500
 O180 O 0.96503 0.43525 0.53278
 O181 O 1.04742 0.56482 0.52835
 C182 C 1.06305 0.54702 0.55393
 C183 C 0.94845 0.45379 0.55679
 C184 C 0.95596 0.56102 0.54912
 C185 C 1.05746 0.43981 0.55153
 O186 O 1.06555 0.48047 0.45183
 O187 O 0.94574 0.51758 0.45172
 O188 O 1.02779 0.55809 0.45129
 O189 O 0.98407 0.43915 0.45542
 O190 O 0.93667 0.45932 0.47832
 O191 O 1.07553 0.53954 0.47518
 O192 O 1.04336 0.43185 0.47220
 O193 O 0.96846 0.56667 0.46886
 Co194 Co 1.06377 0.49786 0.50015
 Co195 Co 0.94839 0.50168 0.50095
 Co196 Co 1.00779 0.55680 0.49876
 Co197 Co 1.00456 0.44240 0.50234
 O198 O 1.00610 0.49968 0.50054
 C199 C 1.06020 0.44856 0.44672
 C200 C 0.95058 0.54936 0.44498
 C201 C 1.06002 0.55613 0.44884
 C202 C 0.95200 0.44236 0.45245
 O203 O 0.56486 0.02151 0.54634
 O204 O 0.41018 -0.02966 0.51277
 O205 O 0.46881 0.06134 0.53633
 O206 O 0.51614 -0.05732 0.55573
 O207 O 0.44742 0.01024 0.55394
 O208 O 0.56588 -0.04342 0.53157
 O209 O 0.45504 -0.05422 0.54174
 O210 O 0.53326 0.06748 0.52756
 C211 C 0.55625 0.05341 0.54993
 C212 C 0.42213 -0.05490 0.53474
 C213 C 0.45321 0.04234 0.56130
 C214 C 0.54856 -0.05729 0.55833
 O215 O 0.56287 -0.02780 0.45792
 O216 O 0.42162 0.03507 0.49204
 O217 O 0.52250 0.05574 0.44978
 O218 O 0.46948 -0.06541 0.46505
 O219 O 0.44520 -0.01560 0.45187
 O220 O 0.57043 0.03613 0.47367
 O221 O 0.53199 -0.07258 0.47923
 O222 O 0.46313 0.05094 0.45672
 Co223 Co 0.55977 -0.00332 0.50220
 Co224 Co 0.44873 -0.00383 0.50297
 Co225 Co 0.49703 0.05421 0.49357
 Co226 Co 0.49389 -0.05707 0.50946
 O227 O 0.50194 -0.00087 0.50104
 C228 C 0.55395 -0.05945 0.45527
 C229 C 0.43136 0.05335 0.46426
 C230 C 0.55476 0.05361 0.44829
 C231 C 0.45197 -0.04658 0.44216
 O232 O 0.55958 0.51360 0.04773
 O233 O 0.43859 0.48013 0.04746
 O234 O 0.48267 0.55772 0.04823
 O235 O 0.51574 0.43567 0.04679
 O236 O 0.43297 0.54041 0.02772
 O237 O 0.56471 0.45437 0.02563
 O238 O 0.45636 0.43081 0.02557
 O239 O 0.54169 0.56359 0.02718
 C240 C 0.55773 0.54588 0.05240
 C241 C 0.44027 0.44769 0.05116
 C242 C 0.45053 0.55685 0.05256
 C243 C 0.54775 0.43854 0.05140
 O244 O 0.55827 0.47840 -0.04879
 O245 O 0.43921 0.51871 -0.04799
 O246 O 0.51877 0.55832 -0.04811
 O247 O 0.47897 0.43836 -0.04924
 O248 O 0.43062 0.45896 -0.02813
 O249 O 0.56684 0.53717 -0.02695
 O250 O 0.53796 0.42934 -0.02853
 O251 O 0.45996 0.56671 -0.02621
 Co252 Co 0.55615 0.49606 -0.00058
 Co253 Co 0.44164 0.49938 -0.00025
 Co254 Co 0.50062 0.55527 0.00015
 Co255 Co 0.49746 0.43987 -0.00124
 O256 O 0.49896 0.49764 -0.00049
 C257 C 0.55492 0.44628 -0.05355
 C258 C 0.44317 0.55090 -0.05194
 C259 C 0.55066 0.55411 -0.05262
 C260 C 0.44688 0.44140 -0.05319
 C261 C 1.13702 0.11706 0.16853
 C262 C 1.12816 0.14857 0.18769
 C263 C 1.15330 0.16533 0.21060
 C264 C 1.18725 0.15085 0.21457
 C265 C 1.19446 0.11840 0.19644
 N266 N 1.16959 0.10268 0.17405
 C267 C 1.11257 0.09964 0.14129
 N268 N 1.11629 0.06427 0.13477
 C269 C 1.09673 0.04691 0.10794
 C270 C 1.07234 0.06555 0.08488
 C271 C 1.06770 0.10192 0.09140
 C272 C 1.08766 0.11905 0.11961
 H273 H 1.14630 0.18984 0.22493
 H274 H 1.22026 0.10629 0.19864
 H275 H 1.10115 0.01881 0.10381
 H276 H 1.04920 0.11723 0.07414
 H277 H 1.10222 0.16027 0.18500
 H278 H 1.08458 0.14738 0.12311
 C279 C 1.14192 0.61526 0.67310
 C280 C 1.13113 0.64430 0.69539
 C281 C 1.15576 0.66190 0.71819
 C282 C 1.19109 0.65073 0.71870
 C283 C 1.20036 0.62056 0.69732
 N284 N 1.17592 0.60394 0.67526
 C285 C 1.11808 0.59763 0.64567
 N286 N 1.12405 0.56300 0.63696
 C287 C 1.10559 0.54591 0.60908
 C288 C 1.08023 0.56425 0.58708
 C289 C 1.07319 0.59979 0.59595
 C290 C 1.09192 0.61655 0.62538
 H291 H 1.14728 0.68452 0.73502
 H292 H 1.22728 0.61110 0.69663
 H293 H 1.11178 0.51843 0.60314
 H294 H 1.05384 0.61482 0.57956
 H295 H 1.10409 0.65348 0.69506
 H296 H 1.08714 0.64440 0.63078
 C297 C 0.64405 0.12999 0.65597
 C298 C 0.63596 0.16101 0.67635
 C299 C 0.66179 0.17667 0.69948
 C300 C 0.69581 0.16180 0.70203
 C301 C 0.70248 0.13047 0.68150
 N302 N 0.67684 0.11561 0.65952
 C303 C 0.61816 0.11168 0.63116
 N304 N 0.62224 0.07624 0.62614
 C305 C 0.60160 0.05732 0.60190
 C306 C 0.57527 0.07418 0.57968
 C307 C 0.56992 0.11070 0.58483
 C308 C 0.59126 0.12957 0.61073
 H309 H 0.65499 0.20029 0.71553
 H310 H 0.72825 0.11818 0.68202
 H311 H 0.60672 0.02919 0.59920
 H312 H 0.55002 0.12472 0.56820
 H313 H 0.60992 0.17271 0.67503
 H314 H 0.58765 0.15793 0.61345
 C315 C 0.64633 0.61326 0.16483
 C316 C 0.63673 0.64197 0.18827
 C317 C 0.66226 0.65857 0.21084
 C318 C 0.69745 0.64687 0.21004
 C319 C 0.70559 0.61714 0.18734
 N320 N 0.68023 0.60140 0.16558
 C321 C 0.62093 0.59615 0.13841
 N322 N 0.62545 0.56133 0.12948
 C323 C 0.60461 0.54446 0.10342
 C324 C 0.57797 0.56312 0.08363
 C325 C 0.57260 0.59895 0.09257
 C326 C 0.59387 0.61551 0.12009
 H327 H 0.65449 0.68076 0.22873
 H328 H 0.73230 0.60722 0.18560
 H329 H 0.60971 0.51680 0.09725
 H330 H 0.55241 0.61427 0.07783
 H331 H 0.60984 0.65153 0.18922
 H332 H 0.59004 0.64346 0.12569
 C333 C 0.84331 -0.11733 0.16513
 C334 C 0.80851 -0.10530 0.16974
 C335 C 0.78482 -0.12517 0.19191
 C336 C 0.79558 -0.15698 0.20980
 C337 C 0.83083 -0.16776 0.20483
 N338 N 0.85329 -0.14818 0.18270
 C339 C 0.86877 -0.09832 0.13994
 N340 N 0.89388 -0.11721 0.12071
 C341 C 0.91677 -0.10174 0.09538
 C342 C 0.91508 -0.06510 0.08807
 C343 C 0.89033 -0.04496 0.10879
 C344 C 0.86718 -0.06141 0.13462
 H345 H 0.75782 -0.11611 0.19400
 H346 H 0.84062 -0.19173 0.21850
 H347 H 0.93567 -0.11821 0.08031
 H348 H 0.88822 -0.01657 0.10429
 H349 H 0.79922 -0.08149 0.15530
 H350 H 0.84822 -0.04535 0.15009
 C351 C 0.85628 0.38803 0.66727
 C352 C 0.82382 0.40388 0.67585
 C353 C 0.79866 0.38504 0.69688
 C354 C 0.80533 0.35002 0.70977
 C355 C 0.83875 0.33551 0.70080
 N356 N 0.86267 0.35443 0.67995
 C357 C 0.88259 0.40593 0.64235
 N358 N 0.90424 0.38588 0.61979
 C359 C 0.92691 0.40054 0.59372
 C360 C 0.92824 0.43749 0.58885
 C361 C 0.90744 0.45867 0.61320
 C362 C 0.88473 0.44304 0.64000
 H363 H 0.77334 0.39766 0.70074
 H364 H 0.84658 0.30951 0.71093
 H365 H 0.94283 0.38327 0.57585
 H366 H 0.90797 0.48732 0.61079
 H367 H 0.81708 0.43002 0.66500
 H368 H 0.86879 0.45992 0.65825
 C369 C 0.32637 -0.12519 0.63809
 C370 C 0.29070 -0.11548 0.64100
 C371 C 0.26939 -0.13188 0.66866
 C372 C 0.28347 -0.15769 0.69373
 C373 C 0.31942 -0.16600 0.69056
 N374 N 0.33964 -0.14976 0.66328
 C375 C 0.35033 -0.10877 0.60933
 N376 N 0.38570 -0.10997 0.61593
 C377 C 0.40932 -0.09436 0.59167
 C378 C 0.39759 -0.07582 0.55871
 C379 C 0.36144 -0.07540 0.55051
 C380 C 0.33777 -0.09198 0.57553
 H381 H 0.24175 -0.12482 0.66990
 H382 H 0.33148 -0.18534 0.70976
 H383 H 0.43706 -0.09550 0.59885
 H384 H 0.35139 -0.06183 0.52501
 H385 H 0.27919 -0.09524 0.62258
 H386 H 0.31009 -0.09152 0.56821
 C387 C 0.34619 0.37715 0.15588
 C388 C 0.31341 0.39270 0.16336
 C389 C 0.28839 0.37416 0.18478
 C390 C 0.29558 0.33982 0.19940
 C391 C 0.32895 0.32514 0.19051
 N392 N 0.35284 0.34383 0.16929
 C393 C 0.37284 0.39572 0.13214
 N394 N 0.39428 0.37667 0.10835
 C395 C 0.41733 0.39253 0.08352
 C396 C 0.41931 0.42967 0.08146
 C397 C 0.39868 0.44965 0.10710
 C398 C 0.37553 0.43282 0.13246
 H399 H 0.26290 0.38660 0.18799
 H400 H 0.33695 0.29944 0.20139
 H401 H 0.43313 0.37617 0.06455
 H402 H 0.39969 0.47836 0.10684
 H403 H 0.30657 0.41853 0.15171
 H404 H 0.35965 0.44877 0.15177
 C405 C 0.85482 0.12084 -0.16762
 C406 C 0.86521 0.15037 -0.18976
 C407 C 0.84052 0.16790 -0.21303
 C408 C 0.80542 0.15623 -0.21441
 C409 C 0.79650 0.12573 -0.19300
 N410 N 0.82101 0.10917 -0.17041
 C411 C 0.87923 0.10256 -0.14046
 N412 N 0.87326 0.06795 -0.13121
 C413 C 0.89305 0.05005 -0.10463
 C414 C 0.92024 0.06736 -0.08467
 C415 C 0.92715 0.10292 -0.09399
 C416 C 0.90683 0.12057 -0.12190
 H417 H 0.84888 0.19072 -0.22984
 H418 H 0.76981 0.11579 -0.19299
 H419 H 0.88675 0.02265 -0.09823
 H420 H 0.94779 0.11726 -0.07917
 H421 H 0.89206 0.15986 -0.18928
 H422 H 0.91187 0.14833 -0.12760
 C423 C 0.86314 0.61838 0.33112
 C424 C 0.86907 0.65168 0.31415
 C425 C 0.84259 0.66773 0.29208
 C426 C 0.80983 0.65087 0.28634
 C427 C 0.80601 0.61647 0.30222
 N428 N 0.83210 0.60169 0.32406
 C429 C 0.88893 0.60120 0.35760
 N430 N 0.88638 0.56566 0.36419
 C431 C 0.90697 0.54835 0.39046
 C432 C 0.93145 0.56714 0.41288
 C433 C 0.93514 0.60363 0.40607
 C434 C 0.91399 0.62076 0.37854
 H435 H 0.84851 0.69309 0.27882
 H436 H 0.78166 0.60194 0.29970
 H437 H 0.90326 0.52014 0.39474
 H438 H 0.95359 0.61913 0.42285
 H439 H 0.89388 0.66532 0.31754
 H440 H 0.91633 0.64918 0.37517
 C441 C 0.33735 0.12182 0.35655
 C442 C 0.34867 0.15137 0.33523
 C443 C 0.32583 0.16762 0.30887
 C444 C 0.29153 0.15438 0.30296
 C445 C 0.28176 0.12392 0.32439
 N446 N 0.30437 0.10902 0.35043
 C447 C 0.36078 0.10455 0.38539
 N448 N 0.39608 0.11077 0.38426
 C449 C 0.41890 0.09523 0.40957
 C450 C 0.40646 0.07200 0.43835
 C451 C 0.37014 0.06561 0.44052
 C452 C 0.34726 0.08164 0.41393
 H453 H 0.33576 0.18993 0.29236
 H454 H 0.25562 0.11285 0.32226
 H455 H 0.44674 0.10086 0.40700
 H456 H 0.35953 0.04773 0.46222
 H457 H 0.37484 0.16211 0.33911
 H458 H 0.31932 0.07622 0.41577
 C459 C 0.35547 0.62521 -0.16034
 C460 C 0.36135 0.65871 -0.17679
 C461 C 0.33468 0.67504 -0.19836
 C462 C 0.30183 0.65824 -0.20384
 C463 C 0.29777 0.62408 -0.18742
 N464 N 0.32412 0.60895 -0.16647
 C465 C 0.38168 0.60702 -0.13559
 N466 N 0.37952 0.57117 -0.13167
 C467 C 0.40021 0.55259 -0.10667
 C468 C 0.42421 0.57034 -0.08277
 C469 C 0.42762 0.60719 -0.08694
 C470 C 0.40644 0.62566 -0.11337
 H471 H 0.34065 0.70036 -0.21166
 H472 H 0.27322 0.60981 -0.18907
 H473 H 0.39683 0.52415 -0.10446
 H474 H 0.44582 0.62184 -0.06895
 H475 H 0.38635 0.67205 -0.17361
 H476 H 0.40838 0.65424 -0.11488
 C477 C 1.13197 -0.12558 -0.16542
 C478 C 1.12403 -0.15800 -0.18311
 C479 C 1.14930 -0.17445 -0.20625
 C480 C 1.18245 -0.15876 -0.21182
 C481 C 1.18878 -0.12568 -0.19482
 N482 N 1.16380 -0.11025 -0.17228
 C483 C 1.10740 -0.10786 -0.13856
 N484 N 1.11055 -0.07228 -0.13341
 C485 C 1.09121 -0.05437 -0.10684
 C486 C 1.06763 -0.07260 -0.08257
 C487 C 1.06335 -0.10917 -0.08780
 C488 C 1.08313 -0.12691 -0.11583
 H489 H 1.14293 -0.19950 -0.21969
 H490 H 1.21395 -0.11266 -0.19820
 H491 H 1.09528 -0.02612 -0.10381
 H492 H 1.04546 -0.12416 -0.06959
 H493 H 1.09866 -0.17052 -0.17929
 H494 H 1.08050 -0.15537 -0.11829
 C495 C 1.14062 0.37556 0.33162
 C496 C 1.13060 0.34521 0.31106
 C497 C 1.15535 0.32785 0.28800
 C498 C 1.19003 0.34057 0.28543
 C499 C 1.19860 0.37156 0.30566
 N500 N 1.17406 0.38796 0.32790
 C501 C 1.11644 0.39411 0.35819
 N502 N 1.12217 0.42904 0.36541
 C503 C 1.10329 0.44730 0.39210
 C504 C 1.07754 0.43001 0.41438
 C505 C 1.07062 0.39418 0.40695
 C506 C 1.08993 0.37614 0.37877
 H507 H 1.14737 0.30449 0.27220
 H508 H 1.22504 0.38216 0.30491
 H509 H 1.10943 0.47495 0.39689
 H510 H 1.05098 0.37991 0.42358
 H511 H 1.10401 0.33507 0.31255
 H512 H 1.08520 0.34814 0.37457
 C513 C 0.64036 -0.13794 0.34889
 C514 C 0.63247 -0.16946 0.32942
 C515 C 0.65769 -0.18452 0.30486
 C516 C 0.69093 -0.16855 0.29999
 C517 C 0.69756 -0.13706 0.32020
 N518 N 0.67247 -0.12275 0.34345
 C519 C 0.61479 -0.11952 0.37417
 N520 N 0.61794 -0.08384 0.37752
 C521 C 0.59758 -0.06452 0.40174
 C522 C 0.57251 -0.08110 0.42576
 C523 C 0.56805 -0.11791 0.42236
 C524 C 0.58909 -0.13726 0.39639
 H525 H 0.65093 -0.20840 0.28932
 H526 H 0.72281 -0.12400 0.31818
 H527 H 0.60195 -0.03619 0.40294
 H528 H 0.54912 -0.13173 0.44037
 H529 H 0.60693 -0.18186 0.33233
 H530 H 0.58621 -0.16576 0.39491
 C531 C 0.64407 0.37705 -0.16388
 C532 C 0.63563 0.34742 -0.18638
 C533 C 0.66167 0.33165 -0.20912
 C534 C 0.69617 0.34512 -0.20930
 C535 C 0.70320 0.37528 -0.18693
 N536 N 0.67737 0.39024 -0.16520
 C537 C 0.61813 0.39432 -0.13828
 N538 N 0.62200 0.42942 -0.13059
 C539 C 0.60099 0.44675 -0.10510
 C540 C 0.57481 0.42833 -0.08455
 C541 C 0.56991 0.39222 -0.09236
 C542 C 0.59141 0.37513 -0.11938
 H543 H 0.65476 0.30897 -0.22663
 H544 H 0.72939 0.38643 -0.18573
 H545 H 0.60570 0.47463 -0.09992
 H546 H 0.55005 0.37710 -0.07701
 H547 H 0.60921 0.33673 -0.18678
 H548 H 0.58809 0.34699 -0.12407
 C549 C 1.12420 0.13598 -0.16567
 C550 C 1.15720 0.12727 -0.18116
 C551 C 1.17506 0.15191 -0.20414
 C552 C 1.16036 0.18562 -0.21231
 C553 C 1.12624 0.19232 -0.19761
 N554 N 1.10964 0.16795 -0.17488
 C555 C 1.10514 0.11196 -0.13866
 N556 N 1.06969 0.11594 -0.13429
 C557 C 1.05081 0.09655 -0.10822
 C558 C 1.06778 0.07191 -0.08381
 C559 C 1.10419 0.06701 -0.08812
 C560 C 1.12293 0.08689 -0.11542
 H561 H 1.20005 0.14377 -0.21626
 H562 H 1.11333 0.21760 -0.20190
 H563 H 1.02275 0.10123 -0.10576
 H564 H 1.11832 0.04839 -0.06976
 H565 H 1.16917 0.10161 -0.17601
 H566 H 1.15118 0.08350 -0.11698
 C567 C 1.13355 0.64693 0.34146
 C568 C 1.16688 0.64059 0.32550
 C569 C 1.18292 0.66669 0.30269
 C570 C 1.16607 0.69956 0.29533
 C571 C 1.13205 0.70408 0.31130
 N572 N 1.11718 0.67825 0.33351
 C573 C 1.11560 0.62091 0.36710
 N574 N 1.07992 0.62263 0.37059
 C575 C 1.06162 0.60127 0.39522
 C576 C 1.07940 0.57677 0.41909
 C577 C 1.11613 0.57416 0.41573
 C578 C 1.13431 0.59608 0.38978
 H579 H 1.20808 0.66018 0.28989
 H580 H 1.11766 0.72867 0.30821
 H581 H 1.03330 0.60425 0.39694
 H582 H 1.13085 0.55574 0.43376
 H583 H 1.18035 0.61557 0.32991
 H584 H 1.16274 0.59441 0.38874
 C585 C 0.62772 0.14326 0.34067
 C586 C 0.65811 0.13463 0.31961
 C587 C 0.67410 0.16056 0.29662
 C588 C 0.66008 0.19509 0.29482
 C589 C 0.62927 0.20230 0.31586
 N590 N 0.61410 0.17657 0.33782
 C591 C 0.60987 0.11745 0.36608
 N592 N 0.57465 0.12118 0.37183
 C593 C 0.55650 0.10017 0.39677
 C594 C 0.57410 0.07408 0.41866
 C595 C 0.61039 0.06945 0.41302
 C596 C 0.62838 0.09099 0.38656
 H597 H 0.69734 0.15351 0.28016
 H598 H 0.61770 0.22855 0.31582
 H599 H 0.52852 0.10470 0.40031
 H600 H 0.62488 0.04965 0.42946
 H601 H 0.66915 0.10814 0.32045
 H602 H 0.65657 0.08784 0.38339
 C603 C 0.62618 0.63879 -0.16325
 C604 C 0.66163 0.64692 -0.15677
 C605 C 0.67812 0.67250 -0.17956
 C606 C 0.65967 0.69061 -0.20932
 C607 C 0.62398 0.68132 -0.21479
 N608 N 0.60848 0.65629 -0.19191
 C609 C 0.60695 0.61379 -0.13768
 N610 N 0.57158 0.61799 -0.13302
 C611 C 0.55272 0.59809 -0.10743
 C612 C 0.56969 0.57262 -0.08407
 C613 C 0.60578 0.56670 -0.08967
 C614 C 0.62443 0.58700 -0.11658
 H615 H 0.70483 0.67925 -0.17180
 H616 H 0.60834 0.69310 -0.23769
 H617 H 0.52479 0.60316 -0.10433
 H618 H 0.61972 0.54684 -0.07274
 H619 H 0.67633 0.63496 -0.13318
 H620 H 0.65225 0.58188 -0.12036
 C621 C 0.87166 -0.14538 -0.15874
 C622 C 0.84110 -0.13618 -0.17940
 C623 C 0.82556 -0.16105 -0.20379
 C624 C 0.84025 -0.19513 -0.20758
 C625 C 0.87129 -0.20290 -0.18705
 N626 N 0.88595 -0.17821 -0.16357
 C627 C 0.88898 -0.12067 -0.13173
 N628 N 0.92404 -0.12476 -0.12494
 C629 C 0.94168 -0.10462 -0.09893
 C630 C 0.92372 -0.07899 -0.07707
 C631 C 0.88761 -0.07401 -0.08374
 C632 C 0.87013 -0.09472 -0.11115
 H633 H 0.80214 -0.15355 -0.21980
 H634 H 0.88341 -0.22884 -0.18873
 H635 H 0.96955 -0.10937 -0.09468
 H636 H 0.87284 -0.05457 -0.06738
 H637 H 0.82951 -0.11002 -0.17718
 H638 H 0.84206 -0.09126 -0.11504
 C639 C 0.87781 0.35786 0.34186
 C640 C 0.84721 0.36775 0.32165
 C641 C 0.83047 0.34302 0.29808
 C642 C 0.84401 0.30844 0.29471
 C643 C 0.87512 0.29997 0.31478
 N644 N 0.89097 0.32453 0.33746
 C645 C 0.89618 0.38230 0.36821
 N646 N 0.93129 0.37755 0.37419
 C647 C 0.94975 0.39731 0.39986
 C648 C 0.93258 0.42309 0.42221
 C649 C 0.89646 0.42876 0.41632
 C650 C 0.87816 0.40851 0.38923
 H651 H 0.80703 0.35102 0.28239
 H652 H 0.88637 0.27362 0.31341
 H653 H 0.97760 0.39208 0.40355
 H654 H 0.88232 0.44839 0.43308
 H655 H 0.83650 0.39430 0.32363
 H656 H 0.85008 0.41245 0.38597
 C657 C 0.38545 -0.12985 0.32508
 C658 C 0.35479 -0.12156 0.30392
 C659 C 0.33731 -0.14832 0.28364
 C660 C 0.35026 -0.18328 0.28401
 C661 C 0.38154 -0.19014 0.30442
 N662 N 0.39785 -0.16380 0.32422
 C663 C 0.40416 -0.10390 0.35009
 N664 N 0.43548 -0.11407 0.36590
 C665 C 0.45266 -0.09446 0.39278
 C666 C 0.43795 -0.06269 0.40633
 C667 C 0.40668 -0.05046 0.38914
 C668 C 0.38963 -0.07098 0.36106
 H669 H 0.31365 -0.14163 0.26762
 H670 H 0.39246 -0.21666 0.30580
 H671 H 0.47692 -0.10473 0.40505
 H672 H 0.39430 -0.02626 0.39914
 H673 H 0.34413 -0.09499 0.30288
 H674 H 0.36460 -0.06177 0.34996
 C675 C 0.37711 0.34858 -0.16076
 C676 C 0.34466 0.35494 -0.17883
 C677 C 0.32930 0.32851 -0.20138
 C678 C 0.34583 0.29513 -0.20623
 C679 C 0.37921 0.29071 -0.18861
 N680 N 0.39347 0.31693 -0.16669
 C681 C 0.39410 0.37507 -0.13512
 N682 N 0.42961 0.37352 -0.12999
 C683 C 0.44696 0.39542 -0.10537
 C684 C 0.42836 0.42039 -0.08315
 C685 C 0.39177 0.42282 -0.08821
 C686 C 0.37456 0.40032 -0.11418
 H687 H 0.30486 0.33512 -0.21581
 H688 H 0.39345 0.26594 -0.19016
 H689 H 0.47521 0.39250 -0.10234
 H690 H 0.37641 0.44151 -0.07147
 H691 H 0.33137 0.38023 -0.17620
 H692 H 0.34620 0.40189 -0.11658
 C693 C 1.12250 -0.14174 0.16804
 C694 C 1.15510 -0.13258 0.18409
 C695 C 1.17349 -0.15726 0.20662
 C696 C 1.15970 -0.19144 0.21378
 C697 C 1.12585 -0.19860 0.19867
 N698 N 1.10873 -0.17416 0.17635
 C699 C 1.10321 -0.11773 0.14117
 N700 N 1.06779 -0.12177 0.13673
 C701 C 1.04881 -0.10238 0.11062
 C702 C 1.06568 -0.07777 0.08626
 C703 C 1.10204 -0.07283 0.09065
 C704 C 1.12086 -0.09265 0.11800
 H705 H 1.19818 -0.14886 0.21917
 H706 H 1.11365 -0.22425 0.20217
 H707 H 1.02079 -0.10707 0.10807
 H708 H 1.11608 -0.05419 0.07235
 H709 H 1.16638 -0.10657 0.17960
 H710 H 1.14909 -0.08926 0.11966
 C711 C 1.12977 0.34693 0.65831
 C712 C 1.16020 0.35545 0.67936
 C713 C 1.17661 0.32946 0.70216
 C714 C 1.16304 0.29481 0.70396
 C715 C 1.13211 0.28769 0.68299
 N716 N 1.11652 0.31350 0.66114
 C717 C 1.11179 0.37310 0.63279
 N718 N 1.07650 0.36997 0.62672
 C719 C 1.05849 0.39183 0.60218
 C720 C 1.07626 0.41824 0.58104
 C721 C 1.11260 0.42211 0.58695
 C722 C 1.13041 0.39977 0.61292
 H723 H 1.19983 0.33659 0.71856
 H724 H 1.12076 0.26141 0.68302
 H725 H 1.03049 0.38780 0.59831
 H726 H 1.12729 0.44205 0.57109
 H727 H 1.17102 0.38196 0.67867
 H728 H 1.15860 0.40257 0.61624
 C729 C 0.61862 -0.14473 0.67138
 C730 C 0.65118 -0.13716 0.68841
 C731 C 0.66870 -0.16336 0.70956
 C732 C 0.65403 -0.19749 0.71429
 C733 C 0.61996 -0.20289 0.69904
 N734 N 0.60372 -0.17700 0.67790
 C735 C 0.60091 -0.11929 0.64492
 N736 N 0.56543 -0.12148 0.63978
 C737 C 0.54791 -0.10081 0.61363
 C738 C 0.56645 -0.07687 0.58993
 C739 C 0.60292 -0.07384 0.59510
 C740 C 0.62021 -0.09489 0.62251
 H741 H 0.69354 -0.15630 0.72274
 H742 H 0.60705 -0.22833 0.70132
 H743 H 0.51974 -0.10405 0.61044
 H744 H 0.61820 -0.05580 0.57730
 H745 H 0.66321 -0.11131 0.68546
 H746 H 0.64856 -0.09305 0.62474
 C747 C 0.61916 0.35529 0.16652
 C748 C 0.64850 0.36583 0.18827
 C749 C 0.66629 0.34086 0.21100
 C750 C 0.65501 0.30542 0.21207
 C751 C 0.62474 0.29635 0.19099
 N752 N 0.60791 0.32113 0.16899
 C753 C 0.60083 0.37977 0.13974
 N754 N 0.56623 0.37403 0.13170
 C755 C 0.54837 0.39354 0.10489
 C756 C 0.56579 0.41990 0.08342
 C757 C 0.60130 0.42663 0.09156
 C758 C 0.61889 0.40674 0.11981
 H759 H 0.68895 0.34926 0.22762
 H760 H 0.61517 0.26935 0.19075
 H761 H 0.52096 0.38752 0.09941
 H762 H 0.61564 0.44673 0.07554
 H763 H 0.65763 0.39299 0.18781
 H764 H 0.64664 0.41144 0.12465
 C765 C 0.88200 0.15429 0.15927
 C766 C 0.89491 0.18895 0.16271
 C767 C 0.87698 0.21331 0.18565
 C768 C 0.84632 0.20324 0.20553
 C769 C 0.83441 0.16815 0.20145
 N770 N 0.85212 0.14499 0.17848
 C771 C 0.89950 0.12829 0.13397
 N772 N 0.87969 0.10489 0.11343
 C773 C 0.89430 0.08185 0.08776
 C774 C 0.93083 0.08174 0.08167
 C775 C 0.95174 0.10464 0.10383
 C776 C 0.93621 0.12793 0.12987
 H777 H 0.88667 0.24024 0.18696
 H778 H 0.81115 0.15903 0.21657
 H779 H 0.87735 0.06427 0.07158
 H780 H 0.98009 0.10519 0.10038
 H781 H 0.91803 0.19752 0.14689
 H782 H 0.95276 0.14557 0.14647
 C783 C 0.88529 0.65414 0.65491
 C784 C 0.89700 0.68913 0.65938
 C785 C 0.87770 0.71258 0.68218
 C786 C 0.84682 0.70131 0.70092
 C787 C 0.83607 0.66598 0.69568
 N788 N 0.85514 0.64371 0.67291
 C789 C 0.90433 0.62891 0.62983
 N790 N 0.88581 0.60462 0.60908
 C791 C 0.90171 0.58196 0.58393
 C792 C 0.93834 0.58305 0.57864
 C793 C 0.95798 0.60697 0.60087
 C794 C 0.94111 0.62995 0.62636
 H795 H 0.88656 0.73975 0.68432
 H796 H 0.81270 0.65591 0.70984
 H797 H 0.88570 0.56358 0.56766
 H798 H 0.98633 0.60849 0.59796
 H799 H 0.92027 0.69866 0.64453
 H800 H 0.95673 0.64830 0.64311
 C801 C 0.38790 0.12756 0.67861
 C802 C 0.35836 0.11883 0.70133
 C803 C 0.34060 0.14550 0.72160
 C804 C 0.35215 0.18086 0.71974
 C805 C 0.38258 0.18817 0.69807
 N806 N 0.39913 0.16188 0.67822
 C807 C 0.40644 0.10162 0.65317
 N808 N 0.43626 0.11259 0.63483
 C809 C 0.45302 0.09275 0.60774
 C810 C 0.43945 0.05973 0.59666
 C811 C 0.40977 0.04683 0.61632
 C812 C 0.39312 0.06767 0.64453
 H813 H 0.31762 0.13850 0.73856
 H814 H 0.39240 0.21498 0.69554
 H815 H 0.47609 0.10359 0.59358
 H816 H 0.39828 0.02164 0.60836
 H817 H 0.34861 0.09202 0.70342
 H818 H 0.36931 0.05768 0.65771
 C819 C 0.38497 0.65467 0.15773
 C820 C 0.39802 0.68940 0.15958
 C821 C 0.38057 0.71464 0.18195
 C822 C 0.35024 0.70548 0.20305
 C823 C 0.33815 0.67026 0.20046
 N824 N 0.35537 0.64622 0.17796
 C825 C 0.40239 0.62761 0.13333
 N826 N 0.38260 0.60387 0.11319
 C827 C 0.39726 0.58002 0.08832
 C828 C 0.43389 0.57929 0.08263
 C829 C 0.45473 0.60255 0.10446
 C830 C 0.43914 0.62671 0.12962
 H831 H 0.39044 0.74153 0.18186
 H832 H 0.31519 0.66166 0.21646
 H833 H 0.38029 0.56231 0.07235
 H834 H 0.48311 0.60282 0.10131
 H835 H 0.42094 0.69730 0.14301
 H836 H 0.45571 0.64465 0.14582
   
