data_POSCAR
  _audit_creation_date              2014-09-24
  _audit_creation_method            'ToBaCCo'
  _symmetry_space_group_name_H-M    'P1'
  _symmetry_Int_Tables_number       1
  _symmetry_cell_setting            triclinic
  loop_
  _symmetry_equiv_pos_as_xyz
 x,y,z
_cell_length_a 30.1128
_cell_length_b 29.5906
_cell_length_c 27.4137
_cell_angle_alpha 76.086100
_cell_angle_beta 78.650100
_cell_angle_gamma 102.367100
loop_
  _atom_site_label
  _atom_site_type_symbol
  _atom_site_fract_x
  _atom_site_fract_y
  _atom_site_fract_z
C1 C 0.61811 0.70150 0.64729
 N2 N 0.62660 0.66158 0.67629
 C3 C 0.65843 0.64114 0.65431
 N4 N 0.68149 0.66070 0.60308
 C5 C 0.67306 0.70030 0.57381
 N6 N 0.64140 0.72082 0.59600
 C7 C 0.88265 0.33700 0.17294
 N8 N 0.86508 0.32127 0.13613
 C9 C 0.83118 0.33868 0.11830
 N10 N 0.81512 0.37228 0.13713
 C11 C 0.83297 0.38864 0.17343
 N12 N 0.86652 0.37079 0.19141
 C13 C 0.37752 0.12074 -0.14138
 N14 N 0.34692 0.14481 -0.12454
 C15 C 0.30074 0.12973 -0.12314
 N16 N 0.28526 0.09101 -0.13965
 C17 C 0.31596 0.06763 -0.15812
 N18 N 0.36201 0.08226 -0.15843
 C19 C 0.16392 0.81977 0.33662
 N20 N 0.14881 0.85984 0.33637
 C21 C 0.16871 0.89281 0.35827
 N22 N 0.20361 0.88514 0.38130
 C23 C 0.21988 0.84586 0.38030
 N24 N 0.20021 0.81347 0.35761
 N25 N 0.04444 0.21387 0.15066
 N26 N 0.03830 0.19456 0.20086
 C27 C 0.00858 0.21372 0.22749
 C28 C -0.00508 0.24596 0.19183
 C29 C 0.01813 0.24510 0.14353
 H30 H -0.00265 0.20455 0.26947
 H31 H 0.01719 0.26674 0.10602
 Cu32 Cu 0.06918 0.14553 0.22637
 Cu33 Cu 0.08974 0.20031 0.09886
 Cu34 Cu 0.09879 0.08419 0.14191
 N35 N 0.08813 0.08641 0.24771
 N36 N 0.09615 0.06084 0.21542
 C37 C 0.10777 0.02165 0.23982
 C38 C 0.10840 0.02347 0.28951
 C39 C 0.09575 0.06502 0.29342
 H40 H 0.11872 -0.00407 0.22137
 H41 H 0.09363 0.07929 0.32636
 N42 N 0.12184 0.12355 0.06800
 N43 N 0.12030 0.16884 0.05212
 C44 C 0.14833 0.18991 0.00353
 C45 C 0.16868 0.15624 -0.01193
 C46 C 0.15069 0.11444 0.02955
 H47 H 0.15658 0.22799 -0.01707
 H48 H 0.16219 0.08182 0.03377
 H49 H 0.05788 0.13253 0.14452
 H50 H 0.12149 0.15417 0.14330
 N51 N 0.46336 0.83451 0.62282
 N52 N 0.45710 0.84229 0.66862
 C53 C 0.48287 0.81980 0.69589
 C54 C 0.50690 0.79734 0.66505
 C55 C 0.49406 0.80773 0.61885
 H56 H 0.48379 0.81954 0.73520
 H57 H 0.50470 0.79511 0.58565
 Cu58 Cu 0.41635 0.88176 0.68739
 Cu59 Cu 0.42837 0.85666 0.57362
 Cu60 Cu 0.32624 0.88013 0.63240
 N61 N 0.36788 0.91263 0.70798
 N62 N 0.33176 0.91024 0.68751
 C63 C 0.30231 0.93222 0.70981
 C64 C 0.32146 0.95006 0.74551
 C65 C 0.36315 0.93718 0.74333
 H66 H 0.27012 0.93614 0.69964
 H67 H 0.38797 0.94496 0.76587
 N68 N 0.33641 0.86727 0.56439
 N69 N 0.37545 0.85874 0.54190
 C70 C 0.37104 0.84940 0.49714
 C71 C 0.32737 0.85296 0.49095
 C72 C 0.30645 0.86466 0.53396
 H73 H 0.39724 0.83975 0.47159
 H74 H 0.27147 0.86946 0.54314
 H75 H 0.39713 0.90506 0.60383
 H76 H 0.37424 0.83867 0.63746
 N77 N 0.96362 0.71626 0.29380
 N78 N 0.97421 0.67785 0.28413
 C79 C 1.02030 0.68248 0.28046
 C80 C 1.03956 0.72627 0.28804
 C81 C 1.00277 0.74697 0.29590
 H82 H 1.03789 0.65504 0.27535
 H83 H 1.00365 0.78024 0.30604
 Cu84 Cu 0.92597 0.62384 0.28141
 Cu85 Cu 0.89875 0.72042 0.30969
 Cu86 Cu 0.81442 0.61067 0.34207
 N87 N 0.87444 0.57620 0.27353
 N88 N 0.83039 0.57219 0.29608
 C89 C 0.80179 0.53759 0.28364
 C90 C 0.82959 0.51876 0.25199
 C91 C 0.87547 0.54382 0.24654
 H92 H 0.76375 0.52656 0.29720
 H93 H 0.90709 0.53931 0.22395
 N94 N 0.80230 0.66559 0.36554
 N95 N 0.83313 0.70867 0.34987
 C96 C 0.81502 0.73811 0.37365
 C97 C 0.77121 0.71179 0.40642
 C98 C 0.76429 0.66605 0.40043
 H99 H 0.83403 0.77439 0.37109
 H100 H 0.73459 0.63491 0.42146
 H101 H 0.87969 0.64843 0.34848
 H102 H 0.86320 0.66433 0.28558
 N103 N 0.58257 0.26204 -0.10621
 N104 N 0.55552 0.28995 -0.11907
 C105 C 0.51749 0.26372 -0.12839
 C106 C 0.52135 0.21710 -0.12185
 C107 C 0.56308 0.21719 -0.10788
 H108 H 0.49001 0.27791 -0.14090
 H109 H 0.57808 0.18701 -0.09945
 Cu110 Cu 0.57500 0.35893 -0.12830
 Cu111 Cu 0.64116 0.28637 -0.08875
 Cu112 Cu 0.66341 0.40374 -0.08145
 N113 N 0.60949 0.42721 -0.15432
 N114 N 0.64524 0.44460 -0.13705
 C115 C 0.66755 0.49018 -0.16728
 C116 C 0.64401 0.50210 -0.20487
 C117 C 0.60747 0.46132 -0.19568
 H118 H 0.70047 0.51161 -0.16466
 H119 H 0.58426 0.45522 -0.22039
 N120 N 0.69368 0.35707 -0.04818
 N121 N 0.68731 0.31309 -0.05338
 C122 C 0.71398 0.29038 -0.02777
 C123 C 0.73779 0.32161 -0.00524
 C124 C 0.72403 0.36347 -0.01881
 H125 H 0.71488 0.25343 -0.02440
 H126 H 0.73549 0.39626 -0.00842
 H127 H 0.61376 0.33461 -0.06023
 H128 H 0.65571 0.35931 -0.12647
 C129 C -0.08405 0.31742 0.19253
 C130 C -0.06961 0.32434 0.23567
 C131 C -0.03891 0.29693 0.24237
 C132 C -0.03620 0.27637 0.20219
 O133 O -0.06355 0.28856 0.17198
 H134 H -0.08079 0.34595 0.25989
 H135 H -0.01998 0.29319 0.27217
 C136 C 0.58426 0.72408 0.67125
 C137 C 0.56921 0.71738 0.72401
 C138 C 0.53883 0.74522 0.72895
 C139 C 0.53728 0.76624 0.67886
 O140 O 0.56489 0.75361 0.64376
 H141 H 0.57939 0.69510 0.75504
 H142 H 0.51943 0.74896 0.76475
 C143 C 1.14040 0.78430 0.31813
 C144 C 1.15371 0.74321 0.31410
 C145 C 1.11863 0.71675 0.29926
 C146 C 1.08643 0.74348 0.29586
 O147 O 1.09972 0.78459 0.30686
 H148 H 1.18454 0.73311 0.32239
 H149 H 1.11587 0.68127 0.29396
 C150 C 0.42677 0.13596 -0.13969
 C151 C 0.45835 0.10860 -0.14356
 C152 C 0.49847 0.13519 -0.13676
 C153 C 0.48833 0.17688 -0.12983
 O154 O 0.44490 0.17740 -0.13150
 H155 H 0.45251 0.07320 -0.14959
 H156 H 0.53119 0.12552 -0.13712
 C157 C 0.15480 -0.06478 0.35433
 C158 C 0.16790 -0.03089 0.37951
 C159 C 0.14909 0.00588 0.36127
 C160 C 0.12681 -0.00805 0.32572
 O161 O 0.12991 -0.05093 0.32177
 H162 H 0.18935 -0.03233 0.40694
 H163 H 0.15347 0.03989 0.37044
 C164 C 0.66778 0.60071 -0.31594
 C165 C 0.70368 0.58141 -0.33314
 C166 C 0.70060 0.54293 -0.29242
 C167 C 0.66282 0.54132 -0.25383
 O168 O 0.64268 0.57619 -0.26777
 H169 H 0.72909 0.59391 -0.37080
 H170 H 0.72229 0.51808 -0.29140
 C171 C 0.30012 1.02888 0.81911
 C172 C 0.25520 1.01456 0.81339
 C173 C 0.25691 0.98213 0.78571
 C174 C 0.30265 0.97890 0.77691
 O175 O 0.32898 1.00716 0.79716
 H176 H 0.22525 1.02745 0.82636
 H177 H 0.22848 0.96369 0.77273
 C178 C 0.81605 0.42518 0.19370
 C179 C 0.77234 0.43289 0.19482
 C180 C 0.77093 0.46862 0.21816
 C181 C 0.81421 0.48044 0.22859
 O182 O 0.84159 0.45407 0.21397
 H183 H 0.74469 0.41423 0.18095
 H184 H 0.74221 0.48470 0.22586
 C185 C 0.26759 0.15450 -0.10260
 C186 C 0.27646 0.20405 -0.11429
 C187 C 0.23856 0.21155 -0.08419
 C188 C 0.20992 0.16590 -0.05574
 O189 O 0.22741 0.13119 -0.06702
 H190 H 0.30731 0.23128 -0.14074
 H191 H 0.23370 0.24608 -0.08128
 C192 C 0.69909 0.72063 0.51872
 C193 C 0.70871 0.76828 0.48952
 C194 C 0.73746 0.77180 0.44264
 C195 C 0.74224 0.72583 0.44674
 O196 O 0.71922 0.69486 0.49280
 H197 H 0.69754 0.79719 0.50160
 H198 H 0.75320 0.80390 0.40962
 C199 C 0.81074 0.32027 0.08006
 C200 C 0.81738 0.28004 0.06586
 C201 C 0.79051 0.27472 0.03183
 C202 C 0.76995 0.31240 0.02755
 O203 O 0.78209 0.34004 0.05679
 H204 H 0.83862 0.25696 0.07934
 H205 H 0.78651 0.24689 0.01238
 C206 C 0.25889 0.83867 0.40316
 C207 C 0.28902 0.81231 0.38858
 C208 C 0.31997 0.81536 0.41864
 C209 C 0.30585 0.84272 0.44977
 O210 O 0.26889 0.85708 0.44038
 H211 H 0.28858 0.79343 0.35934
 H212 H 0.34865 0.79871 0.41874
   
