data_POSCAR
  _audit_creation_date              2014-09-24
  _audit_creation_method            'ToBaCCo'
  _symmetry_space_group_name_H-M    'P1'
  _symmetry_Int_Tables_number       1
  _symmetry_cell_setting            triclinic
  loop_
  _symmetry_equiv_pos_as_xyz
 x,y,z
_cell_length_a 36.1664
_cell_length_b 37.0658
_cell_length_c 34.1925
_cell_angle_alpha 91.977200
_cell_angle_beta 89.438700
_cell_angle_gamma 91.386600
loop_
  _atom_site_label
  _atom_site_type_symbol
  _atom_site_fract_x
  _atom_site_fract_y
  _atom_site_fract_z
C1 C 0.18068 0.18094 0.20258
 C2 C 0.21760 0.17156 0.19379
 C3 C 0.23685 0.18632 0.16168
 C4 C 0.21850 0.21073 0.13848
 C5 C 0.18228 0.22090 0.14715
 C6 C 0.16345 0.20581 0.17894
 H7 H 0.23055 0.15155 0.21064
 H8 H 0.23253 0.22223 0.11346
 H9 H 0.13503 0.21309 0.18486
 C10 C -0.16006 0.81399 0.21342
 C11 C -0.18558 0.83677 0.19611
 C12 C -0.20106 0.82779 0.15959
 C13 C -0.19052 0.79610 0.13948
 C14 C -0.16517 0.77306 0.15572
 C15 C -0.15000 0.78204 0.19267
 H16 H -0.19309 0.86222 0.20991
 H17 H -0.20136 0.78967 0.11057
 H18 H -0.12967 0.76466 0.20479
 C19 C -0.23658 0.19729 -0.27379
 C20 C -0.26933 0.18708 -0.25405
 C21 C -0.28422 0.20898 -0.22346
 C22 C -0.26610 0.24193 -0.21342
 C23 C -0.23345 0.25284 -0.23273
 C24 C -0.21935 0.23077 -0.26321
 H25 H -0.28189 0.16107 -0.26163
 H26 H -0.27776 0.25900 -0.19041
 H27 H -0.19439 0.23998 -0.27765
 C28 C 0.14885 0.82417 -0.18688
 C29 C 0.17797 0.84455 -0.16964
 C30 C 0.19913 0.83077 -0.13960
 C31 C 0.19021 0.79599 -0.12648
 C32 C 0.16095 0.77531 -0.14312
 C33 C 0.14002 0.78977 -0.17311
 H34 H 0.18406 0.87152 -0.17963
 H35 H 0.20519 0.78479 -0.10274
 H36 H 0.11682 0.77462 -0.18567
 C37 C 0.21325 1.18411 0.77930
 C38 C 0.24728 1.17911 0.79739
 C39 C 0.25430 1.19348 0.83538
 C40 C 0.22649 1.21306 0.85505
 C41 C 0.19200 1.21755 0.83755
 C42 C 0.18548 1.20273 0.79999
 H43 H 0.26760 1.16313 0.78180
 H44 H 0.23124 1.22366 0.88455
 H45 H 0.15839 1.20537 0.78739
 C46 C 0.83416 0.82386 0.78057
 C47 C 0.80487 0.83723 0.80368
 C48 C 0.79240 0.81916 0.83687
 C49 C 0.80942 0.78740 0.84726
 C50 C 0.83881 0.77331 0.82458
 C51 C 0.85093 0.79181 0.79138
 H52 H 0.79232 0.86241 0.79647
 H53 H 0.80031 0.77478 0.87385
 H54 H 0.87442 0.78159 0.77500
 C55 C 0.17387 0.79800 1.21242
 C56 C 0.19981 0.82080 1.19384
 C57 C 0.21656 0.81018 1.15828
 C58 C 0.20763 0.77612 1.14117
 C59 C 0.18181 0.75299 1.15913
 C60 C 0.16452 0.76455 1.19425
 H61 H 0.20634 0.84753 1.20587
 H62 H 0.21985 0.76793 1.11331
 H63 H 0.14329 0.74781 1.20753
 C64 C 0.81017 1.19064 1.26754
 C65 C 0.77913 1.17789 1.24628
 C66 C 0.76210 1.19968 1.21920
 C67 C 0.77708 1.23423 1.21255
 C68 C 0.80871 1.24744 1.23278
 C69 C 0.82428 1.22570 1.26086
 H70 H 0.76891 1.15054 1.25019
 H71 H 0.76401 1.24999 1.19087
 H72 H 0.84910 1.23558 1.27542
 O73 O 0.53275 0.94663 0.95017
 O74 O 0.47227 0.94754 1.05782
 O75 O 0.58394 0.98200 1.03213
 O76 O 0.42676 0.98774 0.97444
 O77 O 0.54229 0.95015 1.06394
 O78 O 0.46685 0.94804 0.96108
 O79 O 0.42964 0.98517 1.04460
 O80 O 0.57756 0.98447 0.96059
 C81 C 0.56644 0.95331 0.95051
 C82 C 0.43902 0.95384 1.05309
 C83 C 0.57484 0.95532 1.05239
 C84 C 0.43398 0.95574 0.96537
 O85 O 0.46615 1.01512 0.92960
 O86 O 0.53926 1.01840 1.08717
 O87 O 0.55399 1.05214 0.96752
 O88 O 0.46192 1.05289 1.04713
 O89 O 0.47062 1.01412 1.09004
 O90 O 0.53251 1.01424 0.92310
 O91 O 0.46182 1.05344 0.97727
 O92 O 0.56728 1.05001 1.04177
 Co93 Co 0.49980 0.98264 0.94650
 Co94 Co 0.50565 0.98411 1.06816
 Co95 Co 0.56418 1.01580 1.00073
 Co96 Co 0.44989 1.01819 1.01052
 O97 O 0.50523 0.99998 1.00674
 C98 C 0.45973 1.04662 0.94170
 C99 C 0.56018 1.04439 1.07708
 C100 C 0.54595 1.04490 0.93268
 C101 C 0.46108 1.04506 1.08184
 O102 O 0.02800 0.45949 0.04716
 O103 O 0.01986 0.51535 -0.09097
 O104 O -0.00795 0.40752 -0.05148
 O105 O 0.03825 0.52586 0.02905
 O106 O 0.02237 0.44821 -0.08443
 O107 O 0.00147 0.51691 0.07506
 O108 O 0.04673 0.53098 -0.03770
 O109 O 0.00667 0.41170 0.01779
 C110 C 0.03134 0.42708 0.03812
 C111 C 0.04595 0.53116 -0.07370
 C112 C 0.01954 0.41686 -0.07229
 C113 C 0.03048 0.53170 0.06394
 O114 O -0.06126 0.50244 0.04598
 O115 O -0.04990 0.44455 -0.08849
 O116 O -0.06257 0.43724 0.03366
 O117 O -0.02310 0.55524 -0.04708
 O118 O -0.05089 0.51323 -0.08464
 O119 O -0.03262 0.45430 0.08582
 O120 O -0.03337 0.55054 0.02405
 O121 O -0.07579 0.43631 -0.03329
 Co122 Co -0.01693 0.47951 0.04392
 Co123 Co -0.01452 0.48021 -0.08028
 Co124 Co -0.03297 0.42798 -0.00890
 Co125 Co 0.00542 0.53619 -0.00815
 O126 O -0.01327 0.48251 -0.01567
 C127 C -0.06089 0.53583 0.04096
 C128 C -0.07781 0.43541 -0.06925
 C129 C -0.05697 0.43251 0.06954
 C130 C -0.04729 0.54559 -0.07242
 O131 O 1.09201 0.03609 0.46967
 O132 O 0.92726 0.01903 0.53617
 O133 O 0.98729 0.02495 0.43061
 O134 O 1.04047 0.06101 0.55431
 O135 O 0.96781 0.04901 0.48573
 O136 O 1.09170 0.03512 0.54377
 O137 O 0.97633 0.04911 0.55493
 O138 O 1.05487 0.01413 0.42308
 C139 C 1.08143 0.03492 0.43464
 C140 C 0.94203 0.04320 0.55988
 C141 C 0.97251 0.05088 0.44958
 C142 C 1.07453 0.06235 0.55499
 O143 O 1.08434 -0.03533 0.53893
 O144 O 0.93722 -0.01076 0.46673
 O145 O 1.04177 -0.05510 0.44391
 O146 O 0.98726 -0.01913 0.57860
 O147 O 0.96227 -0.04050 0.52609
 O148 O 1.09272 -0.03288 0.46667
 O149 O 1.05297 -0.00583 0.58364
 O150 O 0.97895 -0.04650 0.45200
 Co151 Co 1.08365 0.00084 0.50484
 Co152 Co 0.96713 0.00452 0.50729
 Co153 Co 1.01594 -0.01405 0.44259
 Co154 Co 1.01503 0.01941 0.56229
 O155 O 1.02289 0.00114 0.50228
 C156 C 1.07349 -0.03165 0.57344
 C157 C 0.94639 -0.03811 0.44778
 C158 C 1.07565 -0.05666 0.44732
 C159 C 0.96884 -0.04371 0.56130
 C160 C 1.15980 0.16511 0.23290
 C161 C 1.17458 0.14444 0.26222
 C162 C 1.15128 0.12516 0.29065
 N163 N 1.16690 0.11240 0.32315
 N164 N 1.14674 0.09366 0.34855
 C165 C 1.11021 0.08665 0.34228
 N166 N 1.09456 0.09923 0.30964
 N167 N 1.11470 0.11824 0.28433
 C168 C 1.08811 0.06497 0.36978
 C169 C 1.10112 0.05828 0.40702
 H170 H 1.20413 0.14297 0.26591
 H171 H 1.06122 0.05440 0.36076
 H172 H 1.13031 0.16970 0.23413
 H173 H 1.12691 0.07096 0.41668
 C174 C 0.85701 -0.17688 0.24955
 C175 C 0.84578 -0.14865 0.27501
 C176 C 0.86754 -0.13524 0.30893
 N177 N 0.85417 -0.10808 0.33223
 N178 N 0.87425 -0.09365 0.36151
 C179 C 0.90857 -0.10580 0.36859
 N180 N 0.92187 -0.13318 0.34549
 N181 N 0.90175 -0.14765 0.31618
 C182 C 0.93206 -0.08847 0.39918
 C183 C 0.92059 -0.05886 0.42216
 H184 H 0.82020 -0.13507 0.27034
 H185 H 0.95996 -0.09799 0.40212
 H186 H 0.88023 -0.19262 0.25826
 H187 H 0.89274 -0.04919 0.41953
 C188 C 0.77839 0.17273 0.69810
 C189 C 0.81259 0.17728 0.67915
 C190 C 0.82942 0.14869 0.65440
 N191 N 0.86502 0.15308 0.64246
 N192 N 0.88162 0.12724 0.62140
 C193 C 0.86331 0.09594 0.61129
 N194 N 0.82746 0.09164 0.62277
 N195 N 0.81084 0.11751 0.64409
 C196 C 0.88227 0.06718 0.58855
 C197 C 0.92057 0.06884 0.58389
 H198 H 0.82948 0.20134 0.68404
 H199 H 0.86632 0.04470 0.57584
 H200 H 0.76327 0.14757 0.69208
 H201 H 0.93620 0.09070 0.59826
 C202 C 1.12722 -0.16075 0.78127
 C203 C 1.14463 -0.14074 0.75228
 C204 C 1.12467 -0.12175 0.72224
 N205 N 1.14352 -0.10993 0.69052
 N206 N 1.12679 -0.09086 0.66390
 C207 C 1.09060 -0.08248 0.66816
 N208 N 1.07169 -0.09414 0.70003
 N209 N 1.08839 -0.11355 0.72657
 C210 C 1.07261 -0.06017 0.63933
 C211 C 1.08832 -0.05568 0.60239
 H212 H 1.17457 -0.13898 0.75134
 H213 H 1.04679 -0.04740 0.64705
 H214 H 1.09772 -0.16635 0.77993
 H215 H 1.11244 -0.07098 0.59387
 C216 C 0.27324 1.17699 1.15081
 C217 C 0.29565 1.15321 1.17038
 C218 C 0.33154 1.14179 1.15398
 N219 N 0.35012 1.11500 1.17073
 N220 N 0.38119 1.10255 1.15450
 C221 C 0.39494 1.11663 1.12104
 N222 N 0.37672 1.14383 1.10473
 N223 N 0.34565 1.15620 1.12088
 C224 C 0.42634 1.10046 1.09981
 C225 C 0.44241 1.06860 1.11099
 H226 H 0.28676 1.14108 1.19722
 H227 H 0.43334 1.11111 1.07149
 H228 H 0.28468 1.18870 1.12457
 H229 H 0.43636 1.05808 1.13957
 C230 C 0.22783 0.85273 0.87645
 C231 C 0.25486 0.84132 0.90198
 C232 C 0.28378 0.86654 0.91703
 N233 N 0.31602 0.85386 0.93043
 N234 N 0.34283 0.87663 0.94288
 C235 C 0.33816 0.91288 0.94273
 N236 N 0.30567 0.92550 0.93004
 N237 N 0.27903 0.90277 0.91729
 C238 C 0.36772 0.93854 0.95491
 C239 C 0.40451 0.92865 0.95731
 H240 H 0.25696 0.81328 0.90908
 H241 H 0.36066 0.96665 0.95931
 H242 H 0.23013 0.88039 0.86717
 H243 H 0.41207 0.90091 0.95121
 C244 C 0.77314 0.85288 1.14214
 C245 C 0.74368 0.84088 1.11875
 C246 C 0.71739 0.86600 1.10282
 N247 N 0.68352 0.85370 1.09112
 N248 N 0.65903 0.87632 1.07755
 C249 C 0.66769 0.91201 1.07477
 N250 N 0.70181 0.92421 1.08581
 N251 N 0.72619 0.90164 1.09975
 C252 C 0.64046 0.93738 1.06111
 C253 C 0.60270 0.92930 1.06284
 H254 H 0.73827 0.81220 1.11407
 H255 H 0.65006 0.96383 1.05232
 H256 H 0.77585 0.88135 1.15018
 H257 H 0.59311 0.90389 1.07450
 C258 C 0.68507 1.19818 0.79940
 C259 C 0.66294 1.16728 0.79197
 C260 C 0.63749 1.15280 0.82174
 N261 N 0.61614 1.12311 0.81291
 N262 N 0.59557 1.10757 0.84042
 C263 C 0.59563 1.12108 0.87787
 N264 N 0.61664 1.15104 0.88662
 N265 N 0.63716 1.16664 0.85906
 C266 C 0.57630 1.10187 0.90931
 C267 C 0.55632 1.06982 0.90174
 H268 H 0.66486 1.15207 0.76454
 H269 H 0.58081 1.11126 0.93928
 H270 H 0.67867 1.21443 0.82547
 H271 H 0.55123 1.06084 0.87175
 C272 C 0.16411 0.24635 0.12162
 C273 C 0.14294 0.27455 0.13674
 C274 C 0.12521 0.30023 0.11139
 N275 N 0.11435 0.33265 0.12649
 N276 N 0.09710 0.35567 0.10425
 C277 C 0.08984 0.34704 0.06611
 N278 N 0.10058 0.31455 0.05103
 N279 N 0.11818 0.29167 0.07317
 C280 C 0.06767 0.37078 0.04247
 C281 C 0.06205 0.40678 0.05361
 H282 H 0.14052 0.27881 0.16816
 H283 H 0.05344 0.35897 0.01722
 H284 H 0.17000 0.24461 0.09049
 H285 H 0.07826 0.41933 0.07707
 C286 C -0.21238 0.28639 -0.22110
 C287 C -0.21582 0.30403 -0.18450
 C288 C -0.19019 0.33330 -0.17121
 N289 N -0.19337 0.34742 -0.13424
 N290 N -0.16895 0.37208 -0.12059
 C291 C -0.14039 0.38363 -0.14342
 N292 N -0.13748 0.36988 -0.18060
 N293 N -0.16193 0.34518 -0.19427
 C294 C -0.11133 0.40833 -0.12746
 C295 C -0.11087 0.41915 -0.08801
 H296 H -0.23590 0.29463 -0.16335
 H297 H -0.08807 0.41523 -0.14619
 H298 H -0.19093 0.29577 -0.24090
 H299 H -0.13395 0.41185 -0.06921
 C300 C 0.15234 0.73944 -0.12703
 C301 C 0.13457 0.71116 -0.14795
 C302 C 0.12620 0.67621 -0.13011
 N303 N 0.10888 0.64925 -0.15123
 N304 N 0.09968 0.61813 -0.13483
 C305 C 0.10762 0.61278 -0.09672
 N306 N 0.12527 0.63960 -0.07575
 N307 N 0.13447 0.67068 -0.09214
 C308 C 0.09406 0.58036 -0.07685
 C309 C 0.07209 0.55384 -0.09576
 H310 H 0.12670 0.71443 -0.17804
 H311 H 0.09724 0.57992 -0.04539
 H312 H 0.16191 0.73466 -0.09778
 H313 H 0.06908 0.55406 -0.12724
 C314 C -0.15327 0.74146 0.13166
 C315 C -0.14394 0.70847 0.14685
 C316 C -0.13243 0.67813 0.12077
 N317 N -0.12931 0.64445 0.13467
 N318 N -0.11773 0.61731 0.11135
 C319 C -0.10887 0.62290 0.07327
 N320 N -0.11208 0.65651 0.05943
 N321 N -0.12383 0.68352 0.08263
 C322 C -0.09180 0.59478 0.04819
 C323 C -0.08981 0.55876 0.05834
 H324 H -0.14594 0.70454 0.17803
 H325 H -0.07713 0.60359 0.02228
 H326 H -0.15417 0.74368 0.10017
 H327 H -0.10652 0.54863 0.08221
 C328 C 1.20661 0.16735 0.73997
 C329 C 1.17944 0.17885 0.71484
 C330 C 1.16894 0.15808 0.67912
 N331 N 1.13823 0.16689 0.65947
 N332 N 1.12636 0.14648 0.62911
 C333 C 1.14493 0.11661 0.61713
 N334 N 1.17611 0.10823 0.63624
 N335 N 1.18789 0.12856 0.66673
 C336 C 1.12990 0.09150 0.58678
 C337 C 1.09352 0.09352 0.57411
 H338 H 1.16380 0.20264 0.72239
 H339 H 1.14597 0.06813 0.57841
 H340 H 1.22351 0.14482 0.73071
 H341 H 1.07701 0.11634 0.58332
 C342 C 0.84730 -0.15564 0.74925
 C343 C 0.87246 -0.16763 0.72057
 C344 C 0.89068 -0.14214 0.69416
 N345 N 0.90593 -0.15395 0.65971
 N346 N 0.92381 -0.13094 0.63658
 C347 C 0.92751 -0.09546 0.64750
 N348 N 0.91256 -0.08382 0.68204
 N349 N 0.89435 -0.10666 0.70487
 C350 C 0.94792 -0.06951 0.62357
 C351 C 0.95320 -0.07396 0.58326
 H352 H 0.87900 -0.19586 0.71693
 H353 H 0.95630 -0.04417 0.63800
 H354 H 0.83733 -0.12842 0.74710
 H355 H 0.94221 -0.09771 0.56765
 C356 C 1.15580 -0.19199 0.24760
 C357 C 1.16729 -0.16331 0.27248
 C358 C 1.14530 -0.15152 0.30666
 N359 N 1.16071 -0.12853 0.33386
 N360 N 1.14058 -0.11560 0.36371
 C361 C 1.10422 -0.12504 0.36740
 N362 N 1.08880 -0.14818 0.34026
 N363 N 1.10902 -0.16133 0.31049
 C364 C 1.08107 -0.10761 0.39778
 C365 C 1.09678 -0.08459 0.42637
 H366 H 1.19349 -0.14939 0.26788
 H367 H 1.05127 -0.10975 0.39498
 H368 H 1.13213 -0.20821 0.25682
 H369 H 1.12656 -0.08348 0.42969
 C370 C 0.82780 0.16702 0.29238
 C371 C 0.85579 0.17746 0.31871
 C372 C 0.87823 0.15092 0.33803
 N373 N 0.89904 0.16124 0.36947
 N374 N 0.92053 0.13773 0.38640
 C375 C 0.92238 0.10318 0.37209
 N376 N 0.90186 0.09298 0.34042
 N377 N 0.88013 0.11639 0.32371
 C378 C 0.94529 0.07661 0.39070
 C379 C 0.95749 0.08130 0.42909
 H380 H 0.86152 0.20560 0.32612
 H381 H 0.94928 0.05097 0.37520
 H382 H 0.81934 0.13873 0.29097
 H383 H 0.95097 0.10566 0.44590
 C384 C 0.16163 0.23640 -0.14183
 C385 C 0.16751 0.26776 -0.11893
 C386 C 0.13641 0.28971 -0.10496
 N387 N 0.14170 0.32565 -0.09784
 N388 N 0.11333 0.34636 -0.08779
 C389 C 0.07866 0.33187 -0.08414
 N390 N 0.07348 0.29575 -0.09030
 N391 N 0.10181 0.27507 -0.10081
 C392 C 0.04711 0.35500 -0.07457
 C393 C 0.04845 0.39134 -0.08360
 H394 H 0.19535 0.27869 -0.11520
 H395 H 0.02237 0.34323 -0.06165
 H396 H 0.13350 0.22798 -0.14888
 H397 H 0.07245 0.40202 -0.09896
 C398 C -0.17280 0.28027 0.22436
 C399 C -0.18259 0.30340 0.19493
 C400 C -0.15703 0.33178 0.18102
 N401 N -0.16499 0.34865 0.14772
 N402 N -0.14083 0.37194 0.13239
 C403 C -0.10777 0.37936 0.14976
 N404 N -0.10008 0.36314 0.18362
 N405 N -0.12423 0.33964 0.19889
 C406 C -0.08004 0.40303 0.13097
 C407 C -0.08331 0.41032 0.09154
 H408 H -0.20784 0.29919 0.17870
 H409 H -0.05619 0.41300 0.14731
 H410 H -0.14757 0.28705 0.24014
 H411 H -0.10623 0.39835 0.07510
 C412 C -0.14194 0.74266 -0.16490
 C413 C -0.15425 0.71806 -0.13732
 C414 C -0.13020 0.68935 -0.12489
 N415 N -0.14503 0.65791 -0.11198
 N416 N -0.12323 0.63200 -0.10019
 C417 C -0.08588 0.63688 -0.10037
 N418 N -0.07112 0.66850 -0.11275
 N419 N -0.09287 0.69419 -0.12504
 C420 C -0.06154 0.60916 -0.08636
 C421 C -0.07174 0.57271 -0.08759
 H422 H -0.18224 0.71843 -0.12594
 H423 H -0.03418 0.61749 -0.07643
 H424 H -0.11598 0.73710 -0.17984
 H425 H -0.09750 0.56382 -0.10112
 C426 C 0.17158 0.71807 0.13925
 C427 C 0.15394 0.68963 0.15835
 C428 C 0.13805 0.65801 0.13695
 N429 N 0.11497 0.63485 0.15577
 N430 N 0.09823 0.60744 0.13627
 C431 C 0.10419 0.60213 0.09726
 N432 N 0.12775 0.62494 0.07858
 N433 N 0.14431 0.65246 0.09802
 C434 C 0.08419 0.57369 0.07465
 C435 C 0.05397 0.55455 0.08982
 H436 H 0.14972 0.69107 0.18970
 H437 H 0.09151 0.56996 0.04399
 H438 H 0.17746 0.71499 0.10820
 H439 H 0.04573 0.55857 0.12016
 C440 C 0.28883 1.18616 0.85665
 C441 C 0.31995 1.17041 0.83927
 C442 C 0.34987 1.15596 0.86256
 N443 N 0.37502 1.13400 0.84500
 N444 N 0.40032 1.11803 0.86607
 C445 C 0.40155 1.12365 0.90550
 N446 N 0.37690 1.14622 0.92295
 N447 N 0.35146 1.16202 0.90191
 C448 C 0.42665 1.10344 0.92974
 C449 C 0.44482 1.07295 0.91522
 H450 H 0.32171 1.16597 0.80793
 H451 H 0.42692 1.10987 0.96090
 H452 H 0.28893 1.19167 0.88797
 H453 H 0.44365 1.06567 0.88430
 C454 C 0.24161 0.83628 1.13892
 C455 C 0.27121 0.82620 1.11486
 C456 C 0.29704 0.85344 1.09905
 N457 N 0.33113 0.84374 1.08628
 N458 N 0.35542 0.86854 1.07392
 C459 C 0.34639 0.90391 1.07358
 N460 N 0.31204 0.91348 1.08556
 N461 N 0.28786 0.88873 1.09820
 C462 C 0.37353 0.93187 1.06218
 C463 C 0.41125 0.92525 1.06044
 H464 H 0.27736 0.79795 1.11008
 H465 H 0.36390 0.95888 1.05781
 H466 H 0.23821 0.86469 1.14629
 H467 H 0.42098 0.89860 1.06638
 C468 C 0.73059 1.18623 1.19484
 C469 C 0.70642 1.15807 1.20513
 C470 C 0.67785 1.14336 1.17810
 N471 N 0.65423 1.11662 1.18952
 N472 N 0.62951 1.10187 1.16467
 C473 C 0.62752 1.11334 1.12745
 N474 N 0.65098 1.14021 1.11614
 N475 N 0.67561 1.15499 1.14098
 C476 C 0.60260 1.09555 1.09852
 C477 C 0.57799 1.06746 1.10776
 H478 H 0.70852 1.14614 1.23343
 H479 H 0.60563 1.10324 1.06835
 H480 H 0.72609 1.19942 1.16756
 H481 H 0.57410 1.06026 1.13798
 C482 C 0.76344 0.83470 0.86259
 C483 C 0.73242 0.85070 0.84761
 C484 C 0.70528 0.86919 0.87292
 N485 N 0.67068 0.87436 0.85961
 N486 N 0.64632 0.89262 0.88146
 C487 C 0.65580 0.90676 0.91725
 N488 N 0.69050 0.90179 0.93049
 N489 N 0.71474 0.88313 0.90882
 C490 C 0.62988 0.92915 0.94015
 C491 C 0.59195 0.92665 0.93376
 H492 H 0.72758 0.84919 0.81637
 H493 H 0.64086 0.94852 0.96176
 H494 H 0.76598 0.83238 0.89395
 H495 H 0.58069 0.90506 0.91495
   
