data_POSCAR
  _audit_creation_date              2014-09-24
  _audit_creation_method            'ToBaCCo'
  _symmetry_space_group_name_H-M    'P1'
  _symmetry_Int_Tables_number       1
  _symmetry_cell_setting            triclinic
  loop_
  _symmetry_equiv_pos_as_xyz
 x,y,z
_cell_length_a 45.5003
_cell_length_b 45.4956
_cell_length_c 45.4653
_cell_angle_alpha 88.917000
_cell_angle_beta 88.938300
_cell_angle_gamma 88.962600
loop_
  _atom_site_label
  _atom_site_type_symbol
  _atom_site_fract_x
  _atom_site_fract_y
  _atom_site_fract_z
C1 C 0.74740 0.61589 1.03751
 C2 C 0.76147 0.62903 1.01305
 C3 C 0.78928 0.64145 1.01619
 C4 C 0.80268 0.64097 1.04375
 C5 C 0.78857 0.62748 1.06802
 C6 C 0.76103 0.61480 1.06485
 C7 C 0.74727 0.62879 0.98416
 C8 C 0.71885 0.64085 0.98073
 C9 C 0.70485 0.63924 0.95364
 C10 C 0.71900 0.62507 0.93008
 C11 C 0.74718 0.61276 0.93349
 C12 C 0.76143 0.61494 0.96036
 H13 H 0.72611 0.60594 1.03502
 H14 H 0.80019 0.65169 0.99733
 H15 H 0.70776 0.65152 0.99906
 H16 H 0.78314 0.60514 0.96304
 H17 H 0.79901 0.62685 1.08931
 H18 H 0.70805 0.62351 0.90919
 C19 C 0.74325 0.39328 0.46179
 C20 C 0.75702 0.37989 0.48605
 C21 C 0.78531 0.36734 0.48256
 C22 C 0.79948 0.36792 0.45492
 C23 C 0.78567 0.38161 0.43087
 C24 C 0.75764 0.39442 0.43434
 C25 C 0.74194 0.37946 0.51507
 C26 C 0.71388 0.36728 0.51850
 C27 C 0.69958 0.36721 0.54607
 C28 C 0.71301 0.37990 0.57012
 C29 C 0.74081 0.39233 0.56671
 C30 C 0.75536 0.39182 0.53933
 H31 H 0.72152 0.40320 0.46441
 H32 H 0.79595 0.35668 0.50115
 H33 H 0.70349 0.35744 0.49991
 H34 H 0.77688 0.40151 0.53675
 H35 H 0.79660 0.38210 0.40947
 H36 H 0.70194 0.37995 0.59146
 C37 C 0.24276 -0.10897 -0.03821
 C38 C 0.25658 -0.12252 -0.01407
 C39 C 0.28492 -0.13492 -0.01767
 C40 C 0.29912 -0.13403 -0.04533
 C41 C 0.28523 -0.12014 -0.06926
 C42 C 0.25714 -0.10749 -0.06565
 C43 C 0.24155 -0.12308 0.01497
 C44 C 0.21350 -0.13528 0.01844
 C45 C 0.19917 -0.13527 0.04602
 C46 C 0.21263 -0.12249 0.07004
 C47 C 0.24042 -0.11005 0.06657
 C48 C 0.25497 -0.11065 0.03920
 H49 H 0.22101 -0.09913 -0.03549
 H50 H 0.29557 -0.14565 0.00089
 H51 H 0.20315 -0.14511 -0.00020
 H52 H 0.27646 -0.10091 0.03656
 H53 H 0.29611 -0.11933 -0.09070
 H54 H 0.20160 -0.12229 0.09141
 C55 C 0.24720 0.11452 0.53683
 C56 C 0.26131 0.12761 0.51237
 C57 C 0.28913 0.14002 0.51555
 C58 C 0.30244 0.13957 0.54313
 C59 C 0.28830 0.12616 0.56737
 C60 C 0.26078 0.11350 0.56417
 C61 C 0.24714 0.12742 0.48347
 C62 C 0.21872 0.13947 0.48004
 C63 C 0.20480 0.13802 0.45290
 C64 C 0.21902 0.12403 0.42928
 C65 C 0.24721 0.11173 0.43267
 C66 C 0.26138 0.11375 0.45960
 H67 H 0.22591 0.10457 0.53441
 H68 H 0.30012 0.15027 0.49676
 H69 H 0.20758 0.15003 0.49840
 H70 H 0.28311 0.10397 0.46227
 H71 H 0.29867 0.12558 0.58867
 H72 H 0.20813 0.12261 0.40834
 C73 C 0.11397 0.53732 0.24659
 C74 C 0.12711 0.51290 0.26070
 C75 C 0.13952 0.51609 0.28853
 C76 C 0.13903 0.54363 0.30188
 C77 C 0.12557 0.56784 0.28776
 C78 C 0.11289 0.56466 0.26020
 C79 C 0.12698 0.48403 0.24651
 C80 C 0.13906 0.48064 0.21807
 C81 C 0.13768 0.45352 0.20413
 C82 C 0.12371 0.42988 0.21836
 C83 C 0.11138 0.43323 0.24656
 C84 C 0.11334 0.46014 0.26075
 H85 H 0.10404 0.53481 0.22529
 H86 H 0.14982 0.49732 0.29950
 H87 H 0.14961 0.49903 0.20693
 H88 H 0.10354 0.46277 0.28249
 H89 H 0.12501 0.58909 0.29823
 H90 H 0.12234 0.40895 0.20746
 C91 C -0.10784 -0.03862 0.24314
 C92 C -0.12135 -0.01446 0.25694
 C93 C -0.13378 -0.01802 0.28530
 C94 C -0.13298 -0.04565 0.29953
 C95 C -0.11914 -0.06960 0.28566
 C96 C -0.10645 -0.06603 0.25756
 C97 C -0.12190 0.01454 0.24185
 C98 C -0.13409 0.01794 0.21377
 C99 C -0.13415 0.04550 0.19940
 C100 C -0.12145 0.06956 0.21284
 C101 C -0.10903 0.06616 0.24067
 C102 C -0.10955 0.03881 0.25525
 H103 H -0.09799 -0.03593 0.22137
 H104 H -0.14450 0.00055 0.29593
 H105 H -0.14387 -0.00072 0.20343
 H106 H -0.09984 0.03623 0.27677
 H107 H -0.11841 -0.09102 0.29657
 H108 H -0.12132 0.09091 0.20179
 C109 C 0.39248 0.46180 0.74346
 C110 C 0.37903 0.48602 0.75721
 C111 C 0.36643 0.48252 0.78550
 C112 C 0.36702 0.45488 0.79972
 C113 C 0.38080 0.43087 0.78591
 C114 C 0.39365 0.43438 0.75788
 C115 C 0.37862 0.51501 0.74209
 C116 C 0.36643 0.51844 0.71403
 C117 C 0.36642 0.54597 0.69968
 C118 C 0.37916 0.57000 0.71308
 C119 C 0.39160 0.56660 0.74090
 C120 C 0.39103 0.53925 0.75549
 H121 H 0.40243 0.46444 0.72173
 H122 H 0.35575 0.50113 0.79607
 H123 H 0.35656 0.49985 0.70365
 H124 H 0.40074 0.53666 0.77701
 H125 H 0.38135 0.40944 0.79681
 H126 H 0.37926 0.59131 0.70197
 C127 C 0.61604 1.03686 0.74795
 C128 C 0.62915 1.01237 0.76194
 C129 C 0.64163 1.01542 0.78976
 C130 C 0.64123 1.04294 0.80322
 C131 C 0.62776 1.06722 0.78916
 C132 C 0.61504 1.06412 0.76164
 C133 C 0.62884 0.98354 0.74767
 C134 C 0.64089 0.98017 0.71921
 C135 C 0.63925 0.95314 0.70515
 C136 C 0.62505 0.92957 0.71927
 C137 C 0.61275 0.93291 0.74749
 C138 C 0.61497 0.95973 0.76180
 H139 H 0.60603 1.03451 0.72667
 H140 H 0.65186 0.99654 0.80062
 H141 H 0.65160 0.99851 0.70815
 H142 H 0.60518 0.96237 0.78354
 H143 H 0.62715 1.08850 0.79957
 H144 H 0.62348 0.90872 0.70828
 C145 C -0.03823 0.24282 -0.10827
 C146 C -0.01411 0.25672 -0.12179
 C147 C -0.01774 0.28507 -0.13417
 C148 C -0.04539 0.29922 -0.13330
 C149 C -0.06930 0.28526 -0.11946
 C150 C -0.06566 0.25715 -0.10683
 C151 C 0.01492 0.24172 -0.12237
 C152 C 0.01837 0.21363 -0.13448
 C153 C 0.04595 0.19934 -0.13452
 C154 C 0.06999 0.21287 -0.12188
 C155 C 0.06654 0.24071 -0.10954
 C156 C 0.03917 0.25521 -0.11008
 H157 H -0.03549 0.22106 -0.09845
 H158 H 0.00080 0.29578 -0.14489
 H159 H -0.00028 0.20322 -0.14422
 H160 H 0.03656 0.27673 -0.10041
 H161 H -0.09073 0.29610 -0.11867
 H162 H 0.09135 0.20188 -0.12173
 C163 C 0.53696 0.24722 0.11415
 C164 C 0.51250 0.26142 0.12712
 C165 C 0.51572 0.28925 0.13948
 C166 C 0.54331 0.30251 0.13910
 C167 C 0.56754 0.28828 0.12581
 C168 C 0.56432 0.26074 0.11320
 C169 C 0.48359 0.24730 0.12687
 C170 C 0.48009 0.21886 0.13888
 C171 C 0.45295 0.20498 0.13738
 C172 C 0.42938 0.21928 0.12337
 C173 C 0.43285 0.24749 0.11111
 C174 C 0.45978 0.26162 0.11318
 H175 H 0.53451 0.22593 0.10424
 H176 H 0.49694 0.30031 0.14964
 H177 H 0.49841 0.20766 0.14947
 H178 H 0.46250 0.28336 0.10344
 H179 H 0.58885 0.29860 0.12529
 H180 H 0.40844 0.20843 0.12191
 C181 C 1.03690 0.74786 0.61632
 C182 C 1.01244 0.76183 0.62949
 C183 C 1.01552 0.78965 0.64194
 C184 C 1.04304 0.80311 0.64146
 C185 C 1.06729 0.78907 0.62794
 C186 C 1.06415 0.76156 0.61524
 C187 C 0.98361 0.74756 0.62923
 C188 C 0.98024 0.71912 0.64131
 C189 C 0.95320 0.70506 0.63970
 C190 C 0.92963 0.71916 0.62552
 C191 C 0.93297 0.74736 0.61320
 C192 C 0.95979 0.76168 0.61538
 H193 H 1.03453 0.72659 0.60633
 H194 H 0.99666 0.80049 0.65221
 H195 H 0.99858 0.70807 0.65199
 H196 H 0.96242 0.78341 0.60558
 H197 H 1.08857 0.79949 0.62726
 H198 H 0.90877 0.70816 0.62396
 C199 C 0.46195 0.74321 0.39287
 C200 C 0.48618 0.75701 0.37948
 C201 C 0.48268 0.78532 0.36694
 C202 C 0.45507 0.79948 0.36753
 C203 C 0.43104 0.78565 0.38124
 C204 C 0.43452 0.75759 0.39403
 C205 C 0.51517 0.74194 0.37904
 C206 C 0.51861 0.71392 0.36680
 C207 C 0.54616 0.69963 0.36672
 C208 C 0.57019 0.71305 0.37944
 C209 C 0.56678 0.74082 0.39193
 C210 C 0.53942 0.75535 0.39143
 H211 H 0.46457 0.72147 0.40278
 H212 H 0.50126 0.79599 0.35628
 H213 H 0.50003 0.70354 0.35693
 H214 H 0.53682 0.77685 0.40117
 H215 H 0.40966 0.79657 0.38173
 H216 H 0.59151 0.70199 0.37948
 C217 C 0.40937 -0.02544 0.28598
 H218 H 0.41071 -0.00299 0.29320
 C219 C 0.42352 -0.04815 0.30180
 H220 H 0.43600 -0.04317 0.32108
 C221 C 0.38977 -0.05983 0.25341
 H222 H 0.37580 -0.06463 0.23529
 C223 C 0.40362 -0.08303 0.26843
 H224 H 0.40045 -0.10539 0.26149
 N225 N 0.39259 -0.03168 0.26247
 C226 C 0.37429 0.04569 0.20723
 H227 H 0.35109 0.04179 0.20474
 C228 C 0.38705 0.06981 0.19313
 H229 H 0.37369 0.08445 0.17962
 C230 C 0.41972 0.03196 0.22882
 H231 H 0.43215 0.01730 0.24307
 C232 C 0.43341 0.05609 0.21511
 H233 H 0.45645 0.06002 0.21878
 Zn234 Zn 0.36861 -0.00176 0.24506
 N235 N 0.39051 0.02761 0.22501
 C236 C 0.34779 0.04570 0.27915
 N237 N 0.34607 0.01615 0.27549
 C238 C 0.32965 -0.00088 0.29420
 C239 C 0.31380 0.01188 0.31748
 C240 C 0.33233 0.05929 0.30206
 C241 C 0.35751 -0.02846 0.19201
 C242 C 0.34124 -0.04166 0.17036
 C243 C 0.29728 -0.03362 0.20001
 C244 C 0.31441 -0.02052 0.22119
 N245 N 0.34403 -0.01860 0.21700
 H246 H 0.36142 0.05884 0.26458
 H247 H 0.32908 -0.02438 0.29113
 H248 H 0.30084 -0.00177 0.33235
 H249 H 0.33393 0.08280 0.30483
 H250 H 0.38103 -0.02632 0.18913
 H251 H 0.35222 -0.04974 0.15069
 H252 H 0.27376 -0.03538 0.20355
 H253 H 0.30405 -0.01207 0.24093
 C254 C 0.41674 0.07535 0.19738
 C255 C 0.42023 -0.07726 0.29311
 C256 C 0.31090 -0.04444 0.17448
 C257 C 0.31522 0.04226 0.32140
 C258 C 0.08969 1.02560 0.78911
 H259 H 0.08794 1.00314 0.79709
 C260 C 0.07568 1.04843 0.80454
 H261 H 0.06291 1.04354 0.82432
 C262 C 0.11012 1.05987 0.75488
 H263 H 0.12438 1.06457 0.73625
 C264 C 0.09643 1.08317 0.76948
 H265 H 0.10000 1.10552 0.76173
 N266 N 0.10682 1.03173 0.76496
 C267 C 0.12467 0.95341 0.71311
 H268 H 0.14817 0.95620 0.71078
 C269 C 0.11138 0.93005 0.69956
 H270 H 0.12466 0.91482 0.68670
 C271 C 0.07882 0.96961 0.73321
 H272 H 0.06636 0.98507 0.74647
 C273 C 0.06456 0.94632 0.71999
 H274 H 0.04108 0.94380 0.72311
 Zn275 Zn 0.13058 1.00159 0.74790
 N276 N 0.10845 0.97237 0.72985
 C277 C 0.15196 0.95442 0.78338
 N278 N 0.15330 0.98394 0.77818
 C279 C 0.16989 1.00134 0.79509
 C280 C 0.18651 0.98899 0.81791
 C281 C 0.16820 0.94123 0.80592
 C282 C 0.14178 1.02839 0.69343
 C283 C 0.15813 1.04186 0.67088
 C284 C 0.20203 1.03320 0.69915
 C285 C 0.18483 1.01985 0.72123
 N286 N 0.15519 1.01819 0.71820
 H287 H 0.13814 0.94102 0.77026
 H288 H 0.17015 1.02481 0.79083
 H289 H 0.19971 1.00293 0.83126
 H290 H 0.16699 0.91772 0.80988
 H291 H 0.11824 1.02645 0.69148
 H292 H 0.14720 1.05034 0.65144
 H293 H 0.22555 1.03485 0.70183
 H294 H 0.19517 1.01109 0.74078
 C295 C 0.08113 0.92627 0.70320
 C296 C 0.07948 1.07752 0.79480
 C297 C 0.18847 1.04452 0.67390
 C298 C 0.18566 0.95863 0.82328
 C299 C 0.59099 0.52550 0.28789
 H300 H 0.58945 0.50297 0.29572
 C301 C 0.57684 0.54810 0.30352
 H302 H 0.56418 0.54297 0.32330
 C303 C 0.61105 0.56016 0.25383
 H304 H 0.62523 0.56509 0.23519
 C305 C 0.59722 0.58325 0.26864
 H306 H 0.60059 0.60568 0.26104
 N307 N 0.60801 0.53192 0.26374
 C308 C 0.62616 0.45384 0.21165
 H309 H 0.64966 0.45658 0.20937
 C310 C 0.61283 0.43054 0.19803
 H311 H 0.62610 0.41529 0.18518
 C312 C 0.58029 0.47014 0.23164
 H313 H 0.56783 0.48562 0.24487
 C314 C 0.56600 0.44692 0.21835
 H315 H 0.54250 0.44447 0.22139
 Zn316 Zn 0.63196 0.50205 0.24653
 N317 N 0.60994 0.47282 0.22838
 C318 C 0.65356 0.45491 0.28196
 N319 N 0.65471 0.48445 0.27679
 C320 C 0.67104 0.50197 0.29383
 C321 C 0.68753 0.48975 0.31680
 C322 C 0.66970 0.44184 0.30465
 C323 C 0.64310 0.52923 0.19222
 C324 C 0.65942 0.54295 0.16980
 C325 C 0.70329 0.53434 0.19811
 C326 C 0.68612 0.52074 0.22006
 N327 N 0.65651 0.51894 0.21695
 H328 H 0.63995 0.44141 0.26873
 H329 H 0.67113 0.52545 0.28960
 H330 H 0.70048 0.50381 0.33028
 H331 H 0.66862 0.41833 0.30862
 H332 H 0.61957 0.52718 0.19020
 H333 H 0.64848 0.55151 0.15039
 H334 H 0.72679 0.53610 0.20085
 H335 H 0.69646 0.51191 0.23957
 C336 C 0.58256 0.42685 0.20158
 C337 C 0.58039 0.57728 0.29397
 C338 C 0.68973 0.54576 0.17291
 C339 C 0.68684 0.45940 0.32219
 C340 C 0.90958 0.47380 0.78761
 H341 H 0.91117 0.49619 0.79496
 C342 C 0.92360 0.45086 0.80323
 H343 H 0.93622 0.45560 0.82249
 C344 C 0.88955 0.43981 0.75490
 H345 H 0.87546 0.43525 0.73679
 C346 C 0.90325 0.41640 0.76972
 H347 H 0.89986 0.39412 0.76265
 N348 N 0.89266 0.46787 0.76411
 C349 C 0.87492 0.54556 0.70912
 H350 H 0.85174 0.54169 0.70653
 C351 C 0.88774 0.56972 0.69514
 H352 H 0.87443 0.58439 0.68161
 C353 C 0.92025 0.53178 0.73089
 H354 H 0.93262 0.51709 0.74518
 C355 C 0.93400 0.55595 0.71730
 H356 H 0.95702 0.55988 0.72110
 Zn357 Zn 0.86895 0.49810 0.74680
 N358 N 0.89106 0.52743 0.72693
 C359 C 0.84840 0.54557 0.78099
 N360 N 0.84641 0.51605 0.77722
 C361 C 0.82965 0.49915 0.79574
 C362 C 0.81371 0.51202 0.81890
 C363 C 0.83285 0.55925 0.80378
 C364 C 0.85790 0.47181 0.69355
 C365 C 0.84165 0.45895 0.67168
 C366 C 0.79758 0.46718 0.70111
 C367 C 0.81470 0.47994 0.72251
 N368 N 0.84436 0.48160 0.71854
 H369 H 0.86229 0.55860 0.76658
 H370 H 0.82886 0.47567 0.79259
 H371 H 0.80045 0.49847 0.83361
 H372 H 0.83467 0.58274 0.80661
 H373 H 0.88146 0.47375 0.69084
 H374 H 0.85268 0.45093 0.65201
 H375 H 0.77402 0.46564 0.70447
 H376 H 0.80429 0.48834 0.74225
 C377 C 0.91741 0.57525 0.69954
 C378 C 0.92002 0.42185 0.79437
 C379 C 0.81126 0.45646 0.67557
 C380 C 0.81538 0.54237 0.82290
 C381 C 0.28637 0.40996 -0.02638
 H382 H 0.29362 0.41138 -0.00393
 C383 C 0.30215 0.42405 -0.04919
 H384 H 0.32143 0.43655 -0.04428
 C385 C 0.25378 0.39023 -0.06068
 H386 H 0.23567 0.37622 -0.06541
 C387 C 0.26876 0.40400 -0.08396
 H388 H 0.26180 0.40075 -0.10632
 N389 N 0.26288 0.39314 -0.03253
 C390 C 0.20787 0.37496 0.04506
 H391 H 0.20543 0.35174 0.04124
 C392 C 0.19378 0.38775 0.06917
 H393 H 0.18034 0.37438 0.08388
 C394 C 0.22930 0.42042 0.03112
 H395 H 0.24348 0.43287 0.01639
 C396 C 0.21560 0.43415 0.05524
 H397 H 0.21921 0.45722 0.05908
 Zn398 Zn 0.24553 0.36924 -0.00248
 N399 N 0.22556 0.39119 0.02688
 C400 C 0.27971 0.34851 0.04499
 N401 N 0.27596 0.34671 0.01544
 C402 C 0.29455 0.33019 -0.00158
 C403 C 0.31781 0.31432 0.01119
 C404 C 0.30260 0.33303 0.05859
 C405 C 0.19245 0.35811 -0.02907
 C406 C 0.17073 0.34182 -0.04213
 C407 C 0.20029 0.29784 -0.03393
 C408 C 0.22153 0.31499 -0.02097
 N409 N 0.21742 0.34463 -0.01920
 H410 H 0.26523 0.36223 0.05812
 H411 H 0.29141 0.32955 -0.02509
 H412 H 0.33258 0.30127 -0.00246
 H413 H 0.30543 0.33470 0.08210
 H414 H 0.18963 0.38165 -0.02704
 H415 H 0.15107 0.35280 -0.05021
 H416 H 0.20375 0.27430 -0.03556
 H417 H 0.24125 0.30463 -0.01251
 C418 C 0.19795 0.41748 0.07459
 C419 C 0.29344 0.42064 -0.07829
 C420 C 0.17476 0.31145 -0.04475
 C421 C 0.32182 0.31581 0.04157
 C422 C 0.78906 0.08928 1.02575
 H423 H 0.79701 0.08759 1.00326
 C424 C 0.80452 0.07524 1.04856
 H425 H 0.82428 0.06250 1.04364
 C426 C 0.75490 0.10963 1.06009
 H427 H 0.73628 0.12388 1.06482
 C428 C 0.76952 0.09591 1.08338
 H429 H 0.76180 0.09943 1.10576
 N430 N 0.76494 0.10639 1.03191
 C431 C 0.71317 0.12443 0.95353
 H432 H 0.71089 0.14792 0.95631
 C433 C 0.69959 0.11117 0.93015
 H434 H 0.68677 0.12449 0.91490
 C435 C 0.73314 0.07852 0.96976
 H436 H 0.74634 0.06602 0.98525
 C437 C 0.71989 0.06430 0.94646
 H438 H 0.72294 0.04081 0.94395
 Zn439 Zn 0.74791 0.13023 1.00179
 N440 N 0.72985 0.10816 0.97251
 C441 C 0.78340 0.15170 0.95465
 N442 N 0.77818 0.15297 0.98419
 C443 C 0.79508 0.16950 1.00165
 C444 C 0.81790 0.18614 0.98935
 C445 C 0.80594 0.16797 0.94150
 C446 C 0.69349 0.14143 1.02864
 C447 C 0.67097 0.15779 1.04208
 C448 C 0.69925 0.20168 1.03336
 C449 C 0.72130 0.18447 1.02004
 N450 N 0.71826 0.15483 1.01842
 H451 H 0.77029 0.13792 0.94119
 H452 H 0.79081 0.16970 1.02513
 H453 H 0.83124 0.19930 1.00335
 H454 H 0.80992 0.16683 0.91797
 H455 H 0.69153 0.11788 1.02673
 H456 H 0.65154 0.14687 1.05057
 H457 H 0.70193 0.22521 1.03496
 H458 H 0.74083 0.19480 1.01125
 C459 C 0.70315 0.08091 0.92638
 C460 C 0.79482 0.07898 1.07769
 C461 C 0.67400 0.18814 1.04469
 C462 C 0.82329 0.18538 0.95898
 C463 C 0.28802 0.59071 0.52516
 H464 H 0.29588 0.58916 0.50263
 C465 C 0.30359 0.57656 0.54782
 H466 H 0.32335 0.56388 0.54275
 C467 C 0.25396 0.61081 0.55975
 H468 H 0.23535 0.62500 0.56463
 C469 C 0.26870 0.59697 0.58291
 H470 H 0.26107 0.60035 0.60533
 N471 N 0.26390 0.60775 0.53152
 C472 C 0.21198 0.62609 0.45330
 H473 H 0.20976 0.64960 0.45606
 C474 C 0.19833 0.61283 0.42997
 H475 H 0.18553 0.62616 0.41471
 C476 C 0.23182 0.58015 0.46959
 H477 H 0.24500 0.56763 0.48509
 C478 C 0.21850 0.56593 0.44634
 H479 H 0.22147 0.54242 0.44387
 Zn480 Zn 0.24680 0.63175 0.50159
 N481 N 0.22864 0.60980 0.47229
 C482 C 0.28228 0.65336 0.45447
 N483 N 0.27710 0.65448 0.48402
 C484 C 0.29413 0.67078 0.50158
 C485 C 0.31710 0.68728 0.48938
 C486 C 0.30497 0.66950 0.44142
 C487 C 0.19251 0.64295 0.52867
 C488 C 0.17013 0.65928 0.54239
 C489 C 0.19853 0.70313 0.53387
 C490 C 0.22043 0.68594 0.52028
 N491 N 0.21727 0.65633 0.51844
 H492 H 0.26906 0.63976 0.44094
 H493 H 0.28988 0.67085 0.52507
 H494 H 0.33057 0.70021 0.50346
 H495 H 0.30895 0.66845 0.41789
 H496 H 0.19045 0.61943 0.52659
 H497 H 0.15070 0.64836 0.55090
 H498 H 0.20132 0.72662 0.53567
 H499 H 0.23997 0.69626 0.51149
 C500 C 0.20178 0.58256 0.42625
 C501 C 0.29400 0.58012 0.57700
 C502 C 0.17330 0.68958 0.54524
 C503 C 0.32249 0.68663 0.45900
 C504 C 0.78736 0.90959 0.47402
 H505 H 0.79466 0.91113 0.49644
 C506 C 0.80307 0.92358 0.45110
 H507 H 0.82235 0.93613 0.45589
 C508 C 0.75468 0.88969 0.43991
 H509 H 0.73655 0.87566 0.43530
 C510 C 0.76959 0.90336 0.41652
 H511 H 0.76256 0.90001 0.39421
 N512 N 0.76384 0.89274 0.46802
 C513 C 0.70867 0.87495 0.54559
 H514 H 0.70603 0.85178 0.54168
 C515 C 0.69466 0.88776 0.56974
 H516 H 0.68107 0.87445 0.58436
 C517 C 0.73057 0.92026 0.53192
 H518 H 0.74492 0.93263 0.51729
 C519 C 0.71697 0.93399 0.55609
 H520 H 0.72081 0.95699 0.56007
 Zn521 Zn 0.74646 0.86901 0.49821
 N522 N 0.72655 0.89109 0.52752
 C523 C 0.78048 0.84836 0.54581
 N524 N 0.77681 0.84644 0.51625
 C525 C 0.79537 0.82976 0.49937
 C526 C 0.81850 0.81381 0.51229
 C527 C 0.80323 0.83282 0.55955
 C528 C 0.69331 0.85794 0.47176
 C529 C 0.67149 0.84168 0.45883
 C530 C 0.70091 0.79762 0.46713
 C531 C 0.72226 0.81476 0.47996
 N532 N 0.71826 0.84442 0.48163
 H533 H 0.76602 0.86220 0.55883
 H534 H 0.79229 0.82902 0.47586
 H535 H 0.83324 0.80062 0.49875
 H536 H 0.80599 0.83458 0.58306
 H537 H 0.69058 0.88150 0.47370
 H538 H 0.65185 0.85270 0.45076
 H539 H 0.70429 0.77407 0.46559
 H540 H 0.74196 0.80436 0.48841
 C541 C 0.69912 0.91740 0.57532
 C542 C 0.79427 0.92005 0.42204
 C543 C 0.67541 0.81129 0.45634
 C544 C 0.82241 0.81542 0.54268
 C545 C -0.02549 0.28649 0.40916
 H546 H -0.00305 0.29371 0.41051
 C547 C -0.04821 0.30227 0.42332
 H548 H -0.04324 0.32154 0.43581
 C549 C -0.05987 0.25392 0.38954
 H550 H -0.06466 0.23580 0.37556
 C551 C -0.08307 0.26890 0.40339
 H552 H -0.10543 0.26196 0.40021
 N553 N -0.03172 0.26299 0.39237
 C554 C 0.04577 0.20801 0.37415
 H555 H 0.04194 0.20555 0.35092
 C556 C 0.06988 0.19394 0.38696
 H557 H 0.08458 0.18051 0.37359
 C558 C 0.03186 0.22943 0.41963
 H559 H 0.01713 0.24359 0.43208
 C560 C 0.05598 0.21575 0.43337
 H561 H 0.05983 0.21937 0.45645
 Zn562 Zn -0.00178 0.24560 0.36842
 N563 N 0.02761 0.22568 0.39038
 C564 C 0.04561 0.27979 0.34752
 N565 N 0.01608 0.27599 0.34575
 C566 C -0.00096 0.29455 0.32921
 C567 C 0.01175 0.31782 0.31328
 C568 C 0.05915 0.30269 0.33198
 C569 C -0.02840 0.19249 0.35754
 C570 C -0.04149 0.17071 0.34134
 C571 C -0.03336 0.20013 0.29720
 C572 C -0.02038 0.22144 0.31427
 N573 N -0.01855 0.21742 0.34394
 H574 H 0.05876 0.26535 0.36126
 H575 H -0.02445 0.29138 0.32860
 H576 H -0.00191 0.33257 0.30021
 H577 H 0.08265 0.30557 0.33364
 H578 H -0.02633 0.18974 0.38110
 H579 H -0.04955 0.15108 0.35242
 H580 H -0.03503 0.20352 0.27364
 H581 H -0.01194 0.24113 0.30381
 C582 C 0.07531 0.19813 0.41670
 C583 C -0.07731 0.29357 0.42002
 C584 C -0.04415 0.17464 0.31095
 C585 C 0.04210 0.32188 0.31475
 C586 C 1.02554 0.78822 0.09007
 H587 H 1.00309 0.79623 0.08842
 C588 C 1.04836 0.80365 0.07600
 H589 H 1.04347 0.82345 0.06329
 C590 C 1.05979 0.75393 0.11035
 H591 H 1.06449 0.73528 0.12458
 C592 C 1.08309 0.76852 0.09660
 H593 H 1.10543 0.76074 0.10008
 N594 N 1.03166 0.76405 0.10716
 C595 C 0.95323 0.71240 0.12532
 H596 H 0.95607 0.71007 0.14883
 C597 C 0.92981 0.69889 0.11208
 H598 H 0.91457 0.68608 0.12542
 C599 C 0.96940 0.73242 0.07937
 H600 H 0.98488 0.74562 0.06685
 C601 C 0.94605 0.71925 0.06517
 H602 H 0.94350 0.72235 0.04167
 Zn603 Zn 1.00156 0.74706 0.13106
 N604 N 0.97221 0.72907 0.10902
 C605 C 0.95457 0.78263 0.15259
 N606 N 0.98408 0.77735 0.15384
 C607 C 1.00159 0.79424 0.17033
 C608 C 0.98938 0.81712 0.18694
 C609 C 0.94151 0.80523 0.16883
 C610 C 1.02825 0.69257 0.14221
 C611 C 1.04175 0.67003 0.15853
 C612 C 1.03334 0.69832 0.20247
 C613 C 1.01997 0.72039 0.18529
 N614 N 1.01817 0.71735 0.15565
 H615 H 0.94107 0.76953 0.13884
 H616 H 1.02505 0.78993 0.17051
 H617 H 1.00342 0.83045 0.20005
 H618 H 0.91802 0.80926 0.16769
 H619 H 1.02621 0.69061 0.11866
 H620 H 1.05014 0.65059 0.14757
 H621 H 1.03510 0.70101 0.22599
 H622 H 1.01130 0.73995 0.19565
 C623 C 0.92598 0.70252 0.08182
 C624 C 1.07744 0.79387 0.07970
 C625 C 1.04455 0.67306 0.18887
 C626 C 0.95905 0.82258 0.18618
 C627 C 0.52529 0.28857 0.59094
 H628 H 0.50277 0.29638 0.58937
 C629 C 0.54792 0.30419 0.57679
 H630 H 0.54281 0.32395 0.56409
 C631 C 0.55991 0.25457 0.61109
 H632 H 0.56481 0.23595 0.62529
 C633 C 0.58302 0.26937 0.59725
 H634 H 0.60544 0.26179 0.60065
 N635 N 0.53169 0.26445 0.60800
 C636 C 0.45360 0.21230 0.62604
 H637 H 0.45631 0.21000 0.64956
 C638 C 0.43033 0.19866 0.61267
 H639 H 0.41507 0.18579 0.62593
 C640 C 0.46994 0.23234 0.58015
 H641 H 0.48543 0.24559 0.56770
 C642 C 0.44675 0.21904 0.56583
 H643 H 0.44433 0.22210 0.54231
 Zn644 Zn 0.50178 0.24720 0.63191
 N645 N 0.47258 0.22905 0.60983
 C646 C 0.45459 0.28251 0.65351
 N647 N 0.48413 0.27738 0.65471
 C648 C 0.50160 0.29438 0.67112
 C649 C 0.48933 0.31727 0.68767
 C650 C 0.44147 0.30512 0.66970
 C651 C 0.52893 0.19292 0.64300
 C652 C 0.54261 0.17049 0.65931
 C653 C 0.53392 0.19868 0.70327
 C654 C 0.52037 0.22064 0.68611
 N655 N 0.51862 0.21761 0.65646
 H656 H 0.44113 0.26931 0.63982
 H657 H 0.52507 0.29018 0.67126
 H658 H 0.50334 0.33072 0.70070
 H659 H 0.41796 0.30905 0.66858
 H660 H 0.52692 0.19096 0.61945
 H661 H 0.55117 0.15112 0.64834
 H662 H 0.53564 0.20137 0.72680
 H663 H 0.51152 0.24012 0.69648
 C664 C 0.42667 0.20223 0.58238
 C665 C 0.57709 0.29467 0.58038
 C666 C 0.54536 0.17353 0.68966
 C667 C 0.45897 0.32261 0.68694
 C668 C 0.47367 0.78693 0.90981
 H669 H 0.49605 0.79430 0.91138
 C670 C 0.45073 0.80255 0.92381
 H671 H 0.45546 0.82182 0.93641
 C672 C 0.43969 0.75419 0.88981
 H673 H 0.43514 0.73608 0.87575
 C674 C 0.41628 0.76900 0.90350
 H675 H 0.39400 0.76191 0.90012
 N676 N 0.46775 0.76343 0.89291
 C677 C 0.54539 0.70846 0.87516
 H678 H 0.54151 0.70584 0.85197
 C679 C 0.56954 0.69450 0.88800
 H680 H 0.58419 0.68096 0.87468
 C681 C 0.53166 0.73028 0.92049
 H682 H 0.51700 0.74458 0.93286
 C683 C 0.55582 0.71672 0.93426
 H684 H 0.55977 0.72054 0.95728
 Zn685 Zn 0.49798 0.74615 0.86918
 N686 N 0.52729 0.72628 0.89130
 C687 C 0.54548 0.78031 0.84858
 N688 N 0.51596 0.77658 0.84663
 C689 C 0.49907 0.79513 0.82992
 C690 C 0.51195 0.81830 0.81399
 C691 C 0.55918 0.80311 0.83305
 C692 C 0.47167 0.69294 0.85805
 C693 C 0.45875 0.67114 0.84176
 C694 C 0.46694 0.70067 0.79771
 C695 C 0.47976 0.72200 0.81486
 N696 N 0.48147 0.71794 0.84454
 H697 H 0.55851 0.76587 0.86244
 H698 H 0.47558 0.79200 0.82916
 H699 H 0.49841 0.83303 0.80077
 H700 H 0.58267 0.80592 0.83483
 H701 H 0.47364 0.69017 0.88162
 H702 H 0.45071 0.65147 0.85278
 H703 H 0.46535 0.70409 0.77414
 H704 H 0.48816 0.74174 0.80447
 C705 C 0.57509 0.69894 0.91767
 C706 C 0.42172 0.79366 0.92024
 C707 C 0.45619 0.67512 0.81136
 C708 C 0.54231 0.82227 0.81562
 C709 C 0.45082 -0.17242 0.35292
 C710 C 0.44610 -0.14939 0.34014
 C711 C 0.43901 -0.12316 0.32449
 C712 C 0.43141 -0.10163 0.31052
 C713 C 0.95048 0.32592 0.85309
 C714 C 0.94576 0.34911 0.84056
 C715 C 0.93871 0.37553 0.82523
 C716 C 0.93114 0.39725 0.81151
 C717 C 0.04983 1.17285 0.85227
 C718 C 0.05430 1.14982 0.84010
 C719 C 0.06111 1.12356 0.82514
 C720 C 0.06849 1.10197 0.81169
 C721 C 0.55029 0.67178 0.35254
 C722 C 0.55488 0.64893 0.34009
 C723 C 0.56181 0.62289 0.32481
 C724 C 0.56930 0.60150 0.31111
 C725 C 0.54734 0.33041 0.15278
 C726 C 0.55241 0.35344 0.16422
 C727 C 0.56048 0.37984 0.17750
 C728 C 0.56937 0.40174 0.18864
 C729 C 0.04670 0.82953 0.65445
 C730 C 0.05150 0.85260 0.66592
 C731 C 0.05930 0.87910 0.67921
 C732 C 0.06803 0.90108 0.69033
 C733 C 0.94932 0.67623 0.65268
 C734 C 0.94479 0.65231 0.66355
 C735 C 0.93766 0.62472 0.67622
 C736 C 0.92964 0.60171 0.68695
 C737 C 0.44892 0.17617 0.15034
 C738 C 0.44428 0.15228 0.16120
 C739 C 0.43703 0.12473 0.17390
 C740 C 0.42896 0.10176 0.18468
 C741 C 0.35314 0.45086 -0.17369
 C742 C 0.34037 0.44623 -0.15062
 C743 C 0.32475 0.43925 -0.12433
 C744 C 0.31081 0.43173 -0.10274
 C745 C 0.85333 0.95027 0.32622
 C746 C 0.84073 0.94562 0.34938
 C747 C 0.82531 0.93862 0.37578
 C748 C 0.81151 0.93111 0.39748
 C749 C 0.85256 0.04935 1.17293
 C750 C 0.84031 0.05381 1.14992
 C751 C 0.82526 0.06061 1.12369
 C752 C 0.81176 0.06800 1.10212
 C753 C 0.35231 0.55008 0.67176
 C754 C 0.33993 0.55466 0.64885
 C755 C 0.32473 0.56157 0.62274
 C756 C 0.31108 0.56904 0.60129
 C757 C 0.15278 0.54762 0.32978
 C758 C 0.16427 0.55263 0.35280
 C759 C 0.17761 0.56062 0.37921
 C760 C 0.18880 0.56944 0.40112
 C761 C 0.65426 0.04658 0.82964
 C762 C 0.66576 0.05136 0.85272
 C763 C 0.67908 0.05914 0.87921
 C764 C 0.69024 0.06784 0.90119
 C765 C 0.65223 0.94925 0.67632
 C766 C 0.66310 0.94473 0.65240
 C767 C 0.67578 0.93761 0.62480
 C768 C 0.68652 0.92961 0.60179
 C769 C 0.15072 0.44960 0.17533
 C770 C 0.16164 0.44501 0.15145
 C771 C 0.17441 0.43780 0.12392
 C772 C 0.18523 0.42973 0.10097
 C773 C -0.17244 0.35330 0.45067
 C774 C -0.14942 0.34052 0.44593
 C775 C -0.12321 0.32489 0.43883
 C776 C -0.10168 0.31094 0.43121
 C777 C 0.32580 0.85236 0.95057
 C778 C 0.34898 0.83983 0.94588
 C779 C 0.37540 0.82451 0.93886
 C780 C 0.39712 0.81080 0.93133
 C781 C 1.17271 0.85146 0.04993
 C782 C 1.14970 0.83924 0.05444
 C783 C 1.12346 0.82424 0.06127
 C784 C 1.10188 0.81077 0.06868
 C785 C 0.67169 0.35309 0.55020
 C786 C 0.64881 0.34069 0.55480
 C787 C 0.62274 0.32545 0.56175
 C788 C 0.60133 0.31178 0.56926
 C789 C 0.33033 0.15330 0.54714
 C790 C 0.35333 0.16478 0.55219
 C791 C 0.37972 0.17810 0.56026
 C792 C 0.40160 0.18927 0.56916
 C793 C 0.82912 0.65393 0.04745
 C794 C 0.85221 0.66536 0.05226
 C795 C 0.87873 0.67860 0.06006
 C796 C 0.90074 0.68969 0.06876
 C797 C 0.67604 0.65220 0.94970
 C798 C 0.65213 0.66304 0.94513
 C799 C 0.62455 0.67568 0.93795
 C800 C 0.60155 0.68638 0.92991
 C801 C 0.17601 0.15102 0.44893
 C802 C 0.15214 0.16192 0.44431
 C803 C 0.12462 0.17464 0.43707
 C804 C 0.10169 0.18543 0.42898
 C805 C 0.60041 0.08867 0.74749
 C806 C 0.58782 0.10874 0.73513
 C807 C 0.57292 0.13170 0.72004
 C808 C 0.56023 0.15094 0.70654
 C809 C 1.09908 0.58789 0.24672
 C810 C 1.08659 0.60801 0.23435
 C811 C 1.07181 0.63105 0.21925
 C812 C 1.05925 0.65038 0.20575
 C813 C 0.90799 0.90956 0.24332
 C814 C 0.92013 0.88941 0.23093
 C815 C 0.93417 0.86607 0.21591
 C816 C 0.94580 0.84623 0.20261
 C817 C 0.40801 0.40989 0.74370
 C818 C 0.42009 0.38966 0.73139
 C819 C 0.43407 0.36623 0.71646
 C820 C 0.44570 0.34632 0.70325
 C821 C 0.40523 0.59102 0.75454
 C822 C 0.41689 0.61101 0.76650
 C823 C 0.43067 0.63387 0.78122
 C824 C 0.44240 0.65294 0.79452
 C825 C -0.09540 0.09058 0.25431
 C826 C -0.08371 0.11057 0.26626
 C827 C -0.06986 0.13342 0.28094
 C828 C -0.05806 0.15247 0.29419
 C829 C 0.09609 0.40926 0.26069
 C830 C 0.08318 0.38930 0.27260
 C831 C 0.06824 0.36595 0.28677
 C832 C 0.05593 0.34593 0.29925
 C833 C 0.59719 0.90906 0.76152
 C834 C 0.58405 0.88923 0.77339
 C835 C 0.56884 0.86605 0.78756
 C836 C 0.55633 0.84618 0.80006
 C837 C 0.74758 0.60092 0.08807
 C838 C 0.73523 0.58832 0.10815
 C839 C 0.72012 0.57339 0.13111
 C840 C 0.70662 0.56067 0.15034
 C841 C 0.24650 1.09896 0.58873
 C842 C 0.23408 1.08648 0.60884
 C843 C 0.21892 1.07173 0.63188
 C844 C 0.20539 1.05919 0.65121
 C845 C 0.24289 0.90706 0.90998
 C846 C 0.23050 0.91930 0.88989
 C847 C 0.21544 0.93348 0.86662
 C848 C 0.20212 0.94524 0.84685
 C849 C 0.74346 0.40870 0.40979
 C850 C 0.73116 0.42071 0.38950
 C851 C 0.71626 0.43462 0.36598
 C852 C 0.70310 0.44618 0.34599
 C853 C 0.75449 0.40587 0.59117
 C854 C 0.76645 0.41744 0.61122
 C855 C 0.78116 0.43112 0.63416
 C856 C 0.79444 0.44277 0.65330
 C857 C 0.25407 -0.09629 0.09092
 C858 C 0.26604 -0.08447 0.11082
 C859 C 0.28077 -0.07046 0.13354
 C860 C 0.29407 -0.05851 0.15247
 C861 C 0.26133 0.09641 0.40874
 C862 C 0.27321 0.08346 0.38880
 C863 C 0.28735 0.06848 0.36547
 C864 C 0.29979 0.05613 0.34546
 C865 C 0.76124 0.59722 0.90965
 C866 C 0.77311 0.58408 0.88983
 C867 C 0.78730 0.56888 0.86667
 C868 C 0.79981 0.55637 0.84680
 C869 C 0.08867 0.74742 0.60054
 C870 C 0.10869 0.73508 0.58790
 C871 C 0.13160 0.71998 0.57292
 C872 C 0.15078 0.70648 0.56017
 C873 C 0.58887 0.24638 1.09878
 C874 C 0.60896 0.23389 1.08640
 C875 C 0.63200 0.21866 1.07175
 C876 C 0.65131 0.20508 1.05929
 C877 C 0.90998 0.24282 0.90766
 C878 C 0.88989 0.23036 0.91984
 C879 C 0.86663 0.21525 0.93394
 C880 C 0.84686 0.20188 0.94564
 C881 C 0.41000 0.74338 0.40832
 C882 C 0.38973 0.73104 0.42033
 C883 C 0.36624 0.71611 0.43424
 C884 C 0.34628 0.70291 0.44580
 C885 C 0.59121 0.75449 0.40552
 C886 C 0.61122 0.76645 0.41714
 C887 C 0.63411 0.78117 0.43088
 C888 C 0.65320 0.79446 0.44258
 C889 C 0.09093 0.25444 -0.09594
 C890 C 0.11088 0.26647 -0.08427
 C891 C 0.13367 0.28125 -0.07044
 C892 C 0.15267 0.29459 -0.05864
 C893 C 0.40897 0.26169 0.09577
 C894 C 0.38907 0.27364 0.08281
 C895 C 0.36579 0.28784 0.06781
 C896 C 0.34583 0.30033 0.05545
 C897 C 0.90912 0.76137 0.59764
 C898 C 0.88929 0.77322 0.58449
 C899 C 0.86614 0.78738 0.56926
 C900 C 0.84628 0.79987 0.55673
   
