data_POSCAR
  _audit_creation_date              2014-09-24
  _audit_creation_method            'ToBaCCo'
  _symmetry_space_group_name_H-M    'P1'
  _symmetry_Int_Tables_number       1
  _symmetry_cell_setting            triclinic
  loop_
  _symmetry_equiv_pos_as_xyz
 x,y,z
_cell_length_a 24.8385
_cell_length_b 24.8385
_cell_length_c 24.8907
_cell_angle_alpha 90.124400
_cell_angle_beta 90.124400
_cell_angle_gamma 90.000000
loop_
  _atom_site_label
  _atom_site_type_symbol
  _atom_site_fract_x
  _atom_site_fract_y
  _atom_site_fract_z
O1 O 0.44860 0.95584 -0.55156
 O2 O 0.55363 0.95579 -0.44674
 O3 O 0.44877 0.95514 -0.44695
 O4 O 0.55342 0.95517 -0.55140
 O5 O 0.55350 1.04421 -0.55124
 O6 O 0.44870 1.04418 -0.44664
 O7 O 0.55356 1.04482 -0.44658
 O8 O 0.44868 1.04488 -0.55126
 Cu9 Cu 0.50112 0.94650 -0.49918
 Cu10 Cu 0.50112 1.05351 -0.49890
 C11 C 0.43094 1.00041 -0.56910
 C12 C 0.57131 1.00034 -0.42896
 C13 C 0.43104 0.99960 -0.42917
 C14 C 0.57110 0.99965 -0.56899
 O15 O -0.55469 1.44734 -0.04409
 O16 O -0.44978 1.55227 -0.04427
 O17 O -0.44984 1.44746 -0.04482
 O18 O -0.55463 1.55223 -0.04484
 O19 O -0.55445 1.55258 0.04400
 O20 O -0.44951 1.44767 0.04404
 O21 O -0.44960 1.55248 0.04458
 O22 O -0.55437 1.44769 0.04475
 Cu23 Cu -0.50228 1.49980 -0.05347
 Cu24 Cu -0.50198 1.50013 0.05331
 C25 C -0.57221 1.42978 0.00041
 C26 C -0.43197 1.57005 0.00018
 C27 C -0.43195 1.42990 -0.00043
 C28 C -0.57223 1.57014 -0.00048
 O29 O 0.04488 0.44861 0.44874
 O30 O 0.04484 0.55347 0.55344
 O31 O 0.04415 0.44861 0.55335
 O32 O 0.04425 0.55343 0.44878
 O33 O -0.04479 0.55338 0.44861
 O34 O -0.04488 0.44870 0.55303
 O35 O -0.04419 0.55356 0.55327
 O36 O -0.04416 0.44856 0.44842
 Cu37 Cu 0.05351 0.50104 0.50111
 Cu38 Cu -0.05349 0.50107 0.50082
 C39 C 0.00041 0.43089 0.43088
 C40 C 0.00036 0.57123 0.57106
 C41 C -0.00043 0.43096 0.57081
 C42 C -0.00030 0.57105 0.43102
 O43 O -0.13866 1.00165 -0.07297
 O44 O 0.13858 0.99813 -0.07266
 O45 O -0.00188 1.07266 -0.13837
 O46 O 0.00166 0.92695 -0.13850
 O47 O 0.00171 0.86126 -0.07295
 O48 O -0.00182 1.13850 -0.07268
 O49 O 0.07275 0.99805 -0.13836
 O50 O -0.07296 1.00157 -0.13851
 Zr51 Zr -0.00006 0.99986 -0.09470
 O52 O 0.04884 0.95104 -0.04886
 O53 O -0.04888 1.04878 -0.04888
 C54 C -0.12258 1.00240 -0.12248
 C55 C 0.12240 0.99728 -0.12221
 C56 C -0.00266 1.12232 -0.12223
 C57 C 0.00247 0.87733 -0.12247
 H58 H 0.07154 1.07147 -0.07139
 O59 O 0.04859 1.04852 -0.04851
 H60 H -0.07163 0.92830 -0.07169
 O61 O -0.04863 0.95131 -0.04871
 O62 O 0.13874 1.00181 0.07275
 O63 O -0.13849 0.99828 0.07246
 O64 O 0.07288 1.13859 0.00185
 O65 O 0.07287 0.86134 -0.00192
 O66 O -0.07284 0.86136 0.00145
 O67 O -0.07284 1.13858 -0.00181
 O68 O 0.00195 1.07299 0.13827
 O69 O -0.00158 0.92731 0.13814
 O70 O 0.00187 1.13868 0.07273
 O71 O -0.00167 0.86145 0.07248
 O72 O 0.13865 1.07284 0.00186
 O73 O -0.13859 1.07282 -0.00194
 O74 O -0.13859 0.92713 0.00143
 O75 O 0.13864 0.92709 -0.00180
 O76 O 0.07304 1.00190 0.13828
 O77 O -0.07264 0.99836 0.13813
 Zr78 Zr 0.09483 0.99997 -0.00001
 Zr79 Zr -0.09476 0.99997 -0.00021
 Zr80 Zr 0.00003 1.09476 -0.00002
 Zr81 Zr 0.00002 0.90517 -0.00020
 Zr82 Zr 0.00015 1.00009 0.09446
 O83 O -0.04878 0.95117 0.04855
 O84 O 0.04896 1.04890 0.04874
 C85 C 0.12266 1.00267 0.12226
 C86 C -0.12229 0.99753 0.12200
 C87 C 0.12252 1.12248 0.00268
 C88 C 0.12251 0.87745 -0.00265
 C89 C -0.12248 0.87750 0.00221
 C90 C -0.12247 1.12245 -0.00268
 C91 C 0.00272 1.12261 0.12224
 C92 C -0.00241 0.87765 0.12202
 H93 H -0.07147 1.07164 0.07132
 O94 O -0.04852 1.04864 0.04839
 H95 H 0.07169 0.92847 0.07133
 O96 O 0.04869 0.95142 0.04839
 C97 C 0.29998 1.00924 0.22833
 C98 C 0.30374 1.04930 0.27599
 C99 C 0.31419 1.00178 0.31402
 C100 C 0.31108 0.96171 0.26701
 C101 C 0.23941 1.00308 0.23907
 C102 C 0.24987 0.95556 0.27710
 C103 C 0.24251 1.04315 0.28607
 C104 C 0.25361 0.99562 0.32475
 C105 C 0.35584 1.00106 0.35576
 C106 C 0.39012 1.00062 0.39008
 C107 C 0.19776 1.00350 0.19734
 C108 C 0.16348 1.00341 0.16303
 H109 H 0.31857 1.01486 0.18821
 H110 H 0.32636 1.08785 0.27599
 H111 H 0.33972 0.92820 0.25964
 H112 H 0.22724 0.91702 0.27709
 H113 H 0.21385 1.07665 0.29342
 H114 H 0.23501 0.99000 0.36486
 C115 C -0.29937 0.99436 0.22796
 C116 C -0.30479 0.95229 0.27350
 C117 C -0.31280 0.99838 0.31397
 C118 C -0.30802 1.04045 0.26908
 C119 C -0.23852 0.99714 0.23883
 C120 C -0.24654 1.04322 0.27931
 C121 C -0.24329 0.95506 0.28372
 C122 C -0.25195 1.00116 0.32484
 C123 C -0.35418 0.99907 0.35580
 C124 C -0.38827 0.99948 0.39017
 C125 C -0.19712 0.99674 0.19704
 C126 C -0.16300 0.99682 0.16272
 H127 H -0.31839 0.99154 0.18765
 H128 H -0.32921 0.91490 0.27158
 H129 H -0.33508 1.07558 0.26353
 H130 H -0.22211 1.08061 0.28122
 H131 H -0.21622 0.91994 0.28925
 H132 H -0.23291 1.00398 0.36514
 C133 C -0.23706 0.96807 -0.29041
 C134 C -0.29667 0.95210 -0.28158
 C135 C -0.31413 1.00153 -0.31425
 C136 C -0.25515 1.01750 -0.32373
 C137 C -0.23935 1.00276 -0.23929
 C138 C -0.25679 1.05221 -0.27196
 C139 C -0.29832 0.98680 -0.22981
 C140 C -0.31642 1.03623 -0.26313
 C141 C -0.35578 1.00087 -0.35600
 C142 C -0.39007 1.00049 -0.39033
 C143 C -0.19770 1.00317 -0.19756
 C144 C -0.16341 1.00309 -0.16326
 H145 H -0.20395 0.94005 -0.30116
 H146 H -0.31353 0.91093 -0.28600
 H147 H -0.23787 1.03011 -0.36282
 H148 H -0.23993 1.09337 -0.26752
 H149 H -0.31560 0.97419 -0.19071
 H150 H -0.34953 1.06425 -0.25237
 C151 C 0.22998 1.01490 -0.29680
 C152 C 0.28275 1.04804 -0.29399
 C153 C 0.31414 0.99824 -0.31294
 C154 C 0.26202 0.96509 -0.31639
 C155 C 0.23919 0.99692 -0.23849
 C156 C 0.27057 0.94710 -0.25742
 C157 C 0.29131 1.03006 -0.23503
 C158 C 0.32335 0.98025 -0.25461
 C159 C 0.35589 0.99896 -0.35441
 C160 C 0.39021 0.99940 -0.38854
 C161 C 0.19747 0.99648 -0.19701
 C162 C 0.16317 0.99655 -0.16287
 H163 H 0.19111 1.02912 -0.31368
 H164 H 0.28822 1.08956 -0.30948
 H165 H 0.25043 0.93839 -0.35032
 H166 H 0.26509 0.90559 -0.24191
 H167 H 0.30289 1.05676 -0.20110
 H168 H 0.36222 0.96603 -0.23772
 C169 C 0.28880 1.24027 0.03988
 C170 C 0.32412 1.25478 -0.00924
 C171 C 0.31357 1.31474 0.00181
 C172 C 0.27890 1.30088 0.05092
 C173 C 0.23905 1.23954 0.00311
 C174 C 0.22850 1.29949 0.01416
 C175 C 0.27372 1.25339 -0.04600
 C176 C 0.26382 1.31399 -0.03496
 C177 C 0.35509 1.35662 0.00109
 C178 C 0.38927 1.39105 0.00064
 C179 C 0.19751 1.19769 0.00353
 C180 C 0.16330 1.16331 0.00343
 H181 H 0.29859 1.20950 0.07067
 H182 H 0.36389 1.23686 -0.01888
 H183 H 0.28149 1.32089 0.09077
 H184 H 0.18872 1.31739 0.02380
 H185 H 0.27113 1.23338 -0.08584
 H186 H 0.25401 1.34476 -0.06574
 C187 C 0.26090 0.73199 -0.05333
 C188 C 0.31883 0.73919 -0.03124
 C189 C 0.31354 0.68517 -0.00176
 C190 C 0.25626 0.67731 -0.02385
 C191 C 0.23901 0.76038 -0.00303
 C192 C 0.23372 0.70636 0.02645
 C193 C 0.29629 0.76824 0.01906
 C194 C 0.29164 0.71357 0.04854
 C195 C 0.35506 0.64329 -0.00107
 C196 C 0.38924 0.60886 -0.00066
 C197 C 0.19748 0.80223 -0.00344
 C198 C 0.16328 0.83662 -0.00336
 H199 H 0.24780 0.74004 -0.09522
 H200 H 0.35431 0.75223 -0.05494
 H201 H 0.24025 0.63945 -0.04147
 H202 H 0.19825 0.69333 0.05015
 H203 H 0.31228 0.80610 0.03669
 H204 H 0.30472 0.70554 0.09043
 C205 C -0.29181 0.76442 -0.03039
 C206 C -0.28353 0.70527 -0.04843
 C207 C -0.31475 0.68647 0.00133
 C208 C -0.32368 0.74498 0.01937
 C209 C -0.23954 0.76100 0.00255
 C210 C -0.27075 0.74221 0.05231
 C211 C -0.23061 0.70249 -0.01549
 C212 C -0.26248 0.68305 0.03427
 C213 C -0.35663 0.64495 0.00068
 C214 C -0.39105 0.61077 0.00030
 C215 C -0.19769 0.80252 0.00295
 C216 C -0.16331 0.83673 0.00288
 H217 H -0.30340 0.79835 -0.05697
 H218 H -0.28925 0.68962 -0.08987
 H219 H -0.36242 0.76200 0.03368
 H220 H -0.26502 0.75787 0.09374
 H221 H -0.19187 0.68548 -0.02981
 H222 H -0.25088 0.64912 0.06084
 C223 C -0.24819 1.28068 -0.04770
 C224 C -0.30955 1.26975 -0.04515
 C225 C -0.31471 1.31350 -0.00173
 C226 C -0.25401 1.32508 -0.00427
 C227 C -0.23952 1.23897 -0.00302
 C228 C -0.24468 1.28273 0.04039
 C229 C -0.30021 1.22739 -0.00048
 C230 C -0.30603 1.27179 0.04294
 C231 C -0.35659 1.35502 -0.00103
 C232 C -0.39102 1.38919 -0.00061
 C233 C -0.19767 1.19744 -0.00345
 C234 C -0.16330 1.16322 -0.00338
 H235 H -0.22394 1.28386 -0.08496
 H236 H -0.33670 1.26487 -0.08031
 H237 H -0.23548 1.36572 -0.00581
 H238 H -0.21753 1.28760 0.07555
 H239 H -0.31874 1.18675 0.00106
 H240 H -0.33027 1.26859 0.08021
 C241 C 0.01061 1.22849 0.29931
 C242 C 0.04982 1.27691 0.30259
 C243 C 0.00178 1.31416 0.31398
 C244 C -0.03743 1.26639 0.31134
 C245 C 0.00310 1.23939 0.23903
 C246 C -0.04494 1.27664 0.25042
 C247 C 0.04231 1.28715 0.24165
 C248 C -0.00574 1.32505 0.25369
 C249 C 0.00105 1.35581 0.35572
 C250 C 0.00061 1.39008 0.39005
 C251 C 0.00353 1.19773 0.19731
 C252 C 0.00345 1.16344 0.16301
 H253 H 0.01736 1.18832 0.31759
 H254 H 0.08878 1.27748 0.32452
 H255 H -0.07024 1.25832 0.34045
 H256 H -0.08390 1.27605 0.22848
 H257 H 0.07511 1.29520 0.21253
 H258 H -0.01249 1.36521 0.23540
 C259 C 0.04548 1.25161 -0.27448
 C260 C 0.00731 1.25381 -0.32374
 C261 C -0.00182 1.31404 -0.31297
 C262 C 0.03636 1.31249 -0.26436
 C263 C -0.00311 1.23909 -0.23852
 C264 C -0.01224 1.29933 -0.22774
 C265 C -0.04129 1.24063 -0.28712
 C266 C -0.05041 1.30153 -0.27700
 C267 C -0.00110 1.35579 -0.35444
 C268 C -0.00065 1.39012 -0.38856
 C269 C -0.00352 1.19737 -0.19704
 C270 C -0.00342 1.16308 -0.16289
 H271 H 0.08490 1.23061 -0.27298
 H272 H 0.01537 1.23555 -0.36367
 H273 H 0.06830 1.34249 -0.25545
 H274 H -0.02030 1.31756 -0.18781
 H275 H -0.07323 1.21062 -0.29600
 H276 H -0.08984 1.32253 -0.27850
 C277 C 0.03348 0.70695 -0.23575
 C278 C -0.01750 0.67728 -0.25619
 C279 C 0.00159 0.68577 -0.31422
 C280 C 0.05257 0.71479 -0.29444
 C281 C 0.00284 0.76055 -0.23926
 C282 C 0.02193 0.76905 -0.29729
 C283 C -0.04813 0.73153 -0.25904
 C284 C -0.02905 0.73938 -0.31772
 C285 C 0.00092 0.64412 -0.35597
 C286 C 0.00052 0.60984 -0.39030
 C287 C 0.00325 0.80221 -0.19753
 C288 C 0.00317 0.83650 -0.16323
 H289 H 0.05921 0.69409 -0.20159
 H290 H -0.03373 0.63909 -0.23975
 H291 H 0.09397 0.70744 -0.30947
 H292 H 0.03817 0.80725 -0.31371
 H293 H -0.08954 0.73888 -0.24401
 H294 H -0.05478 0.75226 -0.35187
 C295 C 0.00345 0.70083 0.22810
 C296 C 0.04484 0.69762 0.27464
 C297 C -0.00154 0.68716 0.31400
 C298 C -0.04292 0.68974 0.26810
 C299 C -0.00278 0.76144 0.23886
 C300 C -0.04916 0.75099 0.27821
 C301 C 0.03860 0.75886 0.28475
 C302 C -0.00777 0.74777 0.32476
 C303 C -0.00086 0.64578 0.35583
 C304 C -0.00046 0.61169 0.39019
 C305 C -0.00319 0.80283 0.19706
 C306 C -0.00311 0.83696 0.16274
 H307 H 0.00804 0.68200 0.18788
 H308 H 0.08350 0.67522 0.27363
 H309 H -0.07644 0.66084 0.26172
 H310 H -0.08782 0.77340 0.27920
 H311 H 0.07212 0.78776 0.29112
 H312 H -0.01235 0.76661 0.36497
   
