data_POSCAR
  _audit_creation_date              2014-09-24
  _audit_creation_method            'ToBaCCo'
  _symmetry_space_group_name_H-M    'P1'
  _symmetry_Int_Tables_number       1
  _symmetry_cell_setting            triclinic
  loop_
  _symmetry_equiv_pos_as_xyz
 x,y,z
_cell_length_a 28.0622
_cell_length_b 23.0068
_cell_length_c 20.7193
_cell_angle_alpha 89.941700
_cell_angle_beta 89.955100
_cell_angle_gamma 90.049900
loop_
  _atom_site_label
  _atom_site_type_symbol
  _atom_site_fract_x
  _atom_site_fract_y
  _atom_site_fract_z
C1 C 0.14703 0.25370 0.14849
 C2 C 0.16863 0.20041 0.16418
 C3 C 0.21086 0.20130 0.20096
 C4 C 0.22918 0.25337 0.22750
 C5 C 0.20444 0.30542 0.21379
 C6 C 0.16475 0.30628 0.17268
 C7 C 0.27365 0.25340 0.26902
 C8 C 0.29810 0.30559 0.28328
 C9 C 0.33764 0.30646 0.32462
 C10 C 0.35555 0.25387 0.34846
 C11 C 0.33429 0.20052 0.33222
 C12 C 0.29221 0.20127 0.29516
 H13 H 0.11483 0.25454 0.12004
 H14 H 0.23005 0.16121 0.20676
 H15 H 0.21574 0.34602 0.23430
 H16 H 0.28667 0.34629 0.26306
 H17 H 0.38768 0.25478 0.37707
 H18 H 0.27329 0.16101 0.28889
 C19 C 0.85650 0.25220 0.15305
 C20 C 0.83993 0.30437 0.17974
 C21 C 0.79965 0.30335 0.21990
 C22 C 0.77353 0.25160 0.23000
 C23 C 0.79034 0.20013 0.20065
 C24 C 0.83264 0.19967 0.16441
 C25 C 0.72920 0.25128 0.27101
 C26 C 0.71287 0.19962 0.30059
 C27 C 0.67087 0.19838 0.33794
 C28 C 0.64743 0.25126 0.35015
 C29 C 0.66329 0.30346 0.32250
 C30 C 0.70294 0.30270 0.28133
 H31 H 0.88909 0.25229 0.12517
 H32 H 0.78880 0.34331 0.24268
 H33 H 0.77048 0.16011 0.20493
 H34 H 0.73371 0.16050 0.29627
 H35 H 0.61533 0.25198 0.37888
 H36 H 0.71336 0.34266 0.25806
 C37 C 0.64552 0.75303 0.65277
 C38 C 0.67001 0.70104 0.66439
 C39 C 0.71212 0.70244 0.70080
 C40 C 0.72820 0.75430 0.73004
 C41 C 0.70159 0.80556 0.71954
 C42 C 0.66133 0.80562 0.67931
 C43 C 0.77221 0.75468 0.77155
 C44 C 0.79862 0.80621 0.78132
 C45 C 0.83829 0.80775 0.82308
 C46 C 0.85384 0.75516 0.85075
 C47 C 0.83001 0.70270 0.83871
 C48 C 0.78821 0.70338 0.80180
 H49 H 0.61298 0.75234 0.62486
 H50 H 0.73241 0.66280 0.70535
 H51 H 0.71199 0.84577 0.74222
 H52 H 0.78778 0.84533 0.75697
 H53 H 0.88603 0.75421 0.87920
 H54 H 0.76813 0.66354 0.79750
 C55 C 0.35438 0.75317 0.64875
 C56 C 0.33020 0.80502 0.66195
 C57 C 0.28792 0.80299 0.69788
 C58 C 0.27163 0.75074 0.72628
 C59 C 0.29781 0.69942 0.71390
 C60 C 0.33808 0.70002 0.67344
 C61 C 0.22811 0.75050 0.76907
 C62 C 0.20214 0.69895 0.78135
 C63 C 0.16271 0.69831 0.82381
 C64 C 0.14688 0.75158 0.84940
 C65 C 0.17037 0.80378 0.83513
 C66 C 0.21207 0.80232 0.79816
 H67 H 0.38706 0.75438 0.62110
 H68 H 0.26783 0.84268 0.70278
 H69 H 0.28720 0.65871 0.73532
 H70 H 0.21302 0.65917 0.75853
 H71 H 0.11474 0.75318 0.87800
 H72 H 0.23194 0.84221 0.79298
 O73 O 0.95828 0.00681 -0.09054
 O74 O 1.04713 0.07893 0.01241
 O75 O 1.05119 0.00575 -0.08291
 O76 O 0.95468 0.07675 0.00876
 O77 O 0.95266 0.00165 0.07520
 O78 O 1.04850 -0.06925 -0.01626
 O79 O 1.04651 0.00358 0.07862
 O80 O 0.95694 -0.06835 -0.02412
 Cu81 Cu 1.00288 0.04954 -0.04483
 Cu82 Cu 1.00069 -0.04033 0.03548
 C83 C 0.94287 -0.04322 -0.07530
 C84 C 1.06239 0.05328 0.06249
 C85 C 1.06610 -0.04393 -0.06515
 C86 C 0.93736 0.05112 0.05778
 O87 O 0.45398 0.50874 0.41514
 O88 O 0.54970 0.57749 0.50914
 O89 O 0.54614 0.50655 0.41091
 O90 O 0.45728 0.57725 0.51599
 O91 O 0.45880 0.50155 0.58160
 O92 O 0.54708 0.43091 0.47673
 O93 O 0.55187 0.50146 0.57429
 O94 O 0.45544 0.43290 0.48061
 Cu95 Cu 0.50154 0.55024 0.45637
 Cu96 Cu 0.50328 0.45928 0.53518
 C97 C 0.43917 0.45861 0.43101
 C98 C 0.56713 0.55124 0.55754
 C99 C 0.56119 0.45620 0.42572
 C100 C 0.44324 0.55160 0.56692
 O101 O -0.04773 0.57901 -0.00842
 O102 O 0.04860 0.50949 0.08376
 O103 O 0.04458 0.57828 -0.01733
 O104 O -0.04355 0.50778 0.08966
 O105 O -0.04560 0.43236 0.02373
 O106 O 0.04271 0.50204 -0.08197
 O107 O 0.04586 0.43343 0.01885
 O108 O -0.05049 0.50324 -0.07374
 Cu109 Cu 0.00084 0.55137 0.04333
 Cu110 Cu -0.00201 0.46040 -0.03522
 C111 C -0.06556 0.55297 -0.05664
 C112 C 0.06279 0.45910 0.06802
 C113 C 0.05848 0.55214 -0.06796
 C114 C -0.05903 0.45757 0.07504
 O115 O 0.55044 1.00230 0.42507
 O116 O 0.45303 0.93199 0.51444
 O117 O 0.45653 1.00430 0.41892
 O118 O 0.54452 0.93221 0.52366
 O119 O 0.54230 1.00694 0.59048
 O120 O 0.45524 1.07959 0.48501
 O121 O 0.44967 1.00705 0.58078
 O122 O 0.54765 1.07749 0.49118
 Cu123 Cu 0.50159 0.96048 0.46338
 Cu124 Cu 0.49865 1.05031 0.54356
 C125 C 0.56569 1.05169 0.44283
 C126 C 0.43488 0.95740 0.56286
 C127 C 0.44050 1.05394 0.43466
 C128 C 0.55777 0.95692 0.57541
 N129 N 1.12747 0.05365 0.14410
 N130 N 1.15829 0.09469 0.17085
 C131 C 1.14768 0.14718 0.14505
 C132 C 1.11067 0.14001 0.10081
 C133 C 1.09920 0.08148 0.10189
 H134 H 1.09369 0.17273 0.07123
 H135 H 1.12714 0.00939 0.15531
 H136 H 1.18244 0.08531 0.20768
 N137 N 0.62983 0.55381 0.64278
 N138 N 0.65748 0.59319 0.67027
 C139 C 0.65029 0.64498 0.64116
 C140 C 0.61695 0.63774 0.59239
 C141 C 0.60472 0.57958 0.59543
 H142 H 0.60187 0.67048 0.56097
 H143 H 0.62733 0.51050 0.65761
 H144 H 0.67900 0.58492 0.71033
 N145 N -0.10968 0.44860 0.17392
 N146 N -0.13604 0.40804 0.20189
 C147 C -0.13528 0.35976 0.16488
 C148 C -0.10749 0.37050 0.11087
 C149 C -0.09198 0.42705 0.11849
 H150 H -0.09936 0.34131 0.07146
 H151 H -0.10356 0.48992 0.19306
 H152 H -0.15317 0.41339 0.24622
 N153 N 0.37133 0.95256 0.64694
 N154 N 0.34319 0.91249 0.67232
 C155 C 0.35048 0.86164 0.64134
 C156 C 0.38444 0.87022 0.59361
 C157 C 0.39689 0.92815 0.59916
 H158 H 0.39972 0.83844 0.56120
 H159 H 0.37383 0.99534 0.66344
 H160 H 0.32124 0.91960 0.71225
 N161 N -0.12874 0.55575 -0.14110
 N162 N -0.15679 0.59506 -0.16793
 C163 C -0.14974 0.64671 -0.13850
 C164 C -0.11600 0.63942 -0.09022
 C165 C -0.10345 0.58139 -0.09389
 H166 H -0.10088 0.67205 -0.05870
 H167 H -0.12611 0.51260 -0.15629
 H168 H -0.17847 0.58683 -0.20782
 N169 N 0.37622 1.05412 0.35190
 N170 N 0.34533 1.09497 0.32497
 C171 C 0.35547 1.14740 0.35120
 C172 C 0.39221 1.14038 0.39585
 C173 C 0.40403 1.08201 0.39461
 H174 H 0.40872 1.17307 0.42594
 H175 H 0.37681 1.00990 0.34058
 H176 H 0.32144 1.08557 0.28785
 N177 N 1.12855 -0.04897 -0.15063
 N178 N 1.15658 -0.08898 -0.17613
 C179 C 1.14990 -0.13968 -0.14443
 C180 C 1.11640 -0.13104 -0.09614
 C181 C 1.10364 -0.07324 -0.10209
 H182 H 1.10167 -0.16270 -0.06300
 H183 H 1.12571 -0.00632 -0.16752
 H184 H 1.17805 -0.08193 -0.21657
 N185 N 0.61197 0.44714 0.32713
 N186 N 0.63858 0.40674 0.29956
 C187 C 0.63825 0.35871 0.33711
 C188 C 0.61042 0.36949 0.39106
 C189 C 0.59445 0.42577 0.38280
 H190 H 0.60249 0.34051 0.43082
 H191 H 0.60546 0.48820 0.30748
 H192 H 0.65552 0.41199 0.25506
 N193 N 0.88526 -0.04700 -0.16657
 N194 N 0.85572 -0.08864 -0.19479
 C195 C 0.86213 -0.13945 -0.16297
 C196 C 0.89533 -0.13055 -0.11381
 C197 C 0.90857 -0.07270 -0.11765
 H198 H 0.90798 -0.16143 -0.07838
 H199 H 0.88796 -0.00369 -0.18127
 H200 H 0.83431 -0.08037 -0.23487
 N201 N 0.38465 0.45206 0.33639
 N202 N 0.35841 0.41191 0.30778
 C203 C 0.36084 0.36227 0.34246
 C204 C 0.38969 0.37179 0.39584
 C205 C 0.40409 0.42903 0.38998
 H206 H 0.39987 0.34121 0.43305
 H207 H 0.39003 0.49398 0.31839
 H208 H 0.34069 0.41843 0.26410
 N209 N 0.11624 0.55328 -0.15931
 N210 N 0.14567 0.59407 -0.18938
 C211 C 0.13922 0.64583 -0.15965
 C212 C 0.10614 0.63835 -0.10988
 C213 C 0.09295 0.58040 -0.11132
 H214 H 0.09341 0.67030 -0.07573
 H215 H 0.11350 0.50957 -0.17234
 H216 H 0.16699 0.58464 -0.22925
 N217 N 0.63470 1.05099 0.36741
 N218 N 0.66485 1.09205 0.33922
 C219 C 0.65186 1.14521 0.36090
 C220 C 0.61414 1.13843 0.40433
 C221 C 0.60450 1.07945 0.40654
 H222 H 0.59481 1.17173 0.43017
 H223 H 0.63538 1.00640 0.35805
 H224 H 0.68989 1.08199 0.30371
 N225 N 0.11771 0.45190 0.16214
 N226 N 0.14400 0.41158 0.19034
 C227 C 0.14129 0.36210 0.15549
 C228 C 0.11213 0.37192 0.10247
 C229 C 0.09791 0.42917 0.10867
 H230 H 0.10174 0.34155 0.06520
 H231 H 0.11256 0.49376 0.18033
 H232 H 0.16201 0.41791 0.23382
 N233 N 0.60856 0.94846 0.67397
 N234 N 0.63571 0.90859 0.70160
 C235 C 0.63555 0.86033 0.66457
 C236 C 0.60723 0.87037 0.61087
 C237 C 0.59086 0.92653 0.61874
 H238 H 0.59945 0.84107 0.57144
 H239 H 0.60204 0.98967 0.69313
 H240 H 0.65302 0.91440 0.74571
 N241 N 0.87425 0.05315 0.14244
 N242 N 0.84613 0.09205 0.16981
 C243 C 0.85318 0.14406 0.14111
 C244 C 0.88702 0.13745 0.09269
 C245 C 0.89959 0.07938 0.09554
 H246 H 0.90209 0.17049 0.06157
 H247 H 0.87681 0.00978 0.15698
 H248 H 0.82431 0.08328 0.20949
 N249 N 0.39076 0.55729 0.66414
 N250 N 0.36317 0.59629 0.69243
 C251 C 0.36371 0.64556 0.65699
 C252 C 0.39275 0.63705 0.60355
 C253 C 0.40919 0.58075 0.61001
 H254 H 0.40115 0.66749 0.56536
 H255 H 0.39720 0.51564 0.68222
 H256 H 0.34541 0.58925 0.73603
   
