data_POSCAR
  _audit_creation_date              2014-09-24
  _audit_creation_method            'ToBaCCo'
  _symmetry_space_group_name_H-M    'P1'
  _symmetry_Int_Tables_number       1
  _symmetry_cell_setting            triclinic
  loop_
  _symmetry_equiv_pos_as_xyz
 x,y,z
_cell_length_a 12.4990
_cell_length_b 17.6969
_cell_length_c 15.3594
_cell_angle_alpha 90.000000
_cell_angle_beta 90.000000
_cell_angle_gamma 90.000000
loop_
  _atom_site_label
  _atom_site_type_symbol
  _atom_site_fract_x
  _atom_site_fract_y
  _atom_site_fract_z
B1 B -0.05706 -0.06967 0.04126
 B2 B 0.07319 -0.05396 0.05523
 B3 B 0.02641 -0.07813 -0.04253
 B4 B -0.09576 -0.03949 -0.05831
 B5 B -0.12183 0.01185 0.03398
 B6 B -0.01590 0.00094 0.10547
 B7 B 0.05706 0.06967 -0.04126
 B8 B -0.07319 0.05396 -0.05523
 B9 B -0.02641 0.07813 0.04253
 B10 B 0.09576 0.03949 0.05831
 B11 B 0.12183 -0.01185 -0.03398
 B12 B 0.01590 -0.00094 -0.10547
 B13 B 0.53382 0.46277 0.58954
 B14 B 0.41104 0.45258 0.54709
 B15 B 0.45028 0.53757 0.58511
 B16 B 0.58173 0.54860 0.56227
 B17 B 0.62241 0.46914 0.50710
 B18 B 0.51490 0.40930 0.50068
 B19 B 0.46618 0.53723 0.41046
 B20 B 0.58896 0.54742 0.45291
 B21 B 0.54972 0.46243 0.41489
 B22 B 0.41827 0.45140 0.43773
 B23 B 0.37759 0.53086 0.49290
 B24 B 0.48510 0.59070 0.49932
 B25 B 0.55706 0.06967 0.54126
 B26 B 0.42681 0.05396 0.55523
 B27 B 0.47359 0.07813 0.45747
 B28 B 0.59576 0.03949 0.44169
 B29 B 0.62183 -0.01185 0.53398
 B30 B 0.51590 -0.00094 0.60547
 B31 B 0.44294 -0.06967 0.45874
 B32 B 0.57319 -0.05396 0.44477
 B33 B 0.52641 -0.07813 0.54253
 B34 B 0.40424 -0.03949 0.55831
 B35 B 0.37817 0.01185 0.46602
 B36 B 0.48410 0.00094 0.39453
 B37 B -0.03382 0.53723 0.08954
 B38 B 0.08896 0.54742 0.04709
 B39 B 0.04972 0.46243 0.08511
 B40 B -0.08173 0.45140 0.06227
 B41 B -0.12241 0.53086 0.00710
 B42 B -0.01490 0.59070 0.00068
 B43 B 0.03382 0.46277 -0.08954
 B44 B -0.08896 0.45258 -0.04709
 B45 B -0.04972 0.53757 -0.08511
 B46 B 0.08173 0.54860 -0.06227
 B47 B 0.12241 0.46914 -0.00710
 B48 B 0.01490 0.40930 -0.00068
 B49 B 0.05706 0.43033 0.45874
 B50 B -0.07319 0.44604 0.44477
 B51 B -0.02641 0.42187 0.54253
 B52 B 0.09576 0.46051 0.55831
 B53 B 0.12183 0.51185 0.46602
 B54 B 0.01590 0.50094 0.39453
 B55 B -0.05706 0.56967 0.54126
 B56 B 0.07319 0.55396 0.55523
 B57 B 0.02641 0.57813 0.45747
 B58 B -0.09576 0.53949 0.44169
 B59 B -0.12183 0.48815 0.53398
 B60 B -0.01590 0.49906 0.60547
 B61 B 0.46618 -0.03723 -0.08954
 B62 B 0.58896 -0.04742 -0.04709
 B63 B 0.54972 0.03757 -0.08511
 B64 B 0.41827 0.04860 -0.06227
 B65 B 0.37759 -0.03086 -0.00710
 B66 B 0.48510 -0.09070 -0.00068
 B67 B 0.53382 0.03723 0.08954
 B68 B 0.41104 0.04742 0.04709
 B69 B 0.45028 -0.03757 0.08511
 B70 B 0.58173 -0.04860 0.06227
 B71 B 0.62241 0.03086 0.00710
 B72 B 0.51490 0.09070 0.00068
 B73 B 0.44294 0.56967 -0.04126
 B74 B 0.57319 0.55396 -0.05523
 B75 B 0.52641 0.57813 0.04253
 B76 B 0.40424 0.53949 0.05831
 B77 B 0.37817 0.48815 -0.03398
 B78 B 0.48410 0.49906 -0.10547
 B79 B 0.55706 0.43033 0.04126
 B80 B 0.42681 0.44604 0.05523
 B81 B 0.47359 0.42187 -0.04253
 B82 B 0.59576 0.46051 -0.05831
 B83 B 0.62183 0.51185 0.03398
 B84 B 0.51590 0.50094 0.10547
 B85 B 0.03382 0.03723 0.41046
 B86 B -0.08896 0.04742 0.45291
 B87 B -0.04972 -0.03757 0.41489
 B88 B 0.08173 -0.04860 0.43773
 B89 B 0.12241 0.03086 0.49290
 B90 B 0.01490 0.09070 0.49932
 B91 B -0.03382 -0.03723 0.58954
 B92 B 0.08896 -0.04742 0.54709
 B93 B 0.04972 0.03757 0.58511
 B94 B -0.08173 0.04860 0.56227
 B95 B -0.12241 -0.03086 0.50710
 B96 B -0.01490 -0.09070 0.50068
 B97 B 0.79293 0.32184 0.28236
 B98 B 0.66535 0.29808 0.29584
 B99 B 0.70955 0.31701 0.19616
 B100 B 0.83680 0.28724 0.18631
 B101 B 0.86843 0.24402 0.28341
 B102 B 0.76070 0.25079 0.35226
 B103 B 0.70038 0.16779 0.21221
 B104 B 0.82768 0.19405 0.19774
 B105 B 0.78272 0.17134 0.29523
 B106 B 0.65563 0.20247 0.30778
 B107 B 0.62340 0.24486 0.21104
 B108 B 0.73149 0.23696 0.14172
 B109 B 0.71728 0.82866 0.79523
 B110 B 0.67232 0.80595 0.69774
 B111 B 0.79962 0.83221 0.71221
 B112 B 0.84437 0.79753 0.80778
 B113 B 0.73930 0.74921 0.85226
 B114 B 0.63157 0.75598 0.78341
 B115 B 0.79045 0.68299 0.69616
 B116 B 0.83465 0.70192 0.79584
 B117 B 0.70707 0.67816 0.78236
 B118 B 0.66320 0.71276 0.68631
 B119 B 0.76851 0.76304 0.64172
 B120 B 0.87660 0.75514 0.71104
 B121 B 0.29293 0.17816 0.71764
 B122 B 0.16535 0.20192 0.70416
 B123 B 0.20955 0.18299 0.80384
 B124 B 0.33680 0.21276 0.81369
 B125 B 0.36843 0.25598 0.71659
 B126 B 0.26070 0.24921 0.64774
 B127 B 0.20038 0.33221 0.78779
 B128 B 0.32768 0.30595 0.80226
 B129 B 0.28272 0.32866 0.70477
 B130 B 0.15563 0.29753 0.69222
 B131 B 0.12340 0.25514 0.78896
 B132 B 0.23149 0.26304 0.85828
 B133 B 0.20707 0.82184 0.21764
 B134 B 0.33465 0.79808 0.20416
 B135 B 0.29045 0.81701 0.30384
 B136 B 0.16320 0.78724 0.31369
 B137 B 0.13157 0.74402 0.21659
 B138 B 0.23930 0.75079 0.14774
 B139 B 0.29962 0.66779 0.28779
 B140 B 0.17232 0.69405 0.30226
 B141 B 0.21728 0.67134 0.20477
 B142 B 0.34437 0.70247 0.19222
 B143 B 0.37660 0.74486 0.28896
 B144 B 0.26851 0.73696 0.35828
 B145 B 0.29045 0.68299 0.80384
 B146 B 0.33465 0.70192 0.70416
 B147 B 0.20707 0.67816 0.71764
 B148 B 0.16320 0.71276 0.81369
 B149 B 0.26851 0.76304 0.85828
 B150 B 0.37660 0.75514 0.78896
 B151 B 0.21728 0.82866 0.70477
 B152 B 0.17232 0.80595 0.80226
 B153 B 0.29962 0.83221 0.78779
 B154 B 0.34437 0.79753 0.69222
 B155 B 0.23930 0.74921 0.64774
 B156 B 0.13157 0.75598 0.71659
 B157 B 0.20038 0.16779 0.28779
 B158 B 0.32768 0.19405 0.30226
 B159 B 0.28272 0.17134 0.20477
 B160 B 0.15563 0.20247 0.19222
 B161 B 0.12340 0.24486 0.28896
 B162 B 0.23149 0.23696 0.35828
 B163 B 0.29293 0.32184 0.21764
 B164 B 0.16535 0.29808 0.20416
 B165 B 0.20955 0.31701 0.30384
 B166 B 0.33680 0.28724 0.31369
 B167 B 0.36843 0.24402 0.21659
 B168 B 0.26070 0.25079 0.14774
 B169 B 0.79962 0.66779 0.21221
 B170 B 0.67232 0.69405 0.19774
 B171 B 0.71728 0.67134 0.29523
 B172 B 0.84437 0.70247 0.30778
 B173 B 0.87660 0.74486 0.21104
 B174 B 0.76851 0.73696 0.14172
 B175 B 0.70707 0.82184 0.28236
 B176 B 0.83465 0.79808 0.29584
 B177 B 0.79045 0.81701 0.19616
 B178 B 0.66320 0.78724 0.18631
 B179 B 0.63157 0.74402 0.28341
 B180 B 0.73930 0.75079 0.35226
 B181 B 0.70955 0.18299 0.69616
 B182 B 0.66535 0.20192 0.79584
 B183 B 0.79293 0.17816 0.78236
 B184 B 0.83680 0.21276 0.68631
 B185 B 0.73149 0.26304 0.64172
 B186 B 0.62340 0.25514 0.71104
 B187 B 0.78272 0.32866 0.79523
 B188 B 0.82768 0.30595 0.69774
 B189 B 0.70038 0.33221 0.71221
 B190 B 0.65563 0.29753 0.80778
 B191 B 0.76070 0.24921 0.85226
 B192 B 0.86843 0.25598 0.78341
 N193 N 0.06615 0.41743 0.83037
 N194 N 0.16493 0.40589 0.82865
 N195 N 0.43385 0.58257 0.33037
 N196 N 0.33507 0.59411 0.32865
 N197 N 0.93385 0.91743 0.66963
 N198 N 0.83507 0.90589 0.67135
 N199 N 0.56615 0.08257 0.16963
 N200 N 0.66493 0.09411 0.17135
 N201 N 0.83088 0.10092 0.41406
 N202 N 0.82796 0.09970 0.33330
 N203 N 0.33088 0.39908 0.58594
 N204 N 0.32796 0.40030 0.66670
 N205 N 0.66912 0.89908 0.91406
 N206 N 0.67204 0.90030 0.83330
 N207 N 0.16912 0.60092 0.08594
 N208 N 0.17204 0.59970 0.16670
 N209 N 0.39643 0.92002 0.16038
 N210 N 0.40942 0.84966 0.15366
 N211 N 0.60357 0.42002 0.33962
 N212 N 0.59058 0.34966 0.34634
 N213 N 0.89643 0.57998 0.83962
 N214 N 0.90942 0.65034 0.84634
 N215 N 0.10357 0.07998 0.66038
 N216 N 0.09058 0.15034 0.65366
 N217 N 0.10998 0.36482 0.41554
 N218 N 0.16855 0.38389 0.35291
 N219 N 0.39002 0.63518 0.91554
 N220 N 0.33145 0.61611 0.85291
 N221 N 0.60998 0.13518 0.58446
 N222 N 0.66855 0.11611 0.64709
 N223 N 0.89002 0.86482 0.08446
 N224 N 0.83145 0.88389 0.14709
 N225 N 0.86071 0.11329 0.89892
 N226 N 0.84213 0.10584 0.81926
 N227 N 0.13929 0.61329 0.60108
 N228 N 0.15787 0.60584 0.68074
 N229 N 0.63929 0.88671 0.39892
 N230 N 0.65787 0.89416 0.31926
 N231 N 0.36071 0.38671 0.10108
 N232 N 0.34213 0.39416 0.18074
 N233 N 0.56430 0.65149 0.08245
 N234 N 0.59918 0.63798 0.15697
 N235 N 0.06430 0.84851 0.91755
 N236 N 0.09918 0.86202 0.84303
 N237 N 0.43570 0.15149 0.41755
 N238 N 0.40082 0.13798 0.34303
 N239 N 0.93570 0.34851 0.58245
 N240 N 0.90082 0.36202 0.65697
 N241 N 0.93385 0.58257 0.16963
 N242 N 0.83507 0.59411 0.17135
 N243 N 0.56615 0.41743 0.66963
 N244 N 0.66493 0.40589 0.67135
 N245 N 0.06615 0.08257 0.33037
 N246 N 0.16493 0.09411 0.32865
 N247 N 0.43385 0.91743 0.83037
 N248 N 0.33507 0.90589 0.82865
 N249 N 0.16912 0.89908 0.58594
 N250 N 0.17204 0.90030 0.66670
 N251 N 0.66912 0.60092 0.41406
 N252 N 0.67204 0.59970 0.33330
 N253 N 0.33088 0.10092 0.08594
 N254 N 0.32796 0.09970 0.16670
 N255 N 0.83088 0.39908 0.91406
 N256 N 0.82796 0.40030 0.83330
 N257 N 0.60357 0.07998 0.83962
 N258 N 0.59058 0.15034 0.84634
 N259 N 0.39643 0.57998 0.66038
 N260 N 0.40942 0.65034 0.65366
 N261 N 0.10357 0.42002 0.16038
 N262 N 0.09058 0.34966 0.15366
 N263 N 0.89643 0.92002 0.33962
 N264 N 0.90942 0.84966 0.34634
 N265 N 0.89002 0.63518 0.58446
 N266 N 0.83145 0.61611 0.64709
 N267 N 0.60998 0.36482 0.08446
 N268 N 0.66855 0.38389 0.14709
 N269 N 0.39002 0.86482 0.41554
 N270 N 0.33145 0.88389 0.35291
 N271 N 0.10998 0.13518 0.91554
 N272 N 0.16855 0.11611 0.85291
 N273 N 0.13929 0.88671 0.10108
 N274 N 0.15787 0.89416 0.18074
 N275 N 0.86071 0.38671 0.39892
 N276 N 0.84213 0.39416 0.31926
 N277 N 0.36071 0.11329 0.60108
 N278 N 0.34213 0.10584 0.68074
 N279 N 0.63929 0.61329 0.89892
 N280 N 0.65787 0.60584 0.81926
 N281 N 0.43570 0.34851 0.91755
 N282 N 0.40082 0.36202 0.84303
 N283 N 0.93570 0.15149 0.08245
 N284 N 0.90082 0.13798 0.15697
 N285 N 0.56430 0.84851 0.58245
 N286 N 0.59918 0.86202 0.65697
 N287 N 0.06430 0.65149 0.41755
 N288 N 0.09918 0.63798 0.34303
   
