data_POSCAR
  _audit_creation_date              2014-09-24
  _audit_creation_method            'ToBaCCo'
  _symmetry_space_group_name_H-M    'P1'
  _symmetry_Int_Tables_number       1
  _symmetry_cell_setting            triclinic
  loop_
  _symmetry_equiv_pos_as_xyz
 x,y,z
_cell_length_a 37.0717
_cell_length_b 35.2799
_cell_length_c 35.2710
_cell_angle_alpha 89.890900
_cell_angle_beta 90.014400
_cell_angle_gamma 89.982200
loop_
  _atom_site_label
  _atom_site_type_symbol
  _atom_site_fract_x
  _atom_site_fract_y
  _atom_site_fract_z
C1 C 0.30464 0.30185 0.23553
 H2 H 0.30615 0.30247 0.26616
 C3 C 0.32804 0.32418 0.21396
 H4 H 0.34758 0.34220 0.22796
 C5 C 0.27764 0.27732 0.17975
 H6 H 0.25837 0.25864 0.16649
 C7 C 0.30055 0.29919 0.15713
 H8 H 0.29858 0.29756 0.12653
 N9 N 0.27977 0.27939 0.21823
 C10 C 0.19436 0.26395 0.30199
 H11 H 0.19276 0.23334 0.30271
 C12 C 0.17116 0.28560 0.32440
 H13 H 0.15168 0.27169 0.34259
 C14 C 0.22144 0.31961 0.27713
 H15 H 0.24066 0.33280 0.25829
 C16 C 0.19873 0.34231 0.29907
 H17 H 0.20081 0.37290 0.29733
 Zn18 Zn 0.24940 0.24971 0.24962
 N19 N 0.21919 0.28115 0.27933
 C20 C 0.27757 0.22211 0.31953
 N21 N 0.27965 0.21989 0.28105
 C22 C 0.30442 0.19725 0.26382
 C23 C 0.32779 0.17492 0.28546
 C24 C 0.30045 0.20025 0.34222
 C25 C 0.19427 0.23578 0.19727
 C26 C 0.17090 0.21427 0.17491
 C27 C 0.19822 0.15739 0.20022
 C28 C 0.22110 0.17995 0.22211
 N29 N 0.21905 0.21843 0.21990
 H30 H 0.25839 0.24094 0.33274
 H31 H 0.30590 0.19652 0.23320
 H32 H 0.34727 0.15678 0.27152
 H33 H 0.29853 0.20203 0.37281
 H34 H 0.19282 0.26640 0.19654
 H35 H 0.15144 0.22830 0.15676
 H36 H 0.20013 0.12679 0.20197
 H37 H 0.24029 0.16665 0.24092
 C38 C 0.17349 0.32514 0.32301
 C39 C 0.32587 0.32292 0.17441
 C40 C 0.17300 0.17472 0.17633
 C41 C 0.32568 0.17636 0.32501
 C42 C 0.80554 0.80321 0.23488
 H43 H 0.80709 0.80394 0.26550
 C44 C 0.82876 0.82564 0.21319
 H45 H 0.84819 0.84382 0.22718
 C46 C 0.77859 0.77829 0.17925
 H47 H 0.75941 0.75942 0.16610
 C48 C 0.80131 0.80023 0.15649
 H49 H 0.79921 0.79841 0.12589
 N50 N 0.78077 0.78052 0.21772
 C51 C 0.69547 0.76478 0.30155
 H52 H 0.69401 0.73416 0.30228
 C53 C 0.67216 0.78633 0.32393
 H54 H 0.65272 0.77232 0.34211
 C55 C 0.72231 0.82057 0.27668
 H56 H 0.74149 0.83385 0.25786
 C57 C 0.69948 0.84317 0.29860
 H58 H 0.70142 0.87376 0.29685
 Zn59 Zn 0.75058 0.75075 0.24923
 N60 N 0.72024 0.78210 0.27890
 C61 C 0.77878 0.72330 0.31919
 N62 N 0.78094 0.72112 0.28072
 C63 C 0.80578 0.69851 0.26353
 C64 C 0.82906 0.67611 0.28522
 C65 C 0.80156 0.70138 0.34192
 C66 C 0.69545 0.73641 0.19698
 C67 C 0.67215 0.71470 0.17472
 C68 C 0.69974 0.65804 0.20020
 C69 C 0.72254 0.68079 0.22198
 N70 N 0.72033 0.71925 0.21963
 H71 H 0.75954 0.74211 0.33236
 H72 H 0.80732 0.69779 0.23291
 H73 H 0.84854 0.65795 0.27132
 H74 H 0.79953 0.70309 0.37251
 H75 H 0.69387 0.76702 0.19614
 H76 H 0.65262 0.72858 0.15655
 H77 H 0.70178 0.62746 0.20206
 H78 H 0.74180 0.66764 0.24083
 C79 C 0.67430 0.82587 0.32253
 C80 C 0.82652 0.82424 0.17362
 C81 C 0.67443 0.67517 0.17627
 C82 C 0.82680 0.67747 0.32476
 C83 C 0.80589 0.30115 0.73667
 H84 H 0.80746 0.30183 0.76729
 C85 C 0.82915 0.32355 0.71499
 H86 H 0.84864 0.34168 0.72890
 C87 C 0.77884 0.27643 0.68100
 H88 H 0.75959 0.25765 0.66782
 C89 C 0.80160 0.29836 0.65828
 H90 H 0.79954 0.29668 0.62769
 N91 N 0.78104 0.27857 0.71947
 C92 C 0.69562 0.26322 0.80323
 H93 H 0.69405 0.23261 0.80403
 C94 C 0.67232 0.28491 0.82550
 H95 H 0.65280 0.27102 0.84366
 C96 C 0.72268 0.31885 0.77828
 H97 H 0.74193 0.33202 0.75945
 C98 C 0.69988 0.34159 0.80008
 H99 H 0.70191 0.37217 0.79824
 Zn100 Zn 0.75072 0.24891 0.75094
 N101 N 0.72048 0.28039 0.78059
 C102 C 0.77881 0.22131 0.82088
 N103 N 0.78095 0.21911 0.78241
 C104 C 0.80572 0.19645 0.76521
 C105 C 0.82900 0.17402 0.78686
 C106 C 0.80158 0.19938 0.84363
 C107 C 0.69556 0.23496 0.69865
 C108 C 0.67223 0.21345 0.67625
 C109 C 0.69961 0.15657 0.70148
 C110 C 0.72245 0.17913 0.72341
 N111 N 0.72036 0.21761 0.72125
 H112 H 0.75963 0.24017 0.83405
 H113 H 0.80723 0.19574 0.73459
 H114 H 0.84841 0.15587 0.77276
 H115 H 0.79947 0.20125 0.87423
 H116 H 0.69409 0.26558 0.69795
 H117 H 0.65277 0.22749 0.65810
 H118 H 0.70156 0.12597 0.70318
 H119 H 0.74166 0.16582 0.74220
 C120 C 0.67458 0.32445 0.82399
 C121 C 0.82686 0.32223 0.67545
 C122 C 0.67439 0.17390 0.67759
 C123 C 0.82683 0.17539 0.82646
 C124 C 0.30471 0.80268 0.73616
 H125 H 0.30621 0.80342 0.76678
 C126 C 0.32806 0.82498 0.71449
 H127 H 0.34756 0.84310 0.72841
 C128 C 0.27776 0.77786 0.68048
 H129 H 0.25854 0.75905 0.66729
 C130 C 0.30062 0.79968 0.65776
 H131 H 0.29867 0.79791 0.62717
 N132 N 0.27989 0.78008 0.71895
 C133 C 0.19455 0.76449 0.80277
 H134 H 0.19307 0.73388 0.80357
 C135 C 0.17119 0.78610 0.82505
 H136 H 0.15171 0.77214 0.84322
 C137 C 0.22142 0.82022 0.77780
 H138 H 0.24062 0.83344 0.75896
 C139 C 0.19855 0.84287 0.79961
 H140 H 0.20048 0.87346 0.79777
 Zn141 Zn 0.24963 0.75036 0.75043
 N142 N 0.21934 0.78175 0.78011
 C143 C 0.27787 0.72273 0.82032
 N144 N 0.27998 0.72065 0.78184
 C145 C 0.30482 0.69813 0.76455
 C146 C 0.32820 0.67575 0.78612
 C147 C 0.30077 0.70082 0.84295
 C148 C 0.19453 0.73616 0.69811
 C149 C 0.17125 0.71452 0.67578
 C150 C 0.19875 0.65779 0.70120
 C151 C 0.22153 0.68048 0.72306
 N152 N 0.21935 0.71894 0.72078
 H153 H 0.25863 0.74146 0.83357
 H154 H 0.30630 0.69750 0.73392
 H155 H 0.34771 0.65769 0.77213
 H156 H 0.29881 0.70246 0.87355
 H157 H 0.19298 0.76677 0.69732
 H158 H 0.15176 0.72845 0.65758
 H159 H 0.20077 0.62720 0.70300
 H160 H 0.24076 0.66728 0.74191
 C161 C 0.17332 0.82564 0.82353
 C162 C 0.32589 0.82354 0.67494
 C163 C 0.17350 0.67498 0.67725
 C164 C 0.32604 0.67703 0.82567
 C165 C -0.00132 0.00040 -0.00045
 C166 C 0.00005 0.49994 0.50027
 C167 C 0.50044 -0.00000 0.50001
 C168 C 0.50056 0.49980 0.00007
 C169 C 0.10673 -0.10934 -0.11140
 N170 N 0.10339 -0.07169 -0.11838
 N171 N 0.08200 -0.05030 -0.09686
 C172 C 0.06331 -0.06592 -0.06771
 N173 N 0.06664 -0.10358 -0.06073
 N174 N 0.08803 -0.12497 -0.08225
 C175 C 0.13000 -0.13230 -0.13436
 C176 C 0.14968 -0.15151 -0.15359
 C177 C 0.04056 -0.04283 -0.04433
 C178 C 0.02157 -0.02334 -0.02458
 C179 C 0.10768 0.39036 0.38873
 N180 N 0.07809 0.37525 0.40556
 N181 N 0.05687 0.39665 0.42726
 C182 C 0.06462 0.43380 0.43279
 N183 N 0.09421 0.44891 0.41596
 N184 N 0.11542 0.42751 0.39426
 C185 C 0.13065 0.36731 0.36554
 C186 C 0.15010 0.34804 0.34611
 C187 C 0.04192 0.45681 0.45630
 C188 C 0.02295 0.47624 0.47612
 C189 C 0.60805 -0.10936 0.38822
 N190 N 0.60428 -0.07178 0.38109
 N191 N 0.58302 -0.05048 0.40283
 C192 C 0.56488 -0.06613 0.43235
 N193 N 0.56863 -0.10371 0.43947
 N194 N 0.58990 -0.12501 0.41774
 C195 C 0.63119 -0.13222 0.36502
 C196 C 0.65077 -0.15135 0.34560
 C197 C 0.54222 -0.04313 0.45593
 C198 C 0.52329 -0.02371 0.47580
 C199 C 0.60827 0.38972 -0.11090
 N200 N 0.60542 0.42748 -0.11757
 N201 N 0.58413 0.44895 -0.09604
 C202 C 0.56503 0.43332 -0.06719
 N203 N 0.56786 0.39556 -0.06053
 N204 N 0.58916 0.37408 -0.08206
 C205 C 0.63144 0.36667 -0.13388
 C206 C 0.65103 0.34738 -0.15312
 C207 C 0.54236 0.45650 -0.04381
 C208 C 0.52342 0.47603 -0.02405
 C209 C -0.10904 0.11190 -0.11048
 N210 N -0.09174 0.08166 -0.12570
 N211 N -0.07044 0.05999 -0.10427
 C212 C -0.06581 0.06791 -0.06697
 N213 N -0.08310 0.09816 -0.05175
 N214 N -0.10440 0.11982 -0.07318
 C215 C -0.13221 0.13504 -0.13347
 C216 C -0.15181 0.15443 -0.15273
 C217 C -0.04313 0.04441 -0.04381
 C218 C -0.02418 0.02458 -0.02428
 C219 C -0.10721 0.61171 0.39003
 N220 N -0.10222 0.61995 0.42721
 N221 N -0.08105 0.59820 0.44871
 C222 C -0.06426 0.56756 0.43367
 N223 N -0.06924 0.55933 0.39649
 N224 N -0.09041 0.58107 0.37500
 C225 C -0.13025 0.63493 0.36698
 C226 C -0.14975 0.65437 0.34769
 C227 C -0.04168 0.54400 0.45688
 C228 C -0.02280 0.52414 0.47645
 C229 C 0.39233 0.11122 0.39016
 N230 N 0.41376 0.08457 0.37404
 N231 N 0.43517 0.06302 0.39546
 C232 C 0.43580 0.06748 0.43364
 N233 N 0.41438 0.09413 0.44976
 N234 N 0.39297 0.11568 0.42834
 C235 C 0.36904 0.13420 0.36715
 C236 C 0.34934 0.15345 0.34789
 C237 C 0.45858 0.04403 0.45675
 C238 C 0.47757 0.02422 0.47625
 C239 C 0.39261 0.61146 -0.10953
 N240 N 0.39775 0.61960 -0.07236
 N241 N 0.41913 0.59791 -0.05105
 C242 C 0.43602 0.56741 -0.06627
 N243 N 0.43089 0.55927 -0.10345
 N244 N 0.40951 0.58097 -0.12476
 C245 C 0.36934 0.63462 -0.13238
 C246 C 0.34967 0.65400 -0.15153
 C247 C 0.45875 0.54386 -0.04323
 C248 C 0.47771 0.52400 -0.02374
 C249 C -0.10873 -0.11132 0.10956
 N250 N -0.08771 -0.08429 0.12561
 N251 N -0.06650 -0.06257 0.10416
 C252 C -0.06567 -0.06723 0.06600
 N253 N -0.08669 -0.09427 0.04995
 N254 N -0.10789 -0.11598 0.07141
 C255 C -0.13179 -0.13450 0.13261
 C256 C -0.15130 -0.15391 0.15190
 C257 C -0.04305 -0.04367 0.04287
 C258 C -0.02415 -0.02381 0.02335
 C259 C -0.10721 0.38803 0.61023
 N260 N -0.08793 0.41662 0.62599
 N261 N -0.06676 0.43839 0.60453
 C262 C -0.06425 0.43222 0.56668
 N263 N -0.08352 0.40362 0.55093
 N264 N -0.10468 0.38186 0.57238
 C265 C -0.13023 0.36479 0.63326
 C266 C -0.14971 0.34535 0.65253
 C267 C -0.04167 0.45581 0.54354
 C268 C -0.02278 0.47571 0.52403
 C269 C 0.39247 -0.11129 0.60983
 N270 N 0.39554 -0.11794 0.57211
 N271 N 0.41692 -0.09637 0.55070
 C272 C 0.43589 -0.06750 0.56637
 N273 N 0.43283 -0.06086 0.60410
 N274 N 0.41145 -0.08243 0.62551
 C275 C 0.36920 -0.13430 0.63280
 C276 C 0.34952 -0.15356 0.65205
 C277 C 0.45863 -0.04405 0.54326
 C278 C 0.47759 -0.02423 0.52376
 C279 C 0.39248 0.38833 0.10958
 N280 N 0.41220 0.41648 0.12555
 N281 N 0.43360 0.43813 0.10423
 C282 C 0.43593 0.43228 0.06632
 N283 N 0.41622 0.40412 0.05036
 N284 N 0.39482 0.38248 0.07167
 C285 C 0.36920 0.36523 0.13246
 C286 C 0.34951 0.34590 0.15161
 C287 C 0.45869 0.45579 0.04330
 C288 C 0.47768 0.47563 0.02385
 C289 C 0.10650 0.10996 0.11092
 N290 N 0.10281 0.07237 0.11808
 N291 N 0.08147 0.05105 0.09645
 C292 C 0.06316 0.06667 0.06702
 N293 N 0.06683 0.10426 0.05986
 N294 N 0.08818 0.12558 0.08149
 C295 C 0.12973 0.13283 0.13400
 C296 C 0.14939 0.15197 0.15333
 C297 C 0.04046 0.04363 0.04353
 C298 C 0.02152 0.02417 0.02371
 C299 C 0.10738 0.60987 0.61178
 N300 N 0.08965 0.62523 0.58182
 N301 N 0.06844 0.60380 0.56015
 C302 C 0.06432 0.56636 0.56780
 N303 N 0.08203 0.55100 0.59776
 N304 N 0.10325 0.57243 0.61943
 C305 C 0.13047 0.63285 0.63490
 C306 C 0.15001 0.65210 0.65425
 C307 C 0.04172 0.54322 0.54430
 C308 C 0.02285 0.52371 0.52446
 C309 C 0.60808 0.10926 0.61185
 N310 N 0.60285 0.07211 0.62010
 N311 N 0.58157 0.05084 0.59835
 C312 C 0.56488 0.06609 0.56769
 N313 N 0.57009 0.10325 0.55944
 N314 N 0.59137 0.12452 0.58119
 C315 C 0.63125 0.13207 0.63507
 C316 C 0.65084 0.15117 0.65450
 C317 C 0.54222 0.04311 0.54410
 C318 C 0.52329 0.02370 0.52422
 C319 C 0.60816 0.60986 0.11116
 N320 N 0.58829 0.62566 0.08296
 N321 N 0.56701 0.60418 0.06141
 C322 C 0.56497 0.56626 0.06741
 N323 N 0.58483 0.55046 0.09561
 N324 N 0.60611 0.57194 0.11716
 C325 C 0.63131 0.63292 0.13415
 C326 C 0.65089 0.65222 0.15339
 C327 C 0.54232 0.54308 0.04400
 C328 C 0.52340 0.52356 0.02422
   
