data_POSCAR
  _audit_creation_date              2014-09-24
  _audit_creation_method            'ToBaCCo'
  _symmetry_space_group_name_H-M    'P1'
  _symmetry_Int_Tables_number       1
  _symmetry_cell_setting            triclinic
  loop_
  _symmetry_equiv_pos_as_xyz
 x,y,z
_cell_length_a 37.1195
_cell_length_b 37.1904
_cell_length_c 28.4086
_cell_angle_alpha 90.213700
_cell_angle_beta 90.129000
_cell_angle_gamma 92.344300
loop_
  _atom_site_label
  _atom_site_type_symbol
  _atom_site_fract_x
  _atom_site_fract_y
  _atom_site_fract_z
O1 O 0.03494 0.30296 -0.04234
 O2 O -0.03579 0.29920 0.04915
 O3 O 0.03470 0.30260 0.04933
 O4 O -0.03608 0.30216 -0.04231
 O5 O -0.03701 0.24275 -0.04410
 O6 O 0.03488 0.24328 0.04528
 O7 O -0.03560 0.23986 0.04712
 O8 O 0.03278 0.24354 -0.04553
 Cu9 Cu -0.00050 0.30774 0.00361
 Cu10 Cu -0.00136 0.23645 0.00061
 C11 C 0.04597 0.27365 -0.05923
 C12 C -0.04787 0.26866 0.06348
 C13 C 0.04720 0.27293 0.06230
 C14 C -0.04891 0.27234 -0.05831
 O15 O 0.54235 0.79845 0.45963
 O16 O 0.47200 0.79728 0.55110
 O17 O 0.54265 0.79557 0.55078
 O18 O 0.47174 0.79918 0.45973
 O19 O 0.46896 0.73977 0.45650
 O20 O 0.53844 0.73617 0.54831
 O21 O 0.46837 0.73790 0.54756
 O22 O 0.53877 0.73903 0.45697
 Cu23 Cu 0.50754 0.80364 0.50566
 Cu24 Cu 0.50333 0.73228 0.50212
 C25 C 0.55270 0.76883 0.44305
 C26 C 0.45785 0.76732 0.56435
 C27 C 0.55279 0.76513 0.56469
 C28 C 0.45817 0.76993 0.44286
 O29 O 1.03716 0.68701 0.05712
 O30 O 0.96696 0.68269 -0.03582
 O31 O 1.03775 0.67989 -0.03392
 O32 O 0.96667 0.68563 0.05560
 O33 O 0.96991 0.74491 0.05062
 O34 O 1.03988 0.73902 -0.04092
 O35 O 0.97026 0.74198 -0.04026
 O36 O 1.04004 0.74615 0.05060
 Cu37 Cu 1.00188 0.67785 0.01119
 Cu38 Cu 1.00546 0.74890 0.00453
 C39 C 1.05067 0.71758 0.06951
 C40 C 0.95635 0.71187 -0.05333
 C41 C 1.05099 0.70834 -0.05274
 C42 C 0.95602 0.71615 0.06823
 O43 O 0.52899 0.18963 0.54993
 O44 O 0.46108 0.19200 0.45455
 O45 O 0.53155 0.19053 0.45798
 O46 O 0.45835 0.18950 0.54603
 O47 O 0.46098 0.24891 0.54735
 O48 O 0.53556 0.24985 0.46243
 O49 O 0.46526 0.25137 0.45625
 O50 O 0.53053 0.24899 0.55308
 Cu51 Cu 0.49472 0.18442 0.50187
 Cu52 Cu 0.49834 0.25570 0.50482
 C53 C 0.54125 0.21906 0.56778
 C54 C 0.45150 0.22226 0.43938
 C55 C 0.54650 0.22040 0.44600
 C56 C 0.44699 0.21909 0.56133
 O57 O 0.69862 -0.03311 0.04515
 O58 O 0.69934 0.03693 -0.04684
 O59 O 0.69890 -0.03336 -0.04584
 O60 O 0.69740 0.03738 0.04564
 O61 O 0.75695 0.04007 0.04663
 O62 O 0.75843 -0.03062 -0.04406
 O63 O 0.75884 0.03984 -0.04448
 O64 O 0.75817 -0.02937 0.04696
 Cu65 Cu 0.69253 0.00188 -0.00062
 Cu66 Cu 0.76403 0.00534 0.00121
 C67 C 0.72849 -0.04336 0.06126
 C68 C 0.72940 0.05041 -0.06116
 C69 C 0.72893 -0.04453 -0.05981
 C70 C 0.72704 0.05070 0.06174
 O71 O 0.19101 0.46652 0.54014
 O72 O 0.19667 0.54018 0.45257
 O73 O 0.19476 0.47000 0.44909
 O74 O 0.18830 0.53720 0.54395
 O75 O 0.24757 0.53944 0.55126
 O76 O 0.25409 0.47263 0.45581
 O77 O 0.25591 0.54282 0.46081
 O78 O 0.25035 0.47008 0.54698
 Cu79 Cu 0.18669 0.50331 0.49586
 Cu80 Cu 0.25787 0.50653 0.50433
 C81 C 0.22008 0.45566 0.55805
 C82 C 0.22752 0.55405 0.44207
 C83 C 0.22542 0.45965 0.43652
 C84 C 0.21679 0.54987 0.56369
 O85 O 0.31006 1.04350 0.04175
 O86 O 0.30682 0.97212 -0.04901
 O87 O 0.30606 1.04282 -0.04992
 O88 O 0.31150 0.97309 0.04194
 O89 O 0.25205 0.96946 0.04535
 O90 O 0.24669 1.03925 -0.04533
 O91 O 0.24731 0.96973 -0.04541
 O92 O 0.25072 1.03918 0.04669
 Cu93 Cu 0.31460 1.00835 -0.00431
 Cu94 Cu 0.24327 1.00426 0.00085
 C95 C 0.28082 1.05332 0.05998
 C96 C 0.27644 0.95858 -0.06224
 C97 C 0.27541 1.05287 -0.06340
 C98 C 0.28258 0.95904 0.05877
 O99 O 0.79891 0.46663 0.45421
 O100 O 0.79671 0.53983 0.54257
 O101 O 0.80048 0.46964 0.54552
 O102 O 0.80052 0.53709 0.45115
 O103 O 0.74098 0.53390 0.44962
 O104 O 0.74099 0.46561 0.54343
 O105 O 0.73720 0.53550 0.54135
 O106 O 0.73935 0.46434 0.45223
 Cu107 Cu 0.80513 0.50370 0.49853
 Cu108 Cu 0.73370 0.49961 0.49666
 C109 C 0.76925 0.45302 0.43837
 C110 C 0.76631 0.55009 0.55686
 C111 C 0.77085 0.45572 0.56010
 C112 C 0.77089 0.54700 0.43429
 C113 C 0.27765 0.30746 0.36989
 C114 C 0.30216 0.28088 0.37054
 C115 C 0.30288 0.26666 0.32541
 N116 N 0.27964 0.28361 0.29723
 C117 C 0.26429 0.30868 0.32434
 C118 C 0.32636 0.24003 0.31004
 C119 C 0.32043 0.22008 0.26814
 C120 C 0.34502 0.19765 0.24787
 C121 C 0.32806 0.18139 0.20977
 C122 C 0.29364 0.19452 0.20767
 N123 N 0.28916 0.21790 0.24355
 C124 C 0.26655 0.18269 0.17551
 C125 C 0.23460 0.20138 0.16748
 C126 C 0.20673 0.18974 0.13781
 C127 C 0.18231 0.21629 0.13734
 C128 C 0.19619 0.24377 0.16603
 N129 N 0.22823 0.23463 0.18430
 C130 C 0.18040 0.27747 0.17208
 C131 C 0.19380 0.30386 0.20444
 C132 C 0.18575 0.33996 0.20364
 C133 C 0.20264 0.35596 0.24197
 C134 C 0.22083 0.32930 0.26490
 N135 N 0.21525 0.29763 0.24188
 C136 C 0.24020 0.33417 0.30748
 H137 H 0.27049 0.32394 0.39964
 H138 H 0.31758 0.27288 0.40084
 H139 H 0.22246 0.27254 0.25396
 H140 H 0.37220 0.19305 0.25963
 H141 H 0.33966 0.16179 0.18668
 H142 H 0.20421 0.16506 0.11765
 H143 H 0.15740 0.21549 0.11744
 H144 H 0.20167 0.38406 0.25176
 H145 H 0.26492 0.22843 0.25393
 H146 H 0.16952 0.35350 0.17806
 C147 C 0.80454 0.77522 0.12228
 C148 C 0.77984 0.80156 0.12060
 C149 C 0.76204 0.80077 0.16344
 N150 N 0.77517 0.77498 0.19134
 C151 C 0.80127 0.75939 0.16626
 C152 C 0.73598 0.82528 0.17729
 C153 C 0.71389 0.81983 0.21736
 C154 C 0.69349 0.84581 0.23842
 C155 C 0.67388 0.82895 0.27354
 C156 C 0.68346 0.79330 0.27378
 N157 N 0.70766 0.78793 0.23920
 C158 C 0.66831 0.76628 0.30340
 C159 C 0.68379 0.73266 0.31069
 C160 C 0.66901 0.70566 0.33901
 C161 C 0.69378 0.67945 0.34133
 C162 C 0.72287 0.69095 0.31382
 N163 N 0.71679 0.72372 0.29563
 C164 C 0.75565 0.67293 0.30956
 C165 C 0.78446 0.68510 0.28032
 C166 C 0.81913 0.67252 0.28208
 C167 C 0.83837 0.68939 0.24656
 C168 C 0.81495 0.71174 0.22389
 N169 N 0.78210 0.70874 0.24443
 C170 C 0.82373 0.73264 0.18373
 H171 H 0.82283 0.76857 0.09425
 H172 H 0.77546 0.81923 0.09112
 H173 H 0.75855 0.71917 0.23142
 H174 H 0.69248 0.87397 0.22935
 H175 H 0.65470 0.84170 0.29609
 H176 H 0.64356 0.70535 0.35755
 H177 H 0.69079 0.65533 0.36227
 H178 H 0.86637 0.68542 0.23820
 H179 H 0.71622 0.76314 0.22765
 H180 H 0.82952 0.65296 0.30615
 C181 C 0.67341 0.30785 0.32454
 C182 C 0.70095 0.33354 0.32307
 C183 C 0.73108 0.31653 0.30687
 N184 N 0.72295 0.28121 0.29909
 C185 C 0.68774 0.27578 0.31009
 C186 C 0.76612 0.33267 0.30404
 C187 C 0.79471 0.31681 0.27976
 C188 C 0.83052 0.32910 0.28080
 C189 C 0.84885 0.30803 0.24991
 C190 C 0.82370 0.28380 0.23024
 N191 N 0.79081 0.28943 0.24847
 C192 C 0.83114 0.25872 0.19441
 C193 C 0.80736 0.22958 0.18194
 C194 C 0.81232 0.20679 0.14399
 C195 C 0.78462 0.18135 0.14514
 C196 C 0.76354 0.18940 0.18372
 N197 N 0.77758 0.21882 0.20634
 C198 C 0.73319 0.16834 0.19868
 C199 C 0.70973 0.17888 0.23489
 C200 C 0.68521 0.15599 0.25781
 C201 C 0.66738 0.17663 0.28988
 C202 C 0.68133 0.21165 0.28545
 N203 N 0.70693 0.21278 0.25155
 C204 C 0.66930 0.24166 0.31098
 H205 H 0.64606 0.31228 0.33554
 H206 H 0.69896 0.36146 0.33322
 H207 H 0.71934 0.23583 0.23739
 H208 H 0.84239 0.35139 0.30078
 H209 H 0.87739 0.31068 0.24234
 H210 H 0.83369 0.20825 0.11812
 H211 H 0.78054 0.15937 0.12036
 H212 H 0.64652 0.16686 0.31371
 H213 H 0.76650 0.27817 0.23615
 H214 H 0.68081 0.12734 0.25227
 C215 C 0.30171 0.68517 0.34932
 C216 C 0.33023 0.70947 0.34457
 C217 C 0.31811 0.73754 0.31754
 N218 N 0.28303 0.73126 0.30599
 C219 C 0.27298 0.69917 0.32520
 C220 C 0.33844 0.76961 0.30767
 C221 C 0.32669 0.79640 0.27662
 C222 C 0.34216 0.83084 0.27244
 C223 C 0.32413 0.84747 0.23673
 C224 C 0.29854 0.82256 0.21952
 N225 N 0.30047 0.79149 0.24385
 C226 C 0.27578 0.82807 0.18048
 C227 C 0.24792 0.80308 0.16702
 C228 C 0.23159 0.80163 0.12310
 C229 C 0.20444 0.77560 0.12557
 C230 C 0.20489 0.76225 0.17106
 N231 N 0.23161 0.77895 0.19627
 C232 C 0.17914 0.73737 0.19007
 C233 C 0.18440 0.72001 0.23339
 C234 C 0.15735 0.70318 0.25980
 C235 C 0.17382 0.68841 0.29816
 C236 C 0.21057 0.69605 0.29359
 N237 N 0.21672 0.71557 0.25413
 C238 C 0.23763 0.68347 0.32383
 H239 H 0.30213 0.66015 0.36861
 H240 H 0.35671 0.70696 0.35994
 H241 H 0.24176 0.72200 0.23929
 H242 H 0.36436 0.84280 0.29255
 H243 H 0.32975 0.87460 0.22433
 H244 H 0.23856 0.81765 0.09247
 H245 H 0.18627 0.76767 0.09720
 H246 H 0.16017 0.67367 0.32612
 H247 H 0.28746 0.76708 0.23524
 H248 H 0.12871 0.70189 0.25235
 C249 C 0.69183 0.27228 0.63030
 C250 C 0.71854 0.29871 0.62707
 C251 C 0.73557 0.30047 0.67054
 N252 N 0.72020 0.27605 0.70020
 C253 C 0.69333 0.25892 0.67571
 C254 C 0.76323 0.32593 0.68326
 C255 C 0.78678 0.32076 0.72164
 C256 C 0.81213 0.34611 0.73835
 C257 C 0.83123 0.32969 0.77328
 C258 C 0.81666 0.29488 0.77749
 N259 N 0.78990 0.28961 0.74550
 C260 C 0.82971 0.26814 0.80770
 C261 C 0.81048 0.23535 0.81714
 C262 C 0.82396 0.20714 0.84265
 C263 C 0.79619 0.18202 0.84762
 C264 C 0.76650 0.19570 0.82522
 N265 N 0.77528 0.22837 0.80675
 C266 C 0.73144 0.17927 0.82512
 C267 C 0.70328 0.19165 0.79643
 C268 C 0.66677 0.18340 0.80261
 C269 C 0.64898 0.19828 0.76534
 C270 C 0.67501 0.21580 0.73800
 N271 N 0.70798 0.21166 0.75709
 C272 C 0.66828 0.23364 0.69538
 H273 H 0.67330 0.26406 0.60246
 H274 H 0.72474 0.31476 0.59622
 H275 H 0.73252 0.21873 0.74129
 H276 H 0.81691 0.37341 0.72610
 H277 H 0.85358 0.34201 0.79276
 H278 H 0.85086 0.20503 0.85689
 H279 H 0.79774 0.15669 0.86598
 H280 H 0.62016 0.19665 0.75927
 H281 H 0.77730 0.26501 0.73689
 H282 H 0.65412 0.16826 0.83097
 C283 C 0.27909 0.69456 0.63152
 C284 C 0.30836 0.71811 0.63312
 C285 C 0.30495 0.73841 0.67374
 N286 N 0.27474 0.72780 0.69726
 C287 C 0.25886 0.70090 0.67149
 C288 C 0.33051 0.76502 0.68927
 C289 C 0.32392 0.78951 0.72613
 C290 C 0.35000 0.81174 0.74755
 C291 C 0.33239 0.83310 0.77884
 C292 C 0.29603 0.82287 0.77645
 N293 N 0.29113 0.79658 0.74376
 C294 C 0.26820 0.83936 0.80162
 C295 C 0.23243 0.82484 0.80460
 C296 C 0.20442 0.84166 0.82676
 C297 C 0.17532 0.81783 0.82588
 C298 C 0.18626 0.78708 0.80303
 N299 N 0.22133 0.79139 0.79050
 C300 C 0.16475 0.75491 0.79776
 C301 C 0.17501 0.72496 0.77032
 C302 C 0.15627 0.69188 0.76799
 C303 C 0.17411 0.67093 0.73634
 C304 C 0.20304 0.69178 0.71953
 N305 N 0.20308 0.72474 0.73994
 C306 C 0.22737 0.68058 0.68460
 H307 H 0.27336 0.67506 0.60385
 H308 H 0.32961 0.72022 0.60712
 H309 H 0.21916 0.74686 0.73013
 H310 H 0.37871 0.81293 0.74089
 H311 H 0.34519 0.85405 0.80026
 H312 H 0.20499 0.86805 0.84297
 H313 H 0.14931 0.82258 0.84127
 H314 H 0.16629 0.64359 0.72637
 H315 H 0.26654 0.78703 0.73031
 H316 H 0.13187 0.68356 0.78635
 C317 C 0.16674 0.21149 0.84640
 C318 C 0.19208 0.18589 0.85011
 C319 C 0.22002 0.19600 0.81991
 N320 N 0.21278 0.22751 0.79884
 C321 C 0.18010 0.23685 0.81465
 C322 C 0.25277 0.17790 0.81518
 C323 C 0.28033 0.18871 0.78321
 C324 C 0.31519 0.17656 0.78397
 C325 C 0.33290 0.19168 0.74595
 C326 C 0.30837 0.21250 0.72274
 N327 N 0.27634 0.21031 0.74545
 C328 C 0.31549 0.23141 0.68045
 C329 C 0.29200 0.25676 0.66168
 C330 C 0.29408 0.27058 0.61646
 C331 C 0.26901 0.29653 0.61365
 C332 C 0.25220 0.29753 0.65713
 N333 N 0.26628 0.27319 0.68645
 C334 C 0.22641 0.32259 0.67018
 C335 C 0.20554 0.31891 0.71166
 C336 C 0.18556 0.34570 0.73166
 C337 C 0.16730 0.33047 0.76911
 C338 C 0.17736 0.29504 0.77182
 N339 N 0.20046 0.28815 0.73651
 C340 C 0.16351 0.26949 0.80441
 H341 H 0.14188 0.21195 0.86620
 H342 H 0.19021 0.16311 0.87359
 H343 H 0.20895 0.26289 0.72677
 H344 H 0.32674 0.15847 0.80907
 H345 H 0.36063 0.18755 0.73634
 H346 H 0.31195 0.26296 0.58842
 H347 H 0.26382 0.31284 0.58310
 H348 H 0.14882 0.34414 0.79169
 H349 H 0.25221 0.21983 0.73297
 H350 H 0.18399 0.37337 0.72051
 C351 C 0.78220 0.79827 0.88650
 C352 C 0.80648 0.77150 0.88664
 C353 C 0.80324 0.75416 0.84346
 N354 N 0.77779 0.76950 0.81696
 C355 C 0.76486 0.79648 0.84324
 C356 C 0.82493 0.72589 0.82840
 C357 C 0.81699 0.70420 0.78850
 C358 C 0.84020 0.67996 0.76912
 C359 C 0.82192 0.66287 0.73277
 C360 C 0.78805 0.67735 0.73051
 N361 N 0.78521 0.70219 0.76510
 C362 C 0.76005 0.66569 0.69932
 C363 C 0.72727 0.68342 0.69406
 C364 C 0.69815 0.67051 0.66741
 C365 C 0.67299 0.69648 0.66855
 C366 C 0.68751 0.72456 0.69575
 N367 N 0.72081 0.71661 0.71089
 C368 C 0.67116 0.75788 0.70276
 C369 C 0.68531 0.78548 0.73292
 C370 C 0.67307 0.82023 0.73517
 C371 C 0.69238 0.83790 0.77019
 C372 C 0.71558 0.81343 0.78900
 N373 N 0.71089 0.78151 0.76631
 C374 C 0.73856 0.82041 0.82807
 H375 H 0.77763 0.81672 0.91522
 H376 H 0.82434 0.76539 0.91544
 H377 H 0.72146 0.75739 0.77661
 H378 H 0.86735 0.67471 0.78038
 H379 H 0.83242 0.64169 0.71126
 H380 H 0.69543 0.64526 0.64842
 H381 H 0.64726 0.69505 0.65051
 H382 H 0.68918 0.86551 0.78106
 H383 H 0.76177 0.71412 0.77560
 H384 H 0.65205 0.83178 0.71441
 C385 C 0.28203 0.08034 0.09428
 C386 C 0.25241 0.08999 0.11739
 C387 C 0.25162 0.12048 0.15062
 C388 C 0.27302 0.15019 0.14682
 H389 H 0.22708 0.07494 0.11220
 H390 H 0.22963 0.12026 0.17566
 H391 H 0.30785 0.09363 0.10219
 H392 H 0.29462 0.15171 0.12130
 C393 C 0.76393 0.57932 0.59154
 C394 C 0.79222 0.60088 0.60370
 C395 C 0.78907 0.63192 0.63584
 C396 C 0.76468 0.63288 0.67049
 H397 H 0.81806 0.59750 0.58699
 H398 H 0.80792 0.65462 0.63104
 H399 H 0.73741 0.58434 0.60528
 H400 H 0.74598 0.61026 0.67635
 C401 C 0.72968 0.92772 0.09617
 C402 C 0.70168 0.90466 0.10419
 C403 C 0.70353 0.87254 0.13469
 C404 C 0.73447 0.85918 0.15001
 H405 H 0.67617 0.90877 0.08683
 H406 H 0.67828 0.85821 0.14255
 H407 H 0.75527 0.92467 0.11355
 H408 H 0.76008 0.87128 0.13932
 C409 C 0.21988 0.42578 0.59171
 C410 C 0.19213 0.40188 0.59652
 C411 C 0.19362 0.36954 0.62676
 C412 C 0.22461 0.35558 0.64098
 H413 H 0.16729 0.40582 0.57750
 H414 H 0.16825 0.35587 0.63571
 H415 H 0.24451 0.42284 0.61143
 H416 H 0.25008 0.36692 0.62846
 C417 C 0.92454 0.26586 0.09663
 C418 C 0.90842 0.29448 0.11472
 C419 C 0.87652 0.29162 0.14587
 C420 C 0.86614 0.26177 0.16938
 H421 H 0.91702 0.32135 0.10378
 H422 H 0.86037 0.31517 0.14852
 H423 H 0.91512 0.23892 0.10582
 H424 H 0.88166 0.23786 0.16769
 C425 C 0.42810 0.76593 0.59845
 C426 C 0.41300 0.79558 0.61506
 C427 C 0.38011 0.79499 0.64452
 C428 C 0.36638 0.76565 0.66638
 H429 H 0.42350 0.82179 0.60398
 H430 H 0.36600 0.81985 0.64703
 H431 H 0.41721 0.73944 0.60724
 H432 H 0.37960 0.74035 0.66445
 C433 C 0.07796 0.71954 0.10347
 C434 C 0.09274 0.75127 0.11809
 C435 C 0.12443 0.75593 0.14933
 C436 C 0.14493 0.72940 0.16422
 H437 H 0.08210 0.77610 0.10517
 H438 H 0.13266 0.78347 0.15799
 H439 H 0.08747 0.69451 0.11703
 H440 H 0.13711 0.70146 0.15815
 C441 C 0.56919 0.21853 0.60472
 C442 C 0.58066 0.24895 0.62662
 C443 C 0.61264 0.25277 0.65753
 C444 C 0.63336 0.22595 0.67095
 H445 H 0.56757 0.27377 0.61892
 H446 H 0.62078 0.28008 0.66747
 H447 H 0.58150 0.19325 0.61166
 H448 H 0.62519 0.19813 0.66453
 C449 C 0.73092 0.07762 0.90522
 C450 C 0.70194 0.08913 0.88240
 C451 C 0.70522 0.11910 0.84863
 C452 C 0.72438 0.14942 0.85908
 H453 H 0.67580 0.07549 0.88656
 H454 H 0.69140 0.11608 0.81518
 H455 H 0.75723 0.08982 0.89716
 H456 H 0.73742 0.15164 0.89321
 C457 C 0.23132 0.58403 0.40870
 C458 C 0.20492 0.59360 0.37974
 C459 C 0.21019 0.62367 0.34632
 C460 C 0.22895 0.65404 0.35786
 H461 H 0.17982 0.57775 0.37820
 H462 H 0.19811 0.62062 0.31175
 H463 H 0.25745 0.59808 0.40707
 H464 H 0.24034 0.65674 0.39290
 C465 C 0.27419 0.92917 0.90315
 C466 C 0.30173 0.90789 0.89480
 C467 C 0.29771 0.87545 0.86490
 C468 C 0.27636 0.87369 0.82686
 H469 H 0.32674 0.91206 0.91415
 H470 H 0.31258 0.85222 0.87497
 H471 H 0.24807 0.92296 0.88736
 H472 H 0.26165 0.89691 0.81634
 C473 C 0.76859 0.42342 0.40402
 C474 C 0.79699 0.40324 0.39607
 C475 C 0.79433 0.37065 0.36627
 C476 C 0.77266 0.36757 0.32856
 H477 H 0.82175 0.40840 0.41564
 H478 H 0.81040 0.34826 0.37637
 H479 H 0.74284 0.41631 0.38774
 H480 H 0.75677 0.38991 0.31787
 C481 C 0.07478 0.27348 0.90549
 C482 C 0.09652 0.30221 0.89620
 C483 C 0.12831 0.29985 0.86526
 C484 C 0.12954 0.27659 0.82926
 H485 H 0.09320 0.32713 0.91526
 H486 H 0.15168 0.31723 0.87318
 H487 H 0.07998 0.24770 0.88962
 H488 H 0.10626 0.25942 0.82037
 C489 C 0.58149 0.76826 0.40772
 C490 C 0.60317 0.79704 0.39840
 C491 C 0.63448 0.79503 0.36671
 C492 C 0.63471 0.77313 0.32925
 H493 H 0.60011 0.82184 0.41780
 H494 H 0.65827 0.81169 0.37510
 H495 H 0.58642 0.74256 0.39143
 H496 H 0.61098 0.75664 0.32016
 C497 C 0.92672 0.71098 0.91201
 C498 C 0.91577 0.74147 0.89240
 C499 C 0.88360 0.74461 0.86232
 C500 C 0.85806 0.71865 0.85552
 H501 H 0.93054 0.76659 0.89977
 H502 H 0.87972 0.77091 0.84724
 H503 H 0.91327 0.68530 0.90434
 H504 H 0.86105 0.69175 0.86883
 C505 C 0.42326 0.22339 0.40287
 C506 C 0.41224 0.25475 0.38595
 C507 C 0.38143 0.25895 0.35362
 C508 C 0.35851 0.23235 0.33909
 H509 H 0.42572 0.27961 0.39759
 H510 H 0.37646 0.28626 0.34297
 H511 H 0.41081 0.19806 0.39149
 H512 H 0.36314 0.20458 0.34729
 C513 C 0.72907 0.92520 0.90656
 C514 C 0.75973 0.91033 0.89310
 C515 C 0.76168 0.87749 0.86377
 C516 C 0.73384 0.85426 0.85502
 H517 H 0.78532 0.92234 0.90472
 H518 H 0.78817 0.87115 0.85098
 H519 H 0.70320 0.91442 0.89440
 H520 H 0.70693 0.85974 0.86670
 C521 C 0.22707 0.43149 0.40004
 C522 C 0.25838 0.41873 0.38528
 C523 C 0.26182 0.38772 0.35295
 C524 C 0.23422 0.36717 0.33571
 H525 H 0.28342 0.43062 0.39894
 H526 H 0.28909 0.38049 0.34475
 H527 H 0.20164 0.42050 0.38677
 H528 H 0.20663 0.37430 0.34119
 C529 C 0.27359 0.07935 0.90195
 C530 C 0.24217 0.08870 0.88296
 C531 C 0.23891 0.11746 0.84772
 C532 C 0.25992 0.14761 0.84749
 H533 H 0.21738 0.07405 0.89226
 H534 H 0.21599 0.11527 0.82405
 H535 H 0.29859 0.09214 0.88974
 H536 H 0.28249 0.15070 0.87156
 C537 C 0.77163 0.57464 0.39732
 C538 C 0.74233 0.58179 0.37199
 C539 C 0.74109 0.61125 0.33739
 C540 C 0.76160 0.64167 0.34056
 H541 H 0.71785 0.56528 0.37638
 H542 H 0.71985 0.60936 0.31115
 H543 H 0.79699 0.58919 0.39090
 H544 H 0.78243 0.64472 0.36714
 C545 C 0.07850 0.70535 0.91418
 C546 C 0.09142 0.73323 0.88880
 C547 C 0.12290 0.72965 0.85790
 C548 C 0.12981 0.75321 0.82336
 H549 H 0.07913 0.75914 0.89113
 H550 H 0.14151 0.70860 0.86496
 H551 H 0.08976 0.67917 0.90899
 H552 H 0.11127 0.77452 0.81741
 C553 C 0.57733 0.22080 0.41338
 C554 C 0.60185 0.24823 0.41362
 C555 C 0.63459 0.24973 0.38432
 C556 C 0.63617 0.23667 0.34032
 H557 H 0.59936 0.26984 0.43894
 H558 H 0.65774 0.26461 0.39886
 H559 H 0.58115 0.19740 0.39144
 H560 H 0.61318 0.22165 0.32558
 C561 C 0.92158 0.27124 0.90691
 C562 C 0.90228 0.29997 0.89696
 C563 C 0.86968 0.29775 0.86685
 C564 C 0.86510 0.27417 0.83138
 H565 H 0.90823 0.32520 0.91506
 H566 H 0.84843 0.31591 0.87489
 H567 H 0.91396 0.24523 0.89188
 H568 H 0.88620 0.25609 0.82253
 C569 C 0.42905 0.77011 0.40772
 C570 C 0.41078 0.79952 0.39788
 C571 C 0.37850 0.79833 0.36726
 C572 C 0.37369 0.77486 0.33173
 H573 H 0.41731 0.82448 0.41634
 H574 H 0.35766 0.81702 0.37504
 H575 H 0.42077 0.74441 0.39231
 H576 H 0.39439 0.75630 0.32303
 C577 C 0.28461 0.92960 0.09321
 C578 C 0.25473 0.91435 0.11227
 C579 C 0.25345 0.88237 0.14302
 C580 C 0.28126 0.86162 0.15258
 H581 H 0.22882 0.92520 0.10405
 H582 H 0.22709 0.87447 0.15676
 H583 H 0.31095 0.91993 0.10144
 H584 H 0.30825 0.86898 0.14095
 C585 C 0.77165 0.42706 0.59573
 C586 C 0.74140 0.41084 0.61229
 C587 C 0.74010 0.37950 0.64424
 C588 C 0.76816 0.35927 0.65479
 H589 H 0.71554 0.42040 0.60124
 H590 H 0.71368 0.37143 0.65762
 H591 H 0.79782 0.41878 0.60717
 H592 H 0.79509 0.36672 0.64305
 C593 C 0.72776 0.07919 0.09785
 C594 C 0.69800 0.09309 0.11602
 C595 C 0.69946 0.12430 0.14867
 C596 C 0.72782 0.13239 0.17655
 H597 H 0.67171 0.08358 0.10354
 H598 H 0.67711 0.14213 0.14788
 H599 H 0.75415 0.09004 0.10793
 H600 H 0.75020 0.11468 0.17829
 C601 C 0.21400 0.57788 0.60024
 C602 C 0.24270 0.58901 0.62591
 C603 C 0.24418 0.62057 0.65776
 C604 C 0.21937 0.64579 0.65990
 H605 H 0.26773 0.57531 0.62203
 H606 H 0.26922 0.62518 0.67696
 H607 H 0.18824 0.59001 0.60463
 H608 H 0.19366 0.64220 0.64221
 C609 C 0.92647 0.71766 0.10265
 C610 C 0.91389 0.74894 0.11774
 C611 C 0.88167 0.75255 0.14773
 C612 C 0.85791 0.72568 0.15861
 H613 H 0.92716 0.77391 0.10643
 H614 H 0.87604 0.77965 0.15885
 H615 H 0.91443 0.69229 0.11428
 H616 H 0.86287 0.69811 0.14944
 C617 C 0.41661 0.21863 0.59474
 C618 C 0.40495 0.24914 0.61364
 C619 C 0.37237 0.25203 0.64304
 C620 C 0.34958 0.22468 0.65504
 H621 H 0.41916 0.27439 0.60568
 H622 H 0.36598 0.27906 0.65365
 H623 H 0.40332 0.19292 0.60229
 H624 H 0.35565 0.19710 0.64736
 C625 C 0.07726 0.27225 0.09604
 C626 C 0.08757 0.30044 0.12308
 C627 C 0.11897 0.29876 0.15487
 C628 C 0.14999 0.28546 0.14006
 H629 H 0.07183 0.32432 0.12381
 H630 H 0.11627 0.30822 0.19072
 H631 H 0.09147 0.24744 0.09870
 H632 H 0.15199 0.27695 0.10365
 C633 C 0.58191 0.76268 0.59954
 C634 C 0.60433 0.79067 0.61031
 C635 C 0.63612 0.78736 0.64112
 C636 C 0.63738 0.76369 0.67642
 H637 H 0.60135 0.81619 0.59276
 H638 H 0.65932 0.80520 0.63434
 H639 H 0.58654 0.73632 0.61386
 H640 H 0.61432 0.74593 0.68405
   
