data_POSCAR
  _audit_creation_date              2014-09-24
  _audit_creation_method            'ToBaCCo'
  _symmetry_space_group_name_H-M    'P1'
  _symmetry_Int_Tables_number       1
  _symmetry_cell_setting            triclinic
  loop_
  _symmetry_equiv_pos_as_xyz
 x,y,z
_cell_length_a 37.7340
_cell_length_b 39.8165
_cell_length_c 40.7004
_cell_angle_alpha 90.163300
_cell_angle_beta 89.926500
_cell_angle_gamma 89.870300
loop_
  _atom_site_label
  _atom_site_type_symbol
  _atom_site_fract_x
  _atom_site_fract_y
  _atom_site_fract_z
O1 O 0.35547 0.38684 0.01953
 O2 O 0.39674 0.33032 -0.04061
 O3 O 0.35648 0.38313 -0.04389
 O4 O 0.39879 0.33706 0.02252
 O5 O 0.35415 0.30130 0.02486
 O6 O 0.30894 0.35110 -0.04049
 O7 O 0.35030 0.29678 -0.03885
 O8 O 0.30976 0.35255 0.02379
 Cu9 Cu 0.38139 0.36262 -0.01107
 Cu10 Cu 0.32604 0.32201 -0.00754
 C11 C 0.32573 0.37934 0.03207
 C12 C 0.38096 0.30372 -0.04971
 C13 C 0.32530 0.37603 -0.05294
 C14 C 0.38435 0.31132 0.03478
 O15 O 0.67112 0.62192 0.04253
 O16 O 0.61709 0.66358 -0.01958
 O17 O 0.67089 0.62430 -0.02144
 O18 O 0.61704 0.66207 0.04350
 O19 O 0.65207 0.70647 0.04435
 O20 O 0.70818 0.66685 -0.01991
 O21 O 0.65289 0.70746 -0.01895
 O22 O 0.70750 0.66520 0.04445
 Cu23 Cu 0.64067 0.63850 0.01127
 Cu24 Cu 0.68403 0.69084 0.01274
 C25 C 0.69848 0.63611 0.05412
 C26 C 0.62530 0.69265 -0.02954
 C27 C 0.69858 0.63884 -0.03199
 C28 C 0.62450 0.69113 0.05415
 O29 O 0.60908 0.34785 1.02446
 O30 O 0.66915 0.38860 0.96646
 O31 O 0.61925 0.34519 0.96143
 O32 O 0.65571 0.39487 1.02829
 O33 O 0.69856 0.35775 1.03547
 O34 O 0.65798 0.30454 0.97037
 O35 O 0.70923 0.34879 0.97371
 O36 O 0.64974 0.30930 1.03462
 Cu37 Cu 0.63423 0.37289 0.99434
 Cu38 Cu 0.68272 0.32583 1.00471
 C39 C 0.61912 0.32170 1.03955
 C40 C 0.69938 0.37592 0.96021
 C41 C 0.63190 0.31662 0.95440
 C42 C 0.68403 0.38584 1.04236
 O43 O 0.35431 0.59562 0.97146
 O44 O 0.39810 0.64316 1.03667
 O45 O 0.35278 0.59490 1.03483
 O46 O 0.40008 0.64375 0.97314
 O47 O 0.35719 0.68157 0.97240
 O48 O 0.30813 0.63085 1.03434
 O49 O 0.35483 0.68060 1.03682
 O50 O 0.31014 0.63211 0.97053
 Cu51 Cu 0.38061 0.61577 1.00405
 Cu52 Cu 0.32817 0.66016 1.00347
 C53 C 0.32467 0.60521 0.96021
 C54 C 0.38436 0.66995 1.04777
 C55 C 0.32232 0.60384 1.04473
 C56 C 0.38725 0.67103 0.96247
 O57 O -0.03851 0.37932 0.35517
 O58 O 0.02595 0.31988 0.38799
 O59 O 0.02921 0.37115 0.34948
 O60 O -0.04169 0.32739 0.39306
 O61 O -0.05010 0.29392 0.35044
 O62 O 0.02167 0.33873 0.30592
 O63 O 0.01817 0.28592 0.34564
 O64 O -0.04653 0.34673 0.31180
 Cu65 Cu -0.00547 0.35270 0.37565
 Cu66 Cu -0.01495 0.31295 0.32402
 C67 C -0.05316 0.37353 0.32777
 C68 C 0.03277 0.29264 0.37299
 C69 C 0.03730 0.36293 0.32030
 C70 C -0.05771 0.30299 0.37964
 O71 O -0.04894 0.62015 0.65726
 O72 O 0.01820 0.65782 0.60466
 O73 O 0.01837 0.61107 0.64846
 O74 O -0.04849 0.66892 0.61555
 O75 O -0.03651 0.70543 0.65485
 O76 O 0.03193 0.64757 0.68742
 O77 O 0.03050 0.69559 0.64284
 O78 O -0.03567 0.65521 0.69756
 Cu79 Cu -0.01651 0.63591 0.62763
 Cu80 Cu -0.00124 0.67971 0.67466
 C81 C -0.05332 0.63048 0.68641
 C82 C 0.03543 0.68323 0.61431
 C83 C 0.03638 0.61922 0.67356
 C84 C -0.05372 0.69726 0.62924
 O85 O 0.98071 0.64569 0.37742
 O86 O 1.05520 0.60517 0.33582
 O87 O 1.04844 0.64436 0.38643
 O88 O 0.98713 0.60750 0.32709
 O89 O 0.99195 0.65170 0.29475
 O90 O 1.05509 0.68870 0.35459
 O91 O 1.06034 0.64844 0.30231
 O92 O 0.98652 0.69090 0.34651
 Cu93 Cu 1.01751 0.62127 0.35982
 Cu94 Cu 1.02439 0.67450 0.32132
 C95 C 0.97091 0.67499 0.36939
 C96 C 1.06980 0.61924 0.31146
 C97 C 1.06172 0.67305 0.38113
 C98 C 0.97860 0.62317 0.30112
 O99 O 0.94383 0.36395 0.59838
 O100 O 1.01708 0.40584 0.64068
 O101 O 1.01234 0.36112 0.59495
 O102 O 0.94894 0.41106 0.64211
 O103 O 0.94768 0.37249 0.68102
 O104 O 1.01225 0.32157 0.63288
 O105 O 1.01618 0.36736 0.67970
 O106 O 0.94328 0.32409 0.63602
 Cu107 Cu 0.98056 0.38929 0.61521
 Cu108 Cu 0.97963 0.34234 0.66128
 C109 C 0.93148 0.33665 0.60952
 C110 C 1.02874 0.39420 0.66757
 C111 C 1.02306 0.33295 0.60542
 C112 C 0.93808 0.40093 0.66979
 O113 O 0.33203 -0.02004 0.39125
 O114 O 0.38456 0.04734 0.35547
 O115 O 0.33180 0.04429 0.39635
 O116 O 0.38335 -0.01754 0.34974
 O117 O 0.34558 -0.01474 0.30840
 O118 O 0.29357 0.04827 0.35554
 O119 O 0.34743 0.05067 0.31368
 O120 O 0.29305 -0.01672 0.35096
 Cu121 Cu 0.36180 0.01330 0.37718
 Cu122 Cu 0.31610 0.01742 0.32788
 C123 C 0.30352 -0.02972 0.37775
 C124 C 0.37552 0.06009 0.32827
 C125 C 0.30343 0.05626 0.38437
 C126 C 0.37342 -0.02687 0.32139
 O127 O 0.61809 0.01819 0.65385
 O128 O 0.66683 -0.04934 0.61267
 O129 O 0.61439 -0.04668 0.65401
 O130 O 0.66775 0.01556 0.61091
 O131 O 0.70723 0.01573 0.65088
 O132 O 0.65258 -0.04760 0.69508
 O133 O 0.70637 -0.04998 0.65256
 O134 O 0.65628 0.01757 0.69497
 Cu135 Cu 0.63795 -0.01572 0.62888
 Cu136 Cu 0.68464 -0.01636 0.67746
 C137 C 0.62866 0.02935 0.68134
 C138 C 0.69522 -0.06083 0.62509
 C139 C 0.62363 -0.05720 0.68205
 C140 C 0.69631 0.02656 0.62327
 O141 O 0.33781 1.05185 0.63325
 O142 O 0.39224 0.98797 0.67262
 O143 O 0.35038 0.98879 0.62274
 O144 O 0.37762 1.05047 0.68471
 O145 O 0.33197 1.03684 0.71590
 O146 O 0.30554 0.97330 0.65416
 O147 O 0.34791 0.97405 0.70538
 O148 O 0.29134 1.03675 0.66277
 Cu149 Cu 0.36900 1.02128 0.65028
 Cu150 Cu 0.31453 1.00387 0.68777
 C151 C 0.30534 1.05481 0.64053
 C152 C 0.37980 0.97037 0.69576
 C153 C 0.32343 0.97052 0.62780
 C154 C 0.35972 1.05408 0.71095
 O155 O 0.62553 0.96230 0.31970
 O156 O 0.67496 1.02564 0.36512
 O157 O 0.62902 1.02690 0.31785
 O158 O 0.67277 0.96067 0.36538
 O159 O 0.71588 0.95789 0.32876
 O160 O 0.67168 1.02507 0.28075
 O161 O 0.71880 1.02334 0.32934
 O162 O 0.66755 0.95985 0.28198
 Cu163 Cu 0.64643 0.99420 0.34567
 Cu164 Cu 0.69787 0.99138 0.30147
 C165 C 0.63756 0.95051 0.29293
 C166 C 0.70545 1.03503 0.35574
 C167 C 0.64238 1.03697 0.29096
 C168 C 0.70177 0.94798 0.35537
 C169 C 0.88862 0.75003 0.48312
 C170 C 0.88530 0.77202 0.45652
 C171 C 0.86287 0.79999 0.45938
 C172 C 0.84152 0.80468 0.48772
 C173 C 0.84559 0.78197 0.51422
 C174 C 0.86945 0.75504 0.51197
 C175 C 0.81351 0.83154 0.48872
 C176 C 0.80074 0.84428 0.51902
 C177 C 0.77192 0.86651 0.51997
 C178 C 0.75751 0.87827 0.49048
 C179 C 0.76993 0.86668 0.46007
 C180 C 0.79772 0.84326 0.45932
 H181 H 0.90682 0.72895 0.48159
 H182 H 0.86155 0.81735 0.43902
 H183 H 0.82934 0.78396 0.53604
 H184 H 0.81251 0.83662 0.54203
 H185 H 0.73687 0.89721 0.49137
 H186 H 0.80594 0.83357 0.43566
 C187 C 0.08367 0.22545 0.50393
 C188 C 0.09542 0.20940 0.47535
 C189 C 0.11734 0.18119 0.47770
 C190 C 0.13045 0.17059 0.50854
 C191 C 0.11865 0.18773 0.53713
 C192 C 0.09521 0.21498 0.53495
 C193 C 0.15844 0.14385 0.51069
 C194 C 0.16409 0.12594 0.54019
 C195 C 0.19333 0.10458 0.54352
 C196 C 0.21551 0.09862 0.51653
 C197 C 0.20985 0.11501 0.48659
 C198 C 0.18161 0.13772 0.48392
 H199 H 0.06536 0.24633 0.50172
 H200 H 0.12490 0.16853 0.45522
 H201 H 0.12868 0.18123 0.56115
 H202 H 0.14673 0.12923 0.56111
 H203 H 0.23711 0.08084 0.51903
 H204 H 0.17900 0.15141 0.46116
 C205 C 0.10871 0.77171 0.49849
 C206 C 0.11491 0.78773 0.52864
 C207 C 0.13786 0.81530 0.52979
 C208 C 0.15745 0.82516 0.50177
 C209 C 0.15155 0.80758 0.47197
 C210 C 0.12694 0.78140 0.47007
 C211 C 0.18470 0.85265 0.50380
 C212 C 0.19706 0.86887 0.47509
 C213 C 0.22495 0.89186 0.47659
 C214 C 0.23841 0.90155 0.50715
 C215 C 0.22608 0.88688 0.53620
 C216 C 0.19977 0.86215 0.53434
 H217 H 0.08878 0.75225 0.49703
 H218 H 0.14043 0.82844 0.55291
 H219 H 0.16643 0.81331 0.45002
 H220 H 0.18586 0.86353 0.45125
 H221 H 0.25806 0.92131 0.50806
 H222 H 0.19201 0.85011 0.55696
 C223 C 0.86695 0.24359 0.49789
 C224 C 0.86290 0.22503 0.52680
 C225 C 0.84663 0.19340 0.52527
 C226 C 0.83159 0.18130 0.49557
 C227 C 0.83633 0.20084 0.46680
 C228 C 0.85469 0.23138 0.46790
 C229 C 0.80976 0.14957 0.49493
 C230 C 0.80150 0.13326 0.46483
 C231 C 0.77720 0.10674 0.46382
 C232 C 0.76371 0.09395 0.49322
 C233 C 0.77180 0.10884 0.52342
 C234 C 0.79457 0.13660 0.52421
 H235 H 0.88134 0.26713 0.49833
 H236 H 0.84558 0.17881 0.54757
 H237 H 0.82519 0.19341 0.44350
 H238 H 0.81266 0.14148 0.44180
 H239 H 0.74621 0.07241 0.49243
 H240 H 0.79866 0.14866 0.54768
 C241 C 0.50055 0.90226 0.78526
 C242 C 0.46803 0.89585 0.80074
 C243 C 0.46726 0.87518 0.82854
 C244 C 0.49823 0.85864 0.83953
 C245 C 0.53044 0.86481 0.82268
 C246 C 0.53181 0.88676 0.79591
 C247 C 0.49685 0.83401 0.86738
 C248 C 0.52786 0.82621 0.88531
 C249 C 0.52811 0.80004 0.90809
 C250 C 0.49645 0.78356 0.91563
 C251 C 0.46490 0.79146 0.89928
 C252 C 0.46521 0.81650 0.87508
 H253 H 0.50171 0.92017 0.76532
 H254 H 0.44226 0.87187 0.84112
 H255 H 0.55462 0.85199 0.82942
 H256 H 0.55235 0.83955 0.88108
 H257 H 0.49644 0.76451 0.93460
 H258 H 0.44102 0.82104 0.86161
 C259 C 0.49931 0.10742 0.23248
 C260 C 0.46810 0.12129 0.21983
 C261 C 0.46977 0.14129 0.19173
 C262 C 0.50225 0.14700 0.17529
 C263 C 0.53334 0.13199 0.18827
 C264 C 0.53217 0.11338 0.21753
 C265 C 0.50354 0.16982 0.14589
 C266 C 0.53515 0.18687 0.13735
 C267 C 0.53557 0.21051 0.11188
 C268 C 0.50413 0.21754 0.09500
 C269 C 0.47236 0.20171 0.10333
 C270 C 0.47250 0.17675 0.12745
 H271 H 0.49791 0.09091 0.25354
 H272 H 0.44544 0.15293 0.18361
 H273 H 0.55866 0.13485 0.17617
 H274 H 0.55931 0.18310 0.15108
 H275 H 0.50418 0.23545 0.07499
 H276 H 0.44792 0.16378 0.13219
 C277 C 0.51072 0.10907 0.76313
 C278 C 0.54047 0.10804 0.78360
 C279 C 0.53985 0.12583 0.81337
 C280 C 0.51106 0.14731 0.82143
 C281 C 0.48152 0.14796 0.79993
 C282 C 0.48125 0.12844 0.77130
 C283 C 0.51302 0.17078 0.85041
 C284 C 0.48203 0.18608 0.86344
 C285 C 0.48442 0.21200 0.88668
 C286 C 0.51753 0.22042 0.89958
 C287 C 0.54847 0.20508 0.88806
 C288 C 0.54628 0.18057 0.86347
 H289 H 0.51004 0.09414 0.74082
 H290 H 0.56242 0.12337 0.82949
 H291 H 0.45918 0.16439 0.80421
 H292 H 0.45595 0.17908 0.85494
 H293 H 0.51933 0.23961 0.91847
 H294 H 0.57086 0.17086 0.85364
 C295 C 0.49012 0.90363 0.22889
 C296 C 0.52110 0.88689 0.21946
 C297 C 0.51992 0.86421 0.19328
 C298 C 0.48815 0.85843 0.17568
 C299 C 0.45712 0.87574 0.18578
 C300 C 0.45777 0.89737 0.21313
 C301 C 0.48768 0.83327 0.14811
 C302 C 0.45645 0.81552 0.13968
 C303 C 0.45744 0.78940 0.11640
 C304 C 0.48988 0.78070 0.10180
 C305 C 0.52102 0.79778 0.10981
 C306 C 0.51946 0.82502 0.13143
 H307 H 0.49131 0.92219 0.24836
 H308 H 0.54391 0.85049 0.18761
 H309 H 0.43234 0.87229 0.17291
 H310 H 0.43160 0.82080 0.15191
 H311 H 0.49094 0.76081 0.08359
 H312 H 0.54362 0.83884 0.13587
 C313 C 0.76986 0.51052 0.90682
 C314 C 0.78556 0.48030 0.89721
 C315 C 0.81535 0.48078 0.87682
 C316 C 0.82736 0.51124 0.86277
 C317 C 0.81032 0.54155 0.87243
 C318 C 0.78180 0.54119 0.89452
 C319 C 0.85505 0.51098 0.83613
 C320 C 0.87330 0.54065 0.82732
 C321 C 0.89484 0.54147 0.79932
 C322 C 0.90101 0.51190 0.78151
 C323 C 0.88467 0.48178 0.79049
 C324 C 0.86156 0.48152 0.81739
 H325 H 0.74786 0.51001 0.92399
 H326 H 0.82792 0.45705 0.87124
 H327 H 0.81762 0.56543 0.86193
 H328 H 0.87011 0.56361 0.84123
 H329 H 0.91895 0.51243 0.76070
 H330 H 0.84775 0.45837 0.82232
 C331 C 0.22187 0.49025 0.09919
 C332 C 0.21308 0.45906 0.11267
 C333 C 0.18847 0.45775 0.13846
 C334 C 0.17228 0.48737 0.15079
 C335 C 0.18152 0.51848 0.13625
 C336 C 0.20742 0.52009 0.11161
 C337 C 0.14755 0.48597 0.17978
 C338 C 0.14342 0.51418 0.20073
 C339 C 0.12108 0.51288 0.22829
 C340 C 0.10461 0.48259 0.23626
 C341 C 0.10892 0.45391 0.21666
 C342 C 0.12902 0.45613 0.18772
 H343 H 0.24002 0.49148 0.07858
 H344 H 0.18317 0.43358 0.14942
 H345 H 0.16942 0.54172 0.14431
 H346 H 0.15828 0.53688 0.19645
 H347 H 0.08755 0.48152 0.25769
 H348 H 0.13054 0.43424 0.17200
 C349 C 0.77531 0.50403 0.10516
 C350 C 0.78398 0.53375 0.12179
 C351 C 0.81103 0.53329 0.14539
 C352 C 0.82982 0.50329 0.15220
 C353 C 0.82154 0.47418 0.13372
 C354 C 0.79311 0.47395 0.11181
 C355 C 0.85556 0.50127 0.18020
 C356 C 0.86155 0.47016 0.19598
 C357 C 0.88421 0.46761 0.22290
 C358 C 0.90055 0.49653 0.23505
 C359 C 0.89410 0.52801 0.22095
 C360 C 0.87278 0.53016 0.19278
 H361 H 0.75471 0.50434 0.08664
 H362 H 0.81602 0.55603 0.15919
 H363 H 0.83612 0.45104 0.13699
 H364 H 0.84787 0.44764 0.18836
 H365 H 0.91894 0.49459 0.25539
 H366 H 0.86927 0.55444 0.18139
 C367 C 0.22335 0.49150 0.89512
 C368 C 0.20931 0.52288 0.88668
 C369 C 0.18210 0.52462 0.86332
 C370 C 0.17085 0.49559 0.84599
 C371 C 0.18635 0.46432 0.85465
 C372 C 0.21212 0.46214 0.87933
 C373 C 0.14430 0.49805 0.81834
 C374 C 0.12629 0.46915 0.80668
 C375 C 0.10420 0.47079 0.77912
 C376 C 0.09713 0.50196 0.76480
 C377 C 0.11369 0.53122 0.77600
 C378 C 0.13749 0.52909 0.80238
 H379 H 0.24264 0.48988 0.91475
 H380 H 0.17044 0.54893 0.85868
 H381 H 0.17962 0.44143 0.84186
 H382 H 0.12939 0.44504 0.81839
 H383 H 0.07767 0.50341 0.74533
 H384 H 0.15097 0.55182 0.80957
 C385 C 0.31004 0.40308 0.05571
 C386 C 0.27775 0.39969 0.06889
 C387 C 0.26274 0.42770 0.08817
 C388 C 0.22935 0.42790 0.09934
 H389 H 0.26179 0.37773 0.06362
 H390 H 0.27907 0.44979 0.09169
 H391 H 0.32525 0.42553 0.06108
 H392 H 0.21338 0.40537 0.09773
 C393 C 0.72069 0.61766 0.07784
 C394 C 0.70793 0.59029 0.09288
 C395 C 0.72931 0.56419 0.10925
 C396 C 0.76444 0.56506 0.11414
 H397 H 0.68015 0.58414 0.08997
 H398 H 0.71515 0.54128 0.11498
 H399 H 0.74807 0.62509 0.08063
 H400 H 0.77934 0.58799 0.11092
 C401 C 0.72382 0.39400 0.93836
 C402 C 0.71181 0.41917 0.91969
 C403 C 0.73386 0.44479 0.90369
 C404 C 0.76898 0.44843 0.90728
 H405 H 0.68349 0.42346 0.91807
 H406 H 0.71922 0.46418 0.89084
 H407 H 0.75176 0.38807 0.93961
 H408 H 0.78523 0.42931 0.91861
 C409 C 0.30758 0.58354 0.93562
 C410 C 0.27306 0.58457 0.92822
 C411 C 0.25795 0.55702 0.90843
 C412 C 0.22322 0.55378 0.90248
 H413 H 0.25592 0.60363 0.93878
 H414 H 0.27588 0.53759 0.89972
 H415 H 0.32378 0.56347 0.92550
 H416 H 0.20501 0.57372 0.90922
 C417 C 0.05643 0.26809 0.38884
 C418 C 0.07805 0.27819 0.41297
 C419 C 0.09457 0.25641 0.43781
 C420 C 0.08633 0.22419 0.44327
 H421 H 0.08150 0.30488 0.41719
 H422 H 0.11089 0.26934 0.45573
 H423 H 0.05366 0.24179 0.38264
 H424 H 0.07055 0.20975 0.42619
 C425 C 0.06085 0.69787 0.59118
 C426 C 0.07077 0.73005 0.59167
 C427 C 0.09153 0.74303 0.56382
 C428 C 0.09726 0.77579 0.55899
 H429 H 0.06146 0.74690 0.61080
 H430 H 0.10124 0.72508 0.54584
 H431 H 0.06904 0.68204 0.57079
 H432 H 0.08942 0.79389 0.57757
 C433 C 0.94110 0.68960 0.38771
 C434 C 0.93448 0.72251 0.39037
 C435 C 0.90807 0.73345 0.41487
 C436 C 0.90533 0.76505 0.42590
 H437 H 0.95048 0.74073 0.37737
 H438 H 0.89241 0.71414 0.42675
 H439 H 0.92575 0.67218 0.40240
 H440 H 0.91925 0.78528 0.41373
 C441 C 0.90392 0.31970 0.59024
 C442 C 0.89860 0.28649 0.59082
 C443 C 0.87685 0.27114 0.56478
 C444 C 0.87743 0.23818 0.55814
 H445 H 0.91320 0.27071 0.60774
 H446 H 0.86244 0.28782 0.54852
 H447 H 0.89055 0.33469 0.57179
 H448 H 0.89028 0.22093 0.57490
 C449 C 0.39957 0.08476 0.31356
 C450 C 0.39879 0.09300 0.28181
 C451 C 0.42986 0.10957 0.26725
 C452 C 0.43341 0.11326 0.23481
 H453 H 0.37766 0.08402 0.26606
 H454 H 0.45186 0.11596 0.28320
 H455 H 0.42161 0.09308 0.32859
 H456 H 0.41108 0.10850 0.21875
 C457 C 0.60783 0.05620 0.69677
 C458 C 0.60771 0.06263 0.72903
 C459 C 0.58154 0.08675 0.74186
 C460 C 0.57206 0.08833 0.77353
 H461 H 0.62433 0.04840 0.74567
 H462 H 0.56755 0.10218 0.72417
 H463 H 0.58938 0.06946 0.68098
 H464 H 0.58678 0.07445 0.79189
 C465 C 0.40364 0.94580 0.71089
 C466 C 0.40103 0.93555 0.74201
 C467 C 0.43028 0.91556 0.75578
 C468 C 0.43496 0.91120 0.78806
 H469 H 0.37952 0.94418 0.75759
 H470 H 0.45001 0.90581 0.73884
 H471 H 0.42663 0.93843 0.69651
 H472 H 0.41470 0.91927 0.80527
 C473 C 0.61525 0.92730 0.27372
 C474 C 0.58574 0.91438 0.28708
 C475 C 0.55598 0.89941 0.26876
 C476 C 0.55503 0.89410 0.23626
 H477 H 0.58077 0.91817 0.31306
 H478 H 0.53222 0.89494 0.28307
 H479 H 0.62150 0.92362 0.24804
 H480 H 0.57874 0.89601 0.22145
 C481 C 0.39941 0.27986 0.92831
 C482 C 0.42981 0.28863 0.91368
 C483 C 0.45530 0.26552 0.89793
 C484 C 0.45294 0.23189 0.89654
 H485 H 0.43864 0.31445 0.91548
 H486 H 0.47941 0.27733 0.88923
 H487 H 0.38924 0.25456 0.92631
 H488 H 0.42886 0.21891 0.90321
 C489 C 0.60122 0.70884 0.94715
 C490 C 0.59909 0.74205 0.94310
 C491 C 0.56871 0.75575 0.92493
 C492 C 0.56172 0.78859 0.92296
 H493 H 0.61743 0.75877 0.95543
 H494 H 0.55015 0.73810 0.91414
 H495 H 0.58162 0.69280 0.93559
 H496 H 0.58065 0.80691 0.93183
 C497 C 0.40455 0.68845 0.07284
 C498 C 0.39826 0.72027 0.08179
 C499 C 0.42575 0.73817 0.10072
 C500 C 0.42481 0.77127 0.10652
 H501 H 0.37544 0.73373 0.07241
 H502 H 0.44944 0.72428 0.10737
 H503 H 0.42819 0.67605 0.08195
 H504 H 0.40090 0.78555 0.10171
 C505 C 0.59378 0.30589 0.06210
 C506 C 0.59851 0.27571 0.07575
 C507 C 0.56838 0.25982 0.09264
 C508 C 0.56883 0.22779 0.10251
 H509 H 0.62295 0.26186 0.07203
 H510 H 0.54399 0.27412 0.09481
 H511 H 0.56869 0.31880 0.06558
 H512 H 0.59339 0.21363 0.10223
 C513 C 0.28465 0.07909 0.62150
 C514 C 0.25015 0.07568 0.61505
 C515 C 0.23515 0.09507 0.58762
 C516 C 0.20267 0.08995 0.57565
 H517 H 0.23467 0.05619 0.62679
 H518 H 0.25259 0.11215 0.57458
 H519 H 0.29978 0.09778 0.60816
 H520 H 0.18384 0.07416 0.58842
 C521 C 0.72475 0.05742 0.37543
 C522 C 0.71003 0.07089 0.40255
 C523 C 0.72834 0.08965 0.42873
 C524 C 0.76344 0.09358 0.43222
 H525 H 0.68218 0.06659 0.40756
 H526 H 0.71112 0.09845 0.44832
 H527 H 0.75204 0.06274 0.36913
 H528 H 0.78179 0.08665 0.41291
 C529 C 0.71613 0.91425 0.60638
 C530 C 0.70167 0.89842 0.58060
 C531 C 0.72108 0.87984 0.55484
 C532 C 0.75643 0.87793 0.55156
 H533 H 0.67354 0.90137 0.57608
 H534 H 0.70463 0.86992 0.53528
 H535 H 0.74380 0.91094 0.61249
 H536 H 0.77403 0.88600 0.57096
 C537 C 0.28184 0.94480 0.39451
 C538 C 0.29593 0.92680 0.41902
 C539 C 0.27609 0.90721 0.44348
 C540 C 0.24073 0.90580 0.44633
 H541 H 0.32415 0.92853 0.42364
 H542 H 0.29220 0.89567 0.46241
 H543 H 0.25409 0.94283 0.38824
 H544 H 0.22340 0.91547 0.42744
 C545 C 0.05639 0.41336 0.68458
 C546 C 0.06300 0.41079 0.71676
 C547 C 0.08529 0.43650 0.73248
 C548 C 0.08789 0.44013 0.76510
 H549 H 0.04941 0.39229 0.73162
 H550 H 0.09785 0.45493 0.71672
 H551 H 0.06915 0.43311 0.67059
 H552 H 0.07715 0.42126 0.78143
 C553 C 0.09645 0.59975 0.29325
 C554 C 0.09993 0.60183 0.26054
 C555 C 0.11545 0.57436 0.24037
 C556 C 0.11409 0.54211 0.24998
 H557 H 0.08780 0.62257 0.24753
 H558 H 0.12305 0.58038 0.21544
 H559 H 0.10905 0.57945 0.30649
 H560 H 0.10303 0.53626 0.27381
 C561 C 0.92338 0.39948 0.31439
 C562 C 0.91288 0.39984 0.28311
 C563 C 0.89750 0.43075 0.26955
 C564 C 0.89182 0.43437 0.23739
 H565 H 0.91906 0.37899 0.26687
 H566 H 0.89344 0.45197 0.28590
 H567 H 0.91784 0.42102 0.32997
 H568 H 0.89412 0.41286 0.22113
 C569 C 0.92143 0.61198 0.70685
 C570 C 0.92436 0.60903 0.73942
 C571 C 0.90474 0.58185 0.75573
 C572 C 0.90960 0.57344 0.78716
 H573 H 0.94389 0.62345 0.75292
 H574 H 0.88778 0.56609 0.74068
 H575 H 0.90280 0.59605 0.69385
 H576 H 0.92500 0.58922 0.80346
 C577 C 0.71902 0.62330 0.94357
 C578 C 0.70716 0.59575 0.92800
 C579 C 0.72824 0.57306 0.90702
 C580 C 0.76372 0.57245 0.90506
 H581 H 0.68025 0.58731 0.93231
 H582 H 0.71353 0.55234 0.89643
 H583 H 0.74485 0.63351 0.93784
 H584 H 0.77964 0.59294 0.91432
 C585 C 0.30956 0.39753 0.92432
 C586 C 0.27554 0.39659 0.91502
 C587 C 0.26102 0.42586 0.89727
 C588 C 0.22675 0.42912 0.88951
 H589 H 0.25811 0.37666 0.92315
 H590 H 0.27862 0.44685 0.89265
 H591 H 0.32579 0.41822 0.91574
 H592 H 0.20893 0.40800 0.89215
 C593 C 0.30501 0.58241 0.06643
 C594 C 0.27102 0.58506 0.07572
 C595 C 0.25547 0.55679 0.09410
 C596 C 0.22066 0.55273 0.09915
 H597 H 0.25453 0.60573 0.06755
 H598 H 0.27328 0.53688 0.10181
 H599 H 0.31996 0.56055 0.07436
 H600 H 0.20211 0.57265 0.09342
 C601 C 0.69902 0.40837 0.06446
 C602 C 0.73242 0.40677 0.07529
 C603 C 0.74638 0.43584 0.09353
 C604 C 0.78101 0.44199 0.09692
 H605 H 0.74987 0.38634 0.06815
 H606 H 0.72744 0.45407 0.10286
 H607 H 0.68335 0.43047 0.07049
 H608 H 0.80040 0.42345 0.08922
 C609 C 0.92272 0.72031 0.61517
 C610 C 0.90380 0.71272 0.58831
 C611 C 0.88649 0.73873 0.56810
 C612 C 0.87427 0.73029 0.53841
 H613 H 0.90414 0.68721 0.57886
 H614 H 0.88835 0.76494 0.57516
 H615 H 0.92161 0.74559 0.62511
 H616 H 0.87497 0.70409 0.53101
 C617 C 0.91714 0.28602 0.39840
 C618 C 0.90010 0.25810 0.38866
 C619 C 0.87890 0.23778 0.41203
 C620 C 0.86275 0.25126 0.43831
 H621 H 0.90542 0.24743 0.36464
 H622 H 0.87993 0.21073 0.40922
 H623 H 0.91350 0.29515 0.42326
 H624 H 0.86144 0.27830 0.44094
 C625 C 0.04616 0.31484 0.58534
 C626 C 0.05703 0.28335 0.59101
 C627 C 0.07675 0.26573 0.56483
 C628 C 0.08263 0.23258 0.56497
 H629 H 0.04905 0.27005 0.61300
 H630 H 0.08452 0.28013 0.54343
 H631 H 0.05405 0.32679 0.56253
 H632 H 0.07684 0.21800 0.58676
 C633 C 0.08241 0.68720 0.40588
 C634 C 0.09502 0.71858 0.40526
 C635 C 0.10992 0.73307 0.43560
 C636 C 0.11910 0.76541 0.43793
 H637 H 0.09147 0.73433 0.38381
 H638 H 0.11121 0.71732 0.45725
 H639 H 0.08615 0.67239 0.42797
 H640 H 0.11970 0.78085 0.41605
 C641 C 0.59878 0.92048 0.69926
 C642 C 0.59980 0.91425 0.73151
 C643 C 0.56835 0.89941 0.74741
 C644 C 0.56613 0.89462 0.77987
 H645 H 0.62172 0.92310 0.74635
 H646 H 0.54527 0.89445 0.73231
 H647 H 0.57606 0.91199 0.68522
 H648 H 0.58945 0.89765 0.79510
 C649 C 0.39549 0.94813 0.30429
 C650 C 0.39306 0.94048 0.27232
 C651 C 0.42041 0.91838 0.25790
 C652 C 0.42507 0.91395 0.22552
 H653 H 0.37316 0.95212 0.25690
 H654 H 0.43923 0.90697 0.27465
 H655 H 0.41655 0.93690 0.31871
 H656 H 0.40572 0.92344 0.20822
 C657 C 0.62265 0.06157 0.27083
 C658 C 0.59489 0.07818 0.28359
 C659 C 0.56858 0.09814 0.26516
 C660 C 0.56488 0.09911 0.23233
 H661 H 0.58938 0.07573 0.30961
 H662 H 0.54877 0.11046 0.28030
 H663 H 0.62991 0.06450 0.24528
 H664 H 0.58478 0.08842 0.21625
 C665 C 0.37272 0.07700 0.73673
 C666 C 0.39833 0.09917 0.73029
 C667 C 0.42055 0.11346 0.75654
 C668 C 0.45115 0.12805 0.74845
 H669 H 0.40634 0.10324 0.70500
 H670 H 0.41525 0.10698 0.78194
 H671 H 0.36400 0.07302 0.76180
 H672 H 0.45724 0.13201 0.72270
 C673 C 0.59932 0.70693 0.07694
 C674 C 0.59526 0.74018 0.07948
 C675 C 0.56339 0.75356 0.09583
 C676 C 0.55544 0.78629 0.09646
 H677 H 0.61317 0.75708 0.06689
 H678 H 0.54480 0.73581 0.10635
 H679 H 0.58013 0.69054 0.08855
 H680 H 0.57441 0.80465 0.08781
 C681 C 0.40417 0.29384 0.06060
 C682 C 0.40395 0.26061 0.06522
 C683 C 0.43215 0.24599 0.08582
 C684 C 0.43895 0.21305 0.08778
 H685 H 0.38616 0.24459 0.05141
 H686 H 0.45018 0.26322 0.09797
 H687 H 0.42373 0.30887 0.07346
 H688 H 0.42085 0.19481 0.07742
 C689 C 0.61465 0.29825 0.92760
 C690 C 0.61612 0.26500 0.92337
 C691 C 0.58973 0.24958 0.90142
 C692 C 0.58293 0.21669 0.90092
 H693 H 0.63301 0.24952 0.93865
 H694 H 0.57184 0.26619 0.88827
 H695 H 0.59628 0.31276 0.91280
 H696 H 0.60046 0.19897 0.91288
 C697 C 0.40918 0.69015 0.93921
 C698 C 0.40379 0.72226 0.93096
 C699 C 0.43266 0.74034 0.91410
 C700 C 0.43186 0.77335 0.90793
 H701 H 0.38044 0.73566 0.93937
 H702 H 0.45694 0.72659 0.90902
 H703 H 0.43329 0.67780 0.93098
 H704 H 0.40751 0.78747 0.91105
 C705 C 0.71988 0.92248 0.37565
 C706 C 0.70318 0.90820 0.40113
 C707 C 0.72005 0.88802 0.42723
 C708 C 0.75457 0.88001 0.42916
 H709 H 0.67534 0.91368 0.40504
 H710 H 0.70271 0.88133 0.44740
 H711 H 0.74743 0.91712 0.37052
 H712 H 0.77221 0.88422 0.40863
 C713 C 0.31306 0.94671 0.60191
 C714 C 0.28256 0.92968 0.60208
 C715 C 0.27191 0.91100 0.57243
 C716 C 0.23922 0.89859 0.56862
 H717 H 0.26445 0.93177 0.62268
 H718 H 0.29068 0.90943 0.55231
 H719 H 0.33031 0.94496 0.58063
 H720 H 0.22105 0.89855 0.58927
 C721 C 0.28062 0.07795 0.40497
 C722 C 0.29075 0.08697 0.43534
 C723 C 0.26734 0.10090 0.46116
 C724 C 0.23274 0.10788 0.45774
 H725 H 0.31739 0.08100 0.44335
 H726 H 0.27938 0.10349 0.48517
 H727 H 0.25436 0.08372 0.39600
 H728 H 0.22044 0.10775 0.43376
 C729 C 0.71717 0.05143 0.60454
 C730 C 0.70216 0.06771 0.57927
 C731 C 0.72090 0.08699 0.55372
 C732 C 0.75520 0.09574 0.55384
 H733 H 0.67413 0.06419 0.57464
 H734 H 0.70511 0.09286 0.53225
 H735 H 0.74495 0.05459 0.61026
 H736 H 0.77130 0.09275 0.57562
 C737 C 0.95332 0.60741 0.27819
 C738 C 0.93089 0.58403 0.28936
 C739 C 0.90913 0.56119 0.26929
 C740 C 0.90980 0.55822 0.23644
 H741 H 0.92982 0.57926 0.31556
 H742 H 0.89391 0.54312 0.28330
 H743 H 0.95414 0.61418 0.25248
 H744 H 0.92311 0.57645 0.22115
 C745 C 0.91561 0.42402 0.68890
 C746 C 0.91016 0.42127 0.72122
 C747 C 0.89592 0.45039 0.73944
 C748 C 0.89212 0.45038 0.77209
 H749 H 0.91946 0.39939 0.73446
 H750 H 0.89062 0.47332 0.72596
 H751 H 0.90680 0.44659 0.67643
 H752 H 0.89538 0.42722 0.78570
 C753 C 0.06165 0.59440 0.68657
 C754 C 0.07652 0.59644 0.71636
 C755 C 0.09520 0.56685 0.72960
 C756 C 0.10436 0.56420 0.76129
 H757 H 0.07195 0.61819 0.73188
 H758 H 0.09870 0.54538 0.71347
 H759 H 0.06562 0.57184 0.67200
 H760 H 0.10269 0.58598 0.77725
 C761 C 0.06472 0.38299 0.30383
 C762 C 0.06804 0.38600 0.27121
 C763 C 0.09089 0.41298 0.25827
 C764 C 0.09173 0.42198 0.22657
 H765 H 0.05166 0.37132 0.25473
 H766 H 0.10567 0.42786 0.27590
 H767 H 0.08041 0.39914 0.31962
 H768 H 0.07881 0.40666 0.20812
   
