data_POSCAR
  _audit_creation_date              2014-09-24
  _audit_creation_method            'ToBaCCo'
  _symmetry_space_group_name_H-M    'P1'
  _symmetry_Int_Tables_number       1
  _symmetry_cell_setting            triclinic
  loop_
  _symmetry_equiv_pos_as_xyz
 x,y,z
_cell_length_a 32.8134
_cell_length_b 33.5275
_cell_length_c 39.4490
_cell_angle_alpha 89.833600
_cell_angle_beta 90.589700
_cell_angle_gamma 119.415900
loop_
  _atom_site_label
  _atom_site_type_symbol
  _atom_site_fract_x
  _atom_site_fract_y
  _atom_site_fract_z
C1 C 0.03149 0.50154 1.32517
 C2 C -0.01209 0.48390 1.34096
 C3 C -0.05450 0.46012 1.32298
 C4 C -0.05333 0.45705 1.28708
 C5 C -0.00955 0.47745 1.27024
 C6 C 0.03294 0.49928 1.28927
 C7 C 0.07558 0.52149 1.27169
 C8 C 0.07685 0.51979 1.23659
 C9 C 0.03546 0.49765 1.21736
 C10 C -0.00821 0.47729 1.23412
 C11 C -0.09460 0.43703 1.26734
 C12 C -0.09319 0.43597 1.23219
 C13 C -0.05047 0.45737 1.21483
 C14 C -0.04871 0.45764 1.17875
 C15 C -0.00498 0.47547 1.16305
 C16 C 0.03671 0.49608 1.18169
 H17 H 0.10864 0.54157 1.28469
 H18 H 0.11074 0.53686 1.22460
 H19 H -0.12876 0.42264 1.27865
 H20 H -0.12631 0.41790 1.21889
 H21 H -0.01307 0.48485 1.36843
 H22 H -0.00292 0.47627 1.13559
 C23 C 0.51158 0.46711 1.17590
 C24 C 0.48961 0.48694 1.15739
 C25 C 0.47089 0.51144 1.17331
 C26 C 0.47492 0.51724 1.20894
 C27 C 0.49696 0.49714 1.22823
 C28 C 0.51489 0.47156 1.21165
 C29 C 0.53504 0.45064 1.23124
 C30 C 0.53735 0.45443 1.26644
 C31 C 0.52130 0.48083 1.28363
 C32 C 0.50016 0.50184 1.26419
 C33 C 0.45660 0.54170 1.22582
 C34 C 0.45960 0.54624 1.26096
 C35 C 0.48098 0.52645 1.28063
 C36 C 0.48220 0.52928 1.31639
 C37 C 0.50165 0.50726 1.33522
 C38 C 0.52243 0.48402 1.31974
 H39 H 0.54839 0.43028 1.21951
 H40 H 0.55083 0.43524 1.27996
 H41 H 0.43931 0.55721 1.21200
 H42 H 0.44420 0.56482 1.27264
 H43 H 0.48663 0.48288 1.13004
 H44 H 0.50272 0.51048 1.36263
 C45 C 0.49309 0.96562 1.32311
 C46 C 0.51025 1.00714 1.34062
 C47 C 0.53505 1.04950 1.32416
 C48 C 0.53862 1.05032 1.28823
 C49 C 0.51826 1.00846 1.26981
 C50 C 0.49621 0.96602 1.28731
 C51 C 0.47420 0.92507 1.26842
 C52 C 0.47334 0.92561 1.23332
 C53 C 0.49369 0.96707 1.21554
 C54 C 0.51765 1.00894 1.23372
 C55 C 0.55762 1.09167 1.27001
 C56 C 0.55789 1.09212 1.23478
 C57 C 0.53878 1.05123 1.21593
 C58 C 0.53607 1.05116 1.17989
 C59 C 0.51090 1.00919 1.16279
 C60 C 0.48975 0.96765 1.17998
 H61 H 0.45543 0.89197 1.28045
 H62 H 0.45551 0.89299 1.22028
 H63 H 0.57059 1.12428 1.28267
 H64 H 0.57119 1.12504 1.22261
 H65 H 0.50789 1.00639 1.36808
 H66 H 0.50826 1.00855 1.13532
 C67 C 0.96399 0.46530 0.67675
 C68 C 1.00725 0.48806 0.66071
 C69 C 1.04937 0.51038 0.67913
 C70 C 1.04810 0.51098 0.71510
 C71 C 1.00424 0.48945 0.73175
 C72 C 0.96206 0.46637 0.71251
 C73 C 0.91908 0.44543 0.72949
 C74 C 0.91729 0.44919 0.76449
 C75 C 0.95846 0.47309 0.78393
 C76 C 1.00244 0.49243 0.76765
 C77 C 1.08906 0.53571 0.73470
 C78 C 1.08731 0.53825 0.76977
 C79 C 1.04452 0.51623 0.78702
 C80 C 1.04229 0.52073 0.82274
 C81 C 0.99828 0.50358 0.83774
 C82 C 0.95681 0.47948 0.81913
 H83 H 0.88629 0.42675 0.71578
 H84 H 0.88318 0.43369 0.77613
 H85 H 1.12301 0.55484 0.72312
 H86 H 1.11995 0.55950 0.78300
 H87 H 1.00811 0.48743 0.63321
 H88 H 0.99592 0.50672 0.86494
 C89 C 0.52367 0.49274 0.68228
 C90 C 0.50227 0.51370 0.66454
 C91 C 0.47719 0.53128 0.68126
 C92 C 0.47525 0.53003 0.71700
 C93 C 0.49582 0.50781 0.73531
 C94 C 0.51940 0.48828 0.71786
 C95 C 0.53846 0.46542 0.73647
 C96 C 0.53384 0.46122 0.77154
 C97 C 0.51160 0.48129 0.78940
 C98 C 0.49300 0.50533 0.77114
 C99 C 0.45417 0.55119 0.73490
 C100 C 0.45276 0.55004 0.77012
 C101 C 0.47171 0.52706 0.78866
 C102 C 0.46983 0.52512 0.82434
 C103 C 0.48640 0.49975 0.84197
 C104 C 0.50702 0.47774 0.82503
 H105 H 0.55679 0.45021 0.72405
 H106 H 0.54830 0.44246 0.78456
 H107 H 0.43924 0.56953 0.72187
 H108 H 0.43618 0.56692 0.78269
 H109 H 0.50431 0.51541 0.63709
 H110 H 0.48419 0.49797 0.86941
 C111 C 0.48953 -0.04649 0.81646
 C112 C 0.50521 -0.00450 0.83346
 C113 C 0.53202 0.03750 0.81733
 C114 C 0.54211 0.03860 0.78254
 C115 C 0.52509 -0.00302 0.76427
 C116 C 0.49857 -0.04572 0.78106
 C117 C 0.47911 -0.08608 0.76141
 C118 C 0.48797 -0.08491 0.72686
 C119 C 0.51575 -0.04324 0.71019
 C120 C 0.53402 -0.00183 0.72894
 C121 C 0.56811 0.08043 0.76547
 C122 C 0.57689 0.08152 0.73096
 C123 C 0.55984 0.04086 0.71215
 C124 C 0.56749 0.04176 0.67687
 C125 C 0.55017 0.00065 0.65898
 C126 C 0.52409 -0.04165 0.67495
 H127 H 0.45562 -0.11908 0.77225
 H128 H 0.47212 -0.11708 0.71319
 H129 H 0.58140 0.11284 0.77857
 H130 H 0.59703 0.11464 0.71907
 H131 H 0.49985 -0.00417 0.86053
 H132 H 0.55517 0.00162 0.63177
 O133 O 0.39030 0.65892 0.96734
 O134 O 0.38886 0.73546 0.95774
 C135 C 0.36925 0.75991 0.95591
 O136 O 0.33847 0.75618 0.97696
 O137 O 0.25742 0.68061 0.97280
 C138 C 0.23480 0.63795 0.96652
 O139 O 0.24277 0.60856 0.98131
 O140 O 0.31626 0.60324 0.96560
 C141 C 0.35768 0.62212 0.95481
 O142 O 0.40312 0.67689 1.03413
 O143 O 0.40616 0.75529 1.02425
 C144 C 0.38276 0.76447 1.04521
 O145 O 0.33840 0.74451 1.04459
 O146 O 0.25502 0.67206 1.04031
 C147 C 0.24759 0.63604 1.05597
 O148 O 0.26699 0.61296 1.04779
 O149 O 0.34056 0.60684 1.03179
 C150 C 0.38059 0.63554 1.04389
 Cr151 Cr 0.39446 0.70542 0.99614
 Cr152 Cr 0.29854 0.71193 1.00849
 Cr153 Cr 0.29306 0.61052 1.00655
 O154 O 0.32856 0.67573 1.00367
 O155 O 0.59840 0.34881 0.96693
 O156 O 0.58882 0.26785 0.95509
 C157 C 0.60581 0.24188 0.94892
 O158 O 0.63957 0.24339 0.96595
 O159 O 0.72051 0.31445 0.95323
 C160 C 0.74654 0.35677 0.94735
 O161 O 0.74607 0.38795 0.96543
 O162 O 0.67319 0.39842 0.95633
 C163 C 0.62987 0.38206 0.95030
 O164 O 0.59998 0.33457 1.03420
 O165 O 0.58747 0.25236 1.02224
 C166 C 0.61398 0.24137 1.03876
 O167 O 0.65731 0.25841 1.03280
 O168 O 0.74076 0.32660 1.01967
 C169 C 0.75292 0.36244 1.03717
 O170 O 0.73438 0.38759 1.03331
 O171 O 0.66338 0.40159 1.02378
 C172 C 0.62641 0.37685 1.04048
 Cr173 Cr 0.59618 0.30187 0.99463
 Cr174 Cr 0.68850 0.28719 0.99302
 Cr175 Cr 0.70273 0.39145 0.99474
 O176 O 0.66240 0.32689 0.99414
 O177 O 0.64166 0.39838 0.53555
 O178 O 0.72196 0.40099 0.54422
 C179 C 0.74680 0.38201 0.54911
 O180 O 0.74257 0.34857 0.53112
 O181 O 0.66775 0.26943 0.54147
 C182 C 0.62494 0.24677 0.54942
 O183 O 0.59330 0.25186 0.53450
 O184 O 0.59068 0.32610 0.54776
 C185 C 0.60920 0.36850 0.55371
 O186 O 0.65225 0.39789 0.46775
 O187 O 0.73523 0.40585 0.47707
 C188 C 0.74463 0.38005 0.45917
 O189 O 0.72471 0.33710 0.46342
 O190 O 0.65124 0.25681 0.47391
 C191 C 0.61212 0.24705 0.46013
 O192 O 0.58870 0.26641 0.46803
 O193 O 0.58220 0.33970 0.48108
 C194 C 0.60820 0.37512 0.46361
 Cr195 Cr 0.68666 0.39827 0.50606
 Cr196 Cr 0.69514 0.30410 0.50252
 Cr197 Cr 0.59130 0.29746 0.50766
 O198 O 0.65769 0.33311 0.50524
 O199 O 0.33808 0.61316 0.53762
 O200 O 0.25689 0.60963 0.53239
 C201 C 0.25129 0.63980 0.54766
 O202 O 0.27283 0.68170 0.53970
 O203 O 0.34775 0.75661 0.52205
 C204 C 0.38659 0.76504 0.53543
 O205 O 0.40773 0.74321 0.52768
 O206 O 0.40749 0.66589 0.51835
 C207 C 0.38242 0.63470 0.53924
 O208 O 0.33868 0.60161 0.47010
 O209 O 0.25965 0.60304 0.46465
 C210 C 0.23689 0.62423 0.45984
 O211 O 0.24718 0.66178 0.47452
 O212 O 0.32328 0.73593 0.45677
 C213 C 0.36557 0.75697 0.44763
 O214 O 0.39688 0.74966 0.46054
 O215 O 0.39265 0.66995 0.45146
 C216 C 0.37059 0.62652 0.44939
 Cr217 Cr 0.29968 0.60937 0.50099
 Cr218 Cr 0.29912 0.70766 0.49814
 Cr219 Cr 0.39858 0.70592 0.48968
 O220 O 0.33237 0.67437 0.49613
 C221 C 0.48743 0.60299 0.33560
 C222 C 0.46364 0.55491 0.33551
 C223 C 0.42444 0.53111 0.35617
 C224 C 0.40960 0.55497 0.37735
 C225 C 0.43432 0.60341 0.37808
 C226 C 0.47284 0.62710 0.35667
 C227 C 0.42084 0.62711 0.40082
 C228 C 0.38303 0.60285 0.42293
 C229 C 0.35801 0.55467 0.42095
 C230 C 0.37113 0.53106 0.39849
 H231 H 0.40625 0.49398 0.35628
 H232 H 0.49227 0.66418 0.35675
 H233 H 0.44046 0.66418 0.40190
 H234 H 0.35165 0.49397 0.39812
 H235 H 0.51803 0.62178 0.32000
 H236 H 0.32857 0.53486 0.43735
 C237 C 0.49165 0.89463 0.33954
 C238 C 0.47363 0.92490 0.34206
 C239 C 0.43664 0.91458 0.36436
 C240 C 0.41678 0.87380 0.38299
 C241 C 0.43589 0.84417 0.38089
 C242 C 0.47326 0.85485 0.35906
 C243 C 0.41783 0.80481 0.40113
 C244 C 0.38009 0.79409 0.42271
 C245 C 0.35972 0.82241 0.42325
 C246 C 0.37823 0.86223 0.40380
 H247 H 0.42235 0.93758 0.36631
 H248 H 0.48829 0.83251 0.35711
 H249 H 0.43355 0.78294 0.40055
 H250 H 0.36286 0.88432 0.40545
 H251 H 0.52078 0.90240 0.32300
 H252 H 0.33090 0.81494 0.44002
 C253 C 0.10602 0.50631 0.34257
 C254 C 0.07191 0.51994 0.34615
 C255 C 0.07722 0.55034 0.37253
 C256 C 0.11647 0.56815 0.39400
 C257 C 0.15066 0.55455 0.39001
 C258 C 0.14499 0.52346 0.36426
 C259 C 0.18988 0.57238 0.41178
 C260 C 0.19564 0.60437 0.43698
 C261 C 0.16144 0.61777 0.44044
 C262 C 0.12214 0.59965 0.41931
 H263 H 0.05142 0.56134 0.37568
 H264 H 0.17059 0.51230 0.36095
 H265 H 0.21613 0.56197 0.40879
 H266 H 0.09626 0.61046 0.42268
 H267 H 0.10193 0.48141 0.32348
 H268 H 0.16482 0.64207 0.45981
 C269 C 0.59020 0.47494 0.33591
 C270 C 0.54386 0.46544 0.34118
 C271 C 0.52018 0.43984 0.36998
 C272 C 0.54166 0.42316 0.39249
 C273 C 0.58830 0.43337 0.38711
 C274 C 0.61219 0.45920 0.35866
 C275 C 0.61021 0.41781 0.41039
 C276 C 0.58553 0.39114 0.43848
 C277 C 0.53876 0.38031 0.44295
 C278 C 0.51718 0.39647 0.42037
 H279 H 0.48443 0.43196 0.37448
 H280 H 0.64805 0.46758 0.35416
 H281 H 0.64618 0.42607 0.40651
 H282 H 0.48131 0.38813 0.42478
 H283 H 0.61013 0.49608 0.31484
 H284 H 0.51903 0.36004 0.46440
 C285 C 0.60371 0.12155 0.34194
 C286 C 0.55575 0.08938 0.34448
 C287 C 0.52916 0.09585 0.36938
 C288 C 0.54962 0.13409 0.39083
 C289 C 0.59804 0.16557 0.38868
 C290 C 0.62472 0.15907 0.36402
 C291 C 0.61879 0.20273 0.41138
 C292 C 0.59121 0.20951 0.43520
 C293 C 0.54288 0.17892 0.43619
 C294 C 0.52234 0.14124 0.41449
 H295 H 0.49211 0.07156 0.37150
 H296 H 0.66185 0.18282 0.36194
 H297 H 0.65607 0.22649 0.41037
 H298 H 0.48513 0.11762 0.41628
 H299 H 0.62535 0.11672 0.32368
 H300 H 0.52113 0.18346 0.45453
 C301 C 0.87096 0.39261 0.33857
 C302 C 0.90380 0.43952 0.34206
 C303 C 0.89679 0.46490 0.36747
 C304 C 0.85792 0.44422 0.38875
 C305 C 0.82572 0.39698 0.38548
 C306 C 0.83235 0.37158 0.36007
 C307 C 0.78809 0.37593 0.40810
 C308 C 0.78203 0.40184 0.43360
 C309 C 0.81358 0.44914 0.43568
 C310 C 0.85123 0.47004 0.41363
 H311 H 0.92161 0.50109 0.37050
 H312 H 0.80819 0.33528 0.35721
 H313 H 0.76389 0.33950 0.40605
 H314 H 0.87548 0.50636 0.41634
 H315 H 0.87624 0.37168 0.32019
 H316 H 0.80996 0.46998 0.45506
 C317 C 0.50556 0.39438 1.15386
 C318 C 0.53063 0.44228 1.15647
 C319 C 0.57132 0.46710 1.13742
 C320 C 0.58633 0.44444 1.11517
 C321 C 0.56029 0.39624 1.11185
 C322 C 0.52035 0.37146 1.13178
 C323 C 0.57396 0.37392 1.08805
 C324 C 0.61334 0.39925 1.06749
 C325 C 0.63957 0.44705 1.07195
 C326 C 0.62620 0.46936 1.09546
 H327 H 0.59038 0.50416 1.13921
 H328 H 0.49994 0.33453 1.12968
 H329 H 0.55345 0.33708 1.08511
 H330 H 0.64664 0.50629 1.09778
 H331 H 0.47379 0.37491 1.16817
 H332 H 0.67012 0.46759 1.05670
 C333 C 0.87914 0.45844 1.16245
 C334 C 0.91135 0.44264 1.15761
 C335 C 0.90516 0.41435 1.12954
 C336 C 0.86716 0.40114 1.10728
 C337 C 0.83523 0.41738 1.11227
 C338 C 0.84151 0.44595 1.14000
 C339 C 0.79784 0.40496 1.08930
 C340 C 0.79159 0.37569 1.06190
 C341 C 0.82317 0.35913 1.05771
 C342 C 0.86074 0.37196 1.08003
 H343 H 0.92948 0.40172 1.12543
 H344 H 0.81760 0.45900 1.14415
 H345 H 0.77352 0.41767 1.09289
 H346 H 0.88483 0.35910 1.07592
 H347 H 0.88401 0.48184 1.18296
 H348 H 0.81932 0.33675 1.03672
 C349 C 0.60423 0.12405 1.16347
 C350 C 0.55652 0.09125 1.16002
 C351 C 0.52998 0.09676 1.13407
 C352 C 0.55046 0.13374 1.11178
 C353 C 0.59867 0.16570 1.11472
 C354 C 0.62513 0.16088 1.14095
 C355 C 0.61955 0.20133 1.09103
 C356 C 0.59246 0.20563 1.06490
 C357 C 0.54423 0.17446 1.06309
 C358 C 0.52347 0.13870 1.08618
 H359 H 0.49302 0.07216 1.13134
 H360 H 0.66215 0.18505 1.14363
 H361 H 0.65669 0.22549 1.09282
 H362 H 0.48640 0.11457 1.08376
 H363 H 0.62587 0.12002 1.18259
 H364 H 0.52263 0.17698 1.04317
 C365 C 0.40181 0.49802 1.13808
 C366 C 0.44594 0.52882 1.15163
 C367 C 0.46761 0.57510 1.14225
 C368 C 0.44561 0.59040 1.11894
 C369 C 0.40130 0.55905 1.10512
 C370 C 0.37949 0.51303 1.11517
 C371 C 0.37993 0.57402 1.08103
 C372 C 0.40236 0.61994 1.07024
 C373 C 0.44620 0.65086 1.08454
 C374 C 0.46754 0.63627 1.10865
 H375 H 0.50196 0.59875 1.15245
 H376 H 0.34557 0.48850 1.10484
 H377 H 0.34614 0.54970 1.07037
 H378 H 0.50145 0.66079 1.11897
 H379 H 0.38498 0.46215 1.14494
 H380 H 0.46431 0.68646 1.07693
 C381 C 0.10226 0.49228 1.15311
 C382 C 0.08091 0.51787 1.16256
 C383 C 0.09961 0.56330 1.15163
 C384 C 0.13869 0.58275 1.13038
 C385 C 0.15951 0.55649 1.12024
 C386 C 0.14150 0.51153 1.13222
 C387 C 0.19677 0.57499 1.09730
 C388 C 0.21299 0.61912 1.08378
 C389 C 0.19294 0.64538 1.09498
 C390 C 0.15630 0.62745 1.11815
 H391 H 0.08277 0.58285 1.15885
 H392 H 0.15699 0.49090 1.12473
 H393 H 0.21172 0.55422 1.08891
 H394 H 0.14088 0.64810 1.12577
 H395 H 0.08789 0.45711 1.16134
 H396 H 0.20480 0.67949 1.08517
 C397 C 0.41372 0.90147 1.16100
 C398 C 0.46274 0.92566 1.15959
 C399 C 0.48603 0.91181 1.13701
 C400 C 0.46056 0.87428 1.11552
 C401 C 0.41109 0.85030 1.11658
 C402 C 0.38801 0.86389 1.13969
 C403 C 0.38563 0.81381 1.09406
 C404 C 0.40904 0.80112 1.07041
 C405 C 0.45830 0.82472 1.07024
 C406 C 0.48378 0.86092 1.09254
 H407 H 0.52392 0.93082 1.13588
 H408 H 0.35016 0.84597 1.14089
 H409 H 0.34772 0.79588 1.09460
 H410 H 0.52165 0.87884 1.09151
 H411 H 0.39544 0.91226 1.17819
 H412 H 0.47738 0.81566 1.05246
 C413 C 0.59091 0.50740 0.64587
 C414 C 0.54977 0.47588 0.66218
 C415 C 0.53071 0.42891 0.65596
 C416 C 0.55185 0.41352 0.63257
 C417 C 0.59267 0.44556 0.61551
 C418 C 0.61245 0.49235 0.62285
 C419 C 0.61208 0.43051 0.59054
 C420 C 0.59102 0.38382 0.58205
 C421 C 0.55133 0.35210 0.59997
 C422 C 0.53195 0.36682 0.62502
 H423 H 0.49851 0.40473 0.66826
 H424 H 0.64372 0.51736 0.61004
 H425 H 0.64287 0.45533 0.57714
 H426 H 0.50079 0.34179 0.63793
 H427 H 0.60554 0.54379 0.65030
 H428 H 0.53453 0.31589 0.59412
 C429 C 0.63299 0.10100 0.64236
 C430 C 0.58875 0.08456 0.65685
 C431 C 0.56216 0.10578 0.64904
 C432 C 0.57890 0.14230 0.62602
 C433 C 0.62332 0.15852 0.61115
 C434 C 0.65043 0.13808 0.61995
 C435 C 0.63909 0.19377 0.58693
 C436 C 0.61046 0.21216 0.57679
 C437 C 0.56669 0.19609 0.59222
 C438 C 0.55121 0.16176 0.61673
 H439 H 0.52762 0.09249 0.65982
 H440 H 0.68446 0.14988 0.60876
 H441 H 0.67282 0.20569 0.57516
 H442 H 0.51712 0.14977 0.62790
 H443 H 0.65354 0.08446 0.64790
 H444 H 0.54413 0.20993 0.58516
 C445 C 0.91483 0.40277 0.63605
 C446 C 0.92188 0.44120 0.65477
 C447 C 0.89141 0.45896 0.65003
 C448 C 0.85455 0.43888 0.62627
 C449 C 0.84803 0.40049 0.60717
 C450 C 0.87804 0.38237 0.61258
 C451 C 0.81231 0.38150 0.58248
 C452 C 0.78307 0.40053 0.57635
 C453 C 0.78946 0.43824 0.59598
 C454 C 0.82478 0.45717 0.62068
 H455 H 0.89729 0.48907 0.66414
 H456 H 0.87363 0.35301 0.59819
 H457 H 0.80786 0.35240 0.56770
 H458 H 0.82918 0.48651 0.63510
 H459 H 0.93843 0.38907 0.63925
 H460 H 0.76746 0.45358 0.59201
 C461 C 0.40336 0.52775 0.66029
 C462 C 0.45240 0.54922 0.66012
 C463 C 0.47767 0.58492 0.63735
 C464 C 0.45418 0.59850 0.61428
 C465 C 0.40472 0.57626 0.61406
 C466 C 0.37964 0.54136 0.63753
 C467 C 0.38124 0.58858 0.58988
 C468 C 0.40664 0.62269 0.56581
 C469 C 0.45587 0.64514 0.56686
 C470 C 0.47939 0.63318 0.59086
 H471 H 0.51555 0.60123 0.63711
 H472 H 0.34174 0.52390 0.63775
 H473 H 0.34332 0.57115 0.58951
 H474 H 0.51729 0.65062 0.59078
 H475 H 0.38348 0.49968 0.67747
 H476 H 0.47643 0.67175 0.54882
 C477 C 0.51872 0.88619 0.65176
 C478 C 0.50183 0.91732 0.65294
 C479 C 0.46526 0.91142 0.63121
 C480 C 0.44583 0.87501 0.60809
 C481 C 0.46322 0.84392 0.60648
 C482 C 0.49948 0.84962 0.62868
 C483 C 0.44418 0.80801 0.58259
 C484 C 0.40772 0.80273 0.56062
 C485 C 0.39071 0.83384 0.56290
 C486 C 0.40962 0.86962 0.58628
 H487 H 0.45246 0.93570 0.63208
 H488 H 0.51327 0.82617 0.62793
 H489 H 0.45746 0.78416 0.58127
 H490 H 0.39596 0.89319 0.58722
 H491 H 0.54724 0.89071 0.66829
 H492 H 0.36283 0.83083 0.54630
 C493 C 0.12607 0.52008 0.66442
 C494 C 0.09115 0.53260 0.66066
 C495 C 0.09703 0.56591 0.63655
 C496 C 0.13731 0.58684 0.61670
 C497 C 0.17123 0.57257 0.61950
 C498 C 0.16550 0.53948 0.64368
 C499 C 0.20963 0.59097 0.59754
 C500 C 0.21524 0.62466 0.57388
 C501 C 0.18287 0.64054 0.57279
 C502 C 0.14387 0.62139 0.59373
 H503 H 0.07047 0.57606 0.63369
 H504 H 0.19125 0.52831 0.64633
 H505 H 0.23473 0.57880 0.59848
 H506 H 0.11845 0.63305 0.59156
 H507 H 0.12188 0.49394 0.68248
 H508 H 0.18650 0.66619 0.55446
 C509 C 0.48306 0.59766 0.85080
 C510 C 0.45304 0.55103 0.84435
 C511 C 0.40849 0.52862 0.85875
 C512 C 0.39433 0.55251 0.88040
 C513 C 0.42532 0.59921 0.88775
 C514 C 0.46930 0.62168 0.87237
 C515 C 0.41243 0.62229 0.91112
 C516 C 0.36898 0.59933 0.92739
 C517 C 0.33766 0.55345 0.91883
 C518 C 0.35027 0.53021 0.89558
 H519 H 0.38550 0.49252 0.85367
 H520 H 0.49339 0.65748 0.87761
 H521 H 0.43673 0.65778 0.91725
 H522 H 0.32601 0.49454 0.89007
 H523 H 0.51760 0.61507 0.83975
 H524 H 0.30392 0.53499 0.93093
 C525 C 0.11573 0.52609 0.84326
 C526 C 0.08209 0.54058 0.84434
 C527 C 0.08642 0.57220 0.86955
 C528 C 0.12364 0.58929 0.89295
 C529 C 0.15631 0.57338 0.89220
 C530 C 0.15226 0.54208 0.86709
 C531 C 0.19229 0.58894 0.91667
 C532 C 0.19693 0.62145 0.94102
 C533 C 0.16536 0.63831 0.94079
 C534 C 0.12860 0.62191 0.91722
 H535 H 0.06113 0.58412 0.87059
 H536 H 0.17703 0.52957 0.86611
 H537 H 0.21710 0.57639 0.91650
 H538 H 0.10407 0.63473 0.91797
 H539 H 0.11255 0.50069 0.82493
 H540 H 0.16860 0.66347 0.95936
 C541 C 0.48248 0.87965 0.83382
 C542 C 0.46803 0.91284 0.83612
 C543 C 0.43496 0.90700 0.86099
 C544 C 0.41688 0.86928 0.88295
 C545 C 0.43233 0.83680 0.88073
 C546 C 0.46477 0.84207 0.85580
 C547 C 0.41593 0.80032 0.90399
 C548 C 0.38404 0.79587 0.92939
 C549 C 0.36791 0.82777 0.93046
 C550 C 0.38421 0.86408 0.90758
 H551 H 0.42296 0.93181 0.86313
 H552 H 0.47731 0.81771 0.85380
 H553 H 0.42859 0.77598 0.90267
 H554 H 0.37179 0.88854 0.90952
 H555 H 0.50931 0.88387 0.81611
 H556 H 0.34338 0.82538 0.94959
 C557 C 0.49031 0.41127 0.86180
 C558 C 0.52324 0.45154 0.84581
 C559 C 0.57114 0.46881 0.85211
 C560 C 0.58609 0.44635 0.87493
 C561 C 0.55263 0.40612 0.89138
 C562 C 0.50489 0.38851 0.88429
 C563 C 0.56730 0.38479 0.91531
 C564 C 0.61504 0.40323 0.92341
 C565 C 0.64812 0.44266 0.90633
 C566 C 0.63376 0.46401 0.88228
 H567 H 0.59644 0.50030 0.84001
 H568 H 0.47881 0.35773 0.89668
 H569 H 0.54135 0.35428 0.92808
 H570 H 0.65987 0.49473 0.86985
 H571 H 0.45325 0.39798 0.85726
 H572 H 0.68513 0.45750 0.91194
 C573 C 0.90040 0.49282 0.85200
 C574 C 0.91269 0.46182 0.83804
 C575 C 0.88664 0.41512 0.84600
 C576 C 0.84957 0.39973 0.86899
 C577 C 0.83838 0.43147 0.88379
 C578 C 0.86327 0.47773 0.87453
 C579 C 0.80369 0.41683 0.90855
 C580 C 0.78010 0.37088 0.91908
 C581 C 0.79024 0.33922 0.90332
 C582 C 0.82471 0.35354 0.87849
 H583 H 0.89668 0.39137 0.83554
 H584 H 0.85507 0.50247 0.88559
 H585 H 0.79589 0.44155 0.92018
 H586 H 0.83268 0.32871 0.86732
 H587 H 0.92065 0.52899 0.84625
 H588 H 0.77242 0.30358 0.91082
 C589 C 0.60067 0.09965 0.84745
 C590 C 0.55311 0.07927 0.83868
 C591 C 0.52563 0.09700 0.85186
 C592 C 0.54561 0.13473 0.87411
 C593 C 0.59334 0.15425 0.88344
 C594 C 0.62068 0.13686 0.86966
 C595 C 0.61280 0.19013 0.90703
 C596 C 0.58547 0.20720 0.92157
 C597 C 0.53856 0.18893 0.91120
 C598 C 0.51871 0.15281 0.88776
 H599 H 0.48883 0.08108 0.84511
 H600 H 0.65733 0.15156 0.87650
 H601 H 0.64922 0.20434 0.91450
 H602 H 0.48215 0.13850 0.88076
 H603 H 0.62206 0.08605 0.83757
 H604 H 0.51684 0.20152 0.92206
   
