data_POSCAR
  _audit_creation_date              2014-09-24
  _audit_creation_method            'ToBaCCo'
  _symmetry_space_group_name_H-M    'P1'
  _symmetry_Int_Tables_number       1
  _symmetry_cell_setting            triclinic
  loop_
  _symmetry_equiv_pos_as_xyz
 x,y,z
_cell_length_a 30.2615
_cell_length_b 16.8275
_cell_length_c 11.1697
_cell_angle_alpha 89.257200
_cell_angle_beta 90.085000
_cell_angle_gamma 90.152000
loop_
  _atom_site_label
  _atom_site_type_symbol
  _atom_site_fract_x
  _atom_site_fract_y
  _atom_site_fract_z
O1 O 0.71666 0.30225 0.61076
 O2 O 0.80147 0.22567 0.40008
 O3 O 0.73767 0.33210 0.38590
 O4 O 0.79560 0.23467 0.63072
 O5 O 0.76005 0.12174 0.60341
 O6 O 0.69541 0.22614 0.36575
 O7 O 0.75915 0.12095 0.36927
 O8 O 0.68054 0.18927 0.58939
 Cu9 Cu 0.76648 0.28410 0.50976
 Cu10 Cu 0.71992 0.15451 0.47998
 C11 C 0.68338 0.25749 0.63407
 C12 C 0.79439 0.15893 0.34933
 C13 C 0.70565 0.29759 0.33629
 C14 C 0.79029 0.16182 0.65560
 O15 O 0.28267 0.67045 0.59197
 O16 O 0.20234 0.74479 0.36456
 O17 O 0.26323 0.64642 0.35890
 O18 O 0.19218 0.71305 0.58863
 O19 O 0.22176 0.83277 0.58860
 O20 O 0.30210 0.75771 0.36528
 O21 O 0.24044 0.85677 0.35465
 O22 O 0.31227 0.79010 0.58841
 Cu23 Cu 0.23347 0.68385 0.48341
 Cu24 Cu 0.27103 0.82024 0.48096
 C25 C 0.31329 0.71882 0.62380
 C26 C 0.20921 0.81388 0.31826
 C27 C 0.29485 0.68844 0.32190
 C28 C 0.19119 0.78414 0.62138
 O29 O 0.26113 0.37714 -0.59581
 O30 O 0.19429 0.27839 -0.35928
 O31 O 0.26101 0.37167 -0.36001
 O32 O 0.17970 0.30990 -0.58059
 O33 O 0.21541 0.19746 -0.60652
 O34 O 0.29924 0.26136 -0.38527
 O35 O 0.23305 0.16842 -0.37790
 O36 O 0.29828 0.26527 -0.61185
 Cu37 Cu 0.22090 0.34466 -0.47450
 Cu38 Cu 0.26429 0.21174 -0.50235
 C39 C 0.29329 0.33800 -0.63934
 C40 C 0.20242 0.20674 -0.32836
 C41 C 0.29383 0.32823 -0.33465
 C42 C 0.18189 0.24191 -0.62651
 O43 O -0.30441 0.75558 -0.38969
 O44 O -0.23487 0.85141 -0.62135
 O45 O -0.30381 0.75723 -0.62138
 O46 O -0.23777 0.85533 -0.38875
 O47 O -0.19314 0.75171 -0.38598
 O48 O -0.26034 0.65221 -0.61609
 O49 O -0.19127 0.74652 -0.61581
 O50 O -0.26006 0.65180 -0.38242
 Cu51 Cu -0.27469 0.81475 -0.50574
 Cu52 Cu -0.22178 0.69005 -0.49932
 C53 C -0.29462 0.68720 -0.34793
 C54 C -0.20041 0.81553 -0.65638
 C55 C -0.29413 0.68806 -0.65699
 C56 C -0.20324 0.82089 -0.35035
 O57 O -0.05693 0.84591 0.19864
 O58 O -0.10743 0.92447 0.09969
 C59 C -0.09704 0.86758 0.17415
 O60 O 0.06589 1.13401 0.22432
 O61 O 0.11405 1.06427 0.10756
 C62 C 0.10564 1.11383 0.19131
 O63 O -0.05804 1.12861 0.23390
 O64 O -0.10737 1.05915 0.11812
 C65 C -0.09774 1.10919 0.20274
 O66 O 0.06493 0.84009 0.18115
 O67 O 0.11329 0.92598 0.08755
 C68 C 0.10427 0.86391 0.15432
 Zr69 Zr 0.00415 0.89090 0.13573
 O70 O 0.00955 0.87566 0.32366
 O71 O 0.00264 0.76700 0.10615
 Zr72 Zr 0.00294 1.09000 0.16665
 O73 O 0.00713 1.06679 0.35329
 O74 O 0.00288 1.21342 0.20025
 O75 O -0.03612 0.98732 0.17540
 O76 O 0.04220 0.99013 0.17280
 O77 O 0.06923 0.87915 -0.22692
 O78 O 0.11563 0.95256 -0.10870
 C79 C 0.10846 0.90390 -0.19454
 O80 O -0.06306 1.14825 -0.19665
 O81 O -0.11045 1.06471 -0.09521
 C82 C -0.10236 1.12141 -0.17167
 O83 O 0.06036 1.16734 -0.18083
 O84 O 0.11134 1.08607 -0.08862
 C85 C 0.10050 1.14676 -0.15548
 O86 O -0.05589 0.87337 -0.23417
 O87 O -0.10662 0.93437 -0.11277
 C88 C -0.09600 0.88817 -0.20098
 Zr89 Zr 0.00482 0.91270 -0.16407
 O90 O 0.00845 0.92664 -0.35250
 O91 O 0.00424 0.78756 -0.18068
 Zr92 Zr 0.00026 1.11190 -0.13468
 O93 O 0.00518 1.12477 -0.32307
 O94 O -0.00713 1.23640 -0.11923
 Zr95 Zr -0.06338 0.99818 0.00199
 Zr96 Zr 0.06865 1.00506 0.00022
 O97 O 0.04075 1.01675 -0.17184
 O98 O -0.03703 1.01130 -0.17223
 O99 O 0.04417 0.88869 -0.01635
 O100 O -0.03712 1.11354 0.01844
 O101 O -0.03408 0.88566 -0.01590
 O102 O 0.04050 1.11882 0.01723
 H103 H 0.06271 0.98501 0.24170
 H104 H -0.05769 1.15911 0.02195
 H105 H 0.06040 1.02406 -0.24203
 H106 H -0.05324 0.83799 -0.02120
 H107 H -0.01228 1.23986 0.13228
 H108 H 0.01442 1.25432 -0.05850
 H109 H -0.01921 1.09389 -0.35896
 H110 H -0.01728 0.95873 -0.37833
 H111 H 0.02671 0.76606 -0.12462
 H112 H 0.00203 0.74103 0.18631
 H113 H -0.01379 0.90824 0.36056
 H114 H -0.02174 1.04541 0.38022
 O115 O 0.44019 0.36265 0.22832
 O116 O 0.39045 0.43263 0.11366
 C117 C 0.40013 0.38235 0.19837
 O118 O 0.56128 0.65229 0.19811
 O119 O 0.61154 0.57481 0.10061
 C120 C 0.60130 0.63184 0.17251
 O121 O 0.44083 0.64512 0.20735
 O122 O 0.39136 0.56790 0.10415
 C123 C 0.40129 0.62420 0.17914
 O124 O 0.56273 0.35365 0.21110
 O125 O 0.61221 0.43058 0.10458
 C126 C 0.60237 0.37304 0.17966
 Zr127 Zr 0.50206 0.40169 0.15865
 O128 O 0.50761 0.40552 0.34753
 O129 O 0.50007 0.27602 0.15826
 Zr130 Zr 0.50069 0.60161 0.14560
 O131 O 0.50544 0.59933 0.33494
 O132 O 0.49526 0.72702 0.14270
 O133 O 0.46173 0.50078 0.17656
 O134 O 0.54025 0.50346 0.17460
 O135 O 0.56765 0.35583 -0.19639
 O136 O 0.61443 0.43813 -0.09317
 C137 C 0.60699 0.38215 -0.16856
 O138 O 0.43423 0.62421 -0.22614
 O139 O 0.38790 0.55010 -0.10632
 C140 C 0.39507 0.59844 -0.19451
 O141 O 0.55914 0.64596 -0.21317
 O142 O 0.61031 0.57331 -0.10611
 C143 C 0.59941 0.62776 -0.18444
 O144 O 0.44293 0.35118 -0.20723
 O145 O 0.39247 0.42201 -0.09795
 C146 C 0.40286 0.37007 -0.17850
 Zr147 Zr 0.50351 0.39516 -0.14149
 O148 O 0.50788 0.38887 -0.33025
 O149 O 0.50252 0.26959 -0.12733
 Zr150 Zr 0.49873 0.59538 -0.15649
 O151 O 0.50429 0.58920 -0.34518
 O152 O 0.49033 0.71994 -0.17114
 Zr153 Zr 0.43505 0.49551 0.00269
 Zr154 Zr 0.56761 0.50271 0.00196
 O155 O 0.53957 0.49764 -0.17087
 O156 O 0.46175 0.49205 -0.17188
 O157 O 0.54255 0.38584 0.00982
 O158 O 0.46113 0.61142 -0.00613
 O159 O 0.46414 0.38218 0.00941
 O160 O 0.53892 0.61669 -0.00720
 H161 H 0.56064 0.50453 0.24408
 H162 H 0.44074 0.65730 -0.01188
 H163 H 0.55924 0.49788 -0.24172
 H164 H 0.44483 0.33457 0.01322
 H165 H 0.51701 0.74788 0.08418
 H166 H 0.51196 0.74468 -0.11661
 H167 H 0.47863 0.55870 -0.37496
 H168 H 0.48454 0.42355 -0.36406
 H169 H 0.52604 0.25384 -0.07016
 H170 H 0.49933 0.25848 0.24332
 H171 H 0.48245 0.43699 0.37737
 H172 H 0.47826 0.57412 0.36694
 C173 C 0.32456 0.37602 0.28665
 C174 C 0.36399 0.34230 0.26407
 H175 H 0.31835 0.43640 0.25622
 H176 H 0.37188 0.28481 0.30341
 C177 C -0.17153 0.85398 0.26389
 C178 C -0.13193 0.82320 0.23767
 H179 H -0.18003 0.91283 0.23076
 H180 H -0.12240 0.76611 0.27562
 C181 C 0.67631 0.64731 0.25810
 C182 C 0.63620 0.67667 0.23361
 H183 H 0.68565 0.58934 0.22560
 H184 H 0.62639 0.73270 0.27221
 C185 C 0.14583 1.21581 0.30584
 C186 C 0.14467 1.14469 0.25458
 H187 H 0.11722 1.25422 0.29809
 H188 H 0.17384 1.10737 0.25620
 C189 C 0.64578 0.28436 -0.29286
 C190 C 0.64642 0.35102 -0.22996
 H191 H 0.61595 0.24858 -0.29414
 H192 H 0.67673 0.38529 -0.22482
 C193 C 0.15232 0.80853 -0.30865
 C194 C 0.14817 0.87996 -0.26105
 H195 H 0.12567 0.76585 -0.29770
 H196 H 0.17560 0.92144 -0.26579
 C197 C 0.34976 0.69522 -0.30703
 C198 C 0.35549 0.62177 -0.26393
 H199 H 0.37517 0.73923 -0.28966
 H200 H 0.32948 0.57789 -0.27390
 C201 C -0.17819 1.12346 -0.26023
 C202 C -0.13926 1.15906 -0.23683
 H203 H -0.18480 1.06382 -0.22731
 H204 H -0.13206 1.21651 -0.27738
 C205 C 0.67524 0.64669 -0.26305
 C206 C 0.63388 0.67263 -0.24875
 H207 H 0.68561 0.59124 -0.22151
 H208 H 0.62323 0.72581 -0.29635
 C209 C 0.17432 1.16567 -0.24025
 C210 C 0.13499 1.19531 -0.21160
 H211 H 0.18320 1.10589 -0.21217
 H212 H 0.12519 1.25308 -0.24647
 C213 C 0.32646 0.35841 -0.24919
 C214 C 0.36754 0.33001 -0.24482
 H215 H 0.31786 0.41060 -0.19842
 H216 H 0.37669 0.28067 -0.30103
 C217 C -0.17323 0.86322 -0.26857
 C218 C -0.13022 0.84561 -0.26830
 H219 H -0.18549 0.91278 -0.21755
 H220 H -0.11848 0.79907 -0.32647
 C221 C 0.32466 0.65249 0.23537
 C222 C 0.36715 0.67072 0.23788
 H223 H 0.31321 0.60196 0.18458
 H224 H 0.37835 0.71846 0.29500
 C225 C -0.17429 1.12409 0.27483
 C226 C -0.13293 1.15094 0.26713
 H227 H -0.18307 1.06948 0.22997
 H228 H -0.12316 1.20273 0.31771
 C229 C 0.67818 0.34374 0.25154
 C230 C 0.63643 0.32225 0.23383
 H231 H 0.68991 0.40093 0.21890
 H232 H 0.62465 0.26719 0.27431
 C233 C 0.17958 0.84814 0.22791
 C234 C 0.13978 0.81749 0.20942
 H235 H 0.18800 0.90591 0.19016
 H236 H 0.13075 0.76168 0.25258
   
