data_POSCAR
  _audit_creation_date              2014-09-24
  _audit_creation_method            'ToBaCCo'
  _symmetry_space_group_name_H-M    'P1'
  _symmetry_Int_Tables_number       1
  _symmetry_cell_setting            triclinic
  loop_
  _symmetry_equiv_pos_as_xyz
 x,y,z
_cell_length_a 31.7274
_cell_length_b 32.5704
_cell_length_c 32.1237
_cell_angle_alpha 92.146200
_cell_angle_beta 91.191700
_cell_angle_gamma 90.027100
loop_
  _atom_site_label
  _atom_site_type_symbol
  _atom_site_fract_x
  _atom_site_fract_y
  _atom_site_fract_z
N1 N 0.12553 0.16603 0.25041
 N2 N 0.15392 0.13666 0.25156
 C3 C 0.14544 0.11233 0.28357
 C4 C 0.10976 0.12746 0.30349
 C5 C 0.09817 0.16147 0.28143
 H6 H 0.16391 0.08585 0.29180
 H7 H 0.07179 0.18162 0.28779
 Cu8 Cu 0.19921 0.13401 0.21071
 Cu9 Cu 0.12649 0.20863 0.20922
 Cu10 Cu 0.20679 0.20530 0.13743
 N11 N 0.24484 0.13252 0.17034
 N12 N 0.24756 0.16028 0.14176
 C13 C 0.28165 0.15218 0.11835
 C14 C 0.30148 0.11740 0.13307
 C15 C 0.27716 0.10587 0.16602
 H16 H 0.29128 0.17042 0.09277
 H17 H 0.28281 0.07990 0.18540
 N18 N 0.16252 0.24847 0.13812
 N19 N 0.13206 0.24933 0.16557
 C20 C 0.10716 0.28197 0.15883
 C21 C 0.12237 0.30285 0.12570
 C22 C 0.15760 0.28079 0.11316
 H23 H 0.07990 0.29040 0.17688
 H24 H 0.17819 0.28792 0.08802
 H25 H 0.15727 0.17496 0.16289
 H26 H 0.19094 0.20736 0.19926
 N27 N -0.14544 0.81087 0.26164
 N28 N -0.17421 0.83985 0.26368
 C29 C -0.16849 0.86169 0.29977
 C30 C -0.13428 0.84518 0.32103
 C31 C -0.12061 0.81310 0.29598
 H32 H -0.18714 0.88806 0.30921
 H33 H -0.09384 0.79348 0.30195
 Cu34 Cu -0.21498 0.84696 0.21807
 Cu35 Cu -0.14058 0.77321 0.21459
 Cu36 Cu -0.21368 0.78131 0.13439
 N37 N -0.25736 0.84948 0.17319
 N38 N -0.25608 0.82363 0.14080
 C39 C -0.28847 0.83105 0.11467
 C40 C -0.31148 0.86327 0.13126
 C41 C -0.29096 0.87450 0.16858
 H42 H -0.29509 0.81405 0.08569
 H43 H -0.29988 0.89858 0.19075
 N44 N -0.16832 0.74052 0.13387
 N45 N -0.14046 0.73767 0.16463
 C46 C -0.11501 0.70556 0.15669
 C47 C -0.12769 0.68728 0.11916
 C48 C -0.16135 0.71013 0.10536
 H49 H -0.09019 0.69545 0.17740
 H50 H -0.18021 0.70404 0.07739
 H51 H -0.16782 0.81073 0.17057
 H52 H -0.20408 0.77530 0.19743
 N53 N -0.15641 0.16843 -0.26173
 N54 N -0.18259 0.13804 -0.25583
 C55 C -0.17769 0.10935 -0.28677
 C56 C -0.14673 0.12285 -0.31289
 C57 C -0.13408 0.16041 -0.29602
 H58 H -0.19510 0.08082 -0.29010
 H59 H -0.11043 0.18060 -0.30770
 Cu60 Cu -0.21981 0.13972 -0.20787
 Cu61 Cu -0.15191 0.21620 -0.22512
 Cu62 Cu -0.21906 0.22313 -0.14195
 N63 N -0.25899 0.14531 -0.16169
 N64 N -0.25860 0.17794 -0.13626
 C65 C -0.28874 0.17403 -0.10771
 C66 C -0.30924 0.13699 -0.11547
 C67 C -0.28947 0.11951 -0.15009
 H68 H -0.29541 0.19655 -0.08311
 H69 H -0.29674 0.09044 -0.16592
 N70 N -0.17667 0.26543 -0.15338
 N71 N -0.15124 0.26252 -0.18529
 C72 C -0.12499 0.29496 -0.18417
 C73 C -0.13420 0.31952 -0.14997
 C74 C -0.16721 0.30006 -0.13098
 H75 H -0.10017 0.30001 -0.20596
 H76 H -0.18253 0.30969 -0.10253
 H77 H -0.17327 0.18929 -0.17151
 H78 H -0.21403 0.21419 -0.20517
 N79 N 0.13004 0.82342 -0.25103
 N80 N 0.15833 0.85277 -0.25326
 C81 C 0.14823 0.87645 -0.28551
 C82 C 0.11161 0.86120 -0.30463
 C83 C 0.10096 0.82758 -0.28184
 H84 H 0.16634 0.90267 -0.29450
 H85 H 0.07407 0.80757 -0.28745
 Cu86 Cu 0.20651 0.85645 -0.21462
 Cu87 Cu 0.13325 0.78207 -0.20808
 Cu88 Cu 0.21281 0.79525 -0.13301
 N89 N 0.25442 0.85952 -0.17555
 N90 N 0.25658 0.83497 -0.14404
 C91 C 0.29206 0.84295 -0.12164
 C92 C 0.31358 0.87440 -0.14004
 C93 C 0.28872 0.88414 -0.17422
 H94 H 0.30101 0.82708 -0.09387
 H95 H 0.29516 0.90752 -0.19628
 N96 N 0.17212 0.74964 -0.13292
 N97 N 0.14204 0.74415 -0.16161
 C98 C 0.12013 0.71003 -0.15316
 C99 C 0.13745 0.69325 -0.11752
 C100 C 0.17033 0.71916 -0.10573
 H101 H 0.09369 0.69825 -0.17169
 H102 H 0.19156 0.71581 -0.07930
 H103 H 0.16220 0.82103 -0.16580
 H104 H 0.19759 0.78537 -0.19548
 N105 N 0.18271 1.13948 0.74181
 N106 N 0.15342 1.16796 0.73959
 C107 C 0.12884 1.15936 0.70543
 C108 C 0.14388 1.12363 0.68563
 C109 C 0.17788 1.11212 0.70970
 H110 H 0.10205 1.17750 0.69588
 H111 H 0.19772 1.08558 0.70408
 Cu112 Cu 0.15086 1.21284 0.78263
 Cu113 Cu 0.22565 1.13912 0.78551
 Cu114 Cu 0.22524 1.21885 0.85913
 N115 N 0.15226 1.25886 0.82459
 N116 N 0.18199 1.26031 0.85379
 C117 C 0.17672 1.29373 0.87885
 C118 C 0.14183 1.31474 0.86528
 C119 C 0.12676 1.29186 0.83054
 H120 H 0.19664 1.30211 0.90556
 H121 H 0.09940 1.29858 0.81136
 N122 N 0.26671 1.17429 0.85993
 N123 N 0.26681 1.14368 0.83189
 C124 C 0.29894 1.11822 0.84070
 C125 C 0.31991 1.13374 0.87601
 C126 C 0.29872 1.16917 0.88737
 H127 H 0.30654 1.09064 0.82269
 H128 H 0.30630 1.18966 0.91372
 H129 H 0.19160 1.17098 0.83035
 H130 H 0.22569 1.20199 0.79647
 N131 N 0.84937 0.86543 0.75744
 N132 N 0.87774 0.83607 0.75730
 C133 C 0.90380 0.84100 0.72535
 C134 C 0.89090 0.87514 0.70447
 C135 C 0.85630 0.89004 0.72565
 H136 H 0.92950 0.82071 0.71702
 H137 H 0.83685 0.91604 0.71798
 Cu138 Cu 0.87592 0.79323 0.79733
 Cu139 Cu 0.80412 0.86829 0.79708
 Cu140 Cu 0.80057 0.79153 0.86920
 N141 N 0.87408 0.75042 0.83732
 N142 N 0.84466 0.74971 0.86552
 C143 C 0.85041 0.71640 0.88862
 C144 C 0.88528 0.69531 0.87379
 C145 C 0.89942 0.71770 0.84138
 H146 H 0.83042 0.70801 0.91378
 H147 H 0.92605 0.71029 0.82203
 N148 N 0.75920 0.83688 0.86714
 N149 N 0.76084 0.86590 0.83959
 C150 C 0.72814 0.89162 0.84512
 C151 C 0.70479 0.87832 0.87758
 C152 C 0.72526 0.84353 0.89105
 H153 H 0.72133 0.91795 0.82660
 H154 H 0.71585 0.82421 0.91586
 H155 H 0.83520 0.83750 0.84411
 H156 H 0.80111 0.80579 0.80738
 N157 N 0.15799 0.86690 1.25052
 N158 N 0.13394 0.83404 1.25130
 C159 C 0.11136 0.83657 1.28675
 C160 C 0.12268 0.87290 1.30865
 C161 C 0.15209 0.89087 1.28464
 H162 H 0.08890 0.81383 1.29602
 H163 H 0.16836 0.91951 1.29191
 Cu164 Cu 0.13652 0.79227 1.20482
 Cu165 Cu 0.19735 0.87714 1.20744
 Cu166 Cu 0.20620 0.80413 1.12782
 N167 N 0.14331 0.75014 1.15928
 N168 N 0.17017 0.75596 1.12936
 C169 C 0.16889 0.72372 1.10190
 C170 C 0.13985 0.69574 1.11482
 C171 C 0.12403 0.71345 1.15154
 H172 H 0.18791 0.72063 1.07441
 H173 H 0.10025 0.70076 1.17097
 N174 N 0.24002 0.85491 1.13160
 N175 N 0.23594 0.88312 1.16173
 C176 C 0.26575 0.91211 1.15827
 C177 C 0.29009 0.90145 1.12473
 C178 C 0.27276 0.86517 1.10816
 H179 H 0.27144 0.93760 1.18021
 H180 H 0.28438 0.84647 1.08240
 H181 H 0.16663 0.84301 1.16006
 H182 H 0.20768 0.81566 1.19126
 N183 N 0.83406 1.14764 1.25333
 N184 N 0.86255 1.17695 1.25619
 C185 C 0.88919 1.17020 1.28816
 C186 C 0.87669 1.13495 1.30663
 C187 C 0.84151 1.12116 1.28387
 H188 H 0.91570 1.18961 1.29742
 H189 H 0.82297 1.09399 1.28885
 Cu190 Cu 0.86286 1.22151 1.21875
 Cu191 Cu 0.79032 1.14634 1.20966
 Cu192 Cu 0.80140 1.21705 1.13255
 N193 N 0.87437 1.25488 1.17229
 N194 N 0.85015 1.25349 1.13860
 C195 C 0.86368 1.28175 1.11252
 C196 C 0.89817 1.30182 1.13117
 C197 C 0.90422 1.28377 1.16887
 H198 H 0.84873 1.28787 1.08286
 H199 H 0.92749 1.29224 1.19275
 N200 N 0.75440 1.17739 1.13277
 N201 N 0.75004 1.15073 1.16237
 C202 C 0.71460 1.12881 1.15460
 C203 C 0.69572 1.14236 1.11835
 C204 C 0.72185 1.17305 1.10533
 H205 H 0.70345 1.10489 1.17403
 H206 H 0.71713 1.19112 1.07806
 H207 H 0.83011 1.17330 1.16843
 H208 H 0.79076 1.20761 1.19472
 N209 N 0.55127 1.06217 0.95967
 N210 N 0.58227 1.08802 0.95219
 N211 N 0.46396 1.03014 0.92541
 N212 N 0.43345 1.03208 0.89699
 N213 N 0.46273 1.06211 0.95154
 N214 N 0.43124 1.08654 0.94178
 N215 N 0.55217 1.03045 0.93318
 N216 N 0.58369 1.03356 0.90744
 C217 C 0.60236 1.06937 0.91962
 C218 C 0.41339 1.06745 0.90767
 N219 N 0.46333 0.91621 0.96297
 N220 N 0.43144 0.89043 0.95835
 N221 N 0.55254 0.94314 0.94033
 N222 N 0.58619 0.93544 0.91792
 N223 N 0.55139 0.91877 0.97188
 N224 N 0.58391 0.89354 0.97168
 N225 N 0.46366 0.94178 0.93238
 N226 N 0.43179 0.93400 0.90597
 Mn227 Mn 0.50792 0.98633 0.93231
 C228 C 0.41216 0.90166 0.92272
 C229 C 0.60536 0.90439 0.93789
 N230 N 0.45453 1.07246 1.04040
 N231 N 0.42300 1.09904 1.04096
 N232 N 0.53916 1.04754 1.08111
 N233 N 0.56974 1.05363 1.10905
 N234 N 0.54344 1.07212 1.04993
 N235 N 0.57711 1.09570 1.05598
 N236 N 0.45084 1.04667 1.07061
 N237 N 0.41695 1.05515 1.09259
 Mn238 Mn 0.50322 1.06782 1.00040
 C239 C 0.39976 1.08787 1.07366
 C240 C 0.59296 1.08384 1.09319
 N241 N 0.54362 0.92917 1.06072
 N242 N 0.57614 0.90610 1.07056
 N243 N 0.45112 0.95808 1.07665
 N244 N 0.41433 0.95601 1.09509
 N245 N 0.45596 0.92631 1.05083
 N246 N 0.42303 0.90184 1.05093
 N247 N 0.53974 0.96001 1.08784
 N248 N 0.56979 0.95879 1.11692
 Mn249 Mn 0.50382 0.92229 1.01170
 Mn250 Mn 0.49494 1.00314 1.07960
 Cl251 Cl 0.50251 0.99503 1.00599
 C252 C 0.59215 0.92490 1.10571
 C253 C 0.39751 0.92049 1.07865
 N254 N -0.05220 0.45969 -0.07442
 N255 N -0.06289 0.43014 -0.10203
 N256 N -0.07559 0.54555 -0.03461
 N257 N -0.10130 0.57740 -0.03413
 N258 N -0.05058 0.54626 -0.06656
 N259 N -0.05825 0.57892 -0.08856
 N260 N -0.07811 0.46018 -0.04316
 N261 N -0.10690 0.43137 -0.04821
 C262 C -0.09713 0.41291 -0.08483
 C263 C -0.09001 0.59795 -0.06794
 N264 N -0.03370 0.53553 0.08045
 N265 N -0.03395 0.56666 0.10799
 N266 N -0.06757 0.45332 0.04371
 N267 N -0.09338 0.42186 0.04531
 N268 N -0.03516 0.44923 0.06923
 N269 N -0.03829 0.41470 0.08935
 N270 N -0.06510 0.53869 0.05360
 N271 N -0.08765 0.57166 0.06197
 Mn272 Mn -0.07183 0.49967 0.00502
 C273 C -0.06796 0.58866 0.09601
 C274 C -0.07492 0.39816 0.07386
 N275 N 0.03887 0.54580 -0.07550
 N276 N 0.04077 0.57703 -0.10025
 N277 N 0.07191 0.45904 -0.05792
 N278 N 0.09655 0.42774 -0.06839
 N279 N 0.03877 0.45975 -0.08320
 N280 N 0.04019 0.42938 -0.11155
 N281 N 0.07114 0.54610 -0.04914
 N282 N 0.09608 0.57783 -0.05564
 Mn283 Mn -0.00627 0.50264 -0.07544
 C284 C 0.07639 0.59682 -0.08767
 C285 C 0.07641 0.40966 -0.10205
 N286 N 0.05570 0.44973 0.06186
 N287 N 0.06377 0.41683 0.08338
 N288 N 0.08105 0.54053 0.04178
 N289 N 0.10321 0.57494 0.04808
 N290 N 0.05578 0.53551 0.07314
 N291 N 0.06010 0.56573 0.10127
 N292 N 0.08255 0.45298 0.03155
 N293 N 0.10952 0.42192 0.03161
 Mn294 Mn 0.01076 0.49218 0.07162
 Mn295 Mn 0.07750 0.49993 -0.00846
 Cl296 Cl 0.00279 0.49859 -0.00190
 C297 C 0.09738 0.39964 0.06420
 C298 C 0.08979 0.59003 0.08571
 N299 N 0.94647 -0.06525 0.55266
 N300 N 0.94237 -0.08586 0.58684
 N301 N 0.91270 -0.04675 0.46478
 N302 N 0.88390 -0.05346 0.43536
 N303 N 0.94043 -0.07658 0.46538
 N304 N 0.93116 -0.10468 0.43579
 N305 N 0.91866 -0.03552 0.55112
 N306 N 0.89466 -0.03514 0.58418
 C307 C 0.90994 -0.06668 0.60611
 C308 C 0.89563 -0.08957 0.41762
 N309 N 0.94712 0.06612 0.45027
 N310 N 0.94041 0.08730 0.41663
 N311 N 0.92203 0.05125 0.54145
 N312 N 0.89868 0.06018 0.57388
 N313 N 0.95173 0.07877 0.53752
 N314 N 0.94937 0.10742 0.56765
 N315 N 0.91657 0.03959 0.45484
 N316 N 0.88827 0.04184 0.42432
 Mn317 Mn 0.91718 0.00219 0.50313
 C318 C 0.90364 0.07170 0.40077
 C319 C 0.91598 0.09527 0.58989
 N320 N 1.03134 -0.08142 0.46283
 N321 N 1.03220 -0.11018 0.43277
 N322 N 1.06679 -0.04256 0.54680
 N323 N 1.09500 -0.04567 0.57731
 N324 N 1.03678 -0.07001 0.55002
 N325 N 1.04378 -0.09246 0.58293
 N326 N 1.06207 -0.05480 0.45913
 N327 N 1.08454 -0.06480 0.42608
 Mn328 Mn 0.98875 -0.07386 0.50767
 C329 C 1.06563 -0.09960 0.41014
 C330 C 1.08023 -0.07682 0.59968
 N331 N 1.04203 0.07545 0.53437
 N332 N 1.04729 0.10421 0.56395
 N333 N 1.06642 0.03335 0.45012
 N334 N 1.09317 0.03450 0.41920
 N335 N 1.03831 0.06278 0.44724
 N336 N 1.04542 0.08485 0.41430
 N337 N 1.07011 0.04608 0.53809
 N338 N 1.09532 0.05435 0.57078
 Mn339 Mn 0.99482 0.07125 0.49215
 Mn340 Mn 1.06699 -0.00451 0.49861
 Cl341 Cl 0.99214 -0.00124 0.50033
 C342 C 1.08065 0.09098 0.58633
 C343 C 1.07969 0.06663 0.39696
 C344 C 1.08900 0.11328 0.33848
 C345 C 1.10139 0.08034 0.35947
 H346 H 1.06165 0.13031 0.34905
 H347 H 1.12863 0.06284 0.34956
 C348 C 0.88663 -0.14033 0.36004
 C349 C 0.87289 -0.10750 0.38140
 H350 H 0.91488 -0.15604 0.37032
 H351 H 0.84489 -0.09153 0.37108
 C352 C 0.86914 0.10167 0.64938
 C353 C 0.90082 0.11683 0.62750
 H354 H 0.85438 0.07280 0.63958
 H355 H 0.91632 0.14527 0.63718
 C356 C 1.08862 -0.12365 0.65834
 C357 C 1.10225 -0.09171 0.63712
 H358 H 1.06002 -0.13956 0.64814
 H359 H 1.13092 -0.07584 0.64694
 C360 C 0.33816 1.09736 1.11921
 C361 C 0.36091 1.10947 1.08699
 H362 H 0.34845 1.07065 1.13579
 H363 H 0.35126 1.13589 1.06972
 C364 C 0.35158 0.89333 0.87298
 C365 C 0.37330 0.88159 0.90673
 H366 H 0.36330 0.91847 0.85530
 H367 H 0.36217 0.85646 0.92464
 C368 C 0.65229 0.87904 1.11257
 C369 C 0.63001 0.91070 1.12818
 H370 H 0.64204 0.86433 1.08323
 H371 H 0.63957 0.92660 1.15705
 C372 C 0.65704 1.12186 0.90714
 C373 C 0.63877 1.08554 0.89764
 H374 H 0.64535 1.14057 0.93301
 H375 H 0.65017 1.06639 0.87204
 C376 C 0.10356 0.34087 0.10966
 C377 C 0.11817 0.36140 0.07750
 H378 H 0.07602 0.35248 0.12566
 H379 H 0.14548 0.35031 0.06088
 C380 C -0.11085 0.35665 -0.13612
 C381 C -0.12123 0.37776 -0.10170
 H382 H -0.08405 0.36597 -0.15390
 H383 H -0.14793 0.36848 -0.08386
 C384 C 0.12474 0.65586 -0.09596
 C385 C 0.09068 0.63404 -0.10802
 H386 H 0.14359 0.64647 -0.06947
 H387 H 0.07153 0.64380 -0.13409
 C388 C -0.11210 0.64934 0.09936
 C389 C -0.08094 0.62736 0.11607
 H390 H -0.12757 0.63885 0.07049
 H391 H -0.06474 0.63754 0.14456
 C392 C 1.12853 0.10083 0.64755
 C393 C 1.09654 0.11386 0.62397
 H394 H 1.14431 0.07240 0.63877
 H395 H 1.08080 0.14235 0.63249
 C396 C 0.90897 -0.11039 0.66603
 C397 C 0.89278 -0.07884 0.64572
 H398 H 0.93577 -0.12706 0.65362
 H399 H 0.86604 -0.06190 0.65769
 C400 C 1.10923 -0.10839 0.34873
 C401 C 1.07812 -0.12227 0.37162
 H402 H 1.12555 -0.08050 0.35918
 H403 H 1.06084 -0.14968 0.36158
 C404 C 0.89760 0.11775 0.34313
 C405 C 0.88225 0.08609 0.36316
 H406 H 0.92630 0.13278 0.35452
 H407 H 0.85324 0.07116 0.35267
 C408 C 0.12609 0.35280 -0.11386
 C409 C 0.09096 0.37237 -0.12521
 H410 H 0.14436 0.36478 -0.08721
 H411 H 0.07207 0.36070 -0.15152
 C412 C -0.07907 0.33796 0.11726
 C413 C -0.09374 0.35948 0.08568
 H414 H -0.05147 0.34849 0.13502
 H415 H -0.12211 0.34982 0.06877
 C416 C -0.09592 0.65672 -0.11262
 C417 C -0.10983 0.63646 -0.08027
 H418 H -0.06945 0.64475 -0.13006
 H419 H -0.13590 0.64825 -0.06221
 C420 C 0.12919 0.65618 0.09246
 C421 C 0.10235 0.62914 0.10745
 H422 H 0.14386 0.64937 0.06284
 H423 H 0.08782 0.63599 0.13710
 C424 C 0.35708 1.11739 0.89774
 C425 C 0.37632 1.08277 0.88515
 H426 H 0.36886 1.13464 0.92506
 H427 H 0.36486 1.06511 0.85805
 C428 C 0.32977 0.92150 1.11420
 C429 C 0.35629 0.90350 1.08771
 H430 H 0.33821 0.95034 1.13015
 H431 H 0.34829 0.87440 1.07222
 C432 C 0.65625 1.12796 1.09745
 C433 C 0.63180 1.09954 1.11377
 H434 H 0.64728 1.14105 1.06804
 H435 H 0.64048 1.08654 1.14322
 C436 C 0.66571 0.89763 0.89226
 C437 C 0.64459 0.88447 0.92469
 H438 H 0.65403 0.92373 0.87554
 H439 H 0.65607 0.85877 0.94205
   
