data_POSCAR
  _audit_creation_date              2014-09-24
  _audit_creation_method            'ToBaCCo'
  _symmetry_space_group_name_H-M    'P1'
  _symmetry_Int_Tables_number       1
  _symmetry_cell_setting            triclinic
  loop_
  _symmetry_equiv_pos_as_xyz
 x,y,z
_cell_length_a 58.8256
_cell_length_b 58.4639
_cell_length_c 59.3240
_cell_angle_alpha 92.003900
_cell_angle_beta 92.360100
_cell_angle_gamma 92.743800
loop_
  _atom_site_label
  _atom_site_type_symbol
  _atom_site_fract_x
  _atom_site_fract_y
  _atom_site_fract_z
N1 N 0.17269 0.22904 0.23325
 N2 N 0.17935 0.21095 0.24380
 C3 C 0.16590 0.20723 0.26127
 C4 C 0.15002 0.22385 0.26160
 C5 C 0.15478 0.23742 0.24362
 H6 H 0.16741 0.19344 0.27284
 H7 H 0.14581 0.25221 0.23845
 Cu8 Cu 0.20473 0.19390 0.23353
 Cu9 Cu 0.18755 0.24025 0.20679
 Cu10 Cu 0.23335 0.21043 0.18853
 N11 N 0.23075 0.17772 0.22341
 N12 N 0.24181 0.18420 0.20572
 C13 C 0.25886 0.17010 0.20230
 C14 C 0.25842 0.15397 0.21875
 C15 C 0.24042 0.15928 0.23188
 H16 H 0.27070 0.17144 0.18889
 H17 H 0.23483 0.15031 0.24646
 N18 N 0.22221 0.23741 0.17341
 N19 N 0.20483 0.24885 0.18035
 C20 C 0.20145 0.26629 0.16652
 C21 C 0.21746 0.26571 0.15017
 C22 C 0.23033 0.24724 0.15500
 H23 H 0.18830 0.27848 0.16812
 H24 H 0.24452 0.24143 0.14571
 H25 H 0.19930 0.20915 0.19605
 H26 H 0.21905 0.22786 0.21495
 N27 N 0.67570 0.72492 0.73159
 N28 N 0.68232 0.70676 0.74202
 C29 C 0.66848 0.70262 0.75912
 C30 C 0.65239 0.71908 0.75929
 C31 C 0.65744 0.73294 0.74162
 H32 H 0.66994 0.68875 0.77060
 H33 H 0.64850 0.74777 0.73650
 Cu34 Cu 0.70839 0.69037 0.73222
 Cu35 Cu 0.69114 0.73695 0.70585
 Cu36 Cu 0.73838 0.70888 0.68871
 N37 N 0.73534 0.67528 0.72273
 N38 N 0.74701 0.68260 0.70574
 C39 C 0.76464 0.66911 0.70273
 C40 C 0.76394 0.65249 0.71869
 C41 C 0.74518 0.65689 0.73112
 H42 H 0.77700 0.67116 0.68985
 H43 H 0.73918 0.64731 0.74515
 N44 N 0.72697 0.73578 0.67362
 N45 N 0.70900 0.74652 0.68017
 C46 C 0.70542 0.76400 0.66647
 C47 C 0.72191 0.76421 0.65059
 C48 C 0.73528 0.74614 0.65557
 H49 H 0.69176 0.77565 0.66777
 H50 H 0.74989 0.74089 0.64657
 H51 H 0.70405 0.70640 0.69496
 H52 H 0.72267 0.72512 0.71496
 N53 N 0.31572 0.74664 0.74772
 N54 N 0.31027 0.76475 0.75974
 C55 C 0.32462 0.76745 0.77808
 C56 C 0.33981 0.75012 0.77739
 C57 C 0.33365 0.73724 0.75795
 H58 H 0.32462 0.78140 0.79054
 H59 H 0.34212 0.72259 0.75135
 Cu60 Cu 0.28594 0.78390 0.74946
 Cu61 Cu 0.30053 0.73743 0.71882
 Cu62 Cu 0.25873 0.77215 0.69909
 N63 N 0.26266 0.80346 0.73757
 N64 N 0.25218 0.79865 0.71785
 C65 C 0.23696 0.81455 0.71360
 C66 C 0.23791 0.83022 0.73161
 C67 C 0.25444 0.82274 0.74656
 H68 H 0.22594 0.81468 0.69856
 H69 H 0.25994 0.83069 0.76273
 N70 N 0.26752 0.74460 0.68238
 N71 N 0.28323 0.73105 0.68991
 C72 C 0.28554 0.71400 0.67436
 C73 C 0.27062 0.71716 0.65625
 C74 C 0.25950 0.73665 0.66190
 H75 H 0.29758 0.70066 0.67577
 H76 H 0.24678 0.74463 0.65158
 H77 H 0.29224 0.77017 0.71103
 H78 H 0.27018 0.75213 0.72493
 N79 N 0.81657 0.24533 0.24773
 N80 N 0.81073 0.26320 0.25987
 C81 C 0.82477 0.26581 0.27845
 C82 C 0.84025 0.24874 0.27772
 C83 C 0.83447 0.23600 0.25808
 H84 H 0.82433 0.27956 0.29109
 H85 H 0.84315 0.22150 0.25142
 Cu86 Cu 0.78641 0.28228 0.24946
 Cu87 Cu 0.80193 0.23635 0.21855
 Cu88 Cu 0.76034 0.27107 0.19843
 N89 N 0.76330 0.30187 0.23729
 N90 N 0.75326 0.29727 0.21733
 C91 C 0.73811 0.31321 0.21293
 C92 C 0.73867 0.32866 0.23107
 C93 C 0.75485 0.32104 0.24626
 H94 H 0.72741 0.31354 0.19769
 H95 H 0.75998 0.32885 0.26259
 N96 N 0.76963 0.24380 0.18162
 N97 N 0.78517 0.23017 0.18935
 C98 C 0.78798 0.21339 0.17364
 C99 C 0.77361 0.21685 0.15519
 C100 C 0.76226 0.23620 0.16083
 H101 H 0.80011 0.20014 0.17513
 H102 H 0.74986 0.24436 0.15027
 H103 H 0.79363 0.26918 0.21106
 H104 H 0.77134 0.25077 0.22425
 N105 N 0.80579 0.73904 0.26462
 N106 N 0.80239 0.71775 0.25687
 C107 C 0.81776 0.71325 0.24136
 C108 C 0.83164 0.73270 0.23936
 C109 C 0.82363 0.74879 0.25436
 H110 H 0.81886 0.69699 0.23229
 H111 H 0.83031 0.76621 0.25757
 Cu112 Cu 0.77861 0.69760 0.26782
 Cu113 Cu 0.78688 0.75210 0.28760
 Cu114 Cu 0.73917 0.71888 0.30089
 N115 N 0.74986 0.68110 0.27181
 N116 N 0.73424 0.68937 0.28460
 C117 C 0.71652 0.67388 0.28492
 C118 C 0.72147 0.65501 0.27160
 C119 C 0.74270 0.66019 0.26354
 H120 H 0.70152 0.67588 0.29462
 H121 H 0.75243 0.64932 0.25286
 N122 N 0.74736 0.74916 0.31547
 N123 N 0.76546 0.76190 0.31040
 C124 C 0.76726 0.78068 0.32433
 C125 C 0.74952 0.77957 0.33889
 C126 C 0.73725 0.75943 0.33279
 H127 H 0.78105 0.79362 0.32467
 H128 H 0.72263 0.75231 0.34108
 H129 H 0.77448 0.72216 0.30126
 H130 H 0.75870 0.73216 0.27568
 N131 N 0.30645 0.23932 -0.23557
 N132 N 0.30297 0.21801 -0.24323
 C133 C 0.31829 0.21337 -0.25876
 C134 C 0.33223 0.23279 -0.26087
 C135 C 0.32429 0.24898 -0.24589
 H136 H 0.31924 0.19707 -0.26778
 H137 H 0.33095 0.26643 -0.24279
 Cu138 Cu 0.27903 0.19802 -0.23231
 Cu139 Cu 0.28747 0.25257 -0.21273
 Cu140 Cu 0.23943 0.21969 -0.19971
 N141 N 0.25014 0.18171 -0.22852
 N142 N 0.23444 0.19014 -0.21593
 C143 C 0.21662 0.17476 -0.21571
 C144 C 0.22158 0.15578 -0.22887
 C145 C 0.24293 0.16081 -0.23675
 H146 H 0.20152 0.17691 -0.20620
 H147 H 0.25270 0.14984 -0.24729
 N148 N 0.24770 0.24997 -0.18516
 N149 N 0.26596 0.26256 -0.19009
 C150 C 0.26779 0.28135 -0.17615
 C151 C 0.24992 0.28038 -0.16174
 C152 C 0.23753 0.26034 -0.16794
 H153 H 0.28168 0.29418 -0.17571
 H154 H 0.22278 0.25334 -0.15977
 H155 H 0.27476 0.22276 -0.19903
 H156 H 0.25929 0.23276 -0.22479
 N157 N 0.67858 0.26604 -0.25229
 N158 N 0.68674 0.28120 -0.26610
 C159 C 0.67123 0.28360 -0.28317
 C160 C 0.65240 0.26925 -0.27961
 C161 C 0.65770 0.25836 -0.25993
 H162 H 0.67317 0.29531 -0.29675
 H163 H 0.64699 0.24601 -0.25161
 Cu164 Cu 0.71614 0.29723 -0.25921
 Cu165 Cu 0.69513 0.25757 -0.22511
 Cu166 Cu 0.74786 0.28509 -0.21291
 N167 N 0.74559 0.31293 -0.25188
 N168 N 0.75800 0.30801 -0.23390
 C169 C 0.77674 0.32225 -0.23213
 C170 C 0.77590 0.33695 -0.24985
 C171 C 0.75595 0.33057 -0.26205
 H172 H 0.78944 0.32264 -0.21840
 H173 H 0.74912 0.33881 -0.27671
 N174 N 0.73453 0.26139 -0.19380
 N175 N 0.71431 0.25113 -0.19842
 C176 C 0.70979 0.23605 -0.18237
 C177 C 0.72800 0.23683 -0.16694
 C178 C 0.74341 0.25305 -0.17462
 H179 H 0.69445 0.22514 -0.18193
 H180 H 0.75986 0.25829 -0.16681
 H181 H 0.71353 0.28854 -0.21947
 H182 H 0.72738 0.26571 -0.23604
 N183 N 0.18131 0.76429 0.24799
 N184 N 0.18945 0.77964 0.23438
 C185 C 0.17386 0.78237 0.21746
 C186 C 0.15505 0.76797 0.22085
 C187 C 0.16038 0.75679 0.24032
 H188 H 0.17571 0.79439 0.20413
 H189 H 0.14957 0.74444 0.24854
 Cu190 Cu 0.21894 0.79563 0.24096
 Cu191 Cu 0.19787 0.75557 0.27501
 Cu192 Cu 0.24947 0.78449 0.28861
 N193 N 0.24718 0.81284 0.25015
 N194 N 0.25921 0.80824 0.26847
 C195 C 0.27725 0.82334 0.27111
 C196 C 0.27627 0.83835 0.25365
 C197 C 0.25703 0.83117 0.24063
 H198 H 0.28955 0.82399 0.28521
 H199 H 0.25031 0.83918 0.22577
 N200 N 0.23671 0.75990 0.30689
 N201 N 0.21697 0.74894 0.30167
 C202 C 0.21268 0.73341 0.31737
 C203 C 0.23056 0.73471 0.33322
 C204 C 0.24551 0.75166 0.32613
 H205 H 0.19765 0.72202 0.31741
 H206 H 0.26153 0.75754 0.33445
 H207 H 0.21518 0.78721 0.28063
 H208 H 0.23023 0.76458 0.26486
 N209 N 0.48387 0.43028 0.48792
 N210 N 0.46668 0.43744 0.49928
 C211 C 0.46309 0.42347 0.51647
 C212 C 0.47887 0.40672 0.51585
 C213 C 0.49181 0.41151 0.49752
 H214 H 0.44985 0.42513 0.52844
 H215 H 0.50576 0.40191 0.49150
 Cu216 Cu 0.45017 0.46394 0.49034
 Cu217 Cu 0.49421 0.44562 0.46132
 Cu218 Cu 0.46462 0.49236 0.44422
 N219 N 0.43330 0.48974 0.48014
 N220 N 0.43911 0.50082 0.46217
 C221 C 0.42466 0.51765 0.45879
 C222 C 0.40897 0.51705 0.47549
 C223 C 0.41490 0.49914 0.48876
 H224 H 0.42535 0.52933 0.44507
 H225 H 0.40633 0.49335 0.50345
 N226 N 0.49092 0.48116 0.42829
 N227 N 0.50212 0.46335 0.43487
 C228 C 0.51888 0.45970 0.42059
 C229 C 0.51819 0.47593 0.40426
 C230 C 0.50029 0.48930 0.40960
 H231 H 0.53065 0.44611 0.42179
 H232 H 0.49446 0.50371 0.40041
 H233 H 0.48298 0.47765 0.46985
 H234 H 0.46295 0.45815 0.45205
 N235 N -0.01738 -0.06980 0.98788
 N236 N -0.03537 -0.06342 0.99848
 C237 C -0.03881 -0.07726 1.01581
 C238 C -0.02215 -0.09315 1.01601
 C239 C -0.00882 -0.08795 0.99807
 H240 H -0.05260 -0.07618 1.02723
 H241 H 0.00580 -0.09690 0.99267
 Cu242 Cu -0.05294 -0.03814 0.98807
 Cu243 Cu -0.00688 -0.05444 0.96131
 Cu244 Cu -0.03793 -0.00923 0.94261
 N245 N -0.07018 -0.01262 0.97772
 N246 N -0.06425 -0.00152 0.95980
 C247 C -0.07906 0.01487 0.95591
 C248 C -0.09509 0.01405 0.97228
 C249 C -0.08897 -0.00356 0.98589
 H250 H -0.07833 0.02646 0.94212
 H251 H -0.09773 -0.00944 1.00044
 N252 N -0.01076 -0.01960 0.92757
 N253 N 0.00104 -0.03677 0.93479
 C254 C 0.01834 -0.03991 0.92103
 C255 C 0.01739 -0.02401 0.90440
 C256 C -0.00123 -0.01139 0.90900
 H257 H 0.03066 -0.05295 0.92277
 H258 H -0.00744 0.00258 0.89939
 H259 H -0.01986 -0.02296 0.96902
 H260 H -0.03823 -0.04335 0.95049
 N261 N 1.02780 0.58547 0.98009
 N262 N 1.04846 0.58539 0.98941
 C263 C 1.05079 0.60203 1.00584
 C264 C 1.03038 0.61282 1.00684
 C265 C 1.01623 0.60184 0.99033
 H266 H 1.06598 0.60582 1.01646
 H267 H 0.99884 0.60572 0.98594
 Cu268 Cu 1.06951 0.56275 0.97924
 Cu269 Cu 1.01748 0.56527 0.95459
 Cu270 Cu 1.05600 0.52749 0.93405
 N271 N 1.09053 0.54036 0.96861
 N272 N 1.08552 0.52752 0.95025
 C273 C 1.10220 0.51293 0.94709
 C274 C 1.11832 0.51650 0.96459
 C275 C 1.11043 0.53402 0.97797
 H276 H 1.10181 0.49951 0.93404
 H277 H 1.11811 0.54084 0.99382
 N278 N 1.02510 0.52988 0.92037
 N279 N 1.01025 0.54373 0.92880
 C280 C 0.99068 0.54132 0.91622
 C281 C 0.99330 0.52528 0.89905
 C282 C 1.01530 0.51831 0.90212
 H283 H 0.97573 0.55095 0.91893
 H284 H 1.02356 0.50595 0.89168
 H285 H 1.03851 0.53857 0.96135
 H286 H 1.04950 0.56099 0.94236
 N287 N 0.52859 0.08605 0.47943
 N288 N 0.54892 0.08526 0.48936
 C289 C 0.55106 0.10143 0.50626
 C290 C 0.53086 0.11264 0.50691
 C291 C 0.51704 0.10240 0.48973
 H292 H 0.56596 0.10461 0.51742
 H293 H 0.49991 0.10678 0.48490
 Cu294 Cu 0.56965 0.06228 0.47924
 Cu295 Cu 0.51870 0.06687 0.45311
 Cu296 Cu 0.55668 0.02833 0.43293
 N297 N 0.59037 0.03950 0.46881
 N298 N 0.58558 0.02708 0.45013
 C299 C 0.60200 0.01213 0.44718
 C300 C 0.61770 0.01505 0.46513
 C301 C 0.60983 0.03253 0.47857
 H302 H 0.60173 -0.00099 0.43385
 H303 H 0.61726 0.03898 0.49467
 N304 N 0.52637 0.03209 0.41830
 N305 N 0.51177 0.04630 0.42657
 C306 C 0.49261 0.04496 0.41337
 C307 C 0.49518 0.02923 0.39593
 C308 C 0.51676 0.02131 0.39950
 H309 H 0.47792 0.05504 0.41590
 H310 H 0.52488 0.00882 0.38907
 H311 H 0.53868 0.03930 0.45982
 H312 H 0.55101 0.06185 0.44176
 N313 N -0.02988 0.09327 0.54102
 N314 N -0.04894 0.08825 0.52914
 C315 C -0.05129 0.10351 0.51285
 C316 C -0.03258 0.11876 0.51446
 C317 C -0.01929 0.11181 0.53252
 H318 H -0.06504 0.10291 0.50013
 H319 H -0.00301 0.11940 0.53875
 Cu320 Cu -0.06790 0.06095 0.53423
 Cu321 Cu -0.02062 0.07523 0.56659
 Cu322 Cu -0.04419 0.01980 0.56410
 N323 N -0.08004 0.02947 0.53197
 N324 N -0.07007 0.01334 0.54301
 C325 C -0.08182 -0.00673 0.53872
 C326 C -0.10015 -0.00299 0.52426
 C327 C -0.09856 0.02019 0.52025
 H328 H -0.07788 -0.02271 0.54627
 H329 H -0.11022 0.02966 0.51003
 N330 N -0.01824 0.02987 0.58465
 N331 N -0.00974 0.05120 0.58634
 C332 C 0.00658 0.05292 0.60306
 C333 C 0.00838 0.03158 0.61218
 C334 C -0.00749 0.01742 0.60007
 H335 H 0.01638 0.06848 0.60824
 H336 H -0.01131 -0.00052 0.60278
 H337 H -0.03122 0.04735 0.54671
 H338 H -0.04936 0.05383 0.57099
 N339 N 0.47238 0.59380 0.03756
 N340 N 0.45398 0.58818 0.02481
 C341 C 0.45095 0.60444 0.00959
 C342 C 0.46854 0.62089 0.01272
 C343 C 0.48185 0.61364 0.03060
 H344 H 0.43794 0.60360 -0.00386
 H345 H 0.49773 0.62169 0.03738
 Cu346 Cu 0.43812 0.55834 0.02653
 Cu347 Cu 0.48367 0.57408 0.06107
 Cu348 Cu 0.45606 0.52064 0.06376
 N349 N 0.42254 0.52837 0.02859
 N350 N 0.43033 0.51351 0.04275
 C351 C 0.41721 0.49405 0.04070
 C352 C 0.40022 0.49679 0.02443
 C353 C 0.40402 0.51877 0.01703
 H354 H 0.41952 0.47912 0.05064
 H355 H 0.39399 0.52712 0.00434
 N356 N 0.48223 0.53083 0.08383
 N357 N 0.49234 0.55147 0.08358
 C358 C 0.50887 0.55334 0.10015
 C359 C 0.50916 0.53278 0.11104
 C360 C 0.49215 0.51898 0.10023
 H361 H 0.52006 0.56833 0.10383
 H362 H 0.48725 0.50159 0.10429
 H363 H 0.47276 0.54421 0.04396
 H364 H 0.45336 0.55597 0.06515
 N365 N 0.53150 -0.08068 0.02669
 N366 N 0.55180 -0.07737 0.01857
 C367 C 0.55330 -0.09092 -0.00006
 C368 C 0.53289 -0.10351 -0.00366
 C369 C 0.51944 -0.09665 0.01364
 H370 H 0.56821 -0.09178 -0.01008
 H371 H 0.50225 -0.10289 0.01655
 Cu372 Cu 0.57458 -0.05604 0.03316
 Cu373 Cu 0.52257 -0.06434 0.05380
 Cu374 Cu 0.55949 -0.02033 0.07522
 N375 N 0.59271 -0.02833 0.04200
 N376 N 0.58619 -0.01376 0.05755
 C377 C 0.60049 0.00501 0.05839
 C378 C 0.61699 0.00175 0.04277
 C379 C 0.61160 -0.01960 0.03275
 H380 H 0.59888 0.01999 0.06932
 H381 H 0.62008 -0.02763 0.01894
 N382 N 0.53131 -0.02990 0.09009
 N383 N 0.51677 -0.04597 0.08118
 C384 C 0.49859 -0.04772 0.09415
 C385 C 0.50201 -0.03235 0.11226
 C386 C 0.52295 -0.02135 0.10929
 H387 H 0.48393 -0.05941 0.09081
 H388 H 0.53107 -0.00768 0.11994
 H389 H 0.54282 -0.03554 0.04698
 H390 H 0.55468 -0.05521 0.06831
 N391 N 1.02637 0.42003 0.52843
 N392 N 1.03820 0.43067 0.51328
 C393 C 1.03649 0.41833 0.49370
 C394 C 1.02278 0.39893 0.49667
 C395 C 1.01660 0.40049 0.51891
 H396 H 1.04494 0.42291 0.47853
 H397 H 1.00601 0.38826 0.52753
 Cu398 Cu 1.05568 0.45910 0.52039
 Cu399 Cu 1.02423 0.43293 0.55899
 Cu400 Cu 1.06121 0.47929 0.57416
 N401 N 1.08041 0.48055 0.53056
 N402 N 1.08303 0.48809 0.55169
 C403 C 1.10180 0.50232 0.55390
 C404 C 1.11127 0.50371 0.53296
 C405 C 1.09724 0.48973 0.51858
 H406 H 1.10792 0.51119 0.56943
 H407 H 1.09917 0.48641 0.50073
 N408 N 1.03783 0.46732 0.59421
 N409 N 1.02450 0.44895 0.58881
 C410 C 1.00950 0.44587 0.60511
 C411 C 1.01332 0.46333 0.62128
 C412 C 1.03137 0.47664 0.61388
 H413 H 0.99560 0.43304 0.60438
 H414 H 1.03847 0.49254 0.62168
 H415 H 1.03369 0.46679 0.55333
 H416 H 1.05724 0.44690 0.55892
 C417 C 0.35974 0.02608 0.23910
 C418 C 0.34647 0.00307 0.23961
 C419 C 0.35966 -0.01500 0.24354
 C420 C 0.38532 -0.00831 0.24666
 C421 C 0.37349 0.02828 0.26154
 C422 C 0.38696 0.01045 0.26559
 C423 C 0.37738 0.02240 0.22119
 C424 C 0.39076 0.00448 0.22512
 H425 H 0.32816 0.00124 0.23669
 H426 H 0.39616 -0.02302 0.24974
 H427 H 0.37305 0.04316 0.27291
 H428 H 0.37884 0.03265 0.20641
 C429 C 0.14254 -0.03807 0.74945
 C430 C 0.15632 -0.01521 0.75111
 C431 C 0.14368 0.00333 0.75496
 C432 C 0.11808 -0.00274 0.75674
 C433 C 0.12971 -0.03895 0.77125
 C434 C 0.11682 -0.02062 0.77520
 C435 C 0.12407 -0.03500 0.73093
 C436 C 0.11141 -0.01638 0.73456
 H437 H 0.17456 -0.01391 0.74916
 H438 H 0.10765 0.01229 0.75985
 H439 H 0.13041 -0.05328 0.78231
 H440 H 0.12204 -0.04580 0.71570
 C441 C 0.64233 0.46126 0.24833
 C442 C 0.65623 0.48404 0.25060
 C443 C 0.64363 0.50259 0.25450
 C444 C 0.61796 0.49662 0.25575
 C445 C 0.62907 0.46008 0.26984
 C446 C 0.61624 0.47842 0.27388
 C447 C 0.62424 0.46475 0.22955
 C448 C 0.61163 0.48339 0.23327
 H449 H 0.67451 0.48528 0.24892
 H450 H 0.60756 0.51168 0.25891
 H451 H 0.62955 0.44557 0.28070
 H452 H 0.62245 0.45423 0.21413
 C453 C 0.86480 0.52416 0.73922
 C454 C 0.85123 0.50126 0.73609
 C455 C 0.86353 0.48266 0.74032
 C456 C 0.88872 0.48868 0.74702
 C457 C 0.87545 0.52412 0.76315
 C458 C 0.88817 0.50576 0.76728
 C459 C 0.88495 0.52196 0.72378
 C460 C 0.89738 0.50330 0.72774
 H461 H 0.83317 0.50002 0.73151
 H462 H 0.89891 0.47355 0.75037
 H463 H 0.87424 0.53830 0.77523
 H464 H 0.88863 0.53366 0.71050
 C465 C 0.23821 0.36724 0.02251
 C466 C 0.23495 0.35394 -0.00011
 C467 C 0.23927 0.36665 -0.01836
 C468 C 0.24615 0.39193 -0.01231
 C469 C 0.26241 0.37799 0.02261
 C470 C 0.26662 0.39111 0.00459
 C471 C 0.22276 0.38753 0.02036
 C472 C 0.22679 0.40037 0.00207
 H473 H 0.23034 0.33576 -0.00140
 H474 H 0.24955 0.40243 -0.02716
 H475 H 0.27462 0.37652 0.03660
 H476 H 0.20944 0.39105 0.03187
 C477 C 0.74809 0.13994 -0.03547
 C478 C 0.75382 0.15374 -0.01350
 C479 C 0.75866 0.14079 0.00455
 C480 C 0.75759 0.11483 -0.00119
 C481 C 0.76838 0.12502 -0.03873
 C482 C 0.77356 0.11192 -0.02091
 C483 C 0.72843 0.12323 -0.02972
 C484 C 0.73340 0.11006 -0.01181
 H485 H 0.75296 0.17221 -0.01225
 H486 H 0.76154 0.10417 0.01346
 H487 H 0.77789 0.12504 -0.05399
 H488 H 0.71193 0.12228 -0.03858
 C489 C 0.25005 0.63900 0.46558
 C490 C 0.25163 0.65251 0.48813
 C491 C 0.25616 0.63964 0.50632
 C492 C 0.25862 0.61407 0.50023
 C493 C 0.27240 0.62694 0.46451
 C494 C 0.27704 0.61379 0.48245
 C495 C 0.23196 0.61974 0.46863
 C496 C 0.23624 0.60681 0.48687
 H497 H 0.24915 0.67074 0.48949
 H498 H 0.26226 0.60345 0.51499
 H499 H 0.28328 0.62827 0.45027
 H500 H 0.21648 0.61740 0.45810
 C501 C 0.73945 0.86666 0.52318
 C502 C 0.73593 0.85325 0.50064
 C503 C 0.73969 0.86595 0.48227
 C504 C 0.74631 0.89132 0.48811
 C505 C 0.76349 0.87775 0.52277
 C506 C 0.76712 0.89081 0.50462
 C507 C 0.72365 0.88670 0.52126
 C508 C 0.72710 0.89953 0.50283
 H509 H 0.73161 0.83501 0.49948
 H510 H 0.74927 0.90180 0.47316
 H511 H 0.77604 0.87648 0.53650
 H512 H 0.71048 0.89003 0.53301
 C513 C 0.02431 0.24057 0.36493
 C514 C 0.00145 0.23730 0.35182
 C515 C -0.01693 0.24074 0.36444
 C516 C -0.01075 0.24685 0.38946
 C517 C 0.02418 0.26450 0.37613
 C518 C 0.00604 0.26783 0.38917
 C519 C 0.02251 0.22418 0.38450
 C520 C 0.00408 0.22735 0.39727
 H521 H 0.00006 0.23321 0.33384
 H522 H -0.02574 0.24955 0.39985
 H523 H 0.03817 0.27711 0.37505
 H524 H 0.03440 0.21097 0.38768
 C525 C -0.03729 0.75023 0.14176
 C526 C -0.01475 0.75229 0.15556
 C527 C 0.00389 0.75623 0.14312
 C528 C -0.00179 0.75774 0.11767
 C529 C -0.03793 0.77218 0.12866
 C530 C -0.01952 0.77628 0.11598
 C531 C -0.03405 0.73129 0.12380
 C532 C -0.01536 0.73506 0.11130
 H533 H -0.01371 0.75039 0.17367
 H534 H 0.01332 0.76095 0.10740
 H535 H -0.05219 0.78324 0.12906
 H536 H -0.04490 0.71579 0.12187
 C537 C 0.46162 0.24990 0.64129
 C538 C 0.48413 0.25214 0.65516
 C539 C 0.50278 0.25599 0.64274
 C540 C 0.49719 0.25724 0.61727
 C541 C 0.46098 0.27171 0.62795
 C542 C 0.47945 0.27572 0.61533
 C543 C 0.46497 0.23078 0.62353
 C544 C 0.48371 0.23448 0.61108
 H545 H 0.48513 0.25043 0.67330
 H546 H 0.51235 0.26037 0.60705
 H547 H 0.44672 0.28278 0.62821
 H548 H 0.45420 0.21523 0.62174
 C549 C 0.52661 0.73934 0.86192
 C550 C 0.50351 0.73698 0.84917
 C551 C 0.48554 0.74164 0.86196
 C552 C 0.49234 0.74804 0.88681
 C553 C 0.52785 0.76350 0.87267
 C554 C 0.51017 0.76814 0.88592
 C555 C 0.52427 0.72349 0.88186
 C556 C 0.50626 0.72793 0.89483
 H557 H 0.50168 0.73234 0.83131
 H558 H 0.47771 0.75172 0.89738
 H559 H 0.54247 0.77526 0.87119
 H560 H 0.53552 0.70975 0.88515
 C561 C 0.09768 0.23095 0.30647
 N562 N 0.10032 0.24567 0.28947
 N563 N 0.11704 0.24344 0.27523
 C564 C 0.13173 0.22639 0.27746
 N565 N 0.12913 0.21166 0.29447
 N566 N 0.11239 0.21391 0.30874
 C567 C 0.07903 0.23339 0.32191
 N568 N 0.07625 0.21895 0.33914
 N569 N 0.05909 0.22116 0.35293
 C570 C 0.04410 0.23789 0.34995
 N571 N 0.04695 0.25229 0.33272
 N572 N 0.06409 0.25010 0.31897
 C573 C 0.59939 0.72649 0.80336
 N574 N 0.60231 0.74104 0.78628
 N575 N 0.61921 0.73863 0.77228
 C576 C 0.63381 0.72155 0.77482
 N577 N 0.63091 0.70694 0.79190
 N578 N 0.61399 0.70937 0.80594
 C579 C 0.58069 0.72942 0.81866
 N580 N 0.57765 0.71547 0.83624
 N581 N 0.56061 0.71843 0.85004
 C582 C 0.54601 0.73544 0.84671
 N583 N 0.54910 0.74931 0.82910
 N584 N 0.56610 0.74637 0.81536
 C585 C 0.39834 0.74287 0.81851
 N586 N 0.38340 0.75903 0.82387
 N587 N 0.36449 0.76115 0.81105
 C588 C 0.35984 0.74716 0.79249
 N589 N 0.37463 0.73086 0.78736
 N590 N 0.39353 0.72881 0.80008
 C591 C 0.42022 0.74149 0.83115
 N592 N 0.43648 0.72851 0.82250
 N593 N 0.45700 0.72823 0.83269
 C594 C 0.46210 0.74078 0.85207
 N595 N 0.44572 0.75349 0.86104
 N596 N 0.42514 0.75392 0.85070
 C597 C -0.10331 0.24129 0.31943
 N598 N -0.10792 0.22701 0.30113
 N599 N -0.12649 0.22916 0.28797
 C600 C -0.14113 0.24581 0.29246
 N601 N -0.13669 0.25998 0.31094
 N602 N -0.11811 0.25775 0.32421
 C603 C -0.08170 0.23991 0.33250
 N604 N -0.07724 0.25234 0.35212
 N605 N -0.05685 0.25204 0.36284
 C606 C -0.04020 0.23948 0.35419
 N607 N -0.04482 0.22692 0.33474
 N608 N -0.06518 0.22704 0.32417
 C609 C -0.11312 0.73982 0.19761
 N610 N -0.11803 0.75714 0.21220
 N611 N -0.13568 0.75495 0.22546
 C612 C -0.14903 0.73533 0.22463
 N613 N -0.14412 0.71802 0.21005
 N614 N -0.12651 0.72022 0.19675
 C615 C -0.09362 0.74228 0.18308
 N616 N -0.08931 0.72558 0.16755
 N617 N -0.07158 0.72794 0.15439
 C618 C -0.05748 0.74706 0.15633
 N619 N -0.06180 0.76368 0.17193
 N620 N -0.07954 0.76136 0.18502
 C621 C 0.38605 0.23976 0.69754
 N622 N 0.38074 0.25740 0.71155
 N623 N 0.36324 0.25521 0.72500
 C624 C 0.35044 0.23526 0.72498
 N625 N 0.35577 0.21763 0.71094
 N626 N 0.37323 0.21984 0.69745
 C627 C 0.40543 0.24219 0.68284
 N628 N 0.40995 0.22522 0.66769
 N629 N 0.42761 0.22752 0.65442
 C630 C 0.44141 0.24686 0.65587
 N631 N 0.43687 0.26377 0.67108
 N632 N 0.41921 0.26150 0.68427
 C633 C 0.59099 0.26252 0.68471
 N634 N 0.60824 0.27609 0.67712
 N635 N 0.62832 0.27823 0.68853
 C636 C 0.63184 0.26677 0.70782
 N637 N 0.61464 0.25305 0.71517
 N638 N 0.59460 0.25105 0.70389
 C639 C 0.56838 0.26073 0.67321
 N640 N 0.55058 0.25112 0.68390
 N641 N 0.52981 0.24966 0.67411
 C642 C 0.52600 0.25759 0.65314
 N643 N 0.54383 0.26705 0.64228
 N644 N 0.56467 0.26870 0.65219
 C645 C 0.09214 0.76219 0.18515
 N646 N 0.10989 0.77443 0.17674
 N647 N 0.13007 0.77626 0.18796
 C648 C 0.13319 0.76581 0.20789
 N649 N 0.11549 0.75347 0.21612
 N650 N 0.09535 0.75176 0.20501
 C651 C 0.06949 0.76062 0.17367
 N652 N 0.05150 0.75183 0.18464
 N653 N 0.03074 0.75049 0.17481
 C654 C 0.02713 0.75774 0.15355
 N655 N 0.04516 0.76642 0.14243
 N656 N 0.06599 0.76792 0.15236
 C657 C 0.30180 0.10011 0.22709
 N658 N 0.30424 0.11438 0.20969
 N659 N 0.29044 0.13159 0.20703
 C660 C 0.27371 0.13511 0.22167
 N661 N 0.27127 0.12085 0.23906
 N662 N 0.28508 0.10367 0.24173
 C663 C 0.31688 0.08110 0.23006
 N664 N 0.31454 0.06719 0.24772
 N665 N 0.32814 0.04986 0.25047
 C666 C 0.34456 0.04575 0.23563
 N667 N 0.34691 0.05971 0.21795
 N668 N 0.33331 0.07707 0.21521
 C669 C 0.80788 0.59906 0.72719
 N670 N 0.81123 0.61430 0.71075
 N671 N 0.79728 0.63140 0.70805
 C672 C 0.77951 0.63385 0.72169
 N673 N 0.77621 0.61864 0.73814
 N674 N 0.79013 0.60156 0.74083
 C675 C 0.82292 0.57999 0.73016
 N676 N 0.81896 0.56475 0.74644
 N677 N 0.83231 0.54724 0.74917
 C678 C 0.85015 0.54425 0.73574
 N679 N 0.85416 0.55953 0.71945
 N680 N 0.84077 0.57708 0.71670
 C681 C 0.81781 0.39553 0.74156
 N682 N 0.79865 0.39108 0.72830
 N683 N 0.78565 0.37212 0.73069
 C684 C 0.79124 0.35696 0.74655
 N685 N 0.81053 0.36127 0.75971
 N686 N 0.82362 0.38020 0.75723
 C687 C 0.83087 0.41743 0.74001
 N688 N 0.85114 0.42169 0.75161
 N689 N 0.86199 0.44225 0.75121
 C690 C 0.85286 0.45930 0.73936
 N691 N 0.83273 0.45489 0.72763
 N692 N 0.82200 0.43436 0.72788
 C693 C 0.31631 -0.10313 0.24615
 N694 N 0.29827 -0.10871 0.23168
 N695 N 0.28566 -0.12794 0.23383
 C696 C 0.29044 -0.14228 0.25069
 N697 N 0.30866 -0.13686 0.26506
 N698 N 0.32141 -0.11764 0.26281
 C699 C 0.32877 -0.08090 0.24463
 N700 N 0.34875 -0.07582 0.25651
 N701 N 0.35908 -0.05502 0.25579
 C702 C 0.34960 -0.03856 0.24338
 N703 N 0.32975 -0.04379 0.23145
 N704 N 0.31960 -0.06455 0.23197
 C705 C 0.19848 -0.11408 0.73867
 N706 N 0.21437 -0.11859 0.75496
 N707 N 0.22724 -0.13662 0.75270
 C708 C 0.22470 -0.15077 0.73403
 N709 N 0.20884 -0.14619 0.71772
 N710 N 0.19597 -0.12820 0.72000
 C711 C 0.18410 -0.09439 0.74125
 N712 N 0.16768 -0.09037 0.72532
 N713 N 0.15450 -0.07261 0.72776
 C714 C 0.15727 -0.05821 0.74624
 N715 N 0.17375 -0.06224 0.76213
 N716 N 0.18690 -0.08000 0.75969
 C717 C 0.69831 0.38525 0.23786
 N718 N 0.71402 0.38073 0.25433
 N719 N 0.72696 0.36274 0.25220
 C720 C 0.72465 0.34865 0.23349
 N721 N 0.70898 0.35320 0.21702
 N722 N 0.69604 0.37116 0.21916
 C723 C 0.68390 0.40492 0.24032
 N724 N 0.66775 0.40912 0.22416
 N725 N 0.65456 0.42689 0.22653
 C726 C 0.65705 0.44112 0.24515
 N727 N 0.67325 0.43690 0.26126
 N728 N 0.68641 0.41915 0.25890
 C729 C 0.68548 0.59175 0.26244
 N730 N 0.67613 0.60933 0.27376
 N731 N 0.68739 0.62967 0.27654
 C732 C 0.70832 0.63310 0.26801
 N733 N 0.71749 0.61558 0.25654
 N734 N 0.70632 0.59530 0.25385
 C735 C 0.67401 0.56890 0.26009
 N736 N 0.68549 0.55109 0.25185
 N737 N 0.67572 0.53010 0.25008
 C738 C 0.65402 0.52605 0.25637
 N739 N 0.64240 0.54390 0.26447
 N740 N 0.65226 0.56496 0.26639
 C741 C 0.18540 0.09261 0.76202
 N742 N 0.20624 0.09608 0.75344
 N743 N 0.21747 0.11634 0.75609
 C744 C 0.20835 0.13392 0.76752
 N745 N 0.18740 0.13057 0.77604
 N746 N 0.17609 0.11025 0.77330
 C747 C 0.17390 0.06975 0.75979
 N748 N 0.15223 0.06581 0.76631
 N749 N 0.14240 0.04472 0.76460
 C750 C 0.15398 0.02685 0.75649
 N751 N 0.17559 0.03090 0.74995
 N752 N 0.18533 0.05192 0.75151
 C753 C 0.22567 0.30950 0.09659
 N754 N 0.20913 0.31285 0.11150
 N755 N 0.20649 0.29893 0.12863
 C756 C 0.22029 0.28119 0.13143
 N757 N 0.23682 0.27788 0.11653
 N758 N 0.23945 0.29177 0.09943
 C759 C 0.22869 0.32462 0.07761
 N760 N 0.24504 0.32068 0.06269
 N761 N 0.24791 0.33422 0.04536
 C762 C 0.23455 0.35225 0.04228
 N763 N 0.21817 0.35622 0.05723
 N764 N 0.21528 0.34263 0.07458
 C765 C 0.72917 0.80865 0.59740
 N766 N 0.71237 0.81129 0.61216
 N767 N 0.71007 0.79718 0.62917
 C768 C 0.72450 0.77996 0.63203
 N769 N 0.74131 0.77737 0.61730
 N770 N 0.74360 0.79145 0.60030
 C771 C 0.73169 0.82390 0.57844
 N772 N 0.74806 0.82046 0.56341
 N773 N 0.75038 0.83406 0.54606
 C774 C 0.73646 0.85167 0.54305
 N775 N 0.72007 0.85514 0.55812
 N776 N 0.71772 0.84149 0.57549
 C777 C 0.74106 0.82094 0.39658
 N778 N 0.75677 0.82714 0.38149
 N779 N 0.75923 0.81424 0.36283
 C780 C 0.74601 0.79474 0.35859
 N781 N 0.73013 0.78875 0.37354
 N782 N 0.72776 0.80155 0.39220
 C783 C 0.73947 0.83381 0.41812
 N784 N 0.72735 0.82451 0.43477
 N785 N 0.72704 0.83508 0.45496
 C786 C 0.73867 0.85548 0.45927
 N787 N 0.75048 0.86505 0.44250
 N788 N 0.75096 0.85435 0.42228
 C789 C 0.24128 0.32179 -0.10410
 N790 N 0.25725 0.32783 -0.11899
 N791 N 0.25977 0.31492 -0.13763
 C792 C 0.24637 0.29558 -0.14206
 N793 N 0.23024 0.28975 -0.12731
 N794 N 0.22779 0.30256 -0.10867
 C795 C 0.23957 0.33465 -0.08256
 N796 N 0.22706 0.32548 -0.06612
 N797 N 0.22660 0.33602 -0.04592
 C798 C 0.23848 0.35624 -0.04139
 N799 N 0.25070 0.36568 -0.05795
 N800 N 0.25132 0.35502 -0.07817
 C801 C 0.73521 0.19669 -0.11037
 N802 N 0.71590 0.19471 -0.12377
 N803 N 0.71358 0.20760 -0.14172
 C804 C 0.73048 0.22293 -0.14693
 N805 N 0.74975 0.22495 -0.13349
 N806 N 0.75207 0.21206 -0.11555
 C807 C 0.73807 0.18221 -0.09084
 N808 N 0.75775 0.18387 -0.07804
 N809 N 0.76067 0.17053 -0.06054
 C810 C 0.74403 0.15502 -0.05513
 N811 N 0.72428 0.15339 -0.06791
 N812 N 0.72136 0.16675 -0.08546
 C813 C 0.23767 0.69502 0.39009
 N814 N 0.21927 0.69158 0.37560
 N815 N 0.21698 0.70431 0.35753
 C816 C 0.23302 0.72089 0.35328
 N817 N 0.25141 0.72436 0.36778
 N818 N 0.25368 0.71165 0.38586
 C819 C 0.24043 0.68079 0.40979
 N820 N 0.25879 0.68443 0.42429
 N821 N 0.26159 0.67127 0.44195
 C822 C 0.24617 0.65396 0.44579
 N823 N 0.22775 0.65037 0.43131
 N824 N 0.22493 0.66356 0.41364
 C825 C 0.26313 0.68101 0.59410
 N826 N 0.27632 0.67292 0.61110
 N827 N 0.27868 0.68426 0.63105
 C828 C 0.26784 0.70399 0.63468
 N829 N 0.25454 0.71188 0.61773
 N830 N 0.25229 0.70066 0.59782
 C831 C 0.26106 0.66955 0.57163
 N832 N 0.25112 0.68040 0.55426
 N833 N 0.24954 0.67073 0.53362
 C834 C 0.25768 0.64974 0.52948
 N835 N 0.26746 0.63870 0.54690
 N836 N 0.26920 0.64849 0.56762
 C837 C 0.76825 0.18214 0.09225
 N838 N 0.75843 0.20241 0.09566
 N839 N 0.76004 0.21320 0.11580
 C840 C 0.77168 0.20424 0.13330
 N841 N 0.78158 0.18391 0.12998
 N842 N 0.77982 0.17299 0.10979
 C843 C 0.76647 0.17097 0.06966
 N844 N 0.77197 0.14887 0.06594
 N845 N 0.76965 0.13910 0.04522
 C846 C 0.76195 0.15120 0.02753
 N847 N 0.75662 0.17327 0.03138
 N848 N 0.75876 0.18292 0.05200
 C849 C 0.48267 0.35193 0.55912
 N850 N 0.49759 0.35420 0.54237
 N851 N 0.49658 0.37174 0.52861
 C852 C 0.48061 0.38758 0.53114
 N853 N 0.46583 0.38533 0.54794
 N854 N 0.46683 0.36785 0.56164
 C855 C 0.48282 0.33238 0.57401
 N856 N 0.46659 0.33015 0.58945
 N857 N 0.46583 0.31225 0.60264
 C858 C 0.48128 0.29582 0.60101
 N859 N 0.49771 0.29809 0.58568
 N860 N 0.49845 0.31605 0.57237
 C861 C -0.01729 0.85251 0.05974
 N862 N -0.03363 0.86796 0.06196
 N863 N -0.03496 0.88532 0.04814
 C864 C -0.02001 0.88793 0.03152
 N865 N -0.00354 0.87257 0.02931
 N866 N -0.00220 0.85514 0.04318
 C867 C -0.01679 0.83302 0.07471
 N868 N -0.00099 0.81687 0.07302
 N869 N -0.00150 0.79890 0.08634
 C870 C -0.01784 0.79646 0.10174
 N871 N -0.03344 0.81274 0.10343
 N872 N -0.03292 0.83064 0.09023
 C873 C 0.01217 0.66645 0.05001
 N874 N -0.00387 0.65356 0.03755
 N875 N 0.00208 0.63661 0.02379
 C876 C 0.02426 0.63169 0.02213
 N877 N 0.04038 0.64451 0.03464
 N878 N 0.03443 0.66166 0.04829
 C879 C 0.00520 0.68479 0.06544
 N880 N 0.02054 0.70094 0.07466
 N881 N 0.01395 0.71728 0.08889
 C882 C -0.00817 0.71793 0.09454
 N883 N -0.02345 0.70180 0.08528
 N884 N -0.01692 0.68564 0.07091
 C885 C 0.51210 0.16574 0.55040
 N886 N 0.53438 0.16084 0.54907
 N887 N 0.54051 0.14382 0.53537
 C888 C 0.52456 0.13124 0.52241
 N889 N 0.50236 0.13626 0.52370
 N890 N 0.49624 0.15308 0.53751
 C891 C 0.50493 0.18403 0.56578
 N892 N 0.48273 0.18482 0.57100
 N893 N 0.47599 0.20101 0.58522
 C894 C 0.49113 0.21723 0.59456
 N895 N 0.51332 0.21662 0.58916
 N896 N 0.52013 0.20025 0.57509
 C897 C -0.01709 0.16888 0.46816
 N898 N -0.03886 0.16061 0.47000
 N899 N -0.04381 0.14488 0.48499
 C900 C -0.02723 0.13703 0.49886
 N901 N -0.00550 0.14553 0.49726
 N902 N -0.00050 0.16109 0.48208
 C903 C -0.01144 0.18502 0.45058
 N904 N 0.01027 0.18772 0.44388
 N905 N 0.01523 0.20134 0.42704
 C906 C -0.00129 0.21294 0.41641
 N907 N -0.02296 0.21047 0.42331
 N908 N -0.02797 0.19665 0.43999
 C909 C 0.48403 0.67169 0.96712
 N910 N 0.46233 0.66304 0.96851
 N911 N 0.45731 0.64724 0.98342
 C912 C 0.47374 0.63972 0.99769
 N913 N 0.49537 0.64867 0.99659
 N914 N 0.50045 0.66427 0.98149
 C915 C 0.48994 0.68751 0.94933
 N916 N 0.51174 0.68990 0.94280
 N917 N 0.51695 0.70295 0.92562
 C918 C 0.50060 0.71431 0.91444
 N919 N 0.47884 0.71222 0.92119
 N920 N 0.47358 0.69892 0.93822
 C921 C 0.51819 0.84532 0.94617
 N922 N 0.50357 0.84860 0.96298
 N923 N 0.50801 0.86517 0.97880
 C924 C 0.52729 0.87891 0.97844
 N925 N 0.54178 0.87568 0.96156
 N926 N 0.53730 0.85922 0.94572
 C927 C 0.51442 0.82628 0.92942
 N928 N 0.52923 0.82384 0.91270
 N929 N 0.52729 0.80572 0.89846
 C930 C 0.51047 0.78926 0.90033
 N931 N 0.49535 0.79186 0.91684
 N932 N 0.49729 0.81007 0.93113
 C933 C 0.00899 0.34535 0.44881
 N934 N -0.00030 0.34455 0.46938
 N935 N 0.00377 0.36174 0.48462
 C936 C 0.01726 0.38029 0.47980
 N937 N 0.02631 0.38115 0.45917
 N938 N 0.02230 0.36399 0.44400
 C939 C 0.00629 0.32586 0.43247
 N940 N 0.01860 0.32592 0.41365
 N941 N 0.01789 0.30769 0.39955
 C942 C 0.00472 0.28871 0.40361
 N943 N -0.00800 0.28878 0.42222
 N944 N -0.00719 0.30702 0.43644
 C945 C 0.35409 0.55942 0.48194
 N946 N 0.35738 0.54253 0.49671
 N947 N 0.37495 0.52908 0.49481
 C948 C 0.38980 0.53203 0.47807
 N949 N 0.38651 0.54895 0.46340
 N950 N 0.36900 0.56237 0.46530
 C951 C 0.33445 0.57398 0.48317
 N952 N 0.33148 0.59004 0.46755
 N953 N 0.31340 0.60282 0.46769
 C954 C 0.29752 0.60013 0.48348
 N955 N 0.30056 0.58420 0.49933
 N956 N 0.31872 0.57132 0.49917
 C957 C 0.84900 0.05533 -0.02294
 N958 N 0.86327 0.05726 -0.04025
 N959 N 0.88108 0.04416 -0.04164
 C960 C 0.88530 0.02857 -0.02579
 N961 N 0.87106 0.02660 -0.00842
 N962 N 0.85323 0.03978 -0.00699
 C963 C 0.82931 0.06985 -0.02193
 N964 N 0.81522 0.06939 -0.00433
 N965 N 0.79743 0.08275 -0.00386
 C966 C 0.79310 0.09695 -0.02100
 N967 N 0.80723 0.09732 -0.03852
 N968 N 0.82497 0.08408 -0.03897
 C969 C 0.66792 0.04819 0.02279
 N970 N 0.67056 0.02528 0.02087
 N971 N 0.65440 0.01050 0.02743
 C972 C 0.63520 0.01810 0.03651
 N973 N 0.63270 0.04102 0.03873
 N974 N 0.64869 0.05579 0.03181
 C975 C 0.68511 0.06444 0.01436
 N976 N 0.67886 0.08473 0.00623
 N977 N 0.69424 0.09916 -0.00221
 C978 C 0.71649 0.09400 -0.00254
 N979 N 0.72280 0.07384 0.00586
 N980 N 0.70735 0.05921 0.01396
 C981 C 0.16775 0.54391 0.51437
 N982 N 0.16331 0.54181 0.53653
 N983 N 0.14540 0.52891 0.54258
 C984 C 0.13139 0.51759 0.52668
 N985 N 0.13599 0.51955 0.50459
 N986 N 0.15375 0.53254 0.49856
 C987 C 0.18654 0.55915 0.50731
 N988 N 0.18749 0.56483 0.48538
 N989 N 0.20362 0.57960 0.47886
 C990 C 0.21961 0.58910 0.49397
 N991 N 0.21892 0.58315 0.51587
 N992 N 0.20262 0.56850 0.52245
 C993 C 0.17001 0.47221 -0.02017
 N994 N 0.16128 0.47326 -0.04162
 N995 N 0.14521 0.48780 -0.04658
 C996 C 0.13745 0.50200 -0.03032
 N997 N 0.14648 0.50125 -0.00895
 N998 N 0.16238 0.48653 -0.00394
 C999 C 0.18609 0.45469 -0.01429
 N1000 N 0.18892 0.44849 0.00744
 N1001 N 0.20213 0.43140 0.01266
 C1002 C 0.21318 0.42003 -0.00361
 N1003 N 0.21065 0.42648 -0.02529
 N1004 N 0.19722 0.44340 -0.03056
 C1005 C 0.66902 0.97039 0.48067
 N1006 N 0.66054 0.97162 0.45914
 N1007 N 0.64452 0.98620 0.45411
 C1008 C 0.63657 1.00026 0.47038
 N1009 N 0.64531 0.99930 0.49184
 N1010 N 0.66116 0.98455 0.49692
 C1011 C 0.68527 0.95302 0.48655
 N1012 N 0.68815 0.94677 0.50826
 N1013 N 0.70168 0.92993 0.51347
 C1014 C 0.71301 0.91886 0.49721
 N1015 N 0.71040 0.92536 0.47554
 N1016 N 0.69666 0.94203 0.47028
 C1017 C 0.84628 0.94927 0.50705
 N1018 N 0.86488 0.94325 0.51930
 N1019 N 0.88215 0.95835 0.52418
 C1020 C 0.88147 0.98011 0.51707
 N1021 N 0.86302 0.98612 0.50450
 N1022 N 0.84570 0.97095 0.49958
 C1023 C 0.82641 0.93311 0.50405
 N1024 N 0.80747 0.93837 0.49178
 N1025 N 0.78879 0.92443 0.49112
 C1026 C 0.78837 0.90487 0.50284
 N1027 N 0.80745 0.89951 0.51475
 N1028 N 0.82611 0.91331 0.51528
 C1029 C 0.34613 0.44925 0.00839
 N1030 N 0.36360 0.44412 0.02267
 N1031 N 0.38096 0.45916 0.02731
 C1032 C 0.38156 0.47996 0.01789
 N1033 N 0.36424 0.48508 0.00333
 N1034 N 0.34679 0.46997 -0.00132
 C1035 C 0.32620 0.43318 0.00526
 N1036 N 0.30798 0.43781 -0.00837
 N1037 N 0.28923 0.42395 -0.00933
 C1038 C 0.28803 0.40507 0.00339
 N1039 N 0.30641 0.40033 0.01667
 N1040 N 0.32512 0.41406 0.01754
 C1041 C 0.56050 0.48012 0.34941
 N1042 N 0.54414 0.49549 0.35220
 N1043 N 0.53067 0.49433 0.36974
 C1044 C 0.53311 0.47778 0.38506
 N1045 N 0.54951 0.46253 0.38227
 N1046 N 0.56292 0.46367 0.36479
 C1047 C 0.57517 0.48055 0.32995
 N1048 N 0.59037 0.46408 0.32735
 N1049 N 0.60346 0.46368 0.30962
 C1050 C 0.60195 0.47975 0.29374
 N1051 N 0.58683 0.49642 0.29637
 N1052 N 0.57363 0.49679 0.31416
 C1053 C 0.06078 -0.01895 0.85047
 N1054 N 0.04367 -0.00430 0.85257
 N1055 N 0.02988 -0.00572 0.86983
 C1056 C 0.03272 -0.02182 0.88556
 N1057 N 0.04987 -0.03634 0.88346
 N1058 N 0.06360 -0.03494 0.86625
 C1059 C 0.07570 -0.01835 0.83121
 N1060 N 0.09155 -0.03428 0.82914
 N1061 N 0.10472 -0.03467 0.81147
 C1062 C 0.10266 -0.01913 0.79514
 N1063 N 0.08692 -0.00299 0.79726
 N1064 N 0.07364 -0.00262 0.81499
 C1065 C 0.05035 0.01203 0.66610
 N1066 N 0.03852 -0.00389 0.65250
 N1067 N 0.02518 0.00245 0.63540
 C1068 C 0.02331 0.02494 0.63108
 N1069 N 0.03517 0.04092 0.64464
 N1070 N 0.04842 0.03457 0.66189
 C1071 C 0.06547 0.00471 0.68456
 N1072 N 0.07459 0.01994 0.70066
 N1073 N 0.08878 0.01314 0.71694
 C1074 C 0.09448 -0.00908 0.71760
 N1075 N 0.08526 -0.02427 0.70154
 N1076 N 0.07094 -0.01753 0.68542
 C1077 C 0.55145 0.51304 0.16464
 N1078 N 0.55041 0.53555 0.15985
 N1079 N 0.53708 0.54200 0.14269
 C1080 C 0.52422 0.52615 0.12986
 N1081 N 0.52521 0.50372 0.13478
 N1082 N 0.53866 0.49728 0.15174
 C1083 C 0.56654 0.50551 0.18301
 N1084 N 0.57155 0.48313 0.18389
 N1085 N 0.58564 0.47609 0.20005
 C1086 C 0.59506 0.49109 0.21617
 N1087 N 0.58984 0.51346 0.21549
 N1088 N 0.57590 0.52057 0.19915
 C1089 C 0.45551 -0.01959 0.16200
 N1090 N 0.44833 -0.02800 0.14118
 N1091 N 0.46325 -0.03231 0.12551
 C1092 C 0.48588 -0.02795 0.12993
 N1093 N 0.49312 -0.01944 0.15073
 N1094 N 0.47819 -0.01547 0.16656
 C1095 C 0.43876 -0.01399 0.17870
 N1096 N 0.44386 -0.01455 0.20122
 N1097 N 0.42843 -0.00915 0.21614
 C1098 C 0.40755 -0.00266 0.20900
 N1099 N 0.40255 -0.00207 0.18651
 N1100 N 0.41779 -0.00783 0.17165
 C1101 C 0.96854 0.47963 0.67163
 N1102 N 0.96914 0.45780 0.66316
 N1103 N 0.98378 0.45249 0.64749
 C1104 C 0.99856 0.46875 0.63991
 N1105 N 0.99825 0.49048 0.64868
 N1106 N 0.98342 0.49585 0.66416
 C1107 C 0.95107 0.48590 0.68736
 N1108 N 0.94532 0.50803 0.68984
 N1109 N 0.92839 0.51360 0.70288
 C1110 C 0.91673 0.49729 0.71412
 N1111 N 0.92271 0.47521 0.71193
 N1112 N 0.93947 0.46959 0.69866
 C1113 C 0.94590 0.50923 0.84575
 N1114 N 0.96653 0.49970 0.84610
 N1115 N 0.98157 0.50434 0.86331
 C1116 C 0.97649 0.51871 0.88069
 N1117 N 0.95579 0.52796 0.88041
 N1118 N 0.94080 0.52334 0.86327
 C1119 C 0.92992 0.50614 0.82608
 N1120 N 0.91098 0.51848 0.82519
 N1121 N 0.89734 0.51767 0.80672
 C1122 C 0.90200 0.50441 0.78842
 N1123 N 0.92069 0.49163 0.78944
 N1124 N 0.93446 0.49253 0.80794
 C1125 C 0.44783 0.01555 0.34205
 N1126 N 0.46779 0.00474 0.34270
 N1127 N 0.48288 0.00873 0.36000
 C1128 C 0.47850 0.02366 0.37718
 N1129 N 0.45848 0.03422 0.37655
 N1130 N 0.44347 0.03028 0.35932
 C1131 C 0.43154 0.01275 0.32259
 N1132 N 0.41339 0.02617 0.32156
 N1133 N 0.39907 0.02501 0.30359
 C1134 C 0.40221 0.01030 0.28594
 N1135 N 0.42019 -0.00346 0.28705
 N1136 N 0.43466 -0.00221 0.30505
   
