data_POSCAR
  _audit_creation_date              2014-09-24
  _audit_creation_method            'ToBaCCo'
  _symmetry_space_group_name_H-M    'P1'
  _symmetry_Int_Tables_number       1
  _symmetry_cell_setting            triclinic
  loop_
  _symmetry_equiv_pos_as_xyz
 x,y,z
_cell_length_a 49.9376
_cell_length_b 49.7411
_cell_length_c 23.0115
_cell_angle_alpha 89.984100
_cell_angle_beta 89.934500
_cell_angle_gamma 120.161400
loop_
  _atom_site_label
  _atom_site_type_symbol
  _atom_site_fract_x
  _atom_site_fract_y
  _atom_site_fract_z
C1 C 0.48379 0.97273 0.53236
 C2 C 0.49111 0.97236 0.47300
 C3 C 0.50900 1.00050 0.44329
 C4 C 0.51949 1.02977 0.46977
 C5 C 0.51342 1.03021 0.53046
 C6 C 0.49411 1.00176 0.55907
 H7 H 0.48956 1.00225 0.60502
 H8 H 0.51298 0.99913 0.39735
 C9 C 0.02764 0.51081 0.53136
 C10 C 0.02825 0.51847 0.47215
 C11 C 0.00024 0.50834 0.44254
 C12 C -0.02873 0.48928 0.46940
 C13 C -0.02909 0.48174 0.52916
 C14 C -0.00098 0.49219 0.55873
 H15 H -0.00144 0.48722 0.60475
 H16 H 0.00131 0.51386 0.39671
 C17 C 0.48881 0.51857 0.53247
 C18 C 0.48051 0.51019 0.47350
 C19 C 0.49029 0.49169 0.44500
 C20 C 0.50910 0.48205 0.47253
 C21 C 0.51782 0.49035 0.53141
 C22 C 0.50848 0.50955 0.55935
 H23 H 0.51454 0.51548 0.60458
 H24 H 0.48488 0.48644 0.39930
 O25 O 0.37921 0.65921 -0.04651
 O26 O 0.37813 0.71047 -0.06664
 C27 C 0.36405 0.72533 -0.07589
 O28 O 0.34079 0.72119 -0.04627
 O29 O 0.28958 0.66868 -0.06623
 C30 C 0.27477 0.63963 -0.07567
 O31 O 0.27885 0.62036 -0.04629
 O32 O 0.33105 0.62160 -0.06664
 C33 C 0.36000 0.63587 -0.07607
 O34 O 0.37794 0.66834 0.06850
 O35 O 0.37965 0.72099 0.04868
 C36 C 0.36058 0.72522 0.07828
 O37 O 0.33165 0.71064 0.06878
 O38 O 0.27916 0.65956 0.04900
 C39 C 0.27492 0.63615 0.07857
 O40 O 0.28932 0.62165 0.06883
 O41 O 0.34012 0.62010 0.04865
 C42 C 0.36352 0.63929 0.07804
 Cr43 Cr 0.37708 0.68894 0.00100
 Cr44 Cr 0.31111 0.68917 0.00129
 Cr45 Cr 0.31067 0.62258 0.00113
 O46 O 0.33295 0.66690 0.00118
 O47 O 0.62334 0.33417 -0.07183
 O48 O 0.62080 0.28145 -0.05045
 C49 C 0.64041 0.27620 -0.07532
 O50 O 0.66888 0.29010 -0.06195
 O51 O 0.72079 0.34187 -0.04303
 C52 C 0.72556 0.36531 -0.07329
 O53 O 0.71131 0.38013 -0.06504
 O54 O 0.66038 0.38217 -0.04952
 C55 C 0.63776 0.36322 -0.08060
 O56 O 0.61923 0.34266 0.04343
 O57 O 0.61874 0.29058 0.06372
 C58 C 0.63339 0.27693 0.07826
 O59 O 0.65837 0.28192 0.05403
 O60 O 0.70908 0.33422 0.07263
 C61 C 0.72385 0.36328 0.08112
 O62 O 0.71997 0.38221 0.05037
 O63 O 0.66709 0.38044 0.06597
 C64 C 0.63798 0.36599 0.07378
 Cr65 Cr 0.62227 0.31313 -0.00361
 Cr66 Cr 0.68843 0.31288 0.00521
 Cr67 Cr 0.68882 0.37950 0.00047
 O68 O 0.66646 0.33505 0.00083
 C69 C 0.44326 0.89483 -0.36196
 N70 N 0.44365 0.92128 -0.34616
 N71 N 0.45631 0.94611 -0.38068
 C72 C 0.46875 0.94553 -0.43296
 N73 N 0.46812 0.91883 -0.44868
 N74 N 0.45571 0.89401 -0.41390
 C75 C 0.43029 0.86805 -0.32238
 N76 N 0.43634 0.84451 -0.32965
 N77 N 0.42546 0.82096 -0.29192
 C78 C 0.40796 0.82005 -0.24590
 N79 N 0.40173 0.84345 -0.23905
 N80 N 0.41281 0.86708 -0.27639
 C81 C 0.39619 0.79464 -0.20330
 N82 N 0.37454 0.79147 -0.16400
 N83 N 0.36420 0.76915 -0.12402
 C84 C 0.37530 0.74926 -0.12141
 N85 N 0.39701 0.75235 -0.16072
 N86 N 0.40720 0.77461 -0.20113
 C87 C 0.10635 0.54949 -0.36213
 N88 N 0.08391 0.51926 -0.35596
 N89 N 0.05917 0.50682 -0.39046
 C90 C 0.05608 0.52406 -0.43286
 N91 N 0.07858 0.55430 -0.43906
 N92 N 0.10326 0.56679 -0.40436
 C93 C 0.13291 0.56339 -0.32236
 N94 N 0.15310 0.59453 -0.32246
 N95 N 0.17652 0.60714 -0.28479
 C96 C 0.18065 0.58902 -0.24586
 N97 N 0.16059 0.55789 -0.24611
 N98 N 0.13712 0.54532 -0.28353
 C99 C 0.20586 0.60263 -0.20312
 N100 N 0.21088 0.58381 -0.16772
 N101 N 0.23307 0.59577 -0.12770
 C102 C 0.25103 0.62702 -0.12131
 N103 N 0.24611 0.64595 -0.15680
 N104 N 0.22393 0.63394 -0.19710
 C105 C 0.45093 0.55861 -0.36295
 N106 N 0.47753 0.55942 -0.34768
 N107 N 0.48989 0.54696 -0.38191
 C108 C 0.47651 0.53352 -0.43339
 N109 N 0.44990 0.53296 -0.44862
 N110 N 0.43731 0.54518 -0.41410
 C111 C 0.43693 0.57130 -0.32348
 N112 N 0.40704 0.56424 -0.32997
 N113 N 0.39423 0.57483 -0.29217
 C114 C 0.41096 0.59300 -0.24685
 N115 N 0.44087 0.60022 -0.24081
 N116 N 0.45356 0.58945 -0.27822
 C117 C 0.39721 0.60444 -0.20408
 N118 N 0.41572 0.62643 -0.16519
 N119 N 0.40368 0.63650 -0.12501
 C120 C 0.37264 0.62480 -0.12177
 N121 N 0.35400 0.60276 -0.16068
 N122 N 0.36611 0.59281 -0.20129
 C123 C 0.55410 0.10674 -0.36134
 N124 N 0.52448 0.08368 -0.35271
 N125 N 0.51140 0.05931 -0.38816
 C126 C 0.52710 0.05717 -0.43457
 N127 N 0.55701 0.08012 -0.44254
 N128 N 0.57024 0.10448 -0.40675
 C129 C 0.56810 0.13329 -0.32131
 N130 N 0.59905 0.15390 -0.32160
 N131 N 0.61137 0.17742 -0.28380
 C132 C 0.59310 0.18122 -0.24474
 N133 N 0.56221 0.16072 -0.24484
 N134 N 0.54996 0.13716 -0.28223
 C135 C 0.60608 0.20667 -0.20224
 N136 N 0.58672 0.21202 -0.16926
 N137 N 0.59786 0.23440 -0.12944
 C138 C 0.62882 0.25221 -0.12070
 N139 N 0.64832 0.24696 -0.15370
 N140 N 0.63713 0.22460 -0.19392
 C141 C 0.89234 0.44184 -0.36381
 N142 N 0.91248 0.43103 -0.36315
 N143 N 0.93710 0.44327 -0.39810
 C144 C 0.94233 0.46655 -0.43544
 N145 N 0.92224 0.47744 -0.43595
 N146 N 0.89766 0.46525 -0.40088
 C147 C 0.86601 0.42924 -0.32336
 N148 N 0.84752 0.44194 -0.31985
 N149 N 0.82436 0.43122 -0.28152
 C150 C 0.81884 0.40737 -0.24542
 N151 N 0.83721 0.39455 -0.24923
 N152 N 0.86039 0.40532 -0.28742
 C153 C 0.79398 0.39606 -0.20186
 N154 N 0.78816 0.37165 -0.16713
 N155 N 0.76619 0.36177 -0.12655
 C156 C 0.74927 0.37598 -0.11904
 N157 N 0.75502 0.40036 -0.15387
 N158 N 0.77698 0.41021 -0.19459
 C159 C 0.56021 0.45382 -0.36700
 N160 N 0.54634 0.43988 -0.41769
 N161 N 0.53335 0.45203 -0.45127
 C162 C 0.53351 0.47849 -0.43550
 N163 N 0.54738 0.49219 -0.38448
 N164 N 0.56062 0.48027 -0.35119
 C165 C 0.57362 0.44019 -0.32840
 N166 N 0.59203 0.45711 -0.28364
 N167 N 0.60325 0.44463 -0.24673
 C168 C 0.59625 0.41466 -0.25281
 N169 N 0.57786 0.39767 -0.29768
 N170 N 0.56683 0.41026 -0.33497
 C171 C 0.60776 0.40094 -0.21015
 N172 N 0.59611 0.36971 -0.20733
 N173 N 0.60576 0.35751 -0.16643
 C174 C 0.62753 0.37616 -0.12720
 N175 N 0.63932 0.40734 -0.13051
 N176 N 0.62955 0.41948 -0.17103
 C177 C 0.89346 0.45253 0.36476
 N178 N 0.92006 0.47830 0.34840
 N179 N 0.94491 0.49019 0.38249
 C180 C 0.94420 0.47716 0.43487
 N181 N 0.91739 0.45133 0.45106
 N182 N 0.89255 0.43919 0.41671
 C183 C 0.86654 0.43912 0.32585
 N184 N 0.84265 0.40966 0.33371
 N185 N 0.81892 0.39731 0.29664
 C186 C 0.81817 0.41410 0.25074
 N187 N 0.84193 0.44361 0.24332
 N188 N 0.86573 0.45583 0.28000
 C189 C 0.79267 0.40063 0.20863
 N190 N 0.78974 0.41923 0.16912
 N191 N 0.76747 0.40725 0.12926
 C192 C 0.74739 0.37616 0.12705
 N193 N 0.75022 0.35747 0.16665
 N194 N 0.77241 0.36952 0.20689
 C195 C 0.55226 0.10617 0.36003
 N196 N 0.54833 0.10917 0.41745
 N197 N 0.53791 0.08472 0.45284
 C198 C 0.53187 0.05645 0.43301
 N199 N 0.53584 0.05378 0.37514
 N200 N 0.54564 0.07799 0.33940
 C201 C 0.56326 0.13278 0.32062
 N202 N 0.55150 0.12889 0.26614
 N203 N 0.56180 0.15291 0.22976
 C204 C 0.58463 0.18155 0.24623
 N205 N 0.59655 0.18542 0.30060
 N206 N 0.58580 0.16150 0.33740
 C207 C 0.59703 0.20747 0.20494
 N208 N 0.62788 0.22817 0.20291
 N209 N 0.63946 0.25057 0.16287
 C210 C 0.62050 0.25344 0.12426
 N211 N 0.58959 0.23303 0.12687
 N212 N 0.57809 0.21025 0.16618
 C213 C 0.54766 0.44324 0.36252
 N214 N 0.56584 0.46649 0.39972
 N215 N 0.55348 0.47838 0.43551
 C216 C 0.52246 0.46735 0.43566
 N217 N 0.50433 0.44425 0.39811
 N218 N 0.51668 0.43232 0.36240
 C219 C 0.56137 0.43080 0.32173
 N220 N 0.54307 0.40700 0.28563
 N221 N 0.55549 0.39623 0.24751
 C222 C 0.58669 0.40892 0.24396
 N223 N 0.60501 0.43266 0.28018
 N224 N 0.59257 0.44339 0.31841
 C225 C 0.60026 0.39748 0.20076
 N226 N 0.63145 0.41135 0.19404
 N227 N 0.64358 0.40128 0.15381
 C228 C 0.62494 0.37695 0.11895
 N229 N 0.59378 0.36304 0.12590
 N230 N 0.58167 0.37313 0.16599
 C231 C 0.10842 0.56001 0.36932
 N232 N 0.10448 0.53882 0.41059
 N233 N 0.07942 0.52628 0.44447
 C234 C 0.05738 0.53447 0.43833
 N235 N 0.06139 0.55567 0.39704
 N236 N 0.08650 0.56832 0.36339
 C237 C 0.13509 0.57269 0.32969
 N238 N 0.13986 0.59543 0.29141
 N239 N 0.16315 0.60608 0.25351
 C240 C 0.18245 0.59428 0.25220
 N241 N 0.17779 0.57160 0.29064
 N242 N 0.15455 0.56103 0.32879
 C243 C 0.20727 0.60545 0.20860
 N244 N 0.22462 0.59163 0.20166
 N245 N 0.24638 0.60139 0.16049
 C246 C 0.25154 0.62536 0.12496
 N247 N 0.23430 0.63922 0.13224
 N248 N 0.21254 0.62942 0.17316
 C249 C 0.45115 0.89314 0.36711
 N250 N 0.48221 0.91307 0.36632
 N251 N 0.49500 0.93791 0.40082
 C252 C 0.47723 0.94358 0.43784
 N253 N 0.44613 0.92370 0.43850
 N254 N 0.43333 0.89889 0.40385
 C255 C 0.43705 0.86652 0.32719
 N256 N 0.40578 0.84827 0.32338
 N257 N 0.39311 0.82485 0.28550
 C258 C 0.41127 0.81883 0.25019
 N259 N 0.44251 0.83697 0.25433
 N260 N 0.45516 0.86040 0.29204
 C261 C 0.39763 0.79374 0.20700
 N262 N 0.41627 0.78768 0.17326
 N263 N 0.40430 0.76564 0.13279
 C264 C 0.37322 0.74883 0.12434
 N265 N 0.35448 0.75476 0.15821
 N266 N 0.36649 0.77682 0.19887
 C267 C 0.44131 0.54929 0.36601
 N268 N 0.46449 0.56736 0.40330
 N269 N 0.47648 0.55481 0.43833
 C270 C 0.46565 0.52370 0.43757
 N271 N 0.44261 0.50567 0.39996
 N272 N 0.43056 0.51821 0.36504
 C273 C 0.42876 0.56318 0.32591
 N274 N 0.40476 0.54485 0.29039
 N275 N 0.39391 0.55739 0.25273
 C276 C 0.40671 0.58871 0.24903
 N277 N 0.43067 0.60708 0.28468
 N278 N 0.44147 0.59453 0.32251
 C279 C 0.39517 0.60228 0.20603
 N280 N 0.40927 0.63356 0.19822
 N281 N 0.39914 0.64554 0.15780
 C282 C 0.37452 0.62664 0.12388
 N283 N 0.36038 0.59543 0.13202
 N284 N 0.37053 0.58348 0.17225
   
