data_POSCAR
  _audit_creation_date              2014-09-24
  _audit_creation_method            'ToBaCCo'
  _symmetry_space_group_name_H-M    'P1'
  _symmetry_Int_Tables_number       1
  _symmetry_cell_setting            triclinic
  loop_
  _symmetry_equiv_pos_as_xyz
 x,y,z
_cell_length_a 29.6412
_cell_length_b 30.6998
_cell_length_c 25.8900
_cell_angle_alpha 92.039700
_cell_angle_beta 92.554600
_cell_angle_gamma 81.530700
loop_
  _atom_site_label
  _atom_site_type_symbol
  _atom_site_fract_x
  _atom_site_fract_y
  _atom_site_fract_z
C1 C 0.32518 0.27252 0.25062
 C2 C 0.31053 0.24196 0.28297
 C3 C 0.27286 0.25464 0.31254
 C4 C 0.24936 0.29753 0.31042
 C5 C 0.26315 0.32747 0.27805
 C6 C 0.30173 0.31503 0.24843
 C7 C 0.36109 0.27005 0.21806
 N8 N 0.36028 0.31008 0.19697
 C9 C 0.32409 0.33772 0.21522
 C10 C 0.23263 0.36584 0.28251
 N11 N 0.20149 0.35967 0.31744
 C12 C 0.21153 0.31816 0.33487
 C13 C 0.26567 0.21883 0.33956
 N14 N 0.29811 0.18449 0.32747
 C15 C 0.32592 0.19828 0.29299
 H16 H 0.38653 0.24157 0.21116
 H17 H 0.31474 0.37188 0.20520
 H18 H 0.23291 0.39590 0.26197
 H19 H 0.19193 0.30370 0.36226
 H20 H 0.23869 0.21798 0.36616
 H21 H 0.35479 0.17801 0.27594
 C22 C 0.65751 -0.23031 0.23522
 C23 C 0.68499 -0.21599 0.27571
 C24 C 0.72503 -0.24187 0.29177
 C25 C 0.73770 -0.28326 0.26711
 C26 C 0.71048 -0.29711 0.22661
 C27 C 0.67002 -0.27056 0.21077
 C28 C 0.61710 -0.21137 0.21220
 N29 N 0.60444 -0.23930 0.17418
 C30 C 0.63674 -0.27574 0.17308
 C31 C 0.73116 -0.33748 0.20899
 N32 N 0.77017 -0.34910 0.23790
 C33 C 0.77430 -0.31622 0.27383
 C34 C 0.74440 -0.21854 0.33162
 N35 N 0.71647 -0.17979 0.33979
 C36 C 0.68027 -0.17819 0.30569
 H37 H 0.59846 -0.17957 0.22284
 H38 H 0.63634 -0.30392 0.14683
 H39 H 0.71827 -0.35692 0.17752
 H40 H 0.80227 -0.31567 0.30207
 H41 H 0.77590 -0.22913 0.35339
 H42 H 0.65249 -0.15115 0.30242
 C43 C 0.78471 0.21359 0.77950
 C44 C 0.82177 0.18982 0.75455
 C45 C 0.86401 0.20382 0.75813
 C46 C 0.86913 0.24294 0.78620
 C47 C 0.83168 0.26790 0.80860
 C48 C 0.78931 0.25229 0.80661
 C49 C 0.74122 0.20493 0.78515
 N50 N 0.71911 0.23667 0.81661
 C51 C 0.74810 0.26635 0.82927
 C52 C 0.84576 0.30619 0.82842
 N53 N 0.89104 0.30412 0.82040
 C54 C 0.90571 0.26535 0.79528
 C55 C 0.89261 0.17522 0.72727
 N56 N 0.86801 0.14504 0.70495
 C57 C 0.82494 0.15351 0.72197
 H58 H 0.72794 0.17602 0.76955
 H59 H 0.74068 0.29495 0.85482
 H60 H 0.82477 0.33335 0.84754
 H61 H 0.93985 0.25532 0.78182
 H62 H 0.92759 0.17784 0.71908
 H63 H 0.79727 0.13560 0.70974
 C64 C 0.22515 -0.26552 0.70257
 C65 C 0.19955 -0.23254 0.67272
 C66 C 0.15664 -0.23834 0.65230
 C67 C 0.13906 -0.27749 0.66096
 C68 C 0.16497 -0.30999 0.68947
 C69 C 0.20820 -0.30430 0.70968
 C70 C 0.26534 -0.26747 0.73204
 N71 N 0.27318 -0.30692 0.75581
 C72 C 0.23858 -0.32978 0.74165
 C73 C 0.13884 -0.34236 0.69623
 N74 N 0.09727 -0.33081 0.67243
 C75 C 0.09721 -0.29130 0.64999
 C76 C 0.13915 -0.20048 0.62693
 N77 N 0.17067 -0.17244 0.63054
 C78 C 0.20762 -0.19165 0.65856
 H79 H 0.28665 -0.24172 0.73661
 H80 H 0.23397 -0.36137 0.75622
 H81 H 0.14926 -0.37166 0.71833
 H82 H 0.06830 -0.27277 0.62972
 H83 H 0.10630 -0.19414 0.60649
 H84 H 0.23802 -0.17685 0.66808
 C85 C 0.67861 -0.21155 0.77409
 C86 C 0.70938 -0.18585 0.75630
 C87 C 0.75568 -0.19998 0.76074
 C88 C 0.77166 -0.24032 0.78374
 C89 C 0.74111 -0.26683 0.79981
 C90 C 0.69389 -0.25160 0.79622
 C91 C 0.63238 -0.20295 0.77819
 N92 N 0.61852 -0.23598 0.80404
 C93 C 0.65592 -0.26635 0.81480
 C94 C 0.76672 -0.30464 0.81864
 N95 N 0.81163 -0.30043 0.81650
 C96 C 0.81485 -0.26108 0.79575
 C97 C 0.77702 -0.16843 0.73895
 N98 N 0.74435 -0.13558 0.72234
 C99 C 0.70299 -0.14579 0.73329
 H100 H 0.61120 -0.17300 0.76620
 H101 H 0.65600 -0.29582 0.83655
 H102 H 0.75373 -0.33230 0.83447
 H103 H 0.84640 -0.24897 0.78836
 H104 H 0.81336 -0.16950 0.73488
 H105 H 0.67046 -0.12630 0.72340
 C106 C 0.30756 0.27120 0.74845
 C107 C 0.29134 0.23816 0.71704
 C108 C 0.24954 0.24700 0.69072
 C109 C 0.22333 0.28870 0.69539
 C110 C 0.23933 0.32128 0.72624
 C111 C 0.28202 0.31263 0.75252
 C112 C 0.34619 0.27166 0.77987
 N113 N 0.34512 0.31254 0.80240
 C114 C 0.30598 0.33784 0.78563
 C115 C 0.20547 0.35718 0.72619
 N116 N 0.16949 0.34711 0.69604
 C117 C 0.18029 0.30539 0.67669
 C118 C 0.24223 0.20925 0.66362
 N119 N 0.27869 0.17766 0.67235
 C120 C 0.30889 0.19499 0.70520
 H121 H 0.37312 0.24416 0.78555
 H122 H 0.29491 0.37174 0.79751
 H123 H 0.20645 0.38788 0.74783
 H124 H 0.15771 0.28764 0.65288
 H125 H 0.21266 0.20538 0.63880
 H126 H 0.34139 0.17774 0.71910
 C127 C 0.21961 -0.25028 0.20667
 C128 C 0.19838 -0.21510 0.23707
 C129 C 0.15815 -0.21892 0.26028
 C130 C 0.13938 -0.25805 0.25469
 C131 C 0.16050 -0.29315 0.22549
 C132 C 0.20123 -0.28927 0.20128
 C133 C 0.25776 -0.25495 0.17770
 N134 N 0.26357 -0.29597 0.15516
 C135 C 0.22942 -0.31743 0.16991
 C136 C 0.13452 -0.32681 0.22811
 N137 N 0.09876 -0.31286 0.25887
 C138 C 0.10163 -0.27073 0.27494
 C139 C 0.14477 -0.18016 0.28712
 N140 N 0.17638 -0.15321 0.28154
 C141 C 0.20951 -0.17411 0.25120
 H142 H 0.27962 -0.23011 0.17352
 H143 H 0.22432 -0.35043 0.15741
 H144 H 0.14191 -0.35928 0.21008
 H145 H 0.07832 -0.25044 0.29995
 H146 H 0.11485 -0.17243 0.31014
 H147 H 0.23931 -0.16051 0.24038
 C148 C 0.79998 0.18219 0.20606
 C149 C 0.83302 0.15466 0.23455
 C150 C 0.87175 0.17025 0.25411
 C151 C 0.87733 0.21396 0.24635
 C152 C 0.84492 0.24162 0.21791
 C153 C 0.80541 0.22540 0.19736
 C154 C 0.75736 0.17610 0.18776
 N155 N 0.73596 0.21423 0.16782
 C156 C 0.76498 0.24480 0.17324
 C157 C 0.85765 0.28334 0.22267
 N158 N 0.89576 0.28135 0.25457
 C159 C 0.90786 0.23896 0.26866
 C160 C 0.89479 0.13863 0.28595
 N161 N 0.87036 0.10466 0.28659
 C162 C 0.83248 0.11414 0.25540
 H163 H 0.74274 0.14598 0.19003
 H164 H 0.75660 0.27892 0.16269
 H165 H 0.83849 0.31329 0.20762
 H166 H 0.93610 0.22696 0.29481
 H167 H 0.92478 0.14182 0.31041
 H168 H 0.80511 0.09435 0.25103
 O169 O 0.29238 0.01929 0.43798
 O170 O 0.24229 -0.05192 0.52458
 O171 O 0.24537 -0.04598 0.42451
 O172 O 0.28633 0.01635 0.53785
 O173 O 0.22077 0.06113 0.53539
 O174 O 0.18108 0.00072 0.42207
 O175 O 0.17698 -0.00682 0.52072
 O176 O 0.22781 0.06560 0.43666
 Cu177 Cu 0.27311 -0.02023 0.48169
 Cu178 Cu 0.19522 0.03474 0.47868
 C179 C 0.26868 0.05475 0.42295
 C180 C 0.20083 -0.04204 0.53638
 C181 C 0.20603 -0.03304 0.40420
 C182 C 0.26047 0.04990 0.55524
 O183 O 0.81982 0.04682 0.54552
 O184 O 0.75864 -0.02823 0.46780
 O185 O 0.76784 -0.00931 0.56446
 O186 O 0.81249 0.02805 0.44667
 O187 O 0.87393 -0.02185 0.45509
 O188 O 0.82626 -0.06296 0.57015
 O189 O 0.81860 -0.08026 0.47081
 O190 O 0.87953 -0.00494 0.55525
 Cu191 Cu 0.78393 0.01463 0.50481
 Cu192 Cu 0.85583 -0.04779 0.51297
 C193 C 0.85900 0.03357 0.56555
 C194 C 0.77734 -0.06700 0.45663
 C195 C 0.78921 -0.04255 0.58723
 C196 C 0.85109 0.01013 0.43133
 O197 O 0.50364 0.33312 0.05073
 O198 O 0.58409 0.29960 -0.05333
 O199 O 0.49813 0.33610 -0.04968
 O200 O 0.58951 0.29590 0.04726
 O201 O 0.56507 0.23123 0.04274
 O202 O 0.47678 0.27005 -0.05504
 O203 O 0.56094 0.23433 -0.05789
 O204 O 0.48077 0.26774 0.04531
 Cu205 Cu 0.54612 0.32283 -0.00074
 Cu206 Cu 0.51883 0.24425 -0.00665
 C207 C 0.47835 0.30628 0.06540
 C208 C 0.58596 0.26104 -0.07333
 C209 C 0.47206 0.30973 -0.06879
 C210 C 0.59233 0.25639 0.06159
 O211 O 0.49252 0.70576 0.02386
 O212 O 0.42113 0.66751 -0.08388
 O213 O 0.49662 0.70202 -0.07678
 O214 O 0.41780 0.66868 0.01615
 O215 O 0.37803 0.73545 0.01427
 O216 O 0.45446 0.76762 -0.07994
 O217 O 0.38047 0.73388 -0.08649
 O218 O 0.45153 0.77188 0.02033
 Cu219 Cu 0.46125 0.67928 -0.02968
 Cu220 Cu 0.41203 0.75885 -0.03302
 C221 C 0.48411 0.74553 0.04022
 C222 C 0.38887 0.69444 -0.10364
 C223 C 0.48820 0.74045 -0.09475
 C224 C 0.38453 0.69655 0.03090
 O225 O 0.02574 0.47525 0.34566
 O226 O -0.08682 0.53242 0.30312
 O227 O -0.05228 0.45040 0.32465
 O228 O -0.00818 0.55561 0.32383
 O229 O 0.01166 0.54224 0.24286
 O230 O -0.03603 0.43731 0.24253
 O231 O -0.06890 0.51885 0.22158
 O232 O 0.04374 0.46127 0.26420
 Cu233 Cu -0.03253 0.50469 0.33242
 Cu234 Cu -0.01079 0.48867 0.23444
 C235 C 0.05377 0.45833 0.31229
 C236 C -0.09661 0.53603 0.25513
 C237 C -0.05077 0.42554 0.28438
 C238 C 0.00948 0.56677 0.28353
 O239 O -0.03426 0.54747 0.70690
 O240 O -0.07425 0.45855 0.77683
 O241 O -0.09203 0.54647 0.77859
 O242 O -0.00964 0.46250 0.71218
 O243 O 0.04346 0.47232 0.77254
 O244 O -0.03762 0.55463 0.83771
 O245 O -0.01929 0.46266 0.83633
 O246 O 0.02009 0.55154 0.76745
 Cu247 Cu -0.05827 0.50284 0.73802
 Cu248 Cu 0.00473 0.51033 0.81183
 C249 C 0.00012 0.56413 0.72492
 C250 C -0.05143 0.44363 0.81656
 C251 C -0.07710 0.56686 0.81784
 C252 C 0.03112 0.45369 0.73089
 N253 N 0.43275 0.36222 0.12173
 N254 N 0.40083 0.36328 0.15600
 C255 C 0.39287 0.32178 0.16248
 C256 C 0.42062 0.29296 0.13100
 C257 C 0.44530 0.32012 0.10561
 H258 H 0.42210 0.25760 0.12651
 H259 H 0.44514 0.39001 0.10916
 H260 H 0.38519 0.39192 0.17461
 N261 N 0.50236 0.80181 0.10586
 N262 N 0.53630 0.80598 0.14392
 C263 C 0.56615 0.76830 0.14278
 C264 C 0.55208 0.73944 0.10480
 C265 C 0.51213 0.76175 0.08275
 H266 H 0.56858 0.70674 0.09419
 H267 H 0.47457 0.82593 0.09740
 H268 H 0.53756 0.83397 0.16769
 N269 N 0.61389 0.21047 -0.14526
 N270 N 0.65130 0.20382 -0.17672
 C271 C 0.67702 0.23580 -0.16446
 C272 C 0.65634 0.26390 -0.12612
 C273 C 0.61732 0.24639 -0.11488
 H274 H 0.66923 0.29153 -0.10654
 H275 H 0.58889 0.18983 -0.14465
 H276 H 0.65794 0.17735 -0.20300
 N277 N 0.35157 0.63808 -0.15336
 N278 N 0.31769 0.63808 -0.19247
 C279 C 0.30742 0.67971 -0.20898
 C280 C 0.33375 0.70695 -0.18123
 C281 C 0.36020 0.67975 -0.14635
 H282 H 0.33179 0.74231 -0.18345
 H283 H 0.36489 0.61098 -0.13132
 H284 H 0.30323 0.61042 -0.20529
 N285 N 0.10704 0.42020 0.37864
 N286 N 0.14638 0.39365 0.37995
 C287 C 0.16296 0.39057 0.33222
 C288 C 0.13301 0.41572 0.29873
 C289 C 0.09768 0.43372 0.32983
 H290 H 0.13494 0.41780 0.25726
 H291 H 0.08602 0.42707 0.41012
 H292 H 0.16070 0.37692 0.41255
 N293 N -0.00643 0.62503 0.66199
 N294 N 0.02122 0.65555 0.64804
 C295 C 0.06157 0.64602 0.67436
 C296 C 0.06059 0.61024 0.70534
 C297 C 0.01765 0.59839 0.69687
 H298 H 0.08693 0.59537 0.73219
 H299 H -0.04027 0.62473 0.64911
 H300 H 0.01145 0.68081 0.62210
 N301 N -0.16307 0.55313 0.19368
 N302 N -0.20119 0.58552 0.18934
 C303 C -0.19975 0.61329 0.23081
 C304 C -0.16196 0.59897 0.26277
 C305 C -0.14011 0.56138 0.23808
 H306 H -0.15081 0.61437 0.29838
 H307 H -0.15414 0.52770 0.16652
 H308 H -0.22448 0.58814 0.15778
 N309 N -0.02159 0.36891 0.84398
 N310 N -0.03730 0.32828 0.84083
 C311 C -0.08286 0.33615 0.83260
 C312 C -0.09730 0.38123 0.82960
 C313 C -0.05761 0.40047 0.83545
 H314 H -0.13089 0.39719 0.81733
 H315 H 0.01282 0.37289 0.84411
 H316 H -0.01656 0.29771 0.84213
 N317 N 0.33019 0.07496 0.36925
 N318 N 0.33790 0.10948 0.34359
 C319 C 0.30154 0.14118 0.34794
 C320 C 0.26924 0.12630 0.37718
 C321 C 0.28879 0.08418 0.38998
 H322 H 0.23658 0.14373 0.38847
 H323 H 0.35317 0.04587 0.37285
 H324 H 0.36784 0.11133 0.32454
 N325 N 0.92066 0.05706 0.62591
 N326 N 0.92293 0.08765 0.66307
 C327 C 0.88190 0.11314 0.66480
 C328 C 0.85270 0.09889 0.62714
 C329 C 0.87833 0.06323 0.60342
 H330 H 0.81680 0.11087 0.62030
 H331 H 0.94701 0.03160 0.61761
 H332 H 0.95111 0.08937 0.68834
 N333 N 0.13411 -0.07007 0.57177
 N334 N 0.12599 -0.10515 0.59596
 C335 C 0.16617 -0.13018 0.60733
 C336 C 0.20150 -0.11056 0.58956
 C337 C 0.17954 -0.07250 0.56687
 H338 H 0.23758 -0.12322 0.59054
 H339 H 0.10878 -0.04577 0.55728
 H340 H 0.09350 -0.11192 0.60375
 N341 N 0.70324 -0.08565 0.42315
 N342 N 0.68692 -0.11558 0.39304
 C343 C 0.72192 -0.14567 0.37796
 C344 C 0.76271 -0.13482 0.39991
 C345 C 0.74898 -0.09593 0.42798
 H346 H 0.79708 -0.15109 0.39387
 H347 H 0.68318 -0.05818 0.43944
 H348 H 0.65238 -0.11471 0.38258
 N349 N 0.50383 0.79023 -0.16223
 N350 N 0.54044 0.79665 -0.19134
 C351 C 0.57537 0.76469 -0.17952
 C352 C 0.56173 0.73676 -0.14389
 C353 C 0.51700 0.75452 -0.13363
 H354 H 0.58228 0.70928 -0.12510
 H355 H 0.47251 0.81088 -0.16187
 H356 H 0.53996 0.82284 -0.21603
 N357 N 0.41558 0.36708 -0.11145
 N358 N 0.37856 0.36746 -0.14685
 C359 C 0.37726 0.32547 -0.16341
 C360 C 0.41252 0.29772 -0.13920
 C361 C 0.43531 0.32492 -0.10676
 H362 H 0.41970 0.26218 -0.14278
 H363 H 0.42429 0.39459 -0.09061
 H364 H 0.35662 0.39569 -0.15778
 N365 N 0.34190 0.64318 0.07133
 N366 N 0.30633 0.64579 0.10548
 C367 C 0.29705 0.68818 0.12212
 C368 C 0.32547 0.71325 0.09910
 C369 C 0.35256 0.68407 0.06742
 H370 H 0.32540 0.74847 0.10296
 H371 H 0.35552 0.61481 0.05064
 H372 H 0.29059 0.61923 0.11558
 N373 N 0.62270 0.20244 0.12740
 N374 N 0.66037 0.19138 0.15577
 C375 C 0.68950 0.22002 0.14769
 C376 C 0.66922 0.25139 0.11304
 C377 C 0.62680 0.23845 0.10081
 H378 H 0.68414 0.27759 0.09657
 H379 H 0.59503 0.18486 0.12552
 H380 H 0.66592 0.16406 0.17933
 N381 N -0.08085 0.64261 0.85261
 N382 N -0.11171 0.68125 0.84855
 C383 C -0.15217 0.66989 0.83206
 C384 C -0.14836 0.62441 0.82461
 C385 C -0.10264 0.60873 0.83638
 H386 H -0.17347 0.60618 0.80599
 H387 H -0.04567 0.64161 0.85897
 H388 H -0.10351 0.71299 0.85485
 N389 N -0.04265 0.35427 0.32635
 N390 N -0.05578 0.31301 0.31675
 C391 C -0.08369 0.31567 0.27402
 C392 C -0.08833 0.35805 0.25479
 C393 C -0.06172 0.38086 0.28872
 H394 H -0.10748 0.37035 0.22045
 H395 H -0.02011 0.36200 0.35630
 H396 H -0.04651 0.28615 0.34052
 N397 N 0.05549 0.39468 0.66449
 N398 N 0.09252 0.36616 0.65541
 C399 C 0.12581 0.37417 0.69012
 C400 C 0.10951 0.40909 0.72260
 C401 C 0.06467 0.42096 0.70524
 H402 H 0.12678 0.42233 0.75598
 H403 H 0.02420 0.39506 0.64418
 H404 H 0.09434 0.34126 0.62673
 N405 N 0.01094 0.64290 0.31684
 N406 N 0.03569 0.67715 0.30940
 C407 C 0.06650 0.66314 0.27337
 C408 C 0.06162 0.62046 0.25633
 C409 C 0.02660 0.60919 0.28473
 H410 H 0.08157 0.59981 0.22838
 H411 H -0.01481 0.64375 0.34328
 H412 H 0.03147 0.70701 0.33040
 N413 N 0.73188 -0.03649 0.65493
 N414 N 0.72023 -0.06104 0.69148
 C415 C 0.75093 -0.09795 0.69406
 C416 C 0.78375 -0.09705 0.65785
 C417 C 0.76993 -0.05756 0.63343
 H418 H 0.81107 -0.12294 0.64764
 H419 H 0.71292 -0.00669 0.64362
 H420 H 0.69084 -0.05327 0.71272
 N421 N 0.14428 -0.04949 0.34204
 N422 N 0.13634 -0.08157 0.30915
 C423 C 0.17491 -0.11046 0.30559
 C424 C 0.20895 -0.09678 0.33783
 C425 C 0.18780 -0.05797 0.36066
 H426 H 0.24254 -0.11449 0.34694
 H427 H 0.11948 -0.02361 0.35355
 H428 H 0.10459 -0.08452 0.29132
 N429 N 0.91455 0.02397 0.37687
 N430 N 0.91975 0.04982 0.33842
 C431 C 0.87819 0.06955 0.32226
 C432 C 0.84518 0.05643 0.35170
 C433 C 0.86972 0.02775 0.38623
 H434 H 0.80900 0.06870 0.35086
 H435 H 0.94144 0.00614 0.39810
 H436 H 0.95118 0.05491 0.32490
 N437 N 0.31814 0.07035 0.62195
 N438 N 0.32293 0.10464 0.65312
 C439 C 0.28462 0.13420 0.64870
 C440 C 0.25410 0.11804 0.61372
 C441 C 0.27674 0.07760 0.59746
 H442 H 0.22117 0.13425 0.59972
 H443 H 0.34341 0.04325 0.61643
 H444 H 0.35248 0.10804 0.67543
   
