data_POSCAR
  _audit_creation_date              2014-09-24
  _audit_creation_method            'ToBaCCo'
  _symmetry_space_group_name_H-M    'P1'
  _symmetry_Int_Tables_number       1
  _symmetry_cell_setting            triclinic
  loop_
  _symmetry_equiv_pos_as_xyz
 x,y,z
_cell_length_a 53.9617
_cell_length_b 53.9615
_cell_length_c 44.5350
_cell_angle_alpha 89.974300
_cell_angle_beta 89.974200
_cell_angle_gamma 90.019400
loop_
  _atom_site_label
  _atom_site_type_symbol
  _atom_site_fract_x
  _atom_site_fract_y
  _atom_site_fract_z
O1 O -0.02394 0.29276 0.02874
 O2 O 0.02461 0.29273 -0.02955
 O3 O -0.02378 0.29276 -0.02972
 O4 O 0.02444 0.29279 0.02890
 O5 O 0.02435 0.25192 0.02888
 O6 O -0.02371 0.25189 -0.02961
 O7 O 0.02452 0.25189 -0.02943
 O8 O -0.02387 0.25189 0.02871
 Cu9 Cu 0.00033 0.29686 -0.00041
 Cu10 Cu 0.00032 0.24782 -0.00036
 C11 C -0.03228 0.27229 0.03863
 C12 C 0.03300 0.27227 -0.03944
 C13 C -0.03207 0.27229 -0.03961
 C14 C 0.03271 0.27233 0.03884
 O15 O 0.52398 0.79249 0.47062
 O16 O 0.47571 0.79252 0.52923
 O17 O 0.52410 0.79244 0.52908
 O18 O 0.47559 0.79251 0.47077
 O19 O 0.47562 0.75164 0.47084
 O20 O 0.52396 0.75157 0.52901
 O21 O 0.47572 0.75165 0.52916
 O22 O 0.52385 0.75162 0.47068
 Cu23 Cu 0.49985 0.79660 0.49993
 Cu24 Cu 0.49978 0.74754 0.49992
 C25 C 0.53225 0.77203 0.46070
 C26 C 0.46738 0.77206 0.53914
 C27 C 0.53240 0.77195 0.53894
 C28 C 0.46723 0.77206 0.46091
 O29 O 1.02485 0.70802 0.02914
 O30 O 0.97638 0.70798 -0.02920
 O31 O 1.02477 0.70797 -0.02932
 O32 O 0.97646 0.70801 0.02925
 O33 O 0.97657 0.74888 0.02913
 O34 O 1.02472 0.74880 -0.02932
 O35 O 0.97649 0.74885 -0.02920
 O36 O 1.02481 0.74885 0.02901
 Cu37 Cu 1.00061 0.70390 -0.00003
 Cu38 Cu 1.00065 0.75292 -0.00010
 C39 C 1.03325 0.72847 0.03903
 C40 C 0.96807 0.72845 -0.03910
 C41 C 1.03314 0.72841 -0.03932
 C42 C 0.96817 0.72849 0.03913
 O43 O 0.52400 0.20675 0.52954
 O44 O 0.47577 0.20665 0.47094
 O45 O 0.52415 0.20676 0.47109
 O46 O 0.47562 0.20669 0.52941
 O47 O 0.47564 0.24756 0.52929
 O48 O 0.52401 0.24763 0.47112
 O49 O 0.47579 0.24752 0.47097
 O50 O 0.52387 0.24762 0.52943
 Cu51 Cu 0.49989 0.20260 0.50025
 Cu52 Cu 0.49982 0.25167 0.50020
 C53 C 0.53226 0.22724 0.53943
 C54 C 0.46746 0.22710 0.46100
 C55 C 0.53245 0.22724 0.46120
 C56 C 0.46726 0.22715 0.53925
 O57 O 0.70718 0.02393 -0.02881
 O58 O 0.70721 -0.02462 0.02949
 O59 O 0.70718 0.02377 0.02964
 O60 O 0.70715 -0.02445 -0.02897
 O61 O 0.74802 -0.02437 -0.02895
 O62 O 0.74805 0.02369 0.02954
 O63 O 0.74804 -0.02453 0.02937
 O64 O 0.74805 0.02385 -0.02878
 Cu65 Cu 0.70308 -0.00034 0.00034
 Cu66 Cu 0.75212 -0.00034 0.00029
 C67 C 0.72765 0.03226 -0.03870
 C68 C 0.72766 -0.03301 0.03938
 C69 C 0.72766 0.03205 0.03954
 C70 C 0.72761 -0.03273 -0.03892
 O71 O 0.20738 0.52396 0.47070
 O72 O 0.20744 0.47569 0.52930
 O73 O 0.20739 0.52408 0.52916
 O74 O 0.20750 0.47557 0.47085
 O75 O 0.24837 0.47574 0.47092
 O76 O 0.24826 0.52408 0.52910
 O77 O 0.24831 0.47584 0.52925
 O78 O 0.24826 0.52398 0.47076
 Cu79 Cu 0.20332 0.49982 0.50000
 Cu80 Cu 0.25238 0.49992 0.50001
 C81 C 0.22784 0.53230 0.46078
 C82 C 0.22792 0.46743 0.53922
 C83 C 0.22784 0.53245 0.53903
 C84 C 0.22799 0.46728 0.46099
 O85 O 0.29193 1.02486 0.02914
 O86 O 0.29196 0.97638 -0.02921
 O87 O 0.29189 1.02478 -0.02932
 O88 O 0.29201 0.97647 0.02925
 O89 O 0.25114 0.97649 0.02926
 O90 O 0.25107 1.02464 -0.02919
 O91 O 0.25110 0.97640 -0.02907
 O92 O 0.25110 1.02472 0.02913
 Cu93 Cu 0.29605 1.00063 -0.00004
 Cu94 Cu 0.24703 1.00055 0.00004
 C95 C 0.27148 1.03321 0.03909
 C96 C 0.27150 0.96802 -0.03904
 C97 C 0.27143 1.03310 -0.03924
 C98 C 0.27156 0.96814 0.03920
 O99 O 0.79327 0.52421 0.52898
 O100 O 0.79319 0.47598 0.47039
 O101 O 0.79323 0.52436 0.47053
 O102 O 0.79319 0.47583 0.52884
 O103 O 0.75231 0.47595 0.52881
 O104 O 0.75236 0.52432 0.47064
 O105 O 0.75232 0.47609 0.47050
 O106 O 0.75240 0.52417 0.52896
 Cu107 Cu 0.79733 0.50009 0.49968
 Cu108 Cu 0.74826 0.50014 0.49973
 C109 C 0.77282 0.53251 0.53892
 C110 C 0.77271 0.46771 0.46050
 C111 C 0.77276 0.53271 0.46069
 C112 C 0.77271 0.46751 0.53873
 O113 O 0.24498 0.21060 0.24252
 O114 O 0.23277 0.26609 0.28832
 O115 O 0.21109 0.24476 0.24278
 O116 O 0.26668 0.23192 0.28807
 O117 O 0.28916 0.25439 0.25692
 O118 O 0.23357 0.26723 0.21162
 O119 O 0.25526 0.28855 0.25716
 O120 O 0.26747 0.23307 0.21137
 Cu121 Cu 0.23663 0.23609 0.26855
 Cu122 Cu 0.26362 0.26306 0.23114
 C123 C 0.25817 0.21236 0.21897
 C124 C 0.24206 0.28680 0.28070
 C125 C 0.21284 0.25805 0.21931
 C126 C 0.28741 0.24111 0.28038
 O127 O 0.75490 0.78947 0.24249
 O128 O 0.76757 0.73396 0.28809
 O129 O 0.78908 0.75559 0.24260
 O130 O 0.73339 0.76785 0.28800
 O131 O 0.71108 0.74528 0.25680
 O132 O 0.76678 0.73303 0.21139
 O133 O 0.74526 0.71141 0.25688
 O134 O 0.73259 0.76691 0.21129
 Cu135 Cu 0.76347 0.76398 0.26842
 Cu136 Cu 0.73669 0.73690 0.23097
 C137 C 0.74172 0.78767 0.21896
 C138 C 0.75844 0.71320 0.28042
 C139 C 0.78744 0.74235 0.21909
 C140 C 0.71272 0.75852 0.28031
 O141 O 0.74515 0.28891 0.25704
 O142 O 0.73259 0.23323 0.21178
 O143 O 0.71114 0.25483 0.25729
 O144 O 0.76660 0.26731 0.21152
 O145 O 0.78914 0.24495 0.24271
 O146 O 0.73367 0.23247 0.28848
 O147 O 0.75512 0.21087 0.24297
 O148 O 0.76769 0.26655 0.28822
 Cu149 Cu 0.73661 0.26331 0.23128
 Cu150 Cu 0.76366 0.23647 0.26872
 C151 C 0.75843 0.28724 0.28050
 C152 C 0.74185 0.21254 0.21951
 C153 C 0.71293 0.24166 0.28084
 C154 C 0.78734 0.25812 0.21916
 O155 O 0.21057 0.75504 0.24252
 O156 O 0.26607 0.76745 0.28822
 O157 O 0.24459 0.78911 0.24275
 O158 O 0.23205 0.73338 0.28801
 O159 O 0.25458 0.71105 0.25678
 O160 O 0.26711 0.76679 0.21151
 O161 O 0.28859 0.74513 0.25698
 O162 O 0.23309 0.73271 0.21129
 Cu163 Cu 0.23606 0.76348 0.26850
 Cu164 Cu 0.26309 0.73668 0.23101
 C165 C 0.21236 0.74191 0.21894
 C166 C 0.28680 0.75827 0.28055
 C167 C 0.25784 0.78747 0.21925
 C168 C 0.24132 0.71270 0.28028
 O169 O 0.76751 0.26631 0.71146
 O170 O 0.75502 0.21084 0.75721
 O171 O 0.73342 0.23229 0.71170
 O172 O 0.78910 0.24484 0.75696
 O173 O 0.76675 0.26738 0.78815
 O174 O 0.71107 0.25483 0.74289
 O175 O 0.73266 0.23337 0.78840
 O176 O 0.74515 0.28884 0.74265
 Cu177 Cu 0.76350 0.23631 0.73121
 Cu178 Cu 0.73667 0.26336 0.76865
 C179 C 0.75833 0.28705 0.71910
 C180 C 0.74184 0.21263 0.78077
 C181 C 0.71274 0.24156 0.71942
 C182 C 0.78743 0.25812 0.78043
 O183 O 0.28863 0.74516 0.74309
 O184 O 0.23299 0.73262 0.78850
 O185 O 0.25460 0.71111 0.74301
 O186 O 0.26701 0.76669 0.78855
 O187 O 0.24461 0.78913 0.75731
 O188 O 0.23219 0.73355 0.71178
 O189 O 0.21059 0.75506 0.75727
 O190 O 0.26623 0.76760 0.71185
 Cu191 Cu 0.26305 0.73665 0.76892
 Cu192 Cu 0.23616 0.76358 0.73142
 C193 C 0.28694 0.75837 0.71956
 C194 C 0.21229 0.74185 0.78080
 C195 C 0.24142 0.71284 0.71946
 C196 C 0.25778 0.78741 0.78086
 O197 O 0.21064 0.24491 0.75765
 O198 O 0.26616 0.23221 0.71209
 O199 O 0.24455 0.21076 0.75765
 O200 O 0.23226 0.26637 0.71211
 O201 O 0.25480 0.28874 0.74326
 O202 O 0.26710 0.23313 0.78880
 O203 O 0.28870 0.25458 0.74325
 O204 O 0.23318 0.26728 0.78881
 Cu205 Cu 0.23614 0.23632 0.73175
 Cu206 Cu 0.26320 0.26317 0.76915
 C207 C 0.21243 0.25813 0.78115
 C208 C 0.28691 0.24136 0.71974
 C209 C 0.25778 0.21244 0.78115
 C210 C 0.24157 0.28706 0.71976
 O211 O 0.74545 0.71095 0.74281
 O212 O 0.73264 0.76652 0.78814
 O213 O 0.71127 0.74483 0.74264
 O214 O 0.76683 0.73265 0.78830
 O215 O 0.78924 0.75515 0.75709
 O216 O 0.73368 0.76734 0.71143
 O217 O 0.75505 0.78903 0.75694
 O218 O 0.76786 0.73345 0.71160
 Cu219 Cu 0.73681 0.73648 0.76860
 Cu220 Cu 0.76370 0.76350 0.73114
 C221 C 0.75870 0.71271 0.71932
 C222 C 0.74180 0.78727 0.78043
 C223 C 0.71299 0.75803 0.71909
 C224 C 0.78752 0.74197 0.78064
 C225 C 0.27084 0.09068 0.10356
 C226 C 0.29339 0.08125 0.09311
 C227 C 0.29369 0.06206 0.07200
 C228 C 0.27133 0.05203 0.06093
 C229 C 0.24875 0.06158 0.07192
 C230 C 0.24856 0.08073 0.09302
 C231 C 0.27040 0.11095 0.12456
 C232 C 0.26954 0.12813 0.14183
 C233 C 0.26791 0.14886 0.16206
 C234 C 0.27905 0.17145 0.15454
 C235 C 0.27629 0.19201 0.17334
 C236 C 0.26228 0.19025 0.19992
 C237 C 0.25151 0.16733 0.20754
 C238 C 0.25430 0.14680 0.18869
 H239 H 0.31076 0.08885 0.10111
 H240 H 0.31145 0.05528 0.06420
 H241 H 0.23113 0.05443 0.06410
 H242 H 0.23098 0.08792 0.10094
 H243 H 0.28957 0.17326 0.13392
 H244 H 0.28482 0.20937 0.16681
 H245 H 0.24061 0.16535 0.22781
 H246 H 0.24553 0.12942 0.19469
 C247 C 0.77219 0.59079 0.60458
 C248 C 0.79476 0.58159 0.59384
 C249 C 0.79503 0.56241 0.57270
 C250 C 0.77269 0.55225 0.56202
 C251 C 0.75012 0.56148 0.57321
 C252 C 0.74990 0.58062 0.59432
 C253 C 0.77172 0.61107 0.62553
 C254 C 0.77081 0.62827 0.64275
 C255 C 0.76906 0.64904 0.66288
 C256 C 0.78006 0.67167 0.65526
 C257 C 0.77712 0.69229 0.67391
 C258 C 0.76306 0.69054 0.70046
 C259 C 0.75245 0.66758 0.70820
 C260 C 0.75542 0.64699 0.68950
 H261 H 0.81212 0.58937 0.60160
 H262 H 0.81271 0.55573 0.56453
 H263 H 0.73259 0.55407 0.56547
 H264 H 0.73232 0.58763 0.60246
 H265 H 0.79060 0.67348 0.63465
 H266 H 0.78552 0.70969 0.66730
 H267 H 0.74151 0.66560 0.72845
 H268 H 0.74676 0.62957 0.69556
 C269 C 0.72834 0.90948 0.10383
 C270 C 0.75062 0.91942 0.09323
 C271 C 0.75041 0.93859 0.07214
 C272 C 0.72782 0.94816 0.06121
 C273 C 0.70547 0.93813 0.07234
 C274 C 0.70578 0.91893 0.09346
 C275 C 0.72880 0.88919 0.12481
 C276 C 0.72972 0.87200 0.14207
 C277 C 0.73147 0.85124 0.16226
 C278 C 0.72050 0.82859 0.15468
 C279 C 0.72342 0.80800 0.17342
 C280 C 0.73741 0.80980 0.19999
 C281 C 0.74799 0.83279 0.20767
 C282 C 0.74505 0.85335 0.18890
 H283 H 0.76819 0.91221 0.10110
 H284 H 0.76802 0.94573 0.06427
 H285 H 0.68770 0.94494 0.06460
 H286 H 0.68841 0.91133 0.10151
 H287 H 0.71001 0.82674 0.13406
 H288 H 0.71504 0.79059 0.16685
 H289 H 0.75888 0.83480 0.22795
 H290 H 0.75368 0.87078 0.19493
 C291 C 0.22866 0.40907 0.60484
 C292 C 0.20607 0.41825 0.59415
 C293 C 0.20577 0.43746 0.57302
 C294 C 0.22809 0.44767 0.56231
 C295 C 0.25068 0.43845 0.57345
 C296 C 0.25093 0.41928 0.59456
 C297 C 0.22914 0.38876 0.62579
 C298 C 0.23004 0.37154 0.64301
 C299 C 0.23170 0.35075 0.66315
 C300 C 0.24537 0.35272 0.68974
 C301 C 0.24820 0.33213 0.70848
 C302 C 0.23741 0.30923 0.70082
 C303 C 0.22335 0.30756 0.67429
 C304 C 0.22055 0.32819 0.65559
 H305 H 0.18872 0.41044 0.60193
 H306 H 0.18807 0.44413 0.56489
 H307 H 0.26819 0.44589 0.56569
 H308 H 0.26852 0.41228 0.60265
 H309 H 0.25415 0.37008 0.69576
 H310 H 0.25914 0.33404 0.72873
 H311 H 0.21481 0.29022 0.66773
 H312 H 0.20999 0.32644 0.63501
 C313 C 0.90920 0.27153 0.10405
 C314 C 0.91941 0.24926 0.09379
 C315 C 0.93862 0.24952 0.07274
 C316 C 0.94788 0.27212 0.06162
 C317 C 0.93765 0.29444 0.07228
 C318 C 0.91841 0.29412 0.09336
 C319 C 0.88888 0.27102 0.12499
 C320 C 0.87167 0.27007 0.14222
 C321 C 0.85091 0.26830 0.16240
 C322 C 0.85299 0.25470 0.18903
 C323 C 0.83243 0.25176 0.20782
 C324 C 0.80947 0.26238 0.20015
 C325 C 0.80768 0.27638 0.17357
 C326 C 0.82827 0.27929 0.15482
 H327 H 0.91239 0.23167 0.10189
 H328 H 0.94607 0.23202 0.06502
 H329 H 0.94435 0.31213 0.06416
 H330 H 0.91060 0.31147 0.10111
 H331 H 0.87041 0.24605 0.19506
 H332 H 0.83444 0.24087 0.22810
 H333 H 0.79029 0.28479 0.16701
 H334 H 0.82644 0.28980 0.13421
 C335 C 0.40900 0.77141 0.60475
 C336 C 0.41915 0.74912 0.59446
 C337 C 0.43832 0.74934 0.57337
 C338 C 0.44761 0.77192 0.56223
 C339 C 0.43747 0.79426 0.57294
 C340 C 0.41826 0.79398 0.59405
 C341 C 0.38869 0.77096 0.62569
 C342 C 0.37146 0.77007 0.64290
 C343 C 0.35066 0.76840 0.66303
 C344 C 0.35265 0.75479 0.68967
 C345 C 0.33204 0.75192 0.70840
 C346 C 0.30913 0.76261 0.70066
 C347 C 0.30744 0.77663 0.67408
 C348 C 0.32808 0.77947 0.65540
 H349 H 0.41209 0.73154 0.60256
 H350 H 0.44571 0.73182 0.56561
 H351 H 0.44419 0.81194 0.56481
 H352 H 0.41050 0.81135 0.60183
 H353 H 0.37003 0.74608 0.69575
 H354 H 0.33397 0.74101 0.72868
 H355 H 0.29009 0.78509 0.66747
 H356 H 0.32632 0.78998 0.63478
 C357 C 0.09070 0.72910 0.10354
 C358 C 0.08080 0.75139 0.09292
 C359 C 0.06166 0.75120 0.07181
 C360 C 0.05207 0.72862 0.06088
 C361 C 0.06204 0.70626 0.07202
 C362 C 0.08122 0.70655 0.09315
 C363 C 0.11095 0.72954 0.12455
 C364 C 0.12812 0.73040 0.14183
 C365 C 0.14885 0.73204 0.16206
 C366 C 0.14676 0.74558 0.18874
 C367 C 0.16729 0.74840 0.20757
 C368 C 0.19024 0.73773 0.19992
 C369 C 0.19203 0.72378 0.17330
 C370 C 0.17147 0.72099 0.15451
 H371 H 0.08803 0.76896 0.10080
 H372 H 0.05455 0.76881 0.06393
 H373 H 0.05522 0.68850 0.06428
 H374 H 0.08878 0.68918 0.10121
 H375 H 0.12936 0.75428 0.19475
 H376 H 0.16529 0.75925 0.22787
 H377 H 0.20941 0.71534 0.16675
 H378 H 0.17331 0.71053 0.13387
 C379 C 0.59059 0.22808 0.60501
 C380 C 0.58036 0.25034 0.59473
 C381 C 0.56120 0.25005 0.57364
 C382 C 0.55200 0.22744 0.56251
 C383 C 0.56223 0.20513 0.57323
 C384 C 0.58143 0.20548 0.59433
 C385 C 0.61090 0.22861 0.62592
 C386 C 0.62814 0.22956 0.64308
 C387 C 0.64896 0.23132 0.66314
 C388 C 0.67152 0.22022 0.65552
 C389 C 0.69218 0.22313 0.67412
 C390 C 0.69053 0.23727 0.70060
 C391 C 0.66763 0.24800 0.70833
 C392 C 0.64700 0.24505 0.68969
 H393 H 0.58734 0.26794 0.60282
 H394 H 0.55375 0.26754 0.56588
 H395 H 0.55558 0.18743 0.56510
 H396 H 0.58925 0.18814 0.60211
 H397 H 0.67326 0.20961 0.63497
 H398 H 0.70953 0.21464 0.66752
 H399 H 0.66573 0.25899 0.72854
 H400 H 0.62963 0.25379 0.69575
 C401 C 0.72842 0.09078 0.89588
 C402 C 0.70583 0.08157 0.90657
 C403 C 0.70551 0.06233 0.92764
 C404 C 0.72783 0.05210 0.93831
 C405 C 0.75042 0.06136 0.92719
 C406 C 0.75069 0.08056 0.90613
 C407 C 0.72893 0.11109 0.87493
 C408 C 0.72989 0.12830 0.85770
 C409 C 0.73165 0.14906 0.83752
 C410 C 0.72067 0.17170 0.84510
 C411 C 0.72358 0.19229 0.82635
 C412 C 0.73758 0.19050 0.79977
 C413 C 0.74820 0.16754 0.79210
 C414 C 0.74526 0.14698 0.81089
 H415 H 0.68848 0.08938 0.89881
 H416 H 0.68781 0.05563 0.93576
 H417 H 0.76793 0.05391 0.93491
 H418 H 0.76828 0.08758 0.89804
 H419 H 0.71016 0.17354 0.86571
 H420 H 0.71517 0.20969 0.83291
 H421 H 0.75909 0.16553 0.77182
 H422 H 0.75391 0.12956 0.80486
 C423 C 0.22844 0.59062 0.39509
 C424 C 0.20588 0.58135 0.40580
 C425 C 0.20561 0.56217 0.42695
 C426 C 0.22797 0.55205 0.43767
 C427 C 0.25053 0.56135 0.42652
 C428 C 0.25074 0.58050 0.40540
 C429 C 0.22887 0.61091 0.37413
 C430 C 0.22974 0.62813 0.35690
 C431 C 0.23138 0.64893 0.33676
 C432 C 0.22022 0.67148 0.34436
 C433 C 0.22302 0.69212 0.32569
 C434 C 0.23711 0.69049 0.29915
 C435 C 0.24788 0.66761 0.29144
 C436 C 0.24504 0.64699 0.31015
 H437 H 0.18850 0.58909 0.39801
 H438 H 0.18794 0.55543 0.43508
 H439 H 0.26806 0.55399 0.43429
 H440 H 0.26831 0.58757 0.39729
 H441 H 0.20966 0.67320 0.36495
 H442 H 0.21450 0.70945 0.33228
 H443 H 0.25884 0.66572 0.27119
 H444 H 0.25383 0.62964 0.30411
 C445 C 0.27080 0.90946 0.89563
 C446 C 0.24852 0.91963 0.90592
 C447 C 0.24876 0.93886 0.92693
 C448 C 0.27134 0.94818 0.93798
 C449 C 0.29368 0.93800 0.92727
 C450 C 0.29338 0.91874 0.90624
 C451 C 0.27033 0.88911 0.87475
 C452 C 0.26942 0.87188 0.85757
 C453 C 0.26773 0.85108 0.83745
 C454 C 0.25415 0.85309 0.81080
 C455 C 0.25130 0.83250 0.79206
 C456 C 0.26197 0.80957 0.79980
 C457 C 0.27595 0.80786 0.82639
 C458 C 0.27878 0.82848 0.84508
 H459 H 0.23093 0.91257 0.89789
 H460 H 0.23125 0.94627 0.93469
 H461 H 0.31136 0.94474 0.93533
 H462 H 0.31074 0.91096 0.89846
 H463 H 0.24546 0.87048 0.80471
 H464 H 0.24042 0.83445 0.77177
 H465 H 0.28440 0.79049 0.83301
 H466 H 0.28927 0.82670 0.86571
 C467 C 0.77189 0.40939 0.39491
 C468 C 0.74963 0.41961 0.40519
 C469 C 0.74991 0.43876 0.42628
 C470 C 0.77251 0.44797 0.43742
 C471 C 0.79483 0.43775 0.42670
 C472 C 0.79449 0.41856 0.40559
 C473 C 0.77137 0.38907 0.37401
 C474 C 0.77042 0.37184 0.35684
 C475 C 0.76867 0.35102 0.33678
 C476 C 0.75494 0.35298 0.31023
 C477 C 0.75199 0.33235 0.29159
 C478 C 0.76272 0.30945 0.29932
 C479 C 0.77685 0.30779 0.32580
 C480 C 0.77977 0.32845 0.34440
 H481 H 0.73203 0.41262 0.39711
 H482 H 0.73241 0.44621 0.43404
 H483 H 0.81253 0.44441 0.43483
 H484 H 0.81183 0.41074 0.39782
 H485 H 0.74620 0.37035 0.30417
 H486 H 0.74100 0.33425 0.27138
 H487 H 0.78534 0.29045 0.33240
 H488 H 0.79037 0.32672 0.36495
 C489 C 0.09055 0.27158 0.89616
 C490 C 0.08059 0.24931 0.90675
 C491 C 0.06141 0.24952 0.92782
 C492 C 0.05184 0.27211 0.93874
 C493 C 0.06187 0.29446 0.92761
 C494 C 0.08110 0.29415 0.90652
 C495 C 0.11085 0.27111 0.87520
 C496 C 0.12806 0.27018 0.85796
 C497 C 0.14882 0.26843 0.83779
 C498 C 0.14674 0.25482 0.81118
 C499 C 0.16731 0.25186 0.79242
 C500 C 0.19029 0.26245 0.80010
 C501 C 0.19207 0.27648 0.82665
 C502 C 0.17147 0.27941 0.84537
 H503 H 0.08780 0.23173 0.89888
 H504 H 0.05426 0.23191 0.93568
 H505 H 0.05507 0.31223 0.93535
 H506 H 0.08871 0.31151 0.89848
 H507 H 0.12931 0.24617 0.80515
 H508 H 0.16531 0.24095 0.77216
 H509 H 0.20948 0.28487 0.83322
 H510 H 0.17330 0.28992 0.86597
 C511 C 0.59061 0.77132 0.39508
 C512 C 0.58141 0.79390 0.40578
 C513 C 0.56221 0.79420 0.42690
 C514 C 0.55201 0.77187 0.43761
 C515 C 0.56125 0.74928 0.42647
 C516 C 0.58041 0.74905 0.40536
 C517 C 0.61092 0.77086 0.37414
 C518 C 0.62815 0.76998 0.35693
 C519 C 0.64896 0.76833 0.33682
 C520 C 0.67150 0.77952 0.34440
 C521 C 0.69215 0.77674 0.32573
 C522 C 0.69052 0.76266 0.29921
 C523 C 0.66765 0.75184 0.29152
 C524 C 0.64703 0.75465 0.31023
 H525 H 0.58921 0.81126 0.39800
 H526 H 0.55553 0.81189 0.43503
 H527 H 0.55382 0.73177 0.43423
 H528 H 0.58743 0.73146 0.39726
 H529 H 0.67322 0.79010 0.36498
 H530 H 0.70947 0.78530 0.33231
 H531 H 0.66577 0.74088 0.27128
 H532 H 0.62969 0.74585 0.30420
 C533 C 0.90952 0.72915 0.89555
 C534 C 0.91875 0.70657 0.90623
 C535 C 0.93801 0.70627 0.92727
 C536 C 0.94823 0.72860 0.93791
 C537 C 0.93895 0.75119 0.92680
 C538 C 0.91974 0.75143 0.90578
 C539 C 0.88919 0.72962 0.87465
 C540 C 0.87195 0.73051 0.85746
 C541 C 0.85116 0.73218 0.83733
 C542 C 0.82859 0.72105 0.84493
 C543 C 0.80798 0.72383 0.82621
 C544 C 0.80968 0.73785 0.79963
 C545 C 0.83258 0.74861 0.79193
 C546 C 0.85316 0.74580 0.81069
 H547 H 0.91094 0.68921 0.89849
 H548 H 0.94471 0.68858 0.93538
 H549 H 0.94640 0.76870 0.93451
 H550 H 0.91271 0.76901 0.89770
 H551 H 0.82682 0.71052 0.86554
 H552 H 0.79063 0.71531 0.83279
 H553 H 0.83452 0.75951 0.77165
 H554 H 0.87054 0.75456 0.80464
 C555 C 0.40924 0.22769 0.39527
 C556 C 0.41845 0.20513 0.40602
 C557 C 0.43760 0.20486 0.42719
 C558 C 0.44774 0.22721 0.43789
 C559 C 0.43850 0.24978 0.42669
 C560 C 0.41938 0.24999 0.40555
 C561 C 0.38899 0.22814 0.37428
 C562 C 0.37180 0.22905 0.35703
 C563 C 0.35105 0.23077 0.33687
 C564 C 0.32844 0.21972 0.34444
 C565 C 0.30783 0.22265 0.32576
 C566 C 0.30958 0.23675 0.29925
 C567 C 0.33253 0.24742 0.29156
 C568 C 0.35311 0.24445 0.31028
 H569 H 0.41069 0.18776 0.39824
 H570 H 0.44429 0.18719 0.43536
 H571 H 0.44588 0.26731 0.43444
 H572 H 0.41237 0.26756 0.39740
 H573 H 0.32663 0.20915 0.36502
 H574 H 0.29044 0.21421 0.33234
 H575 H 0.33450 0.25838 0.27133
 H576 H 0.37051 0.25316 0.30426
 C577 C 0.72829 0.90908 0.89532
 C578 C 0.70571 0.91825 0.90608
 C579 C 0.70542 0.93739 0.92726
 C580 C 0.72776 0.94756 0.93796
 C581 C 0.75034 0.93836 0.92676
 C582 C 0.75057 0.91925 0.90561
 C583 C 0.72877 0.88883 0.87433
 C584 C 0.72970 0.87165 0.85708
 C585 C 0.73144 0.85090 0.83692
 C586 C 0.74511 0.85296 0.81033
 C587 C 0.74808 0.83238 0.79160
 C588 C 0.73744 0.80943 0.79931
 C589 C 0.72336 0.80766 0.82583
 C590 C 0.72041 0.82827 0.84451
 H591 H 0.68836 0.91046 0.89830
 H592 H 0.68774 0.94405 0.93543
 H593 H 0.76785 0.94577 0.93451
 H594 H 0.76816 0.91226 0.89746
 H595 H 0.75379 0.87038 0.80429
 H596 H 0.75903 0.83437 0.77136
 H597 H 0.71493 0.79027 0.83241
 H598 H 0.70986 0.82645 0.86510
 C599 C 0.22887 0.40872 0.39567
 C600 C 0.20626 0.41790 0.40632
 C601 C 0.20591 0.43716 0.42735
 C602 C 0.22821 0.44743 0.43803
 C603 C 0.25082 0.43820 0.42695
 C604 C 0.25112 0.41898 0.40594
 C605 C 0.22941 0.38838 0.37478
 C606 C 0.23037 0.37116 0.35758
 C607 C 0.23211 0.35038 0.33744
 C608 C 0.24575 0.35242 0.31083
 C609 C 0.24862 0.33186 0.29205
 C610 C 0.23790 0.30893 0.29971
 C611 C 0.22386 0.30718 0.32627
 C612 C 0.22102 0.32777 0.34501
 H613 H 0.18893 0.41006 0.39855
 H614 H 0.18820 0.44384 0.43543
 H615 H 0.26831 0.44568 0.43468
 H616 H 0.26873 0.41198 0.39788
 H617 H 0.25448 0.36981 0.30480
 H618 H 0.25954 0.33383 0.27179
 H619 H 0.21537 0.28981 0.33283
 H620 H 0.21048 0.32597 0.36560
 C621 C 0.27071 0.09049 0.89614
 C622 C 0.24844 0.08054 0.90675
 C623 C 0.24866 0.06140 0.92788
 C624 C 0.27126 0.05188 0.93884
 C625 C 0.29360 0.06189 0.92769
 C626 C 0.29328 0.08107 0.90653
 C627 C 0.27025 0.11077 0.87516
 C628 C 0.26936 0.12798 0.85792
 C629 C 0.26769 0.14876 0.83776
 C630 C 0.25401 0.14678 0.81119
 C631 C 0.25117 0.16738 0.79244
 C632 C 0.26195 0.19027 0.80009
 C633 C 0.27604 0.19195 0.82660
 C634 C 0.27885 0.17132 0.84531
 H635 H 0.23086 0.08773 0.89886
 H636 H 0.23105 0.05426 0.93577
 H637 H 0.31137 0.05512 0.93545
 H638 H 0.31064 0.08868 0.89848
 H639 H 0.24522 0.12942 0.80518
 H640 H 0.24021 0.16546 0.77221
 H641 H 0.28458 0.20928 0.83315
 H642 H 0.28942 0.17308 0.86588
 C643 C 0.77202 0.59125 0.39529
 C644 C 0.74975 0.58104 0.40558
 C645 C 0.75001 0.56183 0.42662
 C646 C 0.77260 0.55255 0.43770
 C647 C 0.79493 0.56278 0.42700
 C648 C 0.79461 0.58203 0.40594
 C649 C 0.77152 0.61158 0.37438
 C650 C 0.77056 0.62881 0.35717
 C651 C 0.76878 0.64959 0.33702
 C652 C 0.77971 0.67225 0.34464
 C653 C 0.77676 0.69285 0.32594
 C654 C 0.76277 0.69106 0.29936
 C655 C 0.75222 0.66807 0.29165
 C656 C 0.75519 0.64750 0.31039
 H657 H 0.73216 0.58806 0.39752
 H658 H 0.73250 0.55438 0.43437
 H659 H 0.81262 0.55607 0.43508
 H660 H 0.81196 0.58984 0.39816
 H661 H 0.79020 0.67409 0.36525
 H662 H 0.78512 0.71027 0.33253
 H663 H 0.74133 0.66606 0.27137
 H664 H 0.74659 0.63006 0.30433
 C665 C 0.09044 0.72896 0.89595
 C666 C 0.08098 0.70642 0.90644
 C667 C 0.06184 0.70616 0.92764
 C668 C 0.05189 0.72853 0.93875
 C669 C 0.06145 0.75110 0.92770
 C670 C 0.08055 0.75126 0.90652
 C671 C 0.11068 0.72936 0.87492
 C672 C 0.12787 0.73022 0.85764
 C673 C 0.14862 0.73186 0.83744
 C674 C 0.17120 0.72074 0.84500
 C675 C 0.19181 0.72356 0.82628
 C676 C 0.19011 0.73762 0.79973
 C677 C 0.16720 0.74834 0.79205
 C678 C 0.14662 0.74549 0.81082
 H679 H 0.08854 0.68904 0.89842
 H680 H 0.05504 0.68840 0.93547
 H681 H 0.05436 0.76872 0.93555
 H682 H 0.08777 0.76882 0.89856
 H683 H 0.17297 0.71021 0.86561
 H684 H 0.20916 0.71507 0.83285
 H685 H 0.16526 0.75928 0.77179
 H686 H 0.12925 0.75424 0.80480
 C687 C 0.59101 0.22810 0.39582
 C688 C 0.58183 0.20550 0.40651
 C689 C 0.56257 0.20514 0.42756
 C690 C 0.55230 0.22745 0.43822
 C691 C 0.56153 0.25006 0.42710
 C692 C 0.58074 0.25035 0.40607
 C693 C 0.61134 0.22865 0.37491
 C694 C 0.62856 0.22963 0.35770
 C695 C 0.64934 0.23142 0.33755
 C696 C 0.67198 0.22045 0.34514
 C697 C 0.69258 0.22338 0.32641
 C698 C 0.69080 0.23739 0.29983
 C699 C 0.66783 0.24799 0.29215
 C700 C 0.64726 0.24503 0.31092
 H701 H 0.58967 0.18816 0.39876
 H702 H 0.55590 0.18744 0.43568
 H703 H 0.55404 0.26755 0.43481
 H704 H 0.58774 0.26796 0.39797
 H705 H 0.67381 0.20993 0.36575
 H706 H 0.70998 0.21498 0.33298
 H707 H 0.66583 0.25889 0.27187
 H708 H 0.62984 0.25367 0.30488
 C709 C 0.90960 0.27153 0.89481
 C710 C 0.91981 0.24926 0.90509
 C711 C 0.93897 0.24952 0.92617
 C712 C 0.94819 0.27211 0.93730
 C713 C 0.93800 0.29444 0.92659
 C714 C 0.91880 0.29412 0.90549
 C715 C 0.88928 0.27103 0.87391
 C716 C 0.87204 0.27009 0.85675
 C717 C 0.85123 0.26834 0.83669
 C718 C 0.85318 0.25463 0.81014
 C719 C 0.83255 0.25168 0.79150
 C720 C 0.80964 0.26240 0.79924
 C721 C 0.80799 0.27653 0.82573
 C722 C 0.82866 0.27944 0.84432
 H723 H 0.91280 0.23167 0.89700
 H724 H 0.94640 0.23201 0.93393
 H725 H 0.94467 0.31213 0.93472
 H726 H 0.91099 0.31147 0.89771
 H727 H 0.87055 0.24589 0.80407
 H728 H 0.83444 0.24070 0.77129
 H729 H 0.79065 0.28501 0.83234
 H730 H 0.82693 0.29003 0.86488
 C731 C 0.40869 0.77138 0.39555
 C732 C 0.41888 0.74910 0.40582
 C733 C 0.43809 0.74933 0.42684
 C734 C 0.44739 0.77191 0.43793
 C735 C 0.43720 0.79425 0.42726
 C736 C 0.41795 0.79396 0.40621
 C737 C 0.38837 0.77091 0.37464
 C738 C 0.37115 0.77000 0.35743
 C739 C 0.35038 0.76829 0.33727
 C740 C 0.35246 0.75474 0.31060
 C741 C 0.33190 0.75186 0.29183
 C742 C 0.30894 0.76248 0.29954
 C743 C 0.30716 0.77643 0.32615
 C744 C 0.32775 0.77928 0.34489
 H745 H 0.41183 0.73152 0.39775
 H746 H 0.44551 0.73182 0.43457
 H747 H 0.44392 0.81193 0.43535
 H748 H 0.41016 0.81132 0.39845
 H749 H 0.36987 0.74609 0.30454
 H750 H 0.33389 0.74101 0.27152
 H751 H 0.28977 0.78483 0.33275
 H752 H 0.32592 0.78974 0.36553
 C753 C 0.27095 0.90972 0.10475
 C754 C 0.29352 0.91896 0.09402
 C755 C 0.29379 0.93818 0.07292
 C756 C 0.27144 0.94836 0.06227
 C757 C 0.24887 0.93908 0.07345
 C758 C 0.24866 0.91990 0.09452
 C759 C 0.27050 0.88938 0.12565
 C760 C 0.26961 0.87213 0.14283
 C761 C 0.26792 0.85130 0.16291
 C762 C 0.27904 0.82874 0.15526
 C763 C 0.27618 0.80807 0.17388
 C764 C 0.26209 0.80969 0.20042
 C765 C 0.25136 0.83259 0.20818
 C766 C 0.25425 0.85323 0.18951
 H767 H 0.31089 0.91117 0.10175
 H768 H 0.31146 0.94490 0.06476
 H769 H 0.23135 0.94650 0.06574
 H770 H 0.23109 0.91285 0.10265
 H771 H 0.28960 0.82703 0.13467
 H772 H 0.28467 0.79073 0.16725
 H773 H 0.24041 0.83446 0.22843
 H774 H 0.24550 0.87058 0.19560
 C775 C 0.77187 0.40897 0.60411
 C776 C 0.74962 0.41922 0.59387
 C777 C 0.74991 0.43843 0.57284
 C778 C 0.77251 0.44767 0.56172
 C779 C 0.79482 0.43741 0.57237
 C780 C 0.79448 0.41816 0.59343
 C781 C 0.77134 0.38864 0.62503
 C782 C 0.77036 0.37141 0.64224
 C783 C 0.76857 0.35064 0.66239
 C784 C 0.75496 0.35272 0.68902
 C785 C 0.75200 0.33215 0.70779
 C786 C 0.76260 0.30918 0.70010
 C787 C 0.77661 0.30739 0.67353
 C788 C 0.77954 0.32800 0.65480
 H789 H 0.73202 0.41222 0.60196
 H790 H 0.73241 0.44591 0.56512
 H791 H 0.81252 0.44409 0.56425
 H792 H 0.81181 0.41032 0.60117
 H793 H 0.74633 0.37014 0.69506
 H794 H 0.74111 0.33415 0.72807
 H795 H 0.78500 0.29000 0.66695
 H796 H 0.79005 0.32616 0.63419
 C797 C 0.72842 0.09037 0.10513
 C798 C 0.75069 0.08017 0.09485
 C799 C 0.75042 0.06101 0.07376
 C800 C 0.72783 0.05179 0.06263
 C801 C 0.70551 0.06199 0.07334
 C802 C 0.70583 0.08118 0.09445
 C803 C 0.72892 0.11069 0.12602
 C804 C 0.72986 0.12793 0.14319
 C805 C 0.73161 0.14875 0.16325
 C806 C 0.72052 0.17132 0.15561
 C807 C 0.72343 0.19198 0.17421
 C808 C 0.73756 0.19033 0.20069
 C809 C 0.74828 0.16743 0.20844
 C810 C 0.74533 0.14680 0.18980
 H811 H 0.76828 0.08718 0.10294
 H812 H 0.76793 0.05358 0.06600
 H813 H 0.68781 0.05531 0.06521
 H814 H 0.68848 0.08899 0.10222
 H815 H 0.70992 0.17305 0.13506
 H816 H 0.71495 0.20933 0.16760
 H817 H 0.75926 0.16553 0.22865
 H818 H 0.75406 0.12943 0.19587
 C819 C 0.22846 0.59093 0.60447
 C820 C 0.20589 0.58166 0.59380
 C821 C 0.20562 0.56244 0.57272
 C822 C 0.22797 0.55227 0.56203
 C823 C 0.25054 0.56159 0.57313
 C824 C 0.25075 0.58077 0.59418
 C825 C 0.22892 0.61123 0.62541
 C826 C 0.22981 0.62844 0.64263
 C827 C 0.23148 0.64921 0.66280
 C828 C 0.22040 0.67181 0.65521
 C829 C 0.22322 0.69241 0.67394
 C830 C 0.23723 0.69068 0.70051
 C831 C 0.24793 0.66776 0.70819
 C832 C 0.24508 0.64719 0.68943
 H833 H 0.18853 0.58943 0.60157
 H834 H 0.18794 0.55570 0.56462
 H835 H 0.26806 0.55419 0.56539
 H836 H 0.26833 0.58783 0.60226
 H837 H 0.20989 0.67360 0.63460
 H838 H 0.21475 0.70977 0.66736
 H839 H 0.25883 0.66580 0.72847
 H840 H 0.25380 0.62980 0.69547
 C841 C 0.90972 0.72927 0.10463
 C842 C 0.91995 0.75153 0.09434
 C843 C 0.93915 0.75127 0.07329
 C844 C 0.94839 0.72867 0.06219
 C845 C 0.93816 0.70635 0.07290
 C846 C 0.91892 0.70667 0.09398
 C847 C 0.88936 0.72977 0.12550
 C848 C 0.87210 0.73069 0.14266
 C849 C 0.85126 0.73239 0.16272
 C850 C 0.85318 0.74609 0.18929
 C851 C 0.83254 0.74895 0.20796
 C852 C 0.80966 0.73817 0.20023
 C853 C 0.80804 0.72408 0.17371
 C854 C 0.82871 0.72124 0.15509
 H855 H 0.91293 0.76913 0.10240
 H856 H 0.94660 0.76877 0.06553
 H857 H 0.94485 0.68866 0.06480
 H858 H 0.91110 0.68933 0.10175
 H859 H 0.87053 0.75486 0.19536
 H860 H 0.83441 0.75991 0.22819
 H861 H 0.79071 0.71555 0.16711
 H862 H 0.82700 0.71067 0.13452
 C863 C 0.40878 0.22785 0.60472
 C864 C 0.41801 0.20527 0.59407
 C865 C 0.43724 0.20497 0.57298
 C866 C 0.44743 0.22730 0.56226
 C867 C 0.43815 0.24989 0.57335
 C868 C 0.41896 0.25013 0.59441
 C869 C 0.38847 0.22834 0.62568
 C870 C 0.37127 0.22929 0.64291
 C871 C 0.35051 0.23105 0.66309
 C872 C 0.32786 0.22007 0.65553
 C873 C 0.30726 0.22300 0.67425
 C874 C 0.30905 0.23704 0.70079
 C875 C 0.33203 0.24764 0.70846
 C876 C 0.35259 0.24468 0.68969
 H877 H 0.41022 0.18791 0.60187
 H878 H 0.44395 0.18728 0.56489
 H879 H 0.44558 0.26740 0.56558
 H880 H 0.41193 0.26772 0.60248
 H881 H 0.32602 0.20954 0.63493
 H882 H 0.28986 0.21461 0.66769
 H883 H 0.33403 0.25856 0.72871
 H884 H 0.37002 0.25333 0.69571
 C885 C 0.09095 0.27163 0.10455
 C886 C 0.08178 0.29421 0.09380
 C887 C 0.06262 0.29451 0.07264
 C888 C 0.05243 0.27218 0.06195
 C889 C 0.06164 0.24959 0.07315
 C890 C 0.08076 0.24935 0.09428
 C891 C 0.11122 0.27115 0.12552
 C892 C 0.12841 0.27021 0.14274
 C893 C 0.14918 0.26845 0.16289
 C894 C 0.17180 0.27950 0.15530
 C895 C 0.19241 0.27654 0.17396
 C896 C 0.19067 0.26242 0.20046
 C897 C 0.16771 0.25177 0.20816
 C898 C 0.14713 0.25476 0.18946
 H899 H 0.08958 0.31157 0.10156
 H900 H 0.05596 0.31220 0.06447
 H901 H 0.05422 0.23208 0.06541
 H902 H 0.08775 0.23177 0.10242
 H903 H 0.17360 0.29007 0.13472
 H904 H 0.20980 0.28497 0.16738
 H905 H 0.16574 0.24080 0.22838
 H906 H 0.12972 0.24607 0.19549
 C907 C 0.59096 0.77111 0.60427
 C908 C 0.58071 0.74886 0.59400
 C909 C 0.56149 0.74915 0.57299
 C910 C 0.55224 0.77175 0.56191
 C911 C 0.56250 0.79406 0.57259
 C912 C 0.58176 0.79372 0.59362
 C913 C 0.61130 0.77059 0.62515
 C914 C 0.62854 0.76965 0.64234
 C915 C 0.64934 0.76793 0.66245
 C916 C 0.64734 0.75427 0.68906
 C917 C 0.66792 0.75142 0.70780
 C918 C 0.69083 0.76218 0.70012
 C919 C 0.69253 0.77623 0.67356
 C920 C 0.67192 0.77905 0.65486
 H921 H 0.58772 0.73126 0.60206
 H922 H 0.55402 0.73165 0.56526
 H923 H 0.55582 0.81176 0.56450
 H924 H 0.58960 0.81106 0.60138
 H925 H 0.62996 0.74552 0.69510
 H926 H 0.66598 0.74049 0.72806
 H927 H 0.70988 0.78475 0.66699
 H928 H 0.67369 0.78961 0.63427
   
