data_POSCAR
  _audit_creation_date              2014-09-24
  _audit_creation_method            'ToBaCCo'
  _symmetry_space_group_name_H-M    'P1'
  _symmetry_Int_Tables_number       1
  _symmetry_cell_setting            triclinic
  loop_
  _symmetry_equiv_pos_as_xyz
 x,y,z
_cell_length_a 15.0429
_cell_length_b 21.1091
_cell_length_c 13.9738
_cell_angle_alpha 91.377900
_cell_angle_beta 90.845600
_cell_angle_gamma 90.853400
loop_
  _atom_site_label
  _atom_site_type_symbol
  _atom_site_fract_x
  _atom_site_fract_y
  _atom_site_fract_z
O1 O 0.27615 0.29685 0.07986
 O2 O 0.37299 0.17818 0.24229
 O3 O 0.26620 0.17321 0.09060
 O4 O 0.40019 0.29708 0.21173
 O5 O 0.29088 0.31441 0.31253
 O6 O 0.15380 0.18830 0.18805
 O7 O 0.25993 0.19276 0.33901
 O8 O 0.16621 0.31039 0.18104
 Cu9 Cu 0.33924 0.23430 0.14602
 Cu10 Cu 0.20739 0.25276 0.26562
 C11 C 0.20406 0.32362 0.10354
 C12 C 0.33194 0.16574 0.31888
 C13 C 0.18785 0.16016 0.11620
 C14 C 0.36870 0.32722 0.28229
 O15 O 0.90153 0.30910 0.26880
 O16 O 0.77079 0.20143 0.41373
 O17 O 0.88309 0.18772 0.27151
 O18 O 0.78023 0.32471 0.39745
 O19 O 0.67063 0.32261 0.29041
 O20 O 0.76993 0.18647 0.16887
 O21 O 0.65875 0.20128 0.30977
 O22 O 0.79247 0.30948 0.16106
 Cu23 Cu 0.84441 0.25543 0.34893
 Cu24 Cu 0.71246 0.25468 0.22135
 C25 C 0.86963 0.32760 0.19031
 C26 C 0.69281 0.18399 0.38855
 C27 C 0.84287 0.16420 0.19791
 C28 C 0.70774 0.34674 0.36498
 O29 O 0.76152 0.83060 0.67692
 O30 O 0.84921 0.69224 0.79802
 O31 O 0.76706 0.70605 0.64068
 O32 O 0.84751 0.81094 0.84078
 O33 O 0.71885 0.79970 0.91296
 O34 O 0.63991 0.69548 0.71606
 O35 O 0.72216 0.67941 0.87336
 O36 O 0.63284 0.81813 0.74846
 Cu37 Cu 0.81847 0.76273 0.73097
 Cu38 Cu 0.66508 0.74816 0.81976
 C39 C 0.68218 0.84755 0.69068
 C40 C 0.80045 0.66158 0.85477
 C41 C 0.69070 0.68033 0.64765
 C42 C 0.79799 0.82094 0.91223
 O43 O 0.34277 0.81227 0.75481
 O44 O 0.20084 0.67960 0.82348
 O45 O 0.32123 0.69270 0.69934
 O46 O 0.19862 0.79847 0.86238
 O47 O 0.10609 0.81873 0.74319
 O48 O 0.22053 0.70703 0.58537
 O49 O 0.10381 0.70088 0.70859
 O50 O 0.25458 0.82972 0.63110
 Cu51 Cu 0.27645 0.74526 0.79612
 Cu52 Cu 0.16485 0.76939 0.65464
 C53 C 0.32537 0.84189 0.67951
 C54 C 0.12858 0.66738 0.77850
 C55 C 0.28857 0.67918 0.61652
 C56 C 0.12785 0.82342 0.83102
 C57 C 1.05018 0.02878 0.03521
 C58 C 0.97840 0.03546 0.09858
 C59 C 0.91926 -0.01587 0.10926
 C60 C 0.92704 -0.07143 0.05473
 C61 C 1.00047 -0.07953 -0.00516
 C62 C 1.06131 -0.02910 -0.01515
 H63 H 1.11611 -0.03401 -0.06406
 H64 H 0.86274 -0.01110 0.15596
 C65 C 0.54032 0.56162 0.53299
 C66 C 0.44770 0.56157 0.52997
 C67 C 0.40042 0.51378 0.47958
 C68 C 0.44520 0.46454 0.43337
 C69 C 0.53978 0.46372 0.43704
 C70 C 0.58688 0.51320 0.48620
 H71 H 0.65881 0.51315 0.49025
 H72 H 0.32839 0.51381 0.47844
 C73 C -0.05356 0.43881 0.00819
 C74 C 0.04006 0.43333 0.00381
 C75 C 0.08934 0.47807 -0.04690
 C76 C 0.04744 0.52862 -0.09105
 C77 C -0.04566 0.53432 -0.08539
 C78 C -0.09549 0.48831 -0.03827
 H79 H -0.16699 0.49251 -0.03360
 H80 H 0.16113 0.47530 -0.04883
 C81 C 0.44544 0.96268 0.54161
 C82 C 0.53375 0.96336 0.57765
 C83 C 0.58959 1.01547 0.55907
 C84 C 0.56056 1.06497 0.50194
 C85 C 0.47647 1.06044 0.45682
 C86 C 0.41936 1.00922 0.47765
 H87 H 0.35280 1.00671 0.44704
 H88 H 0.65458 1.01934 0.59333
 N89 N 1.14141 0.11910 0.06417
 N90 N 1.10361 0.08163 0.00759
 N91 N 0.66116 0.63231 0.58016
 N92 N 0.58301 0.61021 0.59059
 N93 N -0.07754 0.36931 0.13534
 N94 N -0.10795 0.39671 0.06217
 N95 N 0.38810 0.88829 0.64906
 N96 N 0.38027 0.91669 0.57020
 N97 N -0.16572 0.60588 -0.10315
 N98 N -0.08718 0.58906 -0.12293
 N99 N 0.36482 1.11976 0.38298
 N100 N 0.44728 1.10939 0.39467
 N101 N 1.07032 -0.15412 -0.10843
 N102 N 1.01092 -0.13985 -0.05248
 N103 N 0.66649 0.39868 0.41351
 N104 N 0.58631 0.41219 0.39288
 N105 N 0.82909 -0.14734 -0.01289
 N106 N 0.85667 -0.11773 0.05890
 N107 N 0.42257 0.37599 0.32702
 N108 N 0.39164 0.41530 0.38764
 N109 N 0.07329 0.61650 -0.19130
 N110 N 0.10227 0.57714 -0.13111
 N111 N 0.64578 1.15156 0.44866
 N112 N 0.60577 1.12480 0.51288
 N113 N 0.16479 0.36942 0.04295
 N114 N 0.08426 0.38495 0.05593
 N115 N 0.64898 0.90006 0.63897
 N116 N 0.56624 0.91111 0.63157
 N117 N 0.87559 0.10955 0.14914
 N118 N 0.95729 0.09524 0.14314
 N119 N 0.32829 0.63142 0.55837
 N120 N 0.40349 0.61017 0.58282
   
