data_POSCAR
  _audit_creation_date              2014-09-24
  _audit_creation_method            'ToBaCCo'
  _symmetry_space_group_name_H-M    'P1'
  _symmetry_Int_Tables_number       1
  _symmetry_cell_setting            triclinic
  loop_
  _symmetry_equiv_pos_as_xyz
 x,y,z
_cell_length_a 36.4553
_cell_length_b 36.5443
_cell_length_c 36.4406
_cell_angle_alpha 83.365900
_cell_angle_beta 78.736300
_cell_angle_gamma 95.209100
loop_
  _atom_site_label
  _atom_site_type_symbol
  _atom_site_fract_x
  _atom_site_fract_y
  _atom_site_fract_z
O1 O 0.54325 0.49854 0.03052
 O2 O 0.44178 0.48990 0.03067
 O3 O 0.49294 0.44460 0.02667
 O4 O 0.49179 0.54401 0.03456
 O5 O 0.50497 0.55691 -0.02757
 O6 O 0.50590 0.45748 -0.03546
 O7 O 0.45454 0.50306 -0.03136
 O8 O 0.55604 0.51150 -0.03159
 Cu9 Cu 0.49119 0.49299 0.03683
 Cu10 Cu 0.50661 0.50851 -0.03771
 C11 C 0.56704 0.50644 -0.00058
 C12 C 0.43065 0.49506 -0.00029
 C13 C 0.49965 0.43401 -0.00574
 C14 C 0.49814 0.56749 0.00483
 O15 O -0.03476 0.54464 0.50623
 O16 O -0.02757 0.44483 0.50543
 O17 O -0.03061 0.48931 0.55644
 O18 O -0.03176 0.49999 0.45501
 O19 O 0.03018 0.51154 0.44138
 O20 O 0.03133 0.50089 0.54283
 O21 O 0.03438 0.45622 0.49163
 O22 O 0.02713 0.55602 0.49239
 Cu23 Cu -0.03738 0.49358 0.50712
 Cu24 Cu 0.03696 0.50728 0.49071
 C25 C -0.00505 0.56753 0.49952
 C26 C 0.00463 0.43343 0.49834
 C27 C 0.00054 0.49334 0.56702
 C28 C -0.00097 0.50753 0.43081
 O29 O 0.49874 0.02973 0.54812
 O30 O 0.50867 0.03061 0.44547
 O31 O 0.45237 0.03015 0.50185
 O32 O 0.55485 0.03023 0.49156
 O33 O 0.54773 -0.03095 0.49970
 O34 O 0.44524 -0.03103 0.51004
 O35 O 0.50133 -0.03056 0.45346
 O36 O 0.49144 -0.03139 0.55610
 Cu37 Cu 0.50435 0.03630 0.49598
 Cu38 Cu 0.49574 -0.03710 0.50560
 C39 C 0.49344 -0.00099 0.56980
 C40 C 0.50665 0.00018 0.43188
 C41 C 0.43125 -0.00046 0.50765
 C42 C 0.56885 -0.00033 0.49391
 C43 C 0.48873 0.10100 -0.06752
 C44 C 0.48819 0.07717 -0.09386
 C45 C 0.49310 0.04262 -0.07662
 N46 N 0.49636 0.04465 -0.04059
 C47 C 0.49372 0.08027 -0.03487
 C48 C 0.49551 0.01042 -0.09471
 C49 C 0.49991 -0.02504 -0.07677
 C50 C 0.50818 -0.05496 -0.09587
 C51 C 0.51034 -0.08401 -0.06928
 C52 C 0.50373 -0.07118 -0.03446
 N53 N 0.49670 -0.03534 -0.03923
 C54 C 0.50421 -0.09307 0.00020
 C55 C 0.50374 -0.07913 0.03491
 C56 C 0.50640 -0.10033 0.06819
 C57 C 0.50690 -0.07654 0.09457
 C58 C 0.50432 -0.04152 0.07669
 N59 N 0.50253 -0.04326 0.04023
 C60 C 0.50315 -0.00906 0.09448
 C61 C 0.50031 0.02678 0.07630
 C62 C 0.49456 0.05740 0.09504
 C63 C 0.49243 0.08645 0.06842
 C64 C 0.49655 0.07297 0.03395
 N65 N 0.50212 0.03673 0.03893
 C66 C 0.49456 0.09448 -0.00048
 H67 H 0.48532 0.13020 -0.07183
 H68 H 0.48453 0.08454 -0.12244
 H69 H 0.50905 0.02043 0.01780
 H70 H 0.51260 -0.05581 -0.12599
 H71 H 0.51655 -0.11139 -0.07517
 H72 H 0.50837 -0.12981 0.07290
 H73 H 0.50907 -0.08423 0.12358
 H74 H 0.48774 0.11424 0.07412
 H75 H 0.48722 -0.01988 -0.01794
 H76 H 0.49162 0.05870 0.12498
 C77 C -0.05913 0.50085 0.90884
 C78 C -0.08909 0.49918 0.93847
 C79 C -0.07449 0.49883 0.97089
 N80 N -0.03661 0.49977 0.96194
 C81 C -0.02709 0.50089 0.92405
 C82 C -0.09628 0.49855 1.00765
 C83 C -0.08128 0.49959 1.04067
 C84 C -0.10197 0.50545 1.07526
 C85 C -0.07779 0.50577 1.09975
 C86 C -0.04281 0.50009 1.07963
 N87 N -0.04532 0.49578 1.04374
 C88 C -0.01000 0.49965 1.09506
 C89 C 0.02699 0.50008 1.07375
 C90 C 0.05912 0.50107 1.08882
 C91 C 0.08907 0.50273 1.05919
 C92 C 0.07437 0.50212 1.02689
 N93 N 0.03645 0.50061 1.03592
 C94 C 0.09610 0.50183 0.99022
 C95 C 0.08097 0.50022 0.95734
 C96 C 0.10141 0.49339 0.92301
 C97 C 0.07724 0.49311 0.89852
 C98 C 0.04251 0.49975 0.91839
 N99 N 0.04515 0.50459 0.95413
 C100 C 0.00982 0.50079 0.90281
 H101 H -0.06091 0.50166 0.87947
 H102 H -0.11830 0.49852 0.93621
 H103 H 0.02461 0.51316 0.97416
 H104 H -0.13136 0.50984 1.08208
 H105 H -0.08509 0.51044 1.12895
 H106 H 0.06098 0.50085 1.11812
 H107 H 0.11832 0.50400 1.06136
 H108 H 0.08437 0.48788 0.86949
 H109 H -0.02448 0.48813 1.02339
 H110 H 0.13064 0.48841 0.91637
 C111 C 0.09673 -0.05874 0.49675
 C112 C 0.07033 -0.08788 0.49674
 C113 C 0.03645 -0.07334 0.49707
 N114 N 0.04134 -0.03633 0.49775
 C115 C 0.07814 -0.02728 0.49767
 C116 C 0.00227 -0.09427 0.49556
 C117 C -0.03217 -0.07923 0.49500
 C118 C -0.06360 -0.09840 0.48690
 C119 C -0.09080 -0.07472 0.48825
 C120 C -0.07544 -0.04156 0.49712
 N121 N -0.03981 -0.04472 0.50173
 C122 C -0.09480 -0.00976 0.50032
 C123 C -0.07775 0.02606 0.50258
 C124 C -0.09658 0.05732 0.50464
 C125 C -0.07018 0.08649 0.50458
 C126 C -0.03606 0.07215 0.50305
 N127 N -0.04081 0.03525 0.50173
 C128 C -0.00171 0.09322 0.50384
 C129 C 0.03293 0.07838 0.50375
 C130 C 0.06473 0.09792 0.51072
 C131 C 0.09191 0.07422 0.50948
 C132 C 0.07618 0.04068 0.50177
 N133 N 0.04035 0.04364 0.49773
 C134 C 0.09533 0.00867 0.49933
 H135 H 0.12625 -0.06068 0.49635
 H136 H 0.07568 -0.11648 0.49630
 H137 H 0.02297 0.02402 0.48886
 H138 H -0.06652 -0.12641 0.48003
 H139 H -0.11858 -0.08109 0.48260
 H140 H -0.12624 0.05911 0.50581
 H141 H -0.07568 0.11498 0.50574
 H142 H 0.11990 0.08083 0.51450
 H143 H -0.02286 -0.02553 0.51170
 H144 H 0.06788 0.12617 0.51687
 C145 C -0.36555 0.52153 0.96548
 C146 C -0.32701 0.52414 0.96518
 C147 C -0.31412 0.51444 0.99843
 C148 C -0.34067 0.50301 1.03238
 C149 C -0.37925 0.50060 1.03273
 C150 C -0.39212 0.50959 0.99924
 C151 C -0.27297 0.51735 0.99668
 C152 C -0.25719 0.49670 1.02087
 C153 C -0.21591 0.49830 1.01772
 C154 C -0.20098 0.46676 1.03173
 C155 C -0.16213 0.46690 1.02856
 C156 C -0.13761 0.49877 1.01170
 C157 C -0.15240 0.53074 0.99869
 C158 C -0.19123 0.53056 1.00163
 H159 H -0.37451 0.52889 0.93923
 H160 H -0.30716 0.53336 0.93874
 H161 H -0.33184 0.49642 1.05880
 H162 H -0.39900 0.49159 1.05926
 H163 H -0.25507 0.53539 0.97306
 H164 H -0.27481 0.47596 1.04221
 H165 H -0.21940 0.44173 1.04461
 H166 H -0.15111 0.44211 1.03901
 H167 H -0.13379 0.55572 0.98610
 H168 H -0.20178 0.55578 0.99171
 C169 C 0.36509 0.48231 1.03402
 C170 C 0.32657 0.47962 1.03426
 C171 C 0.31373 0.48705 1.00063
 C172 C 0.34027 0.49626 0.96640
 C173 C 0.37886 0.49873 0.96604
 C174 C 0.39187 0.49204 0.99990
 C175 C 0.27259 0.48409 1.00233
 C176 C 0.25699 0.50343 0.97704
 C177 C 0.21572 0.50189 0.98014
 C178 C 0.20095 0.53294 0.96481
 C179 C 0.16211 0.53285 0.96798
 C180 C 0.13743 0.50150 0.98614
 C181 C 0.15208 0.46996 1.00043
 C182 C 0.19090 0.47011 0.99752
 H183 H 0.37378 0.47672 1.06070
 H184 H 0.30668 0.47213 1.06096
 H185 H 0.33141 0.50105 0.93976
 H186 H 0.39844 0.50596 0.93913
 H187 H 0.25457 0.46728 1.02674
 H188 H 0.27474 0.52313 0.95474
 H189 H 0.21949 0.55757 0.95092
 H190 H 0.15121 0.55730 0.95653
 H191 H 0.13337 0.44535 1.01403
 H192 H 0.20135 0.44523 1.00851
 C193 C -0.04308 -0.38116 0.50930
 C194 C -0.04563 -0.34336 0.51056
 C195 C -0.01310 -0.31775 0.50218
 C196 C 0.02225 -0.33078 0.49315
 C197 C 0.02489 -0.36858 0.49213
 C198 C -0.00775 -0.39438 0.50016
 C199 C -0.01694 -0.27804 0.50478
 C200 C 0.00837 -0.25040 0.48482
 C201 C 0.00506 -0.21069 0.48784
 C202 C 0.02295 -0.18399 0.45720
 C203 C 0.02160 -0.14620 0.45945
 C204 C 0.00286 -0.13445 0.49266
 C205 C -0.01504 -0.16094 0.52337
 C206 C -0.01393 -0.19876 0.52107
 H207 H -0.06891 -0.39999 0.51583
 H208 H -0.07317 -0.33406 0.51795
 H209 H 0.04802 -0.31202 0.48769
 H210 H 0.05265 -0.37752 0.48523
 H211 H -0.04232 -0.27155 0.52252
 H212 H 0.03178 -0.25681 0.46424
 H213 H 0.03798 -0.19243 0.43143
 H214 H 0.03551 -0.12604 0.43548
 H215 H -0.02945 -0.15224 0.54926
 H216 H -0.02711 -0.21842 0.54566
 C217 C 0.04256 0.38052 0.48608
 C218 C 0.04509 0.34272 0.48484
 C219 C 0.01277 0.31683 0.49565
 C220 C -0.02239 0.32961 0.50715
 C221 C -0.02496 0.36743 0.50818
 C222 C 0.00748 0.39331 0.49770
 C223 C 0.01653 0.27712 0.49298
 C224 C -0.00778 0.24941 0.51427
 C225 C -0.00453 0.20968 0.51121
 C226 C -0.02097 0.18310 0.54247
 C227 C -0.01962 0.14529 0.54031
 C228 C -0.00232 0.13341 0.50659
 C229 C 0.01410 0.15977 0.47525
 C230 C 0.01297 0.19761 0.47745
 H231 H 0.06806 0.39975 0.47762
 H232 H 0.07245 0.33364 0.47551
 H233 H -0.04809 0.31067 0.51454
 H234 H -0.05244 0.37640 0.51701
 H235 H 0.04110 0.27071 0.47393
 H236 H -0.03020 0.25577 0.53598
 H237 H -0.03485 0.19163 0.56867
 H238 H -0.03240 0.12522 0.56475
 H239 H 0.02737 0.15095 0.44898
 H240 H 0.02495 0.21714 0.45241
 C241 C 0.48319 -0.03516 -0.36653
 C242 C 0.48006 -0.03556 -0.32765
 C243 C 0.48410 -0.00237 -0.31224
 C244 C 0.49030 0.03148 -0.33643
 C245 C 0.49319 0.03197 -0.37533
 C246 C 0.48994 -0.00137 -0.39101
 C247 C 0.48084 -0.00415 -0.27087
 C248 C 0.49799 0.02191 -0.25488
 C249 C 0.49625 0.01906 -0.21367
 C250 C 0.52629 0.03653 -0.20077
 C251 C 0.52599 0.03389 -0.16214
 C252 C 0.49531 0.01425 -0.13573
 C253 C 0.46483 -0.00253 -0.14839
 C254 C 0.46522 -0.00015 -0.18704
 H255 H 0.48028 -0.06146 -0.37729
 H256 H 0.47491 -0.06198 -0.30956
 H257 H 0.49238 0.05768 -0.32542
 H258 H 0.49804 0.05859 -0.39305
 H259 H 0.46586 -0.02905 -0.25337
 H260 H 0.51613 0.04497 -0.27266
 H261 H 0.55034 0.05172 -0.22068
 H262 H 0.54977 0.04696 -0.15279
 H263 H 0.44085 -0.01761 -0.12830
 H264 H 0.44105 -0.01298 -0.19588
 C265 C 0.52003 0.03413 0.36602
 C266 C 0.52312 0.03459 0.32713
 C267 C 0.51609 0.00168 0.31201
 C268 C 0.50691 -0.03201 0.33653
 C269 C 0.50405 -0.03251 0.37542
 C270 C 0.51033 0.00058 0.39063
 C271 C 0.51937 0.00351 0.27063
 C272 C 0.50008 -0.02107 0.25477
 C273 C 0.50195 -0.01810 0.21352
 C274 C 0.47078 -0.03312 0.20057
 C275 C 0.47121 -0.03033 0.16191
 C276 C 0.50311 -0.01300 0.13554
 C277 C 0.53465 0.00132 0.14825
 C278 C 0.53415 -0.00121 0.18692
 H279 H 0.52529 0.06008 0.37678
 H280 H 0.53059 0.06084 0.30881
 H281 H 0.50244 -0.05809 0.32579
 H282 H 0.49681 -0.05885 0.39359
 H283 H 0.53634 0.02735 0.25300
 H284 H 0.48017 -0.04279 0.27264
 H285 H 0.44579 -0.04652 0.22045
 H286 H 0.44663 -0.04151 0.15250
 H287 H 0.55955 0.01459 0.12816
 H288 H 0.55912 0.00966 0.19581
 C289 C 0.48393 -0.38069 0.04289
 C290 C 0.48251 -0.34298 0.04558
 C291 C 0.49509 -0.31633 0.01355
 C292 C 0.50852 -0.32817 -0.02148
 C293 C 0.50963 -0.36588 -0.02424
 C294 C 0.49740 -0.39255 0.00791
 C295 C 0.49221 -0.27672 0.01727
 C296 C 0.51541 -0.24906 -0.00537
 C297 C 0.51204 -0.20941 -0.00231
 C298 C 0.54430 -0.18353 -0.01448
 C299 C 0.54193 -0.14574 -0.01315
 C300 C 0.50708 -0.13323 -0.00028
 C301 C 0.47475 -0.15887 0.01177
 C302 C 0.47714 -0.19670 0.01077
 H303 H 0.47407 -0.40057 0.06814
 H304 H 0.47168 -0.33456 0.07279
 H305 H 0.51737 -0.30848 -0.04698
 H306 H 0.51995 -0.37415 -0.05164
 H307 H 0.47129 -0.27040 0.04043
 H308 H 0.53877 -0.25551 -0.02600
 H309 H 0.57141 -0.19261 -0.02495
 H310 H 0.56710 -0.12615 -0.02256
 H311 H 0.44765 -0.14948 0.02158
 H312 H 0.45153 -0.21571 0.01932
 C313 C 0.51283 0.38211 -0.04398
 C314 C 0.51420 0.34440 -0.04670
 C315 C 0.50260 0.31781 -0.01451
 C316 C 0.49020 0.32971 0.02072
 C317 C 0.48911 0.36743 0.02349
 C318 C 0.50036 0.39404 -0.00882
 C319 C 0.50541 0.27820 -0.01833
 C320 C 0.48311 0.25046 0.00512
 C321 C 0.48647 0.21081 0.00197
 C322 C 0.45467 0.18469 0.01604
 C323 C 0.45709 0.14690 0.01474
 C324 C 0.49156 0.13463 -0.00006
 C325 C 0.52344 0.16051 -0.01406
 C326 C 0.52099 0.19833 -0.01304
 H327 H 0.52192 0.40194 -0.06937
 H328 H 0.52422 0.33594 -0.07408
 H329 H 0.48216 0.31011 0.04632
 H330 H 0.47959 0.37574 0.05102
 H331 H 0.52549 0.27195 -0.04221
 H332 H 0.46048 0.25681 0.02662
 H333 H 0.42788 0.19358 0.02801
 H334 H 0.43227 0.12714 0.02568
 H335 H 0.55027 0.15132 -0.02536
 H336 H 0.54634 0.21751 -0.02309
 C337 C -0.36595 0.03329 0.48047
 C338 C -0.32713 0.03350 0.47741
 C339 C -0.31150 0.00035 0.48437
 C340 C -0.33540 -0.03330 0.49338
 C341 C -0.37423 -0.03354 0.49623
 C342 C -0.38997 -0.00022 0.49009
 C343 C -0.27025 0.00197 0.48133
 C344 C -0.25407 -0.02324 0.50056
 C345 C -0.21303 -0.02017 0.49924
 C346 C -0.20017 -0.03608 0.53064
 C347 C -0.16173 -0.03285 0.53089
 C348 C -0.13552 -0.01400 0.49954
 C349 C -0.14807 0.00088 0.46761
 C350 C -0.18652 -0.00214 0.46741
 H351 H -0.37714 0.05942 0.47531
 H352 H -0.30929 0.05974 0.47007
 H353 H -0.32424 -0.05953 0.49776
 H354 H -0.39194 -0.05985 0.50339
 H355 H -0.25304 0.02623 0.46472
 H356 H -0.27158 -0.04548 0.52016
 H357 H -0.21998 -0.05045 0.55530
 H358 H -0.15239 -0.04474 0.55561
 H359 H -0.12805 0.01502 0.44299
 H360 H -0.19528 0.00932 0.44222
 C361 C 0.36600 -0.03402 0.52144
 C362 C 0.32719 -0.03423 0.52437
 C363 C 0.31165 -0.00114 0.51683
 C364 C 0.33561 0.03247 0.50740
 C365 C 0.37442 0.03271 0.50470
 C366 C 0.39007 -0.00057 0.51139
 C367 C 0.27043 -0.00274 0.51966
 C368 C 0.25446 0.02206 0.49970
 C369 C 0.21345 0.01900 0.50082
 C370 C 0.20081 0.03401 0.46893
 C371 C 0.16241 0.03078 0.46853
 C372 C 0.13602 0.01286 0.50021
 C373 C 0.14836 -0.00113 0.53260
 C374 C 0.18678 0.00186 0.53294
 H375 H 0.37713 -0.06011 0.52703
 H376 H 0.30929 -0.06042 0.53204
 H377 H 0.32450 0.05866 0.50255
 H378 H 0.39217 0.05898 0.49720
 H379 H 0.25308 -0.02668 0.53674
 H380 H 0.27212 0.04389 0.47968
 H381 H 0.22076 0.04768 0.44403
 H382 H 0.15322 0.04197 0.44345
 H383 H 0.12821 -0.01457 0.55746
 H384 H 0.19541 -0.00889 0.55846
 C385 C 0.03204 0.52322 1.36295
 C386 C 0.03187 0.52626 1.32442
 C387 C -0.00147 0.51709 1.31205
 C388 C -0.03505 0.50590 1.33906
 C389 C -0.03493 0.50308 1.37763
 C390 C -0.00133 0.51141 1.39000
 C391 C -0.00019 0.52007 1.27093
 C392 C -0.02409 0.49930 1.25587
 C393 C -0.02107 0.50059 1.21461
 C394 C -0.03396 0.46872 1.20056
 C395 C -0.03054 0.46851 1.16172
 C396 C -0.01459 0.50033 1.13636
 C397 C -0.00284 0.53265 1.15027
 C398 C -0.00601 0.53282 1.18909
 H399 H 0.05835 0.53009 1.37154
 H400 H 0.05802 0.53529 1.30417
 H401 H -0.06151 0.49973 1.33059
 H402 H -0.06117 0.49419 1.39776
 H403 H 0.02296 0.53806 1.25246
 H404 H -0.04486 0.47856 1.27411
 H405 H -0.04603 0.44371 1.21965
 H406 H -0.04000 0.44346 1.15136
 H407 H 0.00904 0.55758 1.13099
 H408 H 0.00302 0.55826 1.19898
 C409 C -0.03255 0.47800 0.63488
 C410 C -0.03240 0.47496 0.67341
 C411 C 0.00101 0.48376 0.68580
 C412 C 0.03466 0.49460 0.65879
 C413 C 0.03455 0.49744 0.62022
 C414 C 0.00089 0.48946 0.60784
 C415 C -0.00030 0.48076 0.72693
 C416 C 0.02395 0.50107 0.74200
 C417 C 0.02093 0.49977 0.78327
 C418 C 0.03459 0.53136 0.79726
 C419 C 0.03118 0.53159 0.83610
 C420 C 0.01443 0.50006 0.86153
 C421 C 0.00190 0.46799 0.84768
 C422 C 0.00508 0.46779 0.80886
 H423 H -0.05892 0.47141 0.62629
 H424 H -0.05861 0.46620 0.69365
 H425 H 0.06117 0.50047 0.66726
 H426 H 0.06084 0.50605 0.60009
 H427 H -0.02373 0.46314 0.74539
 H428 H 0.04508 0.52147 0.72377
 H429 H 0.04727 0.55616 0.77812
 H430 H 0.04125 0.55645 0.84641
 H431 H -0.01059 0.44326 0.86701
 H432 H -0.00455 0.44253 0.79904
   
