data_POSCAR
  _audit_creation_date              2014-09-24
  _audit_creation_method            'ToBaCCo'
  _symmetry_space_group_name_H-M    'P1'
  _symmetry_Int_Tables_number       1
  _symmetry_cell_setting            triclinic
  loop_
  _symmetry_equiv_pos_as_xyz
 x,y,z
_cell_length_a 25.3549
_cell_length_b 25.4519
_cell_length_c 41.6323
_cell_angle_alpha 81.325100
_cell_angle_beta 97.907300
_cell_angle_gamma 89.388900
loop_
  _atom_site_label
  _atom_site_type_symbol
  _atom_site_fract_x
  _atom_site_fract_y
  _atom_site_fract_z
O1 O 0.02322 0.53169 1.03555
 O2 O 0.03727 0.44633 0.97318
 O3 O 0.03749 0.54897 0.97432
 O4 O 0.02393 0.43038 1.03459
 O5 O -0.06318 0.43469 1.01997
 O6 O -0.04947 0.55388 0.95955
 O7 O -0.04977 0.45083 0.95839
 O8 O -0.06388 0.53634 1.02089
 Cu9 Cu 0.03921 0.48894 1.00569
 Cu10 Cu -0.06528 0.49443 0.98803
 C11 C -0.02273 0.54835 1.03908
 C12 C -0.00387 0.43325 0.95543
 C13 C -0.00360 0.57244 0.95693
 C14 C -0.02188 0.41238 1.03780
 O15 O 0.56951 -0.01594 0.53440
 O16 O 0.45260 -0.03483 0.47486
 O17 O 0.55559 -0.03305 0.47378
 O18 O 0.46776 -0.01832 0.53534
 O19 O 0.46094 0.06824 0.51852
 O20 O 0.54920 0.05343 0.45681
 O21 O 0.44587 0.05165 0.45791
 O22 O 0.56299 0.07052 0.51758
 Cu23 Cu 0.51209 -0.03422 0.50611
 Cu24 Cu 0.50414 0.06960 0.48584
 C25 C 0.58611 0.03056 0.53649
 C26 C 0.42862 0.00523 0.45657
 C27 C 0.56796 0.00764 0.45498
 C28 C 0.44939 0.02742 0.53756
 C29 C -0.04878 -0.11969 0.23448
 C30 C -0.09606 -0.11237 0.25309
 C31 C -0.09429 -0.06764 0.26756
 C32 C -0.04503 -0.03428 0.26228
 C33 C -0.04824 -0.06773 0.21062
 C34 C -0.04608 -0.02307 0.22492
 C35 C 0.00029 -0.11800 0.26037
 C36 C 0.00283 -0.07317 0.27465
 H37 H -0.12589 -0.14171 0.25707
 H38 H -0.04338 0.00209 0.27400
 H39 H -0.05033 -0.06671 0.18437
 H40 H 0.03148 -0.14872 0.26575
 C41 C 0.10787 0.05414 0.73080
 C42 C 0.10415 0.00151 0.75357
 C43 C 0.06129 -0.00159 0.77018
 C44 C 0.02513 0.04919 0.76208
 C45 C 0.05428 0.06132 0.70845
 C46 C 0.01089 0.05883 0.72444
 C47 C 0.10590 0.09678 0.75323
 C48 C 0.06266 0.09433 0.76955
 H49 H 0.13317 -0.03078 0.75575
 H50 H -0.00982 0.04758 0.77547
 H51 H 0.05132 0.06695 0.68194
 H52 H 0.13431 0.12772 0.75534
 C53 C -0.03804 -0.35260 0.11233
 C54 C -0.08341 -0.36566 0.09229
 C55 C -0.07858 -0.39820 0.06854
 C56 C -0.02821 -0.41794 0.06453
 C57 C 0.01707 -0.40489 0.08501
 C58 C 0.01212 -0.37242 0.10872
 C59 C -0.04235 -0.31707 0.13569
 C60 C -0.04458 -0.28619 0.15476
 C61 C -0.04546 -0.24780 0.17674
 C62 C -0.09191 -0.23753 0.18970
 C63 C -0.09334 -0.19749 0.20925
 C64 C -0.04796 -0.16737 0.21635
 C65 C -0.00153 -0.17846 0.20310
 C66 C -0.00023 -0.21843 0.18369
 H67 H -0.12241 -0.35030 0.09479
 H68 H -0.11420 -0.40755 0.05318
 H69 H 0.05639 -0.41947 0.08261
 H70 H 0.04752 -0.36232 0.12402
 H71 H -0.12742 -0.25958 0.18403
 H72 H -0.13065 -0.18939 0.21755
 H73 H 0.03354 -0.15509 0.20711
 H74 H 0.03575 -0.22557 0.17344
 C75 C -0.03559 0.27353 0.10846
 C76 C 0.01424 0.29526 0.10541
 C77 C 0.01860 0.34068 0.08261
 C78 C -0.02692 0.36499 0.06246
 C79 C -0.07698 0.34323 0.06597
 C80 C -0.08123 0.29770 0.08882
 C81 C -0.03917 0.22488 0.13053
 C82 C -0.04087 0.18312 0.14830
 C83 C -0.04142 0.13200 0.16838
 C84 C -0.01476 0.08867 0.16012
 C85 C -0.01582 0.03843 0.17875
 C86 C -0.04371 0.03074 0.20596
 C87 C -0.06972 0.07462 0.21449
 C88 C -0.06869 0.12503 0.19571
 H89 H 0.04985 0.27668 0.12037
 H90 H 0.05771 0.35645 0.08058
 H91 H -0.11277 0.36102 0.05085
 H92 H -0.11996 0.28098 0.09086
 H93 H 0.00670 0.09368 0.13913
 H94 H 0.00549 0.00565 0.17194
 H95 H -0.09189 0.06978 0.23514
 H96 H -0.08949 0.15836 0.20230
 C97 C 0.34479 0.04250 0.60868
 C98 C 0.35745 0.08760 0.58782
 C99 C 0.39193 0.08291 0.56484
 C100 C 0.41403 0.03294 0.56241
 C101 C 0.40144 -0.01203 0.58375
 C102 C 0.36703 -0.00723 0.60669
 C103 C 0.30730 0.04658 0.63122
 C104 C 0.27493 0.04877 0.64966
 C105 C 0.23502 0.04995 0.67098
 C106 C 0.23498 0.08890 0.69135
 C107 C 0.19496 0.09067 0.71126
 C108 C 0.15416 0.05334 0.71098
 C109 C 0.15539 0.01399 0.69058
 C110 C 0.19534 0.01235 0.67081
 H111 H 0.34024 0.12626 0.58908
 H112 H 0.40085 0.11828 0.54878
 H113 H 0.41781 -0.05105 0.58256
 H114 H 0.35730 -0.04242 0.62264
 H115 H 0.26565 0.11822 0.69165
 H116 H 0.19652 0.12169 0.72630
 H117 H 0.12474 -0.01530 0.68970
 H118 H 0.19495 -0.01802 0.65513
 C119 C -0.28135 0.05164 0.60632
 C120 C -0.30675 0.09570 0.58561
 C121 C -0.35074 0.08889 0.56254
 C122 C -0.36995 0.03769 0.55980
 C123 C -0.34409 -0.00629 0.58102
 C124 C -0.30018 0.00072 0.60403
 C125 C -0.23459 0.05817 0.62901
 C126 C -0.19445 0.06252 0.64748
 C127 C -0.14521 0.06628 0.66862
 C128 C -0.10549 0.09887 0.65731
 C129 C -0.05538 0.09811 0.67614
 C130 C -0.04416 0.06444 0.70652
 C131 C -0.08513 0.03376 0.71835
 C132 C -0.13528 0.03446 0.69943
 H133 H -0.29227 0.13529 0.58708
 H134 H -0.36942 0.12379 0.54678
 H135 H -0.35750 -0.04631 0.57982
 H136 H -0.28060 -0.03369 0.61985
 H137 H -0.11276 0.12378 0.63353
 H138 H -0.02511 0.12321 0.66661
 H139 H -0.07794 0.00742 0.74142
 H140 H -0.16572 0.00893 0.70839
 C141 C 0.01273 -0.28372 0.89397
 C142 C -0.03773 -0.30469 0.89590
 C143 C -0.04325 -0.35271 0.91633
 C144 C 0.00179 -0.38049 0.93525
 C145 C 0.05244 -0.35915 0.93269
 C146 C 0.05774 -0.31122 0.91225
 C147 C 0.01869 -0.23391 0.87344
 C148 C 0.02493 -0.19237 0.85639
 C149 C 0.03382 -0.14325 0.83599
 C150 C -0.00911 -0.10970 0.82031
 C151 C -0.00021 -0.06300 0.79956
 C152 C 0.05173 -0.04939 0.79390
 C153 C 0.09470 -0.08278 0.81067
 C154 C 0.08575 -0.12934 0.83141
 H155 H -0.07285 -0.28377 0.88177
 H156 H -0.08289 -0.36765 0.91752
 H157 H 0.08814 -0.37909 0.94671
 H158 H 0.09702 -0.29541 0.91088
 H159 H -0.04951 -0.11991 0.82382
 H160 H -0.03427 -0.03852 0.78755
 H161 H 0.13544 -0.07305 0.80795
 H162 H 0.11938 -0.15470 0.84370
 C163 C 0.01242 0.32160 0.88931
 C164 C 0.05761 0.33914 0.90747
 C165 C 0.05238 0.37619 0.92852
 C166 C 0.00175 0.39627 0.93172
 C167 C -0.04344 0.37898 0.91300
 C168 C -0.03809 0.34185 0.89195
 C169 C 0.01818 0.28213 0.86851
 C170 C 0.02432 0.24885 0.85146
 C171 C 0.03338 0.20912 0.83141
 C172 C 0.08539 0.19077 0.83082
 C173 C 0.09485 0.15297 0.81102
 C174 C 0.05233 0.13296 0.79147
 C175 C 0.00008 0.15109 0.79249
 C176 C -0.00930 0.18903 0.81233
 H177 H 0.09691 0.32375 0.90561
 H178 H 0.08796 0.38859 0.94257
 H179 H -0.08298 0.39357 0.91493
 H180 H -0.07335 0.32856 0.87800
 H181 H 0.11870 0.20583 0.84560
 H182 H 0.13544 0.13920 0.81116
 H183 H -0.03338 0.13700 0.77739
 H184 H -0.04973 0.20302 0.81255
 C185 C -0.32102 -0.01017 0.38778
 C186 C -0.33716 -0.05479 0.40759
 C187 C -0.37377 -0.04905 0.42913
 C188 C -0.39482 0.00154 0.43118
 C189 C -0.37875 0.04617 0.41094
 C190 C -0.34206 0.04030 0.38939
 C191 C -0.28244 -0.01646 0.36617
 C192 C -0.24996 -0.02287 0.34837
 C193 C -0.21122 -0.03191 0.32737
 C194 C -0.15798 -0.01908 0.33548
 C195 C -0.11997 -0.03009 0.31581
 C196 C -0.13479 -0.05426 0.28783
 C197 C -0.18852 -0.06640 0.27967
 C198 C -0.22642 -0.05531 0.29933
 H199 H -0.32116 -0.09405 0.40654
 H200 H -0.38523 -0.08421 0.44436
 H201 H -0.39413 0.08565 0.41195
 H202 H -0.32985 0.07512 0.37416
 H203 H -0.14570 -0.00125 0.35725
 H204 H -0.07884 -0.02099 0.32304
 H205 H -0.20132 -0.08432 0.25802
 H206 H -0.26751 -0.06540 0.29280
 C207 C 0.28329 -0.01625 0.39417
 C208 C 0.31182 -0.06028 0.41305
 C209 C 0.35959 -0.05339 0.43290
 C210 C 0.37953 -0.00224 0.43415
 C211 C 0.35091 0.04176 0.41474
 C212 C 0.30309 0.03475 0.39490
 C213 C 0.23354 -0.02363 0.37435
 C214 C 0.19200 -0.03081 0.35791
 C215 C 0.14283 -0.04068 0.33829
 C216 C 0.12412 -0.09241 0.34006
 C217 C 0.07782 -0.10283 0.31996
 C218 C 0.04958 -0.06157 0.29775
 C219 C 0.06798 -0.00948 0.29664
 C220 C 0.11441 0.00085 0.31677
 H221 H 0.29691 -0.09995 0.41264
 H222 H 0.38055 -0.08809 0.44755
 H223 H 0.36510 0.08166 0.41519
 H224 H 0.28136 0.06912 0.38034
 H225 H 0.14570 -0.12484 0.35671
 H226 H 0.06427 -0.14322 0.32168
 H227 H 0.04762 0.02298 0.27946
 H228 H 0.12862 0.04103 0.31513
   
