data_POSCAR
  _audit_creation_date              2014-09-24
  _audit_creation_method            'ToBaCCo'
  _symmetry_space_group_name_H-M    'P1'
  _symmetry_Int_Tables_number       1
  _symmetry_cell_setting            triclinic
  loop_
  _symmetry_equiv_pos_as_xyz
 x,y,z
_cell_length_a 27.0856
_cell_length_b 28.2537
_cell_length_c 26.7535
_cell_angle_alpha 89.905600
_cell_angle_beta 90.015100
_cell_angle_gamma 87.868700
loop_
  _atom_site_label
  _atom_site_type_symbol
  _atom_site_fract_x
  _atom_site_fract_y
  _atom_site_fract_z
C1 C 0.16869 0.53042 1.06771
 H2 H 0.17389 0.56666 1.05644
 C3 C 0.12955 0.51986 1.09962
 H4 H 0.10554 0.54845 1.11342
 C5 C 0.19238 0.44915 1.06179
 H6 H 0.21666 0.42157 1.04658
 C7 C 0.15285 0.43687 1.09174
 H8 H 0.14872 0.39976 1.09985
 N9 N 0.19985 0.49521 1.05049
 C10 C 0.32426 0.56990 0.98660
 H11 H 0.32935 0.54838 0.95345
 C12 C 0.35692 0.60564 0.99661
 H13 H 0.38645 0.61197 0.97043
 C14 C 0.28158 0.58538 1.06243
 H15 H 0.25373 0.57599 1.08912
 C16 C 0.31387 0.62123 1.07423
 H17 H 0.30902 0.64011 1.10912
 Zn18 Zn 0.25181 0.50566 1.00463
 N19 N 0.28713 0.56073 1.01899
 C20 C 0.22723 0.54660 0.90963
 N21 N 0.22363 0.50792 0.93964
 C22 C 0.19575 0.47100 0.92601
 C23 C 0.16911 0.47258 0.88128
 C24 C 0.20220 0.54910 0.86397
 C25 C 0.32131 0.45367 1.05708
 C26 C 0.36103 0.42220 1.06623
 C27 C 0.35462 0.39397 0.98133
 C28 C 0.31497 0.42650 0.97361
 N29 N 0.29966 0.45579 1.01130
 H30 H 0.24805 0.57636 0.92164
 H31 H 0.19293 0.44092 0.95075
 H32 H 0.14590 0.44354 0.87169
 H33 H 0.20448 0.58070 0.84129
 H34 H 0.30833 0.47749 1.08626
 H35 H 0.37775 0.42162 1.10296
 H36 H 0.36728 0.37145 0.95085
 H37 H 0.29746 0.42921 0.93735
 C38 C 0.35244 0.63138 1.04121
 C39 C 0.12065 0.47240 1.11150
 C40 C 0.37882 0.39244 1.02782
 C41 C 0.17203 0.51208 0.84980
 C42 C 0.81890 0.54646 -0.05300
 H43 H 0.80735 0.56955 -0.02263
 C44 C 0.85851 0.55835 -0.08306
 H45 H 0.87693 0.59080 -0.07529
 C46 C 0.80886 0.47546 -0.09834
 H47 H 0.78931 0.44332 -0.10419
 C48 C 0.84858 0.48593 -0.12935
 H49 H 0.85934 0.46150 -0.15888
 N50 N 0.79562 0.50527 -0.06040
 C51 C 0.68662 0.57363 0.02400
 H52 H 0.70125 0.56633 0.06088
 C53 C 0.65111 0.61040 0.01709
 H54 H 0.63862 0.63120 0.04893
 C55 C 0.68473 0.55574 -0.06248
 H56 H 0.69761 0.53373 -0.09323
 C57 C 0.64968 0.59203 -0.07106
 H58 H 0.63592 0.59730 -0.10866
 Zn59 Zn 0.74615 0.49346 -0.01266
 N60 N 0.70193 0.54673 -0.01559
 C61 C 0.75163 0.48300 0.09422
 N62 N 0.77735 0.48491 0.05057
 C63 C 0.82740 0.47897 0.05006
 C64 C 0.85374 0.47345 0.09438
 C65 C 0.77677 0.47775 0.13990
 C66 C 0.66029 0.44375 -0.02910
 C67 C 0.63170 0.40460 -0.03716
 C68 C 0.70656 0.35573 -0.04306
 C69 C 0.73389 0.39595 -0.03414
 N70 N 0.71045 0.43895 -0.02779
 H71 H 0.71172 0.48612 0.09368
 H72 H 0.84733 0.47832 0.01515
 H73 H 0.89365 0.46968 0.09266
 H74 H 0.75579 0.47759 0.17428
 H75 H 0.64206 0.47775 -0.02235
 H76 H 0.59180 0.40911 -0.03702
 H77 H 0.72571 0.32164 -0.04700
 H78 H 0.77372 0.39276 -0.03147
 C79 C 0.63204 0.61974 -0.03095
 C80 C 0.87426 0.52761 -0.12150
 C81 C 0.65471 0.35994 -0.04414
 C82 C 0.82871 0.47363 0.14020
 C83 C -0.03772 0.31834 0.43747
 H84 H -0.07429 0.31293 0.45212
 C85 C -0.03067 0.35425 0.40239
 H86 H -0.06233 0.37551 0.38961
 C87 C 0.04801 0.29868 0.43852
 H88 H 0.07865 0.27750 0.45345
 C89 C 0.05703 0.33561 0.40544
 H90 H 0.09480 0.34091 0.39431
 N91 N 0.00131 0.29106 0.45432
 C92 C -0.07242 0.17798 0.53484
 H93 H -0.05225 0.17848 0.56972
 C94 C -0.10760 0.14381 0.52704
 H95 H -0.11494 0.11880 0.55659
 C96 C -0.08488 0.20801 0.45295
 H97 H -0.07445 0.23156 0.42329
 C98 C -0.12022 0.17439 0.44352
 H99 H -0.13744 0.17399 0.40709
 Zn100 Zn -0.00737 0.24848 0.50831
 N101 N -0.06189 0.20938 0.49811
 C102 C -0.04991 0.28365 0.60095
 N103 N -0.01328 0.28652 0.56640
 C104 C 0.02308 0.31809 0.57149
 C105 C 0.02377 0.34838 0.61245
 C106 C -0.05007 0.31282 0.64326
 C107 C 0.06030 0.17646 0.47757
 C108 C 0.09648 0.14040 0.48432
 C109 C 0.10710 0.16693 0.56930
 C110 C 0.07094 0.20247 0.56090
 N111 N 0.04802 0.20632 0.51578
 H112 H -0.07894 0.25890 0.59589
 H113 H 0.05182 0.31963 0.54358
 H114 H 0.05297 0.37339 0.61562
 H115 H -0.07954 0.31036 0.67034
 H116 H 0.04087 0.17982 0.44233
 H117 H 0.10518 0.11639 0.45379
 H118 H 0.12431 0.16457 0.60572
 H119 H 0.06001 0.22585 0.59116
 C120 C -0.13158 0.14128 0.48066
 C121 C 0.01741 0.36440 0.38705
 C122 C 0.11967 0.13470 0.53100
 C123 C -0.01281 0.34573 0.64915
 C124 C 0.96819 0.66957 0.52048
 H125 H 0.94261 0.67733 0.49025
 C126 C 0.95987 0.63200 0.55236
 H127 H 0.92803 0.61108 0.54536
 C128 C 1.04092 0.68812 0.56443
 H129 H 1.07235 0.71030 0.56865
 C130 C 1.03369 0.65059 0.59791
 H131 H 1.05970 0.64411 0.62811
 N132 N 1.00776 0.69701 0.52705
 C133 C 0.94437 0.82696 0.46233
 H134 H 0.96388 0.83047 0.42732
 C135 C 0.90974 0.86226 0.47732
 H136 H 0.90214 0.89250 0.45323
 C137 C 0.93228 0.78480 0.53766
 H138 H 0.94196 0.75550 0.56210
 C139 C 0.89805 0.81926 0.55418
 H140 H 0.88091 0.81479 0.59031
 Zn141 Zn 1.00827 0.74547 0.47826
 N142 N 0.95501 0.78917 0.49261
 C143 C 0.96686 0.72359 0.38130
 N144 N 1.00166 0.71308 0.41669
 C145 C 1.03298 0.67455 0.41218
 C146 C 1.02937 0.64403 0.37167
 C147 C 0.96267 0.69436 0.33932
 C148 C 1.07497 0.81241 0.51350
 C149 C 1.10989 0.84721 0.50653
 C150 C 1.12831 0.81409 0.42522
 C151 C 1.09323 0.78017 0.43364
 N152 N 1.06641 0.78064 0.47661
 H153 H 0.94175 0.75387 0.38605
 H154 H 1.06004 0.66682 0.44109
 H155 H 1.05389 0.61293 0.36947
 H156 H 0.93417 0.70249 0.31194
 H157 H 1.05245 0.81269 0.54689
 H158 H 1.11470 0.87365 0.53521
 H159 H 1.14810 0.81344 0.39012
 H160 H 1.08557 0.75526 0.40437
 C161 C 0.88695 0.85906 0.52431
 C162 C 0.99227 0.62233 0.59231
 C163 C 1.13565 0.84937 0.46107
 C164 C 0.99380 0.65360 0.33477
 C165 C 0.43397 -0.02546 0.31186
 H166 H 0.45421 -0.05919 0.31241
 C167 C 0.39363 -0.01762 0.34373
 H168 H 0.38257 -0.04590 0.36820
 C169 C 0.42596 0.05333 0.28164
 H170 H 0.43983 0.08155 0.25897
 C171 C 0.38552 0.06267 0.31283
 H172 H 0.36822 0.09775 0.31235
 N173 N 0.44973 0.01008 0.28224
 C174 C 0.56117 -0.05626 0.18535
 H175 H 0.59039 -0.03301 0.19552
 C176 C 0.57100 -0.09359 0.15268
 H177 H 0.60797 -0.09789 0.13779
 C178 C 0.47753 -0.07695 0.19293
 H179 H 0.44132 -0.07010 0.20895
 C180 C 0.48532 -0.11408 0.15884
 H181 H 0.45465 -0.13579 0.14902
 Zn182 Zn 0.51161 0.00208 0.25036
 N183 N 0.51554 -0.04930 0.20564
 C184 C 0.57838 -0.05400 0.30703
 N185 N 0.55892 -0.00919 0.30177
 C186 C 0.56987 0.02539 0.33489
 C187 C 0.60334 0.01586 0.37382
 C188 C 0.61154 -0.06511 0.34538
 C189 C 0.49266 0.06510 0.17276
 C190 C 0.49994 0.10293 0.14034
 C191 C 0.57348 0.12057 0.18681
 C192 C 0.56473 0.08239 0.21839
 N193 N 0.52451 0.05591 0.21118
 H194 H 0.56753 -0.08172 0.28206
 H195 H 0.55254 0.06033 0.33112
 H196 H 0.61214 0.04387 0.39956
 H197 H 0.62677 -0.10094 0.34786
 H198 H 0.46149 0.04280 0.16734
 H199 H 0.47398 0.10974 0.11016
 H200 H 0.60581 0.14091 0.19351
 H201 H 0.59052 0.07359 0.24806
 C202 C 0.53287 -0.12335 0.13882
 C203 C 0.36965 0.02730 0.34544
 C204 C 0.54073 0.13134 0.14713
 C205 C 0.62459 -0.02996 0.37940
 C206 C 0.56764 -0.02887 0.69757
 H207 H 0.54841 -0.06166 0.69501
 C208 C 0.60829 -0.02121 0.66652
 H209 H 0.62049 -0.04863 0.64061
 C210 C 0.57304 0.04796 0.73184
 H211 H 0.55821 0.07587 0.75553
 C212 C 0.61375 0.05691 0.70195
 H213 H 0.62998 0.09115 0.70481
 N214 N 0.55038 0.00590 0.72883
 C215 C 0.43997 -0.05026 0.82948
 H216 H 0.41222 -0.02307 0.82042
 C217 C 0.42910 -0.08547 0.86356
 H218 H 0.39306 -0.08457 0.88104
 C219 C 0.52091 -0.08321 0.81758
 H220 H 0.55646 -0.08193 0.79932
 C221 C 0.51171 -0.11912 0.85231
 H222 H 0.54041 -0.14565 0.86070
 Zn223 Zn 0.48830 0.00060 0.76103
 N224 N 0.48480 -0.05006 0.80670
 C225 C 0.42333 -0.05350 0.70652
 N226 N 0.44056 -0.00903 0.71041
 C227 C 0.42739 0.02519 0.67660
 C228 C 0.39462 0.01535 0.63771
 C229 C 0.39102 -0.06486 0.66835
 C230 C 0.50730 0.06021 0.83877
 C231 C 0.50125 0.09755 0.87232
 C232 C 0.42703 0.12287 0.82813
 C233 C 0.43490 0.08515 0.79481
 N234 N 0.47485 0.05503 0.80055
 H235 H 0.43553 -0.08090 0.73233
 H236 H 0.44270 0.05990 0.67948
 H237 H 0.38436 0.04290 0.61108
 H238 H 0.37781 -0.10047 0.66682
 H239 H 0.53815 0.03509 0.84302
 H240 H 0.52779 0.10112 0.90225
 H241 H 0.39528 0.14673 0.82285
 H242 H 0.40884 0.07965 0.76498
 C243 C 0.46497 -0.12076 0.87510
 C244 C 0.63113 0.02266 0.66759
 C245 C 0.46064 0.12933 0.86747
 C246 C 0.37638 -0.03036 0.63308
 Si247 Si 0.24616 -0.00459 0.49037
 Si248 Si 0.75553 -0.00078 0.51857
 Si249 Si 0.51036 0.25366 1.00072
 Si250 Si 0.49385 0.74804 0.01045
 Si251 Si 0.98524 0.48930 0.24785
 Si252 Si 0.01220 0.50363 0.74350
 C253 C 0.15598 0.09491 0.53942
 C254 C 0.17442 0.08064 0.58547
 C255 C 0.20675 0.04379 0.57578
 C256 C 0.20569 0.03808 0.52477
 O257 O 0.17480 0.06873 0.50256
 H258 H 0.16562 0.09503 0.62195
 H259 H 0.22884 0.02382 0.60275
 C260 C 0.59340 0.65749 -0.03882
 C261 C 0.57903 0.67568 -0.08484
 C262 C 0.54267 0.70878 -0.07491
 C263 C 0.53747 0.70849 -0.02381
 O264 O 0.56812 0.67758 -0.00168
 H265 H 0.59342 0.66660 -0.12141
 H266 H 0.52258 0.73070 -0.10180
 C267 C 0.85239 -0.10281 0.54234
 C268 C 0.84011 -0.09486 0.59190
 C269 C 0.80647 -0.05784 0.59149
 C270 C 0.80074 -0.04587 0.54197
 O271 O 0.82864 -0.07276 0.51203
 H272 H 0.85383 -0.11369 0.62458
 H273 H 0.78768 -0.04204 0.62338
 C274 C 0.42320 0.36114 1.03575
 C275 C 0.45865 0.36798 1.07195
 C276 C 0.49322 0.33242 1.06529
 C277 C 0.47637 0.30630 1.02591
 O278 O 0.43420 0.32380 1.00751
 H279 H 0.45996 0.39607 1.09927
 H280 H 0.52693 0.32646 1.08643
 C281 C 0.83303 0.10338 0.47147
 C282 C 0.81067 0.09401 0.42624
 C283 C 0.78158 0.05659 0.43508
 C284 C 0.78821 0.04580 0.48483
 O285 O 0.81945 0.07385 0.50696
 H286 H 0.81482 0.11191 0.39083
 H287 H 0.75818 0.03945 0.40840
 C288 C 0.38911 0.66735 0.05278
 C289 C 0.39724 0.68708 0.09919
 C290 C 0.43507 0.71703 0.09238
 C291 C 0.44703 0.71340 0.04254
 O292 O 0.41945 0.68338 0.01850
 H293 H 0.37848 0.68022 0.13399
 H294 H 0.45162 0.73912 0.12030
 C295 C 0.16768 -0.11044 0.45006
 C296 C 0.18277 -0.09755 0.40273
 C297 C 0.21038 -0.05883 0.40933
 C298 C 0.21016 -0.05073 0.45997
 O299 O 0.18412 -0.08170 0.48489
 H300 H 0.17438 -0.11384 0.36734
 H301 H 0.22887 -0.03917 0.38059
 C302 C 0.62371 0.31821 0.95255
 C303 C 0.63828 0.27414 0.93438
 C304 C 0.59963 0.24580 0.94407
 C305 C 0.56460 0.27474 0.96718
 O306 O 0.57900 0.31848 0.97226
 H307 H 0.67336 0.26347 0.91780
 H308 H 0.59828 0.20804 0.93781
 C309 C 0.54847 0.17162 1.11273
 C310 C 0.58648 0.20274 1.11647
 C311 C 0.57897 0.23423 1.07861
 C312 C 0.53724 0.22024 1.05428
 O313 O 0.51843 0.18233 1.07478
 H314 H 0.61603 0.20321 1.14358
 H315 H 0.60115 0.26426 1.06996
 C316 C -0.01797 0.58373 0.62816
 C317 C -0.06178 0.56002 0.63007
 C318 C -0.05663 0.52913 0.66868
 C319 C -0.01033 0.53581 0.68760
 O320 O 0.01336 0.56905 0.66351
 H321 H -0.09445 0.56501 0.60720
 H322 H -0.08378 0.50501 0.68214
 C323 C 0.45368 0.84144 -0.08884
 C324 C 0.40670 0.82734 -0.07713
 C325 C 0.41313 0.79298 -0.04177
 C326 C 0.46333 0.78869 -0.03456
 O327 O 0.48812 0.81780 -0.06303
 H328 H 0.37183 0.84024 -0.09261
 H329 H 0.38464 0.77358 -0.02330
 C330 C 1.02531 0.40284 0.35482
 C331 C 1.07050 0.42294 0.34677
 C332 C 1.06169 0.45791 0.31266
 C333 C 1.01221 0.45654 0.30170
 O334 O 0.98973 0.42355 0.32739
 H335 H 1.10588 0.41372 0.36358
 H336 H 1.08868 0.48024 0.29573
 C337 C 0.54143 0.83908 0.10514
 C338 C 0.58735 0.82242 0.08846
 C339 C 0.57803 0.78723 0.05552
 C340 C 0.52749 0.78505 0.05420
 O341 O 0.50513 0.81607 0.08423
 H342 H 0.62356 0.83399 0.09870
 H343 H 0.60486 0.76662 0.03393
 C344 C -0.01231 0.37885 0.69180
 C345 C -0.03390 0.37177 0.73779
 C346 C -0.02603 0.41205 0.76429
 C347 C -0.00036 0.44064 0.73250
 O348 O 0.00813 0.42053 0.68870
 H349 H -0.05341 0.34123 0.75040
 H350 H -0.03871 0.41990 0.80178
 C351 C 0.45464 0.16877 0.90352
 C352 C 0.41154 0.19510 0.91212
 C353 C 0.42323 0.22724 0.94779
 C354 C 0.47252 0.21829 0.95821
 O355 O 0.49155 0.18277 0.93166
 H356 H 0.37579 0.19132 0.89487
 H357 H 0.39859 0.25407 0.96378
 C358 C 0.98790 0.61909 0.29397
 C359 C 0.96871 0.62927 0.24721
 C360 C 0.96788 0.58672 0.22319
 C361 C 0.98635 0.55391 0.25709
 O362 O 0.99865 0.57334 0.29992
 H363 H 0.95619 0.66339 0.23264
 H364 H 0.95364 0.58005 0.18616
 C365 C 1.08078 0.46092 0.14250
 C366 C 1.06373 0.41569 0.14922
 C367 C 1.02689 0.42019 0.18340
 C368 C 1.02395 0.46741 0.19547
 O369 O 1.05616 0.49253 0.17061
 H370 H 1.07619 0.38294 0.13168
 H371 H 1.00579 0.39203 0.19921
 C372 C 0.67056 0.03342 0.63107
 C373 C 0.69083 0.07729 0.62465
 C374 C 0.72271 0.07216 0.58560
 C375 C 0.71988 0.02575 0.57099
 O376 O 0.68836 0.00208 0.59830
 H377 H 0.68296 0.10974 0.64493
 H378 H 0.74502 0.09925 0.56952
 C379 C -0.08239 0.53798 0.84718
 C380 C -0.05716 0.57968 0.84764
 C381 C -0.02055 0.57358 0.81314
 C382 C -0.02586 0.52878 0.79452
 O383 O -0.06336 0.50718 0.81467
 H384 H -0.06457 0.61118 0.86967
 H385 H 0.00648 0.59893 0.80232
 C386 C 0.33030 0.03715 0.38295
 C387 C 0.30754 0.08090 0.39233
 C388 C 0.27573 0.07368 0.43082
 C389 C 0.28131 0.02630 0.44206
 O390 O 0.31430 0.00408 0.41334
 H391 H 0.31348 0.11436 0.37406
 H392 H 0.25142 0.09989 0.44845
 C393 C 0.14036 0.51613 0.80490
 C394 C 0.15030 0.54249 0.76283
 C395 C 0.10925 0.54002 0.73349
 C396 C 0.07737 0.51256 0.75991
 O397 O 0.09618 0.49785 0.80301
 H398 H 0.18299 0.56208 0.75498
 H399 H 0.10279 0.55766 0.69808
 C400 C 0.66060 -0.04055 0.41995
 C401 C 0.67780 -0.08540 0.43381
 C402 C 0.71189 -0.07854 0.47014
 C403 C 0.71297 -0.03026 0.47599
 O404 O 0.68176 -0.00706 0.44599
 H405 H 0.66727 -0.11925 0.41929
 H406 H 0.73368 -0.10557 0.48970
 C407 C 0.85837 0.47182 0.18680
 C408 C 0.84071 0.47356 0.23530
 C409 C 0.88174 0.47657 0.26490
 C410 C 0.92106 0.47589 0.23233
 O411 O 0.90702 0.47324 0.18535
 H412 H 0.80270 0.47462 0.24771
 H413 H 0.88275 0.48097 0.30505
 C414 C 0.34220 -0.04184 0.59194
 C415 C 0.33032 -0.08711 0.57778
 C416 C 0.29656 -0.08127 0.54043
 C417 C 0.29036 -0.03310 0.53438
 O418 O 0.31813 -0.00902 0.56519
 H419 H 0.34433 -0.12060 0.59263
 H420 H 0.27838 -0.10887 0.52031
   
