data_POSCAR
  _audit_creation_date              2014-09-24
  _audit_creation_method            'ToBaCCo'
  _symmetry_space_group_name_H-M    'P1'
  _symmetry_Int_Tables_number       1
  _symmetry_cell_setting            triclinic
  loop_
  _symmetry_equiv_pos_as_xyz
 x,y,z
_cell_length_a 23.3826
_cell_length_b 23.4167
_cell_length_c 64.8289
_cell_angle_alpha 89.991600
_cell_angle_beta 90.073700
_cell_angle_gamma 119.936000
loop_
  _atom_site_label
  _atom_site_type_symbol
  _atom_site_fract_x
  _atom_site_fract_y
  _atom_site_fract_z
C1 C -0.05881 -0.07253 0.48333
 C2 C -0.01813 -0.03767 0.50008
 C3 C -0.01230 -0.07250 0.51682
 C4 C -0.04630 -0.14155 0.51674
 C5 C -0.08735 -0.17605 0.50008
 C6 C -0.09388 -0.14158 0.48342
 C7 C 0.01825 0.03510 0.50008
 C8 C 0.01214 0.07000 0.51674
 C9 C 0.04612 0.13900 0.51665
 C10 C 0.08740 0.17343 0.50008
 C11 C 0.09422 0.13894 0.48352
 C12 C 0.05923 0.06994 0.48342
 H13 H -0.06389 -0.04582 0.47045
 H14 H 0.01951 -0.04576 0.52971
 H15 H -0.01983 0.04347 0.52959
 H16 H 0.06465 0.04337 0.47057
 H17 H -0.11412 -0.22956 0.50008
 H18 H 0.11411 0.22688 0.50009
 C19 C 1.07273 0.01220 0.14965
 C20 C 1.03797 0.01806 0.16640
 C21 C 1.07303 0.05877 0.18311
 C22 C 1.14212 0.09378 0.18298
 C23 C 1.17653 0.08726 0.16633
 C24 C 1.14189 0.04621 0.14969
 C25 C 0.96510 -0.01830 0.16645
 C26 C 0.93038 -0.05898 0.18318
 C27 C 0.86128 -0.09394 0.18314
 C28 C 0.82656 -0.08739 0.16655
 C29 C 0.86087 -0.04641 0.14992
 C30 C 0.92996 -0.01246 0.14977
 H31 H 1.04586 -0.01963 0.13679
 H32 H 1.04655 0.06399 0.19602
 H33 H 0.95713 -0.06420 0.19604
 H34 H 0.95639 0.01929 0.13688
 H35 H 1.23009 0.11409 0.16635
 H36 H 0.77303 -0.11408 0.16659
 C37 C 0.05732 0.98762 0.85052
 C38 C 0.01642 0.98171 0.83381
 C39 C 0.01057 0.94101 0.81709
 C40 C 0.04472 0.90606 0.81716
 C41 C 0.08594 0.91264 0.83377
 C42 C 0.09255 0.95368 0.85042
 C43 C -0.02010 1.01808 0.83380
 C44 C -0.01424 1.05885 0.81710
 C45 C -0.04836 1.09384 0.81717
 C46 C -0.08955 1.08722 0.83375
 C47 C -0.09617 1.04611 0.85038
 C48 C -0.06097 1.01214 0.85049
 H49 H 0.06245 1.01947 0.86339
 H50 H -0.02134 0.93576 0.80421
 H51 H 0.01766 1.06413 0.80425
 H52 H -0.06610 0.98025 0.86335
 H53 H 0.11275 0.88588 0.83370
 H54 H -0.11633 1.11402 0.83368
 O55 O 0.58194 0.05546 -0.02034
 O56 O 0.47125 0.05554 0.01979
 O57 O 0.58153 0.05358 0.01987
 O58 O 0.46968 0.05352 -0.02043
 O59 O 0.41545 -0.05546 -0.02029
 O60 O 0.52680 -0.05541 0.01973
 O61 O 0.41653 -0.05344 0.01993
 O62 O 0.52771 -0.05353 -0.02048
 Cu63 Cu 0.53158 0.06551 -0.00028
 Cu64 Cu 0.46613 -0.06544 -0.00028
 C65 C 0.57357 0.00117 -0.02724
 C66 C 0.42540 0.00128 0.02670
 C67 C 0.57278 -0.00113 0.02661
 C68 C 0.42372 -0.00120 -0.02717
 O69 O 0.05427 0.47231 0.64661
 O70 O 0.05415 0.58326 0.68662
 O71 O 0.05214 0.47117 0.68682
 O72 O 0.05242 0.58251 0.64640
 O73 O -0.05673 0.52794 0.64645
 O74 O -0.05700 0.41708 0.68657
 O75 O -0.05500 0.52917 0.68666
 O76 O -0.05488 0.41773 0.64637
 Cu77 Cu 0.06424 0.53280 0.66662
 Cu78 Cu -0.06690 0.46751 0.66650
 C79 C -0.00007 0.42646 0.63968
 C80 C -0.00023 0.57497 0.69346
 C81 C -0.00269 0.42538 0.69353
 C82 C -0.00232 0.57376 0.63959
 O83 O 0.47479 0.41689 0.31358
 O84 O 0.58549 0.52772 0.35372
 O85 O 0.47347 0.41752 0.35379
 O86 O 0.58483 0.52898 0.31351
 O87 O 0.52976 0.58308 0.31362
 O88 O 0.41890 0.47211 0.35361
 O89 O 0.53091 0.58230 0.35383
 O90 O 0.41972 0.47099 0.31341
 Cu91 Cu 0.53518 0.46730 0.33365
 Cu92 Cu 0.46930 0.53260 0.33362
 C93 C 0.42875 0.42520 0.30665
 C94 C 0.57694 0.57354 0.36061
 C95 C 0.42742 0.42625 0.36051
 C96 C 0.57581 0.57479 0.30674
 C97 C -0.01156 0.31013 0.57144
 C98 C 0.05479 0.31756 0.56407
 C99 C 0.02311 0.24217 0.56407
 C100 C -0.04318 0.23411 0.57119
 C101 C 0.00992 0.31087 0.59389
 C102 C -0.02179 0.23547 0.59392
 C103 C 0.07617 0.31887 0.58675
 C104 C 0.04460 0.24290 0.58651
 C105 C 0.03111 0.20473 0.54733
 C106 C 0.03798 0.17455 0.53342
 C107 C 0.00404 0.35038 0.61038
 C108 C 0.00104 0.38431 0.62383
 H109 H -0.03477 0.33816 0.56542
 H110 H 0.08639 0.35091 0.55162
 H111 H -0.09217 0.19882 0.56459
 H112 H -0.05339 0.20217 0.60637
 H113 H 0.12520 0.35415 0.59333
 H114 H 0.06782 0.21487 0.59252
 C115 C 0.76627 0.74305 0.26064
 C116 C 0.76690 0.72272 0.23792
 C117 C 0.75886 0.78093 0.23079
 C118 C 0.75886 0.80198 0.25324
 C119 C 0.69075 0.69968 0.26078
 C120 C 0.68277 0.75790 0.25364
 C121 C 0.69076 0.67864 0.23834
 C122 C 0.68335 0.73752 0.23096
 C123 C 0.79598 0.82599 0.21396
 C124 C 0.82594 0.86272 0.19998
 C125 C 0.65153 0.65460 0.27736
 C126 C 0.61780 0.61788 0.29086
 H127 H 0.79992 0.74478 0.27303
 H128 H 0.80193 0.70878 0.23125
 H129 H 0.78725 0.85321 0.25917
 H130 H 0.64775 0.77189 0.26029
 H131 H 0.66237 0.62742 0.23240
 H132 H 0.64964 0.73576 0.21859
 C133 C 0.26741 0.03317 -0.07583
 C134 C 0.28337 0.03803 -0.09919
 C135 C 0.21622 -0.02413 -0.10293
 C136 C 0.19951 -0.02911 -0.07986
 C137 C 0.29805 -0.01107 -0.07303
 C138 C 0.23089 -0.07321 -0.07680
 C139 C 0.31472 -0.00610 -0.09612
 C140 C 0.24690 -0.06832 -0.10012
 C141 C 0.17084 -0.03203 -0.11972
 C142 C 0.13386 -0.03878 -0.13367
 C143 C 0.34345 -0.00525 -0.05650
 C144 C 0.38040 -0.00227 -0.04304
 H145 H 0.27639 0.07499 -0.06566
 H146 H 0.30443 0.08368 -0.10859
 H147 H 0.15161 -0.03870 -0.07336
 H148 H 0.20979 -0.11890 -0.06741
 H149 H 0.36260 0.00347 -0.10262
 H150 H 0.23797 -0.11015 -0.11027
 C151 C -0.05451 0.72184 0.59477
 C152 C 0.00278 0.78505 0.58509
 C153 C -0.02451 0.75748 0.56355
 C154 C -0.08186 0.69491 0.57298
 C155 C -0.01176 0.68904 0.59357
 C156 C -0.03904 0.66155 0.57202
 C157 C 0.04564 0.75161 0.58416
 C158 C 0.01823 0.72469 0.56234
 C159 C -0.03225 0.79478 0.54670
 C160 C -0.03888 0.82487 0.53270
 C161 C -0.00611 0.64966 0.61016
 C162 C -0.00326 0.61583 0.62367
 H163 H -0.08432 0.72027 0.60830
 H164 H 0.01985 0.83626 0.59027
 H165 H -0.13436 0.67199 0.56820
 H166 H -0.05614 0.61035 0.56681
 H167 H 0.09813 0.77448 0.58894
 H168 H 0.04802 0.72625 0.54881
 C169 C 0.31705 0.23850 0.25474
 C170 C 0.24074 0.19911 0.25339
 C171 C 0.24527 0.21903 0.23062
 C172 C 0.32100 0.25774 0.23172
 C173 C 0.31367 0.30032 0.26062
 C174 C 0.31819 0.32021 0.23784
 C175 C 0.23794 0.26165 0.25954
 C176 C 0.24185 0.28084 0.23648
 C177 C 0.20794 0.17394 0.21379
 C178 C 0.17777 0.13717 0.19981
 C179 C 0.35300 0.34541 0.27721
 C180 C 0.38677 0.38213 0.29073
 H181 H 0.34840 0.22157 0.26243
 H182 H 0.20850 0.14880 0.25960
 H183 H 0.35475 0.25562 0.22011
 H184 H 0.35042 0.37051 0.23162
 H185 H 0.20424 0.26380 0.27116
 H186 H 0.21048 0.29773 0.22877
 C187 C 0.70986 0.05226 -0.09269
 C188 C 0.78522 0.08134 -0.09018
 C189 C 0.78037 0.02395 -0.10302
 C190 C 0.70565 -0.00504 -0.10577
 C191 C 0.69875 0.01093 -0.07313
 C192 C 0.69384 -0.04651 -0.08596
 C193 C 0.77348 0.03992 -0.07038
 C194 C 0.76932 -0.01741 -0.08348
 C195 C 0.82566 0.03183 -0.11979
 C196 C 0.86258 0.03857 -0.13373
 C197 C 0.65350 0.00513 -0.05660
 C198 C 0.61668 0.00220 -0.04312
 H199 H 0.68489 0.08082 -0.09631
 H200 H 0.82327 0.13398 -0.09210
 H201 H 0.67827 -0.02340 -0.12052
 H202 H 0.65577 -0.09914 -0.08404
 H203 H 0.80085 0.05830 -0.05563
 H204 H 0.79434 -0.04593 -0.07988
 C205 C 0.32811 0.07694 0.08316
 C206 C 0.25469 0.05831 0.08176
 C207 C 0.24251 0.02421 0.10284
 C208 C 0.31538 0.04295 0.10448
 C209 C 0.31059 0.01117 0.07278
 C210 C 0.29842 -0.02292 0.09386
 C211 C 0.23772 -0.00758 0.07113
 C212 C 0.22492 -0.04159 0.09249
 C213 C 0.20539 0.03207 0.11971
 C214 C 0.17541 0.03877 0.13373
 C215 C 0.34978 0.00535 0.05616
 C216 C 0.38347 0.00237 0.04263
 H217 H 0.37098 0.12563 0.07914
 H218 H 0.23632 0.09182 0.07698
 H219 H 0.34692 0.06385 0.11836
 H220 H 0.31680 -0.05642 0.09865
 H221 H 0.20622 -0.02847 0.05723
 H222 H 0.18204 -0.09024 0.09652
 C223 C 0.72381 0.76115 0.41146
 C224 C 0.71187 0.74353 0.43470
 C225 C 0.78317 0.75736 0.43662
 C226 C 0.79587 0.77561 0.41366
 C227 C 0.70184 0.68885 0.40662
 C228 C 0.77316 0.70271 0.40856
 C229 C 0.68920 0.67065 0.42959
 C230 C 0.76116 0.68507 0.43177
 C231 C 0.82828 0.79469 0.45346
 C232 C 0.86505 0.82480 0.46746
 C233 C 0.65673 0.64945 0.39004
 C234 C 0.62000 0.61561 0.37653
 H235 H 0.70793 0.79198 0.40292
 H236 H 0.68717 0.76073 0.44564
 H237 H 0.84027 0.81918 0.40731
 H238 H 0.79789 0.68551 0.39763
 H239 H 0.64483 0.62709 0.43596
 H240 H 0.77701 0.65419 0.44029
 C241 C 0.04389 0.29225 0.74825
 C242 C 0.01993 0.29424 0.77038
 C243 C -0.02581 0.21916 0.76955
 C244 C -0.00197 0.21641 0.74769
 C245 C -0.01273 0.30046 0.73955
 C246 C -0.05847 0.22538 0.73873
 C247 C -0.03656 0.30315 0.76142
 C248 C -0.08237 0.22743 0.76084
 C249 C -0.03371 0.17405 0.78637
 C250 C -0.04044 0.13725 0.80034
 C251 C -0.00687 0.34557 0.72297
 C252 C -0.00385 0.38230 0.70945
 H253 H 0.09588 0.31941 0.74289
 H254 H 0.05206 0.32205 0.78359
 H255 H 0.01212 0.18019 0.74224
 H256 H -0.09061 0.19756 0.72552
 H257 H -0.05067 0.33934 0.76689
 H258 H -0.13437 0.20031 0.76619
 C259 C 0.73455 -0.03958 0.06974
 C260 C 0.78751 0.01771 0.08292
 C261 C 0.75730 -0.02394 0.10241
 C262 C 0.70498 -0.08128 0.08949
 C263 C 0.68855 -0.01091 0.07250
 C264 C 0.65842 -0.05253 0.09200
 C265 C 0.74085 0.04648 0.08541
 C266 C 0.71129 0.00472 0.10517
 C267 C 0.79481 -0.03181 0.11919
 C268 C 0.82510 -0.03852 0.13313
 C269 C 0.64899 -0.00511 0.05596
 C270 C 0.61502 -0.00216 0.04249
 H271 H 0.74371 -0.05768 0.05498
 H272 H 0.84104 0.04647 0.07938
 H273 H 0.69062 -0.13390 0.09135
 H274 H 0.60491 -0.08133 0.09557
 H275 H 0.75517 0.09908 0.08354
 H276 H 0.70211 0.02281 0.11992
 C277 C 0.23848 0.24421 0.40322
 C278 C 0.25673 0.21698 0.42239
 C279 C 0.22025 0.24201 0.43610
 C280 C 0.20130 0.26860 0.41720
 C281 C 0.30204 0.31066 0.40628
 C282 C 0.26552 0.33560 0.42001
 C283 C 0.32102 0.28409 0.42518
 C284 C 0.28381 0.30846 0.43915
 C285 C 0.17487 0.20460 0.45284
 C286 C 0.13787 0.17445 0.46674
 C287 C 0.34737 0.35017 0.38979
 C288 C 0.38424 0.38409 0.37635
 H289 H 0.22039 0.21822 0.38826
 H290 H 0.25255 0.16775 0.42357
 H291 H 0.15159 0.26185 0.41410
 H292 H 0.26963 0.38481 0.41885
 H293 H 0.37074 0.29086 0.42828
 H294 H 0.30193 0.33449 0.45410
 C295 C -0.01815 0.74713 0.73885
 C296 C -0.04415 0.72618 0.76115
 C297 C 0.02234 0.78097 0.76947
 C298 C 0.04843 0.80264 0.74746
 C299 C 0.00942 0.69978 0.73946
 C300 C 0.07588 0.75459 0.74780
 C301 C -0.01665 0.67812 0.76148
 C302 C 0.04989 0.73360 0.77006
 C303 C 0.03016 0.82600 0.78632
 C304 C 0.03684 0.86273 0.80031
 C305 C 0.00368 0.65474 0.72287
 C306 C 0.00077 0.61804 0.70936
 H307 H -0.04624 0.75214 0.72584
 H308 H -0.09342 0.71503 0.76684
 H309 H 0.07531 0.85434 0.74188
 H310 H 0.12518 0.76580 0.74213
 H311 H -0.04352 0.62643 0.76706
 H312 H 0.07799 0.72855 0.78306
   
