data_POSCAR
  _audit_creation_date              2014-09-24
  _audit_creation_method            'ToBaCCo'
  _symmetry_space_group_name_H-M    'P1'
  _symmetry_Int_Tables_number       1
  _symmetry_cell_setting            triclinic
  loop_
  _symmetry_equiv_pos_as_xyz
 x,y,z
_cell_length_a 42.8093
_cell_length_b 40.2140
_cell_length_c 42.3784
_cell_angle_alpha 90.932100
_cell_angle_beta 90.075100
_cell_angle_gamma 89.624000
loop_
  _atom_site_label
  _atom_site_type_symbol
  _atom_site_fract_x
  _atom_site_fract_y
  _atom_site_fract_z
N1 N 0.18146 1.25007 0.15452
 N2 N 0.15964 1.25232 0.17619
 C3 C 0.13827 1.27511 0.16739
 C4 C 0.14725 1.28812 0.13859
 C5 C 0.17497 1.27152 0.13136
 H6 H 0.11780 1.28167 0.18105
 H7 H 0.18918 1.27410 0.11052
 Cu8 Cu 0.16128 1.22442 0.21328
 Cu9 Cu 0.21601 1.21847 0.15706
 Cu10 Cu 0.21927 1.16893 0.22337
 N11 N 0.16293 1.19653 0.25033
 N12 N 0.18541 1.17452 0.25386
 C13 C 0.17995 1.15696 0.28002
 C14 C 0.15245 1.16857 0.29391
 C15 C 0.14253 1.19394 0.27431
 H16 H 0.19483 1.13696 0.28792
 H17 H 0.12139 1.20858 0.27649
 N18 N 0.25112 1.16712 0.18970
 N19 N 0.24914 1.18516 0.16400
 C20 C 0.27264 1.17655 0.14440
 C21 C 0.29046 1.15222 0.15852
 C22 C 0.27632 1.14695 0.18730
 H23 H 0.27650 1.18700 0.12139
 H24 H 0.28320 1.12876 0.20453
 H25 H 0.19378 1.18402 0.18481
 H26 H 0.21731 1.21640 0.20578
 N27 N 0.81398 0.76023 0.16978
 N28 N 0.83855 0.76539 0.18779
 C29 C 0.86157 0.74435 0.17882
 C30 C 0.85073 0.72470 0.15415
 C31 C 0.82035 0.73528 0.14912
 H32 H 0.88470 0.74366 0.18905
 H33 H 0.80473 0.72669 0.13068
 Cu34 Cu 0.83885 0.79990 0.22043
 Cu35 Cu 0.77735 0.78921 0.17167
 Cu36 Cu 0.77879 0.85377 0.22697
 N37 N 0.83893 0.83591 0.25160
 N38 N 0.81574 0.85734 0.25361
 C39 C 0.82226 0.88023 0.27614
 C40 C 0.85116 0.87270 0.28932
 C41 C 0.86090 0.84422 0.27301
 H42 H 0.80680 0.90056 0.28257
 H43 H 0.88263 0.83084 0.27591
 N44 N 0.74342 0.84607 0.19805
 N45 N 0.74276 0.82144 0.17711
 C46 C 0.71647 0.82406 0.15979
 C47 C 0.69971 0.85164 0.17035
 C48 C 0.71752 0.86486 0.19470
 H49 H 0.71038 0.80760 0.14037
 H50 H 0.71267 0.88744 0.20802
 H51 H 0.80084 0.83041 0.18904
 H52 H 0.78194 0.80308 0.21859
 N53 N 0.79955 1.24820 -0.16938
 N54 N 0.82125 1.24861 -0.19128
 C55 C 0.83851 1.27628 -0.18735
 C56 C 0.82698 1.29422 -0.16163
 C57 C 0.80210 1.27563 -0.15101
 H58 H 0.85883 1.28215 -0.20125
 H59 H 0.78821 1.28051 -0.13015
 Cu60 Cu 0.82768 1.21075 -0.21986
 Cu61 Cu 0.77229 1.21024 -0.16346
 Cu62 Cu 0.78534 1.14135 -0.21184
 N63 N 0.83343 1.17239 -0.24801
 N64 N 0.81855 1.14454 -0.24285
 C65 C 0.82923 1.12074 -0.26274
 C66 C 0.85185 1.13436 -0.28195
 C67 C 0.85366 1.16741 -0.27202
 H68 H 0.82056 1.09558 -0.26356
 H69 H 0.86963 1.18594 -0.28051
 N70 N 0.75252 1.14305 -0.17940
 N71 N 0.74729 1.16937 -0.16114
 C72 C 0.72305 1.16300 -0.14195
 C73 C 0.71238 1.13120 -0.14859
 C74 C 0.73168 1.11936 -0.17246
 H75 H 0.71357 1.18041 -0.12473
 H76 H 0.73067 1.09518 -0.18389
 H77 H 0.80412 1.17550 -0.18019
 H78 H 0.77496 1.19159 -0.20911
 N79 N 0.18432 0.74240 -0.16833
 N80 N 0.16329 0.74606 -0.19064
 C81 C 0.14038 0.72376 -0.18655
 C82 C 0.14737 0.70513 -0.16018
 C83 C 0.17551 0.71773 -0.14929
 H84 H 0.11972 0.72186 -0.20111
 H85 H 0.18857 0.70981 -0.12887
 Cu86 Cu 0.16745 0.78085 -0.22172
 Cu87 Cu 0.22090 0.77080 -0.16464
 Cu88 Cu 0.22839 0.83277 -0.22013
 N89 N 0.17165 0.81562 -0.25282
 N90 N 0.19564 0.83580 -0.25199
 C91 C 0.19278 0.85795 -0.27527
 C92 C 0.16534 0.85153 -0.29180
 C93 C 0.15262 0.82430 -0.27669
 H94 H 0.20937 0.87753 -0.27933
 H95 H 0.13098 0.81186 -0.28225
 N96 N 0.25902 0.82564 -0.18605
 N97 N 0.25620 0.80207 -0.16497
 C98 C 0.27993 0.80451 -0.14419
 C99 C 0.29865 0.83097 -0.15246
 C100 C 0.28462 0.84368 -0.17922
 H101 H 0.28275 0.78888 -0.12389
 H102 H 0.29214 0.86488 -0.19248
 H103 H 0.20107 0.81191 -0.18557
 H104 H 0.22347 0.78266 -0.21177
 C105 C 0.52790 1.05289 -0.01364
 H106 H 0.51066 1.06580 0.00061
 C107 C 0.55114 1.07109 -0.02855
 H108 H 0.55087 1.09794 -0.02629
 C109 C 0.54957 1.00238 -0.03341
 H110 H 0.54898 0.97550 -0.03479
 C111 C 0.57333 1.01955 -0.04852
 H112 H 0.59108 1.00558 -0.06130
 N113 N 0.52733 1.01916 -0.01659
 C114 C 0.46222 1.01475 0.05813
 H115 H 0.47477 0.99569 0.07074
 C116 C 0.43834 1.03274 0.07328
 H117 H 0.43280 1.02708 0.09750
 C118 C 0.45244 1.04293 0.01046
 H119 H 0.45758 1.04614 -0.01429
 C120 C 0.42903 1.06202 0.02482
 H121 H 0.41709 1.08058 0.01099
 Zn122 Zn 0.49742 0.99308 0.00450
 N123 N 0.46867 1.02006 0.02721
 C124 C 0.53882 0.98002 0.05344
 N125 N 0.52006 0.96501 0.03167
 C126 C 0.52035 0.93142 0.02732
 C127 C 0.54070 0.91160 0.04480
 C128 C 0.55953 0.96118 0.07139
 C129 C 0.47715 0.97085 -0.05637
 C130 C 0.45719 0.95401 -0.07719
 C131 C 0.43048 0.93108 -0.03239
 C132 C 0.45085 0.94841 -0.01247
 N133 N 0.47358 0.96781 -0.02466
 H134 H 0.53851 1.00684 0.05596
 H135 H 0.50570 0.92002 0.00947
 H136 H 0.54099 0.88496 0.04067
 H137 H 0.57518 0.97379 0.08764
 H138 H 0.49492 0.98696 -0.06559
 H139 H 0.46020 0.95685 -0.10237
 H140 H 0.41203 0.91647 -0.02216
 H141 H 0.44817 0.94697 0.01285
 C142 C 0.42113 1.05666 0.05653
 C143 C 0.57434 1.05443 -0.04624
 C144 C 0.43330 0.93402 -0.06523
 C145 C 0.56107 0.92653 0.06678
 C146 C -0.02437 0.54868 1.04019
 H147 H 0.00044 0.54598 1.04443
 C148 C -0.04181 0.57149 1.05808
 H149 H -0.03017 0.58548 1.07662
 C150 C -0.06928 0.53308 1.01098
 H151 H -0.07973 0.51854 0.99213
 C152 C -0.08753 0.55614 1.02789
 H153 H -0.11190 0.55901 1.02162
 N154 N -0.03832 0.52966 1.01751
 C155 C 0.02686 0.44658 1.00471
 H156 H 0.02912 0.44672 0.97929
 C157 C 0.04223 0.42224 1.02213
 H158 H 0.05606 0.40356 1.00976
 C159 C 0.00469 0.46993 1.05127
 H160 H -0.01049 0.48803 1.06255
 C161 C 0.01990 0.44627 1.06964
 H162 H 0.01685 0.44724 1.09499
 Zn163 Zn -0.01243 0.50066 0.99340
 N164 N 0.00871 0.46994 1.01944
 C165 C 0.04763 0.52534 0.97689
 N166 N 0.01628 0.52778 0.97202
 C167 C 0.00400 0.55143 0.95300
 C168 C 0.02346 0.57363 0.93762
 C169 C 0.06797 0.54718 0.96206
 C170 C -0.05798 0.45442 0.97645
 C171 C -0.07478 0.43306 0.95657
 C172 C -0.04669 0.45485 0.91211
 C173 C -0.03050 0.47592 0.93284
 N174 N -0.03636 0.47529 0.96436
 H175 H 0.05688 0.50686 0.99265
 H176 H -0.02106 0.55323 0.95010
 H177 H 0.01314 0.59259 0.92297
 H178 H 0.09286 0.54487 0.96612
 H179 H -0.06170 0.45397 1.00168
 H180 H -0.09134 0.41609 0.96677
 H181 H -0.04161 0.45555 0.88711
 H182 H -0.01274 0.49212 0.92377
 C183 C 0.03899 0.42191 1.05513
 C184 C -0.07388 0.57577 1.05194
 C185 C -0.06900 0.43285 0.92395
 C186 C 0.05591 0.57177 0.94216
 C187 C 1.05613 -0.00783 0.55131
 H188 H 1.05663 0.01899 0.55372
 C189 C 1.07176 -0.02744 0.57321
 H190 H 1.08416 -0.01544 0.59249
 C191 C 1.03762 -0.05584 0.52426
 H192 H 1.02372 -0.06681 0.50557
 C193 C 1.05293 -0.07643 0.54566
 H194 H 1.05118 -0.10316 0.54278
 N195 N 1.03944 -0.02219 0.52749
 C196 C 1.02810 0.05393 0.45651
 H197 H 1.00287 0.05448 0.45508
 C198 C 1.04579 0.07168 0.43498
 H199 H 1.03378 0.08556 0.41691
 C200 C 1.07401 0.03277 0.48040
 H201 H 1.08489 0.01687 0.49759
 C202 C 1.09264 0.05051 0.45958
 H203 H 1.11780 0.04865 0.46163
 Zn204 Zn 1.01600 0.00672 0.50168
 N205 N 1.04235 0.03452 0.47824
 C206 C 0.99635 0.06484 0.53502
 N207 N 0.99027 0.03220 0.52918
 C208 C 0.96762 0.01612 0.54519
 C209 C 0.94914 0.03320 0.56721
 C210 C 0.97931 0.08259 0.55792
 C211 C 1.00832 -0.03589 0.44986
 C212 C 0.99269 -0.05333 0.42596
 C213 C 0.94376 -0.03274 0.44708
 C214 C 0.96038 -0.01536 0.47036
 N215 N 0.99208 -0.01763 0.47165
 H216 H 1.01522 0.07683 0.52277
 H217 H 0.96390 -0.01014 0.54081
 H218 H 0.93045 0.01979 0.57832
 H219 H 0.98578 0.10805 0.56303
 H220 H 1.03357 -0.03657 0.45091
 H221 H 1.00621 -0.06715 0.40856
 H222 H 0.91852 -0.03110 0.44698
 H223 H 0.94783 0.00025 0.48702
 C224 C 1.07858 0.06974 0.43595
 C225 C 1.07005 -0.06225 0.57074
 C226 C 0.95990 -0.05207 0.42440
 C227 C 0.95513 0.06687 0.57450
 C228 C 0.14546 0.32491 1.09294
 C229 C 0.13164 0.31232 1.12047
 C230 C 0.10180 0.32441 1.12928
 C231 C 0.08621 0.34818 1.11101
 C232 C 0.10063 0.36067 1.08376
 C233 C 0.13023 0.34888 1.07496
 C234 C 0.08524 0.38475 1.06573
 C235 C 0.05525 0.39630 1.07426
 C236 C 0.04095 0.38326 1.10123
 C237 C 0.05632 0.35959 1.11949
 H238 H 0.09022 0.31519 1.15003
 H239 H 0.14163 0.35812 1.05407
 H240 H 0.09686 0.39477 1.04531
 H241 H 0.04473 0.35009 1.14017
 H242 H 0.16831 0.31671 1.08516
 H243 H 0.01765 0.39107 1.10809
 C244 C -0.09927 0.70505 1.12993
 C245 C -0.13122 0.70003 1.13539
 C246 C -0.14571 0.67151 1.12279
 C247 C -0.12829 0.64796 1.10527
 C248 C -0.09627 0.65357 1.09945
 C249 C -0.08202 0.68224 1.11179
 C250 C -0.07893 0.63035 1.08158
 C251 C -0.09274 0.60080 1.07019
 C252 C -0.12457 0.59531 1.07658
 C253 C -0.14220 0.61877 1.09369
 H254 H -0.17032 0.66736 1.12717
 H255 H -0.05748 0.68692 1.10763
 H256 H -0.05469 0.63556 1.07644
 H257 H -0.16663 0.61386 1.09822
 H258 H -0.08773 0.72701 1.13921
 H259 H -0.13585 0.57262 1.06879
 C260 C -0.17639 0.34222 0.87677
 C261 C -0.15913 0.32383 0.85420
 C262 C -0.12799 0.33282 0.84825
 C263 C -0.11393 0.35878 0.86553
 C264 C -0.13126 0.37636 0.88881
 C265 C -0.16262 0.36826 0.89386
 C266 C -0.11678 0.40122 0.90715
 C267 C -0.08502 0.40860 0.90276
 C268 C -0.06821 0.39148 0.87901
 C269 C -0.08253 0.36685 0.86053
 H270 H -0.11425 0.31892 0.83107
 H271 H -0.17634 0.38164 0.91145
 H272 H -0.13012 0.41453 0.92510
 H273 H -0.06886 0.35361 0.84281
 H274 H -0.20053 0.33632 0.88151
 H275 H -0.04365 0.39639 0.87537
 C276 C 0.10356 0.66401 0.83698
 C277 C 0.12818 0.67870 0.85409
 C278 C 0.13401 0.66831 0.88512
 C279 C 0.11532 0.64400 0.89896
 C280 C 0.09049 0.62968 0.88160
 C281 C 0.08492 0.63973 0.85058
 C282 C 0.07149 0.60577 0.89562
 C283 C 0.07686 0.59602 0.92691
 C284 C 0.10179 0.61027 0.94386
 C285 C 0.12085 0.63402 0.93003
 H286 H 0.15267 0.67946 0.89883
 H287 H 0.06604 0.62894 0.83687
 H288 H 0.05255 0.59472 0.88216
 H289 H 0.13970 0.64485 0.94375
 H290 H 0.09867 0.67112 0.81296
 H291 H 0.10615 0.60358 0.96813
 C292 C 1.11011 0.17212 0.33294
 C293 C 1.13715 0.15625 0.32080
 C294 C 1.14806 0.12729 0.33578
 C295 C 1.13184 0.11395 0.36135
 C296 C 1.10468 0.13001 0.37291
 C297 C 1.09422 0.15927 0.35876
 C298 C 1.08807 0.11624 0.39802
 C299 C 1.09775 0.08598 0.41131
 C300 C 1.12502 0.07037 0.39966
 C301 C 1.14199 0.08432 0.37511
 H302 H 1.16862 0.11428 0.32719
 H303 H 1.07343 0.17197 0.36735
 H304 H 1.06743 0.12895 0.40694
 H305 H 1.16268 0.07151 0.36641
 H306 H 1.10094 0.19461 0.32270
 H307 H 1.13284 0.04678 0.40884
 C308 C 1.16879 -0.10322 0.67013
 C309 C 1.15286 -0.13073 0.68249
 C310 C 1.12400 -0.13978 0.66874
 C311 C 1.11119 -0.12149 0.64386
 C312 C 1.12733 -0.09380 0.63217
 C313 C 1.15618 -0.08505 0.64530
 C314 C 1.11419 -0.07505 0.60781
 C315 C 1.08488 -0.08343 0.59504
 C316 C 1.06921 -0.11136 0.60656
 C317 C 1.08225 -0.13023 0.63070
 H318 H 1.11107 -0.16077 0.67737
 H319 H 1.16894 -0.06392 0.63655
 H320 H 1.12672 -0.05385 0.59887
 H321 H 1.06947 -0.15135 0.63941
 H322 H 1.19104 -0.09527 0.67952
 H323 H 1.04643 -0.11813 0.59748
 C324 C 0.85595 -0.07891 0.32507
 C325 C 0.86716 -0.10987 0.31355
 C326 C 0.89481 -0.12295 0.32683
 C327 C 0.91072 -0.10568 0.35093
 C328 C 0.89934 -0.07455 0.36181
 C329 C 0.87197 -0.06140 0.34873
 C330 C 0.91551 -0.05707 0.38559
 C331 C 0.94276 -0.07055 0.39913
 C332 C 0.95355 -0.10185 0.38837
 C333 C 0.93781 -0.11915 0.36441
 H334 H 0.90398 -0.14681 0.31899
 H335 H 0.86287 -0.03754 0.35682
 H336 H 0.90705 -0.03279 0.39321
 H337 H 0.94674 -0.14316 0.35656
 H338 H 0.83505 -0.06762 0.31559
 H339 H 0.97404 -0.11324 0.39872
 C340 C 0.87129 0.08287 0.69341
 C341 C 0.86951 0.11790 0.69444
 C342 C 0.88570 0.13589 0.67136
 C343 C 0.90266 0.11919 0.64747
 C344 C 0.90498 0.08419 0.64753
 C345 C 0.88932 0.06630 0.67064
 C346 C 0.92268 0.06751 0.62433
 C347 C 0.93689 0.08502 0.59965
 C348 C 0.93344 0.11993 0.59936
 C349 C 0.91699 0.13683 0.62326
 H350 H 0.88426 0.16279 0.67115
 H351 H 0.89071 0.03938 0.67093
 H352 H 0.92542 0.04083 0.62593
 H353 H 0.91503 0.16368 0.62247
 H354 H 0.85966 0.06800 0.71082
 H355 H 0.94310 0.13443 0.58050
 C356 C 0.34233 1.12365 0.16365
 C357 C 0.31739 1.13418 0.14464
 C358 C 0.31809 1.12724 0.11209
 C359 C 0.34333 1.10982 0.09860
 C360 C 0.36872 1.09994 0.11768
 C361 C 0.36800 1.10702 0.15023
 C362 C 0.39425 1.08302 0.10393
 C363 C 0.39437 1.07500 0.07140
 C364 C 0.36840 1.08430 0.05300
 C365 C 0.34338 1.10184 0.06635
 H366 H 0.29867 1.13480 0.09734
 H367 H 0.38717 1.09952 0.16530
 H368 H 0.41404 1.07642 0.11855
 H369 H 0.32388 1.10882 0.05148
 H370 H 0.34219 1.12883 0.18881
 H371 H 0.36707 1.07767 0.02820
 C372 C 0.67254 1.08577 -0.14877
 C373 C 0.68592 1.11370 -0.13375
 C374 C 0.67392 1.12464 -0.10446
 C375 C 0.64912 1.10781 -0.09029
 C376 C 0.63593 1.07977 -0.10563
 C377 C 0.64774 1.06904 -0.13489
 C378 C 0.61129 1.06280 -0.09139
 C379 C 0.59977 1.07316 -0.06172
 C380 C 0.61306 1.10116 -0.04672
 C381 C 0.63742 1.11837 -0.06090
 H382 H 0.68411 1.14589 -0.09239
 H383 H 0.63788 1.04761 -0.14702
 H384 H 0.60100 1.04161 -0.10353
 H385 H 0.64730 1.13977 -0.04874
 H386 H 0.68098 1.07689 -0.17145
 H387 H 0.60503 1.10946 -0.02368
 C388 C 0.33977 0.82628 -0.11034
 C389 C 0.32611 0.84433 -0.13503
 C390 C 0.33828 0.87576 -0.14221
 C391 C 0.36287 0.88938 -0.12442
 C392 C 0.37581 0.87132 -0.09919
 C393 C 0.36438 0.83961 -0.09264
 C394 C 0.39948 0.88556 -0.08055
 C395 C 0.41029 0.91779 -0.08662
 C396 C 0.39775 0.93518 -0.11227
 C397 C 0.37429 0.92111 -0.13101
 H398 H 0.32819 0.89018 -0.16105
 H399 H 0.37418 0.82529 -0.07354
 H400 H 0.40924 0.87172 -0.06109
 H401 H 0.36464 0.93532 -0.15027
 H402 H 0.33138 0.80185 -0.10444
 H403 H 0.40538 0.96017 -0.11724
 C404 C 0.65318 0.88978 0.17377
 C405 C 0.67083 0.86605 0.15663
 C406 C 0.66145 0.85731 0.12579
 C407 C 0.63553 0.87283 0.11189
 C408 C 0.61844 0.89722 0.12910
 C409 C 0.62722 0.90519 0.16016
 C410 C 0.59337 0.91378 0.11469
 C411 C 0.58536 0.90662 0.08311
 C412 C 0.60212 0.88178 0.06649
 C413 C 0.62692 0.86500 0.08075
 H414 H 0.67484 0.83928 0.11211
 H415 H 0.61432 0.92373 0.17376
 H416 H 0.58041 0.93260 0.12789
 H417 H 0.63984 0.84647 0.06717
 H418 H 0.65948 0.89666 0.19772
 H419 H 0.59678 0.87609 0.04201
   
