data_POSCAR
  _audit_creation_date              2014-09-24
  _audit_creation_method            'ToBaCCo'
  _symmetry_space_group_name_H-M    'P1'
  _symmetry_Int_Tables_number       1
  _symmetry_cell_setting            triclinic
  loop_
  _symmetry_equiv_pos_as_xyz
 x,y,z
_cell_length_a 27.3050
_cell_length_b 27.2425
_cell_length_c 80.2980
_cell_angle_alpha 89.995600
_cell_angle_beta 90.032400
_cell_angle_gamma 119.896500
loop_
  _atom_site_label
  _atom_site_type_symbol
  _atom_site_fract_x
  _atom_site_fract_y
  _atom_site_fract_z
C1 C -0.05562 -0.06346 0.48636
 C2 C -0.01909 -0.03363 0.49954
 C3 C -0.01227 -0.06333 0.51276
 C4 C -0.04173 -0.12291 0.51300
 C5 C -0.07827 -0.15217 0.49963
 C6 C -0.08566 -0.12305 0.48621
 C7 C 0.01210 0.02891 0.49951
 C8 C 0.00761 0.05888 0.51308
 C9 C 0.03710 0.11833 0.51317
 C10 C 0.07138 0.14753 0.49948
 C11 C 0.07637 0.11810 0.48581
 C12 C 0.04644 0.05865 0.48592
 H13 H -0.06043 -0.03977 0.47627
 H14 H 0.01624 -0.03955 0.52281
 H15 H -0.01896 0.03572 0.52354
 H16 H 0.04981 0.03532 0.47548
 H17 H -0.10116 -0.19803 0.49966
 H18 H 0.09432 0.19339 0.49947
 C19 C 1.06196 0.00639 0.15287
 C20 C 1.03206 0.01241 0.16617
 C21 C 1.06165 0.04835 0.17949
 C22 C 1.12090 0.07853 0.17960
 C23 C 1.15036 0.07232 0.16618
 C24 C 1.12146 0.03619 0.15269
 C25 C 0.96965 -0.01888 0.16614
 C26 C 0.93982 -0.05345 0.17969
 C27 C 0.88051 -0.08319 0.17978
 C28 C 0.85131 -0.07782 0.16612
 C29 C 0.88059 -0.04329 0.15248
 C30 C 0.93990 -0.01399 0.15259
 H31 H 1.03842 -0.02174 0.14271
 H32 H 1.03833 0.05275 0.18975
 H33 H 0.96298 -0.05706 0.19013
 H34 H 0.96312 0.01283 0.14217
 H35 H 1.19611 0.09586 0.16630
 H36 H 0.80555 -0.10057 0.16612
 C37 C 0.05153 0.99108 0.84716
 C38 C 0.01634 0.98599 0.83374
 C39 C 0.01064 0.95075 0.82028
 C40 C 0.03967 0.92037 0.82013
 C41 C 0.07459 0.92563 0.83368
 C42 C 0.08118 0.96107 0.84731
 C43 C -0.01449 1.01773 0.83378
 C44 C -0.00837 1.05362 0.82046
 C45 C -0.03743 1.08397 0.82038
 C46 C -0.07283 1.07801 0.83385
 C47 C -0.07987 1.04188 0.84733
 C48 C -0.05016 1.01193 0.84712
 H49 H 0.05565 1.01872 0.85743
 H50 H -0.01646 0.94713 0.80993
 H51 H 0.01908 1.05776 0.81016
 H52 H -0.05462 0.98378 0.85728
 H53 H 0.09679 0.90195 0.83352
 H54 H -0.09507 1.10164 0.83374
 O55 O 0.56861 0.04547 -0.01691
 O56 O 0.47679 0.04445 0.01645
 O57 O 0.57092 0.04259 0.01558
 O58 O 0.47235 0.04320 -0.01604
 O59 O 0.42909 -0.05023 -0.01691
 O60 O 0.52170 -0.05089 0.01597
 O61 O 0.42741 -0.04900 0.01562
 O62 O 0.52535 -0.04800 -0.01648
 Cu63 Cu 0.52681 0.05331 -0.00021
 Cu64 Cu 0.47120 -0.05892 -0.00047
 C65 C 0.56309 -0.00075 -0.02233
 C66 C 0.43638 -0.00210 0.02168
 C67 C 0.56222 -0.00461 0.02133
 C68 C 0.43454 -0.00375 -0.02204
 O69 O 0.04971 0.47928 0.65003
 O70 O 0.04949 0.57297 0.68269
 O71 O 0.04784 0.47675 0.68253
 O72 O 0.04752 0.57366 0.65021
 O73 O -0.04574 0.52419 0.64970
 O74 O -0.04544 0.43244 0.68297
 O75 O -0.04379 0.52863 0.68222
 O76 O -0.04356 0.43000 0.65051
 Cu77 Cu 0.05801 0.53037 0.66636
 Cu78 Cu -0.05400 0.47415 0.66635
 C79 C 0.00344 0.43864 0.64473
 C80 C 0.00315 0.56709 0.68801
 C81 C 0.00091 0.43856 0.68839
 C82 C 0.00050 0.56454 0.64429
 O83 O 0.52049 0.57092 0.31669
 O84 O 0.42641 0.47776 0.34931
 O85 O 0.52265 0.57197 0.34918
 O86 O 0.42630 0.47479 0.31682
 O87 O 0.47535 0.43029 0.31660
 O88 O 0.56643 0.52225 0.34992
 O89 O 0.47041 0.42823 0.34905
 O90 O 0.56948 0.52640 0.31740
 Cu91 Cu 0.46930 0.52859 0.33298
 Cu92 Cu 0.52512 0.47210 0.33326
 C93 C 0.56103 0.56488 0.31151
 C94 C 0.43200 0.43707 0.35471
 C95 C 0.56041 0.56277 0.35521
 C96 C 0.43523 0.43645 0.31107
 C97 C 0.02398 0.20916 0.55348
 N98 N -0.01598 0.15421 0.55099
 N99 N -0.01171 0.12517 0.53825
 C100 C 0.03243 0.15008 0.52746
 N101 N 0.07223 0.20509 0.53000
 N102 N 0.06819 0.23398 0.54278
 C103 C 0.01983 0.24165 0.56746
 N104 N 0.06405 0.29345 0.57120
 N105 N 0.06070 0.32350 0.58376
 C106 C 0.01289 0.30310 0.59300
 N107 N -0.03149 0.25130 0.58926
 N108 N -0.02801 0.22101 0.57674
 C109 C 0.00976 0.33713 0.60670
 N110 N -0.03994 0.32226 0.61446
 N111 N -0.04226 0.35435 0.62665
 C112 C 0.00512 0.40218 0.63155
 N113 N 0.05473 0.41673 0.62384
 N114 N 0.05697 0.38493 0.61162
 C115 C 0.79005 0.81304 0.22010
 N116 N 0.76523 0.83257 0.20939
 N117 N 0.79401 0.86542 0.19661
 C118 C 0.84889 0.88040 0.19407
 N119 N 0.87380 0.86102 0.20486
 N120 N 0.84488 0.82780 0.21760
 C121 C 0.75769 0.77659 0.23410
 N122 N 0.77830 0.74928 0.24341
 N123 N 0.74811 0.71573 0.25596
 C124 C 0.69645 0.70865 0.25969
 N125 N 0.67609 0.73617 0.25040
 N126 N 0.70604 0.76934 0.23782
 C127 C 0.66251 0.67179 0.27342
 N128 N 0.61489 0.67165 0.27829
 N129 N 0.58312 0.63790 0.29053
 C130 C 0.59753 0.60270 0.29832
 N131 N 0.64520 0.60271 0.29347
 N132 N 0.67725 0.63683 0.28126
 C133 C 0.18578 -0.02398 -0.11349
 N134 N 0.16154 0.00901 -0.11416
 N135 N 0.12754 0.00405 -0.12676
 C136 C 0.11679 -0.03372 -0.13928
 N137 N 0.14147 -0.06640 -0.13854
 N138 N 0.17500 -0.06184 -0.12589
 C139 C 0.22269 -0.01959 -0.09958
 N140 N 0.23663 -0.06044 -0.09728
 N141 N 0.26999 -0.05707 -0.08472
 C142 C 0.29115 -0.01246 -0.07407
 N143 N 0.27747 0.02866 -0.07640
 N144 N 0.24361 0.02502 -0.08890
 C145 C 0.32796 -0.00949 -0.06031
 N146 N 0.35943 0.03925 -0.05165
 N147 N 0.39353 0.04144 -0.03940
 C148 C 0.39689 -0.00520 -0.03532
 N149 N 0.36514 -0.05387 -0.04392
 N150 N 0.33152 -0.05591 -0.05622
 C151 C -0.02332 0.78874 0.55202
 N152 N -0.06182 0.76126 0.53983
 N153 N -0.06740 0.78979 0.52722
 C154 C -0.03513 0.84712 0.52631
 N155 N 0.00336 0.87453 0.53861
 N156 N 0.00932 0.84592 0.55118
 C157 C -0.01811 0.75673 0.56595
 N158 N 0.02680 0.78081 0.57649
 N159 N 0.03100 0.75111 0.58907
 C160 C -0.00984 0.69649 0.59162
 N161 N -0.05473 0.67264 0.58112
 N162 N -0.05866 0.70210 0.56848
 C163 C -0.00638 0.66330 0.60551
 N164 N -0.05258 0.61372 0.60986
 N165 N -0.05016 0.58280 0.62231
 C166 C -0.00133 0.59998 0.63082
 N167 N 0.04509 0.64956 0.62647
 N168 N 0.04253 0.68083 0.61408
 C169 C 0.21051 0.18574 0.21945
 N170 N 0.23574 0.16585 0.20904
 N171 N 0.20726 0.13197 0.19640
 C172 C 0.15226 0.11629 0.19371
 N173 N 0.12694 0.13607 0.20419
 N174 N 0.15557 0.17030 0.21680
 C175 C 0.24249 0.22310 0.23335
 N176 N 0.22130 0.25036 0.24243
 N177 N 0.25105 0.28451 0.25494
 C178 C 0.30284 0.29227 0.25885
 N179 N 0.32381 0.26484 0.24980
 N180 N 0.29430 0.23106 0.23726
 C181 C 0.33617 0.32952 0.27261
 N182 N 0.38378 0.33007 0.27774
 N183 N 0.41484 0.36393 0.29007
 C184 C 0.39971 0.39882 0.29769
 N185 N 0.35208 0.39844 0.29258
 N186 N 0.32073 0.36421 0.28028
 C187 C 0.81391 0.02460 -0.11372
 N188 N 0.83832 -0.00822 -0.11446
 N189 N 0.87284 -0.00251 -0.12698
 C190 C 0.88398 0.03589 -0.13933
 N191 N 0.85913 0.06841 -0.13852
 N192 N 0.82507 0.06308 -0.12595
 C193 C 0.77642 0.01936 -0.09990
 N194 N 0.76215 0.05991 -0.09747
 N195 N 0.72834 0.05580 -0.08496
 C196 C 0.70707 0.01071 -0.07450
 N197 N 0.72108 -0.03010 -0.07695
 N198 N 0.75537 -0.02573 -0.08940
 C199 C 0.66991 0.00698 -0.06076
 N200 N 0.63854 -0.04214 -0.05227
 N201 N 0.60428 -0.04497 -0.03999
 C202 C 0.60067 0.00136 -0.03571
 N203 N 0.63228 0.05040 -0.04415
 N204 N 0.66605 0.05310 -0.05648
 C205 C 0.21048 0.01924 0.11367
 N206 N 0.23761 0.05748 0.12597
 N207 N 0.20885 0.06264 0.13857
 C208 C 0.15165 0.03020 0.13935
 N209 N 0.12459 -0.00801 0.12695
 N210 N 0.15342 -0.01355 0.11440
 C211 C 0.24275 0.01438 0.09978
 N212 N 0.21896 -0.03034 0.08914
 N213 N 0.24890 -0.03424 0.07661
 C214 C 0.30348 0.00670 0.07420
 N215 N 0.32704 0.05140 0.08481
 N216 N 0.29734 0.05504 0.09740
 C217 C 0.33693 0.00361 0.06036
 N218 N 0.38656 0.04999 0.05618
 N219 N 0.41771 0.04793 0.04377
 C220 C 0.40072 -0.00073 0.03513
 N221 N 0.35110 -0.04735 0.03931
 N222 N 0.31960 -0.04514 0.05167
 C223 C 0.80753 0.78814 0.44732
 N224 N 0.83204 0.84537 0.44806
 N225 N 0.86662 0.87413 0.46059
 C226 C 0.87775 0.84683 0.47294
 N227 N 0.85273 0.78947 0.47213
 N228 N 0.81860 0.76078 0.45956
 C229 C 0.77033 0.75594 0.43343
 N230 N 0.75622 0.70116 0.43102
 N231 N 0.72288 0.67152 0.41842
 C232 C 0.70192 0.69534 0.40783
 N233 N 0.71572 0.75011 0.41027
 N234 N 0.74956 0.77998 0.42281
 C235 C 0.66540 0.66196 0.39397
 N236 N 0.63418 0.67954 0.38530
 N237 N 0.60052 0.64812 0.37291
 C238 C 0.59739 0.59833 0.36869
 N239 N 0.62886 0.58109 0.37731
 N240 N 0.66203 0.61216 0.38975
 C241 C -0.02129 0.19025 0.78037
 N242 N -0.06600 0.17072 0.79089
 N243 N -0.07090 0.13718 0.80359
 C244 C -0.03149 0.12148 0.80624
 N245 N 0.01320 0.14091 0.79565
 N246 N 0.01832 0.17481 0.78298
 C247 C -0.01650 0.22718 0.76640
 N248 N 0.03153 0.25414 0.75720
 N249 N 0.03540 0.28790 0.74463
 C250 C -0.00878 0.29556 0.74076
 N251 N -0.05676 0.26842 0.74994
 N252 N -0.06049 0.23504 0.76255
 C253 C -0.00544 0.33241 0.72694
 N254 N -0.05263 0.33286 0.72189
 N255 N -0.05033 0.36642 0.70952
 C256 C -0.00070 0.40113 0.70178
 N257 N 0.04668 0.40085 0.70681
 N258 N 0.04430 0.36691 0.71915
 C259 C 0.79036 -0.02838 0.11233
 N260 N 0.84528 0.01133 0.11486
 N261 N 0.87414 0.00649 0.12754
 C262 C 0.84907 -0.03803 0.13823
 N263 N 0.79410 -0.07759 0.13566
 N264 N 0.76539 -0.07297 0.12293
 C265 C 0.75805 -0.02362 0.09841
 N266 N 0.70624 -0.06763 0.09463
 N267 N 0.67635 -0.06376 0.08212
 C268 C 0.69694 -0.01560 0.07298
 N269 N 0.74876 0.02859 0.07676
 N270 N 0.77888 0.02458 0.08923
 C271 C 0.66310 -0.01197 0.05932
 N272 N 0.67815 0.03803 0.05163
 N273 N 0.64625 0.04072 0.03947
 C274 C 0.59844 -0.00659 0.03451
 N275 N 0.58371 -0.05648 0.04215
 N276 N 0.61532 -0.05909 0.05435
 C277 C 0.18055 0.20839 0.44557
 N278 N 0.16104 0.23343 0.45620
 N279 N 0.12800 0.20469 0.46895
 C280 C 0.11280 0.14963 0.47152
 N281 N 0.13213 0.12449 0.46081
 N282 N 0.16554 0.15338 0.44810
 C283 C 0.21738 0.24074 0.43164
 N284 N 0.24473 0.21990 0.42247
 N285 N 0.27872 0.25009 0.41000
 C286 C 0.28622 0.30200 0.40622
 N287 N 0.25864 0.32260 0.41535
 N288 N 0.22503 0.29264 0.42785
 C289 C 0.32362 0.33593 0.39258
 N290 N 0.32429 0.38383 0.38760
 N291 N 0.35854 0.41553 0.37543
 C292 C 0.39370 0.40077 0.36784
 N293 N 0.39316 0.35283 0.37281
 N294 N 0.35857 0.32084 0.38494
 C295 C 0.02458 0.81572 0.77979
 N296 N 0.06923 0.83516 0.79034
 N297 N 0.07382 0.86822 0.80314
 C298 C 0.03414 0.88350 0.80586
 N299 N -0.01047 0.86420 0.79523
 N300 N -0.01527 0.83076 0.78246
 C301 C 0.02006 0.77917 0.76574
 N302 N -0.02802 0.75197 0.75655
 N303 N -0.03172 0.71837 0.74394
 C304 C 0.01268 0.71115 0.74003
 N305 N 0.06072 0.73855 0.74919
 N306 N 0.06428 0.77176 0.76183
 C307 C 0.00943 0.67426 0.72624
 N308 N 0.05671 0.67403 0.72119
 N309 N 0.05444 0.64021 0.70890
 C310 C 0.00477 0.60505 0.70124
 N311 N -0.04270 0.60516 0.70626
 N312 N -0.04036 0.63933 0.71852
   
