data_POSCAR
  _audit_creation_date              2014-09-24
  _audit_creation_method            'ToBaCCo'
  _symmetry_space_group_name_H-M    'P1'
  _symmetry_Int_Tables_number       1
  _symmetry_cell_setting            triclinic
  loop_
  _symmetry_equiv_pos_as_xyz
 x,y,z
_cell_length_a 34.1139
_cell_length_b 33.9821
_cell_length_c 33.9808
_cell_angle_alpha 90.003000
_cell_angle_beta 89.928100
_cell_angle_gamma 89.923600
loop_
  _atom_site_label
  _atom_site_type_symbol
  _atom_site_fract_x
  _atom_site_fract_y
  _atom_site_fract_z
C1 C 0.16868 1.22134 0.22045
 C2 C 0.15206 1.25464 0.20263
 C3 C 0.16904 1.27079 0.16869
 C4 C 0.20305 1.25403 0.15263
 C5 C 0.22004 1.22072 0.17009
 C6 C 0.20280 1.20422 0.20413
 C7 C 0.15120 1.20422 0.25369
 C8 C 0.16733 1.17020 0.27054
 C9 C 0.20134 1.15336 0.25456
 C10 C 0.21918 1.17011 0.22134
 C11 C 0.25250 1.15276 0.20438
 C12 C 0.26937 1.16900 0.17047
 C13 C 0.25336 1.20298 0.15353
 H14 H 0.12555 1.26756 0.21474
 H15 H 0.21588 1.26646 0.12617
 H16 H 0.12469 1.21694 0.26600
 H17 H 0.21350 1.12684 0.26754
 H18 H 0.26492 1.12625 0.21707
 H19 H 0.26643 1.21512 0.12708
 C20 C 0.83207 0.77890 0.22084
 C21 C 0.84936 0.74570 0.20344
 C22 C 0.83297 0.72900 0.16952
 C23 C 0.79887 0.74511 0.15306
 C24 C 0.78121 0.77830 0.17010
 C25 C 0.79787 0.79536 0.20412
 C26 C 0.84896 0.79657 0.25405
 C27 C 0.83217 0.83049 0.27049
 C28 C 0.79807 0.84669 0.25411
 C29 C 0.78081 0.82938 0.22091
 C30 C 0.74740 0.84607 0.20355
 C31 C 0.73112 0.82927 0.16967
 C32 C 0.74780 0.79539 0.15314
 H33 H 0.87594 0.73329 0.21585
 H34 H 0.78650 0.73225 0.12661
 H35 H 0.87554 0.78436 0.26666
 H36 H 0.78540 0.87313 0.26677
 H37 H 0.73446 0.87250 0.21592
 H38 H 0.73517 0.78281 0.12671
 C39 C 0.82978 1.22032 -0.22083
 C40 C 0.84692 1.25355 -0.20345
 C41 C 0.83059 1.27004 -0.16937
 C42 C 0.79674 1.25374 -0.15266
 C43 C 0.77922 1.22051 -0.16964
 C44 C 0.79579 1.20364 -0.20386
 C45 C 0.84660 1.20283 -0.25423
 C46 C 0.82995 1.16888 -0.27063
 C47 C 0.79607 1.15248 -0.25400
 C48 C 0.77888 1.16960 -0.22060
 C49 C 0.74571 1.15269 -0.20300
 C50 C 0.72952 1.16930 -0.16892
 C51 C 0.74605 1.20322 -0.15243
 H52 H 0.87332 1.26619 -0.21595
 H53 H 0.78453 1.26652 -0.12608
 H54 H 0.87301 1.21520 -0.26703
 H55 H 0.78351 1.12601 -0.26663
 H56 H 0.73289 1.12623 -0.21533
 H57 H 0.73350 1.21565 -0.12585
 C58 C 0.16948 0.77950 -0.22111
 C59 C 0.15240 0.74618 -0.20379
 C60 C 0.16886 0.72951 -0.16986
 C61 C 0.20280 0.74577 -0.15330
 C62 C 0.22024 0.77909 -0.17025
 C63 C 0.20352 0.79610 -0.20428
 C64 C 0.15253 0.79714 -0.25432
 C65 C 0.16911 0.83113 -0.27064
 C66 C 0.20302 0.84748 -0.25420
 C67 C 0.22035 0.83022 -0.22099
 C68 C 0.25358 0.84707 -0.20354
 C69 C 0.26993 0.83032 -0.16965
 C70 C 0.25348 0.79633 -0.15319
 H71 H 0.12595 0.73366 -0.21629
 H72 H 0.21521 0.73294 -0.12685
 H73 H 0.12608 0.78492 -0.26707
 H74 H 0.21543 0.87400 -0.26685
 H75 H 0.26633 0.87359 -0.21585
 H76 H 0.26615 0.78380 -0.12675
 C77 C 0.55976 1.05345 -0.01057
 H78 H 0.56040 1.05327 0.02126
 C79 C 0.58679 1.07605 -0.03154
 H80 H 0.60828 1.09347 -0.01586
 C81 C 0.53189 1.02988 -0.06999
 H82 H 0.51106 1.01117 -0.08484
 C83 C 0.55846 1.05204 -0.09211
 H84 H 0.55779 1.05061 -0.12395
 N85 N 0.53297 1.03106 -0.02995
 C86 C 0.44015 1.01041 0.05586
 H87 H 0.43958 0.97858 0.05574
 C88 C 0.41301 1.03136 0.07843
 H89 H 0.39153 1.01567 0.09589
 C90 C 0.46787 1.06985 0.03211
 H91 H 0.48867 1.08472 0.01332
 C92 C 0.44120 1.09195 0.05424
 H93 H 0.44178 1.12378 0.05271
 Zn94 Zn 0.49996 0.99884 0.00107
 N95 N 0.46690 1.02981 0.03338
 C96 C 0.53215 0.96781 0.07197
 N97 N 0.53309 0.96659 0.03192
 C98 C 0.55988 0.94418 0.01240
 C99 C 0.58707 0.92164 0.03323
 C100 C 0.55888 0.94570 0.09395
 C101 C 0.44006 0.98743 -0.05343
 C102 C 0.41297 0.96657 -0.07600
 C103 C 0.44130 0.90589 -0.05212
 C104 C 0.46793 0.92789 -0.02997
 N105 N 0.46687 0.96794 -0.03110
 H106 H 0.51132 0.98653 0.08693
 H107 H 0.56041 0.94434 -0.01943
 H108 H 0.60857 0.90423 0.01744
 H109 H 0.55833 0.94718 0.12579
 H110 H 0.43944 1.01926 -0.05320
 H111 H 0.39147 0.98234 -0.09337
 H112 H 0.44196 0.87404 -0.05073
 H113 H 0.48879 0.91295 -0.01132
 C114 C 0.41343 1.07249 0.07745
 C115 C 0.58624 1.07519 -0.07267
 C116 C 0.41349 0.92544 -0.07519
 C117 C 0.58669 0.92256 0.07436
 C118 C -0.01019 0.56036 1.05421
 H119 H 0.02152 0.56097 1.05400
 C120 C -0.03107 0.58752 1.07686
 H121 H -0.01543 0.60908 1.09429
 C122 C -0.06940 0.53243 1.03068
 H123 H -0.08421 0.51152 1.01196
 C124 C -0.09142 0.55912 1.05290
 H125 H -0.12313 0.55847 1.05150
 N126 N -0.02952 0.53347 1.03182
 C127 C 0.05582 0.44012 1.01106
 H128 H 0.05571 0.43950 0.97923
 C129 C 0.07827 0.41288 1.03200
 H130 H 0.09565 0.39127 1.01629
 C131 C 0.03219 0.46808 1.07053
 H132 H 0.01351 0.48901 1.08541
 C133 C 0.05421 0.44132 1.09261
 H134 H 0.05269 0.44195 1.12445
 Zn135 Zn 0.00135 0.50025 0.99955
 N136 N 0.03346 0.46704 1.03049
 C137 C 0.07204 0.53238 0.96843
 N138 N 0.03216 0.53344 0.96729
 C139 C 0.01277 0.56035 0.94492
 C140 C 0.03358 0.58755 0.92232
 C141 C 0.09400 0.55912 0.94626
 C142 C -0.05303 0.44020 0.98812
 C143 C -0.07558 0.41307 0.96724
 C144 C -0.05172 0.44148 0.90657
 C145 C -0.02960 0.46814 0.92860
 N146 N -0.03074 0.46708 0.96864
 H147 H 0.08690 0.51145 0.98713
 H148 H -0.01894 0.56097 0.94513
 H149 H 0.01789 0.60914 0.90493
 H150 H 0.12571 0.55847 0.94768
 H151 H -0.05282 0.43957 1.01995
 H152 H -0.09294 0.39153 0.98299
 H153 H -0.05034 0.44215 0.87473
 H154 H -0.01097 0.48904 0.91367
 C155 C 0.07730 0.41338 1.07313
 C156 C -0.07204 0.58700 1.07605
 C157 C -0.07478 0.41361 0.92611
 C158 C 0.07455 0.58704 0.92316
 C159 C 1.05308 -0.01044 0.55943
 H160 H 1.05280 0.02139 0.56014
 C161 C 1.07565 -0.03140 0.58654
 H162 H 1.09295 -0.01570 0.60815
 C163 C 1.02980 -0.06988 0.53132
 H164 H 1.01121 -0.08475 0.51037
 C165 C 1.05194 -0.09198 0.55795
 H166 H 1.05061 -0.12382 0.55720
 N167 N 1.03085 -0.02984 0.53249
 C168 C 1.01015 0.05594 0.43938
 H169 H 0.97844 0.05576 0.43876
 C170 C 1.03100 0.07857 0.41222
 H171 H 1.01535 0.09602 0.39067
 C172 C 1.06938 0.03228 0.46728
 H173 H 1.08421 0.01352 0.48816
 C174 C 1.09137 0.05448 0.44060
 H175 H 1.12309 0.05301 0.44124
 Zn176 Zn 0.99870 0.00114 0.49936
 N177 N 1.02950 0.03348 0.46624
 C178 C 0.96756 0.07201 0.53170
 N179 N 0.96646 0.03196 0.53263
 C180 C 0.94418 0.01243 0.55949
 C181 C 0.92164 0.03325 0.58678
 C182 C 0.94545 0.09398 0.55852
 C183 C 0.98750 -0.05338 0.43915
 C184 C 0.96680 -0.07603 0.41196
 C185 C 0.90627 -0.05226 0.44043
 C186 C 0.92813 -0.03003 0.46715
 N187 N 0.96802 -0.03108 0.46609
 H188 H 0.98618 0.08698 0.51081
 H189 H 0.94443 -0.01940 0.56002
 H190 H 0.90432 0.01745 0.60834
 H191 H 0.94683 0.12582 0.55798
 H192 H 1.01921 -0.05310 0.43852
 H193 H 0.98256 -0.09340 0.39037
 H194 H 0.87455 -0.05095 0.44111
 H195 H 0.91318 -0.01140 0.48811
 C196 C 1.07197 0.07767 0.41273
 C197 C 1.07493 -0.07253 0.58589
 C198 C 0.92582 -0.07533 0.41250
 C199 C 0.92243 0.07438 0.58640
 C200 C 0.15139 0.30166 1.15021
 C201 C 0.13525 0.32835 1.13335
 C202 C 0.11572 0.35879 1.11299
 C203 C 0.09850 0.38408 1.09509
 C204 C -0.14872 0.69825 1.15144
 C205 C -0.13198 0.67167 1.13495
 C206 C -0.11175 0.64136 1.11505
 C207 C -0.09393 0.61618 1.09754
 C208 C -0.15023 0.30255 0.84970
 C209 C -0.13366 0.32909 0.86630
 C210 C -0.11372 0.35936 0.88644
 C211 C -0.09622 0.38449 0.90421
 C212 C 0.15074 0.69865 0.84813
 C213 C 0.13416 0.67196 0.86453
 C214 C 0.11408 0.64155 0.88434
 C215 C 0.09636 0.61629 0.90176
 C216 C 1.14885 0.15241 0.30133
 C217 C 1.13201 0.13614 0.32795
 C218 C 1.11170 0.11644 0.35830
 C219 C 1.09385 0.09906 0.38351
 C220 C 1.15010 -0.14952 0.69687
 C221 C 1.13366 -0.13272 0.67035
 C222 C 1.11380 -0.11241 0.64011
 C223 C 1.09635 -0.09452 0.61500
 C224 C 0.85011 -0.15120 0.30125
 C225 C 0.86655 -0.13454 0.32784
 C226 C 0.88649 -0.11448 0.35815
 C227 C 0.90411 -0.09689 0.38333
 C228 C 0.84780 0.15071 0.69841
 C229 C 0.86410 0.13408 0.67164
 C230 C 0.88379 0.11396 0.64111
 C231 C 0.90112 0.09622 0.61576
 C232 C 0.30199 1.14956 0.15183
 C233 C 0.32862 1.13272 0.13564
 C234 C 0.35899 1.11237 0.11604
 C235 C 0.38421 1.09447 0.09875
 C236 C 0.69707 1.15032 -0.14961
 C237 C 0.67058 1.13389 -0.13285
 C238 C 0.64038 1.11405 -0.11256
 C239 C 0.61530 1.09661 -0.09467
 C240 C 0.30245 0.84928 -0.15052
 C241 C 0.32900 0.86580 -0.13400
 C242 C 0.35926 0.88586 -0.11409
 C243 C 0.38439 0.90358 -0.09662
 C244 C 0.69840 0.84804 0.15060
 C245 C 0.67170 0.86431 0.13402
 C246 C 0.64125 0.88397 0.11393
 C247 C 0.61596 0.90128 0.09620
   
