data_POSCAR
  _audit_creation_date              2014-09-24
  _audit_creation_method            'ToBaCCo'
  _symmetry_space_group_name_H-M    'P1'
  _symmetry_Int_Tables_number       1
  _symmetry_cell_setting            triclinic
  loop_
  _symmetry_equiv_pos_as_xyz
 x,y,z
_cell_length_a 37.1298
_cell_length_b 36.7965
_cell_length_c 39.3941
_cell_angle_alpha 89.006300
_cell_angle_beta 87.612700
_cell_angle_gamma 91.670700
loop_
  _atom_site_label
  _atom_site_type_symbol
  _atom_site_fract_x
  _atom_site_fract_y
  _atom_site_fract_z
C1 C 0.30145 0.30059 0.21591
 H2 H 0.30468 0.30373 0.24288
 C3 C 0.32481 0.31935 0.19258
 H4 H 0.34623 0.33653 0.20193
 C5 C 0.27065 0.27279 0.17127
 H6 H 0.25013 0.25408 0.16290
 C7 C 0.29304 0.29138 0.14709
 H8 H 0.28857 0.28735 0.12042
 N9 N 0.27490 0.27798 0.20498
 C10 C 0.19520 0.27262 0.28972
 H11 H 0.19422 0.24385 0.29599
 C12 C 0.17365 0.29632 0.30833
 H13 H 0.15597 0.28563 0.32891
 C14 C 0.21873 0.32140 0.25463
 H15 H 0.23600 0.33105 0.23344
 C16 C 0.19742 0.34595 0.27231
 H17 H 0.19897 0.37445 0.26490
 Zn18 Zn 0.24575 0.25250 0.23872
 N19 N 0.21749 0.28553 0.26371
 C20 C 0.27897 0.23357 0.30082
 N21 N 0.27787 0.22813 0.26679
 C22 C 0.30147 0.20603 0.25062
 C23 C 0.32714 0.18788 0.26876
 C24 C 0.30426 0.21583 0.32002
 C25 C 0.19050 0.23093 0.19591
 C26 C 0.17036 0.20657 0.17693
 C27 C 0.19678 0.15697 0.20708
 C28 C 0.21683 0.18227 0.22504
 N29 N 0.21439 0.21845 0.21828
 H30 H 0.26064 0.25197 0.31308
 H31 H 0.30029 0.20258 0.22347
 H32 H 0.34529 0.16999 0.25541
 H33 H 0.30504 0.22070 0.34701
 H34 H 0.18851 0.25990 0.19151
 H35 H 0.15338 0.21721 0.15766
 H36 H 0.19962 0.12829 0.21255
 H37 H 0.23493 0.17284 0.24383
 C38 C 0.17459 0.33351 0.29961
 C39 C 0.32076 0.31491 0.15757
 C40 C 0.17410 0.16893 0.18171
 C41 C 0.32885 0.19270 0.30394
 C42 C 0.82770 0.79065 0.24541
 H43 H 0.83733 0.77756 0.26786
 C44 C 0.85216 0.81078 0.22431
 H45 H 0.87987 0.81282 0.23171
 C46 C 0.77970 0.80600 0.21097
 H47 H 0.75147 0.80437 0.20575
 C48 C 0.80321 0.82693 0.18927
 H49 H 0.79216 0.83964 0.16721
 N50 N 0.79239 0.78723 0.23782
 C51 C 0.70559 0.75781 0.31335
 H52 H 0.70952 0.72887 0.31572
 C53 C 0.67804 0.77382 0.33248
 H54 H 0.66158 0.75693 0.35012
 C55 C 0.72321 0.81467 0.28786
 H56 H 0.74074 0.83039 0.27021
 C57 C 0.69544 0.83170 0.30594
 H58 H 0.69179 0.86043 0.30149
 Zn59 Zn 0.76255 0.75376 0.26534
 N60 N 0.72761 0.77832 0.29175
 C61 C 0.79253 0.72989 0.32804
 N62 N 0.79359 0.72746 0.29356
 C63 C 0.81872 0.70733 0.27703
 C64 C 0.84415 0.68879 0.29504
 C65 C 0.81761 0.71164 0.34716
 C66 C 0.71428 0.73305 0.21469
 C67 C 0.69688 0.70930 0.19297
 C68 C 0.72442 0.65912 0.22112
 C69 C 0.74159 0.68385 0.24198
 N70 N 0.73732 0.72025 0.23774
 H71 H 0.77287 0.74661 0.34071
 H72 H 0.81928 0.70616 0.24959
 H73 H 0.86374 0.67283 0.28123
 H74 H 0.81693 0.71438 0.37450
 H75 H 0.70921 0.76170 0.21309
 H76 H 0.67991 0.72039 0.17390
 H77 H 0.72833 0.63034 0.22506
 H78 H 0.75809 0.67369 0.26172
 C79 C 0.67228 0.81127 0.32870
 C80 C 0.84053 0.82859 0.19493
 C81 C 0.70233 0.67175 0.19562
 C82 C 0.84412 0.69110 0.33055
 C83 C 0.78907 0.28255 0.71896
 H84 H 0.79238 0.28624 0.74585
 C85 C 0.81265 0.30045 0.69528
 H86 H 0.83440 0.31745 0.70429
 C87 C 0.75738 0.25469 0.67492
 H88 H 0.73637 0.23629 0.66695
 C89 C 0.78007 0.27239 0.65035
 H90 H 0.77535 0.26807 0.62378
 N91 N 0.76175 0.26061 0.70850
 C92 C 0.68653 0.26487 0.79624
 H93 H 0.68462 0.23669 0.80457
 C94 C 0.66780 0.29112 0.81443
 H95 H 0.65150 0.28310 0.83690
 C96 C 0.70912 0.30958 0.75615
 H97 H 0.72473 0.31660 0.73311
 C98 C 0.69036 0.33652 0.77319
 H99 H 0.69216 0.36425 0.76345
 Zn100 Zn 0.73117 0.23841 0.74317
 N101 N 0.70710 0.27458 0.76798
 C102 C 0.76448 0.21540 0.80453
 N103 N 0.76114 0.21069 0.77069
 C104 C 0.77959 0.18477 0.75396
 C105 C 0.80083 0.16085 0.77146
 C106 C 0.78575 0.19219 0.82321
 C107 C 0.67460 0.21940 0.69999
 C108 C 0.65224 0.19523 0.68293
 C109 C 0.67058 0.14689 0.72005
 C110 C 0.69304 0.17178 0.73588
 N111 N 0.69591 0.20695 0.72466
 H112 H 0.75019 0.23673 0.81731
 H113 H 0.77730 0.18234 0.72679
 H114 H 0.81568 0.14172 0.75628
 H115 H 0.78564 0.19600 0.85033
 H116 H 0.67645 0.24778 0.69229
 H117 H 0.63760 0.20525 0.66168
 H118 H 0.66936 0.11889 0.72902
 H119 H 0.70872 0.16269 0.75670
 C120 C 0.66951 0.32739 0.80275
 C121 C 0.80812 0.29581 0.66037
 C122 C 0.65100 0.15810 0.69216
 C123 C 0.80394 0.16334 0.80709
 C124 C 0.31712 0.77638 0.74514
 H125 H 0.32657 0.76397 0.76807
 C126 C 0.34123 0.79654 0.72358
 H127 H 0.36907 0.79979 0.73039
 C128 C 0.26936 0.78724 0.70857
 H129 H 0.24140 0.78283 0.70264
 C130 C 0.29259 0.80748 0.68619
 H131 H 0.28223 0.81840 0.66296
 N132 N 0.28209 0.77160 0.73702
 C133 C 0.19554 0.74797 0.81371
 H134 H 0.19286 0.71867 0.81257
 C135 C 0.17367 0.76674 0.83666
 H136 H 0.15350 0.75158 0.85218
 C137 C 0.22516 0.80289 0.79469
 H138 H 0.24559 0.81681 0.77854
 C139 C 0.20427 0.82271 0.81772
 H140 H 0.20926 0.85175 0.81914
 Zn141 Zn 0.25117 0.73950 0.76350
 N142 N 0.22054 0.76617 0.79314
 C143 C 0.27665 0.70723 0.82424
 N144 N 0.27991 0.70827 0.78966
 C145 C 0.30411 0.68734 0.77281
 C146 C 0.32528 0.66347 0.79054
 C147 C 0.29739 0.68368 0.84304
 C148 C 0.18756 0.70570 0.73668
 C149 C 0.16937 0.68205 0.71532
 C150 C 0.22604 0.67120 0.68555
 C151 C 0.24304 0.69506 0.70730
 N152 N 0.22403 0.71081 0.73308
 H153 H 0.25803 0.72461 0.83743
 H154 H 0.30751 0.68941 0.74555
 H155 H 0.34452 0.64730 0.77652
 H156 H 0.29395 0.68274 0.87047
 H157 H 0.17244 0.71938 0.75632
 H158 H 0.14057 0.67730 0.71930
 H159 H 0.24186 0.65860 0.66552
 H160 H 0.27155 0.70106 0.70344
 C161 C 0.17801 0.80468 0.83919
 C162 C 0.32925 0.81179 0.69326
 C163 C 0.18886 0.66378 0.68990
 C164 C 0.32183 0.66112 0.82610
 C165 C 0.01933 -0.00849 -0.03498
 C166 C 0.03935 0.01813 -0.01251
 C167 C 0.01762 0.03773 0.00855
 C168 C -0.02287 0.02945 0.00449
 C169 C -0.00526 -0.03165 -0.01008
 C170 C -0.02721 -0.01183 0.01055
 C171 C -0.00717 0.01487 -0.05395
 C172 C -0.02919 0.03487 -0.03360
 H173 H 0.06850 0.02056 -0.01307
 H174 H -0.04093 0.04510 0.02150
 H175 H -0.00729 -0.06102 -0.01020
 H176 H -0.00849 0.01519 -0.08134
 C177 C 0.03143 0.47663 0.48209
 C178 C 0.05150 0.50134 0.50636
 C179 C 0.02973 0.52116 0.52716
 C180 C -0.01069 0.51455 0.52163
 C181 C 0.00504 0.45367 0.50516
 C182 C -0.01702 0.47318 0.52595
 C183 C 0.00702 0.50244 0.46296
 C184 C -0.01489 0.52226 0.48361
 H185 H 0.08065 0.50383 0.50596
 H186 H -0.02864 0.53081 0.53817
 H187 H 0.00483 0.42425 0.50543
 H188 H 0.00509 0.50385 0.43574
 C189 C 0.50973 -0.01638 0.46888
 C190 C 0.52647 0.00754 0.49595
 C191 C 0.50229 0.02615 0.51524
 C192 C 0.46299 0.01890 0.50598
 C193 C 0.48245 -0.04114 0.48955
 C194 C 0.45805 -0.02278 0.50906
 C195 C 0.48663 0.00921 0.44861
 C196 C 0.46223 0.02794 0.46767
 H197 H 0.55519 0.00924 0.49966
 H198 H 0.44356 0.03389 0.52216
 H199 H 0.48369 -0.07043 0.49074
 H200 H 0.48882 0.01112 0.42114
 C201 C 0.54681 0.49270 -0.01991
 C202 C 0.56694 0.51842 0.00342
 C203 C 0.54521 0.53832 0.02431
 C204 C 0.50467 0.53123 0.01906
 C205 C 0.52100 0.47014 0.00401
 C206 C 0.49884 0.48996 0.02437
 C207 C 0.52215 0.51781 -0.03939
 C208 C 0.49988 0.53762 -0.01914
 H209 H 0.59607 0.52086 0.00274
 H210 H 0.48626 0.54736 0.03525
 H211 H 0.52111 0.44072 0.00501
 H212 H 0.52259 0.52120 -0.06664
 C213 C 0.14499 -0.13927 -0.14327
 C214 C 0.12362 -0.12014 -0.11982
 C215 C 0.11196 -0.13695 -0.08859
 C216 C 0.12265 -0.17226 -0.08099
 C217 C 0.14440 -0.19091 -0.10420
 C218 C 0.15555 -0.17489 -0.13578
 C219 C 0.08973 -0.11827 -0.06553
 C220 C 0.07921 -0.08283 -0.07321
 C221 C 0.09179 -0.06567 -0.10400
 C222 C 0.11369 -0.08447 -0.12719
 C223 C 0.08245 -0.02984 -0.11101
 C224 C 0.05992 -0.01152 -0.08829
 C225 C 0.04512 -0.02893 -0.05852
 C226 C 0.05623 -0.06432 -0.05060
 H227 H 0.15284 -0.12654 -0.16756
 H228 H 0.11430 -0.18544 -0.05701
 H229 H 0.15274 -0.21785 -0.09717
 H230 H 0.08046 -0.13139 -0.04175
 H231 H 0.12299 -0.07134 -0.15097
 H232 H 0.09257 -0.01592 -0.13409
 H233 H 0.05379 0.01638 -0.09427
 H234 H 0.04745 -0.07758 -0.02686
 C235 C 0.14883 0.35772 0.35426
 C236 C 0.12729 0.38224 0.37222
 C237 C 0.10802 0.40841 0.35424
 C238 C 0.11087 0.40983 0.31865
 C239 C 0.13256 0.38552 0.30099
 C240 C 0.15163 0.35921 0.31856
 C241 C 0.08612 0.43265 0.37206
 C242 C 0.08322 0.43112 0.40769
 C243 C 0.10286 0.40529 0.42567
 C244 C 0.12476 0.38101 0.40786
 C245 C 0.10017 0.40410 0.46121
 C246 C 0.07765 0.42772 0.47877
 C247 C 0.05702 0.45299 0.46133
 C248 C 0.06069 0.45486 0.42554
 H249 H 0.16380 0.33780 0.36803
 H250 H 0.09628 0.42969 0.30446
 H251 H 0.13407 0.38695 0.27349
 H252 H 0.07119 0.45255 0.35820
 H253 H 0.13968 0.36108 0.42170
 H254 H 0.11524 0.38469 0.47546
 H255 H 0.07588 0.42594 0.50627
 H256 H 0.04630 0.47439 0.41105
 C257 C 0.64572 -0.13499 0.35863
 C258 C 0.61758 -0.11866 0.37712
 C259 C 0.58566 -0.13904 0.38616
 C260 C 0.58204 -0.17508 0.37565
 C261 C 0.60986 -0.19092 0.35665
 C262 C 0.64226 -0.17131 0.34821
 C263 C 0.55795 -0.12310 0.40557
 C264 C 0.56157 -0.08683 0.41571
 C265 C 0.59301 -0.06615 0.40563
 C266 C 0.62091 -0.08224 0.38669
 C267 C 0.59597 -0.02958 0.41447
 C268 C 0.56858 -0.01386 0.43397
 C269 C 0.53806 -0.03455 0.44619
 C270 C 0.53428 -0.07092 0.43580
 H271 H 0.67051 -0.11945 0.35289
 H272 H 0.55760 -0.19101 0.38197
 H273 H 0.60573 -0.21854 0.34833
 H274 H 0.53367 -0.13895 0.41286
 H275 H 0.64518 -0.06639 0.37936
 H276 H 0.61949 -0.01307 0.40629
 H277 H 0.57155 0.01466 0.43995
 H278 H 0.51020 -0.08697 0.44283
 C279 C 0.65136 0.35939 -0.14399
 C280 C 0.63188 0.38617 -0.12693
 C281 C 0.60922 0.40887 -0.14532
 C282 C 0.60703 0.40496 -0.18050
 C283 C 0.62692 0.37863 -0.19734
 C284 C 0.64897 0.35551 -0.17923
 C285 C 0.58896 0.43499 -0.12827
 C286 C 0.59122 0.43893 -0.09306
 C287 C 0.61450 0.41687 -0.07481
 C288 C 0.63463 0.39055 -0.09182
 C289 C 0.61681 0.42113 -0.03972
 C290 C 0.59568 0.44643 -0.02276
 C291 C 0.57172 0.46817 -0.04038
 C292 C 0.56998 0.46421 -0.07584
 H293 H 0.66869 0.34184 -0.13001
 H294 H 0.58988 0.42219 -0.19499
 H295 H 0.62466 0.37589 -0.22451
 H296 H 0.57128 0.45207 -0.14236
 H297 H 0.65220 0.37334 -0.07772
 H298 H 0.63455 0.40451 -0.02527
 H299 H 0.59740 0.44851 0.00452
 H300 H 0.55166 0.47966 -0.09043
 C301 C -0.16311 0.14668 -0.14271
 C302 C -0.14198 0.12179 -0.12545
 C303 C -0.13437 0.08804 -0.14018
 C304 C -0.14816 0.07948 -0.17153
 C305 C -0.16869 0.10430 -0.18875
 C306 C -0.17645 0.13885 -0.17519
 C307 C -0.11259 0.06348 -0.12367
 C308 C -0.09749 0.07256 -0.09286
 C309 C -0.10514 0.10615 -0.07777
 C310 C -0.12760 0.13049 -0.09402
 C311 C -0.08956 0.11504 -0.04702
 C312 C -0.06565 0.09142 -0.03208
 C313 C -0.05703 0.05848 -0.04751
 C314 C -0.07399 0.04885 -0.07745
 H315 H -0.16682 0.17288 -0.13131
 H316 H -0.14302 0.05341 -0.18290
 H317 H -0.17972 0.09498 -0.21211
 H318 H -0.10665 0.03767 -0.13524
 H319 H -0.13328 0.15641 -0.08256
 H320 H -0.09517 0.14062 -0.03496
 H321 H -0.05307 0.09959 -0.00908
 H322 H -0.06855 0.02305 -0.08917
 C323 C -0.13660 0.65339 0.38023
 C324 C -0.11027 0.63367 0.39665
 C325 C -0.07465 0.63350 0.38243
 C326 C -0.06571 0.65365 0.35265
 C327 C -0.09200 0.67297 0.33644
 C328 C -0.12780 0.67258 0.34964
 C329 C -0.04863 0.61266 0.39775
 C330 C -0.05774 0.59165 0.42701
 C331 C -0.09306 0.59236 0.44182
 C332 C -0.11911 0.61347 0.42659
 C333 C -0.10181 0.57141 0.47128
 C334 C -0.07610 0.54926 0.48539
 C335 C -0.04132 0.54759 0.47019
 C336 C -0.03218 0.56935 0.44129
 H337 H -0.16413 0.65277 0.39057
 H338 H -0.03848 0.65406 0.34160
 H339 H -0.08434 0.68816 0.31335
 H340 H -0.02146 0.61223 0.38653
 H341 H -0.14634 0.61366 0.43767
 H342 H -0.12869 0.57168 0.48307
 H343 H -0.08380 0.53256 0.50756
 H344 H -0.00518 0.56870 0.42975
 C345 C 0.34705 0.15760 0.35549
 C346 C 0.37244 0.13771 0.37296
 C347 C 0.40759 0.13410 0.35839
 C348 C 0.41695 0.15094 0.32696
 C349 C 0.39151 0.17045 0.30968
 C350 C 0.35623 0.17364 0.32349
 C351 C 0.43264 0.11321 0.37512
 C352 C 0.42288 0.09542 0.40606
 C353 C 0.38798 0.09949 0.42094
 C354 C 0.36301 0.12075 0.40440
 C355 C 0.37846 0.08171 0.45190
 C356 C 0.40287 0.05923 0.46746
 C357 C 0.43726 0.05397 0.45241
 C358 C 0.44729 0.07300 0.42198
 H359 H 0.31987 0.15961 0.36628
 H360 H 0.44382 0.14865 0.31554
 H361 H 0.39946 0.18309 0.28538
 H362 H 0.45946 0.11018 0.36373
 H363 H 0.33611 0.12356 0.41568
 H364 H 0.35189 0.08466 0.46381
 H365 H 0.39422 0.04530 0.49080
 H366 H 0.47405 0.07026 0.41044
 C367 C 0.36011 0.64548 -0.12478
 C368 C 0.38253 0.62147 -0.10806
 C369 C 0.38837 0.58663 -0.12153
 C370 C 0.37130 0.57615 -0.15100
 C371 C 0.34925 0.60021 -0.16751
 C372 C 0.34376 0.63521 -0.15490
 C373 C 0.41163 0.56299 -0.10571
 C374 C 0.42947 0.57378 -0.07675
 C375 C 0.42328 0.60830 -0.06281
 C376 C 0.39974 0.63192 -0.07851
 C377 C 0.44121 0.61870 -0.03368
 C378 C 0.46563 0.59547 -0.01900
 C379 C 0.47262 0.56158 -0.03327
 C380 C 0.45392 0.55071 -0.06185
 H381 H 0.35629 0.67249 -0.11495
 H382 H 0.37530 0.54947 -0.16149
 H383 H 0.33645 0.59141 -0.19029
 H384 H 0.41632 0.53643 -0.11630
 H385 H 0.39524 0.65857 -0.06805
 H386 H 0.43675 0.64500 -0.02256
 H387 H 0.47977 0.60449 0.00290
 H388 H 0.45852 0.52425 -0.07264
 C389 C -0.14434 -0.12437 0.15040
 C390 C -0.11929 -0.10738 0.12700
 C391 C -0.08371 -0.11989 0.12410
 C392 C -0.07352 -0.14856 0.14498
 C393 C -0.09828 -0.16497 0.16847
 C394 C -0.13428 -0.15348 0.17161
 C395 C -0.05879 -0.10363 0.10037
 C396 C -0.06879 -0.07453 0.07974
 C397 C -0.10411 -0.06129 0.08310
 C398 C -0.12922 -0.07795 0.10656
 C399 C -0.11365 -0.03159 0.06291
 C400 C -0.08849 -0.01528 0.03954
 C401 C -0.05359 -0.02872 0.03565
 C402 C -0.04390 -0.05837 0.05588
 H403 H -0.17121 -0.11379 0.15272
 H404 H -0.04637 -0.15858 0.14297
 H405 H -0.08923 -0.18796 0.18293
 H406 H -0.03158 -0.11356 0.09802
 H407 H -0.15641 -0.06799 0.10891
 H408 H -0.14054 -0.02098 0.06517
 H409 H -0.09655 0.00741 0.02402
 H410 H -0.01681 -0.06851 0.05335
 C411 C -0.15419 0.35062 0.64030
 C412 C -0.13087 0.36867 0.61616
 C413 C -0.12112 0.35125 0.58557
 C414 C -0.13447 0.31600 0.57981
 C415 C -0.15720 0.29802 0.60416
 C416 C -0.16746 0.31508 0.63461
 C417 C -0.09791 0.36917 0.56136
 C418 C -0.08368 0.40401 0.56763
 C419 C -0.09308 0.42135 0.59833
 C420 C -0.11692 0.40373 0.62228
 C421 C -0.07807 0.45585 0.60470
 C422 C -0.05357 0.47278 0.58112
 C423 C -0.04399 0.45578 0.55049
 C424 C -0.05972 0.42151 0.54380
 H425 H -0.16221 0.36441 0.66336
 H426 H -0.12703 0.30216 0.55661
 H427 H -0.16633 0.27048 0.59927
 H428 H -0.09051 0.35578 0.53787
 H429 H -0.12421 0.41706 0.64582
 H430 H -0.08480 0.46947 0.62819
 H431 H -0.04152 0.49881 0.58737
 H432 H -0.05335 0.40826 0.52005
 C433 C 0.34520 -0.13850 0.64999
 C434 C 0.36933 -0.12166 0.62575
 C435 C 0.40401 -0.13583 0.61996
 C436 C 0.41396 -0.16649 0.63852
 C437 C 0.38977 -0.18315 0.66245
 C438 C 0.35514 -0.16945 0.66847
 C439 C 0.42813 -0.11926 0.59563
 C440 C 0.41804 -0.08868 0.57695
 C441 C 0.38342 -0.07442 0.58279
 C442 C 0.35929 -0.09098 0.60714
 C443 C 0.37355 -0.04375 0.56419
 C444 C 0.39774 -0.02725 0.54012
 C445 C 0.43217 -0.04114 0.53400
 C446 C 0.44212 -0.07199 0.55261
 H447 H 0.31877 -0.12738 0.65460
 H448 H 0.44037 -0.17779 0.63432
 H449 H 0.39797 -0.20731 0.67580
 H450 H 0.45470 -0.13020 0.59122
 H451 H 0.33272 -0.08004 0.61155
 H452 H 0.34711 -0.03246 0.56827
 H453 H 0.38924 -0.00383 0.52606
 H454 H 0.46887 -0.08261 0.54871
 C455 C 0.35926 0.36940 0.13792
 C456 C 0.38318 0.38709 0.11406
 C457 C 0.39321 0.36942 0.08366
 C458 C 0.37959 0.33431 0.07783
 C459 C 0.35631 0.31669 0.10190
 C460 C 0.34569 0.33399 0.13212
 C461 C 0.41696 0.38693 0.05969
 C462 C 0.43146 0.42162 0.06600
 C463 C 0.42186 0.43924 0.09650
 C464 C 0.39747 0.42201 0.12023
 C465 C 0.43715 0.47363 0.10285
 C466 C 0.46205 0.49021 0.07940
 C467 C 0.47177 0.47290 0.04897
 C468 C 0.45586 0.43873 0.04235
 H469 H 0.35104 0.38334 0.16084
 H470 H 0.38727 0.32028 0.05479
 H471 H 0.34705 0.28919 0.09698
 H472 H 0.42454 0.37335 0.03635
 H473 H 0.38999 0.43554 0.14362
 H474 H 0.43027 0.48748 0.12619
 H475 H 0.47423 0.51622 0.08553
 H476 H 0.46235 0.42529 0.01872
 C477 C 0.12251 0.14894 0.14585
 C478 C 0.10741 0.12507 0.12246
 C479 C 0.12625 0.09389 0.11250
 C480 C 0.15969 0.08704 0.12604
 C481 C 0.17476 0.11115 0.14881
 C482 C 0.15653 0.14243 0.15896
 C483 C 0.11170 0.07031 0.08874
 C484 C 0.07876 0.07774 0.07434
 C485 C 0.05979 0.10882 0.08426
 C486 C 0.07410 0.13219 0.10844
 C487 C 0.02694 0.11609 0.06956
 C488 C 0.01323 0.09302 0.04504
 C489 C 0.03204 0.06223 0.03473
 C490 C 0.06470 0.05463 0.04992
 H491 H 0.10784 0.17263 0.15366
 H492 H 0.17456 0.06338 0.11852
 H493 H 0.20129 0.10570 0.15771
 H494 H 0.12628 0.04646 0.08109
 H495 H 0.05959 0.15611 0.11598
 H496 H 0.01199 0.13979 0.07681
 H497 H -0.01182 0.09975 0.03384
 H498 H 0.07915 0.03050 0.04306
 C499 C 0.13753 0.64277 0.65454
 C500 C 0.12152 0.61691 0.63354
 C501 C 0.13911 0.58402 0.62689
 C502 C 0.17216 0.57745 0.64137
 C503 C 0.18800 0.60337 0.66190
 C504 C 0.17106 0.63632 0.66855
 C505 C 0.12367 0.55834 0.60558
 C506 C 0.09106 0.56524 0.59036
 C507 C 0.07329 0.59798 0.59699
 C508 C 0.08853 0.62356 0.61870
 C509 C 0.04077 0.60471 0.58142
 C510 C 0.02636 0.57955 0.55906
 C511 C 0.04410 0.54715 0.55199
 C512 C 0.07626 0.54004 0.56817
 H513 H 0.12437 0.66820 0.65932
 H514 H 0.18590 0.55234 0.63664
 H515 H 0.21352 0.59753 0.67285
 H516 H 0.13730 0.53322 0.60045
 H517 H 0.07498 0.64875 0.62370
 H518 H 0.02677 0.62967 0.58613
 H519 H 0.00181 0.58597 0.54665
 H520 H 0.08989 0.51485 0.56349
 C521 C 0.60002 0.13883 0.65517
 C522 C 0.58429 0.11374 0.63322
 C523 C 0.60055 0.07992 0.62782
 C524 C 0.63184 0.07155 0.64454
 C525 C 0.64758 0.09676 0.66578
 C526 C 0.63211 0.13075 0.67128
 C527 C 0.58594 0.05529 0.60509
 C528 C 0.55568 0.06426 0.58701
 C529 C 0.53894 0.09777 0.59255
 C530 C 0.55315 0.12221 0.61593
 C531 C 0.50878 0.10649 0.57400
 C532 C 0.49616 0.08277 0.54941
 C533 C 0.51342 0.04995 0.54312
 C534 C 0.54261 0.04053 0.56270
 H535 H 0.58753 0.16471 0.65936
 H536 H 0.64470 0.04583 0.64050
 H537 H 0.67265 0.08995 0.67707
 H538 H 0.59873 0.02954 0.60077
 H539 H 0.54057 0.14810 0.61998
 H540 H 0.49549 0.13200 0.57791
 H541 H 0.47369 0.09068 0.53455
 H542 H 0.55558 0.01485 0.55869
 C543 C 0.65123 0.65160 0.15942
 C544 C 0.63629 0.62771 0.13600
 C545 C 0.65590 0.59740 0.12503
 C546 C 0.69010 0.59161 0.13742
 C547 C 0.70496 0.61573 0.16030
 C548 C 0.68578 0.64595 0.17165
 C549 C 0.64124 0.57352 0.10160
 C550 C 0.60741 0.57984 0.08850
 C551 C 0.58779 0.61019 0.09925
 C552 C 0.60222 0.63382 0.12315
 C553 C 0.55416 0.61647 0.08571
 C554 C 0.54029 0.59316 0.06147
 C555 C 0.55966 0.56299 0.05038
 C556 C 0.59310 0.55635 0.06454
 H557 H 0.63585 0.67445 0.16819
 H558 H 0.70559 0.56865 0.12908
 H559 H 0.73187 0.61101 0.16863
 H560 H 0.65635 0.55028 0.09324
 H561 H 0.58715 0.65711 0.13143
 H562 H 0.53873 0.63963 0.09360
 H563 H 0.51465 0.59930 0.05113
 H564 H 0.60807 0.53271 0.05722
   
