data_POSCAR
  _audit_creation_date              2014-09-24
  _audit_creation_method            'ToBaCCo'
  _symmetry_space_group_name_H-M    'P1'
  _symmetry_Int_Tables_number       1
  _symmetry_cell_setting            triclinic
  loop_
  _symmetry_equiv_pos_as_xyz
 x,y,z
_cell_length_a 53.4392
_cell_length_b 52.5913
_cell_length_c 53.4133
_cell_angle_alpha 89.998800
_cell_angle_beta 89.993200
_cell_angle_gamma 90.034800
loop_
  _atom_site_label
  _atom_site_type_symbol
  _atom_site_fract_x
  _atom_site_fract_y
  _atom_site_fract_z
N1 N 0.59607 0.66442 0.61270
 N2 N 0.58595 0.65372 0.63248
 C3 C 0.56563 0.66716 0.63933
 C4 C 0.56278 0.68738 0.62292
 C5 C 0.58252 0.68496 0.60625
 H6 H 0.55370 0.66245 0.65499
 H7 H 0.58691 0.69731 0.59069
 Cu8 Cu 0.60032 0.62330 0.64743
 Cu9 Cu 0.62606 0.65102 0.59680
 Cu10 Cu 0.65282 0.59756 0.62365
 N11 N 0.61600 0.59369 0.66264
 N12 N 0.63649 0.58374 0.65327
 C13 C 0.64334 0.56364 0.66725
 C14 C 0.62620 0.56068 0.68663
 C15 C 0.60911 0.58026 0.68296
 H16 H 0.65964 0.55215 0.66344
 H17 H 0.59285 0.58455 0.69418
 N18 N 0.66658 0.61428 0.59363
 N19 N 0.65642 0.63466 0.58344
 C20 C 0.67004 0.64152 0.56333
 C21 C 0.68976 0.62465 0.56065
 C22 C 0.68691 0.60764 0.58025
 H23 H 0.66574 0.65749 0.55137
 H24 H 0.69886 0.59169 0.58460
 H25 H 0.62126 0.61371 0.60795
 H26 H 0.64050 0.63446 0.62881
 N27 N 0.90366 0.33423 0.11344
 N28 N 0.91309 0.34418 0.13391
 C29 C 0.93337 0.33070 0.14079
 C30 C 0.93694 0.31109 0.12369
 C31 C 0.91756 0.31408 0.10658
 H32 H 0.94462 0.33497 0.15704
 H33 H 0.91369 0.30258 0.09028
 Cu34 Cu 0.89800 0.37385 0.14961
 Cu35 Cu 0.87407 0.34810 0.09715
 Cu36 Cu 0.84738 0.40160 0.12400
 N37 N 0.88319 0.40432 0.16401
 N38 N 0.86340 0.41503 0.15395
 C39 C 0.85703 0.43560 0.16751
 C40 C 0.87376 0.43802 0.18720
 C41 C 0.89011 0.41777 0.18431
 H42 H 0.84149 0.44796 0.16316
 H43 H 0.90579 0.41305 0.19620
 N44 N 0.83391 0.38522 0.09369
 N45 N 0.84409 0.36488 0.08344
 C46 C 0.83069 0.35828 0.06310
 C47 C 0.81105 0.37525 0.06037
 C48 C 0.81375 0.39206 0.08015
 H49 H 0.83479 0.34213 0.05131
 H50 H 0.80201 0.40823 0.08432
 H51 H 0.87931 0.38501 0.10947
 H52 H 0.85848 0.36428 0.12877
 N53 N 0.40418 0.16502 -0.11276
 N54 N 0.41432 0.15430 -0.13252
 C55 C 0.43463 0.16777 -0.13939
 C56 C 0.43744 0.18804 -0.12303
 C57 C 0.41770 0.18561 -0.10637
 H58 H 0.44657 0.16303 -0.15503
 H59 H 0.41329 0.19799 -0.09084
 Cu60 Cu 0.40000 0.12379 -0.14737
 Cu61 Cu 0.37419 0.15157 -0.09684
 Cu62 Cu 0.34751 0.09797 -0.12356
 N63 N 0.38439 0.09409 -0.16250
 N64 N 0.36387 0.08414 -0.15314
 C65 C 0.35706 0.06400 -0.16711
 C66 C 0.37423 0.06108 -0.18635
 C67 C 0.39132 0.08060 -0.18277
 H68 H 0.34088 0.05226 -0.16336
 H69 H 0.40747 0.08483 -0.19420
 N70 N 0.33373 0.11473 -0.09359
 N71 N 0.34386 0.13516 -0.08344
 C72 C 0.33023 0.14203 -0.06335
 C73 C 0.31053 0.12511 -0.06063
 C74 C 0.31341 0.10806 -0.08020
 H75 H 0.33450 0.15804 -0.05142
 H76 H 0.30148 0.09206 -0.08451
 H77 H 0.37905 0.11424 -0.10789
 H78 H 0.35979 0.13489 -0.12881
 N79 N 0.09571 0.83513 0.38717
 N80 N 0.08559 0.84582 0.36741
 C81 C 0.06530 0.83234 0.36053
 C82 C 0.06241 0.81199 0.37690
 C83 C 0.08223 0.81452 0.39358
 H84 H 0.05359 0.83710 0.34474
 H85 H 0.08670 0.80238 0.40926
 Cu86 Cu 0.09994 0.87630 0.35252
 Cu87 Cu 0.12564 0.84866 0.40315
 Cu88 Cu 0.15229 0.90229 0.37645
 N89 N 0.11557 0.90598 0.33736
 N90 N 0.13598 0.91606 0.34682
 C91 C 0.14277 0.93623 0.33288
 C92 C 0.12571 0.93902 0.31352
 C93 C 0.10871 0.91940 0.31701
 H94 H 0.15906 0.94783 0.33650
 H95 H 0.09244 0.91529 0.30571
 N96 N 0.16603 0.88558 0.40646
 N97 N 0.15592 0.86514 0.41660
 C98 C 0.16952 0.85830 0.43672
 C99 C 0.18918 0.87526 0.43946
 C100 C 0.18631 0.89229 0.41989
 H101 H 0.16526 0.84229 0.44864
 H102 H 0.19823 0.90831 0.41559
 H103 H 0.12075 0.88597 0.39205
 H104 H 0.14012 0.86534 0.37121
 C105 C 0.10593 0.14349 0.12478
 N106 N 0.10627 0.12536 0.14290
 C107 C 0.12437 0.10723 0.14326
 N108 N 0.14228 0.10738 0.12520
 C109 C 0.14224 0.12536 0.10693
 N110 N 0.12399 0.14335 0.10687
 C111 C 0.39366 0.85658 0.62488
 N112 N 0.37560 0.85679 0.60697
 C113 C 0.35740 0.87482 0.60706
 N114 N 0.35740 0.89279 0.62534
 C115 C 0.37531 0.89287 0.64340
 N116 N 0.39337 0.87470 0.64302
 C117 C 0.89423 0.64336 0.37512
 N118 N 0.89391 0.62521 0.35701
 C119 C 0.87584 0.60702 0.35669
 N120 N 0.85795 0.60713 0.37476
 C121 C 0.85797 0.62513 0.39301
 N122 N 0.87618 0.64317 0.39304
 C123 C 0.60675 0.35725 -0.12524
 N124 N 0.62484 0.35743 -0.10737
 C125 C 0.64310 0.37542 -0.10749
 N126 N 0.64311 0.39339 -0.12578
 C127 C 0.62517 0.39350 -0.14380
 N128 N 0.60706 0.37536 -0.14338
 C129 C -0.00620 0.25492 0.12381
 C130 C -0.00690 0.27335 0.14263
 C131 C -0.02562 0.29191 0.14263
 C132 C -0.04409 0.29238 0.12371
 C133 C -0.04305 0.27360 0.10483
 C134 C -0.02429 0.25509 0.10493
 C135 C 0.01306 0.23580 0.12390
 C136 C 0.02918 0.21978 0.12401
 C137 C 0.04842 0.20064 0.12418
 C138 C 0.06692 0.20059 0.10564
 C139 C 0.08563 0.18202 0.10580
 C140 C 0.08608 0.16320 0.12456
 C141 C 0.06736 0.16344 0.14311
 C142 C 0.04868 0.18204 0.14290
 H143 H 0.00704 0.27338 0.15736
 H144 H -0.02540 0.30575 0.15757
 H145 H -0.05663 0.27296 0.08986
 H146 H -0.02392 0.24088 0.09024
 H147 H 0.06689 0.21491 0.09106
 H148 H 0.09972 0.18243 0.09124
 H149 H 0.06711 0.14928 0.15782
 H150 H 0.03444 0.18191 0.15734
 C151 C 0.50546 0.74482 0.62355
 C152 C 0.52141 0.74249 0.60292
 C153 C 0.54005 0.72385 0.60269
 C154 C 0.54300 0.70722 0.62315
 C155 C 0.52683 0.70976 0.64381
 C156 C 0.50821 0.72843 0.64399
 C157 C 0.48629 0.76402 0.62376
 C158 C 0.47021 0.78010 0.62394
 C159 C 0.45102 0.79928 0.62417
 C160 C 0.45081 0.81785 0.64292
 C161 C 0.43218 0.83649 0.64318
 C162 C 0.41346 0.83682 0.62463
 C163 C 0.41386 0.81803 0.60584
 C164 C 0.43252 0.79941 0.60564
 H165 H 0.51941 0.75506 0.58697
 H166 H 0.55194 0.72241 0.58637
 H167 H 0.52858 0.69752 0.65998
 H168 H 0.49599 0.73011 0.66009
 H169 H 0.46506 0.81791 0.65736
 H170 H 0.43247 0.85063 0.65791
 H171 H 0.39977 0.81768 0.59128
 H172 H 0.43251 0.78512 0.59103
 C173 C 1.00604 0.75525 0.37621
 C174 C 1.02470 0.75483 0.39452
 C175 C 1.04332 0.77351 0.39479
 C176 C 1.04363 0.79306 0.37666
 C177 C 1.02462 0.79316 0.35828
 C178 C 1.00604 0.77443 0.35811
 C179 C 0.98687 0.73602 0.37601
 C180 C 0.97080 0.71992 0.37585
 C181 C 0.95161 0.70071 0.37567
 C182 C 0.95139 0.68210 0.35695
 C183 C 0.93275 0.66343 0.35675
 C184 C 0.91403 0.66314 0.37531
 C185 C 0.91444 0.68197 0.39405
 C186 C 0.93311 0.70060 0.39420
 H187 H 1.02487 0.74004 0.40865
 H188 H 1.05735 0.77240 0.40932
 H189 H 1.02384 0.80760 0.34392
 H190 H 0.99166 0.77493 0.34382
 H191 H 0.96563 0.68201 0.34251
 H192 H 0.93303 0.64927 0.34205
 H193 H 0.90036 0.68234 0.40862
 H194 H 0.93311 0.71493 0.40878
 C195 C 0.49474 0.24556 -0.12377
 C196 C 0.47879 0.24325 -0.10314
 C197 C 0.46015 0.22458 -0.10288
 C198 C 0.45721 0.20791 -0.12330
 C199 C 0.47338 0.21044 -0.14397
 C200 C 0.49199 0.22914 -0.14418
 C201 C 0.51394 0.26477 -0.12400
 C202 C 0.53003 0.28084 -0.12420
 C203 C 0.54925 0.30002 -0.12444
 C204 C 0.54947 0.31859 -0.14320
 C205 C 0.56815 0.33722 -0.14348
 C206 C 0.58690 0.33752 -0.12496
 C207 C 0.58648 0.31873 -0.10617
 C208 C 0.56778 0.30013 -0.10594
 H209 H 0.48078 0.25585 -0.08721
 H210 H 0.44826 0.22317 -0.08656
 H211 H 0.47164 0.19816 -0.16011
 H212 H 0.50422 0.23079 -0.16028
 H213 H 0.53521 0.31868 -0.15761
 H214 H 0.56787 0.35136 -0.15821
 H215 H 0.60059 0.31836 -0.09163
 H216 H 0.56778 0.28583 -0.09134
 C217 C 0.12545 -0.00406 0.25564
 C218 C 0.10950 -0.02508 0.25396
 C219 C 0.10957 -0.04360 0.27274
 C220 C 0.12564 -0.04135 0.29352
 C221 C 0.14163 -0.02011 0.29498
 C222 C 0.14151 -0.00161 0.27617
 C223 C 0.12530 0.01502 0.23633
 C224 C 0.12516 0.03102 0.22016
 C225 C 0.12497 0.05012 0.20087
 C226 C 0.14348 0.05016 0.18235
 C227 C 0.14331 0.06871 0.16360
 C228 C 0.12458 0.08752 0.16313
 C229 C 0.10604 0.08730 0.18187
 C230 C 0.10626 0.06872 0.20059
 H231 H 0.09700 -0.02718 0.23812
 H232 H 0.09713 -0.05970 0.27080
 H233 H 0.15413 -0.01755 0.31070
 H234 H 0.15391 0.01462 0.27768
 H235 H 0.15805 0.03584 0.18239
 H236 H 0.15787 0.06829 0.14950
 H237 H 0.09134 0.10146 0.18211
 H238 H 0.09184 0.06886 0.21485
 C239 C 0.62604 0.50468 -0.25629
 C240 C 0.64494 0.50482 -0.27437
 C241 C 0.64505 0.52328 -0.29321
 C242 C 0.62616 0.54203 -0.29433
 C243 C 0.60723 0.54159 -0.27587
 C244 C 0.60722 0.52309 -0.25708
 C245 C 0.62594 0.48562 -0.23696
 C246 C 0.62583 0.46964 -0.22077
 C247 C 0.62567 0.45056 -0.20146
 C248 C 0.64423 0.45054 -0.18300
 C249 C 0.64410 0.43201 -0.16423
 C250 C 0.62534 0.41319 -0.16369
 C251 C 0.60676 0.41340 -0.18238
 C252 C 0.60695 0.43196 -0.20111
 H253 H 0.65962 0.49063 -0.27393
 H254 H 0.66003 0.52261 -0.30677
 H255 H 0.59229 0.55541 -0.27571
 H256 H 0.59247 0.52314 -0.24315
 H257 H 0.65882 0.46486 -0.18310
 H258 H 0.65869 0.43245 -0.15017
 H259 H 0.59205 0.39923 -0.18256
 H260 H 0.59248 0.43180 -0.21533
 C261 C 0.37449 1.00411 0.75582
 C262 C 0.39544 1.01965 0.75939
 C263 C 0.39538 1.03818 0.77816
 C264 C 0.37432 1.04143 0.79368
 C265 C 0.35334 1.02567 0.78990
 C266 C 0.35345 1.00716 0.77110
 C267 C 0.37460 0.98503 0.73651
 C268 C 0.37471 0.96904 0.72034
 C269 C 0.37486 0.94994 0.70104
 C270 C 0.39354 0.93132 0.70073
 C271 C 0.39371 0.91275 0.68200
 C272 C 0.37515 0.91256 0.66328
 C273 C 0.35645 0.93140 0.66379
 C274 C 0.35632 0.94994 0.68255
 H275 H 0.41186 1.01742 0.74768
 H276 H 0.41194 1.04974 0.78056
 H277 H 0.33672 1.02766 0.80127
 H278 H 0.33711 0.99526 0.76847
 H279 H 0.40798 0.93115 0.71497
 H280 H 0.40839 0.89857 0.68221
 H281 H 0.34188 0.93186 0.64971
 H282 H 0.34177 0.96428 0.68262
 C283 C 0.87461 0.49546 0.24458
 C284 C 0.89501 0.47906 0.24176
 C285 C 0.89477 0.46040 0.22312
 C286 C 0.87406 0.45786 0.20699
 C287 C 0.85365 0.47450 0.21001
 C288 C 0.85394 0.49314 0.22868
 C289 C 0.87486 0.51463 0.26380
 C290 C 0.87505 0.53068 0.27992
 C291 C 0.87526 0.54982 0.29917
 C292 C 0.89396 0.56845 0.29941
 C293 C 0.89418 0.58706 0.31810
 C294 C 0.87565 0.58729 0.33685
 C295 C 0.85692 0.56844 0.33641
 C296 C 0.85676 0.54985 0.31770
 H297 H 0.91113 0.48072 0.25395
 H298 H 0.91091 0.44814 0.22131
 H299 H 0.83731 0.47308 0.19816
 H300 H 0.83802 0.50572 0.23073
 H301 H 0.90838 0.56859 0.28514
 H302 H 0.90886 0.60125 0.31783
 H303 H 0.84237 0.56801 0.35052
 H304 H 0.84219 0.53551 0.31768
 C305 C 0.25333 0.12531 -0.00391
 C306 C 0.26903 0.14640 -0.00681
 C307 C 0.28762 0.14636 -0.02524
 C308 C 0.29077 0.12519 -0.04107
 C309 C 0.27483 0.10409 -0.03797
 C310 C 0.25627 0.10417 -0.01952
 C311 C 0.23424 0.12535 0.01509
 C312 C 0.21826 0.12537 0.03102
 C313 C 0.19919 0.12537 0.05005
 C314 C 0.18048 0.14397 0.04988
 C315 C 0.16195 0.14399 0.06836
 C316 C 0.16188 0.12537 0.08730
 C317 C 0.18080 0.10674 0.08728
 C318 C 0.19931 0.10677 0.06877
 H319 H 0.26689 0.16289 0.00515
 H320 H 0.29932 0.16303 -0.02712
 H321 H 0.27674 0.08737 -0.04960
 H322 H 0.24424 0.08772 -0.01741
 H323 H 0.18022 0.15847 0.03547
 H324 H 0.14770 0.15861 0.06778
 H325 H 0.18135 0.09212 0.10154
 H326 H 0.21371 0.09228 0.06907
 C327 C 0.74695 0.62490 0.50393
 C328 C 0.73122 0.64594 0.50678
 C329 C 0.71263 0.64589 0.52521
 C330 C 0.70952 0.62475 0.54109
 C331 C 0.72550 0.60369 0.53804
 C332 C 0.74406 0.60379 0.51959
 C333 C 0.76603 0.62496 0.48492
 C334 C 0.78201 0.62500 0.46898
 C335 C 0.80107 0.62503 0.44994
 C336 C 0.81974 0.64368 0.45007
 C337 C 0.83826 0.64374 0.43158
 C338 C 0.83834 0.62509 0.41266
 C339 C 0.81946 0.60641 0.41272
 C340 C 0.80097 0.60640 0.43124
 H341 H 0.73332 0.66242 0.49478
 H342 H 0.70090 0.66253 0.52705
 H343 H 0.72362 0.58699 0.54970
 H344 H 0.75612 0.58737 0.51751
 H345 H 0.81999 0.65819 0.46447
 H346 H 0.85248 0.65841 0.43213
 H347 H 0.81892 0.59177 0.39847
 H348 H 0.78659 0.59187 0.43097
 C349 C 0.75421 0.37547 0.00330
 C350 C 0.77531 0.35997 0.00074
 C351 C 0.79380 0.35988 0.01926
 C352 C 0.79144 0.37535 0.04065
 C353 C 0.77012 0.39089 0.04300
 C354 C 0.75166 0.39093 0.02446
 C355 C 0.73517 0.37550 -0.01574
 C356 C 0.71920 0.37550 -0.03169
 C357 C 0.70012 0.37549 -0.05070
 C358 C 0.68138 0.35690 -0.05047
 C359 C 0.66283 0.35686 -0.06893
 C360 C 0.66277 0.37545 -0.08790
 C361 C 0.68173 0.39406 -0.08794
 C362 C 0.70026 0.39405 -0.06946
 H363 H 0.77749 0.34795 -0.01559
 H364 H 0.80996 0.34782 0.01663
 H365 H 0.76749 0.40290 0.05922
 H366 H 0.73537 0.40298 0.02665
 H367 H 0.68110 0.34244 -0.03603
 H368 H 0.64855 0.34226 -0.06829
 H369 H 0.68229 0.40865 -0.10223
 H370 H 0.71469 0.40853 -0.06981
 C371 C 0.24632 0.87511 0.49623
 C372 C 0.23065 0.85401 0.49331
 C373 C 0.21208 0.85403 0.47488
 C374 C 0.20892 0.87520 0.45905
 C375 C 0.22482 0.89632 0.46217
 C376 C 0.24337 0.89625 0.48063
 C377 C 0.26541 0.87507 0.51523
 C378 C 0.28139 0.87503 0.53116
 C379 C 0.30046 0.87499 0.55018
 C380 C 0.31913 0.85635 0.55000
 C381 C 0.33766 0.85627 0.56848
 C382 C 0.33776 0.87489 0.58743
 C383 C 0.31888 0.89355 0.58742
 C384 C 0.30038 0.89358 0.56891
 H385 H 0.23281 0.83751 0.50527
 H386 H 0.20040 0.83734 0.47298
 H387 H 0.22290 0.91305 0.45055
 H388 H 0.25538 0.91272 0.48276
 H389 H 0.31936 0.84187 0.53557
 H390 H 0.35187 0.84162 0.56788
 H391 H 0.31836 0.90816 0.60169
 H392 H 0.28601 0.90810 0.56922
   
