data_POSCAR
  _audit_creation_date              2014-09-24
  _audit_creation_method            'ToBaCCo'
  _symmetry_space_group_name_H-M    'P1'
  _symmetry_Int_Tables_number       1
  _symmetry_cell_setting            triclinic
  loop_
  _symmetry_equiv_pos_as_xyz
 x,y,z
_cell_length_a 36.0750
_cell_length_b 36.3607
_cell_length_c 36.4506
_cell_angle_alpha 90.080300
_cell_angle_beta 89.854800
_cell_angle_gamma 90.108700
loop_
  _atom_site_label
  _atom_site_type_symbol
  _atom_site_fract_x
  _atom_site_fract_y
  _atom_site_fract_z
C1 C 0.32708 0.37238 1.37342
 C2 C 0.34599 0.34128 1.38717
 C3 C 0.37672 0.32576 1.36872
 C4 C 0.38871 0.34267 1.33600
 C5 C 0.37076 0.37370 1.32189
 C6 C 0.34046 0.38860 1.34080
 H7 H 0.33630 0.32875 1.41220
 H8 H 0.41311 0.33282 1.32177
 H9 H 0.32590 0.41131 1.32825
 C10 C 1.17234 0.62910 0.87886
 C11 C 1.15710 0.61198 0.84748
 C12 C 1.12675 0.62719 0.82880
 C13 C 1.11059 0.65961 0.84217
 C14 C 1.12489 0.67718 0.87332
 C15 C 1.15553 0.66184 0.89143
 H16 H 1.16969 0.58752 0.83613
 H17 H 1.08784 0.67210 0.82742
 H18 H 1.16508 0.67506 0.91628
 C19 C 0.66996 -0.12892 0.12031
 C20 C 0.65225 -0.16080 0.10654
 C21 C 0.62119 -0.17675 0.12429
 C22 C 0.60795 -0.15973 0.15653
 C23 C 0.62472 -0.12796 0.17057
 C24 C 0.65523 -0.11262 0.15232
 H25 H 0.66305 -0.17354 0.08205
 H26 H 0.58344 -0.16998 0.17031
 H27 H 0.66886 -0.08935 0.16502
 C28 C -0.17167 1.12794 -0.37233
 C29 C -0.15274 1.15864 -0.38653
 C30 C -0.12214 1.17433 -0.36806
 C31 C -0.11047 1.15753 -0.33516
 C32 C -0.12882 1.12661 -0.32081
 C33 C -0.15924 1.11187 -0.33963
 H34 H -0.16334 1.17113 -0.41123
 H35 H -0.08609 1.16738 -0.32097
 H36 H -0.17423 1.08886 -0.32790
 C37 C 0.67438 0.63239 0.62433
 C38 C 0.65966 0.61499 0.65547
 C39 C 0.62725 0.62804 0.67239
 C40 C 0.60905 0.65856 0.65720
 C41 C 0.62319 0.67624 0.62582
 C42 C 0.65585 0.66279 0.60948
 H43 H 0.67350 0.59101 0.66645
 H44 H 0.58418 0.66898 0.67020
 H45 H 0.66781 0.67692 0.58612
 C46 C 0.82503 0.37212 0.12901
 C47 C 0.83762 0.38841 0.16163
 C48 C 0.86812 0.37385 0.18034
 C49 C 0.88639 0.34293 0.16597
 C50 C 0.87457 0.32592 0.13317
 C51 C 0.84391 0.34142 0.11480
 H52 H 0.82272 0.41145 0.17337
 H53 H 0.91085 0.33325 0.18004
 H54 H 0.83323 0.32878 0.09015
 C55 C 0.32515 0.12562 0.87173
 C56 C 0.34342 0.15765 0.88430
 C57 C 0.37514 0.17140 0.86658
 C58 C 0.38902 0.15288 0.83575
 C59 C 0.37173 0.12091 0.82256
 C60 C 0.34015 0.10736 0.84079
 H61 H 0.33356 0.17196 0.90841
 H62 H 0.41319 0.16366 0.82172
 H63 H 0.32664 0.08329 0.82962
 C64 C 0.17370 0.87239 0.37747
 C65 C 0.15700 0.83953 0.38997
 C66 C 0.12606 0.82428 0.37218
 C67 C 0.11124 0.84210 0.34151
 C68 C 0.12720 0.87469 0.32827
 C69 C 0.15792 0.88979 0.34659
 H70 H 0.16691 0.82612 0.41451
 H71 H 0.08823 0.82966 0.32699
 H72 H 0.17036 0.91438 0.33533
 Zn73 Zn 0.00773 1.04602 -0.01801
 Zn74 Zn -0.03006 0.97283 -0.02564
 Zn75 Zn 0.04356 0.97928 0.01199
 Zn76 Zn -0.02370 1.00957 0.04801
 O77 O -0.00073 1.00183 0.00400
 O78 O -0.01446 1.04927 -0.06137
 O79 O -0.00763 0.93028 -0.03858
 O80 O 0.08257 1.00489 -0.00483
 O81 O -0.04260 0.99555 -0.06785
 O82 O 0.05568 1.05458 -0.02704
 O83 O 0.04613 0.93578 -0.01002
 O84 O 0.00200 0.99226 0.08633
 O85 O -0.07313 0.96023 -0.00371
 O86 O 0.05217 0.97022 0.05935
 O87 O -0.06793 0.98778 0.05021
 O88 O -0.03205 1.05719 0.05736
 O89 O -0.00871 1.08433 0.00827
 C90 C -0.03451 1.02739 -0.07986
 C91 C 0.02411 0.91767 -0.03024
 C92 C 0.08458 1.03576 -0.02093
 C93 C 0.03317 0.97623 0.08807
 C94 C -0.08613 0.96807 0.02780
 C95 C -0.02499 1.08608 0.03912
 Zn96 Zn 0.54651 -0.02095 0.48805
 Zn97 Zn 0.47238 -0.02744 0.52490
 Zn98 Zn 0.51021 0.04570 0.51877
 Zn99 Zn 0.47974 0.00996 0.45192
 O100 O 0.50213 0.00174 0.49598
 O101 O 0.54878 -0.06475 0.50964
 O102 O 0.45968 -0.00549 0.56746
 O103 O 0.55809 0.05410 0.52788
 O104 O 0.49432 -0.07020 0.53714
 O105 O 0.58536 0.00467 0.50518
 O106 O 0.48786 0.04834 0.56235
 O107 O 0.47156 0.05762 0.44322
 O108 O 0.42953 -0.03952 0.50268
 O109 O 0.49386 0.08435 0.49297
 O110 O 0.43542 -0.01164 0.44907
 O111 O 0.50588 -0.00704 0.41359
 O112 O 0.55552 -0.02984 0.44062
 C113 C 0.52612 -0.08295 0.52917
 C114 C 0.46777 0.02602 0.58032
 C115 C 0.58711 0.03544 0.52159
 C116 C 0.47810 0.08635 0.46194
 C117 C 0.41689 -0.03140 0.47120
 C118 C 0.53688 -0.02343 0.41187
 Zn119 Zn 1.01011 0.45497 0.48090
 Zn120 Zn 1.04618 0.52177 0.51124
 Zn121 Zn 0.97248 0.52814 0.47386
 Zn122 Zn 0.97898 0.49111 0.54717
 O123 O 1.00184 0.49909 0.50321
 O124 O 1.05805 0.44652 0.47183
 O125 O 1.04894 0.56518 0.48912
 O126 O 0.95933 0.50538 0.43181
 O127 O 1.08509 0.49610 0.49451
 O128 O 0.98760 0.45177 0.43762
 O129 O 0.99512 0.57049 0.46068
 O130 O 0.93491 0.51291 0.54965
 O131 O 1.05475 0.53102 0.55866
 O132 O 0.92979 0.54117 0.49617
 O133 O 1.00471 0.50844 0.58550
 O134 O 0.97056 0.44348 0.55633
 O135 O 0.99373 0.41652 0.50704
 C136 C 1.08702 0.46527 0.47825
 C137 C 1.02694 0.58314 0.46886
 C138 C 0.96726 0.47360 0.41953
 C139 C 0.91690 0.53309 0.52764
 C140 C 1.03576 0.52479 0.58734
 C141 C 0.97756 0.41464 0.53794
 Zn142 Zn 0.47677 0.48994 0.95206
 Zn143 Zn 0.54405 0.51998 0.98834
 Zn144 Zn 0.47016 0.52633 1.02577
 Zn145 Zn 0.50757 0.45312 1.01790
 O146 O 0.49954 0.49743 0.99609
 O147 O 0.50279 0.50745 0.91390
 O148 O 0.54669 0.56344 1.01052
 O149 O 0.42725 0.53897 1.00396
 O150 O 0.55293 0.52932 0.94102
 O151 O 0.43264 0.51174 0.94990
 O152 O 0.49255 0.56889 1.03861
 O153 O 0.48500 0.44970 1.06119
 O154 O 0.58283 0.49423 1.00511
 O155 O 0.45740 0.50358 1.06795
 O156 O 0.55537 0.44463 1.02720
 O157 O 0.49133 0.41489 0.99128
 O158 O 0.46825 0.44241 0.94244
 C159 C 0.53402 0.52352 0.91228
 C160 C 0.52442 0.58156 1.03052
 C161 C 0.41439 0.53131 0.97241
 C162 C 0.46514 0.47165 1.07982
 C163 C 0.58445 0.46337 1.02126
 C164 C 0.47518 0.41337 0.96042
 C165 C 1.22803 0.41239 0.42358
 C166 C 1.23857 0.37554 0.42760
 C167 C 1.27126 0.36254 0.41169
 C168 C 1.29460 0.38602 0.39102
 C169 C 1.28395 0.42328 0.38771
 C170 C 1.25126 0.43622 0.40382
 C171 C 1.19227 0.42556 0.43890
 C172 C 1.18972 0.46006 0.45614
 C173 C 1.15569 0.47272 0.46956
 C174 C 1.12347 0.45122 0.46584
 C175 C 1.12617 0.41655 0.44894
 C176 C 1.16016 0.40387 0.43567
 H177 H 1.27676 0.33344 0.41421
 H178 H 1.30120 0.44304 0.37349
 H179 H 1.15456 0.49955 0.48244
 H180 H 1.10189 0.39932 0.44554
 H181 H 1.24380 0.46481 0.40019
 H182 H 1.21408 0.47719 0.45936
 H183 H 1.22129 0.35654 0.44286
 H184 H 1.16115 0.37738 0.42209
 C185 C 0.27114 0.58604 0.92632
 C186 C 0.24596 0.56278 0.90838
 C187 C 0.21314 0.57665 0.89370
 C188 C 0.20436 0.61444 0.89632
 C189 C 0.22925 0.63733 0.91585
 C190 C 0.26210 0.62330 0.93053
 C191 C 0.30747 0.57172 0.93891
 C192 C 0.32266 0.58262 0.97272
 C193 C 0.35729 0.56939 0.98388
 C194 C 0.37750 0.54523 0.96130
 C195 C 0.36219 0.53442 0.92752
 C196 C 0.32764 0.54746 0.91650
 H197 H 0.19443 0.55717 0.88105
 H198 H 0.22493 0.66666 0.91805
 H199 H 0.36830 0.57822 1.01007
 H200 H 0.37697 0.51589 0.90940
 H201 H 0.28121 0.64202 0.94385
 H202 H 0.30762 0.60111 0.99066
 H203 H 0.25168 0.53368 0.90565
 H204 H 0.31698 0.53904 0.89004
 C205 C -0.23005 0.91387 0.07408
 C206 C -0.25488 0.93699 0.09268
 C207 C -0.28799 0.92319 0.10709
 C208 C -0.29747 0.88561 0.10345
 C209 C -0.27279 0.86286 0.08349
 C210 C -0.23966 0.87682 0.06910
 C211 C -0.19353 0.92806 0.06148
 C212 C -0.17849 0.91751 0.02742
 C213 C -0.14370 0.93056 0.01624
 C214 C -0.12316 0.95424 0.03900
 C215 C -0.13830 0.96473 0.07302
 C216 C -0.17301 0.95183 0.08409
 H217 H -0.30644 0.94254 0.12032
 H218 H -0.27747 0.83363 0.08068
 H219 H -0.13285 0.92201 -0.01015
 H220 H -0.12327 0.98288 0.09130
 H221 H -0.22080 0.85817 0.05535
 H222 H -0.19379 0.89943 0.00931
 H223 H -0.24870 0.96595 0.09610
 H224 H -0.18352 0.95998 0.11073
 C225 C 0.72772 0.08843 0.57730
 C226 C 0.75405 0.06350 0.59094
 C227 C 0.78693 0.07622 0.60685
 C228 C 0.79417 0.11413 0.60949
 C229 C 0.76800 0.13899 0.59547
 C230 C 0.73529 0.12630 0.57944
 C231 C 0.69195 0.07519 0.56198
 C232 C 0.65893 0.09426 0.56954
 C233 C 0.62511 0.08167 0.55587
 C234 C 0.62337 0.04955 0.53446
 C235 C 0.65637 0.03055 0.52663
 C236 C 0.69031 0.04327 0.54021
 H237 H 0.80668 0.05639 0.61715
 H238 H 0.77239 0.16838 0.59756
 H239 H 0.60020 0.09683 0.56265
 H240 H 0.65598 0.00575 0.51015
 H241 H 0.71584 0.14622 0.56878
 H242 H 0.65908 0.11856 0.58673
 H243 H 0.74890 0.03417 0.59008
 H244 H 0.71530 0.02822 0.53351
 C245 C 0.42651 0.22701 0.40811
 C246 C 0.42819 0.23619 0.37079
 C247 C 0.41250 0.26881 0.35798
 C248 C 0.39440 0.29345 0.38213
 C249 C 0.39373 0.28429 0.41983
 C250 C 0.40951 0.25164 0.43253
 C251 C 0.44125 0.19129 0.42132
 C252 C 0.46022 0.18891 0.45487
 C253 C 0.47271 0.15495 0.46785
 C254 C 0.46648 0.12262 0.44755
 C255 C 0.44800 0.12512 0.41374
 C256 C 0.43552 0.15903 0.40081
 H257 H 0.41310 0.27335 0.32868
 H258 H 0.38196 0.30260 0.44012
 H259 H 0.48696 0.15400 0.49394
 H260 H 0.44263 0.10076 0.39746
 H261 H 0.40773 0.24535 0.46151
 H262 H 0.46546 0.21334 0.47108
 H263 H 0.44141 0.21790 0.35129
 H264 H 0.42054 0.15984 0.37512
 C265 C 0.92700 0.27357 0.59239
 C266 C 0.90999 0.24886 0.56808
 C267 C 0.89448 0.21603 0.58084
 C268 C 0.89545 0.20675 0.61850
 C269 C 0.91360 0.23145 0.64253
 C270 C 0.92899 0.26429 0.62966
 C271 C 0.94147 0.30944 0.57909
 C272 C 0.93550 0.34168 0.59956
 C273 C 0.94767 0.37572 0.58645
 C274 C 0.96612 0.37832 0.55253
 C275 C 0.97261 0.34600 0.53230
 C276 C 0.96039 0.31194 0.54543
 H277 H 0.88257 0.19772 0.56065
 H278 H 0.91444 0.22680 0.67180
 H279 H 0.94214 0.40007 0.60269
 H280 H 0.98684 0.34702 0.50613
 H281 H 0.94222 0.28265 0.64905
 H282 H 0.92057 0.34074 0.62535
 H283 H 0.90797 0.25524 0.53914
 H284 H 0.96581 0.28753 0.52925
 C285 C 0.07846 0.77905 -0.08734
 C286 C 0.05509 0.74993 -0.09796
 C287 C 0.07006 0.71691 -0.11105
 C288 C 0.10867 0.71231 -0.11360
 C289 C 0.13194 0.74160 -0.10357
 C290 C 0.11704 0.77459 -0.09075
 C291 C 0.06306 0.81376 -0.07202
 C292 C 0.08130 0.83157 -0.04299
 C293 C 0.06825 0.86495 -0.02936
 C294 C 0.03637 0.88136 -0.04414
 C295 C 0.01738 0.86316 -0.07250
 C296 C 0.03066 0.82969 -0.08638
 H297 H 0.05151 0.69467 -0.11844
 H298 H 0.16176 0.73909 -0.10599
 H299 H 0.08330 0.87797 -0.00717
 H300 H -0.00724 0.87515 -0.08446
 H301 H 0.13581 0.79674 -0.08369
 H302 H 0.10575 0.81965 -0.03065
 H303 H 0.02530 0.75236 -0.09535
 H304 H 0.01610 0.81676 -0.10892
 C305 C 0.57358 0.72373 1.08358
 C306 C 0.57043 0.73301 1.12079
 C307 C 0.58547 0.76588 1.13409
 C308 C 0.60425 0.79063 1.11050
 C309 C 0.60614 0.78140 1.07285
 C310 C 0.59111 0.74853 1.05971
 C311 C 0.56023 0.68760 1.06989
 C312 C 0.58209 0.66734 1.04522
 C313 C 0.57032 0.63306 1.03260
 C314 C 0.53630 0.61810 1.04425
 C315 C 0.51427 0.63836 1.06888
 C316 C 0.52620 0.67275 1.08169
 H317 H 0.58403 0.77047 1.16337
 H318 H 0.61820 0.79988 1.05290
 H319 H 0.58805 0.61823 1.01369
 H320 H 0.48792 0.62762 1.07834
 H321 H 0.59309 0.74254 1.03066
 H322 H 0.60870 0.67775 1.03609
 H323 H 0.55755 0.71415 1.13996
 H324 H 0.50868 0.68789 1.10053
 C325 C 0.40824 0.41862 1.21890
 C326 C 0.39988 0.44209 1.24850
 C327 C 0.38724 0.42766 1.28187
 C328 C 0.38294 0.38950 1.28633
 C329 C 0.39056 0.36618 1.25655
 C330 C 0.40291 0.38055 1.22323
 C331 C 0.42331 0.43333 1.18385
 C332 C 0.45100 0.41385 1.16491
 C333 C 0.46455 0.42654 1.13139
 C334 C 0.45104 0.45927 1.11597
 C335 C 0.42393 0.47932 1.13519
 C336 C 0.41014 0.46643 1.16879
 H337 H 0.38167 0.44621 1.30448
 H338 H 0.38673 0.33673 1.25900
 H339 H 0.48575 0.41062 1.11756
 H340 H 0.41295 0.50462 1.12399
 H341 H 0.40816 0.36177 1.20075
 H342 H 0.46243 0.38876 1.17611
 H343 H 0.40399 0.47149 1.24616
 H344 H 0.38862 0.48195 1.18257
 C345 C 0.58764 -0.08050 0.27242
 C346 C 0.59381 -0.05806 0.24166
 C347 C 0.60579 -0.07342 0.20849
 C348 C 0.61127 -0.11156 0.20538
 C349 C 0.60460 -0.13401 0.23602
 C350 C 0.59309 -0.11861 0.26925
 C351 C 0.57570 -0.06437 0.30787
 C352 C 0.59277 -0.07528 0.34066
 C353 C 0.58076 -0.06123 0.37431
 C354 C 0.55110 -0.03624 0.37593
 C355 C 0.53435 -0.02492 0.34305
 C356 C 0.54671 -0.03868 0.30931
 H357 H 0.61061 -0.05558 0.18519
 H358 H 0.60891 -0.16344 0.23441
 H359 H 0.59423 -0.07054 0.39912
 H360 H 0.51148 -0.00568 0.34340
 H361 H 0.58818 -0.13655 0.29247
 H362 H 0.61546 -0.09475 0.34024
 H363 H 0.58997 -0.02858 0.24347
 H364 H 0.53297 -0.02999 0.28441
 C365 C -0.09140 1.08107 -0.21832
 C366 C -0.10044 1.05776 -0.24782
 C367 C -0.11311 1.07240 -0.28101
 C368 C -0.11675 1.11062 -0.28539
 C369 C -0.10847 1.13380 -0.25569
 C370 C -0.09610 1.11922 -0.22254
 C371 C -0.07627 1.06611 -0.18350
 C372 C -0.04807 1.08519 -0.16493
 C373 C -0.03450 1.07232 -0.13158
 C374 C -0.04848 1.03980 -0.11596
 C375 C -0.07606 1.02010 -0.13485
 C376 C -0.08988 1.03317 -0.16828
 H377 H -0.11916 1.05394 -0.30357
 H378 H -0.11178 1.16330 -0.25805
 H379 H -0.01293 1.08797 -0.11801
 H380 H -0.08742 0.99497 -0.12349
 H381 H -0.09032 1.13790 -0.20011
 H382 H -0.03630 1.11013 -0.17627
 H383 H -0.09683 1.02830 -0.24557
 H384 H -0.11178 1.01795 -0.18178
 C385 C 1.08806 0.57963 0.72733
 C386 C 1.06267 0.59279 0.75356
 C387 C 1.07514 0.60792 0.78662
 C388 C 1.11326 0.61022 0.79418
 C389 C 1.13859 0.59683 0.76803
 C390 C 1.12615 0.58161 0.73510
 C391 C 1.07503 0.56466 0.69164
 C392 C 1.09448 0.57256 0.65911
 C393 C 1.08205 0.55910 0.62541
 C394 C 1.04974 0.53756 0.62336
 C395 C 1.03038 0.52941 0.65588
 C396 C 1.04292 0.54277 0.68965
 H397 H 1.05493 0.61776 0.80633
 H398 H 1.16816 0.59871 0.77270
 H399 H 1.09749 0.56611 0.60087
 H400 H 1.00544 0.51281 0.65525
 H401 H 1.14643 0.57132 0.71571
 H402 H 1.11896 0.58983 0.65956
 H403 H 1.03317 0.59207 0.74825
 H404 H 1.02760 0.53576 0.71425
 C405 C 0.77731 0.59241 0.57947
 C406 C 0.74787 0.60174 0.55604
 C407 C 0.71453 0.61528 0.57044
 C408 C 0.70999 0.61954 0.60851
 C409 C 0.73970 0.61103 0.63177
 C410 C 0.77297 0.59776 0.61744
 C411 C 0.81226 0.57642 0.56484
 C412 C 0.83021 0.54822 0.58417
 C413 C 0.86384 0.53404 0.57175
 C414 C 0.88036 0.54745 0.53947
 C415 C 0.86203 0.57497 0.51948
 C416 C 0.82831 0.58938 0.53209
 H417 H 0.69198 0.62152 0.55192
 H418 H 0.73726 0.61483 0.66116
 H419 H 0.87697 0.51255 0.58761
 H420 H 0.87409 0.58588 0.49452
 H421 H 0.79539 0.59178 0.63618
 H422 H 0.81818 0.53698 0.60900
 H423 H 0.75025 0.59768 0.52670
 H424 H 0.81529 0.61125 0.51669
 C425 C 0.72454 0.41103 1.07825
 C426 C 0.73208 0.37320 1.08057
 C427 C 0.76470 0.36071 1.09681
 C428 C 0.79083 0.38573 1.11087
 C429 C 0.78359 0.42360 1.10814
 C430 C 0.75080 0.43611 1.09202
 C431 C 0.68892 0.42406 1.06254
 C432 C 0.68749 0.45590 1.04074
 C433 C 0.65369 0.46844 1.02681
 C434 C 0.62061 0.44933 1.03430
 C435 C 0.62215 0.41726 1.05571
 C436 C 0.65584 0.40486 1.06974
 H437 H 0.76907 0.33135 1.09898
 H438 H 0.80330 0.44356 1.11846
 H439 H 0.65346 0.49320 1.01035
 H440 H 0.59717 0.40202 1.06225
 H441 H 0.74566 0.46542 1.09104
 H442 H 0.71254 0.47104 1.03428
 H443 H 0.71271 0.35314 1.06983
 H444 H 0.65581 0.38061 1.08695
 C445 C 0.22540 1.08751 -0.07763
 C446 C 0.23570 1.12464 -0.07547
 C447 C 0.26849 1.13706 -0.09171
 C448 C 0.29223 1.11270 -0.11083
 C449 C 0.28174 1.07523 -0.11240
 C450 C 0.24892 1.06290 -0.09601
 C451 C 0.18969 1.07476 -0.06170
 C452 C 0.18728 1.04098 -0.04314
 C453 C 0.15332 1.02860 -0.02922
 C454 C 0.12102 1.04970 -0.03367
 C455 C 0.12358 1.08371 -0.05179
 C456 C 0.15750 1.09608 -0.06563
 H457 H 0.27389 1.16629 -0.09055
 H458 H 0.29923 1.05480 -0.12526
 H459 H 0.15230 1.00229 -0.01537
 H460 H 0.09924 1.10060 -0.05582
 H461 H 0.24166 1.03407 -0.09825
 H462 H 0.21170 1.02416 -0.03929
 H463 H 0.21823 1.14428 -0.06130
 H464 H 0.15834 1.12199 -0.08022
 C465 C 0.27335 -0.08516 0.42421
 C466 C 0.24819 -0.06170 0.40669
 C467 C 0.21513 -0.07537 0.39217
 C468 C 0.20611 -0.11316 0.39454
 C469 C 0.23112 -0.13627 0.41346
 C470 C 0.26417 -0.12244 0.42799
 C471 C 0.30974 -0.07101 0.43698
 C472 C 0.32481 -0.08231 0.47066
 C473 C 0.35951 -0.06935 0.48201
 C474 C 0.37992 -0.04502 0.45978
 C475 C 0.36474 -0.03376 0.42615
 C476 C 0.33008 -0.04655 0.41492
 H477 H 0.19641 -0.05574 0.37993
 H478 H 0.22671 -0.16562 0.41534
 H479 H 0.37041 -0.07850 0.50810
 H480 H 0.37969 -0.01508 0.40831
 H481 H 0.28329 -0.14131 0.44093
 H482 H 0.30962 -0.10094 0.48834
 H483 H 0.25406 -0.03258 0.40425
 H484 H 0.31949 -0.03779 0.38858
 C485 C 0.57414 -0.22458 0.58330
 C486 C 0.57519 -0.23097 0.62125
 C487 C 0.59056 -0.26338 0.63504
 C488 C 0.60495 -0.29024 0.61113
 C489 C 0.60290 -0.28423 0.57310
 C490 C 0.58776 -0.25172 0.55935
 C491 C 0.56073 -0.18894 0.56879
 C492 C 0.58098 -0.17067 0.54138
 C493 C 0.56955 -0.13641 0.52855
 C494 C 0.53741 -0.11966 0.54262
 C495 C 0.51678 -0.13815 0.56970
 C496 C 0.52847 -0.17238 0.58283
 H497 H 0.59225 -0.26683 0.66448
 H498 H 0.61311 -0.30464 0.55394
 H499 H 0.58604 -0.12298 0.50760
 H500 H 0.49190 -0.12596 0.58107
 H501 H 0.58682 -0.24770 0.52993
 H502 H 0.60620 -0.18253 0.53040
 H503 H 0.56534 -0.21032 0.64034
 H504 H 0.51224 -0.18601 0.60384
 C505 C 1.08053 0.72189 0.41128
 C506 C 1.11902 0.72652 0.40705
 C507 C 1.13362 0.75966 0.39425
 C508 C 1.11012 0.78894 0.38508
 C509 C 1.07159 0.78417 0.38841
 C510 C 1.05692 0.75099 0.40148
 C511 C 1.06550 0.68704 0.42663
 C512 C 1.03276 0.67111 0.41288
 C513 C 1.01969 0.63760 0.42686
 C514 C 1.03921 0.61936 0.45473
 C515 C 1.07150 0.63571 0.46887
 C516 C 1.08436 0.66914 0.45513
 H517 H 1.16339 0.76232 0.39122
 H518 H 1.05287 0.80640 0.38169
 H519 H 0.99474 0.62566 0.41540
 H520 H 1.08699 0.62265 0.49066
 H521 H 1.02719 0.74843 0.40474
 H522 H 1.01772 0.68410 0.39075
 H523 H 1.13795 0.70438 0.41346
 H524 H 1.10912 0.68104 0.46699
 C525 C -0.07619 1.22682 0.09365
 C526 C -0.07418 1.23623 0.13091
 C527 C -0.08965 1.26901 0.14377
 C528 C -0.10788 1.29352 0.11973
 C529 C -0.10892 1.28408 0.08210
 C530 C -0.09333 1.25131 0.06934
 C531 C -0.06154 1.19105 0.08035
 C532 C -0.04255 1.18864 0.04673
 C533 C -0.03015 1.15466 0.03360
 C534 C -0.03654 1.12233 0.05378
 C535 C -0.05505 1.12484 0.08767
 C536 C -0.06739 1.15880 0.10080
 H537 H -0.08878 1.27378 0.17304
 H538 H -0.12091 1.30224 0.06192
 H539 H -0.01588 1.15371 0.00744
 H540 H -0.06050 1.10047 0.10388
 H541 H -0.09536 1.24481 0.04041
 H542 H -0.03722 1.21307 0.03058
 H543 H -0.06087 1.21802 0.15030
 H544 H -0.08237 1.15968 0.12657
 C545 C 0.42416 0.27265 0.90508
 C546 C 0.42076 0.26559 0.86729
 C547 C 0.40536 0.23258 0.85482
 C548 C 0.39312 0.20576 0.87983
 C549 C 0.39726 0.21247 0.91759
 C550 C 0.41251 0.24554 0.93006
 C551 C 0.43869 0.30856 0.91841
 C552 C 0.46133 0.31046 0.94972
 C553 C 0.47356 0.34442 0.96312
 C554 C 0.46359 0.37725 0.94542
 C555 C 0.44153 0.37532 0.91375
 C556 C 0.42915 0.34140 0.90047
 H557 H 0.40226 0.22842 0.82557
 H558 H 0.38860 0.19215 0.93755
 H559 H 0.49070 0.34494 0.98747
 H560 H 0.43320 0.40009 0.89955
 H561 H 0.41435 0.25020 0.95934
 H562 H 0.46968 0.28566 0.96385
 H563 H 0.42993 0.28566 0.84730
 H564 H 0.41129 0.34102 0.87665
 C565 C 0.58766 0.57932 0.77307
 C566 C 0.56250 0.59087 0.74604
 C567 C 0.57524 0.60631 0.71321
 C568 C 0.61343 0.61068 0.70673
 C569 C 0.63854 0.59886 0.73367
 C570 C 0.62583 0.58323 0.76631
 C571 C 0.57426 0.56411 0.80856
 C572 C 0.59254 0.57299 0.84143
 C573 C 0.57983 0.55927 0.87493
 C574 C 0.54833 0.53653 0.87646
 C575 C 0.53009 0.52745 0.84363
 C576 C 0.54299 0.54100 0.81003
 H577 H 0.55518 0.61475 0.69286
 H578 H 0.66812 0.60227 0.72984
 H579 H 0.59435 0.56705 0.89973
 H580 H 0.50581 0.50990 0.84388
 H581 H 0.64599 0.57416 0.78629
 H582 H 0.61629 0.59124 0.84142
 H583 H 0.53290 0.58864 0.75051
 H584 H 0.52859 0.53319 0.78518
 C585 C 0.41308 0.07272 0.72237
 C586 C 0.37478 0.07462 0.72904
 C587 C 0.36132 0.08957 0.76184
 C588 C 0.38592 0.10265 0.78879
 C589 C 0.42426 0.09957 0.78252
 C590 C 0.43768 0.08491 0.74964
 C591 C 0.42739 0.05989 0.68638
 C592 C 0.45545 0.07981 0.66848
 C593 C 0.46842 0.06872 0.63412
 C594 C 0.45387 0.03723 0.61693
 C595 C 0.42602 0.01702 0.63498
 C596 C 0.41272 0.02841 0.66929
 H597 H 0.33164 0.09203 0.76552
 H598 H 0.44394 0.10873 0.80299
 H599 H 0.48995 0.08487 0.62103
 H600 H 0.41424 -0.00734 0.62243
 H601 H 0.46736 0.08325 0.74542
 H602 H 0.46692 0.10445 0.68078
 H603 H 0.35521 0.06580 0.70831
 H604 H 0.39118 0.01246 0.68262
 C605 C 0.08697 0.92239 0.22765
 C606 C 0.12516 0.92075 0.23497
 C607 C 0.13810 0.90556 0.26765
 C608 C 0.11317 0.89187 0.29403
 C609 C 0.07493 0.89394 0.28699
 C610 C 0.06197 0.90902 0.25416
 C611 C 0.07345 0.93705 0.19208
 C612 C 0.04116 0.95858 0.19035
 C613 C 0.02823 0.97167 0.15666
 C614 C 0.04738 0.96361 0.12400
 C615 C 0.07983 0.94239 0.12580
 C616 C 0.09264 0.92919 0.15939
 H617 H 0.16774 0.90388 0.27190
 H618 H 0.05503 0.88389 0.30690
 H619 H 0.00318 0.98803 0.15622
 H620 H 0.09512 0.93544 0.10115
 H621 H 0.03240 0.90950 0.24922
 H622 H 0.02601 0.96553 0.21508
 H623 H 0.14515 0.93122 0.21537
 H624 H 0.11723 0.91217 0.15964
 C625 C 0.90722 0.41979 0.28220
 C626 C 0.90203 0.38166 0.27819
 C627 C 0.88897 0.36697 0.24530
 C628 C 0.88049 0.39002 0.21565
 C629 C 0.88451 0.42825 0.21986
 C630 C 0.89786 0.44300 0.25281
 C631 C 0.92324 0.43482 0.31668
 C632 C 0.91023 0.46787 0.33213
 C633 C 0.92483 0.48098 0.36527
 C634 C 0.95261 0.46120 0.38364
 C635 C 0.96602 0.42858 0.36776
 C636 C 0.95165 0.41567 0.33469
 H637 H 0.88539 0.33747 0.24306
 H638 H 0.87829 0.44660 0.19734
 H639 H 0.91389 0.50618 0.37685
 H640 H 0.98770 0.41286 0.38092
 H641 H 0.90180 0.47245 0.25491
 H642 H 0.88819 0.48315 0.31905
 H643 H 0.90804 0.36307 0.30057
 H644 H 0.96297 0.39063 0.32313
   
