data_POSCAR
  _audit_creation_date              2014-09-24
  _audit_creation_method            'ToBaCCo'
  _symmetry_space_group_name_H-M    'P1'
  _symmetry_Int_Tables_number       1
  _symmetry_cell_setting            triclinic
  loop_
  _symmetry_equiv_pos_as_xyz
 x,y,z
_cell_length_a 21.9310
_cell_length_b 21.8312
_cell_length_c 21.6557
_cell_angle_alpha 102.131900
_cell_angle_beta 79.158700
_cell_angle_gamma 74.354600
loop_
  _atom_site_label
  _atom_site_type_symbol
  _atom_site_fract_x
  _atom_site_fract_y
  _atom_site_fract_z
O1 O 0.54810 0.52390 0.07052
 O2 O 0.38631 0.53831 0.03499
 O3 O 0.47035 0.45099 0.07145
 O4 O 0.46409 0.60927 0.03397
 O5 O 0.51294 0.55619 -0.06986
 O6 O 0.52105 0.39711 -0.03189
 O7 O 0.43629 0.48127 -0.06741
 O8 O 0.59767 0.47339 -0.03368
 Cu9 Cu 0.46237 0.53555 0.06303
 Cu10 Cu 0.52197 0.47140 -0.06089
 C11 C 0.60020 0.49832 0.02403
 C12 C 0.38357 0.51168 -0.02223
 C13 C 0.49596 0.39727 0.02601
 C14 C 0.48800 0.60979 -0.02403
 O15 O 0.04684 0.56850 0.49446
 O16 O 0.05156 0.39514 0.45814
 O17 O 0.02930 0.48562 0.39915
 O18 O 0.06842 0.47568 0.55497
 O19 O -0.03767 0.50764 0.60254
 O20 O -0.07684 0.52192 0.44763
 O21 O -0.05463 0.42745 0.50525
 O22 O -0.05810 0.60044 0.54584
 Cu23 Cu 0.05981 0.47838 0.47190
 Cu24 Cu -0.06757 0.51758 0.53010
 C25 C -0.00627 0.61420 0.52680
 C26 C -0.00086 0.38176 0.47511
 C27 C -0.02997 0.50488 0.39661
 C28 C 0.02157 0.48969 0.60542
 O29 O 0.47598 0.03836 0.60816
 O30 O 0.48189 0.07443 0.44871
 O31 O 0.39518 0.05834 0.53810
 O32 O 0.56532 0.05375 0.51956
 O33 O 0.59911 -0.05256 0.46693
 O34 O 0.42905 -0.04910 0.49000
 O35 O 0.51606 -0.03272 0.39920
 O36 O 0.51524 -0.06867 0.55858
 Cu37 Cu 0.47646 0.06714 0.53346
 Cu38 Cu 0.51783 -0.06168 0.47380
 C39 C 0.49424 -0.02123 0.61086
 C40 C 0.50058 0.02699 0.39674
 C41 C 0.38313 0.00509 0.51828
 C42 C 0.61121 0.00003 0.48927
 C43 C 0.50128 -0.06712 -0.13862
 C44 C 0.49785 -0.12668 -0.12562
 C45 C 0.49768 -0.13714 -0.06389
 C46 C 0.50012 -0.08584 -0.01262
 C47 C 0.50443 -0.02560 -0.02494
 C48 C 0.50799 -0.01741 -0.08868
 C49 C 0.52053 0.03934 -0.10113
 C50 C 0.52094 0.09053 -0.05075
 C51 C 0.50980 0.08685 0.01421
 C52 C 0.50594 0.02647 0.02650
 C53 C 0.49976 -0.09343 0.05039
 C54 C 0.49949 -0.04212 0.10086
 C55 C 0.50362 0.01799 0.09000
 C56 C 0.50505 0.06998 0.14097
 C57 C 0.50353 0.13095 0.12899
 C58 C 0.50482 0.14084 0.06682
 H59 H 0.53104 0.04459 -0.15018
 H60 H 0.53129 0.13258 -0.06365
 H61 H 0.49980 -0.13904 0.06213
 H62 H 0.49545 -0.05038 0.14871
 H63 H 0.49323 -0.16501 -0.16362
 H64 H 0.50156 0.17143 0.16895
 C65 C 0.13454 0.49869 0.93547
 C66 C 0.12489 0.49042 0.87224
 C67 C 0.06751 0.48100 0.85870
 C68 C 0.01824 0.47755 0.90925
 C69 C 0.02454 0.48973 0.97400
 C70 C 0.08344 0.49848 0.98715
 C71 C 0.08953 0.50544 1.05138
 C72 C 0.03761 0.50997 1.10194
 C73 C -0.02138 0.50240 1.09017
 C74 C -0.02815 0.49239 1.02563
 C75 C -0.03658 0.46037 0.89642
 C76 C -0.08837 0.46437 0.94686
 C77 C -0.08730 0.48468 1.01239
 C78 C -0.14230 0.49454 1.06483
 C79 C -0.13354 0.50286 1.12843
 C80 C -0.07346 0.50414 1.14121
 H81 H 0.13443 0.50722 1.06395
 H82 H 0.04465 0.52021 1.15061
 H83 H -0.03995 0.44293 0.84703
 H84 H -0.12865 0.44992 0.93367
 H85 H 0.16184 0.49358 0.83313
 H86 H -0.17386 0.50793 1.16881
 C87 C -0.04343 -0.12141 0.52805
 C88 C -0.10342 -0.10180 0.51239
 C89 C -0.12190 -0.04596 0.49000
 C90 C -0.08002 -0.00781 0.48273
 C91 C -0.02049 -0.02498 0.50105
 C92 C -0.00215 -0.08170 0.52430
 C93 C 0.05561 -0.09568 0.54526
 C94 C 0.09559 -0.05623 0.54132
 C95 C 0.07926 -0.00113 0.51642
 C96 C 0.02020 0.01532 0.49710
 C97 C -0.09647 0.04722 0.45780
 C98 C -0.05641 0.08649 0.45362
 C99 C 0.00129 0.07249 0.47468
 C100 C 0.04108 0.11367 0.47322
 C101 C 0.09993 0.09592 0.49114
 C102 C 0.11956 0.03910 0.51201
 H103 H 0.06987 -0.13634 0.56635
 H104 H 0.13886 -0.06881 0.55926
 H105 H -0.14049 0.06038 0.44108
 H106 H -0.07110 0.12774 0.43337
 H107 H -0.13654 -0.13030 0.51803
 H108 H 0.13079 0.12722 0.48948
 C109 C -0.31381 0.47731 1.08638
 C110 C -0.33626 0.50074 1.03670
 C111 C -0.29846 0.53204 1.00250
 C112 C -0.23698 0.53287 1.01338
 C113 C -0.20994 0.49925 1.05618
 C114 C -0.25215 0.47582 1.09512
 C115 C -0.24005 0.41090 1.11052
 C116 C -0.30734 0.41236 1.10089
 H117 H -0.31612 0.55527 0.96688
 H118 H -0.20979 0.55792 0.98654
 H119 H -0.23745 0.41519 1.16194
 H120 H -0.19903 0.37083 1.07300
 H121 H -0.34327 0.41748 1.14684
 H122 H -0.30526 0.37309 1.05778
 C123 C 0.31762 0.47507 0.90699
 C124 C 0.32234 0.51560 0.96426
 C125 C 0.26259 0.56045 1.00722
 C126 C 0.20140 0.55866 0.99596
 C127 C 0.19799 0.50881 0.94434
 C128 C 0.25748 0.47127 0.89796
 C129 C 0.28464 0.39887 0.86516
 C130 C 0.35057 0.40268 0.87500
 H131 H 0.26285 0.59622 1.05014
 H132 H 0.15690 0.59414 1.02966
 H133 H 0.28375 0.38729 0.81290
 H134 H 0.26380 0.36934 0.89405
 H135 H 0.38766 0.39300 0.82835
 H136 H 0.36804 0.37519 0.90946
 C137 C 0.04293 -0.30090 0.50937
 C138 C -0.00816 -0.31972 0.54081
 C139 C -0.06355 -0.26871 0.58413
 C140 C -0.07148 -0.20208 0.58660
 C141 C -0.02499 -0.18522 0.54486
 C142 C 0.03415 -0.23527 0.51062
 C143 C 0.07231 -0.25258 0.44118
 C144 C 0.08208 -0.32458 0.43943
 H145 H -0.10304 -0.28021 0.61256
 H146 H -0.11696 -0.16457 0.61608
 H147 H 0.11848 -0.23995 0.43685
 H148 H 0.04159 -0.23474 0.40909
 H149 H 0.13395 -0.35348 0.43382
 H150 H 0.05718 -0.34859 0.40609
 C151 C -0.04735 0.29325 0.49600
 C152 C 0.00122 0.31225 0.46069
 C153 C 0.05535 0.26184 0.41522
 C154 C 0.06518 0.19512 0.41383
 C155 C 0.02110 0.17794 0.45793
 C156 C -0.03733 0.22756 0.49497
 C157 C -0.07091 0.24475 0.56588
 C158 C -0.08190 0.31686 0.56722
 H159 H 0.09285 0.27417 0.38479
 H160 H 0.11017 0.15786 0.38290
 H161 H -0.03707 0.22675 0.59531
 H162 H -0.11706 0.23210 0.57394
 H163 H -0.05449 0.34076 0.59750
 H164 H -0.13444 0.34579 0.57628
 C165 C 0.52117 -0.09736 -0.32226
 C166 C 0.48978 -0.03450 -0.32806
 C167 C 0.45171 0.01464 -0.26956
 C168 C 0.45177 0.00262 -0.20814
 C169 C 0.49322 -0.05714 -0.20325
 C170 C 0.52340 -0.10803 -0.26151
 C171 C 0.59217 -0.15387 -0.28644
 C172 C 0.59003 -0.14230 -0.35299
 H173 H 0.42269 0.06286 -0.27095
 H174 H 0.42230 0.04161 -0.16444
 H175 H 0.59550 -0.20531 -0.28526
 H176 H 0.62705 -0.13380 -0.26433
 H177 H 0.59237 -0.18718 -0.39012
 H178 H 0.62382 -0.11565 -0.36961
 C179 C 0.46471 0.09884 0.32535
 C180 C 0.50646 0.04136 0.33271
 C181 C 0.55621 -0.00113 0.27718
 C182 C 0.55833 0.01015 0.21516
 C183 C 0.50913 0.06255 0.20706
 C184 C 0.46578 0.10892 0.26394
 C185 C 0.39303 0.13859 0.28066
 C186 C 0.39174 0.12754 0.34791
 H187 H 0.59220 -0.04407 0.28133
 H188 H 0.59595 -0.02432 0.17303
 H189 H 0.36992 0.10783 0.25132
 H190 H 0.37755 0.19178 0.28188
 H191 H 0.36781 0.09040 0.35768
 H192 H 0.37540 0.17440 0.38780
 C193 C 0.44530 -0.26694 0.00511
 C194 C 0.48935 -0.32674 -0.03691
 C195 C 0.53974 -0.32360 -0.08620
 C196 C 0.54271 -0.26204 -0.09489
 C197 C 0.49513 -0.20230 -0.05486
 C198 C 0.44741 -0.20666 -0.00460
 C199 C 0.37470 -0.17753 0.01284
 C200 C 0.37202 -0.24358 0.02340
 H201 H 0.57691 -0.36858 -0.11777
 H202 H 0.58180 -0.26109 -0.13320
 H203 H 0.35599 -0.16641 -0.02923
 H204 H 0.35575 -0.13638 0.05873
 H205 H 0.35157 -0.27082 -0.01241
 H206 H 0.35117 -0.24032 0.07536
 C207 C 0.52833 0.30941 0.08242
 C208 C 0.49398 0.33485 0.04036
 C209 C 0.45378 0.30091 0.01533
 C210 C 0.45470 0.23920 0.02623
 C211 C 0.49803 0.20893 0.05997
 C212 C 0.53078 0.24770 0.09138
 C213 C 0.60095 0.23072 0.09272
 C214 C 0.59839 0.29825 0.08292
 H215 H 0.42294 0.32130 -0.01386
 H216 H 0.42380 0.21393 0.00576
 H217 H 0.63362 0.18879 0.05045
 H218 H 0.60750 0.22622 0.14142
 H219 H 0.62974 0.29557 0.03501
 H220 H 0.60339 0.33241 0.12612
 C221 C -0.27047 -0.04991 0.42954
 C222 C -0.32062 -0.00168 0.48026
 C223 C -0.30280 0.04275 0.52500
 C224 C -0.23666 0.03069 0.52535
 C225 C -0.18795 -0.02518 0.48039
 C226 C -0.20552 -0.06121 0.42932
 C227 C -0.18745 -0.13359 0.39732
 C228 C -0.25937 -0.12119 0.39816
 H229 H -0.33994 0.08268 0.56342
 H230 H -0.22420 0.06160 0.56385
 H231 H -0.17123 -0.16558 0.42864
 H232 H -0.15471 -0.14830 0.34713
 H233 H -0.28416 -0.14502 0.43106
 H234 H -0.26779 -0.12935 0.34847
 C235 C 0.29812 -0.04410 0.49169
 C236 C 0.31495 0.00652 0.52848
 C237 C 0.26402 0.06100 0.57298
 C238 C 0.19857 0.06899 0.57222
 C239 C 0.18355 0.02256 0.52706
 C240 C 0.23362 -0.03594 0.49070
 C241 C 0.25172 -0.07054 0.41950
 C242 C 0.32270 -0.07948 0.42035
 H243 H 0.27492 0.09985 0.60463
 H244 H 0.16053 0.11394 0.60268
 H245 H 0.23335 -0.03718 0.38994
 H246 H 0.24059 -0.11788 0.41025
 H247 H 0.34560 -0.05132 0.39124
 H248 H 0.35254 -0.13203 0.41131
 C249 C 0.00008 0.46033 1.27656
 C250 C -0.04334 0.50644 1.33307
 C251 C -0.09658 0.55551 1.32622
 C252 C -0.10714 0.55527 1.26381
 C253 C -0.06523 0.50534 1.20777
 C254 C -0.01150 0.45905 1.21593
 C255 C 0.01122 0.38542 1.19343
 C256 C 0.02402 0.38647 1.26022
 H257 H -0.12983 0.59367 1.36880
 H258 H -0.14808 0.59345 1.25940
 H259 H 0.05676 0.36542 1.15279
 H260 H -0.02892 0.36528 1.18501
 H261 H 0.07695 0.36680 1.25799
 H262 H -0.00849 0.36669 1.29062
 C263 C -0.01336 0.52085 0.72622
 C264 C 0.03501 0.48499 0.66844
 C265 C 0.09400 0.44214 0.67306
 C266 C 0.10497 0.43963 0.73485
 C267 C 0.05740 0.48042 0.79275
 C268 C -0.00182 0.51955 0.78641
 C269 C -0.03840 0.59132 0.81634
 C270 C -0.05116 0.59314 0.74998
 H271 H 0.13167 0.41136 0.62924
 H272 H 0.15078 0.40693 0.73738
 H273 H -0.00614 0.62028 0.83055
 H274 H -0.08352 0.59982 0.85489
 H275 H -0.02645 0.62332 0.72562
 H276 H -0.10372 0.60305 0.75044
   
