data_POSCAR
  _audit_creation_date              2014-09-24
  _audit_creation_method            'ToBaCCo'
  _symmetry_space_group_name_H-M    'P1'
  _symmetry_Int_Tables_number       1
  _symmetry_cell_setting            triclinic
  loop_
  _symmetry_equiv_pos_as_xyz
 x,y,z
_cell_length_a 25.1849
_cell_length_b 34.5173
_cell_length_c 23.7866
_cell_angle_alpha 90.000000
_cell_angle_beta 90.000000
_cell_angle_gamma 90.246900
loop_
  _atom_site_label
  _atom_site_type_symbol
  _atom_site_fract_x
  _atom_site_fract_y
  _atom_site_fract_z
O1 O 0.24134 0.28704 0.17997
 O2 O 0.31610 0.21172 0.25535
 O3 O 0.24121 0.21145 0.17986
 O4 O 0.31622 0.28702 0.25544
 O5 O 0.25567 0.28685 0.32280
 O6 O 0.18066 0.21126 0.24718
 O7 O 0.25556 0.21153 0.32271
 O8 O 0.18079 0.28687 0.24729
 Cu9 Cu 0.28477 0.24932 0.21080
 Cu10 Cu 0.21199 0.24910 0.29173
 C11 C 0.19854 0.29976 0.20099
 C12 C 0.29853 0.19899 0.30182
 C13 C 0.19835 0.19851 0.20082
 C14 C 0.29867 0.29962 0.30193
 O15 O 0.74226 0.21304 0.31803
 O16 O 0.81724 0.28860 0.24242
 O17 O 0.74236 0.28860 0.31791
 O18 O 0.81713 0.21328 0.24256
 O19 O 0.75659 0.21307 0.17520
 O20 O 0.68180 0.28842 0.25059
 O21 O 0.75671 0.28842 0.17507
 O22 O 0.68170 0.21283 0.25070
 Cu23 Cu 0.78581 0.25090 0.28707
 Cu24 Cu 0.71304 0.25067 0.20614
 C25 C 0.69940 0.20010 0.29706
 C26 C 0.79971 0.30120 0.19592
 C27 C 0.69953 0.30130 0.29691
 C28 C 0.79954 0.20051 0.19612
 O29 O 0.74236 0.78860 0.68210
 O30 O 0.81713 0.71328 0.75745
 O31 O 0.74226 0.71304 0.68198
 O32 O 0.81724 0.78860 0.75759
 O33 O 0.75671 0.78842 0.82494
 O34 O 0.68170 0.71283 0.74931
 O35 O 0.75659 0.71307 0.82481
 O36 O 0.68180 0.78842 0.74942
 Cu37 Cu 0.78581 0.75090 0.71294
 Cu38 Cu 0.71304 0.75067 0.79387
 C39 C 0.69953 0.80130 0.70310
 C40 C 0.79954 0.70051 0.80389
 C41 C 0.69940 0.70010 0.70295
 C42 C 0.79971 0.80120 0.80409
 O43 O 0.25556 0.71153 0.67730
 O44 O 0.18079 0.78687 0.75272
 O45 O 0.25567 0.78685 0.67721
 O46 O 0.18066 0.71126 0.75283
 O47 O 0.24121 0.71145 0.82015
 O48 O 0.31622 0.78702 0.74457
 O49 O 0.24134 0.78704 0.82004
 O50 O 0.31610 0.71172 0.74466
 Cu51 Cu 0.21199 0.74910 0.70828
 Cu52 Cu 0.28477 0.74932 0.78921
 C53 C 0.29853 0.69899 0.69819
 C54 C 0.19854 0.79976 0.79902
 C55 C 0.29867 0.79962 0.69808
 C56 C 0.19835 0.69851 0.79919
 C57 C 1.02900 0.02906 0.02950
 C58 C 0.97280 0.02925 0.02892
 C59 C 0.94538 0.00004 -0.00018
 C60 C 0.97256 -0.02922 -0.02907
 C61 C 1.02877 -0.02912 -0.02920
 C62 C 1.05622 -0.00005 0.00025
 H63 H 1.09928 -0.00009 0.00042
 H64 H 0.90232 0.00008 -0.00035
 C65 C 0.52888 0.52909 0.52956
 C66 C 0.47267 0.52901 0.52925
 C67 C 0.44540 0.49980 0.50002
 C68 C 0.47272 0.47080 0.47073
 C69 C 0.52893 0.47117 0.47034
 C70 C 0.55624 0.50024 0.49993
 H71 H 0.59930 0.50041 0.49990
 H72 H 0.40233 0.49963 0.50005
 C73 C -0.02744 0.47078 0.02908
 C74 C 0.02877 0.47088 0.02921
 C75 C 0.05622 0.49995 -0.00024
 C76 C 0.02900 0.52906 -0.02949
 C77 C -0.02720 0.52925 -0.02891
 C78 C -0.05462 0.50004 0.00019
 H79 H -0.09768 0.50008 0.00036
 H80 H 0.09928 0.49991 -0.00041
 C81 C 0.47272 0.97080 0.52928
 C82 C 0.52893 0.97117 0.52967
 C83 C 0.55624 1.00024 0.50008
 C84 C 0.52888 1.02909 0.47045
 C85 C 0.47267 1.02901 0.47076
 C86 C 0.44540 0.99980 0.49999
 H87 H 0.40233 0.99963 0.49996
 H88 H 0.59930 1.00041 0.50011
 C89 C 1.11782 0.11573 0.11898
 C90 C 1.08027 0.09300 0.14742
 C91 C 1.05176 0.06442 0.11854
 C92 C 1.17096 0.17044 0.17316
 C93 C 1.09852 0.08101 0.03270
 C94 C 1.12705 0.10955 0.06164
 C95 C 1.14673 0.14547 0.14853
 C96 C 1.06025 0.05850 0.06079
 H97 H 1.07296 0.09743 0.19184
 H98 H 1.02293 0.04702 0.14113
 H99 H 1.10565 0.07688 -0.01180
 H100 H 1.15606 0.12693 0.03925
 C101 C 0.61740 0.61577 0.61934
 C102 C 0.58015 0.59278 0.64777
 C103 C 0.55172 0.56421 0.61878
 C104 C 0.67046 0.67044 0.67368
 C105 C 0.59797 0.58134 0.53285
 C106 C 0.62642 0.60987 0.56190
 C107 C 0.64625 0.64549 0.64899
 C108 C 0.56001 0.55855 0.56094
 H109 H 0.57301 0.59700 0.69226
 H110 H 0.52312 0.54660 0.64136
 H111 H 0.60494 0.57742 0.48828
 H112 H 0.65521 0.62746 0.53951
 C113 C -0.11785 0.38284 0.11394
 C114 C -0.08044 0.37239 0.07318
 C115 C -0.05121 0.40098 0.04514
 C116 C -0.17245 0.32886 0.16794
 C117 C -0.09690 0.45060 0.09840
 C118 C -0.12613 0.42200 0.12636
 C119 C -0.14760 0.35344 0.14321
 C120 C -0.05888 0.44031 0.05793
 H121 H -0.07385 0.34218 0.06313
 H122 H -0.02260 0.39248 0.01352
 H123 H -0.10340 0.48076 0.10882
 H124 H -0.15501 0.43039 0.15779
 C125 C 0.38264 0.88282 0.61445
 C126 C 0.37400 0.92199 0.62650
 C127 C 0.40315 0.95061 0.59846
 C128 C 0.32810 0.82885 0.66850
 C129 C 0.44948 0.90097 0.54586
 C130 C 0.42034 0.87237 0.57399
 C131 C 0.35294 0.85342 0.64376
 C132 C 0.44143 0.94031 0.55827
 H133 H 0.34490 0.93039 0.65770
 H134 H 0.39635 0.98078 0.60857
 H135 H 0.47830 0.89246 0.51446
 H136 H 0.42721 0.84214 0.56422
 C137 C -0.11692 0.61731 -0.11309
 C138 C -0.07907 0.62772 -0.07264
 C139 C -0.05006 0.59909 -0.04482
 C140 C -0.17118 0.67132 -0.16669
 C141 C -0.09685 0.54953 -0.09770
 C142 C -0.12586 0.57817 -0.12543
 C143 C -0.14647 0.64675 -0.14213
 C144 C -0.05839 0.55977 -0.05753
 H145 H -0.07197 0.65792 -0.06265
 H146 H -0.02110 0.60755 -0.01343
 H147 H -0.10386 0.51938 -0.10805
 H148 H -0.15509 0.56981 -0.15663
 C149 C 0.38247 1.11631 0.38547
 C150 C 0.42008 1.12705 0.42600
 C151 C 0.44925 1.09867 0.45416
 C152 C 0.32791 1.16991 0.33137
 C153 C 0.40312 1.04868 0.40148
 C154 C 0.37395 1.07708 0.37340
 C155 C 0.35274 1.14550 0.35612
 C156 C 0.44133 1.05927 0.44173
 H157 H 0.42686 1.15732 0.43579
 H158 H 0.47801 1.10740 0.48561
 H159 H 0.39643 1.01846 0.39134
 H160 H 0.34491 1.06846 0.34215
 C161 C 1.11694 -0.11590 -0.11803
 C162 C 1.07992 -0.09312 -0.14675
 C163 C 1.05161 -0.06451 -0.11807
 C164 C 1.16974 -0.17061 -0.17187
 C165 C 1.09754 -0.08118 -0.03188
 C166 C 1.12586 -0.10976 -0.06061
 C167 C 1.14566 -0.14565 -0.14738
 C168 C 1.05980 -0.05860 -0.06025
 H169 H 1.07286 -0.09752 -0.19122
 H170 H 1.02320 -0.04706 -0.14088
 H171 H 1.10442 -0.07707 0.01268
 H172 H 1.15447 -0.12718 -0.03801
 C173 C 0.61758 0.38516 0.38047
 C174 C 0.62666 0.39115 0.43789
 C175 C 0.59818 0.41946 0.46697
 C176 C 0.67063 0.33082 0.32613
 C177 C 0.55176 0.43622 0.38109
 C178 C 0.58023 0.40786 0.35208
 C179 C 0.64644 0.35563 0.35080
 C180 C 0.56011 0.44195 0.43893
 H181 H 0.65552 0.37378 0.46025
 H182 H 0.60519 0.42345 0.51152
 H183 H 0.52309 0.45360 0.35855
 H184 H 0.57304 0.40357 0.30760
 C185 C 0.88215 -0.11716 -0.11393
 C186 C 0.91956 -0.12761 -0.07317
 C187 C 0.94879 -0.09902 -0.04513
 C188 C 0.82755 -0.17114 -0.16793
 C189 C 0.90310 -0.04940 -0.09839
 C190 C 0.87387 -0.07800 -0.12635
 C191 C 0.85240 -0.14656 -0.14320
 C192 C 0.94112 -0.05969 -0.05792
 H193 H 0.92615 -0.15782 -0.06312
 H194 H 0.97740 -0.10752 -0.01351
 H195 H 0.89660 -0.01924 -0.10881
 H196 H 0.84499 -0.06961 -0.15778
 C197 C 0.38264 0.38282 0.38556
 C198 C 0.42034 0.37237 0.42602
 C199 C 0.44948 0.40097 0.45415
 C200 C 0.32810 0.32885 0.33151
 C201 C 0.40315 0.45061 0.40155
 C202 C 0.37400 0.42199 0.37351
 C203 C 0.35294 0.35342 0.35625
 C204 C 0.44143 0.44031 0.44174
 H205 H 0.42721 0.34214 0.43579
 H206 H 0.47830 0.39246 0.48555
 H207 H 0.39635 0.48078 0.39144
 H208 H 0.34490 0.43039 0.34231
 C209 C 0.11782 0.61573 -0.11897
 C210 C 0.08027 0.59300 -0.14741
 C211 C 0.05176 0.56442 -0.11853
 C212 C 0.17096 0.67044 -0.17315
 C213 C 0.09852 0.58101 -0.03269
 C214 C 0.12705 0.60955 -0.06163
 C215 C 0.14673 0.64547 -0.14852
 C216 C 0.06025 0.55850 -0.06078
 H217 H 0.07296 0.59743 -0.19183
 H218 H 0.02293 0.54702 -0.14112
 H219 H 0.10565 0.57688 0.01181
 H220 H 0.15606 0.62693 -0.03924
 C221 C 0.61740 1.11577 0.38067
 C222 C 0.62642 1.10987 0.43811
 C223 C 0.59797 1.08134 0.46716
 C224 C 0.67046 1.17044 0.32633
 C225 C 0.55172 1.06421 0.38123
 C226 C 0.58015 1.09278 0.35224
 C227 C 0.64625 1.14549 0.35102
 C228 C 0.56001 1.05855 0.43907
 H229 H 0.65521 1.12746 0.46050
 H230 H 0.60494 1.07742 0.51173
 H231 H 0.52312 1.04660 0.35865
 H232 H 0.57301 1.09700 0.30775
 C233 C 0.11694 0.38410 0.11804
 C234 C 0.07992 0.40688 0.14676
 C235 C 0.05161 0.43549 0.11808
 C236 C 0.16974 0.32939 0.17188
 C237 C 0.09754 0.41882 0.03189
 C238 C 0.12586 0.39024 0.06062
 C239 C 0.14566 0.35435 0.14739
 C240 C 0.05980 0.44140 0.06026
 H241 H 0.07286 0.40248 0.19123
 H242 H 0.02320 0.45294 0.14089
 H243 H 0.10442 0.42293 -0.01267
 H244 H 0.15447 0.37282 0.03802
 C245 C 0.61758 0.88516 0.61954
 C246 C 0.58023 0.90786 0.64793
 C247 C 0.55176 0.93622 0.61892
 C248 C 0.67063 0.83082 0.67388
 C249 C 0.59818 0.91946 0.53304
 C250 C 0.62666 0.89115 0.56212
 C251 C 0.64644 0.85563 0.64921
 C252 C 0.56011 0.94195 0.56108
 H253 H 0.57304 0.90357 0.69241
 H254 H 0.52309 0.95360 0.64146
 H255 H 0.60519 0.92345 0.48849
 H256 H 0.65552 0.87378 0.53976
 C257 C 0.88308 0.11731 0.11310
 C258 C 0.92093 0.12772 0.07265
 C259 C 0.94994 0.09909 0.04483
 C260 C 0.82882 0.17132 0.16670
 C261 C 0.90315 0.04953 0.09771
 C262 C 0.87414 0.07817 0.12544
 C263 C 0.85353 0.14675 0.14214
 C264 C 0.94161 0.05977 0.05754
 H265 H 0.92803 0.15792 0.06266
 H266 H 0.97890 0.10755 0.01344
 H267 H 0.89614 0.01938 0.10806
 H268 H 0.84491 0.06981 0.15664
 C269 C 0.38247 0.61631 0.61454
 C270 C 0.42008 0.62705 0.57401
 C271 C 0.44925 0.59867 0.54585
 C272 C 0.32791 0.66991 0.66864
 C273 C 0.40312 0.54868 0.59853
 C274 C 0.37395 0.57708 0.62661
 C275 C 0.35274 0.64550 0.64389
 C276 C 0.44133 0.55927 0.55828
 H277 H 0.42686 0.65732 0.56422
 H278 H 0.47801 0.60740 0.51440
 H279 H 0.39643 0.51846 0.60867
 H280 H 0.34491 0.56846 0.65786
   
