data_POSCAR
  _audit_creation_date              2014-09-24
  _audit_creation_method            'ToBaCCo'
  _symmetry_space_group_name_H-M    'P1'
  _symmetry_Int_Tables_number       1
  _symmetry_cell_setting            triclinic
  loop_
  _symmetry_equiv_pos_as_xyz
 x,y,z
_cell_length_a 45.7456
_cell_length_b 45.1304
_cell_length_c 35.5683
_cell_angle_alpha 89.907600
_cell_angle_beta 90.051700
_cell_angle_gamma 90.089600
loop_
  _atom_site_label
  _atom_site_type_symbol
  _atom_site_fract_x
  _atom_site_fract_y
  _atom_site_fract_z
C1 C 1.27531 0.21821 0.26688
 C2 C 1.25185 0.23387 0.25096
 C3 C 1.22896 0.21823 0.23362
 C4 C 1.22975 0.18721 0.23178
 C5 C 1.25308 0.17172 0.24806
 C6 C 1.27581 0.18718 0.26578
 C7 C 1.25183 0.26657 0.25161
 C8 C 1.27498 0.28227 0.23499
 C9 C 1.27531 0.31329 0.23551
 C10 C 1.25272 0.32876 0.25341
 C11 C 1.22968 0.31324 0.27040
 C12 C 1.22906 0.28218 0.26911
 H13 H 1.29295 0.23023 0.28045
 H14 H 1.21097 0.23021 0.22086
 H15 H 1.29248 0.27026 0.22121
 H16 H 1.21126 0.27016 0.28230
 H17 H 1.25353 0.14770 0.24684
 H18 H 1.25302 0.35279 0.25414
 C19 C 0.77239 -0.28241 0.26910
 C20 C 0.74955 -0.26675 0.25168
 C21 C 0.72629 -0.28239 0.23528
 C22 C 0.72589 -0.31338 0.23594
 C23 C 0.74850 -0.32893 0.25371
 C24 C 0.77169 -0.31349 0.27052
 C25 C 0.74957 -0.23405 0.25094
 C26 C 0.77254 -0.21840 0.23378
 C27 C 0.77174 -0.18737 0.23184
 C28 C 0.74833 -0.17191 0.24783
 C29 C 0.72555 -0.18740 0.26535
 C30 C 0.72604 -0.21839 0.26657
 H31 H 0.79025 -0.27037 0.28213
 H32 H 0.70873 -0.27041 0.22154
 H33 H 0.79058 -0.23037 0.22121
 H34 H 0.70832 -0.23034 0.28004
 H35 H 0.74798 -0.35296 0.25444
 H36 H 0.74781 -0.14790 0.24658
 C37 C 0.77269 0.21864 -0.23258
 C38 C 0.74974 0.23413 -0.24997
 C39 C 0.72624 0.21833 -0.26558
 C40 C 0.72573 0.18734 -0.26410
 C41 C 0.74848 0.17201 -0.24635
 C42 C 0.77188 0.18762 -0.23038
 C43 C 0.74975 0.26682 -0.25104
 C44 C 0.77253 0.28242 -0.26869
 C45 C 0.77182 0.31349 -0.27049
 C46 C 0.74866 0.32897 -0.25383
 C47 C 0.72611 0.31348 -0.23583
 C48 C 0.72652 0.28250 -0.23479
 H49 H 0.79073 0.23073 -0.22005
 H50 H 0.70854 0.23016 -0.27923
 H51 H 0.79037 0.27035 -0.28160
 H52 H 0.70898 0.27056 -0.22090
 H53 H 0.74795 0.14801 -0.24492
 H54 H 0.74813 0.35300 -0.25485
 C55 C 1.27438 -0.28192 -0.23346
 C56 C 1.25107 -0.26621 -0.24961
 C57 C 1.22820 -0.28178 -0.26708
 C58 C 1.22889 -0.31281 -0.26881
 C59 C 1.25209 -0.32835 -0.25231
 C60 C 1.27477 -0.31292 -0.23446
 C61 C 1.25110 -0.23354 -0.24865
 C62 C 1.27471 -0.21777 -0.26404
 C63 C 1.27524 -0.18679 -0.26265
 C64 C 1.25242 -0.17143 -0.24525
 C65 C 1.22892 -0.18702 -0.22952
 C66 C 1.22807 -0.21803 -0.23159
 H67 H 1.29196 -0.26994 -0.21970
 H68 H 1.21029 -0.26976 -0.27996
 H69 H 1.29247 -0.22961 -0.27746
 H70 H 1.20995 -0.23009 -0.21922
 H71 H 1.25246 -0.35238 -0.25342
 H72 H 1.25297 -0.14743 -0.24391
 C73 C 0.21986 0.27347 0.73571
 C74 C 0.23456 0.24942 0.75217
 C75 C 0.21840 0.22602 0.76785
 C76 C 0.18780 0.22674 0.76745
 C77 C 0.17323 0.25062 0.75061
 C78 C 0.18924 0.27392 0.73456
 C79 C 0.26679 0.24858 0.75303
 C80 C 0.28265 0.27151 0.77026
 C81 C 0.31324 0.27018 0.77200
 C82 C 0.32804 0.24626 0.75579
 C83 C 0.31234 0.22353 0.73824
 C84 C 0.28178 0.22451 0.73718
 H85 H 0.23224 0.29148 0.72323
 H86 H 0.22972 0.20757 0.78092
 H87 H 0.27113 0.28997 0.78290
 H88 H 0.26967 0.20686 0.72356
 H89 H 0.14952 0.25113 0.74996
 H90 H 0.35174 0.24532 0.75676
 C91 C 0.71764 0.77534 0.73609
 C92 C 0.73260 0.75124 0.75204
 C93 C 0.71672 0.72832 0.76932
 C94 C 0.68614 0.72970 0.77106
 C95 C 0.67134 0.75365 0.75477
 C96 C 0.68705 0.77639 0.73712
 C97 C 0.76483 0.75034 0.75122
 C98 C 0.78103 0.77365 0.76699
 C99 C 0.81160 0.77290 0.76663
 C100 C 0.82615 0.74909 0.74977
 C101 C 0.81012 0.72588 0.73361
 C102 C 0.77950 0.72634 0.73472
 H103 H 0.72985 0.79296 0.72245
 H104 H 0.72822 0.70984 0.78204
 H105 H 0.76981 0.79209 0.78011
 H106 H 0.76710 0.70840 0.72217
 H107 H 0.64763 0.75457 0.75579
 H108 H 0.84985 0.74864 0.74921
 C109 C 0.71753 0.27132 0.22937
 C110 C 0.73338 0.24839 0.24659
 C111 C 0.71840 0.22411 0.26211
 C112 C 0.68785 0.22291 0.26069
 C113 C 0.67218 0.24564 0.24314
 C114 C 0.68700 0.26975 0.22732
 C115 C 0.76558 0.24947 0.24779
 C116 C 0.78010 0.27367 0.26417
 C117 C 0.81070 0.27430 0.26560
 C118 C 0.82687 0.25105 0.24993
 C119 C 0.81245 0.22706 0.23321
 C120 C 0.78190 0.22614 0.23249
 H121 H 0.72897 0.28998 0.21695
 H122 H 0.73049 0.20646 0.27577
 H123 H 0.76760 0.29163 0.27637
 H124 H 0.77080 0.20755 0.21944
 H125 H 0.64851 0.24460 0.24187
 H126 H 0.85056 0.25163 0.25075
 C127 C 0.21765 0.77352 0.23273
 C128 C 0.23383 0.75022 0.24848
 C129 C 0.21917 0.72620 0.26515
 C130 C 0.18853 0.72571 0.26645
 C131 C 0.17249 0.74894 0.25029
 C132 C 0.18706 0.77277 0.23325
 C133 C 0.26604 0.75113 0.24747
 C134 C 0.28111 0.77522 0.26327
 C135 C 0.31167 0.77630 0.26198
 C136 C 0.32726 0.75364 0.24426
 C137 C 0.31235 0.72973 0.22814
 C138 C 0.28180 0.72828 0.23008
 H139 H 0.22895 0.79195 0.21951
 H140 H 0.23164 0.70829 0.27766
 H141 H 0.26908 0.79283 0.27701
 H142 H 0.27028 0.70979 0.21744
 H143 H 0.14877 0.74847 0.25098
 H144 H 0.35093 0.75460 0.24306
 N145 N 1.03176 0.03172 0.06712
 N146 N 1.05198 0.03736 0.09268
 N147 N 0.97034 0.05252 0.04119
 N148 N 0.95168 0.07379 0.04944
 N149 N 0.97035 0.03208 0.06753
 N150 N 0.95169 0.03898 0.09446
 N151 N 1.03174 0.05230 0.04095
 N152 N 1.05194 0.07249 0.04797
 C153 C 1.06453 0.06262 0.08002
 C154 C 0.93989 0.06472 0.08229
 N155 N 0.96969 0.03217 -0.06607
 N156 N 0.94945 0.03795 -0.09154
 N157 N 1.03131 0.05251 -0.04012
 N158 N 1.04999 0.07382 -0.04849
 N159 N 1.03111 0.03218 -0.06652
 N160 N 1.04964 0.03921 -0.09360
 N161 N 0.96991 0.05265 -0.03986
 N162 N 0.94983 0.07293 -0.04677
 Mn163 Mn 1.00083 0.05273 0.00054
 C164 C 0.93712 0.06322 -0.07880
 C165 C 1.06160 0.06490 -0.08146
 N166 N 0.96988 -0.03192 0.06738
 N167 N 0.94978 -0.03758 0.09305
 N168 N 1.03109 -0.05267 0.04083
 N169 N 1.04959 -0.07412 0.04904
 N170 N 1.03130 -0.03231 0.06720
 N171 N 1.04995 -0.03947 0.09411
 N172 N 0.96969 -0.05239 0.04115
 N173 N 0.94946 -0.07253 0.04826
 Mn174 Mn 1.00083 -0.00011 0.06766
 C175 C 0.93709 -0.06275 0.08042
 C176 C 1.06154 -0.06525 0.08188
 N177 N 1.03093 -0.03186 -0.06639
 N178 N 1.05107 -0.03748 -0.09197
 N179 N 0.96951 -0.05231 -0.03991
 N180 N 0.95082 -0.07362 -0.04818
 N181 N 0.96952 -0.03187 -0.06628
 N182 N 0.95083 -0.03884 -0.09323
 N183 N 1.03090 -0.05243 -0.04021
 N184 N 1.05101 -0.07261 -0.04723
 Mn185 Mn 1.00031 0.00015 -0.06666
 Mn186 Mn 1.00029 -0.05268 0.00046
 Cl187 Cl 1.00057 0.00002 0.00050
 C188 C 1.06354 -0.06275 -0.07931
 C189 C 0.93899 -0.06459 -0.08104
 N190 N 0.96900 0.46812 0.56644
 N191 N 0.94875 0.46236 0.59188
 N192 N 1.03055 0.44769 0.54058
 N193 N 1.04947 0.42658 0.54871
 N194 N 1.03046 0.46805 0.56695
 N195 N 1.04933 0.46125 0.59377
 N196 N 0.96911 0.44763 0.54024
 N197 N 0.94894 0.42738 0.54713
 C198 C 0.93628 0.43710 0.57914
 C199 C 1.06133 0.43565 0.58153
 N200 N 1.03101 0.46844 0.43328
 N201 N 1.05128 0.46282 0.40784
 N202 N 0.96947 0.44775 0.45915
 N203 N 0.95041 0.42671 0.45113
 N204 N 0.96955 0.46820 0.43281
 N205 N 0.95054 0.46155 0.40612
 N206 N 1.03091 0.44786 0.45948
 N207 N 1.05109 0.42771 0.45257
 Mn208 Mn 1.00001 0.44750 0.49986
 C209 C 1.06376 0.43756 0.42057
 C210 C 0.93847 0.43593 0.41841
 N211 N 1.03053 0.53211 0.56684
 N212 N 1.05070 0.53773 0.59246
 N213 N 0.96916 0.55264 0.54024
 N214 N 0.95024 0.57376 0.54820
 N215 N 0.96908 0.53219 0.56659
 N216 N 0.95009 0.53895 0.59322
 N217 N 1.03058 0.55268 0.54065
 N218 N 1.05078 0.57285 0.54772
 Mn219 Mn 0.99977 0.50012 0.56706
 C220 C 1.06327 0.56299 0.57984
 C221 C 0.93819 0.56461 0.58087
 N222 N 0.96942 0.53224 0.43291
 N223 N 0.94925 0.53787 0.40729
 N224 N 1.03077 0.55288 0.45956
 N225 N 1.04969 0.57409 0.45163
 N226 N 1.03088 0.53251 0.43321
 N227 N 1.04988 0.53940 0.40660
 N228 N 0.96934 0.55272 0.45913
 N229 N 0.94912 0.57282 0.45207
 Mn230 Mn 1.00022 0.50034 0.43270
 Mn231 Mn 0.99996 0.55296 0.49990
 Cl232 Cl 0.99999 0.50023 0.49988
 C233 C 0.93664 0.56304 0.41993
 C234 C 1.06177 0.56506 0.41897
 N235 N 0.53192 0.05246 0.53959
 N236 N 0.53869 0.07348 0.56393
 N237 N 0.55192 0.03181 0.46070
 N238 N 0.57244 0.03813 0.43585
 N239 N 0.53158 0.05234 0.46061
 N240 N 0.53770 0.07314 0.43572
 N241 N 0.55200 0.03166 0.53965
 N242 N 0.57286 0.03794 0.56400
 C243 C 0.56395 0.06373 0.57936
 C244 C 0.56290 0.06363 0.42012
 N245 N 0.53167 -0.05277 0.46083
 N246 N 0.53836 -0.07384 0.43657
 N247 N 0.55191 -0.03221 0.53977
 N248 N 0.57266 -0.03881 0.56424
 N249 N 0.53149 -0.05271 0.53982
 N250 N 0.53776 -0.07376 0.56430
 N251 N 0.55184 -0.03201 0.46081
 N252 N 0.57269 -0.03834 0.43654
 Mn253 Mn 0.55215 -0.00018 0.50024
 C254 C 0.56368 -0.06414 0.42120
 C255 C 0.56315 -0.06445 0.57973
 N256 N 0.46848 0.05253 0.46065
 N257 N 0.46168 0.07368 0.43644
 N258 N 0.44841 0.03193 0.53965
 N259 N 0.42774 0.03847 0.56417
 N260 N 0.46883 0.05244 0.53963
 N261 N 0.46263 0.07343 0.56413
 N262 N 0.44832 0.03176 0.46069
 N263 N 0.42736 0.03818 0.43652
 Mn264 Mn 0.50021 0.05270 0.50012
 C265 C 0.43631 0.06402 0.42116
 C266 C 0.43729 0.06407 0.57962
 N267 N 0.46843 -0.05269 0.53980
 N268 N 0.46186 -0.07359 0.56446
 N269 N 0.44823 -0.03211 0.46082
 N270 N 0.42755 -0.03858 0.43622
 N271 N 0.46858 -0.05262 0.46082
 N272 N 0.46230 -0.07356 0.43624
 N273 N 0.44835 -0.03191 0.53978
 N274 N 0.42766 -0.03806 0.56440
 Mn275 Mn 0.50003 -0.05296 0.50031
 Mn276 Mn 0.44809 -0.00009 0.50023
 Cl277 Cl 0.50012 -0.00013 0.50022
 C278 C 0.43670 -0.06376 0.57998
 C279 C 0.43700 -0.06415 0.42072
 N280 N 0.55127 0.53139 0.03963
 N281 N 0.57241 0.55016 0.04807
 N282 N 0.53104 0.46908 0.06590
 N283 N 0.53658 0.44853 0.09137
 N284 N 0.55129 0.46919 0.03972
 N285 N 0.57115 0.44873 0.04662
 N286 N 0.53116 0.53129 0.06598
 N287 N 0.53818 0.55000 0.09309
 C288 C 0.56362 0.56197 0.08101
 C289 C 0.56144 0.43591 0.07862
 N290 N 0.44780 0.46884 0.03960
 N291 N 0.42666 0.45006 0.04804
 N292 N 0.46801 0.53117 0.06566
 N293 N 0.46239 0.55164 0.09111
 N294 N 0.44779 0.53105 0.03941
 N295 N 0.42786 0.55144 0.04625
 N296 N 0.46790 0.46894 0.06602
 N297 N 0.46086 0.45022 0.09318
 Mn298 Mn 0.49953 0.50012 0.06624
 C299 C 0.43543 0.43825 0.08107
 C300 C 0.43750 0.56423 0.07827
 N301 N 0.55147 0.46924 -0.04125
 N302 N 0.57265 0.45056 -0.04953
 N303 N 0.53102 0.53138 -0.06765
 N304 N 0.53660 0.55185 -0.09324
 N305 N 0.55123 0.53146 -0.04138
 N306 N 0.57110 0.55196 -0.04834
 N307 N 0.53137 0.46915 -0.06767
 N308 N 0.53844 0.45040 -0.09467
 Mn309 Mn 0.55154 0.50032 -0.00082
 C310 C 0.56390 0.43860 -0.08245
 C311 C 0.56144 0.56463 -0.08047
 N312 N 0.44778 0.53094 -0.04156
 N313 N 0.42673 0.54980 -0.04986
 N314 N 0.46822 0.46878 -0.06759
 N315 N 0.46269 0.44827 -0.09307
 N316 N 0.44798 0.46874 -0.04141
 N317 N 0.42813 0.44820 -0.04832
 N318 N 0.46790 0.53101 -0.06790
 N319 N 0.46099 0.54992 -0.09488
 Mn320 Mn 0.44761 0.49989 -0.00100
 Mn321 Mn 0.49962 0.50008 -0.06806
 Cl322 Cl 0.49958 0.50010 -0.00091
 C323 C 0.43560 0.56182 -0.08272
 C324 C 0.43784 0.43549 -0.08031
 C325 C 1.12919 0.11089 0.18090
 C326 C 1.16271 0.10655 0.17804
 C327 C 1.16648 0.14031 0.17505
 C328 C 1.13331 0.14492 0.17822
 C329 C 1.12715 0.10945 0.13781
 C330 C 1.13092 0.14321 0.13482
 C331 C 1.16032 0.10484 0.13464
 C332 C 1.16443 0.13886 0.13196
 C333 C 1.18860 0.15738 0.19563
 C334 C 1.20712 0.17116 0.21229
 C335 C 1.10512 0.09238 0.11706
 C336 C 1.08678 0.07861 0.10008
 H337 H 1.11447 0.09919 0.20081
 H338 H 1.17601 0.09165 0.19607
 H339 H 1.12244 0.16158 0.19635
 H340 H 1.11763 0.15811 0.11680
 H341 H 1.17120 0.08818 0.11651
 H342 H 1.17915 0.15057 0.11205
 C343 C 1.14949 0.62919 0.61895
 C344 C 1.14276 0.65393 0.64782
 C345 C 1.16551 0.64042 0.67459
 C346 C 1.17259 0.61594 0.64604
 C347 C 1.12604 0.60964 0.63750
 C348 C 1.14879 0.59614 0.66427
 C349 C 1.11896 0.63413 0.66605
 C350 C 1.14206 0.62088 0.69314
 C351 C 1.18769 0.65744 0.69509
 C352 C 1.20624 0.67119 0.71170
 C353 C 1.10395 0.59264 0.61683
 C354 C 1.08556 0.57891 0.59988
 H355 H 1.15233 0.63241 0.58823
 H356 H 1.14050 0.67788 0.64129
 H357 H 1.19489 0.60865 0.63803
 H358 H 1.15105 0.57219 0.67080
 H359 H 1.09665 0.64142 0.67406
 H360 H 1.13923 0.61766 0.72387
 C361 C 0.61345 0.13902 0.67044
 C362 C 0.63355 0.12585 0.70140
 C363 C 0.65984 0.14148 0.68318
 C364 C 0.64013 0.15493 0.65262
 C365 C 0.61972 0.11185 0.64578
 C366 C 0.64604 0.12752 0.62767
 C367 C 0.63942 0.09840 0.67635
 C368 C 0.66603 0.11431 0.65851
 C369 C 0.68281 0.15785 0.70300
 C370 C 0.70219 0.17128 0.71841
 C371 C 0.59835 0.09507 0.62368
 C372 C 0.58193 0.08094 0.60416
 H373 H 0.59159 0.14898 0.67511
 H374 H 0.62870 0.12535 0.73197
 H375 H 0.64070 0.17835 0.64306
 H376 H 0.65095 0.12805 0.59712
 H377 H 0.63887 0.07498 0.68589
 H378 H 0.68788 0.10432 0.65379
 C379 C 0.64145 0.59838 0.17141
 C380 C 0.66666 0.61645 0.15357
 C381 C 0.66031 0.64179 0.18115
 C382 C 0.63541 0.62396 0.19933
 C383 C 0.62005 0.61263 0.14340
 C384 C 0.61363 0.63796 0.17097
 C385 C 0.64498 0.63047 0.12528
 C386 C 0.63893 0.65607 0.15315
 C387 C 0.68328 0.65776 0.20150
 C388 C 0.70257 0.67084 0.21756
 C389 C 0.59853 0.59567 0.12177
 C390 C 0.58192 0.58083 0.10341
 H391 H 0.64224 0.57447 0.17870
 H392 H 0.68869 0.60776 0.14663
 H393 H 0.63176 0.62144 0.23002
 H394 H 0.59159 0.64662 0.17786
 H395 H 0.64867 0.63300 0.09459
 H396 H 0.63818 0.67998 0.14588
 C397 C 0.85072 -0.12868 0.11976
 C398 C 0.85752 -0.15381 0.14817
 C399 C 0.83513 -0.14043 0.17544
 C400 C 0.82799 -0.11556 0.14734
 C401 C 0.87450 -0.10954 0.13827
 C402 C 0.85211 -0.09616 0.16554
 C403 C 0.88165 -0.13441 0.16637
 C404 C 0.85891 -0.12129 0.19396
 C405 C 0.81298 -0.15751 0.19593
 C406 C 0.79443 -0.17131 0.21249
 C407 C 0.89653 -0.09248 0.11754
 C408 C 0.91487 -0.07871 0.10054
 H409 H 0.84757 -0.13152 0.08903
 H410 H 0.85953 -0.17770 0.14126
 H411 H 0.80567 -0.10799 0.13973
 H412 H 0.85010 -0.07227 0.17245
 H413 H 0.90396 -0.14198 0.17398
 H414 H 0.86205 -0.11846 0.22469
 C415 C 0.87452 0.38402 0.67903
 C416 C 0.84165 0.39197 0.68175
 C417 C 0.83393 0.35944 0.67368
 C418 C 0.86645 0.35123 0.67127
 C419 C 0.87343 0.39022 0.63655
 C420 C 0.86570 0.35769 0.62848
 C421 C 0.84090 0.39842 0.63896
 C422 C 0.83284 0.36564 0.63120
 C423 C 0.81174 0.34243 0.69424
 C424 C 0.79319 0.32868 0.71094
 C425 C 0.89555 0.40726 0.61589
 C426 C 0.91396 0.42105 0.59903
 H427 H 0.89189 0.39178 0.69850
 H428 H 0.83154 0.40589 0.70390
 H429 H 0.87673 0.33165 0.68477
 H430 H 0.87582 0.34377 0.60633
 H431 H 0.83062 0.41800 0.62546
 H432 H 0.81547 0.35788 0.61173
 C433 C 0.35462 -0.12671 0.62931
 C434 C 0.36045 -0.15446 0.65378
 C435 C 0.34126 -0.14109 0.68483
 C436 C 0.33515 -0.11357 0.66063
 C437 C 0.38133 -0.11159 0.64721
 C438 C 0.36215 -0.09821 0.67826
 C439 C 0.38752 -0.13911 0.67139
 C440 C 0.36795 -0.12600 0.70284
 C441 C 0.31828 -0.15739 0.70467
 C442 C 0.29886 -0.17077 0.72001
 C443 C 0.40261 -0.09490 0.62490
 C444 C 0.41891 -0.08085 0.60513
 H445 H 0.34937 -0.12684 0.59883
 H446 H 0.35948 -0.17777 0.64392
 H447 H 0.31338 -0.10325 0.65640
 H448 H 0.36311 -0.07490 0.68810
 H449 H 0.40931 -0.14940 0.67556
 H450 H 0.37313 -0.12591 0.73334
 C451 C 0.37829 0.38475 0.18654
 C452 C 0.34501 0.39109 0.18542
 C453 C 0.33921 0.35773 0.18130
 C454 C 0.37213 0.35108 0.18276
 C455 C 0.37921 0.38722 0.14347
 C456 C 0.37341 0.35385 0.13932
 C457 C 0.34627 0.39381 0.14207
 C458 C 0.34016 0.36022 0.13824
 C459 C 0.31639 0.34156 0.20174
 C460 C 0.29723 0.32834 0.21791
 C461 C 0.40061 0.40435 0.12180
 C462 C 0.41716 0.41931 0.10345
 H463 H 0.39423 0.39500 0.20616
 H464 H 0.33309 0.40624 0.20457
 H465 H 0.38249 0.33331 0.19976
 H466 H 0.38534 0.33872 0.12015
 H467 H 0.33584 0.41155 0.12510
 H468 H 0.32422 0.34999 0.11858
 C469 C 0.87770 0.11994 -0.17758
 C470 C 0.84577 0.10996 -0.18486
 C471 C 0.83522 0.14101 -0.17359
 C472 C 0.86680 0.15126 -0.16662
 C473 C 0.87457 0.11020 -0.13635
 C474 C 0.86401 0.14125 -0.12508
 C475 C 0.84298 0.09996 -0.14332
 C476 C 0.83209 0.13127 -0.13237
 C477 C 0.81309 0.15801 -0.19418
 C478 C 0.79455 0.17171 -0.21086
 C479 C 0.89658 0.09313 -0.11564
 C480 C 0.91490 0.07931 -0.09872
 H481 H 0.89669 0.11508 -0.19595
 H482 H 0.83805 0.09729 -0.20969
 H483 H 0.87636 0.17253 -0.17643
 H484 H 0.87174 0.15393 -0.10026
 H485 H 0.83342 0.07869 -0.13352
 H486 H 0.81310 0.13612 -0.11399
 C487 C 0.87711 0.62067 0.32185
 C488 C 0.84558 0.61003 0.31329
 C489 C 0.83400 0.64043 0.32571
 C490 C 0.86518 0.65132 0.33397
 C491 C 0.87364 0.60964 0.36251
 C492 C 0.86206 0.64004 0.37493
 C493 C 0.84246 0.59875 0.35426
 C494 C 0.83054 0.62940 0.36637
 C495 C 0.81173 0.65747 0.30537
 C496 C 0.79312 0.67126 0.28887
 C497 C 0.89584 0.59264 0.38306
 C498 C 0.91429 0.57893 0.39993
 H499 H 0.89649 0.61689 0.30374
 H500 H 0.83858 0.59788 0.28770
 H501 H 0.87430 0.67312 0.32540
 H502 H 0.86905 0.65220 0.40052
 H503 H 0.83333 0.57695 0.36282
 H504 H 0.81115 0.63318 0.38448
 C505 C 0.38114 0.11806 0.31259
 C506 C 0.34827 0.10974 0.31046
 C507 C 0.34035 0.14227 0.31792
 C508 C 0.37284 0.15090 0.31970
 C509 C 0.38044 0.11251 0.35521
 C510 C 0.37251 0.14505 0.36266
 C511 C 0.34794 0.10394 0.35337
 C512 C 0.33972 0.13668 0.36053
 C513 C 0.31741 0.15868 0.29809
 C514 C 0.29805 0.17208 0.28259
 C515 C 0.40182 0.09562 0.37719
 C516 C 0.41826 0.08138 0.39655
 H517 H 0.39843 0.11023 0.29313
 H518 H 0.33804 0.09539 0.28879
 H519 H 0.38280 0.17042 0.30562
 H520 H 0.38272 0.15940 0.38434
 H521 H 0.33792 0.08444 0.36743
 H522 H 0.32246 0.14448 0.38005
 C523 C 0.38047 0.61942 -0.18690
 C524 C 0.34783 0.61046 -0.18982
 C525 C 0.33919 0.64268 -0.18163
 C526 C 0.37147 0.65195 -0.17905
 C527 C 0.37945 0.61316 -0.14445
 C528 C 0.37082 0.64538 -0.13625
 C529 C 0.34716 0.60395 -0.14709
 C530 C 0.33822 0.63639 -0.13920
 C531 C 0.31621 0.65882 -0.20163
 C532 C 0.29688 0.67204 -0.21738
 C533 C 0.40092 0.59597 -0.12309
 C534 C 0.41744 0.58092 -0.10492
 H535 H 0.39813 0.61227 -0.20625
 H536 H 0.33810 0.59628 -0.21204
 H537 H 0.38117 0.67189 -0.19247
 H538 H 0.38054 0.65955 -0.11401
 H539 H 0.33739 0.58403 -0.13371
 H540 H 0.32058 0.64351 -0.11981
 C541 C 1.12181 -0.12173 -0.17666
 C542 C 1.15284 -0.11060 -0.18702
 C543 C 1.16544 -0.14033 -0.17359
 C544 C 1.13476 -0.15173 -0.16354
 C545 C 1.12607 -0.10949 -0.13674
 C546 C 1.13867 -0.13922 -0.12331
 C547 C 1.15674 -0.09810 -0.14678
 C548 C 1.16969 -0.12808 -0.13367
 C549 C 1.18759 -0.15736 -0.19390
 C550 C 1.20618 -0.17109 -0.21033
 C551 C 1.10406 -0.09244 -0.11617
 C552 C 1.08574 -0.07869 -0.09929
 H553 H 1.10187 -0.11891 -0.19411
 H554 H 1.15889 -0.09904 -0.21347
 H555 H 1.12597 -0.17396 -0.17066
 H556 H 1.13262 -0.15078 -0.09686
 H557 H 1.16554 -0.07586 -0.13967
 H558 H 1.18962 -0.13090 -0.11621
 C559 C 1.11972 0.36719 0.33378
 C560 C 1.14368 0.38054 0.30803
 C561 C 1.16630 0.36011 0.32671
 C562 C 1.14269 0.34651 0.35216
 C563 C 1.12672 0.39089 0.36345
 C564 C 1.14935 0.37047 0.38213
 C565 C 1.15034 0.40450 0.33801
 C566 C 1.17330 0.38382 0.35638
 C567 C 1.18852 0.34308 0.30636
 C568 C 1.20707 0.32930 0.28983
 C569 C 1.10456 0.40791 0.38394
 C570 C 1.08611 0.42164 0.40071
 H571 H 1.09744 0.36052 0.32469
 H572 H 1.14156 0.38449 0.27733
 H573 H 1.13975 0.32248 0.35775
 H574 H 1.15147 0.36652 0.41282
 H575 H 1.15328 0.42852 0.33241
 H576 H 1.19558 0.39049 0.36547
 C577 C 0.62548 -0.10865 0.31289
 C578 C 0.65871 -0.10795 0.32145
 C579 C 0.65957 -0.14186 0.31792
 C580 C 0.62670 -0.14288 0.30900
 C581 C 0.61941 -0.11233 0.35512
 C582 C 0.62025 -0.14624 0.35161
 C583 C 0.65229 -0.11137 0.36394
 C584 C 0.65345 -0.14549 0.36013
 C585 C 0.68257 -0.15815 0.29819
 C586 C 0.70198 -0.17148 0.28283
 C587 C 0.59803 -0.09556 0.37710
 C588 C 0.58163 -0.08141 0.39651
 H589 H 0.61371 -0.09334 0.29371
 H590 H 0.67477 -0.09239 0.30886
 H591 H 0.61646 -0.15603 0.28616
 H592 H 0.60419 -0.16179 0.36422
 H593 H 0.66260 -0.09825 0.38676
 H594 H 0.66520 -0.16078 0.37937
 C595 C 0.62580 0.39090 -0.18671
 C596 C 0.65909 0.39243 -0.17892
 C597 C 0.66059 0.35850 -0.18161
 C598 C 0.62763 0.35667 -0.18974
 C599 C 0.62035 0.38779 -0.14426
 C600 C 0.62181 0.35386 -0.14692
 C601 C 0.65331 0.38957 -0.13621
 C602 C 0.65511 0.35542 -0.13917
 C603 C 0.68354 0.34245 -0.20175
 C604 C 0.70281 0.32931 -0.21764
 C605 C 0.59883 0.40483 -0.12284
 C606 C 0.58222 0.41972 -0.10465
 H607 H 0.61348 0.40565 -0.20602
 H608 H 0.67467 0.40811 -0.19228
 H609 H 0.61735 0.34296 -0.21202
 H610 H 0.60623 0.33820 -0.13353
 H611 H 0.66366 0.40327 -0.11395
 H612 H 0.66743 0.34068 -0.11983
 C613 C 1.13923 0.11501 -0.16820
 C614 C 1.12646 0.13594 -0.19869
 C615 C 1.14246 0.16210 -0.18021
 C616 C 1.15552 0.14156 -0.15008
 C617 C 1.11269 0.12161 -0.14316
 C618 C 1.12871 0.14779 -0.12476
 C619 C 1.09965 0.14216 -0.17330
 C620 C 1.11592 0.16863 -0.15516
 C621 C 1.15884 0.18520 -0.20010
 C622 C 1.17234 0.20459 -0.21570
 C623 C 1.09547 0.09997 -0.12185
 C624 C 1.08050 0.08327 -0.10369
 H625 H 1.14863 0.09271 -0.17329
 H626 H 1.12570 0.13136 -0.22932
 H627 H 1.17868 0.14160 -0.14076
 H628 H 1.12949 0.15242 -0.09413
 H629 H 1.07649 0.14215 -0.18263
 H630 H 1.10648 0.19091 -0.15002
 C631 C 1.14715 0.61788 0.34854
 C632 C 1.14050 0.62854 0.30792
 C633 C 1.14498 0.66073 0.32075
 C634 C 1.15192 0.65045 0.36099
 C635 C 1.11454 0.62087 0.35809
 C636 C 1.11907 0.65307 0.37084
 C637 C 1.10761 0.63115 0.31785
 C638 C 1.11238 0.66364 0.33035
 C639 C 1.16134 0.68365 0.30044
 C640 C 1.17430 0.70314 0.28423
 C641 C 1.09678 0.59961 0.37935
 C642 C 1.08129 0.58320 0.39724
 H643 H 1.16125 0.59882 0.35625
 H644 H 1.14950 0.61871 0.28179
 H645 H 1.17031 0.65865 0.37852
 H646 H 1.11009 0.66296 0.39695
 H647 H 1.08921 0.62297 0.30032
 H648 H 1.09823 0.68269 0.32267
 C649 C 0.64363 0.11369 0.34084
 C650 C 0.63609 0.12514 0.30083
 C651 C 0.64225 0.15691 0.31412
 C652 C 0.65007 0.14583 0.35370
 C653 C 0.61151 0.11786 0.35219
 C654 C 0.61773 0.14966 0.36536
 C655 C 0.60365 0.12893 0.31260
 C656 C 0.61014 0.16104 0.32550
 C657 C 0.65901 0.17953 0.29401
 C658 C 0.67240 0.19894 0.27840
 C659 C 0.59422 0.09717 0.37474
 C660 C 0.57990 0.08125 0.39472
 H661 H 0.65717 0.09395 0.34739
 H662 H 0.64387 0.11536 0.27404
 H663 H 0.66933 0.15303 0.37037
 H664 H 0.60999 0.15953 0.39212
 H665 H 0.58438 0.12172 0.29598
 H666 H 0.59657 0.18076 0.31899
 C667 C 0.63276 0.62026 -0.16558
 C668 C 0.62031 0.64366 -0.19318
 C669 C 0.63947 0.66734 -0.17429
 C670 C 0.65219 0.64429 -0.14702
 C671 C 0.60822 0.62777 -0.13773
 C672 C 0.62738 0.65145 -0.11885
 C673 C 0.59550 0.65082 -0.16500
 C674 C 0.61493 0.67485 -0.14644
 C675 C 0.65676 0.68956 -0.19445
 C676 C 0.67073 0.70820 -0.21079
 C677 C 0.59103 0.60561 -0.11730
 C678 C 0.57726 0.58711 -0.10047
 H679 H 0.63989 0.59755 -0.17322
 H680 H 0.61763 0.64070 -0.22396
 H681 H 0.67569 0.64185 -0.13987
 H682 H 0.63007 0.65442 -0.08807
 H683 H 0.57199 0.65326 -0.17214
 H684 H 0.60780 0.69755 -0.13880
 C685 C 0.86800 -0.14462 -0.12422
 C686 C 0.84416 -0.13800 -0.15403
 C687 C 0.85787 -0.16147 -0.17980
 C688 C 0.88144 -0.16839 -0.15029
 C689 C 0.88771 -0.12114 -0.14264
 C690 C 0.90138 -0.14463 -0.16843
 C691 C 0.86415 -0.11415 -0.17214
 C692 C 0.87757 -0.13802 -0.19827
 C693 C 0.84145 -0.18448 -0.19978
 C694 C 0.82795 -0.20378 -0.21549
 C695 C 0.90498 -0.09958 -0.12131
 C696 C 0.92000 -0.08293 -0.10319
 H697 H 0.86422 -0.14709 -0.09355
 H698 H 0.82044 -0.13555 -0.14833
 H699 H 0.88839 -0.19092 -0.14153
 H700 H 0.92511 -0.14711 -0.17414
 H701 H 0.85723 -0.09160 -0.18086
 H702 H 0.88133 -0.13558 -0.22895
 C703 C 0.85581 0.38668 0.33860
 C704 C 0.86648 0.36980 0.30322
 C705 C 0.85488 0.34079 0.32032
 C706 C 0.84392 0.35728 0.35533
 C707 C 0.88541 0.38059 0.35750
 C708 C 0.87379 0.35157 0.37453
 C709 C 0.89635 0.36408 0.32249
 C710 C 0.88449 0.33478 0.33925
 C711 C 0.83852 0.31785 0.30015
 C712 C 0.82560 0.29830 0.28411
 C713 C 0.90325 0.40175 0.37871
 C714 C 0.91883 0.41802 0.39662
 H715 H 0.84422 0.40828 0.33859
 H716 H 0.86329 0.37702 0.27366
 H717 H 0.82217 0.35421 0.36861
 H718 H 0.87696 0.34429 0.40408
 H719 H 0.91809 0.36711 0.30919
 H720 H 0.89613 0.31322 0.33932
 C721 C 0.36648 -0.14071 0.37128
 C722 C 0.34417 -0.13324 0.33992
 C723 C 0.35742 -0.15791 0.31564
 C724 C 0.37947 -0.16567 0.34672
 C725 C 0.38817 -0.11877 0.35352
 C726 C 0.40140 -0.14346 0.32924
 C727 C 0.36614 -0.11092 0.32246
 C728 C 0.37910 -0.13600 0.29780
 C729 C 0.34064 -0.18052 0.29555
 C730 C 0.32721 -0.19987 0.27987
 C731 C 0.40549 -0.09797 0.37588
 C732 C 0.41986 -0.08193 0.39563
 H733 H 0.36147 -0.14243 0.40175
 H734 H 0.32044 -0.12932 0.34409
 H735 H 0.38476 -0.18841 0.35649
 H736 H 0.42512 -0.14741 0.32507
 H737 H 0.36089 -0.08816 0.31276
 H738 H 0.38407 -0.13434 0.26732
 C739 C 0.37003 0.35027 -0.11848
 C740 C 0.34698 0.35732 -0.14913
 C741 C 0.35989 0.33261 -0.17365
 C742 C 0.38268 0.32521 -0.14330
 C743 C 0.39114 0.37224 -0.13729
 C744 C 0.40406 0.34754 -0.16180
 C745 C 0.36835 0.37965 -0.16764
 C746 C 0.38100 0.35458 -0.19247
 C747 C 0.34261 0.31036 -0.19369
 C748 C 0.32864 0.29170 -0.20994
 C749 C 0.40831 0.39444 -0.11697
 C750 C 0.42206 0.41298 -0.10022
 H751 H 0.36574 0.34873 -0.08782
 H752 H 0.32332 0.36109 -0.14418
 H753 H 0.38836 0.30257 -0.13353
 H754 H 0.42771 0.34376 -0.16676
 H755 H 0.36267 0.40229 -0.17741
 H756 H 0.38528 0.35611 -0.22313
 C757 C 1.10636 -0.13109 0.18447
 C758 C 1.10884 -0.16411 0.17311
 C759 C 1.14188 -0.16273 0.18065
 C760 C 1.13970 -0.13005 0.19235
 C761 C 1.11234 -0.12221 0.14346
 C762 C 1.14538 -0.12079 0.15097
 C763 C 1.11457 -0.15491 0.13184
 C764 C 1.14784 -0.15384 0.13965
 C765 C 1.15816 -0.18581 0.20063
 C766 C 1.17161 -0.20516 0.21631
 C767 C 1.09525 -0.10053 0.12211
 C768 C 1.08037 -0.08376 0.10399
 H769 H 1.08913 -0.12145 0.20267
 H770 H 1.09400 -0.18216 0.18242
 H771 H 1.15021 -0.12011 0.21750
 H772 H 1.16021 -0.10273 0.14163
 H773 H 1.10408 -0.16490 0.10671
 H774 H 1.16506 -0.16347 0.12143
 C775 C 1.10632 0.36834 0.68190
 C776 C 1.11253 0.33643 0.66821
 C777 C 1.14470 0.34021 0.67971
 C778 C 1.13877 0.37182 0.69374
 C779 C 1.11414 0.38003 0.64256
 C780 C 1.14631 0.38388 0.65402
 C781 C 1.12011 0.34840 0.62862
 C782 C 1.15252 0.35189 0.64038
 C783 C 1.16114 0.31729 0.69990
 C784 C 1.17416 0.29781 0.71597
 C785 C 1.09633 0.40126 0.62134
 C786 C 1.08083 0.41762 0.60340
 H787 H 1.08714 0.37535 0.69877
 H788 H 1.09879 0.31669 0.67424
 H789 H 1.14663 0.38119 0.72076
 H790 H 1.16001 0.40364 0.64795
 H791 H 1.11227 0.33897 0.60162
 H792 H 1.17170 0.34486 0.62351
 C793 C 0.60076 -0.13620 0.68135
 C794 C 0.61318 -0.16529 0.66484
 C795 C 0.64250 -0.15885 0.68428
 C796 C 0.63037 -0.13008 0.70117
 C797 C 0.61192 -0.11948 0.64655
 C798 C 0.64124 -0.11297 0.66596
 C799 C 0.62409 -0.14828 0.62977
 C800 C 0.65365 -0.14213 0.64948
 C801 C 0.65916 -0.18158 0.70435
 C802 C 0.67247 -0.20102 0.72005
 C803 C 0.59466 -0.09853 0.62429
 C804 C 0.58031 -0.08237 0.60466
 H805 H 0.57883 -0.13351 0.69421
 H806 H 0.60183 -0.18705 0.66457
 H807 H 0.63317 -0.12287 0.73078
 H808 H 0.65256 -0.09119 0.66618
 H809 H 0.62133 -0.15555 0.60017
 H810 H 0.67558 -0.14483 0.63660
 C811 C 0.60319 0.36390 0.17679
 C812 C 0.60634 0.33093 0.16545
 C813 C 0.63946 0.33327 0.17198
 C814 C 0.63659 0.36588 0.18364
 C815 C 0.60817 0.37279 0.13559
 C816 C 0.64129 0.37512 0.14212
 C817 C 0.61104 0.34018 0.12393
 C818 C 0.64443 0.34216 0.13078
 C819 C 0.65677 0.31108 0.19202
 C820 C 0.67075 0.29248 0.20827
 C821 C 0.59099 0.39492 0.11526
 C822 C 0.57723 0.41342 0.09851
 H823 H 0.58601 0.37308 0.19544
 H824 H 0.59219 0.31249 0.17530
 H825 H 0.64731 0.37617 0.20841
 H826 H 0.65545 0.39356 0.13227
 H827 H 0.60033 0.32988 0.09916
 H828 H 0.66161 0.33299 0.11212
 C829 C 0.90223 0.14839 0.16265
 C830 C 0.87762 0.16772 0.14568
 C831 C 0.85887 0.16139 0.18058
 C832 C 0.88324 0.14237 0.19789
 C833 C 0.88866 0.12105 0.14369
 C834 C 0.86993 0.11465 0.17860
 C835 C 0.86428 0.14009 0.12643
 C836 C 0.84525 0.13407 0.16164
 C837 C 0.84246 0.18440 0.20032
 C838 C 0.82891 0.20372 0.21575
 C839 C 0.90590 0.09953 0.12247
 C840 C 0.92092 0.08295 0.10439
 H841 H 0.92586 0.15403 0.16284
 H842 H 0.88063 0.18978 0.13237
 H843 H 0.89086 0.14360 0.22748
 H844 H 0.86695 0.09256 0.19185
 H845 H 0.85665 0.13889 0.09683
 H846 H 0.82161 0.12847 0.16148
 C847 C 0.85330 0.61592 0.65373
 C848 C 0.86119 0.62837 0.69310
 C849 C 0.85468 0.65981 0.67870
 C850 C 0.84650 0.64773 0.63970
 C851 C 0.88528 0.62011 0.64160
 C852 C 0.87872 0.65156 0.62728
 C853 C 0.89344 0.63219 0.68060
 C854 C 0.88664 0.66392 0.66653
 C855 C 0.83822 0.68265 0.69889
 C856 C 0.82519 0.70206 0.71499
 C857 C 0.90312 0.59894 0.62044
 C858 C 0.91864 0.58262 0.60260
 H859 H 0.83979 0.59594 0.64823
 H860 H 0.85380 0.61910 0.72042
 H861 H 0.82703 0.65438 0.62309
 H862 H 0.88609 0.66089 0.59998
 H863 H 0.91292 0.62557 0.69722
 H864 H 0.90020 0.68388 0.67199
 C865 C 0.40061 0.14844 0.66105
 C866 C 0.37268 0.16397 0.64648
 C867 C 0.35789 0.15784 0.68446
 C868 C 0.38559 0.14261 0.69937
 C869 C 0.38858 0.11876 0.64661
 C870 C 0.37382 0.11254 0.68459
 C871 C 0.36087 0.13402 0.63174
 C872 C 0.34581 0.12818 0.67004
 C873 C 0.34116 0.18041 0.70456
 C874 C 0.32779 0.19973 0.72028
 C875 C 0.40586 0.09797 0.62430
 C876 C 0.42020 0.08190 0.60462
 H877 H 0.42333 0.15653 0.65713
 H878 H 0.37204 0.18534 0.63100
 H879 H 0.39555 0.14641 0.72743
 H880 H 0.37451 0.09114 0.69999
 H881 H 0.35089 0.13025 0.60369
 H882 H 0.32307 0.12013 0.67398
 C883 C 0.40353 0.65459 0.15485
 C884 C 0.37862 0.67348 0.13764
 C885 C 0.35962 0.66647 0.17214
 C886 C 0.38426 0.64794 0.18967
 C887 C 0.39074 0.62711 0.13542
 C888 C 0.37175 0.62010 0.16992
 C889 C 0.36610 0.64565 0.11789
 C890 C 0.34684 0.63899 0.15271
 C891 C 0.34242 0.68858 0.19241
 C892 C 0.32851 0.70710 0.20886
 C893 C 0.40787 0.60505 0.11495
 C894 C 0.42164 0.58662 0.09815
 H895 H 0.42702 0.66076 0.15548
 H896 H 0.38122 0.69570 0.12461
 H897 H 0.39151 0.64912 0.21943
 H898 H 0.36914 0.59788 0.18295
 H899 H 0.35885 0.64447 0.08814
 H900 H 0.32334 0.63283 0.15208
   
