data_POSCAR
  _audit_creation_date              2014-09-24
  _audit_creation_method            'ToBaCCo'
  _symmetry_space_group_name_H-M    'P1'
  _symmetry_Int_Tables_number       1
  _symmetry_cell_setting            triclinic
  loop_
  _symmetry_equiv_pos_as_xyz
 x,y,z
_cell_length_a 16.5570
_cell_length_b 16.7120
_cell_length_c 17.3021
_cell_angle_alpha 86.132000
_cell_angle_beta 87.577800
_cell_angle_gamma 88.374700
loop_
  _atom_site_label
  _atom_site_type_symbol
  _atom_site_fract_x
  _atom_site_fract_y
  _atom_site_fract_z
Si1 Si 1.24799 0.23466 0.26170
 Si2 Si 0.71776 -0.24902 0.22889
 Si3 Si 0.74470 0.23537 -0.23948
 Si4 Si 1.21448 -0.24855 -0.26916
 Si5 Si 0.25170 0.25325 0.74700
 Si6 Si 0.78319 0.74903 0.76483
 Si7 Si 0.74810 0.25210 0.25068
 Si8 Si 0.27560 0.75064 0.26050
 O9 O 1.15014 0.08186 0.08883
 O10 O 0.86302 -0.09790 0.05856
 O11 O 0.90153 0.14528 0.06598
 O12 O 1.11276 -0.15849 0.04690
 O13 O 0.86814 0.02923 0.10602
 O14 O 1.15033 -0.05983 0.10589
 O15 O 0.97375 -0.15198 0.09672
 O16 O 1.03003 0.12110 0.12354
 C17 C 1.10257 0.11467 0.13671
 C18 C 0.90000 -0.14275 0.10667
 C19 C 0.86658 0.10112 0.11610
 C20 C 1.14765 -0.13308 0.10199
 O21 O 1.17238 -0.07140 -0.05205
 O22 O 0.86336 0.09579 -0.04679
 O23 O 1.10145 0.16507 -0.01226
 O24 O 0.92659 -0.14624 -0.05206
 O25 O 0.88725 -0.03012 -0.09088
 O26 O 1.15426 0.06991 -0.07145
 O27 O 1.06489 -0.11993 -0.09508
 O28 O 0.97591 0.15127 -0.07550
 Co29 Co 1.14348 0.00508 0.01722
 Co30 Co 0.88352 -0.00045 0.00759
 Co31 Co 1.00295 0.13081 0.02395
 Co32 Co 1.01829 -0.12909 0.00072
 O33 O 1.01234 0.00123 0.01250
 C34 C 1.13848 -0.10793 -0.10241
 C35 C 0.90585 0.14001 -0.09230
 C36 C 1.14057 0.14249 -0.06918
 C37 C 0.89176 -0.10177 -0.10158
 O38 O 1.12706 0.53443 0.57458
 O39 O 0.82665 0.42804 0.53846
 O40 O 0.93654 0.62840 0.58757
 O41 O 1.06778 0.38630 0.59280
 O42 O 0.83075 0.57354 0.54280
 O43 O 1.16260 0.40880 0.51443
 O44 O 0.92663 0.36655 0.59581
 O45 O 1.07635 0.64925 0.54362
 C46 C 1.11564 0.60436 0.58978
 C47 C 0.85252 0.38159 0.59217
 C48 C 0.86298 0.61224 0.59415
 C49 C 1.14002 0.37792 0.57739
 O50 O 1.12496 0.47189 0.38043
 O51 O 0.87211 0.57546 0.37995
 O52 O 1.02452 0.64587 0.39394
 O53 O 0.93062 0.33752 0.44762
 O54 O 0.86502 0.43438 0.38785
 O55 O 1.13947 0.60591 0.42946
 O56 O 1.07553 0.35774 0.42872
 O57 O 0.88843 0.66840 0.45028
 Co58 Co 1.12176 0.50602 0.47666
 Co59 Co 0.86161 0.50425 0.46464
 Co60 Co 0.98388 0.63276 0.49224
 Co61 Co 1.00088 0.37488 0.51346
 O62 O 0.98993 0.50305 0.48702
 C63 C 1.11530 0.39860 0.37478
 C64 C 0.86144 0.64660 0.39034
 C65 C 1.09736 0.63918 0.37869
 C66 C 0.88475 0.36220 0.39560
 O67 O 0.64717 0.07295 0.59288
 O68 O 0.36069 -0.10322 0.55847
 O69 O 0.39982 0.14004 0.56255
 O70 O 0.60945 -0.16700 0.54772
 O71 O 0.36389 0.02515 0.60324
 O72 O 0.64379 -0.06875 0.60874
 O73 O 0.47072 -0.15917 0.59669
 O74 O 0.52699 0.11427 0.62502
 C75 C 0.59945 0.10780 0.63932
 C76 C 0.39730 -0.14811 0.60686
 C77 C 0.36362 0.09724 0.61270
 C78 C 0.64155 -0.14203 0.60461
 O79 O 0.66961 -0.07912 0.45055
 O80 O 0.36464 0.08839 0.44907
 O81 O 0.60188 0.15698 0.49118
 O82 O 0.42285 -0.15613 0.44857
 O83 O 0.38701 -0.03971 0.40770
 O84 O 0.65419 0.06230 0.43153
 O85 O 0.56279 -0.12734 0.40536
 O86 O 0.47785 0.14493 0.42437
 Co87 Co 0.64058 -0.00326 0.52014
 Co88 Co 0.38174 -0.00707 0.50557
 Co89 Co 0.50219 0.12399 0.52437
 Co90 Co 0.51536 -0.13682 0.50102
 O91 O 0.51007 -0.00603 0.51286
 C92 C 0.63647 -0.11455 0.39895
 C93 C 0.40831 0.13381 0.40575
 C94 C 0.64120 0.13503 0.43430
 C95 C 0.38796 -0.11202 0.39876
 O96 O 0.62180 0.53131 0.07981
 O97 O 0.32361 0.42874 0.04018
 O98 O 0.43184 0.62934 0.08980
 O99 O 0.56403 0.38587 0.09489
 O100 O 0.32667 0.57540 0.04325
 O101 O 0.65922 0.40610 0.01715
 O102 O 0.42415 0.36721 0.09684
 O103 O 0.57298 0.64744 0.04924
 C104 C 0.61218 0.60168 0.09477
 C105 C 0.35018 0.38243 0.09374
 C106 C 0.35793 0.61456 0.09498
 C107 C 0.63610 0.37534 0.07989
 O108 O 0.62238 0.47218 -0.11610
 O109 O 0.36909 0.57577 -0.11884
 O110 O 0.52627 0.64888 -0.10258
 O111 O 0.42765 0.33790 -0.05085
 O112 O 0.36301 0.43495 -0.11089
 O113 O 0.63817 0.60299 -0.06307
 O114 O 0.57220 0.35792 -0.07022
 O115 O 0.38787 0.66927 -0.04946
 Co116 Co 0.61782 0.50393 -0.01884
 Co117 Co 0.35854 0.50482 -0.03400
 Co118 Co 0.48191 0.63351 -0.00495
 Co119 Co 0.49775 0.37513 0.01484
 O120 O 0.48672 0.50340 -0.01088
 C121 C 0.61256 0.39921 -0.12335
 C122 C 0.36036 0.64721 -0.10917
 C123 C 0.60021 0.64367 -0.11257
 C124 C 0.38302 0.36289 -0.10359
 N125 N 1.20804 0.17080 0.19595
 N126 N 1.13291 0.15915 0.19559
 N127 N 1.15131 0.70830 0.66454
 N128 N 1.15901 0.63508 0.65025
 N129 N 0.70441 0.16974 0.69557
 N130 N 0.62974 0.15448 0.69709
 N131 N 0.65505 0.70685 0.16309
 N132 N 0.65728 0.63222 0.15409
 N133 N 0.78008 -0.18163 0.17063
 N134 N 0.85615 -0.19226 0.16308
 N135 N 0.81581 0.29954 0.70556
 N136 N 0.79512 0.34097 0.64478
 N137 N 0.27741 -0.18279 0.67217
 N138 N 0.35299 -0.19583 0.66403
 N139 N 0.31718 0.29994 0.20679
 N140 N 0.29409 0.34174 0.14716
 N141 N 0.79702 0.17482 -0.16848
 N142 N 0.87048 0.18558 -0.15512
 N143 N 0.77747 0.67766 0.28375
 N144 N 0.81550 0.70042 0.34042
 N145 N 0.30018 0.17278 0.33129
 N146 N 0.37416 0.18135 0.34371
 N147 N 0.27397 0.67794 -0.21411
 N148 N 0.31432 0.70108 -0.15907
 N149 N 1.15331 -0.19269 -0.20403
 N150 N 1.18610 -0.14655 -0.15992
 N151 N 1.16921 0.28435 0.31652
 N152 N 1.16466 0.36008 0.31762
 N153 N 0.65438 -0.19540 0.29425
 N154 N 0.68547 -0.15095 0.34095
 N155 N 0.66577 0.28576 -0.18460
 N156 N 0.66225 0.36139 -0.18114
 N157 N 1.21234 0.17801 -0.18535
 N158 N 1.17172 0.19954 -0.12639
 N159 N 1.19556 0.69900 0.29239
 N160 N 1.12972 0.66686 0.30440
 N161 N 0.71063 0.17398 0.31677
 N162 N 0.67189 0.19316 0.37765
 N163 N 0.71897 0.68344 -0.17680
 N164 N 0.64264 0.69307 -0.17027
 N165 N 0.84717 -0.20800 -0.16901
 N166 N 0.84674 -0.13312 -0.16081
 N167 N 0.79536 0.32580 0.30270
 N168 N 0.85127 0.30549 0.34861
 N169 N 0.32934 -0.21698 0.33430
 N170 N 0.34313 -0.14270 0.33816
 N171 N 0.29917 0.32743 -0.20174
 N172 N 0.35083 0.30641 -0.15165
 N173 N 1.23711 -0.17102 0.20465
 N174 N 1.18856 -0.18901 0.15383
 N175 N 1.17343 0.30075 0.69160
 N176 N 1.19547 0.33786 0.62818
 N177 N 0.72630 -0.17531 0.71021
 N178 N 0.68408 -0.19713 0.65608
 N179 N 0.66924 0.29992 0.19585
 N180 N 0.69093 0.33469 0.13111
 N181 N 0.81713 0.20888 0.18318
 N182 N 0.81793 0.13373 0.17629
 N183 N 0.84448 0.69334 0.69872
 N184 N 0.81330 0.64795 0.65259
 N185 N 0.31975 0.20657 0.68070
 N186 N 0.31588 0.13180 0.67257
 N187 N 0.33634 0.69402 0.20243
 N188 N 0.30689 0.65245 0.15171
   
