data_POSCAR
  _audit_creation_date              2014-09-24
  _audit_creation_method            'ToBaCCo'
  _symmetry_space_group_name_H-M    'P1'
  _symmetry_Int_Tables_number       1
  _symmetry_cell_setting            triclinic
  loop_
  _symmetry_equiv_pos_as_xyz
 x,y,z
_cell_length_a 73.4035
_cell_length_b 73.4496
_cell_length_c 19.7237
_cell_angle_alpha 90.065000
_cell_angle_beta 90.002800
_cell_angle_gamma 119.903200
loop_
  _atom_site_label
  _atom_site_type_symbol
  _atom_site_fract_x
  _atom_site_fract_y
  _atom_site_fract_z
C1 C 0.23339 0.50054 0.46481
 C2 C 0.23321 0.50014 0.53648
 C3 C 0.24971 0.49996 0.57181
 C4 C 0.26637 0.50015 0.53654
 C5 C 0.26654 0.50057 0.46503
 C6 C 0.25009 0.50077 0.42967
 H7 H 0.25030 0.50105 0.37464
 H8 H 0.24954 0.49961 0.62686
 C9 C 0.50191 -0.26612 0.46342
 C10 C 0.50160 -0.26612 0.53494
 C11 C 0.50185 -0.24940 0.57002
 C12 C 0.50241 -0.23261 0.53453
 C13 C 0.50273 -0.23260 0.46299
 C14 C 0.50247 -0.24933 0.42792
 H15 H 0.50272 -0.24925 0.37289
 H16 H 0.50160 -0.24949 0.62505
 C17 C 1.26531 0.76753 0.46070
 C18 C 1.26523 0.76742 0.53226
 C19 C 1.24886 0.75067 0.56732
 C20 C 1.23253 0.73401 0.53182
 C21 C 1.23259 0.73412 0.46040
 C22 C 1.24895 0.75084 0.42522
 H23 H 1.24890 0.75084 0.37019
 H24 H 1.24883 0.75061 0.62232
 C25 C 0.76980 0.50649 0.46721
 C26 C 0.76978 0.50649 0.53875
 C27 C 0.75318 0.50647 0.57400
 C28 C 0.73660 0.50643 0.53863
 C29 C 0.73665 0.50646 0.46709
 C30 C 0.75324 0.50649 0.43192
 H31 H 0.75325 0.50648 0.37691
 H32 H 0.75315 0.50644 0.62907
 C33 C 0.49747 0.26484 0.46751
 C34 C 0.49716 0.26467 0.53905
 C35 C 0.49730 0.24816 0.57425
 C36 C 0.49775 0.23184 0.53880
 C37 C 0.49807 0.23204 0.46728
 C38 C 0.49793 0.24853 0.43215
 H39 H 0.49817 0.24866 0.37715
 H40 H 0.49706 0.24802 0.62931
 C41 C 0.73444 0.23214 0.46471
 C42 C 0.73436 0.23228 0.53612
 C43 C 0.75100 0.24868 0.57150
 C44 C 0.76779 0.26498 0.53625
 C45 C 0.76786 0.26483 0.46469
 C46 C 0.75118 0.24841 0.42942
 H47 H 0.75124 0.24828 0.37442
 H48 H 0.75087 0.24872 0.62653
 O49 O 1.02919 0.54567 0.12268
 O50 O 1.05217 0.54075 0.05688
 C51 C 1.04795 0.55027 0.10432
 O52 O 0.97040 0.45145 0.11619
 O53 O 0.94721 0.45747 0.05530
 C54 C 0.95156 0.44699 0.09886
 O55 O 1.02949 0.48268 0.12216
 O56 O 1.05253 0.51053 0.05642
 C57 C 1.04830 0.49682 0.10388
 O58 O 0.97041 0.51810 0.11602
 O59 O 0.94723 0.48900 0.05506
 C60 C 0.95157 0.50382 0.09863
 Zr61 Zr 0.99984 0.52247 0.08339
 O62 O 0.99783 0.52245 0.19044
 O63 O 1.00088 0.55167 0.07571
 Zr64 Zr 0.99986 0.47634 0.08361
 O65 O 0.99789 0.47457 0.19069
 O66 O 1.00088 0.44815 0.07672
 O67 O 1.01855 0.50872 0.09663
 O68 O 0.98167 0.49036 0.09623
 O69 O 0.97021 0.51804 -0.11889
 O70 O 0.94711 0.48889 -0.05802
 C71 C 0.95139 0.50374 -0.10133
 O72 O 1.02913 0.48221 -0.12585
 O73 O 1.05235 0.51032 -0.06107
 C74 C 1.04797 0.49640 -0.10802
 O75 O 0.97010 0.45103 -0.11880
 O76 O 0.94708 0.45728 -0.05786
 C77 C 0.95130 0.44664 -0.10122
 O78 O 1.02926 0.54562 -0.12618
 O79 O 1.05241 0.54058 -0.06142
 C80 C 1.04810 0.55016 -0.10842
 Zr81 Zr 0.99973 0.52230 -0.08775
 O82 O 0.99724 0.52083 -0.19480
 O83 O 1.00175 0.55206 -0.08759
 Zr84 Zr 0.99962 0.47619 -0.08754
 O85 O 0.99715 0.47507 -0.19459
 O86 O 1.00153 0.44839 -0.08729
 Zr87 Zr 1.03105 0.51487 -0.00234
 Zr88 Zr 0.96852 0.48378 -0.00162
 O89 O 0.98139 0.49015 -0.09986
 O90 O 1.01839 0.50853 -0.10119
 O91 O 0.98102 0.51656 -0.00195
 O92 O 1.01807 0.48207 -0.00210
 O93 O 1.01814 0.53481 -0.00227
 O94 O 0.98097 0.46343 -0.00166
 H95 H 0.97228 0.48572 0.13629
 H96 H 1.02760 0.47615 -0.00209
 H97 H 0.97180 0.48535 -0.13946
 H98 H 1.02769 0.55022 -0.00237
 H99 H 1.00095 0.44364 0.12400
 H100 H 0.99190 0.43918 -0.05152
 H101 H 1.00900 0.48824 -0.21240
 H102 H 1.00910 0.51945 -0.21257
 H103 H 0.99199 0.55168 -0.05227
 H104 H 1.00076 0.55629 0.12285
 H105 H 1.00825 0.51891 0.20843
 H106 H 1.00875 0.48834 0.20859
 O107 O 0.45335 0.48263 0.12388
 O108 O 0.45803 0.51045 0.05812
 C109 C 0.44864 0.49675 0.10562
 O110 O 0.54768 0.51814 0.11693
 O111 O 0.54178 0.48901 0.05596
 C112 C 0.55225 0.50385 0.09948
 O113 O 0.51614 0.54570 0.12333
 O114 O 0.48807 0.54064 0.05798
 C115 C 0.50188 0.55025 0.10519
 O116 O 0.48125 0.45142 0.11751
 O117 O 0.51035 0.45745 0.05619
 C118 C 0.49563 0.44697 0.09995
 Zr119 Zr 0.47658 0.47630 0.08495
 O120 O 0.47676 0.47444 0.19200
 O121 O 0.44744 0.44810 0.07793
 Zr122 Zr 0.52258 0.52250 0.08462
 O123 O 0.52456 0.52243 0.19168
 O124 O 0.55066 0.55172 0.07737
 O125 O 0.49018 0.50868 0.09810
 O126 O 0.50876 0.49037 0.09735
 O127 O 0.48092 0.45102 -0.11757
 O128 O 0.51025 0.45731 -0.05694
 C129 C 0.49537 0.44666 -0.10016
 O130 O 0.51614 0.54556 -0.12478
 O131 O 0.48803 0.54052 -0.05967
 C132 C 0.50186 0.55009 -0.10673
 O133 O 0.54771 0.51806 -0.11800
 O134 O 0.54176 0.48893 -0.05713
 C135 C 0.55228 0.50377 -0.10049
 O136 O 0.45293 0.48215 -0.12443
 O137 O 0.45788 0.51028 -0.05959
 C138 C 0.44828 0.49637 -0.10653
 Zr139 Zr 0.47648 0.47616 -0.08625
 O140 O 0.47776 0.47504 -0.19332
 O141 O 0.44682 0.44836 -0.08566
 Zr142 Zr 0.52242 0.52227 -0.08660
 O143 O 0.52335 0.52078 -0.19367
 O144 O 0.55010 0.55203 -0.08667
 Zr145 Zr 0.48378 0.51483 -0.00080
 Zr146 Zr 0.51527 0.48378 -0.00060
 O147 O 0.50865 0.49012 -0.09876
 O148 O 0.49001 0.50851 -0.09978
 O149 O 0.48250 0.46341 -0.00050
 O150 O 0.51657 0.53480 -0.00098
 O151 O 0.46400 0.48203 -0.00057
 O152 O 0.53545 0.51656 -0.00088
 H153 H 0.51354 0.48573 0.13736
 H154 H 0.52237 0.55021 -0.00102
 H155 H 0.51345 0.48534 -0.13841
 H156 H 0.44856 0.47614 -0.00046
 H157 H 0.55527 0.55634 0.12460
 H158 H 0.55943 0.55171 -0.05104
 H159 H 0.51011 0.51942 -0.21130
 H160 H 0.47907 0.48823 -0.21107
 H161 H 0.44734 0.43910 -0.05023
 H162 H 0.44288 0.44356 0.12519
 H163 H 0.48007 0.48834 0.20993
 H164 H 0.51074 0.51934 0.20971
 O165 O 0.48321 0.02892 0.12413
 O166 O 0.51098 0.05197 0.05813
 C167 C 0.49732 0.04771 0.10584
 O168 O 0.51862 -0.03005 0.11535
 O169 O 0.48937 -0.05316 0.05471
 C170 C 0.50427 -0.04885 0.09793
 O171 O 0.54624 0.02893 0.12215
 O172 O 0.54116 0.05198 0.05722
 C173 C 0.55079 0.04772 0.10420
 O174 O 0.45191 -0.03009 0.11755
 O175 O 0.45781 -0.05319 0.05573
 C176 C 0.44739 -0.04891 0.09980
 Zr177 Zr 0.47680 -0.00062 0.08492
 O178 O 0.47513 -0.00269 0.19199
 O179 O 0.44860 0.00043 0.07871
 Zr180 Zr 0.52299 -0.00061 0.08342
 O181 O 0.52311 -0.00267 0.19043
 O182 O 0.55221 0.00044 0.07537
 O183 O 0.50923 0.01803 0.09757
 O184 O 0.49086 -0.01880 0.09666
 O185 O 0.45123 -0.03009 -0.11750
 O186 O 0.45756 -0.05318 -0.05739
 C187 C 0.44688 -0.04889 -0.10030
 O188 O 0.54583 0.02887 -0.12609
 O189 O 0.54091 0.05194 -0.06046
 C190 C 0.55042 0.04767 -0.10786
 O191 O 0.51820 -0.03014 -0.11979
 O192 O 0.48915 -0.05321 -0.05845
 C193 C 0.50389 -0.04895 -0.10225
 O194 O 0.48244 0.02890 -0.12411
 O195 O 0.51068 0.05196 -0.05956
 C196 C 0.49670 0.04770 -0.10623
 Zr197 Zr 0.47644 -0.00062 -0.08628
 O198 O 0.47516 -0.00300 -0.19336
 O199 O 0.44865 0.00135 -0.08500
 Zr200 Zr 0.52254 -0.00065 -0.08778
 O201 O 0.52096 -0.00302 -0.19485
 O202 O 0.55230 0.00131 -0.08828
 Zr203 Zr 0.51526 0.03058 -0.00128
 Zr204 Zr 0.48412 -0.03185 -0.00135
 O205 O 0.49036 -0.01888 -0.09945
 O206 O 0.50880 0.01807 -0.10031
 O207 O 0.46377 -0.01937 -0.00053
 O208 O 0.53521 0.01769 -0.00216
 O209 O 0.48245 0.01769 -0.00045
 O210 O 0.51691 -0.01938 -0.00223
 H211 H 0.48624 -0.02821 0.13661
 H212 H 0.55063 0.02724 -0.00240
 H213 H 0.48551 -0.02843 -0.13916
 H214 H 0.47657 0.02725 -0.00005
 H215 H 0.55691 0.00044 0.12247
 H216 H 0.55193 -0.00848 -0.05315
 H217 H 0.51951 0.00882 -0.21225
 H218 H 0.48835 0.00882 -0.21124
 H219 H 0.43943 -0.00840 -0.04949
 H220 H 0.44413 0.00045 0.12610
 H221 H 0.48901 0.00795 0.20976
 H222 H 0.51989 0.00794 0.20875
 C223 C 1.21744 0.50061 0.42892
 C224 C 1.20312 0.50061 0.39887
 C225 C 1.18577 0.50054 0.36456
 C226 C 1.17783 0.48915 0.30441
 C227 C 1.16069 0.48875 0.27196
 C228 C 1.15123 0.49975 0.29930
 C229 C 1.15939 0.51120 0.35970
 C230 C 1.17653 0.51158 0.39205
 C231 C 1.13290 0.49919 0.26514
 C232 C 1.13116 0.51741 0.26107
 C233 C 1.11391 0.51686 0.22887
 C234 C 1.09815 0.49812 0.20037
 C235 C 1.09971 0.47992 0.20422
 C236 C 1.11695 0.48043 0.23635
 C237 C 1.08047 0.49760 0.16675
 C238 C 1.06573 0.49721 0.13827
 H239 H 1.18486 0.48055 0.28266
 H240 H 1.15496 0.48002 0.22510
 H241 H 1.15231 0.51960 0.38254
 H242 H 1.18249 0.52038 0.43875
 H243 H 1.14329 0.53215 0.28194
 H244 H 1.11292 0.53106 0.22597
 H245 H 1.08758 0.46531 0.18248
 H246 H 1.11766 0.46608 0.23944
 C247 C 0.50171 0.71773 0.42818
 C248 C 0.50156 0.70325 0.39870
 C249 C 0.50141 0.68576 0.36508
 C250 C 0.50715 0.67293 0.40077
 C251 C 0.50695 0.65586 0.36854
 C252 C 0.50103 0.65140 0.29999
 C253 C 0.49527 0.66440 0.26456
 C254 C 0.49545 0.68145 0.29695
 C255 C 0.50094 0.63333 0.26556
 C256 C 0.50815 0.63518 0.19841
 C257 C 0.50821 0.61823 0.16621
 C258 C 0.50107 0.59920 0.20057
 C259 C 0.49381 0.59717 0.26728
 C260 C 0.49375 0.61410 0.29961
 C261 C 0.50128 0.58182 0.16737
 C262 C 0.50153 0.56736 0.13924
 H263 H 0.51186 0.67616 0.45347
 H264 H 0.51174 0.64634 0.39698
 H265 H 0.49036 0.66123 0.21206
 H266 H 0.49090 0.69123 0.26890
 H267 H 0.51404 0.64983 0.17110
 H268 H 0.51392 0.62001 0.11461
 H269 H 0.48818 0.58250 0.29430
 H270 H 0.48784 0.61208 0.35097
 C271 C 0.28111 -0.21629 0.42532
 C272 C 0.29524 -0.20182 0.39536
 C273 C 0.31228 -0.18437 0.36084
 C274 C 0.31769 -0.18675 0.29471
 C275 C 0.33439 -0.16982 0.26158
 C276 C 0.34594 -0.15026 0.29427
 C277 C 0.34033 -0.14803 0.36074
 C278 C 0.32361 -0.16497 0.39371
 C279 C 0.36380 -0.13228 0.25936
 C280 C 0.38234 -0.11880 0.29504
 C281 C 0.39915 -0.10191 0.26224
 C282 C 0.39770 -0.09822 0.19338
 C283 C 0.37935 -0.11153 0.15739
 C284 C 0.36251 -0.12845 0.19009
 C285 C 0.41509 -0.08083 0.15978
 C286 C 0.42976 -0.06625 0.13212
 H287 H 0.30908 -0.20172 0.26887
 H288 H 0.33848 -0.17213 0.21081
 H289 H 0.34870 -0.13312 0.38697
 H290 H 0.31952 -0.16292 0.44483
 H291 H 0.38395 -0.12149 0.34811
 H292 H 0.41330 -0.09177 0.29056
 H293 H 0.37803 -0.10881 0.10410
 H294 H 0.34838 -0.13837 0.16140
 C295 C 0.78659 0.50637 0.42930
 C296 C 0.80076 0.50620 0.39892
 C297 C 0.81780 0.50594 0.36376
 C298 C 0.82168 0.51182 0.29551
 C299 C 0.83828 0.51157 0.26152
 C300 C 0.85122 0.50543 0.29543
 C301 C 0.84718 0.49957 0.36409
 C302 C 0.83058 0.49983 0.39795
 C303 C 0.86883 0.50511 0.25941
 C304 C 0.87314 0.48870 0.27052
 C305 C 0.88982 0.48849 0.23708
 C306 C 0.90243 0.50464 0.19211
 C307 C 0.89824 0.52099 0.18048
 C308 C 0.88154 0.52123 0.21384
 C309 C 0.91975 0.50449 0.15847
 C310 C 0.93428 0.50426 0.13083
 H311 H 0.81184 0.51653 0.26853
 H312 H 0.84081 0.51592 0.20848
 H313 H 0.85703 0.49505 0.39187
 H314 H 0.82774 0.49528 0.45083
 H315 H 0.86348 0.47592 0.30453
 H316 H 0.89290 0.47572 0.24632
 H317 H 0.90793 0.53361 0.14592
 H318 H 0.87879 0.53420 0.20483
 C319 C 0.49734 0.28162 0.42964
 C320 C 0.49723 0.29579 0.39920
 C321 C 0.49711 0.31286 0.36387
 C322 C 0.50893 0.33338 0.38872
 C323 C 0.50871 0.34999 0.35493
 C324 C 0.49664 0.34629 0.29573
 C325 C 0.48482 0.32560 0.27116
 C326 C 0.48507 0.30901 0.30504
 C327 C 0.49636 0.36393 0.25993
 C328 C 0.47750 0.36152 0.23314
 C329 C 0.47724 0.37821 0.20000
 C330 C 0.49579 0.39751 0.19310
 C331 C 0.51464 0.40004 0.21933
 C332 C 0.51494 0.38339 0.25253
 C333 C 0.49551 0.41478 0.15972
 C334 C 0.49545 0.42939 0.13218
 H335 H 0.51825 0.33653 0.43437
 H336 H 0.51775 0.36568 0.37566
 H337 H 0.47558 0.32228 0.22530
 H338 H 0.47588 0.29319 0.28533
 H339 H 0.46290 0.34683 0.23876
 H340 H 0.46255 0.37609 0.18008
 H341 H 0.52910 0.41490 0.21414
 H342 H 0.52975 0.38566 0.27178
 C343 C 0.71748 0.21533 0.42726
 C344 C 0.70307 0.20102 0.39775
 C345 C 0.68566 0.18368 0.36413
 C346 C 0.68318 0.18404 0.29389
 C347 C 0.66625 0.16713 0.26145
 C348 C 0.65154 0.14965 0.29894
 C349 C 0.65416 0.14947 0.36958
 C350 C 0.67112 0.16637 0.40187
 C351 C 0.63359 0.13163 0.26454
 C352 C 0.61348 0.12161 0.29421
 C353 C 0.59663 0.10458 0.26192
 C354 C 0.59965 0.09732 0.19966
 C355 C 0.61958 0.10718 0.16970
 C356 C 0.63645 0.12422 0.20185
 C357 C 0.58233 0.07976 0.16644
 C358 C 0.56789 0.06509 0.13827
 H359 H 0.69431 0.19739 0.26424
 H360 H 0.66451 0.16785 0.20716
 H361 H 0.64328 0.13614 0.39972
 H362 H 0.67295 0.16590 0.45624
 H363 H 0.61072 0.12711 0.34197
 H364 H 0.58125 0.09711 0.28544
 H365 H 0.62211 0.10166 0.12159
 H366 H 0.65178 0.13142 0.17816
 C367 C 0.49784 0.21588 -0.42589
 C368 C 0.49791 0.20154 -0.39645
 C369 C 0.49799 0.18417 -0.36308
 C370 C 0.49568 0.18193 -0.29266
 C371 C 0.49563 0.16494 -0.26056
 C372 C 0.49793 0.14997 -0.29856
 C373 C 0.50028 0.15240 -0.36934
 C374 C 0.50028 0.16938 -0.40132
 C375 C 0.49777 0.13185 -0.26461
 C376 C 0.51177 0.12503 -0.28500
 C377 C 0.51153 0.10792 -0.25317
 C378 C 0.49730 0.09737 -0.20068
 C379 C 0.48332 0.10403 -0.18001
 C380 C 0.48355 0.12116 -0.21170
 C381 C 0.49708 0.07977 -0.16783
 C382 C 0.49689 0.06507 -0.13996
 H383 H 0.49393 0.19332 -0.26257
 H384 H 0.49405 0.16364 -0.20594
 H385 H 0.50180 0.14101 -0.40008
 H386 H 0.50197 0.17091 -0.45591
 H387 H 0.52308 0.13311 -0.32497
 H388 H 0.52248 0.10294 -0.26938
 H389 H 0.47221 0.09595 -0.13950
 H390 H 0.47240 0.12585 -0.19546
 C391 C 0.72053 0.50626 -0.42585
 C392 C 0.70613 0.50606 -0.39571
 C393 C 0.68874 0.50574 -0.36098
 C394 C 0.69147 0.51444 -0.29607
 C395 C 0.67455 0.51421 -0.26263
 C396 C 0.65467 0.50525 -0.29375
 C397 C 0.65211 0.49655 -0.35905
 C398 C 0.66904 0.49680 -0.39237
 C399 C 0.63668 0.50500 -0.25837
 C400 C 0.61645 0.48724 -0.26212
 C401 C 0.59948 0.48707 -0.22931
 C402 C 0.60248 0.50463 -0.19234
 C403 C 0.62254 0.52235 -0.18809
 C404 C 0.63954 0.52255 -0.22082
 C405 C 0.58492 0.50448 -0.15935
 C406 C 0.57009 0.50424 -0.13220
 H407 H 0.70665 0.52137 -0.27127
 H408 H 0.67696 0.52080 -0.21209
 H409 H 0.63710 0.48981 -0.38475
 H410 H 0.66678 0.49008 -0.44270
 H411 H 0.61378 0.47338 -0.28982
 H412 H 0.58403 0.47325 -0.23281
 H413 H 0.62502 0.53605 -0.15978
 H414 H 0.65485 0.53655 -0.21768
 C415 C 0.78387 0.28080 -0.42813
 C416 C 0.79824 0.29496 -0.39793
 C417 C 0.81557 0.31207 -0.36319
 C418 C 0.81946 0.31012 -0.29488
 C419 C 0.83636 0.32676 -0.26136
 C420 C 0.84959 0.34560 -0.29581
 C421 C 0.84554 0.34737 -0.36453
 C422 C 0.82865 0.33072 -0.39792
 C423 C 0.86752 0.36333 -0.26029
 C424 C 0.87233 0.38416 -0.27202
 C425 C 0.88928 0.40086 -0.23899
 C426 C 0.90167 0.39701 -0.19381
 C427 C 0.89700 0.37636 -0.18161
 C428 C 0.88004 0.35962 -0.21458
 C429 C 0.91922 0.41429 -0.16042
 C430 C 0.93390 0.42896 -0.13306
 H431 H 0.80940 0.29576 -0.26749
 H432 H 0.83890 0.32501 -0.20827
 H433 H 0.85560 0.36154 -0.39272
 H434 H 0.82581 0.33237 -0.45086
 H435 H 0.86283 0.38752 -0.30616
 H436 H 0.89272 0.41678 -0.24867
 H437 H 0.90653 0.37320 -0.14687
 H438 H 0.87691 0.34379 -0.20512
 C439 C 0.50261 -0.21648 -0.43009
 C440 C 0.50277 -0.20208 -0.40003
 C441 C 0.50292 -0.18474 -0.36527
 C442 C 0.51171 -0.17889 -0.30043
 C443 C 0.51193 -0.16198 -0.26694
 C444 C 0.50334 -0.15068 -0.29791
 C445 C 0.49456 -0.15670 -0.36316
 C446 C 0.49436 -0.17360 -0.39654
 C447 C 0.50354 -0.13272 -0.26237
 C448 C 0.48606 -0.12971 -0.26609
 C449 C 0.48629 -0.11275 -0.23299
 C450 C 0.50395 -0.09855 -0.19574
 C451 C 0.52140 -0.10141 -0.19157
 C452 C 0.52120 -0.11838 -0.22459
 C453 C 0.50418 -0.08099 -0.16220
 C454 C 0.50418 -0.06633 -0.13457
 H455 H 0.51835 -0.18743 -0.27569
 H456 H 0.51857 -0.15792 -0.21645
 H457 H 0.48809 -0.14815 -0.38879
 H458 H 0.48757 -0.17795 -0.44681
 H459 H 0.47212 -0.14061 -0.29395
 H460 H 0.47267 -0.11073 -0.23642
 H461 H 0.53518 -0.09048 -0.16304
 H462 H 0.53500 -0.12009 -0.22143
 C463 C 0.28222 0.49981 -0.42803
 C464 C 0.29644 0.49946 -0.39849
 C465 C 0.31363 0.49899 -0.36496
 C466 C 0.32506 0.49123 -0.39921
 C467 C 0.34189 0.49091 -0.36722
 C468 C 0.34753 0.49832 -0.30034
 C469 C 0.33592 0.50606 -0.26630
 C470 C 0.31910 0.50640 -0.29846
 C471 C 0.36543 0.49795 -0.26627
 C472 C 0.36411 0.49231 -0.19751
 C473 C 0.38093 0.49193 -0.16557
 C474 C 0.39930 0.49718 -0.20178
 C475 C 0.40078 0.50283 -0.27015
 C476 C 0.38397 0.50321 -0.30223
 C477 C 0.41662 0.49683 -0.16868
 C478 C 0.43110 0.49658 -0.14058
 H479 H 0.32092 0.48539 -0.45064
 H480 H 0.35032 0.48459 -0.39450
 H481 H 0.34003 0.51212 -0.21515
 H482 H 0.31043 0.51251 -0.27155
 H483 H 0.34997 0.48792 -0.16866
 H484 H 0.37958 0.48749 -0.11265
 H485 H 0.41495 0.50700 -0.29864
 H486 H 0.38560 0.50789 -0.35492
 C487 C 1.21578 0.71694 -0.43092
 C488 C 1.20154 0.70246 -0.40142
 C489 C 1.18431 0.68500 -0.36754
 C490 C 1.17605 0.68821 -0.30772
 C491 C 1.15908 0.67130 -0.27555
 C492 C 1.15012 0.65090 -0.30285
 C493 C 1.15859 0.64784 -0.36293
 C494 C 1.17556 0.66477 -0.39500
 C495 C 1.13197 0.63294 -0.26895
 C496 C 1.13075 0.61324 -0.26454
 C497 C 1.11369 0.59638 -0.23248
 C498 C 1.09759 0.59896 -0.20448
 C499 C 1.09863 0.61847 -0.20872
 C500 C 1.11568 0.63535 -0.24070
 C501 C 1.08009 0.58165 -0.17103
 C502 C 1.06545 0.56723 -0.14267
 H503 H 1.18271 0.70379 -0.28596
 H504 H 1.15311 0.67414 -0.22892
 H505 H 1.15189 0.63240 -0.38573
 H506 H 1.18178 0.66211 -0.44144
 H507 H 1.14315 0.61094 -0.28501
 H508 H 1.11309 0.58137 -0.22929
 H509 H 1.08624 0.62064 -0.18736
 H510 H 1.11599 0.65022 -0.24407
 C511 C 0.78573 0.50648 -0.42560
 C512 C 0.80000 0.50647 -0.39541
 C513 C 0.81722 0.50645 -0.36075
 C514 C 0.81457 0.49842 -0.29495
 C515 C 0.83128 0.49818 -0.26175
 C516 C 0.85086 0.50594 -0.29410
 C517 C 0.85336 0.51404 -0.36022
 C518 C 0.83664 0.51429 -0.39325
 C519 C 0.86857 0.50552 -0.25925
 C520 C 0.88174 0.50007 -0.29509
 C521 C 0.89846 0.49973 -0.26240
 C522 C 0.90225 0.50483 -0.19354
 C523 C 0.88923 0.51023 -0.15735
 C524 C 0.87248 0.51057 -0.18994
 C525 C 0.91953 0.50453 -0.16023
 C526 C 0.93407 0.50422 -0.13298
 H527 H 0.79957 0.49224 -0.26946
 H528 H 0.82879 0.49161 -0.21123
 H529 H 0.86830 0.52039 -0.38610
 H530 H 0.83887 0.52060 -0.44412
 H531 H 0.87896 0.49582 -0.34821
 H532 H 0.90841 0.49546 -0.29082
 H533 H 0.89206 0.51425 -0.10405
 H534 H 0.86277 0.51506 -0.16119
 C535 C 0.49673 0.28040 -0.42529
 C536 C 0.49639 0.29451 -0.39517
 C537 C 0.49603 0.31159 -0.36071
 C538 C 0.49603 0.31232 -0.28981
 C539 C 0.49580 0.32903 -0.25656
 C540 C 0.49560 0.34525 -0.29391
 C541 C 0.49556 0.34433 -0.36518
 C542 C 0.49575 0.32760 -0.39829
 C543 C 0.49551 0.36309 -0.25876
 C544 C 0.50781 0.38371 -0.28321
 C545 C 0.50766 0.40050 -0.25036
 C546 C 0.49522 0.39693 -0.19272
 C547 C 0.48295 0.37649 -0.16787
 C548 C 0.48309 0.35966 -0.20062
 C549 C 0.49505 0.41427 -0.15934
 C550 C 0.49508 0.42896 -0.13198
 H551 H 0.49629 0.30003 -0.26026
 H552 H 0.49610 0.32943 -0.20168
 H553 H 0.49511 0.35641 -0.39533
 H554 H 0.49565 0.32712 -0.45320
 H555 H 0.51775 0.38689 -0.32727
 H556 H 0.51727 0.41627 -0.26987
 H557 H 0.47322 0.37355 -0.12336
 H558 H 0.47327 0.34395 -0.18107
 C559 C 0.71729 0.21563 -0.42649
 C560 C 0.70279 0.20144 -0.39703
 C561 C 0.68530 0.18426 -0.36344
 C562 C 0.66520 0.17525 -0.39206
 C563 C 0.64822 0.15824 -0.36041
 C564 C 0.65115 0.15000 -0.29965
 C565 C 0.67141 0.15923 -0.27114
 C566 C 0.68837 0.17624 -0.30290
 C567 C 0.63318 0.13178 -0.26635
 C568 C 0.63571 0.11565 -0.23761
 C569 C 0.61881 0.09851 -0.20619
 C570 C 0.59917 0.09724 -0.20306
 C571 C 0.59646 0.11317 -0.23157
 C572 C 0.61335 0.13033 -0.26307
 C573 C 0.58186 0.07969 -0.17006
 C574 C 0.56745 0.06502 -0.14196
 H575 H 0.66268 0.18129 -0.43909
 H576 H 0.63288 0.15131 -0.38406
 H577 H 0.67411 0.15342 -0.22397
 H578 H 0.70386 0.18311 -0.28032
 H579 H 0.65070 0.11616 -0.24016
 H580 H 0.62106 0.08623 -0.18438
 H581 H 0.58134 0.11238 -0.22918
 H582 H 0.61097 0.14261 -0.28400
 C583 C 1.21711 0.49982 -0.42781
 C584 C 1.20260 0.49950 -0.39825
 C585 C 1.18499 0.49910 -0.36502
 C586 C 1.16771 0.49620 -0.40335
 C587 C 1.15055 0.49587 -0.37154
 C588 C 1.15046 0.49839 -0.30085
 C589 C 1.16791 0.50127 -0.26274
 C590 C 1.18509 0.50164 -0.29471
 C591 C 1.13221 0.49799 -0.26706
 C592 C 1.12461 0.48740 -0.20511
 C593 C 1.10738 0.48698 -0.17341
 C594 C 1.09756 0.49713 -0.20316
 C595 C 1.10501 0.50772 -0.26472
 C596 C 1.12222 0.50815 -0.29655
 C597 C 1.07994 0.49679 -0.17020
 C598 C 1.06526 0.49656 -0.14212
 H599 H 1.16746 0.49412 -0.45780
 H600 H 1.13723 0.49335 -0.40210
 H601 H 1.16840 0.50352 -0.20837
 H602 H 1.19843 0.50395 -0.26466
 H603 H 1.13181 0.47921 -0.18163
 H604 H 1.10171 0.47871 -0.12578
 H605 H 1.09756 0.51571 -0.28799
 H606 H 1.12789 0.51665 -0.34376
 C607 C 0.50106 0.71684 -0.42706
 C608 C 0.50065 0.70235 -0.39725
 C609 C 0.50022 0.68483 -0.36344
 C610 C 0.50901 0.68734 -0.29881
 C611 C 0.50895 0.67036 -0.26670
 C612 C 0.50012 0.65067 -0.29900
 C613 C 0.49125 0.64832 -0.36391
 C614 C 0.49131 0.66530 -0.39586
 C615 C 0.50027 0.63270 -0.26533
 C616 C 0.50472 0.61905 -0.30267
 C617 C 0.50498 0.60220 -0.27084
 C618 C 0.50079 0.59877 -0.20141
 C619 C 0.49629 0.61223 -0.16385
 C620 C 0.49604 0.62910 -0.19556
 C621 C 0.50117 0.58152 -0.16858
 C622 C 0.50150 0.56712 -0.14064
 H623 H 0.51604 0.70243 -0.27347
 H624 H 0.51613 0.67272 -0.21713
 H625 H 0.48410 0.63329 -0.38967
 H626 H 0.48443 0.66321 -0.44589
 H627 H 0.50831 0.62159 -0.35624
 H628 H 0.50854 0.59190 -0.30029
 H629 H 0.49297 0.60967 -0.11009
 H630 H 0.49229 0.63918 -0.16569
 C631 C 0.28181 -0.21566 -0.42957
 C632 C 0.29588 -0.20134 -0.39906
 C633 C 0.31287 -0.18409 -0.36396
 C634 C 0.31055 -0.18001 -0.29616
 C635 C 0.32711 -0.16318 -0.26225
 C636 C 0.34620 -0.15023 -0.29585
 C637 C 0.34834 -0.15446 -0.36408
 C638 C 0.33177 -0.17129 -0.39785
 C639 C 0.36383 -0.13239 -0.25997
 C640 C 0.38462 -0.12803 -0.26963
 C641 C 0.40125 -0.11111 -0.23635
 C642 C 0.39735 -0.09836 -0.19301
 C643 C 0.37674 -0.10260 -0.18280
 C644 C 0.36006 -0.11951 -0.21605
 C645 C 0.41456 -0.08085 -0.15952
 C646 C 0.42920 -0.06621 -0.13211
 H647 H 0.29598 -0.18987 -0.26948
 H648 H 0.32510 -0.16045 -0.20952
 H649 H 0.36274 -0.14460 -0.39156
 H650 H 0.33369 -0.17430 -0.45042
 H651 H 0.38799 -0.13783 -0.30237
 H652 H 0.41716 -0.10799 -0.24444
 H653 H 0.37357 -0.09277 -0.14945
 H654 H 0.34426 -0.12233 -0.20826
 C655 C 0.50331 -0.21557 0.42486
 C656 C 0.50379 -0.20113 0.39449
 C657 C 0.50432 -0.18370 0.35970
 C658 C 0.50949 -0.16526 0.39529
 C659 C 0.50974 -0.14837 0.36201
 C660 C 0.50483 -0.14971 0.29257
 C661 C 0.49976 -0.16829 0.25714
 C662 C 0.49948 -0.18519 0.29058
 C663 C 0.50487 -0.13185 0.25742
 C664 C 0.51316 -0.12607 0.19159
 C665 C 0.51317 -0.10922 0.15865
 C666 C 0.50489 -0.09799 0.19104
 C667 C 0.49658 -0.10364 0.25643
 C668 C 0.49656 -0.12046 0.28946
 C669 C 0.50486 -0.08067 0.15736
 C670 C 0.50469 -0.06613 0.12982
 H671 H 0.51333 -0.16395 0.44878
 H672 H 0.51398 -0.13417 0.39041
 H673 H 0.49566 -0.16988 0.20388
 H674 H 0.49540 -0.19944 0.26267
 H675 H 0.51988 -0.13439 0.16597
 H676 H 0.51968 -0.10493 0.10806
 H677 H 0.49006 -0.09508 0.28181
 H678 H 0.48981 -0.12472 0.33972
 C679 C 0.28343 0.50066 0.42730
 C680 C 0.29778 0.50068 0.39768
 C681 C 0.31509 0.50061 0.36404
 C682 C 0.31293 0.49338 0.29726
 C683 C 0.32969 0.49297 0.26513
 C684 C 0.34882 0.49979 0.29952
 C685 C 0.35084 0.50709 0.36661
 C686 C 0.33406 0.50749 0.39860
 C687 C 0.36656 0.49919 0.26570
 C688 C 0.38729 0.51580 0.27408
 C689 C 0.40399 0.51521 0.24217
 C690 C 0.40018 0.49803 0.20162
 C691 C 0.37963 0.48142 0.19302
 C692 C 0.36291 0.48198 0.22483
 C693 C 0.41732 0.49751 0.16831
 C694 C 0.43165 0.49712 0.13997
 H695 H 0.29830 0.48804 0.27009
 H696 H 0.32776 0.48752 0.21319
 H697 H 0.36527 0.51218 0.39468
 H698 H 0.33585 0.51305 0.45042
 H699 H 0.39056 0.52938 0.30453
 H700 H 0.41984 0.52819 0.24890
 H701 H 0.37653 0.46803 0.16178
 H702 H 0.34716 0.46884 0.21815
 C703 C 1.21589 0.71718 0.42284
 C704 C 1.20161 0.70274 0.39346
 C705 C 1.18427 0.68528 0.36031
 C706 C 1.18444 0.68280 0.29004
 C707 C 1.16749 0.66580 0.25808
 C708 C 1.15018 0.65106 0.29618
 C709 C 1.15021 0.65369 0.36684
 C710 C 1.16715 0.67071 0.39864
 C711 C 1.13212 0.63309 0.26235
 C712 C 1.12242 0.61298 0.29188
 C713 C 1.10530 0.59610 0.26016
 C714 C 1.09766 0.59910 0.19869
 C715 C 1.10721 0.61902 0.16887
 C716 C 1.12435 0.63592 0.20044
 C717 C 1.08004 0.58177 0.16605
 C718 C 1.06533 0.56733 0.13819
 H719 H 1.19766 0.69397 0.25999
 H720 H 1.16802 0.66404 0.20373
 H721 H 1.13700 0.64276 0.39738
 H722 H 1.16685 0.67256 0.45306
 H723 H 1.12822 0.61027 0.33906
 H724 H 1.09805 0.58071 0.28351
 H725 H 1.10138 0.62150 0.12133
 H726 H 1.13131 0.65126 0.17695
 C727 C 0.49850 0.21543 0.42930
 C728 C 0.49881 0.20130 0.39926
 C729 C 0.49911 0.18417 0.36488
 C730 C 0.48560 0.17425 0.31018
 C731 C 0.48553 0.15726 0.27791
 C732 C 0.49899 0.14997 0.30006
 C733 C 0.51259 0.16013 0.35494
 C734 C 0.51263 0.17712 0.38711
 C735 C 0.49875 0.13177 0.26634
 C736 C 0.51762 0.13177 0.25377
 C737 C 0.51735 0.11462 0.22190
 C738 C 0.49824 0.09727 0.20227
 C739 C 0.47939 0.09709 0.21468
 C740 C 0.47962 0.11422 0.24649
 C741 C 0.49796 0.07973 0.16880
 C742 C 0.49768 0.06506 0.14033
 H743 H 0.47508 0.17959 0.29257
 H744 H 0.47508 0.14994 0.23526
 H745 H 0.52293 0.15473 0.37372
 H746 H 0.52309 0.18465 0.42963
 H747 H 0.53260 0.14514 0.26771
 H748 H 0.53204 0.11494 0.21229
 H749 H 0.46450 0.08372 0.19979
 H750 H 0.46482 0.11363 0.25632
 C751 C 0.71980 0.50639 0.42906
 C752 C 0.70553 0.50632 0.39866
 C753 C 0.68830 0.50622 0.36362
 C754 C 0.67475 0.51114 0.39872
 C755 C 0.65786 0.51087 0.36512
 C756 C 0.65432 0.50570 0.29582
 C757 C 0.66808 0.50084 0.26092
 C758 C 0.68495 0.50109 0.29468
 C759 C 0.63630 0.50531 0.26023
 C760 C 0.63863 0.51332 0.19405
 C761 C 0.62166 0.51305 0.16083
 C762 C 0.60217 0.50474 0.19324
 C763 C 0.59968 0.49668 0.25894
 C764 C 0.61662 0.49696 0.29227
 C765 C 0.58472 0.50454 0.15936
 C766 C 0.56997 0.50429 0.13164
 H767 H 0.67725 0.51521 0.45205
 H768 H 0.64771 0.51496 0.39315
 H769 H 0.66562 0.49655 0.20779
 H770 H 0.69532 0.49719 0.26711
 H771 H 0.65364 0.52008 0.16837
 H772 H 0.62376 0.51937 0.11001
 H773 H 0.58464 0.49015 0.28440
 H774 H 0.61426 0.49041 0.34280
 C775 C 0.78489 0.28137 0.42676
 C776 C 0.79931 0.29538 0.39644
 C777 C 0.81670 0.31228 0.36151
 C778 C 0.83623 0.32347 0.39373
 C779 C 0.85311 0.34012 0.36041
 C780 C 0.85067 0.34577 0.29429
 C781 C 0.83099 0.33436 0.26223
 C782 C 0.81411 0.31773 0.29571
 C783 C 0.86855 0.36358 0.25912
 C784 C 0.87222 0.36224 0.18974
 C785 C 0.88907 0.37904 0.15677
 C786 C 0.90243 0.39739 0.19265
 C787 C 0.89889 0.39888 0.26161
 C788 C 0.88208 0.38210 0.29468
 C789 C 0.91974 0.41473 0.15886
 C790 C 0.93427 0.42939 0.13114
 H791 H 0.83841 0.31933 0.44460
 H792 H 0.86812 0.34841 0.38608
 H793 H 0.82854 0.33850 0.21173
 H794 H 0.79903 0.30921 0.27044
 H795 H 0.86224 0.34810 0.16120
 H796 H 0.89169 0.37771 0.10338
 H797 H 0.90910 0.41305 0.28979
 H798 H 0.87949 0.38373 0.34785
   
