data_POSCAR
  _audit_creation_date              2014-09-24
  _audit_creation_method            'ToBaCCo'
  _symmetry_space_group_name_H-M    'P1'
  _symmetry_Int_Tables_number       1
  _symmetry_cell_setting            triclinic
  loop_
  _symmetry_equiv_pos_as_xyz
 x,y,z
_cell_length_a 21.5339
_cell_length_b 21.5931
_cell_length_c 36.4479
_cell_angle_alpha 89.982400
_cell_angle_beta 93.900100
_cell_angle_gamma 89.940800
loop_
  _atom_site_label
  _atom_site_type_symbol
  _atom_site_fract_x
  _atom_site_fract_y
  _atom_site_fract_z
C1 C -0.00091 0.66552 0.99997
 C2 C -0.01303 0.63332 1.03189
 C3 C -0.01489 0.56845 1.03167
 C4 C -0.00099 0.53453 0.99996
 C5 C 0.01295 0.56844 0.96826
 C6 C 0.01118 0.63332 0.96805
 C7 C -0.00102 0.46469 0.99996
 C8 C -0.00551 0.43077 0.96658
 C9 C -0.00374 0.36595 0.96673
 C10 C -0.00105 0.33381 0.99995
 C11 C 0.00166 0.36590 1.03318
 C12 C 0.00345 0.43072 1.03334
 H13 H -0.00086 0.71583 0.99998
 H14 H -0.02759 0.54536 1.05636
 H15 H 0.02563 0.54534 0.94357
 H16 H -0.01075 0.45367 0.94021
 H17 H -0.00105 0.28354 0.99995
 H18 H 0.00871 0.45358 1.05971
 C19 C 0.33617 0.01227 0.50261
 C20 C 0.37364 0.00484 0.53502
 C21 C 0.43852 0.00366 0.53401
 C22 C 0.46714 0.01335 0.50059
 C23 C 0.42788 0.02255 0.46823
 C24 C 0.36304 0.02019 0.46920
 C25 C 0.53699 0.01332 0.49946
 C26 C 0.56560 0.00360 0.46605
 C27 C 0.63051 0.00477 0.46500
 C28 C 0.66801 0.01214 0.49744
 C29 C 0.64111 0.02005 0.53088
 C30 C 0.57621 0.02248 0.53183
 H31 H 0.28588 0.01156 0.50336
 H32 H 0.46564 -0.00549 0.55945
 H33 H 0.44666 0.03170 0.44204
 H34 H 0.53830 -0.00554 0.44066
 H35 H 0.71836 0.01140 0.49669
 H36 H 0.55723 0.03168 0.55797
 C37 C 0.09874 0.00384 0.26858
 H38 H 0.10321 0.00277 0.23920
 C39 C 0.15185 0.00960 0.29270
 H40 H 0.19745 0.01237 0.28197
 C41 C 0.03398 0.00282 0.31867
 H42 H -0.01191 0.00146 0.32882
 C43 C 0.08563 0.00858 0.34362
 H44 H 0.07923 0.01065 0.37283
 N45 N 0.04129 -0.00013 0.28191
 C46 C -0.08323 -0.08997 0.19848
 H47 H -0.12234 -0.05853 0.19875
 C48 C -0.08550 -0.14016 0.17433
 H49 H -0.12638 -0.14737 0.15583
 C50 C 0.01893 -0.11753 0.22120
 H51 H 0.05961 -0.10837 0.23935
 C52 C 0.01860 -0.16833 0.19740
 H53 H 0.05931 -0.19778 0.19703
 Zn54 Zn -0.03026 -0.00481 0.24866
 N55 N -0.03092 -0.07862 0.22054
 C56 C -0.02701 0.05492 0.17997
 N57 N -0.02849 0.06458 0.21681
 C58 C -0.02417 0.12274 0.23123
 C59 C -0.01902 0.17411 0.20817
 C60 C -0.02197 0.10476 0.15607
 C61 C -0.11168 -0.05707 0.29573
 C62 C -0.16010 -0.05943 0.31923
 C63 C -0.19110 0.04348 0.29926
 C64 C -0.14202 0.04389 0.27600
 N65 N -0.10252 -0.00532 0.27548
 H66 H -0.02853 0.00854 0.16898
 H67 H -0.02395 0.12910 0.26068
 H68 H -0.01546 0.22024 0.21978
 H69 H -0.02063 0.09642 0.12682
 H70 H -0.07973 -0.09562 0.29461
 H71 H -0.16543 -0.09985 0.33635
 H72 H -0.22089 0.08373 0.30071
 H73 H -0.13447 0.08420 0.25934
 C74 C -0.03371 -0.17904 0.17332
 C75 C 0.14506 0.01191 0.33059
 C76 C -0.19946 -0.00829 0.32152
 C77 C -0.01781 0.16482 0.17023
 C78 C 0.02336 0.12298 0.76878
 H79 H 0.02357 0.12938 0.73935
 C80 C 0.01795 0.17432 0.79182
 H81 H 0.01461 0.22049 0.78021
 C82 C 0.02543 0.05507 0.82000
 H83 H 0.02677 0.00866 0.83099
 C84 C 0.02011 0.10488 0.84388
 H85 H 0.01838 0.09651 0.87311
 N86 N 0.02744 0.06478 0.78320
 C87 C 0.11191 -0.05685 0.70473
 H88 H 0.07994 -0.09535 0.70568
 C89 C 0.16071 -0.05926 0.68151
 H90 H 0.16632 -0.09967 0.66442
 C91 C 0.14193 0.04404 0.72462
 H92 H 0.13411 0.08433 0.74123
 C93 C 0.19138 0.04357 0.70163
 H94 H 0.22120 0.08377 0.70034
 Zn95 Zn 0.02975 -0.00457 0.75138
 N96 N 0.10242 -0.00512 0.72492
 C97 C -0.03355 0.00318 0.68110
 N98 N -0.04139 0.00015 0.71780
 C99 C -0.09908 0.00404 0.73084
 C100 C -0.15188 0.00976 0.70646
 C101 C -0.08489 0.00891 0.65591
 C102 C 0.08224 -0.08977 0.80178
 C103 C 0.08432 -0.13999 0.82593
 C104 C -0.01946 -0.16816 0.80241
 C105 C -0.01961 -0.11733 0.77862
 N106 N 0.03016 -0.07841 0.77950
 H107 H 0.01251 0.00189 0.67119
 H108 H -0.10397 0.00292 0.76017
 H109 H -0.19767 0.01245 0.71695
 H110 H -0.07807 0.01102 0.62675
 H111 H 0.12130 -0.05831 0.80168
 H112 H 0.12501 -0.14721 0.84460
 H113 H -0.06013 -0.19762 0.80260
 H114 H -0.06010 -0.10816 0.76029
 C115 C 0.20011 -0.00818 0.67943
 C116 C 0.01622 0.16499 0.82973
 C117 C 0.03259 -0.17889 0.82670
 C118 C -0.14455 0.01213 0.66863
 C119 C -0.02108 -0.33416 0.06327
 C120 C -0.02619 -0.30274 0.09024
 C121 C -0.03013 -0.26274 0.12060
 C122 C -0.03223 -0.22596 0.14536
 C123 C 0.00065 0.33107 0.06683
 C124 C -0.00203 0.29813 0.09338
 C125 C -0.00675 0.25549 0.12241
 C126 C -0.01159 0.21581 0.14531
 C127 C 0.34436 -0.00051 0.56924
 C128 C 0.31632 -0.00345 0.59670
 C129 C 0.27957 -0.00561 0.62729
 C130 C 0.24502 -0.00687 0.65195
 C131 C -0.32112 0.02268 0.56241
 C132 C -0.28488 0.02277 0.58913
 C133 C -0.23912 0.02058 0.61871
 C134 C -0.19737 0.01727 0.64240
 C135 C 0.01932 -0.33414 0.93668
 C136 C 0.02454 -0.30270 0.90973
 C137 C 0.02863 -0.26267 0.87938
 C138 C 0.03090 -0.22586 0.85464
 C139 C -0.00268 0.33115 0.93308
 C140 C 0.00007 0.29825 0.90653
 C141 C 0.00489 0.25562 0.87751
 C142 C 0.00985 0.21596 0.85463
 C143 C -0.34190 -0.00028 0.43256
 C144 C -0.31428 -0.00332 0.40493
 C145 C -0.27804 -0.00559 0.37412
 C146 C -0.24390 -0.00692 0.34926
 C147 C 0.32301 0.02301 0.43595
 C148 C 0.28642 0.02294 0.40941
 C149 C 0.24025 0.02058 0.38005
 C150 C 0.19820 0.01716 0.35656
   
