data_POSCAR
  _audit_creation_date              2014-09-24
  _audit_creation_method            'ToBaCCo'
  _symmetry_space_group_name_H-M    'P1'
  _symmetry_Int_Tables_number       1
  _symmetry_cell_setting            triclinic
  loop_
  _symmetry_equiv_pos_as_xyz
 x,y,z
_cell_length_a 32.9678
_cell_length_b 32.5334
_cell_length_c 32.9912
_cell_angle_alpha 89.902300
_cell_angle_beta 89.983600
_cell_angle_gamma 89.992800
loop_
  _atom_site_label
  _atom_site_type_symbol
  _atom_site_fract_x
  _atom_site_fract_y
  _atom_site_fract_z
N1 N 0.57765 0.68968 0.60734
 N2 N 0.56135 0.67238 0.63953
 C3 C 0.52838 0.69410 0.65070
 C4 C 0.52407 0.72645 0.62403
 C5 C 0.55564 0.72292 0.59690
 H6 H 0.50898 0.68704 0.67620
 H7 H 0.56208 0.74300 0.57154
 Cu8 Cu 0.58483 0.62324 0.66369
 Cu9 Cu 0.62610 0.66786 0.58138
 Cu10 Cu 0.66952 0.58124 0.62475
 N11 N 0.61006 0.57519 0.68820
 N12 N 0.64320 0.55891 0.67281
 C13 C 0.65424 0.52622 0.69535
 C14 C 0.62649 0.52205 0.72632
 C15 C 0.59886 0.55340 0.72114
 H16 H 0.68038 0.50698 0.68965
 H17 H 0.57269 0.55976 0.73989
 N18 N 0.69169 0.60828 0.57606
 N19 N 0.67514 0.64128 0.55954
 C20 C 0.69707 0.65233 0.52680
 C21 C 0.72868 0.62498 0.52278
 C22 C 0.72458 0.59746 0.55427
 H23 H 0.69060 0.67824 0.50728
 H24 H 0.74409 0.57154 0.56069
 H25 H 0.61830 0.60755 0.59958
 H26 H 0.64982 0.64099 0.63305
 N27 N 0.92299 0.30950 0.10722
 N28 N 0.93883 0.32621 0.13989
 C29 C 0.97169 0.30434 0.15118
 C30 C 0.97635 0.27251 0.12407
 C31 C 0.94516 0.27647 0.09656
 H32 H 0.99076 0.31099 0.17702
 H33 H 0.93907 0.25687 0.07082
 Cu34 Cu 0.91489 0.37489 0.16433
 Cu35 Cu 0.87487 0.33178 0.08092
 Cu36 Cu 0.83174 0.41860 0.12406
 N37 N 0.89046 0.42358 0.18827
 N38 N 0.85790 0.44052 0.17233
 C39 C 0.84727 0.47351 0.19453
 C40 C 0.87463 0.47723 0.22585
 C41 C 0.90164 0.44526 0.22120
 H42 H 0.82161 0.49328 0.18838
 H43 H 0.92739 0.43843 0.24036
 N44 N 0.80974 0.39190 0.07521
 N45 N 0.82616 0.35882 0.05878
 C46 C 0.80430 0.34798 0.02598
 C47 C 0.77288 0.37554 0.02180
 C48 C 0.77700 0.40295 0.05328
 H49 H 0.81066 0.32203 0.00655
 H50 H 0.75757 0.42893 0.05964
 H51 H 0.88307 0.39179 0.09970
 H52 H 0.85032 0.35847 0.13217
 N53 N 0.42222 0.19089 -0.10729
 N54 N 0.43816 0.17399 -0.13982
 C55 C 0.47115 0.19568 -0.15102
 C56 C 0.47585 0.22762 -0.12405
 C57 C 0.44448 0.22386 -0.09669
 H58 H 0.49031 0.18888 -0.17676
 H59 H 0.43835 0.24361 -0.07107
 Cu60 Cu 0.41413 0.12534 -0.16421
 Cu61 Cu 0.37387 0.16894 -0.08113
 Cu62 Cu 0.33058 0.08218 -0.12418
 N63 N 0.38960 0.07670 -0.18810
 N64 N 0.35688 0.05997 -0.17226
 C65 C 0.34620 0.02698 -0.19441
 C66 C 0.37370 0.02302 -0.22560
 C67 C 0.40084 0.05486 -0.22091
 H68 H 0.32041 0.00736 -0.18832
 H69 H 0.42671 0.06151 -0.23999
 N70 N 0.30844 0.10916 -0.07551
 N71 N 0.32493 0.14221 -0.05912
 C72 C 0.30299 0.15322 -0.02641
 C73 C 0.27145 0.12580 -0.02228
 C74 C 0.27559 0.09829 -0.05366
 H75 H 0.30939 0.17917 -0.00700
 H76 H 0.25611 0.07235 -0.06000
 H77 H 0.38190 0.10883 -0.09967
 H78 H 0.34947 0.14220 -0.13241
 N79 N 0.07719 0.80865 0.39268
 N80 N 0.06169 0.82506 0.35964
 C81 C 0.02881 0.80324 0.34843
 C82 C 0.02379 0.77174 0.37594
 C83 C 0.05478 0.77584 0.40363
 H84 H 0.00997 0.80970 0.32235
 H85 H 0.06059 0.75650 0.42970
 Cu86 Cu 0.08597 0.87332 0.33458
 Cu87 Cu 0.12518 0.83099 0.41902
 Cu88 Cu 0.16815 0.91797 0.37590
 N89 N 0.10991 0.92265 0.31127
 N90 N 0.14205 0.93996 0.32759
 C91 C 0.15235 0.97332 0.30568
 C92 C 0.12519 0.97693 0.27416
 C93 C 0.09864 0.94450 0.27839
 H94 H 0.17766 0.99342 0.31214
 H95 H 0.07316 0.93744 0.25898
 N96 N 0.19015 0.89120 0.42479
 N97 N 0.17378 0.85805 0.44122
 C98 C 0.19565 0.84715 0.47403
 C99 C 0.22702 0.87474 0.47820
 C100 C 0.22285 0.90224 0.44672
 H101 H 0.18935 0.82111 0.49345
 H102 H 0.24226 0.92825 0.44033
 H103 H 0.11659 0.89082 0.39956
 H104 H 0.15022 0.85765 0.36790
 C105 C 0.09335 0.12566 0.15567
 C106 C 0.06313 0.15602 0.15519
 C107 C 0.06295 0.18622 0.12488
 C108 C 0.09297 0.18634 0.09481
 C109 C 0.12342 0.15622 0.09482
 C110 C 0.12367 0.12571 0.12536
 C111 C 0.09384 0.09526 0.18587
 C112 C 0.12417 0.06509 0.18604
 C113 C 0.15425 0.06507 0.15604
 C114 C 0.15423 0.09524 0.12561
 C115 C 0.18420 0.09552 0.09542
 C116 C 0.18389 0.12580 0.06518
 C117 C 0.15363 0.15603 0.06486
 H118 H 0.03975 0.15620 0.17833
 H119 H 0.09255 0.20986 0.07147
 H120 H 0.07069 0.09500 0.20924
 H121 H 0.17760 0.04158 0.15644
 H122 H 0.20777 0.07225 0.09538
 H123 H 0.15366 0.17934 0.04131
 C124 C 0.40533 0.87477 0.65582
 C125 C 0.43560 0.84447 0.65529
 C126 C 0.43576 0.81435 0.62499
 C127 C 0.40569 0.81427 0.59500
 C128 C 0.37519 0.84434 0.59507
 C129 C 0.37495 0.87476 0.62560
 C130 C 0.40486 0.90508 0.68602
 C131 C 0.37447 0.93519 0.68625
 C132 C 0.34433 0.93525 0.65633
 C133 C 0.34434 0.90517 0.62591
 C134 C 0.31431 0.90494 0.59579
 C135 C 0.31462 0.87475 0.56556
 C136 C 0.34493 0.84457 0.56519
 H137 H 0.45902 0.84425 0.67837
 H138 H 0.40609 0.79081 0.57168
 H139 H 0.42806 0.90531 0.70932
 H140 H 0.32094 0.95870 0.65679
 H141 H 0.29071 0.92817 0.59581
 H142 H 0.34489 0.82133 0.54165
 C143 C 0.90649 0.62527 0.34456
 C144 C 0.93675 0.65558 0.34501
 C145 C 0.93702 0.68564 0.37536
 C146 C 0.90706 0.68567 0.40548
 C147 C 0.87657 0.65559 0.40550
 C148 C 0.87623 0.62522 0.37492
 C149 C 0.90592 0.59500 0.31433
 C150 C 0.87556 0.56489 0.31418
 C151 C 0.84553 0.56477 0.34423
 C152 C 0.84563 0.59480 0.37469
 C153 C 0.81572 0.59498 0.40494
 C154 C 0.81613 0.62512 0.43522
 C155 C 0.84642 0.65531 0.43551
 H156 H 0.96008 0.65583 0.32183
 H157 H 0.90755 0.70909 0.42884
 H158 H 0.92903 0.59482 0.29092
 H159 H 0.82215 0.54131 0.34384
 H160 H 0.79212 0.57174 0.40499
 H161 H 0.84646 0.67851 0.45908
 C162 C 0.59486 0.37568 -0.15611
 C163 C 0.56457 0.34540 -0.15550
 C164 C 0.56432 0.31532 -0.12508
 C165 C 0.59433 0.31524 -0.09502
 C166 C 0.62485 0.34529 -0.09516
 C167 C 0.62517 0.37568 -0.12582
 C168 C 0.59541 0.40596 -0.18643
 C169 C 0.62581 0.43604 -0.18673
 C170 C 0.65589 0.43612 -0.15675
 C171 C 0.65580 0.40607 -0.12620
 C172 C 0.68577 0.40583 -0.09602
 C173 C 0.68538 0.37567 -0.06566
 C174 C 0.65505 0.34552 -0.06522
 H175 H 0.54120 0.34518 -0.17864
 H176 H 0.59387 0.29181 -0.07159
 H177 H 0.57226 0.40617 -0.20978
 H178 H 0.67929 0.45955 -0.15726
 H179 H 0.70939 0.42904 -0.09609
 H180 H 0.65503 0.32230 -0.04158
 C181 C 0.00575 0.24322 0.12437
 C182 C 0.03182 0.21724 0.12461
 C183 C 0.49301 0.75740 0.62439
 C184 C 0.46693 0.78336 0.62468
 C185 C 0.99432 0.74253 0.37576
 C186 C 0.96819 0.71661 0.37559
 C187 C 0.50700 0.25846 -0.12441
 C188 C 0.53313 0.28437 -0.12470
 C189 C 0.12476 0.00798 0.24317
 C190 C 0.12446 0.03402 0.21714
 C191 C 0.62631 0.49288 -0.24415
 C192 C 0.62611 0.46698 -0.21797
 C193 C 0.37399 0.99211 0.74338
 C194 C 0.37421 0.96616 0.71735
 C195 C 0.87493 0.50807 0.25694
 C196 C 0.87521 0.53396 0.28303
 C197 C 0.24063 0.12583 0.00849
 C198 C 0.21476 0.12583 0.03432
 C199 C 0.75947 0.62503 0.49199
 C200 C 0.78530 0.62507 0.46612
 C201 C 0.74210 0.37562 -0.00898
 C202 C 0.71625 0.37566 -0.03482
 C203 C 0.25783 0.87475 0.50897
 C204 C 0.28370 0.87475 0.53477
   
