data_POSCAR
  _audit_creation_date              2014-09-24
  _audit_creation_method            'ToBaCCo'
  _symmetry_space_group_name_H-M    'P1'
  _symmetry_Int_Tables_number       1
  _symmetry_cell_setting            triclinic
  loop_
  _symmetry_equiv_pos_as_xyz
 x,y,z
_cell_length_a 34.5171
_cell_length_b 34.4951
_cell_length_c 38.5216
_cell_angle_alpha 90.090300
_cell_angle_beta 89.953300
_cell_angle_gamma 120.080900
loop_
  _atom_site_label
  _atom_site_type_symbol
  _atom_site_fract_x
  _atom_site_fract_y
  _atom_site_fract_z
O1 O 0.04283 0.55213 1.28335
 O2 O -0.04414 0.50862 1.21550
 O3 O -0.04428 0.50851 1.28313
 O4 O 0.04299 0.55224 1.21573
 O5 O 0.04290 0.48807 1.21561
 O6 O -0.04435 0.44435 1.28301
 O7 O -0.04421 0.44448 1.21538
 O8 O 0.04275 0.48797 1.28323
 Cu9 Cu -0.00065 0.53685 1.24944
 Cu10 Cu -0.00074 0.45974 1.24929
 C11 C 0.05741 0.52736 1.29479
 C12 C -0.05881 0.46923 1.20394
 C13 C -0.05898 0.46908 1.29449
 C14 C 0.05762 0.52750 1.20426
 O15 O 0.44718 0.49168 1.28458
 O16 O 0.49096 0.44832 1.21674
 O17 O 0.49079 0.44817 1.28438
 O18 O 0.44723 0.49167 1.21690
 O19 O 0.51132 0.55592 1.21701
 O20 O 0.55488 0.51242 1.28450
 O21 O 0.55504 0.51257 1.21686
 O22 O 0.51127 0.55591 1.28468
 Cu23 Cu 0.46257 0.46349 1.25065
 Cu24 Cu 0.53958 0.54069 1.25078
 C25 C 0.47186 0.53111 1.29613
 C26 C 0.53037 0.47315 1.20531
 C27 C 0.53017 0.47297 1.29584
 C28 C 0.47196 0.53110 1.20552
 O29 O 0.50825 0.95625 1.28518
 O30 O 0.55205 1.04334 1.21739
 O31 O 0.55198 1.04350 1.28505
 O32 O 0.50832 0.95615 1.21750
 O33 O 0.44426 0.95619 1.21745
 O34 O 0.48793 1.04353 1.28500
 O35 O 0.48801 1.04338 1.21734
 O36 O 0.44421 0.95629 1.28512
 Cu37 Cu 0.53661 0.99980 1.25130
 Cu38 Cu 0.45964 0.99985 1.25123
 C39 C 0.46885 0.94160 1.29663
 C40 C 0.52739 1.05799 1.20587
 C41 C 0.52730 1.05822 1.29646
 C42 C 0.46896 0.94152 1.20602
 O43 O 0.95716 0.51215 0.71561
 O44 O 1.04450 0.55579 0.78305
 O45 O 1.04435 0.55579 0.71537
 O46 O 0.95734 0.51220 0.78328
 O47 O 0.95723 0.44804 0.78315
 O48 O 1.04425 0.49165 0.71523
 O49 O 1.04440 0.49162 0.78291
 O50 O 0.95706 0.44799 0.71547
 Cu51 Cu 1.00085 0.54045 0.74933
 Cu52 Cu 1.00073 0.46336 0.74917
 C53 C 0.94241 0.47273 0.70413
 C54 C 1.05911 0.53103 0.79441
 C55 C 1.05895 0.53107 0.70379
 C56 C 0.94266 0.47280 0.79473
 O57 O 0.48810 0.44441 0.71624
 O58 O 0.44488 0.48835 0.78378
 O59 O 0.44478 0.48815 0.71614
 O60 O 0.48819 0.44462 0.78387
 O61 O 0.55243 0.50872 0.78381
 O62 O 0.50902 0.55225 0.71607
 O63 O 0.50913 0.55246 0.78372
 O64 O 0.55234 0.50852 0.71618
 Cu65 Cu 0.46000 0.45991 0.75002
 Cu66 Cu 0.53722 0.53696 0.74994
 C67 C 0.52749 0.46908 0.70478
 C68 C 0.46974 0.52778 0.79519
 C69 C 0.46959 0.52752 0.70463
 C70 C 0.52762 0.46934 0.79532
 O71 O 0.55522 0.04293 0.71563
 O72 O 0.51190 -0.04424 0.78308
 O73 O 0.51175 -0.04426 0.71543
 O74 O 0.55534 0.04292 0.78327
 O75 O 0.49117 0.04273 0.78341
 O76 O 0.44759 -0.04446 0.71557
 O77 O 0.44772 -0.04443 0.78323
 O78 O 0.49104 0.04273 0.71577
 Cu79 Cu 0.54003 -0.00065 0.74933
 Cu80 Cu 0.46290 -0.00088 0.74950
 C81 C 0.53042 0.05749 0.70429
 C82 C 0.47254 -0.05896 0.79460
 C83 C 0.47233 -0.05903 0.70400
 C84 C 0.53059 0.05748 0.79484
 O85 O 0.40088 0.65618 0.97157
 O86 O 0.39894 0.72965 0.96014
 C87 C 0.37832 0.75061 0.95379
 O88 O 0.34467 0.74494 0.97140
 O89 O 0.27122 0.66937 0.95975
 C90 C 0.25020 0.62770 0.95342
 O91 O 0.25579 0.59974 0.97110
 O92 O 0.33133 0.60186 0.95995
 C93 C 0.37300 0.62254 0.95381
 O94 O 0.39848 0.66935 1.04046
 O95 O 0.40070 0.74493 1.02905
 C96 C 0.37271 0.75059 1.04666
 O97 O 0.33109 0.72959 1.04026
 O98 O 0.25557 0.65609 1.02858
 C99 C 0.24974 0.62243 1.04623
 O100 O 0.27072 0.60178 1.04005
 O101 O 0.34419 0.59973 1.02890
 C102 C 0.37776 0.62768 1.04666
 Cr103 Cr 0.39738 0.69884 1.00030
 Cr104 Cr 0.30183 0.69881 1.00000
 Cr105 Cr 0.30170 0.60315 1.00000
 O106 O 0.33363 0.66693 1.00011
 O107 O 0.60177 0.33103 0.96035
 O108 O 0.59971 0.25540 0.97140
 C109 C 0.62757 0.24939 0.95391
 O110 O 0.66919 0.27024 0.96030
 O111 O 0.74486 0.34395 0.97127
 C112 C 0.75092 0.37786 0.95382
 O113 O 0.73015 0.39868 0.96028
 O114 O 0.65654 0.40062 0.97136
 C115 C 0.62261 0.37266 0.95393
 O116 O 0.59983 0.34396 1.02937
 O117 O 0.60180 0.27035 1.04043
 C118 C 0.62259 0.24957 1.04684
 O119 O 0.65647 0.25558 1.02936
 O120 O 0.73015 0.33131 1.04031
 C121 C 0.75097 0.37297 1.04673
 O122 O 0.74494 0.40082 1.02931
 O123 O 0.66934 0.39880 1.04039
 C124 C 0.62771 0.37796 1.04680
 Cr125 Cr 0.60322 0.30141 1.00038
 Cr126 Cr 0.69895 0.30149 1.00031
 Cr127 Cr 0.69902 0.39729 1.00033
 O128 O 0.66707 0.33340 1.00035
 O129 O 0.65559 0.39998 0.52855
 O130 O 0.72904 0.39798 0.53987
 C131 C 0.75006 0.37738 0.54603
 O132 O 0.74428 0.34371 0.52833
 O133 O 0.66869 0.27020 0.53972
 C134 C 0.62704 0.24914 0.54597
 O135 O 0.59912 0.25480 0.52832
 O136 O 0.60121 0.33034 0.53983
 C137 C 0.62191 0.37201 0.54615
 O138 O 0.66874 0.39798 0.45964
 O139 O 0.74423 0.40006 0.47095
 C140 C 0.74988 0.37212 0.45322
 O141 O 0.72889 0.33045 0.45944
 O142 O 0.65543 0.25482 0.47084
 C143 C 0.62178 0.24904 0.45319
 O144 O 0.60119 0.27007 0.45944
 O145 O 0.59916 0.34356 0.47096
 C146 C 0.62709 0.37732 0.45340
 Cr147 Cr 0.69821 0.39662 0.49975
 Cr148 Cr 0.69813 0.30098 0.49958
 Cr149 Cr 0.60255 0.30089 0.49963
 O150 O 0.66630 0.33283 0.49965
 O151 O 0.33099 0.60160 0.53983
 O152 O 0.25535 0.59951 0.52896
 C153 C 0.24934 0.62739 0.54646
 O154 O 0.27020 0.66904 0.54009
 O155 O 0.34388 0.74473 0.52906
 C156 C 0.37785 0.75080 0.54641
 O157 O 0.39864 0.73003 0.53986
 O158 O 0.40049 0.65634 0.52869
 C159 C 0.37262 0.62243 0.54617
 O160 O 0.34360 0.59951 0.47077
 O161 O 0.27001 0.60151 0.45990
 C162 C 0.24926 0.62234 0.45356
 O163 O 0.25535 0.65629 0.47105
 O164 O 0.33099 0.73002 0.46001
 C165 C 0.37260 0.75084 0.45353
 O166 O 0.40048 0.74475 0.47085
 O167 O 0.39834 0.66905 0.45968
 C168 C 0.37750 0.62738 0.45328
 Cr169 Cr 0.30121 0.60298 0.49987
 Cr170 Cr 0.30133 0.69879 0.50005
 Cr171 Cr 0.39704 0.69882 0.49977
 O172 O 0.33319 0.66687 0.49989
 C173 C 0.42532 0.57776 0.37096
 C174 C 0.38753 0.54814 0.39017
 C175 C 0.37182 0.56425 0.41683
 C176 C 0.45590 0.54697 0.32134
 C177 C 0.43163 0.63986 0.40505
 C178 C 0.44726 0.62365 0.37841
 C179 C 0.44188 0.56103 0.34387
 C180 C 0.39377 0.61033 0.42468
 H181 H 0.37028 0.51255 0.38463
 H182 H 0.34258 0.54057 0.43134
 H183 H 0.44933 0.67550 0.41034
 H184 H 0.47656 0.64690 0.36372
 C185 C 0.42204 0.84841 0.37138
 C186 C 0.45164 0.84014 0.39044
 C187 C 0.43559 0.80830 0.41704
 C188 C 0.45285 0.90978 0.32182
 C189 C 0.36006 0.79265 0.40554
 C190 C 0.37622 0.82452 0.37894
 C191 C 0.43874 0.88170 0.34432
 C192 C 0.38958 0.78423 0.42500
 H193 H 0.48718 0.85843 0.38481
 H194 H 0.45926 0.80267 0.43142
 H195 H 0.32447 0.77475 0.41091
 H196 H 0.35298 0.83065 0.36437
 C197 C 0.15207 0.57456 0.37118
 C198 C 0.16026 0.61236 0.39043
 C199 C 0.19198 0.62804 0.41713
 C200 C 0.09095 0.54412 0.32146
 C201 C 0.20761 0.56817 0.40531
 C202 C 0.17586 0.55257 0.37863
 C203 C 0.11892 0.55807 0.34404
 C204 C 0.21597 0.60604 0.42498
 H205 H 0.14202 0.62963 0.38489
 H206 H 0.19758 0.65729 0.43168
 H207 H 0.22546 0.55045 0.41059
 H208 H 0.16978 0.52326 0.36389
 C209 C 0.57773 0.42542 0.37155
 C210 C 0.54802 0.38772 0.39078
 C211 C 0.56406 0.37190 0.41730
 C212 C 0.54700 0.45613 0.32228
 C213 C 0.63975 0.43144 0.40529
 C214 C 0.62360 0.44718 0.37878
 C215 C 0.56106 0.44207 0.34466
 C216 C 0.61013 0.39367 0.42495
 H217 H 0.51243 0.37065 0.38538
 H218 H 0.54034 0.34273 0.43186
 H219 H 0.67539 0.44897 0.41044
 H220 H 0.64687 0.47641 0.36404
 C221 C 0.57388 0.15161 0.37099
 C222 C 0.55216 0.17573 0.37826
 C223 C 0.56783 0.20760 0.40488
 C224 C 0.54324 0.09013 0.32155
 C225 C 0.62722 0.19142 0.41695
 C226 C 0.61147 0.15958 0.39032
 C227 C 0.55728 0.11828 0.34400
 C228 C 0.60548 0.21572 0.42463
 H229 H 0.52301 0.16979 0.36344
 H230 H 0.55033 0.22572 0.41005
 H231 H 0.65631 0.19686 0.43158
 H232 H 0.62852 0.14106 0.38489
 C233 C 0.84645 0.42150 0.37066
 C234 C 0.83870 0.45122 0.39011
 C235 C 0.80715 0.43517 0.41689
 C236 C 0.90746 0.45224 0.32103
 C237 C 0.79085 0.35946 0.40470
 C238 C 0.82243 0.37562 0.37793
 C239 C 0.87950 0.43817 0.34355
 C240 C 0.78294 0.38909 0.42458
 H241 H 0.85717 0.48682 0.38467
 H242 H 0.80186 0.45889 0.43161
 H243 H 0.77278 0.32381 0.40987
 H244 H 0.82823 0.35235 0.36302
 C245 C 0.57817 0.42595 1.12906
 C246 C 0.62401 0.44797 1.12157
 C247 C 0.64021 0.43231 1.09494
 C248 C 0.54729 0.45642 1.17868
 C249 C 0.56467 0.37229 1.08324
 C250 C 0.54858 0.38803 1.10988
 C251 C 0.56142 0.44248 1.15615
 C252 C 0.61070 0.39432 1.07536
 H253 H 0.64723 0.47737 1.13624
 H254 H 0.67581 0.45007 1.08964
 H255 H 0.54101 0.34295 1.06877
 H256 H 0.51302 0.37071 1.11544
 C257 C 0.84824 0.42256 1.12906
 C258 C 0.84012 0.45218 1.10988
 C259 C 0.80837 0.43609 1.08321
 C260 C 0.90944 0.45334 1.17872
 C261 C 0.79255 0.36049 1.09489
 C262 C 0.82433 0.37669 1.12155
 C263 C 0.88143 0.43928 1.15616
 C264 C 0.78427 0.39002 1.07530
 H265 H 0.85846 0.48776 1.11547
 H266 H 0.80283 0.45976 1.06872
 H267 H 0.77462 0.32486 1.08956
 H268 H 0.83036 0.35346 1.13622
 C269 C 0.57478 0.15257 1.12938
 C270 C 0.61251 0.16064 1.11014
 C271 C 0.62820 0.19229 1.08339
 C272 C 0.54424 0.09152 1.17917
 C273 C 0.56849 0.20812 1.09513
 C274 C 0.55288 0.17645 1.12185
 C275 C 0.55825 0.11947 1.15657
 C276 C 0.60629 0.21635 1.07548
 H277 H 0.62972 0.14235 1.11573
 H278 H 0.65740 0.19779 1.06887
 H279 H 0.55083 0.22602 1.08980
 H280 H 0.52363 0.17047 1.13657
 C281 C 0.42492 0.57842 1.12925
 C282 C 0.38749 0.54865 1.10976
 C283 C 0.37198 0.56464 1.08298
 C284 C 0.45522 0.54784 1.17893
 C285 C 0.43131 0.64041 1.09524
 C286 C 0.44673 0.62431 1.12200
 C287 C 0.44131 0.56182 1.15638
 C288 C 0.39381 0.61073 1.07532
 H289 H 0.37039 0.51304 1.11516
 H290 H 0.34302 0.54088 1.06823
 H291 H 0.44887 0.67606 1.09010
 H292 H 0.47576 0.64763 1.13694
 C293 C 0.15254 0.57482 1.12835
 C294 C 0.17658 0.55302 1.12113
 C295 C 0.20836 0.56858 1.09451
 C296 C 0.09127 0.54434 1.17778
 C297 C 0.19224 0.62802 1.08236
 C298 C 0.16048 0.61238 1.10900
 C299 C 0.11933 0.55833 1.15534
 C300 C 0.21646 0.60620 1.07473
 H301 H 0.17064 0.52389 1.13597
 H302 H 0.22644 0.55103 1.08937
 H303 H 0.19767 0.65709 1.06771
 H304 H 0.14200 0.62947 1.11440
 C305 C 0.42167 0.84708 1.12951
 C306 C 0.45145 0.83934 1.11016
 C307 C 0.43555 0.80784 1.08328
 C308 C 0.45219 0.90798 1.17937
 C309 C 0.35984 0.79154 1.09515
 C310 C 0.37586 0.82307 1.12201
 C311 C 0.43821 0.88007 1.15675
 C312 C 0.38954 0.78365 1.07538
 H313 H 0.48700 0.85778 1.11575
 H314 H 0.45932 0.80257 1.06865
 H315 H 0.32425 0.77350 1.08982
 H316 H 0.35253 0.82885 1.13684
 C317 C 0.57445 0.42135 0.62863
 C318 C 0.55255 0.37547 0.62125
 C319 C 0.56806 0.35932 0.59453
 C320 C 0.54414 0.45215 0.67823
 C321 C 0.62764 0.43503 0.58257
 C322 C 0.61205 0.45107 0.60931
 C323 C 0.55802 0.43803 0.65572
 C324 C 0.60573 0.38896 0.57478
 H325 H 0.52338 0.35219 0.63606
 H326 H 0.55044 0.32367 0.58927
 H327 H 0.65675 0.45876 0.56795
 H328 H 0.62922 0.48667 0.61482
 C329 C 0.57774 0.15223 0.62826
 C330 C 0.54802 0.15997 0.60891
 C331 C 0.56403 0.19164 0.58223
 C332 C 0.54714 0.09108 0.67777
 C333 C 0.63972 0.20808 0.59431
 C334 C 0.62360 0.17639 0.62098
 C335 C 0.56112 0.11909 0.65530
 C336 C 0.61009 0.21597 0.57453
 H337 H 0.51243 0.14141 0.61436
 H338 H 0.54030 0.19691 0.56758
 H339 H 0.67536 0.22624 0.58913
 H340 H 0.64688 0.17061 0.63582
 C341 C 0.84736 0.42528 0.62819
 C342 C 0.82324 0.44701 0.62101
 C343 C 0.79143 0.43135 0.59440
 C344 C 0.90872 0.45590 0.67763
 C345 C 0.80763 0.37194 0.58216
 C346 C 0.83942 0.38769 0.60879
 C347 C 0.88062 0.44187 0.65519
 C348 C 0.78334 0.39369 0.57456
 H349 H 0.82916 0.47616 0.63588
 H350 H 0.77332 0.44885 0.58930
 H351 H 0.80223 0.34286 0.56747
 H352 H 0.85793 0.37064 0.61414
 C353 C 0.42211 0.57472 0.62840
 C354 C 0.37627 0.55274 0.62097
 C355 C 0.36010 0.56833 0.59434
 C356 C 0.45283 0.54429 0.67801
 C357 C 0.43569 0.62815 0.58253
 C358 C 0.45175 0.61249 0.60917
 C359 C 0.43880 0.55824 0.65548
 C360 C 0.38965 0.60617 0.57470
 H361 H 0.35302 0.52346 0.63568
 H362 H 0.32449 0.55062 0.58907
 H363 H 0.45937 0.65738 0.56800
 H364 H 0.48731 0.62975 0.61469
 C365 C 0.42588 0.84800 0.62896
 C366 C 0.38803 0.83980 0.60986
 C367 C 0.37228 0.80808 0.58311
 C368 C 0.45645 0.90919 0.67874
 C369 C 0.43215 0.79244 0.59456
 C370 C 0.44783 0.82419 0.62130
 C371 C 0.44245 0.88118 0.65614
 C372 C 0.39423 0.78408 0.57505
 H373 H 0.37078 0.85804 0.61556
 H374 H 0.34299 0.80248 0.56869
 H375 H 0.44985 0.77459 0.58911
 H376 H 0.47717 0.83028 0.63591
 C377 C 0.15199 0.57782 0.62884
 C378 C 0.16013 0.54820 0.60958
 C379 C 0.19191 0.56429 0.58290
 C380 C 0.09072 0.54700 0.67854
 C381 C 0.20773 0.63989 0.59474
 C382 C 0.17593 0.62369 0.62140
 C383 C 0.11876 0.56109 0.65597
 C384 C 0.21603 0.61035 0.57506
 H385 H 0.14180 0.51263 0.61510
 H386 H 0.19744 0.54061 0.56836
 H387 H 0.22567 0.67552 0.58947
 H388 H 0.16990 0.64694 0.63613
 C389 C 0.42245 0.57511 0.87140
 C390 C 0.45216 0.61260 0.89089
 C391 C 0.43611 0.62818 0.91763
 C392 C 0.45307 0.54466 0.82177
 C393 C 0.36041 0.56882 0.90531
 C394 C 0.37657 0.55333 0.87859
 C395 C 0.43910 0.55866 0.84430
 C396 C 0.39003 0.60638 0.92523
 H397 H 0.48776 0.62968 0.88552
 H398 H 0.45982 0.65720 0.93239
 H399 H 0.32476 0.55128 0.91041
 H400 H 0.35331 0.52425 0.86365
 C401 C 0.15369 0.57845 0.87070
 C402 C 0.17782 0.62433 0.87808
 C403 C 0.20938 0.64043 0.90487
 C404 C 0.09269 0.54782 0.82100
 C405 C 0.19287 0.56468 0.91692
 C406 C 0.16134 0.54869 0.89011
 C407 C 0.12064 0.56183 0.84355
 C408 C 0.21718 0.61076 0.92471
 H409 H 0.17212 0.64765 0.86321
 H410 H 0.22751 0.67608 0.91011
 H411 H 0.19807 0.54092 0.93160
 H412 H 0.14280 0.51309 0.88461
 C413 C 0.42572 0.84688 0.87104
 C414 C 0.44759 0.82298 0.87851
 C415 C 0.43213 0.79153 0.90535
 C416 C 0.45592 0.90759 0.82122
 C417 C 0.37267 0.80772 0.91727
 C418 C 0.38821 0.83914 0.89041
 C419 C 0.44208 0.87976 0.84382
 C420 C 0.39454 0.78363 0.92513
 H421 H 0.47669 0.82877 0.86366
 H422 H 0.44971 0.77356 0.91066
 H423 H 0.34362 0.80242 0.93190
 H424 H 0.37107 0.85750 0.88483
 C425 C 0.57480 0.42190 0.87159
 C426 C 0.55280 0.37606 0.87910
 C427 C 0.56842 0.35996 0.90576
 C428 C 0.54435 0.45255 0.82194
 C429 C 0.62831 0.43562 0.91744
 C430 C 0.61262 0.45160 0.89076
 C431 C 0.55829 0.43853 0.84448
 C432 C 0.60631 0.38958 0.92535
 H433 H 0.52348 0.35276 0.86442
 H434 H 0.55069 0.32435 0.91109
 H435 H 0.65758 0.45936 0.93192
 H436 H 0.62990 0.48717 0.88518
 C437 C 0.84804 0.42560 0.87128
 C438 C 0.82421 0.44756 0.87884
 C439 C 0.79250 0.43198 0.90557
 C440 C 0.90913 0.45602 0.82146
 C441 C 0.80820 0.37217 0.91723
 C442 C 0.83989 0.38783 0.89049
 C443 C 0.88117 0.44207 0.84408
 C444 C 0.78419 0.39414 0.92519
 H445 H 0.83025 0.47683 0.86416
 H446 H 0.77464 0.44969 0.91093
 H447 H 0.80264 0.34295 0.93173
 H448 H 0.85814 0.37056 0.88488
 C449 C 0.57811 0.15220 0.87136
 C450 C 0.54848 0.16028 0.89062
 C451 C 0.56453 0.19199 0.91738
 C452 C 0.54739 0.09106 0.82154
 C453 C 0.64009 0.20783 0.90561
 C454 C 0.62393 0.17610 0.87887
 C455 C 0.56143 0.11904 0.84416
 C456 C 0.61055 0.21608 0.92528
 H457 H 0.51293 0.14195 0.88504
 H458 H 0.54085 0.19750 0.93192
 H459 H 0.67569 0.22577 0.91093
 H460 H 0.64717 0.17010 0.86413
   
