data_POSCAR
  _audit_creation_date              2014-09-24
  _audit_creation_method            'ToBaCCo'
  _symmetry_space_group_name_H-M    'P1'
  _symmetry_Int_Tables_number       1
  _symmetry_cell_setting            triclinic
  loop_
  _symmetry_equiv_pos_as_xyz
 x,y,z
_cell_length_a 40.3766
_cell_length_b 41.8745
_cell_length_c 38.3539
_cell_angle_alpha 90.854800
_cell_angle_beta 89.169600
_cell_angle_gamma 92.051600
loop_
  _atom_site_label
  _atom_site_type_symbol
  _atom_site_fract_x
  _atom_site_fract_y
  _atom_site_fract_z
C1 C 0.22093 0.17566 0.19692
 C2 C 0.20569 0.15912 0.22475
 C3 C 0.17563 0.16930 0.23902
 C4 C 0.16080 0.19625 0.22583
 C5 C 0.17572 0.21299 0.19803
 C6 C 0.20589 0.20270 0.18341
 C7 C 0.25051 0.16520 0.18182
 C8 C 0.26505 0.18131 0.15336
 C9 C 0.25030 0.20827 0.14003
 C10 C 0.22069 0.21910 0.15487
 C11 C 0.20517 0.24555 0.14123
 C12 C 0.17518 0.25556 0.15576
 C13 C 0.16062 0.23946 0.18412
 H14 H 0.21695 0.13812 0.23496
 H15 H 0.13745 0.20392 0.23688
 H16 H 0.26191 0.14416 0.19180
 H17 H 0.26151 0.22045 0.11779
 H18 H 0.21611 0.25809 0.11910
 H19 H 0.13728 0.24732 0.19501
 C20 C -0.23581 0.81971 0.20934
 C21 C -0.22398 0.83585 0.23924
 C22 C -0.19523 0.82601 0.25540
 C23 C -0.17842 0.79968 0.24209
 C24 C -0.18993 0.78332 0.21223
 C25 C -0.21871 0.79338 0.19566
 C26 C -0.26383 0.83008 0.19225
 C27 C -0.27474 0.81463 0.16161
 C28 C -0.25798 0.78832 0.14811
 C29 C -0.22991 0.77759 0.16495
 C30 C -0.21225 0.75195 0.15111
 C31 C -0.18363 0.74217 0.16754
 C32 C -0.17263 0.75765 0.19806
 H33 H -0.23672 0.85644 0.24948
 H34 H -0.15601 0.79234 0.25455
 H35 H -0.27671 0.85066 0.20233
 H36 H -0.26634 0.77669 0.12418
 H37 H -0.22040 0.73994 0.12733
 H38 H -0.15029 0.75003 0.21040
 C39 C -0.25190 0.20325 -0.24441
 C40 C -0.23839 0.18534 -0.27197
 C41 C -0.20812 0.19504 -0.28738
 C42 C -0.19155 0.22317 -0.27602
 C43 C -0.20472 0.24137 -0.24850
 C44 C -0.23498 0.23134 -0.23245
 C45 C -0.28106 0.19260 -0.22735
 C46 C -0.29321 0.20938 -0.19827
 C47 C -0.27676 0.23752 -0.18662
 C48 C -0.24757 0.24860 -0.20351
 C49 C -0.22980 0.27566 -0.19088
 C50 C -0.19964 0.28534 -0.20664
 C51 C -0.18733 0.26848 -0.23555
 H52 H -0.25076 0.16325 -0.28060
 H53 H -0.16786 0.23021 -0.28779
 H54 H -0.29358 0.17052 -0.23584
 H55 H -0.28597 0.25009 -0.16372
 H56 H -0.23882 0.28858 -0.16814
 H57 H -0.16368 0.27588 -0.24718
 C58 C 0.23094 0.80813 -0.23484
 C59 C 0.21378 0.82739 -0.25754
 C60 C 0.18259 0.81725 -0.26990
 C61 C 0.16862 0.78754 -0.26017
 C62 C 0.18547 0.76802 -0.23749
 C63 C 0.21676 0.77832 -0.22466
 C64 C 0.26139 0.81874 -0.22102
 C65 C 0.27756 0.80012 -0.19696
 C66 C 0.26377 0.77038 -0.18706
 C67 C 0.23333 0.75933 -0.20073
 C68 C 0.21840 0.73035 -0.18974
 C69 C 0.18722 0.72041 -0.20226
 C70 C 0.17099 0.73898 -0.22630
 H71 H 0.22435 0.85053 -0.26498
 H72 H 0.14435 0.77994 -0.26964
 H73 H 0.27204 0.84195 -0.22807
 H74 H 0.27622 0.75639 -0.16797
 H75 H 0.23049 0.71603 -0.17069
 H76 H 0.14662 0.73128 -0.23538
 C77 C 0.18518 1.23423 0.79044
 C78 C 0.17057 1.22266 0.75950
 C79 C 0.18132 1.19439 0.74368
 C80 C 0.20707 1.17779 0.75843
 C81 C 0.22186 1.18899 0.78934
 C82 C 0.21086 1.21729 0.80555
 C83 C 0.17388 1.26190 0.80708
 C84 C 0.18774 1.27267 0.83864
 C85 C 0.21337 1.25598 0.85360
 C86 C 0.22505 1.22823 0.83726
 C87 C 0.25006 1.21076 0.85242
 C88 C 0.26079 1.18262 0.83628
 C89 C 0.24686 1.17191 0.80480
 H90 H 0.15041 1.23526 0.74817
 H91 H 0.21509 1.15575 0.74626
 H92 H 0.15383 1.27472 0.79582
 H93 H 0.22378 1.26425 0.87819
 H94 H 0.26086 1.21875 0.87690
 H95 H 0.25519 1.15001 0.79264
 C96 C 0.83356 0.77082 0.79301
 C97 C 0.85035 0.78263 0.76325
 C98 C 0.84046 0.81087 0.74783
 C99 C 0.81358 0.82726 0.76189
 C100 C 0.79663 0.81583 0.79159
 C101 C 0.80662 0.78752 0.80731
 C102 C 0.84365 0.74300 0.80918
 C103 C 0.82725 0.73186 0.83939
 C104 C 0.80043 0.74835 0.85348
 C105 C 0.78999 0.77622 0.83766
 C106 C 0.76364 0.79334 0.85199
 C107 C 0.75392 0.82151 0.83637
 C108 C 0.77026 0.83260 0.80622
 H109 H 0.87131 0.77014 0.75243
 H110 H 0.80617 0.84921 0.75000
 H111 H 0.86456 0.73029 0.79856
 H112 H 0.78802 0.73978 0.87700
 H113 H 0.75093 0.78501 0.87543
 H114 H 0.76265 0.85450 0.79442
 C115 C 0.19776 0.75630 1.24473
 C116 C 0.18044 0.76903 1.27342
 C117 C 0.19119 0.79808 1.28874
 C118 C 0.21968 0.81429 1.27596
 C119 C 0.23724 0.80195 1.24728
 C120 C 0.22624 0.77286 1.23147
 C121 C 0.18631 0.72803 1.22814
 C122 C 0.20275 0.71636 1.19838
 C123 C 0.23118 0.73260 1.18537
 C124 C 0.24303 0.76092 1.20169
 C125 C 0.27054 0.77821 1.18795
 C126 C 0.28118 0.80722 1.20353
 C127 C 0.26479 0.81888 1.23325
 H128 H 0.15810 0.75688 1.28321
 H129 H 0.22754 0.83699 1.28770
 H130 H 0.16405 0.71561 1.23779
 H131 H 0.24353 0.72371 1.16205
 H132 H 0.28314 0.76960 1.16468
 H133 H 0.27295 0.84155 1.24484
 C134 C 0.81870 1.23296 1.24001
 C135 C 0.83713 1.22018 1.26696
 C136 C 0.82736 1.19072 1.28151
 C137 C 0.79890 1.17409 1.26951
 C138 C 0.78029 1.18646 1.24260
 C139 C 0.79018 1.21601 1.22772
 C140 C 0.82882 1.26187 1.22439
 C141 C 0.81093 1.27380 1.19667
 C142 C 0.78252 1.25715 1.18465
 C143 C 0.77203 1.22821 1.19994
 C144 C 0.74432 1.21073 1.18723
 C145 C 0.73476 1.18130 1.20186
 C146 C 0.75252 1.16933 1.22960
 H147 H 0.85934 1.23282 1.27612
 H148 H 0.79163 1.15116 1.28064
 H149 H 0.85101 1.27474 1.23322
 H150 H 0.76908 1.26638 1.16292
 H151 H 0.73060 1.21966 1.16554
 H152 H 0.74511 1.14638 1.24053
 O153 O 0.53296 0.96806 0.93049
 O154 O 0.46917 0.98688 1.07277
 O155 O 0.56537 0.98050 1.02268
 O156 O 0.45566 0.94595 0.97314
 O157 O 0.52096 0.96230 1.04786
 O158 O 0.47100 0.96775 0.92515
 O159 O 0.46047 0.95423 1.03235
 O160 O 0.56991 0.99478 0.96129
 C161 C 0.56202 0.97206 0.94075
 C162 C 0.45536 0.96157 1.06320
 C163 C 0.55057 0.95917 1.03997
 C164 C 0.45744 0.94510 0.94105
 O165 O 0.47147 1.02916 0.92974
 O166 O 0.52673 1.01401 1.08311
 O167 O 0.54491 1.05264 0.97785
 O168 O 0.43911 1.01653 1.02640
 O169 O 0.48434 1.04025 1.04579
 O170 O 0.53408 1.03070 0.92817
 O171 O 0.43347 1.00587 0.96354
 O172 O 0.54423 1.04037 1.03813
 Co173 Co 0.50243 0.99884 0.93447
 Co174 Co 0.50364 1.00147 1.04485
 Co175 Co 0.55143 1.01534 0.99941
 Co176 Co 0.45135 0.98215 0.99863
 O177 O 0.50083 0.99828 0.99198
 C178 C 0.44213 1.02631 0.94082
 C179 C 0.54832 1.03403 1.06988
 C180 C 0.54414 1.05433 0.94572
 C181 C 0.45382 1.04054 1.04042
 O182 O 0.03106 0.47127 0.06749
 O183 O 0.01261 0.53011 -0.07380
 O184 O 0.01685 0.43799 -0.02585
 O185 O 0.05542 0.54333 0.02483
 O186 O 0.03696 0.48003 -0.05052
 O187 O 0.03179 0.53134 0.07327
 O188 O 0.04670 0.53834 -0.03428
 O189 O 0.00367 0.43521 0.03620
 C190 C 0.02677 0.44308 0.05685
 C191 C 0.03908 0.54306 -0.06479
 C192 C 0.03936 0.45142 -0.04350
 C193 C 0.05584 0.54320 0.05692
 O194 O -0.03179 0.53096 0.07008
 O195 O -0.01723 0.47517 -0.08367
 O196 O -0.05667 0.45936 0.02317
 O197 O -0.01713 0.56071 -0.02608
 O198 O -0.04299 0.51747 -0.04527
 O199 O -0.03338 0.47046 0.07190
 O200 O -0.00626 0.56659 0.03648
 O201 O -0.04497 0.45949 -0.03792
 Co202 Co -0.00051 0.50090 0.06453
 Co203 Co -0.00329 0.49775 -0.04582
 Co204 Co -0.01844 0.45253 -0.00054
 Co205 Co 0.01805 0.54831 0.00049
 O206 O 0.00013 0.50117 0.00693
 C207 C -0.02803 0.55902 0.05932
 C208 C -0.03891 0.45541 -0.07013
 C209 C -0.05748 0.45904 0.05538
 C210 C -0.04231 0.54709 -0.03983
 O211 O 1.06104 0.03526 0.47025
 O212 O 0.92654 0.00988 0.53792
 O213 O 0.97325 0.02085 0.43653
 O214 O 1.02066 0.05355 0.55230
 O215 O 0.94944 0.03672 0.48367
 O216 O 1.06652 0.03403 0.53539
 O217 O 0.96448 0.04363 0.54745
 O218 O 1.03185 0.00874 0.43124
 C219 C 1.05199 0.03121 0.43952
 C220 C 0.93515 0.03530 0.55230
 C221 C 0.95642 0.04102 0.45247
 C222 C 1.05115 0.05540 0.55066
 O223 O 1.06315 -0.02736 0.53408
 O224 O 0.91672 -0.01587 0.47742
 O225 O 1.01731 -0.05039 0.45683
 O226 O 0.97106 -0.01916 0.56909
 O227 O 0.95293 -0.04224 0.52138
 O228 O 1.06424 -0.02718 0.46840
 O229 O 1.03084 -0.00673 0.57471
 O230 O 0.95974 -0.04014 0.45823
 Co231 Co 1.05790 0.00358 0.50202
 Co232 Co 0.95310 -0.00285 0.50147
 Co233 Co 0.99609 -0.01362 0.45066
 Co234 Co 0.99697 0.01642 0.55645
 O235 O 1.00327 0.00209 0.50410
 C236 C 1.05311 -0.02569 0.56509
 C237 C 0.92945 -0.03463 0.45424
 C238 C 1.04791 -0.05099 0.45735
 C239 C 0.95790 -0.04317 0.55352
 C240 C 1.08050 0.10805 0.33846
 C241 C 1.10851 0.13361 0.34510
 C242 C 1.12869 0.11906 0.31493
 C243 C 1.10095 0.09381 0.30786
 C244 C 1.09737 0.08563 0.36350
 C245 C 1.11755 0.07111 0.33332
 C246 C 1.12510 0.11088 0.37057
 C247 C 1.14554 0.09664 0.33997
 C248 C 1.14610 0.13746 0.28771
 C249 C 1.16017 0.15245 0.26502
 C250 C 1.08038 0.06667 0.39053
 C251 C 1.06701 0.05069 0.41285
 H252 H 1.05357 0.11251 0.33816
 H253 H 1.10503 0.15952 0.34963
 H254 H 1.09125 0.08700 0.28176
 H255 H 1.12105 0.04520 0.32877
 H256 H 1.13481 0.11769 0.39668
 H257 H 1.17246 0.09216 0.34029
 C258 C 0.84056 -0.10295 0.38689
 C259 C 0.83262 -0.09114 0.34989
 C260 C 0.84548 -0.12247 0.33439
 C261 C 0.85314 -0.13461 0.37090
 C262 C 0.87573 -0.08804 0.38307
 C263 C 0.88855 -0.11937 0.36754
 C264 C 0.86806 -0.07594 0.34655
 C265 C 0.88064 -0.10752 0.33066
 C266 C 0.82962 -0.14148 0.30653
 C267 C 0.81752 -0.15688 0.28287
 C268 C 0.89362 -0.06886 0.40942
 C269 C 0.90941 -0.05316 0.43032
 H270 H 0.82430 -0.10082 0.41033
 H271 H 0.80943 -0.07976 0.34231
 H272 H 0.84682 -0.15895 0.38059
 H273 H 0.91174 -0.13076 0.37508
 H274 H 0.87438 -0.05160 0.33683
 H275 H 0.89696 -0.10961 0.30726
 C276 C 0.83696 0.09039 0.61502
 C277 C 0.84358 0.09908 0.65378
 C278 C 0.83981 0.13453 0.64542
 C279 C 0.83285 0.12624 0.60701
 C280 C 0.87427 0.09457 0.60726
 C281 C 0.87052 0.13002 0.59888
 C282 C 0.88115 0.10292 0.64567
 C283 C 0.87713 0.13865 0.63761
 C284 C 0.82162 0.15663 0.66783
 C285 C 0.80760 0.17445 0.68754
 C286 C 0.89459 0.07266 0.58686
 C287 C 0.91249 0.05519 0.57078
 H288 H 0.82069 0.07027 0.60551
 H289 H 0.83229 0.08661 0.67662
 H290 H 0.81279 0.13612 0.59139
 H291 H 0.88183 0.14247 0.57605
 H292 H 0.90120 0.09309 0.66136
 H293 H 0.89345 0.15873 0.64711
 C294 C 1.08530 -0.09884 0.66666
 C295 C 1.09733 -0.13205 0.65468
 C296 C 1.13123 -0.12385 0.67085
 C297 C 1.11951 -0.09101 0.68321
 C298 C 1.09846 -0.08480 0.63218
 C299 C 1.13235 -0.07663 0.64836
 C300 C 1.11019 -0.11766 0.61985
 C301 C 1.14433 -0.10979 0.63635
 C302 C 1.14982 -0.14549 0.69214
 C303 C 1.16524 -0.16311 0.70977
 C304 C 1.08103 -0.06324 0.60972
 C305 C 1.06768 -0.04582 0.59004
 H306 H 1.06084 -0.09406 0.67885
 H307 H 1.08318 -0.15511 0.65750
 H308 H 1.12359 -0.08031 0.70952
 H309 H 1.14652 -0.05358 0.64554
 H310 H 1.10613 -0.12837 0.59354
 H311 H 1.16878 -0.11455 0.62412
 C312 C 0.36572 1.12505 1.05859
 C313 C 0.33797 1.11173 1.08316
 C314 C 0.34371 1.14073 1.10761
 C315 C 0.37109 1.15444 1.08329
 C316 C 0.39119 1.10708 1.07943
 C317 C 0.39707 1.13606 1.10387
 C318 C 0.36373 1.09355 1.10377
 C319 C 0.36919 1.12274 1.12840
 C320 C 0.31614 1.15748 1.12384
 C321 C 0.29251 1.16944 1.13759
 C322 C 0.41601 1.08602 1.06452
 C323 C 0.43448 1.06639 1.05305
 H324 H 0.36461 1.12579 1.02971
 H325 H 0.31341 1.10187 1.07482
 H326 H 0.37375 1.17972 1.07508
 H327 H 0.42167 1.14583 1.11216
 H328 H 0.36092 1.06830 1.11207
 H329 H 0.37030 1.12194 1.15728
 C330 C 0.37311 0.89236 0.86491
 C331 C 0.38095 0.86759 0.83592
 C332 C 0.35620 0.84379 0.85318
 C333 C 0.34810 0.86836 0.88193
 C334 C 0.40069 0.87903 0.88709
 C335 C 0.37593 0.85524 0.90436
 C336 C 0.40896 0.85451 0.85836
 C337 C 0.38371 0.83030 0.87532
 C338 C 0.32979 0.82603 0.83471
 C339 C 0.30663 0.81326 0.81999
 C340 C 0.42354 0.90054 0.90623
 C341 C 0.44023 0.92003 0.92213
 H342 H 0.36895 0.91809 0.86081
 H343 H 0.38271 0.87248 0.80757
 H344 H 0.32282 0.87391 0.89145
 H345 H 0.37414 0.85038 0.93271
 H346 H 0.43429 0.84907 0.84893
 H347 H 0.38774 0.80455 0.87935
 C348 C 0.63566 0.87293 1.06078
 C349 C 0.66100 0.88551 1.08807
 C350 C 0.65229 0.85639 1.11076
 C351 C 0.62729 0.84340 1.08374
 C352 C 0.60852 0.89120 1.08019
 C353 C 0.59967 0.86210 1.10286
 C354 C 0.63359 0.90400 1.10722
 C355 C 0.62513 0.87468 1.13010
 C356 C 0.67776 0.83906 1.12860
 C357 C 0.69969 0.82675 1.14391
 C358 C 0.58564 0.91287 1.06432
 C359 C 0.56856 0.93293 1.05249
 H360 H 0.63969 0.87243 1.03209
 H361 H 0.68647 0.89499 1.08218
 H362 H 0.62503 0.81824 1.07432
 H363 H 0.57417 0.85271 1.10870
 H364 H 0.63599 0.92913 1.11674
 H365 H 0.62109 0.87525 1.15880
 C366 C 0.63106 1.13399 0.90361
 C367 C 0.64176 1.12836 0.86525
 C368 C 0.63545 1.16355 0.85775
 C369 C 0.62503 1.16950 0.89591
 C370 C 0.59508 1.12542 0.89367
 C371 C 0.58857 1.16059 0.88628
 C372 C 0.60556 1.11955 0.85551
 C373 C 0.59947 1.15503 0.84771
 C374 C 0.65966 1.18265 0.83746
 C375 C 0.68114 1.19621 0.82065
 C376 C 0.57448 1.10220 0.91314
 C377 C 0.55952 1.08121 0.92847
 H378 H 0.64386 1.12511 0.92679
 H379 H 0.66386 1.11525 0.85642
 H380 H 0.63330 1.19029 0.91227
 H381 H 0.56641 1.17355 0.89520
 H382 H 0.59737 1.09878 0.83909
 H383 H 0.58676 1.16394 0.82449
 C384 C 0.10954 0.35390 0.06943
 C385 C 0.13690 0.35879 0.09716
 C386 C 0.12340 0.32867 0.11568
 C387 C 0.09640 0.32337 0.08817
 C388 C 0.08629 0.37378 0.09239
 C389 C 0.07285 0.34364 0.11090
 C390 C 0.11329 0.37910 0.11988
 C391 C 0.10013 0.34857 0.13859
 C392 C 0.14317 0.30317 0.12924
 C393 C 0.15839 0.28173 0.14102
 C394 C 0.06521 0.39866 0.07973
 C395 C 0.04765 0.41899 0.06937
 H396 H 0.11312 0.35640 0.04083
 H397 H 0.16347 0.36468 0.09167
 H398 H 0.08971 0.30017 0.07527
 H399 H 0.04628 0.33771 0.11641
 H400 H 0.11995 0.40231 0.13278
 H401 H 0.09651 0.34610 0.16718
 C402 C -0.12330 0.40454 -0.15711
 C403 C -0.11227 0.37456 -0.17786
 C404 C -0.14045 0.35487 -0.16019
 C405 C -0.15186 0.38443 -0.13976
 C406 C -0.10043 0.39567 -0.12736
 C407 C -0.12862 0.37596 -0.10974
 C408 C -0.08906 0.36611 -0.14778
 C409 C -0.11755 0.34610 -0.13042
 C410 C -0.16233 0.33125 -0.17765
 C411 C -0.17975 0.31085 -0.19126
 C412 C -0.07817 0.41770 -0.10813
 C413 C -0.06005 0.43521 -0.09132
 H414 H -0.12537 0.42884 -0.16787
 H415 H -0.10584 0.37372 -0.20608
 H416 H -0.17792 0.39169 -0.13667
 H417 H -0.13508 0.37676 -0.08151
 H418 H -0.06300 0.35882 -0.15087
 H419 H -0.11544 0.32182 -0.11961
 C420 C 0.08478 0.63237 -0.14161
 C421 C 0.11378 0.65221 -0.12528
 C422 C 0.13504 0.64538 -0.15791
 C423 C 0.10630 0.62585 -0.17454
 C424 C 0.09797 0.60226 -0.12505
 C425 C 0.11919 0.59529 -0.15767
 C426 C 0.12673 0.62182 -0.10848
 C427 C 0.14830 0.61529 -0.14137
 C428 C 0.15489 0.67068 -0.17499
 C429 C 0.17024 0.69275 -0.18795
 C430 C 0.07701 0.57955 -0.10534
 C431 C 0.05964 0.56218 -0.08761
 H432 H 0.05845 0.63913 -0.14151
 H433 H 0.11178 0.67587 -0.11211
 H434 H 0.09817 0.62781 -0.20193
 H435 H 0.12111 0.57159 -0.17075
 H436 H 0.13488 0.61992 -0.08110
 H437 H 0.17465 0.60859 -0.14148
 C438 C -0.11552 0.62146 0.12694
 C439 C -0.10340 0.65205 0.14684
 C440 C -0.12690 0.67162 0.12521
 C441 C -0.13936 0.64143 0.10552
 C442 C -0.08827 0.62772 0.09925
 C443 C -0.11177 0.64728 0.07759
 C444 C -0.07584 0.65792 0.11894
 C445 C -0.09966 0.67787 0.09752
 C446 C -0.14792 0.69631 0.13997
 C447 C -0.16459 0.71698 0.15241
 C448 C -0.06664 0.60331 0.08499
 C449 C -0.04890 0.58315 0.07331
 H450 H -0.12176 0.59798 0.13887
 H451 H -0.10022 0.65427 0.17549
 H452 H -0.16572 0.63494 0.10018
 H453 H -0.11492 0.64504 0.04894
 H454 H -0.04949 0.66442 0.12429
 H455 H -0.09340 0.70135 0.08557
 C456 C 1.13003 0.14350 0.60681
 C457 C 1.11394 0.16700 0.63324
 C458 C 1.13360 0.15231 0.66265
 C459 C 1.14997 0.12919 0.63673
 C460 C 1.10168 0.11897 0.61419
 C461 C 1.12139 0.10443 0.64366
 C462 C 1.08530 0.14208 0.64012
 C463 C 1.10525 0.12775 0.66988
 C464 C 1.15118 0.16929 0.69093
 C465 C 1.16544 0.18174 0.71526
 C466 C 1.08373 0.09852 0.58892
 C467 C 1.06885 0.07982 0.57019
 H468 H 1.13999 0.14977 0.58057
 H469 H 1.11109 0.19296 0.62930
 H470 H 1.17675 0.12404 0.63564
 H471 H 1.12430 0.07849 0.64773
 H472 H 1.05852 0.14720 0.64122
 H473 H 1.09523 0.12139 0.69608
 C474 C 0.89413 -0.13968 0.61182
 C475 C 0.91233 -0.15943 0.63916
 C476 C 0.88929 -0.14629 0.66780
 C477 C 0.87088 -0.12693 0.64095
 C478 C 0.91844 -0.11134 0.61892
 C479 C 0.89538 -0.09837 0.64764
 C480 C 0.93692 -0.13067 0.64576
 C481 C 0.91361 -0.11793 0.67478
 C482 C 0.87229 -0.16388 0.69604
 C483 C 0.85763 -0.17655 0.72006
 C484 C 0.93378 -0.08965 0.59317
 C485 C 0.94540 -0.06959 0.57386
 H486 H 0.88631 -0.14843 0.58564
 H487 H 0.91912 -0.18477 0.63601
 H488 H 0.84354 -0.12552 0.63924
 H489 H 0.88850 -0.07306 0.65094
 H490 H 0.96426 -0.13201 0.64744
 H491 H 0.92146 -0.10910 0.70093
 C492 C 1.12735 -0.13925 0.41529
 C493 C 1.11344 -0.16727 0.39220
 C494 C 1.13488 -0.15475 0.36155
 C495 C 1.14908 -0.12714 0.38423
 C496 C 1.09922 -0.11854 0.40306
 C497 C 1.12070 -0.10618 0.37237
 C498 C 1.08496 -0.14614 0.38039
 C499 C 1.10673 -0.13401 0.34942
 C500 C 1.15495 -0.17335 0.33706
 C501 C 1.17152 -0.18713 0.31565
 C502 C 1.07992 -0.09656 0.42459
 C503 C 1.06479 -0.07668 0.44056
 H504 H 1.13558 -0.14118 0.44265
 H505 H 1.11071 -0.19264 0.40007
 H506 H 1.17565 -0.11949 0.38555
 H507 H 1.12351 -0.08084 0.36438
 H508 H 1.05837 -0.15373 0.37908
 H509 H 1.09845 -0.13200 0.32209
 C510 C 0.89048 0.13568 0.40626
 C511 C 0.90672 0.15820 0.37856
 C512 C 0.88139 0.14537 0.35180
 C513 C 0.86490 0.12324 0.37908
 C514 C 0.91380 0.10931 0.39435
 C515 C 0.88844 0.09665 0.36752
 C516 C 0.93036 0.13141 0.36708
 C517 C 0.90472 0.11898 0.33998
 C518 C 0.86249 0.16373 0.32716
 C519 C 0.84625 0.17716 0.30608
 C520 C 0.93070 0.08726 0.41687
 C521 C 0.94326 0.06716 0.43399
 H522 H 0.88484 0.14233 0.43378
 H523 H 0.91401 0.18375 0.38281
 H524 H 0.83780 0.12003 0.38377
 H525 H 0.88106 0.07112 0.36315
 H526 H 0.95747 0.13455 0.36241
 H527 H 0.91039 0.11225 0.31248
 C528 C 0.12518 0.36553 -0.06410
 C529 C 0.11235 0.34051 -0.09126
 C530 C 0.14395 0.34666 -0.11329
 C531 C 0.15718 0.37134 -0.08638
 C532 C 0.10843 0.39174 -0.08440
 C533 C 0.14003 0.39803 -0.10642
 C534 C 0.09537 0.36699 -0.11132
 C535 C 0.12719 0.37288 -0.13356
 C536 C 0.16185 0.32059 -0.13007
 C537 C 0.17479 0.29838 -0.14450
 C538 C 0.08643 0.41540 -0.06900
 C539 C 0.06610 0.43303 -0.05699
 H540 H 0.12416 0.36278 -0.03535
 H541 H 0.10110 0.31662 -0.08517
 H542 H 0.18283 0.37282 -0.07630
 H543 H 0.15118 0.42196 -0.11246
 H544 H 0.06975 0.36539 -0.12147
 H545 H 0.12816 0.37563 -0.16230
 C546 C -0.11229 0.38943 0.14657
 C547 C -0.14993 0.38722 0.15514
 C548 C -0.15049 0.35176 0.14413
 C549 C -0.11314 0.35368 0.13586
 C550 C -0.12022 0.39797 0.10882
 C551 C -0.12086 0.36248 0.09792
 C552 C -0.15759 0.39621 0.11700
 C553 C -0.15847 0.36026 0.10638
 C554 C -0.16571 0.32497 0.16349
 C555 C -0.17690 0.30205 0.17893
 C556 C -0.10098 0.42221 0.08920
 C557 C -0.08254 0.44027 0.07339
 H558 H -0.09312 0.40169 0.16293
 H559 H -0.16204 0.39709 0.17892
 H560 H -0.09496 0.33597 0.14377
 H561 H -0.10876 0.35252 0.07418
 H562 H -0.17567 0.41398 0.10902
 H563 H -0.17763 0.34794 0.09005
 C564 C -0.08852 0.63405 -0.10633
 C565 C -0.11785 0.62947 -0.13160
 C566 C -0.13561 0.65641 -0.11214
 C567 C -0.10646 0.66126 -0.08708
 C568 C -0.10554 0.60982 -0.08155
 C569 C -0.12328 0.63675 -0.06205
 C570 C -0.13469 0.60485 -0.10661
 C571 C -0.15279 0.63226 -0.08738
 C572 C -0.15062 0.68315 -0.12958
 C573 C -0.16154 0.70578 -0.14414
 C574 C -0.08626 0.58516 -0.06533
 C575 C -0.06768 0.56659 -0.05300
 H576 H -0.06189 0.63459 -0.11401
 H577 H -0.11571 0.62676 -0.16037
 H578 H -0.09493 0.68470 -0.07923
 H579 H -0.12536 0.63946 -0.03327
 H580 H -0.14613 0.58138 -0.11442
 H581 H -0.17943 0.63185 -0.07979
 C582 C 0.14036 0.62947 0.09408
 C583 C 0.12715 0.65028 0.12451
 C584 C 0.15822 0.64335 0.14538
 C585 C 0.17178 0.62285 0.11520
 C586 C 0.12287 0.60001 0.11042
 C587 C 0.15393 0.59292 0.13124
 C588 C 0.10944 0.62057 0.14061
 C589 C 0.14075 0.61391 0.16176
 C590 C 0.17622 0.66873 0.16480
 C591 C 0.18940 0.69066 0.18066
 C592 C 0.10125 0.57742 0.09103
 C593 C 0.08152 0.56068 0.07527
 H594 H 0.14000 0.63563 0.06604
 H595 H 0.11627 0.67409 0.12192
 H596 H 0.19765 0.62409 0.10497
 H597 H 0.16470 0.56906 0.13376
 H598 H 0.08359 0.61943 0.15090
 H599 H 0.14109 0.60778 0.18981
 C600 C 0.36147 1.08644 0.86579
 C601 C 0.32544 1.08938 0.87951
 C602 C 0.33013 1.12596 0.87918
 C603 C 0.36582 1.12333 0.86526
 C604 C 0.37350 1.08684 0.90361
 C605 C 0.37822 1.12343 0.90331
 C606 C 0.33782 1.08947 0.91756
 C607 C 0.34213 1.12639 0.91702
 C608 C 0.30579 1.14718 0.86485
 C609 C 0.28548 1.16385 0.85228
 C610 C 0.39774 1.06496 0.91690
 C611 C 0.41786 1.04712 0.92774
 H612 H 0.36965 1.06978 0.84486
 H613 H 0.30346 1.07559 0.86958
 H614 H 0.37710 1.13750 0.84363
 H615 H 0.40021 1.13718 0.91325
 H616 H 0.32656 1.07528 0.93919
 H617 H 0.33394 1.14306 0.93795
 C618 C 0.40508 0.87775 1.14958
 C619 C 0.37663 0.88860 1.17418
 C620 C 0.35295 0.86424 1.15613
 C621 C 0.38096 0.85304 1.13187
 C622 C 0.39523 0.90280 1.12312
 C623 C 0.37151 0.87841 1.10515
 C624 C 0.36721 0.91398 1.14738
 C625 C 0.34319 0.88931 1.12966
 C626 C 0.32847 0.84314 1.17372
 C627 C 0.30741 0.82637 1.18756
 C628 C 0.41787 0.92421 1.10349
 C629 C 0.43553 0.94153 1.08592
 H630 H 0.43079 0.87327 1.15758
 H631 H 0.37847 0.89252 1.20278
 H632 H 0.38635 0.82776 1.12567
 H633 H 0.36962 0.87445 1.07656
 H634 H 0.36179 0.93926 1.15357
 H635 H 0.31751 0.89384 1.12160
 C636 C 0.61432 1.12621 1.12843
 C637 C 0.62303 1.12470 1.16760
 C638 C 0.66002 1.12602 1.15748
 C639 C 0.65167 1.12784 1.11862
 C640 C 0.61475 1.08956 1.12616
 C641 C 0.65175 1.09093 1.11610
 C642 C 0.62305 1.08769 1.16502
 C643 C 0.66045 1.08937 1.15520
 C644 C 0.68588 1.14616 1.17411
 C645 C 0.70780 1.16241 1.18708
 C646 C 0.59019 1.06936 1.10759
 C647 C 0.57068 1.05301 1.09108
 H648 H 0.59506 1.14114 1.11724
 H649 H 0.61152 1.13884 1.18896
 H650 H 0.66369 1.14455 1.09971
 H651 H 0.66332 1.07682 1.09474
 H652 H 0.61101 1.07095 1.18389
 H653 H 0.67971 1.07443 1.16637
 C654 C 0.65281 0.88976 0.92489
 C655 C 0.64770 0.86392 0.89590
 C656 C 0.68005 0.87598 0.87816
 C657 C 0.68556 0.90148 0.90693
 C658 C 0.63387 0.91327 0.90290
 C659 C 0.66623 0.92530 0.88517
 C660 C 0.62836 0.88776 0.87415
 C661 C 0.66109 0.89951 0.85622
 C662 C 0.70601 0.85573 0.86388
 C663 C 0.72765 0.83973 0.85162
 C664 C 0.60822 0.93425 0.91642
 C665 C 0.58715 0.95156 0.92747
 H666 H 0.64912 0.88599 0.95330
 H667 H 0.64037 0.83846 0.90016
 H668 H 0.70936 0.90690 0.92028
 H669 H 0.67359 0.95075 0.88090
 H670 H 0.60455 0.88236 0.86079
 H671 H 0.66476 0.90330 0.82782
   
