data_POSCAR
  _audit_creation_date              2014-09-24
  _audit_creation_method            'ToBaCCo'
  _symmetry_space_group_name_H-M    'P1'
  _symmetry_Int_Tables_number       1
  _symmetry_cell_setting            triclinic
  loop_
  _symmetry_equiv_pos_as_xyz
 x,y,z
_cell_length_a 48.4198
_cell_length_b 48.2111
_cell_length_c 47.4523
_cell_angle_alpha 89.953000
_cell_angle_beta 90.048100
_cell_angle_gamma 90.005500
loop_
  _atom_site_label
  _atom_site_type_symbol
  _atom_site_fract_x
  _atom_site_fract_y
  _atom_site_fract_z
C1 C 0.29374 0.32914 0.01445
 C2 C 0.29351 0.33009 -0.01553
 C3 C 0.31050 0.31127 -0.03027
 C4 C 0.32780 0.29210 -0.01636
 C5 C 0.32813 0.29191 0.01361
 C6 C 0.31096 0.31022 0.02836
 H7 H 0.31129 0.31006 0.05122
 H8 H 0.31057 0.31173 -0.05309
 C9 C 0.70576 0.67172 0.01275
 C10 C 0.70476 0.66968 -0.01695
 C11 C 0.68680 0.68708 -0.03204
 C12 C 0.66991 0.70680 -0.01843
 C13 C 0.67068 0.70828 0.01156
 C14 C 0.68869 0.69082 0.02653
 H15 H 0.68901 0.69165 0.04937
 H16 H 0.68660 0.68565 -0.05483
 C17 C 0.70827 0.32650 0.98395
 C18 C 0.70895 0.32768 1.01402
 C19 C 0.69153 0.30949 1.02919
 C20 C 0.67328 0.29138 1.01550
 C21 C 0.67266 0.29065 0.98584
 C22 C 0.69026 0.30793 0.97046
 H23 H 0.68973 0.30709 0.94762
 H24 H 0.69094 0.31029 1.05201
 C25 C 0.28981 0.67521 0.98673
 C26 C 0.29278 0.67133 1.01625
 C27 C 0.31252 0.68743 1.03069
 C28 C 0.32850 0.70782 1.01699
 C29 C 0.32560 0.71103 0.98730
 C30 C 0.30595 0.69505 0.97286
 H31 H 0.30457 0.69663 0.95010
 H32 H 0.31379 0.68568 1.05343
 C33 C 0.01235 0.28800 0.32320
 C34 C -0.01675 0.28945 0.32370
 C35 C -0.03038 0.30812 0.30577
 C36 C -0.01560 0.32572 0.28760
 C37 C 0.01364 0.32416 0.28720
 C38 C 0.02717 0.30515 0.30484
 H39 H 0.04956 0.30420 0.30483
 H40 H -0.05273 0.30937 0.30644
 C41 C 0.01374 0.71293 0.67724
 C42 C -0.01541 0.71008 0.67455
 C43 C -0.02887 0.68949 0.69058
 C44 C -0.01468 0.67272 0.71013
 C45 C 0.01431 0.67623 0.71294
 C46 C 0.02793 0.69635 0.69679
 H47 H 0.05027 0.69768 0.69800
 H48 H -0.05118 0.68804 0.68953
 C49 C 0.98617 0.70386 0.33169
 C50 C 1.01532 0.70501 0.33037
 C51 C 1.02933 0.68765 0.31140
 C52 C 1.01524 0.66827 0.29428
 C53 C 0.98584 0.66740 0.29588
 C54 C 0.97194 0.68506 0.31456
 H55 H 0.94955 0.68469 0.31524
 H56 H 1.05170 0.68796 0.31161
 C57 C 0.98739 0.29422 0.67075
 C58 C 1.01680 0.29265 0.67076
 C59 C 1.03142 0.30954 0.68996
 C60 C 1.01790 0.32813 0.70803
 C61 C 0.98877 0.32978 0.70756
 C62 C 0.97400 0.31266 0.68907
 H63 H 0.95162 0.31375 0.68884
 H64 H 1.05380 0.30940 0.69007
 C65 C 0.32620 0.01342 0.28906
 C66 C 0.33000 -0.01559 0.29252
 C67 C 0.31364 -0.02963 0.31250
 C68 C 0.29301 -0.01604 0.32827
 C69 C 0.28981 0.01314 0.32488
 C70 C 0.30610 0.02720 0.30500
 H71 H 0.30450 0.04958 0.30328
 H72 H 0.31539 -0.05199 0.31406
 C73 C 0.67123 0.01420 0.70970
 C74 C 0.67155 -0.01517 0.70880
 C75 C 0.68979 -0.02874 0.69044
 C76 C 0.70780 -0.01384 0.67288
 C77 C 0.70770 0.01550 0.67406
 C78 C 0.68946 0.02906 0.69239
 H79 H 0.68920 0.05155 0.69283
 H80 H 0.68966 -0.05122 0.68954
 C81 C 0.32353 0.98719 0.71206
 C82 C 0.32745 1.01620 0.70882
 C83 C 0.31120 1.03043 0.68887
 C84 C 0.29062 1.01700 0.67288
 C85 C 0.28729 0.98781 0.67605
 C86 C 0.30342 0.97358 0.69596
 H87 H 0.30175 0.95119 0.69750
 H88 H 0.31305 1.05279 0.68744
 C89 C 0.67166 0.98662 0.29184
 C90 C 0.67290 1.01590 0.29171
 C91 C 0.69134 1.02955 0.30981
 C92 C 0.70848 1.01492 0.32876
 C93 C 0.70729 0.98537 0.32848
 C94 C 0.68901 0.97184 0.31010
 H95 H 0.68823 0.94935 0.31010
 H96 H 0.69116 1.05203 0.30994
 O97 O 0.84697 0.88689 0.52669
 O98 O 0.88593 0.84682 0.47382
 O99 O 0.84778 0.88508 0.47203
 O100 O 0.88538 0.84858 0.52853
 O101 O 0.85311 0.81627 0.52925
 O102 O 0.81563 0.85266 0.47291
 O103 O 0.85360 0.81459 0.47449
 O104 O 0.81513 0.85413 0.52778
 Cu105 Cu 0.86976 0.87011 0.50023
 Cu106 Cu 0.83114 0.83119 0.50116
 C107 C 0.82437 0.87734 0.53623
 C108 C 0.87641 0.82380 0.46514
 C109 C 0.82519 0.87513 0.46288
 C110 C 0.87571 0.82610 0.53845
 O111 O 0.15303 0.11551 0.52585
 O112 O 0.11501 0.15239 0.46990
 O113 O 0.15363 0.11461 0.47129
 O114 O 0.11462 0.15373 0.52470
 O115 O 0.14732 0.18562 0.52547
 O116 O 0.18468 0.14810 0.46976
 O117 O 0.14604 0.18591 0.47092
 O118 O 0.18535 0.14777 0.52486
 Cu119 Cu 0.13085 0.13079 0.49797
 Cu120 Cu 0.16910 0.17007 0.49764
 C121 C 0.17583 0.12520 0.53473
 C122 C 0.12378 0.17572 0.46123
 C123 C 0.17578 0.12474 0.46133
 C124 C 0.12436 0.17632 0.53429
 O125 O 0.15354 0.88475 0.47295
 O126 O 0.11489 0.84744 0.52807
 O127 O 0.15314 0.88583 0.52757
 O128 O 0.11528 0.84631 0.47359
 O129 O 0.14779 0.81421 0.47418
 O130 O 0.18507 0.85317 0.52904
 O131 O 0.14722 0.81516 0.52920
 O132 O 0.18578 0.85243 0.47403
 Cu133 Cu 0.13100 0.86935 0.50042
 Cu134 Cu 0.16970 0.83050 0.50166
 C135 C 0.17636 0.87504 0.46418
 C136 C 0.12441 0.82489 0.53797
 C137 C 0.17554 0.87623 0.53755
 C138 C 0.12500 0.82345 0.46476
 O139 O 0.84632 0.11465 0.47442
 O140 O 0.88507 0.15381 0.52814
 O141 O 0.84703 0.11552 0.52904
 O142 O 0.88456 0.15310 0.47331
 O143 O 0.85234 0.18545 0.47327
 O144 O 0.81481 0.14788 0.52866
 O145 O 0.85265 0.18595 0.52806
 O146 O 0.81440 0.14732 0.47383
 Cu147 Cu 0.86901 0.13104 0.50120
 Cu148 Cu 0.83033 0.16989 0.50091
 C149 C 0.82366 0.12425 0.46504
 C150 C 0.87542 0.17657 0.53735
 C151 C 0.82442 0.12527 0.53832
 C152 C 0.87493 0.17580 0.46386
 O153 O 0.52514 0.84540 0.88348
 O154 O 0.47020 0.88354 0.84593
 O155 O 0.47170 0.84498 0.88457
 O156 O 0.52416 0.88440 0.84528
 O157 O 0.52469 0.85200 0.81248
 O158 O 0.47049 0.81377 0.85059
 O159 O 0.47115 0.85232 0.81196
 O160 O 0.52450 0.81331 0.85035
 Cu161 Cu 0.49779 0.86784 0.86812
 Cu162 Cu 0.49761 0.82961 0.82804
 C163 C 0.53410 0.82273 0.87334
 C164 C 0.46153 0.87457 0.82234
 C165 C 0.46212 0.82267 0.87429
 C166 C 0.53360 0.87483 0.82228
 O167 O 0.52660 0.15487 0.11593
 O168 O 0.47188 0.11686 0.15389
 O169 O 0.47319 0.15548 0.11519
 O170 O 0.52589 0.11597 0.15419
 O171 O 0.52688 0.14856 0.18678
 O172 O 0.47220 0.18664 0.14924
 O173 O 0.47327 0.14804 0.18788
 O174 O 0.52599 0.18723 0.14878
 Cu175 Cu 0.49933 0.13252 0.13152
 Cu176 Cu 0.49953 0.17081 0.17150
 C177 C 0.53544 0.17774 0.12576
 C178 C 0.46350 0.12580 0.17758
 C179 C 0.46374 0.17784 0.12552
 C180 C 0.53564 0.12567 0.17701
 O181 O 0.47255 0.15303 0.88680
 O182 O 0.52620 0.11438 0.84841
 O183 O 0.52650 0.15314 0.88691
 O184 O 0.47288 0.11471 0.84783
 O185 O 0.47373 0.14663 0.81448
 O186 O 0.52538 0.18608 0.85461
 O187 O 0.52748 0.14736 0.81614
 O188 O 0.47179 0.18449 0.85300
 Cu189 Cu 0.49954 0.13064 0.87089
 Cu190 Cu 0.49972 0.16938 0.83125
 C191 C 0.46276 0.17520 0.87629
 C192 C 0.53593 0.12421 0.82566
 C193 C 0.53481 0.17640 0.87757
 C194 C 0.46436 0.12401 0.82431
 O195 O 0.47340 0.84577 0.11526
 O196 O 0.52757 0.88494 0.15245
 O197 O 0.52690 0.84585 0.11393
 O198 O 0.47419 0.88445 0.15376
 O199 O 0.47506 0.85236 0.18694
 O200 O 0.52819 0.81411 0.14747
 O201 O 0.52880 0.85278 0.18558
 O202 O 0.47432 0.81387 0.14862
 Cu203 Cu 0.50046 0.86845 0.13049
 Cu204 Cu 0.50170 0.83006 0.17047
 C205 C 0.46462 0.82310 0.12556
 C206 C 0.53725 0.87567 0.17549
 C207 C 0.53644 0.82331 0.12385
 C208 C 0.46570 0.87505 0.17723
 O209 O 0.88458 0.52698 0.84800
 O210 O 0.84704 0.47097 0.88450
 O211 O 0.88622 0.47340 0.84674
 O212 O 0.84509 0.52485 0.88588
 O213 O 0.81426 0.52524 0.85160
 O214 O 0.85448 0.47264 0.81332
 O215 O 0.81558 0.47115 0.85085
 O216 O 0.85338 0.52660 0.81408
 Cu217 Cu 0.86883 0.49913 0.86972
 Cu218 Cu 0.83127 0.49892 0.82910
 C219 C 0.87558 0.53609 0.82459
 C220 C 0.82485 0.46150 0.87392
 C221 C 0.87734 0.46424 0.82332
 C222 C 0.82265 0.53384 0.87540
 O223 O 0.11551 0.52626 0.15314
 O224 O 0.15422 0.47246 0.11461
 O225 O 0.11519 0.47243 0.15229
 O226 O 0.15443 0.52634 0.11463
 O227 O 0.18591 0.52609 0.14827
 O228 O 0.14678 0.47213 0.18583
 O229 O 0.18562 0.47213 0.14834
 O230 O 0.14738 0.52619 0.18641
 Cu231 Cu 0.13166 0.49951 0.13029
 Cu232 Cu 0.16956 0.49915 0.17059
 C233 C 0.12478 0.53530 0.17645
 C234 C 0.17654 0.46303 0.12499
 C235 C 0.12434 0.46298 0.17548
 C236 C 0.17698 0.53528 0.12488
 O237 O 0.88469 0.47425 0.15103
 O238 O 0.84545 0.52802 0.11300
 O239 O 0.88384 0.52805 0.15164
 O240 O 0.84573 0.47415 0.11251
 O241 O 0.81402 0.47336 0.14587
 O242 O 0.85198 0.52708 0.18483
 O243 O 0.81375 0.52738 0.14636
 O244 O 0.85253 0.47306 0.18395
 Cu245 Cu 0.86812 0.50114 0.12870
 Cu246 Cu 0.82988 0.50015 0.16857
 C247 C 0.87536 0.46454 0.17403
 C248 C 0.82287 0.53692 0.12319
 C249 C 0.87442 0.53671 0.17503
 C250 C 0.82327 0.46465 0.12246
 O251 O 0.15682 0.52993 0.88306
 O252 O 0.11836 0.47470 0.84637
 O253 O 0.15745 0.47606 0.88465
 O254 O 0.11836 0.52887 0.84513
 O255 O 0.14985 0.52787 0.81153
 O256 O 0.18872 0.47488 0.85086
 O257 O 0.15012 0.47395 0.81308
 O258 O 0.18877 0.52865 0.84993
 Cu259 Cu 0.13453 0.50238 0.86813
 Cu260 Cu 0.17250 0.50134 0.82796
 C261 C 0.17949 0.53855 0.87285
 C262 C 0.12767 0.46490 0.82340
 C263 C 0.17983 0.46654 0.87457
 C264 C 0.12747 0.53742 0.82158
 C265 C 0.24144 0.38199 0.06419
 C266 C 0.27027 0.38219 0.06786
 C267 C 0.28707 0.36451 0.05215
 C268 C 0.27546 0.34651 0.03221
 C269 C 0.24667 0.34570 0.02891
 C270 C 0.22979 0.36335 0.04471
 C271 C 0.22382 0.40169 0.08018
 C272 C 0.20125 0.41487 0.06716
 C273 C 0.18559 0.43447 0.08182
 C274 C 0.19227 0.44145 0.10976
 C275 C 0.21453 0.42794 0.12291
 C276 C 0.23005 0.40823 0.10834
 H277 H 0.30926 0.36547 0.05492
 H278 H 0.23734 0.33168 0.01382
 H279 H 0.16860 0.44458 0.07109
 H280 H 0.22004 0.43266 0.14451
 H281 H 0.20765 0.36238 0.04172
 H282 H 0.19614 0.41059 0.04537
 H283 H 0.27996 0.39656 0.08233
 H284 H 0.24696 0.39809 0.11916
 C285 C 0.75759 0.61760 0.06183
 C286 C 0.72879 0.61787 0.06567
 C287 C 0.71214 0.63588 0.05010
 C288 C 0.72386 0.65377 0.03012
 C289 C 0.75261 0.65393 0.02642
 C290 C 0.76934 0.63600 0.04213
 C291 C 0.77512 0.59780 0.07793
 C292 C 0.79776 0.58466 0.06505
 C293 C 0.81354 0.56523 0.07988
 C294 C 0.80691 0.55832 0.10785
 C295 C 0.78451 0.57167 0.12084
 C296 C 0.76889 0.59127 0.10611
 H297 H 0.68997 0.63537 0.05310
 H298 H 0.76203 0.66780 0.01126
 H299 H 0.83061 0.55520 0.06924
 H300 H 0.77902 0.56698 0.14245
 H301 H 0.79146 0.63665 0.03896
 H302 H 0.80290 0.58888 0.04326
 H303 H 0.71899 0.60368 0.08026
 H304 H 0.75193 0.60137 0.11685
 C305 C 0.76064 0.37876 0.93345
 C306 C 0.73180 0.37900 0.92988
 C307 C 0.71500 0.36140 0.94572
 C308 C 0.72661 0.34340 0.96571
 C309 C 0.75543 0.34242 0.96879
 C310 C 0.77230 0.36001 0.95285
 C311 C 0.77823 0.39871 0.91763
 C312 C 0.80079 0.41176 0.93078
 C313 C 0.81627 0.43177 0.91643
 C314 C 0.80942 0.43931 0.88868
 C315 C 0.78722 0.42590 0.87535
 C316 C 0.77188 0.40576 0.88961
 H317 H 0.69279 0.36250 0.94311
 H318 H 0.76477 0.32842 0.98390
 H319 H 0.83322 0.44179 0.92731
 H320 H 0.78157 0.43105 0.85388
 H321 H 0.79445 0.35898 0.95577
 H322 H 0.80601 0.40711 0.95247
 H323 H 0.72208 0.39344 0.91547
 H324 H 0.75497 0.39576 0.87867
 C325 C 0.24277 0.61888 0.93569
 C326 C 0.26539 0.60933 0.95146
 C327 C 0.28058 0.62768 0.96812
 C328 C 0.27359 0.65591 0.96898
 C329 C 0.25137 0.66562 0.95273
 C330 C 0.23580 0.64714 0.93650
 C331 C 0.22636 0.59921 0.91869
 C332 C 0.19765 0.59741 0.92229
 C333 C 0.18235 0.57774 0.90729
 C334 C 0.19544 0.55996 0.88802
 C335 C 0.22408 0.56228 0.88395
 C336 C 0.23945 0.58154 0.89938
 H337 H 0.29782 0.61991 0.98036
 H338 H 0.24583 0.68738 0.95308
 H339 H 0.16028 0.57643 0.91076
 H340 H 0.23470 0.54875 0.86932
 H341 H 0.21850 0.65490 0.92435
 H342 H 0.18721 0.61077 0.93721
 H343 H 0.27101 0.58758 0.95121
 H344 H 0.26158 0.58269 0.89625
 C345 C 0.05889 0.23837 0.38131
 C346 C 0.04411 0.26163 0.39078
 C347 C 0.02856 0.27746 0.37190
 C348 C 0.02790 0.27050 0.34323
 C349 C 0.04265 0.24731 0.33367
 C350 C 0.05780 0.23114 0.35266
 C351 C 0.07586 0.22209 0.40126
 C352 C 0.07286 0.19319 0.40316
 C353 C 0.08845 0.17802 0.42265
 C354 C 0.10771 0.19146 0.44012
 C355 C 0.11103 0.22032 0.43777
 C356 C 0.09506 0.23552 0.41871
 H357 H 0.01731 0.29536 0.37953
 H358 H 0.04234 0.24176 0.31156
 H359 H 0.08551 0.15579 0.42400
 H360 H 0.12562 0.23124 0.45106
 H361 H 0.06916 0.21336 0.34493
 H362 H 0.05808 0.18246 0.38994
 H363 H 0.04455 0.26745 0.41282
 H364 H 0.09782 0.25779 0.41745
 C365 C 0.06200 0.76189 0.61937
 C366 C 0.06713 0.76334 0.64845
 C367 C 0.05138 0.74758 0.66729
 C368 C 0.03053 0.72983 0.65729
 C369 C 0.02617 0.72773 0.62806
 C370 C 0.04142 0.74398 0.60933
 C371 C 0.07813 0.77886 0.59937
 C372 C 0.06460 0.79666 0.58046
 C373 C 0.07974 0.81216 0.56094
 C374 C 0.10861 0.80960 0.55957
 C375 C 0.12213 0.79178 0.57855
 C376 C 0.10702 0.77678 0.59853
 H377 H 0.05527 0.74943 0.68968
 H378 H 0.01082 0.71361 0.61972
 H379 H 0.06882 0.82565 0.54646
 H380 H 0.14437 0.78951 0.57798
 H381 H 0.03744 0.74229 0.58693
 H382 H 0.04231 0.79857 0.58085
 H383 H 0.08299 0.77704 0.65656
 H384 H 0.11779 0.76305 0.61289
 C385 C 0.93879 0.75657 0.38660
 C386 C 0.93616 0.72754 0.38790
 C387 C 0.95140 0.71056 0.36989
 C388 C 0.96981 0.72219 0.35039
 C389 C 0.97246 0.75114 0.34888
 C390 C 0.95712 0.76819 0.36685
 C391 C 0.92253 0.77451 0.40591
 C392 C 0.93434 0.79834 0.41802
 C393 C 0.91925 0.81462 0.43692
 C394 C 0.89207 0.80734 0.44424
 C395 C 0.88015 0.78374 0.43185
 C396 C 0.89516 0.76758 0.41285
 H397 H 0.94919 0.68825 0.37148
 H398 H 0.98635 0.76051 0.33373
 H399 H 0.92905 0.83263 0.44620
 H400 H 0.85918 0.77768 0.43687
 H401 H 0.95935 0.79046 0.36503
 H402 H 0.95548 0.80407 0.41340
 H403 H 0.92262 0.71788 0.40318
 H404 H 0.88525 0.74968 0.40349
 C405 C 0.93728 0.24201 0.61789
 C406 C 0.95584 0.23017 0.63731
 C407 C 0.97182 0.24704 0.65490
 C408 C 0.96962 0.27602 0.65326
 C409 C 0.95065 0.28786 0.63442
 C410 C 0.93476 0.27106 0.61681
 C411 C 0.92100 0.22433 0.59834
 C412 C 0.89364 0.23136 0.59140
 C413 C 0.87880 0.21569 0.57183
 C414 C 0.89088 0.19249 0.55885
 C415 C 0.91801 0.18505 0.56623
 C416 C 0.93293 0.20084 0.58570
 H417 H 0.98613 0.23753 0.66957
 H418 H 0.94874 0.31019 0.63281
 H419 H 0.85785 0.22183 0.56680
 H420 H 0.92792 0.16733 0.55653
 H421 H 0.92101 0.28088 0.60182
 H422 H 0.88366 0.24901 0.60113
 H423 H 0.95794 0.20787 0.63897
 H424 H 0.95408 0.19508 0.59028
 C425 C 0.38333 0.06273 0.24111
 C426 C 0.35525 0.06205 0.23366
 C427 C 0.33651 0.04643 0.24955
 C428 C 0.34574 0.03069 0.27260
 C429 C 0.37379 0.03140 0.28005
 C430 C 0.39240 0.04743 0.26455
 C431 C 0.40325 0.07940 0.22460
 C432 C 0.42088 0.09818 0.23827
 C433 C 0.44010 0.11359 0.22287
 C434 C 0.44246 0.11009 0.19357
 C435 C 0.42483 0.09123 0.17990
 C436 C 0.40518 0.07623 0.19526
 H437 H 0.31491 0.04617 0.24360
 H438 H 0.38122 0.01953 0.29790
 H439 H 0.45348 0.12789 0.23398
 H440 H 0.42615 0.08819 0.15733
 H441 H 0.41397 0.04759 0.27059
 H442 H 0.41965 0.10103 0.26087
 H443 H 0.34782 0.07386 0.21577
 H444 H 0.39186 0.06172 0.18434
 C445 C 0.61453 0.06105 0.76078
 C446 C 0.60482 0.03942 0.74366
 C447 C 0.62313 0.02435 0.72686
 C448 C 0.65159 0.03005 0.72758
 C449 C 0.66124 0.05172 0.74478
 C450 C 0.64284 0.06722 0.76108
 C451 C 0.59505 0.07735 0.77803
 C452 C 0.59412 0.10636 0.77561
 C453 C 0.57492 0.12168 0.79115
 C454 C 0.55680 0.10827 0.80983
 C455 C 0.55820 0.07929 0.81266
 C456 C 0.57695 0.06393 0.79665
 H457 H 0.61501 0.00838 0.71313
 H458 H 0.68306 0.05658 0.74564
 H459 H 0.57429 0.14400 0.78862
 H460 H 0.54435 0.06843 0.82678
 H461 H 0.65072 0.08381 0.77420
 H462 H 0.60785 0.11706 0.76125
 H463 H 0.58299 0.03461 0.74286
 H464 H 0.57744 0.04157 0.79887
 C465 C 0.38079 0.93756 0.75951
 C466 C 0.35276 0.93829 0.76712
 C467 C 0.33395 0.95398 0.75138
 C468 C 0.34308 0.96974 0.72832
 C469 C 0.37106 0.96896 0.72068
 C470 C 0.38973 0.95286 0.73604
 C471 C 0.40078 0.92086 0.77586
 C472 C 0.41822 0.90202 0.76207
 C473 C 0.43761 0.88666 0.77730
 C474 C 0.44032 0.89025 0.80656
 C475 C 0.42287 0.90915 0.82037
 C476 C 0.40305 0.92412 0.80518
 H477 H 0.31240 0.95431 0.75746
 H478 H 0.37840 0.98085 0.70282
 H479 H 0.45085 0.87232 0.76608
 H480 H 0.42446 0.91226 0.84291
 H481 H 0.41126 0.95266 0.72988
 H482 H 0.41673 0.89912 0.73948
 H483 H 0.34544 0.92648 0.78505
 H484 H 0.38989 0.93868 0.81619
 C485 C 0.61548 0.93979 0.24005
 C486 C 0.64370 0.93325 0.24058
 C487 C 0.66193 0.94873 0.25713
 C488 C 0.65218 0.97076 0.27375
 C489 C 0.62380 0.97688 0.27363
 C490 C 0.60568 0.96181 0.25657
 C491 C 0.59615 0.92329 0.22275
 C492 C 0.57825 0.93643 0.20368
 C493 C 0.55960 0.92084 0.18772
 C494 C 0.55812 0.89191 0.19105
 C495 C 0.57609 0.87880 0.21013
 C496 C 0.59516 0.89433 0.22561
 H497 H 0.68370 0.94355 0.25693
 H498 H 0.61561 0.99318 0.28688
 H499 H 0.54586 0.93147 0.17329
 H500 H 0.57540 0.85652 0.21305
 H501 H 0.58389 0.96691 0.25675
 H502 H 0.57879 0.95876 0.20111
 H503 H 0.65166 0.91634 0.22794
 H504 H 0.60872 0.88383 0.24032
 C505 C 0.38031 0.23935 0.93589
 C506 C 0.37655 0.26727 0.92829
 C507 C 0.35865 0.28429 0.94349
 C508 C 0.34445 0.27411 0.96725
 C509 C 0.34759 0.24588 0.97430
 C510 C 0.36528 0.22875 0.95884
 C511 C 0.40040 0.22170 0.92034
 C512 C 0.41648 0.20184 0.93463
 C513 C 0.43634 0.18629 0.92023
 C514 C 0.44084 0.19053 0.89131
 C515 C 0.42455 0.21004 0.87692
 C516 C 0.40443 0.22527 0.89120
 H517 H 0.35723 0.30594 0.93752
 H518 H 0.33604 0.23685 0.99155
 H519 H 0.44870 0.17147 0.93189
 H520 H 0.42733 0.21351 0.85455
 H521 H 0.36704 0.20715 0.96480
 H522 H 0.41429 0.19881 0.95713
 H523 H 0.38813 0.27635 0.91110
 H524 H 0.39204 0.23989 0.87935
 C525 C 0.61647 0.75835 0.93327
 C526 C 0.63209 0.76951 0.95553
 C527 C 0.65005 0.75276 0.97113
 C528 C 0.65292 0.72432 0.96495
 C529 C 0.63821 0.71353 0.94178
 C530 C 0.62000 0.73020 0.92645
 C531 C 0.59613 0.77572 0.91763
 C532 C 0.59136 0.77141 0.88871
 C533 C 0.57128 0.78672 0.87436
 C534 C 0.55578 0.80704 0.88846
 C535 C 0.56091 0.81188 0.91716
 C536 C 0.58072 0.79627 0.93164
 H537 H 0.66204 0.76226 0.98780
 H538 H 0.63949 0.69174 0.93643
 H539 H 0.56798 0.78274 0.85215
 H540 H 0.54916 0.82730 0.92861
 H541 H 0.60803 0.72070 0.90978
 H542 H 0.60320 0.75623 0.87705
 H543 H 0.63060 0.79129 0.96084
 H544 H 0.58344 0.79987 0.95398
 C545 C 0.38310 0.75829 0.06507
 C546 C 0.36684 0.76993 0.04355
 C547 C 0.34871 0.75346 0.02791
 C548 C 0.34626 0.72482 0.03333
 C549 C 0.36183 0.71346 0.05564
 C550 C 0.38020 0.72988 0.07103
 C551 C 0.40335 0.77555 0.08090
 C552 C 0.40853 0.77061 0.10965
 C553 C 0.42835 0.78610 0.12418
 C554 C 0.44317 0.80716 0.11041
 C555 C 0.43768 0.81250 0.08185
 C556 C 0.41814 0.79676 0.06721
 H557 H 0.33613 0.76338 0.01195
 H558 H 0.36095 0.69149 0.06035
 H559 H 0.43197 0.78168 0.14625
 H560 H 0.44893 0.82846 0.07062
 H561 H 0.39270 0.72005 0.08711
 H562 H 0.39718 0.75484 0.12103
 H563 H 0.36788 0.79190 0.03893
 H564 H 0.41510 0.80084 0.04499
 C565 C 0.61656 0.24185 0.06389
 C566 C 0.63605 0.22914 0.04611
 C567 C 0.65471 0.24517 0.03062
 C568 C 0.65425 0.27420 0.03260
 C569 C 0.63512 0.28696 0.05057
 C570 C 0.61639 0.27097 0.06598
 C571 C 0.59632 0.22492 0.08001
 C572 C 0.58868 0.23250 0.10753
 C573 C 0.56907 0.21709 0.12240
 C574 C 0.55673 0.19361 0.11019
 C575 C 0.56461 0.18576 0.08284
 C576 C 0.58412 0.20128 0.06789
 H577 H 0.66956 0.23495 0.01709
 H578 H 0.63435 0.30935 0.05221
 H579 H 0.56359 0.22359 0.14351
 H580 H 0.55539 0.16785 0.07279
 H581 H 0.60140 0.28147 0.07909
 H582 H 0.59801 0.25029 0.11769
 H583 H 0.63706 0.20677 0.04436
 H584 H 0.58923 0.19508 0.04660
 C585 C 0.24028 0.06458 0.61732
 C586 C 0.26866 0.07013 0.62001
 C587 C 0.28502 0.05489 0.63867
 C588 C 0.27366 0.03312 0.65478
 C589 C 0.24507 0.02804 0.65249
 C590 C 0.22864 0.04354 0.63406
 C591 C 0.22305 0.08040 0.59685
 C592 C 0.20159 0.06727 0.58193
 C593 C 0.18595 0.08194 0.56213
 C594 C 0.19162 0.10997 0.55650
 C595 C 0.21289 0.12319 0.57148
 C596 C 0.22829 0.10864 0.59156
 H597 H 0.30695 0.05931 0.63936
 H598 H 0.23516 0.01247 0.66547
 H599 H 0.16979 0.07115 0.55076
 H600 H 0.21758 0.14485 0.56779
 H601 H 0.20672 0.03920 0.63317
 H602 H 0.19725 0.04546 0.58506
 H603 H 0.27848 0.08581 0.60712
 H604 H 0.24424 0.11961 0.60302
 C605 C 0.75855 0.06128 0.38555
 C606 C 0.74557 0.03684 0.39452
 C607 C 0.72884 0.02176 0.37607
 C608 C 0.72531 0.03021 0.34780
 C609 C 0.73822 0.05508 0.33916
 C610 C 0.75455 0.07039 0.35779
 C611 C 0.77578 0.07752 0.40533
 C612 C 0.79613 0.06439 0.42169
 C613 C 0.81211 0.07968 0.44068
 C614 C 0.80768 0.10830 0.44402
 C615 C 0.78734 0.12141 0.42760
 C616 C 0.77170 0.10620 0.40826
 H617 H 0.71784 0.00409 0.38448
 H618 H 0.73653 0.06236 0.31763
 H619 H 0.82757 0.06902 0.45313
 H620 H 0.78352 0.14345 0.42969
 H621 H 0.76449 0.08915 0.35037
 H622 H 0.79973 0.04231 0.41964
 H623 H 0.74776 0.02982 0.41610
 H624 H 0.75601 0.11673 0.39599
 C625 C 0.75932 0.94023 0.61554
 C626 C 0.75844 0.93322 0.64424
 C627 C 0.74191 0.94832 0.66285
 C628 C 0.72567 0.97047 0.65302
 C629 C 0.72611 0.97703 0.62415
 C630 C 0.74312 0.96233 0.60567
 C631 C 0.77660 0.92413 0.59580
 C632 C 0.79523 0.93763 0.57775
 C633 C 0.81126 0.92237 0.55879
 C634 C 0.80845 0.89340 0.55714
 C635 C 0.78977 0.87994 0.57521
 C636 C 0.77421 0.89515 0.59457
 H637 H 0.74187 0.94281 0.68498
 H638 H 0.71317 0.99343 0.61586
 H639 H 0.82541 0.93325 0.54501
 H640 H 0.78727 0.85763 0.57443
 H641 H 0.74318 0.96780 0.58352
 H642 H 0.79745 0.95998 0.57846
 H643 H 0.77081 0.91624 0.65228
 H644 H 0.75985 0.88435 0.60822
 C645 C 0.24187 0.93633 0.38300
 C646 C 0.27029 0.93078 0.38075
 C647 C 0.28693 0.94610 0.36243
 C648 C 0.27582 0.96795 0.34623
 C649 C 0.24722 0.97311 0.34817
 C650 C 0.23052 0.95753 0.36626
 C651 C 0.22432 0.92031 0.40303
 C652 C 0.20262 0.93329 0.41766
 C653 C 0.18670 0.91845 0.43709
 C654 C 0.19232 0.89038 0.44262
 C655 C 0.21381 0.87730 0.42787
 C656 C 0.22949 0.89202 0.40817
 H657 H 0.30885 0.94162 0.36204
 H658 H 0.23750 0.98874 0.33511
 H659 H 0.17039 0.92915 0.44829
 H660 H 0.21848 0.85562 0.43150
 H661 H 0.20860 0.96189 0.36682
 H662 H 0.19830 0.95512 0.41464
 H663 H 0.27991 0.91499 0.39369
 H664 H 0.24562 0.88116 0.39690
 C665 C 0.06621 0.38296 0.75991
 C666 C 0.04719 0.36456 0.77232
 C667 C 0.03172 0.34637 0.75561
 C668 C 0.03496 0.34631 0.72622
 C669 C 0.05417 0.36433 0.71384
 C670 C 0.06952 0.38255 0.73046
 C671 C 0.08232 0.40285 0.77733
 C672 C 0.10986 0.40906 0.77040
 C673 C 0.12459 0.42896 0.78558
 C674 C 0.11225 0.44298 0.80825
 C675 C 0.08497 0.43629 0.81573
 C676 C 0.07013 0.41649 0.80038
 H677 H 0.01711 0.33245 0.76554
 H678 H 0.05679 0.36476 0.69117
 H679 H 0.14567 0.43341 0.77946
 H680 H 0.07488 0.44680 0.83306
 H681 H 0.08357 0.39676 0.72014
 H682 H 0.12008 0.39853 0.75317
 H683 H 0.04440 0.36410 0.79495
 H684 H 0.04886 0.41244 0.80607
 C685 C 0.06217 0.61341 0.24286
 C686 C 0.07070 0.64092 0.24682
 C687 C 0.05527 0.65892 0.26369
 C688 C 0.03088 0.64985 0.27717
 C689 C 0.02315 0.62180 0.27381
 C690 C 0.03830 0.60401 0.25653
 C691 C 0.07839 0.59430 0.22499
 C692 C 0.06528 0.57819 0.20428
 C693 C 0.08049 0.55952 0.18796
 C694 C 0.10899 0.55624 0.19245
 C695 C 0.12210 0.57250 0.21308
 C696 C 0.10698 0.59155 0.22902
 H697 H 0.06203 0.68027 0.26528
 H698 H 0.00595 0.61311 0.28533
 H699 H 0.06984 0.54718 0.17229
 H700 H 0.14406 0.57045 0.21693
 H701 H 0.03179 0.58262 0.25444
 H702 H 0.04326 0.58011 0.20073
 H703 H 0.08907 0.64863 0.23641
 H704 H 0.11748 0.60365 0.24499
 C705 C 0.93820 0.38419 0.23762
 C706 C 0.93108 0.35597 0.23769
 C707 C 0.94631 0.33701 0.25369
 C708 C 0.96869 0.34599 0.27020
 C709 C 0.97536 0.37437 0.27061
 C710 C 0.96053 0.39322 0.25410
 C711 C 0.92206 0.40428 0.22078
 C712 C 0.93539 0.42235 0.20199
 C713 C 0.92012 0.44155 0.18630
 C714 C 0.89134 0.44342 0.18963
 C715 C 0.87806 0.42535 0.20851
 C716 C 0.89326 0.40574 0.22372
 H717 H 0.94068 0.31528 0.25312
 H718 H 0.99191 0.38200 0.28384
 H719 H 0.93088 0.45533 0.17199
 H720 H 0.85590 0.42631 0.21142
 H721 H 0.96609 0.41498 0.25466
 H722 H 0.95759 0.42147 0.19935
 H723 H 0.91393 0.34859 0.22510
 H724 H 0.88261 0.39207 0.23821
 C725 C 0.93866 0.61611 0.76000
 C726 C 0.93291 0.61966 0.73118
 C727 C 0.94813 0.63835 0.71490
 C728 C 0.97009 0.65361 0.72676
 C729 C 0.97573 0.65003 0.75568
 C730 C 0.96022 0.63163 0.77204
 C731 C 0.92223 0.59630 0.77734
 C732 C 0.93475 0.58098 0.79915
 C733 C 0.91944 0.56194 0.81496
 C734 C 0.89135 0.55747 0.80908
 C735 C 0.87873 0.57290 0.78752
 C736 C 0.89392 0.59224 0.77199
 H737 H 0.94330 0.64003 0.69267
 H738 H 0.99130 0.66241 0.76613
 H739 H 0.92978 0.55016 0.83130
 H740 H 0.85706 0.57006 0.78267
 H741 H 0.96476 0.63007 0.79433
 H742 H 0.95656 0.58319 0.80361
 H743 H 0.91689 0.60766 0.72096
 H744 H 0.88339 0.60408 0.75585
 C745 C 0.75540 0.61193 0.93699
 C746 C 0.73917 0.60270 0.95963
 C747 C 0.72231 0.62128 0.97428
 C748 C 0.72204 0.64958 0.96712
 C749 C 0.73821 0.65872 0.94436
 C750 C 0.75459 0.64004 0.92931
 C751 C 0.77294 0.59223 0.92122
 C752 C 0.77105 0.59056 0.89176
 C753 C 0.78719 0.57154 0.87687
 C754 C 0.80594 0.55426 0.89113
 C755 C 0.80814 0.55627 0.92059
 C756 C 0.79155 0.57489 0.93554
 H757 H 0.70946 0.61353 0.99120
 H758 H 0.73835 0.68042 0.93840
 H759 H 0.78513 0.57045 0.85416
 H760 H 0.82232 0.54310 0.93211
 H761 H 0.76701 0.64759 0.91194
 H762 H 0.75673 0.60367 0.88033
 H763 H 0.73920 0.58103 0.96564
 H764 H 0.79341 0.57596 0.95826
 C765 C 0.24490 0.38750 0.93765
 C766 C 0.25811 0.39585 0.96253
 C767 C 0.27448 0.37722 0.97769
 C768 C 0.27740 0.34941 0.96888
 C769 C 0.26438 0.34141 0.94350
 C770 C 0.24839 0.36022 0.92813
 C771 C 0.22783 0.40736 0.92145
 C772 C 0.20783 0.42362 0.93507
 C773 C 0.19184 0.44250 0.91975
 C774 C 0.19591 0.44580 0.89063
 C775 C 0.21595 0.42952 0.87704
 C776 C 0.23159 0.41032 0.89227
 H777 H 0.28559 0.38503 0.99579
 H778 H 0.26560 0.32026 0.93595
 H779 H 0.17661 0.45485 0.93078
 H780 H 0.21949 0.43158 0.85461
 H781 H 0.23827 0.35327 0.90903
 H782 H 0.20445 0.42154 0.95753
 H783 H 0.25631 0.41704 0.96987
 H784 H 0.24702 0.39812 0.88136
 C785 C 0.24287 0.61498 0.06294
 C786 C 0.27115 0.61790 0.06895
 C787 C 0.28745 0.63661 0.05381
 C788 C 0.27611 0.65251 0.03171
 C789 C 0.24766 0.64976 0.02603
 C790 C 0.23131 0.63131 0.04141
 C791 C 0.22552 0.59499 0.07902
 C792 C 0.20416 0.58024 0.06559
 C793 C 0.18808 0.56123 0.08060
 C794 C 0.19321 0.55625 0.10930
 C795 C 0.21445 0.57100 0.12279
 C796 C 0.23029 0.59028 0.10788
 H797 H 0.30928 0.63772 0.05871
 H798 H 0.23764 0.66272 0.01047
 H799 H 0.17200 0.55000 0.06958
 H800 H 0.21875 0.56775 0.14495
 H801 H 0.20944 0.63028 0.03677
 H802 H 0.20018 0.58296 0.04331
 H803 H 0.28090 0.60533 0.08503
 H804 H 0.24616 0.60163 0.11906
 C805 C 0.75864 0.38477 0.06003
 C806 C 0.75459 0.35768 0.06996
 C807 C 0.73829 0.33897 0.05481
 C808 C 0.72554 0.34685 0.02925
 C809 C 0.72904 0.37447 0.02001
 C810 C 0.74571 0.39300 0.03495
 C811 C 0.77582 0.40464 0.07612
 C812 C 0.79599 0.42067 0.06243
 C813 C 0.81187 0.43977 0.07759
 C814 C 0.80750 0.44352 0.10661
 C815 C 0.78735 0.42741 0.12027
 C816 C 0.77182 0.40800 0.10521
 H817 H 0.73654 0.31798 0.06273
 H818 H 0.71810 0.38230 0.00181
 H819 H 0.82718 0.45197 0.06650
 H820 H 0.78357 0.42981 0.14263
 H821 H 0.74789 0.41406 0.02730
 H822 H 0.79954 0.41830 0.04003
 H823 H 0.76445 0.35082 0.08924
 H824 H 0.75626 0.39601 0.11618
 C825 C 0.93689 0.76181 0.62052
 C826 C 0.95838 0.77305 0.63682
 C827 C 0.97396 0.75617 0.65476
 C828 C 0.96850 0.72751 0.65690
 C829 C 0.94637 0.71654 0.64115
 C830 C 0.93103 0.73337 0.62302
 C831 C 0.92088 0.77945 0.60061
 C832 C 0.89256 0.77464 0.59619
 C833 C 0.87786 0.79003 0.57626
 C834 C 0.89102 0.81088 0.56054
 C835 C 0.91911 0.81633 0.56549
 C836 C 0.93392 0.80068 0.58519
 H837 H 0.98987 0.76577 0.66749
 H838 H 0.94168 0.69458 0.64170
 H839 H 0.85615 0.78556 0.57312
 H840 H 0.92983 0.83217 0.55357
 H841 H 0.91500 0.72385 0.61039
 H842 H 0.88169 0.75891 0.60811
 H843 H 0.96300 0.79501 0.63599
 H844 H 0.95578 0.80470 0.58774
 C845 C 0.93600 0.23965 0.38140
 C846 C 0.95353 0.22703 0.36156
 C847 C 0.96873 0.24316 0.34264
 C848 C 0.96672 0.27219 0.34322
 C849 C 0.94907 0.28485 0.36276
 C850 C 0.93394 0.26876 0.38174
 C851 C 0.92005 0.22263 0.40181
 C852 C 0.89298 0.23016 0.40925
 C853 C 0.87827 0.21478 0.42917
 C854 C 0.89022 0.19141 0.44201
 C855 C 0.91711 0.18355 0.43424
 C856 C 0.93189 0.19904 0.41440
 H857 H 0.98200 0.23301 0.32745
 H858 H 0.94740 0.30724 0.36362
 H859 H 0.85753 0.22127 0.43455
 H860 H 0.92693 0.16571 0.44384
 H861 H 0.92100 0.27917 0.39703
 H862 H 0.88307 0.24791 0.39958
 H863 H 0.95525 0.20467 0.36045
 H864 H 0.95282 0.19289 0.40941
 C865 C 0.06253 0.24188 0.61416
 C866 C 0.07149 0.24564 0.64199
 C867 C 0.05642 0.26225 0.66056
 C868 C 0.03195 0.27567 0.65177
 C869 C 0.02369 0.27241 0.62342
 C870 C 0.03852 0.25541 0.60504
 C871 C 0.07849 0.22437 0.59444
 C872 C 0.06515 0.20424 0.57795
 C873 C 0.08016 0.18813 0.55886
 C874 C 0.10871 0.19223 0.55556
 C875 C 0.12205 0.21231 0.57217
 C876 C 0.10711 0.22806 0.59161
 H877 H 0.06355 0.26374 0.68214
 H878 H 0.00636 0.28382 0.61492
 H879 H 0.06934 0.17288 0.54626
 H880 H 0.14404 0.21586 0.57012
 H881 H 0.03164 0.25344 0.58341
 H882 H 0.04310 0.20095 0.57992
 H883 H 0.08995 0.23531 0.64952
 H884 H 0.11780 0.24358 0.60399
 C885 C 0.06301 0.75671 0.38618
 C886 C 0.06871 0.75634 0.35719
 C887 C 0.05310 0.73969 0.33905
 C888 C 0.03181 0.72284 0.34967
 C889 C 0.02679 0.72263 0.37885
 C890 C 0.04192 0.73976 0.39685
 C891 C 0.07906 0.77458 0.40541
 C892 C 0.06548 0.79343 0.42312
 C893 C 0.08053 0.80985 0.44192
 C894 C 0.10937 0.80719 0.44377
 C895 C 0.12295 0.78832 0.42598
 C896 C 0.10793 0.77238 0.40671
 H897 H 0.05748 0.74012 0.31667
 H898 H 0.01117 0.70916 0.38774
 H899 H 0.06954 0.82412 0.45549
 H900 H 0.14518 0.78595 0.42696
 H901 H 0.03750 0.73945 0.41923
 H902 H 0.04320 0.79546 0.42236
 H903 H 0.08494 0.76928 0.34859
 H904 H 0.11875 0.75784 0.39327
 C905 C 0.61537 0.93640 0.75887
 C906 C 0.61588 0.93379 0.72936
 C907 C 0.63450 0.94918 0.71326
 C908 C 0.65281 0.96771 0.72628
 C909 C 0.65267 0.97018 0.75575
 C910 C 0.63409 0.95468 0.77191
 C911 C 0.59510 0.92034 0.77582
 C912 C 0.58188 0.93243 0.79915
 C913 C 0.56213 0.91757 0.81446
 C914 C 0.55504 0.89037 0.80665
 C915 C 0.56845 0.87819 0.78352
 C916 C 0.58831 0.89296 0.76836
 H917 H 0.63419 0.94715 0.69053
 H918 H 0.66685 0.98420 0.76617
 H919 H 0.55209 0.92756 0.83213
 H920 H 0.56364 0.85719 0.77711
 H921 H 0.63452 0.95686 0.79461
 H922 H 0.58634 0.95360 0.80523
 H923 H 0.60146 0.92029 0.71860
 H924 H 0.59846 0.88285 0.75083
 C925 C 0.38662 0.93767 0.24307
 C926 C 0.37055 0.95870 0.23074
 C927 C 0.35206 0.97414 0.24695
 C928 C 0.34898 0.96900 0.27602
 C929 C 0.36468 0.94744 0.28816
 C930 C 0.38344 0.93226 0.27200
 C931 C 0.40657 0.92144 0.22583
 C932 C 0.41114 0.89312 0.23132
 C933 C 0.43028 0.87804 0.21550
 C934 C 0.44501 0.89082 0.19357
 C935 C 0.44022 0.91898 0.18776
 C936 C 0.42137 0.93416 0.20383
 H937 H 0.33930 0.98932 0.23633
 H938 H 0.36331 0.94297 0.31049
 H939 H 0.43340 0.85631 0.22032
 H940 H 0.45147 0.92945 0.17115
 H941 H 0.39582 0.91658 0.28236
 H942 H 0.39975 0.88247 0.24769
 H943 H 0.37178 0.96288 0.20836
 H944 H 0.41879 0.95602 0.19931
 C945 C 0.61746 0.06426 0.24061
 C946 C 0.63600 0.04557 0.22791
 C947 C 0.65438 0.03009 0.24437
 C948 C 0.65448 0.03299 0.27379
 C949 C 0.63634 0.05188 0.28646
 C950 C 0.61794 0.06725 0.27008
 C951 C 0.59737 0.08032 0.22341
 C952 C 0.59089 0.10785 0.23054
 C953 C 0.57100 0.12258 0.21536
 C954 C 0.55726 0.11021 0.19251
 C955 C 0.56412 0.08288 0.18495
 C956 C 0.58391 0.06806 0.20029
 H957 H 0.66840 0.01574 0.23422
 H958 H 0.63598 0.05423 0.30916
 H959 H 0.56638 0.14369 0.22155
 H960 H 0.55383 0.07276 0.16749
 H961 H 0.60364 0.08105 0.28060
 H962 H 0.60124 0.11809 0.24789
 H963 H 0.63641 0.04306 0.20524
 H964 H 0.58816 0.04678 0.19446
 C965 C 0.38464 0.06209 0.75849
 C966 C 0.36842 0.04114 0.77072
 C967 C 0.34970 0.02600 0.75444
 C968 C 0.34656 0.03138 0.72542
 C969 C 0.36242 0.05285 0.71339
 C970 C 0.38140 0.06773 0.72960
 C971 C 0.40476 0.07808 0.77578
 C972 C 0.40944 0.10640 0.77043
 C973 C 0.42874 0.12128 0.78623
 C974 C 0.44355 0.10832 0.80803
 C975 C 0.43864 0.08017 0.81374
 C976 C 0.41960 0.06516 0.79767
 H977 H 0.33683 0.01087 0.76499
 H978 H 0.36102 0.05748 0.69109
 H979 H 0.43193 0.14303 0.78151
 H980 H 0.44992 0.06958 0.83027
 H981 H 0.39390 0.08335 0.71931
 H982 H 0.39800 0.11720 0.75417
 H983 H 0.36972 0.03679 0.79306
 H984 H 0.41690 0.04330 0.80210
 C985 C 0.61420 0.75815 0.05993
 C986 C 0.60430 0.74081 0.03844
 C987 C 0.62253 0.72423 0.02308
 C988 C 0.65110 0.72544 0.02829
 C989 C 0.66092 0.74267 0.04997
 C990 C 0.64260 0.75874 0.06578
 C991 C 0.59484 0.77541 0.07634
 C992 C 0.59425 0.77357 0.10585
 C993 C 0.57527 0.78919 0.12133
 C994 C 0.55701 0.80739 0.10759
 C995 C 0.55805 0.80964 0.07809
 C996 C 0.57660 0.79353 0.06257
 H997 H 0.61437 0.71059 0.00698
 H998 H 0.68282 0.74385 0.05446
 H999 H 0.57492 0.78713 0.14406
 H1000 H 0.54409 0.82340 0.06698
 H1001 H 0.65061 0.77200 0.08229
 H1002 H 0.60811 0.75962 0.11684
 H1003 H 0.58240 0.73980 0.03386
 H1004 H 0.57684 0.79530 0.03981
 C1005 C 0.38543 0.24319 0.06227
 C1006 C 0.35717 0.24295 0.06879
 C1007 C 0.33858 0.25866 0.05287
 C1008 C 0.34800 0.27515 0.03042
 C1009 C 0.37643 0.27605 0.02454
 C1010 C 0.39493 0.25984 0.04003
 C1011 C 0.40502 0.22606 0.07859
 C1012 C 0.42286 0.20767 0.06470
 C1013 C 0.44153 0.19155 0.08006
 C1014 C 0.44310 0.19399 0.10953
 C1015 C 0.42528 0.21248 0.12340
 C1016 C 0.40617 0.22816 0.10807
 H1017 H 0.31678 0.25776 0.05789
 H1018 H 0.38428 0.28915 0.00781
 H1019 H 0.45514 0.17757 0.06884
 H1020 H 0.42605 0.21470 0.14610
 H1021 H 0.41671 0.26056 0.03492
 H1022 H 0.42218 0.20568 0.04198
 H1023 H 0.34946 0.23019 0.08586
 H1024 H 0.39262 0.24231 0.11914
 C1025 C 0.61420 0.24068 0.94077
 C1026 C 0.64219 0.23302 0.94167
 C1027 C 0.66132 0.24943 0.95615
 C1028 C 0.65259 0.27331 0.97042
 C1029 C 0.62462 0.28079 0.96990
 C1030 C 0.60558 0.26470 0.95500
 C1031 C 0.59409 0.22403 0.92455
 C1032 C 0.57670 0.23695 0.90485
 C1033 C 0.55772 0.22136 0.88935
 C1034 C 0.55539 0.19261 0.89364
 C1035 C 0.57267 0.17970 0.91352
 C1036 C 0.59207 0.19525 0.92864
 H1037 H 0.68288 0.24344 0.95643
 H1038 H 0.61762 0.29919 0.98087
 H1039 H 0.54458 0.23188 0.87426
 H1040 H 0.57135 0.15757 0.91720
 H1041 H 0.58408 0.27088 0.95471
 H1042 H 0.57803 0.25910 0.90124
 H1043 H 0.64928 0.21467 0.93070
 H1044 H 0.60523 0.18490 0.94384
 C1045 C 0.38278 0.75891 0.93764
 C1046 C 0.39248 0.74066 0.95842
 C1047 C 0.37395 0.72478 0.97415
 C1048 C 0.34532 0.72760 0.97008
 C1049 C 0.33566 0.74570 0.94902
 C1050 C 0.35427 0.76109 0.93278
 C1051 C 0.40250 0.77574 0.92124
 C1052 C 0.40311 0.77405 0.89172
 C1053 C 0.42261 0.78921 0.87637
 C1054 C 0.44130 0.80680 0.89028
 C1055 C 0.44025 0.80886 0.91980
 C1056 C 0.42122 0.79320 0.93516
 H1057 H 0.38199 0.71039 0.98965
 H1058 H 0.31371 0.74810 0.94535
 H1059 H 0.42295 0.78735 0.85362
 H1060 H 0.45452 0.82216 0.93104
 H1061 H 0.34644 0.77510 0.91680
 H1062 H 0.38887 0.76057 0.88066
 H1063 H 0.41443 0.73846 0.96221
 H1064 H 0.42099 0.79481 0.95793
 C1065 C 0.76005 0.93539 0.38091
 C1066 C 0.77156 0.95423 0.36152
 C1067 C 0.75451 0.97015 0.34405
 C1068 C 0.72569 0.96761 0.34576
 C1069 C 0.71419 0.94833 0.36452
 C1070 C 0.73117 0.93250 0.38203
 C1071 C 0.77788 0.91936 0.40054
 C1072 C 0.77120 0.89187 0.40769
 C1073 C 0.78681 0.87740 0.42761
 C1074 C 0.80961 0.89000 0.44070
 C1075 C 0.81681 0.91720 0.43299
 C1076 C 0.80107 0.93176 0.41320
 H1077 H 0.76375 0.98471 0.32943
 H1078 H 0.69198 0.94614 0.36619
 H1079 H 0.78088 0.85637 0.43290
 H1080 H 0.83422 0.92751 0.44278
 H1081 H 0.72160 0.91855 0.39701
 H1082 H 0.75380 0.88152 0.39794
 H1083 H 0.79372 0.95663 0.35984
 H1084 H 0.80657 0.95303 0.40845
 C1085 C 0.23842 0.93920 0.61849
 C1086 C 0.25669 0.95940 0.60829
 C1087 C 0.27291 0.97476 0.62694
 C1088 C 0.27042 0.97090 0.65621
 C1089 C 0.25230 0.95043 0.66637
 C1090 C 0.23656 0.93455 0.64762
 C1091 C 0.22150 0.92295 0.59859
 C1092 C 0.22336 0.89392 0.59807
 C1093 C 0.20840 0.87867 0.57818
 C1094 C 0.19086 0.89220 0.55898
 C1095 C 0.18853 0.92122 0.56002
 C1096 C 0.20399 0.93650 0.57945
 H1097 H 0.28731 0.98980 0.61851
 H1098 H 0.25015 0.94693 0.68881
 H1099 H 0.21047 0.85630 0.57786
 H1100 H 0.17525 0.93215 0.54537
 H1101 H 0.22259 0.91898 0.65584
 H1102 H 0.23687 0.88314 0.61262
 H1103 H 0.25868 0.96298 0.58585
 H1104 H 0.20229 0.95890 0.57960
 C1105 C 0.24043 0.06219 0.38156
 C1106 C 0.25856 0.04200 0.39210
 C1107 C 0.27495 0.02652 0.37374
 C1108 C 0.27280 0.03023 0.34443
 C1109 C 0.25485 0.05071 0.33393
 C1110 C 0.23894 0.06671 0.35239
 C1111 C 0.22312 0.07838 0.40115
 C1112 C 0.22463 0.10744 0.40156
 C1113 C 0.20922 0.12260 0.42115
 C1114 C 0.19158 0.10895 0.44013
 C1115 C 0.18962 0.07988 0.43918
 C1116 C 0.20552 0.06472 0.42008
 H1117 H 0.28920 0.01146 0.38244
 H1118 H 0.25296 0.05410 0.31145
 H1119 H 0.21102 0.14500 0.42140
 H1120 H 0.17629 0.06884 0.45368
 H1121 H 0.22506 0.08224 0.34390
 H1122 H 0.23820 0.11831 0.38717
 H1123 H 0.26026 0.03849 0.41458
 H1124 H 0.20405 0.04229 0.42000
 C1125 C 0.75980 0.06422 0.61996
 C1126 C 0.73094 0.06747 0.61946
 C1127 C 0.71419 0.05195 0.63744
 C1128 C 0.72588 0.03267 0.65607
 C1129 C 0.75468 0.02955 0.65695
 C1130 C 0.77151 0.04518 0.63902
 C1131 C 0.77740 0.08031 0.60021
 C1132 C 0.80030 0.06791 0.58707
 C1133 C 0.81594 0.08267 0.56736
 C1134 C 0.80889 0.11007 0.56025
 C1135 C 0.78633 0.12263 0.57377
 C1136 C 0.77085 0.10796 0.59360
 H1137 H 0.69198 0.05449 0.63634
 H1138 H 0.76407 0.01493 0.67141
 H1139 H 0.83316 0.07240 0.55722
 H1140 H 0.78054 0.14381 0.56894
 H1141 H 0.79368 0.04248 0.64020
 H1142 H 0.80569 0.04653 0.59142
 H1143 H 0.72121 0.08155 0.60471
 H1144 H 0.75369 0.11830 0.60374
 C1145 C 0.93638 0.61533 0.24219
 C1146 C 0.93394 0.61386 0.27169
 C1147 C 0.94971 0.63111 0.28897
 C1148 C 0.96849 0.64996 0.27717
 C1149 C 0.97071 0.65188 0.24774
 C1150 C 0.95485 0.63466 0.23039
 C1151 C 0.92004 0.59635 0.22398
 C1152 C 0.89273 0.58939 0.23115
 C1153 C 0.87785 0.57031 0.21504
 C1154 C 0.88983 0.55788 0.19124
 C1155 C 0.91687 0.56533 0.18360
 C1156 C 0.93185 0.58430 0.19985
 H1157 H 0.94777 0.62929 0.31164
 H1158 H 0.98487 0.66656 0.23826
 H1159 H 0.85696 0.56520 0.22134
 H1160 H 0.92671 0.55604 0.16543
 H1161 H 0.95690 0.63659 0.20776
 H1162 H 0.88283 0.59868 0.24928
 H1163 H 0.92028 0.59893 0.28149
 H1164 H 0.95294 0.58894 0.19394
 C1165 C 0.94210 0.38654 0.75879
 C1166 C 0.93535 0.35825 0.75818
 C1167 C 0.95080 0.33983 0.74185
 C1168 C 0.97304 0.34945 0.72554
 C1169 C 0.97945 0.37788 0.72580
 C1170 C 0.96437 0.39620 0.74263
 C1171 C 0.92552 0.40605 0.77577
 C1172 C 0.93836 0.42388 0.79512
 C1173 C 0.92262 0.44244 0.81104
 C1174 C 0.89385 0.44388 0.80739
 C1175 C 0.88106 0.42609 0.78791
 C1176 C 0.89674 0.40712 0.77247
 H1177 H 0.94543 0.31802 0.74196
 H1178 H 0.99594 0.38597 0.71279
 H1179 H 0.93299 0.45603 0.82581
 H1180 H 0.85891 0.42674 0.78475
 H1181 H 0.96966 0.41803 0.74253
 H1182 H 0.96055 0.42328 0.79803
 H1183 H 0.91826 0.35039 0.77056
 H1184 H 0.88647 0.39361 0.75753
 C1185 C 0.06430 0.61829 0.75909
 C1186 C 0.06387 0.64641 0.76681
 C1187 C 0.04795 0.66540 0.75154
 C1188 C 0.03167 0.65636 0.72887
 C1189 C 0.03213 0.62828 0.72112
 C1190 C 0.04847 0.60942 0.73601
 C1191 C 0.08102 0.59811 0.77519
 C1192 C 0.09953 0.58044 0.76121
 C1193 C 0.11501 0.56102 0.77637
 C1194 C 0.11179 0.55855 0.80569
 C1195 C 0.09321 0.57621 0.81963
 C1196 C 0.07816 0.59603 0.80454
 H1197 H 0.04790 0.68703 0.75768
 H1198 H 0.01985 0.62103 0.70351
 H1199 H 0.12912 0.54761 0.76509
 H1200 H 0.09042 0.57481 0.84223
 H1201 H 0.04842 0.58780 0.72980
 H1202 H 0.10209 0.58180 0.73858
 H1203 H 0.07608 0.65367 0.78447
 H1204 H 0.06387 0.60937 0.81568
 C1205 C 0.06234 0.38034 0.23740
 C1206 C 0.04345 0.36229 0.22427
 C1207 C 0.02778 0.34369 0.24031
 C1208 C 0.03076 0.34286 0.26971
 C1209 C 0.04987 0.36051 0.28279
 C1210 C 0.06537 0.37916 0.26685
 C1211 C 0.07856 0.40070 0.22068
 C1212 C 0.06654 0.41471 0.19774
 C1213 C 0.08151 0.43469 0.18282
 C1214 C 0.10873 0.44125 0.19065
 C1215 C 0.12086 0.42704 0.21335
 C1216 C 0.10600 0.40691 0.22809
 H1217 H 0.01326 0.33005 0.22985
 H1218 H 0.05227 0.36030 0.30549
 H1219 H 0.07158 0.44537 0.16547
 H1220 H 0.14189 0.43143 0.21971
 H1221 H 0.07931 0.39309 0.27771
 H1222 H 0.04534 0.41072 0.19173
 H1223 H 0.04089 0.36240 0.20161
 H1224 H 0.11607 0.39613 0.24529
   
