data_POSCAR
  _audit_creation_date              2014-09-24
  _audit_creation_method            'ToBaCCo'
  _symmetry_space_group_name_H-M    'P1'
  _symmetry_Int_Tables_number       1
  _symmetry_cell_setting            triclinic
  loop_
  _symmetry_equiv_pos_as_xyz
 x,y,z
_cell_length_a 28.2128
_cell_length_b 28.1927
_cell_length_c 27.5111
_cell_angle_alpha 90.239100
_cell_angle_beta 89.419900
_cell_angle_gamma 85.920900
loop_
  _atom_site_label
  _atom_site_type_symbol
  _atom_site_fract_x
  _atom_site_fract_y
  _atom_site_fract_z
C1 C 0.31337 0.27398 0.22832
 C2 C 0.32340 0.23992 0.26466
 C3 C 0.28959 0.23131 0.30060
 C4 C 0.24569 0.25838 0.30089
 C5 C 0.23521 0.29268 0.26496
 C6 C 0.26957 0.30066 0.22913
 H7 H 0.35764 0.21996 0.26519
 H8 H 0.21969 0.25341 0.32927
 H9 H 0.26267 0.32782 0.20190
 C10 C 0.70687 -0.22687 0.20231
 C11 C 0.73892 -0.26637 0.19139
 C12 C 0.78037 -0.27614 0.21859
 C13 C 0.78997 -0.24500 0.25702
 C14 C 0.75888 -0.20545 0.26834
 C15 C 0.71797 -0.19610 0.24021
 H16 H 0.73265 -0.28940 0.16095
 H17 H 0.82206 -0.25013 0.27801
 H18 H 0.69454 -0.16477 0.24777
 C19 C 0.69957 0.29445 0.75340
 C20 C 0.69402 0.25996 0.71741
 C21 C 0.72777 0.25205 0.68028
 C22 C 0.76643 0.28063 0.67734
 C23 C 0.77180 0.31715 0.71158
 C24 C 0.73768 0.32362 0.74968
 H25 H 0.66370 0.23847 0.71840
 H26 H 0.79205 0.27464 0.64791
 H27 H 0.74000 0.35067 0.77722
 C28 C 0.28010 -0.27590 0.76878
 C29 C 0.24814 -0.31135 0.76194
 C30 C 0.21483 -0.30832 0.72388
 C31 C 0.21541 -0.26964 0.69194
 C32 C 0.24762 -0.23444 0.69749
 C33 C 0.27995 -0.23760 0.73609
 H34 H 0.24974 -0.34079 0.78698
 H35 H 0.19010 -0.26645 0.66249
 H36 H 0.30454 -0.21027 0.74075
 C37 C 0.71301 -0.22023 0.80509
 C38 C 0.72193 -0.18878 0.76733
 C39 C 0.76261 -0.19630 0.73768
 C40 C 0.79544 -0.23470 0.74759
 C41 C 0.78775 -0.26665 0.78597
 C42 C 0.74598 -0.25891 0.81423
 H43 H 0.69708 -0.15834 0.76154
 H44 H 0.82646 -0.23902 0.72435
 H45 H 0.73965 -0.28247 0.84427
 C46 C 0.25671 0.19880 0.82750
 C47 C 0.25004 0.16829 0.78832
 C48 C 0.21099 0.17623 0.75743
 C49 C 0.17702 0.21372 0.76776
 C50 C 0.18319 0.24498 0.80701
 C51 C 0.22291 0.23689 0.83700
 H52 H 0.27592 0.13868 0.78149
 H53 H 0.14630 0.21876 0.74460
 H54 H 0.22760 0.26051 0.86747
 C55 C 0.26836 -0.26547 0.22981
 C56 C 0.23902 -0.30280 0.23918
 C57 C 0.20544 -0.29995 0.27733
 C58 C 0.20299 -0.26038 0.30822
 C59 C 0.23255 -0.22310 0.30082
 C60 C 0.26472 -0.22536 0.26111
 H61 H 0.24206 -0.33423 0.21624
 H62 H 0.17746 -0.25838 0.33803
 H63 H 0.28644 -0.19595 0.25507
 C64 C 0.72317 0.26329 0.20687
 C65 C 0.71537 0.22720 0.24034
 C66 C 0.74372 0.22092 0.28156
 C67 C 0.78020 0.25144 0.28968
 C68 C 0.78822 0.28815 0.25690
 C69 C 0.75876 0.29429 0.21594
 H70 H 0.68656 0.20433 0.23496
 H71 H 0.80171 0.24738 0.32200
 H72 H 0.76275 0.32345 0.19113
 O73 O 0.30594 0.05419 0.45898
 O74 O 0.33220 -0.04543 0.54406
 O75 O 0.32454 -0.03767 0.44984
 O76 O 0.31787 0.04612 0.55253
 O77 O 0.24095 0.03787 0.56098
 O78 O 0.24777 -0.04685 0.45774
 O79 O 0.25522 -0.05350 0.55156
 O80 O 0.22921 0.04495 0.46722
 Cu81 Cu 0.32781 0.00525 0.50037
 Cu82 Cu 0.23557 -0.00519 0.50998
 C83 C 0.26292 0.06652 0.44883
 C84 C 0.29782 -0.06621 0.56255
 C85 C 0.28752 -0.05692 0.43651
 C86 C 0.27871 0.05594 0.57458
 O87 O 0.80046 0.03616 0.54437
 O88 O 0.77345 -0.05581 0.45441
 O89 O 0.80349 0.02926 0.45121
 O90 O 0.77371 -0.05092 0.55051
 O91 O 0.69897 -0.02193 0.54923
 O92 O 0.72842 0.05735 0.44896
 O93 O 0.69840 -0.02761 0.45425
 O94 O 0.72552 0.06451 0.54189
 Cu95 Cu 0.79517 -0.01383 0.50052
 Cu96 Cu 0.70524 0.02056 0.49851
 C97 C 0.76758 0.06697 0.55718
 C98 C 0.73133 -0.05669 0.43845
 C99 C 0.77114 0.05756 0.43377
 C100 C 0.73152 -0.04968 0.56727
 O101 O 0.47400 0.26202 0.04956
 O102 O 0.55146 0.26786 -0.05926
 O103 O 0.45966 0.27725 -0.04215
 O104 O 0.56511 0.25818 0.03429
 O105 O 0.56404 0.18050 0.02431
 O106 O 0.45676 0.19958 -0.05060
 O107 O 0.54839 0.19034 -0.06890
 O108 O 0.47395 0.18412 0.04005
 Cu109 Cu 0.51292 0.27418 -0.00367
 Cu110 Cu 0.51089 0.18089 -0.01529
 C111 C 0.46109 0.22179 0.06330
 C112 C 0.56297 0.22965 -0.08258
 C113 C 0.43946 0.24176 -0.05831
 C114 C 0.58198 0.21622 0.04320
 O115 O 0.52899 0.78654 0.04911
 O116 O 0.43804 0.80902 -0.04536
 O117 O 0.43801 0.81067 0.05067
 O118 O 0.52936 0.78669 -0.04458
 O119 O 0.51549 0.71055 -0.04427
 O120 O 0.42384 0.73468 0.05112
 O121 O 0.42437 0.73291 -0.04504
 O122 O 0.51479 0.71047 0.04891
 Cu123 Cu 0.48447 0.80600 0.00245
 Cu124 Cu 0.46755 0.71468 0.00275
 C125 C 0.53808 0.74431 0.06415
 C126 C 0.41654 0.77449 -0.06210
 C127 C 0.41606 0.77666 0.06789
 C128 C 0.53875 0.74442 -0.05987
 O129 O 0.04895 0.44102 0.24852
 O130 O -0.04214 0.53683 0.27197
 O131 O -0.04377 0.44571 0.25261
 O132 O 0.04916 0.53285 0.25679
 O133 O 0.04070 0.54386 0.17777
 O134 O -0.04970 0.45806 0.17362
 O135 O -0.05043 0.54920 0.19318
 O136 O 0.04332 0.45253 0.16941
 Cu137 Cu 0.00355 0.48786 0.26532
 Cu138 Cu -0.00510 0.50184 0.17070
 C139 C 0.06262 0.43092 0.20547
 C140 C -0.06134 0.55988 0.23714
 C141 C -0.06221 0.43708 0.21169
 C142 C 0.06066 0.55293 0.21737
 O143 O 0.05179 0.52865 0.80899
 O144 O -0.05621 0.46560 0.80653
 O145 O 0.03355 0.44110 0.79665
 O146 O -0.03997 0.55629 0.79597
 O147 O -0.03425 0.55650 0.71585
 O148 O 0.03675 0.44401 0.71645
 O149 O -0.05569 0.46625 0.72623
 O150 O 0.05388 0.53194 0.72877
 Cu151 Cu -0.00344 0.49876 0.80924
 Cu152 Cu -0.00053 0.49921 0.71447
 C153 C 0.07142 0.54124 0.77004
 C154 C -0.07441 0.45479 0.76656
 C155 C 0.04767 0.42322 0.75582
 C156 C -0.04926 0.57590 0.75508
 C157 C 0.34790 0.28226 0.18899
 C158 C 0.37709 0.24718 0.17067
 C159 C 0.40864 0.25487 0.12905
 C160 C 0.43088 0.21754 0.10651
 H161 H 0.37606 0.21144 0.18480
 H162 H 0.41246 0.29063 0.11596
 H163 H 0.34681 0.31709 0.17230
 H164 H 0.42544 0.18194 0.11921
 C165 C 0.66476 0.78363 0.17600
 C166 C 0.64452 0.75245 0.14724
 C167 C 0.60183 0.76640 0.11884
 C168 C 0.57724 0.73314 0.09801
 H169 H 0.65832 0.71573 0.14493
 H170 H 0.59142 0.80380 0.11379
 H171 H 0.64646 0.81855 0.18073
 H172 H 0.58736 0.69589 0.10451
 C173 C 0.66643 0.30006 -0.20438
 C174 C 0.64457 0.26336 -0.18619
 C175 C 0.61318 0.26796 -0.14310
 C176 C 0.59371 0.22946 -0.12599
 H177 H 0.65105 0.22836 -0.20233
 H178 H 0.60646 0.30219 -0.12530
 H179 H 0.66213 0.33429 -0.18615
 H180 H 0.60116 0.19557 -0.14432
 C181 C 0.31345 0.71909 -0.18984
 C182 C 0.33209 0.75566 -0.16751
 C183 C 0.36381 0.74721 -0.12561
 C184 C 0.38289 0.78297 -0.10241
 H185 H 0.32343 0.79182 -0.17925
 H186 H 0.37225 0.71089 -0.11405
 H187 H 0.32123 0.68360 -0.17559
 H188 H 0.37502 0.81922 -0.11439
 C189 C 0.18911 0.32120 0.26742
 C190 C 0.16781 0.34156 0.22870
 C191 C 0.12402 0.37261 0.23500
 C192 C 0.10247 0.39494 0.19751
 H193 H 0.18293 0.33631 0.19259
 H194 H 0.11045 0.37907 0.27164
 H195 H 0.17180 0.32526 0.30273
 H196 H 0.11589 0.38863 0.16083
 C197 C 0.18018 0.65859 0.71660
 C198 C 0.17106 0.62319 0.74695
 C199 C 0.13086 0.59361 0.73823
 C200 C 0.11464 0.56715 0.77404
 H201 H 0.19065 0.61725 0.78014
 H202 H 0.11269 0.59574 0.70368
 H203 H 0.15756 0.66342 0.68506
 H204 H 0.13176 0.56715 0.80916
 C205 C -0.18909 0.68383 0.20555
 C206 C -0.15350 0.66543 0.23309
 C207 C -0.12274 0.62372 0.21709
 C208 C -0.09527 0.60016 0.24944
 H209 H -0.14739 0.67944 0.26891
 H210 H -0.12247 0.61247 0.17935
 H211 H -0.19584 0.66552 0.17180
 H212 H -0.09740 0.61107 0.28731
 C213 C -0.18881 0.34513 0.70635
 C214 C -0.17691 0.37833 0.73818
 C215 C -0.13404 0.40468 0.73126
 C216 C -0.11793 0.42920 0.76849
 H217 H -0.19719 0.38561 0.77115
 H218 H -0.11494 0.40273 0.69685
 H219 H -0.16567 0.33854 0.67491
 H220 H -0.13637 0.42883 0.80327
 C221 C 0.30181 0.19421 0.33735
 C222 C 0.26934 0.17003 0.36044
 C223 C 0.28364 0.13145 0.39440
 C224 C 0.25094 0.10606 0.41538
 H225 H 0.23190 0.17730 0.35309
 H226 H 0.32102 0.12348 0.40184
 H227 H 0.33914 0.18446 0.34350
 H228 H 0.21367 0.11439 0.40762
 C229 C 0.72111 0.21370 0.64499
 C230 C 0.75647 0.18267 0.63044
 C231 C 0.74607 0.14219 0.59937
 C232 C 0.77863 0.10663 0.58921
 H233 H 0.79234 0.18593 0.64317
 H234 H 0.71056 0.14140 0.58477
 H235 H 0.68500 0.20795 0.63447
 H236 H 0.81421 0.10727 0.60359
 C237 C 0.24393 -0.19365 0.66375
 C238 C 0.28020 -0.16812 0.65087
 C239 C 0.27204 -0.12894 0.61600
 C240 C 0.30742 -0.10533 0.59734
 H241 H 0.31555 -0.17663 0.66477
 H242 H 0.23580 -0.11946 0.60499
 H243 H 0.20969 -0.18555 0.64694
 H244 H 0.34381 -0.11487 0.60765
 C245 C 0.77112 -0.17394 0.30899
 C246 C 0.73855 -0.14831 0.33557
 C247 C 0.75252 -0.11757 0.37568
 C248 C 0.71959 -0.09086 0.40062
 H249 H 0.70109 -0.15014 0.32816
 H250 H 0.78986 -0.11570 0.38385
 H251 H 0.80825 -0.17335 0.31868
 H252 H 0.68245 -0.09233 0.39137
 C253 C 0.67001 0.78964 -0.16419
 C254 C 0.64602 0.75543 -0.14391
 C255 C 0.60422 0.76754 -0.11254
 C256 C 0.57790 0.73378 -0.09496
 H257 H 0.65707 0.71834 -0.15046
 H258 H 0.59564 0.80447 -0.10276
 H259 H 0.65668 0.82644 -0.15955
 H260 H 0.58641 0.69695 -0.10516
 C261 C 0.29986 0.19018 -0.14291
 C262 C 0.32381 0.22544 -0.12506
 C263 C 0.36892 0.21519 -0.09945
 C264 C 0.39504 0.25038 -0.08542
 H265 H 0.31114 0.26214 -0.13099
 H266 H 0.38080 0.17854 -0.09200
 H267 H 0.31462 0.15379 -0.13928
 H268 H 0.38279 0.28694 -0.09283
 C269 C 0.29983 0.72948 0.18950
 C270 C 0.32663 0.76309 0.17189
 C271 C 0.35831 0.75264 0.12947
 C272 C 0.38212 0.78658 0.10846
 H273 H 0.32533 0.79839 0.18750
 H274 H 0.36257 0.71652 0.11559
 H275 H 0.30183 0.69566 0.17028
 H276 H 0.37756 0.82272 0.12224
 C277 C 0.69273 0.27089 0.16372
 C278 C 0.67421 0.23506 0.14018
 C279 C 0.64033 0.24420 0.10045
 C280 C 0.62148 0.20829 0.07739
 H281 H 0.68301 0.19863 0.15110
 H282 H 0.62871 0.28068 0.09193
 H283 H 0.68580 0.30695 0.15071
 H284 H 0.63324 0.17191 0.08614
 C285 C -0.18047 0.69375 0.79702
 C286 C -0.13969 0.68173 0.77295
 C287 C -0.11023 0.63768 0.78369
 C288 C -0.07703 0.62180 0.75145
 H289 H -0.12784 0.70285 0.74321
 H290 H -0.11741 0.61706 0.81576
 H291 H -0.19012 0.67070 0.82646
 H292 H -0.07252 0.64163 0.71821
 C293 C -0.17374 0.32050 0.26730
 C294 C -0.15271 0.34467 0.23243
 C295 C -0.11603 0.37792 0.24295
 C296 C -0.09848 0.40257 0.20642
 H297 H -0.16228 0.33984 0.19483
 H298 H -0.10399 0.38259 0.27983
 H299 H -0.16200 0.32368 0.30450
 H300 H -0.11153 0.39738 0.16995
 C301 C 0.14965 0.28701 0.81678
 C302 C 0.12580 0.31010 0.78127
 C303 C 0.09539 0.35410 0.79020
 C304 C 0.07694 0.37807 0.75228
 H305 H 0.13046 0.29780 0.74406
 H306 H 0.08910 0.36726 0.82694
 H307 H 0.14722 0.30136 0.85342
 H308 H 0.08457 0.36444 0.71589
 C309 C 0.17189 0.66259 0.28510
 C310 C 0.15451 0.63883 0.24795
 C311 C 0.11843 0.60408 0.25474
 C312 C 0.09768 0.58695 0.21566
 H313 H 0.16535 0.64673 0.21114
 H314 H 0.10832 0.59340 0.29098
 H315 H 0.15843 0.65706 0.32154
 H316 H 0.10774 0.59914 0.17991
 C317 C 0.77287 -0.16434 0.69665
 C318 C 0.73956 -0.13741 0.67311
 C319 C 0.75253 -0.10767 0.63173
 C320 C 0.71959 -0.08035 0.60824
 H321 H 0.70246 -0.13786 0.68336
 H322 H 0.78952 -0.10793 0.62058
 H323 H 0.80940 -0.16453 0.68392
 H324 H 0.68272 -0.07980 0.61988
 C325 C 0.22746 -0.18206 0.33486
 C326 C 0.26237 -0.15393 0.34477
 C327 C 0.25564 -0.11663 0.38245
 C328 C 0.29177 -0.09176 0.39637
 H329 H 0.29679 -0.15981 0.32715
 H330 H 0.22122 -0.11064 0.40018
 H331 H 0.19431 -0.17671 0.35513
 H332 H 0.32627 -0.09838 0.37894
 C333 C 0.73242 0.18385 0.31669
 C334 C 0.76553 0.15835 0.34160
 C335 C 0.75165 0.12197 0.37606
 C336 C 0.78406 0.09178 0.39655
 H337 H 0.80285 0.16383 0.33615
 H338 H 0.71432 0.12028 0.38520
 H339 H 0.69555 0.17571 0.32038
 H340 H 0.82127 0.09308 0.38679
 C341 C 0.20592 0.14642 0.71357
 C342 C 0.24378 0.13024 0.68715
 C343 C 0.23967 0.10057 0.64343
 C344 C 0.27850 0.08799 0.61686
 H345 H 0.27890 0.13957 0.69757
 H346 H 0.20545 0.08838 0.63359
 H347 H 0.17054 0.13989 0.70138
 H348 H 0.31232 0.10084 0.62725
   
