data_POSCAR
  _audit_creation_date              2014-09-24
  _audit_creation_method            'ToBaCCo'
  _symmetry_space_group_name_H-M    'P1'
  _symmetry_Int_Tables_number       1
  _symmetry_cell_setting            triclinic
  loop_
  _symmetry_equiv_pos_as_xyz
 x,y,z
_cell_length_a 14.7187
_cell_length_b 15.0100
_cell_length_c 15.3877
_cell_angle_alpha 90.111300
_cell_angle_beta 90.987000
_cell_angle_gamma 90.912400
loop_
  _atom_site_label
  _atom_site_type_symbol
  _atom_site_fract_x
  _atom_site_fract_y
  _atom_site_fract_z
Si1 Si 0.02078 0.49987 0.24945
 Si2 Si 0.02060 0.50469 0.75542
 Si3 Si 0.22539 -0.00355 0.49614
 Si4 Si 0.77250 0.00518 0.48325
 Si5 Si 0.49859 0.26948 0.99907
 Si6 Si 0.48141 0.71813 1.01223
 B7 B 0.99781 1.09596 0.05484
 B8 B 0.99763 1.09616 -0.06219
 B9 B 1.09336 1.05254 -0.00465
 B10 B 1.04980 0.99457 0.09175
 B11 B 0.93344 1.00113 0.08912
 B12 B 0.89919 1.06692 -0.00232
 B13 B 0.98595 0.90375 -0.06203
 B14 B 0.98838 0.90120 0.05182
 B15 B 0.88894 0.94463 -0.00677
 B16 B 0.92944 1.00541 -0.10014
 B17 B 1.04763 0.99540 -0.09943
 B18 B 1.08570 0.93652 -0.00126
 B19 B 0.61683 0.49009 0.45424
 B20 B 0.51460 0.54605 0.41023
 B21 B 0.51701 0.43221 0.40830
 B22 B 0.56956 0.39356 0.50543
 B23 B 0.60900 0.48670 0.56607
 B24 B 0.57327 0.58791 0.50500
 B25 B 0.41328 0.49124 0.55719
 B26 B 0.50559 0.42936 0.59528
 B27 B 0.51085 0.54561 0.59970
 B28 B 0.45206 0.58732 0.50255
 B29 B 0.41521 0.48936 0.44363
 B30 B 0.44966 0.39284 0.49676
 C31 C 1.05991 1.26902 0.09025
 C32 C 1.06832 1.35607 0.12572
 C33 C 1.00233 1.39042 0.17927
 C34 C 0.92255 1.33825 0.18301
 C35 C 0.92138 1.24394 0.16391
 C36 C 0.99472 1.20170 0.11276
 C37 C 0.83863 1.20287 0.18639
 N38 N 0.76465 1.24694 0.21161
 N39 N 0.76429 1.33434 0.21294
 C40 C 0.83951 1.38107 0.19392
 H41 H 1.10079 1.25970 0.03640
 H42 H 1.12645 1.39745 0.10929
 H43 H 0.82382 1.13916 0.17211
 H44 H 0.83407 1.45154 0.19220
 C45 C 1.08902 0.76792 0.14991
 C46 C 1.10127 0.68118 0.19020
 C47 C 1.03938 0.60892 0.17341
 C48 C 0.97273 0.63085 0.11122
 C49 C 0.94396 0.72078 0.10789
 C50 C 1.00809 0.79266 0.10027
 C51 C 0.86104 0.72869 0.15037
 N52 N 0.79967 0.66066 0.14373
 N53 N 0.82175 0.58410 0.10656
 C54 C 0.90888 0.56730 0.08857
 H55 H 1.14097 0.81716 0.16435
 H56 H 1.15700 0.67226 0.23596
 H57 H 0.84106 0.78753 0.18173
 H58 H 0.92953 0.50160 0.07193
 C59 C 1.08402 1.25367 -0.11898
 C60 C 1.08730 1.34541 -0.14635
 C61 C 1.01351 1.38731 -0.18580
 C62 C 0.93414 1.33597 -0.18869
 C63 C 0.93142 1.24287 -0.16681
 C64 C 1.00529 1.19778 -0.12239
 C65 C 0.84700 1.20394 -0.17392
 N66 N 0.77225 1.24893 -0.19718
 N67 N 0.77456 1.33549 -0.20679
 C68 C 0.85232 1.37989 -0.19802
 H69 H 1.14396 1.22771 -0.09052
 H70 H 1.14733 1.38618 -0.13559
 H71 H 0.83562 1.14542 -0.14147
 H72 H 0.84679 1.44847 -0.19202
 C73 C 1.07756 0.76883 -0.14658
 C74 C 1.09384 0.67675 -0.16500
 C75 C 1.02382 0.61180 -0.16521
 C76 C 0.94497 0.64175 -0.12564
 C77 C 0.92480 0.73390 -0.12305
 C78 C 0.99480 0.79938 -0.11114
 C79 C 0.83659 0.75286 -0.15008
 N80 N 0.77071 0.68868 -0.14026
 N81 N 0.78983 0.60729 -0.11171
 C82 C 0.87738 0.58281 -0.10271
 H83 H 1.13349 0.81531 -0.15459
 H84 H 1.16168 0.65702 -0.18115
 H85 H 0.81722 0.81955 -0.16734
 H86 H 0.89577 0.51723 -0.08395
 C87 C 1.15121 1.05326 0.23214
 C88 C 1.18806 1.06035 0.31681
 C89 C 1.16128 1.00331 0.38383
 C90 C 1.08702 0.94957 0.36372
 C91 C 1.06015 0.92942 0.27526
 C92 C 1.09382 0.98374 0.20085
 C93 C 0.98399 0.87252 0.27028
 N94 N 0.93321 0.85051 0.33936
 N95 N 0.95271 0.88171 0.41774
 C96 C 1.02576 0.93469 0.43026
 H97 H 1.16689 1.10584 0.19136
 H98 H 1.23482 1.11486 0.32910
 H99 H 0.94977 0.86523 0.21289
 H100 H 1.03014 0.97330 0.48932
 C101 C 1.14495 1.05921 -0.23999
 C102 C 1.18167 1.06160 -0.32525
 C103 C 1.16596 0.99383 -0.38768
 C104 C 1.10852 0.92351 -0.36057
 C105 C 1.06265 0.92550 -0.27822
 C106 C 1.08924 0.98856 -0.20773
 C107 C 0.98274 0.87226 -0.27762
 N108 N 0.95937 0.81493 -0.34208
 N109 N 1.01166 0.80444 -0.41002
 C110 C 1.08792 0.85377 -0.41876
 H111 H 1.16119 1.11489 -0.19819
 H112 H 1.22543 1.11691 -0.34159
 H113 H 0.93448 0.87773 -0.22936
 H114 H 1.12831 0.84012 -0.47438
 C115 C 0.93580 1.06334 0.26098
 C116 C 0.90741 1.06507 0.34912
 C117 C 0.82375 1.02686 0.37017
 C118 C 0.76720 1.01562 0.29794
 C119 C 0.80247 0.98127 0.22143
 C120 C 0.89020 1.00977 0.19325
 C121 C 0.73927 0.93649 0.17259
 N122 N 0.65198 0.96385 0.17117
 N123 N 0.62796 1.03236 0.22402
 C124 C 0.68461 1.05923 0.29206
 H125 H 0.99362 1.10456 0.24764
 H126 H 0.94927 1.09738 0.39878
 H127 H 0.75864 0.88438 0.13457
 H128 H 0.62753 1.06983 0.24964
 C129 C 0.92691 1.06329 -0.28065
 C130 C 0.90149 1.05411 -0.37108
 C131 C 0.82745 0.99907 -0.39839
 C132 C 0.77731 0.96071 -0.32882
 C133 C 0.78917 0.99897 -0.24444
 C134 C 0.87939 1.02019 -0.21033
 C135 C 0.71458 1.05757 -0.23489
 N136 N 0.63042 1.02853 -0.25552
 N137 N 0.61962 0.95679 -0.30355
 C138 C 0.69091 0.92343 -0.34439
 H139 H 0.98422 1.10609 -0.26704
 H140 H 0.93926 1.09113 -0.41914
 H141 H 0.71194 1.11258 -0.19386
 H142 H 0.67506 0.86984 -0.38539
 C143 C 1.23393 1.16709 0.04675
 C144 C 1.31829 1.21139 0.04757
 C145 C 1.38828 1.19107 -0.00781
 C146 C 1.36316 1.12820 -0.07339
 C147 C 1.27899 1.07568 -0.06955
 C148 C 1.20451 1.09986 -0.01237
 C149 C 1.27727 0.99900 -0.12173
 N150 N 1.33749 0.98915 -0.18623
 N151 N 1.40343 1.04855 -0.20005
 C152 C 1.41763 1.11857 -0.14618
 H153 H 1.19437 1.18716 0.09807
 H154 H 1.32614 1.26781 0.08956
 H155 H 1.22562 0.94924 -0.11783
 H156 H 1.47616 1.16103 -0.15681
 C157 C 0.72792 1.10831 0.05259
 C158 C 0.64031 1.14593 0.05390
 C159 C 0.62396 1.22632 0.01371
 C160 C 0.70470 1.27773 0.00100
 C161 C 0.79354 1.23731 0.00036
 C162 C 0.80539 1.14182 0.01185
 C163 C 0.86644 1.29653 -0.00565
 N164 N 0.85590 1.38503 -0.00835
 N165 N 0.77481 1.42125 -0.01060
 C166 C 0.69978 1.36996 -0.00815
 H167 H 0.73517 1.04472 0.07244
 H168 H 0.58362 1.10751 0.07850
 H169 H 0.93257 1.27481 -0.00903
 H170 H 0.63761 1.40098 -0.02109
 C171 C 1.19675 0.78348 -0.00640
 C172 C 1.28138 0.73996 -0.01432
 C173 C 1.36086 0.77568 0.02387
 C174 C 1.34520 0.84987 0.07816
 C175 C 1.26714 0.90510 0.06550
 C176 C 1.18751 0.87522 0.01601
 C177 C 1.26740 0.98612 0.10852
 N178 N 1.33967 1.00834 0.16401
 N179 N 1.40423 0.94816 0.18680
 C180 C 1.40441 0.86876 0.14708
 H181 H 1.13802 0.74069 -0.00973
 H182 H 1.28256 0.67398 -0.04260
 H183 H 1.30669 1.03322 0.14598
 H184 H 1.44530 0.81868 0.17345
 C185 C 0.76769 0.79519 0.00653
 C186 C 0.68277 0.74734 0.01358
 C187 C 0.59811 0.78912 0.00928
 C188 C 0.60433 0.88018 -0.00964
 C189 C 0.69086 0.92226 -0.02937
 C190 C 0.77959 0.88650 -0.01221
 C191 C 0.68575 0.99794 -0.07448
 N192 N 0.60707 1.04160 -0.08687
 N193 N 0.52894 1.00703 -0.06236
 C194 C 0.52476 0.92686 -0.02614
 H195 H 0.82637 0.75669 0.00539
 H196 H 0.68330 0.67588 0.02049
 H197 H 0.74777 1.02902 -0.08923
 H198 H 0.45933 0.89884 -0.02162
 C199 C 0.79978 0.41951 0.41032
 C200 C 0.88441 0.42366 0.36639
 C201 C 0.91359 0.50198 0.32360
 C202 C 0.86798 0.57910 0.34834
 C203 C 0.80331 0.56912 0.41696
 C204 C 0.73973 0.49297 0.42174
 C205 C 0.84282 0.59910 0.49384
 N206 N 0.91057 0.66112 0.49750
 N207 N 0.94608 0.69257 0.42512
 C208 C 0.92023 0.65739 0.34776
 H209 H 0.79548 0.36249 0.44883
 H210 H 0.92537 0.36447 0.36392
 H211 H 0.81601 0.57694 0.55018
 H212 H 0.95576 0.67930 0.29193
 C213 C 0.23670 0.54420 0.42995
 C214 C 0.14970 0.55116 0.38926
 C215 C 0.11792 0.48364 0.33315
 C216 C 0.17233 0.40872 0.33132
 C217 C 0.26701 0.42412 0.33661
 C218 C 0.30561 0.48693 0.39838
 C219 C 0.30857 0.39004 0.26478
 N220 N 0.27524 0.31317 0.22839
 N221 N 0.19622 0.27759 0.25255
 C222 C 0.14122 0.32493 0.30393
 H223 H 0.24985 0.58887 0.48200
 H224 H 0.10776 0.60778 0.40295
 H225 H 0.36591 0.42283 0.23699
 H226 H 0.07225 0.30210 0.31451
 C227 C 0.74697 0.53359 0.68857
 C228 C 0.83909 0.56223 0.70102
 C229 C 0.91198 0.50937 0.67585
 C230 C 0.88609 0.43726 0.62024
 C231 C 0.79078 0.41375 0.60637
 C232 C 0.71722 0.47552 0.62187
 C233 C 0.77571 0.32209 0.60892
 N234 N 0.84235 0.26387 0.59023
 N235 N 0.92686 0.29192 0.57583
 C236 C 0.95119 0.37789 0.59076
 H237 H 0.70067 0.54738 0.73945
 H238 H 0.85321 0.62138 0.73678
 H239 H 0.71573 0.29732 0.63843
 H240 H 1.02085 0.39809 0.58339
 C241 C 0.25582 0.42566 0.62486
 C242 C 0.17204 0.42397 0.66732
 C243 C 0.12721 0.50265 0.68440
 C244 C 0.17141 0.58016 0.65713
 C245 C 0.26659 0.58023 0.64185
 C246 C 0.31090 0.50088 0.61161
 C247 C 0.31098 0.65848 0.66619
 N248 N 0.26526 0.73365 0.68282
 N249 N 0.17575 0.73502 0.67489
 C250 C 0.12694 0.66035 0.65638
 H251 H 0.27903 0.36579 0.60640
 H252 H 0.14064 0.36036 0.68236
 H253 H 0.38074 0.66218 0.67105
 H254 H 0.05369 0.66195 0.65666
 C255 C 0.42640 0.58408 0.25185
 C256 C 0.42183 0.61442 0.16447
 C257 C 0.49189 0.66670 0.12948
 C258 C 0.56152 0.69108 0.19080
 C259 C 0.57650 0.64093 0.26684
 C260 C 0.50727 0.58746 0.30465
 C261 C 0.65867 0.65375 0.30861
 N262 N 0.71002 0.72673 0.29692
 N263 N 0.68180 0.78688 0.24127
 C264 C 0.60850 0.77205 0.18936
 H265 H 0.36378 0.56159 0.27640
 H266 H 0.36011 0.60272 0.12658
 H267 H 0.67018 0.61765 0.36161
 H268 H 0.58323 0.82637 0.15381
 C269 C 0.44194 0.55125 0.77528
 C270 C 0.43556 0.58447 0.86315
 C271 C 0.48606 0.65969 0.89261
 C272 C 0.54145 0.69700 0.82722
 C273 C 0.56170 0.65197 0.74815
 C274 C 0.50686 0.58221 0.71172
 C275 C 0.63473 0.68286 0.70328
 N276 N 0.67949 0.75751 0.72469
 N277 N 0.64750 0.80928 0.78992
 C278 C 0.57576 0.78206 0.83982
 H279 H 0.39051 0.50371 0.75715
 H280 H 0.38688 0.55386 0.90622
 H281 H 0.64992 0.64900 0.64731
 H282 H 0.62377 0.83174 0.81990
 C283 C 0.47242 0.30837 0.27282
 C284 C 0.47129 0.27116 0.18779
 C285 C 0.49217 0.32387 0.11547
 C286 C 0.52738 0.40793 0.13758
 C287 C 0.56313 0.42436 0.22410
 C288 C 0.52312 0.38468 0.30075
 C289 C 0.64267 0.47371 0.22530
 N290 N 0.66597 0.52321 0.15546
 N291 N 0.61462 0.52632 0.08367
 C292 C 0.54130 0.47202 0.07439
 H293 H 0.41933 0.28321 0.31193
 H294 H 0.44219 0.20517 0.17832
 H295 H 0.68579 0.47476 0.28004
 H296 H 0.50398 0.47065 0.01320
 C297 C 0.57456 0.37884 0.75196
 C298 C 0.57316 0.34317 0.83634
 C299 C 0.49459 0.33389 0.88534
 C300 C 0.41470 0.34207 0.83451
 C301 C 0.41958 0.34295 0.74087
 C302 C 0.49716 0.38217 0.69796
 C303 C 0.36126 0.28173 0.70014
 N304 N 0.28464 0.25460 0.73900
 N305 N 0.26792 0.28202 0.82172
 C306 C 0.33320 0.32368 0.87411
 H307 H 0.63862 0.39049 0.72540
 H308 H 0.63298 0.31386 0.85907
 H309 H 0.37215 0.25927 0.63599
 H310 H 0.26555 0.30384 0.86067
 C311 C 0.71259 0.72762 0.52260
 C312 C 0.76057 0.80851 0.50372
 C313 C 0.71708 0.88265 0.46799
 C314 C 0.62951 0.86317 0.43496
 C315 C 0.58762 0.77512 0.43850
 C316 C 0.62525 0.70000 0.48891
 C317 C 0.51041 0.76649 0.38576
 N318 N 0.47509 0.83220 0.33833
 N319 N 0.51047 0.91253 0.34284
 C320 C 0.58290 0.93049 0.39362
 H321 H 0.74686 0.69136 0.57117
 H322 H 0.82688 0.81887 0.53346
 H323 H 0.47556 0.70882 0.37973
 H324 H 0.60101 0.99801 0.40364
 C325 C 0.67486 0.26839 0.43523
 C326 C 0.72587 0.18967 0.43458
 C327 C 0.70298 0.11567 0.48721
 C328 C 0.62851 0.12885 0.54099
 C329 C 0.59994 0.21707 0.56150
 C330 C 0.62089 0.29247 0.50599
 C331 C 0.54074 0.22612 0.62858
 N332 N 0.49720 0.15063 0.65939
 N333 N 0.50369 0.07051 0.61894
 C334 C 0.56965 0.05854 0.56129
 H335 H 0.67708 0.31046 0.37853
 H336 H 0.77845 0.18625 0.38706
 H337 H 0.50701 0.19143 0.67967
 H338 H 0.57948 -0.00788 0.54017
 C339 C 0.32360 0.72351 0.43444
 C340 C 0.27895 0.80926 0.43034
 C341 C 0.29426 0.87916 0.49214
 C342 C 0.35893 0.85764 0.55609
 C343 C 0.40934 0.77492 0.55456
 C344 C 0.38877 0.69605 0.50086
 C345 C 0.48103 0.77266 0.61086
 N346 N 0.49114 0.82982 0.67763
 N347 N 0.43893 0.89984 0.68550
 C348 C 0.37548 0.91774 0.62479
 H349 H 0.31276 0.68130 0.37840
 H350 H 0.23186 0.82066 0.37694
 H351 H 0.52270 0.71972 0.60536
 H352 H 0.34078 0.97945 0.63170
 C353 C 0.29254 0.27767 0.48578
 C354 C 0.24674 0.19422 0.50110
 C355 C 0.29041 0.11173 0.49058
 C356 C 0.37195 0.12010 0.44730
 C357 C 0.42456 0.20195 0.45163
 C358 C 0.38917 0.28716 0.48150
 C359 C 0.50385 0.20275 0.40689
 N360 N 0.51926 0.13828 0.34570
 N361 N 0.45858 0.07139 0.32872
 C362 C 0.39075 0.05673 0.38327
 H363 H 0.25025 0.33513 0.48052
 H364 H 0.17483 0.19427 0.51472
 H365 H 0.54824 0.16984 0.36336
 H366 H 0.34907 -0.00133 0.37017
   
