data_POSCAR
  _audit_creation_date              2014-09-24
  _audit_creation_method            'ToBaCCo'
  _symmetry_space_group_name_H-M    'P1'
  _symmetry_Int_Tables_number       1
  _symmetry_cell_setting            triclinic
  loop_
  _symmetry_equiv_pos_as_xyz
 x,y,z
_cell_length_a 42.7215
_cell_length_b 42.3805
_cell_length_c 18.4935
_cell_angle_alpha 89.913600
_cell_angle_beta 90.084000
_cell_angle_gamma 120.261900
loop_
  _atom_site_label
  _atom_site_type_symbol
  _atom_site_fract_x
  _atom_site_fract_y
  _atom_site_fract_z
C1 C 0.48488 0.96729 0.53931
 C2 C 0.48501 0.96739 0.46310
 C3 C 0.50137 1.00068 0.42570
 C4 C 0.51771 1.03396 0.46320
 C5 C 0.51776 1.03388 0.53956
 C6 C 0.50131 1.00052 0.57692
 H7 H 0.50126 1.00043 0.63567
 H8 H 0.50132 1.00062 0.36699
 C9 C 0.03239 0.51681 0.53605
 C10 C 0.03238 0.51702 0.45995
 C11 C -0.00061 0.50074 0.42238
 C12 C -0.03363 0.48432 0.45987
 C13 C -0.03358 0.48432 0.53611
 C14 C -0.00057 0.50052 0.57356
 H15 H -0.00052 0.50043 0.63224
 H16 H -0.00051 0.50087 0.36367
 C17 C 0.48199 0.51493 0.54086
 C18 C 0.48202 0.51494 0.46464
 C19 C 0.49921 0.49915 0.42730
 C20 C 0.51630 0.48326 0.46484
 C21 C 0.51612 0.48303 0.54106
 C22 C 0.49899 0.49891 0.57849
 H23 H 0.49892 0.49883 0.63723
 H24 H 0.49929 0.49925 0.36862
 O25 O 0.38579 0.66632 -0.08414
 O26 O 0.38848 0.72853 -0.06240
 C27 C 0.36623 0.73423 -0.09747
 O28 O 0.33255 0.71783 -0.08477
 O29 O 0.27069 0.65802 -0.06276
 C30 C 0.26493 0.62976 -0.09748
 O31 O 0.28107 0.61224 -0.08441
 O32 O 0.34020 0.60986 -0.06180
 C33 C 0.36825 0.63236 -0.09679
 O34 O 0.38701 0.65634 0.05973
 O35 O 0.38672 0.71709 0.08140
 C36 C 0.37014 0.73419 0.09409
 O37 O 0.34245 0.72924 0.05898
 O38 O 0.28203 0.66793 0.08103
 C39 C 0.26490 0.63399 0.09397
 O40 O 0.26970 0.61097 0.05921
 O41 O 0.33038 0.61162 0.08184
 C42 C 0.36405 0.62841 0.09478
 Cr43 Cr 0.38496 0.69106 -0.00137
 Cr44 Cr 0.30793 0.69221 -0.00188
 Cr45 Cr 0.30640 0.61323 -0.00130
 O46 O 0.33309 0.66550 -0.00151
 O47 O 0.61387 0.33293 -0.08204
 O48 O 0.61196 0.27111 -0.05968
 C49 C 0.63440 0.26571 -0.09460
 O50 O 0.66809 0.28239 -0.08181
 O51 O 0.72962 0.34261 -0.06007
 C52 C 0.73499 0.37067 -0.09523
 O53 O 0.71855 0.38790 -0.08250
 O54 O 0.65909 0.38962 -0.06015
 C55 C 0.63110 0.36687 -0.09498
 O56 O 0.61270 0.34301 0.06172
 O57 O 0.61371 0.28267 0.08405
 C58 C 0.63059 0.26587 0.09698
 O59 O 0.65836 0.27109 0.06199
 O60 O 0.71840 0.33281 0.08377
 C61 C 0.73526 0.36678 0.09632
 O62 O 0.73016 0.38955 0.06117
 O63 O 0.66916 0.38821 0.08352
 C64 C 0.63550 0.37111 0.09652
 Cr65 Cr 0.61510 0.30846 0.00100
 Cr66 Cr 0.69260 0.30826 0.00096
 Cr67 Cr 0.69321 0.38676 0.00052
 O68 O 0.66697 0.33449 0.00083
 C69 C 0.46892 0.93544 -0.42212
 C70 C 0.45494 0.90774 -0.38681
 C71 C 0.43846 0.87530 -0.34284
 C72 C 0.45923 0.86043 -0.31765
 C73 C 0.44383 0.83031 -0.27106
 C74 C 0.40761 0.81494 -0.24950
 C75 C 0.38667 0.82944 -0.27564
 C76 C 0.40206 0.85956 -0.32223
 C77 C 0.39253 0.78559 -0.19769
 C78 C 0.38028 0.76173 -0.15274
 H79 H 0.48744 0.87250 -0.33297
 H80 H 0.46032 0.81944 -0.25087
 H81 H 0.35869 0.81789 -0.25901
 H82 H 0.38581 0.87095 -0.34112
 C83 C 0.06571 0.53288 -0.42304
 C84 C 0.09308 0.54595 -0.38748
 C85 C 0.12513 0.56111 -0.34317
 C86 C 0.13516 0.53792 -0.30936
 C87 C 0.16496 0.55233 -0.26262
 C88 C 0.18486 0.59000 -0.24950
 C89 C 0.17518 0.61327 -0.28421
 C90 C 0.14537 0.59885 -0.33099
 C91 C 0.21397 0.60446 -0.19769
 C92 C 0.23765 0.61621 -0.15275
 H93 H 0.11960 0.50868 -0.31815
 H94 H 0.17208 0.53407 -0.23579
 H95 H 0.19027 0.64242 -0.27416
 H96 H 0.13776 0.61701 -0.35663
 C97 C 0.46584 0.53031 -0.42057
 C98 C 0.45185 0.54373 -0.38518
 C99 C 0.43553 0.55947 -0.34103
 C100 C 0.40528 0.53681 -0.29844
 C101 C 0.39069 0.55209 -0.25202
 C102 C 0.40629 0.59010 -0.24792
 C103 C 0.43619 0.61276 -0.29136
 C104 C 0.45079 0.59747 -0.33785
 C105 C 0.39264 0.60570 -0.19656
 C106 C 0.38141 0.61821 -0.15186
 H107 H 0.39338 0.50741 -0.30022
 H108 H 0.36767 0.53431 -0.21843
 H109 H 0.44856 0.64219 -0.28839
 H110 H 0.47428 0.61524 -0.37032
 C111 C 0.53352 0.06557 -0.42134
 C112 C 0.54727 0.09311 -0.38561
 C113 C 0.56341 0.12534 -0.34117
 C114 C 0.60000 0.14178 -0.32150
 C115 C 0.61511 0.17170 -0.27449
 C116 C 0.59367 0.18530 -0.24700
 C117 C 0.55723 0.16923 -0.26762
 C118 C 0.54213 0.13932 -0.31462
 C119 C 0.60852 0.21449 -0.19495
 C120 C 0.62057 0.23827 -0.14989
 H121 H 0.61666 0.13110 -0.34147
 H122 H 0.64326 0.18381 -0.25863
 H123 H 0.54036 0.17941 -0.24641
 H124 H 0.51377 0.12672 -0.32925
 C125 C 0.93320 0.46808 -0.42264
 C126 C 0.90593 0.45484 -0.38682
 C127 C 0.87401 0.43944 -0.34225
 C128 C 0.86226 0.46211 -0.31263
 C129 C 0.83261 0.44761 -0.26560
 C130 C 0.81458 0.41039 -0.24799
 C131 C 0.82596 0.38760 -0.27852
 C132 C 0.85561 0.40209 -0.32558
 C133 C 0.78566 0.39601 -0.19585
 C134 C 0.76213 0.38427 -0.15068
 H135 H 0.87639 0.49106 -0.32490
 H136 H 0.82416 0.46552 -0.24202
 H137 H 0.81232 0.35881 -0.26498
 H138 H 0.86457 0.38435 -0.34793
 C139 C 0.53229 0.46766 -0.42018
 C140 C 0.54631 0.45427 -0.38464
 C141 C 0.56273 0.43861 -0.34032
 C142 C 0.54669 0.40060 -0.33454
 C143 C 0.56143 0.38547 -0.28781
 C144 C 0.59228 0.40832 -0.24675
 C145 C 0.60864 0.44632 -0.25346
 C146 C 0.59390 0.46143 -0.30012
 C147 C 0.60616 0.39298 -0.19512
 C148 C 0.61763 0.38071 -0.15025
 H149 H 0.52249 0.38271 -0.36515
 H150 H 0.54847 0.35605 -0.28279
 H151 H 0.63239 0.46424 -0.22172
 H152 H 0.60642 0.49086 -0.30393
 C153 C 0.93482 0.46857 0.42117
 C154 C 0.90738 0.45480 0.38574
 C155 C 0.87525 0.43862 0.34163
 C156 C 0.86305 0.46067 0.31062
 C157 C 0.83319 0.44537 0.26399
 C158 C 0.81541 0.40796 0.24819
 C159 C 0.82724 0.38579 0.28013
 C160 C 0.85711 0.40110 0.32677
 C161 C 0.78627 0.39278 0.19644
 C162 C 0.76257 0.38059 0.15154
 H163 H 0.87698 0.48974 0.32147
 H164 H 0.82438 0.46279 0.23930
 H165 H 0.81381 0.35686 0.26800
 H166 H 0.86643 0.38383 0.35020
 C167 C 0.53309 0.06571 0.42422
 C168 C 0.54638 0.09330 0.38857
 C169 C 0.56184 0.12558 0.34417
 C170 C 0.59871 0.14342 0.32619
 C171 C 0.61321 0.17337 0.27916
 C172 C 0.59090 0.18559 0.24995
 C173 C 0.55417 0.16812 0.26890
 C174 C 0.53968 0.13818 0.31592
 C175 C 0.60522 0.21477 0.19775
 C176 C 0.61694 0.23850 0.15252
 H177 H 0.61605 0.13379 0.34749
 H178 H 0.64161 0.18655 0.26460
 H179 H 0.53664 0.17723 0.24634
 H180 H 0.51110 0.12449 0.32921
 C181 C 0.53387 0.46762 0.42366
 C182 C 0.54838 0.45493 0.38779
 C183 C 0.56546 0.44021 0.34302
 C184 C 0.59542 0.46369 0.30053
 C185 C 0.61074 0.44939 0.25353
 C186 C 0.59618 0.41154 0.24879
 C187 C 0.56658 0.38806 0.29213
 C188 C 0.55125 0.40237 0.33918
 C189 C 0.61052 0.39687 0.19690
 C190 C 0.62215 0.38493 0.15187
 H191 H 0.60652 0.49298 0.30283
 H192 H 0.63351 0.46778 0.22001
 H193 H 0.55500 0.35874 0.28863
 H194 H 0.52799 0.38396 0.37158
 C195 C 0.06569 0.53370 0.41910
 C196 C 0.09307 0.54745 0.38360
 C197 C 0.12515 0.56355 0.33943
 C198 C 0.13860 0.54183 0.31243
 C199 C 0.16840 0.55692 0.26576
 C200 C 0.18489 0.59380 0.24591
 C201 C 0.17182 0.61568 0.27385
 C202 C 0.14200 0.60058 0.32053
 C203 C 0.21398 0.60862 0.19410
 C204 C 0.23763 0.62052 0.14918
 H205 H 0.12568 0.51313 0.32645
 H206 H 0.17818 0.53970 0.24419
 H207 H 0.18425 0.64418 0.25858
 H208 H 0.13172 0.61759 0.34085
 C209 C 0.46867 0.93392 0.42177
 C210 C 0.45531 0.90645 0.38589
 C211 C 0.43969 0.87428 0.34126
 C212 C 0.40298 0.85705 0.32215
 C213 C 0.38833 0.82718 0.27504
 C214 C 0.41035 0.81442 0.24686
 C215 C 0.44693 0.83129 0.26689
 C216 C 0.46156 0.86115 0.31400
 C217 C 0.39590 0.78528 0.19468
 C218 C 0.38402 0.76156 0.14950
 H219 H 0.38586 0.86709 0.34265
 H220 H 0.36006 0.81446 0.25963
 H221 H 0.46424 0.82176 0.24514
 H222 H 0.49003 0.87438 0.32817
 C223 C 0.46461 0.53075 0.42324
 C224 C 0.45023 0.54360 0.38720
 C225 C 0.43333 0.55853 0.34226
 C226 C 0.40286 0.53516 0.30082
 C227 C 0.38768 0.54961 0.25364
 C228 C 0.40290 0.58752 0.24766
 C229 C 0.43303 0.61091 0.28995
 C230 C 0.44822 0.59643 0.33718
 C231 C 0.38870 0.60233 0.19553
 C232 C 0.37722 0.61442 0.15032
 H233 H 0.39124 0.50582 0.30408
 H234 H 0.36450 0.53129 0.22095
 H235 H 0.44512 0.64026 0.28548
 H236 H 0.47187 0.61476 0.36875
   
