data_POSCAR
  _audit_creation_date              2014-09-24
  _audit_creation_method            'ToBaCCo'
  _symmetry_space_group_name_H-M    'P1'
  _symmetry_Int_Tables_number       1
  _symmetry_cell_setting            triclinic
  loop_
  _symmetry_equiv_pos_as_xyz
 x,y,z
_cell_length_a 21.6782
_cell_length_b 21.6832
_cell_length_c 21.7143
_cell_angle_alpha 79.621400
_cell_angle_beta 101.836600
_cell_angle_gamma 75.142900
loop_
  _atom_site_label
  _atom_site_type_symbol
  _atom_site_fract_x
  _atom_site_fract_y
  _atom_site_fract_z
O1 O 0.60158 0.48484 0.05357
 O2 O 0.42786 0.50003 0.04986
 O3 O 0.52992 0.40394 0.05437
 O4 O 0.50003 0.57911 0.05303
 O5 O 0.47959 0.60431 -0.05391
 O6 O 0.49705 0.43104 -0.05275
 O7 O 0.39961 0.53198 -0.05711
 O8 O 0.57533 0.50423 -0.05345
 Cu9 Cu 0.51763 0.48926 0.06354
 Cu10 Cu 0.48515 0.52050 -0.06513
 C11 C 0.61793 0.49189 0.00040
 C12 C 0.38392 0.51891 -0.00415
 C13 C 0.51658 0.38790 0.00095
 C14 C 0.48667 0.62114 -0.00044
 O15 O 0.05360 0.56632 0.54318
 O16 O 0.07197 0.38919 0.56139
 O17 O 0.05317 0.48839 0.46564
 O18 O 0.07596 0.46630 0.64142
 O19 O -0.03203 0.48780 0.62623
 O20 O -0.05491 0.50979 0.45034
 O21 O -0.03618 0.41150 0.54550
 O22 O -0.05409 0.58743 0.52997
 Cu23 Cu 0.07458 0.47537 0.55473
 Cu24 Cu -0.05509 0.50127 0.53685
 C25 C -0.00345 0.60711 0.53349
 C26 C 0.02049 0.37060 0.55453
 C27 C -0.00438 0.50206 0.42820
 C28 C 0.02556 0.47424 0.66366
 O29 O 0.48791 0.01942 0.53747
 O30 O 0.47063 0.01726 0.36529
 O31 O 0.39338 0.01511 0.44516
 O32 O 0.56635 0.01591 0.46139
 O33 O 0.59991 -0.09283 0.48866
 O34 O 0.42822 -0.09362 0.47172
 O35 O 0.50521 -0.09140 0.39340
 O36 O 0.52020 -0.08922 0.56534
 Cu37 Cu 0.47601 0.02785 0.44909
 Cu38 Cu 0.51680 -0.10255 0.48236
 C39 C 0.50585 -0.03440 0.58069
 C40 C 0.48631 -0.03755 0.35020
 C41 C 0.38189 -0.03986 0.45757
 C42 C 0.61250 -0.03855 0.47771
 C43 C 0.48939 -0.00742 -0.02424
 C44 C 0.49174 0.04090 -0.07277
 C45 C 0.49501 0.03148 -0.13878
 C46 C 0.49177 0.10686 -0.06281
 C47 C 0.48625 0.00241 0.04145
 C48 C 0.48965 -0.07378 -0.03313
 C49 C 0.54041 0.05366 -0.16765
 C50 C 0.54197 0.04970 -0.23082
 C51 C 0.49963 0.02161 -0.26580
 C52 C 0.45452 -0.00128 -0.23730
 C53 C 0.45122 0.00491 -0.17482
 C54 C 0.54113 0.11452 -0.01433
 C55 C 0.54279 0.17751 -0.00912
 C56 C 0.49536 0.23372 -0.05282
 C57 C 0.44647 0.22564 -0.10130
 C58 C 0.44453 0.16292 -0.10612
 C59 C 0.43557 0.05270 0.05015
 C60 C 0.43064 0.05674 0.11280
 C61 C 0.47507 0.00963 0.16761
 C62 C 0.52648 -0.03976 0.15869
 C63 C 0.53182 -0.04333 0.09639
 C64 C 0.44023 -0.09947 -0.01702
 C65 C 0.44091 -0.16290 -0.02153
 C66 C 0.49099 -0.20179 -0.04252
 C67 C 0.53971 -0.17581 -0.05997
 C68 C 0.53983 -0.11265 -0.05416
 H69 H 0.57427 0.07497 -0.14146
 H70 H 0.57647 0.06838 -0.25240
 H71 H 0.42025 -0.02161 -0.26434
 H72 H 0.41390 -0.01016 -0.15514
 H73 H 0.57914 0.07183 0.01840
 H74 H 0.58232 0.18186 0.02770
 H75 H 0.40652 0.15800 -0.14428
 H76 H 0.39907 0.08785 0.00855
 H77 H 0.39102 0.09564 0.11845
 H78 H 0.56304 -0.07551 0.19980
 H79 H 0.57135 -0.08246 0.09092
 H80 H 0.40114 -0.07032 -0.00065
 H81 H 0.40206 -0.18141 -0.00896
 H82 H 0.57874 -0.20518 -0.07624
 H83 H 0.57917 -0.09429 -0.06557
 H84 H 0.40966 0.26809 -0.13575
 C85 C -0.01355 0.50418 1.02029
 C86 C 0.03749 0.50642 1.06736
 C87 C 0.10346 0.50418 1.05646
 C88 C 0.03153 0.51036 1.13362
 C89 C -0.07816 0.50179 1.03214
 C90 C -0.00857 0.50330 0.95334
 C91 C 0.15975 0.45713 1.10013
 C92 C 0.22288 0.45757 1.09595
 C93 C 0.23127 0.50449 1.04751
 C94 C 0.17497 0.55125 1.00285
 C95 C 0.11145 0.55137 1.00766
 C96 C 0.01057 0.46441 1.17176
 C97 C 0.00876 0.46762 1.23510
 C98 C 0.03005 0.51541 1.26183
 C99 C 0.05220 0.56030 1.22429
 C100 C 0.05216 0.55834 1.16050
 C101 C -0.11663 0.55055 1.05522
 C102 C -0.17903 0.54868 1.06197
 C103 C -0.20466 0.49948 1.04365
 C104 C -0.16582 0.45042 1.02132
 C105 C -0.10321 0.45157 1.01575
 C106 C -0.05689 0.55031 0.90128
 C107 C -0.05839 0.54694 0.83762
 C108 C -0.01121 0.49696 0.82457
 C109 C 0.03798 0.45011 0.87663
 C110 C 0.03896 0.45305 0.94069
 H111 H 0.15474 0.42066 1.13846
 H112 H 0.26544 0.42128 1.13103
 H113 H 0.17988 0.58910 0.96592
 H114 H 0.06874 0.58926 0.97458
 H115 H -0.00319 0.42544 1.15303
 H116 H -0.00670 0.43123 1.26402
 H117 H 0.06932 0.59374 1.13225
 H118 H -0.09884 0.59044 1.06698
 H119 H -0.20827 0.58691 1.07937
 H120 H -0.18386 0.41114 1.00816
 H121 H -0.07436 0.41347 0.99789
 H122 H -0.09440 0.58901 0.91010
 H123 H -0.09687 0.58335 0.79835
 H124 H 0.07405 0.40997 0.86815
 H125 H 0.07547 0.41521 0.98028
 H126 H 0.06957 0.59690 1.24444
 C127 C 0.01959 -0.02461 0.49751
 C128 C -0.03227 0.02419 0.50209
 C129 C -0.09857 0.01566 0.50154
 C130 C -0.02602 0.09020 0.50703
 C131 C 0.08182 -0.01153 0.48844
 C132 C 0.01816 -0.09387 0.50139
 C133 C -0.13041 -0.01142 0.45498
 C134 C -0.19439 -0.01486 0.45271
 C135 C -0.22846 0.01066 0.49559
 C136 C -0.19727 0.03862 0.54125
 C137 C -0.13271 0.04031 0.54481
 C138 C -0.07391 0.14707 0.46560
 C139 C -0.07260 0.20931 0.47312
 C140 C -0.02303 0.21629 0.52176
 C141 C 0.02559 0.15941 0.56298
 C142 C 0.02381 0.09687 0.55586
 C143 C 0.14292 -0.05339 0.52883
 C144 C 0.20197 -0.04626 0.51730
 C145 C 0.20122 0.00302 0.46500
 C146 C 0.14026 0.04656 0.42600
 C147 C 0.08093 0.03876 0.43697
 C148 C -0.00424 -0.12747 0.54972
 C149 C -0.00061 -0.19375 0.55504
 C150 C 0.02775 -0.22823 0.51371
 C151 C 0.05085 -0.19520 0.46618
 C152 C 0.04517 -0.12856 0.45938
 H153 H -0.10637 -0.02864 0.41953
 H154 H -0.21814 -0.03525 0.41596
 H155 H -0.22288 0.05898 0.57439
 H156 H -0.10968 0.06199 0.58079
 H157 H -0.11306 0.14318 0.42792
 H158 H -0.11075 0.25227 0.44093
 H159 H 0.06027 0.05366 0.58948
 H160 H 0.14483 -0.09231 0.56890
 H161 H 0.24826 -0.07926 0.54954
 H162 H 0.13859 0.08524 0.38585
 H163 H 0.03439 0.07098 0.40449
 H164 H -0.02312 -0.10297 0.58430
 H165 H -0.01750 -0.21879 0.59300
 H166 H 0.07323 -0.22107 0.43413
 H167 H 0.06323 -0.10429 0.42194
 H168 H 0.06357 0.16287 0.60201
 C169 C -0.31324 0.48644 1.00024
 C170 C -0.27226 0.50055 1.04694
 H171 H -0.29751 0.47532 0.95817
 H172 H -0.29025 0.51811 1.08560
 C173 C 0.31794 0.52421 0.99407
 C174 C 0.29945 0.50467 1.04773
 H175 H 0.28174 0.54158 0.94727
 H176 H 0.33662 0.48358 1.09388
 C177 C -0.01150 -0.32575 0.52698
 C178 C 0.03736 -0.29945 0.52179
 H179 H -0.06001 -0.29358 0.52403
 H180 H 0.08453 -0.32979 0.51905
 C181 C 0.02659 0.30120 0.55479
 C182 C -0.02605 0.28351 0.52926
 H183 H 0.07551 0.26573 0.57122
 H184 H -0.07359 0.32117 0.50885
 C185 C 0.50846 -0.03403 -0.35449
 C186 C 0.49952 0.02136 -0.33366
 H187 H 0.51824 -0.08050 -0.31991
 H188 H 0.49478 0.06761 -0.36610
 C189 C 0.48568 -0.04019 0.28270
 C190 C 0.46831 0.01360 0.23358
 H191 H 0.50229 -0.08855 0.27388
 H192 H 0.44814 0.06177 0.24157
 C193 C 0.48016 -0.31009 0.00036
 C194 C 0.49338 -0.26960 -0.04586
 H195 H 0.46890 -0.29385 0.04227
 H196 H 0.51109 -0.28802 -0.08428
 C197 C 0.52232 0.31864 0.00176
 C198 C 0.49625 0.30143 -0.05153
 H199 H 0.54437 0.28240 0.04773
 H200 H 0.47067 0.33950 -0.09588
 C201 C -0.31851 -0.03969 0.48259
 C202 C -0.29760 0.01175 0.49132
 H203 H -0.28366 -0.08472 0.48070
 H204 H -0.33109 0.05464 0.49882
 C205 C 0.31545 -0.04319 0.45970
 C206 C 0.26376 0.00979 0.45164
 H207 H 0.31019 -0.09189 0.47261
 H208 H 0.26725 0.05875 0.43546
 C209 C -0.01260 0.50682 1.35858
 C210 C 0.03459 0.51595 1.33022
 H211 H -0.05790 0.50231 1.33031
 H212 H 0.07743 0.52565 1.35744
 C213 C 0.03416 0.46951 0.73346
 C214 C -0.01724 0.49409 0.75628
 H215 H 0.08384 0.45022 0.76531
 H216 H -0.06574 0.51750 0.72253
   
