data_POSCAR
  _audit_creation_date              2014-09-24
  _audit_creation_method            'ToBaCCo'
  _symmetry_space_group_name_H-M    'P1'
  _symmetry_Int_Tables_number       1
  _symmetry_cell_setting            triclinic
  loop_
  _symmetry_equiv_pos_as_xyz
 x,y,z
_cell_length_a 48.4667
_cell_length_b 42.9757
_cell_length_c 24.5018
_cell_angle_alpha 89.933400
_cell_angle_beta 89.912600
_cell_angle_gamma 90.142400
loop_
  _atom_site_label
  _atom_site_type_symbol
  _atom_site_fract_x
  _atom_site_fract_y
  _atom_site_fract_z
C1 C 0.81095 0.22829 0.45200
 C2 C 0.82355 0.22207 0.50235
 C3 C 0.81234 0.23200 0.55221
 C4 C 0.78870 0.25152 0.55134
 C5 C 0.77587 0.25887 0.50084
 C6 C 0.78693 0.24721 0.45105
 C7 C 0.77498 0.25689 0.40154
 C8 C 0.75189 0.27592 0.40072
 C9 C 0.74044 0.28736 0.44927
 C10 C 0.75247 0.27894 0.49992
 C11 C 0.77915 0.26625 0.59897
 C12 C 0.75631 0.28572 0.59803
 C13 C 0.74177 0.29142 0.54943
 C14 C 0.71841 0.31152 0.54800
 C15 C 0.70703 0.31925 0.49708
 C16 C 0.71756 0.30755 0.44831
 H17 H 0.78375 0.25070 0.36250
 H18 H 0.74347 0.28214 0.36132
 H19 H 0.78991 0.26388 0.63737
 H20 H 0.75094 0.29719 0.63578
 H21 H 0.84090 0.20617 0.50303
 H22 H 0.68895 0.33406 0.49506
 C23 C 0.28101 0.69238 0.45180
 C24 C 0.28999 0.68095 0.50214
 C25 C 0.28151 0.69437 0.55130
 C26 C 0.26288 0.71967 0.55053
 C27 C 0.25280 0.73091 0.49989
 C28 C 0.26200 0.71731 0.45030
 C29 C 0.25184 0.72881 0.40059
 C30 C 0.23360 0.75371 0.39938
 C31 C 0.22430 0.76765 0.44787
 C32 C 0.23376 0.75606 0.49875
 C33 C 0.25414 0.73405 0.59894
 C34 C 0.23594 0.75902 0.59780
 C35 C 0.22461 0.76983 0.54838
 C36 C 0.20586 0.79533 0.54674
 C37 C 0.19787 0.80709 0.49560
 C38 C 0.20624 0.79335 0.44672
 H39 H 0.25791 0.71870 0.36200
 H40 H 0.22705 0.76207 0.35982
 H41 H 0.26152 0.72635 0.63835
 H42 H 0.23139 0.77011 0.63630
 H43 H 0.30479 0.66205 0.50302
 H44 H 0.18316 0.82605 0.49342
 C45 C 0.28796 0.29407 -0.54827
 C46 C 0.29464 0.30723 -0.49751
 C47 C 0.28791 0.29260 -0.44835
 C48 C 0.27242 0.26474 -0.44891
 C49 C 0.26372 0.25191 -0.49938
 C50 C 0.27171 0.26636 -0.54925
 C51 C 0.26214 0.25349 -0.59844
 C52 C 0.24676 0.22619 -0.59907
 C53 C 0.23822 0.21164 -0.55040
 C54 C 0.24705 0.22449 -0.49991
 C55 C 0.26536 0.24945 -0.40023
 C56 C 0.24995 0.22219 -0.40085
 C57 C 0.23956 0.20987 -0.44992
 C58 C 0.22335 0.18224 -0.45048
 C59 C 0.21659 0.16888 -0.50101
 C60 C 0.22242 0.18368 -0.55087
 H61 H 0.26621 0.26442 -0.63736
 H62 H 0.24198 0.21651 -0.63863
 H63 H 0.27180 0.25831 -0.36094
 H64 H 0.24666 0.21065 -0.36215
 H65 H 0.30751 0.32790 -0.49586
 H66 H 0.20334 0.14850 -0.50143
 C67 C -0.28814 0.69812 -0.45066
 C68 C -0.29477 0.68468 -0.50119
 C69 C -0.28895 0.69942 -0.55108
 C70 C -0.27338 0.72754 -0.55067
 C71 C -0.26467 0.74052 -0.50018
 C72 C -0.27220 0.72595 -0.45012
 C73 C -0.26198 0.73847 -0.40105
 C74 C -0.24655 0.76571 -0.40054
 C75 C -0.23927 0.78079 -0.44929
 C76 C -0.24797 0.76791 -0.49972
 C77 C -0.26485 0.74207 -0.59937
 C78 C -0.24942 0.76933 -0.59878
 C79 C -0.23979 0.78219 -0.54963
 C80 C -0.22324 0.80967 -0.54878
 C81 C -0.21655 0.82290 -0.49807
 C82 C -0.22348 0.80847 -0.44884
 H83 H -0.26535 0.72706 -0.36227
 H84 H -0.24021 0.77468 -0.36127
 H85 H -0.26961 0.73238 -0.63891
 H86 H -0.24526 0.78021 -0.63772
 H87 H -0.30780 0.66411 -0.50159
 H88 H -0.20339 0.84334 -0.49649
 N89 N -0.03522 0.94697 -0.05889
 N90 N -0.05592 0.92773 -0.06875
 N91 N 0.02357 0.96418 -0.09849
 N92 N 0.04258 0.95795 -0.13538
 N93 N 0.02264 0.94223 -0.06122
 N94 N 0.04097 0.92034 -0.07201
 N95 N -0.03424 0.96905 -0.09594
 N96 N -0.05421 0.96545 -0.13190
 C97 C -0.06774 0.93974 -0.11422
 C98 C 0.05339 0.93063 -0.11830
 N99 N 0.03036 1.05225 -0.05987
 N100 N 0.05147 1.07089 -0.07014
 N101 N -0.02956 1.03600 -0.09525
 N102 N -0.04847 1.04376 -0.13147
 N103 N -0.02743 1.05750 -0.05747
 N104 N -0.04484 1.08044 -0.06695
 N105 N 0.02826 1.03079 -0.09772
 N106 N 0.04790 1.03412 -0.13455
 Mn107 Mn -0.00304 1.00000 -0.09738
 C108 C 0.06234 1.05911 -0.11674
 C109 C -0.05804 1.07141 -0.11299
 N110 N 0.02368 0.94163 0.05687
 N111 N 0.04224 0.91971 0.06575
 N112 N -0.03255 0.96803 0.09640
 N113 N -0.05191 0.96410 0.13366
 N114 N -0.03420 0.94634 0.05885
 N115 N -0.05475 0.92703 0.06966
 N116 N 0.02525 0.96327 0.09453
 N117 N 0.04495 0.95682 0.12974
 Mn118 Mn -0.00577 0.94390 -0.00111
 C119 C 0.05550 0.92969 0.11125
 C120 C -0.06577 0.93858 0.11629
 N121 N -0.02650 1.05683 0.05989
 N122 N -0.04440 1.07913 0.07047
 N123 N 0.02989 1.02986 0.09540
 N124 N 0.04962 1.03344 0.13185
 N125 N 0.03131 1.05171 0.05804
 N126 N 0.05202 1.07088 0.06827
 N127 N -0.02794 1.03488 0.09709
 N128 N -0.04685 1.04164 0.13396
 Mn129 Mn 0.00200 1.05492 0.00015
 Mn130 Mn -0.00137 0.99900 0.09637
 Cl131 Cl -0.00205 0.99944 -0.00050
 C132 C -0.05711 1.06921 0.11662
 C133 C 0.06343 1.05897 0.11424
 N134 N 0.46936 0.44261 -0.05825
 N135 N 0.44998 0.42165 -0.06790
 N136 N 0.52695 0.46534 -0.09712
 N137 N 0.54651 0.46073 -0.13366
 N138 N 0.52738 0.44342 -0.05977
 N139 N 0.54722 0.42322 -0.07005
 N140 N 0.46895 0.46452 -0.09560
 N141 N 0.44928 0.45915 -0.13152
 C142 C 0.43747 0.43246 -0.11358
 C143 C 0.55911 0.43448 -0.11615
 N144 N 0.52640 0.55411 -0.05958
 N145 N 0.54587 0.57489 -0.06997
 N146 N 0.46836 0.53145 -0.09548
 N147 N 0.44867 0.53640 -0.13150
 N148 N 0.46837 0.55328 -0.05805
 N149 N 0.44868 0.57376 -0.06777
 N150 N 0.52634 0.53226 -0.09698
 N151 N 0.54575 0.53748 -0.13361
 Mn152 Mn 0.49765 0.49839 -0.09681
 C153 C 0.55791 0.56404 -0.11616
 C154 C 0.43641 0.56275 -0.11356
 N155 N 0.52812 0.44330 0.05796
 N156 N 0.54805 0.42305 0.06717
 N157 N 0.47017 0.46424 0.09704
 N158 N 0.45097 0.45876 0.13401
 N159 N 0.47010 0.44244 0.05957
 N160 N 0.45087 0.42145 0.07020
 N161 N 0.52816 0.46513 0.09539
 N162 N 0.54812 0.46041 0.13092
 Mn163 Mn 0.49874 0.44257 -0.00012
 C164 C 0.56049 0.43419 0.11268
 C165 C 0.43894 0.43211 0.11662
 N166 N 0.46904 0.55308 0.05986
 N167 N 0.44910 0.57316 0.07019
 N168 N 0.52750 0.53204 0.09563
 N169 N 0.54697 0.53757 0.13189
 N170 N 0.52708 0.55400 0.05835
 N171 N 0.54623 0.57515 0.06845
 N172 N 0.46953 0.53113 0.09716
 N173 N 0.44995 0.53559 0.13369
 Mn174 Mn 0.49772 0.55401 0.00014
 Mn175 Mn 0.49885 0.49814 0.09681
 Cl176 Cl 0.49824 0.49828 0.00000
 C177 C 0.43724 0.56178 0.11628
 C178 C 0.55865 0.56440 0.11428
 C179 C 0.32809 0.33709 0.31772
 C180 C 0.31368 0.35506 0.35572
 C181 C 0.29967 0.34078 0.39885
 C182 C 0.29950 0.30809 0.40450
 C183 C 0.31385 0.29023 0.36540
 C184 C 0.32794 0.30465 0.32232
 C185 C 0.34485 0.35229 0.27711
 C186 C 0.35959 0.36590 0.24534
 C187 C 0.37795 0.38311 0.21027
 C188 C 0.38649 0.41291 0.22588
 C189 C 0.40587 0.42910 0.19459
 C190 C 0.41702 0.41566 0.14719
 C191 C 0.40786 0.38602 0.13091
 C192 C 0.38845 0.36978 0.16244
 H193 H 0.31385 0.38023 0.35283
 H194 H 0.28892 0.35536 0.42794
 H195 H 0.31550 0.26522 0.36974
 H196 H 0.33950 0.29054 0.29372
 H197 H 0.37855 0.42341 0.26288
 H198 H 0.41248 0.45192 0.20805
 H199 H 0.41612 0.37514 0.09458
 H200 H 0.38205 0.34667 0.15010
 C201 C -0.18133 0.85100 0.31767
 C202 C -0.19559 0.86955 0.35503
 C203 C -0.21023 0.85585 0.39794
 C204 C -0.21120 0.82320 0.40401
 C205 C -0.19701 0.80477 0.36548
 C206 C -0.18230 0.81859 0.32262
 C207 C -0.16386 0.86547 0.27738
 C208 C -0.14847 0.87824 0.24574
 C209 C -0.12925 0.89419 0.21061
 C210 C -0.11859 0.92303 0.22672
 C211 C -0.09838 0.93779 0.19523
 C212 C -0.08854 0.92386 0.14715
 C213 C -0.09981 0.89523 0.13043
 C214 C -0.12003 0.88044 0.16213
 H215 H -0.19480 0.89469 0.35186
 H216 H -0.22083 0.87087 0.42656
 H217 H -0.19594 0.77974 0.37016
 H218 H -0.17087 0.80402 0.29453
 H219 H -0.12551 0.93385 0.26423
 H220 H -0.09014 0.95985 0.20907
 H221 H -0.09259 0.88398 0.09357
 H222 H -0.12808 0.85806 0.14938
 C223 C 0.67012 0.65881 0.31394
 C224 C 0.66932 0.69106 0.32143
 C225 C 0.68367 0.70477 0.36476
 C226 C 0.69923 0.68638 0.40119
 C227 C 0.70001 0.65393 0.39262
 C228 C 0.68574 0.64036 0.34926
 C229 C 0.65311 0.64410 0.27332
 C230 C 0.63824 0.63073 0.24161
 C231 C 0.61979 0.61359 0.20677
 C232 C 0.60871 0.62719 0.15968
 C233 C 0.58927 0.61090 0.12846
 C234 C 0.58064 0.58095 0.14432
 C235 C 0.59236 0.56728 0.19094
 C236 C 0.61178 0.58350 0.22190
 H237 H 0.65683 0.70550 0.29497
 H238 H 0.68132 0.72953 0.37147
 H239 H 0.71166 0.63898 0.41969
 H240 H 0.68631 0.61533 0.34416
 H241 H 0.61471 0.65052 0.14769
 H242 H 0.58055 0.62198 0.09273
 H243 H 0.58618 0.54422 0.20407
 H244 H 0.62016 0.57278 0.25831
 C245 C 0.17996 1.14468 0.31456
 C246 C 0.19540 1.12567 0.34926
 C247 C 0.21020 1.13868 0.39247
 C248 C 0.21012 1.17111 0.40149
 C249 C 0.19471 1.19004 0.36568
 C250 C 0.17985 1.17691 0.32251
 C251 C 0.16236 1.13070 0.27414
 C252 C 0.14688 1.11825 0.24244
 C253 C 0.12754 1.10258 0.20737
 C254 C 0.11722 1.07344 0.22281
 C255 C 0.09684 1.05893 0.19161
 C256 C 0.08647 1.07342 0.14449
 C257 C 0.09743 1.10234 0.12833
 C258 C 0.11783 1.11689 0.15976
 H259 H 0.19542 1.10065 0.34381
 H260 H 0.22170 1.12331 0.41908
 H261 H 0.19286 1.21482 0.37278
 H262 H 0.16750 1.19178 0.29655
 H263 H 0.12453 1.06219 0.25964
 H264 H 0.08885 1.03663 0.20498
 H265 H 0.08980 1.11402 0.09222
 H266 H 0.12561 1.13951 0.14755
 C267 C 0.67498 0.34843 -0.31671
 C268 C 0.68223 0.36748 -0.36068
 C269 C 0.69719 0.35543 -0.40439
 C270 C 0.70556 0.32401 -0.40488
 C271 C 0.69847 0.30509 -0.35982
 C272 C 0.68329 0.31725 -0.31606
 C273 C 0.65739 0.36087 -0.27477
 C274 C 0.64187 0.37286 -0.24261
 C275 C 0.62255 0.38879 -0.20791
 C276 C 0.61334 0.41836 -0.22323
 C277 C 0.59312 0.43344 -0.19259
 C278 C 0.58178 0.41913 -0.14607
 C279 C 0.59157 0.38972 -0.13003
 C280 C 0.61182 0.37457 -0.16097
 H281 H 0.67581 0.39161 -0.36175
 H282 H 0.70238 0.37086 -0.43790
 H283 H 0.70342 0.28052 -0.35963
 H284 H 0.67740 0.30216 -0.28256
 H285 H 0.62144 0.42955 -0.25956
 H286 H 0.58605 0.45611 -0.20584
 H287 H 0.58317 0.37817 -0.09436
 H288 H 0.61874 0.35163 -0.14886
 C289 C 0.16398 0.83584 -0.31920
 C290 C 0.17616 0.85465 -0.35910
 C291 C 0.19067 0.84129 -0.40231
 C292 C 0.19362 0.80871 -0.40623
 C293 C 0.18151 0.78999 -0.36524
 C294 C 0.16686 0.80349 -0.32205
 C295 C 0.14685 0.84999 -0.27814
 C296 C 0.13194 0.86315 -0.24625
 C297 C 0.11354 0.88035 -0.21143
 C298 C 0.10610 0.91061 -0.22634
 C299 C 0.08694 0.92710 -0.19528
 C300 C 0.07489 0.91355 -0.14874
 C301 C 0.08288 0.88337 -0.13318
 C302 C 0.10208 0.86681 -0.16452
 H303 H 0.17392 0.87972 -0.35752
 H304 H 0.19972 0.85654 -0.43273
 H305 H 0.18208 0.76485 -0.36805
 H306 H 0.15707 0.78866 -0.29189
 H307 H 0.11479 0.92130 -0.26259
 H308 H 0.08127 0.95033 -0.20819
 H309 H 0.07390 0.87238 -0.09751
 H310 H 0.10764 0.84335 -0.15270
 C311 C 0.32262 0.65518 -0.31035
 C312 C 0.30318 0.63757 -0.33922
 C313 C 0.28886 0.65082 -0.38287
 C314 C 0.29375 0.68187 -0.39790
 C315 C 0.31275 0.69971 -0.36798
 C316 C 0.32710 0.68641 -0.32431
 C317 C 0.33980 0.64029 -0.27026
 C318 C 0.35492 0.62699 -0.23899
 C319 C 0.37379 0.61021 -0.20458
 C320 C 0.38254 0.58056 -0.22039
 C321 C 0.40246 0.56486 -0.18991
 C322 C 0.41392 0.57863 -0.14312
 C323 C 0.40454 0.60810 -0.12658
 C324 C 0.38461 0.62385 -0.15731
 H325 H 0.29979 0.61329 -0.32918
 H326 H 0.27456 0.63663 -0.40600
 H327 H 0.31714 0.72352 -0.37971
 H328 H 0.34234 0.70014 -0.30270
 H329 H 0.37437 0.56982 -0.25697
 H330 H 0.40922 0.54216 -0.20356
 H331 H 0.41303 0.61924 -0.09071
 H332 H 0.37804 0.64685 -0.14481
 C333 C -0.15189 1.18744 -0.31113
 C334 C -0.18058 1.19055 -0.31429
 C335 C -0.19249 1.20671 -0.35794
 C336 C -0.17583 1.21996 -0.39925
 C337 C -0.14692 1.21735 -0.39436
 C338 C -0.13513 1.20138 -0.35068
 C339 C -0.13943 1.16783 -0.27048
 C340 C -0.12785 1.15074 -0.23894
 C341 C -0.11275 1.12986 -0.20415
 C342 C -0.10711 1.09962 -0.22211
 C343 C -0.08997 1.08021 -0.19152
 C344 C -0.07819 1.09085 -0.14259
 C345 C -0.08467 1.12090 -0.12388
 C346 C -0.10180 1.14033 -0.15462
 H347 H -0.19377 1.17947 -0.28424
 H348 H -0.21478 1.20701 -0.36114
 H349 H -0.13334 1.22747 -0.42478
 H350 H -0.11289 1.19907 -0.34871
 H351 H -0.11535 1.09135 -0.26055
 H352 H -0.08538 1.05717 -0.20687
 H353 H -0.07590 1.12970 -0.08630
 H354 H -0.10590 1.16375 -0.14050
 C355 C 0.67123 0.65628 -0.31598
 C356 C 0.67182 0.68870 -0.32101
 C357 C 0.68614 0.70268 -0.36422
 C358 C 0.70027 0.68442 -0.40311
 C359 C 0.69975 0.65177 -0.39687
 C360 C 0.68550 0.63791 -0.35360
 C361 C 0.65409 0.64156 -0.27541
 C362 C 0.63899 0.62839 -0.24372
 C363 C 0.62017 0.61168 -0.20883
 C364 C 0.60940 0.62547 -0.16161
 C365 C 0.58956 0.60970 -0.13038
 C366 C 0.58022 0.58007 -0.14634
 C367 C 0.59161 0.56619 -0.19312
 C368 C 0.61143 0.58190 -0.22410
 H369 H 0.66040 0.70312 -0.29269
 H370 H 0.68481 0.72770 -0.36888
 H371 H 0.71037 0.63687 -0.42566
 H372 H 0.68501 0.61276 -0.35035
 H373 H 0.61595 0.64857 -0.14954
 H374 H 0.58112 0.62092 -0.09453
 H375 H 0.58489 0.54336 -0.20634
 H376 H 0.61955 0.57104 -0.26062
 C377 C 0.18127 1.14199 -0.31609
 C378 C 0.18269 1.17436 -0.32136
 C379 C 0.19750 1.18776 -0.36445
 C380 C 0.21133 1.16897 -0.40297
 C381 C 0.21000 1.13636 -0.39646
 C382 C 0.19524 1.12306 -0.35331
 C383 C 0.16348 1.12806 -0.27580
 C384 C 0.14769 1.11588 -0.24423
 C385 C 0.12788 1.10074 -0.20933
 C386 C 0.11858 1.11511 -0.16145
 C387 C 0.09767 1.10121 -0.13025
 C388 C 0.08579 1.07290 -0.14691
 C389 C 0.09573 1.05832 -0.19432
 C390 C 0.11661 1.07217 -0.22529
 H391 H 0.17150 1.18922 -0.29338
 H392 H 0.19674 1.21280 -0.36934
 H393 H 0.22036 1.12106 -0.42497
 H394 H 0.19409 1.09795 -0.34987
 H395 H 0.12708 1.13730 -0.14886
 H396 H 0.09040 1.11293 -0.09389
 H397 H 0.08703 1.03646 -0.20807
 H398 H 0.12358 1.06089 -0.26235
 C399 C 0.32678 0.33539 -0.31062
 C400 C 0.30581 0.35105 -0.33863
 C401 C 0.29224 0.33657 -0.38209
 C402 C 0.29947 0.30625 -0.39777
 C403 C 0.32010 0.29040 -0.36877
 C404 C 0.33364 0.30489 -0.32530
 C405 C 0.34304 0.35165 -0.27062
 C406 C 0.35753 0.36580 -0.23928
 C407 C 0.37579 0.38331 -0.20462
 C408 C 0.38397 0.41322 -0.22047
 C409 C 0.40354 0.42950 -0.18993
 C410 C 0.41523 0.41603 -0.14308
 C411 C 0.40636 0.38631 -0.12646
 C412 C 0.38678 0.36999 -0.15723
 H413 H 0.30057 0.37478 -0.32804
 H414 H 0.27668 0.34928 -0.40455
 H415 H 0.32633 0.26725 -0.38104
 H416 H 0.35008 0.29272 -0.30438
 H417 H 0.37568 0.42370 -0.25718
 H418 H 0.40992 0.45239 -0.20363
 H419 H 0.41503 0.37540 -0.09054
 H420 H 0.38067 0.34678 -0.14474
 C421 C -0.18301 0.85012 -0.31179
 C422 C -0.20358 0.86651 -0.33970
 C423 C -0.21771 0.85244 -0.38289
 C424 C -0.21146 0.82180 -0.39837
 C425 C -0.19124 0.80525 -0.36946
 C426 C -0.17715 0.81932 -0.32627
 C427 C -0.16615 0.86576 -0.27201
 C428 C -0.15107 0.87914 -0.24071
 C429 C -0.13201 0.89541 -0.20589
 C430 C -0.12184 0.92451 -0.22197
 C431 C -0.10144 0.93931 -0.19122
 C432 C -0.09089 0.92514 -0.14395
 C433 C -0.10174 0.89630 -0.12712
 C434 C -0.12215 0.88147 -0.15807
 H435 H -0.20806 0.89046 -0.32926
 H436 H -0.23294 0.86569 -0.40530
 H437 H -0.18573 0.78185 -0.38162
 H438 H -0.16104 0.80657 -0.30543
 H439 H -0.12924 0.93545 -0.25902
 H440 H -0.09352 0.96154 -0.20510
 H441 H -0.09398 0.88486 -0.09087
 H442 H -0.12978 0.85887 -0.14539
 C443 C 0.32242 0.65114 0.31538
 C444 C 0.32503 0.68310 0.32522
 C445 C 0.31065 0.69683 0.36842
 C446 C 0.29344 0.67871 0.40203
 C447 C 0.29045 0.64680 0.39126
 C448 C 0.30484 0.63310 0.34806
 C449 C 0.33961 0.63631 0.27520
 C450 C 0.35483 0.62335 0.24365
 C451 C 0.37390 0.60718 0.20874
 C452 C 0.38436 0.62135 0.16150
 C453 C 0.40454 0.60628 0.13031
 C454 C 0.41454 0.57698 0.14636
 C455 C 0.40344 0.56267 0.19314
 C456 C 0.38327 0.57769 0.22407
 H457 H 0.33884 0.69720 0.30063
 H458 H 0.31361 0.72135 0.37679
 H459 H 0.27754 0.63242 0.41719
 H460 H 0.30289 0.60829 0.34118
 H461 H 0.37732 0.64424 0.14939
 H462 H 0.41275 0.61782 0.09446
 H463 H 0.41067 0.54007 0.20641
 H464 H 0.37540 0.56655 0.26063
 C465 C -0.15386 1.17952 0.31911
 C466 C -0.18252 1.17978 0.32592
 C467 C -0.19439 1.19672 0.36868
 C468 C -0.17770 1.21380 0.40516
 C469 C -0.14885 1.21339 0.39734
 C470 C -0.13712 1.19659 0.35458
 C471 C -0.14113 1.16023 0.27834
 C472 C -0.12920 1.14382 0.24625
 C473 C -0.11356 1.12405 0.21045
 C474 C -0.10705 1.09378 0.22702
 C475 C -0.08931 1.07555 0.19553
 C476 C -0.07780 1.08745 0.14711
 C477 C -0.08514 1.11751 0.12978
 C478 C -0.10288 1.13575 0.16142
 H479 H -0.19564 1.16619 0.29920
 H480 H -0.21649 1.19516 0.37480
 H481 H -0.13530 1.22620 0.42439
 H482 H -0.11489 1.19639 0.34988
 H483 H -0.11508 1.08457 0.26506
 H484 H -0.08407 1.05245 0.20980
 H485 H -0.07658 1.12724 0.09263
 H486 H -0.10764 1.15923 0.14842
 C487 C 0.67405 0.34163 0.30888
 C488 C 0.70124 0.35133 0.31841
 C489 C 0.71602 0.33915 0.36254
 C490 C 0.70366 0.31718 0.39734
 C491 C 0.67670 0.30693 0.38672
 C492 C 0.66199 0.31905 0.34262
 C493 C 0.65749 0.35693 0.26830
 C494 C 0.64265 0.37044 0.23679
 C495 C 0.62389 0.38729 0.20230
 C496 C 0.61516 0.41694 0.21812
 C497 C 0.59503 0.43251 0.18801
 C498 C 0.58331 0.41858 0.14162
 C499 C 0.59273 0.38915 0.12496
 C500 C 0.61287 0.37353 0.15532
 H501 H 0.71065 0.36905 0.29295
 H502 H 0.73666 0.34761 0.37075
 H503 H 0.66680 0.29027 0.41363
 H504 H 0.64088 0.31163 0.33599
 H505 H 0.62346 0.42775 0.25453
 H506 H 0.58824 0.45519 0.20172
 H507 H 0.58404 0.37789 0.08938
 H508 H 0.61939 0.35051 0.14287
 C509 C 0.16650 0.83258 0.30675
 C510 C 0.18579 0.85012 0.33616
 C511 C 0.19962 0.83689 0.38044
 C512 C 0.19438 0.80593 0.39558
 C513 C 0.17553 0.78816 0.36514
 C514 C 0.16167 0.80144 0.32085
 C515 C 0.14976 0.84756 0.26606
 C516 C 0.13503 0.86120 0.23451
 C517 C 0.11670 0.87878 0.20021
 C518 C 0.11009 0.90929 0.21497
 C519 C 0.09064 0.92601 0.18506
 C520 C 0.07749 0.91244 0.13985
 C521 C 0.08475 0.88206 0.12421
 C522 C 0.10422 0.86526 0.15443
 H523 H 0.18943 0.87433 0.32603
 H524 H 0.21383 0.85102 0.40392
 H525 H 0.17090 0.76441 0.37689
 H526 H 0.14653 0.78778 0.29884
 H527 H 0.11955 0.91995 0.25039
 H528 H 0.08556 0.94940 0.19797
 H529 H 0.07491 0.87106 0.08955
 H530 H 0.10912 0.84159 0.14279
   
