data_POSCAR
  _audit_creation_date              2014-09-24
  _audit_creation_method            'ToBaCCo'
  _symmetry_space_group_name_H-M    'P1'
  _symmetry_Int_Tables_number       1
  _symmetry_cell_setting            triclinic
  loop_
  _symmetry_equiv_pos_as_xyz
 x,y,z
_cell_length_a 27.7865
_cell_length_b 27.8233
_cell_length_c 81.1336
_cell_angle_alpha 90.369400
_cell_angle_beta 89.499100
_cell_angle_gamma 119.775800
loop_
  _atom_site_label
  _atom_site_type_symbol
  _atom_site_fract_x
  _atom_site_fract_y
  _atom_site_fract_z
C1 C -0.04200 -0.06912 0.48654
 C2 C -0.00557 -0.04007 0.49938
 C3 C 0.00246 -0.06907 0.51210
 C4 C -0.02584 -0.12750 0.51234
 C5 C -0.06325 -0.15575 0.49936
 C6 C -0.07155 -0.12745 0.48626
 C7 C 0.02481 0.02115 0.49944
 C8 C 0.02209 0.05013 0.51330
 C9 C 0.05004 0.10824 0.51344
 C10 C 0.08146 0.13721 0.49957
 C11 C 0.08482 0.10878 0.48562
 C12 C 0.05613 0.05063 0.48564
 H13 H -0.04574 -0.04550 0.47658
 H14 H 0.03318 -0.04510 0.52129
 H15 H -0.00201 0.02730 0.52396
 H16 H 0.05800 0.02822 0.47491
 H17 H -0.08961 -0.20008 0.50012
 H18 H 0.10325 0.18206 0.49961
 C19 C 1.05766 0.02101 0.15414
 C20 C 1.02822 0.02859 0.16706
 C21 C 1.05704 0.06573 0.17982
 C22 C 1.11519 0.09527 0.17989
 C23 C 1.14417 0.08650 0.16700
 C24 C 1.11620 0.04987 0.15382
 C25 C 0.96698 -0.00200 0.16717
 C26 C 0.93794 -0.03397 0.18089
 C27 C 0.87975 -0.06369 0.18109
 C28 C 0.85077 -0.06034 0.16744
 C29 C 0.87931 -0.02816 0.15364
 C30 C 0.93754 0.00066 0.15358
 H31 H 1.03419 -0.00638 0.14415
 H32 H 1.03382 0.07252 0.18946
 H33 H 0.96080 -0.03578 0.19140
 H34 H 0.96007 0.02520 0.14296
 H35 H 1.18882 0.10650 0.16778
 H36 H 0.80585 -0.08296 0.16755
 C37 C 0.04209 0.97954 0.84677
 C38 C 0.00911 0.97555 0.83326
 C39 C 0.00536 0.94221 0.81978
 C40 C 0.03397 0.91259 0.81971
 C41 C 0.06672 0.91673 0.83334
 C42 C 0.07167 0.95040 0.84707
 C43 C -0.02140 1.00653 0.83320
 C44 C -0.01561 1.04075 0.81986
 C45 C -0.04360 1.07096 0.81977
 C46 C -0.07786 1.06646 0.83320
 C47 C -0.08481 1.03201 0.84680
 C48 C -0.05585 1.00223 0.84653
 H49 H 0.04310 1.00450 0.85719
 H50 H -0.01976 0.93952 0.80929
 H51 H 0.01080 1.04383 0.80954
 H52 H -0.05835 0.97667 0.85686
 H53 H 0.08968 0.89476 0.83281
 H54 H -0.10026 1.08896 0.83264
 O55 O 0.42182 -0.05222 -0.01553
 O56 O 0.51603 -0.04962 0.01613
 O57 O 0.42341 -0.04751 0.01663
 O58 O 0.51715 -0.04880 -0.01599
 O59 O 0.56102 0.04249 -0.01629
 O60 O 0.46933 0.04377 0.01606
 O61 O 0.56178 0.04168 0.01583
 O62 O 0.46578 0.03906 -0.01604
 Cu63 Cu 0.46508 -0.05866 0.00035
 Cu64 Cu 0.51893 0.05085 -0.00015
 C65 C 0.42749 -0.00742 -0.02129
 C66 C 0.55492 -0.00391 0.02146
 C67 C 0.43090 -0.00119 0.02198
 C68 C 0.55509 -0.00294 -0.02175
 O69 O -0.03849 0.42733 0.68225
 O70 O -0.03442 0.51794 0.64912
 O71 O -0.03288 0.42566 0.65024
 O72 O -0.03555 0.52228 0.68135
 O73 O 0.05582 0.56613 0.68203
 O74 O 0.05853 0.47169 0.65089
 O75 O 0.05702 0.56445 0.64994
 O76 O 0.05288 0.47118 0.68297
 Cu77 Cu -0.04448 0.46891 0.66570
 Cu78 Cu 0.06520 0.52288 0.66654
 C79 C 0.00614 0.43329 0.68827
 C80 C 0.01167 0.55638 0.64375
 C81 C 0.01361 0.43259 0.64518
 C82 C 0.01002 0.56061 0.68708
 O83 O 0.52124 0.58244 0.31882
 O84 O 0.42747 0.48431 0.34967
 O85 O 0.52242 0.57580 0.35085
 O86 O 0.42831 0.48878 0.31764
 O87 O 0.47537 0.44425 0.31569
 O88 O 0.56608 0.52792 0.34926
 O89 O 0.47120 0.43655 0.34785
 O90 O 0.56767 0.53728 0.31730
 Cu91 Cu 0.47037 0.53750 0.33442
 Cu92 Cu 0.52455 0.48180 0.33238
 C93 C 0.56041 0.57686 0.31272
 C94 C 0.43296 0.44362 0.35406
 C95 C 0.56020 0.56626 0.35579
 C96 C 0.43652 0.45210 0.31086
 C97 C 0.03773 0.19892 0.55500
 C98 C 0.08919 0.21558 0.54731
 C99 C 0.09321 0.18592 0.53392
 C100 C 0.04595 0.13876 0.52795
 C101 C -0.00538 0.12158 0.53576
 C102 C -0.00949 0.15140 0.54911
 C103 C 0.03342 0.23150 0.56890
 N104 N -0.01667 0.21893 0.57545
 N105 N -0.02037 0.24905 0.58772
 C106 C 0.02589 0.29296 0.59398
 N107 N 0.07592 0.30530 0.58747
 N108 N 0.07961 0.27528 0.57520
 C109 C 0.02213 0.32738 0.60741
 C110 C 0.07064 0.37097 0.61424
 C111 C 0.06763 0.40454 0.62658
 C112 C 0.01605 0.39552 0.63242
 C113 C -0.03258 0.35162 0.62575
 C114 C -0.02957 0.31785 0.61339
 H115 H 0.12645 0.25187 0.55152
 H116 H 0.13342 0.19972 0.52827
 H117 H -0.04259 0.08567 0.53132
 H118 H -0.04975 0.13737 0.55474
 H119 H 0.11118 0.37950 0.60999
 H120 H 0.10594 0.43794 0.63145
 H121 H -0.07296 0.34358 0.63000
 H122 H -0.06777 0.28463 0.60841
 C123 C 0.78982 0.83319 0.22244
 C124 C 0.77281 0.86798 0.21512
 C125 C 0.80211 0.90158 0.20177
 C126 C 0.84924 0.90140 0.19547
 C127 C 0.86665 0.86711 0.20286
 C128 C 0.83720 0.83328 0.21617
 C129 C 0.75787 0.79662 0.23636
 N130 N 0.77097 0.75933 0.24256
 N131 N 0.74151 0.72586 0.25488
 C132 C 0.69776 0.72834 0.26154
 N133 N 0.68486 0.76579 0.25538
 N134 N 0.71423 0.79916 0.24306
 C135 C 0.66406 0.69048 0.27502
 C136 C 0.62066 0.69548 0.28230
 C137 C 0.58767 0.65903 0.29465
 C138 C 0.59710 0.61652 0.30004
 C139 C 0.64090 0.61181 0.29294
 C140 C 0.67409 0.64846 0.28057
 H141 H 0.73658 0.86908 0.21964
 H142 H 0.78812 0.92808 0.19645
 H143 H 0.90252 0.86570 0.19814
 H144 H 0.85149 0.80703 0.22149
 H145 H 0.61181 0.72740 0.27839
 H146 H 0.55433 0.66390 0.29986
 H147 H 0.64925 0.57952 0.29683
 H148 H 0.70718 0.64343 0.27524
 C149 C 0.17524 -0.03503 -0.11245
 C150 C 0.16510 0.00825 -0.11626
 C151 C 0.13067 0.00334 -0.12940
 C152 C 0.10569 -0.04492 -0.13931
 C153 C 0.11610 -0.08825 -0.13528
 C154 C 0.15006 -0.08340 -0.12206
 C155 C 0.21195 -0.03000 -0.09860
 N156 N 0.21579 -0.07450 -0.09367
 N157 N 0.24898 -0.07024 -0.08135
 C158 C 0.27997 -0.02128 -0.07342
 N159 N 0.27620 0.02334 -0.07834
 N160 N 0.24282 0.01904 -0.09065
 C161 C 0.31720 -0.01701 -0.05981
 C162 C 0.35543 0.03460 -0.05300
 C163 C 0.39126 0.03803 -0.04043
 C164 C 0.38928 -0.01013 -0.03435
 C165 C 0.35060 -0.06164 -0.04105
 C166 C 0.31517 -0.06503 -0.05362
 H167 H 0.18401 0.04622 -0.10914
 H168 H 0.12605 0.03882 -0.13213
 H169 H 0.09648 -0.12722 -0.14187
 H170 H 0.15659 -0.11783 -0.11940
 H171 H 0.35810 0.07241 -0.05750
 H172 H 0.42056 0.07832 -0.03550
 H173 H 0.34792 -0.09960 -0.03667
 H174 H 0.28616 -0.10549 -0.05850
 C175 C -0.00287 0.78241 0.55104
 C176 C -0.02241 0.75792 0.53559
 C177 C -0.02907 0.78763 0.52287
 C178 C -0.01739 0.84283 0.52523
 C179 C 0.00290 0.86719 0.54086
 C180 C 0.01035 0.83752 0.55349
 C181 C 0.00208 0.74984 0.56460
 N182 N 0.03553 0.77516 0.57770
 N183 N 0.03886 0.74542 0.59001
 C184 C 0.00848 0.68923 0.58976
 N185 N -0.02486 0.66404 0.57665
 N186 N -0.02782 0.69369 0.56431
 C187 C 0.01020 0.65584 0.60362
 C188 C -0.03472 0.60248 0.60638
 C189 C -0.03413 0.57069 0.61951
 C190 C 0.01184 0.59104 0.63001
 C191 C 0.05718 0.64416 0.62718
 C192 C 0.05610 0.67657 0.61419
 H193 H -0.03201 0.71572 0.53323
 H194 H -0.04176 0.76711 0.51106
 H195 H 0.01089 0.90839 0.54385
 H196 H 0.02492 0.85732 0.56536
 H197 H -0.07080 0.58547 0.59851
 H198 H -0.06955 0.52977 0.62133
 H199 H 0.09308 0.66085 0.63512
 H200 H 0.09138 0.71751 0.61230
 C201 C 0.20604 0.21080 0.21888
 C202 C 0.15517 0.16303 0.22226
 C203 C 0.12566 0.12549 0.20967
 C204 C 0.14592 0.13543 0.19335
 C205 C 0.19619 0.18412 0.18997
 C206 C 0.22612 0.22102 0.20260
 C207 C 0.23907 0.24896 0.23227
 N208 N 0.29492 0.28084 0.23067
 N209 N 0.32525 0.31397 0.24286
 C210 C 0.30097 0.31704 0.25712
 N211 N 0.24501 0.28563 0.25869
 N212 N 0.21467 0.25203 0.24653
 C213 C 0.33527 0.35243 0.27081
 C214 C 0.31347 0.37398 0.28255
 C215 C 0.34655 0.40736 0.29547
 C216 C 0.40143 0.41845 0.29707
 C217 C 0.42296 0.39660 0.28538
 C218 C 0.39046 0.36448 0.27230
 H219 H 0.13893 0.15387 0.23473
 H220 H 0.08759 0.08812 0.21281
 H221 H 0.21244 0.19399 0.17753
 H222 H 0.26493 0.25784 0.19960
 H223 H 0.27108 0.36545 0.28164
 H224 H 0.32900 0.42366 0.30436
 H225 H 0.46525 0.40478 0.28628
 H226 H 0.40828 0.34822 0.26349
 C227 C 0.80871 0.01829 -0.11308
 C228 C 0.83527 0.06676 -0.12255
 C229 C 0.87016 0.07129 -0.13565
 C230 C 0.88009 0.02750 -0.13972
 C231 C 0.85366 -0.02091 -0.12996
 C232 C 0.81833 -0.02548 -0.11692
 C233 C 0.77125 0.01383 -0.09931
 N234 N 0.73988 -0.03484 -0.09126
 N235 N 0.70600 -0.03846 -0.07898
 C236 C 0.70221 0.00648 -0.07423
 N237 N 0.73366 0.05504 -0.08227
 N238 N 0.76735 0.05862 -0.09454
 C239 C 0.66469 0.00316 -0.06062
 C240 C 0.66646 0.05163 -0.05476
 C241 C 0.63111 0.04931 -0.04212
 C242 C 0.59275 -0.00157 -0.03500
 C243 C 0.59087 -0.05022 -0.04078
 C244 C 0.62664 -0.04786 -0.05344
 H245 H 0.82922 0.10157 -0.11987
 H246 H 0.89088 0.11041 -0.14209
 H247 H 0.85792 -0.05670 -0.13272
 H248 H 0.79836 -0.06354 -0.10990
 H249 H 0.69529 0.09167 -0.05993
 H250 H 0.63371 0.08762 -0.03799
 H251 H 0.56180 -0.09004 -0.03553
 H252 H 0.62416 -0.08599 -0.05768
 C253 C 0.20669 0.02940 0.11423
 C254 C 0.22938 0.07890 0.12330
 C255 C 0.19988 0.08546 0.13628
 C256 C 0.14623 0.04273 0.14064
 C257 C 0.12360 -0.00692 0.13137
 C258 C 0.15353 -0.01351 0.11844
 C259 C 0.23852 0.02322 0.10041
 N260 N 0.22062 -0.02628 0.09270
 N261 N 0.24970 -0.03126 0.08030
 C262 C 0.29777 0.01312 0.07506
 N263 N 0.31549 0.06249 0.08278
 N264 N 0.28658 0.06741 0.09517
 C265 C 0.33059 0.00845 0.06127
 C266 C 0.37598 0.05642 0.05480
 C267 C 0.40786 0.05293 0.04200
 C268 C 0.39550 0.00134 0.03533
 C269 C 0.34997 -0.04682 0.04169
 C270 C 0.31768 -0.04329 0.05452
 H271 H 0.27014 0.11307 0.12034
 H272 H 0.21880 0.12536 0.14236
 H273 H 0.08359 -0.04198 0.13440
 H274 H 0.13489 -0.05235 0.11174
 H275 H 0.38708 0.09699 0.05962
 H276 H 0.44262 0.09091 0.03742
 H277 H 0.33938 -0.08717 0.03680
 H278 H 0.28301 -0.08106 0.05923
 C279 C 0.81687 0.78321 0.44725
 C280 C 0.82742 0.83649 0.45156
 C281 C 0.86416 0.86602 0.46428
 C282 C 0.89120 0.84293 0.47324
 C283 C 0.88010 0.78922 0.46877
 C284 C 0.84375 0.76005 0.45599
 C285 C 0.77835 0.75182 0.43368
 N286 N 0.77333 0.70316 0.42839
 N287 N 0.73899 0.67476 0.41620
 C288 C 0.70799 0.69365 0.40877
 N289 N 0.71286 0.74230 0.41406
 N290 N 0.74738 0.77083 0.42625
 C291 C 0.67000 0.66165 0.39516
 C292 C 0.63268 0.67678 0.38862
 C293 C 0.59677 0.64587 0.37585
 C294 C 0.59777 0.59948 0.36930
 C295 C 0.63526 0.58463 0.37581
 C296 C 0.67077 0.61519 0.38859
 H297 H 0.80718 0.85550 0.44513
 H298 H 0.86922 0.90610 0.46742
 H299 H 0.90108 0.76997 0.47463
 H300 H 0.83695 0.71921 0.45293
 H301 H 0.63096 0.71230 0.39342
 H302 H 0.56838 0.65838 0.37108
 H303 H 0.63710 0.54909 0.37108
 H304 H 0.69900 0.60236 0.39326
 C305 C -0.02567 0.17773 0.77910
 C306 C -0.07824 0.14174 0.78588
 C307 C -0.08400 0.10694 0.79898
 C308 C -0.03740 0.10713 0.80560
 C309 C 0.01511 0.14254 0.79874
 C310 C 0.02095 0.17757 0.78565
 C311 C -0.01981 0.21537 0.76540
 N312 N 0.03091 0.25262 0.75931
 N313 N 0.03581 0.28676 0.74713
 C314 C -0.00981 0.28503 0.74054
 N315 N -0.06043 0.24770 0.74662
 N316 N -0.06532 0.21367 0.75878
 C317 C -0.00493 0.32305 0.72707
 C318 C -0.05291 0.31909 0.72011
 C319 C -0.04902 0.35480 0.70754
 C320 C 0.00296 0.39556 0.70157
 C321 C 0.05110 0.39964 0.70846
 C322 C 0.04719 0.36370 0.72108
 H323 H -0.11510 0.14055 0.78112
 H324 H -0.12508 0.07950 0.80386
 H325 H 0.05180 0.14384 0.80370
 H326 H 0.06204 0.20470 0.78073
 H327 H -0.09375 0.28833 0.72437
 H328 H -0.08697 0.35045 0.70252
 H329 H 0.09176 0.43060 0.70412
 H330 H 0.08500 0.36792 0.72617
 C331 C 0.78766 -0.01823 0.11246
 C332 C 0.77179 -0.06932 0.12005
 C333 C 0.80166 -0.07251 0.13335
 C334 C 0.84825 -0.02476 0.13933
 C335 C 0.86455 0.02627 0.13167
 C336 C 0.83451 0.02953 0.11840
 C337 C 0.75507 -0.01503 0.09855
 N338 N 0.76718 0.03448 0.09189
 N339 N 0.73715 0.03704 0.07956
 C340 C 0.69380 -0.00981 0.07335
 N341 N 0.68190 -0.05923 0.07998
 N342 N 0.71183 -0.06179 0.09231
 C343 C 0.65955 -0.00750 0.05979
 C344 C 0.61642 -0.05675 0.05316
 C345 C 0.58306 -0.05526 0.04066
 C346 C 0.59180 -0.00450 0.03444
 C347 C 0.63521 0.04490 0.04093
 C348 C 0.66880 0.04342 0.05347
 H349 H 0.73604 -0.10700 0.11580
 H350 H 0.78856 -0.11250 0.13887
 H351 H 0.90001 0.06384 0.13613
 H352 H 0.84791 0.06954 0.11284
 H353 H 0.60809 -0.09672 0.05766
 H354 H 0.55005 -0.09414 0.03595
 H355 H 0.64301 0.08467 0.03639
 H356 H 0.70167 0.08215 0.05830
 C357 C 0.18388 0.20149 0.44391
 C358 C 0.14816 0.21656 0.45189
 C359 C 0.11581 0.18623 0.46532
 C360 C 0.11818 0.13996 0.47107
 C361 C 0.15320 0.12429 0.46298
 C362 C 0.18583 0.15482 0.44956
 C363 C 0.21934 0.23493 0.42996
 N364 N 0.25729 0.22370 0.42294
 N365 N 0.28986 0.25476 0.41066
 C366 C 0.28578 0.29830 0.40486
 N367 N 0.24765 0.30928 0.41183
 N368 N 0.21519 0.27832 0.42411
 C369 C 0.32265 0.33398 0.39146
 C370 C 0.31680 0.37809 0.38549
 C371 C 0.35225 0.41304 0.37326
 C372 C 0.39458 0.40490 0.36665
 C373 C 0.40016 0.36040 0.37242
 C374 C 0.36453 0.32526 0.38470
 H375 H 0.14541 0.25213 0.44786
 H376 H 0.08862 0.19881 0.47117
 H377 H 0.15620 0.08907 0.46723
 H378 H 0.21283 0.14202 0.44371
 H379 H 0.28499 0.38604 0.39034
 H380 H 0.34665 0.44682 0.36908
 H381 H 0.43234 0.35302 0.36756
 H382 H 0.37017 0.29165 0.38901
 C383 C 0.02372 0.81057 0.77817
 C384 C 0.07509 0.84652 0.78548
 C385 C 0.07835 0.87966 0.79890
 C386 C 0.03038 0.87783 0.80531
 C387 C -0.02095 0.84242 0.79793
 C388 C -0.02428 0.80902 0.78453
 C389 C 0.02053 0.77470 0.76413
 N390 N -0.02909 0.73674 0.75769
 N391 N -0.03159 0.70400 0.74526
 C392 C 0.01544 0.70793 0.73873
 N393 N 0.06496 0.74604 0.74514
 N394 N 0.06745 0.77865 0.75756
 C395 C 0.01322 0.67101 0.72513
 C396 C 0.06260 0.67692 0.71837
 C397 C 0.06124 0.64147 0.70593
 C398 C 0.01047 0.59906 0.69988
 C399 C -0.03907 0.59342 0.70644
 C400 C -0.03771 0.62907 0.71894
 H401 H 0.11296 0.84897 0.78090
 H402 H 0.11857 0.90716 0.80418
 H403 H -0.05865 0.83990 0.80271
 H404 H -0.06450 0.78186 0.77920
 H405 H 0.10260 0.70878 0.72276
 H406 H 0.10022 0.64712 0.70114
 H407 H -0.07885 0.56117 0.70203
 H408 H -0.07654 0.62339 0.72385
   
