data_POSCAR
  _audit_creation_date              2014-09-24
  _audit_creation_method            'ToBaCCo'
  _symmetry_space_group_name_H-M    'P1'
  _symmetry_Int_Tables_number       1
  _symmetry_cell_setting            triclinic
  loop_
  _symmetry_equiv_pos_as_xyz
 x,y,z
_cell_length_a 37.3817
_cell_length_b 38.8679
_cell_length_c 37.0178
_cell_angle_alpha 88.750200
_cell_angle_beta 90.426100
_cell_angle_gamma 90.223800
loop_
  _atom_site_label
  _atom_site_type_symbol
  _atom_site_fract_x
  _atom_site_fract_y
  _atom_site_fract_z
C1 C 0.20593 0.16024 0.20150
 C2 C 0.19259 0.14064 0.23081
 C3 C 0.16014 0.14924 0.24794
 C4 C 0.14175 0.17886 0.23468
 C5 C 0.15528 0.19916 0.20594
 C6 C 0.18741 0.18967 0.18923
 C7 C 0.23780 0.15074 0.18452
 C8 C 0.25149 0.16968 0.15446
 C9 C 0.23263 0.19958 0.14308
 C10 C 0.20108 0.20968 0.16028
 C11 C 0.18289 0.23950 0.14867
 C12 C 0.15071 0.24942 0.16503
 C13 C 0.13699 0.22878 0.19353
 H14 H 0.20861 0.11931 0.24072
 H15 H 0.11612 0.18591 0.24557
 H16 H 0.25220 0.12894 0.19583
 H17 H 0.24115 0.21453 0.11971
 H18 H 0.19430 0.25533 0.12722
 H19 H 0.11196 0.23563 0.20601
 C20 C -0.20595 0.83228 0.19204
 C21 C -0.19401 0.84756 0.22384
 C22 C -0.16451 0.83434 0.24354
 C23 C -0.14719 0.80499 0.23002
 C24 C -0.15902 0.78947 0.19810
 C25 C -0.18860 0.80315 0.17905
 C26 C -0.23513 0.84617 0.17317
 C27 C -0.24743 0.83219 0.14042
 C28 C -0.23012 0.80228 0.12800
 C29 C -0.20091 0.78770 0.14715
 C30 C -0.18373 0.75799 0.13491
 C31 C -0.15406 0.74389 0.15384
 C32 C -0.14176 0.76031 0.18517
 H33 H -0.20700 0.87095 0.23196
 H34 H -0.12537 0.79296 0.24485
 H35 H -0.24901 0.86727 0.18538
 H36 H -0.23812 0.79083 0.10282
 H37 H -0.19393 0.74559 0.11101
 H38 H -0.11840 0.75063 0.19952
 C39 C -0.19458 0.16298 -0.20692
 C40 C -0.18122 0.14569 -0.23705
 C41 C -0.14836 0.15561 -0.25270
 C42 C -0.12850 0.18231 -0.23696
 C43 C -0.14197 0.20043 -0.20783
 C44 C -0.17521 0.19093 -0.19291
 C45 C -0.22725 0.15319 -0.19101
 C46 C -0.24117 0.17091 -0.16109
 C47 C -0.22165 0.19955 -0.14848
 C48 C -0.18916 0.20962 -0.16415
 C49 C -0.17047 0.23833 -0.15139
 C50 C -0.13724 0.24814 -0.16616
 C51 C -0.12290 0.22840 -0.19394
 H52 H -0.19682 0.12515 -0.24877
 H53 H -0.10261 0.18950 -0.24779
 H54 H -0.24213 0.13236 -0.20300
 H55 H -0.23040 0.21334 -0.12509
 H56 H -0.18243 0.25347 -0.13047
 H57 H -0.09699 0.23491 -0.20513
 C58 C 0.18655 0.86429 -0.16885
 C59 C 0.17267 0.87934 -0.20052
 C60 C 0.14737 0.86196 -0.22205
 C61 C 0.13343 0.83023 -0.20841
 C62 C 0.14637 0.81536 -0.17586
 C63 C 0.17388 0.83202 -0.15671
 C64 C 0.21415 0.88059 -0.15003
 C65 C 0.23119 0.86402 -0.12055
 C66 C 0.21813 0.83196 -0.10818
 C67 C 0.18928 0.81616 -0.12576
 C68 C 0.17640 0.78423 -0.11349
 C69 C 0.14774 0.76794 -0.13115
 C70 C 0.13310 0.78359 -0.16267
 H71 H 0.18206 0.90482 -0.20816
 H72 H 0.11420 0.81563 -0.22382
 H73 H 0.22329 0.90575 -0.15929
 H74 H 0.23113 0.81867 -0.08568
 H75 H 0.18912 0.77189 -0.09025
 H76 H 0.11119 0.77129 -0.17678
 C77 C 0.13911 1.19339 0.80306
 C78 C 0.12406 1.17695 0.77330
 C79 C 0.13959 1.14719 0.75876
 C80 C 0.17242 1.13550 0.77419
 C81 C 0.18823 1.15220 0.80382
 C82 C 0.17097 1.18081 0.81861
 C83 C 0.12286 1.22277 0.81693
 C84 C 0.13737 1.23968 0.84719
 C85 C 0.16860 1.22564 0.86333
 C86 C 0.18572 1.19714 0.84883
 C87 C 0.21781 1.18519 0.86400
 C88 C 0.23649 1.15790 0.84867
 C89 C 0.22112 1.14100 0.81886
 H90 H 0.10061 1.18854 0.76091
 H91 H 0.18529 1.11266 0.76446
 H92 H 0.09969 1.23296 0.80278
 H93 H 0.17974 1.23621 0.88776
 H94 H 0.22856 1.19763 0.88767
 H95 H 0.23510 1.11981 0.80682
 C96 C 0.82726 0.78284 0.79541
 C97 C 0.83904 0.79609 0.76200
 C98 C 0.82432 0.82658 0.74660
 C99 C 0.79611 0.84250 0.76513
 C100 C 0.78385 0.82924 0.79827
 C101 C 0.79990 0.79971 0.81378
 C102 C 0.84232 0.75275 0.81049
 C103 C 0.83102 0.73940 0.84443
 C104 C 0.80433 0.75755 0.86291
 C105 C 0.78851 0.78704 0.84767
 C106 C 0.76127 0.80395 0.86591
 C107 C 0.74416 0.83273 0.85010
 C108 C 0.75582 0.84530 0.81625
 H109 H 0.85917 0.78183 0.74782
 H110 H 0.78462 0.86640 0.75515
 H111 H 0.86183 0.73926 0.79474
 H112 H 0.79618 0.74956 0.88980
 H113 H 0.75325 0.79447 0.89239
 H114 H 0.74263 0.86716 0.80339
 C115 C 0.15895 0.80028 1.19456
 C116 C 0.14904 0.81433 1.22765
 C117 C 0.16708 0.84323 1.24127
 C118 C 0.19603 0.85721 1.22190
 C119 C 0.20645 0.84317 1.18911
 C120 C 0.18756 0.81497 1.17505
 C121 C 0.14081 0.77160 1.18098
 C122 C 0.15029 0.75723 1.14756
 C123 C 0.17858 0.77313 1.12796
 C124 C 0.19739 0.80144 1.14161
 C125 C 0.22605 0.81638 1.12235
 C126 C 0.24573 0.84401 1.13670
 C127 C 0.23560 0.85703 1.17027
 H128 H 0.12723 0.80275 1.24280
 H129 H 0.20995 0.87965 1.23183
 H130 H 0.12033 0.75984 1.19769
 H131 H 0.18575 0.76437 1.10146
 H132 H 0.23304 0.80633 1.09628
 H133 H 0.25085 0.87757 1.18240
 C134 C 0.84601 1.21456 1.21565
 C135 C 0.85947 1.19747 1.24636
 C136 C 0.84206 1.16835 1.26159
 C137 C 0.81087 1.15607 1.24389
 C138 C 0.79724 1.17288 1.21258
 C139 C 0.81486 1.20236 1.19861
 C140 C 0.86358 1.24379 1.20179
 C141 C 0.85006 1.26177 1.17142
 C142 C 0.81897 1.24937 1.15426
 C143 C 0.80146 1.21967 1.16751
 C144 C 0.77078 1.20711 1.15016
 C145 C 0.75267 1.17775 1.16370
 C146 C 0.76610 1.16093 1.19517
 H147 H 0.88457 1.20657 1.25742
 H148 H 0.79617 1.13429 1.25495
 H149 H 0.88801 1.25251 1.21470
 H150 H 0.80802 1.26312 1.13095
 H151 H 0.76138 1.22000 1.12567
 H152 H 0.75216 1.13871 1.20639
 N153 N 0.54215 1.07448 0.95876
 N154 N 0.57051 1.09459 0.95386
 N155 N 0.46649 1.05022 0.93441
 N156 N 0.43730 1.05133 0.91433
 N157 N 0.46616 1.07435 0.95874
 N158 N 0.43651 1.09280 0.95541
 N159 N 0.54152 1.05022 0.93462
 N160 N 0.56919 1.05289 0.91300
 C161 C 0.58705 1.08065 0.92505
 C162 C 0.41896 1.07810 0.92734
 N163 N 0.46546 0.95279 0.96051
 N164 N 0.43667 0.93335 0.95752
 N165 N 0.54125 0.97663 0.93549
 N166 N 0.56889 0.97307 0.91398
 N167 N 0.54051 0.95192 0.96017
 N168 N 0.56746 0.93063 0.95600
 N169 N 0.46614 0.97663 0.93491
 N170 N 0.43802 0.97384 0.91346
 Mn171 Mn 0.50391 1.01351 0.93451
 C172 C 0.41998 0.94672 0.92791
 C173 C 0.58490 0.94421 0.92712
 N174 N 0.46706 1.07353 1.03750
 N175 N 0.43911 1.09379 1.04211
 N176 N 0.54283 1.04833 1.06188
 N177 N 0.57053 1.05113 1.08385
 N178 N 0.54268 1.07343 1.03749
 N179 N 0.57029 1.09428 1.04266
 N180 N 0.46756 1.04879 1.06226
 N181 N 0.44001 1.05130 1.08399
 Mn182 Mn 0.50450 1.07461 0.99809
 C183 C 0.42252 1.07950 1.07135
 C184 C 0.58741 1.07989 1.07172
 N185 N 0.54112 0.95045 1.03751
 N186 N 0.56839 0.92923 1.04120
 N187 N 0.46642 0.97491 1.06245
 N188 N 0.43765 0.97209 1.08281
 N189 N 0.46625 0.95117 1.03780
 N190 N 0.43770 0.93132 1.04093
 N191 N 0.54225 0.97420 1.06213
 N192 N 0.57066 0.96992 1.08317
 Mn193 Mn 0.50330 0.95123 0.99899
 Mn194 Mn 0.50482 1.01157 1.06263
 Cl195 Cl 0.50415 1.01285 0.99862
 C196 C 0.58659 0.94163 1.06983
 C197 C 0.42015 0.94459 1.06920
 N198 N 0.04710 0.46726 0.06115
 N199 N 0.04954 0.43958 0.08257
 N200 N 0.07170 0.53878 0.03095
 N201 N 0.09402 0.56493 0.03346
 N202 N 0.04686 0.54023 0.05576
 N203 N 0.05157 0.56778 0.07569
 N204 N 0.07177 0.46657 0.03604
 N205 N 0.09126 0.43851 0.03951
 C206 C 0.07747 0.42203 0.06879
 C207 C 0.08124 0.58288 0.06140
 N208 N 0.04805 0.53330 -0.07262
 N209 N 0.05083 0.55964 -0.09554
 N210 N 0.07275 0.46312 -0.04136
 N211 N 0.09472 0.43673 -0.04298
 N212 N 0.04784 0.46114 -0.06639
 N213 N 0.05193 0.43321 -0.08552
 N214 N 0.07196 0.53558 -0.04662
 N215 N 0.09135 0.56382 -0.05089
 Mn216 Mn 0.07245 0.50108 -0.00521
 C217 C 0.07809 0.57832 -0.08175
 C218 C 0.08138 0.41831 -0.07065
 N219 N -0.03067 0.53974 0.05453
 N220 N -0.03604 0.56701 0.07456
 N221 N -0.05462 0.46632 0.03391
 N222 N -0.07547 0.43916 0.03778
 N223 N -0.03058 0.46724 0.05992
 N224 N -0.03484 0.44073 0.08256
 N225 N -0.05442 0.53863 0.02823
 N226 N -0.07619 0.56520 0.02932
 Mn227 Mn 0.00821 0.50364 0.05847
 C228 C -0.06454 0.58265 0.05837
 C229 C -0.06308 0.42355 0.06826
 N230 N -0.02901 0.46082 -0.06797
 N231 N -0.03289 0.43290 -0.08737
 N232 N -0.05366 0.53421 -0.04915
 N233 N -0.07520 0.56042 -0.05552
 N234 N -0.02866 0.53309 -0.07377
 N235 N -0.03231 0.55872 -0.09747
 N236 N -0.05373 0.46204 -0.04307
 N237 N -0.07489 0.43488 -0.04456
 Mn238 Mn 0.00958 0.49701 -0.07063
 Mn239 Mn -0.05448 0.50036 -0.00749
 Cl240 Cl 0.00894 0.50054 -0.00614
 C241 C -0.06169 0.41701 -0.07241
 C242 C -0.06159 0.57543 -0.08576
 N243 N 0.93527 0.01299 0.53993
 N244 N 0.91253 0.01579 0.56690
 N245 N 0.95733 0.04222 0.46468
 N246 N 0.95016 0.06523 0.43888
 N247 N 0.93414 0.01676 0.46373
 N248 N 0.91084 0.02157 0.43717
 N249 N 0.95893 0.03806 0.54048
 N250 N 0.95264 0.05881 0.56738
 C251 C 0.92377 0.04455 0.58379
 C252 C 0.92114 0.05191 0.42188
 N253 N 1.06054 0.02381 0.46180
 N254 N 1.08222 0.03219 0.43485
 N255 N 1.03642 0.04193 0.53999
 N256 N 1.04133 0.06215 0.56789
 N257 N 1.06281 0.01987 0.53786
 N258 N 1.08642 0.02461 0.56396
 N259 N 1.03457 0.04638 0.46388
 N260 N 1.03798 0.07065 0.43871
 Mn261 Mn 0.99681 0.04255 0.50234
 C262 C 1.06768 0.06152 0.42065
 C263 C 1.07269 0.05097 0.58261
 N264 N 0.93804 -0.05729 0.46099
 N265 N 0.91656 -0.06192 0.43290
 N266 N 0.96540 -0.08289 0.53643
 N267 N 0.96209 -0.10605 0.56278
 N268 N 0.93900 -0.06079 0.53696
 N269 N 0.91687 -0.06835 0.56356
 N270 N 0.96444 -0.07940 0.46073
 N271 N 0.96199 -0.09939 0.43262
 Mn272 Mn 0.93614 -0.02207 0.50035
 C273 C 0.93207 -0.08836 0.41549
 C274 C 0.93170 -0.09661 0.57948
 N275 N 1.06589 -0.05416 0.53632
 N276 N 1.08446 -0.05622 0.56690
 N277 N 1.04037 -0.07537 0.45978
 N278 N 1.04334 -0.09424 0.43088
 N279 N 1.06445 -0.05073 0.45975
 N280 N 1.08495 -0.05252 0.43087
 N281 N 1.04184 -0.07886 0.53547
 N282 N 1.04338 -0.09821 0.56502
 Mn283 Mn 1.06397 -0.01531 0.49882
 Mn284 Mn 1.00311 -0.07939 0.49815
 Cl285 Cl 1.00001 -0.01845 0.49991
 C286 C 1.07024 -0.08417 0.58428
 C287 C 1.07131 -0.07990 0.41322
 C288 C 1.15694 0.09398 0.28295
 C289 C 1.14661 0.12880 0.27754
 C290 C 1.12240 0.14253 0.30270
 C291 C 1.10911 0.12244 0.33171
 C292 C 1.12034 0.08803 0.33673
 C293 C 1.14421 0.07411 0.31214
 C294 C 1.10727 0.06811 0.36609
 C295 C 1.08252 0.08212 0.39006
 C296 C 1.07132 0.11633 0.38453
 C297 C 1.08469 0.13637 0.35588
 H298 H 1.11456 0.16925 0.30100
 H299 H 1.15275 0.04758 0.31516
 H300 H 1.11590 0.04168 0.36993
 H301 H 1.07568 0.16271 0.35249
 H302 H 1.17390 0.08109 0.26406
 H303 H 1.05234 0.12779 0.40262
 C304 C 0.82397 -0.12957 0.29648
 C305 C 0.84746 -0.14950 0.27563
 C306 C 0.88334 -0.15240 0.28748
 C307 C 0.89529 -0.13599 0.31870
 C308 C 0.87150 -0.11578 0.33867
 C309 C 0.83590 -0.11282 0.32733
 C310 C 0.88363 -0.09929 0.36990
 C311 C 0.91910 -0.10356 0.38171
 C312 C 0.94248 -0.12382 0.36166
 C313 C 0.93082 -0.13960 0.33027
 H314 H 0.90278 -0.16620 0.27191
 H315 H 0.81707 -0.09790 0.34261
 H316 H 0.86537 -0.08393 0.38540
 H317 H 0.94949 -0.15500 0.31533
 H318 H 0.79578 -0.12764 0.29008
 H319 H 0.96993 -0.12757 0.37032
 C320 C 0.88352 0.15966 0.68799
 C321 C 0.86516 0.13936 0.71388
 C322 C 0.86058 0.10393 0.70767
 C323 C 0.87507 0.08902 0.67667
 C324 C 0.89472 0.10969 0.65192
 C325 C 0.89843 0.14497 0.65762
 C326 C 0.91046 0.09483 0.62180
 C327 C 0.90624 0.05961 0.61537
 C328 C 0.88579 0.03928 0.63937
 C329 C 0.87060 0.05380 0.67000
 H330 H 0.84654 0.08783 0.72722
 H331 H 0.91290 0.16126 0.63857
 H332 H 0.92584 0.11080 0.60317
 H333 H 0.85547 0.03750 0.68849
 H334 H 0.88644 0.18715 0.69113
 H335 H 0.88220 0.01204 0.63484
 C336 C 1.16080 -0.10167 0.72399
 C337 C 1.13758 -0.12439 0.74318
 C338 C 1.10509 -0.13363 0.72612
 C339 C 1.09640 -0.12100 0.69135
 C340 C 1.11992 -0.09815 0.67305
 C341 C 1.15193 -0.08859 0.68972
 C342 C 1.11126 -0.08563 0.63819
 C343 C 1.07961 -0.09627 0.62118
 C344 C 1.05638 -0.11904 0.63961
 C345 C 1.06454 -0.13108 0.67444
 H346 H 1.08576 -0.14990 0.73990
 H347 H 1.17058 -0.07150 0.67592
 H348 H 1.12935 -0.06814 0.62414
 H349 H 1.04609 -0.14855 0.68798
 H350 H 1.18694 -0.09488 0.73430
 H351 H 1.03167 -0.12748 0.62714
 C352 C 0.30398 1.18202 1.11519
 C353 C 0.28298 1.15876 1.13619
 C354 C 0.29432 1.12404 1.13825
 C355 C 0.32547 1.11322 1.12094
 C356 C 0.34582 1.13686 1.10007
 C357 C 0.33470 1.17116 1.09730
 C358 C 0.37715 1.12582 1.08284
 C359 C 0.38869 1.09157 1.08719
 C360 C 0.36813 1.06839 1.10809
 C361 C 0.33668 1.07896 1.12445
 H362 H 0.27856 1.10465 1.15228
 H363 H 0.35015 1.18984 1.08177
 H364 H 0.39295 1.14395 1.06695
 H365 H 0.32142 1.06041 1.14034
 H366 H 0.29792 1.20915 1.11340
 H367 H 0.37639 1.04188 1.11179
 C368 C 0.27242 0.87496 0.93216
 C369 C 0.26430 0.87892 0.89513
 C370 C 0.28884 0.89616 0.87243
 C371 C 0.32080 0.90930 0.88629
 C372 C 0.32916 0.90436 0.92332
 C373 C 0.30471 0.88736 0.94610
 C374 C 0.36188 0.91642 0.93680
 C375 C 0.38575 0.93408 0.91384
 C376 C 0.37674 0.93977 0.87738
 C377 C 0.34465 0.92712 0.86357
 H378 H 0.28359 0.89873 0.84368
 H379 H 0.31055 0.88367 0.97464
 H380 H 0.36859 0.91243 0.96513
 H381 H 0.33846 0.93129 0.83517
 H382 H 0.25383 0.86228 0.95040
 H383 H 0.39487 0.95345 0.85940
 C384 C 0.70085 0.82895 1.09811
 C385 C 0.72321 0.84781 1.12154
 C386 C 0.71468 0.88285 1.12678
 C387 C 0.68367 0.89760 1.11193
 C388 C 0.66120 0.87801 1.08954
 C389 C 0.67039 0.84394 1.08223
 C390 C 0.62972 0.89273 1.07529
 C391 C 0.62010 0.92651 1.08403
 C392 C 0.64272 0.94576 1.10630
 C393 C 0.67446 0.93157 1.11981
 H394 H 0.73224 0.89934 1.14209
 H395 H 0.65342 0.82851 1.06506
 H396 H 0.61237 0.87767 1.05810
 H397 H 0.69148 0.94697 1.13698
 H398 H 0.70541 0.80202 1.09325
 H399 H 0.63597 0.97190 1.11310
 C400 C 0.70577 1.18325 0.87635
 C401 C 0.72660 1.16008 0.85633
 C402 C 0.71472 1.12554 0.85495
 C403 C 0.68367 1.11457 0.87304
 C404 C 0.66374 1.13806 0.89332
 C405 C 0.67502 1.17234 0.89466
 C406 C 0.63264 1.12692 0.91146
 C407 C 0.62094 1.09269 0.90873
 C408 C 0.64109 1.06959 0.88851
 C409 C 0.67227 1.08031 0.87111
 H410 H 0.73019 1.10642 0.84118
 H411 H 0.65981 1.19092 0.90957
 H412 H 0.61711 1.14496 0.92677
 H413 H 0.68720 1.06186 0.85576
 H414 H 0.71216 1.21036 0.87715
 H415 H 0.63267 1.04304 0.88609
 C416 C 0.11431 0.30266 0.17712
 C417 C 0.13197 0.28154 0.15250
 C418 C 0.13279 0.29198 0.11584
 C419 C 0.11775 0.32340 0.10425
 C420 C 0.10032 0.34450 0.12923
 C421 C 0.09841 0.33364 0.16556
 C422 C 0.08593 0.37638 0.11755
 C423 C 0.08992 0.38771 0.08144
 C424 C 0.10722 0.36635 0.05694
 C425 C 0.12063 0.33438 0.06810
 H426 H 0.14544 0.27583 0.09620
 H427 H 0.08535 0.34947 0.18522
 H428 H 0.07280 0.39277 0.13665
 H429 H 0.13390 0.31855 0.04858
 H430 H 0.11354 0.29576 0.20558
 H431 H 0.11038 0.37439 0.02894
 C432 C -0.09776 0.30003 -0.17746
 C433 C -0.11825 0.27954 -0.15341
 C434 C -0.12157 0.29004 -0.11742
 C435 C -0.10609 0.32093 -0.10610
 C436 C -0.08540 0.34104 -0.13046
 C437 C -0.08111 0.33016 -0.16596
 C438 C -0.07007 0.37206 -0.11909
 C439 C -0.07640 0.38380 -0.08412
 C440 C -0.09744 0.36387 -0.06033
 C441 C -0.11169 0.33243 -0.07099
 H442 H -0.13645 0.27442 -0.09812
 H443 H -0.06563 0.34541 -0.18513
 H444 H -0.05414 0.38750 -0.13773
 H445 H -0.12768 0.31747 -0.05202
 H446 H -0.09522 0.29334 -0.20554
 H447 H -0.10277 0.37257 -0.03337
 C448 C 0.13367 0.72790 -0.07892
 C449 C 0.13389 0.73446 -0.11651
 C450 C 0.12192 0.70849 -0.13969
 C451 C 0.11072 0.67640 -0.12558
 C452 C 0.11223 0.66983 -0.08788
 C453 C 0.12339 0.69585 -0.06480
 C454 C 0.10232 0.63742 -0.07382
 C455 C 0.08971 0.61183 -0.09685
 C456 C 0.08725 0.61878 -0.13415
 C457 C 0.09815 0.65067 -0.14850
 H458 H 0.12203 0.71285 -0.16870
 H459 H 0.12410 0.69145 -0.03579
 H460 H 0.10365 0.63235 -0.04491
 H461 H 0.09655 0.65527 -0.17744
 H462 H 0.14156 0.74761 -0.06021
 H463 H 0.07737 0.59932 -0.15225
 C464 C -0.12060 0.68864 0.16669
 C465 C -0.13587 0.71204 0.14138
 C466 C -0.13328 0.70481 0.10433
 C467 C -0.11586 0.67496 0.09291
 C468 C -0.09981 0.65236 0.11868
 C469 C -0.10242 0.65945 0.15547
 C470 C -0.08196 0.62276 0.10725
 C471 C -0.08118 0.61479 0.07046
 C472 C -0.09770 0.63709 0.04510
 C473 C -0.11444 0.66715 0.05614
 H474 H -0.14444 0.72248 0.08427
 H475 H -0.09078 0.64217 0.17566
 H476 H -0.06968 0.60541 0.12699
 H477 H -0.12670 0.68403 0.03597
 H478 H -0.12292 0.69261 0.19541
 H479 H -0.09740 0.63136 0.01659
 C480 C 1.08518 0.13394 0.72304
 C481 C 1.12245 0.13020 0.72936
 C482 C 1.14170 0.10949 0.70524
 C483 C 1.12462 0.09443 0.67539
 C484 C 1.08777 0.09999 0.66904
 C485 C 1.06831 0.11941 0.69327
 C486 C 1.07090 0.08598 0.63861
 C487 C 1.09030 0.06583 0.61466
 C488 C 1.12680 0.05976 0.62157
 C489 C 1.14387 0.07415 0.65146
 H490 H 1.17028 0.10614 0.70826
 H491 H 1.03982 0.12325 0.68935
 H492 H 1.04265 0.09049 0.63376
 H493 H 1.17213 0.06940 0.65584
 H494 H 1.06820 0.14728 0.74158
 H495 H 1.14232 0.04425 0.60353
 C496 C 0.81683 -0.13669 0.69173
 C497 C 0.83806 -0.15862 0.71403
 C498 C 0.87379 -0.16452 0.70346
 C499 C 0.88793 -0.14852 0.67240
 C500 C 0.86647 -0.12591 0.65133
 C501 C 0.83093 -0.12045 0.66100
 C502 C 0.88095 -0.10900 0.62098
 C503 C 0.91655 -0.11480 0.61111
 C504 C 0.93757 -0.13784 0.63175
 C505 C 0.92346 -0.15439 0.66234
 H506 H 0.89162 -0.18005 0.72012
 H507 H 0.81390 -0.10366 0.64473
 H508 H 0.86448 -0.09144 0.60498
 H509 H 0.94034 -0.17172 0.67814
 H510 H 0.78882 -0.13250 0.69709
 H511 H 0.96508 -0.14268 0.62454
 C512 C 1.18010 -0.12662 0.29948
 C513 C 1.15513 -0.14050 0.27508
 C514 C 1.11847 -0.13802 0.28269
 C515 C 1.10690 -0.12236 0.31423
 C516 C 1.13219 -0.10816 0.33838
 C517 C 1.16873 -0.11038 0.33068
 C518 C 1.12046 -0.09268 0.37012
 C519 C 1.08392 -0.09248 0.37843
 C520 C 1.05908 -0.10661 0.35426
 C521 C 1.07039 -0.12106 0.32221
 H522 H 1.09882 -0.14800 0.26392
 H523 H 1.18854 -0.09994 0.34899
 H524 H 1.13972 -0.08213 0.38897
 H525 H 1.05065 -0.13181 0.30403
 H526 H 1.20854 -0.12857 0.29464
 H527 H 1.03079 -0.10648 0.36026
 C528 C 0.87753 0.17105 0.31795
 C529 C 0.85626 0.15213 0.29348
 C530 C 0.85065 0.11673 0.30142
 C531 C 0.86728 0.10066 0.33155
 C532 C 0.88973 0.12000 0.35438
 C533 C 0.89418 0.15519 0.34764
 C534 C 0.90743 0.10389 0.38364
 C535 C 0.90256 0.06864 0.39091
 C536 C 0.87963 0.04960 0.36861
 C537 C 0.86233 0.06541 0.33901
 H538 H 0.83505 0.10096 0.28339
 H539 H 0.91059 0.17059 0.36540
 H540 H 0.92476 0.11886 0.40094
 H541 H 0.84517 0.05006 0.32194
 H542 H 0.88090 0.19861 0.31503
 H543 H 0.87545 0.02235 0.37377
 C544 C 0.08522 0.27823 -0.14636
 C545 C 0.12160 0.27022 -0.13951
 C546 C 0.14205 0.29397 -0.11941
 C547 C 0.12691 0.32429 -0.10676
 C548 C 0.09085 0.33203 -0.11479
 C549 C 0.07022 0.30877 -0.13441
 C550 C 0.07607 0.36292 -0.10307
 C551 C 0.09680 0.38582 -0.08278
 C552 C 0.13240 0.37755 -0.07417
 C553 C 0.14746 0.34718 -0.08637
 H554 H 0.17034 0.29016 -0.11466
 H555 H 0.04230 0.31404 -0.14029
 H556 H 0.04842 0.36900 -0.10946
 H557 H 0.17516 0.34159 -0.07980
 H558 H 0.06750 0.26064 -0.15998
 H559 H 0.14878 0.39486 -0.05850
 C560 C -0.11582 0.31658 0.18219
 C561 C -0.13140 0.29338 0.15787
 C562 C -0.12885 0.30043 0.12060
 C563 C -0.11142 0.33023 0.10781
 C564 C -0.09551 0.35313 0.13247
 C565 C -0.09781 0.34599 0.16962
 C566 C -0.07827 0.38311 0.11954
 C567 C -0.07796 0.39088 0.08237
 C568 C -0.09383 0.36795 0.05818
 C569 C -0.11006 0.33770 0.07070
 H570 H -0.14021 0.28265 0.10146
 H571 H -0.08611 0.36336 0.18896
 H572 H -0.06635 0.40093 0.13832
 H573 H -0.12210 0.32048 0.05140
 H574 H -0.11790 0.31223 0.21108
 H575 H -0.09366 0.37351 0.02944
 C576 C -0.17389 0.68820 -0.11535
 C577 C -0.15424 0.70861 -0.14042
 C578 C -0.11965 0.69732 -0.14985
 C579 C -0.10527 0.66701 -0.13463
 C580 C -0.12526 0.64762 -0.10916
 C581 C -0.15949 0.65834 -0.09982
 C582 C -0.11075 0.61774 -0.09340
 C583 C -0.07657 0.60663 -0.10307
 C584 C -0.05689 0.62570 -0.12876
 C585 C -0.07105 0.65583 -0.14428
 H586 H -0.10295 0.71253 -0.16786
 H587 H -0.17538 0.64341 -0.08073
 H588 H -0.12618 0.60304 -0.07370
 H589 H -0.05528 0.67034 -0.16380
 H590 H -0.20115 0.69422 -0.10838
 H591 H -0.03039 0.61758 -0.13646
 C592 C 0.09740 0.71842 0.14589
 C593 C 0.13239 0.72736 0.13448
 C594 C 0.14927 0.70519 0.11007
 C595 C 0.13216 0.67534 0.09791
 C596 C 0.09760 0.66666 0.11030
 C597 C 0.08042 0.68850 0.13411
 C598 C 0.08087 0.63629 0.09863
 C599 C 0.09827 0.61480 0.07433
 C600 C 0.13249 0.62401 0.06185
 C601 C 0.14935 0.65384 0.07367
 H602 H 0.17648 0.70983 0.10149
 H603 H 0.05366 0.68260 0.14351
 H604 H 0.05437 0.62956 0.10821
 H605 H 0.17585 0.66010 0.06378
 H606 H 0.08213 0.73491 0.16308
 H607 H 0.14648 0.60795 0.04308
 C608 C 0.29564 1.17383 0.87662
 C609 C 0.27227 1.14817 0.86383
 C610 C 0.28304 1.11357 0.86663
 C611 C 0.31623 1.10480 0.88243
 C612 C 0.33884 1.13083 0.89615
 C613 C 0.32831 1.16526 0.89290
 C614 C 0.37187 1.12205 0.91228
 C615 C 0.38309 1.08766 0.91364
 C616 C 0.36059 1.06202 0.89966
 C617 C 0.32730 1.07043 0.88462
 H618 H 0.26544 1.09343 0.85711
 H619 H 0.34545 1.18562 0.90271
 H620 H 0.38933 1.14197 0.92256
 H621 H 0.31047 1.05010 0.87422
 H622 H 0.28872 1.20079 0.87397
 H623 H 0.36879 1.03531 0.90044
 C624 C 0.30031 0.83750 1.09773
 C625 C 0.27767 0.85866 1.11776
 C626 C 0.28704 0.89357 1.12158
 C627 C 0.31934 0.90651 1.10783
 C628 C 0.34192 0.88490 1.08809
 C629 C 0.33185 0.85061 1.08264
 C630 C 0.37455 0.89773 1.07489
 C631 C 0.38544 0.93151 1.08233
 C632 C 0.36293 0.95271 1.10218
 C633 C 0.32991 0.94048 1.11442
 H634 H 0.26959 0.91069 1.13590
 H635 H 0.34894 0.83363 1.06770
 H636 H 0.39189 0.88116 1.05969
 H637 H 0.31296 0.95737 1.12963
 H638 H 0.29437 0.81045 1.09465
 H639 H 0.37076 0.97886 1.10798
 C640 C 0.69600 1.18792 1.12752
 C641 C 0.71998 1.16479 1.14467
 C642 C 0.71277 1.12926 1.14294
 C643 C 0.68230 1.11714 1.12459
 C644 C 0.65892 1.14067 1.10691
 C645 C 0.66605 1.17601 1.10861
 C646 C 0.62851 1.12846 1.08839
 C647 C 0.62063 1.09309 1.08847
 C648 C 0.64392 1.06999 1.10638
 C649 C 0.67467 1.08183 1.12389
 H650 H 0.73101 1.11092 1.15547
 H651 H 0.64824 1.19449 1.09562
 H652 H 0.61044 1.14646 1.07500
 H653 H 0.69220 1.06339 1.13734
 H654 H 0.70013 1.21544 1.12895
 H655 H 0.63836 1.04261 1.10675
 C656 C 0.68921 0.82870 0.88853
 C657 C 0.71356 0.84900 0.86847
 C658 C 0.70790 0.88472 0.86528
 C659 C 0.67798 0.89974 0.88102
 C660 C 0.65401 0.87904 0.90141
 C661 C 0.65998 0.84363 0.90521
 C662 C 0.62408 0.89398 0.91711
 C663 C 0.61713 0.92913 0.91168
 C664 C 0.64078 0.94953 0.89109
 C665 C 0.67128 0.93502 0.87622
 H666 H 0.72665 0.90090 0.85048
 H667 H 0.64164 0.82737 0.92045
 H668 H 0.60568 0.87809 0.93273
 H669 H 0.68930 0.95125 0.86057
 H670 H 0.69224 0.80105 0.89081
 H671 H 0.63581 0.97674 0.88677
   
