data_POSCAR
  _audit_creation_date              2014-09-24
  _audit_creation_method            'ToBaCCo'
  _symmetry_space_group_name_H-M    'P1'
  _symmetry_Int_Tables_number       1
  _symmetry_cell_setting            triclinic
  loop_
  _symmetry_equiv_pos_as_xyz
 x,y,z
_cell_length_a 32.8813
_cell_length_b 32.7872
_cell_length_c 60.8921
_cell_angle_alpha 87.846700
_cell_angle_beta 92.220100
_cell_angle_gamma 120.387300
loop_
  _atom_site_label
  _atom_site_type_symbol
  _atom_site_fract_x
  _atom_site_fract_y
  _atom_site_fract_z
C1 C 0.05611 0.08723 0.53313
 H2 H 0.08831 0.08584 0.53325
 C3 C 0.05366 0.12071 0.54557
 H4 H 0.08387 0.14414 0.55567
 C5 C -0.02210 0.05812 0.51961
 H6 H -0.05107 0.03434 0.50904
 C7 C -0.02587 0.09158 0.53159
 H8 H -0.05795 0.09317 0.53003
 N9 N 0.01856 0.05672 0.52055
 C10 C 0.04413 -0.05828 0.50851
 H11 H 0.04218 -0.05820 0.49073
 C12 C 0.04606 -0.09491 0.52003
 H13 H 0.04544 -0.12289 0.51087
 C14 C 0.04279 -0.02401 0.54184
 H15 H 0.03977 0.00263 0.55031
 C16 C 0.04537 -0.05961 0.55402
 H17 H 0.04582 -0.05889 0.57178
 Zn18 Zn 0.02792 0.01683 0.50244
 N19 N 0.04170 -0.02428 0.51949
 C20 C 0.11951 0.05746 0.48417
 N21 N 0.07800 0.05719 0.48394
 C22 C 0.07179 0.08913 0.47161
 C23 C 0.10803 0.12298 0.45869
 C24 C 0.15705 0.09120 0.47163
 C25 C -0.06483 -0.05609 0.49679
 C26 C -0.10421 -0.09105 0.48555
 C27 C -0.06587 -0.05525 0.45138
 C28 C -0.02712 -0.02131 0.46337
 N29 N -0.02706 -0.02261 0.48566
 H30 H 0.12393 0.03231 0.49446
 H31 H 0.03873 0.08872 0.47216
 H32 H 0.10267 0.14868 0.44933
 H33 H 0.19012 0.09143 0.47209
 H34 H -0.06340 -0.05695 0.51458
 H35 H -0.13126 -0.11835 0.49562
 H36 H -0.06422 -0.05090 0.43373
 H37 H 0.00340 0.00534 0.45474
 C38 C 0.04575 -0.09648 0.54313
 C39 C 0.01253 0.12379 0.54467
 C40 C -0.10545 -0.09239 0.46224
 C41 C 0.15148 0.12459 0.45875
 C42 C 1.08766 0.04867 0.13279
 H43 H 1.08620 0.08092 0.13164
 C44 C 1.12026 0.04444 0.12057
 H45 H 1.14379 0.07357 0.10996
 C46 C 1.06047 -0.02734 0.14904
 H47 H 1.03803 -0.05463 0.16061
 C48 C 1.09307 -0.03282 0.13730
 H49 H 1.09475 -0.06485 0.13957
 N50 N 1.05828 0.01293 0.14652
 C51 C 0.94682 0.04458 0.15686
 H52 H 0.94777 0.04475 0.17464
 C53 C 0.91100 0.04748 0.14516
 H54 H 0.88444 0.04957 0.15421
 C55 C 0.97817 0.03734 0.12382
 H56 H 1.00331 0.03169 0.11557
 C57 C 0.94340 0.04092 0.11144
 H58 H 0.94338 0.03951 0.09371
 Zn59 Zn 1.01941 0.02535 0.16387
 N60 N 0.97902 0.03886 0.14613
 C61 C 1.06425 0.12001 0.17968
 N62 N 1.06100 0.07698 0.18137
 C63 C 1.09102 0.06966 0.19460
 C64 C 1.12668 0.10661 0.20658
 C65 C 1.09968 0.15821 0.19139
 C66 C 0.95078 -0.06944 0.17243
 C67 C 0.91628 -0.10715 0.18470
 C68 C 0.94076 -0.05660 0.21620
 C69 C 0.97550 -0.02019 0.20348
 N70 N 0.97960 -0.02707 0.18197
 H71 H 1.04043 0.12511 0.16873
 H72 H 1.08775 0.03511 0.19545
 H73 H 1.15027 0.09996 0.21697
 H74 H 1.10286 0.19265 0.18938
 H75 H 0.95367 -0.07346 0.15511
 H76 H 0.89292 -0.14045 0.17685
 H77 H 0.93684 -0.05034 0.23312
 H78 H 0.99762 0.01420 0.21054
 C79 C 0.90842 0.04489 0.12211
 C80 C 1.12350 0.00345 0.12288
 C81 C 0.91050 -0.10048 0.20671
 C82 C 1.13198 0.15185 0.20476
 C83 C 0.00788 0.93250 0.86466
 H84 H -0.02669 0.90113 0.86551
 C85 C 0.04554 0.93431 0.87681
 H86 H 0.03929 0.90451 0.88739
 C87 C 0.05765 1.00905 0.84953
 H88 H 0.06248 1.03743 0.83834
 C89 C 0.09651 1.01220 0.86128
 H90 H 0.13090 1.04329 0.85904
 N91 N 0.01441 0.96956 0.85144
 C92 C -0.12960 0.94027 0.84053
 H93 H -0.13136 0.93959 0.82275
 C94 C -0.16693 0.93715 0.85209
 H95 H -0.19630 0.93500 0.84253
 C96 C -0.08594 0.94922 0.87357
 H97 H -0.05382 0.95518 0.88186
 C98 C -0.12248 0.94606 0.88584
 H99 H -0.11802 0.94717 0.90353
 Zn100 Zn -0.03819 0.96011 0.83383
 N101 N -0.08993 0.94677 0.85131
 C102 C -0.09278 0.86712 0.81620
 N103 N -0.05196 0.90956 0.81536
 C104 C -0.01636 0.91696 0.80217
 C105 C -0.02077 0.88087 0.78915
 C106 C -0.09863 0.82978 0.80345
 C107 C -0.00966 1.05600 0.82710
 C108 C -0.00583 1.09535 0.81553
 C109 C -0.03537 1.04819 0.78290
 C110 C -0.03774 1.01003 0.79497
 N111 N -0.02530 1.01446 0.81670
 H112 H -0.12026 0.86182 0.82712
 H113 H 0.01600 0.95084 0.80217
 H114 H 0.00860 0.88723 0.77924
 H115 H -0.13109 0.79603 0.80438
 H116 H -0.00149 1.05811 0.84454
 H117 H 0.00577 1.12795 0.82408
 H118 H -0.04653 1.04390 0.76576
 H119 H -0.05159 0.97631 0.78720
 C120 C -0.16372 0.94111 0.87522
 C121 C 0.09080 0.97428 0.87501
 C122 C -0.01967 1.09129 0.79327
 C123 C -0.06213 0.83641 0.78980
 C124 C 0.49441 -0.00372 0.00982
 C125 C 0.48918 -0.01080 -0.01221
 C126 C 0.44773 -0.01495 -0.02468
 C127 C 0.52455 -0.01493 -0.02481
 C128 C 0.53592 0.00064 0.02227
 C129 C 0.45864 -0.00054 0.02251
 C130 C 0.40203 -0.05206 -0.02023
 C131 C 0.36306 -0.05401 -0.03131
 C132 C 0.36925 -0.01878 -0.04694
 C133 C 0.41515 0.01781 -0.05163
 C134 C 0.45408 0.01949 -0.04069
 C135 C 0.51135 -0.05719 -0.03543
 C136 C 0.54480 -0.06269 -0.04635
 C137 C 0.59204 -0.02578 -0.04704
 C138 C 0.60485 0.01701 -0.03681
 C139 C 0.57137 0.02241 -0.02584
 C140 C 0.56872 0.04402 0.03147
 C141 C 0.60951 0.04956 0.04215
 C142 C 0.61786 0.01149 0.04418
 C143 C 0.58411 -0.03237 0.03537
 C144 C 0.54359 -0.03767 0.02444
 C145 C 0.44846 0.03571 0.01817
 C146 C 0.41265 0.03659 0.02941
 C147 C 0.38638 0.00119 0.04518
 C148 C 0.39748 -0.03450 0.04974
 C149 C 0.43347 -0.03515 0.03861
 H150 H 0.39659 -0.07911 -0.00800
 H151 H 0.32804 -0.08245 -0.02733
 H152 H 0.42089 0.04503 -0.06381
 H153 H 0.48916 0.04828 -0.04434
 H154 H 0.47535 -0.08638 -0.03477
 H155 H 0.53388 -0.09624 -0.05384
 H156 H 0.58198 0.05556 -0.01801
 H157 H 0.56332 0.07397 0.02982
 H158 H 0.63498 0.08401 0.04838
 H159 H 0.58883 -0.06271 0.03702
 H160 H 0.51830 -0.07154 0.01757
 H161 H 0.46798 0.06302 0.00594
 H162 H 0.40565 0.06508 0.02580
 H163 H 0.37758 -0.06266 0.06154
 H164 H 0.44083 -0.06346 0.04209
 H165 H 0.64072 0.04641 -0.03740
 C166 C -0.02472 0.47950 0.67883
 C167 C -0.01508 0.48534 0.65698
 C168 C -0.00879 0.45077 0.64479
 C169 C -0.01006 0.52688 0.64414
 C170 C -0.02976 0.51518 0.69090
 C171 C -0.02913 0.43819 0.69187
 C172 C 0.02816 0.44223 0.65024
 C173 C 0.03186 0.40748 0.63935
 C174 C -0.00152 0.38064 0.62299
 C175 C -0.03780 0.39006 0.61727
 C176 C -0.04110 0.42517 0.62793
 C177 C 0.03329 0.55867 0.63472
 C178 C 0.03960 0.59945 0.62364
 C179 C 0.00236 0.60888 0.62147
 C180 C -0.04151 0.57616 0.63047
 C181 C -0.04764 0.53553 0.64172
 C182 C -0.07180 0.50165 0.70167
 C183 C -0.07782 0.53524 0.71228
 C184 C -0.04178 0.58295 0.71235
 C185 C 0.00080 0.59615 0.70202
 C186 C 0.00688 0.56251 0.69154
 C187 C -0.05913 0.39162 0.68498
 C188 C -0.05944 0.35369 0.69640
 C189 C -0.03096 0.36133 0.71543
 C190 C -0.00314 0.40781 0.72299
 C191 C -0.00208 0.44577 0.71128
 H192 H 0.05357 0.46198 0.66313
 H193 H 0.06007 0.40075 0.64405
 H194 H -0.06356 0.37022 0.60451
 H195 H -0.06968 0.43152 0.62348
 H196 H 0.06269 0.55253 0.63650
 H197 H 0.07400 0.62414 0.61722
 H198 H -0.08154 0.51099 0.64868
 H199 H -0.10033 0.46523 0.70145
 H200 H -0.11105 0.52411 0.72002
 H201 H 0.02953 0.63247 0.70220
 H202 H 0.04003 0.57341 0.68377
 H203 H -0.08152 0.38468 0.67045
 H204 H -0.08115 0.31857 0.68995
 H205 H 0.01812 0.41503 0.73793
 H206 H 0.02075 0.48130 0.71713
 H207 H -0.07119 0.58183 0.62874
 C208 C 0.52043 0.52422 0.34503
 C209 C 0.51901 0.52694 0.32263
 C210 C 0.55697 0.56680 0.30985
 C211 C 0.47993 0.48878 0.30972
 C212 C 0.48263 0.48386 0.35742
 C213 C 0.55964 0.56104 0.35834
 C214 C 0.57332 0.61421 0.31481
 C215 C 0.61141 0.65081 0.30364
 C216 C 0.63288 0.64092 0.28667
 C217 C 0.61450 0.59347 0.28094
 C218 C 0.57728 0.55692 0.29249
 C219 C 0.45093 0.49910 0.29600
 C220 C 0.41326 0.46326 0.28421
 C221 C 0.40432 0.41655 0.28575
 C222 C 0.43403 0.40652 0.29923
 C223 C 0.47159 0.44235 0.31105
 C224 C 0.49369 0.45471 0.37064
 C225 C 0.45825 0.41523 0.38162
 C226 C 0.41107 0.40446 0.37978
 C227 C 0.40032 0.43448 0.36690
 C228 C 0.43581 0.47387 0.35584
 C229 C 0.60624 0.57143 0.35604
 C230 C 0.64300 0.60807 0.36792
 C231 C 0.63373 0.63484 0.38234
 C232 C 0.58676 0.62337 0.38494
 C233 C 0.55009 0.58661 0.37318
 H234 H 0.55724 0.62294 0.32762
 H235 H 0.62455 0.68674 0.30868
 H236 H 0.62888 0.58436 0.26753
 H237 H 0.56481 0.52070 0.28808
 H238 H 0.45715 0.53484 0.29467
 H239 H 0.39138 0.47212 0.27371
 H240 H 0.49402 0.43388 0.32135
 H241 H 0.52967 0.46192 0.37201
 H242 H 0.46766 0.39258 0.39116
 H243 H 0.36451 0.42770 0.36549
 H244 H 0.42679 0.49644 0.34596
 H245 H 0.61411 0.55153 0.34487
 H246 H 0.67864 0.61538 0.36586
 H247 H 0.57839 0.64361 0.39564
 H248 H 0.51429 0.57899 0.37514
 H249 H 0.42780 0.37082 0.30086
 C250 C 0.00687 0.23289 0.57898
 C251 C 0.04937 0.24246 0.56978
 C252 C 0.05088 0.20674 0.55855
 C253 C 0.01047 0.16137 0.55671
 C254 C -0.03181 0.15239 0.56622
 C255 C -0.03386 0.18811 0.57724
 C256 C 0.00493 0.27059 0.59053
 C257 C -0.03782 0.26129 0.59936
 C258 C -0.03966 0.29749 0.61000
 C259 C 0.00098 0.34248 0.61203
 C260 C 0.04372 0.35104 0.60335
 C261 C 0.04580 0.31528 0.59240
 C262 C -0.07586 0.18002 0.58651
 C263 C -0.07785 0.21605 0.59732
 C264 C 0.08948 0.28764 0.57192
 C265 C 0.08777 0.32338 0.58311
 H266 H -0.10755 0.14564 0.58529
 H267 H -0.11101 0.20841 0.60412
 H268 H 0.12250 0.29543 0.56490
 H269 H 0.11950 0.35771 0.58440
 H270 H 0.08339 0.21458 0.55095
 H271 H -0.06298 0.11758 0.56521
 H272 H -0.07251 0.29068 0.61686
 H273 H 0.07496 0.38575 0.60474
 C274 C 0.79386 0.79022 0.24173
 C275 C 0.82768 0.78096 0.23352
 C276 C 0.86597 0.81690 0.22202
 C277 C 0.87094 0.86196 0.21924
 C278 C 0.83721 0.87093 0.22787
 C279 C 0.79822 0.83496 0.23892
 C280 C 0.75290 0.75225 0.25335
 C281 C 0.71839 0.76107 0.26098
 C282 C 0.67905 0.72456 0.27164
 C283 C 0.67449 0.67965 0.27516
 C284 C 0.71008 0.67188 0.26764
 C285 C 0.74894 0.70779 0.25649
 C286 C 0.76323 0.84263 0.24700
 C287 C 0.72385 0.80623 0.25772
 C288 C 0.82241 0.73593 0.23693
 C289 C 0.78387 0.70006 0.24836
 H290 H 0.76614 0.87696 0.24487
 H291 H 0.69752 0.81354 0.26357
 H292 H 0.84831 0.72838 0.23076
 H293 H 0.78119 0.66587 0.25067
 H294 H 0.89206 0.81012 0.21538
 H295 H 0.84086 0.90557 0.22550
 H296 H 0.65180 0.73108 0.27693
 H297 H 0.70789 0.63806 0.27061
 C298 C 0.20945 -0.02268 -0.09130
 C299 C 0.20709 0.01890 -0.09314
 C300 C 0.16816 0.01777 -0.10406
 C301 C 0.13190 -0.02450 -0.11323
 C302 C 0.13515 -0.06578 -0.11128
 C303 C 0.17367 -0.06512 -0.10025
 C304 C 0.25025 -0.02175 -0.07983
 C305 C 0.25244 -0.06342 -0.07789
 C306 C 0.29130 -0.06236 -0.06697
 C307 C 0.32797 -0.01989 -0.05823
 C308 C 0.32523 0.02160 -0.06036
 C309 C 0.28632 0.02082 -0.07108
 C310 C 0.17719 -0.10606 -0.09806
 C311 C 0.21585 -0.10525 -0.08702
 C312 C 0.24373 0.06075 -0.08404
 C313 C 0.28272 0.06172 -0.07323
 H314 H 0.14978 -0.13903 -0.10490
 H315 H 0.21717 -0.13761 -0.08566
 H316 H 0.24235 0.09308 -0.08533
 H317 H 0.31028 0.09476 -0.06651
 H318 H 0.16586 0.04961 -0.10522
 H319 H 0.10805 -0.09830 -0.11861
 H320 H 0.29345 -0.09428 -0.06556
 H321 H 0.35310 0.05426 -0.05344
 C322 C 0.03088 0.78025 0.57771
 C323 C 0.05935 0.79756 0.55915
 C324 C 0.06536 0.83870 0.54830
 C325 C 0.04246 0.86208 0.55564
 C326 C 0.01430 0.84423 0.57443
 C327 C 0.00857 0.80350 0.58556
 C328 C 0.02376 0.73655 0.58896
 C329 C -0.00474 0.71923 0.60750
 C330 C -0.01151 0.67760 0.61810
 C331 C 0.00952 0.65294 0.61012
 C332 C 0.03786 0.67084 0.59140
 C333 C 0.04529 0.71274 0.58084
 C334 C -0.01959 0.78517 0.60421
 C335 C -0.02598 0.74386 0.61505
 C336 C 0.08072 0.77301 0.55166
 C337 C 0.07369 0.73124 0.56227
 H338 H -0.03695 0.80285 0.61045
 H339 H -0.04800 0.73090 0.62936
 H340 H 0.10277 0.78598 0.53736
 H341 H 0.09058 0.71325 0.55587
 H342 H 0.08763 0.85231 0.53409
 H343 H -0.00433 0.86113 0.58005
 H344 H -0.03267 0.66475 0.63269
 H345 H 0.05369 0.65193 0.58489
 C346 C 0.24847 0.26672 0.23828
 C347 C 0.25521 0.23335 0.22772
 C348 C 0.21707 0.19634 0.21660
 C349 C 0.17223 0.19221 0.21610
 C350 C 0.16620 0.22633 0.22659
 C351 C 0.20426 0.26366 0.23776
 C352 C 0.28845 0.30544 0.25022
 C353 C 0.28178 0.33877 0.26088
 C354 C 0.31987 0.37530 0.27237
 C355 C 0.36427 0.37840 0.27330
 C356 C 0.37027 0.34470 0.26243
 C357 C 0.33251 0.30817 0.25086
 C358 C 0.19898 0.29777 0.24858
 C359 C 0.23708 0.33469 0.25994
 C360 C 0.29990 0.23749 0.22857
 C361 C 0.33790 0.27426 0.23996
 H362 H 0.16509 0.29585 0.24832
 H363 H 0.23146 0.36018 0.26810
 H364 H 0.30550 0.21195 0.22044
 H365 H 0.37174 0.27606 0.24030
 H366 H 0.22235 0.17084 0.20823
 H367 H 0.13180 0.22329 0.22642
 H368 H 0.31482 0.40079 0.28089
 H369 H 0.40444 0.34719 0.26282
 C370 C 0.73119 -0.04948 -0.09059
 C371 C 0.77666 -0.03049 -0.08130
 C372 C 0.81097 -0.03465 -0.09238
 C373 C 0.80047 -0.05761 -0.11286
 C374 C 0.75373 -0.07748 -0.12149
 C375 C 0.71934 -0.07319 -0.11057
 C376 C 0.69542 -0.04388 -0.07932
 C377 C 0.65004 -0.06242 -0.08878
 C378 C 0.61640 -0.05634 -0.07819
 C379 C 0.62782 -0.03207 -0.05822
 C380 C 0.67350 -0.01402 -0.04891
 C381 C 0.70746 -0.01970 -0.05943
 C382 C 0.67333 -0.09180 -0.11939
 C383 C 0.63931 -0.08641 -0.10871
 C384 C 0.78732 -0.00676 -0.06128
 C385 C 0.75328 -0.00155 -0.05050
 H386 H 0.66365 -0.11032 -0.13479
 H387 H 0.60438 -0.10099 -0.11616
 H388 H 0.82235 0.00812 -0.05391
 H389 H 0.76302 0.01711 -0.03513
 H390 H 0.84636 -0.01742 -0.08540
 H391 H 0.74324 -0.09734 -0.13649
 H392 H 0.58159 -0.06987 -0.08565
 H393 H 0.68248 0.00402 -0.03338
 C394 C 0.23308 -0.00118 0.08931
 C395 C 0.20416 0.01266 0.07767
 C396 C 0.16775 0.01325 0.08864
 C397 C 0.16003 -0.00014 0.11103
 C398 C 0.18881 -0.01476 0.12233
 C399 C 0.22565 -0.01501 0.11159
 C400 C 0.27224 -0.00062 0.07802
 C401 C 0.30170 -0.01360 0.08975
 C402 C 0.33920 -0.01252 0.07901
 C403 C 0.34712 0.00099 0.05661
 C404 C 0.31698 0.01370 0.04510
 C405 C 0.27965 0.01317 0.05575
 C406 C 0.25568 -0.02808 0.12274
 C407 C 0.29312 -0.02729 0.11202
 C408 C 0.21257 0.02608 0.05538
 C409 C 0.24959 0.02620 0.04458
 H410 H 0.25037 -0.03874 0.13993
 H411 H 0.31558 -0.03743 0.12125
 H412 H 0.19044 0.03673 0.04621
 H413 H 0.25490 0.03685 0.02738
 H414 H 0.14547 0.02422 0.07983
 H415 H 0.18342 -0.02451 0.13963
 H416 H 0.36248 -0.02171 0.08815
 H417 H 0.32216 0.02338 0.02779
 C418 C 0.78368 0.79384 0.42814
 C419 C 0.77699 0.80248 0.44966
 C420 C 0.81350 0.84113 0.46077
 C421 C 0.85775 0.87139 0.45085
 C422 C 0.86275 0.86163 0.42883
 C423 C 0.82615 0.82334 0.41755
 C424 C 0.74549 0.75291 0.41649
 C425 C 0.75221 0.74430 0.39490
 C426 C 0.71573 0.70550 0.38386
 C427 C 0.67280 0.67517 0.39432
 C428 C 0.66693 0.68422 0.41608
 C429 C 0.70303 0.72317 0.42718
 C430 C 0.83162 0.81354 0.39592
 C431 C 0.79524 0.77480 0.38477
 C432 C 0.73378 0.77213 0.45976
 C433 C 0.69751 0.73306 0.44875
 H434 H 0.86433 0.83603 0.38752
 H435 H 0.80092 0.76860 0.36811
 H436 H 0.72805 0.77842 0.47640
 H437 H 0.66488 0.71046 0.45718
 H438 H 0.80586 0.84786 0.47689
 H439 H 0.89577 0.88150 0.42045
 H440 H 0.72045 0.69944 0.36701
 H441 H 0.63440 0.66083 0.42444
 C442 C -0.02397 0.20604 0.75971
 C443 C 0.01828 0.21404 0.77010
 C444 C 0.01962 0.17634 0.78110
 C445 C -0.02064 0.13086 0.78131
 C446 C -0.06251 0.12329 0.77058
 C447 C -0.06453 0.16090 0.75993
 C448 C -0.02587 0.24571 0.74848
 C449 C -0.06837 0.23794 0.73854
 C450 C -0.07010 0.27590 0.72806
 C451 C -0.02944 0.32127 0.72708
 C452 C 0.01302 0.32811 0.73701
 C453 C 0.01486 0.29063 0.74792
 C454 C -0.10635 0.15442 0.74967
 C455 C -0.10830 0.19234 0.73925
 C456 C 0.05826 0.25958 0.76927
 C457 C 0.05665 0.29716 0.75826
 H458 H -0.13790 0.11979 0.74979
 H459 H -0.14130 0.18586 0.73162
 H460 H 0.09110 0.26621 0.77716
 H461 H 0.08833 0.33170 0.75795
 H462 H 0.05190 0.18213 0.78932
 H463 H -0.09371 0.08836 0.77097
 H464 H -0.10322 0.27009 0.72087
 H465 H 0.04488 0.36240 0.73604
 C466 C 0.78744 0.03480 0.08742
 C467 C 0.80845 0.01002 0.07986
 C468 C 0.84842 0.01413 0.09102
 C469 C 0.86786 0.04323 0.10950
 C470 C 0.84684 0.06873 0.11647
 C471 C 0.80636 0.06422 0.10565
 C472 C 0.74438 0.02924 0.07622
 C473 C 0.72267 0.05305 0.08413
 C474 C 0.68120 0.04688 0.07371
 C475 C 0.66170 0.01765 0.05529
 C476 C 0.68443 -0.00550 0.04746
 C477 C 0.72551 -0.00015 0.05798
 C478 C 0.78399 0.08800 0.11290
 C479 C 0.74274 0.08234 0.10238
 C480 C 0.78861 -0.01897 0.06150
 C481 C 0.74798 -0.02378 0.05067
 H482 H 0.79821 0.11080 0.12696
 H483 H 0.72638 0.10101 0.10861
 H484 H 0.80455 -0.03821 0.05548
 H485 H 0.73379 -0.04653 0.03660
 H486 H 0.86344 -0.00647 0.08566
 H487 H 0.86171 0.09183 0.13040
 H488 H 0.66380 0.06433 0.08016
 H489 H 0.67046 -0.02736 0.03308
 C490 C 0.26406 0.23983 0.42395
 C491 C 0.21976 0.21348 0.41348
 C492 C 0.18343 0.17488 0.42471
 C493 C 0.19118 0.16258 0.44624
 C494 C 0.23616 0.18869 0.45630
 C495 C 0.27267 0.22762 0.44527
 C496 C 0.30186 0.28158 0.41255
 C497 C 0.34582 0.30858 0.42321
 C498 C 0.38136 0.34875 0.41245
 C499 C 0.37327 0.36189 0.39113
 C500 C 0.32898 0.33408 0.38064
 C501 C 0.29310 0.29403 0.39131
 C502 C 0.31730 0.25522 0.45531
 C503 C 0.35323 0.29505 0.44447
 C504 C 0.21246 0.22677 0.39215
 C505 C 0.24856 0.26630 0.38123
 H506 H 0.32438 0.24620 0.47176
 H507 H 0.38703 0.31556 0.45286
 H508 H 0.17846 0.20664 0.38387
 H509 H 0.24139 0.27548 0.36483
 H510 H 0.14897 0.15467 0.41683
 H511 H 0.24219 0.17979 0.47296
 H512 H 0.41502 0.37018 0.42081
 H513 H 0.32257 0.34335 0.36412
 C514 C -0.06253 0.72507 0.75499
 C515 C -0.08166 0.71565 0.77605
 C516 C -0.08329 0.75165 0.78705
 C517 C -0.06552 0.79689 0.77718
 C518 C -0.04770 0.80521 0.75577
 C519 C -0.04587 0.76953 0.74466
 C520 C -0.05866 0.68811 0.74378
 C521 C -0.03840 0.69799 0.72296
 C522 C -0.03345 0.66326 0.71267
 C523 C -0.04848 0.61894 0.72308
 C524 C -0.06936 0.60940 0.74383
 C525 C -0.07436 0.64397 0.75430
 C526 C -0.02667 0.77777 0.72363
 C527 C -0.02299 0.74260 0.71297
 C528 C -0.09759 0.67083 0.78592
 C529 C -0.09403 0.63558 0.77523
 H530 H -0.01381 0.81191 0.71547
 H531 H -0.00749 0.75057 0.69687
 H532 H -0.11246 0.66308 0.80216
 H533 H -0.10634 0.60165 0.78351
 H534 H -0.09652 0.74506 0.80360
 H535 H -0.03450 0.83973 0.74794
 H536 H -0.01800 0.67062 0.69656
 H537 H -0.08063 0.57555 0.75203
   
