data_POSCAR
  _audit_creation_date              2014-09-24
  _audit_creation_method            'ToBaCCo'
  _symmetry_space_group_name_H-M    'P1'
  _symmetry_Int_Tables_number       1
  _symmetry_cell_setting            triclinic
  loop_
  _symmetry_equiv_pos_as_xyz
 x,y,z
_cell_length_a 38.3223
_cell_length_b 37.9737
_cell_length_c 38.1892
_cell_angle_alpha 89.913700
_cell_angle_beta 90.056500
_cell_angle_gamma 90.003300
loop_
  _atom_site_label
  _atom_site_type_symbol
  _atom_site_fract_x
  _atom_site_fract_y
  _atom_site_fract_z
C1 C 0.25131 0.38350 -0.00141
 C2 C 0.26574 0.37392 0.03077
 C3 C 0.29669 0.35447 0.03158
 C4 C 0.31505 0.34631 0.00041
 C5 C 0.30084 0.35833 -0.03169
 C6 C 0.26804 0.37503 -0.03298
 C7 C 0.34835 0.32508 0.00143
 C8 C 0.36148 0.30789 -0.02887
 C9 C 0.39239 0.28766 -0.02772
 C10 C 0.40872 0.28288 0.00490
 C11 C 0.39539 0.29797 0.03525
 C12 C 0.36645 0.32007 0.03332
 H13 H 0.22744 0.39885 -0.00175
 H14 H 0.30554 0.34579 0.05696
 H15 H 0.31436 0.35379 -0.05605
 H16 H 0.34691 0.30824 -0.05308
 H17 H 0.43188 0.26679 0.00696
 H18 H 0.35836 0.33252 0.05733
 C19 C 0.74015 0.61000 0.01718
 C20 C 0.72272 0.61768 0.04829
 C21 C 0.69234 0.63831 0.04743
 C22 C 0.68049 0.65372 0.01561
 C23 C 0.69960 0.64623 -0.01523
 C24 C 0.72875 0.62411 -0.01451
 C25 C 0.64979 0.67870 0.01460
 C26 C 0.63402 0.68871 -0.01763
 C27 C 0.60855 0.71533 -0.01901
 C28 C 0.59699 0.73050 0.01221
 C29 C 0.60997 0.71924 0.04441
 C30 C 0.63677 0.69423 0.04566
 H31 H 0.76304 0.59321 0.01771
 H32 H 0.67886 0.64234 0.07188
 H33 H 0.69303 0.65789 -0.04013
 H34 H 0.64182 0.67704 -0.04213
 H35 H 0.57694 0.75068 0.01156
 H36 H 0.64731 0.68791 0.07109
 C37 C 0.74920 0.38788 1.00783
 C38 C 0.73393 0.37968 0.97575
 C39 C 0.70637 0.35548 0.97446
 C40 C 0.69536 0.33731 1.00505
 C41 C 0.71167 0.34590 1.03714
 C42 C 0.73796 0.37147 1.03851
 C43 C 0.66778 0.30917 1.00337
 C44 C 0.64820 0.29924 1.03349
 C45 C 0.62178 0.27345 1.03130
 C46 C 0.61664 0.25636 0.99917
 C47 C 0.63376 0.26722 0.96908
 C48 C 0.65990 0.29261 0.97115
 H49 H 0.77003 0.40720 1.00892
 H50 H 0.69416 0.35108 0.94936
 H51 H 0.70482 0.33256 1.06118
 H52 H 0.65157 0.31302 1.05799
 H53 H 0.59757 0.23537 0.99687
 H54 H 0.67348 0.29917 0.94726
 C55 C 0.25639 0.60850 0.98905
 C56 C 0.27214 0.62090 0.95861
 C57 C 0.29607 0.64873 0.96042
 C58 C 0.30327 0.66590 0.99270
 C59 C 0.28616 0.65310 1.02302
 C60 C 0.26380 0.62398 1.02123
 C61 C 0.32861 0.69635 0.99472
 C62 C 0.34280 0.70799 1.02714
 C63 C 0.36614 0.73668 1.02872
 C64 C 0.37571 0.75348 0.99750
 C65 C 0.36331 0.74169 0.96529
 C66 C 0.33935 0.71404 0.96395
 H67 H 0.23893 0.58605 0.98781
 H68 H 0.30910 0.65588 0.93643
 H69 H 0.29002 0.66491 1.04840
 H70 H 0.33597 0.69535 1.05149
 H71 H 0.39464 0.77474 0.99800
 H72 H 0.32943 0.70706 0.93846
 C73 C 0.00810 0.25286 0.39814
 C74 C 0.03960 0.26391 0.38345
 C75 C 0.03961 0.28971 0.35711
 C76 C 0.00810 0.30622 0.34648
 C77 C -0.02305 0.29581 0.36347
 C78 C -0.02330 0.26829 0.38782
 C79 C 0.00735 0.33379 0.31801
 C80 C -0.02458 0.34405 0.30216
 C81 C -0.02588 0.37106 0.27709
 C82 C 0.00533 0.38549 0.26483
 C83 C 0.03715 0.37566 0.27950
 C84 C 0.03825 0.35062 0.30644
 H85 H 0.00807 0.23224 0.41782
 H86 H 0.06432 0.29612 0.34518
 H87 H -0.04766 0.30859 0.35837
 H88 H -0.04896 0.33145 0.30864
 H89 H 0.00482 0.40607 0.24508
 H90 H 0.06328 0.34523 0.31826
 C91 C 0.00295 0.74389 0.60805
 C92 C 0.03443 0.73211 0.62212
 C93 C 0.03445 0.70501 0.64696
 C94 C 0.00305 0.68806 0.65697
 C95 C -0.02848 0.69986 0.64141
 C96 C -0.02853 0.72837 0.61799
 C97 C 0.00334 0.65887 0.68376
 C98 C -0.02725 0.64936 0.70234
 C99 C -0.02705 0.62190 0.72727
 C100 C 0.00503 0.60617 0.73583
 C101 C 0.03562 0.61555 0.71844
 C102 C 0.03458 0.64073 0.69178
 H103 H 0.00292 0.76543 0.58936
 H104 H 0.05921 0.69818 0.65861
 H105 H -0.05318 0.68754 0.64735
 H106 H -0.05124 0.66384 0.69864
 H107 H 0.00626 0.58556 0.75549
 H108 H 0.05853 0.64578 0.67779
 C109 C 1.00458 0.74837 0.38406
 C110 C 0.97283 0.73476 0.37249
 C111 C 0.97246 0.70435 0.35195
 C112 C 1.00366 0.68594 0.34430
 C113 C 1.03527 0.69891 0.35858
 C114 C 1.03609 0.73121 0.37662
 C115 C 1.00319 0.65528 0.31941
 C116 C 1.03311 0.64615 0.29962
 C117 C 1.03092 0.62184 0.27192
 C118 C 0.99872 0.60597 0.26448
 C119 C 0.96933 0.61338 0.28467
 C120 C 0.97178 0.63701 0.31258
 H121 H 1.00463 0.77200 0.40000
 H122 H 0.94759 0.69609 0.34150
 H123 H 1.05957 0.68512 0.35435
 H124 H 1.05764 0.65961 0.30356
 H125 H 0.99654 0.58728 0.24313
 H126 H 0.94865 0.64141 0.32812
 C127 C 0.97918 0.25649 0.61356
 C128 C 0.94955 0.27501 0.62379
 C129 C 0.95245 0.30244 0.64809
 C130 C 0.98500 0.31085 0.66382
 C131 C 1.01455 0.29114 0.65306
 C132 C 1.01167 0.26464 0.62774
 C133 C 0.98799 0.33994 0.69072
 C134 C 1.02093 0.35330 0.70155
 C135 C 1.02365 0.38059 0.72641
 C136 C 0.99292 0.39489 0.74025
 C137 C 0.96034 0.38258 0.72993
 C138 C 0.95779 0.35487 0.70609
 H139 H 0.97700 0.23580 0.59411
 H140 H 0.92897 0.31698 0.65369
 H141 H 1.04008 0.29537 0.66411
 H142 H 1.04490 0.34231 0.69178
 H143 H 0.99420 0.41660 0.75867
 H144 H 0.93189 0.34553 0.70022
 C145 C 0.38052 0.02203 0.25541
 C146 C 0.36830 0.05169 0.27326
 C147 C 0.34791 0.04753 0.30336
 C148 C 0.34106 0.01367 0.31722
 C149 C 0.35629 -0.01570 0.30017
 C150 C 0.37419 -0.01201 0.26817
 C151 C 0.31762 0.00872 0.34858
 C152 C 0.30205 -0.02442 0.35548
 C153 C 0.28110 -0.02964 0.38501
 C154 C 0.27321 -0.00122 0.40669
 C155 C 0.28666 0.03221 0.39978
 C156 C 0.30940 0.03703 0.37137
 H157 H 0.39617 0.02562 0.23203
 H158 H 0.33729 0.07103 0.31510
 H159 H 0.35330 -0.04189 0.31075
 H160 H 0.30537 -0.04651 0.33804
 H161 H 0.25573 -0.00500 0.42871
 H162 H 0.32030 0.06296 0.36763
 C163 C 0.60997 -0.00367 0.74268
 C164 C 0.62401 0.02831 0.73149
 C165 C 0.64713 0.02895 0.70325
 C166 C 0.65597 -0.00231 0.68524
 C167 C 0.64131 -0.03445 0.69722
 C168 C 0.61863 -0.03548 0.72622
 C169 C 0.68074 -0.00139 0.65467
 C170 C 0.69864 -0.03206 0.64376
 C171 C 0.72055 -0.03156 0.61439
 C172 C 0.72745 0.00041 0.59758
 C173 C 0.71177 0.03147 0.60905
 C174 C 0.68738 0.03034 0.63630
 H175 H 0.59176 -0.00363 0.76442
 H176 H 0.65863 0.05399 0.69646
 H177 H 0.64810 -0.05906 0.68494
 H178 H 0.69624 -0.05664 0.65779
 H179 H 0.74583 0.00129 0.57602
 H180 H 0.67445 0.05465 0.64306
 C181 C 0.39789 1.00341 0.74060
 C182 C 0.38401 0.97083 0.73131
 C183 C 0.35493 0.96914 0.70927
 C184 C 0.34058 1.00005 0.69445
 C185 C 0.35563 1.03285 0.70361
 C186 C 0.38362 1.03442 0.72723
 C187 C 0.30997 0.99779 0.67008
 C188 C 0.28696 1.02659 0.66576
 C189 C 0.25727 1.02396 0.64421
 C190 C 0.25074 0.99207 0.62691
 C191 C 0.27332 0.96357 0.63029
 C192 C 0.30309 0.96650 0.65124
 H193 H 0.42012 1.00464 0.75817
 H194 H 0.34377 0.94352 0.70414
 H195 H 0.34624 1.05724 0.69241
 H196 H 0.29097 1.05074 0.68016
 H197 H 0.22889 0.98977 0.60897
 H198 H 0.32084 0.94439 0.65209
 C199 C 0.60217 0.99884 0.25970
 C200 C 0.62132 0.96844 0.26619
 C201 C 0.65054 0.96970 0.28796
 C202 C 0.66029 1.00145 0.30464
 C203 C 0.64001 1.03205 0.29804
 C204 C 0.61051 1.03084 0.27596
 C205 C 0.69079 1.00223 0.32940
 C206 C 0.70840 1.03408 0.33698
 C207 C 0.73615 1.03478 0.36092
 C208 C 0.74736 1.00354 0.37664
 C209 C 0.73057 0.97177 0.36961
 C210 C 0.70216 0.97114 0.34651
 H211 H 0.58061 0.99740 0.24133
 H212 H 0.66557 0.94584 0.29121
 H213 H 0.64566 1.05643 0.31145
 H214 H 0.70093 1.05854 0.32456
 H215 H 0.76848 1.00417 0.39557
 H216 H 0.68869 0.94639 0.34299
 O217 O 0.82512 0.87417 0.53155
 O218 O 0.87526 0.83158 0.46199
 O219 O 0.82497 0.87735 0.46437
 O220 O 0.87490 0.82794 0.52995
 O221 O 0.83681 0.78436 0.52769
 O222 O 0.78559 0.83489 0.46256
 O223 O 0.83658 0.78861 0.45937
 O224 O 0.78658 0.83143 0.53024
 Cu225 Cu 0.85407 0.85688 0.49715
 Cu226 Cu 0.80758 0.80536 0.49473
 C227 C 0.79679 0.86072 0.54248
 C228 C 0.86455 0.80300 0.44863
 C229 C 0.79630 0.86511 0.45306
 C230 C 0.86448 0.79790 0.54013
 O231 O 0.12645 0.16273 0.47462
 O232 O 0.16024 0.11334 0.54939
 O233 O 0.11335 0.16200 0.54141
 O234 O 0.17648 0.11704 0.48414
 O235 O 0.21523 0.15874 0.49500
 O236 O 0.15127 0.20471 0.55087
 O237 O 0.19755 0.15580 0.56110
 O238 O 0.16453 0.20528 0.48403
 Cu239 Cu 0.14030 0.13473 0.51122
 Cu240 Cu 0.18612 0.18537 0.52348
 C241 C 0.13930 0.19239 0.46654
 C242 C 0.18425 0.12593 0.56843
 C243 C 0.12162 0.19082 0.55622
 C244 C 0.20691 0.12979 0.48065
 O245 O 0.18320 0.87160 0.46481
 O246 O 0.13391 0.82795 0.53412
 O247 O 0.18538 0.87214 0.53213
 O248 O 0.13304 0.82622 0.46635
 O249 O 0.17055 0.78216 0.46547
 O250 O 0.22396 0.82885 0.53158
 O251 O 0.17138 0.78384 0.53422
 O252 O 0.22108 0.82818 0.46360
 Cu253 Cu 0.15502 0.85370 0.49944
 Cu254 Cu 0.20049 0.80117 0.49886
 C255 C 0.21081 0.85795 0.45246
 C256 C 0.14407 0.79859 0.54617
 C257 C 0.21390 0.85876 0.54250
 C258 C 0.14295 0.79681 0.45413
 O259 O 0.85645 0.18121 0.53561
 O260 O 0.82113 0.13053 0.46218
 O261 O 0.86857 0.17805 0.47048
 O262 O 0.81041 0.13086 0.52971
 O263 O 0.76872 0.17014 0.52105
 O264 O 0.82847 0.21923 0.46240
 O265 O 0.78058 0.17093 0.45363
 O266 O 0.81529 0.22128 0.52853
 Cu267 Cu 0.84286 0.15079 0.50048
 Cu268 Cu 0.79389 0.19933 0.49073
 C269 C 0.84306 0.21076 0.54337
 C270 C 0.79528 0.14230 0.44494
 C271 C 0.85893 0.20702 0.45719
 C272 C 0.77980 0.14203 0.53535
 O273 O 0.47687 0.87319 0.82549
 O274 O 0.53444 0.81732 0.87786
 O275 O 0.54308 0.86445 0.82772
 O276 O 0.46805 0.82737 0.87383
 O277 O 0.46493 0.78425 0.83524
 O278 O 0.53854 0.82418 0.78680
 O279 O 0.53282 0.77600 0.83761
 O280 O 0.47151 0.83096 0.78616
 Cu281 Cu 0.50648 0.84958 0.85532
 Cu282 Cu 0.50204 0.79937 0.80755
 C283 C 0.46429 0.86177 0.79695
 C284 C 0.54272 0.78670 0.86751
 C285 C 0.55246 0.85221 0.79825
 C286 C 0.45335 0.79982 0.86229
 O287 O 0.52668 0.17886 0.12982
 O288 O 0.45299 0.14617 0.17992
 O289 O 0.46322 0.19494 0.13765
 O290 O 0.52035 0.13307 0.18433
 O291 O 0.53233 0.17400 0.22344
 O292 O 0.47269 0.23546 0.17802
 O293 O 0.46385 0.18379 0.22262
 O294 O 0.53663 0.22036 0.16896
 Cu295 Cu 0.49120 0.15867 0.15481
 Cu296 Cu 0.50303 0.20685 0.20275
 C297 C 0.54148 0.20733 0.13856
 C298 C 0.44535 0.15916 0.20943
 C299 C 0.45903 0.22604 0.14924
 C300 C 0.53492 0.14255 0.21266
 O301 O 0.53656 0.12553 0.83107
 O302 O 0.47028 0.17697 0.87585
 O303 O 0.47042 0.13066 0.82471
 O304 O 0.53866 0.17722 0.87427
 O305 O 0.54059 0.21880 0.83372
 O306 O 0.47278 0.17195 0.78406
 O307 O 0.47322 0.21892 0.83644
 O308 O 0.54094 0.16621 0.79005
 Cu309 Cu 0.50326 0.14889 0.85566
 Cu310 Cu 0.50670 0.19788 0.80677
 C311 C 0.55063 0.13691 0.80335
 C312 C 0.46070 0.20701 0.86500
 C313 C 0.46124 0.14266 0.79502
 C314 C 0.55139 0.20575 0.86226
 O315 O 0.45634 0.83002 0.12407
 O316 O 0.52599 0.87753 0.16922
 O317 O 0.52312 0.82357 0.12904
 O318 O 0.45891 0.88367 0.16786
 O319 O 0.45359 0.84819 0.21322
 O320 O 0.51651 0.78642 0.17321
 O321 O 0.52210 0.84093 0.21392
 O322 O 0.44970 0.79433 0.16912
 Cu323 Cu 0.49124 0.85735 0.14309
 Cu324 Cu 0.48459 0.81415 0.19716
 C325 C 0.44206 0.80327 0.13794
 C326 C 0.53686 0.86680 0.19869
 C327 C 0.53054 0.79479 0.14428
 C328 C 0.44548 0.87651 0.19741
 O329 O 0.87583 0.54441 0.83399
 O330 O 0.82932 0.47502 0.88160
 O331 O 0.87423 0.47678 0.83084
 O332 O 0.83042 0.54321 0.88452
 O333 O 0.78774 0.54674 0.84585
 O334 O 0.83107 0.47875 0.79247
 O335 O 0.78561 0.47803 0.84400
 O336 O 0.83396 0.54663 0.79485
 Cu337 Cu 0.85660 0.50963 0.86169
 Cu338 Cu 0.80513 0.51288 0.81553
 C339 C 0.86363 0.55686 0.80560
 C340 C 0.79965 0.46462 0.87109
 C341 C 0.86061 0.46707 0.80214
 C342 C 0.80170 0.55640 0.87445
 O343 O 0.16727 0.46282 0.12575
 O344 O 0.12139 0.53489 0.16882
 O345 O 0.16899 0.53043 0.12016
 O346 O 0.12337 0.46742 0.17705
 O347 O 0.16552 0.47198 0.21632
 O348 O 0.21114 0.53493 0.15934
 O349 O 0.16334 0.54017 0.20796
 O350 O 0.21017 0.46655 0.16416
 Cu351 Cu 0.14101 0.49857 0.14414
 Cu352 Cu 0.19180 0.50378 0.19091
 C353 C 0.19649 0.45231 0.13724
 C354 C 0.13406 0.55001 0.19551
 C355 C 0.19837 0.54267 0.12967
 C356 C 0.13641 0.45947 0.20659
 O357 O 0.87588 0.46406 0.18806
 O358 O 0.82452 0.53057 0.14176
 O359 O 0.87052 0.53082 0.19205
 O360 O 0.82956 0.46232 0.13892
 O361 O 0.78672 0.45738 0.17722
 O362 O 0.82988 0.52419 0.23260
 O363 O 0.78270 0.52622 0.18122
 O364 O 0.83351 0.45662 0.22634
 Cu365 Cu 0.85405 0.49765 0.16106
 Cu366 Cu 0.80368 0.49088 0.20819
 C367 C 0.86400 0.44940 0.21546
 C368 C 0.79504 0.54000 0.15349
 C369 C 0.85817 0.53795 0.22199
 C370 C 0.80150 0.44781 0.14905
 O371 O 0.18147 0.53013 0.86200
 O372 O 0.12971 0.46264 0.81757
 O373 O 0.17636 0.46251 0.86632
 O374 O 0.13344 0.52976 0.81331
 O375 O 0.17403 0.52471 0.77268
 O376 O 0.21745 0.45600 0.82640
 O377 O 0.16997 0.45678 0.77712
 O378 O 0.22299 0.52450 0.82235
 Cu379 Cu 0.15132 0.49702 0.84385
 Cu380 Cu 0.20042 0.49024 0.79562
 C381 C 0.21149 0.53805 0.85048
 C382 C 0.14035 0.44841 0.78943
 C383 C 0.20378 0.44736 0.85551
 C384 C 0.14537 0.53769 0.78337
 C385 C 0.21441 0.37816 0.07254
 C386 C 0.24925 0.38666 0.06354
 C387 C 0.26758 0.41122 0.08383
 C388 C 0.25087 0.43001 0.11031
 C389 C 0.21531 0.42486 0.11714
 C390 C 0.19739 0.39715 0.09978
 C391 C 0.19614 0.35118 0.05498
 C392 C 0.16188 0.34297 0.06411
 C393 C 0.14537 0.36111 0.09107
 C394 C 0.16290 0.38783 0.10891
 H395 H 0.20837 0.33586 0.03453
 H396 H 0.14820 0.32214 0.05047
 H397 H 0.11895 0.35426 0.09838
 H398 H 0.14945 0.40050 0.13036
 H399 H 0.29437 0.41774 0.07747
 H400 H 0.26519 0.45062 0.12359
 C401 C 0.77179 0.61592 0.09223
 C402 C 0.73815 0.60476 0.08151
 C403 C 0.72193 0.57687 0.09912
 C404 C 0.73983 0.55792 0.12485
 C405 C 0.77457 0.56607 0.13321
 C406 C 0.79030 0.59629 0.11802
 C407 C 0.78765 0.64595 0.07725
 C408 C 0.82108 0.65629 0.08732
 C409 C 0.83927 0.63707 0.11244
 C410 C 0.82416 0.60738 0.12769
 H411 H 0.77417 0.66189 0.05801
 H412 H 0.83288 0.67940 0.07566
 H413 H 0.86517 0.64529 0.12029
 H414 H 0.83915 0.59353 0.14729
 H415 H 0.69621 0.56812 0.09116
 H416 H 0.72742 0.53498 0.13625
 C417 C 0.78215 0.38646 0.93135
 C418 C 0.74853 0.39579 0.94364
 C419 C 0.73066 0.42385 0.92798
 C420 C 0.74672 0.44444 0.90233
 C421 C 0.78110 0.43756 0.89184
 C422 C 0.79848 0.40734 0.90507
 C423 C 0.80003 0.35692 0.94494
 C424 C 0.83310 0.34798 0.93264
 C425 C 0.84885 0.36804 0.90654
 C426 C 0.83178 0.39738 0.89274
 H427 H 0.78845 0.34030 0.96483
 H428 H 0.84645 0.32520 0.94322
 H429 H 0.87436 0.36074 0.89680
 H430 H 0.84464 0.41176 0.87198
 H431 H 0.70494 0.43118 0.93720
 H432 H 0.73307 0.46736 0.89238
 C433 C 0.28006 0.57206 0.91450
 C434 C 0.26336 0.60350 0.92515
 C435 C 0.23341 0.61494 0.90753
 C436 C 0.21847 0.59451 0.88124
 C437 C 0.23321 0.56221 0.87155
 C438 C 0.26496 0.55119 0.88740
 C439 C 0.31066 0.56016 0.93135
 C440 C 0.32611 0.52837 0.92177
 C441 C 0.31132 0.50783 0.89551
 C442 C 0.28102 0.51895 0.87851
 H443 H 0.32283 0.57533 0.95201
 H444 H 0.34958 0.51955 0.93491
 H445 H 0.32332 0.48306 0.88836
 H446 H 0.27045 0.50199 0.85849
 H447 H 0.22016 0.63870 0.91584
 H448 H 0.19404 0.60305 0.86970
 C449 C 0.08287 0.21393 0.38743
 C450 C 0.07230 0.24830 0.39692
 C451 C 0.08937 0.26563 0.42436
 C452 C 0.11420 0.24813 0.44468
 C453 C 0.12244 0.21279 0.43811
 C454 C 0.10851 0.19618 0.40789
 C455 C 0.06786 0.19656 0.35847
 C456 C 0.07852 0.16268 0.34937
 C457 C 0.10420 0.14559 0.36884
 C458 C 0.11915 0.16207 0.39783
 H459 H 0.04816 0.20921 0.34248
 H460 H 0.06699 0.14971 0.32695
 H461 H 0.11263 0.11944 0.36141
 H462 H 0.13948 0.14816 0.41186
 H463 H 0.08140 0.29192 0.43189
 H464 H 0.12460 0.26131 0.46757
 C465 C 0.07595 0.78361 0.61722
 C466 C 0.06734 0.74816 0.60983
 C467 C 0.08819 0.72874 0.58678
 C468 C 0.11527 0.74487 0.56847
 C469 C 0.12225 0.78083 0.57282
 C470 C 0.10400 0.79997 0.59898
 C471 C 0.05709 0.80318 0.64225
 C472 C 0.06608 0.83797 0.64959
 C473 C 0.09404 0.85376 0.63241
 C474 C 0.11297 0.83502 0.60743
 H475 H 0.03562 0.79161 0.65664
 H476 H 0.05151 0.85264 0.66897
 H477 H 0.10123 0.88061 0.63860
 H478 H 0.13505 0.84801 0.59542
 H479 H 0.08190 0.70152 0.58110
 H480 H 0.12907 0.72977 0.54881
 C481 C 0.93252 0.78745 0.37741
 C482 C 0.94002 0.75157 0.38423
 C483 C 0.91841 0.73241 0.40685
 C484 C 0.89193 0.74908 0.42545
 C485 C 0.88634 0.78538 0.42195
 C486 C 0.90528 0.80449 0.39624
 C487 C 0.95160 0.80674 0.35228
 C488 C 0.94397 0.84205 0.34579
 C489 C 0.91704 0.85862 0.36382
 C490 C 0.89769 0.84010 0.38869
 H491 H 0.97209 0.79453 0.33708
 H492 H 0.95876 0.85651 0.32638
 H493 H 0.91091 0.88590 0.35830
 H494 H 0.87634 0.85372 0.40129
 H495 H 0.92375 0.70489 0.41214
 H496 H 0.87751 0.73399 0.44471
 C497 C 0.90150 0.28341 0.57914
 C498 C 0.91570 0.26508 0.60812
 C499 C 0.90115 0.23293 0.61843
 C500 C 0.87479 0.21731 0.59884
 C501 C 0.86206 0.23342 0.56838
 C502 C 0.87429 0.26758 0.55904
 C503 C 0.91515 0.31628 0.56857
 C504 C 0.90216 0.33343 0.53904
 C505 C 0.87570 0.31811 0.51934
 C506 C 0.86194 0.28552 0.52900
 H507 H 0.93597 0.32896 0.58295
 H508 H 0.91285 0.35864 0.53127
 H509 H 0.86592 0.33143 0.49625
 H510 H 0.84182 0.27482 0.51242
 H511 H 0.91204 0.21859 0.64043
 H512 H 0.86596 0.19120 0.60616
 C513 C 0.36874 0.09941 0.22714
 C514 C 0.37876 0.08701 0.26059
 C515 C 0.40412 0.10545 0.27966
 C516 C 0.42286 0.13286 0.26415
 C517 C 0.41661 0.14236 0.22922
 C518 C 0.38747 0.12767 0.21153
 C519 C 0.34100 0.08368 0.20855
 C520 C 0.33162 0.09595 0.17541
 C521 C 0.34954 0.12404 0.16033
 C522 C 0.37720 0.13986 0.17814
 H523 H 0.32614 0.06217 0.21969
 H524 H 0.31019 0.08377 0.16147
 H525 H 0.34193 0.13368 0.13475
 H526 H 0.39013 0.16200 0.16585
 H527 H 0.41191 0.09628 0.30538
 H528 H 0.44492 0.14381 0.27816
 C529 C 0.61824 0.06479 0.78638
 C530 C 0.61358 0.06099 0.74982
 C531 C 0.59417 0.08614 0.73137
 C532 C 0.57641 0.11273 0.74907
 C533 C 0.57701 0.11448 0.78576
 C534 C 0.59959 0.09144 0.80469
 C535 C 0.64091 0.04224 0.80510
 C536 C 0.64488 0.04553 0.84119
 C537 C 0.62652 0.07128 0.85926
 C538 C 0.60416 0.09402 0.84137
 H539 H 0.65610 0.02223 0.79191
 H540 H 0.66240 0.02811 0.85517
 H541 H 0.62983 0.07387 0.88729
 H542 H 0.59117 0.11380 0.85678
 H543 H 0.59071 0.08371 0.70331
 H544 H 0.55991 0.13034 0.73410
 C545 C 0.42440 0.91872 0.72419
 C546 C 0.40081 0.93861 0.74474
 C547 C 0.39661 0.93076 0.78019
 C548 C 0.41634 0.90451 0.79592
 C549 C 0.44100 0.88525 0.77677
 C550 C 0.44494 0.89186 0.74032
 C551 C 0.42907 0.92605 0.68824
 C552 C 0.45326 0.90727 0.66850
 C553 C 0.47360 0.88136 0.68420
 C554 C 0.46991 0.87389 0.71977
 H555 H 0.41416 0.94633 0.67509
 H556 H 0.45646 0.91306 0.64092
 H557 H 0.49248 0.86708 0.66870
 H558 H 0.48704 0.85420 0.73068
 H559 H 0.37887 0.94610 0.79615
 H560 H 0.41315 0.90005 0.82375
 C561 C 0.61412 0.92860 0.21422
 C562 C 0.60897 0.93542 0.25018
 C563 C 0.58511 0.91516 0.26921
 C564 C 0.56389 0.89068 0.25240
 C565 C 0.56574 0.88608 0.21602
 C566 C 0.59257 0.90353 0.19688
 C567 C 0.63979 0.94694 0.19502
 C568 C 0.64477 0.94017 0.15953
 C569 C 0.62428 0.91519 0.14259
 C570 C 0.59842 0.89706 0.16091
 H571 H 0.65650 0.96624 0.20745
 H572 H 0.66475 0.95419 0.14515
 H573 H 0.62848 0.90976 0.11510
 H574 H 0.58370 0.87762 0.14657
 H575 H 0.58083 0.92043 0.29676
 H576 H 0.54393 0.87742 0.26756
 C577 C 0.40974 0.28389 0.90851
 C578 C 0.40534 0.26905 0.94266
 C579 C 0.41503 0.23377 0.94776
 C580 C 0.43040 0.21414 0.92151
 C581 C 0.43697 0.22828 0.88817
 C582 C 0.42422 0.26285 0.88074
 C583 C 0.40247 0.31977 0.90164
 C584 C 0.40547 0.33356 0.86798
 C585 C 0.41617 0.31224 0.84050
 C586 C 0.42558 0.27734 0.84667
 H587 H 0.39503 0.33783 0.92210
 H588 H 0.39925 0.36095 0.86315
 H589 H 0.41759 0.32293 0.81424
 H590 H 0.43283 0.26198 0.82414
 H591 H 0.41081 0.22084 0.97273
 H592 H 0.43836 0.18762 0.92825
 C593 C 0.57583 0.70934 0.92477
 C594 C 0.59616 0.72909 0.94900
 C595 C 0.60106 0.76515 0.94312
 C596 C 0.58575 0.78205 0.91488
 C597 C 0.56363 0.76413 0.89171
 C598 C 0.55898 0.72703 0.89609
 C599 C 0.56946 0.67304 0.92999
 C600 C 0.54787 0.65429 0.90740
 C601 C 0.53148 0.67129 0.87970
 C602 C 0.53656 0.70721 0.87421
 H603 H 0.58053 0.65881 0.95185
 H604 H 0.54337 0.62648 0.91176
 H605 H 0.51431 0.65662 0.86256
 H606 H 0.52223 0.71870 0.85284
 H607 H 0.61664 0.78071 0.96108
 H608 H 0.59005 0.81013 0.91211
 C609 C 0.40065 0.72856 0.08395
 C610 C 0.38020 0.74946 0.06056
 C611 C 0.37741 0.78578 0.06688
 C612 C 0.39527 0.80182 0.09412
 C613 C 0.41720 0.78252 0.11627
 C614 C 0.41911 0.74523 0.11218
 C615 C 0.40605 0.69216 0.07813
 C616 C 0.42722 0.67233 0.10029
 C617 C 0.44430 0.68828 0.12813
 C618 C 0.44072 0.72430 0.13387
 H619 H 0.39485 0.67854 0.05607
 H620 H 0.43082 0.64448 0.09550
 H621 H 0.46101 0.67276 0.14502
 H622 H 0.45550 0.73512 0.15528
 H623 H 0.36186 0.80231 0.04972
 H624 H 0.39334 0.83017 0.09677
 C625 C 0.56375 0.25685 0.05414
 C626 C 0.59964 0.26463 0.05980
 C627 C 0.61370 0.25852 0.09332
 C628 C 0.59431 0.24069 0.11896
 C629 C 0.56098 0.22735 0.11142
 C630 C 0.54531 0.23567 0.07855
 C631 C 0.54561 0.27058 0.02477
 C632 C 0.51181 0.25975 0.01701
 C633 C 0.49513 0.23584 0.03877
 C634 C 0.51127 0.22443 0.06940
 H635 H 0.55759 0.28968 0.00749
 H636 H 0.49869 0.26971 -0.00608
 H637 H 0.46917 0.22661 0.03250
 H638 H 0.49623 0.20704 0.08543
 H639 H 0.64060 0.26513 0.09902
 H640 H 0.60618 0.23556 0.14421
 C641 C 0.19915 0.05010 0.63290
 C642 C 0.23588 0.05335 0.63679
 C643 C 0.25182 0.08516 0.62702
 C644 C 0.23353 0.11008 0.60747
 C645 C 0.19869 0.10429 0.59760
 C646 C 0.18036 0.07547 0.61290
 C647 C 0.18072 0.02243 0.64943
 C648 C 0.14480 0.01895 0.64528
 C649 C 0.12647 0.04318 0.62514
 C650 C 0.14387 0.07120 0.60929
 H651 H 0.19392 0.00366 0.66620
 H652 H 0.13109 -0.00244 0.65802
 H653 H 0.09848 0.04059 0.62222
 H654 H 0.12803 0.08966 0.59513
 H655 H 0.27962 0.08902 0.63047
 H656 H 0.24786 0.13242 0.59723
 C657 C 0.78770 0.07504 0.37135
 C658 C 0.75141 0.06830 0.37330
 C659 C 0.73013 0.09050 0.39326
 C660 C 0.74473 0.11658 0.41426
 C661 C 0.78099 0.12109 0.41586
 C662 C 0.80264 0.10186 0.39262
 C663 C 0.80945 0.05540 0.34889
 C664 C 0.84513 0.06236 0.34708
 C665 C 0.85971 0.08896 0.36745
 C666 C 0.83879 0.10860 0.39002
 H667 H 0.79891 0.03496 0.33220
 H668 H 0.86150 0.04726 0.32958
 H669 H 0.88736 0.09452 0.36565
 H670 H 0.85108 0.12947 0.40480
 H671 H 0.70231 0.08566 0.39493
 H672 H 0.72774 0.13135 0.43151
 C673 C 0.71967 0.90672 0.58805
 C674 C 0.73809 0.93603 0.60183
 C675 C 0.77450 0.93588 0.60153
 C676 C 0.79281 0.90916 0.58506
 C677 C 0.77553 0.88128 0.56816
 C678 C 0.73852 0.87835 0.57217
 C679 C 0.68283 0.90548 0.58879
 C680 C 0.66489 0.87615 0.57646
 C681 C 0.68312 0.84770 0.56286
 C682 C 0.71940 0.84870 0.56049
 H683 H 0.66742 0.92698 0.59892
 H684 H 0.63667 0.87540 0.57766
 H685 H 0.66902 0.82473 0.55382
 H686 H 0.73160 0.82535 0.55044
 H687 H 0.78894 0.95771 0.61268
 H688 H 0.82096 0.91154 0.58388
 C689 C 0.28544 0.90713 0.40657
 C690 C 0.26556 0.93566 0.39329
 C691 C 0.22924 0.93324 0.39261
 C692 C 0.21228 0.90529 0.40858
 C693 C 0.23096 0.87875 0.42613
 C694 C 0.26806 0.87782 0.42247
 C695 C 0.32226 0.90772 0.40551
 C696 C 0.34169 0.87952 0.41833
 C697 C 0.32494 0.85046 0.43271
 C698 C 0.28864 0.84951 0.43493
 H699 H 0.33644 0.92977 0.39466
 H700 H 0.36989 0.88021 0.41704
 H701 H 0.34021 0.82849 0.44233
 H702 H 0.27755 0.82588 0.44572
 H703 H 0.21376 0.95457 0.38186
 H704 H 0.18402 0.90599 0.40949
 C705 C 0.08500 0.40295 0.71815
 C706 C 0.05617 0.39263 0.73949
 C707 C 0.05945 0.39552 0.77597
 C708 C 0.08860 0.41042 0.79128
 C709 C 0.11626 0.42343 0.77110
 C710 C 0.11596 0.41692 0.73424
 C711 C 0.08302 0.40240 0.68115
 C712 C 0.11182 0.41097 0.66067
 C713 C 0.14289 0.42112 0.67638
 C714 C 0.14492 0.42466 0.71262
 H715 H 0.05922 0.39602 0.66745
 H716 H 0.11000 0.40974 0.63241
 H717 H 0.16536 0.42720 0.66030
 H718 H 0.16984 0.43255 0.72289
 H719 H 0.03871 0.38664 0.79315
 H720 H 0.08857 0.41332 0.81951
 C721 C 0.05992 0.61403 0.21451
 C722 C 0.06038 0.61289 0.25172
 C723 C 0.08972 0.59874 0.26873
 C724 C 0.11527 0.58075 0.24982
 C725 C 0.11295 0.57760 0.21328
 C726 C 0.08694 0.59717 0.19520
 C727 C 0.03396 0.63306 0.19613
 C728 C 0.03452 0.63528 0.15972
 C729 C 0.06128 0.61941 0.14092
 C730 C 0.08745 0.60085 0.15835
 H731 H 0.01357 0.64719 0.20977
 H732 H 0.01452 0.65003 0.14608
 H733 H 0.06208 0.62196 0.11269
 H734 H 0.10861 0.59057 0.14271
 H735 H 0.09108 0.59824 0.29708
 H736 H 0.13547 0.56695 0.26417
 C737 C 0.91825 0.40288 0.28688
 C738 C 0.94232 0.38488 0.26471
 C739 C 0.93713 0.38566 0.22842
 C740 C 0.90981 0.40441 0.21369
 C741 C 0.88699 0.42427 0.23440
 C742 C 0.89052 0.42305 0.27158
 C743 C 0.92288 0.40403 0.32367
 C744 C 0.90047 0.42335 0.34488
 C745 C 0.87358 0.44279 0.33010
 C746 C 0.86880 0.44310 0.29395
 H747 H 0.94411 0.39073 0.33668
 H748 H 0.90439 0.42375 0.37296
 H749 H 0.85660 0.45824 0.34672
 H750 H 0.84820 0.45975 0.28437
 H751 H 0.95511 0.37221 0.21108
 H752 H 0.90756 0.40479 0.18539
 C753 C 0.91014 0.60248 0.72810
 C754 C 0.94232 0.61093 0.74510
 C755 C 0.94445 0.60670 0.78155
 C756 C 0.91725 0.59237 0.80067
 C757 C 0.88617 0.58140 0.78460
 C758 C 0.88129 0.58937 0.74831
 C759 C 0.90657 0.60406 0.69123
 C760 C 0.87473 0.59718 0.67508
 C761 C 0.84587 0.58808 0.69504
 C762 C 0.84899 0.58402 0.73115
 H763 H 0.92826 0.60991 0.67421
 H764 H 0.87240 0.59910 0.64689
 H765 H 0.82096 0.58363 0.68240
 H766 H 0.82536 0.57783 0.74501
 H767 H 0.96792 0.61405 0.79562
 H768 H 0.92152 0.58832 0.82844
 C769 C 0.78290 0.62195 0.94761
 C770 C 0.74712 0.61432 0.95293
 C771 C 0.72928 0.59330 0.92877
 C772 C 0.74707 0.57696 0.90155
 C773 C 0.78320 0.58124 0.89772
 C774 C 0.80107 0.60557 0.91952
 C775 C 0.80096 0.64554 0.96967
 C776 C 0.83612 0.65301 0.96403
 C777 C 0.85377 0.63753 0.93618
 C778 C 0.83650 0.61418 0.91395
 H779 H 0.78793 0.65880 0.99105
 H780 H 0.84963 0.67123 0.98109
 H781 H 0.88093 0.64386 0.93160
 H782 H 0.85094 0.60368 0.89201
 H783 H 0.70183 0.58752 0.93245
 H784 H 0.73290 0.55876 0.88496
 C785 C 0.21635 0.37981 0.92806
 C786 C 0.25254 0.38504 0.93490
 C787 C 0.27263 0.40348 0.91011
 C788 C 0.25668 0.42124 0.88240
 C789 C 0.22036 0.42065 0.87835
 C790 C 0.20023 0.39769 0.89954
 C791 C 0.19619 0.35582 0.94796
 C792 C 0.16088 0.35072 0.94084
 C793 C 0.14509 0.36854 0.91323
 C794 C 0.16453 0.39149 0.89247
 H795 H 0.20772 0.34005 0.96852
 H796 H 0.14586 0.33235 0.95643
 H797 H 0.11781 0.36402 0.90741
 H798 H 0.15155 0.40336 0.87023
 H799 H 0.30038 0.40728 0.91402
 H800 H 0.27262 0.43772 0.86569
 C801 C 0.27005 0.58097 0.07101
 C802 C 0.25031 0.60692 0.05316
 C803 C 0.21541 0.61250 0.06213
 C804 C 0.19951 0.59216 0.08790
 C805 C 0.21799 0.56555 0.10535
 C806 C 0.25376 0.55980 0.09714
 C807 C 0.30532 0.57464 0.06228
 C808 C 0.32409 0.54787 0.07867
 C809 C 0.30810 0.52669 0.10366
 C810 C 0.27333 0.53234 0.11275
 H811 H 0.31865 0.59014 0.04262
 H812 H 0.35107 0.54329 0.07166
 H813 H 0.32265 0.50557 0.11592
 H814 H 0.26217 0.51453 0.13166
 H815 H 0.20001 0.63186 0.04810
 H816 H 0.17218 0.59666 0.09367
 C817 C 0.78933 0.37727 0.07939
 C818 C 0.75353 0.38261 0.07200
 C819 C 0.73346 0.40394 0.09400
 C820 C 0.74910 0.42286 0.12096
 C821 C 0.78518 0.42083 0.12658
 C822 C 0.80525 0.39616 0.10728
 C823 C 0.80965 0.35376 0.05936
 C824 C 0.84484 0.34852 0.06710
 C825 C 0.86027 0.36630 0.09496
 C826 C 0.84076 0.38982 0.11501
 H827 H 0.79839 0.33893 0.03796
 H828 H 0.86010 0.33028 0.05165
 H829 H 0.88746 0.36173 0.10118
 H830 H 0.85356 0.40232 0.13696
 H831 H 0.70602 0.40812 0.08855
 H832 H 0.73332 0.44126 0.13574
 C833 C 0.92743 0.77756 0.61477
 C834 C 0.93869 0.74364 0.60429
 C835 C 0.92150 0.72643 0.57686
 C836 C 0.89537 0.74352 0.55787
 C837 C 0.88592 0.77828 0.56577
 C838 C 0.90065 0.79494 0.59554
 C839 C 0.94262 0.79475 0.64380
 C840 C 0.93136 0.82814 0.65386
 C841 C 0.90474 0.84490 0.63546
 C842 C 0.88937 0.82853 0.60664
 H843 H 0.96296 0.78236 0.65916
 H844 H 0.94315 0.84095 0.67624
 H845 H 0.89582 0.87065 0.64365
 H846 H 0.86824 0.84217 0.59359
 H847 H 0.92995 0.70050 0.56864
 H848 H 0.88421 0.73039 0.53531
 C849 C 0.91762 0.23814 0.38315
 C850 C 0.94355 0.25573 0.40320
 C851 C 0.93909 0.25948 0.43937
 C852 C 0.91019 0.24517 0.45605
 C853 C 0.88467 0.22711 0.43703
 C854 C 0.88774 0.22395 0.40030
 C855 C 0.92134 0.23296 0.34673
 C856 C 0.89589 0.21494 0.32770
 C857 C 0.86650 0.20154 0.34448
 C858 C 0.86237 0.20587 0.38048
 H859 H 0.94397 0.24237 0.33267
 H860 H 0.89908 0.21121 0.29979
 H861 H 0.84690 0.18752 0.32956
 H862 H 0.83926 0.19498 0.39264
 H863 H 0.95878 0.27265 0.45499
 H864 H 0.90845 0.24694 0.48431
 C865 C 0.04738 0.20910 0.62104
 C866 C 0.04268 0.24553 0.61485
 C867 C 0.06584 0.26349 0.59286
 C868 C 0.09215 0.24547 0.57523
 C869 C 0.09606 0.20896 0.57908
 C870 C 0.07453 0.19073 0.60337
 C871 C 0.02581 0.19061 0.64474
 C872 C 0.03116 0.15488 0.65123
 C873 C 0.05822 0.13709 0.63463
 C874 C 0.07981 0.15482 0.61112
 H875 H 0.00504 0.20370 0.65882
 H876 H 0.01454 0.14105 0.66957
 H877 H 0.06270 0.10950 0.64021
 H878 H 0.10112 0.14046 0.59977
 H879 H 0.06245 0.29140 0.58798
 H880 H 0.10856 0.25995 0.55715
 C881 C 0.07537 0.78257 0.38234
 C882 C 0.06760 0.74639 0.38827
 C883 C 0.09002 0.72646 0.40960
 C884 C 0.11609 0.74288 0.42923
 C885 C 0.12116 0.77940 0.42720
 C886 C 0.10263 0.79904 0.40160
 C887 C 0.05757 0.80231 0.35643
 C888 C 0.06584 0.83751 0.35031
 C889 C 0.09255 0.85355 0.36907
 C890 C 0.11109 0.83454 0.39418
 H891 H 0.03780 0.79046 0.34001
 H892 H 0.05190 0.85221 0.33041
 H893 H 0.09937 0.88069 0.36371
 H894 H 0.13274 0.84767 0.40679
 H895 H 0.08514 0.69869 0.41399
 H896 H 0.13068 0.72729 0.44799
 C897 C 0.59119 0.90438 0.72146
 C898 C 0.60656 0.93245 0.74099
 C899 C 0.60961 0.92861 0.77745
 C900 C 0.59558 0.89994 0.79485
 C901 C 0.57762 0.87341 0.77687
 C902 C 0.57832 0.87379 0.73947
 C903 C 0.58563 0.90694 0.68491
 C904 C 0.57216 0.87872 0.66600
 C905 C 0.56317 0.84770 0.68302
 C906 C 0.56574 0.84528 0.71933
 H907 H 0.59091 0.93081 0.67049
 H908 H 0.56875 0.88093 0.63794
 H909 H 0.55340 0.82560 0.66807
 H910 H 0.55878 0.82035 0.73079
 H911 H 0.62248 0.94859 0.79308
 H912 H 0.59698 0.89979 0.82319
 C913 C 0.38235 0.95377 0.21295
 C914 C 0.38692 0.95821 0.24980
 C915 C 0.40576 0.93250 0.26836
 C916 C 0.42314 0.90547 0.25099
 C917 C 0.42173 0.90239 0.21443
 C918 C 0.39958 0.92550 0.19528
 C919 C 0.35902 0.97526 0.19364
 C920 C 0.35387 0.97009 0.15792
 C921 C 0.37073 0.94273 0.14079
 C922 C 0.39290 0.92030 0.15922
 H923 H 0.34359 0.99552 0.20603
 H924 H 0.33600 0.98690 0.14364
 H925 H 0.36592 0.93830 0.11320
 H926 H 0.40349 0.89819 0.14502
 H927 H 0.40941 0.93474 0.29641
 H928 H 0.43933 0.88780 0.26627
 C929 C 0.55298 0.05880 0.26504
 C930 C 0.58995 0.06098 0.26850
 C931 C 0.60653 0.09280 0.25944
 C932 C 0.58810 0.11975 0.24258
 C933 C 0.55273 0.11564 0.23428
 C934 C 0.53454 0.08560 0.24673
 C935 C 0.53378 0.03101 0.28060
 C936 C 0.49784 0.02822 0.27581
 C937 C 0.48018 0.05335 0.25618
 C938 C 0.49814 0.08192 0.24208
 H939 H 0.54634 0.01150 0.29700
 H940 H 0.48363 0.00656 0.28751
 H941 H 0.45231 0.05109 0.25243
 H942 H 0.48306 0.10125 0.22805
 H943 H 0.63449 0.09576 0.26242
 H944 H 0.60204 0.14306 0.23408
 C945 C 0.42865 0.08252 0.72182
 C946 C 0.39899 0.06816 0.73861
 C947 C 0.38824 0.08168 0.77090
 C948 C 0.40763 0.10761 0.78776
 C949 C 0.43821 0.12098 0.77272
 C950 C 0.44857 0.10913 0.73896
 C951 C 0.43979 0.06972 0.68900
 C952 C 0.47001 0.08272 0.67337
 C953 C 0.48977 0.10837 0.69018
 C954 C 0.47935 0.12143 0.72265
 H955 H 0.42525 0.04959 0.67523
 H956 H 0.47828 0.07266 0.64820
 H957 H 0.51341 0.11812 0.67807
 H958 H 0.49588 0.14097 0.73465
 H959 H 0.36592 0.07040 0.78422
 H960 H 0.39962 0.11611 0.81361
 C961 C 0.61027 0.76035 0.09668
 C962 C 0.59406 0.73369 0.07652
 C963 C 0.55949 0.72407 0.08369
 C964 C 0.54000 0.74226 0.10844
 C965 C 0.55463 0.77046 0.12676
 C966 C 0.59039 0.77857 0.12240
 C967 C 0.64530 0.77026 0.09104
 C968 C 0.66064 0.79677 0.11113
 C969 C 0.64144 0.81384 0.13700
 C970 C 0.60660 0.80488 0.14266
 H971 H 0.66110 0.75760 0.07127
 H972 H 0.68760 0.80400 0.10670
 H973 H 0.65357 0.83415 0.15271
 H974 H 0.59253 0.81822 0.16330
 H975 H 0.54680 0.70379 0.06832
 H976 H 0.51260 0.73597 0.11142
 C977 C 0.44224 0.29813 0.08208
 C978 C 0.40948 0.28665 0.06948
 C979 C 0.39169 0.25972 0.08703
 C980 C 0.40707 0.24216 0.11506
 C981 C 0.44032 0.25159 0.12693
 C982 C 0.45768 0.28084 0.11142
 C983 C 0.46049 0.32563 0.06529
 C984 C 0.49339 0.33590 0.07705
 C985 C 0.50856 0.31915 0.10569
 C986 C 0.49100 0.29195 0.12280
 H987 H 0.44951 0.33927 0.04294
 H988 H 0.50722 0.35690 0.06381
 H989 H 0.53420 0.32711 0.11457
 H990 H 0.50404 0.27972 0.14470
 H991 H 0.36670 0.25054 0.07735
 H992 H 0.39372 0.21968 0.12632
 C993 C 0.63165 0.22554 0.91750
 C994 C 0.61923 0.25561 0.93530
 C995 C 0.58790 0.27142 0.92470
 C996 C 0.56731 0.25613 0.89892
 C997 C 0.57766 0.22477 0.88294
 C998 C 0.61089 0.21037 0.89054
 C999 C 0.66379 0.20982 0.92634
 C1000 C 0.67574 0.18040 0.90807
 C1001 C 0.65601 0.16634 0.88077
 C1002 C 0.62386 0.18120 0.87197
 H1003 H 0.68000 0.22043 0.94703
 H1004 H 0.70060 0.16868 0.91484
 H1005 H 0.66571 0.14391 0.86628
 H1006 H 0.60957 0.17044 0.85006
 H1007 H 0.57806 0.29435 0.93837
 H1008 H 0.54203 0.26755 0.89311
 C1009 C 0.37593 0.79238 0.92426
 C1010 C 0.37879 0.75630 0.93300
 C1011 C 0.40123 0.73458 0.91379
 C1012 C 0.42340 0.74878 0.88861
 C1013 C 0.42360 0.78505 0.88198
 C1014 C 0.39824 0.80686 0.89821
 C1015 C 0.35148 0.81439 0.94108
 C1016 C 0.34875 0.84987 0.93202
 C1017 C 0.37006 0.86394 0.90602
 C1018 C 0.39452 0.84273 0.88914
 H1019 H 0.33400 0.80421 0.96092
 H1020 H 0.32977 0.86644 0.94497
 H1021 H 0.36751 0.89138 0.89875
 H1022 H 0.40991 0.85449 0.86853
 H1023 H 0.40354 0.70687 0.92022
 H1024 H 0.44238 0.73170 0.87623
 C1025 C 0.72478 0.92551 0.41723
 C1026 C 0.74272 0.93970 0.38799
 C1027 C 0.77569 0.92661 0.37917
 C1028 C 0.79171 0.90088 0.39955
 C1029 C 0.77521 0.88725 0.42932
 C1030 C 0.74113 0.89902 0.43812
 C1031 C 0.69166 0.93833 0.42717
 C1032 C 0.67487 0.92522 0.45680
 C1033 C 0.69081 0.89951 0.47726
 C1034 C 0.72368 0.88662 0.46829
 H1035 H 0.67853 0.95869 0.41236
 H1036 H 0.64947 0.93526 0.46408
 H1037 H 0.67770 0.88970 0.50034
 H1038 H 0.73516 0.86714 0.48539
 H1039 H 0.78985 0.93764 0.35718
 H1040 H 0.81787 0.89248 0.39278
 C1041 C 0.27975 0.92525 0.57674
 C1042 C 0.26537 0.93129 0.61032
 C1043 C 0.23784 0.91022 0.62224
 C1044 C 0.22307 0.88473 0.60067
 C1045 C 0.23564 0.87941 0.56672
 C1046 C 0.26483 0.89895 0.55476
 C1047 C 0.30748 0.94600 0.56384
 C1048 C 0.32041 0.94074 0.53014
 C1049 C 0.30589 0.91502 0.50870
 C1050 C 0.27834 0.89429 0.52073
 H1051 H 0.31932 0.96644 0.57959
 H1052 H 0.34171 0.95679 0.52055
 H1053 H 0.31597 0.91127 0.48256
 H1054 H 0.26771 0.87470 0.50324
 H1055 H 0.22622 0.91513 0.64763
 H1056 H 0.20040 0.87038 0.60984
 C1057 C 0.27766 0.06313 0.45787
 C1058 C 0.27372 0.06220 0.42095
 C1059 C 0.25143 0.08644 0.40457
 C1060 C 0.23117 0.10959 0.42428
 C1061 C 0.23310 0.10954 0.46087
 C1062 C 0.25718 0.08697 0.47798
 C1063 C 0.30102 0.04027 0.47527
 C1064 C 0.30377 0.04058 0.51169
 C1065 C 0.28350 0.06361 0.53138
 C1066 C 0.26046 0.08669 0.51480
 H1067 H 0.31743 0.02219 0.46086
 H1068 H 0.32176 0.02291 0.52472
 H1069 H 0.28573 0.06367 0.55964
 H1070 H 0.24538 0.10432 0.53098
 H1071 H 0.24781 0.08571 0.37644
 H1072 H 0.21267 0.12656 0.41097
 C1073 C 0.75012 0.08541 0.61154
 C1074 C 0.72399 0.06535 0.59441
 C1075 C 0.71325 0.07483 0.56062
 C1076 C 0.72947 0.10243 0.54283
 C1077 C 0.75712 0.12087 0.55825
 C1078 C 0.76677 0.11343 0.59327
 C1079 C 0.76111 0.07733 0.64594
 C1080 C 0.78738 0.09689 0.66211
 C1081 C 0.80333 0.12459 0.64436
 C1082 C 0.79327 0.13283 0.61022
 H1083 H 0.74955 0.05597 0.66067
 H1084 H 0.79542 0.09050 0.68854
 H1085 H 0.82365 0.13972 0.65706
 H1086 H 0.80617 0.15464 0.59732
 H1087 H 0.69353 0.05946 0.54721
 H1088 H 0.72220 0.10763 0.51588
 C1089 C 0.91072 0.61578 0.25423
 C1090 C 0.93559 0.59739 0.27482
 C1091 C 0.93052 0.56165 0.28222
 C1092 C 0.90259 0.54341 0.26758
 C1093 C 0.87910 0.56043 0.24516
 C1094 C 0.88204 0.59709 0.23955
 C1095 C 0.91443 0.65200 0.24671
 C1096 C 0.88997 0.66942 0.22584
 C1097 C 0.86154 0.65120 0.21209
 C1098 C 0.85751 0.61533 0.21885
 H1099 H 0.93611 0.66711 0.25686
 H1100 H 0.89305 0.69722 0.22037
 H1101 H 0.84256 0.66490 0.19609
 H1102 H 0.83488 0.60201 0.20826
 H1103 H 0.94950 0.54732 0.29772
 H1104 H 0.90087 0.51520 0.27164
 C1105 C 0.91555 0.43102 0.72705
 C1106 C 0.92909 0.40054 0.74359
 C1107 C 0.91705 0.39082 0.77676
 C1108 C 0.89312 0.41177 0.79448
 C1109 C 0.88049 0.44297 0.77949
 C1110 C 0.89116 0.45263 0.74518
 C1111 C 0.92702 0.44128 0.69342
 C1112 C 0.91495 0.47230 0.67807
 C1113 C 0.89158 0.49376 0.69595
 C1114 C 0.87984 0.48425 0.72919
 H1115 H 0.94542 0.42547 0.67879
 H1116 H 0.92399 0.47987 0.65230
 H1117 H 0.88260 0.51799 0.68403
 H1118 H 0.86215 0.50212 0.74209
 H1119 H 0.92775 0.36788 0.78982
 H1120 H 0.88555 0.40437 0.82081
 C1121 C 0.08433 0.57090 0.71128
 C1122 C 0.06887 0.59925 0.72959
 C1123 C 0.08260 0.60965 0.76188
 C1124 C 0.10975 0.59102 0.77735
 C1125 C 0.12412 0.56132 0.76108
 C1126 C 0.11226 0.55163 0.72708
 C1127 C 0.07155 0.56032 0.67827
 C1128 C 0.08615 0.53170 0.66087
 C1129 C 0.11329 0.51284 0.67616
 C1130 C 0.12602 0.52227 0.70908
 H1131 H 0.05024 0.57405 0.66564
 H1132 H 0.07627 0.52400 0.63545
 H1133 H 0.12449 0.49072 0.66240
 H1134 H 0.14670 0.50633 0.71985
 H1135 H 0.07089 0.63129 0.77613
 H1136 H 0.11827 0.59865 0.80332
 C1137 C 0.07915 0.42658 0.28131
 C1138 C 0.06876 0.39383 0.26705
 C1139 C 0.08364 0.38197 0.23579
 C1140 C 0.10714 0.40294 0.21748
 C1141 C 0.11655 0.43621 0.23006
 C1142 C 0.10325 0.44808 0.26264
 C1143 C 0.06479 0.43912 0.31295
 C1144 C 0.07390 0.47220 0.32587
 C1145 C 0.09717 0.49342 0.30748
 C1146 C 0.11168 0.48165 0.27613
 H1147 H 0.04641 0.42351 0.32787
 H1148 H 0.06267 0.48151 0.35015
 H1149 H 0.10388 0.51922 0.31746
 H1150 H 0.12926 0.49924 0.26261
 H1151 H 0.07527 0.35727 0.22436
 H1152 H 0.11690 0.39379 0.19246
   
