data_POSCAR
  _audit_creation_date              2014-09-24
  _audit_creation_method            'ToBaCCo'
  _symmetry_space_group_name_H-M    'P1'
  _symmetry_Int_Tables_number       1
  _symmetry_cell_setting            triclinic
  loop_
  _symmetry_equiv_pos_as_xyz
 x,y,z
_cell_length_a 23.0616
_cell_length_b 24.1267
_cell_length_c 22.8036
_cell_angle_alpha 90.248400
_cell_angle_beta 89.981000
_cell_angle_gamma 90.127900
loop_
  _atom_site_label
  _atom_site_type_symbol
  _atom_site_fract_x
  _atom_site_fract_y
  _atom_site_fract_z
C1 C 0.44801 0.91226 -0.53243
 C2 C 0.44799 0.91244 -0.47078
 C3 C 0.50059 0.91033 -0.44054
 C4 C 0.55337 0.91241 -0.47065
 C5 C 0.55343 0.91292 -0.53241
 C6 C 0.50073 0.91065 -0.56266
 H7 H 0.50071 0.91239 -0.61032
 H8 H 0.50034 0.91188 -0.39289
 C9 C -0.52965 1.46145 0.00019
 C10 C -0.46846 1.46139 0.00014
 C11 C -0.43854 1.51211 -0.00018
 C12 C -0.46809 1.56296 -0.00023
 C13 C -0.52937 1.56298 0.00027
 C14 C -0.55921 1.51222 0.00036
 H15 H -0.60629 1.51222 0.00058
 H16 H -0.39143 1.51188 -0.00039
 C17 C -0.00031 0.56171 0.53139
 C18 C -0.00022 0.56183 0.46959
 C19 C -0.00040 0.51135 0.43905
 C20 C -0.00040 0.46068 0.46887
 C21 C 0.00005 0.46056 0.53068
 C22 C -0.00004 0.51105 0.56122
 H23 H 0.00011 0.51080 0.60886
 H24 H -0.00054 0.51161 0.39141
 O25 O -0.07596 1.00808 -0.15054
 O26 O -0.07836 1.01294 0.14969
 O27 O -0.14963 0.93633 -0.00292
 O28 O -0.14953 1.08539 0.00105
 O29 O -0.07968 1.15405 0.00172
 O30 O -0.07995 0.86783 -0.00241
 O31 O -0.14959 1.01125 0.07898
 O32 O -0.14815 1.00663 -0.08082
 Zr33 Zr -0.10211 1.01089 -0.00055
 O34 O -0.05322 1.06196 0.05269
 O35 O -0.05223 0.96031 -0.05300
 C36 C -0.12970 1.00504 -0.13466
 C37 C -0.13199 1.01188 0.13312
 C38 C -0.13359 0.88480 -0.00367
 C39 C -0.13337 1.13696 0.00217
 H40 H -0.07751 0.93707 0.07714
 O41 O -0.05277 0.96070 0.05213
 H42 H -0.07690 1.08444 -0.07826
 O43 O -0.05220 1.06138 -0.05270
 O44 O 0.07582 1.00890 0.15078
 O45 O 0.07819 1.01241 -0.14942
 O46 O 0.00142 0.86840 0.08021
 O47 O -0.00224 1.15440 0.08052
 O48 O 0.00236 1.15400 -0.07975
 O49 O -0.00187 0.86799 -0.08046
 O50 O 0.14928 0.93674 0.00291
 O51 O 0.14949 1.08571 -0.00053
 O52 O 0.07950 0.86804 0.00219
 O53 O 0.07982 1.15423 -0.00097
 O54 O 0.00094 0.93754 0.15027
 O55 O -0.00127 0.93677 -0.15028
 O56 O 0.00303 1.08501 -0.14990
 O57 O -0.00304 1.08576 0.15043
 O58 O 0.14793 1.00731 0.08099
 O59 O 0.14941 1.01125 -0.07871
 Zr60 Zr -0.00087 1.01152 0.10189
 Zr61 Zr 0.00069 1.01100 -0.10162
 Zr62 Zr -0.00019 0.91243 -0.00005
 Zr63 Zr 0.00002 1.10970 0.00031
 Zr64 Zr 0.10190 1.01114 0.00079
 O65 O 0.05314 1.06183 -0.05226
 O66 O 0.05193 0.96071 0.05306
 C67 C 0.12953 1.00582 0.13484
 C68 C 0.13181 1.01160 -0.13285
 C69 C 0.00210 0.88593 0.13426
 C70 C -0.00363 1.13726 0.13453
 C71 C 0.00371 1.13659 -0.13382
 C72 C -0.00252 0.88524 -0.13445
 C73 C 0.13317 0.88518 0.00353
 C74 C 0.13347 1.13724 -0.00149
 H75 H 0.07719 0.93686 -0.07716
 O76 O 0.05249 0.96055 -0.05207
 H77 H 0.07689 1.08501 0.07880
 O78 O 0.05213 1.06178 0.05316
 C79 C 0.26614 0.96640 0.21614
 C80 C 0.24780 0.97212 0.27440
 C81 C 0.19251 0.99238 0.28686
 C82 C 0.15489 1.00545 0.24122
 C83 C 0.39932 0.92089 0.43533
 C84 C 0.22854 0.97952 0.17024
 C85 C 0.28559 0.95681 0.32141
 C86 C 0.31853 0.94427 0.35988
 C87 C 0.36005 0.93073 0.40244
 C88 C 0.17215 0.99836 0.18237
 H89 H 0.30912 0.95091 0.20622
 H90 H 0.17815 0.99727 0.33184
 H91 H 0.11183 1.02008 0.25213
 H92 H 0.24291 0.97323 0.12548
 C93 C -0.19645 1.00574 0.28489
 C94 C -0.25053 0.98208 0.27319
 C95 C -0.26832 0.97331 0.21517
 C96 C -0.23100 0.98604 0.16885
 C97 C -0.39820 0.92334 0.43524
 C98 C -0.15910 1.01841 0.23880
 C99 C -0.28714 0.96530 0.32069
 C100 C -0.31907 0.95102 0.35944
 C101 C -0.35956 0.93512 0.40221
 C102 C -0.17541 1.00741 0.18035
 H103 H -0.18257 1.01306 0.32966
 H104 H -0.31038 0.95521 0.20583
 H105 H -0.24459 0.97678 0.12441
 H106 H -0.11669 1.03522 0.24909
 C107 C -0.19245 0.99254 -0.28698
 C108 C -0.24761 0.97157 -0.27503
 C109 C -0.26599 0.96502 -0.21692
 C110 C -0.22852 0.97805 -0.17068
 C111 C -0.39808 0.92097 -0.43793
 C112 C -0.15499 1.00551 -0.24102
 C113 C -0.28520 0.95640 -0.32246
 C114 C -0.31788 0.94403 -0.36140
 C115 C -0.35906 0.93069 -0.40455
 C116 C -0.17226 0.99760 -0.18235
 H117 H -0.17808 0.99808 -0.33183
 H118 H -0.30887 0.94898 -0.20739
 H119 H -0.24288 0.97114 -0.12607
 H120 H -0.11203 1.02074 -0.25156
 C121 C 0.26809 0.97320 -0.21513
 C122 C 0.25033 0.98188 -0.27308
 C123 C 0.19632 1.00541 -0.28462
 C124 C 0.15897 1.01805 -0.23845
 C125 C 0.39702 0.92314 -0.43637
 C126 C 0.23077 0.98590 -0.16872
 C127 C 0.28687 0.96509 -0.32072
 C128 C 0.31863 0.95080 -0.35968
 C129 C 0.35877 0.93492 -0.40285
 C130 C 0.17523 1.00714 -0.18009
 H131 H 0.31009 0.95520 -0.20591
 H132 H 0.18246 1.01264 -0.32934
 H133 H 0.11661 1.03476 -0.24862
 H134 H 0.24432 0.97673 -0.12434
 C135 C 0.21421 1.27545 -0.00086
 C136 C 0.27214 1.25787 -0.00221
 C137 C 0.28442 1.20118 -0.00389
 C138 C 0.23935 1.16230 -0.00397
 C139 C 0.43539 1.41150 -0.00014
 C140 C 0.16887 1.23654 -0.00094
 C141 C 0.31903 1.29781 -0.00168
 C142 C 0.35775 1.33173 -0.00117
 C143 C 0.40132 1.37331 -0.00057
 C144 C 0.18086 1.17935 -0.00233
 H145 H 0.20405 1.31926 0.00042
 H146 H 0.32893 1.18693 -0.00501
 H147 H 0.25056 1.11876 -0.00516
 H148 H 0.12456 1.25126 0.00035
 C149 C 0.21425 0.74753 0.00035
 C150 C 0.27205 0.76540 0.00443
 C151 C 0.28406 0.82205 0.00915
 C152 C 0.23889 0.86062 0.00937
 C153 C 0.43571 0.61287 0.00093
 C154 C 0.16879 0.78613 0.00059
 C155 C 0.31908 0.72581 0.00350
 C156 C 0.35792 0.69218 0.00266
 C157 C 0.40160 0.65089 0.00167
 C158 C 0.18056 0.84329 0.00482
 H159 H 0.20429 0.70374 -0.00327
 H160 H 0.32846 0.83652 0.01245
 H161 H 0.24991 0.90415 0.01291
 H162 H 0.12461 0.77123 -0.00301
 C163 C -0.21463 0.74682 -0.00094
 C164 C -0.27246 0.76441 -0.00465
 C165 C -0.28452 0.82099 -0.00899
 C166 C -0.23936 0.85978 -0.00919
 C167 C -0.43517 0.61032 -0.00097
 C168 C -0.16921 0.78563 -0.00115
 C169 C -0.31943 0.72455 -0.00371
 C170 C -0.35810 0.69059 -0.00283
 C171 C -0.40146 0.64881 -0.00178
 C172 C -0.18100 0.84273 -0.00501
 H173 H -0.20464 0.70310 0.00239
 H174 H -0.32894 0.83524 -0.01199
 H175 H -0.25040 0.90326 -0.01241
 H176 H -0.12500 0.77094 0.00216
 C177 C -0.28409 1.20081 0.00457
 C178 C -0.27158 1.25750 0.00298
 C179 C -0.21357 1.27510 0.00171
 C180 C -0.16840 1.23621 0.00179
 C181 C -0.43386 1.41135 0.00061
 C182 C -0.23917 1.16195 0.00464
 C183 C -0.31828 1.29744 0.00239
 C184 C -0.35679 1.33141 0.00182
 C185 C -0.40007 1.37309 0.00113
 C186 C -0.18062 1.17902 0.00308
 H187 H -0.32866 1.18654 0.00561
 H188 H -0.20324 1.31890 0.00050
 H189 H -0.12403 1.25095 0.00056
 H190 H -0.25055 1.11840 0.00575
 C191 C -0.00860 1.20105 0.28683
 C192 C -0.00476 1.25756 0.27429
 C193 C -0.00146 1.27510 0.21588
 C194 C -0.00159 1.23621 0.17014
 C195 C -0.00110 1.41330 0.43593
 C196 C -0.00872 1.16214 0.24132
 C197 C -0.00387 1.29756 0.32132
 C198 C -0.00298 1.33197 0.35980
 C199 C -0.00191 1.37438 0.40261
 C200 C -0.00496 1.17917 0.18234
 H201 H -0.01126 1.18701 0.33182
 H202 H 0.00147 1.31884 0.20570
 H203 H 0.00137 1.25079 0.12540
 H204 H -0.01154 1.11865 0.25253
 C205 C 0.00877 1.19955 -0.28592
 C206 C 0.00488 1.25612 -0.27322
 C207 C 0.00156 1.27397 -0.21477
 C208 C 0.00170 1.23534 -0.16913
 C209 C 0.00089 1.41055 -0.43483
 C210 C 0.00890 1.16091 -0.24052
 C211 C 0.00392 1.29582 -0.32016
 C212 C 0.00297 1.32994 -0.35861
 C213 C 0.00180 1.37197 -0.40145
 C214 C 0.00509 1.17825 -0.18149
 H215 H 0.01145 1.18527 -0.33095
 H216 H -0.00141 1.31775 -0.20447
 H217 H -0.00129 1.25016 -0.12435
 H218 H 0.01175 1.11737 -0.25186
 C219 C -0.00105 0.74747 -0.21589
 C220 C -0.00390 0.76504 -0.27429
 C221 C -0.00711 0.82157 -0.28683
 C222 C -0.00709 0.86046 -0.24130
 C223 C -0.00089 0.60910 -0.43569
 C224 C -0.00105 0.78634 -0.17013
 C225 C -0.00320 0.72503 -0.32131
 C226 C -0.00247 0.69056 -0.35973
 C227 C -0.00158 0.64808 -0.40244
 C228 C -0.00381 0.84339 -0.18232
 H229 H 0.00140 0.70371 -0.20571
 H230 H -0.00942 0.83564 -0.33183
 H231 H -0.00947 0.90397 -0.25250
 H232 H 0.00152 0.77171 -0.12538
 C233 C 0.00025 0.74861 0.21531
 C234 C 0.00335 0.76652 0.27376
 C235 C 0.00685 0.82312 0.28644
 C236 C 0.00688 0.86175 0.24102
 C237 C 0.00034 0.61187 0.43513
 C238 C 0.00028 0.78722 0.16966
 C239 C 0.00262 0.72680 0.32068
 C240 C 0.00189 0.69262 0.35907
 C241 C 0.00101 0.65050 0.40182
 C242 C 0.00335 0.84434 0.18200
 H243 H -0.00244 0.70480 0.20502
 H244 H 0.00937 0.83745 0.33147
 H245 H 0.00950 0.90532 0.25233
 H246 H -0.00249 0.77234 0.12488
   
