data_POSCAR
  _audit_creation_date              2014-09-24
  _audit_creation_method            'ToBaCCo'
  _symmetry_space_group_name_H-M    'P1'
  _symmetry_Int_Tables_number       1
  _symmetry_cell_setting            triclinic
  loop_
  _symmetry_equiv_pos_as_xyz
 x,y,z
_cell_length_a 37.7938
_cell_length_b 37.8430
_cell_length_c 37.7756
_cell_angle_alpha 90.138000
_cell_angle_beta 90.155800
_cell_angle_gamma 90.211500
loop_
  _atom_site_label
  _atom_site_type_symbol
  _atom_site_fract_x
  _atom_site_fract_y
  _atom_site_fract_z
C1 C 0.19656 0.52672 1.04307
 H2 H 0.19601 0.54687 1.02281
 C3 C 0.17250 0.52801 1.07101
 H4 H 0.15333 0.54912 1.07082
 C5 C 0.22082 0.47356 1.06496
 H6 H 0.23941 0.45212 1.06230
 C7 C 0.19719 0.47368 1.09333
 H8 H 0.19953 0.45274 1.11260
 N9 N 0.22010 0.49985 1.04057
 C10 C 0.30415 0.53959 0.97252
 H11 H 0.30405 0.51916 0.95244
 C12 C 0.32908 0.56681 0.97110
 H13 H 0.34778 0.56743 0.94944
 C14 C 0.27991 0.56323 1.02526
 H15 H 0.26123 0.56127 1.04676
 C16 C 0.30443 0.59096 1.02487
 H17 H 0.30434 0.61012 1.04621
 Zn18 Zn 0.24951 0.49871 1.00014
 N19 N 0.28018 0.53831 0.99925
 C20 C 0.22091 0.52475 0.93550
 N21 N 0.21936 0.49857 0.96007
 C22 C 0.19458 0.47251 0.95794
 C23 C 0.17021 0.47192 0.93012
 C24 C 0.19701 0.52520 0.90724
 C25 C 0.30302 0.45588 1.02690
 C26 C 0.32682 0.42780 1.02783
 C27 C 0.30003 0.40476 0.97438
 C28 C 0.27667 0.43330 0.97449
 N29 N 0.27853 0.45809 1.00058
 H30 H 0.24027 0.54567 0.93803
 H31 H 0.19350 0.45242 0.97824
 H32 H 0.15026 0.45133 0.92934
 H33 H 0.19873 0.54618 0.88787
 H34 H 0.30435 0.47634 1.04691
 H35 H 0.34659 0.42699 1.04861
 H36 H 0.29813 0.38525 0.95344
 H37 H 0.25753 0.43589 0.95339
 C38 C 0.32964 0.59284 0.99766
 C39 C 0.17206 0.50104 1.09684
 C40 C 0.32566 0.40185 1.00121
 C41 C 0.17110 0.49862 0.90438
 C42 C 0.80343 0.52756 -0.04252
 H43 H 0.80437 0.54784 -0.02231
 C44 C 0.82737 0.52843 -0.07057
 H45 H 0.84686 0.54944 -0.07162
 C46 C 0.77792 0.47457 -0.06452
 H47 H 0.75906 0.45325 -0.06172
 C48 C 0.80141 0.47438 -0.09301
 H49 H 0.79988 0.45319 -0.11227
 N50 N 0.77928 0.50097 -0.04006
 C51 C 0.69616 0.54212 0.02800
 H52 H 0.69602 0.52185 0.04814
 C53 C 0.67143 0.56934 0.02922
 H54 H 0.65265 0.57014 0.05080
 C55 C 0.72068 0.56523 -0.02482
 H56 H 0.73934 0.56301 -0.04631
 C57 C 0.69634 0.59296 -0.02464
 H58 H 0.69657 0.61187 -0.04609
 Zn59 Zn 0.74981 0.50043 0.00033
 N60 N 0.72012 0.54052 0.00128
 C61 C 0.77908 0.52618 0.06495
 N62 N 0.77978 0.49973 0.04051
 C63 C 0.80362 0.47302 0.04283
 C64 C 0.82792 0.47206 0.07070
 C65 C 0.80294 0.52628 0.09325
 C66 C 0.69525 0.45909 -0.02698
 C67 C 0.67019 0.43197 -0.02810
 C68 C 0.69552 0.40811 0.02551
 C69 C 0.72017 0.43574 0.02560
 N70 N 0.71957 0.46051 -0.00044
 H71 H 0.76046 0.54759 0.06226
 H72 H 0.80404 0.45270 0.02264
 H73 H 0.84716 0.45095 0.07163
 H74 H 0.80192 0.54750 0.11249
 H75 H 0.69509 0.47941 -0.04707
 H76 H 0.65114 0.43130 -0.04955
 H77 H 0.69582 0.38912 0.04690
 H78 H 0.73913 0.43783 0.04695
 C79 C 0.67103 0.59502 0.00245
 C80 C 0.82670 0.50148 -0.09620
 C81 C 0.66985 0.40620 -0.00141
 C82 C 0.82793 0.49906 0.09629
 C83 C -0.02690 0.30266 0.45592
 H84 H -0.04696 0.30347 0.47630
 C85 C -0.02829 0.32640 0.42776
 H86 H -0.04937 0.34562 0.42788
 C87 C 0.02615 0.27807 0.43401
 H88 H 0.04759 0.25949 0.43678
 C89 C 0.02594 0.30141 0.40541
 H90 H 0.04681 0.29886 0.38608
 N91 N -0.00003 0.27912 0.45854
 C92 C -0.04014 0.19680 0.52843
 H93 H -0.01980 0.19731 0.54864
 C94 C -0.06744 0.17197 0.53022
 H95 H -0.06824 0.15377 0.55227
 C96 C -0.06337 0.21980 0.47494
 H97 H -0.06119 0.23790 0.45299
 C98 C -0.09117 0.19536 0.47567
 H99 H -0.11015 0.19495 0.45415
 Zn100 Zn 0.00127 0.25040 0.49944
 N101 N -0.03859 0.22008 0.50113
 C102 C -0.02401 0.28075 0.56369
 N103 N 0.00202 0.28128 0.53889
 C104 C 0.02844 0.30573 0.54013
 C105 C 0.02950 0.33090 0.56715
 C106 C -0.02399 0.30549 0.59122
 C107 C 0.04374 0.19643 0.47309
 C108 C 0.07180 0.17260 0.47223
 C109 C 0.09527 0.19982 0.52527
 C110 C 0.06674 0.22320 0.52509
 N111 N 0.04176 0.22116 0.49916
 H112 H -0.04530 0.26172 0.56175
 H113 H 0.04853 0.30584 0.51978
 H114 H 0.05089 0.35001 0.56772
 H115 H -0.04536 0.30517 0.61024
 H116 H 0.02313 0.19496 0.45321
 H117 H 0.07245 0.15266 0.45164
 H118 H 0.11495 0.20188 0.54606
 H119 H 0.06433 0.24253 0.54602
 C120 C -0.09327 0.17079 0.50342
 C121 C -0.00139 0.32656 0.40182
 C122 C 0.09798 0.17397 0.49866
 C123 C 0.00287 0.33120 0.59302
 C124 C 0.97202 0.69718 0.54330
 H125 H 0.95204 0.69584 0.52277
 C126 C 0.97097 0.67350 0.57153
 H127 H 0.95014 0.65381 0.57241
 C128 C 1.02451 0.72337 0.56585
 H129 H 1.04572 0.74236 0.56318
 C130 C 1.02450 0.70015 0.59454
 H131 H 1.04544 0.70203 0.61409
 N132 N 0.99846 0.72151 0.54098
 C133 C 0.95729 0.80270 0.47064
 H134 H 0.97762 0.80248 0.45054
 C135 C 0.92993 0.82727 0.46881
 H136 H 0.92908 0.84553 0.44681
 C137 C 0.93425 0.77940 0.52403
 H138 H 0.93659 0.76134 0.54601
 C139 C 0.90641 0.80360 0.52327
 H140 H 0.88754 0.80385 0.54478
 Zn141 Zn 0.99944 0.75025 0.50011
 N142 N 0.95902 0.77947 0.49796
 C143 C 0.97514 0.71913 0.43569
 N144 N 1.00120 0.71951 0.46061
 C145 C 1.02832 0.69605 0.45947
 C146 C 1.03005 0.67092 0.43244
 C147 C 0.97583 0.69441 0.40816
 C148 C 1.04005 0.80546 0.52723
 C149 C 1.06713 0.83058 0.52847
 C150 C 1.09195 0.80465 0.47561
 C151 C 1.06434 0.77996 0.47539
 N152 N 1.03914 0.78081 0.50102
 H153 H 0.95331 0.73737 0.43756
 H154 H 1.04842 0.69663 0.47991
 H155 H 1.05196 0.65258 0.43195
 H156 H 0.95441 0.69395 0.38907
 H157 H 1.01939 0.80581 0.54700
 H158 H 1.06742 0.84987 0.54968
 H159 H 1.11131 0.80411 0.45454
 H160 H 1.06266 0.76074 0.45427
 C161 C 0.90426 0.82826 0.49561
 C162 C 0.99761 0.67461 0.59752
 C163 C 1.09339 0.83061 0.50223
 C164 C 1.00340 0.66967 0.40647
 C165 C 0.45770 -0.02720 0.30411
 H166 H 0.47810 -0.04716 0.30524
 C167 C 0.42979 -0.02801 0.32821
 H168 H 0.42904 -0.04863 0.34802
 C169 C 0.43510 0.02492 0.27793
 H170 H 0.43759 0.04586 0.25872
 C171 C 0.40673 0.02514 0.30156
 H172 H 0.38726 0.04598 0.29979
 N173 N 0.45979 -0.00109 0.27954
 C174 C 0.52700 -0.04340 0.19624
 H175 H 0.54689 -0.02279 0.19523
 C176 C 0.52822 -0.07145 0.17227
 H177 H 0.54897 -0.07099 0.15265
 C178 C 0.47457 -0.06610 0.22171
 H179 H 0.45347 -0.06370 0.24077
 C180 C 0.47462 -0.09461 0.19813
 H181 H 0.45397 -0.11423 0.20092
 Zn182 Zn 0.49995 -0.00071 0.24975
 N183 N 0.50057 -0.04127 0.22039
 C184 C 0.56477 -0.02575 0.27861
 N185 N 0.54030 0.00051 0.27949
 C186 C 0.54268 0.02732 0.30341
 C187 C 0.57059 0.02852 0.32767
 C188 C 0.59311 -0.02558 0.30240
 C189 C 0.47248 0.04001 0.19506
 C190 C 0.47118 0.06710 0.17013
 C191 C 0.52476 0.09150 0.19543
 C192 C 0.52503 0.06389 0.21994
 N193 N 0.49907 0.03889 0.21932
 H194 H 0.56205 -0.04723 0.25993
 H195 H 0.52247 0.04748 0.30398
 H196 H 0.57153 0.04967 0.34702
 H197 H 0.61235 -0.04668 0.30125
 H198 H 0.45244 0.01952 0.19489
 H199 H 0.44966 0.06757 0.15116
 H200 H 0.54607 0.11071 0.19577
 H201 H 0.54641 0.06206 0.23886
 C202 C 0.50162 -0.09780 0.17249
 C203 C 0.40391 -0.00149 0.32726
 C204 C 0.49773 0.09316 0.16988
 C205 C 0.59616 0.00168 0.32754
 C206 C 0.54381 -0.02789 0.69707
 H207 H 0.52354 -0.04814 0.69628
 C208 C 0.57182 -0.02895 0.67309
 H209 H 0.57277 -0.05007 0.65374
 C210 C 0.56592 0.02526 0.72214
 H211 H 0.56317 0.04672 0.74080
 C212 C 0.59437 0.02525 0.69861
 H213 H 0.61366 0.04645 0.69995
 N214 N 0.54138 -0.00110 0.72097
 C215 C 0.47278 -0.04101 0.80446
 H216 H 0.45269 -0.02071 0.80432
 C217 C 0.47132 -0.06808 0.82941
 H218 H 0.44963 -0.06875 0.84806
 C219 C 0.52562 -0.06438 0.78040
 H220 H 0.54718 -0.06236 0.76180
 C221 C 0.52520 -0.09197 0.80494
 H222 H 0.54656 -0.11094 0.80493
 Zn223 Zn 0.50078 -0.00007 0.75013
 N224 N 0.49959 -0.03964 0.78060
 C225 C 0.43598 -0.02591 0.72107
 N226 N 0.46092 0.00006 0.71973
 C227 C 0.45923 0.02614 0.69510
 C228 C 0.43143 0.02705 0.67075
 C229 C 0.40771 -0.02605 0.69717
 C230 C 0.52724 0.04299 0.80410
 C231 C 0.52801 0.07114 0.82802
 C232 C 0.47481 0.09383 0.80086
 C233 C 0.47509 0.06522 0.77741
 N234 N 0.50113 0.04058 0.77938
 H235 H 0.43817 -0.04684 0.74033
 H236 H 0.47981 0.04607 0.69420
 H237 H 0.43094 0.04770 0.65098
 H238 H 0.38800 -0.04682 0.69876
 H239 H 0.54722 0.02263 0.80553
 H240 H 0.54861 0.07212 0.84797
 H241 H 0.45392 0.11322 0.79885
 H242 H 0.45413 0.06248 0.75810
 C243 C 0.49794 -0.09388 0.83009
 C244 C 0.59745 -0.00198 0.67348
 C245 C 0.50142 0.09695 0.82673
 C246 C 0.40523 0.00064 0.67150
 Si247 Si 0.25025 0.00108 0.49951
 Si248 Si 0.75027 0.00001 0.50040
 Si249 Si 0.49888 0.24985 1.00010
 Si250 Si 0.49995 0.74979 0.00022
 Si251 Si 1.00094 0.49872 0.25015
 Si252 Si -0.00132 0.50156 0.74987
 C253 C 0.17903 0.09459 0.49962
 C254 C 0.16888 0.11026 0.46768
 C255 C 0.14309 0.13665 0.46741
 C256 C 0.12705 0.14767 0.49913
 C257 C 0.13801 0.13227 0.53120
 C258 C 0.16379 0.10587 0.53140
 C259 C 0.20347 0.06552 0.49959
 C260 C 0.22295 0.04039 0.49956
 H261 H 0.18046 0.10167 0.44292
 H262 H 0.13554 0.14830 0.44236
 H263 H 0.12585 0.13981 0.55600
 H264 H 0.17126 0.09372 0.55625
 C265 C 0.59043 0.67491 0.00090
 C266 C 0.62522 0.68367 -0.00832
 C267 C 0.65158 0.65778 -0.00777
 C268 C 0.64340 0.62284 0.00210
 C269 C 0.60833 0.61440 0.01128
 C270 C 0.58209 0.64025 0.01069
 C271 C 0.56287 0.70102 0.00017
 C272 C 0.53861 0.72158 -0.00008
 H273 H 0.63194 0.71045 -0.01592
 H274 H 0.67839 0.66513 -0.01469
 H275 H 0.60102 0.58765 0.01837
 H276 H 0.55521 0.63314 0.01769
 C277 C 0.82471 -0.09078 0.49690
 C278 C 0.85925 -0.08286 0.48628
 C279 C 0.88495 -0.10925 0.48559
 C280 C 0.87648 -0.14407 0.49553
 C281 C 0.84161 -0.15186 0.50607
 C282 C 0.81587 -0.12535 0.50672
 C283 C 0.79886 -0.06300 0.49826
 C284 C 0.77845 -0.03864 0.49924
 H285 H 0.86643 -0.05614 0.47883
 H286 H 0.91166 -0.10221 0.47798
 H287 H 0.83420 -0.17847 0.51357
 H288 H 0.78919 -0.13176 0.51500
 C289 C 0.40529 0.32103 1.00030
 C290 C 0.39420 0.33647 0.96855
 C291 C 0.36772 0.36216 0.96873
 C292 C 0.35203 0.37284 1.00075
 C293 C 0.36286 0.35661 1.03245
 C294 C 0.38935 0.33091 1.03220
 C295 C 0.43441 0.29665 1.00035
 C296 C 0.45958 0.27719 1.00032
 H297 H 0.40656 0.32921 0.94374
 H298 H 0.36034 0.37447 0.94396
 H299 H 0.35100 0.36395 1.05745
 H300 H 0.39778 0.31917 1.05694
 C301 C 0.82620 0.09020 0.50303
 C302 C 0.86075 0.08216 0.51355
 C303 C 0.88679 0.10842 0.51391
 C304 C 0.87866 0.14320 0.50373
 C305 C 0.84379 0.15110 0.49329
 C306 C 0.81771 0.12472 0.49297
 C307 C 0.79994 0.06258 0.50202
 C308 C 0.77913 0.03839 0.50129
 H309 H 0.86765 0.05547 0.52119
 H310 H 0.91348 0.10132 0.52149
 H311 H 0.83663 0.17769 0.48564
 H312 H 0.79103 0.13122 0.48477
 C313 C 0.40992 0.67367 -0.00178
 C314 C 0.41834 0.63903 -0.01149
 C315 C 0.39221 0.61286 -0.01180
 C316 C 0.35716 0.62097 -0.00240
 C317 C 0.34889 0.65592 0.00730
 C318 C 0.37515 0.68212 0.00758
 C319 C 0.43739 0.70009 -0.00097
 C320 C 0.46152 0.72097 -0.00043
 H321 H 0.44522 0.63216 -0.01858
 H322 H 0.39959 0.58613 -0.01880
 H323 H 0.32210 0.66304 0.01435
 H324 H 0.36835 0.70887 0.01516
 C325 C 0.17360 -0.08852 0.50103
 C326 C 0.13874 -0.08015 0.50996
 C327 C 0.11276 -0.10646 0.51045
 C328 C 0.12128 -0.14164 0.50201
 C329 C 0.15644 -0.14985 0.49302
 C330 C 0.18245 -0.12342 0.49257
 C331 C 0.19991 -0.06096 0.50028
 C332 C 0.22087 -0.03690 0.49985
 H333 H 0.13156 -0.05318 0.51637
 H334 H 0.08586 -0.09915 0.51687
 H335 H 0.16388 -0.17674 0.48671
 H336 H 0.20939 -0.13018 0.48563
 C337 C 0.58878 0.32618 0.99998
 C338 C 0.58055 0.36089 0.99046
 C339 C 0.60692 0.38680 0.98996
 C340 C 0.64204 0.37837 0.99896
 C341 C 0.65010 0.34339 1.00858
 C342 C 0.62360 0.31744 1.00904
 C343 C 0.56117 0.29992 1.00050
 C344 C 0.53703 0.27904 1.00060
 H345 H 0.55365 0.36798 0.98356
 H346 H 0.59971 0.41358 0.98305
 H347 H 0.67694 0.33603 1.01535
 H348 H 0.63026 0.29063 1.01642
 C349 C 0.49849 0.17349 1.08955
 C350 C 0.48901 0.13873 1.08101
 C351 C 0.48868 0.11272 1.10715
 C352 C 0.49783 0.12109 1.14232
 C353 C 0.50738 0.15614 1.15069
 C354 C 0.50766 0.18218 1.12443
 C355 C 0.49899 0.19982 1.06215
 C356 C 0.49914 0.22073 1.03815
 H357 H 0.48204 0.13168 1.05405
 H358 H 0.48182 0.08591 1.09970
 H359 H 0.51424 0.16346 1.17758
 H360 H 0.51502 0.20903 1.13132
 C361 C -0.00135 0.59513 0.67862
 C362 C 0.03034 0.60620 0.66305
 C363 C 0.03011 0.63262 0.63726
 C364 C -0.00190 0.64827 0.62661
 C365 C -0.03356 0.63745 0.64294
 C366 C -0.03325 0.61103 0.66875
 C367 C -0.00135 0.56605 0.70307
 C368 C -0.00133 0.54089 0.72256
 H369 H 0.05515 0.59387 0.67029
 H370 H 0.05485 0.63998 0.62485
 H371 H -0.05856 0.64929 0.63562
 H372 H -0.05796 0.60260 0.68058
 C373 C 0.49861 0.82599 -0.08938
 C374 C 0.50806 0.81734 -0.12413
 C375 C 0.50775 0.84331 -0.15046
 C376 C 0.49790 0.87824 -0.14230
 C377 C 0.48841 0.88656 -0.10728
 C378 C 0.48876 0.86062 -0.08106
 C379 C 0.49932 0.79976 -0.06188
 C380 C 0.49971 0.77890 -0.03783
 H381 H 0.51572 0.79060 -0.13085
 H382 H 0.51487 0.83602 -0.17724
 H383 H 0.48130 0.91328 -0.09998
 H384 H 0.48157 0.86764 -0.05420
 C385 C 0.99940 0.40515 0.32141
 C386 C 0.96752 0.39474 0.33685
 C387 C 0.96706 0.36841 0.36270
 C388 C 0.99869 0.35183 0.37393
 C389 C 1.03055 0.36214 0.35713
 C390 C 1.03082 0.38856 0.33133
 C391 C 1.00007 0.43423 0.29694
 C392 C 1.00053 0.45938 0.27746
 H393 H 0.94294 0.40728 0.32916
 H394 H 0.94156 0.36075 0.37311
 H395 H 1.05587 0.35154 0.36505
 H396 H 1.05576 0.39669 0.31976
 C397 C 0.50092 0.82145 0.09389
 C398 C 0.46955 0.83088 0.11085
 C399 C 0.46979 0.85682 0.13728
 C400 C 0.50156 0.87423 0.14720
 C401 C 0.53314 0.86349 0.13026
 C402 C 0.53272 0.83751 0.10393
 C403 C 0.50030 0.79683 0.06481
 C404 C 0.50000 0.77723 0.03964
 H405 H 0.44468 0.81882 0.10301
 H406 H 0.44451 0.86432 0.14822
 H407 H 0.55860 0.87438 0.13762
 H408 H 0.55726 0.83020 0.09111
 C409 C 0.00090 0.41206 0.67318
 C410 C 0.01062 0.42037 0.63847
 C411 C 0.01141 0.39406 0.61252
 C412 C 0.00248 0.35894 0.62091
 C413 C -0.00723 0.35078 0.65592
 C414 C -0.00799 0.37721 0.68189
 C415 C -0.00018 0.43961 0.69947
 C416 C -0.00084 0.46363 0.72044
 H417 H 0.01738 0.44729 0.63140
 H418 H 0.01841 0.40133 0.58573
 H419 H -0.01391 0.32394 0.66326
 H420 H -0.01552 0.37049 0.70871
 C421 C 0.49983 0.17815 0.90646
 C422 C 0.53185 0.16837 0.89080
 C423 C 0.53234 0.14251 0.86431
 C424 C 0.50075 0.12604 0.85318
 C425 C 0.46861 0.13661 0.86860
 C426 C 0.46820 0.16245 0.89509
 C427 C 0.49961 0.20272 0.93558
 C428 C 0.49937 0.22232 0.96075
 H429 H 0.55651 0.18031 0.89946
 H430 H 0.55743 0.13526 0.85265
 H431 H 0.44391 0.12410 0.86099
 H432 H 0.44329 0.16964 0.90723
 C433 C 1.00293 0.58850 0.32657
 C434 C 0.99317 0.62303 0.31775
 C435 C 0.99350 0.64957 0.34362
 C436 C 1.00367 0.64186 0.37864
 C437 C 1.01355 0.60707 0.38713
 C438 C 1.01317 0.58064 0.36127
 C439 C 1.00206 0.56079 0.30043
 C440 C 1.00148 0.53669 0.27954
 H441 H 0.98522 0.62940 0.29094
 H442 H 0.98609 0.67615 0.33619
 H443 H 1.02092 0.60012 0.41393
 H444 H 1.02061 0.55396 0.36843
 C445 C 1.09335 0.50029 0.17723
 C446 C 1.10980 0.46887 0.16718
 C447 C 1.13617 0.46911 0.14130
 C448 C 1.14661 0.50095 0.12460
 C449 C 1.13010 0.53256 0.13586
 C450 C 1.10379 0.53213 0.16179
 C451 C 1.06454 0.49968 0.20204
 C452 C 1.03968 0.49922 0.22195
 H453 H 1.10164 0.44398 0.17875
 H454 H 1.14670 0.44381 0.13333
 H455 H 1.13782 0.55803 0.12550
 H456 H 1.09137 0.55670 0.16958
 C457 C 0.67804 -0.00095 0.59338
 C458 C 0.66861 -0.03274 0.60976
 C459 C 0.64291 -0.03304 0.63633
 C460 C 0.62626 -0.00151 0.64681
 C461 C 0.63642 0.03039 0.63059
 C462 C 0.66210 0.03062 0.60404
 C463 C 0.70264 -0.00090 0.56437
 C464 C 0.72236 -0.00066 0.53937
 H465 H 0.68075 -0.05735 0.60166
 H466 H 0.63597 -0.05794 0.64859
 H467 H 0.62375 0.05503 0.63766
 H468 H 0.66901 0.05534 0.59135
 C469 C -0.09397 0.50049 0.82246
 C470 C -0.11024 0.53225 0.83204
 C471 C -0.13654 0.53253 0.85799
 C472 C -0.14688 0.50099 0.87477
 C473 C -0.13083 0.46909 0.86445
 C474 C -0.10452 0.46889 0.83851
 C475 C -0.06514 0.50058 0.79768
 C476 C -0.04023 0.50081 0.77784
 H477 H -0.10222 0.55688 0.81983
 H478 H -0.14870 0.55743 0.86504
 H479 H -0.13783 0.44445 0.87719
 H480 H -0.09190 0.44419 0.83150
 C481 C 0.32282 -0.00015 0.40683
 C482 C 0.33271 -0.03211 0.39107
 C483 C 0.35860 -0.03253 0.36470
 C484 C 0.37498 -0.00093 0.35378
 C485 C 0.36436 0.03113 0.36936
 C486 C 0.33849 0.03147 0.39573
 C487 C 0.29805 0.00005 0.43568
 C488 C 0.27822 0.00036 0.46060
 H489 H 0.32079 -0.05676 0.39952
 H490 H 0.36588 -0.05757 0.35291
 H491 H 0.37679 0.05583 0.36193
 H492 H 0.33122 0.05633 0.40795
 C493 C 0.09105 0.50053 0.82333
 C494 C 0.10666 0.46850 0.83306
 C495 C 0.13315 0.46790 0.85896
 C496 C 0.14435 0.49938 0.87552
 C497 C 0.12889 0.53152 0.86510
 C498 C 0.10240 0.53204 0.83921
 C499 C 0.06220 0.50089 0.79841
 C500 C 0.03736 0.50118 0.77836
 H501 H 0.09802 0.44394 0.82096
 H502 H 0.14483 0.44281 0.86609
 H503 H 0.13655 0.55613 0.87767
 H504 H 0.09031 0.55696 0.83206
 C505 C 0.67696 0.00111 0.40789
 C506 C 0.66750 0.03285 0.39153
 C507 C 0.64167 0.03302 0.36494
 C508 C 0.62494 0.00140 0.35441
 C509 C 0.63508 -0.03044 0.37066
 C510 C 0.66088 -0.03054 0.39722
 C511 C 0.70184 0.00112 0.43678
 C512 C 0.72185 0.00086 0.46167
 H513 H 0.67975 0.05752 0.39963
 H514 H 0.63475 0.05789 0.35266
 H515 H 0.62235 -0.05515 0.36355
 H516 H 0.66782 -0.05523 0.40990
 C517 C 0.90815 0.49981 0.17720
 C518 C 0.89144 0.46810 0.16773
 C519 C 0.86488 0.46789 0.14189
 C520 C 0.85472 0.49946 0.12513
 C521 C 0.87127 0.53129 0.13530
 C522 C 0.89783 0.53143 0.16113
 C523 C 0.93711 0.49967 0.20200
 C524 C 0.96207 0.49943 0.22192
 H525 H 0.89927 0.44346 0.17997
 H526 H 0.85235 0.44304 0.13495
 H527 H 0.86443 0.55595 0.12257
 H528 H 0.91078 0.55609 0.16807
 C529 C 0.32379 0.00030 0.59183
 C530 C 0.33418 0.03209 0.60783
 C531 C 0.36020 0.03216 0.63421
 C532 C 0.37621 0.00040 0.64491
 C533 C 0.36511 -0.03149 0.62910
 C534 C 0.33910 -0.03150 0.60270
 C535 C 0.29881 0.00050 0.56303
 C536 C 0.27873 0.00071 0.53821
 H537 H 0.32253 0.05686 0.59957
 H538 H 0.36785 0.05707 0.64619
 H539 H 0.37724 -0.05631 0.63638
 H540 H 0.33143 -0.05622 0.59031
   
