data_POSCAR
  _audit_creation_date              2014-09-24
  _audit_creation_method            'ToBaCCo'
  _symmetry_space_group_name_H-M    'P1'
  _symmetry_Int_Tables_number       1
  _symmetry_cell_setting            triclinic
  loop_
  _symmetry_equiv_pos_as_xyz
 x,y,z
_cell_length_a 34.0429
_cell_length_b 34.0820
_cell_length_c 36.6305
_cell_angle_alpha 91.735300
_cell_angle_beta 89.843000
_cell_angle_gamma 90.382100
loop_
  _atom_site_label
  _atom_site_type_symbol
  _atom_site_fract_x
  _atom_site_fract_y
  _atom_site_fract_z
N1 N 0.16060 0.15771 0.17415
 N2 N -0.15235 0.83748 0.16307
 N3 N -0.20167 0.19875 -0.19988
 N4 N 0.16006 0.83271 -0.18129
 N5 N 0.16540 1.15651 0.83066
 N6 N 0.84964 0.83578 0.83078
 N7 N 0.14143 0.85029 1.15407
 N8 N 0.82336 1.18537 1.19395
 O9 O 0.45298 1.07078 1.06369
 O10 O 0.40688 1.03329 1.03274
 C11 C 0.41689 1.06164 1.05534
 O12 O 0.56041 1.05426 0.93264
 O13 O 0.60162 1.01734 0.96700
 C14 C 0.59500 1.04179 0.94129
 O15 O 0.45119 1.06571 0.93947
 O16 O 0.40566 1.03017 0.97129
 C17 C 0.41532 1.05719 0.94869
 O18 O 0.56350 1.05850 1.06759
 O19 O 0.60317 1.01893 1.03176
 C20 C 0.59773 1.04452 1.05809
 Zr21 Zr 0.50635 1.04386 1.04685
 O22 O 0.51496 1.10535 1.04539
 O23 O 0.50189 1.04720 1.10452
 Zr24 Zr 0.50491 1.03997 0.95504
 O25 O 0.51155 1.10171 0.95827
 O26 O 0.49986 1.03975 0.89749
 O27 O 0.47094 1.05130 1.00130
 O28 O 0.54061 1.04687 1.00042
 O29 O 0.55311 0.92582 1.06981
 O30 O 0.59826 0.95539 1.03299
 C31 C 0.58893 0.93347 1.06005
 O32 O 0.44293 0.91897 0.94130
 O33 O 0.40175 0.96161 0.97212
 C34 C 0.40828 0.93155 0.95037
 O35 O 0.55260 0.91743 0.93527
 O36 O 0.59824 0.95247 0.96879
 C37 C 0.58863 0.92615 0.94406
 O38 O 0.44363 0.92594 1.06541
 O39 O 0.40231 0.96507 1.03354
 C40 C 0.40890 0.93764 1.05648
 Zr41 Zr 0.49951 0.94482 1.04772
 O42 O 0.50108 0.88266 1.04735
 O43 O 0.49458 0.94645 1.10535
 Zr44 Zr 0.49896 0.94101 0.95550
 O45 O 0.49961 0.87895 0.95271
 O46 O 0.49353 0.94195 0.89793
 Zr47 Zr 0.44375 0.99556 1.00188
 Zr48 Zr 0.56080 0.98870 1.00057
 O49 O 0.53288 0.93355 1.00145
 O50 O 0.46388 0.93713 1.00205
 O51 O 0.53768 0.99250 1.05405
 O52 O 0.46757 0.99209 0.94884
 O53 O 0.46885 0.99664 1.05438
 O54 O 0.53676 0.98816 0.94761
 H55 H 0.56029 1.06843 1.00014
 H56 H 0.44929 0.99218 0.92783
 H57 H 0.54930 0.90969 1.00182
 H58 H 0.45133 0.99857 1.07598
 H59 H 0.51683 1.01845 0.88774
 H60 H 0.51897 0.95088 0.88790
 H61 H 0.48379 0.86981 0.97347
 H62 H 0.47711 0.87270 1.03489
 H63 H 0.51523 0.96445 1.11495
 H64 H 0.52262 1.03037 1.11441
 H65 H 0.49623 1.11540 1.02736
 H66 H 0.51125 1.11061 0.93278
 O67 O 0.07713 0.56353 -0.05403
 O68 O 0.04712 0.59933 -0.00804
 C69 C 0.06988 0.59641 -0.03628
 O70 O -0.06847 0.46408 -0.06745
 O71 O -0.03448 0.41193 -0.04568
 C72 C -0.06099 0.42687 -0.06646
 O73 O -0.05547 0.57173 -0.04799
 O74 O -0.01694 0.60356 -0.00505
 C75 C -0.04262 0.60334 -0.03113
 O76 O 0.07431 0.45402 -0.07322
 O77 O 0.03478 0.40749 -0.04756
 C78 C 0.06209 0.41814 -0.07001
 Zr79 Zr 0.05648 0.50557 -0.04381
 O80 O 0.05102 0.51565 -0.10022
 O81 O 0.11862 0.50605 -0.04679
 Zr82 Zr -0.04240 0.51213 -0.03879
 O83 O -0.04654 0.52145 -0.09546
 O84 O -0.10379 0.52020 -0.03270
 O85 O 0.00967 0.54432 -0.04086
 O86 O 0.00409 0.47676 -0.05489
 O87 O 0.07600 0.42599 0.05241
 O88 O 0.03467 0.39414 0.01184
 C89 C 0.06205 0.39432 0.03631
 O90 O -0.05045 0.54309 0.08492
 O91 O -0.01279 0.58985 0.05722
 C92 C -0.03671 0.57860 0.08233
 O93 O -0.06341 0.43575 0.05879
 O94 O -0.03263 0.39853 0.01407
 C95 C -0.05680 0.40269 0.04128
 O96 O 0.08337 0.53410 0.07752
 O97 O 0.05008 0.58522 0.05294
 C98 C 0.07555 0.57122 0.07502
 Zr99 Zr 0.05979 0.48563 0.04615
 O100 O 0.06321 0.46989 0.10154
 O101 O 0.12180 0.48543 0.04153
 Zr102 Zr -0.03983 0.49267 0.05068
 O103 O -0.04429 0.47864 0.10628
 O104 O -0.10126 0.50202 0.04989
 Zr105 Zr 0.01338 0.55558 0.01581
 Zr106 Zr 0.00360 0.44169 -0.00854
 O107 O 0.00735 0.45470 0.04794
 O108 O 0.01318 0.52129 0.06274
 O109 O 0.06274 0.46071 -0.00646
 O110 O -0.04538 0.53655 0.01351
 O111 O 0.06814 0.52839 0.00791
 O112 O -0.05171 0.46837 -0.00110
 H113 H 0.00229 0.46402 -0.07954
 H114 H -0.06624 0.55615 0.01860
 H115 H 0.00657 0.43325 0.06551
 H116 H 0.09233 0.54455 0.01034
 H117 H -0.11530 0.49493 -0.02525
 H118 H -0.11358 0.47903 0.03725
 H119 H -0.01713 0.47645 0.11537
 H120 H 0.04798 0.48944 0.11613
 H121 H 0.12910 0.46278 0.02548
 H122 H 0.12786 0.48239 -0.03452
 H123 H 0.07813 0.51665 -0.11007
 H124 H -0.02227 0.53540 -0.10258
 O125 O 1.06231 -0.07052 0.44047
 O126 O 1.02460 -0.03139 0.40482
 C127 C 1.05087 -0.05828 0.40905
 O128 O 0.92576 -0.06921 0.55084
 O129 O 0.96774 -0.03791 0.59121
 C130 C 0.93830 -0.06114 0.58374
 O131 O 0.92516 -0.06997 0.44815
 O132 O 0.95914 -0.03094 0.40897
 C133 C 0.93414 -0.05873 0.41558
 O134 O 1.07255 -0.07256 0.54201
 O135 O 1.03599 -0.04105 0.58638
 C136 C 1.06348 -0.06495 0.57592
 Zr137 Zr 1.04499 -0.05322 0.49403
 O138 O 1.03687 -0.11492 0.49354
 O139 O 1.10606 -0.06231 0.48813
 Zr140 Zr 0.94637 -0.04974 0.49966
 O141 O 0.94358 -0.11181 0.49992
 O142 O 0.88422 -0.04719 0.49835
 O143 O 0.99362 -0.05723 0.46367
 O144 O 0.99730 -0.06051 0.52814
 O145 O 1.07686 0.05898 0.55243
 O146 O 1.03867 0.02420 0.59206
 C147 C 1.06755 0.04771 0.58490
 O148 O 0.92909 0.07408 0.45867
 O149 O 0.96095 0.03839 0.41366
 C150 C 0.93643 0.06538 0.42456
 O151 O 0.93263 0.06641 0.56093
 O152 O 0.97174 0.02754 0.59528
 C153 C 0.94547 0.05442 0.59211
 O154 O 1.06735 0.06921 0.45122
 O155 O 1.02754 0.03619 0.41011
 C156 C 1.05541 0.06114 0.41819
 Zr157 Zr 1.04943 0.04602 0.50151
 O158 O 1.04982 0.10768 0.51054
 O159 O 1.11116 0.04670 0.49449
 Zr160 Zr 0.95046 0.04919 0.50692
 O161 O 0.95343 0.11090 0.51500
 O162 O 0.88833 0.05084 0.50674
 Zr163 Zr 0.99489 0.00124 0.44612
 Zr164 Zr 1.00120 -0.00497 0.55452
 O165 O 1.00223 0.05298 0.53631
 O166 O 0.99843 0.05718 0.47215
 O167 O 1.05697 -0.00567 0.52941
 O168 O 0.93950 0.00161 0.47188
 O169 O 1.05275 -0.00201 0.46600
 O170 O 0.94265 -0.00178 0.53616
 H171 H 0.99735 -0.08406 0.54339
 H172 H 0.91561 0.00279 0.45659
 H173 H 1.00460 0.07500 0.55445
 H174 H 1.07528 -0.00160 0.44884
 H175 H 0.87557 -0.03173 0.52017
 H176 H 0.87891 0.03517 0.52734
 H177 H 0.96886 0.12148 0.49455
 H178 H 1.03661 0.11943 0.48952
 H179 H 1.12209 0.02624 0.51006
 H180 H 1.11842 -0.03603 0.48777
 H181 H 1.02768 -0.12323 0.46886
 H182 H 0.95978 -0.12187 0.47929
 C183 C 1.15226 0.14139 0.23844
 C184 C 1.12952 0.12632 0.26684
 C185 C 1.09195 0.11003 0.25928
 C186 C 1.07747 0.11000 0.22343
 C187 C 1.10002 0.12590 0.19546
 C188 C 1.13757 0.14128 0.20281
 C189 C 1.06953 0.09425 0.28764
 C190 C 1.08396 0.09516 0.32356
 C191 C 1.12108 0.11247 0.33107
 C192 C 1.14371 0.12760 0.30269
 C193 C 1.13519 0.11425 0.36691
 C194 C 1.11316 0.09849 0.39509
 C195 C 1.07664 0.08026 0.38808
 C196 C 1.06204 0.07892 0.35212
 H197 H 1.18114 0.15374 0.24390
 H198 H 1.04869 0.09792 0.21709
 H199 H 1.08848 0.12598 0.16794
 H200 H 1.04091 0.08139 0.28180
 H201 H 1.17232 0.14048 0.30854
 H202 H 1.16349 0.12756 0.37313
 H203 H 1.12534 0.09983 0.42238
 H204 H 1.03386 0.06513 0.34632
 C205 C 0.85872 -0.15404 0.22903
 C206 C 0.87567 -0.13348 0.25880
 C207 C 0.90222 -0.10222 0.25260
 C208 C 0.91114 -0.09200 0.21668
 C209 C 0.89337 -0.11211 0.18724
 C210 C 0.86720 -0.14315 0.19328
 C211 C 0.91892 -0.08137 0.28236
 C212 C 0.90893 -0.09095 0.31821
 C213 C 0.88217 -0.12201 0.32433
 C214 C 0.86593 -0.14323 0.29462
 C215 C 0.87206 -0.13135 0.36014
 C216 C 0.88847 -0.11034 0.38970
 C217 C 0.91538 -0.07958 0.38406
 C218 C 0.92531 -0.06997 0.34807
 H219 H 0.83807 -0.17779 0.23345
 H220 H 0.93134 -0.06812 0.21141
 H221 H 0.89993 -0.10353 0.15966
 H222 H 0.93938 -0.05750 0.27761
 H223 H 0.84546 -0.16708 0.29935
 H224 H 0.85159 -0.15503 0.36532
 H225 H 0.88028 -0.11849 0.41704
 H226 H 0.94603 -0.04642 0.34320
 C227 C 0.84775 0.16397 0.76246
 C228 C 0.85985 0.14696 0.72900
 C229 C 0.83600 0.15018 0.69768
 C230 C 0.79987 0.16964 0.70074
 C231 C 0.78753 0.18550 0.73450
 C232 C 0.81150 0.18305 0.76541
 C233 C 0.84842 0.13350 0.66406
 C234 C 0.88383 0.11263 0.66166
 C235 C 0.90690 0.10852 0.69342
 C236 C 0.89510 0.12616 0.72664
 C237 C 0.94128 0.08639 0.69165
 C238 C 0.95291 0.06847 0.65880
 C239 C 0.93108 0.07306 0.62663
 C240 C 0.89641 0.09532 0.62824
 H241 H 0.86596 0.16146 0.78648
 H242 H 0.78100 0.17218 0.67718
 H243 H 0.75937 0.20000 0.73657
 H244 H 0.83031 0.13629 0.63997
 H245 H 0.91309 0.12318 0.75081
 H246 H 0.95908 0.08260 0.71577
 H247 H 0.97944 0.05115 0.65865
 H248 H 0.87905 0.09868 0.60378
 C249 C 1.15603 -0.14698 0.75509
 C250 C 1.13426 -0.13291 0.72584
 C251 C 1.09440 -0.12258 0.73128
 C252 C 1.07679 -0.12740 0.76551
 C253 C 1.09847 -0.14230 0.79416
 C254 C 1.13812 -0.15179 0.78914
 C255 C 1.07274 -0.10771 0.70244
 C256 C 1.09016 -0.10362 0.66806
 C257 C 1.12960 -0.11500 0.66222
 C258 C 1.15154 -0.12929 0.69127
 C259 C 1.14641 -0.11168 0.62741
 C260 C 1.12457 -0.09649 0.59886
 C261 C 1.08580 -0.08398 0.60485
 C262 C 1.06870 -0.08804 0.63947
 H263 H 1.18661 -0.15485 0.75143
 H264 H 1.04625 -0.11986 0.77004
 H265 H 1.08458 -0.14617 0.82044
 H266 H 1.04233 -0.09936 0.70674
 H267 H 1.18194 -0.13763 0.68697
 H268 H 1.17651 -0.12049 0.62236
 H269 H 1.13834 -0.09352 0.57239
 H270 H 1.03863 -0.07889 0.64425
 C271 C 0.22780 1.15345 1.14906
 C272 C 0.25800 1.13210 1.13166
 C273 C 0.25153 1.09237 1.12093
 C274 C 0.21535 1.07446 1.12862
 C275 C 0.18576 1.09573 1.14663
 C276 C 0.19156 1.13544 1.15666
 C277 C 0.28134 1.07114 1.10287
 C278 C 0.31789 1.08883 1.09617
 C279 C 0.32474 1.12822 1.10778
 C280 C 0.29461 1.14975 1.12507
 C281 C 0.36177 1.14532 1.10214
 C282 C 0.39180 1.12358 1.08528
 C283 C 0.38509 1.08464 1.07309
 C284 C 0.34790 1.06755 1.07842
 H285 H 0.23252 1.18397 1.15716
 H286 H 0.20997 1.04400 1.12075
 H287 H 0.15800 1.08139 1.15212
 H288 H 0.27623 1.04079 1.09435
 H289 H 0.29977 1.18007 1.13369
 H290 H 0.36762 1.17540 1.11100
 H291 H 0.42020 1.13737 1.08139
 H292 H 0.34255 1.03742 1.06943
 C293 C 0.22315 0.83823 0.85147
 C294 C 0.25202 0.86054 0.86987
 C295 C 0.24789 0.90169 0.87401
 C296 C 0.21488 0.91978 0.85927
 C297 C 0.18625 0.89728 0.84079
 C298 C 0.18997 0.85625 0.83694
 C299 C 0.27696 0.92397 0.89250
 C300 C 0.31040 0.90557 0.90625
 C301 C 0.31443 0.86438 0.90166
 C302 C 0.28511 0.84218 0.88388
 C303 C 0.34812 0.84596 0.91435
 C304 C 0.37813 0.86813 0.93063
 C305 C 0.37473 0.90901 0.93525
 C306 C 0.34041 0.92763 0.92371
 H307 H 0.22659 0.80673 0.84817
 H308 H 0.21121 0.95129 0.86201
 H309 H 0.16088 0.91189 0.82995
 H310 H 0.27384 0.95554 0.89569
 H311 H 0.28834 0.81062 0.88047
 H312 H 0.35159 0.81447 0.91107
 H313 H 0.40424 0.85324 0.93961
 H314 H 0.33778 0.95919 0.92706
 C315 C 0.78118 0.86322 1.15764
 C316 C 0.75120 0.87831 1.13621
 C317 C 0.75984 0.89133 1.10073
 C318 C 0.79849 0.88904 1.08743
 C319 C 0.82788 0.87253 1.10854
 C320 C 0.81919 0.85929 1.14349
 C321 C 0.72954 0.90520 1.07880
 C322 C 0.69062 0.90510 1.09153
 C323 C 0.68211 0.89175 1.12690
 C324 C 0.71250 0.87894 1.14917
 C325 C 0.64323 0.89101 1.13936
 C326 C 0.61294 0.90361 1.11714
 C327 C 0.62098 0.91746 1.08212
 C328 C 0.65998 0.91789 1.06938
 H329 H 0.77469 0.85221 1.18447
 H330 H 0.80565 0.89873 1.06030
 H331 H 0.85721 0.86916 1.09743
 H332 H 0.73609 0.91520 1.05160
 H333 H 0.70589 0.86860 1.17624
 H334 H 0.63623 0.88080 1.16636
 H335 H 0.58323 0.90325 1.12776
 H336 H 0.66654 0.92833 1.04235
 C337 C 0.76065 1.14546 0.82715
 C338 C 0.72751 1.13215 0.84599
 C339 C 0.69549 1.15772 0.85250
 C340 C 0.69754 1.19640 0.84047
 C341 C 0.73127 1.20973 0.82274
 C342 C 0.76278 1.18431 0.81594
 C343 C 0.66241 1.14449 0.87161
 C344 C 0.66153 1.10647 0.88529
 C345 C 0.69403 1.08133 0.87946
 C346 C 0.72648 1.09409 0.85934
 C347 C 0.69378 1.04394 0.89427
 C348 C 0.66176 1.03160 0.91485
 C349 C 0.62902 1.05589 0.92028
 C350 C 0.62894 1.09331 0.90520
 H351 H 0.78552 1.12625 0.82238
 H352 H 0.67351 1.21654 0.84551
 H353 H 0.73307 1.23992 0.81447
 H354 H 0.63776 1.16399 0.87645
 H355 H 0.75126 1.07469 0.85473
 H356 H 0.71844 1.02434 0.89015
 H357 H 0.66230 1.00271 0.92607
 H358 H 0.60389 1.11239 0.90957
 C359 C 0.13742 0.20130 0.12684
 C360 C 0.12749 0.23877 0.11523
 C361 C 0.13327 0.27190 0.13889
 C362 C 0.14783 0.26670 0.17421
 C363 C 0.15639 0.22906 0.18595
 C364 C 0.15152 0.19632 0.16225
 C365 C 0.12381 0.30949 0.12707
 C366 C 0.10713 0.31415 0.09246
 C367 C 0.10004 0.28073 0.06948
 C368 C 0.11102 0.24343 0.08066
 C369 C 0.08102 0.28496 0.03606
 C370 C 0.06868 0.32184 0.02557
 C371 C 0.07675 0.35562 0.04739
 C372 C 0.09629 0.35151 0.08085
 H373 H 0.13342 0.17579 0.10880
 H374 H 0.15211 0.29165 0.19285
 H375 H 0.16724 0.22539 0.21339
 H376 H 0.12857 0.33492 0.14507
 H377 H 0.10583 0.21793 0.06284
 H378 H 0.07467 0.25955 0.01848
 H379 H 0.05218 0.32365 0.00052
 H380 H 0.10166 0.37711 0.09848
 C381 C -0.17230 0.26267 -0.18365
 C382 C -0.14968 0.28680 -0.16008
 C383 C -0.12971 0.27027 -0.13044
 C384 C -0.13304 0.22987 -0.12477
 C385 C -0.15643 0.20627 -0.14787
 C386 C -0.17605 0.22256 -0.17737
 C387 C -0.10738 0.29446 -0.10662
 C388 C -0.10552 0.33509 -0.11158
 C389 C -0.12599 0.35154 -0.14094
 C390 C -0.14751 0.32728 -0.16522
 C391 C -0.12496 0.39214 -0.14540
 C392 C -0.10408 0.41637 -0.12094
 C393 C -0.08333 0.40050 -0.09174
 C394 C -0.08392 0.35964 -0.08741
 H395 H -0.18799 0.27505 -0.20625
 H396 H -0.11812 0.21670 -0.10215
 H397 H -0.15937 0.17526 -0.14282
 H398 H -0.09204 0.28178 -0.08393
 H399 H -0.16310 0.34000 -0.18773
 H400 H -0.14050 0.40521 -0.16773
 H401 H -0.10387 0.44767 -0.12522
 H402 H -0.06797 0.34700 -0.06512
 C403 C 0.14350 0.78770 -0.13216
 C404 C 0.13357 0.75019 -0.12030
 C405 C 0.13106 0.71827 -0.14581
 C406 C 0.13826 0.72464 -0.18289
 C407 C 0.14756 0.76228 -0.19455
 C408 C 0.15042 0.79397 -0.16927
 C409 C 0.12075 0.68076 -0.13391
 C410 C 0.11177 0.67507 -0.09700
 C411 C 0.11391 0.70729 -0.07173
 C412 C 0.12536 0.74439 -0.08341
 C413 C 0.10334 0.70226 -0.03528
 C414 C 0.08970 0.66600 -0.02405
 C415 C 0.08762 0.63350 -0.04861
 C416 C 0.09936 0.63808 -0.08508
 H417 H 0.14522 0.81229 -0.11275
 H418 H 0.13637 0.70064 -0.20290
 H419 H 0.15292 0.76671 -0.22328
 H420 H 0.11880 0.65629 -0.15347
 H421 H 0.12693 0.76897 -0.06392
 H422 H 0.10444 0.72669 -0.01566
 H423 H 0.07995 0.66371 0.00392
 H424 H 0.09711 0.61347 -0.10444
 C425 C -0.11286 0.77674 0.16388
 C426 C -0.10733 0.73716 0.15351
 C427 C -0.13776 0.71605 0.13528
 C428 C -0.17352 0.73445 0.12870
 C429 C -0.17857 0.77390 0.13854
 C430 C -0.14813 0.79579 0.15564
 C431 C -0.13144 0.67747 0.12243
 C432 C -0.09452 0.66023 0.12623
 C433 C -0.06434 0.68093 0.14533
 C434 C -0.07121 0.71895 0.15949
 C435 C -0.02701 0.66421 0.14793
 C436 C -0.01887 0.62881 0.12942
 C437 C -0.04824 0.60900 0.10922
 C438 C -0.08643 0.62388 0.10889
 H439 H -0.08909 0.79319 0.17684
 H440 H -0.19721 0.71866 0.11495
 H441 H -0.20633 0.78730 0.13221
 H442 H -0.15456 0.66168 0.10776
 H443 H -0.04781 0.73509 0.17343
 H444 H -0.00353 0.67958 0.16242
 H445 H 0.01087 0.61777 0.12938
 H446 H -0.10877 0.60897 0.09249
 C447 C 1.16249 0.12830 0.76880
 C448 C 1.14050 0.11677 0.73782
 C449 C 1.09938 0.12234 0.73774
 C450 C 1.08114 0.14042 0.76801
 C451 C 1.10318 0.15237 0.79843
 C452 C 1.14414 0.14598 0.79977
 C453 C 1.07706 0.10970 0.70747
 C454 C 1.09539 0.09217 0.67688
 C455 C 1.13669 0.08781 0.67627
 C456 C 1.15896 0.09981 0.70689
 C457 C 1.15495 0.07153 0.64496
 C458 C 1.13245 0.05933 0.61475
 C459 C 1.09140 0.06247 0.61576
 C460 C 1.07303 0.07900 0.64680
 H461 H 1.19403 0.12415 0.76858
 H462 H 1.04968 0.14508 0.76832
 H463 H 1.08774 0.16534 0.82165
 H464 H 1.04544 0.11355 0.70769
 H465 H 1.19056 0.09595 0.70664
 H466 H 1.18657 0.06819 0.64388
 H467 H 1.14696 0.04655 0.59092
 H468 H 1.04138 0.08206 0.64722
 C469 C 0.85198 -0.14392 0.76707
 C470 C 0.87244 -0.12786 0.73766
 C471 C 0.91087 -0.11267 0.74305
 C472 C 0.92837 -0.11445 0.77760
 C473 C 0.90807 -0.13132 0.80646
 C474 C 0.86982 -0.14587 0.80138
 C475 C 0.93127 -0.09629 0.71378
 C476 C 0.91405 -0.09555 0.67902
 C477 C 0.87600 -0.11156 0.67352
 C478 C 0.85532 -0.12728 0.70292
 C479 C 0.85926 -0.11166 0.63862
 C480 C 0.87982 -0.09583 0.60944
 C481 C 0.91738 -0.07919 0.61461
 C482 C 0.93433 -0.07920 0.64962
 H483 H 0.82259 -0.15575 0.76329
 H484 H 0.95785 -0.10320 0.78218
 H485 H 0.92203 -0.13301 0.83288
 H486 H 0.96062 -0.08440 0.71797
 H487 H 0.82605 -0.13934 0.69868
 H488 H 0.83022 -0.12395 0.63389
 H489 H 0.86597 -0.09609 0.58284
 H490 H 0.96333 -0.06666 0.65403
 C491 C 1.13751 -0.13187 0.21931
 C492 C 1.11605 -0.11925 0.25010
 C493 C 1.07555 -0.11094 0.24685
 C494 C 1.05702 -0.11677 0.21289
 C495 C 1.07854 -0.13033 0.18249
 C496 C 1.11891 -0.13740 0.18550
 C497 C 1.05441 -0.09699 0.27754
 C498 C 1.07313 -0.09217 0.31153
 C499 C 1.11330 -0.10198 0.31479
 C500 C 1.13454 -0.11497 0.28405
 C501 C 1.13175 -0.09864 0.34883
 C502 C 1.11081 -0.08536 0.37941
 C503 C 1.07126 -0.07442 0.37646
 C504 C 1.05246 -0.07782 0.34238
 H505 H 1.16865 -0.13778 0.22150
 H506 H 1.02598 -0.11084 0.20987
 H507 H 1.06402 -0.13456 0.15641
 H508 H 1.02348 -0.09009 0.27501
 H509 H 1.16546 -0.12193 0.28658
 H510 H 1.16242 -0.10620 0.35180
 H511 H 1.12597 -0.08265 0.40535
 H512 H 1.02187 -0.06965 0.34001
 C513 C 0.83309 0.16265 0.25632
 C514 C 0.85553 0.14279 0.28198
 C515 C 0.88886 0.12111 0.27036
 C516 C 0.89933 0.12007 0.23326
 C517 C 0.87735 0.14075 0.20808
 C518 C 0.84419 0.16204 0.21946
 C519 C 0.91141 0.10132 0.29605
 C520 C 0.90143 0.10348 0.33332
 C521 C 0.86849 0.12578 0.34482
 C522 C 0.84561 0.14495 0.31912
 C523 C 0.85894 0.12876 0.38197
 C524 C 0.88151 0.10963 0.40760
 C525 C 0.91405 0.08680 0.39673
 C526 C 0.92387 0.08390 0.35933
 H527 H 0.80774 0.17965 0.26500
 H528 H 0.92481 0.10377 0.22381
 H529 H 0.88618 0.14037 0.17966
 H530 H 0.93687 0.08461 0.28711
 H531 H 0.82029 0.16186 0.32809
 H532 H 0.83393 0.14589 0.39125
 H533 H 0.87295 0.11233 0.43606
 H534 H 0.94889 0.06652 0.35049
 C535 C 0.14513 0.22453 -0.16402
 C536 C 0.13239 0.25671 -0.14235
 C537 C 0.12679 0.25238 -0.10439
 C538 C 0.13568 0.21664 -0.08851
 C539 C 0.14972 0.18526 -0.10999
 C540 C 0.15390 0.18844 -0.14808
 C541 C 0.11226 0.28376 -0.08289
 C542 C 0.10409 0.31976 -0.09868
 C543 C 0.11131 0.32484 -0.13628
 C544 C 0.12513 0.29312 -0.15798
 C545 C 0.10430 0.36155 -0.15143
 C546 C 0.08927 0.39252 -0.12972
 C547 C 0.08053 0.38698 -0.09278
 C548 C 0.08863 0.35078 -0.07738
 H549 H 0.14903 0.22760 -0.19318
 H550 H 0.13160 0.21286 -0.05947
 H551 H 0.15569 0.15774 -0.09709
 H552 H 0.10717 0.28013 -0.05391
 H553 H 0.13014 0.29675 -0.18695
 H554 H 0.11013 0.36620 -0.18010
 H555 H 0.08344 0.42044 -0.14194
 H556 H 0.08314 0.34695 -0.04865
 C557 C -0.15369 0.22530 0.14305
 C558 C -0.13599 0.25948 0.13000
 C559 C -0.12347 0.28937 0.15508
 C560 C -0.12797 0.28411 0.19270
 C561 C -0.14493 0.24968 0.20541
 C562 C -0.15824 0.22031 0.18074
 C563 C -0.10654 0.32393 0.14219
 C564 C -0.10117 0.32868 0.10460
 C565 C -0.11262 0.29836 0.07955
 C566 C -0.13038 0.26413 0.09239
 C567 C -0.10575 0.30271 0.04208
 C568 C -0.08758 0.33670 0.02958
 C569 C -0.07687 0.36725 0.05420
 C570 C -0.08393 0.36312 0.09169
 H571 H -0.16357 0.20230 0.12409
 H572 H -0.11834 0.30660 0.21229
 H573 H -0.14835 0.24612 0.23452
 H574 H -0.09727 0.34697 0.16140
 H575 H -0.13952 0.24102 0.07318
 H576 H -0.11404 0.27970 0.02248
 H577 H -0.08217 0.33930 0.00062
 H578 H -0.07496 0.38628 0.11091
 C579 C -0.12695 0.79261 -0.12140
 C580 C -0.11368 0.75597 -0.11030
 C581 C -0.11260 0.72391 -0.13574
 C582 C -0.12422 0.72928 -0.17197
 C583 C -0.13645 0.76614 -0.18295
 C584 C -0.13807 0.79789 -0.15775
 C585 C -0.09948 0.68720 -0.12469
 C586 C -0.08648 0.68240 -0.08879
 C587 C -0.08684 0.71467 -0.06358
 C588 C -0.10090 0.75111 -0.07436
 C589 C -0.07272 0.71004 -0.02806
 C590 C -0.05815 0.67386 -0.01763
 C591 C -0.05813 0.64148 -0.04231
 C592 C -0.07257 0.64592 -0.07784
 H593 H -0.12776 0.81735 -0.10211
 H594 H -0.12350 0.70510 -0.19185
 H595 H -0.14504 0.76994 -0.21105
 H596 H -0.09888 0.66256 -0.14413
 H597 H -0.10137 0.77579 -0.05496
 H598 H -0.07265 0.73447 -0.00842
 H599 H -0.04724 0.67109 0.00993
 H600 H -0.07220 0.62122 -0.09720
 C601 C 0.12619 0.77903 0.15510
 C602 C 0.12330 0.74224 0.13674
 C603 C 0.12767 0.73996 0.09829
 C604 C 0.13425 0.77412 0.07885
 C605 C 0.13720 0.81033 0.09726
 C606 C 0.13372 0.81317 0.13544
 C607 C 0.12505 0.70365 0.07968
 C608 C 0.11685 0.66958 0.09870
 C609 C 0.11243 0.67135 0.13707
 C610 C 0.11627 0.70773 0.15600
 C611 C 0.10261 0.63690 0.15542
 C612 C 0.09422 0.60196 0.13555
 C613 C 0.09662 0.60102 0.09732
 C614 C 0.11031 0.63419 0.07944
 H615 H 0.12382 0.78100 0.18460
 H616 H 0.13742 0.77280 0.04939
 H617 H 0.14291 0.83633 0.08177
 H618 H 0.12819 0.70210 0.05019
 H619 H 0.11277 0.70932 0.18544
 H620 H 0.09912 0.63759 0.18483
 H621 H 0.08307 0.57676 0.14972
 H622 H 0.11257 0.63316 0.04993
 C623 C 0.22924 1.15205 0.85942
 C624 C 0.25992 1.12954 0.87305
 C625 C 0.25779 1.08815 0.87031
 C626 C 0.22562 1.07007 0.85269
 C627 C 0.19550 1.09272 0.83848
 C628 C 0.19644 1.13409 0.84210
 C629 C 0.28780 1.06556 0.88527
 C630 C 0.32035 1.08395 0.90215
 C631 C 0.32312 1.12542 0.90352
 C632 C 0.29271 1.14791 0.88937
 C633 C 0.35638 1.14378 0.91897
 C634 C 0.38661 1.12132 0.93307
 C635 C 0.38364 1.08026 0.93279
 C636 C 0.35039 1.06164 0.91742
 H637 H 0.23106 1.18380 0.86184
 H638 H 0.22356 1.03836 0.85017
 H639 H 0.17053 1.07772 0.82610
 H640 H 0.28590 1.03378 0.88362
 H641 H 0.29465 1.17970 0.89092
 H642 H 0.35908 1.17549 0.92004
 H643 H 0.41206 1.13605 0.94491
 H644 H 0.34835 1.02989 0.91676
 C645 C 0.21151 0.85511 1.13860
 C646 C 0.24353 0.87594 1.12480
 C647 C 0.23907 0.91561 1.11542
 C648 C 0.20273 0.93406 1.12129
 C649 C 0.17091 0.91300 1.13529
 C650 C 0.17494 0.87322 1.14329
 C651 C 0.27081 0.93586 1.09996
 C652 C 0.30695 0.91694 1.09417
 C653 C 0.31146 0.87762 1.10471
 C654 C 0.27973 0.85737 1.11974
 C655 C 0.34765 0.85895 1.09989
 C656 C 0.37921 0.87887 1.08459
 C657 C 0.37507 0.91766 1.07328
 C658 C 0.33873 0.93657 1.07802
 H659 H 0.21463 0.82448 1.14516
 H660 H 0.19878 0.96450 1.11451
 H661 H 0.14277 0.92728 1.13876
 H662 H 0.26731 0.96610 1.09226
 H663 H 0.28314 0.82704 1.12728
 H664 H 0.35156 0.82889 1.10793
 H665 H 0.40681 0.86359 1.08102
 H666 H 0.33532 0.96652 1.06955
 C667 C 0.77884 1.13482 1.16730
 C668 C 0.74297 1.12418 1.15080
 C669 C 0.71259 1.15212 1.14843
 C670 C 0.71877 1.19033 1.16262
 C671 C 0.75495 1.20096 1.17810
 C672 C 0.78529 1.17340 1.18043
 C673 C 0.67698 1.14168 1.13119
 C674 C 0.67181 1.10396 1.11532
 C675 C 0.70255 1.07632 1.11746
 C676 C 0.73753 1.08636 1.13563
 C677 C 0.69824 1.03916 1.10072
 C678 C 0.66416 1.02955 1.08148
 C679 C 0.63314 1.05642 1.07915
 C680 C 0.63688 1.09357 1.09665
 H681 H 0.80238 1.11365 1.16853
 H682 H 0.69594 1.21221 1.16104
 H683 H 0.75949 1.23085 1.18814
 H684 H 0.65373 1.16314 1.12937
 H685 H 0.76092 1.06501 1.13717
 H686 H 0.72148 1.01767 1.10203
 H687 H 0.66202 1.00071 1.06848
 H688 H 0.61324 1.11457 1.09485
 C689 C 0.78026 0.84133 0.84856
 C690 C 0.75008 0.86033 0.86825
 C691 C 0.75891 0.89388 0.89052
 C692 C 0.79754 0.90851 0.89175
 C693 C 0.82718 0.88991 0.87136
 C694 C 0.81877 0.85609 0.85003
 C695 C 0.72901 0.91227 0.91105
 C696 C 0.69019 0.89826 0.90877
 C697 C 0.68118 0.86557 0.88555
 C698 C 0.71126 0.84645 0.86587
 C699 C 0.64213 0.85270 0.88220
 C700 C 0.61215 0.87235 0.90122
 C701 C 0.62069 0.90471 0.92467
 C702 C 0.66008 0.91685 0.92890
 H703 H 0.77399 0.81524 0.83189
 H704 H 0.80482 0.93428 0.90849
 H705 H 0.85693 0.90128 0.87278
 H706 H 0.73585 0.93776 0.92839
 H707 H 0.70439 0.82107 0.84841
 H708 H 0.63469 0.82776 0.86445
 H709 H 0.58221 0.86206 0.89759
 H710 H 0.66736 0.94105 0.94752
   
