data_POSCAR
  _audit_creation_date              2014-09-24
  _audit_creation_method            'ToBaCCo'
  _symmetry_space_group_name_H-M    'P1'
  _symmetry_Int_Tables_number       1
  _symmetry_cell_setting            triclinic
  loop_
  _symmetry_equiv_pos_as_xyz
 x,y,z
_cell_length_a 55.6147
_cell_length_b 53.4471
_cell_length_c 21.9432
_cell_angle_alpha 90.273400
_cell_angle_beta 90.099100
_cell_angle_gamma 118.493600
loop_
  _atom_site_label
  _atom_site_type_symbol
  _atom_site_fract_x
  _atom_site_fract_y
  _atom_site_fract_z
C1 C 0.18149 0.47387 0.53132
 C2 C 0.18848 0.47387 0.46995
 C3 C 0.21619 0.48325 0.45508
 C4 C 0.23669 0.49469 0.50089
 C5 C 0.22907 0.49858 0.56005
 C6 C 0.20159 0.48668 0.57654
 C7 C 0.26580 0.50164 0.48939
 C8 C 0.28178 0.50002 0.53774
 C9 C 0.30948 0.50807 0.53039
 C10 C 0.32114 0.51597 0.47240
 C11 C 0.30533 0.51625 0.42243
 C12 C 0.27785 0.50940 0.43133
 H13 H 0.16020 0.46628 0.54299
 H14 H 0.22159 0.48095 0.40895
 H15 H 0.24449 0.50968 0.59466
 H16 H 0.27277 0.49240 0.58201
 H17 H 0.34206 0.52042 0.46550
 H18 H 0.26616 0.51049 0.39292
 C19 C 0.61039 -0.24713 0.51573
 C20 C 0.61130 -0.23598 0.45700
 C21 C 0.60529 -0.21329 0.45115
 C22 C 0.59541 -0.20402 0.50088
 C23 C 0.59227 -0.21762 0.55728
 C24 C 0.60069 -0.23819 0.56601
 C25 C 0.58657 -0.18165 0.49394
 C26 C 0.58581 -0.16581 0.54503
 C27 C 0.57393 -0.14791 0.54123
 C28 C 0.56501 -0.14360 0.48436
 C29 C 0.56685 -0.15791 0.43223
 C30 C 0.57729 -0.17704 0.43736
 H31 H 0.61520 -0.26415 0.52216
 H32 H 0.60758 -0.20351 0.40699
 H33 H 0.58294 -0.21247 0.59513
 H34 H 0.59376 -0.16779 0.58871
 H35 H 0.55733 -0.12849 0.48034
 H36 H 0.57713 -0.18892 0.39721
 C37 C 1.27328 0.82381 0.48869
 C38 C 1.25912 0.81019 0.43492
 C39 C 1.23322 0.78592 0.43993
 C40 C 1.22160 0.77484 0.49759
 C41 C 1.23655 0.78932 0.55015
 C42 C 1.26223 0.81329 0.54588
 C43 C 1.19432 0.74835 0.50371
 C44 C 1.18705 0.73266 0.55874
 C45 C 1.16073 0.70976 0.56763
 C46 C 1.14243 0.70038 0.51818
 C47 C 1.15040 0.71305 0.46077
 C48 C 1.17538 0.73803 0.45481
 H49 H 1.29289 0.84287 0.48694
 H50 H 1.22300 0.77515 0.39840
 H51 H 1.22834 0.78270 0.59529
 H52 H 1.20158 0.73823 0.59574
 H53 H 1.12260 0.68175 0.52255
 H54 H 1.18004 0.74847 0.41113
 C55 C 0.80416 0.48534 0.51265
 C56 C 0.78859 0.47477 0.45954
 C57 C 0.76112 0.46837 0.45956
 C58 C 0.74946 0.47485 0.51045
 C59 C 0.76571 0.48584 0.56355
 C60 C 0.79249 0.48965 0.56566
 C61 C 0.72032 0.46923 0.50767
 C62 C 0.70415 0.46375 0.56073
 C63 C 0.67636 0.45697 0.55645
 C64 C 0.66453 0.45395 0.49857
 C65 C 0.68031 0.46016 0.44572
 C66 C 0.70822 0.46879 0.45076
 H67 H 0.82512 0.48912 0.51347
 H68 H 0.74906 0.45839 0.41922
 H69 H 0.75756 0.49067 0.60396
 H70 H 0.71279 0.46379 0.60481
 H71 H 0.64324 0.44887 0.49488
 H72 H 0.72033 0.47501 0.40962
 C73 C 0.44538 0.30324 0.46656
 C74 C 0.44506 0.28570 0.41856
 C75 C 0.45153 0.26393 0.43032
 C76 C 0.45981 0.26023 0.48889
 C77 C 0.46023 0.27831 0.53646
 C78 C 0.45357 0.30025 0.52574
 C79 C 0.47061 0.23962 0.49860
 C80 C 0.46984 0.22771 0.55649
 C81 C 0.48281 0.21097 0.56654
 C82 C 0.49436 0.20404 0.51644
 C83 C 0.49350 0.21380 0.45809
 C84 C 0.48285 0.23255 0.44989
 H85 H 0.44005 0.31971 0.45652
 H86 H 0.45063 0.25035 0.39271
 H87 H 0.46762 0.27674 0.58118
 H88 H 0.45984 0.23200 0.59429
 H89 H 0.50238 0.18925 0.52135
 H90 H 0.48470 0.24186 0.40542
 C91 C 0.69086 0.15331 0.51099
 C92 C 0.70629 0.15786 0.45790
 C93 C 0.73421 0.17727 0.45917
 C94 C 0.74656 0.19395 0.51154
 C95 C 0.73077 0.18890 0.56484
 C96 C 0.70290 0.16863 0.56466
 C97 C 0.77514 0.21786 0.50804
 C98 C 0.79309 0.22633 0.55859
 C99 C 0.82010 0.24891 0.55401
 C100 C 0.82905 0.26229 0.49694
 C101 C 0.81122 0.25446 0.44697
 C102 C 0.78433 0.23295 0.45320
 H103 H 0.66946 0.13741 0.51067
 H104 H 0.74602 0.18013 0.41813
 H105 H 0.73966 0.20148 0.60560
 H106 H 0.78612 0.21531 0.60152
 H107 H 0.84914 0.28023 0.49109
 H108 H 0.77054 0.22811 0.41475
 N109 N 0.95464 0.49621 0.06147
 N110 N 0.93516 0.50317 0.07188
 N111 N 1.00911 0.50855 0.12503
 N112 N 1.02472 0.52019 0.17317
 N113 N 1.01076 0.52823 0.08699
 N114 N 1.02759 0.55392 0.10856
 N115 N 0.95284 0.47671 0.10020
 N116 N 0.93188 0.46960 0.13706
 C117 C 0.92079 0.48591 0.11823
 C118 C 1.03616 0.54838 0.16226
 N119 N 1.01896 0.44323 0.07491
 N120 N 1.04085 0.44058 0.08718
 N121 N 0.95771 0.42577 0.09325
 N122 N 0.93706 0.40826 0.12724
 N123 N 0.96270 0.41171 0.05029
 N124 N 0.94587 0.38410 0.05484
 N125 N 1.01436 0.45731 0.11845
 N126 N 1.03298 0.46442 0.16205
 Mn127 Mn 0.98352 0.46708 0.10982
 C128 C 1.04928 0.45369 0.14176
 C129 C 0.92962 0.38242 0.10224
 N130 N 1.02216 0.53758 -0.04185
 N131 N 1.03736 0.56538 -0.04821
 N132 N 0.97241 0.49173 -0.11118
 N133 N 0.95470 0.48379 -0.15640
 N134 N 0.96602 0.50488 -0.06855
 N135 N 0.94377 0.50648 -0.08428
 N136 N 1.02844 0.52394 -0.08350
 N137 N 1.04823 0.54215 -0.11875
 Mn138 Mn 0.98828 0.51696 0.00950
 C139 C 1.05396 0.56788 -0.09540
 C140 C 0.93717 0.49329 -0.13953
 N141 N 0.97416 0.42104 -0.07884
 N142 N 0.95824 0.39547 -0.10214
 N143 N 1.03353 0.47271 -0.08902
 N144 N 1.05726 0.48291 -0.11726
 N145 N 1.03032 0.45219 -0.05186
 N146 N 1.05168 0.44777 -0.05380
 N147 N 0.97756 0.44094 -0.11806
 N148 N 0.96413 0.42949 -0.16903
 Mn149 Mn 0.99639 0.43173 -0.00148
 Mn150 Mn 1.00316 0.48245 -0.10089
 Cl151 Cl 0.99277 0.47457 0.00425
 C152 C 0.95192 0.40122 -0.15821
 C153 C 1.06840 0.46727 -0.09417
 N154 N 0.47338 0.46726 0.04760
 N155 N 0.45783 0.43937 0.05098
 N156 N 0.48023 0.52322 0.10485
 N157 N 0.47177 0.53522 0.14596
 N158 N 0.46314 0.51371 0.05845
 N159 N 0.44217 0.51856 0.06757
 N160 N 0.49068 0.47673 0.09348
 N161 N 0.48770 0.45553 0.12875
 C162 C 0.46734 0.43236 0.10133
 C163 C 0.44809 0.53215 0.12239
 N164 N 0.55813 0.57648 0.08740
 N165 N 0.57281 0.60230 0.11082
 N166 N 0.54806 0.51456 0.11081
 N167 N 0.55346 0.49775 0.14542
 N168 N 0.56906 0.53035 0.07622
 N169 N 0.58944 0.52481 0.08650
 N170 N 0.53757 0.56080 0.12330
 N171 N 0.53780 0.57542 0.17206
 Mn172 Mn 0.51407 0.51872 0.10859
 C173 C 0.55953 0.60135 0.16323
 C174 C 0.57930 0.50432 0.12949
 N175 N 0.46937 0.52186 -0.07344
 N176 N 0.44721 0.52189 -0.09554
 N177 N 0.50128 0.49125 -0.11766
 N178 N 0.50265 0.47575 -0.16298
 N179 N 0.48038 0.47587 -0.08232
 N180 N 0.46706 0.44932 -0.10256
 N181 N 0.49064 0.53741 -0.10785
 N182 N 0.48357 0.54872 -0.15311
 Mn183 Mn 0.47122 0.49451 -0.01243
 C184 C 0.45661 0.53929 -0.14446
 C185 C 0.48134 0.44963 -0.15282
 N186 N 0.57561 0.53910 -0.05283
 N187 N 0.59623 0.53355 -0.05878
 N188 N 0.54786 0.57532 -0.08931
 N189 N 0.55071 0.59623 -0.12518
 N190 N 0.56487 0.58515 -0.04294
 N191 N 0.58023 0.61306 -0.04679
 N192 N 0.55881 0.52901 -0.09948
 N193 N 0.56745 0.51615 -0.13835
 Mn194 Mn 0.56720 0.55805 0.01705
 Mn195 Mn 0.52473 0.53331 -0.10401
 Cl196 Cl 0.51924 0.52620 0.00227
 C197 C 0.59082 0.51920 -0.11232
 C198 C 0.57074 0.61963 -0.09780
 N199 N 0.42274 -0.02666 0.07105
 N200 N 0.39793 -0.04835 0.07988
 N201 N 0.46993 0.03254 0.11148
 N202 N 0.47913 0.05479 0.14833
 N203 N 0.45294 0.03345 0.07115
 N204 N 0.45003 0.05635 0.07952
 N205 N 0.44009 -0.02731 0.11084
 N206 N 0.42791 -0.04936 0.14698
 C207 C 0.40171 -0.06218 0.12776
 C208 C 0.46652 0.06942 0.12785
 N209 N 0.53627 0.02796 0.06754
 N210 N 0.56188 0.04734 0.07917
 N211 N 0.48986 -0.03050 0.10795
 N212 N 0.48337 -0.05086 0.14822
 N213 N 0.50611 -0.03177 0.06610
 N214 N 0.51150 -0.05289 0.07756
 N215 N 0.51976 0.02928 0.10857
 N216 N 0.53338 0.04973 0.14835
 Mn217 Mn 0.47991 0.00103 0.11016
 C218 C 0.55951 0.06082 0.12955
 C219 C 0.49682 -0.06472 0.12869
 N220 N 0.45179 0.03355 -0.06006
 N221 N 0.44863 0.05639 -0.06733
 N222 N 0.43772 -0.02738 -0.10324
 N223 N 0.42308 -0.04556 -0.14650
 N224 N 0.42167 -0.02602 -0.06095
 N225 N 0.39573 -0.04286 -0.07486
 N226 N 0.46816 0.03253 -0.10189
 N227 N 0.47682 0.05467 -0.13820
 Mn228 Mn 0.43695 0.00355 0.00538
 C229 C 0.46450 0.06935 -0.11624
 C230 C 0.39699 -0.05531 -0.12763
 N231 N 0.50544 -0.03140 -0.06688
 N232 N 0.51375 -0.04963 -0.08546
 N233 N 0.51831 0.02929 -0.10506
 N234 N 0.53187 0.04945 -0.14517
 N235 N 0.53514 0.02820 -0.06437
 N236 N 0.56062 0.04750 -0.07593
 N237 N 0.48800 -0.03057 -0.10630
 N238 N 0.48360 -0.04849 -0.15166
 Mn239 Mn 0.52103 -0.00182 0.00061
 Mn240 Mn 0.47801 0.00094 -0.10462
 Cl241 Cl 0.47896 0.00085 0.00275
 C242 C 0.49945 -0.06047 -0.13787
 C243 C 0.55819 0.06074 -0.12616
 C244 C 1.16713 0.46576 0.42718
 C245 C 1.16973 0.46992 0.36421
 C246 C 1.14634 0.46843 0.32905
 N247 N 1.14518 0.46578 0.26740
 N248 N 1.12407 0.46485 0.23642
 C249 C 1.10355 0.46688 0.26592
 N250 N 1.10494 0.46991 0.32731
 N251 N 1.12586 0.47061 0.35818
 C252 C 1.07995 0.46583 0.23313
 C253 C 1.07374 0.45630 0.17324
 H254 H 1.18890 0.47607 0.34121
 H255 H 1.06629 0.47133 0.25795
 H256 H 1.14670 0.45810 0.44534
 H257 H 1.08656 0.44940 0.14918
 C258 C 0.61544 0.75171 0.40340
 C259 C 0.61850 0.72714 0.40216
 C260 C 0.61275 0.70894 0.34768
 N261 N 0.60677 0.68141 0.35514
 N262 N 0.59923 0.66355 0.30791
 C263 C 0.59757 0.67254 0.25110
 N264 N 0.60417 0.70029 0.24315
 N265 N 0.61142 0.71815 0.29071
 C266 C 0.58783 0.65215 0.19978
 C267 C 0.56932 0.62366 0.21035
 H268 H 0.62181 0.71831 0.44337
 H269 H 0.59414 0.65962 0.15379
 H270 H 0.61340 0.76006 0.35990
 H271 H 0.56108 0.61723 0.25573
 C272 C 0.27029 -0.17958 0.37684
 C273 C 0.29837 -0.16244 0.36772
 C274 C 0.31089 -0.14851 0.31005
 N275 N 0.33774 -0.14017 0.30138
 N276 N 0.35085 -0.12459 0.25343
 C277 C 0.33779 -0.11636 0.21226
 N278 N 0.31075 -0.12488 0.22054
 N279 N 0.29748 -0.14077 0.26855
 C280 C 0.35364 -0.09625 0.16333
 C281 C 0.38123 -0.08847 0.15643
 H282 H 0.31259 -0.15997 0.40391
 H283 H 0.34469 -0.08533 0.13816
 H284 H 0.25699 -0.18653 0.33717
 H285 H 0.38962 -0.09971 0.18240
 C286 C 0.80054 0.46904 0.40470
 C287 C 0.82594 0.48913 0.38278
 C288 C 0.83912 0.48341 0.33050
 N289 N 0.85926 0.50540 0.29990
 N290 N 0.87255 0.50058 0.25475
 C291 C 0.86635 0.47356 0.23894
 N292 N 0.84624 0.45156 0.26963
 N293 N 0.83273 0.45637 0.31431
 C294 C 0.88279 0.46811 0.19367
 C295 C 0.89920 0.48853 0.15155
 H296 H 0.83636 0.50996 0.40420
 H297 H 0.88305 0.44799 0.19561
 H298 H 0.78853 0.44951 0.37932
 H299 H 0.89738 0.50767 0.14567
 C300 C 0.44301 0.29315 0.35458
 C301 C 0.42924 0.30803 0.33750
 C302 C 0.43842 0.32759 0.28543
 N303 N 0.46429 0.33796 0.26392
 N304 N 0.47411 0.35886 0.22322
 C305 C 0.45834 0.36998 0.20195
 N306 N 0.43228 0.35929 0.22257
 N307 N 0.42257 0.33861 0.26392
 C308 C 0.47062 0.39542 0.16345
 C309 C 0.45510 0.40365 0.12722
 H310 H 0.41376 0.30822 0.36710
 H311 H 0.49261 0.40880 0.16567
 H312 H 0.45583 0.29015 0.32135
 H313 H 0.43360 0.38924 0.11924
 C314 C 0.69315 0.14364 0.40000
 C315 C 0.66780 0.14083 0.38338
 C316 C 0.65374 0.12789 0.32587
 N317 N 0.63086 0.12948 0.31105
 N318 N 0.61671 0.11674 0.26104
 C319 C 0.62480 0.10184 0.22373
 N320 N 0.64791 0.10048 0.23814
 N321 N 0.66220 0.11336 0.28828
 C322 C 0.60733 0.08529 0.17206
 C323 C 0.58189 0.08385 0.16332
 H324 H 0.65792 0.14927 0.41341
 H325 H 0.61282 0.07151 0.14603
 H326 H 0.70453 0.13794 0.36787
 H327 H 0.57621 0.09690 0.19141
 C328 C 0.48303 0.20034 -0.37490
 C329 C 0.50217 0.19162 -0.35824
 C330 C 0.49967 0.17382 -0.30538
 N331 N 0.47621 0.16037 -0.27262
 N332 N 0.47352 0.14135 -0.23025
 C333 C 0.49420 0.13516 -0.21942
 N334 N 0.51768 0.14898 -0.25151
 N335 N 0.52035 0.16790 -0.29364
 C336 C 0.49098 0.11191 -0.17919
 C337 C 0.46808 0.09602 -0.14337
 H338 H 0.51991 0.19728 -0.38662
 H339 H 0.50701 0.10584 -0.18091
 H340 H 0.46860 0.19971 -0.34101
 H341 H 0.45263 0.10260 -0.13678
 C342 C 0.65976 0.45415 -0.39303
 C343 C 0.66913 0.46492 -0.33448
 C344 C 0.65068 0.46877 -0.29158
 N345 N 0.66098 0.48660 -0.24290
 N346 N 0.64474 0.49280 -0.20848
 C347 C 0.61761 0.48138 -0.22159
 N348 N 0.60726 0.46311 -0.26932
 N349 N 0.62345 0.45694 -0.30360
 C350 C 0.59967 0.48987 -0.18840
 C351 C 0.60852 0.50866 -0.13914
 H352 H 0.69064 0.47456 -0.32301
 H353 H 0.57892 0.48182 -0.20511
 H354 H 0.63817 0.44630 -0.40210
 H355 H 0.62878 0.51598 -0.12016
 C356 C 0.83656 0.25872 -0.39296
 C357 C 0.86416 0.27948 -0.39332
 C358 C 0.87891 0.29633 -0.33946
 N359 N 0.90300 0.32031 -0.34787
 N360 N 0.91603 0.33748 -0.30124
 C361 C 0.90557 0.33127 -0.24415
 N362 N 0.88171 0.30693 -0.23527
 N363 N 0.86848 0.28983 -0.28223
 C364 C 0.91955 0.35119 -0.19346
 C365 C 0.93643 0.37998 -0.20527
 H366 H 0.87547 0.28570 -0.43540
 H367 H 0.91570 0.34357 -0.14698
 H368 H 0.82703 0.25075 -0.34918
 H369 H 0.93807 0.38765 -0.25149
 C370 C 0.57042 -0.13450 -0.40254
 C371 C 0.54780 -0.13014 -0.39452
 C372 C 0.54237 -0.11870 -0.33809
 N373 N 0.51865 -0.11751 -0.33316
 N374 N 0.51330 -0.10676 -0.28339
 C375 C 0.53144 -0.09675 -0.23637
 N376 N 0.55518 -0.09805 -0.24108
 N377 N 0.56054 -0.10890 -0.29099
 C378 C 0.52619 -0.08314 -0.18294
 C379 C 0.50279 -0.07986 -0.18045
 H380 H 0.53260 -0.13639 -0.43044
 H381 H 0.54183 -0.07351 -0.14810
 H382 H 0.58440 -0.13049 -0.36479
 H383 H 0.48763 -0.08893 -0.21641
 C384 C 0.32524 0.50712 -0.41586
 C385 C 0.35331 0.52496 -0.40859
 C386 C 0.36809 0.52528 -0.35241
 N387 N 0.39505 0.54422 -0.34644
 N388 N 0.40878 0.54477 -0.29618
 C389 C 0.39608 0.52645 -0.24976
 N390 N 0.36908 0.50754 -0.25564
 N391 N 0.35533 0.50700 -0.30593
 C392 C 0.41145 0.52591 -0.19526
 C393 C 0.43957 0.54369 -0.18996
 H394 H 0.36473 0.54001 -0.44390
 H395 H 0.40087 0.50982 -0.16108
 H396 H 0.31390 0.49349 -0.37838
 H397 H 0.45016 0.55934 -0.22492
 C398 C 1.15388 0.69563 -0.37589
 C399 C 1.12688 0.67877 -0.35684
 C400 C 1.11959 0.66036 -0.30306
 N401 N 1.09588 0.65349 -0.27342
 N402 N 1.08738 0.63447 -0.22868
 C403 C 1.10207 0.62126 -0.21250
 N404 N 1.12580 0.62811 -0.24216
 N405 N 1.13453 0.64747 -0.28638
 C406 C 1.09094 0.59771 -0.16859
 C407 C 1.07138 0.59501 -0.12582
 H408 H 1.11025 0.67955 -0.38089
 H409 H 1.09690 0.58121 -0.17266
 H410 H 1.17014 0.69892 -0.34427
 H411 H 1.06729 0.61262 -0.11769
 C412 C 0.80769 0.49582 -0.37600
 C413 C 0.82072 0.47996 -0.36072
 C414 C 0.83857 0.48504 -0.30757
 N415 N 0.84887 0.46698 -0.29819
 N416 N 0.86694 0.47187 -0.25400
 C417 C 0.87559 0.49509 -0.21727
 N418 N 0.86489 0.51301 -0.22572
 N419 N 0.84669 0.50810 -0.27025
 C420 C 0.89755 0.50143 -0.17214
 C421 C 0.91311 0.48737 -0.17674
 H422 H 0.81818 0.46272 -0.39085
 H423 H 0.90273 0.51823 -0.13875
 H424 H 0.80732 0.51120 -0.34427
 H425 H 0.90865 0.47197 -0.21309
 C426 C 0.45686 0.31944 -0.42651
 C427 C 0.45856 0.34615 -0.43563
 C428 C 0.46485 0.36717 -0.38661
 N429 N 0.46012 0.35963 -0.32698
 N430 N 0.46599 0.37941 -0.28379
 C431 C 0.47696 0.40735 -0.29888
 N432 N 0.48171 0.41475 -0.35835
 N433 N 0.47558 0.39502 -0.40141
 C434 C 0.48451 0.42986 -0.25284
 C435 C 0.47367 0.42527 -0.19428
 H436 H 0.45850 0.35384 -0.48099
 H437 H 0.49810 0.45144 -0.26728
 H438 H 0.46066 0.31444 -0.38085
 H439 H 0.45850 0.40421 -0.18022
 C440 C 0.68623 0.16321 -0.37965
 C441 C 0.65903 0.15747 -0.38329
 C442 C 0.63917 0.14440 -0.33387
 N443 N 0.64538 0.13447 -0.28259
 N444 N 0.62607 0.11986 -0.24165
 C445 C 0.59989 0.11466 -0.25061
 N446 N 0.59386 0.12497 -0.30136
 N447 N 0.61311 0.13951 -0.34225
 C448 C 0.57763 0.09639 -0.20937
 C449 C 0.58159 0.08298 -0.15903
 H450 H 0.65128 0.16075 -0.42618
 H451 H 0.55705 0.09185 -0.22159
 H452 H 0.69517 0.16287 -0.33598
 H453 H 0.60206 0.08778 -0.14524
 C454 C 1.19455 0.48891 -0.36311
 C455 C 1.16942 0.46954 -0.33867
 C456 C 1.15816 0.47540 -0.28373
 N457 N 1.13816 0.45337 -0.25317
 N458 N 1.12441 0.45811 -0.20916
 C459 C 1.12988 0.48503 -0.19468
 N460 N 1.15012 0.50714 -0.22481
 N461 N 1.16413 0.50241 -0.26845
 C462 C 1.11169 0.48978 -0.15358
 C463 C 1.09341 0.46797 -0.11671
 H464 H 1.15685 0.44946 -0.36171
 H465 H 1.11048 0.50934 -0.15753
 H466 H 1.20941 0.50536 -0.33356
 H467 H 1.09607 0.44944 -0.10880
 C468 C 0.59694 0.74917 -0.37627
 C469 C 0.60880 0.73263 -0.35729
 C470 C 0.59921 0.71505 -0.30240
 N471 N 0.61500 0.70519 -0.27544
 N472 N 0.60538 0.68711 -0.22901
 C473 C 0.57955 0.67806 -0.20835
 N474 N 0.56381 0.68797 -0.23523
 N475 N 0.57353 0.70629 -0.28113
 C476 C 0.56731 0.65506 -0.16381
 C477 C 0.58291 0.64795 -0.12519
 H478 H 0.62527 0.73225 -0.38269
 H479 H 0.54528 0.64184 -0.16486
 H480 H 0.58421 0.75272 -0.34365
 H481 H 0.60452 0.66231 -0.11859
 C482 C 0.27831 -0.17390 -0.39837
 C483 C 0.29260 -0.14459 -0.38943
 C484 C 0.31236 -0.13189 -0.33944
 N485 N 0.31759 -0.10633 -0.31559
 N486 N 0.33660 -0.09396 -0.27246
 C487 C 0.35137 -0.10652 -0.25242
 N488 N 0.34633 -0.13195 -0.27669
 N489 N 0.32700 -0.14453 -0.31911
 C490 C 0.37371 -0.09199 -0.20837
 C491 C 0.37289 -0.07359 -0.16451
 H492 H 0.28936 -0.13064 -0.42011
 H493 H 0.39120 -0.09574 -0.21063
 H494 H 0.27888 -0.18792 -0.36354
 H495 H 0.35430 -0.07216 -0.15775
 C496 C 0.55847 -0.15254 0.37187
 C497 C 0.53625 -0.14750 0.36525
 C498 C 0.53034 -0.13688 0.30865
 N499 N 0.50759 -0.13376 0.30545
 N500 N 0.50305 -0.12155 0.25732
 C501 C 0.52110 -0.11188 0.21048
 N502 N 0.54369 -0.11541 0.21316
 N503 N 0.54823 -0.12772 0.26139
 C504 C 0.51766 -0.09529 0.16094
 C505 C 0.49674 -0.08804 0.16361
 H506 H 0.52321 -0.15027 0.40407
 H507 H 0.53339 -0.08595 0.12655
 H508 H 0.56996 -0.15262 0.33212
 H509 H 0.48151 -0.09694 0.19913
 C510 C 0.31679 0.52151 0.36010
 C511 C 0.34442 0.53977 0.34939
 C512 C 0.35832 0.53920 0.29285
 N513 N 0.38552 0.55700 0.28760
 N514 N 0.39945 0.55467 0.24068
 C515 C 0.38677 0.53439 0.19709
 N516 N 0.35938 0.51696 0.20151
 N517 N 0.34540 0.51930 0.24859
 C518 C 0.40290 0.52941 0.14981
 C519 C 0.43126 0.54205 0.15527
 H520 H 0.35703 0.55347 0.38592
 H521 H 0.39239 0.51311 0.11552
 H522 H 0.30346 0.50977 0.32249
 H523 H 0.44140 0.55718 0.19184
 C524 C 1.13403 0.69844 0.40595
 C525 C 1.12226 0.66887 0.40145
 C526 C 1.10759 0.65174 0.34813
 N527 N 1.09930 0.62348 0.34925
 N528 N 1.08563 0.60684 0.30257
 C529 C 1.07963 0.61775 0.25270
 N530 N 1.08797 0.64615 0.25129
 N531 N 1.10178 0.66293 0.29824
 C532 C 1.06361 0.59872 0.20224
 C533 C 1.05466 0.56957 0.20610
 H534 H 1.12498 0.65722 0.43872
 H535 H 1.05796 0.60733 0.16353
 H536 H 1.13398 0.71076 0.36695
 H537 H 1.06029 0.56124 0.24533
 C538 C 0.50264 0.20272 0.40631
 C539 C 0.48900 0.19599 0.35029
 C540 C 0.49116 0.17584 0.30761
 N541 N 0.47354 0.16522 0.25981
 N542 N 0.47326 0.14468 0.22466
 C543 C 0.49061 0.13401 0.23610
 N544 N 0.50856 0.14499 0.28315
 N545 N 0.50881 0.16548 0.31830
 C546 C 0.48911 0.10971 0.20143
 C547 C 0.46990 0.09601 0.15540
 H548 H 0.47351 0.20228 0.34115
 H549 H 0.50268 0.10142 0.21491
 H550 H 0.51698 0.19491 0.41594
 H551 H 0.45664 0.10442 0.14032
 C552 C 0.66829 0.46009 0.38554
 C553 C 0.64073 0.44214 0.37250
 C554 C 0.62651 0.44740 0.32184
 N555 N 0.63995 0.46950 0.28314
 N556 N 0.62620 0.47590 0.24181
 C557 C 0.59851 0.46048 0.23785
 N558 N 0.58517 0.43814 0.27588
 N559 N 0.59892 0.43171 0.31709
 C560 C 0.58273 0.46913 0.19761
 C561 C 0.59517 0.49225 0.15857
 H562 H 0.62844 0.42522 0.40375
 H563 H 0.56066 0.45820 0.20208
 H564 H 0.68114 0.47540 0.35194
 H565 H 0.61707 0.50257 0.15142
 C566 C 0.81992 0.27003 0.38902
 C567 C 0.84531 0.27740 0.36348
 C568 C 0.85533 0.29572 0.30969
 N569 N 0.87692 0.29730 0.27796
 N570 N 0.88747 0.31544 0.23188
 C571 C 0.87691 0.33279 0.21621
 N572 N 0.85528 0.33114 0.24784
 N573 N 0.84455 0.31280 0.29349
 C574 C 0.89057 0.35546 0.17132
 C575 C 0.90977 0.35570 0.13044
 H576 H 0.85832 0.26977 0.38394
 H577 H 0.88709 0.37374 0.17403
 H578 H 0.80565 0.27492 0.36496
 H579 H 0.91180 0.33674 0.12310
   
