data_POSCAR
  _audit_creation_date              2014-09-24
  _audit_creation_method            'ToBaCCo'
  _symmetry_space_group_name_H-M    'P1'
  _symmetry_Int_Tables_number       1
  _symmetry_cell_setting            triclinic
  loop_
  _symmetry_equiv_pos_as_xyz
 x,y,z
_cell_length_a 52.6733
_cell_length_b 52.1998
_cell_length_c 47.1411
_cell_angle_alpha 89.933600
_cell_angle_beta 90.028500
_cell_angle_gamma 121.118900
loop_
  _atom_site_label
  _atom_site_type_symbol
  _atom_site_fract_x
  _atom_site_fract_y
  _atom_site_fract_z
O1 O -0.00594 0.52075 -0.02868
 O2 O 0.03693 0.49427 0.00937
 O3 O -0.00207 0.47333 -0.03198
 O4 O 0.03083 0.54013 0.01382
 O5 O -0.00722 0.51676 0.04296
 O6 O -0.03676 0.44835 0.00006
 O7 O 0.00114 0.47182 0.04100
 O8 O -0.04410 0.49398 -0.00032
 Cu9 Cu 0.01860 0.50947 -0.01244
 Cu10 Cu -0.02547 0.48044 0.02399
 C11 C -0.03256 0.51128 -0.02155
 C12 C 0.02681 0.47920 0.03205
 C13 C -0.02495 0.44923 -0.02368
 C14 C 0.01737 0.53983 0.03630
 O15 O 0.50670 0.55736 -0.00018
 O16 O 0.46898 0.48645 -0.03992
 O17 O 0.45692 0.50641 0.00562
 O18 O 0.51891 0.53579 -0.04520
 O19 O 0.54279 0.52213 -0.01642
 O20 O 0.47778 0.48658 0.03085
 O21 O 0.49339 0.47027 -0.01501
 O22 O 0.52583 0.53837 0.02868
 Cu23 Cu 0.48574 0.52343 -0.02253
 Cu24 Cu 0.51224 0.50261 0.00964
 C25 C 0.52178 0.55949 0.02168
 C26 C 0.47541 0.46657 -0.03482
 C27 C 0.45657 0.49109 0.02678
 C28 C 0.54152 0.53395 -0.03955
 O29 O 0.44716 0.94908 -0.00799
 O30 O 0.51228 0.99020 -0.05407
 O31 O 0.49865 0.95350 -0.01056
 O32 O 0.46115 0.98521 -0.05112
 O33 O 0.48167 1.02472 -0.02318
 O34 O 0.51450 0.99072 0.02000
 O35 O 0.53224 1.02760 -0.02347
 O36 O 0.46436 0.98841 0.02006
 Cu37 Cu 0.47808 0.96557 -0.03381
 Cu38 Cu 0.50016 1.01173 0.00129
 C39 C 0.44443 0.96177 0.01378
 C40 C 0.53311 1.01606 -0.04689
 C41 C 0.51195 0.96620 0.01233
 C42 C 0.46574 1.01091 -0.04457
 O43 O 1.04538 0.54992 0.49819
 O44 O 1.01975 0.48764 0.54844
 O45 O 1.05420 0.50582 0.50366
 O46 O 1.01102 0.53177 0.54272
 O47 O 0.97187 0.50245 0.51641
 O48 O 1.01572 0.47836 0.47606
 O49 O 0.98187 0.45900 0.52044
 O50 O 1.00626 0.52255 0.47122
 Cu51 Cu 1.03648 0.52159 0.52596
 Cu52 Cu 0.99006 0.48792 0.49320
 C53 C 1.03043 0.54692 0.47601
 C54 C 0.99637 0.46276 0.54316
 C55 C 1.04249 0.48788 0.48291
 C56 C 0.98381 0.52088 0.53672
 O57 O 0.53801 0.52499 0.44846
 O58 O 0.51136 0.45925 0.49446
 O59 O 0.49000 0.47342 0.45119
 O60 O 0.55976 0.51152 0.49241
 O61 O 0.53904 0.52792 0.52223
 O62 O 0.47123 0.49312 0.47946
 O63 O 0.49023 0.47649 0.52273
 O64 O 0.52026 0.54451 0.47828
 Cu65 Cu 0.52689 0.49054 0.46878
 Cu66 Cu 0.50332 0.51243 0.50359
 C67 C 0.53322 0.54567 0.45515
 C68 C 0.49618 0.45648 0.51642
 C69 C 0.46896 0.47748 0.45793
 C70 C 0.56082 0.52537 0.51496
 O71 O 0.50037 -0.04305 0.50391
 O72 O 0.46750 -0.00984 0.54905
 O73 O 0.44942 -0.04654 0.50551
 O74 O 0.51829 -0.00751 0.54712
 O75 O 0.53546 0.03130 0.51823
 O76 O 0.46591 -0.00752 0.47717
 O77 O 0.48521 0.02896 0.52019
 O78 O 0.51625 -0.00487 0.47437
 Cu79 Cu 0.48205 -0.03058 0.52939
 Cu80 Cu 0.50247 0.01586 0.49462
 C81 C 0.51352 -0.02972 0.48118
 C82 C 0.47114 0.01550 0.54250
 C83 C 0.44592 -0.03401 0.48396
 C84 C 0.53866 0.01852 0.53973
 C85 C 0.30184 0.45084 0.26555
 C86 C 0.30127 0.45175 0.23646
 C87 C 0.27169 0.43778 0.22867
 N88 N 0.25420 0.42830 0.25197
 C89 C 0.27259 0.43640 0.27455
 C90 C 0.26102 0.43300 0.20049
 C91 C 0.23114 0.42305 0.19399
 C92 C 0.21761 0.41126 0.16811
 C93 C 0.18997 0.40798 0.16924
 C94 C 0.18748 0.41799 0.19574
 N95 N 0.21255 0.42684 0.21078
 C96 C 0.16399 0.42188 0.20433
 C97 C 0.15942 0.42635 0.23297
 C98 C 0.14098 0.43625 0.24225
 C99 C 0.14201 0.43639 0.27132
 C100 C 0.16099 0.42652 0.27881
 N101 N 0.17154 0.42032 0.25534
 C102 C 0.16734 0.42203 0.30686
 C103 C 0.19086 0.41740 0.31332
 C104 C 0.19442 0.40650 0.33889
 C105 C 0.22155 0.40859 0.33772
 C106 C 0.23381 0.42080 0.31150
 N107 N 0.21484 0.42585 0.29668
 C108 C 0.26310 0.43003 0.30309
 H109 H 0.32158 0.46009 0.27855
 H110 H 0.32048 0.46180 0.22270
 H111 H 0.21981 0.43828 0.27808
 H112 H 0.22699 0.40625 0.15005
 H113 H 0.17389 0.39997 0.15220
 H114 H 0.12833 0.44296 0.22945
 H115 H 0.13027 0.44322 0.28529
 H116 H 0.23147 0.40257 0.35457
 H117 H 0.21833 0.43886 0.22965
 H118 H 0.17935 0.39852 0.35675
 C119 C 0.60276 0.73670 0.23637
 C120 C 0.60389 0.73803 0.26548
 C121 C 0.59033 0.75363 0.27360
 N122 N 0.58135 0.76219 0.25051
 C123 C 0.58862 0.75159 0.22777
 C124 C 0.58229 0.75602 0.30161
 C125 C 0.57409 0.77710 0.30859
 C126 C 0.55809 0.77608 0.33236
 C127 C 0.55588 0.80123 0.33144
 C128 C 0.57066 0.81690 0.30717
 N129 N 0.58165 0.80202 0.29339
 C130 C 0.57478 0.84475 0.29852
 C131 C 0.58230 0.85476 0.27025
 C132 C 0.59247 0.88366 0.26090
 C133 C 0.59178 0.88256 0.23178
 C134 C 0.58118 0.85302 0.22442
 N135 N 0.57574 0.83616 0.24794
 C136 C 0.57220 0.84089 0.19695
 C137 C 0.56744 0.81234 0.19025
 C138 C 0.55112 0.79477 0.16744
 C139 C 0.55279 0.76929 0.16838
 C140 C 0.57014 0.77211 0.19169
 N141 N 0.57896 0.79839 0.20485
 C142 C 0.57843 0.75140 0.20002
 H143 H 0.61048 0.72518 0.22310
 H144 H 0.61267 0.72777 0.27915
 H145 H 0.59409 0.80746 0.22153
 H146 H 0.54865 0.75887 0.34851
 H147 H 0.54441 0.80706 0.34677
 H148 H 0.59868 0.90322 0.27374
 H149 H 0.59734 0.90111 0.21766
 H150 H 0.54212 0.75072 0.15373
 H151 H 0.59578 0.80979 0.27588
 H152 H 0.53894 0.79953 0.15195
 C153 C 0.29573 0.86773 0.23582
 C154 C 0.29588 0.86813 0.26494
 C155 C 0.26669 0.84980 0.27351
 N156 N 0.24876 0.83832 0.25067
 C157 C 0.26646 0.84913 0.22762
 C158 C 0.25664 0.84452 0.30189
 C159 C 0.22784 0.82113 0.30926
 C160 C 0.21406 0.81847 0.33506
 C161 C 0.18853 0.79070 0.33530
 C162 C 0.18746 0.77722 0.30962
 N163 N 0.21128 0.79607 0.29374
 C164 C 0.16718 0.74691 0.30291
 C165 C 0.16225 0.73626 0.27470
 C166 C 0.14699 0.70642 0.26668
 C167 C 0.14674 0.70603 0.23754
 C168 C 0.16192 0.73565 0.22877
 N169 N 0.17121 0.75405 0.25150
 C170 C 0.16648 0.74551 0.20029
 C171 C 0.18702 0.77552 0.19272
 C172 C 0.18813 0.78827 0.16658
 C173 C 0.21368 0.81602 0.16630
 C174 C 0.22742 0.81941 0.19228
 N175 N 0.21085 0.79479 0.20837
 C176 C 0.25619 0.84304 0.19934
 H177 H 0.31502 0.87948 0.22230
 H178 H 0.31533 0.88023 0.27820
 H179 H 0.21772 0.78959 0.22706
 H180 H 0.22209 0.83446 0.35229
 H181 H 0.17306 0.78107 0.35277
 H182 H 0.13738 0.68693 0.28031
 H183 H 0.13690 0.68621 0.22439
 H184 H 0.22174 0.83153 0.14865
 H185 H 0.21816 0.79029 0.27542
 H186 H 0.17264 0.77822 0.14918
 C187 C 0.84957 0.54399 0.76805
 C188 C 0.85072 0.54500 0.73895
 C189 C 0.82590 0.54542 0.72984
 N190 N 0.80958 0.54450 0.75237
 C191 C 0.82410 0.54384 0.77576
 C192 C 0.81697 0.54341 0.70124
 C193 C 0.79187 0.54475 0.69303
 C194 C 0.77684 0.53429 0.66754
 C195 C 0.75437 0.54039 0.66763
 C196 C 0.75685 0.55532 0.69277
 N197 N 0.77976 0.55781 0.70813
 C198 C 0.73926 0.56753 0.70053
 C199 C 0.73952 0.57759 0.72836
 C200 C 0.72892 0.59595 0.73619
 C201 C 0.72884 0.59638 0.76532
 C202 C 0.73908 0.57800 0.77422
 N203 N 0.74585 0.56679 0.75159
 C204 C 0.73867 0.56863 0.80242
 C205 C 0.75454 0.55456 0.81029
 C206 C 0.75034 0.53853 0.83511
 C207 C 0.77173 0.53093 0.83566
 C208 C 0.78794 0.54181 0.81081
 N209 N 0.77742 0.55628 0.79553
 C210 C 0.81310 0.54014 0.80372
 H211 H 0.86525 0.54264 0.78186
 H212 H 0.86744 0.54451 0.72604
 H213 H 0.78745 0.56948 0.77769
 H214 H 0.78125 0.52311 0.65066
 H215 H 0.73824 0.53451 0.65090
 H216 H 0.72135 0.60719 0.72233
 H217 H 0.72129 0.60815 0.77843
 H218 H 0.77485 0.51875 0.85252
 H219 H 0.78850 0.57030 0.72658
 H220 H 0.73376 0.53296 0.85134
 C221 C 0.43956 0.14983 0.73510
 C222 C 0.43913 0.14916 0.76420
 C223 C 0.42618 0.16520 0.77280
 N224 N 0.41860 0.17552 0.74999
 C225 C 0.42684 0.16624 0.72692
 C226 C 0.42064 0.16944 0.80121
 C227 C 0.41340 0.19108 0.80880
 C228 C 0.40192 0.19253 0.83482
 C229 C 0.40246 0.21917 0.83529
 C230 C 0.41411 0.23312 0.80950
 N231 N 0.42040 0.21572 0.79337
 C232 C 0.42208 0.26271 0.80271
 C233 C 0.42695 0.27335 0.77449
 C234 C 0.43940 0.30304 0.76651
 C235 C 0.43929 0.30347 0.73739
 C236 C 0.42682 0.27404 0.72858
 N237 N 0.41915 0.25567 0.75128
 C238 C 0.42181 0.26429 0.70007
 C239 C 0.41479 0.23519 0.69222
 C240 C 0.40367 0.22207 0.66603
 C241 C 0.40370 0.19570 0.66561
 C242 C 0.41483 0.19348 0.69157
 N243 N 0.42123 0.21747 0.70774
 C244 C 0.42197 0.17160 0.69862
 H245 H 0.44857 0.13971 0.72159
 H246 H 0.44774 0.13844 0.77744
 H247 H 0.43336 0.22353 0.72650
 H248 H 0.39487 0.17656 0.85205
 H249 H 0.39592 0.22776 0.85293
 H250 H 0.44798 0.32242 0.78016
 H251 H 0.44779 0.32325 0.72426
 H252 H 0.39709 0.18035 0.64793
 H253 H 0.43300 0.22244 0.77489
 H254 H 0.39703 0.23098 0.64873
 C255 C 0.71903 0.12943 0.73519
 C256 C 0.71910 0.12992 0.76430
 C257 C 0.74180 0.15813 0.77236
 N258 N 0.75612 0.17451 0.74917
 C259 C 0.74226 0.15703 0.72643
 C260 C 0.74677 0.16986 0.80021
 C261 C 0.77218 0.19765 0.80710
 C262 C 0.77449 0.21548 0.82989
 C263 C 0.80290 0.23994 0.82947
 C264 C 0.81730 0.23609 0.80670
 N265 N 0.79831 0.21030 0.79311
 C266 C 0.84751 0.25528 0.79941
 C267 C 0.85828 0.25371 0.77248
 C268 C 0.88793 0.26664 0.76524
 C269 C 0.88887 0.26475 0.73624
 C270 C 0.85977 0.25074 0.72687
 N271 N 0.84114 0.24376 0.74905
 C272 C 0.85091 0.24901 0.69836
 C273 C 0.82109 0.22973 0.68994
 C274 C 0.80884 0.23138 0.66445
 C275 C 0.77985 0.20811 0.66430
 C276 C 0.77497 0.19321 0.68995
 N277 N 0.80033 0.20627 0.70526
 C278 C 0.74814 0.16730 0.69813
 H279 H 0.70330 0.11101 0.72211
 H280 H 0.70354 0.11186 0.77788
 H281 H 0.80397 0.19811 0.72404
 H282 H 0.75736 0.21151 0.84500
 H283 H 0.81175 0.25843 0.84425
 H284 H 0.90689 0.27733 0.77928
 H285 H 0.90871 0.27376 0.72340
 H286 H 0.76426 0.20292 0.64718
 H287 H 0.80361 0.20039 0.77681
 H288 H 0.81947 0.24766 0.64765
 C289 C 0.09424 0.47918 0.05947
 C290 C 0.08285 0.45950 0.08298
 C291 C 0.05183 0.44439 0.08784
 C292 C 0.03357 0.45046 0.07092
 C293 C 0.04552 0.47107 0.04856
 C294 C 0.07585 0.48481 0.04266
 C295 C 0.03921 0.42363 0.10979
 C296 C 0.05668 0.41768 0.12741
 C297 C 0.08780 0.43289 0.12420
 C298 C 0.10115 0.45454 0.10192
 C299 C 0.13241 0.47134 0.09996
 C300 C 0.15006 0.46747 0.11921
 C301 C 0.13743 0.44629 0.14080
 C302 C 0.10615 0.42803 0.14319
 C303 C 0.09464 0.40590 0.16476
 C304 C 0.11342 0.40333 0.18394
 C305 C 0.14415 0.42266 0.18233
 C306 C 0.15604 0.44371 0.16040
 H307 H 0.11723 0.49056 0.05334
 H308 H 0.01000 0.43928 0.07536
 H309 H 0.08565 0.50054 0.02527
 H310 H 0.01550 0.41190 0.11353
 H311 H 0.04510 0.40167 0.14406
 H312 H 0.14411 0.48857 0.08431
 H313 H 0.17396 0.48140 0.11725
 H314 H 0.07128 0.39014 0.16738
 H315 H 0.10391 0.38652 0.20048
 H316 H 0.17989 0.45857 0.15901
 C317 C 0.55249 0.63913 0.04652
 C318 C 0.55247 0.63606 0.07640
 C319 C 0.54223 0.60708 0.08756
 C320 C 0.53378 0.58271 0.06942
 C321 C 0.53355 0.58608 0.04001
 C322 C 0.54274 0.61435 0.02869
 C323 C 0.53981 0.60234 0.11678
 C324 C 0.54596 0.62546 0.13530
 C325 C 0.55588 0.65463 0.12527
 C326 C 0.56117 0.66045 0.09557
 C327 C 0.57534 0.69044 0.08617
 C328 C 0.58309 0.71381 0.10508
 C329 C 0.57573 0.70811 0.13377
 C330 C 0.56124 0.67831 0.14409
 C331 C 0.55170 0.67324 0.17265
 C332 C 0.55712 0.69691 0.19032
 C333 C 0.57294 0.72651 0.18054
 C334 C 0.58232 0.73196 0.15217
 H335 H 0.55872 0.66010 0.03638
 H336 H 0.52598 0.56068 0.07829
 H337 H 0.54234 0.61729 0.00598
 H338 H 0.53234 0.58030 0.12544
 H339 H 0.54364 0.62003 0.15758
 H340 H 0.58161 0.69661 0.06433
 H341 H 0.59428 0.73653 0.09701
 H342 H 0.53885 0.65112 0.18163
 H343 H 0.54868 0.69200 0.21184
 H344 H 0.59418 0.75477 0.14429
 C345 C 0.37610 0.89754 0.04786
 C346 C 0.37052 0.91153 0.07073
 C347 C 0.38862 0.94309 0.07301
 C348 C 0.41234 0.95943 0.05417
 C349 C 0.41826 0.94497 0.03241
 C350 C 0.39954 0.91402 0.02914
 C351 C 0.38324 0.95819 0.09430
 C352 C 0.36045 0.94271 0.11371
 C353 C 0.34239 0.91119 0.11301
 C354 C 0.34786 0.89531 0.09144
 C355 C 0.33120 0.86371 0.09188
 C356 C 0.31015 0.84810 0.11270
 C357 C 0.30433 0.86320 0.13361
 C358 C 0.31973 0.89493 0.13374
 C359 C 0.31187 0.90894 0.15485
 C360 C 0.29076 0.89211 0.17558
 C361 C 0.27688 0.86092 0.17603
 C362 C 0.28343 0.84660 0.15473
 H363 H 0.36274 0.87391 0.04367
 H364 H 0.42639 0.98347 0.05663
 H365 H 0.40334 0.90228 0.01231
 H366 H 0.39692 0.98233 0.09609
 H367 H 0.35819 0.95616 0.12964
 H368 H 0.33452 0.85017 0.07690
 H369 H 0.29838 0.82385 0.11249
 H370 H 0.32146 0.93280 0.15592
 H371 H 0.28553 0.90352 0.19163
 H372 H 0.27255 0.82239 0.15495
 C373 C 0.96188 0.56216 0.58765
 C374 C 0.93118 0.54157 0.59165
 C375 C 0.91821 0.51416 0.57655
 C376 C 0.93520 0.50832 0.55763
 C377 C 0.96561 0.52875 0.55431
 C378 C 0.97876 0.55563 0.56950
 C379 C 0.88849 0.49240 0.58084
 C380 C 0.87150 0.49664 0.60064
 C381 C 0.88340 0.52336 0.61646
 C382 C 0.91320 0.54681 0.61074
 C383 C 0.92388 0.57479 0.62403
 C384 C 0.90647 0.57940 0.64302
 C385 C 0.87813 0.55617 0.65024
 C386 C 0.86632 0.52761 0.63749
 C387 C 0.83820 0.50429 0.64693
 C388 C 0.82238 0.50945 0.66761
 C389 C 0.83373 0.53799 0.67913
 C390 C 0.86161 0.56126 0.67042
 H391 H 0.97378 0.58300 0.59903
 H392 H 0.92497 0.48716 0.54640
 H393 H 1.00231 0.57163 0.56749
 H394 H 0.87837 0.47152 0.56916
 H395 H 0.84874 0.47874 0.60259
 H396 H 0.94546 0.59393 0.61960
 H397 H 0.91553 0.60133 0.65254
 H398 H 0.82822 0.48161 0.63943
 H399 H 0.80114 0.49108 0.67470
 H400 H 0.87062 0.58323 0.67984
 C401 C 0.48990 0.38745 0.54972
 C402 C 0.47092 0.38186 0.57317
 C403 C 0.45860 0.40027 0.57628
 C404 C 0.46651 0.42428 0.55757
 C405 C 0.48626 0.43015 0.53514
 C406 C 0.49737 0.41115 0.53116
 C407 C 0.43870 0.39487 0.59822
 C408 C 0.43080 0.37170 0.61738
 C409 C 0.44308 0.35325 0.61578
 C410 C 0.46392 0.35880 0.59361
 C411 C 0.47779 0.34177 0.59314
 C412 C 0.47170 0.32020 0.61357
 C413 C 0.45116 0.31420 0.63499
 C414 C 0.43596 0.33004 0.63612
 C415 C 0.41441 0.32202 0.65774
 C416 C 0.40933 0.30025 0.67794
 C417 C 0.42552 0.28583 0.67737
 C418 C 0.44610 0.29263 0.65560
 H419 H 0.49928 0.37389 0.54491
 H420 H 0.45740 0.43855 0.56063
 H421 H 0.51239 0.41487 0.51382
 H422 H 0.42912 0.40880 0.60067
 H423 H 0.41559 0.36943 0.63382
 H424 H 0.49429 0.34517 0.57770
 H425 H 0.48334 0.30811 0.61261
 H426 H 0.40096 0.33197 0.65959
 H427 H 0.39294 0.29488 0.69437
 H428 H 0.45856 0.28136 0.65502
 C429 C 0.60269 0.03256 0.58676
 C430 C 0.61724 0.06377 0.59166
 C431 C 0.60507 0.07972 0.57893
 C432 C 0.58026 0.06506 0.56102
 C433 C 0.56607 0.03416 0.55668
 C434 C 0.57733 0.01804 0.56982
 C435 C 0.61733 0.11008 0.58460
 C436 C 0.64068 0.12481 0.60359
 C437 C 0.65345 0.10990 0.61693
 C438 C 0.64278 0.07945 0.60947
 C439 C 0.65826 0.06589 0.61969
 C440 C 0.68263 0.08116 0.63751
 C441 C 0.69182 0.11004 0.64676
 C442 C 0.67692 0.12460 0.63712
 C443 C 0.68557 0.15294 0.64878
 C444 C 0.70844 0.16639 0.66860
 C445 C 0.72388 0.15247 0.67698
 C446 C 0.71559 0.12435 0.66593
 H447 H 0.60966 0.01855 0.59660
 H448 H 0.57120 0.07751 0.55136
 H449 H 0.56645 -0.00595 0.56694
 H450 H 0.60832 0.12248 0.57475
 H451 H 0.64891 0.14827 0.60676
 H452 H 0.65259 0.04366 0.61354
 H453 H 0.69402 0.06996 0.64463
 H454 H 0.67438 0.16480 0.64380
 H455 H 0.71423 0.18788 0.67747
 H456 H 0.72727 0.11337 0.67282
 C457 C 0.42653 0.02442 0.89686
 C458 C 0.43480 0.05456 0.90156
 C459 C 0.45272 0.06926 0.92554
 C460 C 0.46159 0.05420 0.94396
 C461 C 0.45409 0.02464 0.93851
 C462 C 0.43617 0.00989 0.91490
 C463 C 0.46241 0.09922 0.93072
 C464 C 0.45610 0.11555 0.91181
 C465 C 0.43920 0.10229 0.88711
 C466 C 0.42686 0.07091 0.88281
 C467 C 0.40707 0.05701 0.85994
 C468 C 0.40074 0.07344 0.84107
 C469 C 0.41450 0.10441 0.84369
 C470 C 0.43415 0.11938 0.86659
 C471 C 0.44883 0.15100 0.86739
 C472 C 0.44407 0.16688 0.84638
 C473 C 0.42429 0.15193 0.82412
 C474 C 0.40921 0.12063 0.82312
 H475 H 0.41358 0.01177 0.87882
 H476 H 0.47547 0.06614 0.96201
 H477 H 0.42990 -0.01291 0.90995
 H478 H 0.47570 0.11045 0.94929
 H479 H 0.46441 0.13854 0.91744
 H480 H 0.39564 0.03323 0.85630
 H481 H 0.38546 0.06182 0.82379
 H482 H 0.46503 0.16427 0.88330
 H483 H 0.45634 0.19111 0.84724
 H484 H 0.39397 0.10898 0.80581
 C485 C 0.58114 0.55421 0.89142
 C486 C 0.60803 0.55586 0.89848
 C487 C 0.61405 0.55447 0.92754
 C488 C 0.59207 0.54739 0.94810
 C489 C 0.56458 0.54381 0.94054
 C490 C 0.56007 0.54883 0.91220
 C491 C 0.64178 0.55966 0.93579
 C492 C 0.66362 0.56596 0.91573
 C493 C 0.65780 0.56533 0.88642
 C494 C 0.62904 0.55872 0.87770
 C495 C 0.62151 0.55319 0.84870
 C496 C 0.64130 0.55365 0.82895
 C497 C 0.66992 0.56150 0.83700
 C498 C 0.67914 0.56919 0.86554
 C499 C 0.70932 0.58029 0.87194
 C500 C 0.72888 0.58163 0.85114
 C501 C 0.71881 0.57091 0.82366
 C502 C 0.68928 0.56125 0.81673
 H503 H 0.57604 0.55744 0.87003
 H504 H 0.59650 0.54483 0.97007
 H505 H 0.53950 0.54705 0.90564
 H506 H 0.64670 0.55896 0.95801
 H507 H 0.68434 0.56934 0.92369
 H508 H 0.59967 0.54649 0.84095
 H509 H 0.63418 0.54797 0.80709
 H510 H 0.71849 0.58866 0.89270
 H511 H 0.75185 0.59027 0.85676
 H512 H 0.68118 0.55311 0.79551
 C513 C 0.92650 0.37053 0.95224
 C514 C 0.93359 0.37251 0.92310
 C515 C 0.95518 0.40090 0.91218
 C516 C 0.97014 0.42574 0.93024
 C517 C 0.96227 0.42366 0.95898
 C518 C 0.94021 0.39576 0.96966
 C519 C 0.96107 0.40457 0.88314
 C520 C 0.94473 0.38111 0.86445
 C521 C 0.92280 0.35257 0.87434
 C522 C 0.91893 0.34763 0.90421
 C523 C 0.90081 0.31801 0.91414
 C524 C 0.88574 0.29422 0.89538
 C525 C 0.88687 0.29926 0.86620
 C526 C 0.90484 0.32866 0.85534
 C527 C 0.90303 0.33324 0.82605
 C528 C 0.88437 0.30950 0.80835
 C529 C 0.86773 0.28018 0.81886
 C530 C 0.86951 0.27519 0.84784
 H531 H 0.90936 0.35008 0.96186
 H532 H 0.98671 0.44717 0.92139
 H533 H 0.93343 0.39326 0.99168
 H534 H 0.97778 0.42611 0.87463
 H535 H 0.95037 0.38568 0.84228
 H536 H 0.89863 0.31246 0.93639
 H537 H 0.87225 0.27180 0.90388
 H538 H 0.91458 0.35518 0.81650
 H539 H 0.88268 0.31416 0.78626
 H540 H 0.85656 0.25265 0.85623
 C541 C 0.54770 0.92672 0.45394
 C542 C 0.54485 0.92808 0.42417
 C543 C 0.53100 0.94343 0.41385
 C544 C 0.52203 0.95809 0.43259
 C545 C 0.52493 0.95638 0.46190
 C546 C 0.53748 0.94035 0.47247
 C547 C 0.52568 0.94366 0.38492
 C548 C 0.53268 0.92793 0.36596
 C549 C 0.54639 0.91223 0.37516
 C550 C 0.55437 0.91399 0.40438
 C551 C 0.57204 0.90216 0.41266
 C552 C 0.58080 0.88821 0.39318
 C553 C 0.57111 0.88421 0.36509
 C554 C 0.55301 0.89539 0.35592
 C555 C 0.54142 0.88839 0.32808
 C556 C 0.54833 0.87183 0.30994
 C557 C 0.56764 0.86233 0.31848
 C558 C 0.57905 0.86870 0.34616
 H559 H 0.55671 0.91436 0.46356
 H560 H 0.51165 0.96991 0.42440
 H561 H 0.53954 0.93850 0.49514
 H562 H 0.51537 0.95560 0.37688
 H563 H 0.52800 0.92932 0.34394
 H564 H 0.58034 0.90431 0.43398
 H565 H 0.59473 0.87983 0.40036
 H566 H 0.52595 0.89434 0.32010
 H567 H 0.53834 0.86622 0.28904
 H568 H 0.59365 0.86104 0.35310
 C569 C 0.41375 0.43692 0.39867
 C570 C 0.39298 0.44615 0.40270
 C571 C 0.39728 0.46484 0.42625
 C572 C 0.42125 0.47371 0.44476
 C573 C 0.44206 0.46510 0.44000
 C574 C 0.43791 0.44641 0.41696
 C575 C 0.37804 0.47524 0.43098
 C576 C 0.35529 0.46871 0.41212
 C577 C 0.35059 0.45107 0.38778
 C578 C 0.36874 0.43833 0.38376
 C579 C 0.36206 0.41829 0.36097
 C580 C 0.33930 0.41190 0.34204
 C581 C 0.32273 0.42568 0.34461
 C582 C 0.32824 0.44566 0.36738
 C583 C 0.31174 0.46013 0.36825
 C584 C 0.29065 0.45476 0.34754
 C585 C 0.28504 0.43468 0.32543
 C586 C 0.30095 0.41997 0.32421
 H587 H 0.41259 0.42320 0.38108
 H588 H 0.42427 0.48833 0.46241
 H589 H 0.45370 0.43950 0.41270
 H590 H 0.38096 0.48914 0.44922
 H591 H 0.34145 0.47758 0.41749
 H592 H 0.37382 0.40677 0.35734
 H593 H 0.33503 0.39641 0.32483
 H594 H 0.31518 0.47647 0.38408
 H595 H 0.27887 0.46668 0.34855
 H596 H 0.29672 0.40451 0.30698
 C597 C 0.03673 0.59394 0.41191
 C598 C 0.06659 0.61790 0.41353
 C599 C 0.08381 0.61813 0.43677
 C600 C 0.07142 0.59562 0.45746
 C601 C 0.04206 0.57178 0.45525
 C602 C 0.02482 0.57123 0.43237
 C603 C 0.11355 0.64053 0.43909
 C604 C 0.12715 0.66214 0.41819
 C605 C 0.11132 0.66251 0.39419
 C606 C 0.08020 0.64106 0.39257
 C607 C 0.06383 0.64363 0.37018
 C608 C 0.07752 0.66567 0.34951
 C609 C 0.10814 0.68542 0.34977
 C610 C 0.12556 0.68386 0.37190
 C611 C 0.15671 0.70318 0.37032
 C612 C 0.16978 0.72339 0.34802
 C613 C 0.15243 0.72540 0.32669
 C614 C 0.12155 0.70649 0.32777
 H615 H 0.02226 0.59154 0.39464
 H616 H 0.08514 0.59619 0.47490
 H617 H 0.00210 0.55298 0.43006
 H618 H 0.12667 0.64107 0.45707
 H619 H 0.15013 0.67871 0.42180
 H620 H 0.04014 0.62923 0.36833
 H621 H 0.06403 0.66686 0.33278
 H622 H 0.17175 0.70258 0.38541
 H623 H 0.19373 0.73741 0.34724
 H624 H 0.10805 0.70785 0.31116
 C625 C 0.94770 0.55495 0.92869
 C626 C 0.91763 0.53412 0.92219
 C627 C 0.90398 0.50577 0.93576
 C628 C 0.91978 0.49917 0.95556
 C629 C 0.94971 0.51982 0.96104
 C630 C 0.96345 0.54768 0.94754
 C631 C 0.87497 0.48383 0.92885
 C632 C 0.85956 0.48883 0.90780
 C633 C 0.87230 0.51647 0.89335
 C634 C 0.90110 0.54003 0.90188
 C635 C 0.91232 0.56874 0.88997
 C636 C 0.89660 0.57399 0.86949
 C637 C 0.86950 0.55077 0.85948
 C638 C 0.85708 0.52153 0.87092
 C639 C 0.83031 0.49844 0.85883
 C640 C 0.81630 0.50445 0.83689
 C641 C 0.82822 0.53357 0.82662
 C642 C 0.85481 0.55663 0.83791
 H643 H 0.96012 0.57654 0.91863
 H644 H 0.90925 0.47729 0.96551
 H645 H 0.98670 0.56383 0.95128
 H646 H 0.86430 0.46222 0.93932
 H647 H 0.83729 0.47070 0.90370
 H648 H 0.93300 0.58795 0.89657
 H649 H 0.90603 0.59644 0.86104
 H650 H 0.82006 0.47538 0.86532
 H651 H 0.79595 0.48633 0.82794
 H652 H 0.86420 0.57912 0.82956
 C653 C 0.43096 0.40981 0.90811
 C654 C 0.44183 0.39005 0.90944
 C655 C 0.46312 0.39541 0.93068
 C656 C 0.47302 0.41960 0.94946
 C657 C 0.46265 0.43941 0.94725
 C658 C 0.44131 0.43405 0.92663
 C659 C 0.47500 0.37704 0.93273
 C660 C 0.46729 0.35416 0.91339
 C661 C 0.44703 0.34849 0.89120
 C662 C 0.43307 0.36583 0.88997
 C663 C 0.41099 0.35848 0.86921
 C664 C 0.40381 0.33603 0.84945
 C665 C 0.41854 0.32025 0.84924
 C666 C 0.44034 0.32615 0.87011
 C667 C 0.45520 0.31004 0.86840
 C668 C 0.44880 0.28932 0.84683
 C669 C 0.42734 0.28373 0.82635
 C670 C 0.41194 0.29893 0.82789
 H671 H 0.41510 0.40779 0.89249
 H672 H 0.48963 0.42355 0.96526
 H673 H 0.43289 0.44899 0.92441
 H674 H 0.49093 0.38075 0.94919
 H675 H 0.47755 0.34112 0.91661
 H676 H 0.39858 0.36957 0.86771
 H677 H 0.38689 0.33138 0.83377
 H678 H 0.47254 0.31348 0.88283
 H679 H 0.46110 0.27792 0.84578
 H680 H 0.39529 0.29459 0.81200
 C681 C 0.57285 0.05181 0.88504
 C682 C 0.60262 0.07028 0.89386
 C683 C 0.60957 0.06855 0.92261
 C684 C 0.58688 0.05104 0.94215
 C685 C 0.55744 0.03356 0.93303
 C686 C 0.55077 0.03359 0.90432
 C687 C 0.63906 0.08421 0.93158
 C688 C 0.66191 0.10093 0.91245
 C689 C 0.65596 0.10390 0.88381
 C690 C 0.62573 0.08986 0.87492
 C691 C 0.61950 0.09656 0.84772
 C692 C 0.64209 0.11528 0.82928
 C693 C 0.67169 0.12696 0.83670
 C694 C 0.67913 0.12097 0.86382
 C695 C 0.70940 0.13161 0.86945
 C696 C 0.73115 0.14740 0.84888
 C697 C 0.72360 0.15373 0.82238
 C698 C 0.69388 0.14416 0.81682
 H699 H 0.56608 0.05038 0.86322
 H700 H 0.59215 0.05057 0.96431
 H701 H 0.52813 0.01998 0.89687
 H702 H 0.64459 0.08306 0.95352
 H703 H 0.68410 0.11232 0.92097
 H704 H 0.59720 0.08848 0.84046
 H705 H 0.63628 0.12002 0.80868
 H706 H 0.71679 0.12697 0.88907
 H707 H 0.75398 0.15442 0.85355
 H708 H 0.68791 0.14935 0.79651
 C709 C 0.10694 0.48459 0.45518
 C710 C 0.09431 0.46454 0.43208
 C711 C 0.06327 0.45048 0.42801
 C712 C 0.04623 0.45798 0.44510
 C713 C 0.05932 0.47903 0.46707
 C714 C 0.08973 0.49158 0.47232
 C715 C 0.04934 0.42930 0.40661
 C716 C 0.06554 0.42198 0.38871
 C717 C 0.09667 0.43620 0.39102
 C718 C 0.11137 0.45821 0.41276
 C719 C 0.14267 0.47403 0.41372
 C720 C 0.15910 0.46907 0.39384
 C721 C 0.14512 0.44766 0.37265
 C722 C 0.11372 0.43012 0.37148
 C723 C 0.10076 0.40754 0.35044
 C724 C 0.11825 0.40417 0.33031
 C725 C 0.14908 0.42308 0.33041
 C726 C 0.16245 0.44422 0.35211
 H727 H 0.13005 0.49519 0.46072
 H728 H 0.02265 0.44743 0.44101
 H729 H 0.10059 0.50748 0.48940
 H730 H 0.02557 0.41834 0.40351
 H731 H 0.05299 0.40580 0.37248
 H732 H 0.15533 0.49139 0.42898
 H733 H 0.18310 0.48241 0.39493
 H734 H 0.07722 0.39212 0.34889
 H735 H 0.10760 0.38720 0.31405
 H736 H 0.18640 0.45865 0.35244
 C737 C 0.54259 0.58550 0.38591
 C738 C 0.55053 0.61464 0.39454
 C739 C 0.55568 0.62162 0.42383
 C740 C 0.55008 0.59918 0.44378
 C741 C 0.54107 0.57012 0.43478
 C742 C 0.53817 0.56377 0.40573
 C743 C 0.56626 0.65087 0.43295
 C744 C 0.57217 0.67346 0.41358
 C745 C 0.56622 0.66728 0.38436
 C746 C 0.55377 0.63707 0.37500
 C747 C 0.54379 0.62994 0.34671
 C748 C 0.54655 0.65170 0.32795
 C749 C 0.56042 0.68157 0.33622
 C750 C 0.57128 0.69004 0.36426
 C751 C 0.58706 0.72098 0.37081
 C752 C 0.59110 0.74232 0.35045
 C753 C 0.57903 0.73354 0.32320
 C754 C 0.56347 0.70303 0.31643
 H755 H 0.54022 0.57896 0.36393
 H756 H 0.55298 0.60435 0.46625
 H757 H 0.53155 0.54153 0.39829
 H758 H 0.57037 0.65646 0.45527
 H759 H 0.58019 0.69542 0.42230
 H760 H 0.53248 0.60734 0.33874
 H761 H 0.53807 0.64509 0.30656
 H762 H 0.59727 0.72941 0.39119
 H763 H 0.60364 0.76582 0.35603
 H764 H 0.55385 0.69596 0.29546
 C765 C 0.37554 0.90330 0.45453
 C766 C 0.37131 0.91633 0.43001
 C767 C 0.39110 0.94737 0.42559
 C768 C 0.41542 0.96384 0.44376
 C769 C 0.42029 0.95017 0.46714
 C770 C 0.39950 0.91994 0.47269
 C771 C 0.38683 0.96176 0.40278
 C772 C 0.36353 0.94601 0.38394
 C773 C 0.34394 0.91483 0.38666
 C774 C 0.34835 0.89963 0.40970
 C775 C 0.33052 0.86812 0.41100
 C776 C 0.30933 0.85195 0.39043
 C777 C 0.30439 0.86645 0.36820
 C778 C 0.32086 0.89813 0.36643
 C779 C 0.31362 0.91165 0.34429
 C780 C 0.29220 0.89432 0.32399
 C781 C 0.27748 0.86306 0.32491
 C782 C 0.28333 0.84929 0.34738
 H783 H 0.36063 0.88030 0.46044
 H784 H 0.43076 0.98736 0.43939
 H785 H 0.40205 0.90868 0.49083
 H786 H 0.40179 0.98553 0.39935
 H787 H 0.36221 0.95883 0.36669
 H788 H 0.33320 0.85505 0.42709
 H789 H 0.29672 0.82774 0.39192
 H790 H 0.32390 0.93554 0.34216
 H791 H 0.28745 0.90537 0.30716
 H792 H 0.27177 0.82505 0.34833
 C793 C 0.54382 0.92010 0.03920
 C794 C 0.54141 0.92180 0.06902
 C795 C 0.52889 0.93837 0.07935
 C796 C 0.52069 0.95370 0.06063
 C797 C 0.52307 0.95167 0.03128
 C798 C 0.53435 0.93450 0.02067
 C799 C 0.52411 0.93922 0.10831
 C800 C 0.53045 0.92305 0.12735
 C801 C 0.54290 0.90616 0.11822
 C802 C 0.55019 0.90704 0.08889
 C803 C 0.56656 0.89376 0.08062
 C804 C 0.57502 0.87964 0.10030
 C805 C 0.56623 0.87685 0.12863
 C806 C 0.54910 0.88915 0.13771
 C807 C 0.53819 0.88330 0.16582
 C808 C 0.54529 0.86721 0.18444
 C809 C 0.56405 0.85699 0.17608
 C810 C 0.57426 0.86167 0.14797
 H811 H 0.55190 0.90693 0.02959
 H812 H 0.51122 0.96634 0.06892
 H813 H 0.53594 0.93231 -0.00201
 H814 H 0.51480 0.95210 0.11632
 H815 H 0.52637 0.92511 0.14940
 H816 H 0.57415 0.89495 0.05915
 H817 H 0.58811 0.87030 0.09313
 H818 H 0.52327 0.88996 0.17377
 H819 H 0.53607 0.86277 0.20567
 H820 H 0.58828 0.85328 0.14113
 C821 C 0.40649 0.44887 0.08884
 C822 C 0.38588 0.45860 0.08873
 C823 C 0.38880 0.47889 0.06711
 C824 C 0.41122 0.48860 0.04653
 C825 C 0.43168 0.47908 0.04727
 C826 C 0.42897 0.45905 0.06853
 C827 C 0.36965 0.48983 0.06633
 C828 C 0.34816 0.48194 0.08706
 C829 C 0.34465 0.46233 0.10942
 C830 C 0.36302 0.44952 0.10962
 C831 C 0.35786 0.42806 0.13066
 C832 C 0.33633 0.42016 0.15139
 C833 C 0.31936 0.43360 0.15238
 C834 C 0.32330 0.45499 0.13152
 C835 C 0.30613 0.46865 0.13410
 C836 C 0.28600 0.46123 0.15630
 C837 C 0.28209 0.43993 0.17660
 C838 C 0.29864 0.42597 0.17439
 H839 H 0.40641 0.43399 0.10472
 H840 H 0.41321 0.50430 0.03033
 H841 H 0.44452 0.45137 0.06969
 H842 H 0.37156 0.50508 0.04967
 H843 H 0.33432 0.49139 0.08469
 H844 H 0.36989 0.41654 0.13153
 H845 H 0.33324 0.40361 0.16712
 H846 H 0.30818 0.48571 0.11980
 H847 H 0.27359 0.47248 0.15786
 H848 H 0.29564 0.40947 0.19014
 C849 C 0.02845 0.59189 0.09729
 C850 C 0.05884 0.61428 0.09479
 C851 C 0.07490 0.61200 0.07177
 C852 C 0.06091 0.58847 0.05218
 C853 C 0.03102 0.56614 0.05538
 C854 C 0.01494 0.56822 0.07799
 C855 C 0.10505 0.63285 0.06867
 C856 C 0.12009 0.65532 0.08855
 C857 C 0.10540 0.65816 0.11230
 C858 C 0.07402 0.63823 0.11473
 C859 C 0.05893 0.64298 0.13695
 C860 C 0.07405 0.66558 0.15678
 C861 C 0.10483 0.68394 0.15573
 C862 C 0.12104 0.68038 0.13363
 C863 C 0.15236 0.69871 0.13430
 C864 C 0.16672 0.71969 0.15580
 C865 C 0.15055 0.72341 0.17722
 C866 C 0.11955 0.70562 0.17695
 H867 H 0.01468 0.59141 0.11440
 H868 H 0.07370 0.58697 0.03493
 H869 H -0.00817 0.55121 0.08105
 H870 H 0.11735 0.63147 0.05090
 H871 H 0.14331 0.67049 0.08442
 H872 H 0.03520 0.62982 0.13939
 H873 H 0.06150 0.66834 0.17346
 H874 H 0.16653 0.69684 0.11905
 H875 H 0.19074 0.73292 0.15591
 H876 H 0.10697 0.70838 0.19361
 C877 C 0.43096 0.02891 0.60209
 C878 C 0.44003 0.05942 0.59818
 C879 C 0.45930 0.07484 0.57516
 C880 C 0.46849 0.06008 0.55679
 C881 C 0.45962 0.03003 0.56116
 C882 C 0.44075 0.01460 0.58392
 C883 C 0.46974 0.10509 0.57075
 C884 C 0.46256 0.12092 0.58937
 C885 C 0.44411 0.10691 0.61306
 C886 C 0.43142 0.07536 0.61671
 C887 C 0.41052 0.06086 0.63867
 C888 C 0.40334 0.07679 0.65727
 C889 C 0.41716 0.10782 0.65524
 C890 C 0.43789 0.12342 0.63322
 C891 C 0.45233 0.15506 0.63294
 C892 C 0.44657 0.17035 0.65377
 C893 C 0.42603 0.15478 0.67533
 C894 C 0.41092 0.12345 0.67560
 H895 H 0.41701 0.01568 0.61943
 H896 H 0.48334 0.07240 0.53940
 H897 H 0.43366 -0.00860 0.58788
 H898 H 0.48414 0.11686 0.55293
 H899 H 0.47152 0.14416 0.58428
 H900 H 0.39893 0.03700 0.64183
 H901 H 0.38726 0.06471 0.67388
 H902 H 0.46909 0.16881 0.61764
 H903 H 0.45879 0.19459 0.65344
 H904 H 0.39503 0.11133 0.69235
 C905 C 0.63859 0.55421 0.54272
 C906 C 0.63456 0.55463 0.57241
 C907 C 0.60577 0.54591 0.58233
 C908 C 0.58254 0.53815 0.56322
 C909 C 0.58670 0.53712 0.53403
 C910 C 0.61485 0.54515 0.52391
 C911 C 0.59999 0.54413 0.61134
 C912 C 0.62171 0.54905 0.63089
 C913 C 0.65047 0.55699 0.62213
 C914 C 0.65763 0.56207 0.59263
 C915 C 0.68756 0.57456 0.58451
 C916 C 0.70947 0.58054 0.60445
 C917 C 0.70218 0.57286 0.63292
 C918 C 0.67240 0.56029 0.64199
 C919 C 0.66542 0.55016 0.67033
 C920 C 0.68719 0.55272 0.68885
 C921 C 0.71684 0.56625 0.68023
 C922 C 0.72429 0.57686 0.65229
 H923 H 0.65949 0.55945 0.53353
 H924 H 0.56065 0.53134 0.57127
 H925 H 0.61846 0.54420 0.50141
 H926 H 0.57815 0.53796 0.61902
 H927 H 0.61554 0.54726 0.65293
 H928 H 0.69481 0.58072 0.56287
 H929 H 0.73220 0.59032 0.59732
 H930 H 0.64305 0.53872 0.67840
 H931 H 0.68069 0.54359 0.71005
 H932 H 0.74715 0.58720 0.64537
 C933 C 0.97679 0.42317 0.61368
 C934 C 0.95771 0.39289 0.60588
 C935 C 0.95477 0.38568 0.57661
 C936 C 0.96788 0.40847 0.55611
 C937 C 0.98513 0.43851 0.56431
 C938 C 0.99030 0.44551 0.59317
 C939 C 0.93831 0.35586 0.56800
 C940 C 0.92424 0.33295 0.58779
 C941 C 0.92497 0.33913 0.61703
 C942 C 0.94121 0.36969 0.62608
 C943 C 0.93903 0.37625 0.65469
 C944 C 0.92127 0.35383 0.67376
 C945 C 0.90598 0.32393 0.66545
 C946 C 0.90863 0.31594 0.63737
 C947 C 0.89446 0.28504 0.63086
 C948 C 0.87686 0.26328 0.65095
 C949 C 0.87241 0.27160 0.67787
 C950 C 0.88747 0.30200 0.68504
 H951 H 0.98190 0.43030 0.63545
 H952 H 0.96446 0.40287 0.53373
 H953 H 1.00402 0.46855 0.59998
 H954 H 0.93620 0.35016 0.54567
 H955 H 0.91157 0.31059 0.57937
 H956 H 0.94953 0.39878 0.66272
 H957 H 0.91941 0.36000 0.69528
 H958 H 0.89682 0.27702 0.61055
 H959 H 0.86602 0.23985 0.64522
 H960 H 0.88426 0.30867 0.70588
   
