data_POSCAR
  _audit_creation_date              2014-09-24
  _audit_creation_method            'ToBaCCo'
  _symmetry_space_group_name_H-M    'P1'
  _symmetry_Int_Tables_number       1
  _symmetry_cell_setting            triclinic
  loop_
  _symmetry_equiv_pos_as_xyz
 x,y,z
_cell_length_a 33.2233
_cell_length_b 33.1869
_cell_length_c 45.9131
_cell_angle_alpha 89.661600
_cell_angle_beta 90.400200
_cell_angle_gamma 89.874600
loop_
  _atom_site_label
  _atom_site_type_symbol
  _atom_site_fract_x
  _atom_site_fract_y
  _atom_site_fract_z
O1 O -0.03377 0.53797 0.97223
 O2 O -0.03397 0.45905 1.02884
 O3 O -0.03382 0.53765 1.02887
 O4 O -0.03340 0.45937 0.97221
 O5 O 0.03317 0.45944 0.97278
 O6 O 0.03274 0.53747 1.02936
 O7 O 0.03259 0.45886 1.02941
 O8 O 0.03280 0.53804 0.97272
 Cu9 Cu -0.04046 0.49852 1.00049
 Cu10 Cu 0.03954 0.49845 1.00112
 C11 C -0.00051 0.55147 0.96301
 C12 C -0.00077 0.44547 1.03859
 C13 C -0.00056 0.55088 1.03858
 C14 C 0.00001 0.44609 0.96303
 O15 O 0.46174 0.03508 0.52727
 O16 O 0.53935 0.03445 0.47052
 O17 O 0.46081 0.03458 0.47064
 O18 O 0.54024 0.03432 0.52716
 O19 O 0.53987 -0.03232 0.52751
 O20 O 0.46073 -0.03206 0.47107
 O21 O 0.53926 -0.03218 0.47087
 O22 O 0.46137 -0.03156 0.52771
 Cu23 Cu 0.50056 0.04133 0.49885
 Cu24 Cu 0.50029 -0.03875 0.49933
 C25 C 0.44831 0.00192 0.53698
 C26 C 0.55257 0.00108 0.46120
 C27 C 0.44726 0.00125 0.46143
 C28 C 0.55355 0.00090 0.53678
 C29 C -0.05521 0.00715 0.26433
 C30 C -0.01852 0.01417 0.25025
 C31 C -0.01188 0.05126 0.23628
 C32 C -0.04190 0.08095 0.23610
 C33 C -0.07831 0.07399 0.25046
 C34 C -0.08489 0.03718 0.26472
 C35 C 0.01289 -0.01722 0.25015
 C36 C 0.00587 -0.05402 0.23613
 C37 C 0.03592 -0.08367 0.23572
 C38 C 0.07274 -0.07697 0.24991
 C39 C 0.07970 -0.04045 0.26422
 C40 C 0.04998 -0.01045 0.26405
 H41 H -0.06031 -0.02134 0.27536
 H42 H 0.01632 0.05666 0.22518
 H43 H -0.02263 -0.05921 0.22515
 H44 H 0.05539 0.01783 0.27511
 H45 H -0.10142 0.09712 0.25054
 H46 H 0.09589 -0.10006 0.24980
 C47 C -0.00585 -0.05132 0.76419
 C48 C -0.01264 -0.01443 0.74989
 C49 C -0.04949 -0.00745 0.73560
 C50 C -0.07918 -0.03734 0.73532
 C51 C -0.07246 -0.07396 0.74991
 C52 C -0.03589 -0.08087 0.76448
 C53 C 0.01875 0.01682 0.74986
 C54 C 0.05542 0.00995 0.73574
 C55 C 0.08508 0.03987 0.73539
 C56 C 0.07851 0.07641 0.74975
 C57 C 0.04212 0.08321 0.76416
 C58 C 0.01211 0.05363 0.76393
 H59 H 0.02247 -0.05668 0.77546
 H60 H -0.05470 0.02091 0.72432
 H61 H 0.06051 -0.01833 0.72463
 H62 H -0.01608 0.05892 0.77506
 H63 H -0.09558 -0.09697 0.74991
 H64 H 0.10161 0.09945 0.74970
 C65 C -0.00044 -0.41789 0.06003
 C66 C 0.00031 -0.39112 0.07766
 C67 C 0.00195 -0.35857 0.09821
 C68 C -0.03193 -0.33432 0.10271
 C69 C -0.02966 -0.30143 0.12155
 C70 C 0.00659 -0.29236 0.13612
 C71 C 0.04029 -0.31731 0.13176
 C72 C 0.03796 -0.35015 0.11291
 C73 C 0.00969 -0.25631 0.15503
 C74 C 0.03182 -0.25779 0.18127
 C75 C 0.03610 -0.22331 0.19837
 C76 C 0.01834 -0.18695 0.18950
 C77 C -0.00414 -0.18529 0.16363
 C78 C -0.00848 -0.21971 0.14651
 C79 C 0.02417 -0.15100 0.20637
 C80 C 0.02938 -0.12051 0.22002
 H81 H -0.05996 -0.34057 0.09143
 H82 H -0.05625 -0.28310 0.12473
 H83 H 0.06877 -0.31081 0.14232
 H84 H 0.06443 -0.36859 0.10945
 H85 H 0.04575 -0.28562 0.18858
 H86 H 0.05356 -0.22493 0.21837
 H87 H -0.01785 -0.15724 0.15649
 H88 H -0.02520 -0.21741 0.12624
 C89 C -0.00109 0.41559 0.05889
 C90 C -0.00194 0.38858 0.07654
 C91 C -0.00365 0.35575 0.09712
 C92 C 0.01782 0.32023 0.09190
 C93 C 0.01460 0.28751 0.11105
 C94 C -0.01024 0.28987 0.13569
 C95 C -0.03127 0.32593 0.14096
 C96 C -0.02798 0.35863 0.12178
 C97 C -0.01514 0.25442 0.15524
 C98 C -0.05331 0.24424 0.16612
 C99 C -0.05829 0.20989 0.18348
 C100 C -0.02523 0.18530 0.19025
 C101 C 0.01297 0.19543 0.17987
 C102 C 0.01802 0.22977 0.16249
 C103 C -0.03078 0.14895 0.20697
 C104 C -0.03572 0.11814 0.22051
 H105 H 0.03655 0.31759 0.07278
 H106 H 0.03072 0.26001 0.10615
 H107 H -0.05023 0.32885 0.15992
 H108 H -0.04475 0.38599 0.12602
 H109 H -0.07952 0.26225 0.16059
 H110 H -0.08803 0.20220 0.19126
 H111 H 0.03877 0.17660 0.18499
 H112 H 0.04785 0.23707 0.15474
 C113 C 0.41726 0.00246 0.55852
 C114 C 0.39066 0.00359 0.57623
 C115 C 0.35835 0.00569 0.59688
 C116 C 0.34808 0.04268 0.60930
 C117 C 0.31550 0.04528 0.62830
 C118 C 0.29268 0.01086 0.63511
 C119 C 0.30359 -0.02632 0.62281
 C120 C 0.33621 -0.02884 0.60381
 C121 C 0.25694 0.01405 0.65423
 C122 C 0.22133 -0.00686 0.64740
 C123 C 0.18712 -0.00254 0.66465
 C124 C 0.18800 0.02266 0.68897
 C125 C 0.22341 0.04319 0.69619
 C126 C 0.25768 0.03893 0.67895
 C127 C 0.15218 0.02839 0.70591
 C128 C 0.12180 0.03349 0.71961
 H129 H 0.36487 0.06965 0.60396
 H130 H 0.30754 0.07442 0.63707
 H131 H 0.28692 -0.05343 0.62789
 H132 H 0.34390 -0.05763 0.59431
 H133 H 0.21960 -0.02577 0.62829
 H134 H 0.15980 -0.01841 0.65878
 H135 H 0.22442 0.06277 0.71498
 H136 H 0.28476 0.05504 0.68497
 C137 C -0.41485 0.00049 0.55823
 C138 C -0.38783 -0.00054 0.57588
 C139 C -0.35504 -0.00255 0.59648
 C140 C -0.33173 0.03164 0.60212
 C141 C -0.29869 0.02913 0.62109
 C142 C -0.28852 -0.00769 0.63466
 C143 C -0.31250 -0.04174 0.62914
 C144 C -0.34550 -0.03916 0.61017
 C145 C -0.25237 -0.01095 0.65376
 C146 C -0.25315 -0.03452 0.67934
 C147 C -0.21856 -0.03889 0.69661
 C148 C -0.18279 -0.01977 0.68858
 C149 C -0.18184 0.00413 0.66338
 C150 C -0.21637 0.00856 0.64609
 C151 C -0.14670 -0.02562 0.70561
 C152 C -0.11611 -0.03082 0.71941
 H153 H -0.33885 0.06014 0.59164
 H154 H -0.28112 0.05597 0.62517
 H155 H -0.30515 -0.07063 0.63891
 H156 H -0.36320 -0.06586 0.60583
 H157 H -0.28052 -0.04952 0.68601
 H158 H -0.21963 -0.05744 0.71609
 H159 H -0.15424 0.01891 0.65688
 H160 H -0.21462 0.02642 0.62633
 C161 C -0.00071 -0.41698 0.94152
 C162 C -0.00153 -0.38997 0.92385
 C163 C -0.00324 -0.35717 0.90324
 C164 C -0.03970 -0.34738 0.88947
 C165 C -0.04199 -0.31435 0.87049
 C166 C -0.00780 -0.29057 0.86508
 C167 C 0.02887 -0.30100 0.87874
 C168 C 0.03109 -0.33407 0.89770
 C169 C -0.01075 -0.25437 0.84599
 C170 C 0.00896 -0.21846 0.85374
 C171 C 0.00482 -0.18386 0.83646
 C172 C -0.01899 -0.18466 0.81121
 C173 C -0.03829 -0.22035 0.80310
 C174 C -0.03421 -0.25500 0.82035
 C175 C -0.02457 -0.14850 0.79420
 C176 C -0.02957 -0.11786 0.78040
 H177 H -0.06651 -0.36491 0.89373
 H178 H -0.07077 -0.30679 0.86066
 H179 H 0.05581 -0.28359 0.87474
 H180 H 0.05947 -0.34139 0.90825
 H181 H 0.02675 -0.21681 0.87354
 H182 H 0.01973 -0.15633 0.84302
 H183 H -0.05678 -0.22130 0.78358
 H184 H -0.04935 -0.28231 0.81363
 C185 C 0.00045 0.41487 0.94157
 C186 C 0.00143 0.38812 0.92393
 C187 C 0.00331 0.35562 0.90337
 C188 C -0.01821 0.32012 0.90850
 C189 C -0.01488 0.28771 0.88935
 C190 C 0.01014 0.29036 0.86480
 C191 C 0.03123 0.32641 0.85963
 C192 C 0.02783 0.35880 0.87880
 C193 C 0.01513 0.25523 0.84525
 C194 C 0.05336 0.24504 0.83448
 C195 C 0.05841 0.21099 0.81710
 C196 C 0.02536 0.18672 0.81018
 C197 C -0.01289 0.19687 0.82044
 C198 C -0.01801 0.23091 0.83785
 C199 C 0.03097 0.15068 0.79341
 C200 C 0.03593 0.12011 0.77982
 H201 H -0.03709 0.31725 0.92754
 H202 H -0.03105 0.26020 0.89417
 H203 H 0.05034 0.32956 0.84074
 H204 H 0.04463 0.38615 0.87463
 H205 H 0.07955 0.26281 0.84011
 H206 H 0.08818 0.20328 0.80940
 H207 H -0.03869 0.17828 0.81521
 H208 H -0.04788 0.23823 0.84550
 C209 C -0.41801 0.00112 0.44085
 C210 C -0.39138 0.00178 0.42315
 C211 C -0.35899 0.00333 0.40252
 C212 C -0.33472 -0.03056 0.39806
 C213 C -0.30196 -0.02834 0.37917
 C214 C -0.29302 0.00788 0.36450
 C215 C -0.31799 0.04160 0.36881
 C216 C -0.35071 0.03931 0.38772
 C217 C -0.25707 0.01095 0.34556
 C218 C -0.25867 0.03296 0.31928
 C219 C -0.22428 0.03724 0.30214
 C220 C -0.18789 0.01958 0.31103
 C221 C -0.18612 -0.00278 0.33694
 C222 C -0.22045 -0.00712 0.35409
 C223 C -0.15204 0.02542 0.29413
 C224 C -0.12163 0.03063 0.28046
 H225 H -0.34086 -0.05856 0.40942
 H226 H -0.28360 -0.05495 0.37603
 H227 H -0.31160 0.07006 0.35818
 H228 H -0.36916 0.06580 0.39114
 H229 H -0.28651 0.04682 0.31195
 H230 H -0.22599 0.05461 0.28211
 H231 H -0.15805 -0.01641 0.34409
 H232 H -0.21806 -0.02375 0.37439
 C233 C 0.41556 0.00107 0.44006
 C234 C 0.38839 0.00025 0.42254
 C235 C 0.35538 -0.00146 0.40212
 C236 C 0.35822 -0.02535 0.37720
 C237 C 0.32535 -0.02868 0.35818
 C238 C 0.28916 -0.00816 0.36387
 C239 C 0.28684 0.01625 0.38877
 C240 C 0.31972 0.01951 0.40776
 C241 C 0.25356 -0.01313 0.34448
 C242 C 0.22847 0.01989 0.33771
 C243 C 0.19402 0.01474 0.32046
 C244 C 0.18421 -0.02342 0.30976
 C245 C 0.20924 -0.05634 0.31606
 C246 C 0.24370 -0.05127 0.33328
 C247 C 0.14779 -0.02910 0.29316
 C248 C 0.11693 -0.03414 0.27971
 H249 H 0.38568 -0.04173 0.37263
 H250 H 0.32824 -0.04730 0.33901
 H251 H 0.25925 0.03197 0.39399
 H252 H 0.31711 0.03789 0.42709
 H253 H 0.23551 0.04970 0.34571
 H254 H 0.17486 0.04044 0.31571
 H255 H 0.20180 -0.08605 0.30801
 H256 H 0.26206 -0.07738 0.33843
   
