data_POSCAR
  _audit_creation_date              2014-09-24
  _audit_creation_method            'ToBaCCo'
  _symmetry_space_group_name_H-M    'P1'
  _symmetry_Int_Tables_number       1
  _symmetry_cell_setting            triclinic
  loop_
  _symmetry_equiv_pos_as_xyz
 x,y,z
_cell_length_a 29.8183
_cell_length_b 29.8220
_cell_length_c 29.8605
_cell_angle_alpha 89.137100
_cell_angle_beta 89.083400
_cell_angle_gamma 91.413400
loop_
  _atom_site_label
  _atom_site_type_symbol
  _atom_site_fract_x
  _atom_site_fract_y
  _atom_site_fract_z
O1 O 0.56424 0.49763 0.03647
 O2 O 0.44067 0.49940 0.03579
 O3 O 0.50008 0.43675 0.03600
 O4 O 0.50491 0.56013 0.03635
 O5 O 0.51135 0.56124 -0.03741
 O6 O 0.49671 0.43834 -0.03780
 O7 O 0.44269 0.50589 -0.03783
 O8 O 0.56540 0.49413 -0.03732
 Cu9 Cu 0.50229 0.49829 0.04359
 Cu10 Cu 0.50417 0.49995 -0.04502
 C11 C 0.58588 0.49487 -0.00035
 C12 C 0.42046 0.50397 -0.00112
 C13 C 0.49683 0.41649 -0.00096
 C14 C 0.50977 0.58173 -0.00046
 O15 O -0.03797 0.56173 0.50686
 O16 O -0.04518 0.43828 0.50438
 O17 O -0.04142 0.49865 0.56713
 O18 O -0.04170 0.50246 0.44412
 O19 O 0.03195 0.49657 0.44251
 O20 O 0.03258 0.49757 0.56583
 O21 O 0.02869 0.43565 0.50578
 O22 O 0.03577 0.55921 0.50228
 Cu23 Cu -0.04899 0.50036 0.50579
 Cu24 Cu 0.03968 0.49705 0.50400
 C25 C 0.00014 0.58176 0.50441
 C26 C -0.00949 0.41587 0.50503
 C27 C -0.00439 0.49811 0.58752
 C28 C -0.00499 0.49990 0.42227
 O29 O 0.49955 0.04054 0.56518
 O30 O 0.50235 0.03981 0.44211
 O31 O 0.43877 0.04425 0.50283
 O32 O 0.56168 0.03494 0.50440
 O33 O 0.55407 -0.03887 0.50367
 O34 O 0.43142 -0.02955 0.50665
 O35 O 0.49221 -0.03375 0.44331
 O36 O 0.49279 -0.03322 0.56706
 Cu37 Cu 0.50113 0.04730 0.50350
 Cu38 Cu 0.49189 -0.04126 0.50535
 C39 C 0.49626 0.00388 0.58738
 C40 C 0.49779 0.00303 0.42161
 C41 C 0.41412 0.00887 0.50483
 C42 C 0.57884 -0.00362 0.50383
 O43 O 0.46643 -0.00586 -0.05767
 O44 O 0.46717 -0.00447 0.06590
 O45 O 0.46210 0.05665 0.00234
 O46 O 0.47148 -0.06614 0.00576
 O47 O 0.54524 -0.05859 0.00112
 O48 O 0.53592 0.06413 0.00341
 O49 O 0.54109 0.00167 0.06392
 O50 O 0.53994 0.00509 -0.05931
 Cu51 Cu 0.45936 -0.00565 0.00429
 Cu52 Cu 0.54798 0.00364 0.00212
 C53 C 0.50307 -0.00003 -0.07955
 C54 C 0.50434 -0.00137 0.08600
 C55 C 0.49742 0.08136 0.00273
 C56 C 0.50995 -0.08333 0.00346
 O57 O -0.05886 0.53650 1.00564
 O58 O 0.06484 0.54421 1.00200
 O59 O 0.00175 0.54060 0.94259
 O60 O 0.00278 0.54125 1.06541
 O61 O 0.00426 0.46727 1.06710
 O62 O 0.00788 0.46698 0.94361
 O63 O 0.06758 0.47036 1.00649
 O64 O -0.05575 0.46264 1.00425
 Cu65 Cu 0.00259 0.54809 1.00383
 Cu66 Cu 0.00631 0.45939 1.00553
 C67 C -0.07840 0.49817 1.00487
 C68 C 0.08727 0.50855 1.00407
 C69 C 0.00457 0.50380 0.92206
 C70 C 0.00296 0.50443 1.08729
 O71 O 0.00311 -0.06309 0.46394
 O72 O -0.00862 0.05963 0.46372
 O73 O 0.05862 0.00575 0.46397
 O74 O -0.06428 -0.00888 0.46367
 O75 O -0.06593 -0.00496 0.53744
 O76 O 0.05746 -0.00016 0.53776
 O77 O -0.00519 0.05902 0.53753
 O78 O -0.00348 -0.06453 0.53771
 Cu79 Cu -0.00265 -0.00162 0.45638
 Cu80 Cu -0.00439 -0.00285 0.54506
 C81 C 0.00094 -0.08483 0.50086
 C82 C -0.00809 0.08037 0.50058
 C83 C 0.07908 0.00460 0.50092
 C84 C -0.08616 -0.00831 0.50049
 C85 C -0.27106 0.49028 1.00049
 C86 C -0.29449 0.47220 0.96429
 C87 C -0.34123 0.47384 0.96388
 C88 C -0.36467 0.49272 0.99978
 C89 C -0.33999 0.51011 1.03549
 N90 N -0.29442 0.50895 1.03472
 C91 C -0.22156 0.49087 1.00155
 N92 N -0.19952 0.52693 1.01903
 C93 C -0.15398 0.52996 1.02042
 C94 C -0.12791 0.49495 1.00426
 C95 C -0.14998 0.45704 0.98700
 C96 C -0.19675 0.45503 0.98525
 H97 H -0.35905 0.46015 0.93566
 H98 H -0.35683 0.52534 1.06359
 H99 H -0.13823 0.55957 1.03439
 H100 H -0.13107 0.42930 0.97425
 H101 H -0.27686 0.45792 0.93613
 H102 H -0.21330 0.42554 0.97187
 C103 C 0.27983 0.51226 0.99915
 C104 C 0.30418 0.52062 0.95925
 C105 C 0.35081 0.51742 0.95896
 C106 C 0.37347 0.50693 0.99862
 C107 C 0.34757 0.49937 1.03800
 N108 N 0.30210 0.50156 1.03710
 C109 C 0.23040 0.51300 1.00040
 N110 N 0.20711 0.48040 1.02393
 C111 C 0.16152 0.47849 1.02559
 C112 C 0.13675 0.51123 1.00341
 C113 C 0.16006 0.54579 0.97988
 C114 C 0.20693 0.54650 0.97786
 H115 H 0.36903 0.52356 0.92770
 H116 H 0.36324 0.49090 1.06936
 H117 H 0.14467 0.45156 1.04445
 H118 H 0.14205 0.57160 0.96233
 H119 H 0.28725 0.52847 0.92840
 H120 H 0.22463 0.57314 0.95934
 C121 C 0.00630 -0.27714 0.50208
 C122 C 0.04551 -0.30095 0.49410
 C123 C 0.04376 -0.34781 0.49557
 C124 C 0.00276 -0.37109 0.50391
 C125 C -0.03572 -0.34564 0.51159
 N126 N -0.03288 -0.30008 0.51097
 C127 C 0.00664 -0.22768 0.50148
 N128 N -0.01769 -0.20589 0.53298
 C129 C -0.01932 -0.16038 0.53385
 C130 C 0.00344 -0.13418 0.50090
 C131 C 0.02822 -0.15596 0.46776
 C132 C 0.03035 -0.20270 0.46825
 H133 H 0.07441 -0.36567 0.48953
 H134 H -0.06804 -0.36181 0.51859
 H135 H -0.03911 -0.14475 0.55972
 H136 H 0.04621 -0.13683 0.44178
 H137 H 0.07727 -0.28352 0.48752
 H138 H 0.04942 -0.21918 0.44238
 C139 C -0.01505 0.27272 0.50196
 C140 C -0.05118 0.29699 0.48551
 C141 C -0.04980 0.34378 0.48720
 C142 C -0.01224 0.36635 0.50455
 C143 C 0.02305 0.34079 0.52088
 N144 N 0.02063 0.29526 0.51954
 C145 C -0.01489 0.22324 0.50099
 N146 N 0.00418 0.20033 0.53525
 C147 C 0.00613 0.15482 0.53610
 C148 C -0.01082 0.12976 0.50045
 C149 C -0.03008 0.15274 0.46451
 C150 C -0.03253 0.19942 0.46483
 H151 H -0.07772 0.36231 0.47433
 H152 H 0.05240 0.35695 0.53494
 H153 H 0.02160 0.13835 0.56425
 H154 H -0.04348 0.13460 0.43636
 H155 H -0.08039 0.28002 0.47205
 H156 H -0.04709 0.21671 0.43665
 C157 C 0.49980 0.00498 -0.27185
 C158 C 0.50786 0.04494 -0.29625
 C159 C 0.50591 0.04473 -0.34287
 C160 C 0.49684 0.00455 -0.36554
 C161 C 0.48882 -0.03476 -0.33959
 N162 N 0.49007 -0.03346 -0.29408
 C163 C 0.50149 0.00406 -0.22249
 N164 N 0.47001 -0.02032 -0.19845
 C165 C 0.46963 -0.02189 -0.15287
 C166 C 0.50290 0.00123 -0.12900
 C167 C 0.53613 0.02581 -0.15319
 C168 C 0.53529 0.02767 -0.19988
 H169 H 0.51220 0.07602 -0.36106
 H170 H 0.48127 -0.06648 -0.35531
 H171 H 0.44369 -0.04156 -0.13535
 H172 H 0.56237 0.04408 -0.13599
 H173 H 0.51499 0.07616 -0.27940
 H174 H 0.56113 0.04681 -0.21815
 C175 C 0.50355 0.00288 0.27850
 C176 C 0.52226 0.03923 0.30163
 C177 C 0.51992 0.03942 0.34831
 C178 C 0.49953 0.00325 0.37209
 C179 C 0.48111 -0.03244 0.34771
 N180 N 0.48319 -0.03157 0.30212
 C181 C 0.50493 0.00170 0.22905
 N182 N 0.46934 -0.01617 0.20685
 C183 C 0.46834 -0.01749 0.16133
 C184 C 0.50499 -0.00078 0.13550
 C185 C 0.54236 0.01690 0.15779
 C186 C 0.54235 0.01846 0.20445
 H187 H 0.53448 0.06766 0.36580
 H188 H 0.46474 -0.06077 0.36480
 H189 H 0.43906 -0.03181 0.14542
 H190 H 0.57137 0.03005 0.13914
 H191 H 0.53787 0.06757 0.28386
 H192 H 0.57154 0.03209 0.22108
 C193 C 0.51783 -0.27529 0.00028
 C194 C 0.53621 -0.29822 -0.03609
 C195 C 0.53356 -0.34500 -0.03643
 C196 C 0.51332 -0.36886 -0.00033
 C197 C 0.49581 -0.34466 0.03559
 N198 N 0.49798 -0.29909 0.03475
 C199 C 0.51756 -0.22590 0.00109
 N200 N 0.48151 -0.20554 0.01955
 C201 C 0.47850 -0.16021 0.02074
 C202 C 0.51348 -0.13257 0.00322
 C203 C 0.55144 -0.15282 -0.01505
 C204 C 0.55347 -0.19949 -0.01649
 H205 H 0.54740 -0.36249 -0.06481
 H206 H 0.47960 -0.36186 0.06388
 H207 H 0.44886 -0.14584 0.03555
 H208 H 0.57916 -0.13260 -0.02883
 H209 H 0.55136 -0.28024 -0.06448
 H210 H 0.58297 -0.21469 -0.03067
 C211 C 0.48942 0.27344 -0.00080
 C212 C 0.47177 0.29755 -0.03691
 C213 C 0.47425 0.34436 -0.03710
 C214 C 0.49351 0.36706 -0.00108
 C215 C 0.51028 0.34169 0.03459
 N216 N 0.50836 0.29615 0.03358
 C217 C 0.48983 0.22402 -0.00011
 N218 N 0.52568 0.20318 0.01763
 C219 C 0.52873 0.15781 0.01885
 C220 C 0.49392 0.13062 0.00221
 C221 C 0.45617 0.15134 -0.01535
 C222 C 0.45415 0.19807 -0.01692
 H223 H 0.46100 0.36278 -0.06527
 H224 H 0.52575 0.35798 0.06279
 H225 H 0.55819 0.14305 0.03308
 H226 H 0.42861 0.13146 -0.02845
 H227 H 0.45734 0.28046 -0.06519
 H228 H 0.42482 0.21366 -0.03052
 C229 C -0.27861 -0.01249 0.50089
 C230 C -0.30491 -0.04808 0.48447
 C231 C -0.35159 -0.04555 0.48600
 C232 C -0.37193 -0.00737 0.50314
 C233 C -0.34440 0.02739 0.51932
 N234 N -0.29907 0.02384 0.51817
 C235 C -0.22922 -0.01357 0.50033
 N236 N -0.20636 0.00527 0.53466
 C237 C -0.16081 0.00644 0.53580
 C238 C -0.13561 -0.01106 0.50035
 C239 C -0.15847 -0.03025 0.46440
 C240 C -0.20529 -0.03193 0.46445
 H241 H -0.37173 -0.07310 0.47325
 H242 H -0.35887 0.05718 0.53322
 H243 H -0.14438 0.02190 0.56392
 H244 H -0.14017 -0.04401 0.43638
 H245 H -0.28964 -0.07777 0.47125
 H246 H -0.22250 -0.04633 0.43623
 C247 C 0.27143 0.01517 0.50275
 C248 C 0.29747 0.05132 0.48510
 C249 C 0.34420 0.04980 0.48652
 C250 C 0.36484 0.01211 0.50481
 C251 C 0.33755 -0.02308 0.52245
 N252 N 0.29217 -0.02057 0.52128
 C253 C 0.22201 0.01477 0.50187
 N254 N 0.19839 -0.00536 0.53633
 C255 C 0.15284 -0.00827 0.53707
 C256 C 0.12847 0.00871 0.50105
 C257 C 0.15215 0.02922 0.46497
 C258 C 0.19890 0.03265 0.46541
 H259 H 0.36416 0.07766 0.47266
 H260 H 0.35222 -0.05252 0.53729
 H261 H 0.13580 -0.02463 0.56536
 H262 H 0.13452 0.04270 0.43654
 H263 H 0.28194 0.08058 0.47085
 H264 H 0.21674 0.04799 0.43704
 C265 C -0.00473 0.50411 1.27944
 C266 C -0.04091 0.52180 1.30339
 C267 C -0.04124 0.51996 1.35007
 C268 C -0.00535 0.50111 1.37288
 C269 C 0.03013 0.48364 1.34769
 N270 N 0.02938 0.48519 1.30217
 C271 C -0.00319 0.50513 1.23008
 N272 N 0.01414 0.46986 1.20779
 C273 C 0.01626 0.46875 1.16229
 C274 C 0.00114 0.50503 1.13667
 C275 C -0.01605 0.54205 1.15904
 C276 C -0.01856 0.54210 1.20569
 H277 H -0.06927 0.53372 1.36831
 H278 H 0.05819 0.46842 1.36409
 H279 H 0.03012 0.43976 1.14623
 H280 H -0.02802 0.57073 1.14047
 H281 H -0.06894 0.53628 1.28625
 H282 H -0.03169 0.57103 1.22246
 C283 C -0.00324 0.50163 0.73023
 C284 C -0.04085 0.51670 0.70731
 C285 C -0.04146 0.51490 0.66072
 C286 C -0.00448 0.49871 0.63691
 C287 C 0.03238 0.48366 0.66109
 N288 N 0.03195 0.48513 0.70660
 C289 C -0.00130 0.50315 0.77946
 N290 N 0.01803 0.46910 0.80243
 C291 C 0.02029 0.46848 0.84790
 C292 C 0.00316 0.50401 0.87270
 C293 C -0.01603 0.53982 0.84955
 C294 C -0.01859 0.53938 0.80302
 H295 H -0.07057 0.52676 0.64331
 H296 H 0.06135 0.47052 0.64391
 H297 H 0.03570 0.44045 0.86457
 H298 H -0.02961 0.56789 0.86744
 H299 H -0.06969 0.52921 0.72523
 H300 H -0.03337 0.56736 0.78563
   
