data_POSCAR
  _audit_creation_date              2014-09-24
  _audit_creation_method            'ToBaCCo'
  _symmetry_space_group_name_H-M    'P1'
  _symmetry_Int_Tables_number       1
  _symmetry_cell_setting            triclinic
  loop_
  _symmetry_equiv_pos_as_xyz
 x,y,z
_cell_length_a 36.7207
_cell_length_b 32.9602
_cell_length_c 14.7954
_cell_angle_alpha 90.256600
_cell_angle_beta 89.769300
_cell_angle_gamma 123.978500
loop_
  _atom_site_label
  _atom_site_type_symbol
  _atom_site_fract_x
  _atom_site_fract_y
  _atom_site_fract_z
C1 C 0.46416 0.95850 0.55816
 C2 C 0.45658 0.95338 0.46392
 C3 C 0.47248 0.99526 0.41075
 C4 C 0.49867 1.04294 0.44698
 C5 C 0.50940 1.04833 0.54068
 C6 C 0.49141 1.00599 0.59406
 H7 H 0.49796 1.01010 0.66616
 H8 H 0.46603 0.99034 0.33866
 C9 C 0.04561 0.52385 0.54142
 C10 C 0.04365 0.53022 0.44798
 C11 C 0.00294 0.51302 0.40768
 C12 C -0.03661 0.48711 0.45753
 C13 C -0.03431 0.48012 0.55154
 C14 C 0.00666 0.49858 0.59178
 H15 H 0.00843 0.49484 0.66416
 H16 H 0.00199 0.51697 0.33516
 C17 C 0.48283 0.51616 0.55481
 C18 C 0.47235 0.50799 0.46161
 C19 C 0.48583 0.48287 0.40975
 C20 C 0.51053 0.46659 0.44716
 C21 C 0.52174 0.47494 0.54010
 C22 C 0.50840 0.50056 0.59156
 H23 H 0.51454 0.50436 0.66371
 H24 H 0.47937 0.47866 0.33765
 O25 O 0.38416 0.62377 -0.07170
 O26 O 0.39099 0.70561 -0.10454
 C27 C 0.37438 0.72982 -0.12044
 O28 O 0.34238 0.72435 -0.07538
 O29 O 0.26565 0.64297 -0.10550
 C30 C 0.24109 0.59712 -0.11903
 O31 O 0.24447 0.56686 -0.07353
 O32 O 0.31455 0.56651 -0.10580
 C33 C 0.35553 0.58786 -0.11936
 O34 O 0.38325 0.63838 0.10683
 O35 O 0.39400 0.72274 0.07445
 C36 C 0.36969 0.73189 0.11884
 O37 O 0.32882 0.70981 0.10397
 O38 O 0.25107 0.63033 0.07390
 C39 C 0.24122 0.59301 0.11992
 O40 O 0.25811 0.56884 0.10490
 O41 O 0.32580 0.56363 0.07322
 C42 C 0.35990 0.59243 0.11960
 Cr43 Cr 0.38575 0.67143 0.00131
 Cr44 Cr 0.29796 0.67545 -0.00075
 Cr45 Cr 0.28711 0.56908 -0.00025
 O46 O 0.32359 0.63869 0.00031
 O47 O 0.62448 0.35894 -0.11468
 O48 O 0.61780 0.27722 -0.08657
 C49 C 0.64457 0.26818 -0.11917
 O50 O 0.68412 0.28968 -0.09349
 O51 O 0.75885 0.37369 -0.06878
 C52 C 0.76719 0.41014 -0.11641
 O53 O 0.74864 0.43276 -0.10353
 O54 O 0.67847 0.43422 -0.07662
 C55 C 0.64537 0.40479 -0.12439
 O56 O 0.61898 0.36976 0.06561
 O57 O 0.61378 0.28824 0.09269
 C58 C 0.63408 0.26961 0.11981
 O59 O 0.67017 0.27998 0.08614
 O60 O 0.74365 0.36358 0.11190
 C61 C 0.76726 0.40949 0.12149
 O62 O 0.76169 0.43755 0.07445
 O63 O 0.68754 0.43104 0.10148
 C64 C 0.64616 0.40682 0.11359
 Cr65 Cr 0.62128 0.32501 -0.01033
 Cr66 Cr 0.71304 0.32809 0.00843
 Cr67 Cr 0.71770 0.43105 -0.00103
 O68 O 0.68385 0.36101 -0.00102
 C69 C 0.42407 0.92200 -0.30216
 C70 C 0.44387 0.91865 -0.38113
 C71 C 0.44484 0.87678 -0.39401
 C72 C 0.42743 0.83987 -0.32775
 C73 C 0.40731 0.84400 -0.24985
 C74 C 0.40546 0.88488 -0.23815
 C75 C 0.38996 0.80765 -0.18361
 C76 C 0.39334 0.76745 -0.19200
 C77 C 0.41415 0.76380 -0.26852
 C78 C 0.43066 0.79949 -0.33643
 H79 H 0.46149 0.87425 -0.45212
 H80 H 0.39019 0.88855 -0.17866
 H81 H 0.37452 0.81122 -0.12423
 H82 H 0.44623 0.79573 -0.39526
 H83 H 0.42217 0.95327 -0.29061
 H84 H 0.41699 0.73299 -0.27643
 C85 C 0.11920 0.59604 -0.41059
 C86 C 0.08782 0.54527 -0.41036
 C87 C 0.09516 0.51512 -0.35833
 C88 C 0.13277 0.53546 -0.30449
 C89 C 0.16358 0.58677 -0.30211
 C90 C 0.15683 0.61669 -0.35680
 C91 C 0.19981 0.60718 -0.24336
 C92 C 0.20550 0.57676 -0.18725
 C93 C 0.17532 0.52566 -0.19329
 C94 C 0.13937 0.50528 -0.25105
 H95 H 0.07100 0.47589 -0.35844
 H96 H 0.18009 0.65605 -0.35640
 H97 H 0.22287 0.64655 -0.23998
 H98 H 0.11623 0.46590 -0.25256
 H99 H 0.11380 0.61979 -0.45015
 H100 H 0.17878 0.50111 -0.15151
 C101 C 0.49357 0.56895 -0.31706
 C102 C 0.46667 0.53675 -0.38657
 C103 C 0.42261 0.52272 -0.39145
 C104 C 0.40560 0.53913 -0.32634
 C105 C 0.43326 0.57115 -0.25727
 C106 C 0.47722 0.58636 -0.25396
 C107 C 0.41645 0.58685 -0.19116
 C108 C 0.37191 0.57046 -0.19123
 C109 C 0.34437 0.53835 -0.25983
 C110 C 0.36117 0.52304 -0.32723
 H111 H 0.40069 0.49652 -0.44194
 H112 H 0.49885 0.61111 -0.20146
 H113 H 0.43817 0.61132 -0.13842
 H114 H 0.33935 0.49830 -0.37949
 H115 H 0.52775 0.58140 -0.31210
 H116 H 0.31001 0.52537 -0.26168
 C117 C 0.52406 0.12932 -0.42491
 C118 C 0.53385 0.09394 -0.41416
 C119 C 0.56668 0.10319 -0.35210
 C120 C 0.58866 0.14620 -0.30051
 C121 C 0.57683 0.18011 -0.30824
 C122 C 0.54506 0.17177 -0.37178
 C123 C 0.59617 0.22100 -0.25054
 C124 C 0.62801 0.22892 -0.18722
 C125 C 0.64141 0.19656 -0.18411
 C126 C 0.62159 0.15525 -0.23969
 H127 H 0.57534 0.07685 -0.34441
 H128 H 0.53579 0.19755 -0.37907
 H129 H 0.58603 0.24619 -0.25379
 H130 H 0.63136 0.12984 -0.23373
 H131 H 0.49843 0.12296 -0.47074
 H132 H 0.66580 0.20200 -0.13561
 C133 C 0.91653 0.41965 -0.33126
 C134 C 0.92715 0.45900 -0.38749
 C135 C 0.90266 0.47981 -0.38163
 C136 C 0.86816 0.46184 -0.31899
 C137 C 0.85794 0.42238 -0.26233
 C138 C 0.88200 0.40123 -0.26958
 C139 C 0.82442 0.40525 -0.19796
 C140 C 0.80105 0.42730 -0.18807
 C141 C 0.81111 0.46618 -0.24548
 C142 C 0.84429 0.48320 -0.31058
 H143 H 0.91121 0.51064 -0.42421
 H144 H 0.87456 0.37097 -0.22658
 H145 H 0.81718 0.37523 -0.15438
 H146 H 0.85165 0.51345 -0.35352
 H147 H 0.93521 0.40335 -0.33501
 H148 H 0.79357 0.48374 -0.23966
 C149 C 0.53241 0.40853 -0.43155
 C150 C 0.54375 0.45652 -0.41556
 C151 C 0.57569 0.48503 -0.34948
 C152 C 0.59493 0.46594 -0.29902
 C153 C 0.58188 0.41712 -0.31284
 C154 C 0.55110 0.38900 -0.38041
 C155 C 0.59908 0.39711 -0.25738
 C156 C 0.62968 0.42580 -0.18938
 C157 C 0.64375 0.47501 -0.17955
 C158 C 0.62642 0.49478 -0.23344
 H159 H 0.58595 0.52251 -0.33768
 H160 H 0.54068 0.35151 -0.39226
 H161 H 0.58823 0.35926 -0.26618
 H162 H 0.63705 0.53242 -0.22254
 H163 H 0.50709 0.38486 -0.47975
 H164 H 0.66721 0.49803 -0.12783
 C165 C 0.88686 0.41901 0.42777
 C166 C 0.92310 0.46720 0.41120
 C167 C 0.91927 0.49451 0.34349
 C168 C 0.88055 0.47432 0.29327
 C169 C 0.84507 0.42549 0.30855
 C170 C 0.84840 0.39836 0.37673
 C171 C 0.80737 0.40442 0.25403
 C172 C 0.80456 0.43202 0.18552
 C173 C 0.83940 0.48126 0.17397
 C174 C 0.87709 0.50210 0.22691
 H175 H 0.94627 0.53201 0.33079
 H176 H 0.82160 0.36083 0.38945
 H177 H 0.78061 0.36654 0.26404
 H178 H 0.90386 0.53974 0.21483
 H179 H 0.88895 0.39610 0.47672
 H180 H 0.83824 0.50338 0.12163
 C181 C 0.48962 0.08360 0.31921
 C182 C 0.51636 0.08290 0.38649
 C183 C 0.56126 0.12132 0.38877
 C184 C 0.57897 0.15930 0.32523
 C185 C 0.55143 0.15991 0.25954
 C186 C 0.50678 0.12205 0.25753
 C187 C 0.56930 0.19748 0.19504
 C188 C 0.61467 0.23321 0.19303
 C189 C 0.64185 0.23218 0.25817
 C190 C 0.62408 0.19594 0.32454
 H191 H 0.58298 0.12043 0.43687
 H192 H 0.48523 0.12175 0.20731
 H193 H 0.54830 0.19769 0.14397
 H194 H 0.64574 0.19595 0.37409
 H195 H 0.45493 0.05486 0.31571
 H196 H 0.67694 0.25949 0.25756
 C197 C 0.50147 0.40812 0.32683
 C198 C 0.52924 0.44766 0.38412
 C199 C 0.57495 0.47060 0.37821
 C200 C 0.59279 0.45432 0.31523
 C201 C 0.56452 0.41451 0.25779
 C202 C 0.51894 0.39146 0.26450
 C203 C 0.58226 0.39886 0.19349
 C204 C 0.62804 0.42268 0.18465
 C205 C 0.65587 0.46199 0.24270
 C206 C 0.63838 0.47758 0.30759
 H207 H 0.59652 0.50165 0.42143
 H208 H 0.49683 0.36092 0.22086
 H209 H 0.56024 0.36851 0.14936
 H210 H 0.66053 0.50814 0.35116
 H211 H 0.46621 0.39020 0.33048
 H212 H 0.69119 0.48092 0.23766
 C213 C 0.09531 0.59111 0.33387
 C214 C 0.08287 0.55096 0.38934
 C215 C 0.10597 0.52845 0.38417
 C216 C 0.14059 0.54521 0.32223
 C217 C 0.15256 0.58541 0.26609
 C218 C 0.13014 0.60850 0.27320
 C219 C 0.18604 0.60122 0.20210
 C220 C 0.20757 0.57705 0.19176
 C221 C 0.19581 0.53743 0.24866
 C222 C 0.16271 0.52178 0.31364
 H223 H 0.09597 0.49696 0.42615
 H224 H 0.13896 0.63937 0.23054
 H225 H 0.19459 0.63184 0.15893
 H226 H 0.15396 0.49090 0.35619
 H227 H 0.07769 0.60867 0.33707
 H228 H 0.21192 0.51829 0.24248
 C229 C 0.38657 0.87522 0.41750
 C230 C 0.43259 0.90570 0.41662
 C231 C 0.45643 0.89347 0.36238
 C232 C 0.43469 0.85180 0.30729
 C233 C 0.38826 0.82186 0.30556
 C234 C 0.36448 0.83345 0.36229
 C235 C 0.36669 0.78182 0.24548
 C236 C 0.39115 0.77147 0.18765
 C237 C 0.43731 0.80081 0.19302
 C238 C 0.45881 0.84053 0.25192
 H239 H 0.49201 0.91728 0.36159
 H240 H 0.32891 0.81093 0.36237
 H241 H 0.33112 0.75941 0.24264
 H242 H 0.49439 0.86300 0.25294
 H243 H 0.36785 0.88461 0.45870
 H244 H 0.45716 0.79386 0.14988
 C245 C 0.47482 0.58243 0.41409
 C246 C 0.45349 0.53135 0.41269
 C247 C 0.41614 0.50284 0.35874
 C248 C 0.40081 0.52507 0.30471
 C249 C 0.42321 0.57664 0.30390
 C250 C 0.45981 0.60494 0.36013
 C251 C 0.40930 0.59891 0.24523
 C252 C 0.37316 0.57011 0.18764
 C253 C 0.35036 0.51876 0.19198
 C254 C 0.36407 0.49654 0.24964
 H255 H 0.39961 0.46340 0.35770
 H256 H 0.47736 0.64446 0.36087
 H257 H 0.42705 0.63845 0.24314
 H258 H 0.34638 0.45699 0.24986
 H259 H 0.50394 0.60497 0.45490
 H260 H 0.32231 0.49544 0.14896
   
