data_POSCAR
  _audit_creation_date              2014-09-24
  _audit_creation_method            'ToBaCCo'
  _symmetry_space_group_name_H-M    'P1'
  _symmetry_Int_Tables_number       1
  _symmetry_cell_setting            triclinic
  loop_
  _symmetry_equiv_pos_as_xyz
 x,y,z
_cell_length_a 30.3319
_cell_length_b 31.5652
_cell_length_c 26.6082
_cell_angle_alpha 86.764700
_cell_angle_beta 87.295300
_cell_angle_gamma 89.753600
loop_
  _atom_site_label
  _atom_site_type_symbol
  _atom_site_fract_x
  _atom_site_fract_y
  _atom_site_fract_z
C1 C 0.18031 0.19069 0.22711
 C2 C 0.21816 0.17223 0.20378
 C3 C 0.24108 0.19374 0.16209
 C4 C 0.22617 0.23427 0.14568
 C5 C 0.18905 0.25304 0.16846
 C6 C 0.16591 0.23056 0.20814
 H7 H 0.22912 0.14142 0.21754
 H8 H 0.24344 0.25151 0.11430
 H9 H 0.13605 0.24393 0.22455
 C10 C -0.15615 0.85240 0.18876
 C11 C -0.19420 0.86283 0.16229
 C12 C -0.20969 0.83620 0.12615
 C13 C -0.18615 0.79913 0.11580
 C14 C -0.14857 0.78761 0.14243
 C15 C -0.13362 0.81450 0.17805
 H16 H -0.21140 0.89216 0.16948
 H17 H -0.19755 0.77933 0.08717
 H18 H -0.10500 0.80425 0.19801
 C19 C -0.17092 0.20094 -0.24663
 C20 C -0.14962 0.23684 -0.23112
 C21 C -0.16199 0.25490 -0.18620
 C22 C -0.19820 0.23844 -0.15667
 C23 C -0.22253 0.20392 -0.17224
 C24 C -0.20779 0.18464 -0.21723
 H25 H -0.12152 0.25018 -0.25331
 H26 H -0.20824 0.25348 -0.12231
 H27 H -0.22398 0.15689 -0.22899
 C28 C 0.17769 0.83131 -0.19050
 C29 C 0.21958 0.84354 -0.17632
 C30 C 0.24345 0.81856 -0.14131
 C31 C 0.22396 0.78105 -0.12011
 C32 C 0.18251 0.76767 -0.13423
 C33 C 0.15925 0.79302 -0.16937
 H34 H 0.23253 0.87332 -0.19243
 H35 H 0.24152 0.76151 -0.09273
 H36 H 0.12662 0.78351 -0.17867
 C37 C 0.16003 1.15998 0.80926
 C38 C 0.20028 1.14970 0.83078
 C39 C 0.22028 1.17718 0.86266
 C40 C 0.19846 1.21478 0.87488
 C41 C 0.15739 1.22564 0.85485
 C42 C 0.13866 1.19807 0.82175
 H43 H 0.21590 1.11982 0.82257
 H44 H 0.21448 1.23568 0.89910
 H45 H 0.10719 1.20643 0.80649
 C46 C 0.80643 0.78186 0.75310
 C47 C 0.76841 0.80141 0.77364
 C48 C 0.74817 0.78582 0.81935
 C49 C 0.76392 0.74846 0.84293
 C50 C 0.80074 0.72711 0.82265
 C51 C 0.82196 0.74442 0.77769
 H52 H 0.75402 0.82865 0.75464
 H53 H 0.74765 0.73637 0.87800
 H54 H 0.85116 0.72976 0.76161
 C55 C 0.16777 0.81630 1.23811
 C56 C 0.20217 0.84257 1.21736
 C57 C 0.22649 0.83237 1.17389
 C58 C 0.21536 0.79606 1.14899
 C59 C 0.17997 0.77022 1.16734
 C60 C 0.15649 0.78046 1.21218
 H61 H 0.21048 0.87171 1.23405
 H62 H 0.23326 0.78837 1.11452
 H63 H 0.13032 0.75987 1.22801
 C64 C 0.81926 1.16537 1.19785
 C65 C 0.78221 1.15138 1.17357
 C66 C 0.76112 1.17782 1.13784
 C67 C 0.77791 1.21840 1.12553
 C68 C 0.81422 1.23397 1.14966
 C69 C 0.83482 1.20713 1.18588
 H70 H 0.77043 1.11930 1.18184
 H71 H 0.76166 1.23847 1.09753
 H72 H 0.86272 1.21868 1.20434
 N73 N 0.55059 1.08248 0.93654
 N74 N 0.58330 1.11061 0.93062
 N75 N 0.46142 1.05167 0.89621
 N76 N 0.42903 1.05684 0.86507
 N77 N 0.45705 1.07800 0.93266
 N78 N 0.42113 1.10145 0.92757
 N79 N 0.55320 1.05629 0.89986
 N80 N 0.58689 1.06550 0.86847
 C81 C 0.60560 1.09913 0.88770
 C82 C 0.40425 1.08798 0.88497
 N83 N 0.46930 0.92770 0.92182
 N84 N 0.43625 0.90193 0.91465
 N85 N 0.56087 0.96670 0.89366
 N86 N 0.59453 0.96395 0.86060
 N87 N 0.56117 0.93471 0.92729
 N88 N 0.59450 0.90913 0.91800
 N89 N 0.46871 0.96081 0.88971
 N90 N 0.43569 0.95832 0.85954
 Mn91 Mn 0.51089 1.00896 0.89442
 C92 C 0.41593 0.92136 0.87532
 C93 C 0.61523 0.92792 0.87664
 N94 N 0.44782 1.06709 1.04145
 N95 N 0.41433 1.09271 1.05213
 N96 N 0.53762 1.03851 1.07979
 N97 N 0.56820 1.04083 1.11309
 N98 N 0.54058 1.07090 1.04651
 N99 N 0.57343 1.09608 1.05631
 N100 N 0.44601 1.03297 1.07221
 N101 N 0.41174 1.03444 1.10438
 Mn102 Mn 0.49920 1.07542 0.98935
 C103 C 0.39203 1.07158 1.09138
 C104 C 0.59013 1.07682 1.09815
 N105 N 0.55315 0.92392 1.03556
 N106 N 0.59008 0.90214 1.04201
 N107 N 0.45330 0.94184 1.06485
 N108 N 0.41820 0.92884 1.09287
 N109 N 0.46151 0.91598 1.02866
 N110 N 0.43277 0.88481 1.03085
 N111 N 0.54528 0.94863 1.07303
 N112 N 0.57629 0.94436 1.10595
 Mn113 Mn 0.51157 0.92520 0.97829
 Mn114 Mn 0.49519 0.99044 1.07296
 Cl115 Cl 0.50417 1.00015 0.98381
 C116 C 0.60390 0.91531 1.08638
 C117 C 0.40590 0.89324 1.07071
 N118 N -0.03540 0.43879 -0.05764
 N119 N -0.03708 0.40206 -0.07916
 N120 N -0.07524 0.52935 -0.05056
 N121 N -0.10305 0.55870 -0.06705
 N122 N -0.04149 0.52612 -0.08284
 N123 N -0.04531 0.55300 -0.12212
 N124 N -0.06870 0.44203 -0.02475
 N125 N -0.09320 0.40766 -0.02188
 C126 C -0.07326 0.38309 -0.05581
 C127 C -0.08384 0.57297 -0.11184
 N128 N -0.06112 0.55201 0.09121
 N129 N -0.07204 0.58842 0.11078
 N130 N -0.08051 0.45720 0.07910
 N131 N -0.10238 0.42151 0.08880
 N132 N -0.05340 0.46357 0.11490
 N133 N -0.05611 0.43217 0.14999
 N134 N -0.08726 0.54426 0.05491
 N135 N -0.11703 0.57440 0.04928
 Mn136 Mn -0.07832 0.49336 0.01459
 C137 C -0.10717 0.60173 0.08422
 C138 C -0.08720 0.40641 0.13330
 N139 N 0.05216 0.53562 -0.07706
 N140 N 0.05478 0.56595 -0.11344
 N141 N 0.08654 0.45619 -0.01713
 N142 N 0.11639 0.42574 -0.01237
 N143 N 0.05941 0.44773 -0.05228
 N144 N 0.07011 0.41156 -0.07243
 N145 N 0.07806 0.54425 -0.04073
 N146 N 0.09889 0.58046 -0.05144
 Mn147 Mn 0.00884 0.48681 -0.06808
 C148 C 0.08433 0.59347 -0.09710
 C149 C 0.10581 0.39820 -0.04721
 N150 N 0.04098 0.47269 0.12061
 N151 N 0.04419 0.44209 0.15630
 N152 N 0.06691 0.55958 0.06588
 N153 N 0.09116 0.59415 0.06889
 N154 N 0.03246 0.56037 0.09765
 N155 N 0.03186 0.59530 0.12242
 N156 N 0.07502 0.47171 0.08825
 N157 N 0.10201 0.44051 0.10081
 Mn158 Mn -0.01033 0.51215 0.10679
 Mn159 Mn 0.07724 0.50814 0.02399
 Cl160 Cl -0.00054 0.50017 0.01934
 C161 C 0.08266 0.42257 0.14354
 C162 C 0.06844 0.61613 0.10426
 N163 N 0.90785 0.04478 0.52567
 N164 N 0.87214 0.04849 0.55548
 N165 N 0.96900 0.07407 0.43291
 N166 N 0.97020 0.10480 0.39716
 N167 N 0.93898 0.04583 0.42440
 N168 N 0.91885 0.05678 0.38263
 N169 N 0.93713 0.07378 0.53405
 N170 N 0.92200 0.09810 0.56977
 C171 C 0.88129 0.08212 0.58247
 C172 C 0.93923 0.09334 0.36574
 N173 N 1.08701 0.04188 0.47782
 N174 N 1.12254 0.04372 0.44708
 N175 N 1.02657 0.07256 0.56602
 N176 N 1.02503 0.10271 0.59837
 N177 N 1.05516 0.04305 0.57917
 N178 N 1.07410 0.05277 0.62092
 N179 N 1.05867 0.07165 0.46473
 N180 N 1.07426 0.09447 0.42468
 Mn181 Mn 0.99790 0.07342 0.49936
 C182 C 1.11433 0.07685 0.41439
 C183 C 1.05436 0.08990 0.63269
 N184 N 0.93790 -0.04576 0.42931
 N185 N 0.92140 -0.05235 0.38535
 N186 N 0.93487 -0.07628 0.54206
 N187 N 0.91744 -0.10406 0.57600
 N188 N 0.90630 -0.04644 0.53033
 N189 N 0.86850 -0.05303 0.55624
 N190 N 0.96659 -0.07545 0.44137
 N191 N 0.97060 -0.10294 0.40592
 Mn192 Mn 0.92229 -0.00037 0.47726
 C193 C 0.94242 -0.08803 0.37120
 C194 C 0.87609 -0.08911 0.58449
 N195 N 1.05311 -0.04967 0.58460
 N196 N 1.07303 -0.06099 0.62641
 N197 N 1.05535 -0.07768 0.47440
 N198 N 1.07023 -0.10260 0.43928
 N199 N 1.08506 -0.04938 0.48357
 N200 N 1.12113 -0.05429 0.45468
 N201 N 1.02369 -0.07829 0.57513
 N202 N 1.02265 -0.10948 0.61034
 Mn203 Mn 1.07054 -0.00351 0.53168
 Mn204 Mn 0.99512 -0.07726 0.50825
 Cl205 Cl 0.99649 -0.00189 0.50426
 C206 C 1.05309 -0.09804 0.64242
 C207 C 1.11138 -0.08779 0.42758
 C208 C 1.15521 0.17176 0.26847
 C209 C 1.16490 0.13620 0.29578
 C210 C 1.13479 0.12223 0.33891
 C211 C 1.14460 0.09012 0.37134
 H212 H 1.19460 0.11819 0.28803
 H213 H 1.10391 0.13913 0.34466
 H214 H 1.12542 0.18836 0.28046
 H215 H 1.17545 0.07310 0.36630
 C216 C 0.85675 -0.12060 0.22611
 C217 C 0.89285 -0.12620 0.25310
 C218 C 0.90158 -0.09968 0.29531
 C219 C 0.93441 -0.11009 0.32544
 H220 H 0.91626 -0.15121 0.24600
 H221 H 0.88001 -0.07317 0.30328
 H222 H 0.83551 -0.09388 0.23441
 H223 H 0.95506 -0.13733 0.31786
 C224 C 0.84745 0.18303 0.70976
 C225 C 0.83466 0.14754 0.68931
 C226 C 0.86155 0.13230 0.64625
 C227 C 0.85162 0.09754 0.62294
 H228 H 0.80653 0.12921 0.70430
 H229 H 0.89123 0.14972 0.63387
 H230 H 0.87606 0.19906 0.69151
 H231 H 0.82188 0.07985 0.63409
 C232 C 1.15505 -0.13948 0.77311
 C233 C 1.11813 -0.14808 0.75006
 C234 C 1.10142 -0.11725 0.71166
 C235 C 1.06667 -0.12601 0.68514
 H236 H 1.10124 -0.17803 0.75737
 H237 H 1.11911 -0.08771 0.70331
 H238 H 1.17084 -0.10916 0.76326
 H239 H 1.04919 -0.15570 0.69293
 C240 C 0.27817 1.17717 1.13531
 C241 C 0.29594 1.13850 1.14308
 C242 C 0.33468 1.12513 1.11166
 C243 C 0.35244 1.08668 1.11948
 H244 H 0.28244 1.11616 1.17196
 H245 H 0.34906 1.14695 1.08254
 H246 H 0.29342 1.19734 1.10500
 H247 H 0.33806 1.06525 1.14900
 C248 C 0.28555 0.82979 0.87418
 C249 C 0.30978 0.86251 0.85405
 C250 C 0.35244 0.87325 0.87422
 C251 C 0.37516 0.90678 0.85439
 H252 H 0.29893 0.88216 0.82248
 H253 H 0.36455 0.85470 0.90626
 H254 H 0.29962 0.81036 0.90437
 H255 H 0.36253 0.92548 0.82278
 C256 C 0.74984 0.84630 1.09840
 C257 C 0.71617 0.86847 1.11799
 C258 C 0.67597 0.87812 1.09026
 C259 C 0.64433 0.90185 1.11116
 H260 H 0.71774 0.87945 1.15570
 H261 H 0.67267 0.86679 1.05291
 H262 H 0.74684 0.83351 1.06174
 H263 H 0.64873 0.91351 1.14816
 C264 C 0.73976 1.19033 0.85806
 C265 C 0.71043 1.16161 0.84518
 C266 C 0.67127 1.14822 0.87787
 C267 C 0.64453 1.11918 0.86107
 H268 H 0.71418 1.14752 0.80920
 H269 H 0.66511 1.16078 0.91460
 H270 H 0.73328 1.20495 0.89361
 H271 H 0.65259 1.10702 0.82442
 C272 C 0.17448 0.29542 0.14834
 C273 C 0.14619 0.32063 0.17293
 C274 C 0.13190 0.36121 0.14911
 C275 C 0.09899 0.38379 0.16965
 H276 H 0.13298 0.31173 0.21045
 H277 H 0.14741 0.37192 0.11309
 H278 H 0.18792 0.30648 0.11144
 H279 H 0.08242 0.37260 0.20485
 C280 C -0.13599 0.29136 -0.17220
 C281 C -0.12484 0.29660 -0.12520
 C282 C -0.09645 0.33226 -0.11441
 C283 C -0.09191 0.34236 -0.06719
 H284 H -0.13671 0.27472 -0.09472
 H285 H -0.08236 0.35259 -0.14524
 H286 H -0.12236 0.31264 -0.20240
 H287 H -0.10890 0.32392 -0.03661
 C288 C 0.16449 0.72769 -0.10969
 C289 C 0.13619 0.70225 -0.13055
 C290 C 0.12298 0.66168 -0.10398
 C291 C 0.09686 0.63393 -0.12429
 H292 H 0.12410 0.71035 -0.16753
 H293 H 0.13530 0.65421 -0.06690
 H294 H 0.17739 0.71740 -0.07364
 H295 H 0.08413 0.64110 -0.16118
 C296 C -0.12389 0.74761 0.13502
 C297 C -0.14163 0.71309 0.11746
 C298 C -0.11596 0.67360 0.11409
 C299 C -0.13189 0.64120 0.09068
 H300 H -0.17552 0.71329 0.10641
 H301 H -0.08359 0.67133 0.12970
 H302 H -0.09029 0.74571 0.14729
 H303 H -0.16344 0.64435 0.07328
 C304 C 1.14250 0.12971 0.77395
 C305 C 1.10958 0.13799 0.74301
 C306 C 1.09757 0.10732 0.70577
 C307 C 1.06553 0.11651 0.67413
 H308 H 1.09243 0.16808 0.74311
 H309 H 1.11597 0.07796 0.70299
 H310 H 1.15926 0.09941 0.77150
 H311 H 1.04751 0.14607 0.67717
 C312 C 0.83078 -0.20086 0.71031
 C313 C 0.82131 -0.16429 0.68474
 C314 C 0.85200 -0.14637 0.64489
 C315 C 0.84367 -0.10912 0.62081
 H316 H 0.79235 -0.14577 0.69373
 H317 H 0.88258 -0.16303 0.63653
 H318 H 0.86051 -0.21748 0.69829
 H319 H 0.81298 -0.09252 0.62867
 C320 C 1.14388 -0.17467 0.28311
 C321 C 1.15642 -0.14582 0.31488
 C322 C 1.12817 -0.13430 0.35838
 C323 C 1.14062 -0.10360 0.38734
 H324 H 1.18776 -0.12973 0.30950
 H325 H 1.09628 -0.14945 0.36528
 H326 H 1.11380 -0.19233 0.29293
 H327 H 1.17234 -0.08823 0.37995
 C328 C 0.83839 0.13693 0.23361
 C329 C 0.87522 0.14397 0.25790
 C330 C 0.89040 0.11293 0.29690
 C331 C 0.92597 0.12079 0.32256
 H332 H 0.89443 0.17252 0.25038
 H333 H 0.87127 0.08438 0.30624
 H334 H 0.82194 0.10674 0.24233
 H335 H 0.94468 0.14963 0.31359
 C336 C 0.13356 0.26587 -0.13403
 C337 C 0.14393 0.29195 -0.09811
 C338 C 0.11890 0.33162 -0.09040
 C339 C 0.13000 0.35829 -0.05560
 H340 H 0.17068 0.28444 -0.07372
 H341 H 0.09124 0.33922 -0.11369
 H342 H 0.10564 0.27433 -0.15657
 H343 H 0.15775 0.35075 -0.03247
 C344 C -0.17189 0.27575 0.13574
 C345 C -0.14051 0.29746 0.15724
 C346 C -0.12916 0.34056 0.13679
 C347 C -0.09966 0.36479 0.15741
 H348 H -0.12321 0.28451 0.18919
 H349 H -0.14494 0.35249 0.10307
 H350 H -0.18851 0.29214 0.10500
 H351 H -0.08365 0.35354 0.19119
 C352 C -0.18472 0.69022 -0.15057
 C353 C -0.15044 0.66604 -0.16472
 C354 C -0.13665 0.62968 -0.13212
 C355 C -0.10077 0.60745 -0.14477
 H356 H -0.13146 0.67272 -0.19956
 H357 H -0.15503 0.62188 -0.09688
 H358 H -0.20240 0.68080 -0.11529
 H359 H -0.08214 0.61566 -0.17971
 C360 C 0.16959 0.73201 0.13980
 C361 C 0.12948 0.71438 0.14164
 C362 C 0.12031 0.67525 0.11592
 C363 C 0.08067 0.65713 0.12327
 H364 H 0.10260 0.72873 0.16291
 H365 H 0.14604 0.66047 0.09324
 H366 H 0.19566 0.71850 0.11639
 H367 H 0.05595 0.67193 0.14736
 C368 C 0.26354 1.16686 0.88449
 C369 C 0.29376 1.14225 0.86204
 C370 C 0.33560 1.13051 0.88529
 C371 C 0.36312 1.10332 0.86309
 H372 H 0.28779 1.13019 0.82568
 H373 H 0.34325 1.14298 0.92100
 H374 H 0.27103 1.18054 0.91956
 H375 H 0.35462 1.09052 0.82785
 C376 C 0.26300 0.86111 1.15602
 C377 C 0.29876 0.84825 1.13020
 C378 C 0.33559 0.87755 1.11720
 C379 C 0.36885 0.86551 1.08702
 H380 H 0.30169 0.81568 1.11966
 H381 H 0.33514 0.90911 1.13138
 H382 H 0.26182 0.89351 1.16767
 H383 H 0.36810 0.83451 1.07144
 C384 C 0.72189 1.16406 1.11187
 C385 C 0.69360 1.13468 1.13178
 C386 C 0.65463 1.12272 1.10490
 C387 C 0.62845 1.09141 1.12399
 H388 H 0.69854 1.11959 1.16864
 H389 H 0.64781 1.13891 1.06906
 H390 H 0.71498 1.18006 1.07593
 H391 H 0.63611 1.07471 1.15924
 C392 C 0.71059 0.80797 0.84376
 C393 C 0.70274 0.84948 0.83565
 C394 C 0.66558 0.86948 0.86226
 C395 C 0.65341 0.90933 0.85027
 H396 H 0.72387 0.86921 0.81027
 H397 H 0.64722 0.85081 0.89160
 H398 H 0.68967 0.78976 0.87116
 H399 H 0.67060 0.92779 0.81989
   
