data_POSCAR
  _audit_creation_date              2014-09-24
  _audit_creation_method            'ToBaCCo'
  _symmetry_space_group_name_H-M    'P1'
  _symmetry_Int_Tables_number       1
  _symmetry_cell_setting            triclinic
  loop_
  _symmetry_equiv_pos_as_xyz
 x,y,z
_cell_length_a 51.4106
_cell_length_b 51.4103
_cell_length_c 51.4103
_cell_angle_alpha 89.041700
_cell_angle_beta 89.040500
_cell_angle_gamma 89.040900
loop_
  _atom_site_label
  _atom_site_type_symbol
  _atom_site_fract_x
  _atom_site_fract_y
  _atom_site_fract_z
Si1 Si 0.75472 0.61893 0.99938
 Si2 Si 0.74961 0.37934 0.50246
 Si3 Si 0.24960 -0.12066 0.00246
 Si4 Si 0.25473 0.11893 0.49938
 Si5 Si 0.11892 0.49940 0.25473
 Si6 Si -0.12067 0.00248 0.24960
 Si7 Si 0.37933 0.50247 0.74960
 Si8 Si 0.61892 0.99939 0.75472
 Si9 Si 0.00245 0.24963 -0.12067
 Si10 Si 0.49937 0.25473 0.11892
 Si11 Si 0.99937 0.75475 0.61892
 Si12 Si 0.50246 0.74962 0.37933
 C13 C 0.41754 -0.02488 0.27742
 H14 H 0.41859 -0.00612 0.28654
 C15 C 0.43143 -0.04622 0.28766
 H16 H 0.44335 -0.04387 0.30461
 C17 C 0.39964 -0.05132 0.24509
 H18 H 0.38665 -0.05351 0.22902
 C19 C 0.41319 -0.07309 0.25468
 H20 H 0.41078 -0.09183 0.24576
 N21 N 0.40195 -0.02781 0.25656
 C22 C 0.38661 0.04906 0.22240
 H23 H 0.36565 0.04790 0.22141
 C24 C 0.39916 0.07116 0.21289
 H25 H 0.38787 0.08709 0.20451
 C26 C 0.42691 0.02965 0.23451
 H27 H 0.43760 0.01335 0.24281
 C28 C 0.44029 0.05150 0.22518
 H29 H 0.46129 0.05205 0.22639
 Zn30 Zn 0.38064 0.00066 0.24572
 N31 N 0.40050 0.02903 0.23323
 C32 C 0.36242 0.03573 0.28390
 N33 N 0.36032 0.01110 0.27492
 C34 C 0.34530 -0.00675 0.28766
 C35 C 0.33147 0.00002 0.31030
 C36 C 0.34894 0.04328 0.30635
 C37 C 0.37218 -0.01478 0.19520
 C38 C 0.35838 -0.02266 0.17368
 C39 C 0.31856 -0.01873 0.19909
 C40 C 0.33315 -0.01087 0.22022
 N41 N 0.35952 -0.00944 0.21799
 H42 H 0.37498 0.04946 0.27403
 H43 H 0.34440 -0.02635 0.28043
 H44 H 0.31974 -0.01432 0.32048
 H45 H 0.35094 0.06286 0.31345
 H46 H 0.39312 -0.01316 0.19391
 H47 H 0.36870 -0.02724 0.15574
 H48 H 0.29762 -0.02021 0.20104
 H49 H 0.32342 -0.00607 0.23834
 C50 C 0.42621 0.07247 0.21440
 C51 C 0.42902 -0.07058 0.27629
 C52 C 0.33136 -0.02481 0.17568
 C53 C 0.33342 0.02527 0.31973
 C54 C 0.08552 1.02390 0.78150
 H55 H 0.08390 1.00511 0.79113
 C56 C 0.07197 1.04547 0.79142
 H57 H 0.05974 1.04329 0.80865
 C58 C 0.10449 1.05011 0.74810
 H59 H 0.11776 1.05209 0.73172
 C60 C 0.09130 1.07212 0.75735
 H61 H 0.09426 1.09084 0.74787
 N62 N 0.10147 1.02659 0.76025
 C63 C 0.11519 0.94939 0.72830
 H64 H 0.13622 0.94970 0.72733
 C65 C 0.10205 0.92804 0.71903
 H66 H 0.11296 0.91181 0.71089
 C67 C 0.07526 0.97037 0.73975
 H68 H 0.06496 0.98706 0.74756
 C69 C 0.06130 0.94932 0.73062
 H70 H 0.04023 0.94976 0.73153
 Zn71 Zn 0.12221 0.99770 0.74974
 N72 N 0.10175 0.96989 0.73860
 C73 C 0.13980 0.96231 0.78862
 N74 N 0.14224 0.98687 0.77867
 C75 C 0.15760 1.00452 0.79017
 C76 C 0.17151 0.99758 0.81246
 C77 C 0.15335 0.95460 0.81080
 C78 C 0.13122 1.01316 0.69854
 C79 C 0.14529 1.02082 0.67639
 C80 C 0.18495 1.01573 0.70071
 C81 C 0.17009 1.00811 0.72250
 N82 N 0.14369 1.00738 0.72110
 H83 H 0.12697 0.94877 0.77972
 H84 H 0.15878 1.02407 0.78217
 H85 H 0.18358 1.01176 0.82161
 H86 H 0.15112 0.93507 0.81868
 H87 H 0.11024 1.01209 0.69793
 H88 H 0.13515 1.02578 0.65864
 H89 H 0.20592 1.01667 0.70199
 H90 H 0.17965 1.00295 0.74045
 C91 C 0.07488 0.92797 0.72021
 C92 C 0.07509 1.06983 0.77933
 C93 C 0.17236 1.02229 0.67752
 C94 C 0.16928 0.97239 0.82287
 C95 C 0.58552 0.52387 0.28150
 H96 H 0.58390 0.50508 0.29113
 C97 C 0.57197 0.54544 0.29142
 H98 H 0.55974 0.54326 0.30866
 C99 C 0.60449 0.55009 0.24810
 H100 H 0.61775 0.55207 0.23172
 C101 C 0.59129 0.57209 0.25735
 H102 H 0.59425 0.59082 0.24787
 N103 N 0.60147 0.52657 0.26025
 C104 C 0.61519 0.44937 0.22830
 H105 H 0.63622 0.44968 0.22732
 C106 C 0.60205 0.42802 0.21902
 H107 H 0.61297 0.41180 0.21088
 C108 C 0.57526 0.47034 0.23975
 H109 H 0.56496 0.48703 0.24756
 C110 C 0.56130 0.44929 0.23063
 H111 H 0.54023 0.44973 0.23154
 Zn112 Zn 0.62221 0.49768 0.24974
 N113 N 0.60175 0.46986 0.23860
 C114 C 0.63981 0.46229 0.28861
 N115 N 0.64224 0.48685 0.27867
 C116 C 0.65760 0.50450 0.29017
 C117 C 0.67151 0.49756 0.31246
 C118 C 0.65336 0.45458 0.31079
 C119 C 0.63122 0.51314 0.19854
 C120 C 0.64529 0.52081 0.17639
 C121 C 0.68494 0.51571 0.20071
 C122 C 0.67009 0.50809 0.22249
 N123 N 0.64368 0.50736 0.22110
 H124 H 0.62699 0.44874 0.27971
 H125 H 0.65878 0.52405 0.28217
 H126 H 0.68357 0.51174 0.32161
 H127 H 0.65114 0.43505 0.31867
 H128 H 0.61024 0.51207 0.19793
 H129 H 0.63514 0.52577 0.15863
 H130 H 0.70592 0.51666 0.20199
 H131 H 0.67965 0.50293 0.24044
 C132 C 0.57488 0.42794 0.22021
 C133 C 0.57509 0.56981 0.27934
 C134 C 0.67236 0.52227 0.17752
 C135 C 0.66928 0.47237 0.32286
 C136 C 0.91753 0.47514 0.77742
 H137 H 0.91859 0.49390 0.78654
 C138 C 0.93142 0.45380 0.78766
 H139 H 0.94334 0.45614 0.80461
 C140 C 0.89964 0.44870 0.74509
 H141 H 0.88665 0.44652 0.72902
 C142 C 0.91319 0.42693 0.75467
 H143 H 0.91077 0.40819 0.74575
 N144 N 0.90195 0.47221 0.75656
 C145 C 0.88661 0.54909 0.72240
 H146 H 0.86565 0.54793 0.72142
 C147 C 0.89916 0.57118 0.71289
 H148 H 0.88787 0.58712 0.70452
 C149 C 0.92691 0.52967 0.73450
 H150 H 0.93760 0.51337 0.74281
 C151 C 0.94029 0.55152 0.72518
 H152 H 0.96129 0.55206 0.72638
 Zn153 Zn 0.88064 0.50068 0.74572
 N154 N 0.90050 0.52905 0.73323
 C155 C 0.86242 0.53575 0.78390
 N156 N 0.86032 0.51112 0.77492
 C157 C 0.84529 0.49327 0.78766
 C158 C 0.83146 0.50004 0.81029
 C159 C 0.84894 0.54329 0.80636
 C160 C 0.87218 0.48525 0.69520
 C161 C 0.85838 0.47736 0.67368
 C162 C 0.81856 0.48128 0.69909
 C163 C 0.83315 0.48914 0.72022
 N164 N 0.85952 0.49058 0.71798
 H165 H 0.87499 0.54947 0.77404
 H166 H 0.84439 0.47367 0.78042
 H167 H 0.81972 0.48570 0.82047
 H168 H 0.85095 0.56287 0.81346
 H169 H 0.89312 0.48687 0.69391
 H170 H 0.86870 0.47278 0.65574
 H171 H 0.79762 0.47980 0.70104
 H172 H 0.82342 0.49394 0.73834
 C173 C 0.92621 0.57249 0.71441
 C174 C 0.92901 0.42943 0.77629
 C175 C 0.83136 0.47520 0.67567
 C176 C 0.83342 0.52529 0.81973
 C177 C 0.27742 0.41756 -0.02488
 H178 H 0.28654 0.41862 -0.00612
 C179 C 0.28766 0.43145 -0.04622
 H180 H 0.30461 0.44337 -0.04388
 C181 C 0.24509 0.39967 -0.05132
 H182 H 0.22902 0.38668 -0.05351
 C183 C 0.25468 0.41321 -0.07309
 H184 H 0.24576 0.41080 -0.09183
 N185 N 0.25656 0.40198 -0.02781
 C186 C 0.22240 0.38664 0.04906
 H187 H 0.22142 0.36568 0.04791
 C188 C 0.21290 0.39919 0.07116
 H189 H 0.20452 0.38790 0.08710
 C190 C 0.23451 0.42694 0.02966
 H191 H 0.24281 0.43763 0.01335
 C192 C 0.22519 0.44032 0.05150
 H193 H 0.22639 0.46132 0.05205
 Zn194 Zn 0.24572 0.38067 0.00066
 N195 N 0.23323 0.40053 0.02903
 C196 C 0.28390 0.36245 0.03573
 N197 N 0.27492 0.36035 0.01110
 C198 C 0.28765 0.34532 -0.00675
 C199 C 0.31028 0.33149 0.00002
 C200 C 0.30635 0.34897 0.04328
 C201 C 0.19520 0.37221 -0.01478
 C202 C 0.17368 0.35840 -0.02266
 C203 C 0.19909 0.31858 -0.01874
 C204 C 0.22022 0.33318 -0.01088
 N205 N 0.21798 0.35954 -0.00944
 H206 H 0.27404 0.37502 0.04945
 H207 H 0.28042 0.34441 -0.02635
 H208 H 0.32046 0.31974 -0.01432
 H209 H 0.31346 0.35098 0.06286
 H210 H 0.19391 0.39315 -0.01316
 H211 H 0.15574 0.36872 -0.02724
 H212 H 0.20104 0.29764 -0.02022
 H213 H 0.23834 0.32345 -0.00608
 C214 C 0.21441 0.42624 0.07248
 C215 C 0.27630 0.42904 -0.07059
 C216 C 0.17568 0.33138 -0.02482
 C217 C 0.31972 0.33344 0.02527
 C218 C 0.78150 0.08555 1.02386
 H219 H 0.79113 0.08392 1.00507
 C220 C 0.79142 0.07200 1.04543
 H221 H 0.80866 0.05977 1.04326
 C222 C 0.74809 0.10451 1.05008
 H223 H 0.73171 0.11777 1.05206
 C224 C 0.75735 0.09132 1.07208
 H225 H 0.74787 0.09428 1.09081
 N226 N 0.76025 0.10149 1.02656
 C227 C 0.72829 0.11521 0.94936
 H228 H 0.72731 0.13624 0.94968
 C229 C 0.71902 0.10207 0.92801
 H230 H 0.71087 0.11298 0.91179
 C231 C 0.73975 0.07528 0.97034
 H232 H 0.74756 0.06498 0.98702
 C233 C 0.73062 0.06132 0.94929
 H234 H 0.73153 0.04025 0.94972
 Zn235 Zn 0.74973 0.12223 0.99767
 N236 N 0.73859 0.10177 0.96986
 C237 C 0.78861 0.13983 0.96228
 N238 N 0.77866 0.14226 0.98684
 C239 C 0.79016 0.15762 1.00449
 C240 C 0.81245 0.17153 0.99756
 C241 C 0.81079 0.15338 0.95457
 C242 C 0.69854 0.13124 1.01314
 C243 C 0.67638 0.14531 1.02081
 C244 C 0.70070 0.18496 1.01571
 C245 C 0.72249 0.17011 1.00809
 N246 N 0.72109 0.14370 1.00735
 H247 H 0.77971 0.12701 0.94874
 H248 H 0.78217 0.15880 1.02405
 H249 H 0.82161 0.18359 1.01173
 H250 H 0.81866 0.15116 0.93504
 H251 H 0.69793 0.11026 1.01207
 H252 H 0.65863 0.13516 1.02577
 H253 H 0.70198 0.20593 1.01665
 H254 H 0.74044 0.17967 1.00292
 C255 C 0.72020 0.07490 0.92794
 C256 C 0.77933 0.07512 1.06980
 C257 C 0.67751 0.17238 1.02227
 C258 C 0.82285 0.16931 0.97236
 C259 C 0.28150 0.58554 0.52387
 H260 H 0.29113 0.58392 0.50509
 C261 C 0.29141 0.57199 0.54544
 H262 H 0.30865 0.55976 0.54327
 C263 C 0.24809 0.60451 0.55009
 H264 H 0.23172 0.61777 0.55208
 C265 C 0.25734 0.59131 0.57209
 H266 H 0.24786 0.59427 0.59082
 N267 N 0.26025 0.60149 0.52657
 C268 C 0.22830 0.61522 0.44937
 H269 H 0.22733 0.63625 0.44969
 C270 C 0.21902 0.60207 0.42802
 H271 H 0.21088 0.61299 0.41180
 C272 C 0.23975 0.57528 0.47035
 H273 H 0.24756 0.56498 0.48704
 C274 C 0.23062 0.56132 0.44930
 H275 H 0.23153 0.54026 0.44973
 Zn276 Zn 0.24974 0.62223 0.49768
 N277 N 0.23860 0.60177 0.46987
 C278 C 0.28862 0.63983 0.46229
 N279 N 0.27867 0.64226 0.48685
 C280 C 0.29017 0.65762 0.50450
 C281 C 0.31246 0.67153 0.49757
 C282 C 0.31080 0.65338 0.45458
 C283 C 0.19854 0.63125 0.51315
 C284 C 0.17639 0.64532 0.52081
 C285 C 0.20071 0.68497 0.51571
 C286 C 0.22250 0.67011 0.50809
 N287 N 0.22110 0.64371 0.50736
 H288 H 0.27972 0.62701 0.44875
 H289 H 0.28218 0.65880 0.52406
 H290 H 0.32162 0.68359 0.51174
 H291 H 0.31868 0.65116 0.43505
 H292 H 0.19793 0.61027 0.51208
 H293 H 0.15864 0.63517 0.52577
 H294 H 0.20199 0.70594 0.51665
 H295 H 0.24045 0.67967 0.50293
 C296 C 0.22020 0.57491 0.42795
 C297 C 0.27933 0.57511 0.56981
 C298 C 0.17752 0.67239 0.52227
 C299 C 0.32287 0.66930 0.47238
 C300 C 0.77743 0.91756 0.47510
 H301 H 0.78654 0.91861 0.49386
 C302 C 0.78767 0.93145 0.45377
 H303 H 0.80462 0.94337 0.45611
 C304 C 0.74509 0.89967 0.44866
 H305 H 0.72902 0.88668 0.44648
 C306 C 0.75468 0.91322 0.42689
 H307 H 0.74576 0.91080 0.40816
 N308 N 0.75656 0.90198 0.47218
 C309 C 0.72240 0.88663 0.54905
 H310 H 0.72142 0.86568 0.54789
 C311 C 0.71290 0.89919 0.57115
 H312 H 0.70452 0.88790 0.58708
 C313 C 0.73451 0.92694 0.52964
 H314 H 0.74282 0.93763 0.51334
 C315 C 0.72519 0.94032 0.55149
 H316 H 0.72640 0.96132 0.55204
 Zn317 Zn 0.74572 0.88067 0.50065
 N318 N 0.73323 0.90052 0.52902
 C319 C 0.78391 0.86245 0.53571
 N320 N 0.77493 0.86035 0.51109
 C321 C 0.78766 0.84533 0.49323
 C322 C 0.81030 0.83150 0.50000
 C323 C 0.80636 0.84897 0.54326
 C324 C 0.69520 0.87220 0.48521
 C325 C 0.67368 0.85840 0.47733
 C326 C 0.69910 0.81858 0.48125
 C327 C 0.72023 0.83317 0.48912
 N328 N 0.71799 0.85954 0.49055
 H329 H 0.77405 0.87501 0.54944
 H330 H 0.78043 0.84442 0.47363
 H331 H 0.82048 0.81976 0.48566
 H332 H 0.81347 0.85098 0.56283
 H333 H 0.69391 0.89314 0.48683
 H334 H 0.65574 0.86871 0.47275
 H335 H 0.70105 0.79764 0.47978
 H336 H 0.73834 0.82345 0.49392
 C337 C 0.71442 0.92624 0.57246
 C338 C 0.77630 0.92904 0.42940
 C339 C 0.67568 0.83138 0.47517
 C340 C 0.81974 0.83345 0.52525
 C341 C -0.02488 0.27744 0.41755
 H342 H -0.00612 0.28655 0.41860
 C343 C -0.04622 0.28768 0.43143
 H344 H -0.04387 0.30463 0.44336
 C345 C -0.05132 0.24511 0.39964
 H346 H -0.05350 0.22905 0.38665
 C347 C -0.07309 0.25470 0.41319
 H348 H -0.09183 0.24579 0.41077
 N349 N -0.02781 0.25658 0.40196
 C350 C 0.04906 0.22241 0.38661
 H351 H 0.04791 0.22143 0.36566
 C352 C 0.07116 0.21291 0.39917
 H353 H 0.08709 0.20453 0.38788
 C354 C 0.02966 0.23453 0.42692
 H355 H 0.01335 0.24283 0.43761
 C356 C 0.05150 0.22520 0.44030
 H357 H 0.05205 0.22641 0.46130
 Zn358 Zn 0.00066 0.24573 0.38065
 N359 N 0.02903 0.23324 0.40051
 C360 C 0.03573 0.28392 0.36243
 N361 N 0.01110 0.27494 0.36033
 C362 C -0.00675 0.28768 0.34531
 C363 C 0.00002 0.31031 0.33148
 C364 C 0.04328 0.30637 0.34895
 C365 C -0.01478 0.19522 0.37219
 C366 C -0.02266 0.17370 0.35838
 C367 C -0.01873 0.19911 0.31856
 C368 C -0.01087 0.22024 0.33315
 N369 N -0.00944 0.21800 0.35952
 H370 H 0.04946 0.27406 0.37499
 H371 H -0.02635 0.28044 0.34440
 H372 H -0.01432 0.32049 0.31974
 H373 H 0.06286 0.31348 0.35096
 H374 H -0.01316 0.19393 0.39312
 H375 H -0.02725 0.15576 0.36869
 H376 H -0.02021 0.20106 0.29762
 H377 H -0.00607 0.23836 0.32343
 C378 C 0.07247 0.21442 0.42622
 C379 C -0.07058 0.27631 0.42902
 C380 C -0.02482 0.17570 0.33136
 C381 C 0.02527 0.31975 0.33343
 C382 C 1.02386 0.78151 0.08553
 H383 H 1.00507 0.79114 0.08390
 C384 C 1.04543 0.79143 0.07198
 H385 H 1.04325 0.80867 0.05975
 C386 C 1.05008 0.74811 0.10449
 H387 H 1.05206 0.73173 0.11775
 C388 C 1.07208 0.75736 0.09130
 H389 H 1.09080 0.74788 0.09426
 N390 N 1.02656 0.76027 0.10147
 C391 C 0.94936 0.72831 0.11519
 H392 H 0.94968 0.72733 0.13623
 C393 C 0.92801 0.71903 0.10205
 H394 H 0.91179 0.71089 0.11297
 C395 C 0.97033 0.73976 0.07526
 H396 H 0.98702 0.74757 0.06496
 C397 C 0.94928 0.73064 0.06130
 H398 H 0.94972 0.73154 0.04023
 Zn399 Zn 0.99767 0.74975 0.12221
 N400 N 0.96985 0.73861 0.10175
 C401 C 0.96228 0.78863 0.13980
 N402 N 0.98684 0.77868 0.14224
 C403 C 1.00449 0.79018 0.15760
 C404 C 0.99755 0.81247 0.17151
 C405 C 0.95457 0.81082 0.15335
 C406 C 1.01313 0.69856 0.13123
 C407 C 1.02080 0.67641 0.14530
 C408 C 1.01571 0.70074 0.18495
 C409 C 1.00809 0.72252 0.17009
 N410 N 1.00735 0.72111 0.14369
 H411 H 0.94874 0.77974 0.12698
 H412 H 1.02404 0.78218 0.15878
 H413 H 1.01172 0.82162 0.18358
 H414 H 0.93504 0.81869 0.15113
 H415 H 1.01206 0.69794 0.11025
 H416 H 1.02577 0.65865 0.13515
 H417 H 1.01666 0.70202 0.20592
 H418 H 1.00292 0.74047 0.17965
 C419 C 0.92794 0.72021 0.07488
 C420 C 1.06980 0.77934 0.07510
 C421 C 1.02227 0.67755 0.17237
 C422 C 0.97236 0.82288 0.16928
 C423 C 0.52387 0.28151 0.58553
 H424 H 0.50508 0.29114 0.58390
 C425 C 0.54544 0.29143 0.57198
 H426 H 0.54326 0.30867 0.55975
 C427 C 0.55009 0.24810 0.60449
 H428 H 0.55207 0.23172 0.61775
 C429 C 0.57209 0.25736 0.59130
 H430 H 0.59081 0.24788 0.59426
 N431 N 0.52657 0.26026 0.60147
 C432 C 0.44937 0.22830 0.61519
 H433 H 0.44969 0.22732 0.63622
 C434 C 0.42802 0.21902 0.60204
 H435 H 0.41180 0.21087 0.61296
 C436 C 0.47034 0.23976 0.57526
 H437 H 0.48703 0.24758 0.56496
 C438 C 0.44930 0.23064 0.56130
 H439 H 0.44973 0.23155 0.54023
 Zn440 Zn 0.49768 0.24975 0.62221
 N441 N 0.46986 0.23860 0.60175
 C442 C 0.46229 0.28862 0.63980
 N443 N 0.48685 0.27868 0.64224
 C444 C 0.50449 0.29017 0.65761
 C445 C 0.49756 0.31246 0.67152
 C446 C 0.45458 0.31081 0.65336
 C447 C 0.51314 0.19855 0.63122
 C448 C 0.52081 0.17640 0.64530
 C449 C 0.51571 0.20072 0.68495
 C450 C 0.50809 0.22250 0.67009
 N451 N 0.50735 0.22111 0.64369
 H452 H 0.44874 0.27973 0.62698
 H453 H 0.52405 0.28218 0.65878
 H454 H 0.51173 0.32161 0.68358
 H455 H 0.43505 0.31868 0.65114
 H456 H 0.51207 0.19794 0.61024
 H457 H 0.52577 0.15864 0.63515
 H458 H 0.51665 0.20200 0.70592
 H459 H 0.50292 0.24046 0.67965
 C460 C 0.42795 0.22021 0.57488
 C461 C 0.56981 0.27934 0.57510
 C462 C 0.52227 0.17753 0.67237
 C463 C 0.47237 0.32287 0.66929
 C464 C 0.47511 0.77744 0.91754
 H465 H 0.49387 0.78655 0.91860
 C466 C 0.45377 0.78768 0.93143
 H467 H 0.45611 0.80463 0.94335
 C468 C 0.44867 0.74511 0.89964
 H469 H 0.44649 0.72904 0.88665
 C470 C 0.42690 0.75469 0.91319
 H471 H 0.40816 0.74578 0.91077
 N472 N 0.47219 0.75658 0.90196
 C473 C 0.54906 0.72241 0.88662
 H474 H 0.54790 0.72143 0.86567
 C475 C 0.57115 0.71291 0.89918
 H476 H 0.58709 0.70453 0.88788
 C477 C 0.52965 0.73453 0.92693
 H478 H 0.51334 0.74283 0.93761
 C479 C 0.55149 0.72520 0.94031
 H480 H 0.55203 0.72641 0.96130
 Zn481 Zn 0.50065 0.74573 0.88065
 N482 N 0.52902 0.73324 0.90051
 C483 C 0.53572 0.78392 0.86243
 N484 N 0.51110 0.77494 0.86033
 C485 C 0.49324 0.78767 0.84531
 C486 C 0.50001 0.81031 0.83148
 C487 C 0.54327 0.80637 0.84895
 C488 C 0.48522 0.69522 0.87219
 C489 C 0.47733 0.67369 0.85838
 C490 C 0.48127 0.69911 0.81856
 C491 C 0.48913 0.72023 0.83315
 N492 N 0.49056 0.71800 0.85952
 H493 H 0.54945 0.77406 0.87499
 H494 H 0.47364 0.78044 0.84440
 H495 H 0.48567 0.82049 0.81974
 H496 H 0.56285 0.81348 0.85096
 H497 H 0.48683 0.69393 0.89313
 H498 H 0.47275 0.65575 0.86870
 H499 H 0.47979 0.70105 0.79762
 H500 H 0.49393 0.73835 0.82343
 C501 C 0.57246 0.71442 0.92622
 C502 C 0.42940 0.77631 0.92902
 C503 C 0.47518 0.67569 0.83136
 C504 C 0.52526 0.81975 0.83343
 C505 C 0.47819 -0.18025 0.33327
 N506 N 0.48723 -0.15673 0.34013
 N507 N 0.47871 -0.13503 0.32829
 C508 C 0.46088 -0.13619 0.30921
 N509 N 0.45188 -0.15972 0.30231
 N510 N 0.46040 -0.18141 0.31416
 C511 C 0.48634 -0.20342 0.34703
 C512 C 0.49291 -0.22253 0.35931
 C513 C 0.45063 -0.11278 0.29739
 C514 C 0.44125 -0.09335 0.28769
 C515 C 0.97818 0.31977 0.83327
 N516 N 0.98722 0.34329 0.84013
 N517 N 0.97870 0.36499 0.82829
 C518 C 0.96088 0.36382 0.80921
 N519 N 0.95188 0.34030 0.80230
 N520 N 0.96040 0.31860 0.81415
 C521 C 0.98633 0.29660 0.84703
 C522 C 0.99290 0.27749 0.85931
 C523 C 0.95062 0.38723 0.79739
 C524 C 0.94124 0.40667 0.78769
 C525 C 0.02701 1.17992 0.83432
 N526 N 0.01621 1.15671 0.84063
 N527 N 0.02460 1.13500 0.82917
 C528 C 0.04406 1.13584 0.81106
 N529 N 0.05483 1.15905 0.80472
 N530 N 0.04644 1.18077 0.81617
 C531 C 0.01890 1.20303 0.84771
 C532 C 0.01227 1.22204 0.85970
 C533 C 0.05405 1.11233 0.79967
 C534 C 0.06318 1.09278 0.79033
 C535 C 0.52701 0.67990 0.33432
 N536 N 0.51621 0.65669 0.34063
 N537 N 0.52460 0.63497 0.32918
 C538 C 0.54406 0.63581 0.31106
 N539 N 0.55482 0.65903 0.30471
 N540 N 0.54644 0.68074 0.31617
 C541 C 0.51890 0.70301 0.34771
 C542 C 0.51228 0.72201 0.35969
 C543 C 0.55405 0.61230 0.29967
 C544 C 0.56318 0.59275 0.29033
 C545 C 0.52227 0.32244 0.16576
 N546 N 0.53940 0.31978 0.18544
 N547 N 0.54814 0.34069 0.19730
 C548 C 0.54001 0.36489 0.18986
 N549 N 0.52282 0.36754 0.17023
 N550 N 0.51407 0.34663 0.15838
 C551 C 0.51427 0.30012 0.15173
 C552 C 0.50805 0.28169 0.13921
 C553 C 0.55106 0.38741 0.20121
 C554 C 0.56133 0.40609 0.21017
 C555 C 0.02227 0.82247 0.66575
 N556 N 0.01407 0.84666 0.65837
 N557 N 0.02282 0.86756 0.67023
 C558 C 0.04001 0.86491 0.68986
 N559 N 0.04814 0.84071 0.69729
 N560 N 0.03940 0.81981 0.68543
 C561 C 0.01428 0.80014 0.65173
 C562 C 0.00805 0.78171 0.63921
 C563 C 0.05105 0.88743 0.70121
 C564 C 0.06133 0.90611 0.71017
 C565 C 0.97611 0.68356 0.66330
 N566 N 0.98619 0.66027 0.65577
 N567 N 0.97785 0.63823 0.66682
 C568 C 0.95919 0.63883 0.68576
 N569 N 0.94916 0.66213 0.69335
 N570 N 0.95750 0.68416 0.68229
 C571 C 0.98391 0.70709 0.65018
 C572 C 0.99017 0.72649 0.63835
 C573 C 0.94880 0.61510 0.69634
 C574 C 0.93910 0.59544 0.70478
 C575 C 0.47611 0.18354 0.16330
 N576 N 0.48618 0.16024 0.15576
 N577 N 0.47784 0.13821 0.16681
 C578 C 0.45918 0.13881 0.18575
 N579 N 0.44916 0.16210 0.19335
 N580 N 0.45750 0.18414 0.18230
 C581 C 0.48390 0.20707 0.15018
 C582 C 0.49017 0.22647 0.13836
 C583 C 0.44880 0.11507 0.19633
 C584 C 0.43910 0.09541 0.20478
 C585 C 0.33328 0.47819 -0.18025
 N586 N 0.34015 0.48723 -0.15674
 N587 N 0.32830 0.47871 -0.13504
 C588 C 0.30922 0.46089 -0.13620
 N589 N 0.30232 0.45189 -0.15972
 N590 N 0.31417 0.46041 -0.18142
 C591 C 0.34704 0.48634 -0.20343
 C592 C 0.35932 0.49291 -0.22254
 C593 C 0.29740 0.45064 -0.11279
 C594 C 0.28770 0.44126 -0.09335
 C595 C 0.83328 0.97820 0.31974
 N596 N 0.81416 0.96042 0.31857
 N597 N 0.80231 0.95191 0.34027
 C598 C 0.80922 0.96090 0.36379
 N599 N 0.82830 0.97872 0.36495
 N600 N 0.84014 0.98724 0.34326
 C601 C 0.84704 0.98636 0.29656
 C602 C 0.85931 0.99293 0.27745
 C603 C 0.79740 0.95064 0.38720
 C604 C 0.78770 0.94127 0.40664
 C605 C 0.83432 0.02704 1.17989
 N606 N 0.84063 0.01623 1.15668
 N607 N 0.82917 0.02462 1.13496
 C608 C 0.81106 0.04409 1.13580
 N609 N 0.80472 0.05485 1.15902
 N610 N 0.81617 0.04647 1.18073
 C611 C 0.84771 0.01892 1.20299
 C612 C 0.85970 0.01230 1.22200
 C613 C 0.79967 0.05408 1.11230
 C614 C 0.79033 0.06321 1.09275
 C615 C 0.33432 0.52703 0.67990
 N616 N 0.34063 0.51622 0.65669
 N617 N 0.32917 0.52461 0.63497
 C618 C 0.31106 0.54407 0.63581
 N619 N 0.30471 0.55484 0.65903
 N620 N 0.31617 0.54645 0.68074
 C621 C 0.34771 0.51891 0.70300
 C622 C 0.35970 0.51228 0.72201
 C623 C 0.29966 0.55407 0.61231
 C624 C 0.29032 0.56320 0.59276
 C625 C 0.16574 0.52230 0.32245
 N626 N 0.15836 0.51410 0.34664
 N627 N 0.17022 0.52284 0.36754
 C628 C 0.18984 0.54004 0.36489
 N629 N 0.19728 0.54817 0.34070
 N630 N 0.18542 0.53943 0.31979
 C631 C 0.15172 0.51431 0.30013
 C632 C 0.13920 0.50808 0.28169
 C633 C 0.20120 0.55108 0.38741
 C634 C 0.21016 0.56135 0.40610
 C635 C 0.66575 0.02229 0.82244
 N636 N 0.68542 0.03942 0.81978
 N637 N 0.69728 0.04817 0.84069
 C638 C 0.68985 0.04003 0.86488
 N639 N 0.67022 0.02283 0.86754
 N640 N 0.65837 0.01409 0.84663
 C641 C 0.65172 0.01430 0.80012
 C642 C 0.63921 0.00807 0.78168
 C643 C 0.70120 0.05107 0.88740
 C644 C 0.71016 0.06135 0.90609
 C645 C 0.66330 0.97613 0.68353
 N646 N 0.68230 0.95752 0.68413
 N647 N 0.69335 0.94919 0.66210
 C648 C 0.68576 0.95921 0.63880
 N649 N 0.66681 0.97787 0.63820
 N650 N 0.65577 0.98621 0.66024
 C651 C 0.65018 0.98392 0.70706
 C652 C 0.63835 0.99019 0.72646
 C653 C 0.69634 0.94883 0.61507
 C654 C 0.70479 0.93913 0.59541
 C655 C 0.16330 0.47614 0.18354
 N656 N 0.18230 0.45753 0.18414
 N657 N 0.19335 0.44919 0.16211
 C658 C 0.18576 0.45921 0.13881
 N659 N 0.16682 0.47787 0.13821
 N660 N 0.15577 0.48622 0.16025
 C661 C 0.15018 0.48394 0.20707
 C662 C 0.13835 0.49020 0.22647
 C663 C 0.19635 0.44883 0.11508
 C664 C 0.20479 0.43913 0.09542
 C665 C -0.18025 0.33328 0.47818
 N666 N -0.18141 0.31417 0.46040
 N667 N -0.15972 0.30232 0.45188
 C668 C -0.13620 0.30923 0.46088
 N669 N -0.13504 0.32831 0.47870
 N670 N -0.15674 0.34015 0.48722
 C671 C -0.20343 0.34704 0.48633
 C672 C -0.22254 0.35932 0.49290
 C673 C -0.11278 0.29741 0.45062
 C674 C -0.09335 0.28771 0.44125
 C675 C 0.31974 0.83329 0.97818
 N676 N 0.34325 0.84015 0.98722
 N677 N 0.36495 0.82831 0.97870
 C678 C 0.36379 0.80923 0.96087
 N679 N 0.34027 0.80233 0.95188
 N680 N 0.31857 0.81418 0.96039
 C681 C 0.29656 0.84705 0.98633
 C682 C 0.27745 0.85932 0.99290
 C683 C 0.38720 0.79741 0.95062
 C684 C 0.40664 0.78771 0.94124
 C685 C 1.17989 0.83433 0.02702
 N686 N 1.15668 0.84064 0.01622
 N687 N 1.13496 0.82919 0.02461
 C688 C 1.13580 0.81107 0.04406
 N689 N 1.15902 0.80472 0.05483
 N690 N 1.18074 0.81617 0.04644
 C691 C 1.20299 0.84771 0.01890
 C692 C 1.22200 0.85970 0.01228
 C693 C 1.11230 0.79968 0.05406
 C694 C 1.09274 0.79034 0.06319
 C695 C 0.67990 0.33433 0.52702
 N696 N 0.65669 0.34063 0.51621
 N697 N 0.63497 0.32918 0.52461
 C698 C 0.63581 0.31107 0.54407
 N699 N 0.65903 0.30473 0.55484
 N700 N 0.68074 0.31618 0.54645
 C701 C 0.70300 0.34771 0.51890
 C702 C 0.72201 0.35970 0.51228
 C703 C 0.61230 0.29968 0.55406
 C704 C 0.59275 0.29034 0.56319
 C705 C 0.32245 0.16576 0.52227
 N706 N 0.34663 0.15837 0.51407
 N707 N 0.36754 0.17023 0.52282
 C708 C 0.36490 0.18985 0.54001
 N709 N 0.34070 0.19729 0.54814
 N710 N 0.31979 0.18544 0.53940
 C711 C 0.30012 0.15173 0.51428
 C712 C 0.28169 0.13922 0.50806
 C713 C 0.38742 0.20121 0.55105
 C714 C 0.40610 0.21017 0.56132
 C715 C 0.82243 0.66576 0.02228
 N716 N 0.84662 0.65838 0.01408
 N717 N 0.86753 0.67024 0.02282
 C718 C 0.86488 0.68986 0.04002
 N719 N 0.84068 0.69730 0.04815
 N720 N 0.81978 0.68544 0.03941
 C721 C 0.80011 0.65174 0.01429
 C722 C 0.78167 0.63922 0.00806
 C723 C 0.88740 0.70121 0.05106
 C724 C 0.90608 0.71018 0.06133
 C725 C 0.68352 0.66331 0.97613
 N726 N 0.66023 0.65577 0.98620
 N727 N 0.63820 0.66682 0.97786
 C728 C 0.63879 0.68577 0.95920
 N729 N 0.66209 0.69336 0.94918
 N730 N 0.68413 0.68231 0.95752
 C731 C 0.70705 0.65019 0.98392
 C732 C 0.72646 0.63837 0.99019
 C733 C 0.61506 0.69635 0.94882
 C734 C 0.59540 0.70480 0.93912
 C735 C 0.18354 0.16332 0.47612
 N736 N 0.18414 0.18231 0.45751
 N737 N 0.16211 0.19336 0.44917
 C738 C 0.13881 0.18578 0.45919
 N739 N 0.13821 0.16683 0.47786
 N740 N 0.16025 0.15578 0.48620
 C741 C 0.20707 0.15019 0.48391
 C742 C 0.22647 0.13837 0.49018
 C743 C 0.11508 0.19636 0.44881
 C744 C 0.09542 0.20480 0.43911
 C745 C 0.57301 0.06933 0.73004
 N746 N 0.55390 0.06759 0.71231
 N747 N 0.54260 0.08904 0.70254
 C748 C 0.55006 0.11287 0.71021
 N749 N 0.56910 0.11460 0.72801
 N750 N 0.58040 0.09315 0.73778
 C751 C 0.58667 0.04639 0.73891
 C752 C 0.59894 0.02738 0.74568
 C753 C 0.53949 0.13591 0.69801
 C754 C 0.53129 0.15505 0.68683
 C755 C 1.07301 0.56934 0.23005
 N756 N 1.08040 0.59316 0.23778
 N757 N 1.06910 0.61462 0.22801
 C758 C 1.05006 0.61288 0.21022
 N759 N 1.04260 0.58906 0.20255
 N760 N 1.05390 0.56761 0.21232
 C761 C 1.08667 0.54641 0.23891
 C762 C 1.09894 0.52739 0.24568
 C763 C 1.03949 0.63592 0.19801
 C764 C 1.03129 0.65507 0.18684
 C765 C 0.92547 0.93331 0.22393
 N766 N 0.92201 0.91003 0.23619
 N767 N 0.93292 0.88844 0.22662
 C768 C 0.94762 0.88949 0.20449
 N769 N 0.95117 0.91279 0.19228
 N770 N 0.94026 0.93437 0.20186
 C771 C 0.91187 0.95610 0.23296
 C772 C 0.89954 0.97492 0.23999
 C773 C 0.95742 0.86602 0.19292
 C774 C 0.96473 0.84630 0.18252
 C775 C 0.42547 0.43330 0.72394
 N776 N 0.42201 0.41001 0.73619
 N777 N 0.43292 0.38843 0.72662
 C778 C 0.44763 0.38949 0.70449
 N779 N 0.45118 0.41278 0.69229
 N780 N 0.44027 0.43436 0.70187
 C781 C 0.41187 0.45609 0.73297
 C782 C 0.39954 0.47490 0.73999
 C783 C 0.45743 0.36601 0.69292
 C784 C 0.46474 0.34629 0.68252
 C785 C 0.42448 0.57048 0.77463
 N786 N 0.41698 0.59474 0.76675
 N787 N 0.42817 0.61560 0.77641
 C788 C 0.44720 0.61284 0.79425
 N789 N 0.45476 0.58858 0.80206
 N790 N 0.44357 0.56771 0.79239
 C791 C 0.41104 0.54817 0.76574
 C792 C 0.39897 0.52967 0.75890
 C793 C 0.45776 0.63525 0.80623
 C794 C 0.46601 0.65386 0.81718
 C795 C -0.07552 0.07049 0.27462
 N796 N -0.08302 0.09475 0.26674
 N797 N -0.07184 0.11561 0.27641
 C798 C -0.05281 0.11285 0.29424
 N799 N -0.04524 0.08859 0.30205
 N800 N -0.05643 0.06773 0.29239
 C801 C -0.08897 0.04818 0.26574
 C802 C -0.10103 0.02968 0.25889
 C803 C -0.04225 0.13526 0.30622
 C804 C -0.03399 0.15387 0.31718
 C805 C 0.07285 0.43087 0.28053
 N806 N 0.05851 0.43137 0.30290
 N807 N 0.04734 0.40981 0.31210
 C808 C 0.05014 0.38712 0.29919
 N809 N 0.06440 0.38664 0.27676
 N810 N 0.07557 0.40819 0.26757
 C811 C 0.08659 0.45351 0.27173
 C812 C 0.09894 0.47214 0.26473
 C813 C 0.04014 0.36348 0.31034
 C814 C 0.03278 0.34353 0.32044
 C815 C 0.57285 0.93086 0.78052
 N816 N 0.57557 0.90818 0.76756
 N817 N 0.56439 0.88663 0.77676
 C818 C 0.55013 0.88711 0.79918
 N819 N 0.54733 0.90981 0.81209
 N820 N 0.55850 0.93136 0.80289
 C821 C 0.58659 0.95350 0.77172
 C822 C 0.59894 0.97213 0.76472
 C823 C 0.54013 0.86347 0.81034
 C824 C 0.53277 0.84353 0.82044
 C825 C 0.73003 0.57301 0.06931
 N826 N 0.71231 0.55391 0.06758
 N827 N 0.70254 0.54260 0.08903
 C828 C 0.71020 0.55006 0.11286
 N829 N 0.72800 0.56910 0.11459
 N830 N 0.73777 0.58040 0.09314
 C831 C 0.73890 0.58668 0.04639
 C832 C 0.74567 0.59895 0.02737
 C833 C 0.69800 0.53949 0.13589
 C834 C 0.68682 0.53129 0.15504
 C835 C 0.23004 1.07302 0.56931
 N836 N 0.23777 1.08041 0.59314
 N837 N 0.22800 1.06911 0.61459
 C838 C 0.21021 1.05007 0.61286
 N839 N 0.20254 1.04261 0.58903
 N840 N 0.21231 1.05391 0.56758
 C841 C 0.23891 1.08668 0.54638
 C842 C 0.24568 1.09896 0.52736
 C843 C 0.19800 1.03950 0.63589
 C844 C 0.18683 1.03130 0.65504
 C845 C 0.22392 0.92548 0.93329
 N846 N 0.20185 0.94027 0.93436
 N847 N 0.19228 0.95119 0.91278
 C848 C 0.20448 0.94764 0.88948
 N849 N 0.22660 0.93293 0.88843
 N850 N 0.23618 0.92201 0.91000
 C851 C 0.23295 0.91188 0.95608
 C852 C 0.23998 0.89955 0.97489
 C853 C 0.19291 0.95745 0.86601
 C854 C 0.18251 0.96476 0.84629
 C855 C 0.72393 0.42547 0.43329
 N856 N 0.70186 0.44026 0.43436
 N857 N 0.69228 0.45118 0.41278
 C858 C 0.70448 0.44763 0.38948
 N859 N 0.72660 0.43291 0.38842
 N860 N 0.73618 0.42200 0.41000
 C861 C 0.73296 0.41187 0.45608
 C862 C 0.73999 0.39954 0.47489
 C863 C 0.69291 0.45743 0.36600
 C864 C 0.68251 0.46474 0.34629
 C865 C 0.77463 0.42449 0.57047
 N866 N 0.79240 0.44358 0.56770
 N867 N 0.80206 0.45477 0.58856
 C868 C 0.79425 0.44721 0.61282
 N869 N 0.77642 0.42817 0.61559
 N870 N 0.76676 0.41699 0.59472
 C871 C 0.76575 0.41104 0.54815
 C872 C 0.75890 0.39898 0.52965
 C873 C 0.80623 0.45777 0.63523
 C874 C 0.81718 0.46603 0.65384
 C875 C 0.27462 -0.07551 0.07047
 N876 N 0.26675 -0.08302 0.09472
 N877 N 0.27642 -0.07183 0.11559
 C878 C 0.29424 -0.05280 0.11282
 N879 N 0.30205 -0.04523 0.08856
 N880 N 0.29238 -0.05642 0.06770
 C881 C 0.26574 -0.08896 0.04815
 C882 C 0.25889 -0.10102 0.02965
 C883 C 0.30622 -0.04224 0.13523
 C884 C 0.31718 -0.03398 0.15385
 C885 C 0.28052 0.07286 0.43085
 N886 N 0.26756 0.07558 0.40818
 N887 N 0.27676 0.06440 0.38662
 C888 C 0.29918 0.05014 0.38710
 N889 N 0.31210 0.04735 0.40979
 N890 N 0.30290 0.05853 0.43135
 C891 C 0.27173 0.08661 0.45348
 C892 C 0.26472 0.09895 0.47212
 C893 C 0.31034 0.04015 0.36346
 C894 C 0.32044 0.03278 0.34351
 C895 C 0.78052 0.57287 0.93085
 N896 N 0.80289 0.55853 0.93135
 N897 N 0.81209 0.54736 0.90980
 C898 C 0.79918 0.55015 0.88710
 N899 N 0.77675 0.56442 0.88662
 N900 N 0.76756 0.57559 0.90818
 C901 C 0.77172 0.58661 0.95349
 C902 C 0.76472 0.59896 0.97212
 C903 C 0.81033 0.54016 0.86346
 C904 C 0.82043 0.53280 0.84351
 C905 C 0.06931 0.73006 0.57301
 N906 N 0.09314 0.73779 0.58040
 N907 N 0.11459 0.72802 0.56910
 C908 C 0.11286 0.71023 0.55006
 N909 N 0.08903 0.70257 0.54260
 N910 N 0.06758 0.71233 0.55390
 C911 C 0.04638 0.73893 0.58667
 C912 C 0.02736 0.74570 0.59895
 C913 C 0.13589 0.69803 0.53949
 C914 C 0.15504 0.68685 0.53129
 C915 C 0.56930 0.23005 1.07301
 N916 N 0.56757 0.21232 1.05390
 N917 N 0.58902 0.20255 1.04260
 C918 C 0.61285 0.21022 1.05006
 N919 N 0.61458 0.22801 1.06910
 N920 N 0.59313 0.23778 1.08040
 C921 C 0.54637 0.23891 1.08667
 C922 C 0.52735 0.24568 1.09894
 C923 C 0.63588 0.19801 1.03949
 C924 C 0.65503 0.18684 1.03129
 C925 C 0.93328 0.22396 0.92546
 N926 N 0.93435 0.20189 0.94025
 N927 N 0.91277 0.19231 0.95117
 C928 C 0.88947 0.20451 0.94762
 N929 N 0.88841 0.22664 0.93290
 N930 N 0.90999 0.23621 0.92199
 C931 C 0.95607 0.23299 0.91186
 C932 C 0.97489 0.24002 0.89954
 C933 C 0.86599 0.19294 0.95742
 C934 C 0.84628 0.18254 0.96473
 C935 C 0.43329 0.72395 0.42547
 N936 N 0.43436 0.70188 0.44026
 N937 N 0.41278 0.69230 0.45118
 C938 C 0.38948 0.70450 0.44763
 N939 N 0.38843 0.72663 0.43292
 N940 N 0.41001 0.73621 0.42201
 C941 C 0.45608 0.73298 0.41187
 C942 C 0.47490 0.74001 0.39954
 C943 C 0.36601 0.69293 0.45743
 C944 C 0.34629 0.68253 0.46474
 C945 C 0.57048 0.77464 0.42447
 N946 N 0.59473 0.76676 0.41697
 N947 N 0.61559 0.77643 0.42815
 C948 C 0.61283 0.79426 0.44719
 N949 N 0.58857 0.80207 0.45475
 N950 N 0.56771 0.79240 0.44356
 C951 C 0.54816 0.76576 0.41103
 C952 C 0.52966 0.75891 0.39896
 C953 C 0.63524 0.80624 0.45774
 C954 C 0.65385 0.81720 0.46600
 C955 C 0.07047 0.27465 -0.07552
 N956 N 0.09472 0.26677 -0.08302
 N957 N 0.11559 0.27644 -0.07184
 C958 C 0.11282 0.29427 -0.05281
 N959 N 0.08856 0.30208 -0.04525
 N960 N 0.06770 0.29242 -0.05643
 C961 C 0.04815 0.26577 -0.08897
 C962 C 0.02965 0.25893 -0.10103
 C963 C 0.13524 0.30625 -0.04225
 C964 C 0.15385 0.31720 -0.03399
 C965 C 0.43083 0.28053 0.07286
 N966 N 0.43134 0.30290 0.05852
 N967 N 0.40978 0.31210 0.04734
 C968 C 0.38709 0.29919 0.05014
 N969 N 0.38661 0.27677 0.06441
 N970 N 0.40816 0.26757 0.07558
 C971 C 0.45347 0.27173 0.08660
 C972 C 0.47211 0.26473 0.09895
 C973 C 0.36345 0.31035 0.04015
 C974 C 0.34350 0.32045 0.03278
 C975 C 0.93085 0.78055 0.57284
 N976 N 0.93135 0.80292 0.55850
 N977 N 0.90980 0.81212 0.54733
 C978 C 0.88710 0.79921 0.55012
 N979 N 0.88662 0.77678 0.56438
 N980 N 0.90817 0.76758 0.57556
 C981 C 0.95348 0.77175 0.58659
 C982 C 0.97212 0.76475 0.59894
 C983 C 0.86346 0.81036 0.54012
 C984 C 0.84352 0.82046 0.53276
   
