data_POSCAR
  _audit_creation_date              2014-09-24
  _audit_creation_method            'ToBaCCo'
  _symmetry_space_group_name_H-M    'P1'
  _symmetry_Int_Tables_number       1
  _symmetry_cell_setting            triclinic
  loop_
  _symmetry_equiv_pos_as_xyz
 x,y,z
_cell_length_a 24.4179
_cell_length_b 24.9889
_cell_length_c 24.4189
_cell_angle_alpha 89.999900
_cell_angle_beta 90.000000
_cell_angle_gamma 90.000000
loop_
  _atom_site_label
  _atom_site_type_symbol
  _atom_site_fract_x
  _atom_site_fract_y
  _atom_site_fract_z
C1 C 1.25002 0.25000 0.25000
 C2 C 0.75002 -0.25000 0.24999
 C3 C 0.75002 0.25000 -0.25000
 C4 C 1.25002 -0.25000 -0.25001
 C5 C 0.25003 0.25000 0.74999
 C6 C 0.75003 0.75000 0.75000
 C7 C 0.75003 0.25000 0.24999
 C8 C 0.25003 0.75000 0.25000
 N9 N 1.09765 0.05532 0.05977
 N10 N 1.13606 0.09069 0.07136
 N11 N 1.05967 -0.05691 0.09782
 N12 N 1.07169 -0.09187 0.13659
 N13 N 1.09748 -0.05720 0.05953
 N14 N 1.13597 -0.09258 0.07112
 N15 N 1.05936 0.05562 0.09754
 N16 N 1.07054 0.09139 0.13568
 C17 C 1.11799 0.11342 0.11823
 C18 C 1.11883 -0.11446 0.11882
 N19 N 0.90346 -0.05644 0.05912
 N20 N 0.86501 -0.09186 0.07037
 N21 N 0.94138 0.05572 0.09764
 N22 N 0.92947 0.09082 0.13626
 N23 N 0.90372 0.05610 0.05924
 N24 N 0.86540 0.09167 0.07053
 N25 N 0.94129 -0.05650 0.09739
 N26 N 0.92937 -0.09170 0.13586
 Mn27 Mn 1.00043 -0.00053 0.09810
 C28 C 0.88229 -0.11403 0.11782
 C29 C 0.88255 0.11352 0.11817
 N30 N 1.09750 -0.05661 -0.05862
 N31 N 1.13604 -0.09175 -0.07051
 N32 N 1.05967 0.05558 -0.09661
 N33 N 1.07142 0.09075 -0.13518
 N34 N 1.09749 0.05580 -0.05834
 N35 N 1.13583 0.09134 -0.06977
 N36 N 1.05920 -0.05677 -0.09638
 N37 N 1.07049 -0.09221 -0.13479
 Mn38 Mn 1.09803 -0.00067 0.00058
 C39 C 1.11800 -0.11421 -0.11753
 C40 C 1.11845 0.11334 -0.11730
 N41 N 0.90371 0.05630 -0.05859
 N42 N 0.86529 0.09171 -0.07011
 N43 N 0.94147 -0.05656 -0.09659
 N44 N 0.92999 -0.09200 -0.13498
 N45 N 0.90317 -0.05616 -0.05885
 N46 N 0.86441 -0.09111 -0.07074
 N47 N 0.94146 0.05591 -0.09690
 N48 N 0.92953 0.09085 -0.13567
 Mn49 Mn 0.90304 -0.00005 0.00026
 Mn50 Mn 1.00047 -0.00046 -0.09709
 Cl51 Cl 1.00050 -0.00044 0.00047
 C52 C 0.88249 0.11349 -0.11780
 C53 C 0.88231 -0.11374 -0.11775
 N54 N 1.09749 0.55661 0.55861
 N55 N 1.13604 0.59175 0.57050
 N56 N 1.05966 0.44442 0.59660
 N57 N 1.07142 0.40924 0.63517
 N58 N 1.09749 0.44420 0.55832
 N59 N 1.13582 0.40866 0.56975
 N60 N 1.05919 0.55676 0.59637
 N61 N 1.07048 0.59221 0.63478
 C62 C 1.11800 0.61421 0.61752
 C63 C 1.11844 0.38666 0.61729
 N64 N 0.90370 0.44370 0.55858
 N65 N 0.86528 0.40828 0.57010
 N66 N 0.94147 0.55656 0.59658
 N67 N 0.92998 0.59199 0.63497
 N68 N 0.90316 0.55616 0.55885
 N69 N 0.86441 0.59111 0.57073
 N70 N 0.94146 0.44409 0.59688
 N71 N 0.92952 0.40915 0.63566
 Mn72 Mn 1.00047 0.50046 0.59708
 C73 C 0.88248 0.38651 0.61779
 C74 C 0.88231 0.61374 0.61774
 N75 N 1.09764 0.44468 0.44022
 N76 N 1.13606 0.40931 0.42862
 N77 N 1.05967 0.55691 0.40217
 N78 N 1.07169 0.59188 0.36340
 N79 N 1.09747 0.55720 0.44046
 N80 N 1.13597 0.59258 0.42887
 N81 N 1.05935 0.44438 0.40244
 N82 N 1.07053 0.40861 0.36431
 Mn83 Mn 1.09803 0.50067 0.49941
 C84 C 1.11798 0.38658 0.38176
 C85 C 1.11882 0.61447 0.38118
 N86 N 0.90346 0.55644 0.44087
 N87 N 0.86500 0.59186 0.42962
 N88 N 0.94138 0.44428 0.40235
 N89 N 0.92946 0.40919 0.36373
 N90 N 0.90371 0.44390 0.44074
 N91 N 0.86540 0.40833 0.42946
 N92 N 0.94128 0.55650 0.40260
 N93 N 0.92936 0.59170 0.36413
 Mn94 Mn 0.90303 0.50005 0.49973
 Mn95 Mn 1.00043 0.50054 0.40189
 Cl96 Cl 1.00050 0.50044 0.49952
 C97 C 0.88228 0.61403 0.38217
 C98 C 0.88255 0.38648 0.38182
 N99 N 0.59634 0.05630 0.55858
 N100 N 0.63476 0.09171 0.57010
 N101 N 0.55858 -0.05656 0.59658
 N102 N 0.57007 -0.09199 0.63497
 N103 N 0.59689 -0.05616 0.55884
 N104 N 0.63564 -0.09111 0.57073
 N105 N 0.55859 0.05591 0.59689
 N106 N 0.57053 0.09085 0.63566
 C107 C 0.61757 0.11349 0.61779
 C108 C 0.61774 -0.11374 0.61774
 N109 N 0.40256 -0.05661 0.55861
 N110 N 0.36401 -0.09175 0.57050
 N111 N 0.44038 0.05558 0.59660
 N112 N 0.42863 0.09076 0.63517
 N113 N 0.40256 0.05580 0.55833
 N114 N 0.36423 0.09134 0.56975
 N115 N 0.44085 -0.05677 0.59637
 N116 N 0.42957 -0.09221 0.63477
 Mn117 Mn 0.49958 -0.00046 0.59708
 C118 C 0.38205 -0.11421 0.61751
 C119 C 0.38161 0.11334 0.61729
 N120 N 0.59659 -0.05644 0.44086
 N121 N 0.63505 -0.09186 0.42962
 N122 N 0.55867 0.05572 0.40235
 N123 N 0.57058 0.09082 0.36373
 N124 N 0.59633 0.05610 0.44075
 N125 N 0.63465 0.09167 0.42946
 N126 N 0.55876 -0.05650 0.40259
 N127 N 0.57069 -0.09170 0.36413
 Mn128 Mn 0.59701 -0.00005 0.49973
 C129 C 0.61777 -0.11403 0.38217
 C130 C 0.61750 0.11352 0.38182
 N131 N 0.40241 0.05532 0.44022
 N132 N 0.36399 0.09069 0.42863
 N133 N 0.44038 -0.05691 0.40217
 N134 N 0.42836 -0.09188 0.36340
 N135 N 0.40258 -0.05720 0.44046
 N136 N 0.36408 -0.09258 0.42887
 N137 N 0.44069 0.05562 0.40245
 N138 N 0.42952 0.09139 0.36431
 Mn139 Mn 0.40202 -0.00067 0.49941
 Mn140 Mn 0.49962 -0.00053 0.40189
 Cl141 Cl 0.49955 -0.00044 0.49952
 C142 C 0.38207 0.11343 0.38176
 C143 C 0.38123 -0.11447 0.38118
 N144 N 0.59659 0.55644 0.05912
 N145 N 0.63505 0.59187 0.07037
 N146 N 0.55867 0.44429 0.09764
 N147 N 0.57058 0.40919 0.13626
 N148 N 0.59633 0.44390 0.05925
 N149 N 0.63465 0.40833 0.07053
 N150 N 0.55876 0.55650 0.09739
 N151 N 0.57069 0.59171 0.13586
 C152 C 0.61777 0.61403 0.11782
 C153 C 0.61750 0.38648 0.11817
 N154 N 0.40241 0.44468 0.05977
 N155 N 0.36399 0.40931 0.07137
 N156 N 0.44038 0.55691 0.09782
 N157 N 0.42836 0.59188 0.13659
 N158 N 0.40258 0.55720 0.05953
 N159 N 0.36408 0.59258 0.07112
 N160 N 0.44069 0.44439 0.09755
 N161 N 0.42952 0.40862 0.13568
 Mn162 Mn 0.49962 0.50054 0.09810
 C163 C 0.38207 0.38658 0.11824
 C164 C 0.38123 0.61447 0.11881
 N165 N 0.59634 0.44370 -0.05859
 N166 N 0.63476 0.40828 -0.07011
 N167 N 0.55858 0.55656 -0.09659
 N168 N 0.57006 0.59199 -0.13498
 N169 N 0.59689 0.55616 -0.05886
 N170 N 0.63564 0.59111 -0.07074
 N171 N 0.55859 0.44409 -0.09689
 N172 N 0.57053 0.40914 -0.13567
 Mn173 Mn 0.59701 0.50005 0.00026
 C174 C 0.61757 0.38651 -0.11779
 C175 C 0.61774 0.61374 -0.11775
 N176 N 0.40256 0.55661 -0.05862
 N177 N 0.36401 0.59174 -0.07051
 N178 N 0.44038 0.44442 -0.09661
 N179 N 0.42863 0.40924 -0.13518
 N180 N 0.40256 0.44420 -0.05834
 N181 N 0.36423 0.40866 -0.06976
 N182 N 0.44085 0.55676 -0.09638
 N183 N 0.42956 0.59221 -0.13479
 Mn184 Mn 0.40202 0.50067 0.00058
 Mn185 Mn 0.49958 0.50046 -0.09709
 Cl186 Cl 0.49955 0.50044 0.00047
 C187 C 0.38205 0.61420 -0.11753
 C188 C 0.38161 0.38666 -0.11730
 C189 C 1.20296 0.13302 0.18182
 C190 C 1.23278 0.18385 0.16156
 C191 C 1.21310 0.21402 0.21320
 C192 C 1.18319 0.16320 0.23337
 C193 C 1.16083 0.23202 0.18251
 C194 C 1.18042 0.20160 0.13082
 C195 C 1.15118 0.15122 0.15159
 C196 C 1.13097 0.18102 0.20266
 H197 H 1.22018 0.09191 0.18136
 H198 H 1.27431 0.18407 0.14326
 H199 H 1.18291 0.14579 0.27509
 H200 H 1.14228 0.27249 0.18195
 H201 H 1.17897 0.21718 0.08828
 H202 H 1.08872 0.17977 0.21937
 C203 C 1.18060 0.70202 0.63070
 C204 C 1.16096 0.73225 0.68247
 C205 C 1.21314 0.71405 0.71317
 C206 C 1.23287 0.68403 0.66145
 C207 C 1.18314 0.66320 0.73310
 C208 C 1.13099 0.68122 0.70237
 C209 C 1.15124 0.65162 0.65120
 C210 C 1.20293 0.63319 0.68144
 H211 H 1.17926 0.71777 0.58822
 H212 H 1.14244 0.77274 0.68206
 H213 H 1.27443 0.68416 0.64322
 H214 H 1.18285 0.64568 0.77477
 H215 H 1.08870 0.67998 0.71899
 H216 H 1.22006 0.59204 0.68082
 C217 C 0.70235 0.18088 0.63092
 C218 C 0.68237 0.23194 0.66081
 C219 C 0.71314 0.21393 0.71304
 C220 C 0.73314 0.16304 0.68310
 C221 C 0.66146 0.18381 0.73278
 C222 C 0.63065 0.20160 0.68047
 C223 C 0.65122 0.15114 0.65117
 C224 C 0.68154 0.13293 0.70293
 H225 H 0.71903 0.17963 0.58865
 H226 H 0.68191 0.27242 0.64226
 H227 H 0.77486 0.14562 0.68279
 H228 H 0.64324 0.18404 0.77435
 H229 H 0.58815 0.21730 0.67914
 H230 H 0.68105 0.09183 0.72018
 C231 C 0.70258 0.68120 0.13090
 C232 C 0.68257 0.73220 0.16084
 C233 C 0.71322 0.71404 0.21307
 C234 C 0.73325 0.66321 0.18309
 C235 C 0.66150 0.68397 0.23271
 C236 C 0.63081 0.70190 0.18040
 C237 C 0.65142 0.65153 0.15106
 C238 C 0.68160 0.63314 0.20280
 H239 H 0.71927 0.67997 0.08863
 H240 H 0.68210 0.77269 0.14233
 H241 H 0.77494 0.64572 0.18286
 H242 H 0.64322 0.68413 0.27425
 H243 H 0.58831 0.71761 0.17898
 H244 H 0.68101 0.59200 0.21993
 C245 C 0.79748 -0.18119 0.13090
 C246 C 0.81749 -0.23220 0.16084
 C247 C 0.78683 -0.21404 0.21308
 C248 C 0.76680 -0.16320 0.18309
 C249 C 0.83855 -0.18396 0.23272
 C250 C 0.86924 -0.20190 0.18040
 C251 C 0.84863 -0.15152 0.15106
 C252 C 0.81845 -0.13314 0.20281
 H253 H 0.78078 -0.17996 0.08864
 H254 H 0.81795 -0.27269 0.14233
 H255 H 0.72511 -0.14572 0.18286
 H256 H 0.85683 -0.18413 0.27426
 H257 H 0.91174 -0.21760 0.17899
 H258 H 0.81904 -0.09199 0.21994
 C259 C 0.79769 0.31912 0.63092
 C260 C 0.81768 0.26806 0.66081
 C261 C 0.78691 0.28607 0.71304
 C262 C 0.76690 0.33696 0.68310
 C263 C 0.83859 0.31618 0.73278
 C264 C 0.86940 0.29839 0.68046
 C265 C 0.84883 0.34886 0.65117
 C266 C 0.81851 0.36707 0.70292
 H267 H 0.78101 0.32037 0.58865
 H268 H 0.81813 0.22758 0.64225
 H269 H 0.72519 0.35438 0.68280
 H270 H 0.85681 0.31595 0.77435
 H271 H 0.91190 0.28270 0.67913
 H272 H 0.81900 0.40816 0.72018
 C273 C 0.31944 -0.20202 0.63070
 C274 C 0.33909 -0.23225 0.68246
 C275 C 0.28691 -0.21406 0.71317
 C276 C 0.26718 -0.18404 0.66145
 C277 C 0.31691 -0.16320 0.73310
 C278 C 0.36905 -0.18123 0.70236
 C279 C 0.34880 -0.15163 0.65120
 C280 C 0.29712 -0.13319 0.68144
 H281 H 0.32078 -0.21777 0.58822
 H282 H 0.35761 -0.27274 0.68205
 H283 H 0.22562 -0.18417 0.64322
 H284 H 0.31720 -0.14569 0.77477
 H285 H 0.41135 -0.17998 0.71898
 H286 H 0.27999 -0.09205 0.68082
 C287 C 0.31964 0.29840 0.13083
 C288 C 0.33922 0.26798 0.18251
 C289 C 0.28695 0.28598 0.21320
 C290 C 0.26727 0.31616 0.16156
 C291 C 0.31686 0.33681 0.23338
 C292 C 0.36908 0.31899 0.20267
 C293 C 0.34888 0.34878 0.15160
 C294 C 0.29709 0.36698 0.18182
 H295 H 0.32109 0.28283 0.08829
 H296 H 0.35777 0.22751 0.18196
 H297 H 0.22574 0.31593 0.14326
 H298 H 0.31714 0.35421 0.27509
 H299 H 0.41133 0.32023 0.21938
 H300 H 0.27988 0.40809 0.18136
 C301 C 0.79770 0.18088 -0.13093
 C302 C 0.81768 0.23194 -0.16082
 C303 C 0.78691 0.21393 -0.21305
 C304 C 0.76691 0.16304 -0.18311
 C305 C 0.83860 0.18381 -0.23279
 C306 C 0.86940 0.20160 -0.18048
 C307 C 0.84884 0.15114 -0.15118
 C308 C 0.81852 0.13293 -0.20294
 H309 H 0.78102 0.17962 -0.08866
 H310 H 0.81814 0.27242 -0.14227
 H311 H 0.72519 0.14562 -0.18280
 H312 H 0.85681 0.18404 -0.27436
 H313 H 0.91190 0.21730 -0.17915
 H314 H 0.81900 0.09183 -0.22019
 C315 C 0.81845 0.63314 0.29718
 C316 C 0.76680 0.66321 0.31689
 C317 C 0.78683 0.71404 0.28691
 C318 C 0.83855 0.68397 0.26727
 C319 C 0.81748 0.73220 0.33915
 C320 C 0.79747 0.68119 0.36909
 C321 C 0.84863 0.65152 0.34893
 C322 C 0.86924 0.70190 0.31959
 H323 H 0.81904 0.59199 0.28005
 H324 H 0.72511 0.64572 0.31713
 H325 H 0.85683 0.68413 0.22573
 H326 H 0.81795 0.77269 0.35765
 H327 H 0.78077 0.67997 0.41135
 H328 H 0.91174 0.71760 0.32100
 C329 C 0.36908 0.18102 0.29733
 C330 C 0.31686 0.16320 0.26662
 C331 C 0.28695 0.21403 0.28679
 C332 C 0.33922 0.23203 0.31749
 C333 C 0.26727 0.18384 0.33843
 C334 C 0.29709 0.13303 0.31818
 C335 C 0.34888 0.15122 0.34840
 C336 C 0.31963 0.20160 0.36917
 H337 H 0.41134 0.17978 0.28062
 H338 H 0.31715 0.14580 0.22490
 H339 H 0.35777 0.27250 0.31804
 H340 H 0.22574 0.18407 0.35673
 H341 H 0.27988 0.09191 0.31863
 H342 H 0.32108 0.21718 0.41171
 C343 C 0.36905 0.68122 -0.20238
 C344 C 0.31691 0.66319 -0.23312
 C345 C 0.28691 0.71405 -0.21319
 C346 C 0.33909 0.73224 -0.18248
 C347 C 0.26718 0.68403 -0.16146
 C348 C 0.29711 0.63319 -0.18146
 C349 C 0.34880 0.65162 -0.15122
 C350 C 0.31944 0.70202 -0.13072
 H351 H 0.41134 0.67997 -0.21901
 H352 H 0.31719 0.64567 -0.27479
 H353 H 0.35761 0.77273 -0.18207
 H354 H 0.22562 0.68417 -0.14324
 H355 H 0.27998 0.59204 -0.18083
 H356 H 0.32079 0.71776 -0.08824
 C357 C 1.18061 -0.20202 -0.13071
 C358 C 1.16096 -0.23225 -0.18248
 C359 C 1.21315 -0.21405 -0.21319
 C360 C 1.23287 -0.18404 -0.16146
 C361 C 1.18314 -0.16320 -0.23312
 C362 C 1.13100 -0.18122 -0.20238
 C363 C 1.15125 -0.15162 -0.15121
 C364 C 1.20294 -0.13319 -0.18145
 H365 H 1.17927 -0.21777 -0.08823
 H366 H 1.14244 -0.27274 -0.18207
 H367 H 1.27444 -0.18417 -0.14324
 H368 H 1.18286 -0.14568 -0.27479
 H369 H 1.08871 -0.17997 -0.21900
 H370 H 1.22007 -0.09205 -0.18083
 C371 C 1.13097 0.31898 0.29733
 C372 C 1.18319 0.33680 0.26662
 C373 C 1.21310 0.28598 0.28679
 C374 C 1.16083 0.26798 0.31749
 C375 C 1.23277 0.31616 0.33843
 C376 C 1.20295 0.36698 0.31818
 C377 C 1.15117 0.34878 0.34840
 C378 C 1.18041 0.29840 0.36917
 H379 H 1.08871 0.32022 0.28062
 H380 H 1.18291 0.35420 0.22490
 H381 H 1.14228 0.22750 0.31804
 H382 H 1.27430 0.31593 0.35673
 H383 H 1.22017 0.40809 0.31864
 H384 H 1.17896 0.28282 0.41171
 C385 C 0.70258 -0.18119 0.36909
 C386 C 0.68256 -0.23220 0.33914
 C387 C 0.71322 -0.21404 0.28691
 C388 C 0.73325 -0.16320 0.31690
 C389 C 0.66150 -0.18396 0.26727
 C390 C 0.63081 -0.20190 0.31959
 C391 C 0.65142 -0.15152 0.34893
 C392 C 0.68160 -0.13314 0.29718
 H393 H 0.71927 -0.17997 0.41135
 H394 H 0.68210 -0.27269 0.35765
 H395 H 0.77494 -0.14572 0.31713
 H396 H 0.64322 -0.18412 0.22573
 H397 H 0.58831 -0.21760 0.32100
 H398 H 0.68101 -0.09199 0.28005
 C399 C 0.70235 0.31912 -0.13092
 C400 C 0.68237 0.26806 -0.16082
 C401 C 0.71314 0.28606 -0.21305
 C402 C 0.73314 0.33696 -0.18311
 C403 C 0.66145 0.31618 -0.23279
 C404 C 0.63065 0.29839 -0.18047
 C405 C 0.65122 0.34885 -0.15118
 C406 C 0.68153 0.36707 -0.20293
 H407 H 0.71903 0.32037 -0.08866
 H408 H 0.68192 0.22758 -0.14226
 H409 H 0.77486 0.35438 -0.18280
 H410 H 0.64324 0.31595 -0.27435
 H411 H 0.58815 0.28269 -0.17914
 H412 H 0.68105 0.40816 -0.22019
 C413 C 1.20293 0.18102 -0.13076
 C414 C 1.23352 0.16318 -0.18306
 C415 C 1.21322 0.21397 -0.21299
 C416 C 1.18264 0.23197 -0.16064
 C417 C 1.16155 0.18370 -0.23246
 C418 C 1.18193 0.13291 -0.20262
 C419 C 1.15183 0.15111 -0.15073
 C420 C 1.13093 0.20145 -0.18002
 H421 H 1.21981 0.17987 -0.08857
 H422 H 1.27525 0.14583 -0.18291
 H423 H 1.18202 0.27247 -0.14216
 H424 H 1.14317 0.18393 -0.27396
 H425 H 1.18150 0.09178 -0.21980
 H426 H 1.08839 0.21701 -0.17848
 C427 C 1.13197 0.70275 0.31836
 C428 C 1.18368 0.73322 0.33792
 C429 C 1.21463 0.71536 0.28549
 C430 C 1.16274 0.68501 0.26599
 C431 C 1.23448 0.66430 0.31570
 C432 C 1.20362 0.68213 0.36786
 C433 C 1.15252 0.65232 0.34770
 C434 C 1.18283 0.63416 0.29596
 H435 H 1.08948 0.71849 0.31965
 H436 H 1.18257 0.77335 0.35716
 H437 H 1.14375 0.68461 0.22480
 H438 H 1.27581 0.64612 0.31675
 H439 H 1.22036 0.68097 0.41010
 H440 H 1.18242 0.59307 0.27869
 C441 C 0.63064 0.20167 0.31935
 C442 C 0.68234 0.23197 0.33910
 C443 C 0.71316 0.21396 0.28691
 C444 C 0.66149 0.18388 0.26707
 C445 C 0.73312 0.16306 0.31683
 C446 C 0.70227 0.18089 0.36898
 C447 C 0.65116 0.15120 0.34862
 C448 C 0.68153 0.13299 0.29691
 H449 H 0.58813 0.21737 0.32065
 H450 H 0.68191 0.27243 0.35769
 H451 H 0.64331 0.18411 0.22550
 H452 H 0.77483 0.14562 0.31720
 H453 H 0.71887 0.17959 0.41128
 H454 H 0.68104 0.09190 0.27964
 C455 C 0.63093 0.68104 -0.20247
 C456 C 0.66085 0.73206 -0.18245
 C457 C 0.71309 0.71399 -0.21316
 C458 C 0.68313 0.66313 -0.23320
 C459 C 0.73277 0.68387 -0.16146
 C460 C 0.68044 0.70172 -0.13072
 C461 C 0.65112 0.65131 -0.15134
 C462 C 0.70288 0.63302 -0.18158
 H463 H 0.58867 0.67981 -0.21918
 H464 H 0.64232 0.77255 -0.18198
 H465 H 0.68286 0.64569 -0.27490
 H466 H 0.77432 0.68406 -0.14321
 H467 H 0.67906 0.71741 -0.08822
 H468 H 0.72007 0.59190 -0.18105
 C469 C 0.79717 -0.13302 -0.18158
 C470 C 0.81692 -0.16313 -0.23320
 C471 C 0.78696 -0.21399 -0.21316
 C472 C 0.76728 -0.18387 -0.16146
 C473 C 0.83920 -0.23206 -0.18245
 C474 C 0.86912 -0.18104 -0.20247
 C475 C 0.84893 -0.15132 -0.15133
 C476 C 0.81961 -0.20173 -0.13072
 H477 H 0.77998 -0.09190 -0.18105
 H478 H 0.81720 -0.14569 -0.27490
 H479 H 0.72573 -0.18406 -0.14321
 H480 H 0.85773 -0.27255 -0.18198
 H481 H 0.91138 -0.17981 -0.21917
 H482 H 0.82099 -0.21741 -0.08822
 C483 C 0.81852 0.36701 0.29691
 C484 C 0.83856 0.31612 0.26707
 C485 C 0.78689 0.28604 0.28691
 C486 C 0.76693 0.33694 0.31683
 C487 C 0.81771 0.26803 0.33910
 C488 C 0.86942 0.29833 0.31935
 C489 C 0.84889 0.34880 0.34862
 C490 C 0.79778 0.31911 0.36898
 H491 H 0.81901 0.40810 0.27964
 H492 H 0.85674 0.31589 0.22549
 H493 H 0.72522 0.35438 0.31720
 H494 H 0.81815 0.22757 0.35769
 H495 H 0.91192 0.28263 0.32065
 H496 H 0.78118 0.32041 0.41128
 C497 C 0.31722 -0.13416 0.29596
 C498 C 0.33731 -0.18501 0.26599
 C499 C 0.28542 -0.21536 0.28549
 C500 C 0.26557 -0.16430 0.31570
 C501 C 0.31638 -0.23322 0.33792
 C502 C 0.36809 -0.20275 0.31836
 C503 C 0.34753 -0.15232 0.34770
 C504 C 0.29644 -0.18214 0.36786
 H505 H 0.31763 -0.09307 0.27869
 H506 H 0.35630 -0.18461 0.22480
 H507 H 0.22424 -0.14612 0.31675
 H508 H 0.31748 -0.27335 0.35716
 H509 H 0.41057 -0.21849 0.31965
 H510 H 0.27969 -0.18097 0.41010
 C511 C 0.31813 0.36709 -0.20262
 C512 C 0.33851 0.31630 -0.23246
 C513 C 0.28684 0.28603 -0.21299
 C514 C 0.26654 0.33681 -0.18306
 C515 C 0.31742 0.26803 -0.16064
 C516 C 0.36912 0.29855 -0.18001
 C517 C 0.34822 0.34889 -0.15072
 C518 C 0.29712 0.31898 -0.13076
 H519 H 0.31856 0.40821 -0.21979
 H520 H 0.35689 0.31607 -0.27396
 H521 H 0.22480 0.35417 -0.18290
 H522 H 0.31803 0.22753 -0.14216
 H523 H 0.41167 0.28299 -0.17847
 H524 H 0.28024 0.32013 -0.08856
 C525 C 1.13197 -0.20275 0.18163
 C526 C 1.18368 -0.23321 0.16207
 C527 C 1.21463 -0.21536 0.21450
 C528 C 1.16275 -0.18501 0.23400
 C529 C 1.23448 -0.16430 0.18429
 C530 C 1.20362 -0.18213 0.13214
 C531 C 1.15252 -0.15232 0.15229
 C532 C 1.18283 -0.13416 0.20403
 H533 H 1.08948 -0.21848 0.18035
 H534 H 1.18257 -0.27335 0.14283
 H535 H 1.14375 -0.18460 0.27520
 H536 H 1.27582 -0.14612 0.18324
 H537 H 1.22036 -0.18097 0.08989
 H538 H 1.18242 -0.09307 0.22130
 C539 C 1.13093 0.29855 0.68000
 C540 C 1.18264 0.26803 0.66063
 C541 C 1.21321 0.28603 0.71298
 C542 C 1.16154 0.31630 0.73245
 C543 C 1.23351 0.33682 0.68305
 C544 C 1.20293 0.31898 0.63075
 C545 C 1.15183 0.34889 0.65072
 C546 C 1.18192 0.36709 0.70261
 H547 H 1.08839 0.28299 0.67846
 H548 H 1.18202 0.22753 0.64214
 H549 H 1.14316 0.31606 0.77395
 H550 H 1.27525 0.35418 0.68290
 H551 H 1.21981 0.32014 0.58855
 H552 H 1.18149 0.40821 0.71979
 C553 C 0.63093 -0.18104 0.70246
 C554 C 0.66085 -0.23206 0.68244
 C555 C 0.71309 -0.21398 0.71315
 C556 C 0.68313 -0.16313 0.73319
 C557 C 0.73277 -0.18387 0.66145
 C558 C 0.68044 -0.20172 0.63071
 C559 C 0.65113 -0.15131 0.65132
 C560 C 0.70288 -0.13302 0.68157
 H561 H 0.58867 -0.17981 0.71917
 H562 H 0.64232 -0.27255 0.68197
 H563 H 0.68286 -0.14569 0.77489
 H564 H 0.77432 -0.18406 0.64320
 H565 H 0.67906 -0.21741 0.58821
 H566 H 0.72008 -0.09190 0.68104
 C567 C 0.70227 0.31911 0.13101
 C568 C 0.73312 0.33694 0.18315
 C569 C 0.71316 0.28604 0.21308
 C570 C 0.68234 0.26803 0.16089
 C571 C 0.66149 0.31611 0.23292
 C572 C 0.68153 0.36701 0.20308
 C573 C 0.65116 0.34880 0.15137
 C574 C 0.63063 0.29833 0.18064
 H575 H 0.71887 0.32041 0.08871
 H576 H 0.77482 0.35438 0.18279
 H577 H 0.68191 0.22757 0.14230
 H578 H 0.64331 0.31589 0.27449
 H579 H 0.68104 0.40810 0.22035
 H580 H 0.58813 0.28263 0.17934
 C581 C 0.81852 0.13299 0.20307
 C582 C 0.83856 0.18389 0.23291
 C583 C 0.78689 0.21396 0.21308
 C584 C 0.76693 0.16306 0.18315
 C585 C 0.81771 0.23197 0.16088
 C586 C 0.86942 0.20167 0.18064
 C587 C 0.84889 0.15120 0.15137
 C588 C 0.79778 0.18089 0.13100
 H589 H 0.81902 0.09190 0.22034
 H590 H 0.85674 0.18411 0.27449
 H591 H 0.72523 0.14562 0.18279
 H592 H 0.81814 0.27243 0.14230
 H593 H 0.91192 0.21737 0.17934
 H594 H 0.78118 0.17959 0.08871
 C595 C 0.79717 0.63302 0.68157
 C596 C 0.81692 0.66313 0.73319
 C597 C 0.78696 0.71399 0.71315
 C598 C 0.76728 0.68387 0.66145
 C599 C 0.83920 0.73206 0.68245
 C600 C 0.86912 0.68104 0.70247
 C601 C 0.84893 0.65131 0.65133
 C602 C 0.81961 0.70172 0.63071
 H603 H 0.77997 0.59190 0.68104
 H604 H 0.81719 0.64569 0.77489
 H605 H 0.72573 0.68407 0.64320
 H606 H 0.85773 0.77255 0.68197
 H607 H 0.91138 0.67981 0.71917
 H608 H 0.82099 0.71741 0.58821
 C609 C 0.31813 0.13292 0.70261
 C610 C 0.33851 0.18370 0.73245
 C611 C 0.28684 0.21397 0.71298
 C612 C 0.26654 0.16319 0.68305
 C613 C 0.31742 0.23197 0.66063
 C614 C 0.36912 0.20145 0.68000
 C615 C 0.34822 0.15111 0.65071
 C616 C 0.29712 0.18102 0.63074
 H617 H 0.31856 0.09179 0.71978
 H618 H 0.35689 0.18394 0.77395
 H619 H 0.22480 0.14583 0.68289
 H620 H 0.31804 0.27247 0.64214
 H621 H 0.41167 0.21701 0.67846
 H622 H 0.28025 0.17987 0.58855
 C623 C 0.31722 0.63416 0.20403
 C624 C 0.33731 0.68501 0.23400
 C625 C 0.28542 0.71536 0.21450
 C626 C 0.26557 0.66430 0.18429
 C627 C 0.31637 0.73322 0.16207
 C628 C 0.36808 0.70275 0.18163
 C629 C 0.34753 0.65232 0.15229
 C630 C 0.29643 0.68214 0.13213
 H631 H 0.31763 0.59307 0.22130
 H632 H 0.35630 0.68461 0.27519
 H633 H 0.22424 0.64612 0.18324
 H634 H 0.31748 0.77335 0.14283
 H635 H 0.41057 0.71849 0.18034
 H636 H 0.27969 0.68097 0.08989
   
