data_POSCAR
  _audit_creation_date              2014-09-24
  _audit_creation_method            'ToBaCCo'
  _symmetry_space_group_name_H-M    'P1'
  _symmetry_Int_Tables_number       1
  _symmetry_cell_setting            triclinic
  loop_
  _symmetry_equiv_pos_as_xyz
 x,y,z
_cell_length_a 41.1117
_cell_length_b 40.8015
_cell_length_c 42.0410
_cell_angle_alpha 90.260800
_cell_angle_beta 89.843400
_cell_angle_gamma 120.276500
loop_
  _atom_site_label
  _atom_site_type_symbol
  _atom_site_fract_x
  _atom_site_fract_y
  _atom_site_fract_z
C1 C -0.00100 0.49045 1.34074
 C2 C 0.03359 0.50885 1.32458
 C3 C 0.03309 0.51035 1.29112
 C4 C -0.00090 0.48977 1.27368
 C5 C -0.03480 0.46880 1.29113
 C6 C -0.03543 0.47141 1.32448
 C7 C -0.00123 0.49143 1.23770
 C8 C -0.03502 0.48063 1.22084
 C9 C -0.03530 0.48367 1.18765
 C10 C -0.00138 0.49955 1.17090
 C11 C 0.03253 0.51072 1.18668
 C12 C 0.03235 0.50527 1.21964
 H13 H -0.00121 0.49115 1.36650
 H14 H 0.05957 0.52651 1.27895
 H15 H -0.06127 0.45219 1.27904
 H16 H -0.06151 0.47076 1.23290
 H17 H -0.00140 0.50259 1.14529
 H18 H 0.05889 0.51282 1.23067
 C19 C 0.49564 0.49889 1.33593
 C20 C 0.48231 0.51991 1.32004
 C21 C 0.48798 0.52492 1.28702
 C22 C 0.50146 0.50462 1.26921
 C23 C 0.51313 0.48232 1.28615
 C24 C 0.51288 0.48158 1.31964
 C25 C 0.50211 0.50574 1.23326
 C26 C 0.52323 0.49336 1.21535
 C27 C 0.52023 0.49028 1.18210
 C28 C 0.49848 0.50244 1.16609
 C29 C 0.47915 0.51692 1.18288
 C30 C 0.48018 0.51763 1.21620
 H31 H 0.49292 0.49634 1.36157
 H32 H 0.47972 0.54303 1.27532
 H33 H 0.52400 0.46676 1.27370
 H34 H 0.54144 0.48504 1.22671
 H35 H 0.49699 0.50102 1.14033
 H36 H 0.46259 0.52643 1.22815
 C37 C 0.50378 0.99497 1.32917
 C38 C 0.48657 0.96176 1.31109
 C39 C 0.49123 0.96367 1.27813
 C40 C 0.51472 0.99862 1.26277
 C41 C 0.53420 1.03156 1.28205
 C42 C 0.52725 1.03045 1.31506
 C43 C 0.51601 1.00094 1.22692
 C44 C 0.52771 1.03571 1.21115
 C45 C 0.52470 1.03711 1.17805
 C46 C 0.50818 1.00352 1.16030
 C47 C 0.49712 0.96886 1.17512
 C48 C 0.50259 0.96789 1.20791
 H49 H 0.49995 0.99267 1.35475
 H50 H 0.47500 0.93761 1.26497
 H51 H 0.55298 1.05859 1.27133
 H52 H 0.53803 1.06202 1.22406
 H53 H 0.50466 1.00441 1.13482
 H54 H 0.49493 0.94076 1.21821
 C55 C 0.99576 0.48669 0.66180
 C56 C 0.96221 0.47087 0.67905
 C57 C 0.96323 0.47011 0.71224
 C58 C 0.99757 0.48346 0.72880
 C59 C 1.03085 0.49661 0.71045
 C60 C 1.03067 0.50047 0.67709
 C61 C 0.99892 0.48675 0.76469
 C62 C 1.03323 0.51008 0.78094
 C63 C 1.03398 0.51608 0.81384
 C64 C 1.00029 0.50040 0.83089
 C65 C 0.96608 0.47666 0.81573
 C66 C 0.96558 0.46869 0.78321
 H67 H 0.99422 0.48688 0.63608
 H68 H 0.93689 0.46039 0.72451
 H69 H 1.05747 0.50628 0.72201
 H70 H 1.05983 0.52488 0.76865
 H71 H 1.00076 0.50568 0.85624
 H72 H 0.93867 0.44899 0.77283
 C73 C 0.51482 0.51785 0.66469
 C74 C 0.52649 0.49528 0.68023
 C75 C 0.52363 0.49188 0.71348
 C76 C 0.51009 0.51174 0.73174
 C77 C 0.49952 0.53512 0.71534
 C78 C 0.50081 0.53731 0.68209
 C79 C 0.50523 0.50664 0.76727
 C80 C 0.48119 0.51612 0.78401
 C81 C 0.47591 0.51075 0.81691
 C82 C 0.49264 0.49337 0.83336
 C83 C 0.51669 0.48380 0.81750
 C84 C 0.52387 0.49156 0.78493
 H85 H 0.51583 0.51960 0.63895
 H86 H 0.53070 0.47240 0.72445
 H87 H 0.48999 0.55189 0.72785
 H88 H 0.46576 0.52735 0.77201
 H89 H 0.48822 0.48874 0.85877
 H90 H 0.54383 0.48529 0.77380
 C91 C 0.49794 0.00350 0.66941
 C92 C 0.51678 0.03727 0.68667
 C93 C 0.52327 0.03621 0.71917
 C94 C 0.51305 0.00160 0.73470
 C95 C 0.49731 -0.03182 0.71581
 C96 C 0.48790 -0.03152 0.68353
 C97 C 0.51607 0.00024 0.77052
 C98 C 0.49480 -0.03417 0.78757
 C99 C 0.49265 -0.03470 0.82111
 C100 C 0.51171 0.00004 0.83755
 C101 C 0.53366 0.03417 0.82150
 C102 C 0.53720 0.03398 0.78842
 H103 H 0.49344 0.00505 0.64420
 H104 H 0.53541 0.06283 0.73183
 H105 H 0.49035 -0.05860 0.72636
 H106 H 0.47726 -0.06047 0.77514
 H107 H 0.51087 0.00088 0.86328
 H108 H 0.55538 0.06085 0.77711
 O109 O 0.38235 0.65150 0.97002
 O110 O 0.38351 0.71562 0.96188
 C111 C 0.36787 0.73539 0.95853
 O112 O 0.33955 0.72996 0.97487
 O113 O 0.27549 0.66723 0.96441
 C114 C 0.25702 0.63207 0.95791
 O115 O 0.26167 0.60739 0.97237
 O116 O 0.32312 0.60520 0.96182
 C117 C 0.35797 0.62186 0.95549
 O118 O 0.38303 0.66106 1.03360
 O119 O 0.38721 0.72667 1.02552
 C120 C 0.36528 0.73378 1.04170
 O121 O 0.32995 0.71665 1.03738
 O122 O 0.26429 0.65578 1.02712
 C123 C 0.25694 0.62571 1.04185
 O124 O 0.27348 0.60732 1.03571
 O125 O 0.33390 0.60325 1.02446
 C126 C 0.36414 0.62570 1.03914
 Cr127 Cr 0.38189 0.68768 0.99781
 Cr128 Cr 0.30330 0.69119 1.00086
 Cr129 Cr 0.29915 0.60799 0.99863
 O130 O 0.32813 0.66223 0.99902
 O131 O 0.61558 0.33609 0.96188
 O132 O 0.61438 0.27270 0.97419
 C133 C 0.63784 0.26595 0.96022
 O134 O 0.67283 0.28435 0.96618
 O135 O 0.73576 0.34811 0.97500
 C136 C 0.74168 0.37684 0.95877
 O137 O 0.72419 0.39466 0.96340
 O138 O 0.66138 0.39549 0.97126
 C139 C 0.63239 0.37132 0.95603
 O140 O 0.61271 0.34842 1.02429
 O141 O 0.61409 0.28633 1.03654
 C142 C 0.63179 0.26938 1.04356
 O143 O 0.66191 0.27579 1.02964
 O144 O 0.72359 0.34074 1.03847
 C145 C 0.74113 0.37633 1.04292
 O146 O 0.73497 0.39869 1.02649
 O147 O 0.67051 0.39615 1.03484
 C148 C 0.63522 0.37831 1.03959
 Cr149 Cr 0.61638 0.31203 0.99925
 Cr150 Cr 0.69747 0.31334 1.00226
 Cr151 Cr 0.69668 0.39406 0.99905
 O152 O 0.67018 0.33977 1.00016
 O153 O 0.66292 0.38463 0.53590
 O154 O 0.72703 0.38725 0.52562
 C155 C 0.73304 0.36414 0.54093
 O156 O 0.71459 0.32869 0.53591
 O157 O 0.65179 0.26513 0.52596
 C158 C 0.62209 0.25955 0.54033
 O159 O 0.60468 0.27692 0.53342
 O160 O 0.60472 0.34028 0.52221
 C161 C 0.62748 0.36850 0.53916
 O162 O 0.65366 0.38783 0.47303
 O163 O 0.71620 0.38648 0.46313
 C164 C 0.73349 0.36858 0.45768
 O165 O 0.72684 0.33862 0.47241
 O166 O 0.66347 0.27594 0.46239
 C167 C 0.62848 0.25781 0.45668
 O168 O 0.60525 0.26449 0.47106
 O169 O 0.60892 0.32948 0.45934
 C170 C 0.62550 0.36521 0.45618
 Cr171 Cr 0.68885 0.38443 0.49935
 Cr172 Cr 0.68812 0.30310 0.49912
 Cr173 Cr 0.60800 0.30383 0.49655
 O174 O 0.66175 0.33037 0.49830
 O175 O 0.34702 0.61732 0.53320
 O176 O 0.28473 0.61790 0.54331
 C177 C 0.26429 0.63278 0.54558
 O178 O 0.26883 0.65988 0.52787
 O179 O 0.33231 0.72503 0.53491
 C180 C 0.36765 0.74350 0.53979
 O181 O 0.39119 0.73777 0.52450
 O182 O 0.39494 0.67693 0.53525
 C183 C 0.37830 0.64280 0.54450
 O184 O 0.33297 0.61050 0.47050
 O185 O 0.26898 0.60860 0.48042
 C186 C 0.26187 0.62949 0.46268
 O187 O 0.27948 0.66542 0.46479
 O188 O 0.33962 0.73246 0.47201
 C189 C 0.36800 0.73851 0.45568
 O190 O 0.38628 0.72188 0.46112
 O191 O 0.39066 0.66192 0.47246
 C192 C 0.36693 0.62955 0.46125
 Cr193 Cr 0.30946 0.61575 0.50664
 Cr194 Cr 0.30623 0.69468 0.50002
 Cr195 Cr 0.38862 0.69854 0.49848
 O196 O 0.33499 0.66965 0.50185
 C197 C 0.42729 0.56455 0.37491
 C198 C 0.45119 0.58645 0.35006
 C199 C 0.46818 0.57104 0.33072
 C200 C 0.46304 0.53477 0.33733
 C201 C 0.43849 0.51330 0.36232
 C202 C 0.42027 0.52777 0.38080
 C203 C 0.41002 0.58075 0.39576
 C204 C 0.38571 0.55849 0.42028
 C205 C 0.37019 0.57427 0.44059
 C206 C 0.38008 0.61245 0.43735
 C207 C 0.40440 0.63450 0.41265
 C208 C 0.41904 0.61852 0.39140
 C209 C 0.39555 0.50625 0.40536
 C210 C 0.37829 0.52125 0.42462
 C211 C 0.45849 0.62372 0.34574
 C212 C 0.44300 0.63962 0.36625
 H213 H 0.38972 0.47766 0.40991
 H214 H 0.35962 0.50384 0.44348
 H215 H 0.47696 0.64103 0.32675
 H216 H 0.45000 0.66871 0.36248
 H217 H 0.48730 0.58834 0.31206
 H218 H 0.43267 0.48472 0.36696
 H219 H 0.35185 0.55747 0.45988
 H220 H 0.41193 0.66394 0.41015
 C221 C 0.42734 0.85988 0.36479
 C222 C 0.41626 0.88725 0.36678
 C223 C 0.43464 0.91984 0.34795
 C224 C 0.46373 0.92500 0.32722
 C225 C 0.47346 0.89664 0.32442
 C226 C 0.45566 0.86414 0.34356
 C227 C 0.41021 0.82706 0.38641
 C228 C 0.42280 0.80082 0.38581
 C229 C 0.40815 0.77105 0.40791
 C230 C 0.38102 0.76748 0.43035
 C231 C 0.36783 0.79335 0.42980
 C232 C 0.38264 0.82343 0.40817
 C233 C 0.46662 0.83661 0.34287
 C234 C 0.45055 0.80555 0.36372
 C235 C 0.38797 0.88215 0.38836
 C236 C 0.37132 0.85066 0.40864
 H237 H 0.48839 0.83955 0.32658
 H238 H 0.46037 0.78541 0.36288
 H239 H 0.37909 0.90300 0.38997
 H240 H 0.35001 0.84808 0.42531
 H241 H 0.42718 0.94175 0.35001
 H242 H 0.49618 0.90089 0.30866
 H243 H 0.41834 0.75119 0.40804
 H244 H 0.34712 0.79104 0.44703
 C245 C 0.13342 0.55804 0.37959
 C246 C 0.13264 0.57622 0.35157
 C247 C 0.10004 0.55931 0.33253
 C248 C 0.06769 0.52518 0.34212
 C249 C 0.06966 0.50739 0.37030
 C250 C 0.10230 0.52343 0.38885
 C251 C 0.16721 0.57587 0.40000
 C252 C 0.16793 0.55729 0.42779
 C253 C 0.19968 0.57457 0.44746
 C254 C 0.23019 0.61069 0.44006
 C255 C 0.22915 0.62903 0.41207
 C256 C 0.19778 0.61147 0.39171
 C257 C 0.10419 0.50558 0.41671
 C258 C 0.13655 0.52214 0.43577
 C259 C 0.16417 0.61142 0.34364
 C260 C 0.19606 0.62885 0.36347
 H261 H 0.08035 0.47870 0.42396
 H262 H 0.13678 0.50757 0.45718
 H263 H 0.16400 0.62589 0.32215
 H264 H 0.21949 0.65624 0.35668
 H265 H 0.09928 0.57406 0.31145
 H266 H 0.04607 0.48029 0.37750
 H267 H 0.20006 0.56049 0.46916
 H268 H 0.25263 0.65682 0.40621
 C269 C 0.56361 0.43273 0.37451
 C270 C 0.56554 0.46646 0.38454
 C271 C 0.54877 0.48219 0.36606
 C272 C 0.53036 0.46506 0.33717
 C273 C 0.53008 0.43184 0.32679
 C274 C 0.54596 0.41513 0.34580
 C275 C 0.58010 0.41538 0.39472
 C276 C 0.57689 0.38069 0.38562
 C277 C 0.59166 0.36378 0.40567
 C278 C 0.61032 0.38213 0.43402
 C279 C 0.61375 0.41718 0.44230
 C280 C 0.59834 0.43366 0.42305
 C281 C 0.54393 0.38079 0.33710
 C282 C 0.55886 0.36374 0.35677
 C283 C 0.58409 0.48390 0.41301
 C284 C 0.60041 0.46787 0.43188
 H285 H 0.53028 0.36674 0.31509
 H286 H 0.55629 0.33708 0.34931
 H287 H 0.58589 0.51011 0.42084
 H288 H 0.61440 0.48214 0.45373
 H289 H 0.55127 0.50873 0.37386
 H290 H 0.51574 0.41773 0.30501
 H291 H 0.58900 0.33679 0.39918
 H292 H 0.62755 0.43119 0.46432
 C293 C 0.56988 0.12931 0.37221
 C294 C 0.53398 0.09827 0.37824
 C295 C 0.52037 0.06581 0.35925
 C296 C 0.54190 0.06397 0.33371
 C297 C 0.57761 0.09615 0.32743
 C298 C 0.59196 0.12856 0.34701
 C299 C 0.58474 0.16306 0.39296
 C300 C 0.62135 0.19362 0.38794
 C301 C 0.63580 0.22505 0.40863
 C302 C 0.61342 0.22612 0.43362
 C303 C 0.57649 0.19558 0.43771
 C304 C 0.56221 0.16381 0.41778
 C305 C 0.62821 0.16002 0.34229
 C306 C 0.64274 0.19187 0.36253
 C307 C 0.51223 0.10016 0.40323
 C308 C 0.52605 0.13248 0.42258
 H309 H 0.64566 0.15985 0.32301
 H310 H 0.67097 0.21528 0.35827
 H311 H 0.48434 0.07638 0.40796
 H312 H 0.50845 0.13277 0.44169
 H313 H 0.49216 0.04248 0.36379
 H314 H 0.59517 0.09544 0.30850
 H315 H 0.66424 0.24854 0.40533
 H316 H 0.55926 0.19597 0.45713
 C317 C 0.86353 0.42925 0.37714
 C318 C 0.89496 0.46424 0.38531
 C319 C 0.92825 0.47758 0.36789
 C320 C 0.93035 0.45696 0.34160
 C321 C 0.89782 0.42244 0.33298
 C322 C 0.86468 0.40801 0.35123
 C323 C 0.82900 0.41429 0.39650
 C324 C 0.79826 0.37811 0.38974
 C325 C 0.76634 0.36314 0.40951
 C326 C 0.76486 0.38486 0.43498
 C327 C 0.79526 0.42152 0.44070
 C328 C 0.82776 0.43610 0.42195
 C329 C 0.83292 0.37241 0.34459
 C330 C 0.80045 0.35754 0.36372
 C331 C 0.89261 0.48526 0.41087
 C332 C 0.85945 0.47157 0.42872
 H333 H 0.83340 0.35560 0.32477
 H334 H 0.77689 0.32969 0.35812
 H335 H 0.91667 0.51249 0.41721
 H336 H 0.85885 0.48856 0.44834
 H337 H 0.95216 0.50496 0.37419
 H338 H 0.89879 0.40569 0.31332
 H339 H 0.74285 0.33477 0.40530
 H340 H 0.79423 0.43785 0.46071
 C341 C 0.56973 0.43944 1.12561
 C342 C 0.59290 0.46951 1.14615
 C343 C 0.57660 0.48558 1.16555
 C344 C 0.53768 0.47213 1.16377
 C345 C 0.51492 0.44171 1.14334
 C346 C 0.53074 0.42518 1.12428
 C347 C 0.58666 0.42306 1.10456
 C348 C 0.56338 0.39320 1.08397
 C349 C 0.57954 0.37827 1.06348
 C350 C 0.61884 0.39326 1.06299
 C351 C 0.64185 0.42309 1.08402
 C352 C 0.62581 0.43802 1.10497
 C353 C 0.50836 0.39504 1.10358
 C354 C 0.52440 0.37923 1.08381
 C355 C 0.63189 0.48329 1.14634
 C356 C 0.64808 0.46790 1.12604
 H357 H 0.47822 0.38377 1.10246
 H358 H 0.50619 0.35617 1.06800
 H359 H 0.65011 0.50646 1.16205
 H360 H 0.67830 0.47965 1.12670
 H361 H 0.59415 0.50914 1.18120
 H362 H 0.48488 0.43113 1.14220
 H363 H 0.56147 0.35549 1.04737
 H364 H 0.67209 0.43479 1.08392
 C365 C 0.86455 0.44024 1.13172
 C366 C 0.86743 0.41685 1.15460
 C367 C 0.89953 0.43185 1.17405
 C368 C 0.92890 0.46959 1.17008
 C369 C 0.92524 0.49282 1.14744
 C370 C 0.89304 0.47833 1.12825
 C371 C 0.83173 0.42420 1.11022
 C372 C 0.82919 0.44749 1.08707
 C373 C 0.79869 0.43184 1.06594
 C374 C 0.77123 0.39297 1.06730
 C375 C 0.77397 0.37009 1.09096
 C376 C 0.80412 0.38564 1.11258
 C377 C 0.88919 0.50086 1.10511
 C378 C 0.85772 0.48574 1.08495
 C379 C 0.83874 0.37866 1.15684
 C380 C 0.80770 0.36329 1.13611
 H381 H 0.91090 0.53031 1.10229
 H382 H 0.85605 0.50398 1.06718
 H383 H 0.84061 0.36032 1.17439
 H384 H 0.78653 0.33355 1.13830
 H385 H 0.90250 0.41381 1.19124
 H386 H 0.94779 0.52193 1.14444
 H387 H 0.79708 0.44970 1.04772
 H388 H 0.75293 0.34020 1.09231
 C389 C 0.56917 0.14139 1.12735
 C390 C 0.59337 0.13418 1.14572
 C391 C 0.57824 0.10057 1.16336
 C392 C 0.53951 0.07389 1.16184
 C393 C 0.51555 0.08152 1.14353
 C394 C 0.53022 0.11551 1.12641
 C395 C 0.58509 0.17603 1.10783
 C396 C 0.56095 0.18309 1.08927
 C397 C 0.57639 0.21520 1.06968
 C398 C 0.61570 0.23927 1.06776
 C399 C 0.63949 0.23212 1.08687
 C400 C 0.62428 0.20067 1.10720
 C401 C 0.50693 0.12382 1.10787
 C402 C 0.52201 0.15717 1.08977
 C403 C 0.63228 0.16018 1.14533
 C404 C 0.64751 0.19274 1.12622
 H405 H 0.47683 0.10420 1.10710
 H406 H 0.50311 0.16229 1.07551
 H407 H 0.65121 0.15491 1.15940
 H408 H 0.67776 0.21164 1.12606
 H409 H 0.59666 0.09439 1.17729
 H410 H 0.48569 0.06088 1.14247
 H411 H 0.55803 0.22034 1.05466
 H412 H 0.66977 0.25066 1.08545
 C413 C 0.42399 0.56144 1.12673
 C414 C 0.45023 0.58464 1.14986
 C415 C 0.46683 0.56930 1.16941
 C416 C 0.45802 0.53144 1.16522
 C417 C 0.43127 0.50844 1.14228
 C418 C 0.41399 0.52324 1.12306
 C419 C 0.40755 0.57775 1.10527
 C420 C 0.38156 0.55456 1.08203
 C421 C 0.36675 0.57035 1.06114
 C422 C 0.37835 0.60924 1.06284
 C423 C 0.40434 0.63211 1.08642
 C424 C 0.41885 0.61639 1.10787
 C425 C 0.38759 0.50087 1.09973
 C426 C 0.37151 0.51623 1.07965
 C427 C 0.46015 0.62295 1.15228
 C428 C 0.44485 0.63859 1.13156
 H429 H 0.37956 0.47134 1.09675
 H430 H 0.35147 0.49809 1.06178
 H431 H 0.48037 0.64115 1.17001
 H432 H 0.45369 0.66839 1.13393
 H433 H 0.48777 0.58711 1.18686
 H434 H 0.42448 0.47927 1.13912
 H435 H 0.34704 0.55255 1.04292
 H436 H 0.41330 0.66202 1.08799
 C437 C 0.13265 0.56370 1.13005
 C438 C 0.12554 0.53255 1.14911
 C439 C 0.09334 0.51586 1.16863
 C440 C 0.06817 0.52975 1.16844
 C441 C 0.07608 0.56128 1.14953
 C442 C 0.10830 0.57844 1.13037
 C443 C 0.16568 0.58063 1.10873
 C444 C 0.17239 0.61147 1.08951
 C445 C 0.20303 0.62674 1.06856
 C446 C 0.22665 0.61104 1.06619
 C447 C 0.21980 0.58036 1.08599
 C448 C 0.18933 0.56510 1.10739
 C449 C 0.11625 0.60962 1.11109
 C450 C 0.14783 0.62594 1.09107
 C451 C 0.15032 0.51830 1.14763
 C452 C 0.18158 0.53420 1.12707
 H453 H 0.09770 0.62129 1.11125
 H454 H 0.15277 0.64975 1.07635
 H455 H 0.14522 0.49431 1.16218
 H456 H 0.19965 0.52199 1.12638
 H457 H 0.08716 0.49143 1.18306
 H458 H 0.05685 0.57217 1.14958
 H459 H 0.20778 0.65018 1.05342
 H460 H 0.23778 0.56808 1.08446
 C461 C 0.43870 0.86553 1.12208
 C462 C 0.47328 0.87525 1.13642
 C463 C 0.49232 0.90902 1.15413
 C464 C 0.47736 0.93324 1.15668
 C465 C 0.44285 0.92323 1.14204
 C466 C 0.42317 0.88917 1.12495
 C467 C 0.41864 0.83023 1.10328
 C468 C 0.38399 0.82048 1.08911
 C469 C 0.36558 0.78752 1.07045
 C470 C 0.38218 0.76508 1.06510
 C471 C 0.41672 0.77498 1.07979
 C472 C 0.43494 0.80742 1.09917
 C473 C 0.38836 0.87836 1.11058
 C474 C 0.36900 0.84448 1.09310
 C475 C 0.48823 0.85120 1.13243
 C476 C 0.46951 0.81799 1.11394
 H477 H 0.37604 0.89630 1.11277
 H478 H 0.34234 0.83730 1.08222
 H479 H 0.51487 0.85836 1.14334
 H480 H 0.48231 0.80056 1.11105
 H481 H 0.51895 0.91686 1.16545
 H482 H 0.43122 0.94180 1.14434
 H483 H 0.33929 0.78036 1.05882
 H484 H 0.42959 0.75777 1.07575
 C485 C 0.56765 0.43659 0.62355
 C486 C 0.58984 0.45990 0.64867
 C487 C 0.57577 0.47824 0.66785
 C488 C 0.54027 0.47402 0.66142
 C489 C 0.51834 0.45042 0.63628
 C490 C 0.53179 0.43142 0.61737
 C491 C 0.58254 0.41786 0.60290
 C492 C 0.56029 0.39459 0.57782
 C493 C 0.57482 0.37751 0.55782
 C494 C 0.61166 0.38424 0.56224
 C495 C 0.63358 0.40753 0.58763
 C496 C 0.61900 0.42421 0.60820
 C497 C 0.51029 0.40773 0.59217
 C498 C 0.52424 0.38949 0.57281
 C499 C 0.62588 0.46494 0.65367
 C500 C 0.64028 0.44755 0.63369
 H501 H 0.48254 0.40342 0.58725
 H502 H 0.50685 0.37162 0.55349
 H503 H 0.64329 0.48286 0.67295
 H504 H 0.66839 0.45258 0.63813
 H505 H 0.59275 0.49663 0.68711
 H506 H 0.49087 0.44696 0.63149
 H507 H 0.55787 0.36000 0.53815
 H508 H 0.66191 0.41278 0.59124
 C509 C 0.56095 0.13838 0.63143
 C510 C 0.58551 0.13150 0.64961
 C511 C 0.57053 0.09945 0.66926
 C512 C 0.53148 0.07384 0.66993
 C513 C 0.50716 0.08138 0.65198
 C514 C 0.52177 0.11385 0.63282
 C515 C 0.57665 0.17099 0.60953
 C516 C 0.55212 0.17763 0.59108
 C517 C 0.56722 0.20785 0.56944
 C518 C 0.60649 0.23043 0.56546
 C519 C 0.63068 0.22360 0.58433
 C520 C 0.61589 0.19409 0.60663
 C521 C 0.49812 0.12171 0.61432
 C522 C 0.51303 0.15321 0.59395
 C523 C 0.62458 0.15602 0.64685
 C524 C 0.63953 0.18666 0.62559
 H525 H 0.46785 0.10312 0.61529
 H526 H 0.49382 0.15801 0.57984
 H527 H 0.64381 0.15101 0.66074
 H528 H 0.66984 0.20442 0.62371
 H529 H 0.58925 0.09329 0.68275
 H530 H 0.47709 0.06152 0.65245
 H531 H 0.54849 0.21276 0.55472
 H532 H 0.66094 0.24107 0.58145
 C533 C 0.86042 0.42664 0.62547
 C534 C 0.86440 0.40309 0.64746
 C535 C 0.89721 0.41815 0.66604
 C536 C 0.92608 0.45608 0.66200
 C537 C 0.92141 0.47939 0.64018
 C538 C 0.88854 0.46487 0.62194
 C539 C 0.82668 0.41073 0.60507
 C540 C 0.82302 0.43430 0.58294
 C541 C 0.79159 0.41892 0.56293
 C542 C 0.76418 0.38003 0.56434
 C543 C 0.76807 0.35676 0.58689
 C544 C 0.79927 0.37209 0.60747
 C545 C 0.88360 0.48762 0.59977
 C546 C 0.85130 0.47262 0.58067
 C547 C 0.83597 0.36479 0.64976
 C548 C 0.80403 0.34952 0.63002
 H549 H 0.90505 0.51717 0.59694
 H550 H 0.84871 0.49103 0.56364
 H551 H 0.83869 0.34631 0.66662
 H552 H 0.78307 0.31972 0.63225
 H553 H 0.90101 0.40014 0.68270
 H554 H 0.94361 0.50865 0.63721
 H555 H 0.78916 0.43708 0.54550
 H556 H 0.74712 0.32685 0.58821
 C557 C 0.45031 0.58926 0.62942
 C558 C 0.48924 0.60350 0.62649
 C559 C 0.50603 0.58696 0.64430
 C560 C 0.48419 0.55702 0.66529
 C561 C 0.44550 0.54387 0.66871
 C562 C 0.42825 0.55950 0.65044
 C563 C 0.43207 0.60487 0.60929
 C564 C 0.39280 0.58898 0.61079
 C565 C 0.37530 0.60224 0.59009
 C566 C 0.39691 0.63161 0.56851
 C567 C 0.43638 0.64823 0.56818
 C568 C 0.45406 0.63447 0.58814
 C569 C 0.38923 0.54522 0.65203
 C570 C 0.37177 0.55954 0.63238
 C571 C 0.51036 0.63342 0.60531
 C572 C 0.49311 0.64882 0.58661
 H573 H 0.37194 0.52225 0.66815
 H574 H 0.34150 0.54720 0.63388
 H575 H 0.54042 0.64480 0.60294
 H576 H 0.51036 0.67163 0.57036
 H577 H 0.53584 0.59695 0.64169
 H578 H 0.42867 0.52047 0.68464
 H579 H 0.34491 0.58945 0.59044
 H580 H 0.45307 0.67053 0.55130
 C581 C 0.43233 0.86947 0.62664
 C582 C 0.45835 0.87224 0.64960
 C583 C 0.47568 0.90439 0.66947
 C584 C 0.46858 0.93464 0.66539
 C585 C 0.44208 0.93087 0.64213
 C586 C 0.42360 0.89831 0.62311
 C587 C 0.41443 0.83609 0.60540
 C588 C 0.38785 0.83308 0.58288
 C589 C 0.37139 0.80166 0.56237
 C590 C 0.38251 0.77429 0.56346
 C591 C 0.40926 0.77765 0.58604
 C592 C 0.42489 0.80829 0.60750
 C593 C 0.39678 0.89424 0.60040
 C594 C 0.37896 0.86202 0.58080
 C595 C 0.46725 0.84326 0.65161
 C596 C 0.45109 0.81202 0.63072
 H597 H 0.38962 0.91625 0.59765
 H598 H 0.35857 0.86006 0.56349
 H599 H 0.48739 0.84505 0.66912
 H600 H 0.45925 0.79066 0.63272
 H601 H 0.49642 0.90676 0.68658
 H602 H 0.43484 0.95284 0.63935
 H603 H 0.35112 0.79924 0.54469
 H604 H 0.41771 0.75642 0.58687
 C605 C 0.13178 0.55919 0.62400
 C606 C 0.10015 0.56150 0.61515
 C607 C 0.06680 0.54147 0.63257
 C608 C 0.06465 0.51957 0.65936
 C609 C 0.09723 0.51829 0.66818
 C610 C 0.13060 0.53755 0.65027
 C611 C 0.16668 0.57959 0.60513
 C612 C 0.19797 0.57608 0.61301
 C613 C 0.23055 0.59426 0.59401
 C614 C 0.23196 0.61635 0.56777
 C615 C 0.20063 0.62036 0.56092
 C616 C 0.16781 0.60165 0.57918
 C617 C 0.16272 0.53529 0.65784
 C618 C 0.19572 0.55399 0.63941
 C619 C 0.10244 0.58398 0.58909
 C620 C 0.13577 0.60388 0.57149
 H621 H 0.16224 0.51860 0.67800
 H622 H 0.21964 0.55109 0.64585
 H623 H 0.07822 0.58615 0.58217
 H624 H 0.13632 0.62077 0.55146
 H625 H 0.04306 0.54460 0.62593
 H626 H 0.09637 0.50102 0.68801
 H627 H 0.25452 0.59099 0.59939
 H628 H 0.20117 0.63679 0.54052
 C629 C 0.41981 0.55688 0.87052
 C630 C 0.45110 0.58089 0.85170
 C631 C 0.46836 0.56518 0.83331
 C632 C 0.45523 0.52601 0.83444
 C633 C 0.42385 0.50223 0.85336
 C634 C 0.40571 0.51753 0.87124
 C635 C 0.40220 0.57342 0.89059
 C636 C 0.37094 0.54946 0.90947
 C637 C 0.35514 0.56548 0.92937
 C638 C 0.37132 0.60515 0.93126
 C639 C 0.40240 0.62874 0.91195
 C640 C 0.41773 0.61298 0.89129
 C641 C 0.37418 0.49446 0.89023
 C642 C 0.35694 0.51012 0.90886
 C643 C 0.46509 0.62020 0.85226
 C644 C 0.44885 0.63601 0.87190
 H645 H 0.36291 0.46407 0.89089
 H646 H 0.33288 0.49136 0.92337
 H647 H 0.48924 0.63899 0.83784
 H648 H 0.46095 0.66654 0.87211
 H649 H 0.49282 0.58349 0.81897
 H650 H 0.41379 0.47205 0.85417
 H651 H 0.33154 0.54728 0.94458
 H652 H 0.41486 0.65930 0.91336
 C653 C 0.13481 0.57218 0.86870
 C654 C 0.12735 0.54040 0.85017
 C655 C 0.09520 0.52344 0.83087
 C656 C 0.07010 0.53734 0.83090
 C657 C 0.07808 0.56942 0.84928
 C658 C 0.11068 0.58722 0.86807
 C659 C 0.16769 0.58912 0.89009
 C660 C 0.17501 0.62072 0.90882
 C661 C 0.20554 0.63586 0.92997
 C662 C 0.22771 0.61873 0.93319
 C663 C 0.22022 0.58731 0.91405
 C664 C 0.19042 0.57259 0.89221
 C665 C 0.11917 0.61912 0.88686
 C666 C 0.15095 0.63575 0.90674
 C667 C 0.15148 0.52546 0.85214
 C668 C 0.18237 0.54114 0.87297
 H669 H 0.10089 0.63109 0.88646
 H670 H 0.15628 0.66009 0.92108
 H671 H 0.14600 0.50095 0.83797
 H672 H 0.19984 0.52829 0.87426
 H673 H 0.08868 0.49841 0.81697
 H674 H 0.05860 0.57999 0.84926
 H675 H 0.21101 0.65982 0.94494
 H676 H 0.23740 0.57421 0.91640
 C677 C 0.43420 0.86501 0.87562
 C678 C 0.43398 0.89786 0.88520
 C679 C 0.45266 0.93062 0.86665
 C680 C 0.47127 0.93099 0.83818
 C681 C 0.46941 0.89690 0.82812
 C682 C 0.45172 0.86416 0.84718
 C683 C 0.41635 0.83112 0.89614
 C684 C 0.41817 0.79875 0.88756
 C685 C 0.40240 0.76714 0.90797
 C686 C 0.38410 0.76768 0.93620
 C687 C 0.38192 0.80013 0.94394
 C688 C 0.39841 0.83206 0.92430
 C689 C 0.45216 0.83092 0.83894
 C690 C 0.43594 0.79891 0.85889
 C691 C 0.41554 0.89757 0.91346
 C692 C 0.39785 0.86513 0.93259
 H693 H 0.46569 0.82983 0.81713
 H694 H 0.43742 0.77412 0.85183
 H695 H 0.41500 0.92273 0.92098
 H696 H 0.38409 0.86614 0.95429
 H697 H 0.45188 0.95564 0.87421
 H698 H 0.48385 0.89643 0.80668
 H699 H 0.40403 0.74217 0.90185
 H700 H 0.36831 0.80094 0.96583
 C701 C 0.56714 0.43241 0.87119
 C702 C 0.59034 0.46749 0.85637
 C703 C 0.57376 0.48381 0.83798
 C704 C 0.53434 0.46569 0.83521
 C705 C 0.51150 0.43056 0.85013
 C706 C 0.52778 0.41358 0.86795
 C707 C 0.58429 0.41552 0.89116
 C708 C 0.56105 0.38051 0.90603
 C709 C 0.57733 0.36521 0.92590
 C710 C 0.61640 0.38524 0.93173
 C711 C 0.63937 0.42009 0.91630
 C712 C 0.62346 0.43524 0.89578
 C713 C 0.50551 0.37844 0.88293
 C714 C 0.52188 0.36208 0.90152
 C715 C 0.62952 0.48585 0.86083
 C716 C 0.64578 0.47011 0.88035
 H717 H 0.47514 0.36358 0.88047
 H718 H 0.50366 0.33508 0.91290
 H719 H 0.64772 0.51292 0.84955
 H720 H 0.67605 0.48553 0.88360
 H721 H 0.59126 0.51100 0.82660
 H722 H 0.48113 0.41661 0.84781
 H723 H 0.55941 0.33862 0.93800
 H724 H 0.66947 0.43560 0.92065
 C725 C 0.86588 0.43304 0.87145
 C726 C 0.88837 0.47237 0.86687
 C727 C 0.92098 0.48634 0.84827
 C728 C 0.93073 0.46125 0.83396
 C729 C 0.90747 0.42188 0.83800
 C730 C 0.87516 0.40760 0.85716
 C731 C 0.83256 0.41833 0.89228
 C732 C 0.81114 0.37919 0.89816
 C733 C 0.78073 0.36559 0.91938
 C734 C 0.77145 0.39081 0.93429
 C735 C 0.79243 0.42980 0.92728
 C736 C 0.82340 0.44380 0.90664
 C737 C 0.85241 0.36852 0.86291
 C738 C 0.82105 0.35457 0.88321
 C739 C 0.87811 0.49693 0.88137
 C740 C 0.84605 0.48286 0.90080
 H741 H 0.85925 0.34861 0.85205
 H742 H 0.80462 0.32430 0.88745
 H743 H 0.89517 0.52730 0.87787
 H744 H 0.83929 0.50279 0.91176
 H745 H 0.93893 0.51667 0.84495
 H746 H 0.91522 0.40267 0.82706
 H747 H 0.76452 0.33550 0.92458
 H748 H 0.78565 0.44937 0.93893
 C749 C 0.57872 0.13645 0.87634
 C750 C 0.60324 0.13032 0.85719
 C751 C 0.58849 0.09721 0.83843
 C752 C 0.54974 0.07026 0.83950
 C753 C 0.52564 0.07715 0.85858
 C754 C 0.53990 0.11020 0.87695
 C755 C 0.59399 0.17063 0.89664
 C756 C 0.56935 0.17646 0.91582
 C757 C 0.58395 0.20834 0.93570
 C758 C 0.62303 0.23414 0.93704
 C759 C 0.64741 0.22810 0.91736
 C760 C 0.63295 0.19637 0.89699
 C761 C 0.51613 0.11723 0.89623
 C762 C 0.53060 0.14988 0.91528
 C763 C 0.64200 0.15709 0.85769
 C764 C 0.65660 0.18947 0.87733
 H765 H 0.48612 0.09719 0.89678
 H766 H 0.51134 0.15412 0.93000
 H767 H 0.66126 0.15277 0.84307
 H768 H 0.68670 0.20913 0.87726
 H769 H 0.60707 0.09186 0.82378
 H770 H 0.49573 0.05658 0.85914
 H771 H 0.56485 0.21242 0.95080
 H772 H 0.67750 0.24778 0.91811
   
