data_POSCAR
  _audit_creation_date              2014-09-24
  _audit_creation_method            'ToBaCCo'
  _symmetry_space_group_name_H-M    'P1'
  _symmetry_Int_Tables_number       1
  _symmetry_cell_setting            triclinic
  loop_
  _symmetry_equiv_pos_as_xyz
 x,y,z
_cell_length_a 26.5876
_cell_length_b 26.5876
_cell_length_c 26.5876
_cell_angle_alpha 90.000500
_cell_angle_beta 89.999700
_cell_angle_gamma 89.999500
loop_
  _atom_site_label
  _atom_site_type_symbol
  _atom_site_fract_x
  _atom_site_fract_y
  _atom_site_fract_z
O1 O 0.56854 0.50001 0.04124
 O2 O 0.42991 0.50001 0.04120
 O3 O 0.49923 0.43083 0.04118
 O4 O 0.49923 0.56917 0.04119
 O5 O 0.49923 0.56916 -0.04177
 O6 O 0.49923 0.43084 -0.04177
 O7 O 0.42990 0.50001 -0.04167
 O8 O 0.56856 0.50001 -0.04171
 Cu9 Cu 0.49923 0.50000 0.04951
 Cu10 Cu 0.49923 0.50000 -0.05003
 C11 C 0.59232 0.50002 -0.00023
 C12 C 0.40600 0.50002 -0.00023
 C13 C 0.49925 0.40713 -0.00030
 C14 C 0.49924 0.59287 -0.00030
 O15 O -0.04122 0.57009 0.50001
 O16 O -0.04126 0.43146 0.50000
 O17 O -0.04120 0.50077 0.56916
 O18 O -0.04120 0.50077 0.43082
 O19 O 0.04175 0.50077 0.43084
 O20 O 0.04175 0.50077 0.56915
 O21 O 0.04169 0.43145 0.50000
 O22 O 0.04165 0.57011 0.50001
 Cu23 Cu -0.04952 0.50078 0.49999
 Cu24 Cu 0.05001 0.50078 0.49999
 C25 C 0.00021 0.59401 0.50002
 C26 C 0.00021 0.40769 0.50002
 C27 C 0.00028 0.50076 0.59287
 C28 C 0.00028 0.50076 0.40712
 O29 O 0.50002 0.04122 0.57009
 O30 O 0.50002 0.04125 0.43146
 O31 O 0.43086 0.04120 0.50077
 O32 O 0.56920 0.04120 0.50076
 O33 O 0.56919 -0.04175 0.50077
 O34 O 0.43087 -0.04175 0.50077
 O35 O 0.50002 -0.04169 0.43145
 O36 O 0.50002 -0.04165 0.57010
 Cu37 Cu 0.50003 0.04952 0.50077
 Cu38 Cu 0.50003 -0.05002 0.50078
 C39 C 0.50000 -0.00021 0.59400
 C40 C 0.50001 -0.00022 0.40768
 C41 C 0.40716 -0.00028 0.50075
 C42 C 0.59291 -0.00028 0.50075
 O43 O 0.45810 -0.00002 -0.06981
 O44 O 0.45809 -0.00002 0.06889
 O45 O 0.45803 0.06917 -0.00045
 O46 O 0.45803 -0.06919 -0.00046
 O47 O 0.54122 -0.06920 -0.00046
 O48 O 0.54122 0.06918 -0.00045
 O49 O 0.54127 -0.00002 0.06888
 O50 O 0.54127 -0.00002 -0.06980
 Cu51 Cu 0.44967 -0.00001 -0.00046
 Cu52 Cu 0.54964 -0.00001 -0.00046
 C53 C 0.49969 -0.00003 -0.09323
 C54 C 0.49969 -0.00003 0.09230
 C55 C 0.49962 0.09252 -0.00044
 C56 C 0.49962 -0.09254 -0.00045
 O57 O -0.06889 0.54188 0.99998
 O58 O 0.06982 0.54188 0.99998
 O59 O 0.00045 0.54195 0.93081
 O60 O 0.00046 0.54195 1.06917
 O61 O 0.00046 0.45876 1.06918
 O62 O 0.00045 0.45876 0.93080
 O63 O 0.06981 0.45871 0.99998
 O64 O -0.06888 0.45871 0.99998
 Cu65 Cu 0.00046 0.55031 0.99999
 Cu66 Cu 0.00046 0.45034 0.99999
 C67 C -0.09230 0.50029 0.99997
 C68 C 0.09323 0.50029 0.99997
 C69 C 0.00044 0.50036 0.90746
 C70 C 0.00045 0.50036 1.09252
 O71 O 0.00005 -0.06980 0.45871
 O72 O 0.00004 0.06889 0.45871
 O73 O 0.06923 -0.00045 0.45876
 O74 O -0.06915 -0.00045 0.45876
 O75 O -0.06914 -0.00045 0.54195
 O76 O 0.06922 -0.00045 0.54195
 O77 O 0.00004 0.06889 0.54188
 O78 O 0.00005 -0.06981 0.54188
 Cu79 Cu 0.00004 -0.00046 0.45034
 Cu80 Cu 0.00004 -0.00046 0.55031
 C81 C 0.00006 -0.09322 0.50029
 C82 C 0.00005 0.09231 0.50029
 C83 C 0.09257 -0.00044 0.50036
 C84 C -0.09249 -0.00044 0.50036
 C85 C -0.24591 0.50020 0.99985
 C86 C -0.27232 0.50017 0.95431
 C87 C -0.32494 0.50010 0.95423
 C88 C -0.35191 0.50007 0.99979
 C89 C -0.32499 0.50010 1.04539
 C90 C -0.27237 0.50017 1.04536
 C91 C -0.19170 0.50025 0.99989
 C92 C -0.14632 0.50027 0.99994
 H93 H -0.25224 0.50019 0.91885
 H94 H -0.34447 0.50008 0.91849
 H95 H -0.34455 0.50008 1.08111
 H96 H -0.25234 0.50019 1.08085
 C97 C 0.24684 0.50020 0.99985
 C98 C 0.27329 0.50016 1.04533
 C99 C 0.32590 0.50010 1.04540
 C100 C 0.35305 0.50007 0.99979
 C101 C 0.32586 0.50010 0.95421
 C102 C 0.27324 0.50016 0.95434
 C103 C 0.19264 0.50025 0.99989
 C104 C 0.14725 0.50027 0.99994
 H105 H 0.25324 0.50018 1.08081
 H106 H 0.34518 0.50008 1.08130
 H107 H 0.34510 0.50008 0.91830
 H108 H 0.25315 0.50019 0.91888
 C109 C 0.00013 -0.24684 0.50019
 C110 C -0.04535 -0.27328 0.50015
 C111 C -0.04542 -0.32590 0.50009
 C112 C 0.00019 -0.35304 0.50006
 C113 C 0.04577 -0.32585 0.50009
 C114 C 0.04564 -0.27324 0.50015
 C115 C 0.00010 -0.19263 0.50025
 C116 C 0.00008 -0.14724 0.50028
 H117 H -0.08083 -0.25323 0.50018
 H118 H -0.08131 -0.34517 0.50007
 H119 H 0.08168 -0.34510 0.50007
 H120 H 0.08110 -0.25314 0.50018
 C121 C 0.00013 0.24592 0.50019
 C122 C -0.04538 0.27238 0.50015
 C123 C -0.04541 0.32500 0.50009
 C124 C 0.00019 0.35192 0.50006
 C125 C 0.04575 0.32495 0.50009
 C126 C 0.04567 0.27233 0.50015
 C127 C 0.00009 0.19171 0.50025
 C128 C 0.00007 0.14633 0.50028
 H129 H -0.08087 0.25234 0.50018
 H130 H -0.08113 0.34456 0.50007
 H131 H 0.08149 0.34448 0.50007
 H132 H 0.08113 0.25225 0.50018
 C133 C 0.49981 -0.00014 -0.24684
 C134 C 0.49985 0.04534 -0.27329
 C135 C 0.49992 0.04542 -0.32590
 C136 C 0.49996 -0.00019 -0.35305
 C137 C 0.49992 -0.04578 -0.32586
 C138 C 0.49985 -0.04565 -0.27324
 C139 C 0.49974 -0.00011 -0.19263
 C140 C 0.49970 -0.00007 -0.14725
 H141 H 0.49983 0.08082 -0.25323
 H142 H 0.49995 0.08131 -0.34518
 H143 H 0.49995 -0.08169 -0.34511
 H144 H 0.49983 -0.08111 -0.25315
 C145 C 0.49981 -0.00015 0.24591
 C146 C 0.49985 -0.04569 0.27233
 C147 C 0.49992 -0.04577 0.32495
 C148 C 0.49996 -0.00020 0.35191
 C149 C 0.49992 0.04539 0.32499
 C150 C 0.49985 0.04536 0.27237
 C151 C 0.49974 -0.00012 0.19171
 C152 C 0.49970 -0.00008 0.14632
 H153 H 0.49982 -0.08115 0.25225
 H154 H 0.49995 -0.08151 0.34448
 H155 H 0.49995 0.08112 0.34455
 H156 H 0.49982 0.08085 0.25233
 C157 C 0.49947 -0.24573 -0.00037
 C158 C 0.49942 -0.27210 -0.04590
 C159 C 0.49933 -0.32465 -0.04593
 C160 C 0.49929 -0.35150 -0.00031
 C161 C 0.49933 -0.32461 0.04528
 C162 C 0.49942 -0.27205 0.04519
 C163 C 0.49955 -0.19169 -0.00040
 C164 C 0.49960 -0.14639 -0.00042
 H165 H 0.49945 -0.25203 -0.08137
 H166 H 0.49930 -0.34422 -0.08165
 H167 H 0.49930 -0.34414 0.08102
 H168 H 0.49945 -0.25195 0.08065
 C169 C 0.49947 0.24572 -0.00036
 C170 C 0.49942 0.27204 0.04519
 C171 C 0.49933 0.32460 0.04528
 C172 C 0.49929 0.35149 -0.00031
 C173 C 0.49933 0.32464 -0.04593
 C174 C 0.49942 0.27209 -0.04590
 C175 C 0.49955 0.19167 -0.00040
 C176 C 0.49960 0.14638 -0.00042
 H177 H 0.49945 0.25195 0.08065
 H178 H 0.49930 0.34414 0.08102
 H179 H 0.49930 0.34421 -0.08165
 H180 H 0.49945 0.25202 -0.08137
 C181 C -0.24569 -0.00035 0.50051
 C182 C -0.27201 0.04520 0.50056
 C183 C -0.32457 0.04529 0.50066
 C184 C -0.35146 -0.00030 0.50070
 C185 C -0.32461 -0.04592 0.50066
 C186 C -0.27206 -0.04589 0.50056
 C187 C -0.19164 -0.00039 0.50042
 C188 C -0.14635 -0.00041 0.50038
 H189 H -0.25192 0.08066 0.50053
 H190 H -0.34411 0.08103 0.50069
 H191 H -0.34418 -0.08164 0.50069
 H192 H -0.25199 -0.08136 0.50053
 C193 C 0.24576 -0.00035 0.50051
 C194 C 0.27208 0.04521 0.50056
 C195 C 0.32464 0.04529 0.50066
 C196 C 0.35153 -0.00030 0.50070
 C197 C 0.32468 -0.04592 0.50066
 C198 C 0.27213 -0.04588 0.50057
 C199 C 0.19172 -0.00038 0.50043
 C200 C 0.14642 -0.00041 0.50038
 H201 H 0.25198 0.08066 0.50053
 H202 H 0.34417 0.08103 0.50069
 H203 H 0.34425 -0.08164 0.50069
 H204 H 0.25206 -0.08136 0.50053
 C205 C 0.00035 0.50052 1.24572
 C206 C 0.04588 0.50057 1.27208
 C207 C 0.04592 0.50067 1.32464
 C208 C 0.00030 0.50071 1.35149
 C209 C -0.04529 0.50066 1.32460
 C210 C -0.04521 0.50057 1.27204
 C211 C 0.00038 0.50043 1.19167
 C212 C 0.00041 0.50038 1.14638
 H213 H 0.08136 0.50054 1.25202
 H214 H 0.08164 0.50070 1.34420
 H215 H -0.08103 0.50069 1.34413
 H216 H -0.08066 0.50054 1.25195
 C217 C 0.00035 0.50052 0.75426
 C218 C -0.04521 0.50057 0.72794
 C219 C -0.04529 0.50066 0.67538
 C220 C 0.00030 0.50071 0.64850
 C221 C 0.04592 0.50067 0.67535
 C222 C 0.04588 0.50058 0.72790
 C223 C 0.00038 0.50043 0.80831
 C224 C 0.00041 0.50038 0.85360
 H225 H -0.08067 0.50054 0.74804
 H226 H -0.08103 0.50069 0.65585
 H227 H 0.08164 0.50070 0.65578
 H228 H 0.08135 0.50054 0.74797
   
