data_POSCAR
  _audit_creation_date              2014-09-24
  _audit_creation_method            'ToBaCCo'
  _symmetry_space_group_name_H-M    'P1'
  _symmetry_Int_Tables_number       1
  _symmetry_cell_setting            triclinic
  loop_
  _symmetry_equiv_pos_as_xyz
 x,y,z
_cell_length_a 42.1545
_cell_length_b 39.9752
_cell_length_c 21.8525
_cell_angle_alpha 91.024200
_cell_angle_beta 90.419800
_cell_angle_gamma 90.520600
loop_
  _atom_site_label
  _atom_site_type_symbol
  _atom_site_fract_x
  _atom_site_fract_y
  _atom_site_fract_z
O1 O 0.22760 0.27813 0.17313
 O2 O 0.28659 0.21114 0.18705
 O3 O 0.22505 0.21333 0.16859
 O4 O 0.28869 0.27603 0.19269
 O5 O 0.28077 0.27469 0.29242
 O6 O 0.21673 0.21250 0.26819
 O7 O 0.27801 0.20962 0.28654
 O8 O 0.21975 0.27710 0.27293
 Cu9 Cu 0.25783 0.24469 0.17035
 Cu10 Cu 0.24809 0.24330 0.29004
 C11 C 0.21344 0.28879 0.22066
 C12 C 0.29253 0.19918 0.23927
 C13 C 0.20959 0.20274 0.21420
 C14 C 0.29566 0.28591 0.24669
 O15 O 0.70783 0.27860 0.17062
 O16 O 0.76810 0.21224 0.16600
 O17 O 0.70785 0.21487 0.19101
 O18 O 0.76807 0.27557 0.14333
 O19 O 0.77984 0.28742 0.23999
 O20 O 0.71995 0.22512 0.28811
 O21 O 0.78068 0.22369 0.26245
 O22 O 0.72000 0.28920 0.26754
 Cu23 Cu 0.73672 0.24425 0.15807
 Cu24 Cu 0.75131 0.25737 0.27432
 C25 C 0.70358 0.29508 0.22008
 C26 C 0.78494 0.20701 0.21330
 C27 C 0.70349 0.20968 0.24739
 C28 C 0.78434 0.29174 0.18316
 O29 O 0.72248 0.78166 0.70248
 O30 O 0.78797 0.72266 0.72379
 O31 O 0.72854 0.71709 0.68950
 O32 O 0.78124 0.78679 0.73965
 O33 O 0.76615 0.77959 0.83509
 O34 O 0.71402 0.71003 0.78533
 O35 O 0.77333 0.71524 0.81947
 O36 O 0.70761 0.77424 0.79803
 Cu37 Cu 0.75653 0.75273 0.70423
 Cu38 Cu 0.73886 0.74398 0.81908
 C39 C 0.70387 0.78797 0.74656
 C40 C 0.79193 0.70906 0.77524
 C41 C 0.71209 0.70191 0.72900
 C42 C 0.78261 0.79507 0.79610
 O43 O 0.29235 0.78007 0.81519
 O44 O 0.23061 0.71564 0.83308
 O45 O 0.29160 0.71505 0.81134
 O46 O 0.23098 0.78045 0.83184
 O47 O 0.22262 0.77995 0.73193
 O48 O 0.28236 0.71467 0.71175
 O49 O 0.22132 0.71537 0.73348
 O50 O 0.28353 0.77994 0.71542
 Cu51 Cu 0.26233 0.74779 0.83286
 Cu52 Cu 0.25170 0.74733 0.71311
 C53 C 0.29848 0.79099 0.76243
 C54 C 0.21503 0.70498 0.78668
 C55 C 0.29740 0.70392 0.75779
 C56 C 0.21624 0.79105 0.78510
 C57 C 0.99255 0.07314 0.06954
 C58 C 1.02157 0.06270 0.04499
 C59 C 1.02246 0.03377 0.00807
 C60 C 0.99512 0.01392 -0.00218
 C61 C 0.96625 0.02465 0.02326
 C62 C 0.96464 0.05440 0.05821
 C63 C 0.99691 -0.01745 -0.04026
 C64 C 0.97090 -0.02864 -0.07632
 C65 C 0.97319 -0.05756 -0.11346
 C66 C 1.00204 -0.07449 -0.11685
 C67 C 1.02819 -0.06388 -0.08126
 C68 C 1.02512 -0.03614 -0.04178
 H69 H 0.99153 0.09668 0.09454
 H70 H 1.04472 0.02695 -0.01293
 H71 H 0.94481 0.00992 0.01620
 H72 H 0.94909 -0.01460 -0.07692
 H73 H 1.00361 -0.09681 -0.14546
 H74 H 1.04509 -0.02900 -0.01282
 C75 C 0.50387 0.56745 0.60206
 C76 C 0.53247 0.55138 0.58836
 C77 C 0.53242 0.52467 0.54591
 C78 C 0.50428 0.51440 0.51530
 C79 C 0.47603 0.53166 0.52866
 C80 C 0.47547 0.55738 0.57312
 C81 C 0.50432 0.48581 0.46991
 C82 C 0.47682 0.46605 0.45981
 C83 C 0.47650 0.43953 0.41698
 C84 C 0.50458 0.43119 0.38643
 C85 C 0.53252 0.44990 0.39664
 C86 C 0.53197 0.47751 0.43718
 H87 H 0.50399 0.58891 0.63293
 H88 H 0.55450 0.51184 0.53767
 H89 H 0.45423 0.52536 0.50451
 H90 H 0.45547 0.47088 0.48556
 H91 H 0.50498 0.40904 0.35736
 H92 H 0.55342 0.49231 0.44303
 C93 C 0.00224 0.42862 0.10848
 C94 C -0.02587 0.44696 0.10602
 C95 C -0.02600 0.47807 0.07746
 C96 C 0.00105 0.48971 0.04620
 C97 C 0.02876 0.47012 0.04751
 C98 C 0.02989 0.44048 0.08066
 C99 C 0.00025 0.52154 0.01097
 C100 C 0.02827 0.54016 0.00125
 C101 C 0.02820 0.56854 -0.03544
 C102 C -0.00061 0.58003 -0.05933
 C103 C -0.02908 0.56267 -0.04846
 C104 C -0.02835 0.53326 -0.01440
 H105 H 0.00237 0.40483 0.13143
 H106 H -0.04757 0.49250 0.07842
 H107 H 0.04973 0.47767 0.02290
 H108 H 0.05047 0.53267 0.02177
 H109 H -0.00092 0.60324 -0.08397
 H110 H -0.05027 0.51945 -0.00868
 C111 C 0.49992 0.93229 0.60724
 C112 C 0.47147 0.94921 0.59671
 C113 C 0.47185 0.97807 0.56132
 C114 C 0.49995 0.98940 0.53335
 C115 C 0.52815 0.97154 0.54381
 C116 C 0.52849 0.94373 0.58212
 C117 C 0.49952 1.01917 0.49242
 C118 C 0.52703 1.03887 0.48366
 C119 C 0.52677 1.06599 0.44378
 C120 C 0.49817 1.07507 0.41550
 C121 C 0.47033 1.05641 0.42462
 C122 C 0.47141 1.02820 0.46162
 H123 H 0.49960 0.90920 0.63227
 H124 H 0.44986 0.99144 0.55582
 H125 H 0.55001 0.97879 0.52184
 H126 H 0.54886 1.03334 0.50758
 H127 H 0.49739 1.09751 0.38864
 H128 H 0.45000 1.01334 0.46575
 C129 C 1.18387 0.18096 0.20563
 C130 C 1.17375 0.16982 0.14775
 C131 C 1.14397 0.15087 0.13844
 N132 N 1.13643 0.13825 0.08210
 N133 N 1.10909 0.12196 0.07249
 C134 C 1.08815 0.11789 0.11879
 N135 N 1.09563 0.13061 0.17508
 N136 N 1.12304 0.14677 0.18477
 C137 C 1.05775 0.10018 0.10875
 C138 C 1.05119 0.08222 0.05479
 H139 H 1.18746 0.17595 0.10765
 H140 H 1.04082 0.10008 0.14578
 H141 H 1.17059 0.17359 0.24556
 H142 H 1.06944 0.08020 0.02030
 C143 C 0.68999 0.67515 0.70878
 C144 C 0.66874 0.66060 0.74932
 C145 C 0.64317 0.63761 0.72911
 N146 N 0.61977 0.62957 0.76867
 N147 N 0.59535 0.61040 0.75048
 C148 C 0.59357 0.59828 0.69218
 N149 N 0.61719 0.60596 0.65269
 N150 N 0.64154 0.62531 0.67081
 C151 C 0.56512 0.57959 0.67169
 C152 C 0.56295 0.56384 0.61436
 H153 H 0.66933 0.66815 0.79718
 H154 H 0.54488 0.57934 0.70191
 H155 H 0.68905 0.66835 0.66059
 H156 H 0.58412 0.56112 0.58697
 C157 C -0.19218 0.31354 0.16306
 C158 C -0.17391 0.33397 0.20224
 C159 C -0.14614 0.35225 0.17919
 N160 N -0.13418 0.37934 0.21019
 N161 N -0.10839 0.39519 0.19009
 C162 C -0.09348 0.38418 0.13871
 N163 N -0.10530 0.35696 0.10816
 N164 N -0.13123 0.34142 0.12779
 C165 C -0.06410 0.39985 0.11725
 C166 C -0.05549 0.43289 0.13088
 H167 H -0.17973 0.33634 0.25032
 H168 H -0.04934 0.38519 0.08671
 H169 H -0.18763 0.31410 0.11430
 H170 H -0.07184 0.44919 0.15476
 C171 C 0.32378 0.81620 0.75643
 C172 C 0.32931 0.83276 0.70193
 C173 C 0.35661 0.85548 0.69466
 N174 N 0.35938 0.87371 0.64318
 N175 N 0.38474 0.89319 0.63474
 C176 C 0.40831 0.89505 0.67743
 N177 N 0.40551 0.87688 0.72896
 N178 N 0.38008 0.85754 0.73753
 C179 C 0.43758 0.91426 0.66655
 C180 C 0.44063 0.93550 0.61695
 H181 H 0.31351 0.82857 0.66317
 H182 H 0.45750 0.91057 0.69716
 H183 H 0.33867 0.82161 0.79606
 H184 H 0.41968 0.94153 0.59046
 C185 C -0.18108 0.68648 -0.21679
 C186 C -0.17628 0.66860 -0.16338
 C187 C -0.14757 0.64867 -0.15341
 N188 N -0.14480 0.62996 -0.10247
 N189 N -0.11839 0.61291 -0.09160
 C190 C -0.09373 0.61402 -0.13122
 N191 N -0.09653 0.63266 -0.18220
 N192 N -0.12298 0.64961 -0.19319
 C193 C -0.06366 0.59710 -0.11802
 C194 C -0.06013 0.57579 -0.06860
 H195 H -0.19372 0.66977 -0.12726
 H196 H -0.04372 0.60214 -0.14750
 H197 H -0.16419 0.68440 -0.25375
 H198 H -0.08097 0.56857 -0.04307
 C199 C 0.31743 1.17388 0.24492
 C200 C 0.32310 1.15760 0.29974
 C201 C 0.35146 1.13721 0.30983
 N202 N 0.35451 1.11990 0.36234
 N203 N 0.38099 1.10323 0.37430
 C204 C 0.40551 1.10338 0.33431
 N205 N 0.40242 1.12056 0.28163
 N206 N 0.37585 1.13710 0.26952
 C207 C 0.43585 1.08745 0.34943
 C208 C 0.43925 1.06735 0.40056
 H209 H 0.30697 1.16110 0.33764
 H210 H 0.45607 1.09263 0.32075
 H211 H 0.33256 1.16915 0.20592
 H212 H 0.41820 1.05984 0.42517
 C213 C 1.19217 -0.18555 -0.20905
 C214 C 1.18180 -0.17284 -0.15283
 C215 C 1.15326 -0.15197 -0.14881
 N216 N 1.14353 -0.13960 -0.09388
 N217 N 1.11698 -0.12184 -0.08979
 C218 C 1.09917 -0.11594 -0.14050
 N219 N 1.10895 -0.12825 -0.19531
 N220 N 1.13548 -0.14589 -0.19940
 C221 C 1.06924 -0.09750 -0.13717
 C222 C 1.05871 -0.08180 -0.08370
 H223 H 1.19386 -0.17945 -0.11084
 H224 H 1.05534 -0.09581 -0.17885
 H225 H 1.18014 -0.17808 -0.25056
 H226 H 1.07398 -0.08099 -0.04360
 C227 C 0.67870 0.32062 0.22260
 C228 C 0.67547 0.34193 0.27335
 C229 C 0.64796 0.36385 0.28181
 N230 N 0.64669 0.38445 0.33172
 N231 N 0.62099 0.40267 0.34275
 C232 C 0.59555 0.40093 0.30428
 N233 N 0.59693 0.38055 0.25403
 N234 N 0.62268 0.36239 0.24291
 C235 C 0.56587 0.41827 0.31918
 C236 C 0.56327 0.43923 0.37067
 H237 H 0.69304 0.34149 0.30976
 H238 H 0.54526 0.41277 0.29084
 H239 H 0.66201 0.32189 0.18480
 H240 H 0.58468 0.44688 0.39507
 C241 C 0.80242 -0.17891 -0.18346
 C242 C 0.82313 -0.16195 -0.22192
 C243 C 0.84587 -0.13677 -0.19783
 N244 N 0.87097 -0.12735 -0.23222
 N245 N 0.89279 -0.10612 -0.20957
 C246 C 0.89015 -0.09328 -0.15185
 N247 N 0.86470 -0.10215 -0.11795
 N248 N 0.84301 -0.12356 -0.14044
 C249 C 0.91531 -0.07202 -0.12434
 C250 C 0.94580 -0.07117 -0.14858
 H251 H 0.82435 -0.16887 -0.27002
 H252 H 0.91088 -0.06032 -0.08018
 H253 H 0.80241 -0.17258 -0.13502
 H254 H 0.95060 -0.08548 -0.19001
 C255 C 0.32178 0.31014 0.25565
 C256 C 0.33052 0.32264 0.31339
 C257 C 0.35841 0.34459 0.32274
 N258 N 0.36527 0.35730 0.37935
 N259 N 0.39094 0.37647 0.38875
 C260 C 0.41074 0.38354 0.34185
 N261 N 0.40387 0.37083 0.28527
 N262 N 0.37817 0.35175 0.27585
 C263 C 0.43968 0.40382 0.35145
 C264 C 0.44694 0.41982 0.40715
 H265 H 0.31693 0.31565 0.35312
 H266 H 0.45543 0.40661 0.31293
 H267 H 0.33496 0.31769 0.21574
 H268 H 0.42976 0.41925 0.44377
 C269 C 0.18852 0.68129 -0.20548
 C270 C 0.18036 0.66942 -0.14801
 C271 C 0.15081 0.65067 -0.13723
 N272 N 0.14481 0.63865 -0.08076
 N273 N 0.11753 0.62296 -0.06935
 C274 C 0.09515 0.61888 -0.11394
 N275 N 0.10115 0.63089 -0.17042
 N276 N 0.12848 0.64649 -0.18190
 C277 C 0.06461 0.60230 -0.10179
 C278 C 0.05851 0.58618 -0.04694
 H279 H 0.19544 0.67529 -0.10885
 H280 H 0.04687 0.60190 -0.13789
 H281 H 0.17403 0.67470 -0.24511
 H282 H 0.07735 0.58426 -0.01322
 C283 C 0.67838 1.18591 0.26413
 C284 C 0.67101 1.17814 0.32436
 C285 C 0.64336 1.15682 0.33829
 N286 N 0.63768 1.14721 0.39654
 N287 N 0.61220 1.12862 0.40929
 C288 C 0.59144 1.11912 0.36421
 N289 N 0.59714 1.12877 0.30615
 N290 N 0.62261 1.14719 0.29341
 C291 C 0.56260 1.09958 0.37682
 C292 C 0.55639 1.08515 0.43318
 H293 H 0.68527 1.18835 0.36179
 H294 H 0.54592 1.09578 0.33934
 H295 H 0.66445 1.17483 0.22702
 H296 H 0.57436 1.08617 0.46887
 C297 C 0.18863 0.31418 0.21581
 C298 C 0.17935 0.32746 0.15997
 C299 C 0.15120 0.34874 0.15460
 N300 N 0.14340 0.36223 0.09999
 N301 N 0.11720 0.38035 0.09414
 C302 C 0.09777 0.38549 0.14269
 N303 N 0.10560 0.37203 0.19722
 N304 N 0.13182 0.35404 0.20311
 C305 C 0.06817 0.40433 0.13708
 C306 C 0.05995 0.42186 0.08476
 H307 H 0.19221 0.32103 0.11873
 H308 H 0.05265 0.40498 0.17635
 H309 H 0.17616 0.32124 0.25718
 H310 H 0.07680 0.42381 0.04776
 C311 C 0.67737 0.81116 0.73846
 C312 C 0.67215 0.82781 0.68380
 C313 C 0.64457 0.84953 0.67477
 N314 N 0.64046 0.86535 0.62086
 N315 N 0.61514 0.88441 0.61160
 C316 C 0.59302 0.88831 0.65598
 N317 N 0.59719 0.87257 0.70988
 N318 N 0.62249 0.85356 0.71915
 C319 C 0.56429 0.90815 0.64621
 C320 C 0.55860 0.92585 0.59278
 H321 H 0.68843 0.82444 0.64611
 H322 H 0.54706 0.90872 0.68269
 H323 H 0.66131 0.81483 0.77642
 H324 H 0.57706 0.92755 0.55872
 C325 C 0.81049 0.18220 0.21127
 C326 C 0.81583 0.16198 0.15982
 C327 C 0.84437 0.14126 0.15372
 N328 N 0.84778 0.12087 0.10395
 N329 N 0.87432 0.10354 0.09584
 C330 C 0.89851 0.10605 0.13715
 N331 N 0.89504 0.12631 0.18708
 N332 N 0.86845 0.14354 0.19530
 C333 C 0.92892 0.08920 0.12639
 C334 C 0.93317 0.06670 0.07763
 H335 H 0.79931 0.16237 0.12164
 H336 H 0.94860 0.09557 0.15658
 H337 H 0.82635 0.18095 0.25036
 H338 H 0.91259 0.05824 0.05144
 C339 C 0.32248 0.67896 0.74915
 C340 C 0.32946 0.66562 0.69141
 C341 C 0.35713 0.64430 0.68015
 N342 N 0.36252 0.63195 0.62294
 N343 N 0.38824 0.61388 0.61121
 C344 C 0.40960 0.60757 0.65629
 N345 N 0.40415 0.61982 0.71354
 N346 N 0.37840 0.63783 0.72530
 C347 C 0.43884 0.58895 0.64373
 C348 C 0.44521 0.57442 0.58660
 H349 H 0.31485 0.67204 0.65244
 H350 H 0.45577 0.58663 0.68087
 H351 H 0.33655 0.67205 0.78855
 H352 H 0.42702 0.57441 0.55131
   
