data_POSCAR
  _audit_creation_date              2014-09-24
  _audit_creation_method            'ToBaCCo'
  _symmetry_space_group_name_H-M    'P1'
  _symmetry_Int_Tables_number       1
  _symmetry_cell_setting            triclinic
  loop_
  _symmetry_equiv_pos_as_xyz
 x,y,z
_cell_length_a 30.7047
_cell_length_b 29.9536
_cell_length_c 7.0274
_cell_angle_alpha 89.759200
_cell_angle_beta 89.929600
_cell_angle_gamma 90.113100
loop_
  _atom_site_label
  _atom_site_type_symbol
  _atom_site_fract_x
  _atom_site_fract_y
  _atom_site_fract_z
C1 C 0.15554 0.20628 0.24451
 C2 C 0.13429 0.24798 0.24096
 C3 C 0.15629 0.28897 0.23153
 C4 C 0.20184 0.28882 0.26218
 C5 C 0.22524 0.24802 0.25571
 C6 C 0.20226 0.20685 0.23935
 C7 C 0.22691 0.16768 0.21953
 C8 C 0.27186 0.16791 0.23579
 C9 C 0.29567 0.20782 0.25459
 C10 C 0.27184 0.24862 0.26331
 C11 C 0.22448 0.32821 0.30416
 C12 C 0.26947 0.32868 0.31812
 C13 C 0.29419 0.28996 0.28669
 C14 C 0.34039 0.29090 0.29184
 C15 C 0.36209 0.24991 0.30538
 C16 C 0.34213 0.20816 0.27405
 H17 H 0.21231 0.13570 0.19163
 H18 H 0.28690 0.13557 0.23688
 H19 H 0.20759 0.35911 0.33210
 H20 H 0.28415 0.35985 0.35969
 H21 H 0.09952 0.24925 0.23830
 H22 H 0.39492 0.25101 0.35741
 C23 C 0.65766 0.20813 0.29082
 C24 C 0.63623 0.24918 0.26474
 C25 C 0.65781 0.29034 0.27306
 C26 C 0.70371 0.29032 0.25108
 C27 C 0.72695 0.24933 0.25521
 C28 C 0.70398 0.20810 0.27200
 C29 C 0.72802 0.16828 0.26224
 C30 C 0.77313 0.16859 0.25390
 C31 C 0.79662 0.20866 0.23766
 C32 C 0.77337 0.24964 0.24165
 C33 C 0.72676 0.32985 0.21329
 C34 C 0.77185 0.33012 0.20038
 C35 C 0.79626 0.29092 0.22685
 C36 C 0.84267 0.29144 0.23468
 C37 C 0.86419 0.25007 0.23320
 C38 C 0.84257 0.20902 0.21450
 H39 H 0.71253 0.13596 0.25703
 H40 H 0.78911 0.13660 0.26138
 H41 H 0.71016 0.36110 0.18843
 H42 H 0.78681 0.36165 0.16534
 H43 H 0.60158 0.24932 0.23989
 H44 H 0.89893 0.24951 0.23854
 C45 C 0.65904 0.71001 0.72135
 C46 C 0.63775 0.75127 0.73043
 C47 C 0.65949 0.79212 0.70524
 C48 C 0.70573 0.79207 0.71849
 C49 C 0.72853 0.75087 0.73381
 C50 C 0.70505 0.70993 0.73999
 C51 C 0.72805 0.67038 0.77563
 C52 C 0.77319 0.67009 0.78529
 C53 C 0.79773 0.70929 0.75741
 C54 C 0.77499 0.75057 0.74385
 C55 C 0.72982 0.83190 0.72334
 C56 C 0.77493 0.83162 0.72832
 C57 C 0.79842 0.79158 0.74590
 C58 C 0.84453 0.79122 0.76761
 C59 C 0.86580 0.75010 0.74329
 C60 C 0.84411 0.70872 0.74595
 H61 H 0.71140 0.63910 0.80108
 H62 H 0.78809 0.63850 0.81854
 H63 H 0.71440 0.86418 0.72783
 H64 H 0.79095 0.86364 0.71789
 H65 H 0.60316 0.75150 0.75621
 H66 H 0.90047 0.75061 0.73102
 C67 C 0.15625 0.70946 0.76917
 C68 C 0.13453 0.75057 0.75365
 C69 C 0.15596 0.79225 0.75700
 C70 C 0.20253 0.79164 0.77157
 C71 C 0.22552 0.75057 0.75541
 C72 C 0.20211 0.70976 0.74318
 C73 C 0.22511 0.67070 0.69945
 C74 C 0.27019 0.67043 0.69091
 C75 C 0.29470 0.70902 0.72930
 C76 C 0.27214 0.75011 0.75374
 C77 C 0.22707 0.83068 0.80042
 C78 C 0.27214 0.83059 0.79086
 C79 C 0.29584 0.79089 0.76878
 C80 C 0.34219 0.79090 0.75295
 C81 C 0.36276 0.74951 0.72542
 C82 C 0.34099 0.70832 0.73070
 H83 H 0.20842 0.63988 0.66649
 H84 H 0.28512 0.63953 0.64830
 H85 H 0.21230 0.86242 0.83057
 H86 H 0.28741 0.86280 0.79833
 H87 H 0.09972 0.74944 0.74742
 H88 H 0.39618 0.74905 0.68169
 O89 O 1.04194 -0.05277 0.07399
 O90 O 0.95857 0.03004 0.20255
 O91 O 0.95802 -0.05317 0.08805
 O92 O 1.04284 0.02760 0.21847
 O93 O 1.04244 0.05113 -0.07934
 O94 O 0.95923 -0.03169 -0.21270
 O95 O 0.95850 0.05143 -0.09837
 O96 O 1.04347 -0.02935 -0.22395
 Cu97 Cu 1.00023 -0.01488 0.17417
 Cu98 Cu 1.00093 0.01321 -0.18195
 C99 C 1.05637 -0.05594 -0.09495
 C100 C 0.94514 0.05587 0.07107
 C101 C 0.94530 -0.05761 -0.08223
 C102 C 1.05633 0.05421 0.09038
 O103 O 0.45761 0.46991 0.29092
 O104 O 0.54247 0.55193 0.41547
 O105 O 0.54195 0.46961 0.28847
 O106 O 0.45829 0.55179 0.41866
 O107 O 0.45836 0.53007 0.71881
 O108 O 0.54274 0.44824 0.58926
 O109 O 0.54264 0.53054 0.71632
 O110 O 0.45853 0.44816 0.59106
 Cu111 Cu 0.50014 0.51365 0.32495
 Cu112 Cu 0.50068 0.48640 0.68225
 C113 C 0.44416 0.44418 0.42278
 C114 C 0.55592 0.55649 0.58496
 C115 C 0.55563 0.44371 0.41883
 C116 C 0.44454 0.55579 0.58802
 O117 O -0.04041 0.55222 0.07142
 O118 O 0.04197 0.46902 0.20754
 O119 O 0.04371 0.55194 0.08487
 O120 O -0.04208 0.47154 0.21353
 O121 O -0.04022 0.44799 -0.08336
 O122 O 0.04258 0.53145 -0.21636
 O123 O 0.04396 0.44848 -0.09352
 O124 O -0.04143 0.52865 -0.22546
 Cu125 Cu 0.00090 0.51407 0.17265
 Cu126 Cu 0.00140 0.48625 -0.18297
 C127 C -0.05465 0.55521 -0.09773
 C128 C 0.05609 0.44343 0.07759
 C129 C 0.05634 0.55705 -0.08568
 C130 C -0.05499 0.44497 0.08509
 O131 O 0.53931 1.03316 0.30085
 O132 O 0.45727 0.94872 0.43832
 O133 O 0.45444 1.02846 0.28074
 O134 O 0.54091 0.94917 0.40400
 O135 O 0.54000 0.96892 0.70618
 O136 O 0.45770 1.05326 0.57548
 O137 O 0.45528 0.97356 0.73316
 O138 O 0.54151 1.05294 0.60283
 Cu139 Cu 0.49786 0.98722 0.32799
 Cu140 Cu 0.49863 1.01485 0.68246
 C141 C 0.55406 1.05809 0.43256
 C142 C 0.44268 0.94620 0.60754
 C143 C 0.44239 1.05575 0.40764
 C144 C 0.55413 0.94402 0.57311
 C145 C 1.12945 0.16561 0.21916
 C146 C 1.07967 0.16930 0.25657
 C147 C 1.05670 0.13202 0.21294
 C148 C 1.08464 0.09338 0.14113
 C149 C 1.11027 0.11230 -0.02831
 C150 C 1.13318 0.14971 0.01184
 C151 C 1.14133 0.12454 0.34353
 C152 C 1.11859 0.08653 0.29952
 H153 H 1.06423 0.19457 0.34344
 H154 H 1.02280 0.12819 0.25401
 H155 H 1.11086 0.09730 -0.16870
 H156 H 1.15284 0.16650 -0.09548
 H157 H 1.16412 0.12575 0.46145
 H158 H 1.12262 0.05546 0.37751
 C159 C 0.63162 0.66767 0.68458
 C160 C 0.62274 0.63989 0.86544
 C161 C 0.59837 0.60243 0.83593
 C162 C 0.58474 0.59585 0.62745
 C163 C 0.56170 0.63930 0.57199
 C164 C 0.58600 0.67648 0.59859
 C165 C 0.65158 0.63454 0.54081
 C166 C 0.62744 0.59683 0.51348
 H167 H 0.63473 0.64902 1.00529
 H168 H 0.58975 0.57969 0.95066
 H169 H 0.53029 0.64052 0.50124
 H170 H 0.57501 0.70816 0.54141
 H171 H 0.68132 0.64092 0.46151
 H172 H 0.63700 0.57100 0.41398
 C173 C -0.12966 0.33428 0.21008
 C174 C -0.14265 0.37562 0.32862
 C175 C -0.11918 0.41336 0.28628
 C176 C -0.08384 0.40601 0.13405
 C177 C -0.05675 0.36728 0.21231
 C178 C -0.08034 0.33023 0.25476
 C179 C -0.13161 0.34973 0.00141
 C180 C -0.10815 0.38691 -0.03802
 H181 H -0.16684 0.37480 0.44135
 H182 H -0.12392 0.44467 0.36059
 H183 H -0.02284 0.37060 0.25384
 H184 H -0.06570 0.30437 0.34177
 H185 H -0.15059 0.33283 -0.10706
 H186 H -0.10753 0.40168 -0.17939
 C187 C 0.36975 0.83402 0.72971
 C188 C 0.35925 0.85657 0.53822
 C189 C 0.38215 0.89435 0.50201
 C190 C 0.41439 0.90691 0.65912
 C191 C 0.38691 0.90951 0.84228
 C192 C 0.36423 0.87102 0.88126
 C193 C 0.41985 0.82780 0.72847
 C194 C 0.44263 0.86554 0.68986
 H195 H 0.33523 0.84380 0.43891
 H196 H 0.37743 0.91379 0.37288
 H197 H 0.38718 0.93783 0.93810
 H198 H 0.34599 0.86651 1.01241
 H199 H 0.43684 0.79962 0.79071
 H200 H 0.47737 0.86736 0.71490
 C201 C -0.12837 0.66592 -0.22786
 C202 C -0.07894 0.66973 -0.27167
 C203 C -0.05568 0.63267 -0.22747
 C204 C -0.08317 0.59419 -0.14840
 C205 C -0.10757 0.61370 0.02254
 C206 C -0.13070 0.65089 -0.01863
 C207 C -0.14148 0.62440 -0.34509
 C208 C -0.11834 0.58666 -0.30098
 H209 H -0.06391 0.69524 -0.35963
 H210 H -0.02173 0.62917 -0.26815
 H211 H -0.10724 0.59923 0.16449
 H212 H -0.14966 0.66809 0.08901
 H213 H -0.16555 0.62506 -0.45807
 H214 H -0.12320 0.55521 -0.37415
 C215 C 0.36852 1.16755 0.29439
 C216 C 0.41872 1.17409 0.29154
 C217 C 0.44177 1.13651 0.32774
 C218 C 0.41379 1.09489 0.35919
 C219 C 0.38200 1.10689 0.51905
 C220 C 0.35881 1.14454 0.48604
 C221 C 0.36287 1.13078 0.14152
 C222 C 0.38577 1.09239 0.17786
 H223 H 0.43541 1.20249 0.22847
 H224 H 0.47643 1.13502 0.30014
 H225 H 0.37783 1.08719 0.64790
 H226 H 0.33512 1.15686 0.58796
 H227 H 0.34432 1.13534 0.01142
 H228 H 0.38594 1.06428 0.08090
 C229 C 1.12983 -0.16716 -0.21948
 C230 C 1.13129 -0.15241 -0.01011
 C231 C 1.10828 -0.11511 0.02891
 C232 C 1.08477 -0.09511 -0.14376
 C233 C 1.12055 -0.08761 -0.29414
 C234 C 1.14344 -0.12551 -0.33717
 C235 C 1.08050 -0.17040 -0.26743
 C236 C 1.05735 -0.13320 -0.22502
 H237 H 1.14955 -0.16988 0.09951
 H238 H 1.10743 -0.10088 0.17075
 H239 H 1.12572 -0.05616 -0.36810
 H240 H 1.16755 -0.12621 -0.45027
 H241 H 1.06583 -0.19524 -0.35910
 H242 H 1.02391 -0.12903 -0.27177
 C243 C 0.63076 0.33270 0.31252
 C244 C 0.62092 0.36030 0.13240
 C245 C 0.59675 0.39770 0.16418
 C246 C 0.58425 0.40441 0.37408
 C247 C 0.56153 0.36092 0.43300
 C248 C 0.58564 0.32381 0.40395
 C249 C 0.65152 0.36602 0.45356
 C250 C 0.62756 0.40368 0.48311
 H251 H 0.63218 0.35113 -0.00863
 H252 H 0.58757 0.42033 0.05015
 H253 H 0.53063 0.35964 0.50828
 H254 H 0.57500 0.29212 0.46280
 H255 H 0.68164 0.35978 0.52976
 H256 H 0.63764 0.42960 0.58127
 C257 C 0.87046 -0.16893 -0.18980
 C258 C 0.91651 -0.17771 -0.10666
 C259 C 0.94050 -0.14042 -0.07777
 C260 C 0.91677 -0.09696 -0.12683
 C261 C 0.90250 -0.10221 -0.33478
 C262 C 0.87848 -0.13967 -0.36739
 C263 C 0.85091 -0.13721 -0.03877
 C264 C 0.87458 -0.09926 -0.00953
 H265 H 0.92757 -0.20924 -0.04773
 H266 H 0.97171 -0.14162 -0.00529
 H267 H 0.91043 -0.07857 -0.44713
 H268 H 0.86615 -0.14781 -0.50785
 H269 H 0.82211 -0.14487 0.04505
 H270 H 0.86539 -0.07451 0.09547
 C271 C 0.36775 0.33388 0.31482
 C272 C 0.35469 0.37508 0.19392
 C273 C 0.37876 0.41265 0.23059
 C274 C 0.41473 0.40526 0.37954
 C275 C 0.39094 0.38680 0.55579
 C276 C 0.36679 0.34979 0.52201
 C277 C 0.41673 0.32906 0.26565
 C278 C 0.44097 0.36597 0.30157
 H279 H 0.33006 0.37427 0.08331
 H280 H 0.37410 0.44378 0.15376
 H281 H 0.39226 0.40198 0.69572
 H282 H 0.34796 0.33345 0.63325
 H283 H 0.43057 0.30135 0.18725
 H284 H 0.47484 0.36850 0.25840
 C285 C 0.13093 0.66901 -0.19053
 C286 C 0.11897 0.64309 -0.37213
 C287 C 0.09502 0.60543 -0.34078
 C288 C 0.08468 0.59673 -0.12997
 C289 C 0.12901 0.59640 -0.02910
 C290 C 0.15286 0.63435 -0.05762
 C291 C 0.08688 0.67692 -0.08765
 C292 C 0.06274 0.63961 -0.06070
 H293 H 0.12874 0.65351 -0.51415
 H294 H 0.08453 0.58392 -0.45596
 H295 H 0.13972 0.56971 0.06462
 H296 H 0.18340 0.64000 0.01618
 H297 H 0.07727 0.70786 -0.01980
 H298 H 0.03247 0.64015 0.01947
 C299 C 0.63144 1.16830 0.33154
 C300 C 0.65013 1.13548 0.48145
 C301 C 0.62571 1.09781 0.50801
 C302 C 0.58355 1.09704 0.39049
 C303 C 0.56089 1.14078 0.44316
 C304 C 0.58557 1.17768 0.41492
 C305 C 0.62305 1.14006 0.15255
 C306 C 0.59811 1.10305 0.18294
 H307 H 0.67864 1.14236 0.56774
 H308 H 0.63412 1.07250 0.61263
 H309 H 0.53057 1.14230 0.52247
 H310 H 0.57545 1.20918 0.47604
 H311 H 0.63583 1.14852 0.01277
 H312 H 0.58984 1.08011 0.06937
 C313 C 0.12990 0.33162 0.18726
 C314 C 0.08612 0.32353 0.08365
 C315 C 0.06225 0.36084 0.05453
 C316 C 0.08419 0.40382 0.12358
 C317 C 0.09398 0.39537 0.33499
 C318 C 0.11768 0.35772 0.36786
 C319 C 0.15242 0.36607 0.05519
 C320 C 0.12880 0.40399 0.02452
 H321 H 0.07659 0.29254 0.01604
 H322 H 0.03222 0.36021 -0.02705
 H323 H 0.08338 0.41704 0.44935
 H324 H 0.12714 0.34741 0.51021
 H325 H 0.18336 0.36036 -0.01542
 H326 H 0.14001 0.43067 -0.06849
 C327 C 0.63183 0.83414 0.66574
 C328 C 0.58564 0.82450 0.58807
 C329 C 0.56084 0.86129 0.56201
 C330 C 0.58375 0.90517 0.61223
 C331 C 0.59935 0.89920 0.81821
 C332 C 0.62444 0.86228 0.84565
 C333 C 0.64989 0.86703 0.51461
 C334 C 0.62535 0.90457 0.49040
 H335 H 0.57520 0.79282 0.52936
 H336 H 0.53008 0.85962 0.48636
 H337 H 0.59167 0.92209 0.93271
 H338 H 0.63799 0.85377 0.98373
 H339 H 0.67811 0.86028 0.42616
 H340 H 0.63333 0.92999 0.38535
 C341 C 0.86985 0.16689 0.17188
 C342 C 0.85040 0.13460 0.02327
 C343 C 0.87425 0.09676 -0.00418
 C344 C 0.91639 0.09511 0.11337
 C345 C 0.94000 0.13863 0.06215
 C346 C 0.91587 0.17582 0.08917
 C347 C 0.87770 0.13826 0.35108
 C348 C 0.90190 0.10089 0.32092
 H349 H 0.82145 0.14176 -0.05980
 H350 H 0.86513 0.07154 -0.10729
 H351 H 0.97123 0.13989 -0.01054
 H352 H 0.92682 0.20725 0.02861
 H353 H 0.86511 0.14679 0.49070
 H354 H 0.90978 0.07764 0.43464
 C355 C 0.36844 0.66560 0.70464
 C356 C 0.36831 0.65119 0.49537
 C357 C 0.39239 0.61440 0.45841
 C358 C 0.41529 0.59460 0.63385
 C359 C 0.44144 0.63326 0.71867
 C360 C 0.41723 0.66996 0.75783
 C361 C 0.35464 0.62359 0.81911
 C362 C 0.37864 0.58625 0.77917
 H363 H 0.35009 0.66839 0.38491
 H364 H 0.39424 0.60029 0.31656
 H365 H 0.47518 0.63040 0.76296
 H366 H 0.43091 0.69700 0.84097
 H367 H 0.32952 0.62366 0.92793
 H368 H 0.37345 0.55459 0.85144
   
