data_POSCAR
  _audit_creation_date              2014-09-24
  _audit_creation_method            'ToBaCCo'
  _symmetry_space_group_name_H-M    'P1'
  _symmetry_Int_Tables_number       1
  _symmetry_cell_setting            triclinic
  loop_
  _symmetry_equiv_pos_as_xyz
 x,y,z
_cell_length_a 26.3317
_cell_length_b 26.3317
_cell_length_c 34.6927
_cell_angle_alpha 89.887500
_cell_angle_beta 90.114200
_cell_angle_gamma 90.096300
loop_
  _atom_site_label
  _atom_site_type_symbol
  _atom_site_fract_x
  _atom_site_fract_y
  _atom_site_fract_z
O1 O 0.04247 0.55007 1.03630
 O2 O 0.04241 0.45161 0.96155
 O3 O 0.04047 0.55076 0.96141
 O4 O 0.04070 0.45094 1.03645
 O5 O -0.04328 0.45126 1.03630
 O6 O -0.04350 0.55000 0.96148
 O7 O -0.04157 0.45085 0.96141
 O8 O -0.04152 0.55039 1.03637
 Cu9 Cu 0.04997 0.50086 0.99892
 Cu10 Cu -0.05093 0.50060 0.99888
 C11 C 0.00068 0.56717 1.04880
 C12 C 0.00061 0.43427 0.94904
 C13 C -0.00176 0.56740 0.94898
 C14 C -0.00145 0.43411 1.04885
 O15 O 0.45122 -0.04324 0.46355
 O16 O 0.54996 -0.04346 0.53838
 O17 O 0.45080 -0.04153 0.53845
 O18 O 0.55035 -0.04147 0.46348
 O19 O 0.55002 0.04252 0.46356
 O20 O 0.45156 0.04245 0.53831
 O21 O 0.55072 0.04051 0.53846
 O22 O 0.45089 0.04075 0.46341
 Cu23 Cu 0.50056 -0.05088 0.50098
 Cu24 Cu 0.50082 0.05001 0.50094
 C25 C 0.43407 -0.00141 0.45101
 C26 C 0.56735 -0.00171 0.55088
 C27 C 0.43422 0.00065 0.55082
 C28 C 0.56712 0.00073 0.45106
 C29 C -0.06655 0.01075 0.26782
 C30 C -0.01968 0.01989 0.24994
 C31 C -0.01064 0.06686 0.23208
 C32 C -0.04839 0.10425 0.23169
 C33 C -0.09497 0.09519 0.24997
 C34 C -0.10392 0.04851 0.26824
 C35 C 0.01984 -0.01963 0.24992
 C36 C 0.01069 -0.06649 0.23205
 C37 C 0.04845 -0.10387 0.23162
 C38 C 0.09513 -0.09491 0.24989
 C39 C 0.10419 -0.04834 0.26817
 C40 C 0.06681 -0.01059 0.26778
 H41 H -0.07348 -0.02535 0.28197
 H42 H 0.02538 0.07387 0.21791
 H43 H -0.02541 -0.07342 0.21789
 H44 H 0.07382 0.02543 0.28195
 H45 H -0.12406 0.12429 0.24998
 H46 H 0.12423 -0.12401 0.24988
 C47 C -0.01098 -0.06706 0.76770
 C48 C -0.02009 -0.02005 0.74993
 C49 C -0.06710 -0.01094 0.73216
 C50 C -0.10454 -0.04876 0.73175
 C51 C -0.09551 -0.09547 0.74993
 C52 C -0.04880 -0.10451 0.76811
 C53 C 0.01950 0.01954 0.74993
 C54 C 0.06654 0.01041 0.73237
 C55 C 0.10398 0.04823 0.73196
 C56 C 0.09493 0.09496 0.74993
 C57 C 0.04819 0.10402 0.76790
 C58 C 0.01037 0.06657 0.76749
 H59 H 0.02514 -0.07405 0.78180
 H60 H -0.07409 0.02518 0.71806
 H61 H 0.07355 -0.02573 0.71843
 H62 H -0.02576 0.07359 0.78143
 H63 H -0.12466 -0.12462 0.74993
 H64 H 0.12407 0.12411 0.74993
 C65 C 0.00953 -0.31644 0.12561
 N66 N 0.04970 -0.31392 0.15008
 N67 N 0.05647 -0.27338 0.17246
 C68 C 0.02328 -0.23409 0.17101
 N69 N -0.01697 -0.23667 0.14662
 N70 N -0.02373 -0.27721 0.12424
 C71 C 0.00440 -0.35841 0.09956
 C72 C 0.00168 -0.39286 0.07682
 C73 C 0.03209 -0.18916 0.19340
 C74 C 0.03963 -0.15068 0.21132
 C75 C -0.01000 0.31739 0.12572
 N76 N 0.02337 0.27826 0.12448
 N77 N 0.01672 0.23760 0.14686
 C78 C -0.02354 0.23481 0.17111
 N79 N -0.05684 0.27400 0.17243
 N80 N -0.05018 0.31465 0.15005
 C81 C -0.00498 0.35948 0.09965
 C82 C -0.00234 0.39403 0.07690
 C83 C -0.03224 0.18976 0.19350
 C84 C -0.03969 0.15118 0.21140
 C85 C 0.31747 0.00940 0.62726
 N86 N 0.27833 -0.02410 0.62602
 N87 N 0.23761 -0.01737 0.64818
 C88 C 0.23475 0.02310 0.67220
 N89 N 0.27395 0.05653 0.67353
 N90 N 0.31467 0.04979 0.65137
 C91 C 0.35959 0.00430 0.60139
 C92 C 0.39416 0.00161 0.57876
 C93 C 0.18963 0.03188 0.69431
 C94 C 0.15099 0.03941 0.71197
 C95 C -0.31796 -0.01023 0.62615
 N96 N -0.31527 -0.05040 0.65060
 N97 N -0.27456 -0.05706 0.67292
 C98 C -0.23526 -0.02377 0.67142
 N99 N -0.23800 0.01648 0.64705
 N100 N -0.27871 0.02314 0.62473
 C101 C -0.36008 -0.00525 0.60012
 C102 C -0.39465 -0.00267 0.57736
 C103 C -0.19015 -0.03248 0.69373
 C104 C -0.15152 -0.03998 0.71155
 C105 C -0.01026 -0.31792 0.87371
 N106 N 0.02308 -0.27865 0.87516
 N107 N 0.01643 -0.23794 0.85284
 C108 C -0.02380 -0.23522 0.82844
 N109 N -0.05707 -0.27454 0.82691
 N110 N -0.05042 -0.31525 0.84924
 C111 C -0.00529 -0.36004 0.89974
 C112 C -0.00271 -0.39461 0.92250
 C113 C -0.03252 -0.19011 0.80614
 C114 C -0.04001 -0.15148 0.78831
 C115 C 0.00936 0.31751 0.87259
 N116 N 0.04977 0.31470 0.84850
 N117 N 0.05650 0.27398 0.82634
 C118 C 0.02307 0.23479 0.82766
 N119 N -0.01741 0.23766 0.85167
 N120 N -0.02414 0.27837 0.87383
 C121 C 0.00427 0.35963 0.89847
 C122 C 0.00157 0.39420 0.92110
 C123 C 0.03185 0.18967 0.80555
 C124 C 0.03938 0.15102 0.78789
 C125 C -0.31649 0.00959 0.37424
 N126 N -0.31395 0.04980 0.34981
 N127 N -0.27341 0.05656 0.32743
 C128 C -0.23414 0.02335 0.32885
 N129 N -0.23674 -0.01694 0.35320
 N130 N -0.27728 -0.02369 0.37559
 C131 C -0.35846 0.00446 0.40030
 C132 C -0.39291 0.00173 0.42304
 C133 C -0.18921 0.03215 0.30646
 C134 C -0.15074 0.03969 0.28854
 C135 C 0.31734 -0.00995 0.37414
 N136 N 0.31459 -0.05014 0.34983
 N137 N 0.27393 -0.05680 0.32745
 C138 C 0.23476 -0.02349 0.32875
 N139 N 0.23756 0.01678 0.35299
 N140 N 0.27822 0.02343 0.37537
 C141 C 0.35943 -0.00493 0.40020
 C142 C 0.39399 -0.00229 0.42296
 C143 C 0.18971 -0.03218 0.30636
 C144 C 0.15113 -0.03964 0.28846
   
