data_POSCAR
  _audit_creation_date              2014-09-24
  _audit_creation_method            'ToBaCCo'
  _symmetry_space_group_name_H-M    'P1'
  _symmetry_Int_Tables_number       1
  _symmetry_cell_setting            triclinic
  loop_
  _symmetry_equiv_pos_as_xyz
 x,y,z
_cell_length_a 46.2331
_cell_length_b 47.0469
_cell_length_c 26.2534
_cell_angle_alpha 89.865000
_cell_angle_beta 90.121800
_cell_angle_gamma 119.659400
loop_
  _atom_site_label
  _atom_site_type_symbol
  _atom_site_fract_x
  _atom_site_fract_y
  _atom_site_fract_z
C1 C 0.43066 0.90537 0.47702
 C2 C 0.43016 0.90583 0.52924
 C3 C 0.45834 0.93436 0.54443
 N4 N 0.47569 0.95157 0.50320
 C5 C 0.45881 0.93382 0.46202
 C6 C 0.46850 0.94378 0.59551
 C7 C 0.49310 0.97627 0.60779
 C8 C 0.51257 0.98522 0.65148
 C9 C 0.53178 1.01867 0.65067
 C10 C 0.52356 1.02940 0.60657
 N11 N 0.50035 1.00332 0.58009
 C12 C 0.53676 1.06271 0.59255
 C13 C 0.53681 1.07179 0.54107
 C14 C 0.54203 1.10199 0.52434
 C15 C 0.54256 1.10135 0.47218
 C16 C 0.53700 1.07060 0.45880
 N17 N 0.53341 1.05251 0.50085
 C18 C 0.53731 1.06029 0.40857
 C19 C 0.52468 1.02712 0.39576
 C20 C 0.53002 1.01599 0.34984
 C21 C 0.51082 0.98244 0.35063
 C22 C 0.49428 0.97411 0.39699
 N23 N 0.50303 1.00147 0.42437
 C24 C 0.46954 0.94229 0.41117
 H25 H 0.41225 0.88641 0.45287
 H26 H 0.41108 0.88734 0.55318
 H27 H 0.49165 1.00282 0.45773
 H28 H 0.51306 0.96926 0.68081
 H29 H 0.54994 1.03340 0.67923
 H30 H 0.54512 1.12240 0.54725
 H31 H 0.54637 1.12114 0.44696
 H32 H 0.50877 0.96610 0.32013
 H33 H 0.48770 1.00417 0.54772
 H34 H 0.54563 1.03054 0.31864
 C35 C -0.10035 0.44097 0.46962
 C36 C -0.10106 0.44002 0.52176
 C37 C -0.07013 0.46432 0.53840
 N38 N -0.05032 0.47950 0.49794
 C39 C -0.06864 0.46515 0.45574
 C40 C -0.06098 0.47314 0.59005
 C41 C -0.02718 0.49326 0.60471
 C42 C -0.01664 0.51050 0.65017
 C43 C 0.01747 0.52530 0.65108
 C44 C 0.02698 0.51723 0.60584
 N45 N -0.00032 0.49780 0.57762
 C46 C 0.06012 0.52636 0.59308
 C47 C 0.07032 0.52599 0.54265
 C48 C 0.10112 0.53033 0.52859
 C49 C 0.10184 0.53087 0.47632
 C50 C 0.07148 0.52696 0.46035
 N51 N 0.05229 0.52403 0.50096
 C52 C 0.06259 0.52814 0.40926
 C53 C 0.03004 0.52029 0.39451
 C54 C 0.02165 0.52731 0.34730
 C55 C -0.01244 0.51274 0.34602
 C56 C -0.02411 0.49748 0.39286
 N57 N 0.00208 0.50225 0.42207
 C58 C -0.05800 0.47605 0.40526
 H59 H -0.12111 0.42572 0.44510
 H60 H -0.12215 0.42338 0.54468
 H61 H 0.00070 0.49006 0.45584
 H62 H -0.03192 0.51233 0.67973
 H63 H 0.03348 0.54043 0.68152
 H64 H 0.12106 0.53304 0.55338
 H65 H 0.12244 0.53405 0.45283
 H66 H -0.02676 0.51254 0.31330
 H67 H -0.00076 0.48551 0.54445
 H68 H 0.03830 0.54072 0.31632
 C69 C 0.43436 0.53780 0.47376
 C70 C 0.43162 0.53521 0.52578
 C71 C 0.45322 0.52452 0.54229
 N72 N 0.46933 0.52105 0.50198
 C73 C 0.45774 0.52897 0.46012
 C74 C 0.46100 0.52212 0.59382
 C75 C 0.48252 0.50990 0.60802
 C76 C 0.49705 0.51350 0.65568
 C77 C 0.51327 0.49576 0.65529
 C78 C 0.50746 0.48072 0.60807
 N79 N 0.48900 0.48976 0.57928
 C80 C 0.51778 0.45796 0.59372
 C81 C 0.51890 0.44992 0.54199
 C82 C 0.52131 0.42319 0.52527
 C83 C 0.52279 0.42491 0.47314
 C84 C 0.52089 0.45240 0.45965
 N85 N 0.51848 0.46767 0.50171
 C86 C 0.52298 0.46389 0.40934
 C87 C 0.51489 0.48827 0.39647
 C88 C 0.52352 0.50577 0.35121
 C89 C 0.50836 0.52460 0.35146
 C90 C 0.49085 0.51801 0.39684
 N91 N 0.49506 0.49591 0.42413
 C92 C 0.46977 0.53057 0.41021
 H93 H 0.42115 0.54593 0.44898
 H94 H 0.41623 0.54156 0.54865
 H95 H 0.48187 0.48363 0.45655
 H96 H 0.49585 0.52695 0.68813
 H97 H 0.52732 0.49379 0.68678
 H98 H 0.52158 0.40416 0.54816
 H99 H 0.52471 0.40769 0.44806
 H100 H 0.50969 0.54093 0.32129
 H101 H 0.47800 0.47951 0.54451
 H102 H 0.53877 0.50475 0.32084
 O103 O 0.38568 0.67270 -0.05812
 O104 O 0.38930 0.72874 -0.04055
 C105 C 0.36939 0.73458 -0.06612
 O106 O 0.33848 0.72077 -0.05689
 O107 O 0.28100 0.66821 -0.04320
 C108 C 0.27555 0.64332 -0.06939
 O109 O 0.28992 0.62684 -0.06048
 O110 O 0.34331 0.62244 -0.04481
 C111 C 0.36929 0.64258 -0.06908
 O112 O 0.38575 0.66149 0.04291
 O113 O 0.38646 0.71635 0.06051
 C114 C 0.37174 0.73230 0.07067
 O115 O 0.34714 0.72949 0.04484
 O116 O 0.29117 0.67540 0.05840
 C117 C 0.27502 0.64494 0.06722
 O118 O 0.27859 0.62420 0.04088
 O119 O 0.33332 0.62257 0.05646
 C120 C 0.36407 0.63645 0.06692
 Cr121 Cr 0.38497 0.69400 0.00117
 Cr122 Cr 0.31530 0.69751 0.00074
 Cr123 Cr 0.31226 0.62582 -0.00195
 O124 O 0.33751 0.67244 -0.00003
 O125 O 0.61773 0.33207 -0.05736
 O126 O 0.61436 0.27584 -0.04060
 C127 C 0.63428 0.26995 -0.06586
 O128 O 0.66531 0.28427 -0.05712
 O129 O 0.72279 0.33673 -0.04150
 C130 C 0.72854 0.36193 -0.06720
 O131 O 0.71388 0.37813 -0.05861
 O132 O 0.66035 0.38217 -0.04365
 C133 C 0.63443 0.36223 -0.06826
 O134 O 0.61734 0.34213 0.04384
 O135 O 0.61672 0.28720 0.06047
 C136 C 0.63107 0.27073 0.06950
 O137 O 0.65596 0.27420 0.04399
 O138 O 0.71177 0.32830 0.05967
 C139 C 0.72792 0.35870 0.06898
 O140 O 0.72446 0.37968 0.04290
 O141 O 0.66963 0.38123 0.05793
 C142 C 0.63888 0.36688 0.06845
 Cr143 Cr 0.61838 0.31017 0.00153
 Cr144 Cr 0.68812 0.30686 0.00122
 Cr145 Cr 0.69109 0.37850 -0.00032
 O146 O 0.66585 0.33187 0.00074
 C147 C 0.44462 0.92792 -0.31866
 C148 C 0.43127 0.90496 -0.27934
 C149 C 0.42832 0.87400 -0.28452
 C150 C 0.43819 0.86604 -0.33046
 C151 C 0.45118 0.88884 -0.37009
 C152 C 0.45471 0.92023 -0.36480
 C153 C 0.41396 0.85033 -0.24201
 C154 C 0.42242 0.82738 -0.23243
 C155 C 0.40849 0.80413 -0.18931
 C156 C 0.42765 0.79167 -0.16746
 C157 C 0.41516 0.76941 -0.12704
 C158 C 0.38294 0.75871 -0.10820
 C159 C 0.36355 0.77083 -0.13062
 C160 C 0.37619 0.79334 -0.17068
 H161 H 0.44634 0.95155 -0.31342
 H162 H 0.42347 0.91153 -0.24453
 H163 H 0.43554 0.84209 -0.33617
 H164 H 0.45929 0.88217 -0.40447
 H165 H 0.39741 0.85327 -0.21615
 H166 H 0.44158 0.82666 -0.25512
 H167 H 0.45247 0.79936 -0.18149
 H168 H 0.43061 0.76030 -0.11097
 H169 H 0.33856 0.76292 -0.11724
 H170 H 0.36035 0.80169 -0.18761
 C171 C 0.08293 0.51710 -0.32591
 C172 C 0.10688 0.52803 -0.28729
 C173 C 0.13361 0.56027 -0.28744
 C174 C 0.13619 0.58129 -0.32763
 C175 C 0.11227 0.57029 -0.36631
 C176 C 0.08551 0.53813 -0.36574
 C177 C 0.15881 0.57057 -0.24628
 C178 C 0.17819 0.60182 -0.23206
 C179 C 0.20316 0.61184 -0.19059
 C180 C 0.21240 0.64106 -0.16434
 C181 C 0.23587 0.65132 -0.12501
 C182 C 0.25094 0.63273 -0.11148
 C183 C 0.24217 0.60380 -0.13851
 C184 C 0.21862 0.59349 -0.17767
 H185 H 0.06247 0.49216 -0.32498
 H186 H 0.10445 0.51128 -0.25705
 H187 H 0.15693 0.60597 -0.32999
 H188 H 0.11466 0.58681 -0.39690
 H189 H 0.16017 0.55138 -0.22544
 H190 H 0.17459 0.62074 -0.24938
 H191 H 0.20116 0.65584 -0.17395
 H192 H 0.24220 0.67384 -0.10525
 H193 H 0.25350 0.58902 -0.12944
 H194 H 0.21305 0.57144 -0.19818
 C195 C 0.41343 0.51675 -0.35803
 C196 C 0.40020 0.52784 -0.32022
 C197 C 0.42090 0.55596 -0.29180
 C198 C 0.45537 0.57262 -0.30173
 C199 C 0.46856 0.56161 -0.33971
 C200 C 0.44779 0.53340 -0.36794
 C201 C 0.40571 0.56634 -0.25130
 C202 C 0.42038 0.59664 -0.23166
 C203 C 0.40574 0.60729 -0.19068
 C204 C 0.41954 0.64095 -0.18181
 C205 C 0.40755 0.65237 -0.14271
 C206 C 0.38138 0.63035 -0.11132
 C207 C 0.36742 0.59662 -0.12017
 C208 C 0.37955 0.58517 -0.15917
 H209 H 0.39688 0.49492 -0.37928
 H210 H 0.37364 0.51439 -0.31319
 H211 H 0.47244 0.59383 -0.27992
 H212 H 0.49508 0.57517 -0.34714
 H213 H 0.38098 0.54846 -0.23896
 H214 H 0.44386 0.61518 -0.24722
 H215 H 0.43983 0.65857 -0.20518
 H216 H 0.41889 0.67852 -0.13703
 H217 H 0.34744 0.57899 -0.09638
 H218 H 0.36874 0.55903 -0.16344
 C219 C 0.58179 0.11613 -0.37797
 C220 C 0.59572 0.14045 -0.34080
 C221 C 0.57950 0.13687 -0.29421
 C222 C 0.54939 0.10787 -0.28488
 C223 C 0.53543 0.08349 -0.32202
 C224 C 0.55120 0.08734 -0.36945
 C225 C 0.59523 0.16344 -0.25603
 C226 C 0.57812 0.16833 -0.21914
 C227 C 0.59359 0.19513 -0.18125
 C228 C 0.57317 0.20461 -0.15548
 C229 C 0.58641 0.22915 -0.11854
 C230 C 0.62046 0.24469 -0.10626
 C231 C 0.64095 0.23519 -0.13200
 C232 C 0.62768 0.21059 -0.16888
 H233 H 0.59541 0.11957 -0.41308
 H234 H 0.61926 0.16226 -0.34861
 H235 H 0.53663 0.10363 -0.24882
 H236 H 0.51180 0.06185 -0.31400
 H237 H 0.62152 0.18049 -0.26053
 H238 H 0.55133 0.15308 -0.21774
 H239 H 0.54681 0.19296 -0.16395
 H240 H 0.56988 0.23578 -0.09940
 H241 H 0.66722 0.24642 -0.12311
 H242 H 0.64414 0.20335 -0.18656
 C243 C 0.88484 0.46461 -0.37992
 C244 C 0.85998 0.45373 -0.34285
 C245 C 0.86318 0.44012 -0.29705
 C246 C 0.89235 0.43842 -0.28849
 C247 C 0.91725 0.44931 -0.32557
 C248 C 0.91380 0.46234 -0.37211
 C249 C 0.83614 0.42905 -0.25878
 C250 C 0.83093 0.40698 -0.22230
 C251 C 0.80387 0.39572 -0.18398
 C252 C 0.79441 0.36633 -0.15789
 C253 C 0.76972 0.35516 -0.12047
 C254 C 0.75399 0.37325 -0.10802
 C255 C 0.76344 0.40271 -0.13409
 C256 C 0.78821 0.41393 -0.17142
 H257 H 0.88170 0.47549 -0.41440
 H258 H 0.83806 0.45588 -0.35008
 H259 H 0.89637 0.42912 -0.25306
 H260 H 0.93902 0.44692 -0.31818
 H261 H 0.81908 0.43841 -0.26274
 H262 H 0.84618 0.39544 -0.22141
 H263 H 0.80620 0.35193 -0.16647
 H264 H 0.76312 0.33240 -0.10110
 H265 H 0.75207 0.41743 -0.12511
 H266 H 0.79540 0.43721 -0.18929
 C267 C 0.50836 0.42984 -0.32378
 C268 C 0.51865 0.41621 -0.28536
 C269 C 0.54889 0.41623 -0.28943
 C270 C 0.56819 0.42916 -0.33364
 C271 C 0.55778 0.44252 -0.37233
 C272 C 0.52786 0.44341 -0.36778
 C273 C 0.55914 0.40201 -0.24747
 C274 C 0.59109 0.41215 -0.23619
 C275 C 0.60142 0.39881 -0.19305
 C276 C 0.63247 0.41863 -0.17007
 C277 C 0.64311 0.40689 -0.12934
 C278 C 0.62308 0.37482 -0.11117
 C279 C 0.59221 0.35477 -0.13481
 C280 C 0.58148 0.36660 -0.17529
 H281 H 0.48480 0.42932 -0.31945
 H282 H 0.50310 0.40596 -0.25201
 H283 H 0.59119 0.42874 -0.33871
 H284 H 0.57365 0.45302 -0.40531
 H285 H 0.53969 0.38417 -0.22319
 H286 H 0.61057 0.43236 -0.25725
 H287 H 0.64843 0.44341 -0.18340
 H288 H 0.66715 0.42289 -0.11233
 H289 H 0.57627 0.32986 -0.12206
 H290 H 0.55786 0.35027 -0.19309
 C291 C 0.91042 0.48718 0.34125
 C292 C 0.88713 0.47649 0.30170
 C293 C 0.87075 0.44361 0.28639
 C294 C 0.87858 0.42163 0.31099
 C295 C 0.90193 0.43234 0.35047
 C296 C 0.91808 0.46521 0.36599
 C297 C 0.84676 0.43361 0.24352
 C298 C 0.82212 0.40279 0.23632
 C299 C 0.79830 0.39249 0.19311
 C300 C 0.78084 0.35923 0.18000
 C301 C 0.75809 0.34826 0.13970
 C302 C 0.75212 0.37033 0.11165
 C303 C 0.76925 0.40359 0.12517
 C304 C 0.79197 0.41456 0.16554
 H305 H 0.92242 0.51262 0.35270
 H306 H 0.88175 0.49395 0.28317
 H307 H 0.86746 0.39637 0.29921
 H308 H 0.90787 0.41508 0.36839
 H309 H 0.84965 0.45270 0.21753
 H310 H 0.81927 0.38384 0.26264
 H311 H 0.78498 0.34165 0.20082
 H312 H 0.74523 0.32244 0.13052
 H313 H 0.76494 0.42120 0.10481
 H314 H 0.80391 0.44020 0.17533
 C315 C 0.58540 0.10947 0.36935
 C316 C 0.59881 0.13351 0.33157
 C317 C 0.57869 0.13413 0.29195
 C318 C 0.54498 0.10957 0.29001
 C319 C 0.53164 0.08543 0.32771
 C320 C 0.55170 0.08537 0.36778
 C321 C 0.59388 0.16009 0.25272
 C322 C 0.57649 0.17088 0.22592
 C323 C 0.59165 0.19700 0.18688
 C324 C 0.57594 0.21516 0.17493
 C325 C 0.58896 0.23943 0.13741
 C326 C 0.61785 0.24582 0.11056
 C327 C 0.63351 0.22752 0.12241
 C328 C 0.62054 0.20332 0.16002
 H329 H 0.60126 0.10963 0.39991
 H330 H 0.62490 0.15193 0.33360
 H331 H 0.52898 0.10860 0.25916
 H332 H 0.50561 0.06686 0.32582
 H333 H 0.62060 0.17180 0.24799
 H334 H 0.55039 0.16141 0.23436
 H335 H 0.55351 0.21059 0.19477
 H336 H 0.57617 0.25295 0.12912
 H337 H 0.65565 0.23161 0.10221
 H338 H 0.63279 0.18917 0.16695
 C339 C 0.51311 0.43415 0.32652
 C340 C 0.52350 0.42122 0.28739
 C341 C 0.55509 0.42380 0.28887
 C342 C 0.57588 0.43912 0.33114
 C343 C 0.56549 0.45219 0.37017
 C344 C 0.53407 0.44986 0.36809
 C345 C 0.56482 0.40952 0.24633
 C346 C 0.59644 0.41783 0.23570
 C347 C 0.60624 0.40411 0.19243
 C348 C 0.63940 0.42099 0.17574
 C349 C 0.64997 0.40901 0.13547
 C350 C 0.62757 0.37970 0.11093
 C351 C 0.59442 0.36257 0.12791
 C352 C 0.58388 0.37449 0.16837
 H353 H 0.48867 0.43193 0.32443
 H354 H 0.50685 0.40931 0.25565
 H355 H 0.59994 0.44074 0.33482
 H356 H 0.58193 0.46408 0.40213
 H357 H 0.54505 0.39276 0.22149
 H358 H 0.61643 0.43669 0.25788
 H359 H 0.65724 0.44368 0.19380
 H360 H 0.67572 0.42278 0.12355
 H361 H 0.57664 0.33969 0.11033
 H362 H 0.55841 0.36003 0.18101
 C363 C 0.08516 0.51739 0.32951
 C364 C 0.10886 0.52764 0.29069
 C365 C 0.13635 0.55945 0.29062
 C366 C 0.14013 0.58056 0.33128
 C367 C 0.11630 0.57032 0.36996
 C368 C 0.08857 0.53874 0.36919
 C369 C 0.16051 0.56928 0.24797
 C370 C 0.18165 0.60054 0.23540
 C371 C 0.20516 0.61073 0.19181
 C372 C 0.21993 0.64334 0.17520
 C373 C 0.24245 0.65439 0.13472
 C374 C 0.25079 0.63304 0.10974
 C375 C 0.23622 0.60043 0.12644
 C376 C 0.21383 0.58941 0.16721
 H377 H 0.06397 0.49286 0.32847
 H378 H 0.10547 0.51076 0.26024
 H379 H 0.16146 0.60485 0.33387
 H380 H 0.11938 0.58706 0.40047
 H381 H 0.15925 0.54979 0.22470
 H382 H 0.18086 0.61992 0.25632
 H383 H 0.21396 0.66039 0.19357
 H384 H 0.25328 0.67970 0.12296
 H385 H 0.24247 0.58347 0.10847
 H386 H 0.20400 0.56438 0.17954
 C387 C 0.43794 0.92154 0.32943
 C388 C 0.42437 0.89813 0.29085
 C389 C 0.42697 0.86964 0.29281
 C390 C 0.44275 0.86467 0.33517
 C391 C 0.45645 0.88820 0.37364
 C392 C 0.45432 0.91689 0.37091
 C393 C 0.41245 0.84574 0.25048
 C394 C 0.42122 0.82310 0.24000
 C395 C 0.40769 0.79999 0.19650
 C396 C 0.42521 0.78439 0.18017
 C397 C 0.41358 0.76245 0.13943
 C398 C 0.38401 0.75550 0.11401
 C399 C 0.36617 0.77075 0.13073
 C400 C 0.37772 0.79259 0.17167
 H401 H 0.43581 0.94342 0.32687
 H402 H 0.41207 0.90247 0.25905
 H403 H 0.44434 0.84262 0.33926
 H404 H 0.46883 0.88410 0.40556
 H405 H 0.39530 0.84838 0.22550
 H406 H 0.44049 0.82235 0.26238
 H407 H 0.44818 0.78937 0.19880
 H408 H 0.42790 0.75106 0.12771
 H409 H 0.34305 0.76559 0.11248
 H410 H 0.36274 0.80308 0.18398
 C411 C 0.47131 0.58026 0.37222
 C412 C 0.46241 0.59528 0.33406
 C413 C 0.44211 0.57691 0.29326
 C414 C 0.43159 0.54327 0.29067
 C415 C 0.44055 0.52830 0.32878
 C416 C 0.46029 0.54664 0.36991
 C417 C 0.43316 0.59369 0.25354
 C418 C 0.40543 0.57821 0.22528
 C419 C 0.39575 0.59450 0.18576
 C420 C 0.36217 0.57986 0.17147
 C421 C 0.35190 0.59368 0.13339
 C422 C 0.37509 0.62239 0.10820
 C423 C 0.40880 0.63708 0.12236
 C424 C 0.41907 0.62326 0.16065
 H425 H 0.48685 0.59481 0.40352
 H426 H 0.47114 0.62126 0.33665
 H427 H 0.41694 0.52850 0.25894
 H428 H 0.43217 0.50239 0.32619
 H429 H 0.44906 0.61987 0.24967
 H430 H 0.38800 0.55270 0.23285
 H431 H 0.34374 0.55758 0.18990
 H432 H 0.32574 0.58163 0.12344
 H433 H 0.42734 0.65910 0.10353
 H434 H 0.44533 0.63479 0.16951
   
