data_POSCAR
  _audit_creation_date              2014-09-24
  _audit_creation_method            'ToBaCCo'
  _symmetry_space_group_name_H-M    'P1'
  _symmetry_Int_Tables_number       1
  _symmetry_cell_setting            triclinic
  loop_
  _symmetry_equiv_pos_as_xyz
 x,y,z
_cell_length_a 45.4604
_cell_length_b 45.6710
_cell_length_c 45.4467
_cell_angle_alpha 92.458300
_cell_angle_beta 90.227400
_cell_angle_gamma 92.390500
loop_
  _atom_site_label
  _atom_site_type_symbol
  _atom_site_fract_x
  _atom_site_fract_y
  _atom_site_fract_z
C1 C 0.26414 0.23647 0.23012
 C2 C 0.24408 0.25908 0.23018
 C3 C 0.22207 0.26104 0.25170
 C4 C 0.22020 0.23997 0.27331
 C5 C 0.24000 0.21719 0.27365
 C6 C 0.26191 0.21563 0.25197
 H7 H 0.24561 0.27523 0.21342
 H8 H 0.20328 0.24131 0.28996
 H9 H 0.27729 0.19815 0.25213
 C10 C 0.73724 -0.26692 0.22717
 C11 C 0.75755 -0.28954 0.22786
 C12 C 0.77962 -0.28985 0.24987
 C13 C 0.78093 -0.26679 0.27154
 C14 C 0.76124 -0.24403 0.27133
 C15 C 0.73961 -0.24425 0.24926
 H16 H 0.75620 -0.30704 0.21114
 H17 H 0.79791 -0.26574 0.28833
 H18 H 0.72411 -0.22691 0.25010
 C19 C 0.70965 0.26537 0.76150
 C20 C 0.73150 0.28786 0.75926
 C21 C 0.75258 0.28721 0.73646
 C22 C 0.75102 0.26314 0.71585
 C23 C 0.72947 0.24040 0.71792
 C24 C 0.70884 0.24175 0.74072
 H25 H 0.73133 0.30621 0.77509
 H26 H 0.76712 0.26129 0.69850
 H27 H 0.69211 0.22431 0.74231
 C28 C 0.28876 -0.25382 0.76197
 C29 C 0.29002 -0.23123 0.74200
 C30 C 0.26877 -0.23007 0.71966
 C31 C 0.24616 -0.25197 0.71728
 C32 C 0.24407 -0.27488 0.73718
 C33 C 0.26581 -0.27537 0.75946
 H34 H 0.30756 -0.21445 0.74388
 H35 H 0.22965 -0.25031 0.70031
 H36 H 0.26557 -0.29293 0.77468
 C37 C 0.74901 -0.22301 0.78954
 C38 C 0.77004 -0.24454 0.79138
 C39 C 0.79222 -0.24768 0.76992
 C40 C 0.79284 -0.22814 0.74659
 C41 C 0.77206 -0.20636 0.74459
 C42 C 0.75029 -0.20394 0.76621
 H43 H 0.76811 -0.25951 0.80914
 H44 H 0.80985 -0.22918 0.73007
 H45 H 0.73411 -0.18731 0.76474
 C46 C 0.25297 0.25685 0.78439
 C47 C 0.23062 0.27715 0.78605
 C48 C 0.20727 0.27554 0.76565
 C49 C 0.20647 0.25323 0.74334
 C50 C 0.22865 0.23269 0.74129
 C51 C 0.25175 0.23466 0.76201
 H52 H 0.23149 0.29437 0.80322
 H53 H 0.18860 0.25193 0.72744
 H54 H 0.26892 0.21893 0.76066
 C55 C 0.27935 -0.25794 0.23114
 C56 C 0.28038 -0.23567 0.25372
 C57 C 0.25942 -0.23510 0.27634
 C58 C 0.23678 -0.25692 0.27632
 C59 C 0.23504 -0.27929 0.25417
 C60 C 0.25639 -0.27972 0.23190
 H61 H 0.29802 -0.21902 0.25451
 H62 H 0.22048 -0.25652 0.29364
 H63 H 0.25435 -0.29680 0.21471
 C64 C 0.72253 0.23555 0.23029
 C65 C 0.74567 0.25691 0.23069
 C66 C 0.76714 0.25817 0.25310
 C67 C 0.76516 0.23775 0.27536
 C68 C 0.74207 0.21630 0.27538
 C69 C 0.72089 0.21540 0.25276
 H70 H 0.74700 0.27256 0.21346
 H71 H 0.78162 0.23851 0.29270
 H72 H 0.70308 0.19888 0.25260
 O73 O 0.22740 0.03031 0.47747
 O74 O 0.22390 -0.02521 0.53424
 O75 O 0.22645 0.03190 0.53494
 O76 O 0.22299 -0.02668 0.47695
 O77 O 0.27144 -0.02782 0.47712
 O78 O 0.27492 0.03126 0.53527
 O79 O 0.27237 -0.02592 0.53438
 O80 O 0.27585 0.02924 0.47792
 Cu81 Cu 0.22034 0.00271 0.50590
 Cu82 Cu 0.27850 0.00163 0.50622
 C83 C 0.25233 0.03919 0.46792
 C84 C 0.24763 -0.03514 0.54393
 C85 C 0.25118 0.04165 0.54508
 C86 C 0.24653 -0.03736 0.46710
 O87 O 0.72830 0.02445 0.52815
 O88 O 0.72498 -0.03592 0.47215
 O89 O 0.72577 -0.03244 0.52955
 O90 O 0.72933 0.02116 0.47100
 O91 O 0.77778 0.02005 0.47147
 O92 O 0.77425 -0.03307 0.52985
 O93 O 0.77344 -0.03696 0.47237
 O94 O 0.77678 0.02384 0.52869
 Cu95 Cu 0.72224 -0.00566 0.50012
 Cu96 Cu 0.78041 -0.00668 0.50061
 C97 C 0.75301 0.03457 0.53802
 C98 C 0.74854 -0.04681 0.46260
 C99 C 0.74951 -0.04176 0.53986
 C100 C 0.75426 0.02989 0.46134
 O101 O 0.46495 0.22662 0.03197
 O102 O 0.52043 0.22312 -0.02694
 O103 O 0.52223 0.22706 0.03039
 O104 O 0.46313 0.22209 -0.02521
 O105 O 0.46430 0.27033 -0.02664
 O106 O 0.52371 0.27530 0.02894
 O107 O 0.52156 0.27135 -0.02847
 O108 O 0.46651 0.27487 0.03058
 Cu109 Cu 0.49259 0.21989 0.00270
 Cu110 Cu 0.49419 0.27780 0.00094
 C111 C 0.45621 0.25139 0.04134
 C112 C 0.53043 0.24667 -0.03785
 C113 C 0.53307 0.25198 0.03926
 C114 C 0.45348 0.24533 -0.03539
 O115 O 0.53325 0.73944 0.03215
 O116 O 0.47704 0.74130 -0.02654
 O117 O 0.53403 0.73848 -0.02498
 O118 O 0.47600 0.74137 0.03092
 O119 O 0.47998 0.78970 0.03282
 O120 O 0.53817 0.78681 -0.02339
 O121 O 0.48103 0.78963 -0.02457
 O122 O 0.53709 0.78778 0.03376
 Cu123 Cu 0.50459 0.73531 0.00274
 Cu124 Cu 0.50940 0.79332 0.00481
 C125 C 0.54492 0.76336 0.04288
 C126 C 0.46951 0.76584 -0.03568
 C127 C 0.54616 0.76209 -0.03369
 C128 C 0.46810 0.76595 0.04157
 O129 O 0.03090 0.45828 0.19864
 O130 O -0.02643 0.51277 0.19844
 O131 O 0.03092 0.51543 0.19909
 O132 O -0.02634 0.45585 0.19896
 O133 O -0.02626 0.45818 0.24753
 O134 O 0.03120 0.51732 0.24765
 O135 O -0.02616 0.51510 0.24701
 O136 O 0.03104 0.46024 0.24721
 Cu137 Cu 0.00229 0.48539 0.19392
 Cu138 Cu 0.00250 0.48794 0.25221
 C139 C 0.04070 0.44979 0.22292
 C140 C -0.03618 0.52325 0.22266
 C141 C 0.04087 0.52659 0.22343
 C142 C -0.03616 0.44686 0.22327
 O143 O 0.02727 0.53557 0.72793
 O144 O -0.03702 0.48295 0.72784
 O145 O -0.02962 0.53983 0.72655
 O146 O 0.01990 0.47872 0.72582
 O147 O 0.02054 0.47991 0.77437
 O148 O -0.02931 0.54207 0.77511
 O149 O -0.03630 0.48525 0.77640
 O150 O 0.02749 0.53674 0.77649
 Cu151 Cu -0.00496 0.50909 0.72219
 Cu152 Cu -0.00438 0.51115 0.78044
 C153 C 0.03840 0.54505 0.75244
 C154 C -0.04762 0.47515 0.75232
 C155 C -0.03793 0.55157 0.75074
 C156 C 0.02884 0.46881 0.74976
 C157 C 0.31611 0.20564 0.17261
 C158 C 0.33186 0.23104 0.16338
 C159 C 0.32449 0.25843 0.17663
 C160 C 0.30265 0.26000 0.19836
 C161 C 0.28739 0.23462 0.20727
 C162 C 0.29434 0.20751 0.19413
 C163 C 0.33890 0.28421 0.16818
 C164 C 0.36032 0.28366 0.14653
 C165 C 0.36849 0.25706 0.13246
 C166 C 0.35441 0.23024 0.14141
 C167 C 0.36350 0.20356 0.12825
 C168 C 0.38518 0.20299 0.10684
 C169 C 0.39859 0.22889 0.09739
 C170 C 0.39042 0.25634 0.10988
 C171 C 0.40445 0.28194 0.09899
 C172 C 0.42567 0.28017 0.07694
 C173 C 0.43380 0.25297 0.06490
 C174 C 0.42014 0.22739 0.07533
 H175 H 0.31970 0.18396 0.16345
 H176 H 0.29773 0.28110 0.20861
 H177 H 0.28254 0.18759 0.20019
 H178 H 0.33344 0.30520 0.17834
 H179 H 0.37028 0.30464 0.14157
 H180 H 0.35449 0.18248 0.13420
 H181 H 0.39141 0.18193 0.09745
 H182 H 0.39940 0.30375 0.10671
 H183 H 0.43575 0.30034 0.06927
 H184 H 0.42609 0.20618 0.06610
 C185 C 0.68107 0.70656 0.17025
 C186 C 0.66928 0.73296 0.16126
 C187 C 0.68112 0.75952 0.17453
 C188 C 0.70346 0.75939 0.19596
 C189 C 0.71492 0.73301 0.20504
 C190 C 0.70333 0.70664 0.19155
 C191 C 0.67074 0.78628 0.16635
 C192 C 0.64869 0.78745 0.14532
 C193 C 0.63593 0.76169 0.13145
 C194 C 0.64631 0.73395 0.13962
 C195 C 0.63334 0.70819 0.12592
 C196 C 0.61116 0.70936 0.10496
 C197 C 0.60095 0.73615 0.09663
 C198 C 0.61312 0.76275 0.10968
 C199 C 0.60193 0.78930 0.10024
 C200 C 0.57986 0.78929 0.07882
 C201 C 0.56798 0.76295 0.06600
 C202 C 0.57862 0.73642 0.07514
 H203 H 0.67350 0.68529 0.16149
 H204 H 0.71263 0.78029 0.20459
 H205 H 0.71032 0.68556 0.19822
 H206 H 0.67975 0.80670 0.17640
 H207 H 0.64213 0.80911 0.14055
 H208 H 0.63974 0.68653 0.13093
 H209 H 0.60193 0.68896 0.09509
 H210 H 0.60974 0.81057 0.10875
 H211 H 0.57211 0.81015 0.07225
 H212 H 0.56967 0.71586 0.06536
 C213 C 0.65386 0.29429 -0.18381
 C214 C 0.64550 0.26908 -0.16819
 C215 C 0.65862 0.24239 -0.17667
 C216 C 0.67946 0.24138 -0.19940
 C217 C 0.68760 0.26660 -0.21443
 C218 C 0.67450 0.29296 -0.20645
 C219 C 0.65094 0.21678 -0.16245
 C220 C 0.63027 0.21681 -0.14006
 C221 C 0.61649 0.24272 -0.13067
 C222 C 0.62458 0.26940 -0.14466
 C223 C 0.61168 0.29552 -0.13449
 C224 C 0.59138 0.29566 -0.11177
 C225 C 0.58284 0.26983 -0.09832
 C226 C 0.59506 0.24292 -0.10759
 C227 C 0.58511 0.21733 -0.09338
 C228 C 0.56426 0.21864 -0.07091
 C229 C 0.55255 0.24537 -0.06171
 C230 C 0.56201 0.27089 -0.07559
 H231 H 0.64469 0.31537 -0.17943
 H232 H 0.68965 0.22088 -0.20519
 H233 H 0.67991 0.31267 -0.21808
 H234 H 0.66096 0.19633 -0.16879
 H235 H 0.62584 0.19603 -0.13032
 H236 H 0.61700 0.31653 -0.14340
 H237 H 0.58217 0.31630 -0.10471
 H238 H 0.59272 0.19585 -0.09917
 H239 H 0.55730 0.19853 -0.06069
 H240 H 0.55301 0.29173 -0.06882
 C241 C 0.34393 0.71716 -0.18480
 C242 C 0.35349 0.74270 -0.16803
 C243 C 0.34169 0.76969 -0.17553
 C244 C 0.32082 0.77068 -0.19832
 C245 C 0.31131 0.74511 -0.21433
 C246 C 0.32324 0.71845 -0.20745
 C247 C 0.35064 0.79562 -0.16019
 C248 C 0.37124 0.79558 -0.13759
 C249 C 0.38368 0.76938 -0.12910
 C250 C 0.37432 0.74242 -0.14427
 C251 C 0.38585 0.71608 -0.13496
 C252 C 0.40602 0.71598 -0.11197
 C253 C 0.41582 0.74205 -0.09738
 C254 C 0.40499 0.76918 -0.10576
 C255 C 0.41618 0.79499 -0.09047
 C256 C 0.43691 0.79373 -0.06786
 C257 C 0.44727 0.76684 -0.05953
 C258 C 0.43653 0.74105 -0.07442
 H259 H 0.35213 0.69581 -0.18126
 H260 H 0.31157 0.79142 -0.20328
 H261 H 0.31677 0.69843 -0.21987
 H262 H 0.34163 0.81629 -0.16578
 H263 H 0.37666 0.81663 -0.12696
 H264 H 0.37948 0.69489 -0.14478
 H265 H 0.41415 0.69517 -0.10560
 H266 H 0.40969 0.81661 -0.09552
 H267 H 0.44486 0.81406 -0.05685
 H268 H 0.44451 0.72008 -0.06834
 C269 C 0.17283 0.32165 0.27834
 C270 C 0.15981 0.33041 0.25191
 C271 C 0.16839 0.31606 0.22520
 C272 C 0.18865 0.29366 0.22527
 C273 C 0.20098 0.28506 0.25168
 C274 C 0.19298 0.29939 0.27811
 C275 C 0.15664 0.32398 0.19847
 C276 C 0.13648 0.34590 0.19746
 C277 C 0.12696 0.36081 0.22335
 C278 C 0.13864 0.35278 0.25107
 C279 C 0.12853 0.36715 0.27701
 C280 C 0.10783 0.38857 0.27605
 C281 C 0.09640 0.39678 0.24929
 C282 C 0.10590 0.38328 0.22249
 C283 C 0.09380 0.39289 0.19597
 C284 C 0.07295 0.41449 0.19625
 C285 C 0.06336 0.42737 0.22283
 C286 C 0.07535 0.41846 0.24929
 H287 H 0.16817 0.33157 0.29962
 H288 H 0.19446 0.28253 0.20468
 H289 H 0.20261 0.29359 0.29879
 H290 H 0.16312 0.31307 0.17799
 H291 H 0.12854 0.35037 0.17584
 H292 H 0.13594 0.36218 0.29868
 H293 H 0.10065 0.39882 0.29660
 H294 H 0.09993 0.38432 0.17454
 H295 H 0.06420 0.42100 0.17543
 H296 H 0.06824 0.42836 0.27004
 C297 C 0.18320 0.67488 0.70604
 C298 C 0.17263 0.66066 0.73119
 C299 C 0.18668 0.66840 0.75845
 C300 C 0.21025 0.68929 0.76020
 C301 C 0.22058 0.70350 0.73511
 C302 C 0.20652 0.69579 0.70802
 C303 C 0.17705 0.65551 0.78411
 C304 C 0.15347 0.63525 0.78353
 C305 C 0.13843 0.62687 0.75704
 C306 C 0.14850 0.63936 0.73032
 C307 C 0.13412 0.63011 0.70369
 C308 C 0.11052 0.60977 0.70315
 C309 C 0.10001 0.59795 0.72904
 C310 C 0.11370 0.60636 0.75640
 C311 C 0.10178 0.59406 0.78205
 C312 C 0.07759 0.57430 0.78047
 C313 C 0.06427 0.56592 0.75340
 C314 C 0.07569 0.57781 0.72770
 H315 H 0.17397 0.67048 0.68438
 H316 H 0.21941 0.69540 0.78173
 H317 H 0.21408 0.70501 0.68773
 H318 H 0.18780 0.66123 0.80503
 H319 H 0.14778 0.62642 0.80442
 H320 H 0.14067 0.63803 0.68264
 H321 H 0.10023 0.60338 0.68215
 H322 H 0.11030 0.59938 0.80383
 H323 H 0.06927 0.56556 0.80075
 H324 H 0.06549 0.57161 0.70661
 C325 C -0.16634 0.65762 0.27711
 C326 C -0.15706 0.64314 0.25085
 C327 C -0.16986 0.65124 0.22409
 C328 C -0.19097 0.67287 0.22389
 C329 C -0.19979 0.68751 0.25013
 C330 C -0.18709 0.67926 0.27668
 C331 C -0.16132 0.63800 0.19745
 C332 C -0.14004 0.61707 0.19661
 C333 C -0.12637 0.60831 0.22257
 C334 C -0.13537 0.62121 0.25021
 C335 C -0.12237 0.61177 0.27626
 C336 C -0.10108 0.59087 0.27544
 C337 C -0.09164 0.57855 0.24874
 C338 C -0.10402 0.58705 0.22186
 C339 C -0.09323 0.57400 0.19540
 C340 C -0.07136 0.55346 0.19581
 C341 C -0.05938 0.54508 0.22245
 C342 C -0.06972 0.55776 0.24886
 H343 H -0.15801 0.65294 0.29853
 H344 H -0.19921 0.67924 0.20282
 H345 H -0.19383 0.68871 0.29770
 H346 H -0.17109 0.64401 0.17688
 H347 H -0.13494 0.60806 0.17505
 H348 H -0.12822 0.62000 0.29790
 H349 H -0.09177 0.58437 0.29606
 H350 H -0.10097 0.57927 0.17394
 H351 H -0.06379 0.54410 0.17503
 H352 H -0.06059 0.55155 0.26966
 C353 C -0.18990 0.33831 0.70537
 C354 C -0.17913 0.35447 0.73068
 C355 C -0.19212 0.34792 0.75804
 C356 C -0.21471 0.32613 0.75974
 C357 C -0.22509 0.30986 0.73449
 C358 C -0.21225 0.31656 0.70729
 C359 C -0.18233 0.36289 0.78382
 C360 C -0.15961 0.38405 0.78327
 C361 C -0.14557 0.39125 0.75670
 C362 C -0.15581 0.37656 0.72988
 C363 C -0.14230 0.38440 0.70322
 C364 C -0.11932 0.40539 0.70274
 C365 C -0.10865 0.41938 0.72871
 C366 C -0.12158 0.41258 0.75609
 C367 C -0.10964 0.42723 0.78179
 C368 C -0.08597 0.44748 0.78026
 C369 C -0.07324 0.45406 0.75319
 C370 C -0.08487 0.44002 0.72743
 H371 H -0.18159 0.34181 0.68360
 H372 H -0.22297 0.32101 0.78131
 H373 H -0.22004 0.30582 0.68689
 H374 H -0.19227 0.35809 0.80481
 H375 H -0.15367 0.39442 0.80427
 H376 H -0.14898 0.37473 0.68211
 H377 H -0.10963 0.41056 0.68173
 H378 H -0.11773 0.42344 0.80357
 H379 H -0.07753 0.45796 0.80058
 H380 H -0.07517 0.44486 0.70633
 C381 C 0.20822 0.16305 0.32728
 C382 C 0.23362 0.15361 0.34171
 C383 C 0.26135 0.16540 0.33271
 C384 C 0.26326 0.18594 0.31058
 C385 C 0.23787 0.19518 0.29677
 C386 C 0.21041 0.18345 0.30529
 C387 C 0.28713 0.15679 0.34586
 C388 C 0.28623 0.13654 0.36775
 C389 C 0.25928 0.12403 0.37762
 C390 C 0.23250 0.13292 0.36459
 C391 C 0.20553 0.12097 0.37499
 C392 C 0.20464 0.10091 0.39710
 C393 C 0.23047 0.09174 0.40973
 C394 C 0.25821 0.10303 0.40019
 C395 C 0.28370 0.09265 0.41364
 C396 C 0.28160 0.07215 0.43550
 C397 C 0.25414 0.06119 0.44489
 C398 C 0.22863 0.07118 0.43188
 H399 H 0.18627 0.15505 0.33224
 H400 H 0.28462 0.19511 0.30439
 H401 H 0.19046 0.18985 0.29465
 H402 H 0.30837 0.16580 0.33911
 H403 H 0.30726 0.13133 0.37662
 H404 H 0.18447 0.12679 0.36665
 H405 H 0.18337 0.09241 0.40434
 H406 H 0.30570 0.09967 0.40774
 H407 H 0.30173 0.06483 0.44507
 H408 H 0.20723 0.06279 0.43886
 C409 C 0.70117 0.18033 0.66362
 C410 C 0.72730 0.16675 0.65449
 C411 C 0.75428 0.17811 0.66696
 C412 C 0.75479 0.20187 0.68766
 C413 C 0.72873 0.21503 0.69632
 C414 C 0.70199 0.20399 0.68414
 C415 C 0.78071 0.16580 0.65876
 C416 C 0.78118 0.14251 0.63816
 C417 C 0.75504 0.13038 0.62488
 C418 C 0.72761 0.14251 0.63341
 C419 C 0.70140 0.12995 0.62063
 C420 C 0.70186 0.10666 0.60008
 C421 C 0.72834 0.09487 0.59125
 C422 C 0.75538 0.10647 0.60339
 C423 C 0.78158 0.09363 0.59331
 C424 C 0.78076 0.07040 0.57225
 C425 C 0.75393 0.05908 0.56048
 C426 C 0.72781 0.07148 0.57017
 H427 H 0.67969 0.17350 0.65523
 H428 H 0.77559 0.20998 0.69728
 H429 H 0.68157 0.21400 0.69019
 H430 H 0.80138 0.17435 0.66832
 H431 H 0.80260 0.13445 0.63324
 H432 H 0.67992 0.13752 0.62608
 H433 H 0.68113 0.09780 0.59090
 H434 H 0.80314 0.10103 0.60104
 H435 H 0.80131 0.06129 0.56515
 H436 H 0.70686 0.06299 0.56120
 C437 C 0.29784 -0.17382 0.66680
 C438 C 0.27203 -0.15979 0.65846
 C439 C 0.24503 -0.16949 0.67103
 C440 C 0.24421 -0.19206 0.69108
 C441 C 0.26994 -0.20576 0.69892
 C442 C 0.29670 -0.19634 0.68665
 C443 C 0.21888 -0.15674 0.66351
 C444 C 0.21867 -0.13475 0.64338
 C445 C 0.24482 -0.12437 0.62995
 C446 C 0.27203 -0.13676 0.63799
 C447 C 0.29831 -0.12567 0.62535
 C448 C 0.29811 -0.10367 0.60525
 C449 C 0.27180 -0.09186 0.59670
 C450 C 0.24472 -0.10195 0.60881
 C451 C 0.21869 -0.08928 0.59894
 C452 C 0.21971 -0.06764 0.57811
 C453 C 0.24657 -0.05778 0.56635
 C454 C 0.27254 -0.06999 0.57589
 H455 H 0.31928 -0.16828 0.65819
 H456 H 0.22341 -0.19886 0.70079
 H457 H 0.31686 -0.20681 0.69204
 H458 H 0.19821 -0.16398 0.67318
 H459 H 0.19746 -0.12622 0.63898
 H460 H 0.31966 -0.13338 0.63062
 H461 H 0.31888 -0.09593 0.59614
 H462 H 0.19710 -0.09571 0.60658
 H463 H 0.19927 -0.05867 0.57111
 H464 H 0.29352 -0.06265 0.56692
 C465 C 0.79286 -0.18424 0.32423
 C466 C 0.76749 -0.17386 0.33864
 C467 C 0.73983 -0.18705 0.32994
 C468 C 0.73797 -0.20981 0.30814
 C469 C 0.76333 -0.21988 0.29431
 C470 C 0.79071 -0.20682 0.30252
 C471 C 0.71407 -0.17756 0.34303
 C472 C 0.71492 -0.15502 0.36449
 C473 C 0.74180 -0.14102 0.37401
 C474 C 0.76858 -0.15088 0.36117
 C475 C 0.79551 -0.13759 0.37146
 C476 C 0.79637 -0.11528 0.39320
 C477 C 0.77052 -0.10506 0.40552
 C478 C 0.74282 -0.11762 0.39608
 C479 C 0.71730 -0.10600 0.40908
 C480 C 0.71934 -0.08322 0.43052
 C481 C 0.74677 -0.07110 0.43991
 C482 C 0.77230 -0.08221 0.42727
 H483 H 0.81474 -0.17529 0.32891
 H484 H 0.71668 -0.21998 0.30216
 H485 H 0.81062 -0.21385 0.29181
 H486 H 0.69288 -0.18764 0.33652
 H487 H 0.69392 -0.14930 0.37338
 H488 H 0.81658 -0.14408 0.36335
 H489 H 0.81761 -0.10583 0.40039
 H490 H 0.69531 -0.11375 0.40310
 H491 H 0.69919 -0.07506 0.43979
 H492 H 0.79369 -0.07293 0.43422
 C493 C 0.69412 0.80805 -0.15617
 C494 C 0.67836 0.78257 -0.14711
 C495 C 0.68679 0.75511 -0.15937
 C496 C 0.70981 0.75351 -0.17977
 C497 C 0.72504 0.77893 -0.18849
 C498 C 0.71697 0.80615 -0.17651
 C499 C 0.67219 0.72928 -0.15137
 C500 C 0.64930 0.72987 -0.13134
 C501 C 0.63992 0.75653 -0.11837
 C502 C 0.65463 0.78335 -0.12644
 C503 C 0.64508 0.81001 -0.11363
 C504 C 0.62216 0.81057 -0.09358
 C505 C 0.60774 0.78470 -0.08536
 C506 C 0.61632 0.75727 -0.09758
 C507 C 0.60087 0.73172 -0.08833
 C508 C 0.57818 0.73348 -0.06786
 C509 C 0.56992 0.76063 -0.05583
 C510 C 0.58478 0.78619 -0.06481
 H511 H 0.68949 0.82984 -0.14800
 H512 H 0.71560 0.73235 -0.18930
 H513 H 0.72861 0.82612 -0.18271
 H514 H 0.67855 0.70825 -0.16073
 H515 H 0.63939 0.70882 -0.12656
 H516 H 0.65486 0.83107 -0.11862
 H517 H 0.61567 0.83160 -0.08433
 H518 H 0.60572 0.70994 -0.09629
 H519 H 0.56710 0.71332 -0.06137
 H520 H 0.57862 0.80736 -0.05564
 C521 C 0.31431 0.28849 -0.16559
 C522 C 0.32507 0.26326 -0.15276
 C523 C 0.31148 0.23570 -0.16144
 C524 C 0.28809 0.23378 -0.18179
 C525 C 0.27769 0.25900 -0.19409
 C526 C 0.29107 0.28629 -0.18583
 C527 C 0.32120 0.21009 -0.14977
 C528 C 0.34426 0.21102 -0.12963
 C529 C 0.35861 0.23782 -0.12015
 C530 C 0.34873 0.26441 -0.13176
 C531 C 0.36272 0.29125 -0.12184
 C532 C 0.38553 0.29221 -0.10143
 C533 C 0.39553 0.26656 -0.09007
 C534 C 0.38240 0.23895 -0.09928
 C535 C 0.39373 0.21364 -0.08714
 C536 C 0.41674 0.21584 -0.06665
 C537 C 0.42937 0.24321 -0.05747
 C538 C 0.41866 0.26849 -0.06940
 H539 H 0.32338 0.31031 -0.16070
 H540 H 0.27767 0.21256 -0.18780
 H541 H 0.28379 0.30609 -0.19538
 H542 H 0.31086 0.18897 -0.15630
 H543 H 0.35014 0.19014 -0.12180
 H544 H 0.35647 0.31218 -0.12928
 H545 H 0.39549 0.31337 -0.09445
 H546 H 0.38547 0.19172 -0.09295
 H547 H 0.42460 0.19589 -0.05789
 H548 H 0.42830 0.28983 -0.06256
 C549 C 0.32946 0.71431 0.17186
 C550 C 0.34412 0.74030 0.16278
 C551 C 0.33643 0.76708 0.17698
 C552 C 0.31523 0.76754 0.19939
 C553 C 0.30078 0.74153 0.20839
 C554 C 0.30834 0.71498 0.19404
 C555 C 0.34982 0.79347 0.16873
 C556 C 0.37084 0.79400 0.14670
 C557 C 0.37951 0.76797 0.13190
 C558 C 0.36601 0.74063 0.14017
 C559 C 0.37495 0.71454 0.12564
 C560 C 0.39626 0.71500 0.10391
 C561 C 0.40953 0.74137 0.09556
 C562 C 0.40135 0.76830 0.10922
 C563 C 0.41548 0.79440 0.09953
 C564 C 0.43688 0.79357 0.07757
 C565 C 0.44501 0.76684 0.06445
 C566 C 0.43110 0.74083 0.07354
 H567 H 0.33382 0.69290 0.16248
 H568 H 0.30923 0.78862 0.20882
 H569 H 0.29896 0.69413 0.20063
 H570 H 0.34400 0.81406 0.17948
 H571 H 0.38000 0.81537 0.14194
 H572 H 0.36603 0.69314 0.13061
 H573 H 0.40243 0.69436 0.09350
 H574 H 0.41059 0.81589 0.10835
 H575 H 0.44719 0.81405 0.07096
 H576 H 0.43710 0.71997 0.06350
 C577 C 0.66898 0.20548 0.17128
 C578 C 0.65660 0.23114 0.16100
 C579 C 0.66698 0.25851 0.17386
 C580 C 0.68840 0.25981 0.19629
 C581 C 0.70011 0.23415 0.20637
 C582 C 0.69028 0.20707 0.19354
 C583 C 0.65590 0.28451 0.16440
 C584 C 0.63466 0.28415 0.14237
 C585 C 0.62337 0.25756 0.12888
 C586 C 0.63437 0.23059 0.13851
 C587 C 0.62256 0.20397 0.12556
 C588 C 0.60090 0.20357 0.10398
 C589 C 0.59012 0.22957 0.09422
 C590 C 0.60124 0.25699 0.10628
 C591 C 0.58963 0.28266 0.09512
 C592 C 0.56776 0.28096 0.07337
 C593 C 0.55666 0.25376 0.06191
 C594 C 0.56810 0.22815 0.07241
 H595 H 0.66295 0.18378 0.16257
 H596 H 0.69566 0.28088 0.20626
 H597 H 0.69938 0.18693 0.20051
 H598 H 0.66376 0.30548 0.17417
 H599 H 0.62736 0.30529 0.13662
 H600 H 0.62936 0.18280 0.13176
 H601 H 0.59245 0.18255 0.09483
 H602 H 0.59693 0.30445 0.10258
 H603 H 0.55943 0.30114 0.06560
 H604 H 0.55981 0.20693 0.06363
 C605 C -0.15945 0.69596 0.80008
 C606 C -0.14664 0.68353 0.77439
 C607 C -0.15446 0.69497 0.74709
 C608 C -0.17422 0.71772 0.74581
 C609 C -0.18714 0.72981 0.77146
 C610 C -0.17922 0.71845 0.79858
 C611 C -0.14282 0.68350 0.72096
 C612 C -0.12371 0.66066 0.72112
 C613 C -0.11531 0.64818 0.74762
 C614 C -0.12663 0.66006 0.77477
 C615 C -0.11759 0.64806 0.80132
 C616 C -0.09849 0.62510 0.80143
 C617 C -0.08770 0.61295 0.77519
 C618 C -0.09596 0.62422 0.74787
 C619 C -0.08462 0.61079 0.72190
 C620 C -0.06594 0.58745 0.72312
 C621 C -0.05775 0.57649 0.75014
 C622 C -0.06871 0.58943 0.77615
 H623 H -0.15475 0.68887 0.82182
 H624 H -0.18054 0.72478 0.72434
 H625 H -0.18738 0.72754 0.81920
 H626 H -0.14863 0.69224 0.70000
 H627 H -0.11583 0.65339 0.69986
 H628 H -0.12479 0.65596 0.82263
 H629 H -0.09223 0.61665 0.82238
 H630 H -0.08982 0.61751 0.70015
 H631 H -0.05790 0.57792 0.70261
 H632 H -0.06262 0.58110 0.79721
 C633 C -0.17668 0.31728 0.27967
 C634 C -0.16232 0.32504 0.25331
 C635 C -0.17183 0.31003 0.22678
 C636 C -0.19446 0.28815 0.22694
 C637 C -0.20844 0.28085 0.25321
 C638 C -0.19928 0.29561 0.27951
 C639 C -0.15882 0.31692 0.20011
 C640 C -0.13676 0.33875 0.19893
 C641 C -0.12653 0.35459 0.22459
 C642 C -0.13914 0.34724 0.25232
 C643 C -0.12806 0.36223 0.27812
 C644 C -0.10585 0.38392 0.27696
 C645 C -0.09385 0.39181 0.25013
 C646 C -0.10400 0.37742 0.22350
 C647 C -0.09126 0.38677 0.19689
 C648 C -0.06937 0.40915 0.19693
 C649 C -0.05932 0.42305 0.22335
 C650 C -0.07170 0.41418 0.24989
 H651 H -0.17137 0.32775 0.30080
 H652 H -0.20110 0.27661 0.20648
 H653 H -0.21002 0.29077 0.30007
 H654 H -0.16591 0.30540 0.17979
 H655 H -0.12800 0.34247 0.17739
 H656 H -0.13589 0.35759 0.29981
 H657 H -0.09808 0.39476 0.29739
 H658 H -0.09781 0.37753 0.17557
 H659 H -0.06030 0.41560 0.17606
 H660 H -0.06424 0.42485 0.27052
 C661 C 0.15176 0.32840 0.79644
 C662 C 0.14136 0.34144 0.77086
 C663 C 0.15260 0.33138 0.74332
 C664 C 0.17372 0.30981 0.74179
 C665 C 0.18413 0.29758 0.76737
 C666 C 0.17275 0.30693 0.79462
 C667 C 0.14296 0.34304 0.71736
 C668 C 0.12241 0.36463 0.71789
 C669 C 0.11066 0.37574 0.74465
 C670 C 0.12043 0.36410 0.77161
 C671 C 0.10924 0.37579 0.79839
 C672 C 0.08936 0.39807 0.79894
 C673 C 0.07954 0.40956 0.77291
 C674 C 0.08978 0.39840 0.74536
 C675 C 0.07866 0.41054 0.71963
 C676 C 0.05888 0.43304 0.72133
 C677 C 0.04928 0.44435 0.74860
 C678 C 0.05959 0.43232 0.77436
 H679 H 0.14413 0.33413 0.81824
 H680 H 0.18258 0.30298 0.72059
 H681 H 0.18000 0.29745 0.81471
 H682 H 0.15148 0.33542 0.69626
 H683 H 0.11651 0.37239 0.69673
 H684 H 0.11568 0.36845 0.81957
 H685 H 0.08161 0.40646 0.82007
 H686 H 0.08464 0.40323 0.69773
 H687 H 0.05119 0.44171 0.70099
 H688 H 0.05220 0.44076 0.79561
 C689 C 0.18013 0.66282 0.28049
 C690 C 0.16554 0.65274 0.25410
 C691 C 0.17440 0.66586 0.22765
 C692 C 0.19664 0.68816 0.22792
 C693 C 0.21092 0.69771 0.25421
 C694 C 0.20236 0.68486 0.28042
 C695 C 0.16115 0.65665 0.20096
 C696 C 0.13951 0.63430 0.19966
 C697 C 0.12994 0.62026 0.22523
 C698 C 0.14275 0.63004 0.25299
 C699 C 0.13225 0.61691 0.27871
 C700 C 0.11040 0.59475 0.27743
 C701 C 0.09822 0.58451 0.25056
 C702 C 0.10783 0.59691 0.22401
 C703 C 0.09500 0.58517 0.19733
 C704 C 0.07345 0.56245 0.19725
 C705 C 0.06385 0.55058 0.22361
 C706 C 0.07641 0.56177 0.25020
 H707 H 0.17530 0.65390 0.30155
 H708 H 0.20277 0.69823 0.20753
 H709 H 0.21332 0.69149 0.30099
 H710 H 0.16774 0.66673 0.18071
 H711 H 0.13050 0.62875 0.17811
 H712 H 0.14025 0.62342 0.30043
 H713 H 0.10304 0.58541 0.29781
 H714 H 0.10123 0.59275 0.17605
 H715 H 0.06425 0.55418 0.17634
 H716 H 0.06931 0.55268 0.27079
 C717 C 0.80061 -0.15505 0.68677
 C718 C 0.77456 -0.14798 0.67186
 C719 C 0.74750 -0.16045 0.68186
 C720 C 0.74689 -0.17943 0.70537
 C721 C 0.77291 -0.18629 0.71970
 C722 C 0.79968 -0.17386 0.71020
 C723 C 0.72112 -0.15397 0.66837
 C724 C 0.72076 -0.13507 0.64528
 C725 C 0.74699 -0.12195 0.63444
 C726 C 0.77440 -0.12891 0.64763
 C727 C 0.80072 -0.11674 0.63601
 C728 C 0.80040 -0.09809 0.61274
 C729 C 0.77394 -0.09057 0.60012
 C730 C 0.74679 -0.10223 0.61074
 C731 C 0.72062 -0.09338 0.59724
 C732 C 0.72156 -0.07397 0.57428
 C733 C 0.74849 -0.06271 0.56388
 C734 C 0.77459 -0.07123 0.57692
 H735 H 0.82210 -0.14623 0.68121
 H736 H 0.72604 -0.18917 0.71235
 H737 H 0.82007 -0.17835 0.72123
 H738 H 0.70039 -0.16353 0.67587
 H739 H 0.69938 -0.13144 0.63622
 H740 H 0.82219 -0.12137 0.64422
 H741 H 0.82121 -0.08933 0.60461
 H742 H 0.69898 -0.10072 0.60401
 H743 H 0.70102 -0.06770 0.56470
 H744 H 0.79562 -0.06258 0.56920
 C745 C 0.29061 -0.18091 0.33512
 C746 C 0.26537 -0.16625 0.34503
 C747 C 0.23790 -0.17533 0.33199
 C748 C 0.23611 -0.19774 0.30981
 C749 C 0.26136 -0.21171 0.30010
 C750 C 0.28853 -0.20315 0.31308
 C751 C 0.21227 -0.16198 0.34101
 C752 C 0.21308 -0.13977 0.36283
 C753 C 0.23979 -0.12976 0.37656
 C754 C 0.26643 -0.14305 0.36733
 C755 C 0.29322 -0.13254 0.38056
 C756 C 0.29407 -0.11005 0.40211
 C757 C 0.26836 -0.09711 0.41157
 C758 C 0.24080 -0.10678 0.39909
 C759 C 0.21539 -0.09300 0.40983
 C760 C 0.21743 -0.07064 0.43174
 C761 C 0.24474 -0.06109 0.44380
 C762 C 0.27014 -0.07449 0.43356
 H763 H 0.31232 -0.17594 0.34398
 H764 H 0.21499 -0.20402 0.29973
 H765 H 0.30833 -0.21397 0.30638
 H766 H 0.19122 -0.16881 0.33109
 H767 H 0.19219 -0.13076 0.36823
 H768 H 0.31419 -0.14107 0.37462
 H769 H 0.31520 -0.10273 0.41153
 H770 H 0.19350 -0.09897 0.40200
 H771 H 0.19738 -0.06078 0.43924
 H772 H 0.29142 -0.06739 0.44279
 C773 C 0.71081 0.16613 0.33288
 C774 C 0.73595 0.15178 0.34248
 C775 C 0.76343 0.15987 0.32983
 C776 C 0.76531 0.18101 0.30828
 C777 C 0.74013 0.19462 0.29880
 C778 C 0.71297 0.18708 0.31143
 C779 C 0.78896 0.14674 0.33855
 C780 C 0.78804 0.12567 0.35965
 C781 C 0.76132 0.11665 0.37295
 C782 C 0.73479 0.12978 0.36408
 C783 C 0.70799 0.12033 0.37694
 C784 C 0.70704 0.09903 0.39783
 C785 C 0.73265 0.08627 0.40693
 C786 C 0.76021 0.09486 0.39474
 C787 C 0.78550 0.08126 0.40504
 C788 C 0.78338 0.06023 0.42639
 C789 C 0.75609 0.05185 0.43828
 C790 C 0.73078 0.06495 0.42833
 H791 H 0.68911 0.16185 0.34148
 H792 H 0.78641 0.18647 0.29842
 H793 H 0.69323 0.19764 0.30486
 H794 H 0.81001 0.15282 0.32892
 H795 H 0.80887 0.11675 0.36488
 H796 H 0.68709 0.12883 0.37125
 H797 H 0.68591 0.09252 0.40702
 H798 H 0.80737 0.08640 0.39730
 H799 H 0.80335 0.05053 0.43365
 H800 H 0.70952 0.05874 0.43743
 C801 C 0.20028 0.17254 0.68698
 C802 C 0.22616 0.16430 0.67200
 C803 C 0.25305 0.17906 0.68072
 C804 C 0.25365 0.20137 0.70301
 C805 C 0.22780 0.20930 0.71747
 C806 C 0.20120 0.19460 0.70924
 C807 C 0.27931 0.17154 0.66721
 C808 C 0.27970 0.14938 0.64537
 C809 C 0.25362 0.13390 0.63581
 C810 C 0.22631 0.14189 0.64894
 C811 C 0.20006 0.12742 0.63838
 C812 C 0.20037 0.10567 0.61614
 C813 C 0.22677 0.09714 0.60364
 C814 C 0.25385 0.11089 0.61334
 C815 C 0.28000 0.10078 0.60019
 C816 C 0.27908 0.07839 0.57822
 C817 C 0.25219 0.06527 0.56850
 C818 C 0.22613 0.07481 0.58141
 H819 H 0.17897 0.16216 0.68241
 H820 H 0.27436 0.21279 0.70892
 H821 H 0.18097 0.19985 0.72042
 H822 H 0.29991 0.18284 0.67371
 H823 H 0.30096 0.14519 0.63614
 H824 H 0.17863 0.13263 0.64655
 H825 H 0.17961 0.09529 0.60872
 H826 H 0.30160 0.10943 0.60650
 H827 H 0.29959 0.07138 0.56877
 H828 H 0.20515 0.06470 0.57426
   
