data_POSCAR
  _audit_creation_date              2014-09-24
  _audit_creation_method            'ToBaCCo'
  _symmetry_space_group_name_H-M    'P1'
  _symmetry_Int_Tables_number       1
  _symmetry_cell_setting            triclinic
  loop_
  _symmetry_equiv_pos_as_xyz
 x,y,z
_cell_length_a 24.5091
_cell_length_b 24.4578
_cell_length_c 24.2021
_cell_angle_alpha 90.133600
_cell_angle_beta 90.036500
_cell_angle_gamma 89.806700
loop_
  _atom_site_label
  _atom_site_type_symbol
  _atom_site_fract_x
  _atom_site_fract_y
  _atom_site_fract_z
C1 C 0.33371 1.02535 -0.49975
 C2 C 0.34189 1.02673 -0.55571
 C3 C 0.39654 1.01406 -0.56482
 N4 N 0.42140 1.00423 -0.51590
 C5 C 0.38308 1.01080 -0.47621
 C6 C 0.42064 1.00231 -0.61690
 C7 C 0.47780 0.99271 -0.62270
 C8 C 0.50297 0.96874 -0.66822
 C9 C 0.55804 0.96886 -0.65832
 C10 C 0.56603 0.99546 -0.60832
 N11 N 0.51683 1.00956 -0.58674
 C12 C 0.61771 1.00722 -0.58419
 C13 C 0.62193 1.02288 -0.52800
 C14 C 0.66554 1.05084 -0.50482
 C15 C 0.65640 1.05269 -0.44896
 C16 C 0.60744 1.02608 -0.44003
 N17 N 0.58614 1.00828 -0.48837
 C18 C 0.58493 1.01437 -0.38785
 C19 C 0.53030 0.99737 -0.38223
 C20 C 0.50883 0.97085 -0.33666
 C21 C 0.45364 0.96612 -0.34581
 C22 C 0.44304 0.99021 -0.39657
 N23 N 0.49006 1.00884 -0.41861
 C24 C 0.39070 0.99754 -0.41989
 H25 H 0.29520 1.03227 -0.47898
 H26 H 0.31006 1.03398 -0.58570
 H27 H 0.49375 1.03369 -0.45329
 H28 H 0.48443 0.95284 -0.70539
 H29 H 0.58844 0.95121 -0.68542
 H30 H 0.70054 1.06762 -0.52601
 H31 H 0.68292 1.07115 -0.41847
 H32 H 0.42463 0.94751 -0.31796
 H33 H 0.51054 1.03386 -0.55192
 H34 H 0.53060 0.95674 -0.30044
 C35 C -0.48194 1.32443 -0.00974
 C36 C -0.53757 1.32825 -0.01064
 C37 C -0.55047 1.38341 -0.01529
 N38 N -0.50394 1.41315 -0.01588
 C39 C -0.46207 1.37736 -0.01146
 C40 C -0.60415 1.40584 -0.01450
 C41 C -0.61493 1.46304 -0.01925
 C42 C -0.66623 1.48487 -0.03032
 C43 C -0.66127 1.54058 -0.02939
 C44 C -0.60688 1.55185 -0.01909
 N45 N -0.57867 1.50447 -0.01319
 C46 C -0.58592 1.60554 -0.01515
 C47 C -0.53021 1.61904 -0.01924
 C48 C -0.51084 1.67118 -0.02906
 C49 C -0.45525 1.66686 -0.03265
 C50 C -0.44208 1.61257 -0.02212
 N51 N -0.48825 1.58334 -0.01504
 C52 C -0.38851 1.59071 -0.01805
 C53 C -0.37846 1.53427 -0.00740
 C54 C -0.33053 1.51466 0.01600
 C55 C -0.33560 1.45917 0.02021
 C56 C -0.38664 1.44571 -0.00042
 N57 N -0.41276 1.49183 -0.01729
 C58 C -0.40676 1.39141 -0.00234
 H59 H -0.45901 1.28680 -0.00543
 H60 H -0.56462 1.29381 -0.00611
 H61 H -0.44968 1.49378 -0.03841
 H62 H -0.70363 1.46289 -0.03853
 H63 H -0.69396 1.56959 -0.03657
 H64 H -0.53423 1.70826 -0.03507
 H65 H -0.42816 1.70025 -0.04236
 H66 H -0.30525 1.43198 0.03765
 H67 H -0.53854 1.50120 -0.00009
 H68 H -0.29576 1.53813 0.02995
 C69 C -0.08022 0.33962 0.51512
 C70 C -0.07536 0.34162 0.45883
 C71 C -0.04886 0.39009 0.44677
 N72 N -0.03740 0.41795 0.49363
 C73 C -0.05584 0.38662 0.53557
 C74 C -0.02845 0.40388 0.39409
 C75 C -0.01760 0.45883 0.37976
 C76 C 0.01350 0.47565 0.33505
 C77 C 0.01616 0.53171 0.33772
 C78 C -0.01289 0.54758 0.38426
 N79 N -0.03409 0.50306 0.40915
 C80 C -0.01886 0.60207 0.40272
 C81 C -0.03491 0.61579 0.45710
 C82 C -0.04662 0.66840 0.47479
 C83 C -0.04918 0.66663 0.53129
 C84 C -0.03978 0.61268 0.54653
 N85 N -0.03129 0.58168 0.50088
 C86 C -0.02868 0.59463 0.60103
 C87 C -0.02484 0.53831 0.61497
 C88 C -0.00416 0.51787 0.66431
 C89 C -0.00802 0.46201 0.66175
 C90 C -0.03273 0.44942 0.61177
 N91 N -0.04343 0.49625 0.58384
 C92 C -0.04341 0.39590 0.59194
 H93 H -0.09743 0.30628 0.53865
 H94 H -0.08805 0.31025 0.42997
 H95 H -0.06536 0.49947 0.54710
 H96 H 0.03376 0.45034 0.30457
 H97 H 0.03848 0.55761 0.30952
 H98 H -0.05008 0.70485 0.44973
 H99 H -0.05472 0.70183 0.55777
 H100 H 0.00690 0.43421 0.69300
 H101 H -0.06053 0.50309 0.44286
 H102 H 0.01245 0.54043 0.69887
 O103 O -0.14573 0.99306 -0.05389
 O104 O 0.13232 1.00257 -0.09527
 O105 O -0.01961 1.06721 -0.14272
 O106 O -0.00884 0.92102 -0.14082
 O107 O 0.01054 0.85738 -0.07326
 O108 O -0.01544 1.13723 -0.07886
 O109 O 0.05664 0.99400 -0.15140
 O110 O -0.08996 0.99477 -0.13064
 Zr111 Zr -0.01006 0.99560 -0.09662
 O112 O 0.04928 0.95108 -0.05637
 O113 O -0.05644 1.04274 -0.04385
 C114 C -0.13742 0.99618 -0.10664
 C115 C 0.10886 0.99605 -0.14297
 C116 C -0.01866 1.11842 -0.12916
 C117 C 0.00273 0.87201 -0.12407
 H118 H 0.06132 1.07342 -0.08442
 O119 O 0.04194 1.04969 -0.05793
 H120 H -0.07256 0.91981 -0.06424
 O121 O -0.04855 0.94433 -0.04274
 O122 O 0.15286 1.00859 0.05318
 O123 O -0.12459 0.98708 0.09393
 O124 O 0.06570 1.14363 -0.00744
 O125 O 0.08636 0.86305 -0.00625
 O126 O -0.05819 0.85282 0.00854
 O127 O -0.08167 1.13304 0.00466
 O128 O 0.02102 1.07585 0.13682
 O129 O 0.02758 0.92918 0.14096
 O130 O 0.00426 1.14163 0.07080
 O131 O 0.01961 0.86018 0.07634
 O132 O 0.13742 1.08272 -0.01686
 O133 O -0.14101 1.06131 0.01977
 O134 O -0.13051 0.91293 0.01638
 O135 O 0.14806 0.93328 -0.01862
 O136 O 0.09596 1.00740 0.12927
 O137 O -0.04899 0.99466 0.15018
 Zr138 Zr 0.09888 1.00504 -0.01468
 Zr139 Zr -0.09164 0.99089 0.01329
 Zr140 Zr -0.00437 1.09466 -0.00275
 Zr141 Zr 0.01054 0.90277 0.00076
 Zr142 Zr 0.01685 1.00108 0.09470
 O143 O -0.03511 0.94623 0.05711
 O144 O 0.05522 1.05257 0.04033
 C145 C 0.14364 1.00781 0.10594
 C146 C -0.10096 0.98892 0.14194
 C147 C 0.11716 1.13160 -0.01070
 C148 C 0.13527 0.88211 -0.01204
 C149 C -0.10978 0.86400 0.01149
 C150 C -0.12963 1.11284 0.01466
 C151 C 0.01592 1.12611 0.12083
 C152 C 0.02644 0.87820 0.12638
 H153 H -0.06324 1.06749 0.08149
 O154 O -0.04220 1.04540 0.05461
 H155 H 0.08928 0.93296 0.06314
 O156 O 0.06228 0.95430 0.04189
 C157 C 0.31543 1.02137 0.27349
 C158 C 0.31484 0.96965 0.25122
 C159 C 0.34751 0.92736 0.27062
 C160 C 0.38248 0.93881 0.31490
 C161 C 0.38576 0.99234 0.33766
 C162 C 0.35143 1.03421 0.31637
 O163 O 0.27857 1.05458 0.25094
 C164 C 0.25446 1.02309 0.21338
 C165 C 0.27582 0.97095 0.21162
 C166 C 0.25733 0.93103 0.17539
 C167 C 0.21479 0.94528 0.13965
 C168 C 0.19092 0.99801 0.14157
 C169 C 0.21084 1.03775 0.17893
 H170 H 0.34512 0.88662 0.25326
 H171 H 0.40649 0.90570 0.33213
 H172 H 0.35240 1.07530 0.33312
 H173 H 0.27490 0.89037 0.17473
 H174 H 0.19936 0.91491 0.11122
 H175 H 0.19288 1.07820 0.18118
 C176 C -0.28077 1.00677 0.30022
 C177 C -0.23752 0.98144 0.32579
 C178 C -0.23917 0.96434 0.38035
 C179 C -0.28758 0.97329 0.40979
 C180 C -0.33340 0.99969 0.38490
 C181 C -0.32910 1.01707 0.32902
 O182 O -0.27080 1.01913 0.24776
 C183 C -0.22011 1.00119 0.24021
 C184 C -0.19786 0.97809 0.28686
 C185 C -0.14497 0.95753 0.28868
 C186 C -0.11351 0.96123 0.24049
 C187 C -0.13552 0.98450 0.19159
 C188 C -0.18987 1.00437 0.19143
 H189 H -0.20469 0.94400 0.39939
 H190 H -0.28981 0.95808 0.45172
 H191 H -0.36210 1.03863 0.30868
 H192 H -0.12836 0.93969 0.32599
 H193 H -0.07210 0.94562 0.24115
 H194 H -0.20762 1.02268 0.15490
 C195 C -0.29821 0.99945 -0.28613
 C196 C -0.31834 1.02914 -0.24233
 C197 C -0.36874 1.05535 -0.24349
 C198 C -0.39986 1.05070 -0.29187
 C199 C -0.38061 1.01955 -0.33743
 C200 C -0.32895 0.99346 -0.33433
 O201 O -0.24894 0.97857 -0.27664
 C202 C -0.23787 0.99532 -0.22559
 C203 C -0.27931 1.02605 -0.20277
 C204 C -0.27712 1.04703 -0.14952
 C205 C -0.23028 1.03595 -0.11836
 C206 C -0.18645 1.00493 -0.14091
 C207 C -0.19021 0.98457 -0.19557
 H208 H -0.38344 1.07881 -0.20853
 H209 H -0.43903 1.07122 -0.29397
 H210 H -0.31335 0.96924 -0.36837
 H211 H -0.31032 1.07101 -0.13251
 H212 H -0.22775 1.05245 -0.07686
 H213 H -0.15749 0.96075 -0.21377
 C214 C 0.28703 1.00579 -0.30385
 C215 C 0.24926 0.96835 -0.32200
 C216 C 0.25563 0.93850 -0.37054
 C217 C 0.30276 0.94786 -0.40190
 C218 C 0.34173 0.98731 -0.38497
 C219 C 0.33374 1.01650 -0.33498
 O220 O 0.27354 1.02894 -0.25602
 C221 C 0.22608 1.00578 -0.24390
 C222 C 0.20929 0.96876 -0.28324
 C223 C 0.16031 0.94057 -0.27963
 C224 C 0.12724 0.95089 -0.23352
 C225 C 0.14393 0.98817 -0.19180
 C226 C 0.19428 1.01586 -0.19700
 H227 H 0.22556 0.90887 -0.38363
 H228 H 0.30889 0.92472 -0.43961
 H229 H 0.36296 1.04663 -0.32100
 H230 H 0.14792 0.91178 -0.31122
 H231 H 0.08907 0.92899 -0.22975
 H232 H 0.20788 1.04464 -0.16588
 C233 C 0.29516 1.29116 -0.02511
 C234 C 0.26081 1.30545 0.01739
 C235 C 0.26873 1.35125 0.05029
 C236 C 0.31417 1.38384 0.03917
 C237 C 0.35060 1.37094 -0.00483
 C238 C 0.34031 1.32376 -0.03773
 O239 O 0.28003 1.24544 -0.05081
 C240 C 0.23507 1.23082 -0.02387
 C241 C 0.22160 1.26663 0.01793
 C242 C 0.17565 1.26064 0.05075
 C243 C 0.14186 1.21593 0.04005
 C244 C 0.15472 1.17780 -0.00234
 C245 C 0.20241 1.18498 -0.03456
 H246 H 0.24113 1.36131 0.08372
 H247 H 0.32146 1.41905 0.06539
 H248 H 0.36608 1.31328 -0.07253
 H249 H 0.16593 1.28957 0.08322
 H250 H 0.10581 1.21059 0.06534
 H251 H 0.21295 1.15661 -0.06729
 C252 C 0.31565 0.72508 -0.02759
 C253 C 0.29536 0.72560 0.02540
 C254 C 0.31304 0.69002 0.06634
 C255 C 0.35330 0.65191 0.05214
 C256 C 0.37456 0.64975 -0.00220
 C257 C 0.35562 0.68689 -0.04284
 O258 O 0.29165 0.76174 -0.06025
 C259 C 0.25530 0.78555 -0.02709
 C260 C 0.25599 0.76439 0.02559
 C261 C 0.21947 0.78013 0.06640
 C262 C 0.18027 0.81924 0.05241
 C263 C 0.17911 0.84280 -0.00101
 C264 C 0.21729 0.82610 -0.04155
 H265 H 0.29599 0.69115 0.10756
 H266 H 0.36739 0.62323 0.08311
 H267 H 0.37072 0.68522 -0.08484
 H268 H 0.22026 0.76199 0.10714
 H269 H 0.15046 0.83126 0.08325
 H270 H 0.21611 0.84261 -0.08301
 C271 C -0.29087 0.70665 0.00265
 C272 C -0.24942 0.68943 -0.03136
 C273 C -0.25168 0.64164 -0.06224
 C274 C -0.29876 0.60983 -0.05791
 C275 C -0.34260 0.62571 -0.02276
 C276 C -0.33808 0.67513 0.00821
 O277 O -0.27986 0.75365 0.02828
 C278 C -0.23022 0.76610 0.00996
 C279 C -0.21003 0.72765 -0.02632
 C280 C -0.15878 0.73098 -0.04998
 C281 C -0.12669 0.77586 -0.03586
 C282 C -0.14606 0.81688 0.00111
 C283 C -0.19904 0.81220 0.02410
 H284 H -0.21835 0.62925 -0.08882
 H285 H -0.30130 0.57271 -0.08230
 H286 H -0.36946 0.68778 0.03704
 H287 H -0.14396 0.70007 -0.07837
 H288 H -0.08683 0.77912 -0.05487
 H289 H -0.21497 0.84282 0.05220
 C290 C -0.29003 1.28940 -0.00530
 C291 C -0.29993 1.26130 0.04283
 C292 C -0.34249 1.27445 0.07845
 C293 C -0.37663 1.31810 0.06363
 C294 C -0.36854 1.34656 0.01330
 C295 C -0.32419 1.33237 -0.02138
 O296 O -0.24706 1.27044 -0.03290
 C297 C -0.22973 1.22927 -0.00167
 C298 C -0.26107 1.22176 0.04487
 C299 C -0.25174 1.17977 0.08230
 C300 C -0.20834 1.14393 0.07132
 C301 C -0.17482 1.15129 0.02422
 C302 C -0.18537 1.19482 -0.01267
 H303 H -0.34912 1.25196 0.11630
 H304 H -0.40999 1.32936 0.09074
 H305 H -0.31693 1.35391 -0.05970
 H306 H -0.27730 1.17442 0.11832
 H307 H -0.20032 1.11078 0.09981
 H308 H -0.16066 1.20079 -0.04923
 C309 C -0.00827 1.31255 0.27166
 C310 C 0.02580 1.27423 0.29488
 C311 C 0.04270 1.27618 0.34951
 C312 C 0.02380 1.31956 0.38194
 C313 C -0.01068 1.36078 0.35935
 C314 C -0.02638 1.35741 0.30287
 O315 O -0.02284 1.29990 0.22015
 C316 C 0.00283 1.25266 0.21093
 C317 C 0.03350 1.23584 0.25540
 C318 C 0.06202 1.18687 0.25651
 C319 C 0.05774 1.15279 0.21041
 C320 C 0.02465 1.16754 0.16450
 C321 C -0.00212 1.21906 0.16410
 H322 H 0.06872 1.24478 0.36691
 H323 H 0.03686 1.32160 0.42468
 H324 H -0.05362 1.38734 0.28470
 H325 H 0.08573 1.17468 0.29219
 H326 H 0.07921 1.11400 0.21123
 H327 H -0.02814 1.23113 0.13005
 C328 C -0.04105 1.29966 -0.28746
 C329 C -0.01007 1.25844 -0.31002
 C330 C 0.01045 1.25984 -0.36330
 C331 C -0.00129 1.30586 -0.39516
 C332 C -0.03349 1.34972 -0.37389
 C333 C -0.05350 1.34630 -0.31870
 O334 O -0.05669 1.28903 -0.23581
 C335 C -0.03492 1.23998 -0.22593
 C336 C -0.00611 1.21995 -0.27039
 C337 C 0.01950 1.16947 -0.27066
 C338 C 0.01491 1.13759 -0.22329
 C339 C -0.01495 1.15624 -0.17651
 C340 C -0.03968 1.20879 -0.17740
 H341 H 0.03500 1.22673 -0.37973
 H342 H 0.01609 1.30786 -0.43625
 H343 H -0.07877 1.37832 -0.30115
 H344 H 0.04197 1.15490 -0.30629
 H345 H 0.03498 1.09805 -0.22310
 H346 H -0.06271 1.22402 -0.14242
 C347 C -0.02920 0.70969 -0.29823
 C348 C 0.02450 0.70835 -0.28173
 C349 C 0.06234 0.67162 -0.30309
 C350 C 0.04404 0.63436 -0.34293
 C351 C -0.01150 0.63370 -0.35983
 C352 C -0.04853 0.67246 -0.33742
 O353 O -0.05834 0.74779 -0.27230
 C354 C -0.02223 0.77074 -0.23855
 C355 C 0.02897 0.74776 -0.24260
 C356 C 0.07254 0.76372 -0.20960
 C357 C 0.06290 0.80497 -0.17056
 C358 C 0.01076 0.82968 -0.16603
 C359 C -0.03242 0.81280 -0.20072
 H360 H 0.10444 0.67163 -0.28956
 H361 H 0.07302 0.60567 -0.36055
 H362 H -0.09112 0.67286 -0.34940
 H363 H 0.11226 0.74459 -0.21323
 H364 H 0.09600 0.81795 -0.14391
 H365 H -0.07270 0.83082 -0.19728
 C366 C -0.00485 0.69938 0.28213
 C367 C 0.03813 0.73080 0.30016
 C368 C 0.06427 0.72212 0.35036
 C369 C 0.04530 0.67928 0.38344
 C370 C 0.00051 0.64679 0.36627
 C371 C -0.02468 0.65674 0.31464
 O372 O -0.02465 0.71547 0.23370
 C373 C 0.00636 0.75808 0.22107
 C374 C 0.04527 0.76918 0.26053
 C375 C 0.08031 0.81361 0.25727
 C376 C 0.07446 0.84859 0.21187
 C377 C 0.03457 0.83817 0.17074
 C378 C 0.00062 0.79174 0.17488
 H379 H 0.09791 0.74752 0.36365
 H380 H 0.06515 0.67145 0.42265
 H381 H -0.05888 0.63242 0.30071
 H382 H 0.11017 0.82179 0.28918
 H383 H 0.10057 0.88413 0.20893
 H384 H -0.03085 0.78365 0.14454
   
