data_POSCAR
  _audit_creation_date              2014-09-24
  _audit_creation_method            'ToBaCCo'
  _symmetry_space_group_name_H-M    'P1'
  _symmetry_Int_Tables_number       1
  _symmetry_cell_setting            triclinic
  loop_
  _symmetry_equiv_pos_as_xyz
 x,y,z
_cell_length_a 45.3167
_cell_length_b 44.6585
_cell_length_c 24.5020
_cell_angle_alpha 89.852000
_cell_angle_beta 90.107600
_cell_angle_gamma 119.188400
loop_
  _atom_site_label
  _atom_site_type_symbol
  _atom_site_fract_x
  _atom_site_fract_y
  _atom_site_fract_z
O1 O 0.55075 1.03192 0.55042
 O2 O 0.51149 0.96453 0.44545
 O3 O 0.54834 1.03097 0.44419
 O4 O 0.51551 0.96526 0.55165
 O5 O 0.46862 0.96868 0.55536
 O6 O 0.50218 1.03562 0.44854
 O7 O 0.46525 0.96916 0.44915
 O8 O 0.50388 1.03535 0.55479
 Cu9 Cu 0.53616 0.99775 0.49754
 Cu10 Cu 0.48032 1.00259 0.50239
 C11 C 0.53388 1.04508 0.57069
 C12 C 0.48166 0.95550 0.42909
 C13 C 0.53105 1.04466 0.42779
 C14 C 0.48650 0.95565 0.57196
 O15 O -0.03750 0.45955 0.44848
 O16 O 0.02815 0.48867 0.55497
 O17 O -0.03749 0.45982 0.55477
 O18 O 0.02816 0.48830 0.44868
 O19 O 0.03205 0.53949 0.44858
 O20 O -0.03439 0.51061 0.55354
 O21 O 0.03127 0.53952 0.55486
 O22 O -0.03360 0.51069 0.44723
 Cu23 Cu -0.00503 0.46898 0.50180
 Cu24 Cu -0.00082 0.53018 0.50098
 C25 C -0.04676 0.48015 0.42934
 C26 C 0.04087 0.51905 0.57331
 C27 C -0.04729 0.48027 0.57242
 C28 C 0.04140 0.51880 0.43050
 O29 O 0.50805 0.54199 0.55346
 O30 O 0.53887 0.50497 0.44863
 O31 O 0.50883 0.54184 0.44717
 O32 O 0.53834 0.50512 0.55493
 O33 O 0.48900 0.45783 0.55413
 O34 O 0.45916 0.49484 0.44727
 O35 O 0.48919 0.45798 0.44785
 O36 O 0.45866 0.49465 0.55355
 Cu37 Cu 0.52848 0.52820 0.50118
 Cu38 Cu 0.46904 0.47160 0.50076
 C39 C 0.47807 0.52466 0.57147
 C40 C 0.51922 0.47521 0.43001
 C41 C 0.47896 0.52460 0.42866
 C42 C 0.51882 0.47510 0.57296
 O43 O 0.37381 0.66321 -0.06584
 O44 O 0.37917 0.72312 -0.04720
 C45 C 0.35839 0.72986 -0.07204
 O46 O 0.32739 0.71601 -0.05946
 O47 O 0.26928 0.66186 -0.04040
 C48 C 0.26286 0.63547 -0.06865
 O49 O 0.27717 0.61757 -0.06025
 O50 O 0.33107 0.61134 -0.04686
 C51 C 0.35661 0.63138 -0.07538
 O52 O 0.37713 0.65306 0.04234
 O53 O 0.37979 0.71168 0.06102
 C54 C 0.36570 0.72921 0.07356
 O55 O 0.33977 0.72635 0.04868
 O56 O 0.28291 0.67062 0.06769
 C57 C 0.26585 0.63877 0.07741
 O58 O 0.26842 0.61644 0.04877
 O59 O 0.32416 0.61368 0.06213
 C60 C 0.35572 0.62791 0.07071
 Cr61 Cr 0.37563 0.68695 -0.00232
 Cr62 Cr 0.30568 0.69266 0.00401
 Cr63 Cr 0.30121 0.61662 0.00093
 O64 O 0.32753 0.66544 0.00085
 O65 O 0.62139 0.33662 -0.06298
 O66 O 0.61640 0.27670 -0.04563
 C67 C 0.63666 0.27008 -0.07209
 O68 O 0.66790 0.28386 -0.06105
 O69 O 0.72637 0.33789 -0.04352
 C70 C 0.73252 0.36448 -0.07115
 O71 O 0.71845 0.38243 -0.06140
 O72 O 0.66468 0.38844 -0.04548
 C73 C 0.63866 0.36842 -0.07304
 O74 O 0.61990 0.34641 0.04552
 O75 O 0.61766 0.28776 0.06288
 C76 C 0.63204 0.27024 0.07388
 O77 O 0.65746 0.27321 0.04740
 O78 O 0.71463 0.32884 0.06494
 C79 C 0.73159 0.36064 0.07505
 O80 O 0.72855 0.38311 0.04731
 O81 O 0.67312 0.38598 0.06322
 C82 C 0.64171 0.37166 0.07312
 Cr83 Cr 0.62070 0.31271 -0.00003
 Cr84 Cr 0.69075 0.30701 0.00191
 Cr85 Cr 0.69519 0.38310 0.00091
 O86 O 0.66887 0.33426 0.00092
 C87 C 0.49446 0.91685 -0.36299
 C88 C 0.48270 0.89223 -0.32152
 C89 C 0.44980 0.87906 -0.30105
 C90 C 0.42898 0.89157 -0.32231
 C91 C 0.44082 0.91636 -0.36367
 C92 C 0.47368 0.92922 -0.38455
 C93 C 0.43876 0.85337 -0.25640
 C94 C 0.40629 0.83046 -0.24662
 C95 C 0.39503 0.80472 -0.20189
 C96 C 0.36117 0.78940 -0.18505
 C97 C 0.34928 0.76510 -0.14308
 C98 C 0.37098 0.75537 -0.11701
 C99 C 0.40476 0.77025 -0.13441
 C100 C 0.41665 0.79453 -0.17650
 H101 H 0.51998 0.92634 -0.37791
 H102 H 0.49934 0.88328 -0.30554
 H103 H 0.40385 0.88292 -0.30643
 H104 H 0.42429 0.92558 -0.37910
 H105 H 0.45849 0.85335 -0.23157
 H106 H 0.38675 0.83059 -0.27192
 H107 H 0.34387 0.79649 -0.20415
 H108 H 0.32306 0.75406 -0.13093
 H109 H 0.42205 0.76303 -0.11570
 H110 H 0.44259 0.80465 -0.18931
 C111 C 0.07918 0.50901 -0.36450
 C112 C 0.10374 0.51995 -0.32354
 C113 C 0.11682 0.55279 -0.30064
 C114 C 0.10433 0.57437 -0.31923
 C115 C 0.07983 0.56344 -0.36031
 C116 C 0.06700 0.53067 -0.38344
 C117 C 0.14262 0.56284 -0.25681
 C118 C 0.16267 0.59528 -0.24040
 C119 C 0.18820 0.60470 -0.19643
 C120 C 0.19804 0.63513 -0.16728
 C121 C 0.22213 0.64507 -0.12567
 C122 C 0.23724 0.62493 -0.11268
 C123 C 0.22781 0.59474 -0.14253
 C124 C 0.20363 0.58475 -0.18400
 H125 H 0.06977 0.48356 -0.38134
 H126 H 0.11266 0.50268 -0.30982
 H127 H 0.11276 0.59944 -0.30181
 H128 H 0.07071 0.58062 -0.37362
 H129 H 0.14510 0.54234 -0.23758
 H130 H 0.16023 0.61601 -0.25868
 H131 H 0.18682 0.65114 -0.17643
 H132 H 0.22897 0.66861 -0.10381
 H133 H 0.23919 0.57880 -0.13402
 H134 H 0.19768 0.56177 -0.20679
 C135 C 0.48620 0.57322 -0.36784
 C136 C 0.47443 0.58722 -0.32811
 C137 C 0.44183 0.56802 -0.30616
 C138 C 0.42135 0.53411 -0.32437
 C139 C 0.43311 0.52013 -0.36418
 C140 C 0.46564 0.53953 -0.38642
 C141 C 0.43088 0.58407 -0.26345
 C142 C 0.39857 0.57236 -0.24862
 C143 C 0.38830 0.58840 -0.20506
 C144 C 0.35810 0.56804 -0.17674
 C145 C 0.34770 0.58197 -0.13485
 C146 C 0.36713 0.61678 -0.12077
 C147 C 0.39695 0.63740 -0.15013
 C148 C 0.40742 0.62342 -0.19186
 H149 H 0.51142 0.58884 -0.38401
 H150 H 0.49086 0.61328 -0.31461
 H151 H 0.39651 0.51789 -0.30753
 H152 H 0.41676 0.49398 -0.37725
 H153 H 0.45059 0.60659 -0.24358
 H154 H 0.37864 0.54969 -0.26766
 H155 H 0.34272 0.54110 -0.18652
 H156 H 0.32446 0.56540 -0.11339
 H157 H 0.41236 0.66438 -0.14075
 H158 H 0.43019 0.64027 -0.21404
 C159 C 0.58285 0.08471 -0.37043
 C160 C 0.59691 0.10996 -0.33008
 C161 C 0.57765 0.12306 -0.30536
 C162 C 0.54367 0.10981 -0.32123
 C163 C 0.52966 0.08468 -0.36161
 C164 C 0.54907 0.07187 -0.38675
 C165 C 0.59350 0.14945 -0.26210
 C166 C 0.58167 0.17047 -0.24676
 C167 C 0.59670 0.19602 -0.20229
 C168 C 0.57621 0.20691 -0.17568
 C169 C 0.58912 0.23085 -0.13342
 C170 C 0.62305 0.24481 -0.11716
 C171 C 0.64380 0.23440 -0.14448
 C172 C 0.63082 0.21030 -0.18662
 H173 H 0.59844 0.07529 -0.38884
 H174 H 0.62302 0.11942 -0.31829
 H175 H 0.52742 0.11808 -0.30200
 H176 H 0.50344 0.07504 -0.37275
 H177 H 0.61576 0.15138 -0.24244
 H178 H 0.55946 0.16865 -0.26636
 H179 H 0.54994 0.19656 -0.18727
 H180 H 0.57248 0.23846 -0.11358
 H181 H 0.67014 0.24487 -0.13334
 H182 H 0.64777 0.20348 -0.20727
 C183 C 0.91619 0.49145 -0.36723
 C184 C 0.89145 0.48056 -0.32662
 C185 C 0.87735 0.44733 -0.30478
 C186 C 0.88896 0.42524 -0.32408
 C187 C 0.91362 0.43604 -0.36481
 C188 C 0.92764 0.46932 -0.38700
 C189 C 0.85157 0.43739 -0.26100
 C190 C 0.83067 0.40486 -0.24579
 C191 C 0.80558 0.39542 -0.20121
 C192 C 0.79508 0.36431 -0.17356
 C193 C 0.77150 0.35433 -0.13126
 C194 C 0.75753 0.37511 -0.11606
 C195 C 0.76756 0.40600 -0.14444
 C196 C 0.79129 0.41606 -0.18659
 H197 H 0.92632 0.51729 -0.38300
 H198 H 0.88322 0.49823 -0.31229
 H199 H 0.87975 0.39981 -0.30741
 H200 H 0.92189 0.41827 -0.37844
 H201 H 0.84998 0.45802 -0.24064
 H202 H 0.83217 0.38400 -0.26540
 H203 H 0.80543 0.34779 -0.18438
 H204 H 0.76416 0.33024 -0.11060
 H205 H 0.75705 0.42246 -0.13415
 H206 H 0.79782 0.43965 -0.20813
 C207 C 0.50918 0.42762 -0.36621
 C208 C 0.52064 0.41362 -0.32579
 C209 C 0.55343 0.43238 -0.30443
 C210 C 0.57445 0.46591 -0.32387
 C211 C 0.56305 0.47992 -0.36440
 C212 C 0.53026 0.46098 -0.38626
 C213 C 0.56408 0.41633 -0.26106
 C214 C 0.59638 0.42741 -0.24673
 C215 C 0.60648 0.41142 -0.20266
 C216 C 0.63719 0.43152 -0.17545
 C217 C 0.64764 0.41761 -0.13343
 C218 C 0.62776 0.38304 -0.11810
 C219 C 0.59734 0.36267 -0.14619
 C220 C 0.58681 0.37666 -0.18805
 H221 H 0.48373 0.41215 -0.38169
 H222 H 0.50379 0.38787 -0.31130
 H223 H 0.59949 0.48184 -0.30751
 H224 H 0.58002 0.50580 -0.37824
 H225 H 0.54418 0.39434 -0.24032
 H226 H 0.61650 0.44953 -0.26671
 H227 H 0.65298 0.45825 -0.18631
 H228 H 0.67134 0.43398 -0.11299
 H229 H 0.58157 0.33587 -0.13580
 H230 H 0.56358 0.35998 -0.20931
 C231 C 0.91845 0.49191 0.36567
 C232 C 0.89416 0.48113 0.32430
 C233 C 0.87893 0.44737 0.30478
 C234 C 0.88897 0.42461 0.32687
 C235 C 0.91338 0.43538 0.36810
 C236 C 0.92848 0.46920 0.38818
 C237 C 0.85381 0.43740 0.26005
 C238 C 0.82949 0.40498 0.25111
 C239 C 0.80444 0.39461 0.20604
 C240 C 0.78672 0.35986 0.19118
 C241 C 0.76302 0.34877 0.14886
 C242 C 0.75638 0.37223 0.12043
 C243 C 0.77368 0.40693 0.13585
 C244 C 0.79730 0.41800 0.17828
 H245 H 0.92947 0.51818 0.37968
 H246 H 0.88711 0.49925 0.30763
 H247 H 0.87868 0.39871 0.31169
 H248 H 0.92052 0.41714 0.38390
 H249 H 0.85555 0.45790 0.23436
 H250 H 0.82786 0.38473 0.27744
 H251 H 0.79144 0.34121 0.21211
 H252 H 0.75006 0.32182 0.13824
 H253 H 0.76885 0.42561 0.11532
 H254 H 0.80934 0.44478 0.18940
 C255 C 0.52565 0.08573 0.36772
 C256 C 0.53855 0.11039 0.32619
 C257 C 0.57012 0.11967 0.30244
 C258 C 0.58822 0.10354 0.32069
 C259 C 0.57550 0.07909 0.36232
 C260 C 0.54396 0.06971 0.38644
 C261 C 0.58458 0.14496 0.25739
 C262 C 0.57712 0.17022 0.24882
 C263 C 0.59197 0.19573 0.20396
 C264 C 0.57540 0.21390 0.18785
 C265 C 0.58837 0.23812 0.14577
 C266 C 0.61839 0.24485 0.11892
 C267 C 0.63532 0.22710 0.13565
 C268 C 0.62242 0.20298 0.17783
 H269 H 0.50119 0.07911 0.38485
 H270 H 0.52333 0.12146 0.31212
 H271 H 0.61247 0.11003 0.30281
 H272 H 0.59042 0.06739 0.37523
 H273 H 0.60252 0.14265 0.23115
 H274 H 0.55915 0.17238 0.27524
 H275 H 0.55213 0.20913 0.20759
 H276 H 0.57475 0.25144 0.13412
 H277 H 0.65876 0.23200 0.11641
 H278 H 0.63682 0.19067 0.19015
 C279 C 0.50919 0.42869 0.36341
 C280 C 0.52033 0.41523 0.32189
 C281 C 0.55384 0.43311 0.30331
 C282 C 0.57597 0.46514 0.32666
 C283 C 0.56478 0.47867 0.36807
 C284 C 0.53127 0.46060 0.38691
 C285 C 0.56419 0.41813 0.25823
 C286 C 0.59628 0.42555 0.24944
 C287 C 0.60693 0.41094 0.20406
 C288 C 0.64119 0.42746 0.18922
 C289 C 0.65253 0.41479 0.14679
 C290 C 0.62980 0.38513 0.11824
 C291 C 0.59556 0.36828 0.13354
 C292 C 0.58425 0.38089 0.17608
 H293 H 0.48316 0.41418 0.37677
 H294 H 0.50270 0.39067 0.30429
 H295 H 0.60166 0.48029 0.31231
 H296 H 0.58235 0.50345 0.38500
 H297 H 0.54423 0.40009 0.23206
 H298 H 0.61602 0.44348 0.27612
 H299 H 0.65928 0.45045 0.21032
 H300 H 0.67911 0.42833 0.13628
 H301 H 0.57745 0.34510 0.11292
 H302 H 0.55787 0.36654 0.18717
 C303 C 0.07672 0.50700 0.36458
 C304 C 0.10131 0.51768 0.32377
 C305 C 0.11786 0.55185 0.30570
 C306 C 0.10882 0.57510 0.32867
 C307 C 0.08411 0.56439 0.36933
 C308 C 0.06781 0.53023 0.38780
 C309 C 0.14323 0.56178 0.26144
 C310 C 0.16843 0.59397 0.25391
 C311 C 0.19352 0.60444 0.20899
 C312 C 0.21208 0.63937 0.19542
 C313 C 0.23568 0.65057 0.15303
 C314 C 0.24141 0.62703 0.12324
 C315 C 0.22335 0.59212 0.13747
 C316 C 0.19980 0.58092 0.17997
 H317 H 0.06453 0.48046 0.37767
 H318 H 0.10756 0.49919 0.30639
 H319 H 0.12010 0.60137 0.31461
 H320 H 0.07762 0.58285 0.38606
 H321 H 0.14084 0.54147 0.23479
 H322 H 0.17070 0.61400 0.28121
 H323 H 0.20802 0.65810 0.21734
 H324 H 0.24923 0.67768 0.14336
 H325 H 0.22746 0.57335 0.11584
 H326 H 0.18706 0.55394 0.19009
 C327 C 0.43398 0.92099 0.36491
 C328 C 0.41920 0.89658 0.32365
 C329 C 0.43569 0.87937 0.30302
 C330 C 0.46771 0.88756 0.32396
 C331 C 0.48259 0.91214 0.36511
 C332 C 0.46587 0.92910 0.38608
 C333 C 0.41921 0.85420 0.25844
 C334 C 0.42536 0.82822 0.24844
 C335 C 0.40917 0.80305 0.20362
 C336 C 0.42440 0.78379 0.18671
 C337 C 0.41030 0.75984 0.14464
 C338 C 0.38044 0.75442 0.11854
 C339 C 0.36484 0.77328 0.13598
 C340 C 0.37892 0.79721 0.17817
 H341 H 0.42048 0.93370 0.37991
 H342 H 0.39468 0.89099 0.30793
 H343 H 0.48176 0.87573 0.30794
 H344 H 0.50731 0.91802 0.38023
 H345 H 0.40106 0.85729 0.23380
 H346 H 0.44341 0.82524 0.27359
 H347 H 0.44751 0.78749 0.20585
 H348 H 0.42294 0.74567 0.13247
 H349 H 0.34159 0.76944 0.11723
 H350 H 0.36559 0.81050 0.19100
 C351 C 0.48935 0.57125 0.36165
 C352 C 0.47842 0.58473 0.31965
 C353 C 0.44508 0.56673 0.30029
 C354 C 0.42295 0.53451 0.32321
 C355 C 0.43391 0.52097 0.36510
 C356 C 0.46722 0.53919 0.38484
 C357 C 0.43482 0.58178 0.25497
 C358 C 0.40271 0.57430 0.24608
 C359 C 0.39182 0.58878 0.20061
 C360 C 0.35735 0.57259 0.18710
 C361 C 0.34564 0.58517 0.14491
 C362 C 0.36819 0.61443 0.11523
 C363 C 0.40268 0.63090 0.12902
 C364 C 0.41439 0.61835 0.17133
 H365 H 0.51523 0.58587 0.37570
 H366 H 0.49606 0.60943 0.30236
 H367 H 0.39742 0.51925 0.30821
 H368 H 0.41633 0.49606 0.38173
 H369 H 0.45480 0.59992 0.22892
 H370 H 0.38306 0.55642 0.27298
 H371 H 0.33935 0.54994 0.20913
 H372 H 0.31889 0.57190 0.13557
 H373 H 0.42067 0.65374 0.10743
 H374 H 0.44097 0.63240 0.18123
   
