data_POSCAR
  _audit_creation_date              2014-09-24
  _audit_creation_method            'ToBaCCo'
  _symmetry_space_group_name_H-M    'P1'
  _symmetry_Int_Tables_number       1
  _symmetry_cell_setting            triclinic
  loop_
  _symmetry_equiv_pos_as_xyz
 x,y,z
_cell_length_a 16.5695
_cell_length_b 16.5695
_cell_length_c 29.7969
_cell_angle_alpha 90.000000
_cell_angle_beta 90.000000
_cell_angle_gamma 120.000000
loop_
  _atom_site_label
  _atom_site_type_symbol
  _atom_site_fract_x
  _atom_site_fract_y
  _atom_site_fract_z
Zn1 Zn 0.94090 0.06193 1.02016
 Zn2 Zn 1.12103 0.05910 1.02016
 Zn3 Zn 0.93807 -0.12103 1.02016
 Zn4 Zn 1.00000 -0.00000 0.93935
 O5 O 1.00000 -0.00000 1.00019
 O6 O 1.01493 0.16018 1.05419
 O7 O 1.14525 -0.01493 1.05419
 O8 O 0.83982 -0.14525 1.05419
 O9 O 1.14814 0.15900 1.05449
 O10 O 0.84100 -0.01086 1.05449
 O11 O 1.01086 -0.14814 1.05449
 O12 O 0.94491 -0.11379 0.91598
 O13 O 1.20589 0.09892 0.97547
 O14 O 0.89303 -0.20589 0.97547
 O15 O 1.11379 0.05871 0.91598
 O16 O 0.94129 0.05509 0.91598
 O17 O 0.90108 0.10697 0.97547
 C18 C 1.09896 0.19437 1.06664
 C19 C 1.09541 -0.09896 1.06664
 C20 C 0.80563 -0.09541 1.06664
 C21 C 0.90150 -0.19430 0.93327
 C22 C 1.19430 0.09580 0.93327
 C23 C 0.90420 0.09850 0.93327
 Zn24 Zn 0.05910 0.93807 0.52016
 Zn25 Zn -0.12103 0.94090 0.52016
 Zn26 Zn 0.06193 1.12103 0.52016
 Zn27 Zn 0.00000 1.00000 0.43935
 O28 O -0.00000 1.00000 0.50019
 O29 O -0.01493 0.83982 0.55419
 O30 O -0.14525 1.01493 0.55419
 O31 O 0.16018 1.14525 0.55419
 O32 O -0.14814 0.84100 0.55449
 O33 O 0.15900 1.01086 0.55449
 O34 O -0.01086 1.14814 0.55449
 O35 O 0.05509 1.11379 0.41598
 O36 O -0.20589 0.90108 0.47547
 O37 O 0.10697 1.20589 0.47547
 O38 O -0.11379 0.94129 0.41598
 O39 O 0.05871 0.94491 0.41598
 O40 O 0.09892 0.89303 0.47547
 C41 C -0.09896 0.80563 0.56664
 C42 C -0.09541 1.09896 0.56664
 C43 C 0.19437 1.09541 0.56664
 C44 C 0.09850 1.19430 0.43327
 C45 C -0.19430 0.90420 0.43327
 C46 C 0.09580 0.90150 0.43327
 O47 O 0.19489 0.50307 0.28668
 O48 O 0.19731 0.65994 0.30291
 C49 C 0.23829 0.74723 0.30943
 O50 O 0.30818 0.80511 0.28668
 O51 O 0.46263 0.80269 0.30291
 C52 C 0.50894 0.76171 0.30943
 O53 O 0.49693 0.69182 0.28668
 O54 O 0.34006 0.53737 0.30291
 C55 C 0.25277 0.49106 0.30943
 O56 O 0.19822 0.53441 0.19837
 O57 O 0.19201 0.68692 0.21358
 C58 C 0.24905 0.75805 0.19111
 O59 O 0.33619 0.80178 0.19837
 O60 O 0.49491 0.80799 0.21358
 C61 C 0.50901 0.75095 0.19111
 O62 O 0.46559 0.66381 0.19837
 O63 O 0.31308 0.50509 0.21358
 C64 C 0.24195 0.49099 0.19111
 Cr65 Cr 0.20059 0.59878 0.25043
 Cr66 Cr 0.39818 0.79941 0.25043
 Cr67 Cr 0.40122 0.60182 0.25043
 O68 O 0.33333 0.66667 0.25015
 O69 O 0.80511 0.49693 0.78668
 O70 O 0.80269 0.34006 0.80291
 C71 C 0.76171 0.25277 0.80943
 O72 O 0.69182 0.19489 0.78668
 O73 O 0.53737 0.19731 0.80291
 C74 C 0.49106 0.23829 0.80943
 O75 O 0.50307 0.30818 0.78668
 O76 O 0.65994 0.46263 0.80291
 C77 C 0.74723 0.50894 0.80943
 O78 O 0.80178 0.46559 0.69837
 O79 O 0.80799 0.31308 0.71358
 C80 C 0.75095 0.24195 0.69111
 O81 O 0.66381 0.19822 0.69837
 O82 O 0.50509 0.19201 0.71358
 C83 C 0.49099 0.24905 0.69111
 O84 O 0.53441 0.33619 0.69837
 O85 O 0.68692 0.49491 0.71358
 C86 C 0.75805 0.50901 0.69111
 Cr87 Cr 0.79941 0.40122 0.75043
 Cr88 Cr 0.60182 0.20059 0.75043
 Cr89 Cr 0.59878 0.39818 0.75043
 O90 O 0.66667 0.33333 0.75015
 N91 N 0.08981 0.31834 0.10733
 C92 C 0.13890 0.27539 0.09675
 N93 N 0.22324 0.30569 0.11626
 N94 N 0.25669 0.37561 0.14566
 C95 C 0.20733 0.41815 0.15648
 N96 N 0.12347 0.38858 0.13658
 N97 N 0.68166 0.77147 0.10733
 C98 C 0.72461 0.86351 0.09675
 N99 N 0.69431 0.91755 0.11626
 N100 N 0.62439 0.88108 0.14566
 C101 C 0.58185 0.78918 0.15648
 N102 N 0.61142 0.73489 0.13658
 N103 N 0.22853 0.91019 0.10733
 C104 C 0.13649 0.86110 0.09675
 N105 N 0.08245 0.77676 0.11626
 N106 N 0.11892 0.74331 0.14566
 C107 C 0.21082 0.79267 0.15648
 N108 N 0.26511 0.87653 0.13658
 N109 N 0.77676 0.69431 0.61626
 C110 C 0.86110 0.72461 0.59675
 N111 N 0.91019 0.68166 0.60733
 N112 N 0.87653 0.61142 0.63658
 C113 C 0.79267 0.58185 0.65648
 N114 N 0.74331 0.62439 0.64566
 N115 N 0.30569 0.08245 0.61626
 C116 C 0.27539 0.13649 0.59675
 N117 N 0.31834 0.22853 0.60733
 N118 N 0.38858 0.26511 0.63658
 C119 C 0.41815 0.21082 0.65648
 N120 N 0.37561 0.11892 0.64566
 N121 N 0.77147 0.08981 0.60733
 C122 C 0.86351 0.13890 0.59675
 N123 N 0.91755 0.22324 0.61626
 N124 N 0.88108 0.25669 0.64566
 C125 C 0.78918 0.20733 0.65648
 N126 N 0.73489 0.12347 0.63658
 N127 N 0.27030 0.17756 0.86452
 C128 C 0.27453 0.13613 0.90295
 N129 N 0.35096 0.12804 0.91094
 N130 N 0.42049 0.15993 0.88118
 C131 C 0.41613 0.20196 0.84281
 N132 N 0.34020 0.21076 0.83527
 N133 N 0.90726 0.72970 0.86452
 C134 C 0.86160 0.72547 0.90295
 N135 N 0.77708 0.64904 0.91094
 N136 N 0.73944 0.57951 0.88118
 C137 C 0.78582 0.58387 0.84281
 N138 N 0.87056 0.65980 0.83527
 N139 N 0.82244 0.09274 0.86452
 C140 C 0.86387 0.13840 0.90295
 N141 N 0.87196 0.22292 0.91094
 N142 N 0.84007 0.26056 0.88118
 C143 C 0.79804 0.21418 0.84281
 N144 N 0.78924 0.12944 0.83527
 N145 N 0.72970 0.82244 0.36452
 C146 C 0.72547 0.86387 0.40295
 N147 N 0.64904 0.87196 0.41094
 N148 N 0.57951 0.84007 0.38118
 C149 C 0.58387 0.79804 0.34281
 N150 N 0.65980 0.78924 0.33527
 N151 N 0.09274 0.27030 0.36452
 C152 C 0.13840 0.27453 0.40295
 N153 N 0.22292 0.35096 0.41094
 N154 N 0.26056 0.42049 0.38118
 C155 C 0.21418 0.41613 0.34281
 N156 N 0.12944 0.34020 0.33527
 N157 N 0.12804 0.77708 0.41094
 C158 C 0.13613 0.86160 0.40295
 N159 N 0.17756 0.90726 0.36452
 N160 N 0.21076 0.87056 0.33527
 C161 C 0.20196 0.78582 0.34281
 N162 N 0.15993 0.73944 0.38118
   
