data_POSCAR
  _audit_creation_date              2014-09-24
  _audit_creation_method            'ToBaCCo'
  _symmetry_space_group_name_H-M    'P1'
  _symmetry_Int_Tables_number       1
  _symmetry_cell_setting            triclinic
  loop_
  _symmetry_equiv_pos_as_xyz
 x,y,z
_cell_length_a 21.4284
_cell_length_b 21.2429
_cell_length_c 21.5730
_cell_angle_alpha 91.919300
_cell_angle_beta 91.383600
_cell_angle_gamma 90.186300
loop_
  _atom_site_label
  _atom_site_type_symbol
  _atom_site_fract_x
  _atom_site_fract_y
  _atom_site_fract_z
C1 C 0.00933 0.50434 0.26106
 C2 C 0.02426 0.48936 0.74819
 C3 C 0.24580 0.00260 0.51320
 C4 C 0.76588 0.00694 0.49485
 C5 C 0.48148 0.25423 0.98737
 C6 C 0.47912 0.74664 1.00190
 B7 B 0.98046 1.06274 0.05062
 B8 B 1.02291 0.99726 0.07154
 B9 B 0.94234 0.99528 0.07144
 B10 B 0.91469 1.03725 0.00870
 B11 B 0.97941 1.06562 -0.02944
 B12 B 1.04546 1.04104 0.00963
 B13 B 0.98063 0.93357 -0.03774
 B14 B 0.93917 0.99966 -0.05818
 B15 B 1.01932 1.00134 -0.05869
 B16 B 1.04665 0.95930 0.00285
 B17 B 0.98263 0.93103 0.04280
 B18 B 0.91530 0.95647 0.00306
 B19 B 0.58469 0.50281 0.45987
 B20 B 0.58317 0.50593 0.53963
 B21 B 0.55913 0.57049 0.49680
 B22 B 0.51882 0.54251 0.43171
 B23 B 0.52070 0.46068 0.43165
 B24 B 0.55849 0.43795 0.49898
 B25 B 0.45250 0.50439 0.53363
 B26 B 0.45392 0.50190 0.45312
 B27 B 0.47850 0.43717 0.49434
 B28 B 0.51719 0.46632 0.56185
 B29 B 0.51745 0.54746 0.56130
 B30 B 0.47748 0.57012 0.49669
 C31 C 0.97829 1.31250 0.18400
 C32 C 1.02212 1.32470 0.23184
 C33 C 1.02136 1.38301 0.26326
 C34 C 0.99246 1.43610 0.23593
 C35 C 0.95092 1.42357 0.18519
 C36 C 0.94191 1.36202 0.16134
 C37 C 0.97666 1.24836 0.15558
 C38 C 0.92255 1.22325 0.12862
 C39 C 0.92306 1.16323 0.10172
 C40 C 0.97876 1.12797 0.09444
 C41 C 1.03291 1.15372 0.12466
 C42 C 1.02989 1.21019 0.16050
 C43 C 1.07028 1.28126 0.24299
 C44 C 1.07684 1.22732 0.20433
 H45 H 1.10592 1.29163 0.27839
 H46 H 1.11689 1.19710 0.21117
 H47 H 1.05129 1.38894 0.30422
 H48 H 0.92558 1.46033 0.16273
 H49 H 0.88004 1.15055 0.08010
 H50 H 1.07634 1.12833 0.12442
 H51 H 0.90989 1.35422 0.12225
 H52 H 0.87940 1.24965 0.12849
 C53 C 0.98902 0.67300 0.15166
 C54 C 1.04832 0.64542 0.15944
 C55 C 1.05393 0.58622 0.18558
 C56 C 1.00162 0.55479 0.20935
 C57 C 0.94226 0.57781 0.19081
 C58 C 0.93599 0.63650 0.16339
 C59 C 0.98588 0.73986 0.13152
 C60 C 0.93149 0.77628 0.13281
 C61 C 0.93223 0.83796 0.11142
 C62 C 0.98440 0.86363 0.08196
 C63 C 1.04005 0.83256 0.09715
 C64 C 1.04167 0.77043 0.11700
 C65 C 1.10227 0.67839 0.14420
 C66 C 1.09899 0.73954 0.12320
 H67 H 1.14788 0.65708 0.14972
 H68 H 1.14205 0.76324 0.11234
 H69 H 1.10053 0.56779 0.19119
 H70 H 0.90004 0.55428 0.20421
 H71 H 0.89082 0.86561 0.11846
 H72 H 1.08331 0.85532 0.09352
 H73 H 0.88948 0.65395 0.15425
 H74 H 0.88874 0.75851 0.15136
 C75 C 1.01582 1.31097 -0.15576
 C76 C 0.99984 1.36732 -0.12311
 C77 C 1.00417 1.42568 -0.15194
 C78 C 1.02425 1.42852 -0.21350
 C79 C 1.04530 1.37178 -0.24252
 C80 C 1.04139 1.31456 -0.21439
 C81 C 1.00515 1.24945 -0.12659
 C82 C 1.01076 1.19140 -0.15878
 C83 C 0.99995 1.13517 -0.12945
 C84 C 0.98350 1.13314 -0.06644
 C85 C 0.97560 1.19276 -0.03645
 C86 C 0.98510 1.24983 -0.06533
 C87 C 0.97946 1.36466 -0.06207
 C88 C 0.97343 1.30714 -0.03333
 H89 H 0.96812 1.40752 -0.03616
 H90 H 0.95784 1.30746 0.01410
 H91 H 0.99104 1.46782 -0.12626
 H92 H 1.06200 1.37099 -0.28953
 H93 H 1.00002 1.09408 -0.15922
 H94 H 0.96119 1.19715 0.00905
 H95 H 1.05786 1.27364 -0.23993
 H96 H 1.02138 1.18813 -0.20740
 C97 C 1.01109 0.67689 -0.15878
 C98 C 0.96141 0.63324 -0.15556
 C99 C 0.96745 0.57161 -0.18141
 C100 C 1.02265 0.55217 -0.21122
 C101 C 1.07231 0.59677 -0.21084
 C102 C 1.06700 0.65678 -0.18450
 C103 C 1.00231 0.74305 -0.13478
 C104 C 1.04618 0.79125 -0.14235
 C105 C 1.03721 0.85125 -0.11592
 C106 C 0.98464 0.86655 -0.08011
 C107 C 0.93823 0.81936 -0.07985
 C108 C 0.94648 0.75841 -0.10539
 C109 C 0.90585 0.65206 -0.12755
 C110 C 0.89880 0.71310 -0.10237
 H111 H 0.86743 0.61906 -0.12468
 H112 H 0.85527 0.72510 -0.08037
 H113 H 0.92784 0.53974 -0.18143
 H114 H 1.11588 0.58841 -0.23334
 H115 H 1.07528 0.88373 -0.12025
 H116 H 0.89329 0.82999 -0.06463
 H117 H 1.10723 0.68724 -0.18621
 H118 H 1.08854 0.78364 -0.16745
 C119 C 1.15539 0.99610 0.32554
 C120 C 1.12694 1.03008 0.37493
 C121 C 1.15400 1.03078 0.43578
 C122 C 1.21044 0.99883 0.44857
 C123 C 1.24032 0.96988 0.39714
 C124 C 1.21291 0.96708 0.33765
 C125 C 1.12450 0.99516 0.26169
 C126 C 1.14508 0.95789 0.21102
 C127 C 1.11434 0.95883 0.15269
 C128 C 1.06210 0.99754 0.14078
 C129 C 1.04266 1.03487 0.19284
 C130 C 1.07166 1.03293 0.25221
 C131 C 1.07274 1.06480 0.36257
 C132 C 1.04664 1.06731 0.30254
 H133 H 1.05077 1.09153 0.39967
 H134 H 1.00545 1.09596 0.29563
 H135 H 1.13188 1.05760 0.47266
 H136 H 1.28605 0.94903 0.40267
 H137 H 1.13601 0.93260 0.11571
 H138 H 1.00153 1.06331 0.18945
 H139 H 1.23846 0.94347 0.30124
 H140 H 1.18508 0.92749 0.21545
 C141 C 1.13971 1.00471 -0.31210
 C142 C 1.19986 1.03155 -0.31444
 C143 C 1.23265 1.02938 -0.37036
 C144 C 1.20519 1.00595 -0.42711
 C145 C 1.14442 0.98059 -0.42446
 C146 C 1.11237 0.97975 -0.36809
 C147 C 1.10841 1.00424 -0.24983
 C148 C 1.05248 0.97223 -0.24015
 C149 C 1.02686 0.97106 -0.18107
 C150 C 1.05432 1.00203 -0.12781
 C151 C 1.10885 1.03723 -0.13933
 C152 C 1.13742 1.03583 -0.19802
 C153 C 1.22688 1.06103 -0.26100
 C154 C 1.19569 1.06470 -0.20475
 H155 H 1.27270 1.08254 -0.26291
 H156 H 1.21858 1.08874 -0.16528
 H157 H 1.28019 1.04700 -0.36981
 H158 H 1.12185 0.95983 -0.46563
 H159 H 0.98640 0.94228 -0.17775
 H160 H 1.12945 1.06705 -0.10358
 H161 H 1.06607 0.95953 -0.36921
 H162 H 1.02869 0.94597 -0.27740
 C163 C 0.87659 1.02573 0.33792
 C164 C 0.83747 1.07643 0.35435
 C165 C 0.81503 1.08104 0.41449
 C166 C 0.81946 1.02812 0.45214
 C167 C 0.87310 0.99121 0.44339
 C168 C 0.90070 0.98841 0.38549
 C169 C 0.88876 1.01338 0.27118
 C170 C 0.92296 0.96168 0.25010
 C171 C 0.93636 0.95438 0.18773
 C172 C 0.91227 0.99454 0.14174
 C173 C 0.87392 1.04344 0.16426
 C174 C 0.86357 1.05448 0.22750
 C175 C 0.81662 1.11826 0.30966
 C176 C 0.82927 1.10730 0.24719
 H177 H 0.78742 1.15790 0.32262
 H178 H 0.81080 1.13980 0.21373
 H179 H 0.78835 1.12203 0.42805
 H180 H 0.89181 0.96244 0.47957
 H181 H 0.97396 0.92262 0.17939
 H182 H 0.85429 1.07648 0.13435
 H183 H 0.93792 0.95510 0.37814
 H184 H 0.94395 0.92895 0.28153
 C185 C 0.83303 1.00451 -0.31318
 C186 C 0.80261 0.95087 -0.33913
 C187 C 0.77927 0.95185 -0.40004
 C188 C 0.79318 1.00245 -0.43872
 C189 C 0.82847 1.05336 -0.41305
 C190 C 0.84745 1.05481 -0.35098
 C191 C 0.85065 1.00482 -0.24660
 C192 C 0.86321 1.06050 -0.21293
 C193 C 0.88377 1.05844 -0.15183
 C194 C 0.89810 1.00155 -0.12339
 C195 C 0.87505 0.94637 -0.15461
 C196 C 0.85008 0.94789 -0.21526
 C197 C 0.79713 0.89645 -0.30434
 C198 C 0.82340 0.89401 -0.24446
 H199 H 0.77481 0.85451 -0.32461
 H200 H 0.82104 0.85027 -0.22014
 H201 H 0.74977 0.91303 -0.41608
 H202 H 0.83913 1.09352 -0.44061
 H203 H 0.88985 1.10288 -0.12942
 H204 H 0.87616 0.90229 -0.13260
 H205 H 0.87402 1.09514 -0.33328
 H206 H 0.85640 1.10603 -0.23297
 C207 C 1.29726 1.16428 0.00366
 C208 C 1.30280 1.22399 -0.02182
 C209 C 1.36193 1.25118 -0.02706
 C210 C 1.41761 1.21789 -0.01247
 C211 C 1.41093 1.15501 0.00551
 C212 C 1.35176 1.12918 0.01488
 C213 C 1.23315 1.13958 0.01411
 C214 C 1.22196 1.08842 0.05097
 C215 C 1.16210 1.06307 0.05362
 C216 C 1.11107 1.08434 0.01745
 C217 C 1.12187 1.14204 -0.01174
 C218 C 1.18156 1.16997 -0.01286
 C219 C 1.24933 1.25557 -0.04296
 C220 C 1.19019 1.22778 -0.04110
 H221 H 1.25355 1.30116 -0.06359
 H222 H 1.15063 1.25246 -0.06083
 H223 H 1.36458 1.29948 -0.04147
 H224 H 1.45051 1.12511 0.01345
 H225 H 1.15990 1.02046 0.07650
 H226 H 1.08691 1.16486 -0.03762
 H227 H 1.34921 1.08120 0.02981
 H228 H 1.25942 1.06602 0.07633
 C229 C 0.65954 1.15159 -0.01043
 C230 C 0.61577 1.13999 0.03543
 C231 C 0.55804 1.17208 0.03454
 C232 C 0.54015 1.21016 -0.01581
 C233 C 0.58296 1.21364 -0.06491
 C234 C 0.64136 1.18586 -0.06180
 C235 C 0.72358 1.12558 -0.00363
 C236 C 0.77401 1.15018 -0.03483
 C237 C 0.83334 1.12508 -0.02719
 C238 C 0.84505 1.07151 0.00779
 C239 C 0.79387 1.04972 0.04233
 C240 C 0.73472 1.07862 0.03942
 C241 C 0.63038 1.09591 0.08073
 C242 C 0.68744 1.06327 0.08049
 H243 H 0.59660 1.08503 0.11540
 H244 H 0.69585 1.02804 0.11486
 H245 H 0.52773 1.16856 0.07375
 H246 H 0.57431 1.24051 -0.10569
 H247 H 0.86948 1.15040 -0.04771
 H248 H 0.79941 1.00953 0.07137
 H249 H 0.67210 1.19158 -0.10025
 H250 H 0.76884 1.19099 -0.06310
 C251 C 1.29292 0.83161 -0.01393
 C252 C 1.34574 0.86893 -0.02598
 C253 C 1.40605 0.84336 -0.02054
 C254 C 1.41459 0.78010 -0.00424
 C255 C 1.36052 0.74577 0.01108
 C256 C 1.30142 0.77059 0.00630
 C257 C 1.22989 0.85983 -0.01863
 C258 C 1.17487 0.82495 -0.01278
 C259 C 1.11780 0.85547 -0.00936
 C260 C 1.11299 0.92159 -0.00916
 C261 C 1.16672 0.95275 -0.02909
 C262 C 1.22512 0.92396 -0.03081
 C263 C 1.33778 0.93193 -0.04176
 C264 C 1.27856 0.95905 -0.04386
 H265 H 1.37787 0.96101 -0.05123
 H266 H 1.27467 1.00836 -0.05470
 H267 H 1.44504 0.87405 -0.02759
 H268 H 1.36378 0.69809 0.02717
 H269 H 1.07718 0.82581 -0.00772
 H270 H 1.16500 0.99998 -0.04265
 H271 H 1.26318 0.74136 0.01987
 H272 H 1.17464 0.77425 -0.01104
 C273 C 0.65631 0.84965 0.00578
 C274 C 0.61188 0.86312 -0.04071
 C275 C 0.55353 0.83186 -0.04157
 C276 C 0.53649 0.79296 0.00787
 C277 C 0.57992 0.78971 0.05862
 C278 C 0.63870 0.81636 0.05694
 C279 C 0.72105 0.87208 -0.00014
 C280 C 0.77097 0.84119 0.02747
 C281 C 0.83118 0.86310 0.02050
 C282 C 0.84477 0.92111 -0.00555
 C283 C 0.79409 0.94564 -0.04191
 C284 C 0.73341 0.91963 -0.04140
 C285 C 0.62711 0.90749 -0.08502
 C286 C 0.68566 0.93815 -0.08287
 H287 H 0.59291 0.92010 -0.12022
 H288 H 0.69479 0.97388 -0.11621
 H289 H 0.52303 0.83521 -0.08208
 H290 H 0.57204 0.76293 0.09924
 H291 H 0.86612 0.82872 0.02720
 H292 H 0.79938 0.98685 -0.06879
 H293 H 0.67071 0.80991 0.09578
 H294 H 0.76438 0.79689 0.04987
 C295 C 0.84821 0.52433 0.37440
 C296 C 0.88870 0.47371 0.38580
 C297 C 0.94703 0.47127 0.35716
 C298 C 0.96519 0.51897 0.31679
 C299 C 0.93274 0.57664 0.32319
 C300 C 0.87305 0.57832 0.34827
 C301 C 0.78145 0.51850 0.39224
 C302 C 0.73395 0.55637 0.36800
 C303 C 0.67198 0.54857 0.38561
 C304 C 0.65490 0.50412 0.42966
 C305 C 0.70353 0.46558 0.45232
 C306 C 0.76505 0.47012 0.43177
 C307 C 0.86955 0.42544 0.42398
 C308 C 0.80984 0.42542 0.44895
 H309 H 0.90111 0.38740 0.43484
 H310 H 0.79743 0.38778 0.47909
 H311 H 0.97544 0.43007 0.36311
 H312 H 0.95011 0.61898 0.30299
 H313 H 0.63977 0.58385 0.37061
 H314 H 0.69472 0.43177 0.48686
 H315 H 0.84630 0.62128 0.34582
 H316 H 0.74428 0.59280 0.33591
 C317 C 0.20584 0.50467 0.31968
 C318 C 0.16889 0.55701 0.33591
 C319 C 0.10411 0.55488 0.32214
 C320 C 0.07914 0.50571 0.28303
 C321 C 0.12307 0.46580 0.25282
 C322 C 0.18369 0.46085 0.27535
 C323 C 0.27015 0.50167 0.34449
 C324 C 0.29742 0.44486 0.35982
 C325 C 0.35301 0.44501 0.39462
 C326 C 0.39024 0.49980 0.40573
 C327 C 0.36226 0.55553 0.38419
 C328 C 0.29990 0.55766 0.36302
 C329 C 0.19889 0.61157 0.36042
 C330 C 0.26434 0.61330 0.36853
 H331 H 0.17228 0.65390 0.37001
 H332 H 0.28633 0.65704 0.38450
 H333 H 0.07436 0.59307 0.33774
 H334 H 0.11027 0.43642 0.21258
 H335 H 0.36167 0.40191 0.41588
 H336 H 0.38250 0.59932 0.39444
 H337 H 0.21419 0.42532 0.25561
 H338 H 0.27203 0.40100 0.35204
 C339 C 0.84303 0.48917 0.64820
 C340 C 0.87889 0.54510 0.65439
 C341 C 0.94016 0.54358 0.67977
 C342 C 0.96553 0.48742 0.70316
 C343 C 0.93080 0.43136 0.68992
 C344 C 0.87136 0.43221 0.66272
 C345 C 0.77614 0.49290 0.62688
 C346 C 0.73452 0.44164 0.62699
 C347 C 0.67292 0.44779 0.60519
 C348 C 0.65018 0.50395 0.58050
 C349 C 0.69002 0.55654 0.59002
 C350 C 0.75237 0.55169 0.61054
 C351 C 0.85237 0.60239 0.63736
 C352 C 0.79052 0.60557 0.61564
 H353 H 0.87952 0.64551 0.64161
 H354 H 0.77211 0.65101 0.60316
 H355 H 0.96636 0.58720 0.68544
 H356 H 0.94686 0.38556 0.70212
 H357 H 0.64351 0.40812 0.60908
 H358 H 0.67209 0.60305 0.58518
 H359 H 0.84759 0.38765 0.65511
 H360 H 0.74825 0.39656 0.64432
 C361 C 0.20638 0.49069 0.66099
 C362 C 0.15170 0.49957 0.62389
 C363 C 0.09245 0.49836 0.65050
 C364 C 0.08686 0.48771 0.71400
 C365 C 0.14192 0.47604 0.74941
 C366 C 0.20028 0.47750 0.72360
 C367 C 0.26864 0.49520 0.63194
 C368 C 0.32563 0.49112 0.66529
 C369 C 0.38241 0.49519 0.63526
 C370 C 0.38557 0.50394 0.57079
 C371 C 0.32736 0.50707 0.53892
 C372 C 0.27018 0.50453 0.56806
 C373 C 0.15666 0.50953 0.56047
 C374 C 0.21468 0.51105 0.53294
 H375 H 0.11517 0.51583 0.53164
 H376 H 0.21614 0.51840 0.48349
 H377 H 0.05137 0.50649 0.62177
 H378 H 0.13966 0.46802 0.79865
 H379 H 0.42345 0.49456 0.66460
 H380 H 0.32401 0.50860 0.49042
 H381 H 0.23986 0.46862 0.75379
 H382 H 0.32775 0.48588 0.71482
 C383 C 0.48631 0.65954 0.18254
 C384 C 0.51124 0.62660 0.13059
 C385 C 0.50498 0.65126 0.07086
 C386 C 0.47684 0.71036 0.06289
 C387 C 0.45441 0.74309 0.11602
 C388 C 0.45769 0.71777 0.17406
 C389 C 0.49494 0.63323 0.24537
 C390 C 0.46972 0.66109 0.29887
 C391 C 0.47969 0.63495 0.35649
 C392 C 0.51472 0.57960 0.36469
 C393 C 0.54235 0.55513 0.31051
 C394 C 0.53120 0.57897 0.25151
 C395 C 0.54517 0.57123 0.13945
 C396 C 0.55618 0.54874 0.19883
 H397 H 0.56507 0.54599 0.10021
 H398 H 0.58408 0.50667 0.20344
 H399 H 0.52545 0.62643 0.03175
 H400 H 0.43613 0.79040 0.11303
 H401 H 0.45578 0.65844 0.39337
 H402 H 0.57689 0.52069 0.31354
 H403 H 0.44020 0.74636 0.21194
 H404 H 0.44041 0.70218 0.29752
 C405 C 0.49485 0.65432 0.81935
 C406 C 0.54971 0.66996 0.85398
 C407 C 0.54554 0.69315 0.91559
 C408 C 0.48679 0.70207 0.94329
 C409 C 0.43475 0.67394 0.91123
 C410 C 0.43836 0.65197 0.85005
 C411 C 0.49952 0.63727 0.75213
 C412 C 0.44760 0.63299 0.71149
 C413 C 0.45439 0.61133 0.65021
 C414 C 0.51224 0.58959 0.62771
 C415 C 0.56419 0.60427 0.66677
 C416 C 0.55885 0.62756 0.72789
 C417 C 0.60793 0.66268 0.82646
 C418 C 0.61246 0.63997 0.76517
 H419 H 0.65047 0.67357 0.85289
 H420 H 0.65849 0.63314 0.74635
 H421 H 0.58808 0.70688 0.94067
 H422 H 0.38956 0.67027 0.93088
 H423 H 0.41259 0.61021 0.62175
 H424 H 0.60915 0.59239 0.65391
 H425 H 0.39639 0.63361 0.82715
 H426 H 0.40150 0.64618 0.72632
 C427 C 0.50930 0.34454 0.17310
 C428 C 0.45045 0.31997 0.15408
 C429 C 0.44019 0.29684 0.09334
 C430 C 0.48815 0.29469 0.04920
 C431 C 0.54615 0.32186 0.06821
 C432 C 0.55646 0.34678 0.12877
 C433 C 0.51806 0.36653 0.23977
 C434 C 0.57470 0.38923 0.26569
 C435 C 0.57779 0.41363 0.32697
 C436 C 0.52462 0.41798 0.36493
 C437 C 0.47267 0.38462 0.34102
 C438 C 0.46713 0.36240 0.27943
 C439 C 0.40198 0.31634 0.19628
 C440 C 0.41028 0.33669 0.25770
 H441 H 0.35685 0.29707 0.18170
 H442 H 0.37121 0.33315 0.28843
 H443 H 0.39445 0.27762 0.08300
 H444 H 0.58490 0.32103 0.03691
 H445 H 0.62185 0.43404 0.34116
 H446 H 0.43677 0.37258 0.37031
 H447 H 0.60208 0.36599 0.14053
 H448 H 0.61650 0.39069 0.23882
 C449 C 0.48785 0.35032 0.81021
 C450 C 0.51415 0.38102 0.86377
 C451 C 0.50776 0.35408 0.92261
 C452 C 0.47956 0.29401 0.92773
 C453 C 0.45726 0.26332 0.87231
 C454 C 0.45999 0.29111 0.81550
 C455 C 0.49477 0.37945 0.74875
 C456 C 0.46416 0.35532 0.69534
 C457 C 0.47396 0.38110 0.63844
 C458 C 0.51351 0.43304 0.63034
 C459 C 0.54568 0.45617 0.68476
 C460 C 0.53441 0.43186 0.74389
 C461 C 0.54969 0.43609 0.85707
 C462 C 0.56133 0.45972 0.79827
 H463 H 0.57092 0.45981 0.89757
 H464 H 0.59090 0.50093 0.79547
 H465 H 0.52774 0.37856 0.96302
 H466 H 0.43950 0.21554 0.87234
 H467 H 0.45433 0.35483 0.60098
 H468 H 0.58048 0.49196 0.68193
 H469 H 0.44305 0.26336 0.77584
 H470 H 0.43223 0.31603 0.69593
 C471 C 0.69290 0.81619 0.45643
 C472 C 0.65337 0.86855 0.44866
 C473 C 0.67722 0.92979 0.45600
 C474 C 0.74097 0.94101 0.47103
 C475 C 0.78027 0.88746 0.47237
 C476 C 0.75692 0.82658 0.46512
 C477 C 0.66400 0.75257 0.46051
 C478 C 0.69754 0.69803 0.47422
 C479 C 0.66616 0.64161 0.48424
 C480 C 0.60015 0.63668 0.48441
 C481 C 0.57012 0.68992 0.46137
 C482 C 0.59925 0.74736 0.45253
 C483 C 0.58936 0.85962 0.43732
 C484 C 0.56295 0.79991 0.43811
 H485 H 0.55895 0.89946 0.42980
 H486 H 0.51287 0.79538 0.43081
 H487 H 0.64385 0.96756 0.45454
 H488 H 0.82814 0.89043 0.48747
 H489 H 0.69590 0.60175 0.48971
 H490 H 0.52260 0.68931 0.45171
 H491 H 0.78943 0.78839 0.47051
 H492 H 0.74785 0.69758 0.47739
 C493 C 0.64674 0.17055 0.49155
 C494 C 0.65638 0.14139 0.54865
 C495 C 0.68942 0.08473 0.55041
 C496 C 0.71193 0.05633 0.49514
 C497 C 0.68495 0.07684 0.43872
 C498 C 0.65562 0.13528 0.43651
 C499 C 0.62762 0.23768 0.49255
 C500 C 0.63873 0.27738 0.44352
 C501 C 0.62347 0.34128 0.44858
 C502 C 0.59253 0.36761 0.50025
 C503 C 0.58525 0.32663 0.54993
 C504 C 0.60527 0.26418 0.54798
 C505 C 0.63476 0.17031 0.60326
 C506 C 0.60660 0.22941 0.60225
 H507 H 0.63974 0.14714 0.64709
 H508 H 0.58986 0.24997 0.64539
 H509 H 0.70003 0.06529 0.59515
 H510 H 0.69438 0.05195 0.39532
 H511 H 0.63744 0.36933 0.41184
 H512 H 0.56810 0.34252 0.59283
 H513 H 0.64236 0.15354 0.39189
 H514 H 0.66154 0.26006 0.40217
 C515 C 0.33757 0.81773 0.52799
 C516 C 0.37246 0.87250 0.54538
 C517 C 0.34431 0.93303 0.54251
 C518 C 0.28170 0.93943 0.52107
 C519 C 0.24716 0.88342 0.50914
 C520 C 0.27430 0.82432 0.51160
 C521 C 0.36952 0.75480 0.52688
 C522 C 0.33936 0.69888 0.50731
 C523 C 0.37231 0.64280 0.50039
 C524 C 0.43719 0.63802 0.51054
 C525 C 0.46399 0.69259 0.54194
 C526 C 0.43259 0.75127 0.54569
 C527 C 0.43503 0.86587 0.56516
 C528 C 0.46409 0.80660 0.56617
 H529 H 0.46220 0.90717 0.57949
 H530 H 0.51269 0.80442 0.58099
 H531 H 0.37109 0.97435 0.55723
 H532 H 0.19826 0.88533 0.49560
 H533 H 0.34455 0.60406 0.48598
 H534 H 0.51108 0.69091 0.56078
 H535 H 0.24453 0.78451 0.49988
 H536 H 0.29015 0.69710 0.49584
 C537 C 0.34181 0.18589 0.49974
 C538 C 0.37258 0.13074 0.47858
 C539 C 0.34335 0.07080 0.48322
 C540 C 0.28387 0.06517 0.51008
 C541 C 0.25266 0.12184 0.52546
 C542 C 0.28095 0.18036 0.52143
 C543 C 0.37426 0.24850 0.49637
 C544 C 0.34882 0.30417 0.52084
 C545 C 0.38054 0.36113 0.51854
 C546 C 0.43985 0.36755 0.49183
 C547 C 0.46410 0.31061 0.46520
 C548 C 0.43304 0.25164 0.46890
 C549 C 0.43149 0.13657 0.45190
 C550 C 0.46055 0.19560 0.44635
 H551 H 0.45543 0.09491 0.43472
 H552 H 0.50584 0.19719 0.42517
 H553 H 0.36633 0.02925 0.46466
 H554 H 0.20495 0.12130 0.54081
 H555 H 0.35808 0.39838 0.54185
 H556 H 0.50645 0.31131 0.43980
 H557 H 0.25336 0.22077 0.53451
 H558 H 0.30500 0.30491 0.54435
   
