data_POSCAR
  _audit_creation_date              2014-09-24
  _audit_creation_method            'ToBaCCo'
  _symmetry_space_group_name_H-M    'P1'
  _symmetry_Int_Tables_number       1
  _symmetry_cell_setting            triclinic
  loop_
  _symmetry_equiv_pos_as_xyz
 x,y,z
_cell_length_a 32.3715
_cell_length_b 34.3189
_cell_length_c 30.9034
_cell_angle_alpha 90.391200
_cell_angle_beta 89.115500
_cell_angle_gamma 90.358900
loop_
  _atom_site_label
  _atom_site_type_symbol
  _atom_site_fract_x
  _atom_site_fract_y
  _atom_site_fract_z
N1 N 0.19708 0.21808 0.19511
 N2 N -0.16264 0.83176 0.14354
 N3 N -0.20310 0.18264 -0.16343
 N4 N 0.18858 0.77894 -0.21015
 N5 N 0.20923 1.20487 0.79359
 N6 N 0.81047 0.80929 0.82885
 N7 N 0.19744 0.78065 1.20790
 N8 N 0.78846 1.20497 1.19712
 O9 O 0.51448 0.94323 0.94593
 O10 O 0.44931 0.95234 1.08471
 O11 O 0.57328 0.98773 1.04089
 O12 O 0.38203 0.97752 0.97163
 O13 O 0.52926 0.95343 1.08104
 O14 O 0.43831 0.94963 0.94544
 O15 O 0.42667 0.94104 1.02052
 O16 O 0.56571 0.98133 0.96349
 C17 C 0.55243 0.94843 0.95105
 C18 C 0.42915 0.93143 1.05909
 C19 C 0.56509 0.95920 1.06575
 C20 C 0.39938 0.95435 0.94255
 O21 O 0.44753 1.02592 0.92492
 O22 O 0.52784 1.02737 1.09453
 O23 O 0.52987 1.05545 0.96376
 O24 O 0.40084 1.00705 1.05234
 O25 O 0.45115 1.02922 1.09144
 O26 O 0.52251 1.01402 0.91477
 O27 O 0.41960 1.04218 0.98536
 O28 O 0.54267 1.06108 1.03821
 Co29 Co 0.48106 0.98487 0.93990
 Co30 Co 0.48879 0.99103 1.08046
 Co31 Co 0.54786 1.01971 1.00148
 Co32 Co 0.42684 0.99211 1.00204
 O33 O 0.48816 0.99844 1.00957
 C34 C 0.42663 1.04975 0.94692
 C35 C 0.54277 1.05745 1.07803
 C36 C 0.53330 1.04736 0.92522
 C37 C 0.41403 1.02979 1.08107
 O38 O 0.01771 0.46149 0.09028
 O39 O 0.02711 0.51868 -0.09436
 O40 O 0.06369 0.43866 -0.03625
 O41 O 0.06501 0.54569 0.03613
 O42 O 0.02070 0.44693 -0.08686
 O43 O 0.02076 0.53166 0.08711
 O44 O 0.06388 0.55091 -0.04672
 O45 O 0.06225 0.44892 0.04082
 C46 C 0.05342 0.45101 0.07982
 C47 C 0.05744 0.54032 -0.08490
 C48 C 0.05544 0.43599 -0.07506
 C49 C 0.05576 0.54449 0.07541
 O50 O -0.05640 0.53236 0.05302
 O51 O -0.05610 0.45468 -0.05575
 O52 O -0.01465 0.41636 0.04528
 O53 O -0.01356 0.57317 -0.04157
 O54 O -0.05071 0.52739 -0.07258
 O55 O -0.05787 0.46251 0.05183
 O56 O -0.01065 0.57524 0.03789
 O57 O -0.01496 0.41013 -0.03255
 Co58 Co -0.01692 0.49654 0.06460
 Co59 Co -0.01310 0.48710 -0.06988
 Co60 Co 0.02240 0.43386 0.00398
 Co61 Co 0.02436 0.55458 -0.00296
 O62 O 0.00419 0.49335 -0.00147
 C63 C -0.04700 0.56703 0.04841
 C64 C -0.04996 0.42017 -0.04579
 C65 C -0.05088 0.42719 0.05253
 C66 C -0.04376 0.56255 -0.06440
 O67 O 1.10243 0.01525 0.46416
 O68 O 0.92131 0.04974 0.53494
 O69 O 0.98067 0.06521 0.43784
 O70 O 1.03371 0.03124 0.57879
 O71 O 0.92041 0.04302 0.45299
 O72 O 1.05908 0.05339 0.51804
 O73 O 0.95804 0.02312 0.58632
 O74 O 1.05087 0.04811 0.44050
 C75 C 1.08861 0.03941 0.43595
 C76 C 0.93248 0.04837 0.57366
 C77 C 0.94280 0.06895 0.43680
 C78 C 1.05315 0.05750 0.55794
 O79 O 1.08690 -0.01150 0.54126
 O80 O 0.91915 -0.03247 0.46072
 O81 O 1.03194 -0.02695 0.41665
 O82 O 0.96586 -0.05286 0.56262
 O83 O 0.91130 -0.02454 0.54120
 O84 O 1.05778 -0.04554 0.47610
 O85 O 1.03682 -0.04757 0.55572
 O86 O 0.95979 -0.00810 0.41046
 Co87 Co 1.05599 0.00423 0.49549
 Co88 Co 0.92539 0.00845 0.49747
 Co89 Co 1.00482 0.01802 0.43255
 Co90 Co 0.99861 -0.01013 0.56530
 O91 O 0.99334 0.00388 0.49961
 C92 C 1.07391 -0.04036 0.56087
 C93 C 0.93210 -0.03200 0.42245
 C94 C 1.05090 -0.05217 0.43748
 C95 C 0.92780 -0.05136 0.56134
 C96 C 1.17654 0.20673 0.23470
 C97 C 1.19370 0.17830 0.26093
 C98 C 1.17032 0.15849 0.29542
 N99 N 1.18807 0.12892 0.31722
 N100 N 1.16640 0.10851 0.34633
 C101 C 1.12612 0.11694 0.35453
 N102 N 1.10849 0.14674 0.33302
 N103 N 1.13015 0.16713 0.30393
 C104 C 1.10098 0.09378 0.38482
 C105 C 1.11628 0.06219 0.40765
 H106 H 1.22461 0.16799 0.25359
 H107 H 1.06875 0.10164 0.38864
 H108 H 1.14653 0.21870 0.24290
 H109 H 1.14853 0.05425 0.40491
 C110 C 0.86069 -0.15575 0.18029
 C111 C 0.84184 -0.13593 0.21463
 C112 C 0.86538 -0.11949 0.25063
 N113 N 0.84524 -0.10728 0.28699
 N114 N 0.86589 -0.09048 0.31910
 C115 C 0.90740 -0.08498 0.31585
 N116 N 0.92755 -0.09711 0.27943
 N117 N 0.90694 -0.11423 0.24744
 C118 C 0.92994 -0.06418 0.34984
 C119 C 0.91241 -0.05760 0.39062
 H120 H 0.80863 -0.13221 0.21497
 H121 H 0.96062 -0.05309 0.34233
 H122 H 0.89318 -0.16298 0.18178
 H123 H 0.88312 -0.07111 0.39928
 C124 C 0.81375 0.15640 0.80460
 C125 C 0.83926 0.16993 0.77122
 C126 C 0.85814 0.14337 0.73932
 N127 N 0.87187 0.15716 0.70062
 N128 N 0.88933 0.13332 0.67157
 C129 C 0.89414 0.09493 0.68046
 N130 N 0.88089 0.08125 0.71937
 N131 N 0.86302 0.10499 0.74821
 C132 C 0.91354 0.06830 0.64899
 C133 C 0.91494 0.07631 0.60489
 H134 H 0.84450 0.20097 0.76782
 H135 H 0.92471 0.04059 0.66049
 H136 H 0.80508 0.12586 0.80561
 H137 H 0.90046 0.10236 0.59279
 C138 C 1.16640 -0.21053 0.75175
 C139 C 1.18260 -0.18261 0.72354
 C140 C 1.15793 -0.16334 0.69064
 N141 N 1.17502 -0.13381 0.66741
 N142 N 1.15238 -0.11361 0.63995
 C143 C 1.11177 -0.12219 0.63476
 N144 N 1.09476 -0.15206 0.65759
 N145 N 1.11741 -0.17225 0.68513
 C146 C 1.08588 -0.09865 0.60656
 C147 C 1.10104 -0.06551 0.58572
 H148 H 1.21385 -0.17210 0.72822
 H149 H 1.05360 -0.10664 0.60363
 H150 H 1.13602 -0.22281 0.74624
 H151 H 1.13322 -0.05717 0.58855
 C152 C 0.21686 1.18815 1.16989
 C153 C 0.25650 1.19328 1.15304
 C154 C 0.27951 1.16024 1.13469
 N155 N 0.32136 1.16076 1.13461
 N156 N 0.34257 1.12997 1.12049
 C157 C 0.32270 1.09763 1.10573
 N158 N 0.28085 1.09740 1.10498
 N159 N 0.25961 1.12806 1.11952
 C160 C 0.34607 1.06366 1.09020
 C161 C 0.38698 1.05860 1.10186
 H162 H 0.27235 1.22081 1.15791
 H163 H 0.33116 1.04282 1.06899
 H164 H 0.20286 1.15937 1.16917
 H165 H 0.40081 1.07856 1.12487
 C166 C 0.20900 0.80956 0.81340
 C167 C 0.24613 0.80348 0.83427
 C168 C 0.26811 0.83553 0.85589
 N169 N 0.30856 0.83161 0.86548
 N170 N 0.32907 0.86067 0.88437
 C171 C 0.30984 0.89467 0.89461
 N172 N 0.26921 0.89843 0.88555
 N173 N 0.24876 0.86945 0.86632
 C174 C 0.33236 0.92659 0.91598
 C175 C 0.37528 0.92683 0.91661
 H176 H 0.26055 0.77512 0.83244
 H177 H 0.31509 0.94977 0.93170
 H178 H 0.19677 0.83885 0.81186
 H179 H 0.39226 0.90462 0.89888
 C180 C 0.80619 0.85665 1.12671
 C181 C 0.77005 0.84131 1.10955
 C182 C 0.73623 0.86677 1.09680
 N183 N 0.69693 0.85287 1.09587
 N184 N 0.66582 0.87630 1.08609
 C185 C 0.67304 0.91434 1.07657
 N186 N 0.71241 0.92802 1.07675
 N187 N 0.74343 0.90472 1.08694
 C188 C 0.63929 0.94068 1.06608
 C189 C 0.59832 0.93253 1.07726
 H190 H 0.76526 0.81005 1.10896
 H191 H 0.64722 0.96802 1.05062
 H192 H 0.80903 0.88786 1.13158
 H193 H 0.59053 0.90630 1.09498
 C194 C 0.75587 1.17632 0.85391
 C195 C 0.72552 1.15669 0.83050
 C196 C 0.68520 1.14627 0.84980
 N197 N 0.65958 1.12154 0.82852
 N198 N 0.62434 1.10948 0.84698
 C199 C 0.61331 1.12200 0.88730
 N200 N 0.63854 1.14734 0.90819
 N201 N 0.67384 1.15926 0.88981
 C202 C 0.57735 1.10550 0.91039
 C203 C 0.55631 1.07272 0.89517
 H204 H 0.73219 1.14686 0.79778
 H205 H 0.57142 1.11574 0.94314
 H206 H 0.74849 1.18679 0.88624
 H207 H 0.56205 1.06214 0.86255
 C208 C 0.19097 0.25545 0.17540
 C209 C 0.17155 0.28657 0.19659
 C210 C 0.16059 0.32216 0.17314
 N211 N 0.13369 0.34799 0.19117
 N212 N 0.12065 0.37842 0.16864
 C213 C 0.13433 0.38427 0.12738
 N214 N 0.16195 0.35896 0.10979
 N215 N 0.17482 0.32848 0.13221
 C216 C 0.11635 0.41436 0.09990
 C217 C 0.08110 0.43493 0.11235
 H218 H 0.16168 0.28400 0.23005
 H219 H 0.12722 0.41579 0.06660
 H220 H 0.20093 0.25913 0.14202
 H221 H 0.07005 0.43378 0.14559
 C222 C -0.17531 0.20942 -0.14259
 C223 C -0.18890 0.24334 -0.12200
 C224 C -0.15971 0.27081 -0.10206
 N225 N -0.17195 0.30745 -0.09160
 N226 N -0.14524 0.33305 -0.07516
 C227 C -0.10542 0.32281 -0.06822
 N228 N -0.09340 0.28595 -0.07792
 N229 N -0.12002 0.26045 -0.09461
 C230 C -0.07491 0.35135 -0.05282
 C231 C -0.08254 0.39120 -0.05368
 H232 H -0.22129 0.25097 -0.12252
 H233 H -0.04453 0.34102 -0.04442
 H234 H -0.14240 0.20394 -0.14499
 H235 H -0.11241 0.40161 -0.06370
 C236 C 0.18334 0.74150 -0.18993
 C237 C 0.16456 0.70959 -0.21014
 C238 C 0.15571 0.67347 -0.18617
 N239 N 0.12905 0.64650 -0.20222
 N240 N 0.11810 0.61545 -0.17887
 C241 C 0.13376 0.61013 -0.13880
 N242 N 0.16111 0.63661 -0.12328
 N243 N 0.17189 0.66766 -0.14649
 C244 C 0.11797 0.57957 -0.10978
 C245 C 0.08411 0.55602 -0.11971
 H246 H 0.15395 0.71174 -0.24306
 H247 H 0.12926 0.57996 -0.07694
 H248 H 0.19367 0.73826 -0.15696
 H249 H 0.07352 0.55393 -0.15272
 C250 C -0.14930 0.79859 0.11887
 C251 C -0.14026 0.76371 0.13911
 C252 C -0.12399 0.73023 0.11481
 N253 N -0.12632 0.69403 0.13205
 N254 N -0.10965 0.66373 0.11121
 C255 C -0.08977 0.66869 0.07261
 N256 N -0.08739 0.70489 0.05543
 N257 N -0.10446 0.73510 0.07601
 C258 C -0.06750 0.63652 0.05172
 C259 C -0.07597 0.59773 0.06135
 H260 H -0.14565 0.76094 0.17363
 H261 H -0.04207 0.64373 0.03000
 H262 H -0.14852 0.80024 0.08385
 H263 H -0.10299 0.59006 0.08065
 C264 C 1.18091 0.19202 0.76387
 C265 C 1.19049 0.16744 0.72882
 C266 C 1.15805 0.15120 0.70090
 N267 N 1.16760 0.13889 0.66018
 N268 N 1.13889 0.12242 0.63543
 C269 C 1.09962 0.11733 0.65063
 N270 N 1.09012 0.12949 0.69143
 N271 N 1.11870 0.14638 0.71600
 C272 C 1.06896 0.09545 0.62527
 C273 C 1.07368 0.08980 0.58078
 H274 H 1.22236 0.16124 0.72037
 H275 H 1.04391 0.08099 0.64255
 H276 H 1.14923 0.20200 0.76638
 H277 H 1.09681 0.10651 0.56311
 C278 C 0.83466 -0.18029 0.79107
 C279 C 0.81862 -0.15830 0.75752
 C280 C 0.84416 -0.14578 0.72018
 N281 N 0.82686 -0.12524 0.68785
 N282 N 0.84993 -0.11214 0.65488
 C283 C 0.89120 -0.11912 0.65296
 N284 N 0.90844 -0.13992 0.68513
 N285 N 0.88536 -0.15308 0.71807
 C286 C 0.91769 -0.10188 0.61881
 C287 C 0.90164 -0.07827 0.58669
 H288 H 0.78651 -0.14963 0.75884
 H289 H 0.95086 -0.10474 0.62158
 H290 H 0.86613 -0.19070 0.78821
 H291 H 0.86847 -0.07545 0.58397
 C292 C 1.16913 -0.20564 0.23793
 C293 C 1.17929 -0.18072 0.27233
 C294 C 1.14757 -0.16165 0.29974
 N295 N 1.15760 -0.14785 0.33949
 N296 N 1.13019 -0.12804 0.36340
 C297 C 1.09179 -0.12090 0.34831
 N298 N 1.08175 -0.13464 0.30850
 N299 N 1.10903 -0.15487 0.28477
 C300 C 1.06307 -0.09531 0.37255
 C301 C 1.06835 -0.08709 0.41637
 H302 H 1.21133 -0.17568 0.28031
 H303 H 1.03947 -0.08025 0.35478
 H304 H 1.13708 -0.21478 0.23598
 H305 H 1.09006 -0.10411 0.43460
 C306 C 0.79847 0.18470 0.23381
 C307 C 0.82988 0.19606 0.26225
 C308 C 0.84278 0.17161 0.29861
 N309 N 0.87759 0.18089 0.32045
 N310 N 0.89077 0.15825 0.35222
 C311 C 0.86940 0.12561 0.36356
 N312 N 0.83427 0.11662 0.34213
 N313 N 0.82124 0.13913 0.31019
 C314 C 0.88471 0.09894 0.39674
 C315 C 0.92495 0.10111 0.41216
 H316 H 0.84615 0.22342 0.25803
 H317 H 0.86515 0.07452 0.40590
 H318 H 0.78179 0.15824 0.24185
 H319 H 0.94535 0.12438 0.40143
 C320 C 0.20046 0.23777 -0.18230
 C321 C 0.17444 0.26738 -0.19687
 C322 C 0.16136 0.30069 -0.16975
 N323 N 0.13583 0.32775 -0.18643
 N324 N 0.12157 0.35694 -0.16195
 C325 C 0.13237 0.36027 -0.11980
 N326 N 0.15830 0.33344 -0.10320
 N327 N 0.17257 0.30418 -0.12771
 C328 C 0.11388 0.39035 -0.09139
 C329 C 0.08256 0.41475 -0.10554
 H330 H 0.16300 0.26646 -0.22959
 H331 H 0.12192 0.39041 -0.05749
 H332 H 0.21427 0.24213 -0.15100
 H333 H 0.07394 0.41414 -0.13926
 C334 C -0.18351 0.23062 0.17902
 C335 C -0.19429 0.26002 0.15006
 C336 C -0.16311 0.28592 0.13015
 N337 N -0.17497 0.31924 0.11060
 N338 N -0.14699 0.34319 0.09294
 C339 C -0.10613 0.33450 0.09383
 N340 N -0.09433 0.30093 0.11284
 N341 N -0.12228 0.27711 0.13075
 C342 C -0.07467 0.36113 0.07583
 C343 C -0.08358 0.39955 0.06528
 H344 H -0.22642 0.26596 0.14367
 H345 H -0.04306 0.35102 0.07365
 H346 H -0.15135 0.22932 0.18793
 H347 H -0.11481 0.41032 0.06910
 C348 C -0.17542 0.77799 -0.14455
 C349 C -0.16000 0.74379 -0.16296
 C350 C -0.13907 0.71392 -0.13764
 N351 N -0.13266 0.67809 -0.15515
 N352 N -0.11149 0.65138 -0.13386
 C353 C -0.09549 0.65964 -0.09446
 N354 N -0.10176 0.69555 -0.07696
 N355 N -0.12331 0.72218 -0.09809
 C356 C -0.07020 0.63092 -0.07191
 C357 C -0.07130 0.59158 -0.08319
 H358 H -0.16264 0.73916 -0.19752
 H359 H -0.05016 0.64096 -0.04641
 H360 H -0.17680 0.78117 -0.10964
 H361 H -0.09312 0.58152 -0.10711
 C362 C 0.18811 0.74775 0.18415
 C363 C 0.16084 0.71852 0.19878
 C364 C 0.15046 0.68400 0.17230
 N365 N 0.12431 0.65643 0.18840
 N366 N 0.11328 0.62584 0.16431
 C367 C 0.12815 0.62156 0.12321
 N368 N 0.15461 0.64894 0.10726
 N369 N 0.16563 0.67952 0.13135
 C370 C 0.11310 0.59021 0.09458
 C371 C 0.08202 0.56418 0.10740
 H372 H 0.14732 0.72014 0.23099
 H373 H 0.12295 0.59093 0.06092
 H374 H 0.20288 0.74280 0.15303
 H375 H 0.07209 0.56340 0.14102
 C376 C 0.24275 1.18188 0.80269
 C377 C 0.27511 1.19279 0.83019
 C378 C 0.30756 1.16520 0.84279
 N379 N 0.33154 1.17339 0.87738
 N380 N 0.35966 1.14802 0.89053
 C381 C 0.36519 1.11361 0.86928
 N382 N 0.34174 1.10572 0.83421
 N383 N 0.31337 1.13095 0.82129
 C384 C 0.39418 1.08410 0.88507
 C385 C 0.40777 1.08431 0.92768
 H386 H 0.27674 1.22167 0.84420
 H387 H 0.40072 1.05909 0.86455
 H388 H 0.24454 1.15285 0.78881
 H389 H 0.39825 1.10764 0.94933
 C390 C 0.23207 0.80276 1.19818
 C391 C 0.26449 0.79097 1.17029
 C392 C 0.29845 0.81763 1.15761
 N393 N 0.32183 0.80978 1.12177
 N394 N 0.35171 0.83424 1.10899
 C395 C 0.35962 0.86729 1.13192
 N396 N 0.33669 0.87482 1.16813
 N397 N 0.30656 0.85056 1.18065
 C398 C 0.39125 0.89562 1.11750
 C399 C 0.40580 0.89726 1.07480
 H400 H 0.26529 0.76212 1.15616
 H401 H 0.39973 0.91862 1.13993
 H402 H 0.23479 0.83183 1.21177
 H403 H 0.39479 0.87624 1.05128
 C404 C 0.75302 1.19594 1.17503
 C405 C 0.71891 1.17610 1.19299
 C406 C 0.68436 1.16232 1.16623
 N407 N 0.65299 1.14155 1.18463
 N408 N 0.62293 1.12670 1.16045
 C409 C 0.62302 1.13216 1.11693
 N410 N 0.65409 1.15337 1.09861
 N411 N 0.68417 1.16818 1.12279
 C412 C 0.59234 1.11278 1.08925
 C413 C 0.56394 1.08588 1.10587
 H414 H 0.71714 1.17002 1.22726
 H415 H 0.59534 1.11640 1.05453
 H416 H 0.75073 1.20423 1.14139
 H417 H 0.56152 1.08173 1.14054
 C418 C 0.77954 0.83553 0.84561
 C419 C 0.74511 0.82220 0.86903
 C420 C 0.71353 0.84914 0.88625
 N421 N 0.67577 0.83555 0.89896
 N422 N 0.64701 0.85987 0.91437
 C423 C 0.65518 0.89862 0.91798
 N424 N 0.69305 0.91207 0.90572
 N425 N 0.72162 0.88786 0.89001
 C426 C 0.62423 0.92634 0.93466
 C427 C 0.58207 0.91782 0.93831
 H428 H 0.74056 0.79119 0.87348
 H429 H 0.63499 0.95559 0.94188
 H430 H 0.78211 0.86624 0.83802
 H431 H 0.57055 0.88924 0.92937
   
