data_POSCAR
  _audit_creation_date              2014-09-24
  _audit_creation_method            'ToBaCCo'
  _symmetry_space_group_name_H-M    'P1'
  _symmetry_Int_Tables_number       1
  _symmetry_cell_setting            triclinic
  loop_
  _symmetry_equiv_pos_as_xyz
 x,y,z
_cell_length_a 21.3119
_cell_length_b 21.8244
_cell_length_c 18.7190
_cell_angle_alpha 91.904700
_cell_angle_beta 87.790700
_cell_angle_gamma 88.381000
loop_
  _atom_site_label
  _atom_site_type_symbol
  _atom_site_fract_x
  _atom_site_fract_y
  _atom_site_fract_z
C1 C 0.15092 0.25181 0.09802
 C2 C 0.16132 0.19733 0.13494
 C3 C 0.19600 0.20003 0.19736
 C4 C 0.22500 0.25432 0.21997
 C5 C 0.21473 0.30750 0.18065
 C6 C 0.17576 0.30732 0.12225
 C7 C 0.26438 0.25583 0.28504
 C8 C 0.27573 0.31179 0.32164
 C9 C 0.31572 0.31428 0.37904
 C10 C 0.34038 0.25952 0.40508
 C11 C 0.32852 0.20251 0.37162
 C12 C 0.29282 0.20167 0.30995
 H13 H 0.11880 0.25265 0.05476
 H14 H 0.20001 0.15917 0.22817
 H15 H 0.23568 0.35034 0.19534
 H16 H 0.25504 0.35457 0.30536
 H17 H 0.37402 0.26215 0.44666
 H18 H 0.28805 0.15832 0.28132
 C19 C 0.85024 0.22957 0.07338
 C20 C 0.83527 0.28585 0.10932
 C21 C 0.79328 0.28748 0.16876
 C22 C 0.76255 0.23457 0.19088
 C23 C 0.77710 0.17882 0.15251
 C24 C 0.82255 0.17542 0.09593
 C25 C 0.71919 0.23750 0.25647
 C26 C 0.70695 0.18477 0.29603
 C27 C 0.66831 0.18798 0.35880
 C28 C 0.64408 0.24571 0.38408
 C29 C 0.65492 0.29860 0.34557
 C30 C 0.69031 0.29375 0.28100
 H31 H 0.88740 0.22737 0.03234
 H32 H 0.78671 0.33042 0.19891
 H33 H 0.75516 0.13688 0.16756
 H34 H 0.72777 0.14068 0.27920
 H35 H 0.61156 0.24931 0.42980
 H36 H 0.69448 0.33446 0.25002
 C37 C 0.65011 0.75255 0.60103
 C38 C 0.67488 0.69560 0.62014
 C39 C 0.71906 0.69351 0.67345
 C40 C 0.73550 0.74707 0.71215
 C41 C 0.70876 0.80384 0.69267
 C42 C 0.66768 0.80701 0.63586
 C43 C 0.77763 0.74278 0.77457
 C44 C 0.81363 0.79283 0.79740
 C45 C 0.85229 0.78865 0.85674
 C46 C 0.85754 0.73210 0.89020
 C47 C 0.82388 0.68150 0.86722
 C48 C 0.78288 0.68758 0.81145
 H49 H 0.61339 0.75428 0.56278
 H50 H 0.73920 0.64915 0.68516
 H51 H 0.71828 0.84570 0.72236
 H52 H 0.81220 0.83516 0.76894
 H53 H 0.89222 0.72505 0.92992
 H54 H 0.75594 0.64818 0.79698
 C55 C 0.33731 0.76801 0.61357
 C56 C 0.31467 0.82495 0.64253
 C57 C 0.27129 0.82635 0.70096
 C58 C 0.25148 0.77156 0.73147
 C59 C 0.27566 0.71513 0.70194
 C60 C 0.31802 0.71298 0.64287
 C61 C 0.21189 0.77282 0.79898
 C62 C 0.17049 0.72520 0.81338
 C63 C 0.14360 0.71824 0.88245
 C64 C 0.15290 0.76460 0.93532
 C65 C 0.19193 0.81377 0.92070
 C66 C 0.22204 0.81688 0.85333
 H67 H 0.37424 0.76654 0.57219
 H68 H 0.25449 0.87031 0.72384
 H69 H 0.26405 0.67261 0.72689
 H70 H 0.16267 0.69086 0.77176
 H71 H 0.13281 0.76191 0.98897
 H72 H 0.25684 0.85149 0.84518
 O73 O 1.08472 -0.07400 0.06981
 O74 O 0.94382 0.02342 0.06337
 O75 O 0.96654 -0.09495 0.02684
 O76 O 1.05806 0.03915 0.08013
 O77 O 1.07766 0.05576 -0.03439
 O78 O 0.98093 -0.07305 -0.08665
 O79 O 0.96430 0.04138 -0.05053
 O80 O 1.10381 -0.06526 -0.04608
 Cu81 Cu 1.00999 -0.03119 0.06985
 Cu82 Cu 1.03526 -0.01174 -0.06579
 C83 C 1.11981 -0.08431 0.01451
 C84 C 0.93198 0.05227 0.00749
 C85 C 0.95616 -0.10530 -0.03884
 C86 C 1.08234 0.07120 0.03108
 O87 O 0.55211 0.43460 0.52423
 O88 O 0.43457 0.55603 0.57809
 O89 O 0.43126 0.44005 0.54009
 O90 O 0.55658 0.54941 0.56821
 O91 O 0.55196 0.57747 0.45623
 O92 O 0.42653 0.46730 0.42777
 O93 O 0.43057 0.58320 0.46568
 O94 O 0.54773 0.46204 0.41197
 Cu95 Cu 0.49421 0.49247 0.56397
 Cu96 Cu 0.48888 0.52522 0.42911
 C97 C 0.56876 0.42675 0.45863
 C98 C 0.41311 0.59073 0.53096
 C99 C 0.40840 0.43414 0.47880
 C100 C 0.57481 0.58290 0.51772
 O101 O 0.05249 0.54960 -0.07891
 O102 O -0.04907 0.41761 -0.04899
 O103 O -0.06670 0.53188 -0.07937
 O104 O 0.07038 0.43145 -0.04793
 O105 O 0.06199 0.45761 0.06706
 O106 O -0.07394 0.55923 0.03543
 O107 O -0.05781 0.44449 0.06584
 O108 O 0.04508 0.57438 0.03646
 Cu109 Cu 0.00330 0.48022 -0.07547
 Cu110 Cu -0.00649 0.51141 0.06274
 C111 C 0.06395 0.58584 -0.02667
 C112 C -0.07039 0.40851 0.01390
 C113 C -0.09271 0.56363 -0.02772
 C114 C 0.08744 0.42510 0.01568
 O115 O 0.43784 1.08439 0.54048
 O116 O 0.55564 0.96626 0.58432
 O117 O 0.55827 1.07888 0.53883
 O118 O 0.43327 0.97184 0.58422
 O119 O 0.43609 0.93704 0.47197
 O120 O 0.56129 1.04339 0.42678
 O121 O 0.55797 0.93158 0.47202
 O122 O 0.44018 1.04956 0.42818
 Cu123 Cu 0.49606 1.02857 0.57338
 Cu124 Cu 0.49915 0.98660 0.43861
 C125 C 0.42024 1.08814 0.47672
 C126 C 0.57632 0.92830 0.53552
 C127 C 0.57962 1.08061 0.47468
 C128 C 0.41385 0.93574 0.53574
 C129 C 1.13498 0.14114 0.11435
 C130 C 1.11363 0.12862 0.04911
 H131 H 1.13405 0.10492 0.15267
 H132 H 1.12004 0.16025 0.00633
 C133 C 0.64734 0.63774 0.59428
 C134 C 0.61926 0.63192 0.53168
 H135 H 0.64530 0.60057 0.63124
 H136 H 0.62407 0.66692 0.49233
 C137 C -0.13160 0.34251 0.09209
 C138 C -0.10802 0.35413 0.02676
 H139 H -0.12687 0.37619 0.13530
 H140 H -0.11485 0.32256 -0.01792
 C141 C 0.34374 0.88242 0.61970
 C142 C 0.36841 0.88851 0.55345
 H143 H 0.34951 0.91831 0.66014
 H144 H 0.35968 0.85442 0.51191
 C145 C -0.15934 0.61984 -0.10807
 C146 C -0.14006 0.61131 -0.04191
 H147 H -0.15270 0.58338 -0.14864
 H148 H -0.14970 0.64659 -0.00049
 C149 C 0.35626 1.14732 0.39414
 C150 C 0.37993 1.14080 0.45907
 H151 H 0.35855 1.10801 0.35703
 H152 H 0.37230 1.17613 0.50065
 C153 C 1.21628 -0.14961 -0.01974
 C154 C 1.18283 -0.11114 0.02484
 H155 H 1.26467 -0.15947 -0.00717
 H156 H 1.20567 -0.09497 0.07233
 C157 C 0.62400 0.35815 0.36821
 C158 C 0.61011 0.37376 0.43700
 H159 H 0.61073 0.38899 0.32680
 H160 H 0.62575 0.34456 0.47887
 C161 C 0.88780 -0.16070 -0.12177
 C162 C 0.91584 -0.15620 -0.05852
 H163 H 0.89130 -0.12261 -0.15734
 H164 H 0.90747 -0.18902 -0.01750
 C165 C 0.34006 0.37440 0.40211
 C166 C 0.36438 0.38465 0.46611
 H167 H 0.34403 0.40897 0.36203
 H168 H 0.35771 0.35215 0.50802
 C169 C 0.11210 0.66339 -0.10372
 C170 C 0.09735 0.64333 -0.03816
 H171 H 0.10201 0.63374 -0.14925
 H172 H 0.10875 0.66928 0.00948
 C173 C 0.64895 1.13317 0.38960
 C174 C 0.62088 1.13066 0.45490
 H175 H 0.65371 1.09119 0.35689
 H176 H 0.62234 1.16890 0.49302
 C177 C 0.15236 0.36700 0.09671
 C178 C 0.13225 0.37488 0.03069
 H179 H 0.14550 0.40407 0.13651
 H180 H 0.14178 0.33961 -0.01071
 C181 C 0.63732 0.86631 0.61838
 C182 C 0.61927 0.87729 0.55204
 H183 H 0.62704 0.89996 0.66141
 H184 H 0.63252 0.84498 0.50851
 C185 C 0.84923 0.11415 0.07239
 C186 C 0.88490 0.10327 0.01237
 H187 H 0.84594 0.07843 0.11116
 H188 H 0.88622 0.13646 -0.02931
 C189 C 0.34878 0.65379 0.61906
 C190 C 0.37036 0.64282 0.55164
 H191 H 0.35631 0.61968 0.65890
 H192 H 0.35975 0.67515 0.51079
   
