data_POSCAR
  _audit_creation_date              2014-09-24
  _audit_creation_method            'ToBaCCo'
  _symmetry_space_group_name_H-M    'P1'
  _symmetry_Int_Tables_number       1
  _symmetry_cell_setting            triclinic
  loop_
  _symmetry_equiv_pos_as_xyz
 x,y,z
_cell_length_a 24.0870
_cell_length_b 23.5139
_cell_length_c 24.6335
_cell_angle_alpha 93.595900
_cell_angle_beta 89.697800
_cell_angle_gamma 95.760800
loop_
  _atom_site_label
  _atom_site_type_symbol
  _atom_site_fract_x
  _atom_site_fract_y
  _atom_site_fract_z
C1 C 0.01182 0.46682 0.21592
 C2 C 0.05089 0.46144 0.26313
 C3 C 0.05936 0.50807 0.29860
 C4 C 0.02182 0.55511 0.28626
 C5 C -0.04312 0.47875 0.24398
 C6 C -0.03783 0.52357 0.28207
 C7 C 0.03245 0.52302 0.19115
 C8 C 0.03748 0.56918 0.22738
 H9 H 0.06893 0.42177 0.26807
 H10 H 0.02541 0.59321 0.31540
 H11 H -0.08151 0.45085 0.23987
 H12 H 0.03841 0.52665 0.14782
 C13 C 0.01322 0.43030 0.75522
 C14 C -0.03918 0.43571 0.72843
 C15 C -0.04015 0.48845 0.70208
 C16 C 0.01228 0.52707 0.70992
 C17 C 0.05306 0.43796 0.71184
 C18 C 0.05803 0.49329 0.69065
 C19 C 0.02233 0.48021 0.79311
 C20 C 0.02132 0.53378 0.76910
 H21 H -0.07070 0.40028 0.71965
 H22 H 0.01164 0.56772 0.68954
 H23 H 0.07637 0.40361 0.69537
 H24 H 0.02368 0.47668 0.83677
 C25 C 0.18762 -0.03802 0.43974
 C26 C 0.22740 0.01720 0.44870
 C27 C 0.25594 0.02172 0.49636
 C28 C 0.24083 -0.02835 0.53274
 C29 C 0.22390 -0.08657 0.44863
 C30 C 0.25242 -0.08201 0.49702
 C31 C 0.14936 -0.03722 0.48944
 C32 C 0.17645 -0.03357 0.53809
 H33 H 0.23336 0.05064 0.42052
 H34 H 0.26313 -0.02238 0.57218
 H35 H 0.22368 -0.12281 0.41939
 H36 H 0.10428 -0.04130 0.48626
 C37 C 0.81537 0.03467 0.45426
 C38 C 0.80046 -0.02489 0.46318
 C39 C 0.76435 -0.03486 0.50762
 C40 C 0.74968 0.01781 0.53670
 C41 C 0.76048 0.06229 0.45110
 C42 C 0.72631 0.05594 0.49529
 C43 C 0.84117 0.06002 0.50811
 C44 C 0.80680 0.05159 0.55180
 H45 H 0.81664 -0.05949 0.43866
 H46 H 0.72044 0.00889 0.57061
 H47 H 0.75663 0.09459 0.42234
 H48 H 0.88381 0.07835 0.51246
 C49 C 0.45043 0.23189 0.98272
 C50 C 0.45383 0.27519 1.02812
 C51 C 0.50821 0.30659 1.03586
 C52 C 0.54896 0.28909 0.99474
 C53 C 0.46919 0.26200 0.93562
 C54 C 0.52299 0.29441 0.94103
 C55 C 0.49466 0.19684 0.99424
 C56 C 0.54916 0.22669 1.00168
 H57 H 0.42096 0.27853 1.05792
 H58 H 0.59075 0.31333 0.99961
 H59 H 0.44162 0.26496 0.90148
 H60 H 0.48661 0.15120 0.99755
 C61 C 0.40577 0.76269 1.01690
 C62 C 0.40765 0.72109 0.96634
 C63 C 0.45689 0.69782 0.95991
 C64 C 0.49977 0.71725 1.00560
 C65 C 0.41918 0.72665 1.06395
 C66 C 0.46895 0.70435 1.05943
 C67 C 0.45432 0.80391 1.01215
 C68 C 0.50667 0.77988 1.00520
 H69 H 0.37381 0.71071 0.93762
 H70 H 0.53757 0.69455 1.00036
 H71 H 0.39431 0.72398 1.10066
 H72 H 0.45034 0.84929 1.01715
 B73 B 0.98118 1.05398 0.03657
 B74 B 0.97734 1.05666 -0.03514
 B75 B 1.03733 1.03894 -0.00469
 B76 B 1.01795 0.99724 0.04937
 B77 B 0.94589 0.99073 0.05240
 B78 B 0.92121 1.02906 0.00168
 B79 B 0.97653 0.93756 -0.04567
 B80 B 0.97982 0.93550 0.02406
 B81 B 0.92038 0.95438 -0.00683
 B82 B 0.94052 0.99475 -0.06034
 B83 B 1.01236 1.00142 -0.06383
 B84 B 1.03671 0.96489 -0.01188
 B85 B 0.56694 0.50612 0.46206
 B86 B 0.50371 0.52851 0.44143
 B87 B 0.50994 0.45711 0.44416
 B88 B 0.55067 0.44589 0.49859
 B89 B 0.57091 0.51274 0.53206
 B90 B 0.54170 0.56419 0.49553
 B91 B 0.45603 0.49367 0.54025
 B92 B 0.51821 0.46836 0.55824
 B93 B 0.51169 0.54174 0.55595
 B94 B 0.47012 0.55142 0.49999
 B95 B 0.44993 0.48504 0.47008
 B96 B 0.47796 0.43398 0.50424
 C97 C 0.97441 1.36658 0.18048
 C98 C 0.98664 1.31224 0.16072
 C99 C 1.03946 1.30453 0.13768
 C100 C 1.07787 1.35228 0.13141
 C101 C 1.06527 1.40649 0.15082
 C102 C 1.01431 1.41405 0.17767
 C103 C 1.05280 1.24927 0.12143
 C104 C 1.01203 1.20254 0.12351
 C105 C 0.95893 1.21113 0.14470
 C106 C 0.94704 1.26523 0.16501
 C107 C 0.91794 1.16551 0.14373
 C108 C 0.92665 1.11529 0.11383
 C109 C 0.97732 1.10740 0.08510
 C110 C 1.02198 1.14811 0.10106
 H111 H 0.93519 1.37029 0.20109
 H112 H 1.11834 1.34750 0.11324
 H113 H 1.09749 1.44193 0.14910
 H114 H 1.09357 1.24317 0.10456
 H115 H 0.90625 1.27107 0.18218
 H116 H 0.87731 1.17015 0.16169
 H117 H 0.89039 1.08501 0.11079
 H118 H 1.06415 1.13988 0.09479
 C119 C 1.00681 0.66252 0.20586
 C120 C 1.01280 0.71049 0.17439
 C121 C 1.06354 0.72499 0.14693
 C122 C 1.10795 0.69144 0.15250
 C123 C 1.10079 0.64228 0.18211
 C124 C 1.04994 0.62716 0.20822
 C125 C 1.06798 0.77101 0.11259
 C126 C 1.02159 0.80134 0.10406
 C127 C 0.97147 0.78630 0.13181
 C128 C 0.96750 0.74192 0.16730
 C129 C 0.92524 0.81499 0.12276
 C130 C 0.92846 0.85848 0.08711
 C131 C 0.97750 0.87653 0.05859
 C132 C 1.02419 0.84609 0.06805
 H133 H 0.96707 0.64998 0.22482
 H134 H 1.14716 0.70155 0.13178
 H135 H 1.13414 0.61466 0.18286
 H136 H 1.10677 0.78200 0.09135
 H137 H 0.92844 0.73055 0.18799
 H138 H 0.88601 0.80363 0.14308
 H139 H 0.89065 0.87674 0.08204
 H140 H 1.06282 0.85618 0.04820
 C141 C 0.97595 1.33930 -0.20499
 C142 C 0.98560 1.29100 -0.17794
 C143 C 1.04038 1.28212 -0.16241
 C144 C 1.08477 1.32234 -0.17335
 C145 C 1.07494 1.37071 -0.19976
 C146 C 1.02065 1.37920 -0.21762
 C147 C 1.04968 1.23396 -0.13484
 C148 C 1.00451 1.19560 -0.12111
 C149 C 0.95011 1.20480 -0.13654
 C150 C 0.94082 1.25191 -0.16538
 C151 C 0.90574 1.16649 -0.12310
 C152 C 0.91511 1.12105 -0.09257
 C153 C 0.96890 1.11199 -0.07242
 C154 C 1.01321 1.14864 -0.09146
 H155 H 0.93338 1.34582 -0.21440
 H156 H 1.12689 1.31685 -0.16087
 H157 H 1.11015 1.40190 -0.20653
 H158 H 1.09169 1.22721 -0.12278
 H159 H 0.89874 1.25860 -0.17725
 H160 H 0.86362 1.17145 -0.13601
 H161 H 0.87841 1.09238 -0.08550
 H162 H 1.05502 1.14195 -0.08475
 C163 C 1.00107 0.63298 -0.21309
 C164 C 1.00164 0.68177 -0.17725
 C165 C 1.03226 0.68553 -0.12807
 C166 C 1.06148 0.63974 -0.11530
 C167 C 1.05872 0.59021 -0.14988
 C168 C 1.02792 0.58581 -0.19897
 C169 C 1.03239 0.73457 -0.09225
 C170 C 1.00111 0.77930 -0.10465
 C171 C 0.96957 0.77410 -0.15303
 C172 C 0.97033 0.72607 -0.18921
 C173 C 0.93818 0.81760 -0.16524
 C174 C 0.93982 0.86695 -0.13143
 C175 C 0.97271 0.87637 -0.08386
 C176 C 1.00147 0.82955 -0.07016
 H177 H 0.97606 0.63042 -0.24975
 H178 H 1.08557 0.64172 -0.07808
 H179 H 1.08184 0.55568 -0.13835
 H180 H 1.05647 0.73775 -0.05489
 H181 H 0.94620 0.72303 -0.22656
 H182 H 0.91376 0.81460 -0.20238
 H183 H 0.91913 0.89861 -0.14812
 H184 H 1.02679 0.83265 -0.03445
 C185 C 1.17199 0.98456 0.34031
 C186 C 1.14171 0.97633 0.29150
 C187 C 1.09576 0.93412 0.28599
 C188 C 1.08136 0.90028 0.32979
 C189 C 1.11127 0.90936 0.37877
 C190 C 1.15609 0.95274 0.38544
 C191 C 1.06505 0.92696 0.23701
 C192 C 1.07908 0.96281 0.19423
 C193 C 1.12477 1.00496 0.20066
 C194 C 1.15642 1.01079 0.24846
 C195 C 1.13716 1.04238 0.15997
 C196 C 1.10383 1.03966 0.11393
 C197 C 1.05741 0.99843 0.10482
 C198 C 1.04700 0.95884 0.14608
 H199 H 1.20810 1.01569 0.34206
 H200 H 1.04669 0.86712 0.32638
 H201 H 1.09916 0.88244 0.41180
 H202 H 1.02969 0.89459 0.23272
 H203 H 1.19148 1.04354 0.25283
 H204 H 1.17208 1.07524 0.16432
 H205 H 1.11650 1.07124 0.08677
 H206 H 1.01074 0.92838 0.14433
 C207 C 1.16192 0.99139 -0.36266
 C208 C 1.13056 0.98549 -0.31463
 C209 C 1.08298 0.94501 -0.31356
 C210 C 1.06773 0.91085 -0.36078
 C211 C 1.09859 0.91753 -0.40859
 C212 C 1.14562 0.95820 -0.41019
 C213 C 1.05122 0.93988 -0.26557
 C214 C 1.06612 0.97538 -0.21878
 C215 C 1.11326 1.01567 -0.22061
 C216 C 1.14544 1.02036 -0.26795
 C217 C 1.12689 1.05197 -0.17530
 C218 C 1.09475 1.04832 -0.12849
 C219 C 1.04818 1.00744 -0.12265
 C220 C 1.03442 0.97180 -0.17040
 H221 H 1.19787 1.02300 -0.36354
 H222 H 1.03164 0.87938 -0.36092
 H223 H 1.08572 0.89056 -0.44447
 H224 H 1.01479 0.90882 -0.26483
 H225 H 1.18160 1.05179 -0.26867
 H226 H 1.16223 1.08438 -0.17616
 H227 H 1.10812 1.08036 -0.09893
 H228 H 0.99842 0.94215 -0.17139
 C229 C 0.82295 1.01839 0.35455
 C230 C 0.85224 1.01613 0.30615
 C231 C 0.90892 1.03816 0.30490
 C232 C 0.93510 1.06253 0.35262
 C233 C 0.90556 1.06375 0.40150
 C234 C 0.84921 1.04087 0.40291
 C235 C 0.93829 1.03501 0.25603
 C236 C 0.91128 1.01007 0.20889
 C237 C 0.85473 0.98838 0.21056
 C238 C 0.82546 0.99125 0.25922
 C239 C 0.82787 0.96570 0.16317
 C240 C 0.85664 0.96544 0.11429
 C241 C 0.91348 0.98605 0.11077
 C242 C 0.93961 1.00879 0.15964
 H243 H 0.77961 1.00055 0.35525
 H244 H 0.97856 1.07973 0.35232
 H245 H 0.92778 1.08166 0.43744
 H246 H 0.98186 1.05191 0.25464
 H247 H 0.78182 0.97454 0.26048
 H248 H 0.78430 0.94884 0.16361
 H249 H 0.83348 0.94697 0.08011
 H250 H 0.98010 1.03231 0.15948
 C251 C 0.80341 1.03541 -0.35003
 C252 C 0.82998 1.03926 -0.29993
 C253 C 0.88030 1.07513 -0.29166
 C254 C 0.89952 1.11179 -0.33166
 C255 C 0.87209 1.10840 -0.38152
 C256 C 0.82619 1.06714 -0.39224
 C257 C 0.91169 1.07147 -0.24484
 C258 C 0.89240 1.03312 -0.20615
 C259 C 0.83961 1.00197 -0.21223
 C260 C 0.80881 1.00454 -0.25936
 C261 C 0.82002 0.96590 -0.17259
 C262 C 0.85196 0.96188 -0.12668
 C263 C 0.90405 0.99444 -0.11725
 C264 C 0.92517 1.02588 -0.16124
 H265 H 0.76803 1.00374 -0.35683
 H266 H 0.93692 1.14112 -0.32532
 H267 H 0.88869 1.13612 -0.41240
 H268 H 0.95149 1.09717 -0.23921
 H269 H 0.76949 0.97803 -0.26529
 H270 H 0.78137 0.93831 -0.17835
 H271 H 0.84030 0.92422 -0.10638
 H272 H 0.96561 1.04973 -0.15938
 C273 C 1.34498 1.21729 -0.00932
 C274 C 1.29504 1.18028 -0.01323
 C275 C 1.29655 1.12275 -0.03305
 C276 C 1.34587 1.10522 -0.05529
 C277 C 1.39427 1.14300 -0.05444
 C278 C 1.39651 1.19775 -0.02634
 C279 C 1.24844 1.08395 -0.03160
 C280 C 1.19746 1.10287 -0.01444
 C281 C 1.19448 1.16154 -0.00089
 C282 C 1.24347 1.19967 0.00177
 C283 C 1.14225 1.18127 0.00744
 C284 C 1.09393 1.14306 0.00357
 C285 C 1.09536 1.08318 -0.00413
 C286 C 1.14896 1.06428 -0.01349
 H287 H 1.34331 1.26093 0.00696
 H288 H 1.34703 1.06227 -0.07372
 H289 H 1.43094 1.12796 -0.07391
 H290 H 1.25042 1.03935 -0.04501
 H291 H 1.24126 1.24442 0.01434
 H292 H 1.13849 1.22661 0.01496
 H293 H 1.05463 1.16133 0.00655
 H294 H 1.15350 1.02095 -0.02621
 C295 C 0.65078 1.21496 0.01017
 C296 C 0.69259 1.17832 0.01989
 C297 C 0.67769 1.12313 0.03864
 C298 C 0.62249 1.10743 0.05234
 C299 C 0.58182 1.14395 0.04408
 C300 C 0.59401 1.19660 0.01905
 C301 C 0.71799 1.08425 0.04325
 C302 C 0.77382 1.09996 0.03002
 C303 C 0.78934 1.15667 0.01638
 C304 C 0.74904 1.19525 0.01047
 C305 C 0.84542 1.17443 0.01083
 C306 C 0.88453 1.13497 0.01231
 C307 C 0.87012 1.07430 0.01272
 C308 C 0.81437 1.06012 0.03025
 H309 H 0.66244 1.25560 -0.00722
 H310 H 0.61050 1.06655 0.06931
 H311 H 0.54048 1.13001 0.05825
 H312 H 0.70562 1.04150 0.05603
 H313 H 0.76162 1.23816 -0.00177
 H314 H 0.85943 1.21895 0.00524
 H315 H 0.92721 1.15345 0.01053
 H316 H 0.80135 1.01943 0.04550
 C317 C 1.31682 0.80110 -0.01683
 C318 C 1.27123 0.83328 -0.00798
 C319 C 1.26170 0.85862 0.04435
 C320 C 1.29825 0.85190 0.08683
 C321 C 1.34372 0.82026 0.07765
 C322 C 1.35305 0.79308 0.02615
 C323 C 1.21621 0.89085 0.05323
 C324 C 1.17983 0.89775 0.01041
 C325 C 1.18960 0.87274 -0.04179
 C326 C 1.23529 0.84093 -0.05087
 C327 C 1.15293 0.87918 -0.08394
 C328 C 1.10609 0.90845 -0.07412
 C329 C 1.09361 0.93249 -0.02198
 C330 C 1.13315 0.92826 0.01949
 H331 H 1.32454 0.78409 -0.05763
 H332 H 1.29218 0.87183 0.12701
 H333 H 1.37239 0.81801 0.11095
 H334 H 1.20887 0.91009 0.09350
 H335 H 1.24251 0.82165 -0.09114
 H336 H 1.15956 0.86025 -0.12443
 H337 H 1.07835 0.90875 -0.10776
 H338 H 1.12731 0.94570 0.05983
 C339 C 0.61026 0.79051 0.00045
 C340 C 0.66079 0.82482 -0.00587
 C341 C 0.66012 0.88380 -0.01315
 C342 C 0.60936 0.90721 -0.01572
 C343 C 0.55936 0.87286 -0.01055
 C344 C 0.55834 0.81388 -0.00144
 C345 C 0.71020 0.91871 -0.01753
 C346 C 0.76115 0.89540 -0.01446
 C347 C 0.76236 0.83623 -0.00977
 C348 C 0.71211 0.80109 -0.00499
 C349 C 0.81386 0.81342 -0.01152
 C350 C 0.86349 0.84965 -0.01432
 C351 C 0.86331 0.90995 -0.01166
 C352 C 0.81102 0.93077 -0.01651
 H353 H 0.61282 0.74624 0.00819
 H354 H 0.60823 0.95229 -0.02210
 H355 H 0.52190 0.89363 -0.01504
 H356 H 0.70954 0.96417 -0.02247
 H357 H 0.71296 0.75557 -0.00066
 H358 H 0.81590 0.76769 -0.01039
 H359 H 0.90186 0.82978 -0.01543
 H360 H 0.80928 0.97336 -0.02878
 C361 C 0.87136 0.55252 0.31705
 C362 C 0.82397 0.54075 0.34963
 C363 C 0.82474 0.50115 0.39053
 C364 C 0.87434 0.47701 0.40056
 C365 C 0.92142 0.48922 0.36816
 C366 C 0.91969 0.52566 0.32526
 C367 C 0.77555 0.48516 0.41943
 C368 C 0.72597 0.50943 0.40877
 C369 C 0.72678 0.55147 0.37038
 C370 C 0.77520 0.56640 0.34057
 C371 C 0.67926 0.57894 0.36317
 C372 C 0.63146 0.56432 0.39303
 C373 C 0.62616 0.51929 0.42800
 C374 C 0.67571 0.49293 0.43613
 H375 H 0.86968 0.57987 0.28336
 H376 H 0.87607 0.44700 0.43200
 H377 H 0.95814 0.46727 0.37424
 H378 H 0.77581 0.45371 0.44978
 H379 H 0.77480 0.59775 0.31012
 H380 H 0.67959 0.61357 0.33608
 H381 H 0.60014 0.59150 0.39101
 H382 H 0.67645 0.45938 0.46313
 C383 C 0.14931 0.47762 0.33036
 C384 C 0.19389 0.48025 0.36605
 C385 C 0.19860 0.52181 0.40995
 C386 C 0.15586 0.55799 0.41881
 C387 C 0.10953 0.55331 0.38370
 C388 C 0.10592 0.51310 0.33877
 C389 C 0.24672 0.52718 0.44263
 C390 C 0.28940 0.49131 0.43109
 C391 C 0.28204 0.44763 0.38939
 C392 C 0.23448 0.44226 0.35708
 C393 C 0.32293 0.41046 0.38012
 C394 C 0.37321 0.42036 0.40805
 C395 C 0.38637 0.46943 0.44338
 C396 C 0.34034 0.49993 0.45891
 H397 H 0.15043 0.44860 0.29470
 H398 H 0.15841 0.58996 0.45259
 H399 H 0.07702 0.58127 0.39166
 H400 H 0.25186 0.56030 0.47541
 H401 H 0.22976 0.40942 0.32397
 H402 H 0.31660 0.37431 0.35050
 H403 H 0.40186 0.38973 0.40035
 H404 H 0.34386 0.53325 0.49000
 C405 C 0.88171 0.53411 0.66550
 C406 C 0.83013 0.52508 0.63722
 C407 C 0.81769 0.47431 0.60361
 C408 C 0.85767 0.43556 0.59566
 C409 C 0.90753 0.44395 0.62454
 C410 C 0.91927 0.49167 0.66169
 C411 C 0.76475 0.46166 0.57995
 C412 C 0.72380 0.49953 0.58826
 C413 C 0.73656 0.55157 0.61908
 C414 C 0.78943 0.56402 0.64397
 C415 C 0.69582 0.58985 0.62450
 C416 C 0.64420 0.57727 0.59813
 C417 C 0.63040 0.52587 0.56612
 C418 C 0.67044 0.48609 0.56534
 H419 H 0.88984 0.57082 0.69424
 H420 H 0.84921 0.39709 0.56921
 H421 H 0.93609 0.41115 0.61999
 H422 H 0.75528 0.42201 0.55528
 H423 H 0.79855 0.60342 0.66902
 H424 H 0.70437 0.63044 0.64774
 H425 H 0.61702 0.61012 0.60088
 H426 H 0.66182 0.44459 0.54598
 C427 C 0.15869 0.48767 0.68663
 C428 C 0.21115 0.50240 0.66550
 C429 C 0.21974 0.54935 0.63278
 C430 C 0.17466 0.58116 0.62263
 C431 C 0.12088 0.56435 0.64251
 C432 C 0.11166 0.51557 0.67295
 C433 C 0.27270 0.56197 0.60974
 C434 C 0.31489 0.52530 0.61628
 C435 C 0.30521 0.47813 0.64844
 C436 C 0.25421 0.46828 0.67478
 C437 C 0.34557 0.43981 0.65129
 C438 C 0.39299 0.44556 0.61863
 C439 C 0.40311 0.49090 0.58367
 C440 C 0.36530 0.53304 0.58819
 H441 H 0.15547 0.45342 0.71415
 H442 H 0.18057 0.61770 0.59778
 H443 H 0.08661 0.58800 0.63197
 H444 H 0.27996 0.59788 0.58415
 H445 H 0.24678 0.43169 0.69955
 H446 H 0.33876 0.40310 0.67587
 H447 H 0.41899 0.41161 0.61845
 H448 H 0.37139 0.57052 0.56732
 C449 C 0.46926 0.63798 0.13403
 C450 C 0.48185 0.62863 0.18819
 C451 C 0.51976 0.66797 0.21853
 C452 C 0.54703 0.71448 0.19253
 C453 C 0.53458 0.72325 0.13820
 C454 C 0.49452 0.68589 0.10908
 C455 C 0.52874 0.66047 0.27428
 C456 C 0.50183 0.61270 0.29925
 C457 C 0.46630 0.57284 0.26738
 C458 C 0.45567 0.58127 0.21282
 C459 C 0.44209 0.52430 0.29024
 C460 C 0.45511 0.51344 0.34299
 C461 C 0.49132 0.55030 0.37791
 C462 C 0.51069 0.60321 0.35491
 H463 H 0.43759 0.60963 0.11205
 H464 H 0.57657 0.74508 0.21469
 H465 H 0.55351 0.76129 0.12007
 H466 H 0.55707 0.69116 0.29782
 H467 H 0.42719 0.55059 0.18934
 H468 H 0.41484 0.49278 0.26641
 H469 H 0.43853 0.47273 0.35387
 H470 H 0.53451 0.63717 0.37782
 C471 C 0.48713 0.68877 0.86255
 C472 C 0.48946 0.65628 0.81258
 C473 C 0.47273 0.59677 0.81037
 C474 C 0.45575 0.57055 0.85826
 C475 C 0.45339 0.60321 0.90759
 C476 C 0.46837 0.66245 0.91002
 C477 C 0.47226 0.56461 0.76025
 C478 C 0.48902 0.59094 0.71227
 C479 C 0.50722 0.64977 0.71460
 C480 C 0.50697 0.68235 0.76460
 C481 C 0.52497 0.67493 0.66666
 C482 C 0.52594 0.64187 0.61735
 C483 C 0.50896 0.58237 0.61351
 C484 C 0.48823 0.55889 0.66208
 H485 H 0.49804 0.73472 0.86427
 H486 H 0.44304 0.52497 0.85731
 H487 H 0.43816 0.58255 0.94363
 H488 H 0.45885 0.51908 0.75859
 H489 H 0.52019 0.72789 0.76613
 H490 H 0.53864 0.72030 0.66724
 H491 H 0.54011 0.66400 0.58247
 H492 H 0.47207 0.51485 0.66217
 C493 C 0.50074 0.31684 0.13499
 C494 C 0.51472 0.34573 0.18533
 C495 C 0.54963 0.39773 0.18778
 C496 C 0.57366 0.41724 0.13925
 C497 C 0.56204 0.38615 0.08912
 C498 C 0.52355 0.33678 0.08606
 C499 C 0.55954 0.42873 0.23860
 C500 C 0.53623 0.40683 0.28679
 C501 C 0.50553 0.35247 0.28359
 C502 C 0.49428 0.32274 0.23329
 C503 C 0.48584 0.32848 0.33091
 C504 C 0.49153 0.35995 0.38043
 C505 C 0.51351 0.41761 0.38534
 C506 C 0.54143 0.43837 0.33790
 H507 H 0.47372 0.27706 0.13447
 H508 H 0.60146 0.45647 0.14005
 H509 H 0.58089 0.40251 0.05250
 H510 H 0.58455 0.46980 0.24051
 H511 H 0.46901 0.28176 0.23146
 H512 H 0.46450 0.28556 0.32961
 H513 H 0.47443 0.33912 0.41374
 H514 H 0.56421 0.48028 0.33950
 C515 C 0.52783 0.31186 0.84448
 C516 C 0.53792 0.34787 0.80156
 C517 C 0.56492 0.40362 0.81044
 C518 C 0.58434 0.42054 0.86373
 C519 C 0.57454 0.38350 0.90706
 C520 C 0.54348 0.32941 0.89835
 C521 C 0.57112 0.44035 0.76593
 C522 C 0.55050 0.42076 0.71308
 C523 C 0.52568 0.36368 0.70657
 C524 C 0.51975 0.32819 0.74982
 C525 C 0.50731 0.34128 0.65626
 C526 C 0.50961 0.37530 0.61298
 C527 C 0.52765 0.43382 0.61544
 C528 C 0.55304 0.45549 0.66650
 H529 H 0.50713 0.26922 0.83545
 H530 H 0.60602 0.46275 0.87219
 H531 H 0.58792 0.39892 0.94768
 H532 H 0.59095 0.48364 0.77257
 H533 H 0.49978 0.28480 0.74321
 H534 H 0.49152 0.29650 0.64973
 H535 H 0.50100 0.35312 0.57614
 H536 H 0.57313 0.49876 0.67062
 C537 C 0.69275 0.88845 0.52588
 C538 C 0.67692 0.82904 0.52334
 C539 C 0.71765 0.78965 0.52457
 C540 C 0.77409 0.81083 0.52671
 C541 C 0.78964 0.86952 0.52343
 C542 C 0.74916 0.90894 0.52251
 C543 C 0.70135 0.73001 0.52010
 C544 C 0.64529 0.70951 0.50939
 C545 C 0.60621 0.74986 0.50430
 C546 C 0.62135 0.80856 0.51395
 C547 C 0.55322 0.73141 0.48531
 C548 C 0.53761 0.67363 0.47534
 C549 C 0.57064 0.63078 0.49006
 C550 C 0.62729 0.64995 0.50214
 H551 H 0.66119 0.91801 0.52325
 H552 H 0.80625 0.78178 0.52718
 H553 H 0.83362 0.88426 0.52098
 H554 H 0.73245 0.69992 0.52219
 H555 H 0.59035 0.83861 0.51040
 H556 H 0.52415 0.76184 0.47603
 H557 H 0.49961 0.66448 0.45389
 H558 H 0.65735 0.61925 0.50537
 C559 C 0.66916 0.13530 0.47212
 C560 C 0.64954 0.18821 0.48702
 C561 C 0.64346 0.20559 0.54247
 C562 C 0.65723 0.16907 0.58209
 C563 C 0.68076 0.11824 0.56694
 C564 C 0.68897 0.10156 0.51162
 C565 C 0.62582 0.25990 0.55710
 C566 C 0.61664 0.29777 0.51673
 C567 C 0.62530 0.28055 0.46175
 C568 C 0.63992 0.22565 0.44704
 C569 C 0.62260 0.31985 0.42237
 C570 C 0.60650 0.37379 0.43652
 C571 C 0.58737 0.38953 0.48919
 C572 C 0.59965 0.35276 0.53006
 H573 H 0.67258 0.12258 0.42931
 H574 H 0.65289 0.18139 0.62491
 H575 H 0.69516 0.09411 0.59905
 H576 H 0.62041 0.27305 0.59963
 H577 H 0.64633 0.21304 0.40451
 H578 H 0.63349 0.30922 0.38045
 H579 H 0.60951 0.40296 0.40480
 H580 H 0.59959 0.36740 0.57212
 C581 C 0.30715 0.83417 0.47443
 C582 C 0.33676 0.78950 0.48934
 C583 C 0.35311 0.78608 0.54385
 C584 C 0.33742 0.82736 0.58304
 C585 C 0.30475 0.87022 0.56830
 C586 C 0.28891 0.87410 0.51363
 C587 C 0.38351 0.74077 0.55792
 C588 C 0.39438 0.69729 0.51835
 C589 C 0.37455 0.70018 0.46493
 C590 C 0.34799 0.74686 0.45028
 C591 C 0.37919 0.65514 0.42695
 C592 C 0.40440 0.60797 0.44084
 C593 C 0.42970 0.60397 0.49218
 C594 C 0.42339 0.65036 0.53109
 H595 H 0.29784 0.83665 0.43183
 H596 H 0.34886 0.82546 0.62531
 H597 H 0.29129 0.89922 0.60028
 H598 H 0.39711 0.73849 0.59955
 H599 H 0.33385 0.74873 0.40870
 H600 H 0.36193 0.65552 0.38640
 H601 H 0.40192 0.57405 0.41006
 H602 H 0.43734 0.64876 0.57201
 C603 C 0.28656 0.12537 0.51288
 C604 C 0.32817 0.17166 0.51284
 C605 C 0.38498 0.16209 0.50697
 C606 C 0.39905 0.10532 0.50393
 C607 C 0.35711 0.05914 0.50446
 C608 C 0.30055 0.06899 0.50775
 C609 C 0.42602 0.20936 0.50325
 C610 C 0.41056 0.26591 0.50629
 C611 C 0.35384 0.27398 0.51446
 C612 C 0.31324 0.22743 0.51717
 C613 C 0.33776 0.32874 0.51973
 C614 C 0.37681 0.37563 0.51695
 C615 C 0.43461 0.37203 0.50738
 C616 C 0.45016 0.31455 0.50159
 H617 H 0.24292 0.13307 0.51491
 H618 H 0.44223 0.09662 0.49973
 H619 H 0.36859 0.01573 0.49959
 H620 H 0.46952 0.20214 0.49778
 H621 H 0.26967 0.23470 0.52237
 H622 H 0.29434 0.33574 0.52631
 H623 H 0.35874 0.41517 0.52166
 H624 H 0.49335 0.30752 0.49426
   
