data_POSCAR
  _audit_creation_date              2014-09-24
  _audit_creation_method            'ToBaCCo'
  _symmetry_space_group_name_H-M    'P1'
  _symmetry_Int_Tables_number       1
  _symmetry_cell_setting            triclinic
  loop_
  _symmetry_equiv_pos_as_xyz
 x,y,z
_cell_length_a 67.8185
_cell_length_b 67.8178
_cell_length_c 23.9774
_cell_angle_alpha 90.000000
_cell_angle_beta 90.000000
_cell_angle_gamma 120.000000
loop_
  _atom_site_label
  _atom_site_type_symbol
  _atom_site_fract_x
  _atom_site_fract_y
  _atom_site_fract_z
C1 C 0.24054 0.48209 0.52740
 C2 C 0.24039 0.48175 0.46564
 C3 C 0.21951 0.48106 0.42892
 C4 C 0.26092 0.48167 0.42911
 C5 C 0.26098 0.48224 0.56446
 C6 C 0.22005 0.48207 0.56350
 C7 C 0.21148 0.46815 0.37868
 C8 C 0.19350 0.46703 0.34335
 C9 C 0.18088 0.47882 0.35304
 C10 C 0.18896 0.49198 0.40386
 C11 C 0.20726 0.49308 0.43962
 C12 C 0.27357 0.47045 0.44350
 C13 C 0.29179 0.47090 0.40930
 C14 C 0.29876 0.48190 0.35594
 C15 C 0.28572 0.49252 0.34108
 C16 C 0.26808 0.49262 0.37577
 C17 C 0.28523 0.49667 0.55661
 C18 C 0.30279 0.49599 0.59150
 C19 C 0.29800 0.48099 0.63846
 C20 C 0.27371 0.46675 0.64563
 C21 C 0.25637 0.46752 0.61128
 C22 C 0.22427 0.49827 0.60677
 C23 C 0.20658 0.49903 0.63972
 C24 C 0.18259 0.48318 0.63480
 C25 C 0.17823 0.46645 0.59246
 C26 C 0.19604 0.46603 0.55828
 H27 H 0.21924 0.45827 0.36591
 H28 H 0.18998 0.45624 0.30756
 H29 H 0.18126 0.50188 0.41675
 H30 H 0.21203 0.50398 0.47592
 H31 H 0.26911 0.46054 0.48143
 H32 H 0.29992 0.46168 0.42436
 H33 H 0.25980 0.50157 0.35984
 H34 H 0.29094 0.50891 0.52291
 H35 H 0.32044 0.50773 0.58158
 H36 H 0.26738 0.45416 0.67836
 H37 H 0.23873 0.45583 0.62152
 H38 H 0.24177 0.51111 0.61495
 H39 H 0.21203 0.51250 0.67030
 H40 H 0.16071 0.45370 0.58433
 H41 H 0.19076 0.45274 0.52726
 H42 H 0.28922 0.50119 0.30132
 C43 C 0.51720 -0.24141 0.53232
 C44 C 0.51720 -0.24165 0.47060
 C45 C 0.51740 -0.26204 0.43378
 C46 C 0.51798 -0.22077 0.43434
 C47 C 0.51858 -0.21990 0.56684
 C48 C 0.51754 -0.26144 0.57014
 C49 C 0.50679 -0.26882 0.38000
 C50 C 0.50692 -0.28639 0.34504
 C51 C 0.51731 -0.29964 0.35993
 C52 C 0.52811 -0.29293 0.41357
 C53 C 0.52854 -0.27479 0.44804
 C54 C 0.53339 -0.21028 0.38888
 C55 C 0.53442 -0.19214 0.35424
 C56 C 0.51982 -0.18243 0.35986
 C57 C 0.50428 -0.19288 0.40565
 C58 C 0.50336 -0.21112 0.44084
 C59 C 0.49941 -0.21745 0.58300
 C60 C 0.50101 -0.19831 0.61570
 C61 C 0.52191 -0.18004 0.63808
 C62 C 0.54091 -0.18284 0.62155
 C63 C 0.53934 -0.20147 0.58783
 C64 C 0.50386 -0.28579 0.56222
 C65 C 0.50507 -0.30300 0.59743
 C66 C 0.51975 -0.29779 0.64532
 C67 C 0.53299 -0.27334 0.65289
 C68 C 0.53182 -0.25642 0.61792
 H69 H 0.49809 -0.26030 0.36396
 H70 H 0.49847 -0.28965 0.30503
 H71 H 0.53722 -0.30118 0.42862
 H72 H 0.53838 -0.27046 0.48606
 H73 H 0.54528 -0.21610 0.37973
 H74 H 0.54744 -0.18562 0.32251
 H75 H 0.49034 -0.21818 0.47254
 H76 H 0.48263 -0.23066 0.57028
 H77 H 0.48533 -0.19844 0.62498
 H78 H 0.55796 -0.17006 0.63316
 H79 H 0.55498 -0.20138 0.57830
 H80 H 0.49184 -0.29187 0.52802
 H81 H 0.49400 -0.32072 0.58679
 H82 H 0.54517 -0.26624 0.68625
 H83 H 0.54291 -0.23873 0.62870
 H84 H 0.49220 -0.18726 0.41416
 C85 C 1.24137 0.75912 0.52993
 C86 C 1.24135 0.75903 0.46826
 C87 C 1.26133 0.78000 0.43242
 C88 C 1.22129 0.73789 0.43270
 C89 C 1.22095 0.73853 0.56608
 C90 C 1.26161 0.77964 0.56673
 C91 C 1.26563 0.80294 0.43344
 C92 C 1.28316 0.82151 0.40023
 C93 C 1.29885 0.81946 0.36355
 C94 C 1.29480 0.79655 0.36308
 C95 C 1.27676 0.77775 0.39518
 C96 C 1.21209 0.74026 0.38049
 C97 C 1.19399 0.72126 0.34877
 C98 C 1.18335 0.69780 0.36560
 C99 C 1.19278 0.69569 0.41768
 C100 C 1.21080 0.71447 0.44881
 C101 C 1.22509 0.72572 0.60724
 C102 C 1.20738 0.70710 0.63976
 C103 C 1.18347 0.69959 0.63653
 C104 C 1.17922 0.71276 0.59630
 C105 C 1.19702 0.73115 0.56248
 C106 C 1.28537 0.79344 0.55199
 C107 C 1.30270 0.81165 0.58707
 C108 C 1.29819 0.81786 0.64090
 C109 C 1.27461 0.80348 0.65583
 C110 C 1.25746 0.78557 0.62096
 H111 H 1.25498 0.80668 0.45988
 H112 H 1.28442 0.83801 0.40372
 H113 H 1.30530 0.79277 0.33617
 H114 H 1.27502 0.76107 0.39088
 H115 H 1.21887 0.75723 0.36362
 H116 H 1.18852 0.72518 0.31001
 H117 H 1.21676 0.71018 0.48613
 H118 H 1.24253 0.72985 0.61396
 H119 H 1.21274 0.69841 0.66858
 H120 H 1.16175 0.70849 0.58948
 H121 H 1.19181 0.73974 0.53294
 H122 H 1.29113 0.79003 0.51312
 H123 H 1.31993 0.82101 0.57124
 H124 H 1.26883 0.80559 0.69612
 H125 H 1.24032 0.77619 0.63737
 H126 H 1.18618 0.67907 0.43620
 C127 C 0.75952 0.51824 0.53122
 C128 C 0.75944 0.51777 0.46943
 C129 C 0.78054 0.51859 0.43418
 C130 C 0.73833 0.51638 0.43306
 C131 C 0.73885 0.51802 0.56834
 C132 C 0.78056 0.51919 0.56752
 C133 C 0.80384 0.53639 0.43828
 C134 C 0.82246 0.53739 0.40521
 C135 C 0.82011 0.52038 0.36560
 C136 C 0.79684 0.50235 0.36203
 C137 C 0.77803 0.50170 0.39397
 C138 C 0.74082 0.53121 0.38717
 C139 C 0.72178 0.53043 0.35581
 C140 C 0.69815 0.51453 0.36664
 C141 C 0.69598 0.49924 0.41125
 C142 C 0.71486 0.50007 0.44241
 C143 C 0.73316 0.50841 0.62322
 C144 C 0.71566 0.50824 0.65891
 C145 C 0.70100 0.51721 0.64412
 C146 C 0.70618 0.52644 0.58846
 C147 C 0.72451 0.52741 0.55332
 C148 C 0.79237 0.50674 0.55721
 C149 C 0.81067 0.50779 0.59275
 C150 C 0.81914 0.52137 0.64273
 C151 C 0.80710 0.53371 0.65197
 C152 C 0.78909 0.53262 0.61687
 H153 H 0.80786 0.55022 0.46696
 H154 H 0.83924 0.55203 0.41112
 H155 H 0.79279 0.48871 0.33273
 H156 H 0.76109 0.48744 0.38704
 H157 H 0.75790 0.54411 0.37562
 H158 H 0.72582 0.54282 0.32298
 H159 H 0.71081 0.48756 0.47495
 H160 H 0.74241 0.50053 0.63965
 H161 H 0.71334 0.49991 0.69868
 H162 H 0.69665 0.53405 0.57214
 H163 H 0.72759 0.53622 0.51397
 H164 H 0.78723 0.49551 0.52148
 H165 H 0.81806 0.49754 0.58054
 H166 H 0.81120 0.54488 0.68725
 H167 H 0.78169 0.54289 0.62911
 H168 H 0.67921 0.48579 0.42282
 C169 C 0.48087 0.23969 0.53016
 C170 C 0.48074 0.24009 0.46842
 C171 C 0.48157 0.26130 0.43365
 C172 C 0.48069 0.21982 0.43121
 C173 C 0.48204 0.21941 0.56472
 C174 C 0.48087 0.25998 0.56727
 C175 C 0.46900 0.25893 0.38313
 C176 C 0.46967 0.27797 0.35204
 C177 C 0.48323 0.30150 0.36781
 C178 C 0.49631 0.30365 0.41730
 C179 C 0.49554 0.28478 0.44823
 C180 C 0.46495 0.19576 0.43679
 C181 C 0.46559 0.17805 0.40277
 C182 C 0.48231 0.18255 0.36033
 C183 C 0.49791 0.20659 0.35509
 C184 C 0.49690 0.22420 0.38783
 C185 C 0.49573 0.20980 0.54871
 C186 C 0.49687 0.19177 0.57889
 C187 C 0.48464 0.18100 0.62976
 C188 C 0.47118 0.19101 0.64669
 C189 C 0.47008 0.20929 0.61604
 C190 C 0.49690 0.27163 0.61114
 C191 C 0.49795 0.29030 0.64378
 C192 C 0.48260 0.29902 0.63790
 C193 C 0.46606 0.28699 0.59497
 C194 C 0.46537 0.26857 0.56109
 H195 H 0.45806 0.24190 0.36733
 H196 H 0.45912 0.27397 0.31523
 H197 H 0.50805 0.32042 0.43303
 H198 H 0.50661 0.28895 0.48405
 H199 H 0.45178 0.19036 0.46818
 H200 H 0.45307 0.16047 0.41123
 H201 H 0.50961 0.24174 0.37964
 H202 H 0.50635 0.21656 0.51210
 H203 H 0.50812 0.18674 0.56039
 H204 H 0.46118 0.18476 0.68442
 H205 H 0.45934 0.21541 0.63297
 H206 H 0.50942 0.26660 0.61985
 H207 H 0.51128 0.29807 0.67478
 H208 H 0.45372 0.29223 0.58602
 H209 H 0.45233 0.26096 0.52935
 H210 H 0.51141 0.21212 0.32456
 C211 C 0.75981 0.24066 0.53047
 C212 C 0.75951 0.24053 0.46878
 C213 C 0.73827 0.22032 0.43362
 C214 C 0.77983 0.26081 0.43198
 C215 C 0.78035 0.26091 0.56730
 C216 C 0.73932 0.22023 0.56683
 C217 C 0.74057 0.21105 0.38142
 C218 C 0.72154 0.19292 0.34981
 C219 C 0.69809 0.18229 0.36670
 C220 C 0.69604 0.19178 0.41879
 C221 C 0.71486 0.20982 0.44984
 C222 C 0.80383 0.26869 0.43658
 C223 C 0.82154 0.28697 0.40238
 C224 C 0.81708 0.29948 0.36068
 C225 C 0.79308 0.29141 0.35631
 C226 C 0.77548 0.27291 0.38930
 C227 C 0.79329 0.28496 0.55467
 C228 C 0.81136 0.30225 0.59048
 C229 C 0.81841 0.29740 0.64302
 C230 C 0.80494 0.27330 0.65513
 C231 C 0.78713 0.25632 0.61978
 C232 C 0.72668 0.22441 0.60839
 C233 C 0.70807 0.20670 0.64097
 C234 C 0.70043 0.18277 0.63741
 C235 C 0.71345 0.17849 0.59679
 C236 C 0.73182 0.19628 0.56292
 H237 H 0.75752 0.21782 0.36442
 H238 H 0.72543 0.18742 0.31105
 H239 H 0.67943 0.18521 0.43735
 H240 H 0.71061 0.21582 0.48718
 H241 H 0.80919 0.26062 0.46725
 H242 H 0.83909 0.29170 0.41004
 H243 H 0.75797 0.26834 0.38172
 H244 H 0.78926 0.29090 0.51689
 H245 H 0.81982 0.31971 0.57622
 H246 H 0.80750 0.26656 0.69331
 H247 H 0.77852 0.23888 0.63439
 H248 H 0.73090 0.24186 0.61535
 H249 H 0.69950 0.21209 0.67009
 H250 H 0.70906 0.16100 0.58971
 H251 H 0.74027 0.19105 0.53306
 H252 H 0.78755 0.29952 0.32622
 N253 N 0.97564 0.52451 0.06487
 N254 N 0.96015 0.53066 0.07890
 N255 N 1.02582 0.53443 0.10221
 N256 N 1.04165 0.54539 0.14166
 N257 N 1.02671 0.54920 0.06454
 N258 N 1.04332 0.57044 0.07997
 N259 N 0.97506 0.50998 0.10289
 N260 N 0.95901 0.50622 0.14174
 C261 C 0.94909 0.51902 0.12706
 C262 C 1.05313 0.56821 0.12894
 N263 N 1.02545 0.47544 0.06308
 N264 N 1.04148 0.46987 0.07574
 N265 N 0.97468 0.46461 0.10263
 N266 N 0.95860 0.45340 0.14157
 N267 N 0.97432 0.45001 0.06523
 N268 N 0.95788 0.42867 0.08022
 N269 N 1.02548 0.48921 0.10247
 N270 N 1.04154 0.49288 0.14124
 Mn271 Mn 1.00021 0.49955 0.10173
 C272 C 1.05211 0.48086 0.12492
 C273 C 0.94769 0.43056 0.12885
 N274 N 1.02602 0.54905 -0.06821
 N275 N 1.04268 0.57028 -0.08330
 N276 N 0.97414 0.50980 -0.10456
 N277 N 0.95799 0.50621 -0.14293
 N278 N 0.97494 0.52422 -0.06590
 N279 N 0.95918 0.53017 -0.07853
 N280 N 1.02490 0.53433 -0.10636
 N281 N 1.04084 0.54538 -0.14575
 Mn282 Mn 1.00093 0.53679 -0.00119
 C283 C 1.05235 0.56822 -0.13264
 C284 C 0.94806 0.51884 -0.12700
 N285 N 0.97380 0.45002 -0.06604
 N286 N 0.95791 0.42843 -0.07885
 N287 N 1.02423 0.48924 -0.10654
 N288 N 1.04031 0.49418 -0.14552
 N289 N 1.02485 0.47524 -0.06880
 N290 N 1.04141 0.47050 -0.08376
 N291 N 0.97351 0.46384 -0.10491
 N292 N 0.95747 0.45144 -0.14370
 Mn293 Mn 0.99965 0.46272 -0.00165
 Mn294 Mn 0.99908 0.49925 -0.10481
 Cl295 Cl 0.99996 0.49957 -0.00150
 C296 C 0.94715 0.42885 -0.12765
 C297 C 1.05143 0.48246 -0.13266
 N298 N 0.47655 0.45062 0.06386
 N299 N 0.47179 0.42934 0.07952
 N300 N 0.46405 0.48995 0.10097
 N301 N 0.45150 0.49352 0.13936
 N302 N 0.45048 0.47592 0.06167
 N303 N 0.42883 0.47048 0.07343
 N304 N 0.48980 0.46527 0.10254
 N305 N 0.49396 0.45418 0.14307
 C306 C 0.48303 0.43141 0.12984
 C307 C 0.42903 0.48144 0.12254
 N308 N 0.52384 0.54944 0.06373
 N309 N 0.52924 0.57102 0.07610
 N310 N 0.53441 0.50986 0.10395
 N311 N 0.54531 0.50525 0.14416
 N312 N 0.54926 0.52346 0.06607
 N313 N 0.57045 0.52800 0.08187
 N314 N 0.50964 0.53564 0.10241
 N315 N 0.50589 0.54798 0.14107
 Mn316 Mn 0.49941 0.50025 0.10152
 C317 C 0.51805 0.57055 0.12499
 C318 C 0.56817 0.51630 0.13153
 N319 N 0.45116 0.47613 -0.06855
 N320 N 0.42961 0.47073 -0.08112
 N321 N 0.49102 0.46547 -0.10702
 N322 N 0.49586 0.45421 -0.14596
 N323 N 0.47698 0.45085 -0.06921
 N324 N 0.47210 0.42952 -0.08415
 N325 N 0.46504 0.49029 -0.10729
 N326 N 0.45271 0.49416 -0.14584
 Mn327 Mn 0.46386 0.46331 -0.00306
 C328 C 0.43009 0.48201 -0.12983
 C329 C 0.48405 0.43136 -0.13296
 N330 N 0.54981 0.52371 -0.06579
 N331 N 0.57127 0.52846 -0.07741
 N332 N 0.51056 0.53600 -0.10583
 N333 N 0.50682 0.54848 -0.14414
 N334 N 0.52450 0.54963 -0.06647
 N335 N 0.52998 0.57125 -0.07855
 N336 N 0.53616 0.51083 -0.10650
 N337 N 0.54850 0.50725 -0.14552
 Mn338 Mn 0.53687 0.53648 -0.00068
 Mn339 Mn 0.50063 0.50066 -0.10601
 Cl340 Cl 0.50018 0.50017 -0.00214
 C341 C 0.57092 0.51826 -0.12793
 C342 C 0.51887 0.57099 -0.12741
 N343 N 0.45047 -0.02522 0.06414
 N344 N 0.42877 -0.04061 0.07787
 N345 N 0.49017 0.02469 0.10343
 N346 N 0.49497 0.04063 0.14277
 N347 N 0.47656 0.02574 0.06520
 N348 N 0.47184 0.04229 0.08022
 N349 N 0.46427 -0.02616 0.10201
 N350 N 0.45185 -0.04226 0.14056
 C351 C 0.42920 -0.05190 0.12573
 C352 C 0.48352 0.05201 0.12957
 N353 N 0.54946 0.02554 0.06537
 N354 N 0.57068 0.04223 0.08074
 N355 N 0.50987 -0.02618 0.10248
 N356 N 0.50611 -0.04231 0.14107
 N357 N 0.52422 -0.02564 0.06399
 N358 N 0.52985 -0.04160 0.07670
 N359 N 0.53469 0.02443 0.10336
 N360 N 0.54563 0.04022 0.14292
 Mn361 Mn 0.49968 -0.00095 0.10202
 C362 C 0.56844 0.05187 0.13003
 C363 C 0.51850 -0.05251 0.12526
 N364 N 0.47686 0.02588 -0.06776
 N365 N 0.47227 0.04249 -0.08361
 N366 N 0.46443 -0.02608 -0.10427
 N367 N 0.45199 -0.04225 -0.14265
 N368 N 0.45069 -0.02524 -0.06607
 N369 N 0.42903 -0.04092 -0.07896
 N370 N 0.49032 0.02451 -0.10589
 N371 N 0.49488 0.03999 -0.14613
 Mn372 Mn 0.46374 0.00044 -0.00116
 C373 C 0.48388 0.05182 -0.13341
 C374 C 0.42941 -0.05207 -0.12707
 N375 N 0.52447 -0.02561 -0.06631
 N376 N 0.53064 -0.04112 -0.07994
 N377 N 0.53499 0.02445 -0.10574
 N378 N 0.54614 0.04043 -0.14498
 N379 N 0.54962 0.02541 -0.06755
 N380 N 0.57091 0.04199 -0.08252
 N381 N 0.50982 -0.02643 -0.10428
 N382 N 0.50609 -0.04256 -0.14286
 Mn383 Mn 0.53701 0.00007 -0.00109
 Mn384 Mn 0.49982 -0.00103 -0.10424
 Cl385 Cl 0.50007 -0.00036 -0.00112
 C386 C 0.51895 -0.05236 -0.12791
 C387 C 0.56896 0.05178 -0.13180
 C388 C 1.13079 0.48518 0.27982
 C389 C 1.12677 0.47152 0.23417
 C390 C 1.13945 0.46058 0.22651
 C391 C 1.15667 0.46335 0.26562
 C392 C 1.16275 0.47718 0.31551
 C393 C 1.14866 0.48836 0.32121
 O394 O 1.11640 0.49399 0.27842
 C395 C 1.10324 0.48568 0.23117
 C396 C 1.10913 0.47182 0.20291
 C397 C 1.09791 0.46129 0.15288
 C398 C 1.08022 0.46479 0.13057
 C399 C 1.07252 0.47882 0.15613
 C400 C 1.08491 0.48952 0.20870
 H401 H 1.13618 0.44982 0.19034
 H402 H 1.16508 0.45404 0.25464
 H403 H 1.15139 0.49926 0.35673
 H404 H 1.10268 0.45037 0.13084
 H405 H 1.07232 0.45618 0.09198
 H406 H 1.08047 0.50051 0.23151
 C407 C 0.51618 0.64457 0.28410
 C408 C 0.52126 0.65242 0.23025
 C409 C 0.52489 0.67425 0.21715
 C410 C 0.52333 0.68851 0.25933
 C411 C 0.51858 0.68229 0.31694
 C412 C 0.51506 0.65929 0.32853
 O413 O 0.51277 0.62289 0.28707
 C414 C 0.51588 0.61704 0.23436
 C415 C 0.52132 0.63477 0.19829
 C416 C 0.52581 0.63271 0.14182
 C417 C 0.52476 0.61227 0.12120
 C418 C 0.51878 0.59258 0.15467
 C419 C 0.51418 0.59560 0.21353
 H420 H 0.52876 0.68033 0.17461
 H421 H 0.52626 0.70505 0.24646
 H422 H 0.51116 0.65281 0.37071
 H423 H 0.53026 0.64678 0.11361
 H424 H 0.52850 0.61181 0.07748
 H425 H 0.50968 0.58178 0.24258
 C426 C 0.35539 -0.13250 0.27512
 C427 C 0.34620 -0.12081 0.24962
 C428 C 0.32324 -0.12731 0.25942
 C429 C 0.30923 -0.14602 0.29586
 C430 C 0.31685 -0.15971 0.32367
 C431 C 0.34101 -0.15227 0.31171
 O432 O 0.37794 -0.12298 0.26104
 C433 C 0.38298 -0.10512 0.22584
 C434 C 0.36392 -0.10333 0.21725
 C435 C 0.36503 -0.08641 0.18110
 C436 C 0.38587 -0.07090 0.15296
 C437 C 0.40687 -0.07084 0.15984
 C438 C 0.40481 -0.08888 0.19829
 H439 H 0.31609 -0.11796 0.23955
 H440 H 0.29176 -0.15010 0.30173
 H441 H 0.34856 -0.16133 0.33101
 H442 H 0.34992 -0.08517 0.17407
 H443 H 0.38557 -0.05838 0.12554
 H444 H 0.41966 -0.09047 0.20606
 C445 C 0.86815 0.51192 0.27637
 C446 C 0.88033 0.53311 0.25255
 C447 C 0.87419 0.54974 0.26380
 C448 C 0.85533 0.54492 0.29992
 C449 C 0.84110 0.52331 0.32594
 C450 C 0.84820 0.50642 0.31253
 O451 O 0.87739 0.49875 0.26121
 C452 C 0.89558 0.51177 0.22703
 C453 C 0.89784 0.53290 0.22011
 C454 C 0.91515 0.54897 0.18512
 C455 C 0.93056 0.54361 0.15648
 C456 C 0.93019 0.52238 0.16170
 C457 C 0.91174 0.50614 0.19899
 H458 H 0.88393 0.56648 0.24532
 H459 H 0.85157 0.55846 0.30700
 H460 H 0.83874 0.48957 0.33045
 H461 H 0.91677 0.56554 0.17935
 H462 H 0.94337 0.55664 0.12999
 H463 H 0.90976 0.48947 0.20547
 C464 C 0.47838 0.34651 0.25693
 C465 C 0.48818 0.36586 0.28888
 C466 C 0.49576 0.36532 0.34306
 C467 C 0.49358 0.34476 0.36580
 C468 C 0.48406 0.32348 0.33640
 C469 C 0.47607 0.32498 0.27966
 O470 O 0.47214 0.35108 0.20612
 C471 C 0.47816 0.37368 0.20631
 C472 C 0.48810 0.38329 0.25642
 C473 C 0.49589 0.40644 0.26642
 C474 C 0.49367 0.42038 0.22482
 C475 C 0.48352 0.41242 0.17103
 C476 C 0.47552 0.38786 0.16259
 H477 H 0.50321 0.38062 0.36821
 H478 H 0.49932 0.34583 0.40821
 H479 H 0.46842 0.30994 0.25368
 H480 H 0.50376 0.41388 0.30600
 H481 H 0.50014 0.43807 0.23550
 H482 H 0.46767 0.38003 0.12332
 C483 C 0.65339 0.13025 0.26034
 C484 C 0.63318 0.12813 0.27786
 C485 C 0.63300 0.14234 0.32021
 C486 C 0.65375 0.15911 0.34604
 C487 C 0.67595 0.16276 0.33228
 C488 C 0.67513 0.14749 0.28681
 O489 O 0.64937 0.11482 0.21856
 C490 C 0.62625 0.10283 0.20987
 C491 C 0.61577 0.11052 0.24564
 C492 C 0.59197 0.10065 0.24495
 C493 C 0.57827 0.08244 0.20735
 C494 C 0.58715 0.07298 0.16790
 C495 C 0.61233 0.08406 0.17004
 H496 H 0.61698 0.14072 0.33329
 H497 H 0.65202 0.16965 0.37708
 H498 H 0.69088 0.14880 0.27263
 H499 H 0.58384 0.10679 0.27338
 H500 H 0.56005 0.07560 0.20928
 H501 H 0.62085 0.07815 0.14226
 C502 C 0.47835 0.13128 -0.26274
 C503 C 0.49246 0.12510 -0.28858
 C504 C 0.50364 0.13592 -0.33804
 C505 C 0.50064 0.15352 -0.36247
 C506 C 0.48641 0.16179 -0.33982
 C507 C 0.47498 0.14961 -0.28739
 O508 O 0.46936 0.11833 -0.21543
 C509 C 0.47803 0.10386 -0.21177
 C510 C 0.49228 0.10757 -0.25604
 C511 C 0.50328 0.09479 -0.26156
 C512 C 0.49984 0.07770 -0.22144
 C513 C 0.48539 0.07210 -0.17345
 C514 C 0.47421 0.08613 -0.16948
 H515 H 0.51471 0.13086 -0.35816
 H516 H 0.51003 0.16043 -0.40043
 H517 H 0.46377 0.15417 -0.26615
 H518 H 0.51451 0.09788 -0.29661
 H519 H 0.50891 0.06857 -0.22850
 H520 H 0.46289 0.08336 -0.13485
 C521 C 0.64702 0.51876 -0.28475
 C522 C 0.65107 0.51665 -0.22962
 C523 C 0.67005 0.51465 -0.21484
 C524 C 0.68530 0.51466 -0.25647
 C525 C 0.68320 0.51717 -0.31550
 C526 C 0.66307 0.51960 -0.32853
 O527 O 0.62736 0.51979 -0.28940
 C528 C 0.61909 0.51847 -0.23637
 C529 C 0.63332 0.51683 -0.19838
 C530 C 0.62859 0.51604 -0.14086
 C531 C 0.60898 0.51688 -0.12110
 C532 C 0.59258 0.51787 -0.15679
 C533 C 0.59831 0.51861 -0.21679
 H534 H 0.67319 0.51300 -0.17130
 H535 H 0.69962 0.51355 -0.24075
 H536 H 0.65958 0.52151 -0.37159
 H537 H 0.64001 0.51499 -0.11106
 H538 H 0.60638 0.51636 -0.07645
 H539 H 0.58716 0.51965 -0.24743
 C540 C 0.86913 0.35455 -0.28251
 C541 C 0.87298 0.34491 -0.23657
 C542 C 0.86032 0.32129 -0.22876
 C543 C 0.84323 0.30687 -0.26805
 C544 C 0.83733 0.31471 -0.31790
 C545 C 0.85144 0.33988 -0.32401
 O546 O 0.88348 0.37772 -0.28128
 C547 C 0.89647 0.38258 -0.23383
 C548 C 0.89052 0.36285 -0.20531
 C549 C 0.90160 0.36357 -0.15508
 C550 C 0.91921 0.38476 -0.13284
 C551 C 0.92690 0.40643 -0.15871
 C552 C 0.91468 0.40474 -0.21143
 H553 H 0.86355 0.31382 -0.19251
 H554 H 0.83489 0.28905 -0.25792
 H555 H 0.84875 0.34795 -0.35981
 H556 H 0.89678 0.34790 -0.13288
 H557 H 0.92704 0.38412 -0.09406
 H558 H 0.91918 0.42014 -0.23441
 C559 C 0.51278 -0.13282 -0.27774
 C560 C 0.53308 -0.12171 -0.24954
 C561 C 0.54928 -0.12864 -0.25652
 C562 C 0.54507 -0.14715 -0.29298
 C563 C 0.52444 -0.16034 -0.32448
 C564 C 0.50782 -0.15246 -0.31476
 O565 O 0.49990 -0.12293 -0.26545
 C566 C 0.51227 -0.10545 -0.22875
 C567 C 0.53266 -0.10429 -0.21750
 C568 C 0.54800 -0.08790 -0.17962
 C569 C 0.54270 -0.07223 -0.15236
 C570 C 0.52224 -0.07146 -0.16171
 C571 C 0.50671 -0.08901 -0.20195
 H572 H 0.56523 -0.11986 -0.23401
 H573 H 0.55837 -0.15144 -0.29426
 H574 H 0.49162 -0.16099 -0.33616
 H575 H 0.56398 -0.08719 -0.17061
 H576 H 0.55517 -0.06014 -0.12355
 H577 H 0.49063 -0.09007 -0.21168
 C578 C 0.35605 0.48638 -0.28510
 C579 C 0.34659 0.47490 -0.23639
 C580 C 0.32325 0.46603 -0.22635
 C581 C 0.30897 0.46864 -0.26643
 C582 C 0.31666 0.47991 -0.31938
 C583 C 0.34150 0.48918 -0.32740
 O584 O 0.37895 0.49365 -0.28557
 C585 C 0.38388 0.48658 -0.23645
 C586 C 0.36445 0.47496 -0.20516
 C587 C 0.36536 0.46593 -0.15293
 C588 C 0.38639 0.46864 -0.13160
 C589 C 0.40776 0.48051 -0.16020
 C590 C 0.40588 0.48971 -0.21488
 H591 H 0.31593 0.45723 -0.18756
 H592 H 0.29142 0.46178 -0.25436
 H593 H 0.34932 0.49818 -0.36561
 H594 H 0.34996 0.45675 -0.12850
 H595 H 0.38587 0.46125 -0.09124
 H596 H 0.42102 0.49896 -0.24011
 C597 C 1.12830 0.65283 -0.26853
 C598 C 1.13243 0.63497 -0.26860
 C599 C 1.15161 0.63708 -0.29691
 C600 C 1.16705 0.65774 -0.32572
 C601 C 1.16428 0.67731 -0.32931
 C602 C 1.14378 0.67413 -0.29926
 O603 O 1.10916 0.64723 -0.23763
 C604 C 1.10106 0.62548 -0.21820
 C605 C 1.11475 0.61726 -0.23672
 C606 C 1.10932 0.59490 -0.22310
 C607 C 1.08957 0.58042 -0.19014
 C608 C 1.07437 0.58727 -0.16752
 C609 C 1.08087 0.61094 -0.18281
 H610 H 1.15485 0.62300 -0.29664
 H611 H 1.18147 0.65824 -0.34650
 H612 H 1.14015 0.68794 -0.29890
 H613 H 1.12003 0.58842 -0.23821
 H614 H 1.08618 0.56331 -0.18177
 H615 H 1.07030 0.61773 -0.16873
 C616 C 0.86967 0.51474 -0.28172
 C617 C 0.87400 0.52883 -0.23677
 C618 C 0.86162 0.54013 -0.22982
 C619 C 0.84440 0.53727 -0.26901
 C620 C 0.83811 0.52304 -0.31805
 C621 C 0.85182 0.51149 -0.32308
 O622 O 0.88377 0.50562 -0.27977
 C623 C 0.89708 0.51415 -0.23287
 C624 C 0.89157 0.52847 -0.20537
 C625 C 0.90304 0.53930 -0.15581
 C626 C 0.92057 0.53562 -0.13324
 C627 C 0.92782 0.52111 -0.15811
 C628 C 0.91520 0.51013 -0.21014
 H629 H 0.86512 0.55121 -0.19420
 H630 H 0.83608 0.54678 -0.25902
 H631 H 0.84879 0.50028 -0.35809
 H632 H 0.89858 0.55057 -0.13437
 H633 H 0.92870 0.54446 -0.09505
 H634 H 0.91934 0.49878 -0.23236
 C635 C 0.47459 0.34647 -0.26907
 C636 C 0.49689 0.36356 -0.26572
 C637 C 0.51404 0.36073 -0.29117
 C638 C 0.50860 0.34013 -0.32058
 C639 C 0.48596 0.32134 -0.32763
 C640 C 0.46856 0.32527 -0.30050
 O641 O 0.46096 0.35265 -0.24049
 C642 C 0.47490 0.37400 -0.21908
 C643 C 0.49706 0.38140 -0.23407
 C644 C 0.51435 0.40327 -0.21796
 C645 C 0.50918 0.41808 -0.18609
 C646 C 0.48684 0.41203 -0.16699
 C647 C 0.46929 0.38886 -0.18482
 H648 H 0.53161 0.37421 -0.28821
 H649 H 0.52259 0.33904 -0.33904
 H650 H 0.45088 0.31207 -0.30287
 H651 H 0.53176 0.40912 -0.23034
 H652 H 0.52318 0.43479 -0.17570
 H653 H 0.45173 0.38272 -0.17354
 C654 C 0.65363 0.12761 -0.26773
 C655 C 0.63584 0.13185 -0.26751
 C656 C 0.63801 0.15109 -0.29560
 C657 C 0.65865 0.16649 -0.32450
 C658 C 0.67815 0.16362 -0.32839
 C659 C 0.67491 0.14305 -0.29855
 O660 O 0.64798 0.10842 -0.23700
 C661 C 0.62627 0.10040 -0.21737
 C662 C 0.61813 0.11419 -0.23561
 C663 C 0.59582 0.10886 -0.22179
 C664 C 0.58131 0.08910 -0.18889
 C665 C 0.58808 0.07380 -0.16652
 C666 C 0.61170 0.08020 -0.18204
 H667 H 0.62398 0.15442 -0.29510
 H668 H 0.65921 0.18096 -0.34510
 H669 H 0.68868 0.13934 -0.29842
 H670 H 0.58940 0.11964 -0.23671
 H671 H 0.56424 0.08579 -0.18038
 H672 H 0.61842 0.06954 -0.16820
 C673 C 1.12712 0.47426 -0.27078
 C674 C 1.13206 0.49648 -0.26706
 C675 C 1.15183 0.51383 -0.29276
 C676 C 1.16707 0.50869 -0.32279
 C677 C 1.16352 0.48616 -0.33018
 C678 C 1.14240 0.46855 -0.30279
 O679 O 1.10747 0.46042 -0.24194
 C680 C 1.09987 0.47412 -0.21997
 C681 C 1.11439 0.49635 -0.23486
 C682 C 1.10961 0.51345 -0.21818
 C683 C 1.08967 0.50799 -0.18584
 C684 C 1.07362 0.48555 -0.16686
 C685 C 1.07944 0.46822 -0.18529
 H686 H 1.15570 0.53132 -0.28954
 H687 H 1.18196 0.52282 -0.34146
 H688 H 1.13814 0.45093 -0.30540
 H689 H 1.12097 0.53092 -0.23048
 H690 H 1.08679 0.52186 -0.17506
 H691 H 1.06819 0.45060 -0.17419
 C692 C 0.51364 0.64513 -0.28014
 C693 C 0.52779 0.65489 -0.23528
 C694 C 0.53890 0.67855 -0.22797
 C695 C 0.53583 0.69289 -0.26677
 C696 C 0.52157 0.68494 -0.31576
 C697 C 0.51013 0.65970 -0.32101
 O698 O 0.50474 0.62194 -0.27859
 C699 C 0.51346 0.61718 -0.23203
 C700 C 0.52767 0.63699 -0.20432
 C701 C 0.53861 0.63636 -0.15497
 C702 C 0.53517 0.61517 -0.13285
 C703 C 0.52082 0.59344 -0.15803
 C704 C 0.50971 0.59506 -0.20982
 H705 H 0.54995 0.68612 -0.19231
 H706 H 0.54497 0.71068 -0.25626
 H707 H 0.49889 0.65152 -0.35599
 H708 H 0.54978 0.65207 -0.13335
 H709 H 0.54408 0.61589 -0.09478
 H710 H 0.49846 0.57960 -0.23222
 C711 C 0.35594 -0.13082 -0.28051
 C712 C 0.34580 -0.12483 -0.23952
 C713 C 0.32196 -0.13578 -0.23619
 C714 C 0.30790 -0.15337 -0.27491
 C715 C 0.31643 -0.16146 -0.31890
 C716 C 0.34167 -0.14909 -0.32091
 O717 O 0.37916 -0.11779 -0.27605
 C718 C 0.38363 -0.10345 -0.23153
 C719 C 0.36359 -0.10727 -0.20792
 C720 C 0.36395 -0.09456 -0.16112
 C721 C 0.38512 -0.07750 -0.13741
 C722 C 0.40702 -0.07195 -0.15865
 C723 C 0.40569 -0.08577 -0.20783
 H724 H 0.31409 -0.13077 -0.20418
 H725 H 0.28979 -0.16041 -0.27014
 H726 H 0.35002 -0.15362 -0.35265
 H727 H 0.34807 -0.09772 -0.14268
 H728 H 0.38425 -0.06834 -0.10141
 H729 H 0.42132 -0.08295 -0.22704
 C730 C 0.51420 -0.13035 0.28173
 C731 C 0.52628 -0.12800 0.23388
 C732 C 0.53565 -0.14211 0.22487
 C733 C 0.53294 -0.15894 0.26519
 C734 C 0.52105 -0.16281 0.31728
 C735 C 0.51127 -0.14765 0.32422
 O736 O 0.50653 -0.11506 0.28129
 C737 C 0.51394 -0.10295 0.23244
 C738 C 0.52617 -0.11036 0.20221
 C739 C 0.53563 -0.10024 0.15042
 C740 C 0.53271 -0.08215 0.12845
 C741 C 0.52023 -0.07309 0.15601
 C742 C 0.51061 -0.08433 0.21023
 H743 H 0.54493 -0.14036 0.18674
 H744 H 0.54022 -0.16936 0.25400
 H745 H 0.50179 -0.14909 0.36173
 H746 H 0.54528 -0.10615 0.12685
 H747 H 0.54043 -0.07510 0.08847
 H748 H 0.50089 -0.07874 0.23460
 C749 C 0.35465 0.48306 0.28070
 C750 C 0.34692 0.47808 0.22673
 C751 C 0.32513 0.47450 0.21339
 C752 C 0.31081 0.47602 0.25544
 C753 C 0.31689 0.48066 0.31314
 C754 C 0.33986 0.48412 0.32499
 O755 O 0.37632 0.48643 0.28392
 C756 C 0.38227 0.48340 0.23126
 C757 C 0.36463 0.47804 0.19497
 C758 C 0.36682 0.47365 0.13849
 C759 C 0.38729 0.47471 0.11810
 C760 C 0.40690 0.48061 0.15184
 C761 C 0.40375 0.48511 0.21069
 H762 H 0.31915 0.47072 0.17077
 H763 H 0.29430 0.47315 0.24239
 H764 H 0.34625 0.48794 0.36725
 H765 H 0.35282 0.46927 0.11009
 H766 H 0.38787 0.47106 0.07437
 H767 H 0.41749 0.48956 0.23991
 C768 C 1.13137 0.65317 0.25922
 C769 C 1.12927 0.63296 0.27671
 C770 C 1.14350 0.63277 0.31898
 C771 C 1.16025 0.65350 0.34480
 C772 C 1.16386 0.67570 0.33112
 C773 C 1.14859 0.67489 0.28571
 O774 O 1.11593 0.64915 0.21746
 C775 C 1.10397 0.62603 0.20876
 C776 C 1.11168 0.61556 0.24451
 C777 C 1.10184 0.59177 0.24387
 C778 C 1.08364 0.57807 0.20629
 C779 C 1.07419 0.58693 0.16682
 C780 C 1.08522 0.61211 0.16893
 H781 H 1.14190 0.61675 0.33198
 H782 H 1.17082 0.65177 0.37575
 H783 H 1.14988 0.69064 0.27161
 H784 H 1.10799 0.58366 0.27232
 H785 H 1.07682 0.55985 0.20826
 H786 H 1.07929 0.62060 0.14114
 C787 C 0.47428 0.12744 0.26598
 C788 C 0.49645 0.13212 0.26456
 C789 C 0.51353 0.15167 0.29168
 C790 C 0.50815 0.16692 0.32082
 C791 C 0.48562 0.16356 0.32595
 C792 C 0.46830 0.14271 0.29711
 O793 O 0.46074 0.10804 0.23599
 C794 C 0.47457 0.10032 0.21563
 C795 C 0.49659 0.11451 0.23269
 C796 C 0.51374 0.10951 0.21798
 C797 C 0.50855 0.08970 0.18538
 C798 C 0.48638 0.07402 0.16419
 C799 C 0.46899 0.08006 0.18061
 H800 H 0.53099 0.15535 0.29020
 H801 H 0.52206 0.18166 0.34060
 H802 H 0.45072 0.13864 0.29795
 H803 H 0.53102 0.12060 0.23198
 H804 H 0.52243 0.08664 0.17614
 H805 H 0.45154 0.06909 0.16769
 C806 C 0.65322 0.52076 0.25807
 C807 C 0.63335 0.50867 0.28749
 C808 C 0.63353 0.49911 0.33936
 C809 C 0.65422 0.50163 0.36226
 C810 C 0.67605 0.51354 0.33536
 C811 C 0.67490 0.52353 0.28108
 O812 O 0.64893 0.52857 0.20920
 C813 C 0.62601 0.52124 0.20802
 C814 C 0.61591 0.50894 0.25540
 C815 C 0.59238 0.49954 0.26356
 C816 C 0.57857 0.50256 0.22297
 C817 C 0.58702 0.51507 0.17196
 C818 C 0.61195 0.52466 0.16534
 H819 H 0.61781 0.48980 0.36258
 H820 H 0.65283 0.49421 0.40290
 H821 H 0.69036 0.53305 0.25710
 H822 H 0.58454 0.48984 0.30099
 H823 H 0.56059 0.49478 0.23217
 H824 H 0.62019 0.53439 0.12827
 C825 C 0.87235 0.34628 0.26633
 C826 C 0.86737 0.36353 0.26319
 C827 C 0.84763 0.36103 0.28924
 C828 C 0.83246 0.34058 0.31906
 C829 C 0.83606 0.32162 0.32584
 C830 C 0.85714 0.32520 0.29810
 O831 O 0.89196 0.35218 0.23724
 C832 C 0.89949 0.37352 0.21568
 C833 C 0.88497 0.38117 0.23109
 C834 C 0.88967 0.40306 0.21491
 C835 C 0.90955 0.41765 0.18253
 C836 C 0.92560 0.41135 0.16307
 C837 C 0.91986 0.38817 0.18096
 H838 H 0.84375 0.37466 0.28646
 H839 H 0.81759 0.33976 0.33805
 H840 H 0.86142 0.31185 0.30028
 H841 H 0.87830 0.40910 0.22760
 H842 H 0.91238 0.43441 0.17211
 H843 H 0.93113 0.38186 0.16943
   
