data_POSCAR
  _audit_creation_date              2014-09-24
  _audit_creation_method            'ToBaCCo'
  _symmetry_space_group_name_H-M    'P1'
  _symmetry_Int_Tables_number       1
  _symmetry_cell_setting            triclinic
  loop_
  _symmetry_equiv_pos_as_xyz
 x,y,z
_cell_length_a 51.9373
_cell_length_b 51.8525
_cell_length_c 51.9562
_cell_angle_alpha 89.205100
_cell_angle_beta 88.529500
_cell_angle_gamma 89.020700
loop_
  _atom_site_label
  _atom_site_type_symbol
  _atom_site_fract_x
  _atom_site_fract_y
  _atom_site_fract_z
Si1 Si 0.75421 0.61801 0.99727
 Si2 Si 0.75157 0.37917 0.49658
 Si3 Si 0.24796 -0.11987 0.00031
 Si4 Si 0.25594 0.11661 0.49930
 Si5 Si 0.12156 0.49974 0.25701
 Si6 Si -0.11910 0.00018 0.24956
 Si7 Si 0.38310 0.50193 0.74913
 Si8 Si 0.61954 1.00066 0.75740
 Si9 Si 0.00129 0.25538 -0.11721
 Si10 Si 0.49766 0.25455 0.11845
 Si11 Si 0.99612 0.75859 0.62103
 Si12 Si 0.50109 0.75057 0.38197
 C13 C 0.41696 -0.02652 0.27506
 H14 H 0.41785 -0.00800 0.28432
 C15 C 0.43012 -0.04789 0.28534
 H16 H 0.44110 -0.04562 0.30257
 C17 C 0.39995 -0.05230 0.24249
 H18 H 0.38761 -0.05424 0.22626
 C19 C 0.41281 -0.07408 0.25204
 H20 H 0.41068 -0.09235 0.24256
 N21 N 0.40200 -0.02914 0.25418
 C22 C 0.38580 0.04693 0.22106
 H23 H 0.36513 0.04514 0.22002
 C24 C 0.39755 0.06943 0.21230
 H25 H 0.38579 0.08478 0.20416
 C26 C 0.42610 0.02874 0.23272
 H27 H 0.43705 0.01280 0.24077
 C28 C 0.43873 0.05100 0.22403
 H29 H 0.45942 0.05212 0.22563
 Zn30 Zn 0.38074 -0.00102 0.24378
 N31 N 0.40003 0.02735 0.23142
 C32 C 0.36413 0.03336 0.28236
 N33 N 0.36078 0.00930 0.27305
 C34 C 0.34544 -0.00795 0.28577
 C35 C 0.33280 -0.00119 0.30890
 C36 C 0.35201 0.04084 0.30533
 C37 C 0.37310 -0.01573 0.19381
 C38 C 0.36017 -0.02423 0.17246
 C39 C 0.32033 -0.02234 0.19748
 C40 C 0.33410 -0.01382 0.21848
 N41 N 0.36010 -0.01120 0.21637
 H42 H 0.37686 0.04665 0.27249
 H43 H 0.34358 -0.02719 0.27830
 H44 H 0.32110 -0.01528 0.31912
 H45 H 0.35507 0.06007 0.31242
 H46 H 0.39372 -0.01308 0.19259
 H47 H 0.37098 -0.02784 0.15474
 H48 H 0.29976 -0.02505 0.19962
 H49 H 0.32408 -0.00968 0.23646
 C50 C 0.42431 0.07184 0.21399
 C51 C 0.42770 -0.07220 0.27409
 C52 C 0.33350 -0.02804 0.17422
 C53 C 0.33641 0.02338 0.31912
 C54 C 0.08225 1.02853 0.78321
 H55 H 0.08007 1.01008 0.79292
 C56 C 0.06983 1.05051 0.79320
 H57 H 0.05812 1.04877 0.81066
 C58 C 0.10161 1.05348 0.74967
 H59 H 0.11455 1.05482 0.73315
 C60 C 0.08954 1.07584 0.75892
 H61 H 0.09289 1.09398 0.74892
 N62 N 0.09797 1.03043 0.76195
 C63 C 0.11051 0.95343 0.73086
 H64 H 0.13134 0.95369 0.72983
 C65 C 0.09756 0.93206 0.72223
 H66 H 0.10858 0.91599 0.71431
 C67 C 0.07100 0.97458 0.74184
 H68 H 0.06082 0.99130 0.74939
 C69 C 0.05718 0.95354 0.73322
 H70 H 0.03633 0.95410 0.73443
 Zn71 Zn 0.11787 1.00126 0.75148
 N72 N 0.09720 0.97397 0.74072
 C73 C 0.13306 0.96630 0.79042
 N74 N 0.13737 0.99011 0.78004
 C75 C 0.15379 1.00663 0.79105
 C76 C 0.16680 0.99927 0.81332
 C77 C 0.14552 0.95824 0.81262
 C78 C 0.12624 1.01567 0.70078
 C79 C 0.13955 1.02369 0.67857
 C80 C 0.17932 1.01964 0.70155
 C81 C 0.16517 1.01165 0.72344
 N82 N 0.13905 1.01038 0.72276
 H83 H 0.11945 0.95365 0.78192
 H84 H 0.15641 1.02570 0.78280
 H85 H 0.17949 1.01276 0.82210
 H86 H 0.14182 0.93918 0.82050
 H87 H 0.10550 1.01408 0.70070
 H88 H 0.12890 1.02798 0.66134
 H89 H 0.20002 1.02134 0.70255
 H90 H 0.17502 1.00688 0.74097
 C91 C 0.07054 0.93184 0.72346
 C92 C 0.07380 1.07466 0.78126
 C93 C 0.16640 1.02620 0.67887
 C94 C 0.16246 0.97487 0.82452
 C95 C 0.58305 0.52460 0.28079
 H96 H 0.58131 0.50607 0.29046
 C97 C 0.57049 0.54636 0.29108
 H98 H 0.55912 0.54439 0.30873
 C99 C 0.60149 0.54996 0.24705
 H100 H 0.61414 0.55155 0.23032
 C101 C 0.58927 0.57211 0.25660
 H102 H 0.59219 0.59034 0.24662
 N103 N 0.59839 0.52682 0.25929
 C104 C 0.61167 0.45012 0.22773
 H105 H 0.63248 0.45067 0.22644
 C106 C 0.59889 0.42862 0.21916
 H107 H 0.61003 0.41274 0.21100
 C108 C 0.57201 0.47068 0.23932
 H109 H 0.56171 0.48723 0.24708
 C110 C 0.55837 0.44950 0.23077
 H111 H 0.53753 0.44977 0.23225
 Zn112 Zn 0.61860 0.49799 0.24848
 N113 N 0.59821 0.47044 0.23785
 C114 C 0.63487 0.46311 0.28706
 N115 N 0.63857 0.48707 0.27677
 C116 C 0.65473 0.50390 0.28771
 C117 C 0.66807 0.49674 0.30982
 C118 C 0.64769 0.45524 0.30911
 C119 C 0.62632 0.51269 0.19774
 C120 C 0.63935 0.52098 0.17547
 C121 C 0.67933 0.51747 0.19815
 C122 C 0.66546 0.50919 0.22010
 N123 N 0.63936 0.50752 0.21960
 H124 H 0.62148 0.45021 0.27862
 H125 H 0.65685 0.52307 0.27952
 H126 H 0.68053 0.51048 0.31856
 H127 H 0.64447 0.43606 0.31693
 H128 H 0.60561 0.51078 0.19780
 H129 H 0.62852 0.52517 0.15833
 H130 H 0.70000 0.51949 0.19903
 H131 H 0.67551 0.50451 0.23755
 C132 C 0.57190 0.42803 0.22072
 C133 C 0.57393 0.57062 0.27919
 C134 C 0.66616 0.52391 0.17559
 C135 C 0.66436 0.47220 0.32094
 C136 C 0.91299 0.47713 0.77580
 H137 H 0.91271 0.49561 0.78523
 C138 C 0.92624 0.45612 0.78670
 H139 H 0.93612 0.45864 0.80457
 C140 C 0.89888 0.45100 0.74206
 H141 H 0.88766 0.44877 0.72506
 C142 C 0.91188 0.42959 0.75222
 H143 H 0.91097 0.41132 0.74246
 N144 N 0.89944 0.47415 0.75401
 C145 C 0.88332 0.54919 0.71847
 H146 H 0.86295 0.54666 0.71573
 C147 C 0.89502 0.57187 0.71011
 H148 H 0.88355 0.58659 0.70057
 C149 C 0.92293 0.53273 0.73404
 H150 H 0.93363 0.51740 0.74346
 C151 C 0.93549 0.55519 0.72584
 H152 H 0.95586 0.55708 0.72919
 Zn153 Zn 0.87803 0.50164 0.74228
 N154 N 0.89719 0.53040 0.73060
 C155 C 0.85619 0.53663 0.77808
 N156 N 0.85612 0.51171 0.77024
 C157 C 0.84216 0.49359 0.78335
 C158 C 0.82754 0.50034 0.80532
 C159 C 0.84173 0.54422 0.79969
 C160 C 0.87275 0.48649 0.69185
 C161 C 0.86069 0.47765 0.67010
 C162 C 0.82019 0.47823 0.69407
 C163 C 0.83309 0.48710 0.71546
 N164 N 0.85898 0.49060 0.71406
 H165 H 0.86795 0.55065 0.76802
 H166 H 0.84280 0.47380 0.77701
 H167 H 0.81666 0.48570 0.81568
 H168 H 0.84255 0.56404 0.80587
 H169 H 0.89326 0.48982 0.69120
 H170 H 0.87206 0.47446 0.65265
 H171 H 0.79969 0.47486 0.69567
 H172 H 0.82246 0.49084 0.73321
 C173 C 0.92136 0.57526 0.71404
 C174 C 0.92537 0.43182 0.77512
 C175 C 0.83412 0.47307 0.67111
 C176 C 0.82728 0.52597 0.81373
 C177 C 0.28010 0.41866 -0.02351
 H178 H 0.28892 0.41929 -0.00489
 C179 C 0.29099 0.43214 -0.04447
 H180 H 0.30796 0.44351 -0.04171
 C181 C 0.24775 0.40236 -0.04987
 H182 H 0.23142 0.39009 -0.05218
 C183 C 0.25796 0.41553 -0.07129
 H184 H 0.24924 0.41318 -0.08980
 N185 N 0.25895 0.40402 -0.02658
 C186 C 0.22354 0.38851 0.04893
 H187 H 0.22136 0.36794 0.04685
 C188 C 0.21498 0.40044 0.07148
 H189 H 0.20586 0.38893 0.08657
 C190 C 0.23788 0.42839 0.03145
 H191 H 0.24685 0.43912 0.01578
 C192 C 0.22944 0.44119 0.05377
 H193 H 0.23219 0.46177 0.05519
 Zn194 Zn 0.24722 0.38289 0.00121
 N195 N 0.23518 0.40242 0.02970
 C196 C 0.28330 0.36259 0.03609
 N197 N 0.27530 0.36160 0.01141
 C198 C 0.28810 0.34688 -0.00640
 C199 C 0.30978 0.33220 0.00048
 C200 C 0.30464 0.34812 0.04381
 C201 C 0.19702 0.37629 -0.01393
 C202 C 0.17520 0.36336 -0.02142
 C203 C 0.19923 0.32315 -0.01854
 C204 C 0.22066 0.33689 -0.01101
 N205 N 0.21922 0.36302 -0.00915
 H206 H 0.27352 0.37498 0.04982
 H207 H 0.28163 0.34680 -0.02603
 H208 H 0.31980 0.32057 -0.01388
 H209 H 0.31091 0.34956 0.06345
 H210 H 0.19640 0.39705 -0.01206
 H211 H 0.15791 0.37440 -0.02568
 H212 H 0.20063 0.30235 -0.01991
 H213 H 0.23834 0.32667 -0.00663
 C214 C 0.21817 0.42706 0.07429
 C215 C 0.28008 0.43039 -0.06886
 C216 C 0.17613 0.33644 -0.02389
 C217 C 0.31823 0.33271 0.02593
 C218 C 0.78418 0.08481 1.02388
 H219 H 0.79343 0.08372 1.00503
 C220 C 0.79457 0.07113 1.04466
 H221 H 0.81162 0.05916 1.04154
 C222 C 0.75115 0.10237 1.05099
 H223 H 0.73475 0.11520 1.05366
 C224 C 0.76084 0.08902 1.07223
 H225 H 0.75165 0.09178 1.09095
 N226 N 0.76290 0.10014 1.02740
 C227 C 0.72988 0.11531 0.95224
 H228 H 0.72827 0.13609 0.95350
 C229 C 0.72097 0.10292 0.93068
 H230 H 0.71228 0.11433 0.91550
 C231 C 0.74247 0.07531 0.97109
 H232 H 0.75068 0.06468 0.98701
 C233 C 0.73363 0.06205 0.94983
 H234 H 0.73541 0.04123 0.94941
 Zn235 Zn 0.75153 0.12119 0.99970
 N236 N 0.74067 0.10150 0.97173
 C237 C 0.78853 0.14114 0.96425
 N238 N 0.77931 0.14230 0.98896
 C239 C 0.79063 0.15731 1.00657
 C240 C 0.81193 0.17220 0.99945
 C241 C 0.80961 0.15578 0.95630
 C242 C 0.70090 0.12791 1.01629
 C243 C 0.67860 0.14075 1.02489
 C244 C 0.70114 0.18106 1.02085
 C245 C 0.72310 0.16739 1.01230
 N246 N 0.72266 0.14124 1.01061
 H247 H 0.77990 0.12852 0.95070
 H248 H 0.78321 0.15753 1.02621
 H249 H 0.82066 0.18413 1.01366
 H250 H 0.81686 0.15425 0.93665
 H251 H 0.70101 0.10717 1.01433
 H252 H 0.66150 0.12974 1.02933
 H253 H 0.70193 0.20181 1.02270
 H254 H 0.74047 0.17765 1.00723
 C255 C 0.72288 0.07596 0.92920
 C256 C 0.78301 0.07337 1.06931
 C257 C 0.67860 0.16765 1.02756
 C258 C 0.82161 0.17157 0.97398
 C259 C 0.28170 0.58625 0.52542
 H260 H 0.29050 0.58506 0.50636
 C261 C 0.29248 0.57250 0.54596
 H262 H 0.30936 0.56039 0.54246
 C263 C 0.24950 0.60415 0.55326
 H264 H 0.23329 0.61714 0.55631
 C265 C 0.25958 0.59075 0.57427
 H266 H 0.25087 0.59363 0.59319
 N267 N 0.26065 0.60178 0.52941
 C268 C 0.22501 0.61756 0.45566
 H269 H 0.22363 0.63833 0.45712
 C270 C 0.21466 0.60538 0.43467
 H271 H 0.20562 0.61700 0.41984
 C272 C 0.23872 0.57738 0.47331
 H273 H 0.24780 0.56658 0.48863
 C274 C 0.22865 0.56435 0.45249
 H275 H 0.23003 0.54350 0.45196
 Zn276 Zn 0.24883 0.62301 0.50202
 N277 N 0.23683 0.60355 0.47438
 C278 C 0.28505 0.64256 0.46554
 N279 N 0.27663 0.64369 0.49051
 C280 C 0.28886 0.65823 0.50788
 C281 C 0.31042 0.67253 0.50028
 C282 C 0.30636 0.65662 0.45712
 C283 C 0.19872 0.63045 0.51990
 C284 C 0.17675 0.64362 0.52886
 C285 C 0.19973 0.68361 0.52413
 C286 C 0.22137 0.66961 0.51526
 N287 N 0.22055 0.64347 0.51370
 H288 H 0.27560 0.63035 0.45217
 H289 H 0.28203 0.65845 0.52772
 H290 H 0.31992 0.68403 0.51432
 H291 H 0.31302 0.65504 0.43727
 H292 H 0.19850 0.60970 0.51802
 H293 H 0.15957 0.63284 0.53366
 H294 H 0.20080 0.70435 0.52579
 H295 H 0.23878 0.67962 0.50977
 C296 C 0.21629 0.57842 0.43290
 C297 C 0.28154 0.57490 0.57086
 C298 C 0.17713 0.67053 0.53132
 C299 C 0.31941 0.67179 0.47457
 C300 C 0.77674 0.91831 0.47670
 H301 H 0.78541 0.91912 0.49538
 C302 C 0.78753 0.93199 0.45581
 H303 H 0.80425 0.94369 0.45870
 C304 C 0.74494 0.90136 0.45009
 H305 H 0.72887 0.88877 0.44767
 C306 C 0.75505 0.91471 0.42875
 H307 H 0.74653 0.91218 0.41017
 N308 N 0.75592 0.90325 0.47347
 C309 C 0.72009 0.88721 0.54868
 H310 H 0.71824 0.86660 0.54658
 C311 C 0.71116 0.89902 0.57117
 H312 H 0.70208 0.88739 0.58617
 C313 C 0.73402 0.92729 0.53135
 H314 H 0.74299 0.93816 0.51576
 C315 C 0.72522 0.93998 0.55360
 H316 H 0.72770 0.96059 0.55506
 Zn317 Zn 0.74439 0.88193 0.50120
 N318 N 0.73171 0.90128 0.52956
 C319 C 0.78052 0.86246 0.53646
 N320 N 0.77280 0.86125 0.51169
 C321 C 0.78612 0.84678 0.49403
 C322 C 0.80807 0.83264 0.50114
 C323 C 0.80212 0.84853 0.54440
 C324 C 0.69449 0.87429 0.48572
 C325 C 0.67297 0.86091 0.47816
 C326 C 0.69776 0.82117 0.48121
 C327 C 0.71886 0.83536 0.48882
 N328 N 0.71690 0.86147 0.49064
 H329 H 0.77032 0.87465 0.55008
 H330 H 0.77986 0.84652 0.47433
 H331 H 0.81850 0.82123 0.48689
 H332 H 0.80814 0.85016 0.56411
 H333 H 0.69344 0.89504 0.48755
 H334 H 0.65548 0.87160 0.47381
 H335 H 0.69957 0.80039 0.47989
 H336 H 0.73671 0.82550 0.49330
 C337 C 0.71398 0.92568 0.57402
 C338 C 0.77685 0.93001 0.43134
 C339 C 0.67443 0.83399 0.47576
 C340 C 0.81625 0.83341 0.52667
 C341 C -0.02061 0.27585 0.41386
 H342 H -0.00191 0.28461 0.41483
 C343 C -0.04177 0.28672 0.42719
 H344 H -0.03908 0.30359 0.43881
 C345 C -0.04698 0.24375 0.39680
 H346 H -0.04920 0.22755 0.38428
 C347 C -0.06859 0.25394 0.40981
 H348 H -0.08715 0.24531 0.40711
 N349 N -0.02359 0.25485 0.39889
 C350 C 0.05189 0.21936 0.38346
 H351 H 0.05026 0.21754 0.36285
 C352 C 0.07403 0.21041 0.39547
 H353 H 0.08925 0.20137 0.38397
 C354 C 0.03367 0.23311 0.42336
 H355 H 0.01786 0.24200 0.43408
 C356 C 0.05556 0.22429 0.43624
 H357 H 0.05653 0.22669 0.45686
 Zn358 Zn 0.00452 0.24333 0.37784
 N359 N 0.03248 0.23087 0.39736
 C360 C 0.04016 0.27976 0.35862
 N361 N 0.01544 0.27175 0.35724
 C362 C -0.00201 0.28489 0.34274
 C363 C 0.00527 0.30698 0.32879
 C364 C 0.04827 0.30153 0.34489
 C365 C -0.01099 0.19324 0.37023
 C366 C -0.01869 0.17165 0.35693
 C367 C -0.01515 0.19634 0.31724
 C368 C -0.00741 0.21751 0.33135
 N369 N -0.00581 0.21565 0.35740
 H370 H 0.05359 0.26968 0.37084
 H371 H -0.02168 0.27840 0.34234
 H372 H -0.00882 0.31728 0.31737
 H373 H 0.06791 0.30782 0.34671
 H374 H -0.00935 0.19227 0.39094
 H375 H -0.02331 0.15420 0.36763
 H376 H -0.01636 0.19809 0.29651
 H377 H -0.00273 0.23537 0.32148
 C378 C 0.07625 0.21310 0.42215
 C379 C -0.06625 0.27593 0.42497
 C380 C -0.02095 0.17304 0.33008
 C381 C 0.03074 0.31552 0.32980
 C382 C 1.02438 0.77760 0.08515
 H383 H 1.00584 0.78723 0.08353
 C384 C 1.04602 0.78765 0.07221
 H385 H 1.04393 0.80507 0.06068
 C386 C 1.04991 0.74424 0.10362
 H387 H 1.05160 0.72774 0.11639
 C388 C 1.07195 0.75355 0.09102
 H389 H 1.09020 0.74364 0.09381
 N390 N 1.02674 0.75641 0.10068
 C391 C 0.95124 0.72295 0.11518
 H392 H 0.95190 0.72207 0.13597
 C393 C 0.93048 0.71256 0.10272
 H394 H 0.91502 0.70401 0.11412
 C395 C 0.97071 0.73538 0.07526
 H396 H 0.98665 0.74399 0.06470
 C397 C 0.95015 0.72525 0.06193
 H398 H 0.95043 0.72609 0.04110
 Zn399 Zn 0.99806 0.74593 0.12132
 N400 N 0.97077 0.73411 0.10143
 C401 C 0.96202 0.78343 0.13932
 N402 N 0.98674 0.77461 0.14102
 C403 C 1.00399 0.78682 0.15566
 C404 C 0.99648 0.80866 0.16964
 C405 C 0.95369 0.80506 0.15304
 C406 C 1.01322 0.69530 0.13081
 C407 C 1.02060 0.67349 0.14495
 C408 C 1.01625 0.69844 0.18382
 C409 C 1.00884 0.71982 0.16889
 N410 N 1.00784 0.71794 0.14284
 H411 H 0.94876 0.77398 0.12704
 H412 H 1.02365 0.77965 0.15634
 H413 H 1.01040 0.81806 0.18134
 H414 H 0.93403 0.81197 0.15111
 H415 H 1.01202 0.69431 0.11009
 H416 H 1.02543 0.65585 0.13488
 H417 H 1.01703 0.70021 0.20452
 H418 H 1.00396 0.73784 0.17813
 C419 C 0.92979 0.71347 0.07574
 C420 C 1.07031 0.77584 0.07546
 C421 C 1.02232 0.67491 0.17181
 C422 C 0.97098 0.81799 0.16846
 C423 C 0.52653 0.27941 0.58147
 H424 H 0.50800 0.28903 0.57964
 C425 C 0.54823 0.28921 0.56841
 H426 H 0.54621 0.30642 0.55656
 C427 C 0.55196 0.24639 0.60064
 H428 H 0.55364 0.23018 0.61376
 C429 C 0.57404 0.25544 0.58793
 H430 H 0.59227 0.24557 0.59097
 N431 N 0.52881 0.25853 0.59743
 C432 C 0.45311 0.22596 0.61325
 H433 H 0.45395 0.22571 0.63404
 C434 C 0.43214 0.21539 0.60132
 H435 H 0.41671 0.20732 0.61311
 C436 C 0.47237 0.23700 0.57282
 H437 H 0.48832 0.24515 0.56188
 C438 C 0.45159 0.22665 0.56001
 H439 H 0.45170 0.22684 0.53916
 Zn440 Zn 0.50020 0.24848 0.61843
 N441 N 0.47266 0.23650 0.59900
 C442 C 0.46488 0.28721 0.63464
 N443 N 0.48915 0.27758 0.63765
 C444 C 0.50617 0.28957 0.65274
 C445 C 0.49891 0.31215 0.66567
 C446 C 0.45687 0.30970 0.64709
 C447 C 0.51531 0.19808 0.62774
 C448 C 0.52373 0.17641 0.64144
 C449 C 0.52039 0.20107 0.68055
 C450 C 0.51199 0.22239 0.66602
 N451 N 0.51015 0.22062 0.64003
 H452 H 0.45177 0.27782 0.62214
 H453 H 0.52554 0.28183 0.65437
 H454 H 0.51281 0.32171 0.67726
 H455 H 0.43743 0.31697 0.64448
 H456 H 0.51326 0.19712 0.60711
 H457 H 0.52789 0.15871 0.63120
 H458 H 0.52249 0.20294 0.70111
 H459 H 0.50731 0.24036 0.67547
 C460 C 0.43124 0.21545 0.57435
 C461 C 0.57250 0.27746 0.57199
 C462 C 0.52678 0.17783 0.66813
 C463 C 0.47403 0.32261 0.66267
 C464 C 0.47628 0.77813 0.91724
 H465 H 0.49494 0.78696 0.91827
 C466 C 0.45507 0.78882 0.93064
 H467 H 0.45769 0.80562 0.94237
 C468 C 0.45005 0.74605 0.89994
 H469 H 0.44791 0.72993 0.88729
 C470 C 0.42840 0.75606 0.91301
 H471 H 0.40987 0.74739 0.91023
 N472 N 0.47339 0.75724 0.90212
 C473 C 0.54908 0.72243 0.88614
 H474 H 0.54734 0.72076 0.86553
 C475 C 0.57138 0.71361 0.89793
 H476 H 0.58661 0.70479 0.88627
 C477 C 0.53099 0.73572 0.92625
 H478 H 0.51517 0.74440 0.93714
 C479 C 0.55304 0.72700 0.93892
 H480 H 0.55412 0.72923 0.95956
 Zn481 Zn 0.50153 0.74605 0.88091
 N482 N 0.52966 0.73367 0.90024
 C483 C 0.53684 0.78286 0.86185
 N484 N 0.51217 0.77469 0.86048
 C485 C 0.49463 0.78775 0.84603
 C486 C 0.50176 0.80988 0.83206
 C487 C 0.54481 0.80467 0.84809
 C488 C 0.48629 0.69591 0.87290
 C489 C 0.47894 0.67434 0.85937
 C490 C 0.48259 0.69932 0.81987
 C491 C 0.48998 0.72048 0.83420
 N492 N 0.49139 0.71845 0.86026
 H493 H 0.55035 0.77286 0.87403
 H494 H 0.47500 0.78114 0.84564
 H495 H 0.48761 0.82009 0.82065
 H496 H 0.56442 0.81106 0.84985
 H497 H 0.48780 0.69482 0.89362
 H498 H 0.47442 0.65676 0.86991
 H499 H 0.48158 0.70119 0.79914
 H500 H 0.49461 0.73842 0.82449
 C501 C 0.57375 0.71612 0.92462
 C502 C 0.43063 0.77797 0.92832
 C503 C 0.47693 0.67587 0.83250
 C504 C 0.52720 0.81854 0.83300
 C505 C 0.47398 -0.11740 0.30901
 C506 C 0.45986 -0.14018 0.31024
 C507 C 0.43558 -0.14084 0.29928
 C508 C 0.42532 -0.11883 0.28731
 C509 C 0.49185 -0.22221 0.36168
 C510 C 0.46373 -0.09530 0.29701
 C511 C 0.46968 -0.16268 0.32354
 C512 C 0.47719 -0.18158 0.33506
 C513 C 0.48533 -0.20363 0.34910
 C514 C 0.43923 -0.09575 0.28609
 H515 H 0.49278 -0.11666 0.31750
 H516 H 0.42439 -0.15829 0.30029
 H517 H 0.40621 -0.11972 0.27956
 H518 H 0.47499 -0.07791 0.29621
 C519 C 0.97150 0.38794 0.81181
 C520 C 0.95833 0.36459 0.81196
 C521 C 0.93468 0.36317 0.79984
 C522 C 0.92414 0.38497 0.78772
 C523 C 0.99162 0.28270 0.86282
 C524 C 0.96097 0.40983 0.79967
 C525 C 0.96848 0.34221 0.82521
 C526 C 0.97630 0.32335 0.83661
 C527 C 0.98479 0.30131 0.85044
 C528 C 0.93712 0.40859 0.78751
 H529 H 0.98981 0.38927 0.82119
 H530 H 0.92421 0.34527 0.80001
 H531 H 0.90552 0.38345 0.77900
 H532 H 0.97152 0.42766 0.79967
 C533 C 0.02800 1.12202 0.81501
 C534 C 0.04304 1.14418 0.81534
 C535 C 0.06787 1.14367 0.80429
 C536 C 0.07772 1.12114 0.79307
 C537 C 0.01119 1.22788 0.86345
 C538 C 0.03784 1.09940 0.80377
 C539 C 0.03349 1.16723 0.82773
 C540 C 0.02608 1.18655 0.83846
 C541 C 0.01791 1.20902 0.85159
 C542 C 0.06285 1.09870 0.79270
 H543 H 0.00876 1.12218 0.82357
 H544 H 0.07976 1.16063 0.80462
 H545 H 0.09722 1.12114 0.78518
 H546 H 0.02585 1.08252 0.80360
 C547 C 0.52818 0.61722 0.31405
 C548 C 0.54296 0.63955 0.31423
 C549 C 0.56760 0.63942 0.30273
 C550 C 0.57751 0.61708 0.29120
 C551 C 0.51099 0.72292 0.36284
 C552 C 0.53808 0.59478 0.30249
 C553 C 0.53335 0.66244 0.32687
 C554 C 0.52591 0.68165 0.33776
 C555 C 0.51771 0.70405 0.35099
 C556 C 0.56290 0.59446 0.29096
 H557 H 0.50909 0.61709 0.32295
 H558 H 0.57929 0.65652 0.30294
 H559 H 0.59686 0.61736 0.28295
 H560 H 0.52630 0.57776 0.30245
 C561 C 0.52529 0.38663 0.18512
 C562 C 0.53567 0.36192 0.18963
 C563 C 0.55678 0.35874 0.20561
 C564 C 0.56799 0.38020 0.21642
 C565 C 0.50554 0.28158 0.13844
 C566 C 0.53647 0.40818 0.19600
 C567 C 0.52595 0.33997 0.17654
 C568 C 0.51878 0.32148 0.16505
 C569 C 0.51132 0.29987 0.15099
 C570 C 0.55827 0.40520 0.21134
 H571 H 0.50903 0.38932 0.17266
 H572 H 0.56497 0.33972 0.20923
 H573 H 0.58454 0.37730 0.22846
 H574 H 0.52872 0.42720 0.19158
 C575 C 0.05474 0.86267 0.70857
 C576 C 0.03390 0.86601 0.69226
 C577 C 0.02391 0.89083 0.68746
 C578 C 0.03519 0.91229 0.69837
 C579 C 0.00381 0.78569 0.64102
 C580 C 0.06606 0.88405 0.71941
 C581 C 0.02413 0.84411 0.67912
 C582 C 0.01695 0.82564 0.66762
 C583 C 0.00951 0.80401 0.65356
 C584 C 0.05674 0.90914 0.71404
 H585 H 0.06264 0.84357 0.71241
 H586 H 0.00786 0.89365 0.67474
 H587 H 0.02775 0.93138 0.69373
 H588 H 0.08240 0.88100 0.73170
 C589 C 0.93126 0.64642 0.70031
 C590 C 0.95504 0.64607 0.68706
 C591 C 0.96852 0.62267 0.68373
 C592 C 0.95797 0.59962 0.69314
 C593 C 0.98649 0.73092 0.64052
 C594 C 0.92068 0.62345 0.70965
 C595 C 0.96467 0.66952 0.67554
 C596 C 0.97200 0.68913 0.66524
 C597 C 0.97997 0.71187 0.65234
 C598 C 0.93370 0.59973 0.70581
 H599 H 0.92065 0.66440 0.70298
 H600 H 0.98689 0.62217 0.67337
 H601 H 0.96834 0.58165 0.68973
 H602 H 0.90216 0.62419 0.71970
 C603 C 0.43544 0.14289 0.20087
 C604 C 0.45792 0.14209 0.18548
 C605 C 0.47027 0.11839 0.18052
 C606 C 0.45982 0.09548 0.19041
 C607 C 0.48829 0.22682 0.13797
 C608 C 0.42495 0.12007 0.21071
 C609 C 0.46726 0.16546 0.17356
 C610 C 0.47434 0.18503 0.16301
 C611 C 0.48201 0.20776 0.14990
 C612 C 0.43678 0.09607 0.20524
 H613 H 0.42572 0.16111 0.20484
 H614 H 0.48762 0.11755 0.16851
 H615 H 0.46922 0.07729 0.18573
 H616 H 0.40742 0.12116 0.22241
 C617 C 0.28908 0.46352 -0.13410
 C618 C 0.31589 0.46222 -0.13749
 C619 C 0.33103 0.45161 -0.11799
 C620 C 0.31943 0.44188 -0.09538
 C621 C 0.36353 0.49225 -0.22304
 C622 C 0.27743 0.45379 -0.11149
 C623 C 0.32793 0.47102 -0.16123
 C624 C 0.33851 0.47797 -0.18100
 C625 C 0.35161 0.48576 -0.20389
 C626 C 0.29246 0.44260 -0.09198
 H627 H 0.27718 0.47175 -0.14903
 H628 H 0.35179 0.45043 -0.12044
 H629 H 0.33153 0.43305 -0.08094
 H630 H 0.25665 0.45489 -0.10933
 C631 C 0.78581 0.96308 0.36606
 C632 C 0.81265 0.96226 0.36289
 C633 C 0.82780 0.95204 0.38258
 C634 C 0.81619 0.94220 0.40513
 C635 C 0.86086 0.99142 0.27737
 C636 C 0.77414 0.95324 0.38861
 C637 C 0.82474 0.97102 0.33916
 C638 C 0.83542 0.97783 0.31939
 C639 C 0.84871 0.98532 0.29651
 C640 C 0.78920 0.94241 0.40830
 H641 H 0.77389 0.97099 0.35096
 H642 H 0.84859 0.95121 0.38030
 H643 H 0.82832 0.93365 0.41971
 H644 H 0.75334 0.95395 0.39058
 C645 C 0.79005 0.04023 1.13448
 C646 C 0.81676 0.04068 1.13733
 C647 C 0.83250 0.05066 1.11746
 C648 C 0.82159 0.06064 1.09503
 C649 C 0.86189 0.01006 1.22219
 C650 C 0.77909 0.05021 1.11206
 C651 C 0.82806 0.03170 1.16092
 C652 C 0.83803 0.02462 1.18055
 C653 C 0.85046 0.01668 1.20324
 C654 C 0.79471 0.06081 1.09219
 H655 H 0.77769 0.03249 1.14971
 H656 H 0.85319 0.05117 1.11949
 H657 H 0.83412 0.06898 1.08029
 H658 H 0.75837 0.04980 1.11033
 C659 C 0.28991 0.54199 0.63597
 C660 C 0.31670 0.54227 0.63819
 C661 C 0.33204 0.55202 0.61789
 C662 C 0.32066 0.56196 0.59568
 C663 C 0.36354 0.51186 0.72216
 C664 C 0.27848 0.55193 0.61377
 C665 C 0.32849 0.53338 0.66155
 C666 C 0.33886 0.52636 0.68099
 C667 C 0.35174 0.51847 0.70345
 C668 C 0.29371 0.56232 0.59348
 H669 H 0.27784 0.53443 0.65153
 H670 H 0.35280 0.55240 0.61943
 H671 H 0.33291 0.57014 0.58061
 H672 H 0.25770 0.55165 0.61253
 C673 C 0.17066 0.56263 0.37983
 C674 C 0.18405 0.54269 0.36717
 C675 C 0.20765 0.53368 0.37654
 C676 C 0.21799 0.54489 0.39828
 C677 C 0.14026 0.50889 0.28436
 C678 C 0.18095 0.57386 0.40146
 C679 C 0.17352 0.53207 0.34433
 C680 C 0.16387 0.52406 0.32522
 C681 C 0.15159 0.51556 0.30303
 C682 C 0.20487 0.56533 0.41078
 H683 H 0.15233 0.56968 0.37283
 H684 H 0.21818 0.51826 0.36687
 H685 H 0.23653 0.53807 0.40491
 H686 H 0.17019 0.58926 0.41091
 C687 C 0.70631 0.06210 0.86020
 C688 C 0.69103 0.04027 0.86332
 C689 C 0.68736 0.02916 0.88783
 C690 C 0.69841 0.04024 0.90925
 C691 C 0.63959 0.00909 0.78401
 C692 C 0.71730 0.07322 0.88154
 C693 C 0.67787 0.03041 0.84158
 C694 C 0.66632 0.02302 0.82332
 C695 C 0.65219 0.01521 0.80202
 C696 C 0.71312 0.06268 0.90637
 H697 H 0.70927 0.07086 0.84132
 H698 H 0.67545 0.01233 0.89048
 H699 H 0.69467 0.03184 0.92815
 H700 H 0.72884 0.09027 0.87868
 C701 C 0.68198 0.97257 0.62091
 C702 C 0.68587 0.95977 0.64444
 C703 C 0.69996 0.93657 0.64502
 C704 C 0.70962 0.92586 0.62216
 C705 C 0.63899 0.99128 0.72947
 C706 C 0.69169 0.96190 0.59796
 C707 C 0.67416 0.96949 0.66786
 C708 C 0.66377 0.97686 0.68749
 C709 C 0.65082 0.98483 0.71030
 C710 C 0.70526 0.93819 0.59833
 H711 H 0.67097 0.99050 0.62023
 H712 H 0.70309 0.92649 0.66311
 H713 H 0.72036 0.90779 0.62309
 H714 H 0.68787 0.97172 0.57990
 C715 C 0.18656 0.47411 0.12123
 C716 C 0.19040 0.46127 0.14475
 C717 C 0.20449 0.43805 0.14531
 C718 C 0.21411 0.42734 0.12243
 C719 C 0.14199 0.49139 0.22942
 C720 C 0.19624 0.46344 0.09826
 C721 C 0.17847 0.47080 0.16813
 C722 C 0.16777 0.47792 0.18770
 C723 C 0.15434 0.48545 0.21040
 C724 C 0.20972 0.43967 0.09861
 H725 H 0.17554 0.49203 0.12057
 H726 H 0.20757 0.42793 0.16338
 H727 H 0.22477 0.40923 0.12333
 H728 H 0.19241 0.47326 0.08021
 C729 C -0.11527 0.32701 0.44610
 C730 C -0.13525 0.31186 0.45623
 C731 C -0.13224 0.28500 0.45723
 C732 C -0.10954 0.27330 0.44768
 C733 C -0.22075 0.35963 0.48639
 C734 C -0.09257 0.31537 0.43655
 C735 C -0.15902 0.32396 0.46493
 C736 C -0.17880 0.33458 0.47186
 C737 C -0.20166 0.34771 0.47973
 C738 C -0.08953 0.28834 0.43698
 H739 H -0.11741 0.34782 0.44517
 H740 H -0.14754 0.27308 0.46510
 H741 H -0.10768 0.25248 0.44855
 H742 H -0.07774 0.32748 0.42810
 C743 C 0.38144 0.82879 0.94967
 C744 C 0.36148 0.81353 0.95967
 C745 C 0.36456 0.78666 0.96050
 C746 C 0.38731 0.77508 0.95093
 C747 C 0.27576 0.86083 0.99000
 C748 C 0.40419 0.81726 0.94010
 C749 C 0.33766 0.82551 0.96840
 C750 C 0.31784 0.83603 0.97536
 C751 C 0.29492 0.84903 0.98328
 C752 C 0.40730 0.79024 0.94036
 H753 H 0.37924 0.84960 0.94887
 H754 H 0.34928 0.77466 0.96826
 H755 H 0.38922 0.75426 0.95167
 H756 H 0.41900 0.82946 0.93176
 C757 C 1.11643 0.80992 0.02877
 C758 C 1.13882 0.81048 0.04321
 C759 C 1.13889 0.79941 0.06790
 C760 C 1.11670 0.78797 0.07822
 C761 C 1.22103 0.86012 0.01023
 C762 C 1.09416 0.79845 0.03907
 C763 C 1.16148 0.82321 0.03325
 C764 C 1.18046 0.83428 0.02554
 C765 C 1.20252 0.84785 0.01709
 C766 C 1.09403 0.78740 0.06397
 H767 H 1.11614 0.81849 0.00964
 H768 H 1.15603 0.79993 0.07934
 H769 H 1.11714 0.78009 0.09761
 H770 H 1.07709 0.79813 0.02754
 C771 C 0.61913 0.31056 0.52506
 C772 C 0.64140 0.31126 0.53966
 C773 C 0.64120 0.30070 0.56457
 C774 C 0.61886 0.28958 0.57492
 C775 C 0.72443 0.35947 0.50659
 C776 C 0.59669 0.29942 0.53540
 C777 C 0.66426 0.32359 0.52964
 C778 C 0.68344 0.33431 0.52192
 C779 C 0.70574 0.34749 0.51347
 C780 C 0.59631 0.28882 0.56049
 H781 H 0.61905 0.31876 0.50577
 H782 H 0.65824 0.30133 0.57613
 H783 H 0.61910 0.28207 0.59446
 H784 H 0.57973 0.29896 0.52375
 C785 C 0.37769 0.16938 0.56042
 C786 C 0.36575 0.18172 0.53969
 C787 C 0.37581 0.20471 0.52952
 C788 C 0.39752 0.21551 0.54036
 C789 C 0.28310 0.13607 0.50778
 C790 C 0.39926 0.18012 0.57127
 C791 C 0.34294 0.17075 0.52947
 C792 C 0.32385 0.16068 0.52189
 C793 C 0.30170 0.14788 0.51395
 C794 C 0.40925 0.20347 0.56159
 H795 H 0.37016 0.15151 0.56836
 H796 H 0.36672 0.21443 0.51346
 H797 H 0.40469 0.23359 0.53263
 H798 H 0.40813 0.17016 0.58731
 C799 C 0.87656 0.66773 0.05980
 C800 C 0.86476 0.68072 0.03937
 C801 C 0.87481 0.70405 0.03005
 C802 C 0.89637 0.71453 0.04145
 C803 C 0.78185 0.63671 0.00590
 C804 C 0.89800 0.67816 0.07121
 C805 C 0.84200 0.67012 0.02866
 C806 C 0.82290 0.66041 0.02068
 C807 C 0.80064 0.64808 0.01233
 C808 C 0.90797 0.70183 0.06239
 H809 H 0.86903 0.64961 0.06709
 H810 H 0.86581 0.71428 0.01425
 H811 H 0.90353 0.73287 0.03438
 H812 H 0.90676 0.66771 0.08701
 C813 C 0.61963 0.68335 0.97104
 C814 C 0.64342 0.68748 0.95846
 C815 C 0.64449 0.70208 0.93565
 C816 C 0.62188 0.71197 0.92506
 C817 C 0.72707 0.63857 0.98860
 C818 C 0.59693 0.69330 0.96049
 C819 C 0.66654 0.67536 0.96789
 C820 C 0.68589 0.66455 0.97497
 C821 C 0.70832 0.65100 0.98254
 C822 C 0.59779 0.70733 0.93713
 H823 H 0.61856 0.67194 0.98865
 H824 H 0.66278 0.70539 0.92574
 H825 H 0.62319 0.72305 0.90727
 H826 H 0.57866 0.68926 0.97010
 C827 C 0.14679 0.19860 0.43388
 C828 C 0.14542 0.18436 0.45691
 C829 C 0.12150 0.18055 0.46933
 C830 C 0.09896 0.19049 0.45845
 C831 C 0.22873 0.13647 0.48942
 C832 C 0.12434 0.20848 0.42296
 C833 C 0.16841 0.17241 0.46683
 C834 C 0.18766 0.16179 0.47442
 C835 C 0.21000 0.14855 0.48268
 C836 C 0.10012 0.20420 0.43490
 H837 H 0.16518 0.20166 0.42409
 H838 H 0.12021 0.16943 0.48711
 H839 H 0.08060 0.18672 0.46797
 H840 H 0.12588 0.21932 0.40503
 C841 C 0.56738 0.11892 0.68479
 C842 C 0.55684 0.11166 0.70878
 C843 C 0.53668 0.12632 0.71990
 C844 C 0.52697 0.14809 0.70688
 C845 C 0.60030 0.02861 0.74818
 C846 C 0.55772 0.14055 0.67178
 C847 C 0.56697 0.08905 0.72157
 C848 C 0.57647 0.06994 0.73107
 C849 C 0.58878 0.04756 0.74085
 C850 C 0.53728 0.15529 0.68257
 H851 H 0.58308 0.10780 0.67608
 H852 H 0.52840 0.12086 0.73849
 H853 H 0.51111 0.15898 0.71557
 H854 H 0.56638 0.14586 0.65333
 C855 C 1.05904 0.63304 0.21926
 C856 C 1.05143 0.60835 0.21240
 C857 C 1.03315 0.60551 0.19338
 C858 C 1.02305 0.62723 0.18073
 C859 C 1.10118 0.52684 0.24772
 C860 C 1.04893 0.65481 0.20665
 C861 C 1.06375 0.58591 0.22344
 C862 C 1.07481 0.56712 0.23184
 C863 C 1.08862 0.54527 0.24078
 C864 C 1.03118 0.65209 0.18691
 H865 H 1.07332 0.63544 0.23384
 H866 H 1.02716 0.58649 0.18789
 H867 H 1.00914 0.62456 0.16587
 H868 H 1.05576 0.67366 0.21163
 C869 C 0.92901 0.86513 0.20648
 C870 C 0.94441 0.88701 0.20623
 C871 C 0.96907 0.88598 0.19473
 C872 C 0.97808 0.86329 0.18303
 C873 C 0.90029 0.97229 0.24013
 C874 C 0.93794 0.84249 0.19478
 C875 C 0.93411 0.91079 0.21646
 C876 C 0.92444 0.93050 0.22447
 C877 C 0.91195 0.95323 0.23320
 C878 C 0.96242 0.84142 0.18259
 H879 H 0.90989 0.86571 0.21532
 H880 H 0.98109 0.90286 0.19429
 H881 H 0.99691 0.86312 0.17358
 H882 H 0.92559 0.82586 0.19505
 C883 C 0.44268 0.38822 0.67333
 C884 C 0.44847 0.39280 0.69898
 C885 C 0.46343 0.37483 0.71264
 C886 C 0.47224 0.35214 0.70075
 C887 C 0.40305 0.47475 0.73878
 C888 C 0.45137 0.36560 0.66146
 C889 C 0.43790 0.41545 0.71131
 C890 C 0.42794 0.43434 0.72079
 C891 C 0.41506 0.45627 0.73092
 C892 C 0.46598 0.34715 0.67511
 H893 H 0.43114 0.40201 0.66256
 H894 H 0.46793 0.37813 0.73256
 H895 H 0.48331 0.33820 0.71177
 H896 H 0.44662 0.36252 0.64158
 C897 C 0.44108 0.63466 0.78593
 C898 C 0.44928 0.60983 0.79327
 C899 C 0.46751 0.60667 0.81246
 C900 C 0.47706 0.62820 0.82472
 C901 C 0.40253 0.52886 0.75836
 C902 C 0.45063 0.65624 0.79815
 C903 C 0.43771 0.58756 0.78243
 C904 C 0.42735 0.56890 0.77413
 C905 C 0.41439 0.54718 0.76527
 C906 C 0.46841 0.65321 0.81799
 H907 H 0.42683 0.63730 0.77121
 H908 H 0.47396 0.58755 0.81832
 H909 H 0.49101 0.62528 0.83966
 H910 H 0.44341 0.67521 0.79273
 C911 C -0.03174 0.10386 0.31076
 C912 C -0.05025 0.10715 0.29185
 C913 C -0.05813 0.13205 0.28439
 C914 C -0.04802 0.15357 0.29625
 C915 C -0.09907 0.02679 0.25844
 C916 C -0.02164 0.12533 0.32266
 C917 C -0.06240 0.08500 0.28144
 C918 C -0.07325 0.06647 0.27351
 C919 C -0.08678 0.04493 0.26505
 C920 C -0.02998 0.15041 0.31584
 H921 H -0.02553 0.08468 0.31671
 H922 H -0.07258 0.13480 0.26989
 H923 H -0.05502 0.17260 0.29078
 H924 H -0.00750 0.12230 0.33741
 C925 C 0.07247 0.36354 0.29329
 C926 C 0.05731 0.38605 0.29495
 C927 C 0.03267 0.38515 0.30649
 C928 C 0.02353 0.36193 0.31699
 C929 C 0.10237 0.47195 0.26592
 C930 C 0.06342 0.34039 0.30382
 C931 C 0.06791 0.41020 0.28625
 C932 C 0.07785 0.43009 0.27949
 C933 C 0.09061 0.45291 0.27203
 C934 C 0.03904 0.33943 0.31621
 H935 H 0.09156 0.36402 0.28440
 H936 H 0.02083 0.40249 0.30798
 H937 H 0.00480 0.36182 0.32663
 H938 H 0.07565 0.32330 0.30265
 C939 C 0.52899 0.88801 0.80919
 C940 C 0.55355 0.88881 0.79747
 C941 C 0.56868 0.86628 0.79589
 C942 C 0.55969 0.84322 0.80666
 C943 C 0.59947 0.97374 0.76703
 C944 C 0.51990 0.86488 0.81994
 C945 C 0.56414 0.91286 0.78848
 C946 C 0.57422 0.93258 0.78142
 C947 C 0.58730 0.95508 0.77354
 C948 C 0.53541 0.84236 0.81922
 H949 H 0.51717 0.90537 0.81063
 H950 H 0.58771 0.86668 0.78685
 H951 H 0.57191 0.82612 0.80553
 H952 H 0.50123 0.86483 0.82970
 C953 C 0.68135 0.56463 0.11625
 C954 C 0.70511 0.55419 0.10804
 C955 C 0.71649 0.53398 0.12210
 C956 C 0.70399 0.52413 0.14425
 C957 C 0.74423 0.59855 0.02489
 C958 C 0.66886 0.55485 0.13828
 C959 C 0.71751 0.56460 0.08521
 C960 C 0.72686 0.57432 0.06604
 C961 C 0.73668 0.58686 0.04371
 C962 C 0.67994 0.53439 0.15246
 H963 H 0.67245 0.58038 0.10561
 H964 H 0.73491 0.52578 0.11591
 H965 H 0.71289 0.50827 0.15469
 H966 H 0.65061 0.56348 0.14436
 C967 C 0.18253 1.06632 0.61936
 C968 C 0.20609 1.05537 0.61125
 C969 C 0.21708 1.03505 0.62549
 C970 C 0.20436 1.02560 0.64769
 C971 C 0.24575 1.09786 0.52735
 C972 C 0.16983 1.05693 0.64144
 C973 C 0.21866 1.06529 0.58828
 C974 C 0.22812 1.07459 0.56895
 C975 C 0.23808 1.08662 0.54640
 C976 C 0.18048 1.03635 0.65577
 H977 H 0.17393 1.08216 0.60858
 H978 H 0.23534 1.02645 0.61937
 H979 H 0.21294 1.00964 0.65825
 H980 H 0.15172 1.06593 0.64742
 C981 C 0.17246 0.94445 0.89026
 C982 C 0.19869 0.94848 0.89370
 C983 C 0.21299 0.96218 0.87498
 C984 C 0.20113 0.97138 0.85266
 C985 C 0.23775 0.90067 0.97379
 C986 C 0.16063 0.95353 0.86801
 C987 C 0.21089 0.93723 0.91584
 C988 C 0.22019 0.92670 0.93432
 C989 C 0.23008 0.91318 0.95575
 C990 C 0.17490 0.96677 0.84878
 H991 H 0.16121 0.93390 0.90461
 H992 H 0.23335 0.96530 0.87740
 H993 H 0.21260 0.98138 0.83811
 H994 H 0.14031 0.95007 0.86577
 C995 C 0.71543 0.46055 0.37106
 C996 C 0.70154 0.44654 0.38984
 C997 C 0.67540 0.44191 0.38654
 C998 C 0.66326 0.45073 0.36437
 C999 C 0.74143 0.39956 0.46993
 C1000 C 0.70326 0.46950 0.34882
 C1001 C 0.71407 0.43559 0.41193
 C1002 C 0.72360 0.42526 0.43039
 C1003 C 0.73368 0.41193 0.45184
 C1004 C 0.67712 0.46431 0.34509
 H1005 H 0.73572 0.46414 0.37338
 H1006 H 0.66446 0.43111 0.40095
 H1007 H 0.64301 0.44683 0.36225
 H1008 H 0.71442 0.47977 0.33422
 C1009 C 0.78520 0.46140 0.61949
 C1010 C 0.79792 0.44229 0.60496
 C1011 C 0.82218 0.43313 0.61221
 C1012 C 0.83381 0.44306 0.63377
 C1013 C 0.76104 0.39820 0.52367
 C1014 C 0.79683 0.47140 0.64116
 C1015 C 0.78631 0.43174 0.58266
 C1016 C 0.77751 0.42204 0.56393
 C1017 C 0.76821 0.40967 0.54210
 C1018 C 0.82134 0.46240 0.64844
 H1019 H 0.76639 0.46862 0.61405
 H1020 H 0.83212 0.41823 0.60120
 H1021 H 0.85247 0.43540 0.63913
 H1022 H 0.78686 0.48641 0.65195
 C1023 C 0.31918 -0.06803 0.11600
 C1024 C 0.29514 -0.05806 0.10899
 C1025 C 0.28325 -0.03850 0.12359
 C1026 C 0.29552 -0.02880 0.14503
 C1027 C 0.25734 -0.10101 0.02757
 C1028 C 0.33144 -0.05839 0.13732
 C1029 C 0.28304 -0.06819 0.08675
 C1030 C 0.27399 -0.07760 0.06801
 C1031 C 0.26454 -0.08971 0.04609
 C1032 C 0.31987 -0.03854 0.15200
 H1033 H 0.32849 -0.08328 0.10494
 H1034 H 0.26461 -0.03066 0.11832
 H1035 H 0.28623 -0.01340 0.15586
 H1036 H 0.34995 -0.06662 0.14245
 C1037 C 0.32850 0.05294 0.38508
 C1038 C 0.30260 0.04821 0.39107
 C1039 C 0.28791 0.03417 0.37407
 C1040 C 0.29902 0.02539 0.35087
 C1041 C 0.26587 0.09593 0.47286
 C1042 C 0.33956 0.04430 0.36196
 C1043 C 0.29109 0.05925 0.41396
 C1044 C 0.28238 0.06975 0.43290
 C1045 C 0.27312 0.08333 0.45468
 C1046 C 0.32485 0.03080 0.34440
 H1047 H 0.34006 0.06376 0.39809
 H1048 H 0.26780 0.03051 0.37848
 H1049 H 0.28723 0.01513 0.33764
 H1050 H 0.35962 0.04835 0.35770
 C1051 C 0.80411 0.52762 0.88352
 C1052 C 0.79153 0.55171 0.88436
 C1053 C 0.78895 0.56638 0.86175
 C1054 C 0.79968 0.55748 0.83854
 C1055 C 0.76293 0.59800 0.96993
 C1056 C 0.81481 0.51862 0.86025
 C1057 C 0.78290 0.56245 0.90854
 C1058 C 0.77623 0.57264 0.92838
 C1059 C 0.76891 0.58580 0.95107
 C1060 C 0.81319 0.53376 0.83764
 H1061 H 0.80633 0.51617 0.90094
 H1062 H 0.77927 0.58505 0.86218
 H1063 H 0.79788 0.56939 0.82138
 H1064 H 0.82532 0.50041 0.86016
 C1065 C 0.12372 0.72090 0.54017
 C1066 C 0.10942 0.71006 0.56068
 C1067 C 0.11755 0.68672 0.57185
 C1068 C 0.13970 0.67408 0.56245
 C1069 C 0.02463 0.74907 0.60242
 C1070 C 0.14599 0.70826 0.53071
 C1071 C 0.08628 0.72249 0.57045
 C1072 C 0.06677 0.73185 0.57956
 C1073 C 0.04395 0.74164 0.59135
 C1074 C 0.15408 0.68459 0.54166
 H1075 H 0.11758 0.73898 0.53138
 H1076 H 0.10670 0.67823 0.58783
 H1077 H 0.14567 0.65613 0.57156
 H1078 H 0.15656 0.71670 0.51455
 C1079 C 0.62480 0.21758 1.03659
 C1080 C 0.61043 0.20642 1.05688
 C1081 C 0.61855 0.18293 1.06774
 C1082 C 0.64080 0.17050 1.05830
 C1083 C 0.52595 0.24513 1.09949
 C1084 C 0.64716 0.20515 1.02709
 C1085 C 0.58732 0.21874 1.06683
 C1086 C 0.56787 0.22804 1.07614
 C1087 C 0.54516 0.23776 1.08818
 C1088 C 0.65529 0.18137 1.03778
 H1089 H 0.61867 0.23578 1.02805
 H1090 H 0.60765 0.17420 1.08355
 H1091 H 0.64679 0.15246 1.06723
 H1092 H 0.65782 0.21387 1.01114
 C1093 C 0.86776 0.21129 0.93282
 C1094 C 0.88956 0.21126 0.94807
 C1095 C 0.88870 0.19954 0.97252
 C1096 C 0.86628 0.18732 0.98139
 C1097 C 0.97394 0.24584 0.90293
 C1098 C 0.84541 0.19905 0.94160
 C1099 C 0.91317 0.22177 0.93771
 C1100 C 0.93269 0.22994 0.92785
 C1101 C 0.95517 0.23882 0.91499
 C1102 C 0.84455 0.18656 0.96580
 H1103 H 0.86822 0.22028 0.91386
 H1104 H 0.90553 0.19928 0.98442
 H1105 H 0.86626 0.17765 1.00000
 H1106 H 0.82887 0.19907 0.92932
 C1107 C 0.36628 0.70994 0.43265
 C1108 C 0.38837 0.70908 0.44752
 C1109 C 0.38752 0.69727 0.47192
 C1110 C 0.36482 0.68583 0.48115
 C1111 C 0.47348 0.74146 0.40195
 C1112 C 0.34364 0.69848 0.44179
 C1113 C 0.41217 0.71888 0.43686
 C1114 C 0.43185 0.72652 0.42688
 C1115 C 0.45453 0.73484 0.41398
 C1116 C 0.34276 0.68593 0.46596
 H1117 H 0.36672 0.71901 0.41373
 H1118 H 0.40456 0.69636 0.48352
 H1119 H 0.36481 0.67608 0.49971
 H1120 H 0.32686 0.69916 0.42982
 C1121 C 0.60532 0.81438 0.46629
 C1122 C 0.60851 0.79515 0.44781
 C1123 C 0.63332 0.78765 0.43943
 C1124 C 0.65486 0.79976 0.44905
 C1125 C 0.52785 0.76013 0.40126
 C1126 C 0.62680 0.82653 0.47590
 C1127 C 0.58630 0.78436 0.43625
 C1128 C 0.56771 0.77607 0.42593
 C1129 C 0.54607 0.76715 0.41303
 C1130 C 0.65180 0.81963 0.46710
 H1131 H 0.58621 0.82036 0.47289
 H1132 H 0.63600 0.77289 0.42500
 H1133 H 0.67382 0.79422 0.44171
 H1134 H 0.62385 0.84149 0.49006
 C1135 C 0.13407 0.29098 -0.06020
 C1136 C 0.10941 0.29892 -0.05176
 C1137 C 0.10661 0.31818 -0.03327
 C1138 C 0.12834 0.32991 -0.02368
 C1139 C 0.02815 0.26490 -0.09805
 C1140 C 0.15585 0.30267 -0.05061
 C1141 C 0.08698 0.28851 -0.06325
 C1142 C 0.06824 0.28048 -0.07351
 C1143 C 0.04647 0.27179 -0.08634
 C1144 C 0.15320 0.32255 -0.03254
 H1145 H 0.13644 0.27619 -0.07464
 H1146 H 0.08762 0.32449 -0.02662
 H1147 H 0.12570 0.34490 -0.00951
 H1148 H 0.17470 0.29678 -0.05800
 C1149 C 0.38703 0.30707 0.02752
 C1150 C 0.38727 0.29515 0.05187
 C1151 C 0.36454 0.29396 0.06684
 C1152 C 0.34185 0.30535 0.05795
 C1153 C 0.47106 0.26387 0.09818
 C1154 C 0.36427 0.31843 0.01852
 C1155 C 0.41100 0.28573 0.06251
 C1156 C 0.43045 0.27840 0.07267
 C1157 C 0.45265 0.27037 0.08588
 C1158 C 0.34158 0.31815 0.03391
 H1159 H 0.40456 0.30822 0.01584
 H1160 H 0.36451 0.28479 0.08572
 H1161 H 0.32459 0.30456 0.07006
 H1162 H 0.36466 0.32837 0.00005
 C1163 C 0.88560 0.80945 0.52894
 C1164 C 0.88590 0.79760 0.55332
 C1165 C 0.86308 0.79590 0.56809
 C1166 C 0.84022 0.80672 0.55897
 C1167 C 0.96973 0.76776 0.60043
 C1168 C 0.86266 0.82025 0.51971
 C1169 C 0.90972 0.78868 0.56417
 C1170 C 0.92920 0.78173 0.57451
 C1171 C 0.95138 0.77405 0.58794
 C1172 C 0.83986 0.81945 0.53490
 H1173 H 0.90319 0.81098 0.51740
 H1174 H 0.86308 0.78677 0.58698
 H1175 H 0.82288 0.80554 0.57093
 H1176 H 0.86299 0.83014 0.50122
   
