data_POSCAR
  _audit_creation_date              2014-09-24
  _audit_creation_method            'ToBaCCo'
  _symmetry_space_group_name_H-M    'P1'
  _symmetry_Int_Tables_number       1
  _symmetry_cell_setting            triclinic
  loop_
  _symmetry_equiv_pos_as_xyz
 x,y,z
_cell_length_a 25.5266
_cell_length_b 25.0185
_cell_length_c 71.9800
_cell_angle_alpha 89.852900
_cell_angle_beta 90.700800
_cell_angle_gamma 118.154100
loop_
  _atom_site_label
  _atom_site_type_symbol
  _atom_site_fract_x
  _atom_site_fract_y
  _atom_site_fract_z
C1 C -0.05787 -0.05160 0.48190
 C2 C -0.01971 -0.02165 0.49689
 C3 C -0.01758 -0.05507 0.51226
 C4 C -0.05403 -0.11828 0.51315
 C5 C -0.09251 -0.14730 0.49793
 C6 C -0.09495 -0.11495 0.48207
 C7 C 0.01679 0.04523 0.49684
 C8 C 0.01673 0.07919 0.51234
 C9 C 0.05043 0.14261 0.51252
 C10 C 0.08451 0.17200 0.49694
 C11 C 0.08516 0.13878 0.48132
 C12 C 0.05119 0.07532 0.48137
 H13 H -0.05726 -0.02488 0.46999
 H14 H 0.01116 -0.03068 0.52385
 H15 H -0.00972 0.05609 0.52430
 H16 H 0.05131 0.04936 0.46936
 H17 H -0.12086 -0.19561 0.49849
 H18 H 0.11052 0.22096 0.49694
 C19 C 1.07085 -0.00568 0.15448
 C20 C 1.04013 0.00144 0.16947
 C21 C 1.07180 0.03695 0.18471
 C22 C 1.13397 0.06666 0.18491
 C23 C 1.16455 0.05918 0.16988
 C24 C 1.13361 0.02191 0.15451
 C25 C 0.97459 -0.02844 0.16917
 C26 C 0.94259 -0.06665 0.18377
 C27 C 0.88023 -0.09635 0.18347
 C28 C 0.85009 -0.08643 0.16848
 C29 C 0.88166 -0.04779 0.15382
 C30 C 0.94401 -0.01925 0.15424
 H31 H 1.04495 -0.03204 0.14269
 H32 H 1.04796 0.04284 0.19621
 H33 H 0.96643 -0.07340 0.19532
 H34 H 0.96889 0.01001 0.14292
 H35 H 1.21245 0.07996 0.17095
 H36 H 0.80196 -0.10902 0.16818
 C37 C 0.05559 1.00209 0.85030
 C38 C 0.01824 0.99565 0.83505
 C39 C 0.01748 0.96123 0.81967
 C40 C 0.05373 0.93329 0.81927
 C41 C 0.09159 0.94065 0.83447
 C42 C 0.09347 0.97515 0.85027
 C43 C -0.01931 1.02608 0.83484
 C44 C -0.01601 1.06315 0.81983
 C45 C -0.05250 1.09078 0.81892
 C46 C -0.09291 1.08069 0.83325
 C47 C -0.09838 1.04243 0.84846
 C48 C -0.05998 1.01609 0.84909
 H49 H 0.05375 1.02740 0.86221
 H50 H -0.01120 0.95663 0.80788
 H51 H 0.01476 1.06991 0.80872
 H52 H -0.06348 0.98467 0.85995
 H53 H 0.12076 0.92056 0.83348
 H54 H -0.11806 1.10536 0.83270
 O55 O 0.57115 0.02703 -0.01693
 O56 O 0.47526 0.03715 0.01864
 O57 O 0.57171 0.02646 0.01946
 O58 O 0.46981 0.02895 -0.01743
 O59 O 0.42000 -0.07082 -0.01618
 O60 O 0.52035 -0.07331 0.01993
 O61 O 0.42443 -0.06259 0.01996
 O62 O 0.52154 -0.07283 -0.01624
 Cu63 Cu 0.52716 0.03981 0.00079
 Cu64 Cu 0.46655 -0.07981 0.00188
 C65 C 0.56313 -0.02409 -0.02276
 C66 C 0.43377 -0.01052 0.02552
 C67 C 0.56258 -0.02439 0.02613
 C68 C 0.42701 -0.02111 -0.02297
 O69 O -0.04633 0.54184 0.64769
 O70 O -0.04530 0.43878 0.68391
 O71 O -0.04476 0.54275 0.68390
 O72 O -0.04482 0.43873 0.64768
 O73 O 0.05317 0.48685 0.64786
 O74 O 0.05325 0.58983 0.68419
 O75 O 0.05270 0.48574 0.68415
 O76 O 0.05166 0.59017 0.64798
 Cu77 Cu -0.05511 0.48575 0.66576
 Cu78 Cu 0.06253 0.54287 0.66605
 C79 C 0.00229 0.58357 0.64159
 C80 C 0.00369 0.44471 0.69034
 C81 C 0.00437 0.58386 0.69034
 C82 C 0.00428 0.44531 0.64148
 O83 O 0.42731 0.47382 0.35128
 O84 O 0.52048 0.57435 0.31470
 O85 O 0.42329 0.47226 0.31498
 O86 O 0.52843 0.57345 0.35081
 O87 O 0.57804 0.52151 0.34925
 O88 O 0.47295 0.42016 0.31433
 O89 O 0.57043 0.52273 0.31314
 O90 O 0.47686 0.42170 0.35043
 Cu91 Cu 0.46985 0.52858 0.33312
 Cu92 Cu 0.52961 0.46641 0.33172
 C93 C 0.43573 0.43060 0.35715
 C94 C 0.56096 0.56571 0.30749
 C95 C 0.43055 0.42894 0.30850
 C96 C 0.57159 0.56475 0.35605
 C97 C 0.10278 0.22664 0.53567
 C98 C 0.10220 0.26031 0.55105
 C99 C 0.04871 0.24681 0.55991
 C100 C -0.00426 0.19766 0.55333
 C101 C -0.00362 0.16385 0.53798
 C102 C 0.04984 0.17816 0.52893
 C103 C 0.05046 0.28420 0.57610
 C104 C 0.00371 0.29079 0.58156
 C105 C 0.00571 0.32995 0.59733
 C106 C -0.04812 0.32074 0.60509
 C107 C -0.04869 0.35763 0.61956
 C108 C 0.00469 0.40489 0.62655
 C109 C 0.05860 0.41424 0.61879
 C110 C 0.05919 0.37747 0.60430
 H111 H 0.14480 0.23810 0.52917
 H112 H 0.14370 0.29746 0.55595
 H113 H -0.04616 0.18445 0.56009
 H114 H -0.04515 0.12681 0.53307
 H115 H 0.09261 0.30815 0.58334
 H116 H -0.03828 0.26684 0.57420
 H117 H -0.08998 0.28485 0.59991
 H118 H -0.09101 0.34934 0.62518
 H119 H 0.10050 0.45067 0.62372
 H120 H 0.10161 0.38774 0.59840
 C121 C 0.86465 0.82096 0.20603
 C122 C 0.83303 0.78169 0.22041
 C123 C 0.78263 0.78227 0.22775
 C124 C 0.76523 0.82413 0.22064
 C125 C 0.79676 0.86325 0.20623
 C126 C 0.84670 0.86201 0.19875
 C127 C 0.75076 0.74003 0.24310
 C128 C 0.69400 0.72314 0.24725
 C129 C 0.66214 0.68261 0.26290
 C130 C 0.61341 0.68635 0.27028
 C131 C 0.58121 0.64884 0.28485
 C132 C 0.59649 0.60596 0.29228
 C133 C 0.64496 0.60161 0.28480
 C134 C 0.67755 0.63958 0.27025
 H135 H 0.90274 0.81866 0.20045
 H136 H 0.84771 0.75033 0.22570
 H137 H 0.72820 0.82801 0.22635
 H138 H 0.78272 0.89535 0.20117
 H139 H 0.77522 0.72227 0.25109
 H140 H 0.66944 0.74062 0.23920
 H141 H 0.60033 0.71875 0.26480
 H142 H 0.54391 0.65319 0.29018
 H143 H 0.65752 0.56870 0.29014
 H144 H 0.71376 0.63407 0.26458
 C145 C 0.15377 0.03410 -0.12263
 C146 C 0.19361 0.04220 -0.10803
 C147 C 0.21326 -0.00062 -0.10463
 C148 C 0.19302 -0.05140 -0.11640
 C149 C 0.15322 -0.05972 -0.13094
 C150 C 0.13278 -0.01705 -0.13451
 C151 C 0.25604 0.00970 -0.08914
 C152 C 0.26056 -0.03589 -0.08071
 C153 C 0.30331 -0.02860 -0.06551
 C154 C 0.29478 -0.08080 -0.05586
 C155 C 0.33468 -0.07791 -0.04202
 C156 C 0.38451 -0.02257 -0.03743
 C157 C 0.39314 0.03008 -0.04692
 C158 C 0.35308 0.02715 -0.06090
 H159 H 0.14196 0.06980 -0.12493
 H160 H 0.20927 0.08229 -0.09936
 H161 H 0.20826 -0.08477 -0.11465
 H162 H 0.13743 -0.10111 -0.13892
 H163 H 0.28247 0.05574 -0.08424
 H164 H 0.23002 -0.08201 -0.08476
 H165 H 0.25712 -0.12436 -0.05912
 H166 H 0.32647 -0.11939 -0.03498
 H167 H 0.43129 0.07332 -0.04375
 H168 H 0.36218 0.06833 -0.06823
 C169 C -0.10323 0.79457 0.53434
 C170 C -0.10152 0.76145 0.54975
 C171 C -0.04912 0.78005 0.56018
 C172 C 0.00143 0.83383 0.55524
 C173 C -0.00026 0.86748 0.53991
 C174 C -0.05250 0.84824 0.52897
 C175 C -0.04968 0.74278 0.57629
 C176 C -0.00128 0.74007 0.58262
 C177 C -0.00212 0.70010 0.59806
 C178 C 0.05204 0.71115 0.60647
 C179 C 0.05367 0.67372 0.62069
 C180 C 0.00104 0.62421 0.62680
 C181 C -0.05314 0.61298 0.61837
 C182 C -0.05477 0.65014 0.60411
 H183 H -0.14549 0.77887 0.52720
 H184 H -0.14146 0.72075 0.55350
 H185 H 0.04230 0.85051 0.56324
 H186 H 0.04054 0.90730 0.53632
 H187 H -0.09235 0.71519 0.58255
 H188 H 0.04111 0.76773 0.57614
 H189 H 0.09333 0.74891 0.60201
 H190 H 0.09617 0.68350 0.62687
 H191 H -0.09444 0.57478 0.62259
 H192 H -0.09735 0.63825 0.59771
 C193 C 0.15181 0.08357 0.21916
 C194 C 0.18250 0.12017 0.23434
 C195 C 0.22781 0.17958 0.23162
 C196 C 0.24306 0.20134 0.21338
 C197 C 0.21302 0.16434 0.19819
 C198 C 0.16690 0.10529 0.20096
 C199 C 0.26042 0.21648 0.24797
 C200 C 0.28368 0.27698 0.24851
 C201 C 0.31872 0.31374 0.26460
 C202 C 0.31910 0.36882 0.26860
 C203 C 0.35404 0.40566 0.28324
 C204 C 0.39023 0.38859 0.29386
 C205 C 0.38977 0.33343 0.28983
 C206 C 0.35437 0.29636 0.27540
 H207 H 0.11675 0.03797 0.22162
 H208 H 0.17052 0.10222 0.24825
 H209 H 0.27891 0.24639 0.21082
 H210 H 0.22534 0.18202 0.18427
 H211 H 0.26327 0.19255 0.26018
 H212 H 0.27551 0.30036 0.23706
 H213 H 0.29241 0.38340 0.26035
 H214 H 0.35387 0.44815 0.28593
 H215 H 0.41734 0.31913 0.29772
 H216 H 0.35647 0.25507 0.27238
 C217 C 0.80755 0.03785 -0.14118
 C218 C 0.76655 0.02907 -0.12732
 C219 C 0.77390 0.01153 -0.10944
 C220 C 0.82324 0.00256 -0.10562
 C221 C 0.86493 0.01203 -0.11942
 C222 C 0.85851 0.03073 -0.13751
 C223 C 0.73186 0.00785 -0.09490
 C224 C 0.71928 -0.02754 -0.07984
 C225 C 0.67912 -0.02680 -0.06527
 C226 C 0.64242 -0.08011 -0.05561
 C227 C 0.60403 -0.07985 -0.04188
 C228 C 0.60274 -0.02586 -0.03733
 C229 C 0.64048 0.02762 -0.04677
 C230 C 0.67814 0.02719 -0.06056
 H231 H 0.79760 0.04866 -0.15488
 H232 H 0.72862 0.03591 -0.13064
 H233 H 0.83113 -0.00931 -0.09177
 H234 H 0.90360 0.00760 -0.11536
 H235 H 0.70901 0.03454 -0.09704
 H236 H 0.73693 -0.05914 -0.07841
 H237 H 0.64293 -0.12211 -0.05887
 H238 H 0.57579 -0.12166 -0.03474
 H239 H 0.64090 0.07008 -0.04355
 H240 H 0.70719 0.06948 -0.06732
 C241 C 0.13661 -0.04146 0.12865
 C242 C 0.16666 -0.05167 0.11413
 C243 C 0.22513 -0.00925 0.10998
 C244 C 0.25365 0.04329 0.12102
 C245 C 0.22373 0.05372 0.13554
 C246 C 0.16431 0.01171 0.13967
 C247 C 0.25512 -0.02224 0.09442
 C248 C 0.30119 0.02118 0.08534
 C249 C 0.33198 0.00993 0.06964
 C250 C 0.37089 0.05988 0.05908
 C251 C 0.40298 0.05285 0.04462
 C252 C 0.39706 -0.00450 0.04030
 C253 C 0.35771 -0.05485 0.05068
 C254 C 0.32568 -0.04776 0.06528
 H255 H 0.09236 -0.07708 0.13154
 H256 H 0.14396 -0.09315 0.10610
 H257 H 0.29937 0.07645 0.11868
 H258 H 0.24726 0.09611 0.14301
 H259 H 0.23634 -0.06886 0.08985
 H260 H 0.31630 0.06810 0.08906
 H261 H 0.37687 0.10483 0.06212
 H262 H 0.43287 0.09263 0.03690
 H263 H 0.35263 -0.09952 0.04778
 H264 H 0.29739 -0.08740 0.07327
 C265 C 0.84776 0.79279 0.46308
 C266 C 0.80844 0.76241 0.44849
 C267 C 0.78656 0.79279 0.43688
 C268 C 0.80419 0.85399 0.44046
 C269 C 0.84354 0.88460 0.45510
 C270 C 0.86607 0.85458 0.46685
 C271 C 0.74391 0.76147 0.42142
 C272 C 0.74018 0.71203 0.41294
 C273 C 0.69705 0.67770 0.39790
 C274 C 0.70587 0.63421 0.38813
 C275 C 0.66547 0.59822 0.37448
 C276 C 0.61491 0.60469 0.37020
 C277 C 0.60606 0.64858 0.37980
 C278 C 0.64654 0.68460 0.39358
 H279 H 0.86497 0.76745 0.47092
 H280 H 0.79484 0.71476 0.44659
 H281 H 0.78724 0.87827 0.43192
 H282 H 0.85374 0.93114 0.45757
 H283 H 0.71665 0.78130 0.41662
 H284 H 0.77144 0.69606 0.41686
 H285 H 0.74410 0.62761 0.39118
 H286 H 0.67379 0.56497 0.36734
 H287 H 0.56733 0.65438 0.37688
 H288 H 0.63710 0.71650 0.40100
 C289 C -0.10142 0.12442 0.79452
 C290 C -0.09859 0.16000 0.77920
 C291 C -0.04360 0.20181 0.77190
 C292 C 0.00880 0.20655 0.78011
 C293 C 0.00594 0.17079 0.79542
 C294 C -0.04919 0.12945 0.80282
 C295 C -0.04338 0.23815 0.75556
 C296 C 0.00311 0.29104 0.75077
 C297 C 0.00179 0.32829 0.73486
 C298 C 0.05581 0.37131 0.72728
 C299 C 0.05663 0.40864 0.71266
 C300 C 0.00330 0.40398 0.70537
 C301 C -0.05076 0.36106 0.71298
 C302 C -0.05159 0.32389 0.72760
 H303 H -0.14458 0.09223 0.79971
 H304 H -0.13964 0.15497 0.77306
 H305 H 0.05205 0.23685 0.77463
 H306 H 0.04694 0.17571 0.80156
 H307 H -0.08413 0.22064 0.74747
 H308 H 0.04407 0.30848 0.75875
 H309 H 0.09758 0.37609 0.73271
 H310 H 0.09905 0.44145 0.70716
 H311 H -0.09263 0.35678 0.70785
 H312 H -0.09414 0.29312 0.73341
 C313 C 0.86876 0.02050 0.13065
 C314 C 0.83822 0.02964 0.11574
 C315 C 0.78776 -0.01918 0.10792
 C316 C 0.76940 -0.07782 0.11502
 C317 C 0.79974 -0.08687 0.12995
 C318 C 0.84956 -0.03785 0.13798
 C319 C 0.75653 -0.00773 0.09210
 C320 C 0.69926 -0.04467 0.08790
 C321 C 0.66726 -0.03684 0.07169
 C322 C 0.61702 -0.08820 0.06498
 C323 C 0.58404 -0.08390 0.05005
 C324 C 0.59996 -0.02778 0.04152
 C325 C 0.65022 0.02401 0.04822
 C326 C 0.68373 0.01958 0.06317
 H327 H 0.90694 0.05919 0.13661
 H328 H 0.85370 0.07511 0.11043
 H329 H 0.73246 -0.11719 0.10891
 H330 H 0.78488 -0.13253 0.13500
 H331 H 0.78170 0.03236 0.08384
 H332 H 0.67418 -0.08411 0.09642
 H333 H 0.60319 -0.13209 0.07132
 H334 H 0.54544 -0.12473 0.04535
 H335 H 0.66333 0.06792 0.04201
 H336 H 0.72138 0.06048 0.06824
 C337 C 0.11974 0.22270 0.45808
 C338 C 0.15476 0.25421 0.44303
 C339 C 0.19258 0.23519 0.43469
 C340 C 0.19320 0.18250 0.44133
 C341 C 0.15760 0.15055 0.45631
 C342 C 0.12108 0.17080 0.46496
 C343 C 0.22971 0.27134 0.41904
 C344 C 0.28165 0.27385 0.41444
 C345 C 0.32049 0.31433 0.39969
 C346 C 0.36238 0.30083 0.39136
 C347 C 0.40014 0.33848 0.37757
 C348 C 0.39690 0.39066 0.37191
 C349 C 0.35572 0.40469 0.38048
 C350 C 0.31830 0.36734 0.39426
 H351 H 0.09131 0.23876 0.46430
 H352 H 0.15296 0.29424 0.43807
 H353 H 0.22047 0.16542 0.43492
 H354 H 0.15938 0.11060 0.46134
 H355 H 0.21414 0.29881 0.41158
 H356 H 0.29702 0.24593 0.42175
 H357 H 0.36560 0.26077 0.39545
 H358 H 0.43157 0.32656 0.37129
 H359 H 0.35263 0.44501 0.37665
 H360 H 0.28873 0.38116 0.40082
 C361 C 0.10539 0.90263 0.79537
 C362 C 0.10396 0.86806 0.77997
 C363 C 0.04964 0.82655 0.77181
 C364 C -0.00344 0.82144 0.77912
 C365 C -0.00198 0.85611 0.79451
 C366 C 0.05240 0.89682 0.80286
 C367 C 0.05059 0.79066 0.75556
 C368 C 0.00458 0.73748 0.75043
 C369 C 0.00621 0.70041 0.73460
 C370 C -0.04778 0.65654 0.72686
 C371 C -0.04853 0.61919 0.71233
 C372 C 0.00487 0.62464 0.70530
 C373 C 0.05895 0.66845 0.71305
 C374 C 0.05971 0.70573 0.72758
 H375 H 0.14802 0.93445 0.80129
 H376 H 0.14551 0.87343 0.77450
 H377 H -0.04617 0.79155 0.77292
 H378 H -0.04353 0.85067 0.79999
 H379 H 0.09161 0.80864 0.74793
 H380 H -0.03641 0.71958 0.75808
 H381 H -0.08963 0.65108 0.73209
 H382 H -0.09096 0.58573 0.70672
 H383 H 0.10088 0.67339 0.70808
 H384 H 0.10230 0.73733 0.73349
   
