data_POSCAR
  _audit_creation_date              2014-09-24
  _audit_creation_method            'ToBaCCo'
  _symmetry_space_group_name_H-M    'P1'
  _symmetry_Int_Tables_number       1
  _symmetry_cell_setting            triclinic
  loop_
  _symmetry_equiv_pos_as_xyz
 x,y,z
_cell_length_a 28.6213
_cell_length_b 28.6331
_cell_length_c 28.0234
_cell_angle_alpha 88.805300
_cell_angle_beta 91.175700
_cell_angle_gamma 90.606300
loop_
  _atom_site_label
  _atom_site_type_symbol
  _atom_site_fract_x
  _atom_site_fract_y
  _atom_site_fract_z
C1 C 0.24145 0.17129 0.23895
 C2 C 0.22720 0.15506 0.28385
 C3 C 0.18906 0.17538 0.30650
 C4 C 0.17001 0.21663 0.28576
 C5 C 0.18373 0.23283 0.24062
 C6 C 0.21850 0.20905 0.21632
 C7 C 0.27601 0.14772 0.21497
 C8 C 0.28658 0.15942 0.16729
 C9 C 0.26231 0.19643 0.14427
 C10 C 0.22904 0.22184 0.16881
 C11 C 0.20497 0.25882 0.14622
 C12 C 0.17087 0.28323 0.17073
 C13 C 0.16092 0.27052 0.21809
 H14 H 0.24303 0.12345 0.29807
 H15 H 0.14326 0.23559 0.30377
 H16 H 0.29218 0.11778 0.23261
 H17 H 0.27021 0.20654 0.10781
 H18 H 0.21237 0.26843 0.10949
 H19 H 0.13353 0.28839 0.23643
 C20 C -0.22407 0.82931 0.22282
 C21 C -0.20714 0.84560 0.26663
 C22 C -0.16183 0.83403 0.28330
 C23 C -0.13659 0.80050 0.25859
 C24 C -0.15431 0.78226 0.21589
 C25 C -0.19698 0.79871 0.19653
 C26 C -0.26598 0.84631 0.20326
 C27 C -0.27888 0.83699 0.15571
 C28 C -0.25160 0.80641 0.12940
 C29 C -0.21178 0.78572 0.15028
 C30 C -0.18586 0.75310 0.12555
 C31 C -0.14557 0.73375 0.14684
 C32 C -0.12929 0.74907 0.19134
 H33 H -0.22727 0.87157 0.28455
 H34 H -0.10282 0.78896 0.27223
 H35 H -0.28594 0.87085 0.22341
 H36 H -0.26184 0.79816 0.09303
 H37 H -0.19742 0.74192 0.09047
 H38 H -0.09714 0.73505 0.20666
 C39 C -0.24016 0.17273 -0.23915
 C40 C -0.21635 0.15342 -0.27697
 C41 C -0.17262 0.17120 -0.29001
 C42 C -0.15336 0.20984 -0.26693
 C43 C -0.17722 0.23011 -0.22970
 C44 C -0.22049 0.21107 -0.21506
 C45 C -0.28169 0.15210 -0.22343
 C46 C -0.30471 0.16848 -0.18302
 C47 C -0.28510 0.20833 -0.16007
 C48 C -0.24293 0.22906 -0.17525
 C49 C -0.22146 0.26598 -0.15004
 C50 C -0.17845 0.28492 -0.16505
 C51 C -0.15708 0.26737 -0.20522
 H52 H -0.23061 0.12302 -0.29484
 H53 H -0.11934 0.22320 -0.27722
 H54 H -0.29348 0.12087 -0.24120
 H55 H -0.30218 0.22391 -0.13038
 H56 H -0.23729 0.27907 -0.11822
 H57 H -0.12333 0.28125 -0.21582
 C58 C 0.24923 0.81185 -0.25530
 C59 C 0.22656 0.83649 -0.29242
 C60 C 0.18367 0.82061 -0.31205
 C61 C 0.16530 0.77755 -0.29458
 C62 C 0.18757 0.75267 -0.25703
 C63 C 0.22988 0.76980 -0.23741
 C64 C 0.28911 0.83103 -0.23345
 C65 C 0.31040 0.80912 -0.19352
 C66 C 0.29227 0.76569 -0.17714
 C67 C 0.25169 0.74619 -0.19850
 C68 C 0.23084 0.70523 -0.17968
 C69 C 0.18700 0.68893 -0.19731
 C70 C 0.16644 0.71259 -0.23692
 H71 H 0.24101 0.87014 -0.30285
 H72 H 0.13355 0.76287 -0.30989
 H73 H 0.30157 0.86495 -0.24580
 H74 H 0.30846 0.74807 -0.14657
 H75 H 0.24821 0.68715 -0.15014
 H76 H 0.13246 0.70176 -0.25054
 C77 C 0.16302 1.23094 0.77476
 C78 C 0.13924 1.21084 0.73559
 C79 C 0.15636 1.17059 0.71351
 C80 C 0.19864 1.15122 0.73177
 C81 C 0.22175 1.16979 0.77210
 C82 C 0.20379 1.20980 0.79361
 C83 C 0.14578 1.27118 0.79618
 C84 C 0.16768 1.29010 0.83745
 C85 C 0.20793 1.26759 0.85625
 C86 C 0.22596 1.22794 0.83481
 C87 C 0.26512 1.20532 0.85500
 C88 C 0.28262 1.16500 0.83455
 C89 C 0.26138 1.14775 0.79267
 H90 H 0.10791 1.22755 0.72162
 H91 H 0.21216 1.11961 0.71688
 H92 H 0.11363 1.28598 0.78191
 H93 H 0.22652 1.28148 0.88694
 H94 H 0.28125 1.21814 0.88762
 H95 H 0.27450 1.11608 0.77744
 C96 C 0.82162 0.76947 0.78028
 C97 C 0.83867 0.78891 0.73769
 C98 C 0.81947 0.82997 0.71679
 C99 C 0.77927 0.84851 0.73815
 C100 C 0.76111 0.82861 0.78044
 C101 C 0.78330 0.78972 0.80224
 C102 C 0.84382 0.73092 0.80195
 C103 C 0.83018 0.71330 0.84703
 C104 C 0.79183 0.73423 0.86898
 C105 C 0.76778 0.77155 0.84643
 C106 C 0.72898 0.79152 0.86780
 C107 C 0.70576 0.82982 0.84606
 C108 C 0.72225 0.84815 0.80235
 H109 H 0.86708 0.77127 0.72098
 H110 H 0.76336 0.88014 0.72410
 H111 H 0.87424 0.71706 0.78498
 H112 H 0.77964 0.72075 0.90297
 H113 H 0.71679 0.77717 0.90146
 H114 H 0.70565 0.87855 0.78607
 C115 C 0.17328 0.76192 1.25554
 C116 C 0.14794 0.78543 1.29006
 C117 C 0.16472 0.82777 1.30880
 C118 C 0.20696 0.84716 1.29214
 C119 C 0.23247 0.82449 1.25708
 C120 C 0.21594 0.78123 1.23971
 C121 C 0.15531 0.72106 1.23430
 C122 C 0.17945 0.69929 1.19714
 C123 C 0.22384 0.71695 1.18536
 C124 C 0.24122 0.75810 1.20493
 C125 C 0.28203 0.77804 1.18707
 C126 C 0.29639 0.82291 1.20017
 C127 C 0.27255 0.84544 1.23674
 H128 H 0.11465 0.77141 1.30174
 H129 H 0.21894 0.88066 1.30525
 H130 H 0.12094 0.70882 1.24443
 H131 H 0.24493 0.69939 1.15971
 H132 H 0.30109 0.75976 1.16024
 H133 H 0.28355 0.88005 1.24749
 C134 C 0.81993 1.24734 1.22101
 C135 C 0.84272 1.22640 1.26081
 C136 C 0.82420 1.18583 1.28362
 C137 C 0.78159 1.16716 1.26506
 C138 C 0.75856 1.18775 1.22528
 C139 C 0.77767 1.22807 1.20339
 C140 C 0.83941 1.28662 1.19760
 C141 C 0.81743 1.30614 1.15651
 C142 C 0.77498 1.28736 1.13996
 C143 C 0.75506 1.24850 1.16298
 C144 C 0.71378 1.22873 1.14480
 C145 C 0.69543 1.18739 1.16490
 C146 C 0.71768 1.16743 1.20571
 H147 H 0.87435 1.24284 1.27438
 H148 H 0.76714 1.13495 1.27955
 H149 H 0.87254 1.30093 1.21018
 H150 H 0.75792 1.30259 1.10849
 H151 H 0.69655 1.24503 1.11404
 H152 H 0.70429 1.13511 1.22119
 O153 O 0.52397 0.94147 0.92847
 O154 O 0.45126 0.95698 1.10245
 O155 O 0.58994 0.98524 1.04625
 O156 O 0.43652 0.92614 0.95880
 O157 O 0.53772 0.94851 1.08964
 O158 O 0.44733 0.96943 0.89863
 O159 O 0.43161 0.91983 1.04106
 O160 O 0.58451 0.97048 0.96220
 C161 C 0.56638 0.93917 0.93745
 C162 C 0.43063 0.92342 1.08469
 C163 C 0.57877 0.95266 1.07539
 C164 C 0.42993 0.93279 0.91544
 O165 O 0.46232 1.05216 0.92872
 O166 O 0.54494 1.03808 1.09376
 O167 O 0.54639 1.05663 0.94570
 O168 O 0.39999 1.01039 1.04724
 O169 O 0.45700 1.04394 1.08965
 O170 O 0.52816 1.01972 0.88134
 O171 O 0.40252 1.01591 0.95902
 O172 O 0.55121 1.07260 1.02723
 Co173 Co 0.49537 0.99741 0.93255
 Co174 Co 0.49759 0.99644 1.08489
 Co175 Co 0.56215 1.01901 0.99628
 Co176 Co 0.42339 0.97019 1.00158
 O177 O 0.49275 0.99357 1.00624
 C178 C 0.41908 1.05005 0.93527
 C179 C 0.55716 1.07326 1.07080
 C180 C 0.55465 1.05094 0.90209
 C181 C 0.41457 1.04095 1.07688
 O182 O 0.05276 0.46165 0.08994
 O183 O 0.03094 0.54519 -0.10207
 O184 O 0.06155 0.42690 -0.02463
 O185 O 0.08538 0.56912 0.03589
 O186 O 0.04236 0.45925 -0.09108
 O187 O 0.04726 0.54800 0.09710
 O188 O 0.07859 0.55548 -0.04586
 O189 O 0.02082 0.40623 0.04904
 C190 C 0.05075 0.41953 0.07921
 C191 C 0.07016 0.55957 -0.08860
 C192 C 0.06897 0.43252 -0.06775
 C193 C 0.08119 0.56874 0.07972
 O194 O -0.04018 0.54773 0.08393
 O195 O -0.04924 0.44932 -0.07001
 O196 O -0.05890 0.43785 0.01486
 O197 O -0.01092 0.59379 -0.04807
 O198 O -0.05484 0.53507 -0.06939
 O199 O -0.03947 0.45882 0.08548
 O200 O -0.00401 0.60037 0.03841
 O201 O -0.01728 0.38592 -0.03753
 Co202 Co 0.00552 0.50344 0.08065
 Co203 Co -0.00535 0.49771 -0.07490
 Co204 Co 0.00211 0.43653 -0.00577
 Co205 Co 0.03523 0.57389 -0.00514
 O206 O 0.01139 0.50528 0.00233
 C207 C -0.03536 0.58920 0.06834
 C208 C -0.04622 0.40465 -0.06944
 C209 C -0.06767 0.43889 0.05811
 C210 C -0.04914 0.57795 -0.06475
 O211 O 1.10902 0.02814 0.46669
 O212 O 0.90645 0.05606 0.53616
 O213 O 0.96455 0.07846 0.43352
 O214 O 1.03267 0.03128 0.59290
 O215 O 0.90025 0.04437 0.44707
 O216 O 1.06140 0.06415 0.52935
 O217 O 0.94764 0.02386 0.59530
 O218 O 1.04625 0.06459 0.44145
 C219 C 1.08993 0.05869 0.43750
 C220 C 0.91949 0.05491 0.57920
 C221 C 0.92166 0.07783 0.42866
 C222 C 1.05505 0.06463 0.57345
 O223 O 1.09327 -0.01649 0.55094
 O224 O 0.90498 -0.04402 0.46118
 O225 O 1.03305 -0.02394 0.41027
 O226 O 0.95636 -0.06773 0.56551
 O227 O 0.89466 -0.03130 0.54979
 O228 O 1.06481 -0.05013 0.47431
 O229 O 1.03556 -0.06020 0.56205
 O230 O 0.94872 -0.01266 0.40445
 Co231 Co 1.05922 0.00754 0.50003
 Co232 Co 0.91034 0.00591 0.49884
 Co233 Co 0.99724 0.02462 0.42906
 Co234 Co 0.99283 -0.01645 0.57341
 O235 O 0.98764 0.00387 0.50227
 C236 C 1.07758 -0.05278 0.56974
 C237 C 0.91900 -0.04313 0.41895
 C238 C 1.05805 -0.05395 0.43071
 C239 C 0.91387 -0.06512 0.56964
 C240 C 1.11835 0.15672 0.35143
 C241 C 1.16679 0.15152 0.34488
 C242 C 1.19044 0.11785 0.37392
 C243 C 1.16594 0.08816 0.40505
 C244 C 1.11743 0.09180 0.40839
 C245 C 1.09421 0.12726 0.38249
 H246 H 1.09753 0.18073 0.32993
 H247 H 1.22792 0.11392 0.37281
 H248 H 1.18481 0.06179 0.42565
 H249 H 1.05673 0.13126 0.38473
 C250 C 0.83270 -0.12264 0.35751
 C251 C 0.85943 -0.14040 0.32042
 C252 C 0.90716 -0.12769 0.31832
 C253 C 0.92642 -0.09563 0.35010
 C254 C 0.89914 -0.07720 0.38581
 C255 C 0.85256 -0.09189 0.39019
 H256 H 0.79642 -0.13271 0.36166
 H257 H 0.92899 -0.13951 0.28997
 H258 H 0.96249 -0.08494 0.34661
 H259 H 0.83107 -0.07849 0.41808
 C260 C 0.83634 0.14150 0.62855
 C261 C 0.85433 0.14649 0.67491
 C262 C 0.89565 0.12380 0.68912
 C263 C 0.91774 0.09450 0.65768
 C264 C 0.89909 0.08844 0.61151
 C265 C 0.85884 0.11306 0.59685
 H266 H 0.80429 0.15872 0.61738
 H267 H 0.90953 0.12714 0.72516
 H268 H 0.94869 0.07588 0.66975
 H269 H 0.84362 0.10896 0.56146
 C270 C 1.10900 -0.15404 0.65132
 C271 C 1.15819 -0.15074 0.65477
 C272 C 1.18059 -0.11572 0.62664
 C273 C 1.15474 -0.08382 0.59873
 C274 C 1.10597 -0.08667 0.59733
 C275 C 1.08347 -0.12262 0.62299
 H276 H 1.08920 -0.17873 0.67268
 H277 H 1.21823 -0.11288 0.62528
 H278 H 1.17288 -0.05702 0.57825
 H279 H 1.04570 -0.12564 0.62246
 C280 C 0.35835 1.11403 1.16849
 C281 C 0.31961 1.13289 1.14324
 C282 C 0.31362 1.12243 1.09446
 C283 C 0.34397 1.09178 1.07266
 C284 C 0.38179 1.07275 1.09861
 C285 C 0.38921 1.08482 1.14631
 H286 H 0.36564 1.12259 1.20538
 H287 H 0.28402 1.13551 1.07376
 H288 H 0.33808 1.08311 1.03564
 H289 H 0.41857 1.07088 1.16685
 C290 C 0.37787 0.86678 0.81079
 C291 C 0.34705 0.83530 0.83399
 C292 C 0.34722 0.83390 0.88413
 C293 C 0.37548 0.86462 0.91018
 C294 C 0.40367 0.89813 0.88686
 C295 C 0.40539 0.89833 0.83694
 H296 H 0.37969 0.86809 0.77225
 H297 H 0.32369 0.81088 0.90342
 H298 H 0.37369 0.86339 0.94876
 H299 H 0.42752 0.92319 0.81816
 C300 C 0.69030 0.88419 1.08939
 C301 C 0.68419 0.86176 1.13400
 C302 C 0.64264 0.86904 1.15866
 C303 C 0.60776 0.89740 1.13881
 C304 C 0.61483 0.92123 1.09527
 C305 C 0.65683 0.91529 1.07138
 H306 H 0.72254 0.88068 1.07025
 H307 H 0.63679 0.85211 1.19299
 H308 H 0.57585 0.90181 1.15828
 H309 H 0.66403 0.93506 1.03900
 C310 C 0.62991 1.11049 0.80810
 C311 C 0.65612 1.14314 0.83575
 C312 C 0.64391 1.14718 0.88400
 C313 C 0.60976 1.11841 0.90408
 C314 C 0.58676 1.08381 0.87734
 C315 C 0.59624 1.08085 0.82881
 H316 H 0.63464 1.10746 0.77017
 H317 H 0.66230 1.17024 0.90806
 H318 H 0.60259 1.12243 0.94152
 H319 H 0.57811 1.05536 0.80701
 C320 C 0.12087 0.31013 0.10189
 C321 C 0.14274 0.31956 0.14595
 C322 C 0.13513 0.36258 0.16750
 C323 C 0.10572 0.39553 0.14549
 C324 C 0.08280 0.38554 0.10205
 C325 C 0.09090 0.34271 0.08028
 H326 H 0.12590 0.27698 0.08489
 H327 H 0.15179 0.37051 0.20147
 H328 H 0.10016 0.42839 0.16287
 H329 H 0.07408 0.33438 0.04651
 C330 C -0.12726 0.30257 -0.09536
 C331 C -0.15148 0.31864 -0.13630
 C332 C -0.14204 0.36371 -0.15457
 C333 C -0.10835 0.39218 -0.13236
 C334 C -0.08266 0.37536 -0.09250
 C335 C -0.09287 0.33049 -0.07388
 H336 H -0.13329 0.26746 -0.08151
 H337 H -0.15965 0.37616 -0.18689
 H338 H -0.10133 0.42669 -0.14723
 H339 H -0.07410 0.31672 -0.04283
 C340 C 0.16648 0.64475 -0.12174
 C341 C 0.16033 0.65094 -0.17138
 C342 C 0.12580 0.62326 -0.19455
 C343 C 0.09684 0.59248 -0.16841
 C344 C 0.10262 0.58772 -0.11871
 C345 C 0.13870 0.61328 -0.09612
 H346 H 0.19132 0.66572 -0.10174
 H347 H 0.12043 0.62579 -0.23283
 H348 H 0.06961 0.57301 -0.18689
 H349 H 0.14426 0.61072 -0.05780
 C350 C -0.12390 0.65072 0.14196
 C351 C -0.12057 0.69645 0.12364
 C352 C -0.09070 0.70682 0.08590
 C353 C -0.06323 0.67176 0.06745
 C354 C -0.06596 0.62581 0.08609
 C355 C -0.09706 0.61552 0.12310
 H356 H -0.14673 0.64252 0.17141
 H357 H -0.08765 0.74221 0.07181
 H358 H -0.03955 0.68074 0.03895
 H359 H -0.09986 0.58054 0.13829
 C360 C 1.15414 0.12435 0.63971
 C361 C 1.13095 0.14898 0.67531
 C362 C 1.08147 0.14953 0.67284
 C363 C 1.05648 0.12375 0.63844
 C364 C 1.08005 0.09870 0.60404
 C365 C 1.12904 0.10029 0.60426
 H366 H 1.19191 0.12395 0.63865
 H367 H 1.06160 0.16685 0.69961
 H368 H 1.01870 0.12240 0.63945
 H369 H 1.14804 0.08071 0.57842
 C370 C 0.81707 -0.11575 0.64624
 C371 C 0.84147 -0.14722 0.67708
 C372 C 0.88957 -0.15379 0.66826
 C373 C 0.91226 -0.12907 0.63182
 C374 C 0.88809 -0.09656 0.60291
 C375 C 0.84006 -0.09084 0.60990
 H376 H 0.77996 -0.11034 0.64932
 H377 H 0.91132 -0.17560 0.69121
 H378 H 0.94945 -0.13389 0.62781
 H379 H 0.82032 -0.06616 0.58793
 C380 C 1.14735 -0.14211 0.39051
 C381 C 1.13549 -0.14568 0.34178
 C382 C 1.09608 -0.12213 0.32373
 C383 C 1.06999 -0.09401 0.35327
 C384 C 1.08184 -0.08961 0.40202
 C385 C 1.12049 -0.11466 0.42052
 H386 H 1.17776 -0.15998 0.40511
 H387 H 1.08651 -0.12413 0.28622
 H388 H 1.04154 -0.07421 0.33733
 H389 H 1.13114 -0.11140 0.45762
 C390 C 0.89736 0.16740 0.32943
 C391 C 0.84824 0.16331 0.32288
 C392 C 0.82400 0.13453 0.35591
 C393 C 0.84779 0.10894 0.39162
 C394 C 0.89669 0.11114 0.39600
 C395 C 0.92112 0.14161 0.36531
 H396 H 0.91845 0.18790 0.30507
 H397 H 0.78629 0.13180 0.35501
 H398 H 0.82776 0.08634 0.41519
 H399 H 0.95890 0.14388 0.36753
 C400 C 0.12219 0.36313 -0.16552
 C401 C 0.14868 0.32947 -0.13959
 C402 C 0.15408 0.33540 -0.08971
 C403 C 0.13096 0.37111 -0.06655
 C404 C 0.10254 0.40265 -0.09246
 C405 C 0.09989 0.39926 -0.14238
 H406 H 0.11857 0.36198 -0.20399
 H407 H 0.17297 0.31041 -0.06745
 H408 H 0.13329 0.37240 -0.02796
 H409 H 0.07835 0.42308 -0.16353
 C410 C -0.14137 0.38318 0.15299
 C411 C -0.15991 0.34448 0.12922
 C412 C -0.15443 0.34136 0.07957
 C413 C -0.12761 0.37465 0.05482
 C414 C -0.10612 0.41149 0.07945
 C415 C -0.11505 0.41656 0.12829
 H416 H -0.14596 0.38675 0.19101
 H417 H -0.16857 0.31173 0.06048
 H418 H -0.12116 0.36982 0.01734
 H419 H -0.09927 0.44489 0.14818
 C420 C -0.13715 0.67521 -0.07985
 C421 C -0.14394 0.67691 -0.12999
 C422 C -0.12181 0.64272 -0.15701
 C423 C -0.09268 0.60952 -0.13514
 C424 C -0.08392 0.61006 -0.08588
 C425 C -0.10667 0.64268 -0.05824
 H426 H -0.15268 0.70088 -0.05740
 H427 H -0.12740 0.64095 -0.19525
 H428 H -0.07568 0.58423 -0.15699
 H429 H -0.10054 0.64319 -0.02006
 C430 C 0.12438 0.63293 0.18864
 C431 C 0.15880 0.66306 0.16965
 C432 C 0.17055 0.65767 0.12112
 C433 C 0.14729 0.62524 0.09242
 C434 C 0.11181 0.59693 0.11123
 C435 C 0.10155 0.60018 0.15995
 H436 H 0.11508 0.63403 0.22581
 H437 H 0.19525 0.68076 0.10359
 H438 H 0.15556 0.62396 0.05492
 H439 H 0.07444 0.57853 0.17569
 C440 C 0.30593 1.11015 0.90028
 C441 C 0.31890 1.13773 0.86080
 C442 C 0.36596 1.13911 0.84748
 C443 C 0.39947 1.11247 0.87307
 C444 C 0.38615 1.08368 0.91192
 C445 C 0.33900 1.08315 0.92524
 H446 H 0.26982 1.10876 0.91117
 H447 H 0.37661 1.16046 0.81718
 H448 H 0.43535 1.11315 0.86150
 H449 H 0.32728 1.06086 0.95438
 C450 C 0.36723 0.87560 1.19283
 C451 C 0.33307 0.84692 1.17154
 C452 C 0.33357 0.84119 1.12166
 C453 C 0.36704 0.86376 1.09372
 C454 C 0.40046 0.89329 1.11480
 C455 C 0.40061 0.89856 1.16473
 H456 H 0.36801 0.88044 1.23105
 H457 H 0.30709 0.82024 1.10380
 H458 H 0.36547 0.85963 1.05539
 H459 H 0.42583 0.92145 1.18197
 C460 C 0.65198 1.16304 1.09057
 C461 C 0.65542 1.16338 1.14081
 C462 C 0.62191 1.13851 1.16735
 C463 C 0.58769 1.11161 1.14425
 C464 C 0.58598 1.10943 1.09417
 C465 C 0.61735 1.13672 1.06752
 H466 H 0.67756 1.18112 1.06885
 H467 H 0.62288 1.13883 1.20598
 H468 H 0.56370 1.09097 1.16564
 H469 H 0.61715 1.13533 1.02895
 C470 C 0.66834 0.85927 0.91997
 C471 C 0.66620 0.85245 0.87041
 C472 C 0.62707 0.86942 0.84435
 C473 C 0.59228 0.89456 0.86700
 C474 C 0.59620 0.90362 0.91599
 C475 C 0.63378 0.88457 0.94231
 H476 H 0.69786 0.84691 0.94127
 H477 H 0.62393 0.86418 0.80626
 H478 H 0.56380 0.90925 0.84573
 H479 H 0.63696 0.89029 0.98005
   
