data_POSCAR
  _audit_creation_date              2014-09-24
  _audit_creation_method            'ToBaCCo'
  _symmetry_space_group_name_H-M    'P1'
  _symmetry_Int_Tables_number       1
  _symmetry_cell_setting            triclinic
  loop_
  _symmetry_equiv_pos_as_xyz
 x,y,z
_cell_length_a 61.6621
_cell_length_b 61.5936
_cell_length_c 36.1677
_cell_angle_alpha 89.998000
_cell_angle_beta 89.907500
_cell_angle_gamma 89.998800
loop_
  _atom_site_label
  _atom_site_type_symbol
  _atom_site_fract_x
  _atom_site_fract_y
  _atom_site_fract_z
C1 C -0.00066 0.26586 -0.01773
 C2 C -0.00030 0.26585 0.01999
 C3 C -0.02059 0.26681 0.04214
 C4 C 0.02036 0.26434 0.04091
 C5 C 0.01964 0.26681 -0.03988
 C6 C -0.02132 0.26436 -0.03866
 C7 C -0.03584 0.28345 0.03659
 C8 C -0.05535 0.28354 0.05636
 C9 C -0.05970 0.26712 0.08218
 C10 C -0.04426 0.25085 0.08856
 C11 C -0.02479 0.25075 0.06875
 C12 C 0.02542 0.28008 0.06762
 C13 C 0.04502 0.27904 0.08692
 C14 C 0.05966 0.26214 0.07994
 C15 C 0.05451 0.24614 0.05388
 C16 C 0.03492 0.24716 0.03460
 C17 C 0.02383 0.25076 -0.06652
 C18 C 0.04329 0.25088 -0.08634
 C19 C 0.05869 0.26715 -0.07996
 C20 C 0.05439 0.28354 -0.05414
 C21 C 0.03490 0.28346 -0.03433
 C22 C -0.03588 0.24719 -0.03237
 C23 C -0.05545 0.24617 -0.05174
 C24 C -0.06055 0.26215 -0.07785
 C25 C -0.04591 0.27904 -0.08479
 C26 C -0.02634 0.28010 -0.06541
 H27 H -0.03273 0.29620 0.01665
 H28 H -0.06707 0.29631 0.05117
 H29 H -0.04734 0.23803 0.10846
 H30 H -0.01319 0.23785 0.07354
 H31 H 0.01434 0.29335 0.07305
 H32 H 0.04881 0.29146 0.10711
 H33 H 0.03112 0.23461 0.01465
 H34 H 0.01223 0.23786 -0.07132
 H35 H 0.04645 0.23814 -0.10628
 H36 H 0.06617 0.29624 -0.04908
 H37 H 0.03181 0.29620 -0.01437
 H38 H -0.03211 0.23465 -0.01240
 H39 H -0.06661 0.23296 -0.04630
 H40 H -0.04967 0.29145 -0.10502
 H41 H -0.01525 0.29336 -0.07083
 H42 H 0.06567 0.23294 0.04841
 C43 C 0.49975 0.76775 0.48162
 C44 C 0.50025 0.76777 0.51933
 C45 C 0.48004 0.76875 0.54168
 C46 C 0.52098 0.76622 0.54004
 C47 C 0.51996 0.76871 0.45926
 C48 C 0.47901 0.76620 0.46091
 C49 C 0.46477 0.78539 0.53624
 C50 C 0.44533 0.78547 0.55619
 C51 C 0.44109 0.76907 0.58203
 C52 C 0.45651 0.75282 0.58832
 C53 C 0.47593 0.75270 0.56837
 C54 C 0.52613 0.78192 0.56678
 C55 C 0.54575 0.78079 0.58600
 C56 C 0.56032 0.76386 0.57890
 C57 C 0.55511 0.74792 0.55279
 C58 C 0.53549 0.74902 0.53358
 C59 C 0.52405 0.75266 0.43259
 C60 C 0.54346 0.75277 0.41260
 C61 C 0.55888 0.76902 0.41885
 C62 C 0.55466 0.78542 0.44468
 C63 C 0.53524 0.78535 0.46467
 C64 C 0.46451 0.74900 0.46740
 C65 C 0.44489 0.74789 0.44819
 C66 C 0.43968 0.76381 0.42204
 C67 C 0.45425 0.78074 0.41492
 C68 C 0.47387 0.78188 0.43415
 H69 H 0.46780 0.79812 0.51624
 H70 H 0.43352 0.79816 0.55119
 H71 H 0.45340 0.74007 0.60827
 H72 H 0.48753 0.73980 0.57308
 H73 H 0.51508 0.79520 0.57233
 H74 H 0.54960 0.79317 0.60624
 H75 H 0.53162 0.73651 0.51362
 H76 H 0.51244 0.73975 0.42790
 H77 H 0.54656 0.74001 0.39265
 H78 H 0.56647 0.79812 0.44965
 H79 H 0.53221 0.79809 0.48465
 H80 H 0.46838 0.73650 0.48739
 H81 H 0.43379 0.73466 0.45376
 H82 H 0.45041 0.79310 0.39466
 H83 H 0.48492 0.79516 0.42857
 H84 H 0.56621 0.73469 0.54723
 C85 C 1.00058 0.73327 -0.01948
 C86 C 1.00012 0.73324 0.01823
 C87 C 1.02035 0.73229 0.04044
 C88 C 0.97940 0.73476 0.03910
 C89 C 0.98035 0.73234 -0.04168
 C90 C 1.02129 0.73485 -0.04034
 C91 C 1.03564 0.71567 0.03487
 C92 C 1.05508 0.71559 0.05473
 C93 C 1.05929 0.73197 0.08060
 C94 C 1.04385 0.74820 0.08700
 C95 C 1.02444 0.74832 0.06714
 C96 C 0.97427 0.71902 0.06580
 C97 C 0.95465 0.72011 0.08513
 C98 C 0.94007 0.73704 0.07819
 C99 C 0.94528 0.75303 0.05213
 C100 C 0.96490 0.75198 0.03281
 C101 C 0.97622 0.74842 -0.06827
 C102 C 0.95679 0.74835 -0.08807
 C103 C 0.94136 0.73209 -0.08173
 C104 C 0.94561 0.71566 -0.05598
 C105 C 0.96507 0.71570 -0.03618
 C106 C 1.03578 0.75206 -0.03396
 C107 C 1.05541 0.75316 -0.05324
 C108 C 1.06066 0.73721 -0.07938
 C109 C 1.04607 0.72027 -0.08641
 C110 C 1.02644 0.71915 -0.06710
 H111 H 1.03262 0.70295 0.01487
 H112 H 1.06689 0.70292 0.04966
 H113 H 1.04694 0.76093 0.10698
 H114 H 1.01282 0.76120 0.07194
 H115 H 0.98532 0.70573 0.07122
 H116 H 0.95080 0.70770 0.10533
 H117 H 0.96876 0.76452 0.01288
 H118 H 0.98783 0.76133 -0.07302
 H119 H 0.95367 0.76112 -0.10795
 H120 H 0.93380 0.70297 -0.05094
 H121 H 0.96811 0.70294 -0.01626
 H122 H 1.03190 0.76456 -0.01397
 H123 H 1.06648 0.76643 -0.04766
 H124 H 1.04988 0.70785 -0.10665
 H125 H 1.01540 0.70586 -0.07258
 H126 H 0.93416 0.76627 0.04669
 C127 C 0.50037 0.23325 0.48039
 C128 C 0.49986 0.23320 0.51810
 C129 C 0.52006 0.23220 0.54037
 C130 C 0.47911 0.23469 0.53892
 C131 C 0.48017 0.23227 0.45812
 C132 C 0.52112 0.23481 0.45959
 C133 C 0.53533 0.21555 0.53482
 C134 C 0.55474 0.21542 0.55475
 C135 C 0.55896 0.23177 0.58066
 C136 C 0.54354 0.24803 0.58704
 C137 C 0.52415 0.24820 0.56711
 C138 C 0.47399 0.21896 0.56565
 C139 C 0.45436 0.22002 0.58495
 C140 C 0.43974 0.23692 0.57796
 C141 C 0.44493 0.25289 0.55185
 C142 C 0.46456 0.25186 0.53256
 C143 C 0.47605 0.24834 0.43149
 C144 C 0.45665 0.24820 0.41160
 C145 C 0.44125 0.23191 0.41788
 C146 C 0.44550 0.21550 0.44366
 C147 C 0.46492 0.21560 0.46356
 C148 C 0.53564 0.25199 0.46608
 C149 C 0.55529 0.25307 0.44684
 C150 C 0.56052 0.23716 0.42066
 C151 C 0.54592 0.22026 0.41352
 C152 C 0.52627 0.21914 0.43278
 H153 H 0.53230 0.20285 0.51479
 H154 H 0.56654 0.20272 0.54968
 H155 H 0.54664 0.26075 0.60705
 H156 H 0.51255 0.26110 0.57191
 H157 H 0.48506 0.20570 0.57113
 H158 H 0.45053 0.20762 0.60518
 H159 H 0.46841 0.26440 0.51260
 H160 H 0.48763 0.26127 0.42678
 H161 H 0.45353 0.26097 0.39169
 H162 H 0.43372 0.20278 0.44865
 H163 H 0.46797 0.20285 0.48350
 H164 H 0.53177 0.26448 0.48611
 H165 H 0.56641 0.26628 0.45243
 H166 H 0.54977 0.20790 0.39324
 H167 H 0.51521 0.20588 0.42721
 H168 H 0.43379 0.26610 0.54637
 C169 C 0.73376 -0.00044 -0.01972
 C170 C 0.73381 -0.00012 0.01800
 C171 C 0.73290 -0.02046 0.04006
 C172 C 0.73535 0.02054 0.03901
 C173 C 0.73277 0.01990 -0.04176
 C174 C 0.73529 -0.02110 -0.04075
 C175 C 0.71630 -0.03576 0.03453
 C176 C 0.71624 -0.05527 0.05429
 C177 C 0.73263 -0.05957 0.08006
 C178 C 0.74887 -0.04412 0.08640
 C179 C 0.74895 -0.02463 0.06662
 C180 C 0.71966 0.02558 0.06585
 C181 C 0.72074 0.04517 0.08527
 C182 C 0.73763 0.05982 0.07828
 C183 C 0.75357 0.05469 0.05209
 C184 C 0.75252 0.03510 0.03268
 C185 C 0.74876 0.02411 -0.06850
 C186 C 0.74862 0.04361 -0.08824
 C187 C 0.73238 0.05904 -0.08167
 C188 C 0.71604 0.05470 -0.05573
 C189 C 0.71616 0.03517 -0.03602
 C190 C 0.75249 -0.03563 -0.03463
 C191 C 0.75353 -0.05522 -0.05403
 C192 C 0.73752 -0.06039 -0.08004
 C193 C 0.72059 -0.04576 -0.08682
 C194 C 0.71954 -0.02616 -0.06738
 H195 H 0.70356 -0.03267 0.01463
 H196 H 0.70353 -0.06704 0.04919
 H197 H 0.76164 -0.04721 0.10629
 H198 H 0.76183 -0.01301 0.07140
 H199 H 0.70640 0.01449 0.07130
 H200 H 0.70836 0.04896 0.10556
 H201 H 0.76502 0.03131 0.01263
 H202 H 0.76164 0.01250 -0.07345
 H203 H 0.76135 0.04673 -0.10825
 H204 H 0.70333 0.06646 -0.05045
 H205 H 0.70347 0.03206 -0.01598
 H206 H 0.76503 -0.03181 -0.01474
 H207 H 0.76679 -0.06633 -0.04864
 H208 H 0.70814 -0.04951 -0.10694
 H209 H 0.70625 -0.01509 -0.07266
 H210 H 0.76677 0.06585 0.04661
 C211 C 0.23295 0.49970 0.48187
 C212 C 0.23294 0.50029 0.51958
 C213 C 0.23194 0.48010 0.54199
 C214 C 0.23448 0.52109 0.54023
 C215 C 0.23201 0.51989 0.45946
 C216 C 0.23446 0.47890 0.46121
 C217 C 0.21528 0.46484 0.53666
 C218 C 0.21519 0.44541 0.55663
 C219 C 0.23158 0.44117 0.58239
 C220 C 0.24784 0.45659 0.58858
 C221 C 0.24798 0.47600 0.56861
 C222 C 0.21881 0.52628 0.56701
 C223 C 0.21992 0.54596 0.58618
 C224 C 0.23682 0.56056 0.57900
 C225 C 0.25274 0.55529 0.55283
 C226 C 0.25165 0.53561 0.53368
 C227 C 0.24807 0.52394 0.43277
 C228 C 0.24798 0.54334 0.41276
 C229 C 0.23175 0.55880 0.41901
 C230 C 0.21534 0.55462 0.44485
 C231 C 0.21539 0.53519 0.46485
 C232 C 0.25160 0.46434 0.46769
 C233 C 0.25266 0.44467 0.44850
 C234 C 0.23675 0.43945 0.42239
 C235 C 0.21988 0.45407 0.41529
 C236 C 0.21879 0.47375 0.43449
 H237 H 0.20255 0.46787 0.51672
 H238 H 0.20249 0.43360 0.55171
 H239 H 0.26059 0.45348 0.60847
 H240 H 0.26089 0.48760 0.57323
 H241 H 0.20555 0.51523 0.57264
 H242 H 0.20756 0.54984 0.60646
 H243 H 0.26415 0.53172 0.51368
 H244 H 0.26096 0.51231 0.42810
 H245 H 0.26074 0.54642 0.39282
 H246 H 0.20266 0.56645 0.44981
 H247 H 0.20264 0.53220 0.48485
 H248 H 0.26409 0.46821 0.48764
 H249 H 0.26585 0.43352 0.45406
 H250 H 0.20752 0.45023 0.39505
 H251 H 0.20555 0.48483 0.42892
 H252 H 0.26595 0.56641 0.54721
 C253 C 0.26628 1.00051 -0.01933
 C254 C 0.26630 1.00021 0.01839
 C255 C 0.26724 1.02056 0.04041
 C256 C 0.26481 0.97956 0.03945
 C257 C 0.26718 0.98016 -0.04135
 C258 C 0.26477 1.02116 -0.04038
 C259 C 0.28384 1.03585 0.03471
 C260 C 0.28393 1.05537 0.05444
 C261 C 0.26757 1.05969 0.08036
 C262 C 0.25134 1.04424 0.08687
 C263 C 0.25123 1.02475 0.06711
 C264 C 0.28057 0.97453 0.06609
 C265 C 0.27953 0.95495 0.08556
 C266 C 0.26262 0.94031 0.07881
 C267 C 0.24661 0.94542 0.05282
 C268 C 0.24762 0.96501 0.03337
 C269 C 0.25111 0.97596 -0.06786
 C270 C 0.25117 0.95644 -0.08756
 C271 C 0.26740 0.94098 -0.08118
 C272 C 0.28381 0.94531 -0.05546
 C273 C 0.28378 0.96486 -0.03579
 C274 C 0.24760 1.03572 -0.03413
 C275 C 0.24657 1.05531 -0.05356
 C276 C 0.26256 1.06044 -0.07971
 C277 C 0.27945 1.04576 -0.08662
 C278 C 0.28049 1.02618 -0.06716
 H279 H 0.29656 1.03275 0.01470
 H280 H 0.29664 1.06714 0.04921
 H281 H 0.23859 1.04734 0.10686
 H282 H 0.23836 1.01312 0.07202
 H283 H 0.29384 0.98562 0.07135
 H284 H 0.29196 0.95117 0.10569
 H285 H 0.23507 0.96879 0.01348
 H286 H 0.23824 0.98758 -0.07266
 H287 H 0.23838 0.95333 -0.10739
 H288 H 0.29652 0.93354 -0.05033
 H289 H 0.29653 0.96796 -0.01593
 H290 H 0.23507 1.03194 -0.01413
 H291 H 0.23334 1.06645 -0.04806
 H292 H 0.29190 1.04948 -0.10686
 H293 H 0.29375 1.01508 -0.07254
 H294 H 0.23340 0.93426 0.04753
 C295 C 0.76714 0.50034 0.48132
 C296 C 0.76711 0.49975 0.51903
 C297 C 0.76807 0.51994 0.54144
 C298 C 0.76558 0.47894 0.53968
 C299 C 0.76817 0.48017 0.45890
 C300 C 0.76560 0.52115 0.46068
 C301 C 0.78470 0.53523 0.53606
 C302 C 0.78476 0.55466 0.55604
 C303 C 0.76834 0.55887 0.58184
 C304 C 0.75209 0.54342 0.58809
 C305 C 0.75200 0.52401 0.56811
 C306 C 0.78121 0.47378 0.56646
 C307 C 0.78009 0.45411 0.58565
 C308 C 0.76323 0.43948 0.57847
 C309 C 0.74736 0.44471 0.55230
 C310 C 0.74845 0.46439 0.53313
 C311 C 0.75218 0.47608 0.43220
 C312 C 0.75236 0.45670 0.41216
 C313 C 0.76862 0.44128 0.41838
 C314 C 0.78497 0.44549 0.44424
 C315 C 0.78483 0.46490 0.46427
 C316 C 0.74842 0.53567 0.46722
 C317 C 0.74733 0.55534 0.44805
 C318 C 0.76324 0.56061 0.42189
 C319 C 0.78015 0.54603 0.41472
 C320 C 0.78128 0.52635 0.43391
 H321 H 0.79745 0.53221 0.51608
 H322 H 0.79744 0.56648 0.55107
 H323 H 0.73932 0.54652 0.60802
 H324 H 0.73910 0.51239 0.57277
 H325 H 0.79444 0.48486 0.57209
 H326 H 0.79242 0.45025 0.60593
 H327 H 0.73598 0.46826 0.51313
 H328 H 0.73927 0.48768 0.42754
 H329 H 0.73964 0.45359 0.39220
 H330 H 0.79766 0.43369 0.44918
 H331 H 0.79752 0.46792 0.48427
 H332 H 0.73592 0.53176 0.48721
 H333 H 0.73410 0.56645 0.45367
 H334 H 0.79251 0.54991 0.39445
 H335 H 0.79455 0.51530 0.42829
 H336 H 0.73417 0.43357 0.54668
 O337 O 0.23159 0.26037 0.20372
 O338 O 0.28487 0.25386 0.24834
 O339 O 0.26162 0.23069 0.20315
 O340 O 0.25502 0.28373 0.24885
 O341 O 0.23929 0.26764 0.29652
 O342 O 0.24588 0.21458 0.25081
 O343 O 0.26912 0.23776 0.29600
 O344 O 0.21587 0.24428 0.25140
 Cu345 Cu 0.25983 0.25882 0.22121
 Cu346 Cu 0.24093 0.23947 0.27849
 C347 C 0.21476 0.25330 0.21994
 C348 C 0.28598 0.24470 0.27970
 C349 C 0.25487 0.21369 0.21926
 C350 C 0.24616 0.28462 0.28049
 O351 O 0.75421 0.78551 0.25042
 O352 O 0.76065 0.73244 0.29613
 O353 O 0.78409 0.75568 0.25076
 O354 O 0.73094 0.76244 0.29585
 O355 O 0.71506 0.74639 0.24836
 O356 O 0.76824 0.73963 0.20326
 O357 O 0.74479 0.71640 0.24863
 O358 O 0.73835 0.76944 0.20293
 Cu359 Cu 0.75910 0.76061 0.27809
 Cu360 Cu 0.74003 0.74132 0.22100
 C361 C 0.74519 0.78642 0.21896
 C362 C 0.75369 0.71547 0.28018
 C363 C 0.78513 0.74663 0.21931
 C364 C 0.71403 0.75557 0.27971
 O365 O 0.74665 0.28497 0.24804
 O366 O 0.74004 0.23173 0.20309
 O367 O 0.71666 0.25525 0.24813
 O368 O 0.76986 0.26161 0.20295
 O369 O 0.78567 0.24573 0.25067
 O370 O 0.73246 0.23938 0.29586
 O371 O 0.75584 0.21586 0.25082
 O372 O 0.76246 0.26908 0.29575
 Cu373 Cu 0.74168 0.25997 0.22074
 Cu374 Cu 0.76068 0.24088 0.27809
 C375 C 0.75568 0.28600 0.27948
 C376 C 0.74694 0.21482 0.21928
 C377 C 0.71559 0.24636 0.27971
 C378 C 0.78674 0.25475 0.21918
 O379 O 0.26081 0.76846 0.20396
 O380 O 0.25429 0.71521 0.24897
 O381 O 0.23115 0.73843 0.20375
 O382 O 0.28414 0.74507 0.24915
 O383 O 0.26810 0.76090 0.29678
 O384 O 0.21508 0.75426 0.25136
 O385 O 0.23824 0.73106 0.29659
 O386 O 0.24476 0.78428 0.25160
 Cu387 Cu 0.25925 0.74022 0.22165
 Cu388 Cu 0.23996 0.75925 0.27889
 C389 C 0.25376 0.78534 0.22009
 C390 C 0.24514 0.71415 0.28037
 C391 C 0.21417 0.74521 0.21989
 C392 C 0.28506 0.75399 0.28072
 O393 O 0.76798 0.26010 0.79653
 O394 O 0.71489 0.25353 0.75131
 O395 O 0.73805 0.23032 0.79658
 O396 O 0.74466 0.28348 0.75130
 O397 O 0.76060 0.26754 0.70369
 O398 O 0.75400 0.21436 0.74898
 O399 O 0.73085 0.23759 0.70372
 O400 O 0.78392 0.24415 0.74892
 Cu401 Cu 0.73981 0.25850 0.77873
 Cu402 Cu 0.75898 0.23933 0.72152
 C403 C 0.78489 0.25311 0.78045
 C404 C 0.71392 0.24444 0.71989
 C405 C 0.74490 0.21337 0.78043
 C406 C 0.75363 0.28447 0.71976
 O407 O 0.28471 0.74655 0.75203
 O408 O 0.23149 0.73987 0.79701
 O409 O 0.25499 0.71656 0.75183
 O410 O 0.26138 0.76969 0.79725
 O411 O 0.24556 0.78566 0.74963
 O412 O 0.23918 0.73251 0.70419
 O413 O 0.21568 0.75583 0.74937
 O414 O 0.26888 0.76252 0.70440
 Cu415 Cu 0.25971 0.74153 0.77933
 Cu416 Cu 0.24070 0.76071 0.72209
 C417 C 0.28577 0.75568 0.72063
 C418 C 0.21462 0.74684 0.78087
 C419 C 0.24612 0.71558 0.72025
 C420 C 0.25456 0.78664 0.78110
 O421 O 0.25400 0.28457 0.75179
 O422 O 0.26061 0.23127 0.79654
 O423 O 0.28394 0.25480 0.75143
 O424 O 0.23085 0.26120 0.79692
 O425 O 0.21491 0.24540 0.74925
 O426 O 0.26803 0.23900 0.70374
 O427 O 0.24469 0.21547 0.74885
 O428 O 0.23808 0.26875 0.70412
 Cu429 Cu 0.25899 0.25953 0.77898
 Cu430 Cu 0.23985 0.24053 0.72167
 C431 C 0.24490 0.28565 0.72041
 C432 C 0.25364 0.21439 0.78035
 C433 C 0.28494 0.24594 0.71981
 C434 C 0.21392 0.25439 0.78076
 O435 O 0.73203 0.76110 0.70354
 O436 O 0.78515 0.75454 0.74866
 O437 O 0.76190 0.73127 0.70366
 O438 O 0.75544 0.78454 0.74852
 O439 O 0.73951 0.76876 0.79630
 O440 O 0.74596 0.71546 0.75143
 O441 O 0.76920 0.73875 0.79642
 O442 O 0.71610 0.74531 0.75132
 Cu443 Cu 0.76021 0.75948 0.72127
 Cu444 Cu 0.74105 0.74050 0.77869
 C445 C 0.71511 0.75420 0.71973
 C446 C 0.78613 0.74552 0.78014
 C447 C 0.75504 0.71438 0.71998
 C448 C 0.74650 0.78563 0.78008
 C449 C 0.27262 0.13470 0.18370
 C450 C 0.25327 0.12056 0.17082
 C451 C 0.26471 0.11715 0.13350
 C452 C 0.28409 0.13095 0.14607
 C453 C 0.26136 0.15478 0.16740
 C454 C 0.27279 0.15137 0.13008
 C455 C 0.24199 0.14096 0.15482
 C456 C 0.25344 0.13723 0.11722
 C457 C 0.26622 0.09622 0.11443
 C458 C 0.26706 0.07905 0.09854
 C459 C 0.25925 0.17577 0.18612
 C460 C 0.25733 0.19306 0.20134
 H461 H 0.28048 0.13390 0.21126
 H462 H 0.24527 0.10766 0.18736
 H463 H 0.30142 0.12660 0.14225
 H464 H 0.28079 0.16427 0.11353
 H465 H 0.22465 0.14530 0.15861
 H466 H 0.24558 0.13805 0.08966
 C467 C 0.77300 0.63527 0.68570
 C468 C 0.75371 0.62098 0.67305
 C469 C 0.76514 0.61744 0.63576
 C470 C 0.78446 0.63140 0.64810
 C471 C 0.76163 0.65521 0.66913
 C472 C 0.77306 0.65168 0.63184
 C473 C 0.74232 0.64124 0.65678
 C474 C 0.75377 0.63739 0.61922
 C475 C 0.76676 0.59647 0.61691
 C476 C 0.76770 0.57928 0.60110
 C477 C 0.75946 0.67628 0.68750
 C478 C 0.75750 0.69366 0.70243
 H479 H 0.78088 0.63464 0.71326
 H480 H 0.74578 0.60811 0.68978
 H481 H 0.80181 0.62710 0.64431
 H482 H 0.78099 0.66454 0.61510
 H483 H 0.72497 0.64552 0.66054
 H484 H 0.74589 0.63803 0.59166
 C485 C 0.75560 0.85432 0.13965
 C486 C 0.73689 0.86094 0.11345
 C487 C 0.73551 0.88298 0.13323
 C488 C 0.75420 0.87667 0.15914
 C489 C 0.73882 0.84534 0.16712
 C490 C 0.73744 0.86738 0.18690
 C491 C 0.72013 0.85164 0.14121
 C492 C 0.71872 0.87402 0.16069
 C493 C 0.73401 0.90390 0.11416
 C494 C 0.73316 0.92108 0.09826
 C495 C 0.74090 0.82435 0.18582
 C496 C 0.74278 0.80705 0.20104
 H497 H 0.77079 0.84600 0.13120
 H498 H 0.73664 0.85853 0.08304
 H499 H 0.76819 0.88719 0.16631
 H500 H 0.73770 0.86978 0.21732
 H501 H 0.70615 0.84111 0.13404
 H502 H 0.70353 0.88235 0.16911
 C503 C 0.25663 0.35596 0.64814
 C504 C 0.24045 0.36121 0.61669
 C505 C 0.23471 0.38259 0.63628
 C506 C 0.25087 0.37765 0.66745
 C507 C 0.23823 0.34482 0.66963
 C508 C 0.23249 0.36619 0.68924
 C509 C 0.22207 0.34975 0.63846
 C510 C 0.21629 0.37147 0.65775
 C511 C 0.23310 0.40356 0.61743
 C512 C 0.23217 0.42075 0.60163
 C513 C 0.24042 0.32375 0.68799
 C514 C 0.24240 0.30637 0.70289
 H515 H 0.27324 0.34936 0.64439
 H516 H 0.24370 0.35939 0.58665
 H517 H 0.26269 0.38937 0.67916
 H518 H 0.22925 0.36800 0.71928
 H519 H 0.21025 0.33803 0.62674
 H520 H 0.19969 0.37809 0.66149
 C521 C 0.86788 0.25898 0.18731
 C522 C 0.87580 0.24411 0.15550
 C523 C 0.88355 0.26431 0.13434
 C524 C 0.87596 0.27922 0.16585
 C525 C 0.84582 0.26104 0.16791
 C526 C 0.85356 0.28125 0.14675
 C527 C 0.85344 0.24615 0.13639
 C528 C 0.86149 0.26637 0.11494
 C529 C 0.90451 0.26579 0.11541
 C530 C 0.92171 0.26661 0.09959
 C531 C 0.82478 0.25900 0.18642
 C532 C 0.80743 0.25713 0.20147
 H533 H 0.87026 0.25592 0.21728
 H534 H 0.88518 0.22886 0.15889
 H535 H 0.88545 0.29283 0.17774
 H536 H 0.84417 0.29650 0.14336
 H537 H 0.84395 0.23253 0.12448
 H538 H 0.85911 0.26943 0.08498
 C539 C 0.34843 0.77424 0.63268
 C540 C 0.36883 0.78525 0.64921
 C541 C 0.38256 0.76592 0.63605
 C542 C 0.36249 0.75494 0.61923
 C543 C 0.34484 0.76239 0.66957
 C544 C 0.35859 0.74307 0.65638
 C545 C 0.36490 0.77337 0.68641
 C546 C 0.37896 0.75407 0.67293
 C547 C 0.40350 0.76754 0.61713
 C548 C 0.42068 0.76847 0.60129
 C549 C 0.32381 0.76019 0.68802
 C550 C 0.30646 0.75820 0.70301
 H551 H 0.33564 0.78250 0.61634
 H552 H 0.37329 0.80262 0.64605
 H553 H 0.36173 0.74739 0.59140
 H554 H 0.35414 0.72570 0.65953
 H555 H 0.36565 0.78091 0.71425
 H556 H 0.39176 0.74580 0.68926
 C557 C 0.15240 0.73815 0.12623
 C558 C 0.13648 0.71885 0.13048
 C559 C 0.11771 0.73506 0.13470
 C560 C 0.13332 0.75433 0.13016
 C561 C 0.15531 0.73856 0.16840
 C562 C 0.13653 0.75477 0.17261
 C563 C 0.13972 0.71928 0.17297
 C564 C 0.12060 0.73547 0.17687
 C565 C 0.09682 0.73346 0.11571
 C566 C 0.07968 0.73255 0.09985
 C567 C 0.17628 0.74074 0.18699
 C568 C 0.19356 0.74271 0.20210
 H569 H 0.16571 0.73928 0.10561
 H570 H 0.13622 0.70406 0.11295
 H571 H 0.13046 0.76872 0.11234
 H572 H 0.13678 0.76956 0.19012
 H573 H 0.14259 0.70490 0.19079
 H574 H 0.10729 0.73435 0.19748
 C575 C 0.65206 0.23776 0.62635
 C576 C 0.63613 0.21845 0.63038
 C577 C 0.61737 0.23466 0.63484
 C578 C 0.63298 0.25394 0.63051
 C579 C 0.65499 0.23799 0.66852
 C580 C 0.63622 0.25419 0.67296
 C581 C 0.63939 0.21870 0.67287
 C582 C 0.62029 0.23489 0.67701
 C583 C 0.59647 0.23315 0.61584
 C584 C 0.57933 0.23229 0.59995
 C585 C 0.67598 0.24009 0.68708
 C586 C 0.69328 0.24200 0.70216
 H587 H 0.66535 0.23898 0.60572
 H588 H 0.63585 0.20374 0.61267
 H589 H 0.63012 0.26841 0.61288
 H590 H 0.63649 0.26891 0.69066
 H591 H 0.64227 0.20424 0.69051
 H592 H 0.60698 0.23368 0.69763
 C593 C 0.73766 0.15137 0.87400
 C594 C 0.71866 0.13515 0.86923
 C595 C 0.73518 0.11660 0.86547
 C596 C 0.75414 0.13250 0.87053
 C597 C 0.73847 0.15432 0.83184
 C598 C 0.75498 0.13576 0.82810
 C599 C 0.71950 0.13843 0.82675
 C600 C 0.73599 0.11954 0.82331
 C601 C 0.73369 0.09563 0.88441
 C602 C 0.73287 0.07842 0.90022
 C603 C 0.74055 0.17536 0.81328
 C604 C 0.74245 0.19270 0.79819
 H605 H 0.73838 0.16468 0.89464
 H606 H 0.70371 0.13465 0.88635
 H607 H 0.76837 0.12984 0.88874
 H608 H 0.76993 0.13624 0.81099
 H609 H 0.70528 0.14111 0.80853
 H610 H 0.73528 0.10622 0.80268
 C611 C 0.23760 0.65207 0.37355
 C612 C 0.21853 0.63595 0.36864
 C613 C 0.23496 0.61732 0.36492
 C614 C 0.25399 0.63313 0.37012
 C615 C 0.23850 0.65505 0.33141
 C616 C 0.25492 0.63642 0.32770
 C617 C 0.21946 0.63926 0.32618
 C618 C 0.23586 0.62029 0.32277
 C619 C 0.23333 0.59638 0.38385
 C620 C 0.23238 0.57920 0.39971
 C621 C 0.24069 0.67610 0.31296
 C622 C 0.24266 0.69345 0.29798
 H623 H 0.23835 0.66537 0.39423
 H624 H 0.20355 0.63551 0.38568
 H625 H 0.26817 0.63037 0.38841
 H626 H 0.26991 0.63684 0.31068
 H627 H 0.20529 0.64203 0.30789
 H628 H 0.23512 0.60698 0.30211
 C629 C 0.25329 0.86738 0.81616
 C630 C 0.24285 0.87312 0.85389
 C631 C 0.26439 0.88341 0.86608
 C632 C 0.27486 0.87799 0.82863
 C633 C 0.26099 0.84569 0.83250
 C634 C 0.28254 0.85596 0.84468
 C635 C 0.25052 0.85112 0.86995
 C636 C 0.27209 0.86172 0.88242
 C637 C 0.26594 0.90438 0.88498
 C638 C 0.26683 0.92159 0.90075
 C639 C 0.25888 0.82465 0.81397
 C640 C 0.25698 0.80731 0.79888
 H641 H 0.24553 0.86947 0.78872
 H642 H 0.22655 0.88041 0.85789
 H643 H 0.28489 0.88928 0.81186
 H644 H 0.29883 0.84866 0.84068
 H645 H 0.24049 0.83985 0.88674
 H646 H 0.27984 0.85963 0.90987
 C647 C 0.75454 0.36678 0.31426
 C648 C 0.74412 0.37251 0.35201
 C649 C 0.76566 0.38279 0.36417
 C650 C 0.77612 0.37739 0.32671
 C651 C 0.76225 0.34509 0.33058
 C652 C 0.78380 0.35535 0.34273
 C653 C 0.75179 0.35051 0.36804
 C654 C 0.77336 0.36110 0.38049
 C655 C 0.76721 0.40373 0.38314
 C656 C 0.76809 0.42089 0.39904
 C657 C 0.76011 0.32405 0.31210
 C658 C 0.75816 0.30670 0.29710
 H659 H 0.74677 0.36888 0.28683
 H660 H 0.72782 0.37981 0.35603
 H661 H 0.78614 0.38868 0.30994
 H662 H 0.80009 0.34804 0.33870
 H663 H 0.74176 0.33923 0.38483
 H664 H 0.78113 0.35900 0.40793
 C665 C 0.14817 0.24738 0.86620
 C666 C 0.13927 0.26830 0.88451
 C667 C 0.11725 0.26417 0.86599
 C668 C 0.12584 0.24327 0.84797
 C669 C 0.15493 0.26080 0.83229
 C670 C 0.13291 0.25667 0.81377
 C671 C 0.14636 0.28171 0.85031
 C672 C 0.12400 0.27761 0.83208
 C673 C 0.09631 0.26571 0.88497
 C674 C 0.07913 0.26659 0.90082
 C675 C 0.17595 0.25870 0.81370
 C676 C 0.19327 0.25680 0.79858
 H677 H 0.15833 0.23492 0.88003
 H678 H 0.14166 0.27310 0.91380
 H679 H 0.11716 0.22749 0.84721
 H680 H 0.13053 0.25186 0.78448
 H681 H 0.15504 0.29749 0.85106
 H682 H 0.11382 0.29006 0.81828
 C683 C 0.63592 0.77592 0.31659
 C684 C 0.62044 0.75678 0.32542
 C685 C 0.61736 0.76587 0.36463
 C686 C 0.63250 0.78503 0.35613
 C687 C 0.65502 0.76232 0.33097
 C688 C 0.65194 0.77140 0.37019
 C689 C 0.63986 0.74317 0.33950
 C690 C 0.63647 0.75227 0.37898
 C691 C 0.59643 0.76749 0.38363
 C692 C 0.57928 0.76842 0.39953
 C693 C 0.67604 0.76011 0.31243
 C694 C 0.69337 0.75811 0.29739
 H695 H 0.63595 0.78561 0.29072
 H696 H 0.60725 0.75080 0.30722
 H697 H 0.62923 0.80227 0.36318
 H698 H 0.66513 0.77739 0.38839
 H699 H 0.64312 0.72593 0.33246
 H700 H 0.63646 0.74258 0.40485
 C701 C 0.86043 0.71929 0.82726
 C702 C 0.87975 0.73513 0.82242
 C703 C 0.88282 0.73531 0.86457
 C704 C 0.86384 0.71943 0.86972
 C705 C 0.84513 0.73885 0.83118
 C706 C 0.84822 0.73902 0.87332
 C707 C 0.86413 0.75471 0.82604
 C708 C 0.86752 0.75486 0.86845
 C709 C 0.90377 0.73367 0.88339
 C710 C 0.92094 0.73272 0.89914
 C711 C 0.82411 0.74105 0.81276
 C712 C 0.80679 0.74302 0.79779
 H713 H 0.85727 0.70468 0.81011
 H714 H 0.89296 0.73350 0.80171
 H715 H 0.86397 0.70491 0.88788
 H716 H 0.83502 0.74066 0.89404
 H717 H 0.86401 0.76925 0.80789
 H718 H 0.87066 0.76947 0.88560
 C719 C 0.35291 0.25344 0.36144
 C720 C 0.36070 0.23338 0.38356
 C721 C 0.38277 0.23489 0.36395
 C722 C 0.37528 0.25493 0.34211
 C723 C 0.34507 0.23826 0.33052
 C724 C 0.36714 0.23977 0.31090
 C725 C 0.35254 0.21822 0.35235
 C726 C 0.37495 0.21970 0.33303
 C727 C 0.40370 0.23335 0.38283
 C728 C 0.42086 0.23247 0.39865
 C729 C 0.32403 0.24036 0.31212
 C730 C 0.30668 0.24227 0.29721
 H731 H 0.34362 0.26734 0.37292
 H732 H 0.35828 0.23073 0.41364
 H733 H 0.38487 0.27000 0.33811
 H734 H 0.36955 0.24243 0.28081
 H735 H 0.34295 0.20315 0.35636
 H736 H 0.38426 0.20581 0.32158
 C737 C 0.73208 0.86537 0.81545
 C738 C 0.72017 0.86961 0.85252
 C739 C 0.74003 0.88231 0.86625
 C740 C 0.75192 0.87841 0.82949
 C741 C 0.74195 0.84466 0.83209
 C742 C 0.76180 0.85737 0.84583
 C743 C 0.73006 0.84857 0.86885
 C744 C 0.74989 0.86159 0.88288
 C745 C 0.73907 0.90321 0.88550
 C746 C 0.73834 0.92033 0.90156
 C747 C 0.74323 0.82364 0.81327
 C748 C 0.74456 0.80631 0.79800
 H749 H 0.72477 0.86668 0.78751
 H750 H 0.70304 0.87488 0.85549
 H751 H 0.76091 0.89091 0.81353
 H752 H 0.77893 0.85211 0.84288
 H753 H 0.72107 0.83606 0.88483
 H754 H 0.75721 0.86027 0.91081
 C755 C 0.23174 0.36423 0.31662
 C756 C 0.21966 0.36840 0.35356
 C757 C 0.23948 0.38103 0.36767
 C758 C 0.25154 0.37719 0.33104
 C759 C 0.24148 0.34346 0.33323
 C760 C 0.26129 0.35610 0.34735
 C761 C 0.22943 0.34729 0.36987
 C762 C 0.24922 0.36025 0.38426
 C763 C 0.23847 0.40192 0.38699
 C764 C 0.23768 0.41905 0.40304
 C765 C 0.24281 0.32249 0.31420
 C766 C 0.24417 0.30522 0.29871
 H767 H 0.22456 0.36564 0.28860
 H768 H 0.20253 0.37370 0.35633
 H769 H 0.26062 0.38971 0.31528
 H770 H 0.27843 0.35081 0.34459
 H771 H 0.22034 0.33477 0.38562
 H772 H 0.25640 0.35884 0.41229
 C773 C 0.25890 0.15260 0.87454
 C774 C 0.24174 0.13432 0.87142
 C775 C 0.26012 0.11772 0.86653
 C776 C 0.27729 0.13568 0.86994
 C777 C 0.25823 0.15536 0.83234
 C778 C 0.27661 0.13876 0.82743
 C779 C 0.24106 0.13740 0.82894
 C780 C 0.25945 0.12047 0.82433
 C781 C 0.26105 0.09682 0.88579
 C782 C 0.26177 0.07970 0.90187
 C783 C 0.25695 0.17637 0.81351
 C784 C 0.25561 0.19371 0.79824
 H785 H 0.25866 0.16604 0.89498
 H786 H 0.22742 0.13227 0.88972
 H787 H 0.29220 0.13473 0.88702
 H788 H 0.29093 0.14083 0.80913
 H789 H 0.22614 0.13834 0.81186
 H790 H 0.25968 0.10702 0.80390
 C791 C 0.75916 0.65394 0.37507
 C792 C 0.74203 0.63563 0.37221
 C793 C 0.76041 0.61904 0.36724
 C794 C 0.77757 0.63703 0.37040
 C795 C 0.75836 0.65663 0.33286
 C796 C 0.77675 0.64004 0.32788
 C797 C 0.74120 0.63863 0.32972
 C798 C 0.75960 0.62172 0.32503
 C799 C 0.76146 0.59815 0.38654
 C800 C 0.76227 0.58101 0.40256
 C801 C 0.75701 0.67760 0.31386
 C802 C 0.75565 0.69488 0.29839
 H803 H 0.75897 0.66742 0.39545
 H804 H 0.72776 0.63359 0.39065
 H805 H 0.79254 0.63614 0.38735
 H806 H 0.79101 0.64209 0.30944
 H807 H 0.72623 0.63951 0.31278
 H808 H 0.75979 0.60824 0.30467
 C809 C 0.13492 0.75355 0.81982
 C810 C 0.12195 0.73242 0.82712
 C811 C 0.11799 0.73995 0.86707
 C812 C 0.13063 0.76104 0.86006
 C813 C 0.15563 0.74202 0.83293
 C814 C 0.15166 0.74954 0.87287
 C815 C 0.14300 0.72092 0.83993
 C816 C 0.13870 0.72842 0.88017
 C817 C 0.09709 0.73890 0.88627
 C818 C 0.07995 0.73810 0.90229
 C819 C 0.17664 0.74340 0.81410
 C820 C 0.19396 0.74480 0.79882
 H821 H 0.13360 0.76389 0.79479
 H822 H 0.10950 0.72538 0.80853
 H823 H 0.12532 0.77753 0.86855
 H824 H 0.16410 0.75659 0.89149
 H825 H 0.14832 0.70444 0.83144
 H826 H 0.14002 0.71809 0.90521
 C827 C 0.63594 0.25343 0.31888
 C828 C 0.62289 0.23235 0.32615
 C829 C 0.61897 0.23986 0.36612
 C830 C 0.63169 0.26092 0.35913
 C831 C 0.65661 0.24182 0.33194
 C832 C 0.65268 0.24933 0.37190
 C833 C 0.64390 0.22076 0.33891
 C834 C 0.63965 0.22825 0.37918
 C835 C 0.59806 0.23886 0.38534
 C836 C 0.58091 0.23809 0.40133
 C837 C 0.67762 0.24312 0.31307
 C838 C 0.69494 0.24444 0.29773
 H839 H 0.63465 0.26379 0.29387
 H840 H 0.61041 0.22536 0.30756
 H841 H 0.62645 0.27742 0.36766
 H842 H 0.66516 0.25632 0.39052
 H843 H 0.64915 0.20426 0.33039
 H844 H 0.64094 0.21790 0.40419
 C845 C 0.86119 0.23995 0.83110
 C846 C 0.87860 0.25774 0.82513
 C847 C 0.88121 0.25959 0.86725
 C848 C 0.86412 0.24182 0.87350
 C849 C 0.84370 0.25769 0.83288
 C850 C 0.84632 0.25954 0.87500
 C851 C 0.86078 0.27547 0.82661
 C852 C 0.86373 0.27734 0.86904
 C853 C 0.90205 0.26055 0.88659
 C854 C 0.91913 0.26128 0.90269
 C855 C 0.82276 0.25640 0.81391
 C856 C 0.80549 0.25507 0.79852
 H857 H 0.85991 0.22455 0.81528
 H858 H 0.89211 0.25701 0.80485
 H859 H 0.86572 0.22799 0.89299
 H860 H 0.83281 0.26027 0.89530
 H861 H 0.85917 0.28930 0.80712
 H862 H 0.86501 0.29273 0.88487
 C863 C 0.34943 0.77551 0.36323
 C864 C 0.35950 0.75707 0.38673
 C865 C 0.38137 0.76093 0.36743
 C866 C 0.37164 0.77940 0.34421
 C867 C 0.34384 0.75882 0.33315
 C868 C 0.36571 0.76269 0.31383
 C869 C 0.35358 0.74036 0.35637
 C870 C 0.37577 0.74424 0.33735
 C871 C 0.40222 0.76201 0.38668
 C872 C 0.41933 0.76284 0.40270
 C873 C 0.32289 0.75743 0.31422
 C874 C 0.30563 0.75602 0.29883
 H875 H 0.33837 0.78835 0.37365
 H876 H 0.35717 0.75476 0.41692
 H877 H 0.37930 0.79547 0.33943
 H878 H 0.36803 0.76499 0.28364
 H879 H 0.34593 0.72429 0.36117
 H880 H 0.38683 0.73140 0.32693
 C881 C 0.27658 0.85114 0.14145
 C882 C 0.25933 0.85983 0.11409
 C883 C 0.26015 0.88195 0.13366
 C884 C 0.27742 0.87359 0.16073
 C885 C 0.25829 0.84433 0.16791
 C886 C 0.25911 0.86645 0.18750
 C887 C 0.24103 0.85270 0.14084
 C888 C 0.24187 0.87514 0.16012
 C889 C 0.26108 0.90284 0.11437
 C890 C 0.26179 0.91996 0.09829
 C891 C 0.25703 0.82332 0.18679
 C892 C 0.25571 0.80600 0.20211
 H893 H 0.29084 0.84104 0.13399
 H894 H 0.25943 0.85734 0.08369
 H895 H 0.29239 0.88243 0.16869
 H896 H 0.25902 0.86893 0.21790
 H897 H 0.22606 0.84388 0.13286
 H898 H 0.22761 0.88523 0.16758
 C899 C 0.77858 0.35203 0.64727
 C900 C 0.76407 0.35892 0.61437
 C901 C 0.76042 0.38102 0.63306
 C902 C 0.77496 0.37446 0.66567
 C903 C 0.75837 0.34341 0.66736
 C904 C 0.75472 0.36551 0.68606
 C905 C 0.74384 0.34998 0.63474
 C906 C 0.74021 0.37240 0.65315
 C907 C 0.76147 0.40193 0.61380
 C908 C 0.76228 0.41907 0.59779
 C909 C 0.75701 0.32242 0.68629
 C910 C 0.75563 0.30511 0.70168
 H911 H 0.79435 0.34342 0.64507
 H912 H 0.76792 0.35644 0.58467
 H913 H 0.78776 0.38477 0.67818
 H914 H 0.75087 0.36799 0.71575
 H915 H 0.73103 0.33969 0.62222
 H916 H 0.72444 0.38100 0.65535
 C917 C 0.75144 0.13449 0.18263
 C918 C 0.73024 0.12279 0.17115
 C919 C 0.74026 0.11819 0.13302
 C920 C 0.76143 0.12956 0.14421
 C921 C 0.74225 0.15582 0.16721
 C922 C 0.75226 0.15121 0.12908
 C923 C 0.72107 0.14447 0.15603
 C924 C 0.73107 0.13953 0.11761
 C925 C 0.73927 0.09729 0.11378
 C926 C 0.73851 0.08017 0.09772
 C927 C 0.74357 0.17683 0.18605
 C928 C 0.74494 0.19416 0.20134
 H929 H 0.75983 0.13265 0.20958
 H930 H 0.72118 0.11086 0.18823
 H931 H 0.77802 0.12320 0.13914
 H932 H 0.76132 0.16313 0.11199
 H933 H 0.70449 0.15083 0.16110
 H934 H 0.72269 0.14137 0.09065
 C935 C 0.25094 0.63534 0.68300
 C936 C 0.22974 0.62355 0.67183
 C937 C 0.23957 0.61903 0.63353
 C938 C 0.26075 0.63050 0.64441
 C939 C 0.24156 0.65665 0.66780
 C940 C 0.25139 0.65212 0.62950
 C941 C 0.22038 0.64519 0.65692
 C942 C 0.23019 0.64034 0.61832
 C943 C 0.23856 0.59812 0.61428
 C944 C 0.23777 0.58097 0.59829
 C945 C 0.24287 0.67764 0.68674
 C946 C 0.24420 0.69495 0.70214
 H947 H 0.25949 0.63351 0.70982
 H948 H 0.22084 0.61156 0.68902
 H949 H 0.27734 0.62423 0.63906
 H950 H 0.26030 0.66410 0.61229
 H951 H 0.20379 0.65146 0.66227
 H952 H 0.22165 0.64217 0.59151
 C953 C 0.86586 0.73769 0.18639
 C954 C 0.87179 0.72117 0.15568
 C955 C 0.88168 0.73976 0.13288
 C956 C 0.87608 0.75626 0.16328
 C957 C 0.84406 0.74181 0.16710
 C958 C 0.85396 0.76038 0.14429
 C959 C 0.84966 0.72531 0.13669
 C960 C 0.85988 0.74387 0.11360
 C961 C 0.90257 0.73873 0.11363
 C962 C 0.91970 0.73795 0.09759
 C963 C 0.82307 0.74318 0.18597
 C964 C 0.80576 0.74458 0.20130
 H965 H 0.86808 0.73516 0.21654
 H966 H 0.87937 0.70504 0.16015
 H967 H 0.88717 0.76897 0.17400
 H968 H 0.84640 0.77653 0.13980
 H969 H 0.83857 0.71259 0.12597
 H970 H 0.85765 0.74641 0.08345
 C971 C 0.34846 0.25177 0.62935
 C972 C 0.37015 0.26068 0.64464
 C973 C 0.38137 0.23952 0.63279
 C974 C 0.35999 0.23059 0.61721
 C975 C 0.34380 0.24143 0.66721
 C976 C 0.35502 0.22027 0.65537
 C977 C 0.36519 0.25037 0.68279
 C978 C 0.37673 0.22918 0.67064
 C979 C 0.40225 0.23856 0.61345
 C980 C 0.41937 0.23781 0.59737
 C981 C 0.32283 0.24271 0.68621
 C982 C 0.30555 0.24402 0.70166
 H983 H 0.33660 0.26107 0.61257
 H984 H 0.37660 0.27729 0.64002
 H985 H 0.35808 0.22245 0.59002
 H986 H 0.34856 0.20366 0.65999
 H987 H 0.36709 0.25851 0.70997
 H988 H 0.38860 0.21989 0.68741
 C989 C 0.15292 0.25903 0.12607
 C990 C 0.13490 0.24158 0.12865
 C991 C 0.11807 0.25968 0.13429
 C992 C 0.13578 0.27715 0.13143
 C993 C 0.15573 0.25782 0.16822
 C994 C 0.13891 0.27593 0.17389
 C995 C 0.13802 0.24035 0.17108
 C996 C 0.12087 0.25847 0.17645
 C997 C 0.09716 0.26060 0.11519
 C998 C 0.08003 0.26131 0.09925
 C999 C 0.17675 0.25656 0.18693
 C1000 C 0.19409 0.25525 0.20211
 H1001 H 0.16633 0.25925 0.10556
 H1002 H 0.13302 0.22746 0.10984
 H1003 H 0.13462 0.29229 0.11491
 H1004 H 0.14080 0.29004 0.19270
 H1005 H 0.13917 0.22520 0.18759
 H1006 H 0.10745 0.25824 0.19695
 C1007 C 0.65353 0.76024 0.62541
 C1008 C 0.63543 0.74287 0.62778
 C1009 C 0.61867 0.76103 0.63341
 C1010 C 0.63646 0.77843 0.63075
 C1011 C 0.65624 0.75895 0.66757
 C1012 C 0.63949 0.77712 0.67322
 C1013 C 0.63845 0.74155 0.67023
 C1014 C 0.62137 0.75974 0.67558
 C1015 C 0.59780 0.76209 0.61421
 C1016 C 0.58068 0.76290 0.59822
 C1017 C 0.67721 0.75758 0.68642
 C1018 C 0.69450 0.75620 0.70174
 H1019 H 0.66699 0.76044 0.60498
 H1020 H 0.63353 0.72879 0.60889
 H1021 H 0.63541 0.79361 0.61429
 H1022 H 0.64140 0.79120 0.69211
 H1023 H 0.63949 0.72637 0.68667
 H1024 H 0.60791 0.75954 0.69599
   
