data_POSCAR
  _audit_creation_date              2014-09-24
  _audit_creation_method            'ToBaCCo'
  _symmetry_space_group_name_H-M    'P1'
  _symmetry_Int_Tables_number       1
  _symmetry_cell_setting            triclinic
  loop_
  _symmetry_equiv_pos_as_xyz
 x,y,z
_cell_length_a 60.1819
_cell_length_b 61.9320
_cell_length_c 57.8430
_cell_angle_alpha 91.805600
_cell_angle_beta 89.966300
_cell_angle_gamma 92.991400
loop_
  _atom_site_label
  _atom_site_type_symbol
  _atom_site_fract_x
  _atom_site_fract_y
  _atom_site_fract_z
C1 C 0.21619 0.51980 1.03022
 H2 H 0.21612 0.53260 1.01792
 C3 C 0.20093 0.51937 1.04841
 H4 H 0.18912 0.53195 1.05019
 C5 C 0.23117 0.48736 1.04247
 H6 H 0.24261 0.47466 1.03980
 C7 C 0.21618 0.48631 1.06090
 H8 H 0.21633 0.47290 1.07248
 N9 N 0.23096 0.50400 1.02765
 C10 C 0.28459 0.53218 0.98560
 H11 H 0.28496 0.52008 0.97172
 C12 C 0.29972 0.55006 0.98576
 H13 H 0.31178 0.55180 0.97195
 C14 C 0.26867 0.54456 1.02080
 H15 H 0.25678 0.54220 1.03460
 C16 C 0.28352 0.56269 1.02163
 H17 H 0.28291 0.57432 1.03598
 Zn18 Zn 0.24974 0.50492 1.00140
 N19 N 0.26932 0.52987 1.00283
 C20 C 0.23242 0.52195 0.96037
 N21 N 0.23092 0.50534 0.97525
 C22 C 0.21485 0.48914 0.97276
 C23 C 0.19958 0.48912 0.95460
 C24 C 0.21746 0.52256 0.94197
 C25 C 0.28249 0.47847 1.01703
 C26 C 0.29610 0.46087 1.01682
 C27 C 0.27870 0.44790 0.98102
 C28 C 0.26540 0.46574 0.98189
 N29 N 0.26734 0.48045 0.99987
 H30 H 0.24490 0.53497 0.96296
 H31 H 0.21378 0.47635 0.98509
 H32 H 0.18674 0.47625 0.95284
 H33 H 0.21862 0.53593 0.93031
 H34 H 0.28392 0.49057 1.03092
 H35 H 0.30804 0.45936 1.03061
 H36 H 0.27703 0.43623 0.96669
 H37 H 0.25365 0.46784 0.96814
 C38 C 0.29914 0.56547 1.00392
 C39 C 0.20087 0.50242 1.06385
 C40 C 0.29413 0.44543 0.99868
 C41 C 0.20087 0.50603 0.93912
 C42 C 0.78598 0.51227 -0.02710
 H43 H 0.78697 0.52448 -0.01329
 C44 C 0.80110 0.51331 -0.04537
 H45 H 0.81375 0.52640 -0.04571
 C46 C 0.76860 0.48001 -0.04329
 H47 H 0.75617 0.46686 -0.04220
 C48 C 0.78344 0.48044 -0.06190
 H49 H 0.78227 0.46773 -0.07521
 N50 N 0.77003 0.49590 -0.02647
 C51 C 0.71847 0.52188 0.01786
 H52 H 0.71716 0.50974 0.03091
 C53 C 0.70470 0.53937 0.01891
 H54 H 0.69277 0.54077 0.03283
 C55 C 0.73528 0.53472 -0.01654
 H56 H 0.74691 0.53268 -0.03055
 C57 C 0.72183 0.55243 -0.01614
 H58 H 0.72331 0.56407 -0.02973
 Zn59 Zn 0.75118 0.49553 -0.00029
 N60 N 0.73353 0.51999 0.00044
 C61 C 0.76974 0.51171 0.04267
 N62 N 0.76997 0.49576 0.02593
 C63 C 0.78471 0.47987 0.02665
 C64 C 0.79980 0.47939 0.04490
 C65 C 0.78459 0.51184 0.06126
 C66 C 0.71647 0.46822 -0.01849
 C67 C 0.70125 0.45039 -0.01953
 C68 C 0.71734 0.43772 0.01551
 C69 C 0.73225 0.45579 0.01589
 N70 N 0.73168 0.47050 -0.00107
 H71 H 0.75830 0.52450 0.04151
 H72 H 0.78478 0.46762 0.01290
 H73 H 0.81150 0.46669 0.04531
 H74 H 0.78440 0.52461 0.07448
 H75 H 0.71613 0.48035 -0.03153
 H76 H 0.68917 0.44872 -0.03342
 H77 H 0.71784 0.42614 0.02912
 H78 H 0.74406 0.45813 0.02991
 C79 C 0.70644 0.55479 0.00176
 C80 C 0.79982 0.49725 -0.06291
 C81 C 0.70171 0.43501 -0.00236
 C82 C 0.79975 0.49554 0.06234
 C83 C -0.02482 0.27415 0.49280
 H84 H -0.03763 0.27510 0.50587
 C85 C -0.02471 0.28789 0.47414
 H86 H -0.03754 0.29944 0.47278
 C87 C 0.00787 0.25829 0.47893
 H88 H 0.02078 0.24705 0.48109
 C89 C 0.00861 0.27175 0.45998
 H90 H 0.02199 0.27065 0.44752
 N91 N -0.00879 0.25960 0.49477
 C92 C -0.03856 0.20989 0.53865
 H93 H -0.02633 0.20995 0.55235
 C94 C -0.05703 0.19526 0.53884
 H95 H -0.05910 0.18402 0.55274
 C96 C -0.05054 0.22400 0.50336
 H97 H -0.04773 0.23487 0.48931
 C98 C -0.06922 0.20964 0.50289
 H99 H -0.08082 0.20964 0.48858
 Zn100 Zn -0.00969 0.24248 0.52131
 N101 N -0.03573 0.22396 0.52115
 C102 C -0.02580 0.26152 0.56326
 N103 N -0.00921 0.26187 0.54724
 C104 C 0.00786 0.27715 0.54836
 C105 C 0.00884 0.29281 0.56625
 C106 C -0.02546 0.27694 0.58146
 C107 C 0.01666 0.20951 0.50466
 C108 C 0.03466 0.19617 0.50398
 C109 C 0.04883 0.21428 0.53897
 C110 C 0.03057 0.22730 0.53901
 N111 N 0.01511 0.22491 0.52181
 H112 H -0.03950 0.24958 0.56176
 H113 H 0.02060 0.27728 0.53515
 H114 H 0.02241 0.30503 0.56689
 H115 H -0.03881 0.27674 0.59403
 H116 H 0.00395 0.20775 0.49142
 H117 H 0.03589 0.18409 0.49014
 H118 H 0.06116 0.21637 0.55261
 H119 H 0.02879 0.23925 0.55279
 C120 C -0.07247 0.19514 0.52076
 C121 C -0.00783 0.28669 0.45758
 C122 C 0.05094 0.19866 0.52122
 C123 C -0.00800 0.29274 0.58290
 C124 C 0.99286 0.72401 0.50465
 H125 H 0.98024 0.72229 0.49131
 C126 C 0.99218 0.71003 0.52312
 H127 H 0.97898 0.69751 0.52409
 C128 C 1.02575 0.74215 0.51951
 H129 H 1.03901 0.75443 0.51784
 C130 C 1.02570 0.72849 0.53828
 H131 H 1.03880 0.73041 0.55113
 N132 N 1.00934 0.73982 0.50329
 C133 C 0.98107 0.78823 0.46044
 H134 H 0.99336 0.78945 0.44682
 C135 C 0.96278 0.80123 0.46037
 H136 H 0.96091 0.81249 0.44664
 C137 C 0.96868 0.77243 0.49531
 H138 H 0.97122 0.76151 0.50914
 C139 C 0.95018 0.78512 0.49590
 H140 H 0.93844 0.78379 0.51005
 Zn141 Zn 1.00913 0.75746 0.47719
 N142 N 0.98357 0.77404 0.47764
 C143 C 0.99226 0.73788 0.43506
 N144 N 1.00910 0.73861 0.45083
 C145 C 1.02573 0.72458 0.44926
 C146 C 1.02589 0.70903 0.43128
 C147 C 0.99178 0.72255 0.41679
 C148 C 1.03605 0.79214 0.49487
 C149 C 1.05425 0.80705 0.49610
 C150 C 1.06856 0.79079 0.46097
 C151 C 1.05007 0.77616 0.46040
 N152 N 1.03442 0.77693 0.47738
 H153 H 0.97889 0.74878 0.43693
 H154 H 1.03866 0.72524 0.46230
 H155 H 1.03902 0.69771 0.43037
 H156 H 0.97814 0.72180 0.40453
 H157 H 1.02319 0.79258 0.50794
 H158 H 1.05547 0.81903 0.51016
 H159 H 1.08100 0.79006 0.44746
 H160 H 1.04824 0.76429 0.44636
 C161 C 0.94720 0.79963 0.47827
 C162 C 1.00873 0.71232 0.54009
 C163 C 1.07068 0.80631 0.47904
 C164 C 1.00868 0.70793 0.41499
 C165 C 0.47334 -0.00775 0.27758
 H166 H 0.48552 -0.01998 0.27792
 C167 C 0.45588 -0.00808 0.29350
 H168 H 0.45452 -0.02066 0.30610
 C169 C 0.46058 0.02401 0.26122
 H170 H 0.46273 0.03674 0.24896
 C171 C 0.44287 0.02427 0.27685
 H172 H 0.43131 0.03709 0.27642
 N173 N 0.47532 0.00808 0.26179
 C174 C 0.51596 -0.01839 0.20631
 H175 H 0.52897 -0.00570 0.20553
 C176 C 0.51618 -0.03625 0.19099
 H177 H 0.52945 -0.03735 0.17840
 C178 C 0.48262 -0.03230 0.22349
 H179 H 0.46942 -0.03056 0.23595
 C180 C 0.48219 -0.05045 0.20848
 H181 H 0.46874 -0.06271 0.20961
 Zn182 Zn 0.50045 0.00816 0.24208
 N183 N 0.49949 -0.01685 0.22231
 C184 C 0.54035 -0.00734 0.26024
 N185 N 0.52586 0.00883 0.26144
 C186 C 0.52824 0.02517 0.27769
 C187 C 0.54583 0.02576 0.29348
 C188 C 0.55816 -0.00736 0.27571
 C189 C 0.48449 0.03342 0.20723
 C190 C 0.48425 0.05058 0.19215
 C191 C 0.51854 0.06532 0.20943
 C192 C 0.51815 0.04787 0.22422
 N193 N 0.50116 0.03247 0.22298
 H194 H 0.53788 -0.02049 0.24765
 H195 H 0.51624 0.03758 0.27854
 H196 H 0.54748 0.03871 0.30649
 H197 H 0.56948 -0.02041 0.27480
 H198 H 0.47139 0.02078 0.20638
 H199 H 0.47089 0.05122 0.17968
 H200 H 0.53211 0.07752 0.21049
 H201 H 0.53150 0.04658 0.23647
 C202 C 0.49917 -0.05247 0.19212
 C203 C 0.44055 0.00811 0.29316
 C204 C 0.50143 0.06667 0.19328
 C205 C 0.56087 0.00929 0.29252
 C206 C 0.52535 -0.02489 0.72166
 H207 H 0.51230 -0.03759 0.72099
 C208 C 0.54287 -0.02529 0.70586
 H209 H 0.54341 -0.03838 0.69303
 C210 C 0.54030 0.00803 0.73876
 H211 H 0.53899 0.02121 0.75128
 C212 C 0.55813 0.00826 0.72324
 H213 H 0.57063 0.02150 0.72401
 N214 N 0.52443 -0.00847 0.73776
 C215 C 0.48169 -0.03506 0.79209
 H216 H 0.46900 -0.02331 0.79288
 C217 C 0.48091 -0.05218 0.80730
 H218 H 0.46754 -0.05369 0.81979
 C219 C 0.51495 -0.04719 0.77529
 H220 H 0.52843 -0.04498 0.76313
 C221 C 0.51480 -0.06453 0.79017
 H222 H 0.52804 -0.07572 0.78926
 Zn223 Zn 0.49910 -0.00870 0.75721
 N224 N 0.49846 -0.03297 0.77639
 C225 C 0.45777 -0.02583 0.73814
 N226 N 0.47397 -0.00966 0.73747
 C227 C 0.47341 0.00609 0.72165
 C228 C 0.45588 0.00622 0.70589
 C229 C 0.43990 -0.02630 0.72265
 C230 C 0.51622 0.01935 0.79267
 C231 C 0.51697 0.03732 0.80793
 C232 C 0.48320 0.04879 0.79058
 C233 C 0.48308 0.03062 0.77564
 N234 N 0.49956 0.01644 0.77679
 H235 H 0.45877 -0.03848 0.75048
 H236 H 0.48670 0.01854 0.72126
 H237 H 0.45558 0.01886 0.69337
 H238 H 0.42706 -0.03920 0.72323
 H239 H 0.52890 0.00764 0.79347
 H240 H 0.53029 0.03953 0.82050
 H241 H 0.47000 0.05997 0.78957
 H242 H 0.46967 0.02778 0.76335
 C243 C 0.49764 -0.06703 0.80633
 C244 C 0.55938 -0.00854 0.70662
 C245 C 0.50030 0.05217 0.80685
 C246 C 0.43897 -0.01011 0.70640
 C247 C 0.23437 0.03840 0.50421
 C248 C 0.24947 0.03550 0.52511
 C249 C 0.26230 0.01804 0.52272
 C250 C 0.25892 0.00507 0.49978
 C251 C 0.25008 0.03943 0.48334
 C252 C 0.26291 0.02195 0.48109
 C253 C 0.22092 0.01683 0.50105
 C254 C 0.23377 -0.00056 0.49874
 H255 H 0.25024 0.04642 0.54020
 H256 H 0.26936 -0.00917 0.49789
 H257 H 0.25113 0.05279 0.47160
 H258 H 0.20284 0.01542 0.50068
 C259 C 0.76527 -0.03842 0.49558
 C260 C 0.74968 -0.03919 0.51656
 C261 C 0.73691 -0.02166 0.51867
 C262 C 0.74082 -0.00500 0.49975
 C263 C 0.75005 -0.03572 0.47473
 C264 C 0.73727 -0.01822 0.47699
 C265 C 0.77879 -0.01685 0.49840
 C266 C 0.76599 0.00059 0.50059
 H267 H 0.74870 -0.05240 0.52849
 H268 H 0.73042 0.00928 0.50152
 H269 H 0.74916 -0.04681 0.45979
 H270 H 0.79686 -0.01550 0.49880
 C271 C 0.46429 0.27163 0.99836
 C272 C 0.46540 0.25561 0.97764
 C273 C 0.48380 0.24363 0.97783
 C274 C 0.49941 0.24873 0.99854
 C275 C 0.46588 0.25775 1.01975
 C276 C 0.48428 0.24576 1.01976
 C277 C 0.48624 0.28523 0.99781
 C278 C 0.50457 0.27326 0.99790
 H279 H 0.45241 0.25331 0.96463
 H280 H 0.51443 0.23902 0.99863
 H281 H 0.45315 0.25671 1.03305
 H282 H 0.48722 0.30279 0.99734
 C283 C 0.53613 0.72869 0.00220
 C284 C 0.53484 0.74273 -0.01911
 C285 C 0.51652 0.75482 -0.01922
 C286 C 0.50116 0.75179 0.00181
 C287 C 0.53490 0.74457 0.02301
 C288 C 0.51658 0.75666 0.02271
 C289 C 0.51409 0.71519 0.00242
 C290 C 0.49585 0.72727 0.00222
 H291 H 0.54767 0.74372 -0.03231
 H292 H 0.48620 0.76158 0.00165
 H293 H 0.54777 0.74672 0.03618
 H294 H 0.51301 0.69763 0.00273
 C295 C 0.99871 0.45837 0.27552
 C296 C 0.97843 0.45887 0.25955
 C297 C 0.97929 0.47609 0.24539
 C298 C 1.00023 0.49120 0.24840
 C299 C 1.01891 0.45901 0.25933
 C300 C 1.01963 0.47623 0.24517
 C301 C 0.99987 0.48034 0.28854
 C302 C 1.00066 0.49748 0.27429
 H303 H 0.96473 0.44672 0.25938
 H304 H 1.00087 0.50522 0.23683
 H305 H 1.03143 0.44698 0.25904
 H306 H 1.00007 0.48219 0.30729
 C307 C 0.00246 0.54085 0.72424
 C308 C -0.01796 0.54006 0.74014
 C309 C -0.01864 0.52292 0.75442
 C310 C 0.00100 0.50818 0.75159
 C311 C 0.02254 0.54069 0.74051
 C312 C 0.02170 0.52357 0.75480
 C313 C 0.00172 0.51881 0.71137
 C314 C 0.00095 0.50177 0.72573
 H315 H -0.03063 0.55192 0.74014
 H316 H 0.00040 0.49424 0.76326
 H317 H 0.03597 0.55313 0.74096
 H318 H 0.00151 0.51685 0.69263
 C319 C 0.06974 0.18523 0.52070
 C320 C 0.08545 0.17392 0.52016
 C321 C 0.10408 0.16028 0.51938
 C322 C 0.10367 0.14151 0.53224
 C323 C 0.12149 0.12793 0.53107
 C324 C 0.14000 0.13294 0.51696
 C325 C 0.14034 0.15195 0.50424
 C326 C 0.12249 0.16552 0.50546
 C327 C 0.15853 0.11806 0.51508
 C328 C 0.16825 0.11342 0.49347
 C329 C 0.18481 0.09846 0.49149
 C330 C 0.19193 0.08802 0.51105
 C331 C 0.18270 0.09285 0.53269
 C332 C 0.16612 0.10779 0.53472
 C333 C 0.20764 0.07136 0.50871
 C334 C 0.22012 0.05682 0.50670
 H335 H 0.08946 0.13725 0.54300
 H336 H 0.12057 0.11326 0.54079
 H337 H 0.15445 0.15637 0.49343
 H338 H 0.12299 0.18004 0.49545
 H339 H 0.16257 0.12084 0.47800
 H340 H 0.19172 0.09470 0.47462
 H341 H 0.18805 0.08481 0.54793
 H342 H 0.15917 0.11124 0.55162
 C343 C 0.69217 0.57274 0.00221
 C344 C 0.68013 0.58771 0.00235
 C345 C 0.66557 0.60542 0.00229
 C346 C 0.65105 0.60749 -0.01631
 C347 C 0.63658 0.62442 -0.01628
 C348 C 0.63641 0.63953 0.00240
 C349 C 0.65119 0.63741 0.02095
 C350 C 0.66567 0.62046 0.02087
 C351 C 0.62044 0.65705 0.00276
 C352 C 0.60924 0.66262 0.02328
 C353 C 0.59331 0.67826 0.02334
 C354 C 0.58840 0.68860 0.00293
 C355 C 0.59975 0.68350 -0.01747
 C356 C 0.61569 0.66785 -0.01758
 C357 C 0.57080 0.70346 0.00267
 C358 C 0.55549 0.71525 0.00244
 H359 H 0.65079 0.59590 -0.03075
 H360 H 0.62518 0.62540 -0.03064
 H361 H 0.65163 0.64892 0.03544
 H362 H 0.67688 0.61904 0.03533
 H363 H 0.61229 0.65441 0.03914
 H364 H 0.58449 0.68197 0.03919
 H365 H 0.59604 0.69136 -0.03338
 H366 H 0.62423 0.66413 -0.03357
 C367 C 0.92850 -0.18681 0.47895
 C368 C 0.91291 -0.17537 0.47990
 C369 C 0.89445 -0.16154 0.48147
 C370 C 0.87918 -0.16114 0.46327
 C371 C 0.86146 -0.14742 0.46475
 C372 C 0.85879 -0.13393 0.48450
 C373 C 0.87417 -0.13458 0.50275
 C374 C 0.89186 -0.14829 0.50122
 C375 C 0.84044 -0.11882 0.48588
 C376 C 0.82903 -0.11538 0.50681
 C377 C 0.81263 -0.10022 0.50844
 C378 C 0.80740 -0.08834 0.48918
 C379 C 0.81833 -0.09195 0.46816
 C380 C 0.83472 -0.10711 0.46649
 C381 C 0.79183 -0.07154 0.49134
 C382 C 0.77944 -0.05692 0.49323
 H383 H 0.88100 -0.17138 0.44792
 H384 H 0.84976 -0.14745 0.45053
 H385 H 0.87279 -0.12416 0.51801
 H386 H 0.90363 -0.14843 0.51538
 H387 H 0.83285 -0.12435 0.52195
 H388 H 0.80431 -0.09751 0.52481
 H389 H 0.81452 -0.08271 0.45320
 H390 H 0.84339 -0.10917 0.45023
 C391 C 0.30808 0.42723 0.99810
 C392 C 0.31991 0.41210 0.99769
 C393 C 0.33426 0.39422 0.99728
 C394 C 0.34957 0.39183 0.97928
 C395 C 0.36404 0.37489 0.97923
 C396 C 0.36340 0.36009 0.99722
 C397 C 0.34778 0.36249 1.01511
 C398 C 0.33331 0.37945 1.01512
 C399 C 0.37946 0.34268 0.99766
 C400 C 0.38971 0.33759 1.01852
 C401 C 0.40575 0.32206 1.01875
 C402 C 0.41171 0.31136 0.99818
 C403 C 0.40131 0.31599 0.97742
 C404 C 0.38527 0.33153 0.97714
 C405 C 0.42943 0.29663 0.99821
 C406 C 0.44483 0.28494 0.99826
 H407 H 0.35051 0.40322 0.96543
 H408 H 0.37608 0.37369 0.96540
 H409 H 0.34670 0.35123 1.02906
 H410 H 0.32150 0.38113 1.02912
 H411 H 0.38584 0.34609 1.03455
 H412 H 0.41383 0.31873 1.03489
 H413 H 0.40584 0.30784 0.96138
 H414 H 0.37747 0.33488 0.96087
 C415 C 0.90892 0.17958 0.52000
 C416 C 0.89357 0.16628 0.51899
 C417 C 0.87564 0.15000 0.51737
 C418 C 0.86282 0.14493 0.53685
 C419 C 0.84619 0.12829 0.53545
 C420 C 0.84221 0.11650 0.51453
 C421 C 0.85493 0.12202 0.49495
 C422 C 0.87152 0.13865 0.49639
 C423 C 0.82573 0.09779 0.51332
 C424 C 0.81235 0.09370 0.49354
 C425 C 0.79834 0.07500 0.49159
 C426 C 0.79744 0.06020 0.50940
 C427 C 0.81015 0.06445 0.52943
 C428 C 0.82418 0.08312 0.53141
 C429 C 0.78506 0.03980 0.50638
 C430 C 0.77575 0.02220 0.50376
 H431 H 0.86586 0.15364 0.55317
 H432 H 0.83653 0.12457 0.55075
 H433 H 0.85253 0.11305 0.47870
 H434 H 0.88142 0.14238 0.48124
 H435 H 0.81297 0.10482 0.47945
 H436 H 0.78863 0.07182 0.47597
 H437 H 0.80975 0.05300 0.54322
 H438 H 0.83447 0.08563 0.54671
 C439 C 0.31483 0.58382 0.00456
 C440 C 0.32825 0.59899 0.00500
 C441 C 0.34464 0.61677 0.00541
 C442 C 0.36019 0.61900 0.02341
 C443 C 0.37690 0.63554 0.02325
 C444 C 0.37831 0.65009 0.00503
 C445 C 0.36235 0.64795 -0.01278
 C446 C 0.34564 0.63138 -0.01258
 C447 C 0.39701 0.66668 0.00410
 C448 C 0.40799 0.67075 -0.01693
 C449 C 0.42680 0.68495 -0.01752
 C450 C 0.43485 0.69534 0.00285
 C451 C 0.42367 0.69191 0.02375
 C452 C 0.40485 0.67770 0.02438
 C453 C 0.45566 0.70788 0.00262
 C454 C 0.47367 0.71735 0.00243
 H455 H 0.35965 0.60772 0.03736
 H456 H 0.38912 0.63652 0.03702
 H457 H 0.36284 0.65902 -0.02691
 H458 H 0.33367 0.62981 -0.02660
 H459 H 0.40258 0.66230 -0.03278
 H460 H 0.43545 0.68731 -0.03375
 H461 H 0.42983 0.69978 0.03964
 H462 H 0.39661 0.67512 0.04078
 C463 C 0.08948 -0.17836 0.48002
 C464 C 0.10499 -0.16525 0.48112
 C465 C 0.12313 -0.14919 0.48275
 C466 C 0.12697 -0.13742 0.50353
 C467 C 0.14377 -0.12099 0.50492
 C468 C 0.15698 -0.11609 0.48550
 C469 C 0.15326 -0.12830 0.46480
 C470 C 0.13643 -0.14475 0.46345
 C471 C 0.17368 -0.09756 0.48660
 C472 C 0.17579 -0.08332 0.46815
 C473 C 0.18997 -0.06475 0.47000
 C474 C 0.20229 -0.06019 0.49023
 C475 C 0.20086 -0.07459 0.50839
 C476 C 0.18669 -0.09319 0.50659
 C477 C 0.21473 -0.03981 0.49310
 C478 C 0.22404 -0.02219 0.49562
 H479 H 0.11670 -0.14066 0.51854
 H480 H 0.14595 -0.11168 0.52099
 H481 H 0.16330 -0.12506 0.44963
 H482 H 0.13360 -0.15378 0.44728
 H483 H 0.16580 -0.08604 0.45267
 H484 H 0.19078 -0.05359 0.45593
 H485 H 0.21025 -0.07117 0.52418
 H486 H 0.18564 -0.10399 0.52095
 C487 C 0.68577 0.41685 0.99733
 C488 C 0.67219 0.40183 0.99728
 C489 C 0.65564 0.38420 0.99746
 C490 C 0.64160 0.38173 1.01658
 C491 C 0.62485 0.36523 1.01647
 C492 C 0.62189 0.35095 0.99718
 C493 C 0.63632 0.35335 0.97817
 C494 C 0.65308 0.36988 0.97832
 C495 C 0.60316 0.33432 0.99655
 C496 C 0.59047 0.33046 0.97627
 C497 C 0.57169 0.31619 0.97620
 C498 C 0.56536 0.30553 0.99633
 C499 C 0.57823 0.30876 1.01640
 C500 C 0.59704 0.32303 1.01652
 C501 C 0.54464 0.29287 0.99688
 C502 C 0.52669 0.28330 0.99735
 H503 H 0.64338 0.39278 1.03145
 H504 H 0.61382 0.36405 1.03122
 H505 H 0.63461 0.34248 0.96317
 H506 H 0.66388 0.37163 0.96343
 H507 H 0.59454 0.33910 0.96072
 H508 H 0.56172 0.31398 0.96063
 H509 H 0.57343 0.30067 1.03211
 H510 H 0.60662 0.32544 1.03231
 C511 C 0.50155 0.08434 1.17767
 C512 C 0.50145 0.09898 1.16442
 C513 C 0.50104 0.11627 1.14839
 C514 C 0.50037 0.13775 1.15653
 C515 C 0.49941 0.15447 1.14092
 C516 C 0.49912 0.14992 1.11692
 C517 C 0.49997 0.12828 1.10892
 C518 C 0.50091 0.11159 1.12456
 C519 C 0.49750 0.16758 1.10028
 C520 C 0.50977 0.16736 1.07955
 C521 C 0.50768 0.18362 1.06358
 C522 C 0.49333 0.20031 1.06809
 C523 C 0.48124 0.20081 1.08876
 C524 C 0.48331 0.18457 1.10476
 C525 C 0.49052 0.21657 1.05124
 C526 C 0.48785 0.22999 1.03699
 H527 H 0.50049 0.14156 1.17494
 H528 H 0.49904 0.17098 1.14761
 H529 H 0.49945 0.12420 1.09058
 H530 H 0.50133 0.09502 1.11806
 H531 H 0.52104 0.15466 1.07573
 H532 H 0.51713 0.18308 1.04764
 H533 H 0.47000 0.21360 1.09237
 H534 H 0.47342 0.18506 1.12040
 C535 C 0.00844 0.69786 0.55906
 C536 C 0.00803 0.68551 0.57476
 C537 C 0.00737 0.67048 0.59323
 C538 C -0.01183 0.65729 0.59680
 C539 C -0.01235 0.64221 0.61428
 C540 C 0.00638 0.64010 0.62842
 C541 C 0.02555 0.65357 0.62482
 C542 C 0.02602 0.66866 0.60733
 C543 C 0.00606 0.62356 0.64646
 C544 C 0.02469 0.61121 0.64985
 C545 C 0.02410 0.59506 0.66621
 C546 C 0.00492 0.59106 0.67941
 C547 C -0.01361 0.60342 0.67637
 C548 C -0.01306 0.61957 0.66001
 C549 C 0.00404 0.57382 0.69551
 C550 C 0.00331 0.55909 0.70866
 H551 H -0.02633 0.65850 0.58591
 H552 H -0.02724 0.63187 0.61640
 H553 H 0.04013 0.65251 0.63560
 H554 H 0.04096 0.67882 0.60472
 H555 H 0.03953 0.61368 0.63948
 H556 H 0.03849 0.58550 0.66835
 H557 H -0.02854 0.60045 0.68651
 H558 H -0.02756 0.62898 0.65800
 C559 C 0.49756 0.91553 -0.17778
 C560 C 0.49779 0.90100 -0.16440
 C561 C 0.49841 0.88374 -0.14834
 C562 C 0.49589 0.88810 -0.12463
 C563 C 0.49715 0.87149 -0.10893
 C564 C 0.50098 0.85025 -0.11676
 C565 C 0.50331 0.84601 -0.14067
 C566 C 0.50203 0.86265 -0.15633
 C567 C 0.50297 0.83273 -0.10002
 C568 C 0.51925 0.81739 -0.10309
 C569 C 0.52153 0.80125 -0.08701
 C570 C 0.50758 0.80019 -0.06768
 C571 C 0.49120 0.81525 -0.06456
 C572 C 0.48890 0.83142 -0.08061
 C573 C 0.51043 0.78399 -0.05077
 C574 C 0.51307 0.77059 -0.03649
 H575 H 0.49319 0.90439 -0.11824
 H576 H 0.49560 0.87535 -0.09064
 H577 H 0.50599 0.82980 -0.14726
 H578 H 0.50398 0.85908 -0.17466
 H579 H 0.53054 0.81813 -0.11765
 H580 H 0.53434 0.78974 -0.08953
 H581 H 0.48029 0.81458 -0.04967
 H582 H 0.47603 0.84281 -0.07792
 C583 C 0.99288 0.30037 0.43960
 C584 C 0.99351 0.31271 0.42388
 C585 C 0.99424 0.32775 0.40542
 C586 C 0.97559 0.32961 0.39132
 C587 C 0.97604 0.34480 0.37393
 C588 C 0.99518 0.35834 0.37044
 C589 C 1.01392 0.35617 0.38455
 C590 C 1.01343 0.34098 0.40193
 C591 C 0.99543 0.37505 0.35257
 C592 C 1.01453 0.37923 0.33904
 C593 C 1.01499 0.39552 0.32284
 C594 C 0.99640 0.40783 0.31994
 C595 C 0.97725 0.40364 0.33311
 C596 C 0.97674 0.38735 0.34932
 C597 C 0.99719 0.42520 0.30399
 C598 C 0.99787 0.44002 0.29095
 H599 H 0.96066 0.31943 0.39388
 H600 H 0.96146 0.34591 0.36317
 H601 H 1.02879 0.36656 0.38251
 H602 H 1.02792 0.33974 0.41282
 H603 H 1.02907 0.36986 0.34095
 H604 H 1.02990 0.39863 0.31271
 H605 H 0.96281 0.41316 0.33108
 H606 H 0.96191 0.38474 0.35968
 C607 C 0.49916 0.92996 0.17734
 C608 C 0.49936 0.91447 0.16418
 C609 C 0.49989 0.89609 0.14836
 C610 C 0.49902 0.87510 0.15673
 C611 C 0.50007 0.85728 0.14137
 C612 C 0.50201 0.86023 0.11741
 C613 C 0.50270 0.88140 0.10918
 C614 C 0.50166 0.89919 0.12456
 C615 C 0.50368 0.84137 0.10110
 C616 C 0.49265 0.84073 0.07961
 C617 C 0.49475 0.82324 0.06402
 C618 C 0.50786 0.80615 0.06967
 C619 C 0.51873 0.80654 0.09107
 C620 C 0.51665 0.82400 0.10670
 C621 C 0.51061 0.78851 0.05329
 C622 C 0.51319 0.77390 0.03945
 H623 H 0.49761 0.87252 0.17512
 H624 H 0.49922 0.84119 0.14823
 H625 H 0.50450 0.88423 0.09088
 H626 H 0.50245 0.91537 0.11790
 H627 H 0.48232 0.85371 0.07492
 H628 H 0.48624 0.82310 0.04750
 H629 H 0.52901 0.79344 0.09557
 H630 H 0.52558 0.82414 0.12295
 C631 C -0.00773 0.30948 0.60072
 C632 C -0.00725 0.32402 0.61509
 C633 C -0.00641 0.34196 0.63152
 C634 C -0.02563 0.34767 0.64336
 C635 C -0.02513 0.36612 0.65796
 C636 C -0.00537 0.37912 0.66086
 C637 C 0.01398 0.37294 0.64928
 C638 C 0.01343 0.35450 0.63470
 C639 C -0.00515 0.39965 0.67485
 C640 C 0.01329 0.40621 0.68881
 C641 C 0.01416 0.42632 0.70055
 C642 C -0.00340 0.44010 0.69853
 C643 C -0.02203 0.43351 0.68515
 C644 C -0.02294 0.41342 0.67340
 C645 C -0.00181 0.46149 0.70902
 C646 C -0.00052 0.47970 0.71704
 H647 H -0.04109 0.33809 0.64099
 H648 H -0.04022 0.37032 0.66684
 H649 H 0.02935 0.38276 0.65086
 H650 H 0.02836 0.35030 0.62549
 H651 H 0.02712 0.39586 0.69048
 H652 H 0.02867 0.43129 0.71085
 H653 H -0.03565 0.44411 0.68334
 H654 H -0.03721 0.40900 0.66254
 C655 C 0.50045 0.07065 0.82260
 C656 C 0.50026 0.08613 0.83576
 C657 C 0.49965 0.10460 0.85145
 C658 C 0.48427 0.12038 0.84799
 C659 C 0.48330 0.13811 0.86345
 C660 C 0.49770 0.14031 0.88263
 C661 C 0.51320 0.12442 0.88589
 C662 C 0.51416 0.10669 0.87039
 C663 C 0.49628 0.15891 0.89935
 C664 C 0.49808 0.15590 0.92328
 C665 C 0.49612 0.17328 0.93904
 C666 C 0.49237 0.19390 0.93112
 C667 C 0.49076 0.19712 0.90736
 C668 C 0.49270 0.17976 0.89156
 C669 C 0.48967 0.21162 0.94742
 C670 C 0.48713 0.22630 0.96119
 H671 H 0.47290 0.11887 0.83345
 H672 H 0.47097 0.14989 0.86063
 H673 H 0.52469 0.12579 0.90032
 H674 H 0.52616 0.09459 0.87322
 H675 H 0.50053 0.14001 0.92984
 H676 H 0.49729 0.17058 0.95740
 H677 H 0.48788 0.21302 0.90104
 H678 H 0.49153 0.18266 0.87325
 C679 C 1.00776 0.69099 0.39738
 C680 C 1.00698 0.67628 0.38320
 C681 C 1.00605 0.65813 0.36704
 C682 C 0.98651 0.64497 0.36486
 C683 C 0.98604 0.62632 0.35059
 C684 C 1.00516 0.62055 0.33834
 C685 C 1.02458 0.63417 0.34023
 C686 C 1.02501 0.65283 0.35451
 C687 C 1.00512 0.59984 0.32467
 C688 C 1.02346 0.58670 0.32560
 C689 C 1.02286 0.56650 0.31408
 C690 C 1.00398 0.55918 0.30145
 C691 C 0.98584 0.57231 0.29999
 C692 C 0.98639 0.59253 0.31151
 C693 C 1.00282 0.53773 0.29109
 C694 C 1.00184 0.51951 0.28309
 H695 H 0.97179 0.64884 0.37461
 H696 H 0.97093 0.61602 0.34978
 H697 H 1.03948 0.63030 0.33081
 H698 H 1.04024 0.66289 0.35611
 H699 H 1.03798 0.59170 0.33585
 H700 H 1.03694 0.55640 0.31545
 H701 H 0.97113 0.56678 0.29028
 H702 H 0.97213 0.60238 0.31025
 C703 C 1.18552 0.50121 0.08112
 C704 C 1.17172 0.49998 0.09620
 C705 C 1.15501 0.49828 0.11394
 C706 C 1.13846 0.51331 0.11550
 C707 C 1.12181 0.51128 0.13227
 C708 C 1.12150 0.49415 0.14771
 C709 C 1.13832 0.47923 0.14610
 C710 C 1.15495 0.48128 0.12931
 C711 C 1.10353 0.49166 0.16518
 C712 C 1.10834 0.48536 0.18772
 C713 C 1.09133 0.48261 0.20400
 C714 C 1.06932 0.48609 0.19798
 C715 C 1.06437 0.49248 0.17566
 C716 C 1.08135 0.49526 0.15935
 C717 C 1.05178 0.48281 0.21461
 C718 C 1.03711 0.47989 0.22853
 H719 H 1.13836 0.52654 0.10369
 H720 H 1.10926 0.52318 0.13326
 H721 H 1.13837 0.46571 0.15752
 H722 H 1.16762 0.46949 0.12817
 H723 H 1.12527 0.48274 0.19281
 H724 H 1.09535 0.47770 0.22126
 H725 H 1.04737 0.49514 0.17080
 H726 H 1.07707 0.49983 0.14206
 C727 C 0.57714 -0.00838 0.68995
 C728 C 0.59173 -0.00845 0.67566
 C729 C 0.60884 -0.00877 0.65826
 C730 C 0.63059 -0.01339 0.66418
 C731 C 0.64702 -0.01427 0.64711
 C732 C 0.64190 -0.01054 0.62388
 C733 C 0.62001 -0.00574 0.61816
 C734 C 0.60361 -0.00488 0.63524
 C735 C 0.65917 -0.01199 0.60562
 C736 C 0.66030 0.00282 0.58763
 C737 C 0.67625 0.00112 0.57016
 C738 C 0.69127 -0.01538 0.57043
 C739 C 0.69038 -0.03009 0.58832
 C740 C 0.67446 -0.02842 0.60581
 C741 C 0.70741 -0.01740 0.55222
 C742 C 0.72087 -0.01926 0.53694
 H743 H 0.63482 -0.01640 0.68195
 H744 H 0.66377 -0.01774 0.65211
 H745 H 0.61545 -0.00309 0.60041
 H746 H 0.58680 -0.00139 0.63046
 H747 H 0.64896 0.01580 0.58715
 H748 H 0.67683 0.01263 0.55642
 H749 H 0.70188 -0.04297 0.58865
 H750 H 0.67383 -0.04024 0.61922
 C751 C -0.18440 0.49793 0.91841
 C752 C -0.17089 0.49883 0.90303
 C753 C -0.15446 0.50028 0.88500
 C754 C -0.15395 0.51768 0.87013
 C755 C -0.13742 0.51965 0.85323
 C756 C -0.12113 0.50422 0.85102
 C757 C -0.12192 0.48665 0.86591
 C758 C -0.13849 0.48472 0.88279
 C759 C -0.10312 0.50672 0.83360
 C760 C -0.08109 0.50237 0.83925
 C761 C -0.06403 0.50529 0.82306
 C762 C -0.06875 0.51257 0.80103
 C763 C -0.09062 0.51678 0.79518
 C764 C -0.10771 0.51389 0.81134
 C765 C -0.05110 0.51604 0.78457
 C766 C -0.03631 0.51911 0.77082
 H767 H -0.16616 0.52989 0.87179
 H768 H -0.13708 0.53350 0.84226
 H769 H -0.10979 0.47438 0.86444
 H770 H -0.13873 0.47118 0.89422
 H771 H -0.07697 0.49712 0.85633
 H772 H -0.04713 0.50205 0.82779
 H773 H -0.09446 0.52239 0.77815
 H774 H -0.12453 0.51712 0.80639
 C775 C 0.42294 0.00852 0.30998
 C776 C 0.40839 0.00898 0.32430
 C777 C 0.39124 0.00967 0.34162
 C778 C 0.37225 0.02122 0.33790
 C779 C 0.35585 0.02232 0.35498
 C780 C 0.35823 0.01187 0.37603
 C781 C 0.37732 0.00018 0.37952
 C782 C 0.39370 -0.00089 0.36243
 C783 C 0.34105 0.01339 0.39438
 C784 C 0.33473 -0.00471 0.40745
 C785 C 0.31877 -0.00314 0.42493
 C786 C 0.30894 0.01651 0.42959
 C787 C 0.31506 0.03458 0.41665
 C788 C 0.33099 0.03305 0.39916
 C789 C 0.29269 0.01822 0.44773
 C790 C 0.27911 0.01982 0.46293
 H791 H 0.37016 0.02943 0.32185
 H792 H 0.34123 0.03121 0.35164
 H793 H 0.37979 -0.00780 0.39564
 H794 H 0.40838 -0.00980 0.36553
 H795 H 0.34196 -0.02013 0.40400
 H796 H 0.31411 -0.01725 0.43480
 H797 H 0.30761 0.04989 0.42016
 H798 H 0.33572 0.04735 0.38964
 C799 C 0.18472 0.50683 0.92089
 C800 C 0.17098 0.50769 0.90583
 C801 C 0.15438 0.50898 0.88812
 C802 C 0.15021 0.52899 0.87890
 C803 C 0.13368 0.53042 0.86214
 C804 C 0.12108 0.51182 0.85437
 C805 C 0.12552 0.49174 0.86362
 C806 C 0.14206 0.49035 0.88041
 C807 C 0.10325 0.51343 0.83687
 C808 C 0.10023 0.49764 0.81895
 C809 C 0.08353 0.49932 0.80239
 C810 C 0.06963 0.51675 0.80357
 C811 C 0.07243 0.53246 0.82139
 C812 C 0.08912 0.53082 0.83793
 C813 C 0.05267 0.51874 0.78636
 C814 C 0.03852 0.52076 0.77197
 H815 H 0.15967 0.54350 0.88473
 H816 H 0.13087 0.54605 0.85512
 H817 H 0.11594 0.47718 0.85819
 H818 H 0.14509 0.47479 0.88751
 H819 H 0.11101 0.48420 0.81752
 H820 H 0.08155 0.48711 0.78861
 H821 H 0.06173 0.54599 0.82248
 H822 H 0.09081 0.54305 0.85170
 C823 C 0.57849 0.00896 0.30930
 C824 C 0.59307 0.00835 0.32352
 C825 C 0.61027 0.00721 0.34065
 C826 C 0.60884 0.01876 0.36175
 C827 C 0.62510 0.01698 0.37875
 C828 C 0.64302 0.00360 0.37487
 C829 C 0.64441 -0.00776 0.35349
 C830 C 0.62813 -0.00596 0.33653
 C831 C 0.65990 0.00107 0.39318
 C832 C 0.68257 -0.00005 0.38751
 C833 C 0.69832 -0.00319 0.40467
 C834 C 0.69167 -0.00524 0.42772
 C835 C 0.66921 -0.00391 0.43359
 C836 C 0.65342 -0.00075 0.41646
 C837 C 0.70777 -0.00937 0.44521
 C838 C 0.72122 -0.01320 0.45975
 H839 H 0.59508 0.02901 0.36512
 H840 H 0.62371 0.02612 0.39491
 H841 H 0.65781 -0.01842 0.35009
 H842 H 0.62934 -0.01506 0.32031
 H843 H 0.68812 0.00156 0.36981
 H844 H 0.71567 -0.00419 0.39994
 H845 H 0.66386 -0.00558 0.45136
 H846 H 0.63608 -0.00025 0.42134
 C847 C 0.81558 0.49551 0.08097
 C848 C 0.82910 0.49519 0.09629
 C849 C 0.84552 0.49448 0.11428
 C850 C 0.84351 0.47855 0.13088
 C851 C 0.85993 0.47725 0.14778
 C852 C 0.87864 0.49188 0.14827
 C853 C 0.88039 0.50799 0.13164
 C854 C 0.86393 0.50926 0.11476
 C855 C 0.89646 0.49002 0.16573
 C856 C 0.91900 0.49273 0.15942
 C857 C 0.93580 0.49037 0.17569
 C858 C 0.93031 0.48530 0.19846
 C859 C 0.90795 0.48276 0.20497
 C860 C 0.89112 0.48510 0.18872
 C861 C 0.94760 0.48230 0.21503
 C862 C 0.96207 0.47957 0.22887
 H863 H 0.82939 0.46695 0.13057
 H864 H 0.85825 0.46450 0.16014
 H865 H 0.89444 0.51965 0.13174
 H866 H 0.86565 0.52166 0.10198
 H867 H 0.92365 0.49623 0.14179
 H868 H 0.95306 0.49228 0.17045
 H869 H 0.90352 0.47887 0.22257
 H870 H 0.87393 0.48318 0.19418
 C871 C 0.42097 -0.01026 0.69002
 C872 C 0.40617 -0.00993 0.67601
 C873 C 0.38881 -0.00902 0.65901
 C874 C 0.37031 0.00318 0.66367
 C875 C 0.35401 0.00503 0.64673
 C876 C 0.35604 -0.00528 0.62485
 C877 C 0.37455 -0.01776 0.62046
 C878 C 0.39082 -0.01959 0.63743
 C879 C 0.33924 -0.00250 0.60651
 C880 C 0.34594 0.00067 0.58349
 C881 C 0.33024 0.00411 0.56638
 C882 C 0.30763 0.00439 0.57200
 C883 C 0.30076 0.00100 0.59477
 C884 C 0.31644 -0.00242 0.61193
 C885 C 0.29160 0.00879 0.55454
 C886 C 0.27822 0.01282 0.53999
 H887 H 0.36865 0.01155 0.68027
 H888 H 0.34012 0.01499 0.65055
 H889 H 0.37645 -0.02611 0.60390
 H890 H 0.40509 -0.02907 0.63364
 H891 H 0.36338 0.00101 0.57882
 H892 H 0.33575 0.00682 0.54882
 H893 H 0.28330 0.00118 0.59931
 H894 H 0.31073 -0.00507 0.62942
   
