data_POSCAR
  _audit_creation_date              2014-09-24
  _audit_creation_method            'ToBaCCo'
  _symmetry_space_group_name_H-M    'P1'
  _symmetry_Int_Tables_number       1
  _symmetry_cell_setting            triclinic
  loop_
  _symmetry_equiv_pos_as_xyz
 x,y,z
_cell_length_a 22.9357
_cell_length_b 22.3407
_cell_length_c 57.7077
_cell_angle_alpha 90.536900
_cell_angle_beta 90.770100
_cell_angle_gamma 124.007900
loop_
  _atom_site_label
  _atom_site_type_symbol
  _atom_site_fract_x
  _atom_site_fract_y
  _atom_site_fract_z
C1 C 0.00167 0.00338 0.50690
 C2 C 0.98332 -0.03473 0.15525
 C3 C 0.00144 1.01317 0.83881
 O4 O 0.47865 0.07108 0.02157
 O5 O 0.59751 0.08084 -0.02304
 O6 O 0.48207 0.07965 -0.02351
 O7 O 0.59965 0.08653 0.02185
 O8 O 0.54250 -0.03226 0.02005
 O9 O 0.42159 -0.03931 -0.02445
 O10 O 0.53592 -0.03821 -0.02480
 O11 O 0.42047 -0.04775 0.02054
 Cu12 Cu 0.54512 0.09134 -0.00076
 Cu13 Cu 0.47408 -0.05118 -0.00227
 C14 C 0.42926 0.00970 0.02874
 C15 C 0.58739 0.02260 -0.03131
 C16 C 0.43117 0.01928 -0.03154
 C17 C 0.59209 0.02864 0.02844
 O18 O 0.04990 0.47054 0.65088
 O19 O 0.06678 0.60069 0.69524
 O20 O 0.06163 0.48049 0.69603
 O21 O 0.07595 0.60013 0.65041
 O22 O -0.03906 0.54710 0.65008
 O23 O -0.05391 0.42300 0.69527
 O24 O -0.04889 0.54237 0.69501
 O25 O -0.06513 0.41729 0.65012
 Cu26 Cu 0.07485 0.54323 0.67324
 Cu27 Cu -0.06303 0.47698 0.67255
 C28 C -0.01105 0.42164 0.64287
 C29 C 0.01103 0.59334 0.70265
 C30 C 0.00205 0.43102 0.70341
 C31 C 0.02151 0.59510 0.64256
 O32 O 0.53880 0.56974 0.30625
 O33 O 0.41341 0.45998 0.35219
 O34 O 0.53661 0.58340 0.35142
 O35 O 0.40830 0.46265 0.30706
 O36 O 0.44951 0.39398 0.30798
 O37 O 0.57997 0.51688 0.35317
 O38 O 0.45713 0.39369 0.35312
 O39 O 0.58116 0.50230 0.30824
 Cu40 Cu 0.47041 0.52573 0.32922
 Cu41 Cu 0.52110 0.44522 0.33080
 C42 C 0.58097 0.55362 0.29922
 C43 C 0.41373 0.40723 0.36032
 C44 C 0.58038 0.57166 0.35993
 C45 C 0.40693 0.40835 0.29968
 C46 C 0.05747 0.10535 0.53659
 C47 C 0.05821 0.15381 0.55197
 C48 C -0.00234 0.15254 0.55540
 C49 C -0.06507 0.10062 0.54347
 C50 C -0.06604 0.05137 0.52782
 C51 C -0.00383 0.05458 0.52358
 N52 N 0.00278 0.20487 0.57127
 N53 N -0.04823 0.20961 0.57642
 C54 C -0.03778 0.26417 0.59258
 C55 C -0.09539 0.26557 0.59922
 C56 C -0.08660 0.31716 0.61541
 C57 C -0.01970 0.36861 0.62518
 C58 C 0.03823 0.36773 0.61823
 C59 C 0.02933 0.31599 0.60213
 H60 H 0.10576 0.10805 0.53449
 H61 H 0.10653 0.19288 0.56132
 H62 H -0.11303 0.09793 0.54631
 H63 H -0.11544 0.01066 0.51948
 H64 H -0.14728 0.22617 0.59201
 H65 H -0.13236 0.31645 0.62036
 H66 H 0.09035 0.40651 0.62541
 H67 H 0.07494 0.31637 0.59725
 C68 C 0.85537 0.89148 0.16962
 C69 C 0.80238 0.83846 0.18326
 C70 C 0.81049 0.78839 0.19419
 C71 C 0.87018 0.78788 0.18980
 C72 C 0.92306 0.84023 0.17561
 C73 C 0.91844 0.89550 0.16575
 N74 N 0.76089 0.74462 0.21143
 N75 N 0.76815 0.70403 0.22470
 C76 C 0.71971 0.66565 0.24289
 C77 C 0.72681 0.61793 0.25611
 C78 C 0.68198 0.58190 0.27451
 C79 C 0.62949 0.59358 0.28014
 C80 C 0.62268 0.64186 0.26691
 C81 C 0.66724 0.67745 0.24840
 H82 H 0.84665 0.93092 0.16329
 H83 H 0.75650 0.83938 0.18656
 H84 H 0.87769 0.74950 0.19822
 H85 H 0.97042 0.84096 0.17432
 H86 H 0.76732 0.60881 0.25218
 H87 H 0.68863 0.54504 0.28438
 H88 H 0.58260 0.65170 0.27074
 H89 H 0.66102 0.71462 0.23855
 C90 C 0.11581 0.09689 -0.13749
 C91 C 0.17061 0.10691 -0.12313
 C92 C 0.17259 0.04803 -0.11658
 C93 C 0.11810 -0.02123 -0.12408
 C94 C 0.06365 -0.03135 -0.13826
 C95 C 0.06222 0.02746 -0.14663
 N96 N 0.22818 0.05859 -0.10157
 N97 N 0.23023 0.00515 -0.09545
 C98 C 0.28310 0.01120 -0.08021
 C99 C 0.27827 -0.05193 -0.07420
 C100 C 0.32694 -0.04926 -0.05868
 C101 C 0.38174 0.01702 -0.04889
 C102 C 0.38726 0.08069 -0.05528
 C103 C 0.33823 0.07783 -0.07079
 H104 H 0.11463 0.14385 -0.14057
 H105 H 0.21083 0.16063 -0.11672
 H106 H 0.11663 -0.06830 -0.11863
 H107 H 0.02220 -0.08664 -0.14216
 H108 H 0.23595 -0.10360 -0.08138
 H109 H 0.32117 -0.09923 -0.05417
 H110 H 0.42881 0.13261 -0.04802
 H111 H 0.34298 0.12735 -0.07521
 C112 C -0.05107 0.90674 0.53711
 C113 C -0.05071 0.85991 0.55261
 C114 C 0.00965 0.86045 0.55616
 C115 C 0.07129 0.91046 0.54440
 C116 C 0.07119 0.95818 0.52868
 C117 C 0.00887 0.95510 0.52414
 N118 N 0.00530 0.80903 0.57184
 N119 N 0.05598 0.80312 0.57685
 C120 C 0.04613 0.74929 0.59272
 C121 C 0.10373 0.74729 0.59951
 C122 C 0.09558 0.69656 0.61549
 C123 C 0.02931 0.64655 0.62487
 C124 C -0.02869 0.64785 0.61770
 C125 C -0.02040 0.69876 0.60182
 H126 H -0.09933 0.90426 0.53478
 H127 H -0.09815 0.82237 0.56183
 H128 H 0.11917 0.91268 0.54737
 H129 H 0.11981 0.99737 0.52043
 H130 H 0.15517 0.78565 0.59262
 H131 H 0.14135 0.69690 0.62063
 H132 H -0.08033 0.61020 0.62459
 H133 H -0.06602 0.69879 0.59679
 C134 C 0.03886 -0.00459 0.19645
 C135 C 0.08406 0.04295 0.21385
 C136 C 0.11845 0.11699 0.21142
 C137 C 0.10589 0.14359 0.19141
 C138 C 0.06038 0.09580 0.17380
 C139 C 0.02464 0.01982 0.17590
 N140 N 0.16954 0.16315 0.22884
 N141 N 0.20140 0.23146 0.22911
 C142 C 0.25385 0.27508 0.24658
 C143 C 0.27589 0.34694 0.24973
 C144 C 0.32571 0.39013 0.26702
 C145 C 0.35539 0.36239 0.28118
 C146 C 0.33451 0.29072 0.27764
 C147 C 0.28367 0.24715 0.26059
 H148 H 0.01833 -0.06035 0.19919
 H149 H 0.09444 0.02188 0.22904
 H150 H 0.13368 0.20119 0.18888
 H151 H 0.05803 0.11941 0.15786
 H152 H 0.25365 0.36919 0.23898
 H153 H 0.34128 0.44544 0.26924
 H154 H 0.35651 0.26804 0.28829
 H155 H 0.26789 0.19180 0.25832
 C156 C 0.86842 -0.05704 -0.14952
 C157 C 0.81542 -0.06462 -0.13548
 C158 C 0.83237 -0.01946 -0.11612
 C159 C 0.90318 0.03137 -0.11030
 C160 C 0.95613 0.03817 -0.12398
 C161 C 0.94084 -0.00601 -0.14402
 N162 N 0.77734 -0.02320 -0.10330
 N163 N 0.78989 0.02867 -0.08996
 C164 C 0.73678 0.02674 -0.07657
 C165 C 0.75344 0.08958 -0.06472
 C166 C 0.70402 0.08910 -0.05066
 C167 C 0.63720 0.02517 -0.04797
 C168 C 0.62019 -0.03763 -0.06021
 C169 C 0.66942 -0.03681 -0.07450
 H170 H 0.85148 -0.08715 -0.16573
 H171 H 0.76080 -0.10295 -0.14053
 H172 H 0.91777 0.06732 -0.09543
 H173 H 1.00911 0.08097 -0.11908
 H174 H 0.80524 0.13889 -0.06619
 H175 H 0.71886 0.13818 -0.04136
 H176 H 0.56911 -0.08772 -0.05851
 H177 H 0.65539 -0.08606 -0.08348
 C178 C 0.01914 -0.11248 0.13320
 C179 C 0.06715 -0.11745 0.11991
 C180 C 0.13377 -0.05581 0.11556
 C181 C 0.15223 0.01067 0.12500
 C182 C 0.10471 0.01580 0.13808
 C183 C 0.03720 -0.04558 0.14303
 N184 N 0.18025 -0.06017 0.10030
 N185 N 0.23854 -0.00324 0.09480
 C186 C 0.28661 -0.00254 0.07907
 C187 C 0.34705 0.06414 0.07346
 C188 C 0.39382 0.06813 0.05731
 C189 C 0.38102 0.00509 0.04652
 C190 C 0.32081 -0.06213 0.05251
 C191 C 0.27377 -0.06595 0.06862
 H192 H -0.03353 -0.16042 0.13433
 H193 H 0.05130 -0.16897 0.11221
 H194 H 0.20286 0.05965 0.12163
 H195 H 0.12119 0.06936 0.14352
 H196 H 0.35735 0.11337 0.08142
 H197 H 0.43970 0.12066 0.05315
 H198 H 0.30944 -0.11170 0.04448
 H199 H 0.22728 -0.11810 0.07270
 C200 C 0.90576 0.98146 0.47698
 C201 C 0.85471 0.93834 0.45973
 C202 C 0.83688 0.86838 0.45471
 C203 C 0.87020 0.84192 0.46727
 C204 C 0.92047 0.88431 0.48431
 C205 C 0.93819 0.95441 0.49020
 N206 N 0.78711 0.82543 0.43640
 N207 N 0.77685 0.76521 0.43027
 C208 C 0.72804 0.71863 0.41238
 C209 C 0.72427 0.65556 0.40650
 C210 C 0.67677 0.60786 0.38936
 C211 C 0.63178 0.62241 0.37785
 C212 C 0.63587 0.68606 0.38377
 C213 C 0.68369 0.73387 0.40086
 H214 H 0.92112 1.03654 0.47956
 H215 H 0.83051 0.96020 0.44984
 H216 H 0.85870 0.78869 0.46357
 H217 H 0.94709 0.86204 0.49230
 H218 H 0.75827 0.64330 0.41532
 H219 H 0.67492 0.55943 0.38525
 H220 H 0.60204 0.69898 0.37521
 H221 H 0.68567 0.78226 0.40515
 C222 C 0.08065 0.13048 0.81663
 C223 C 0.08862 0.18436 0.80206
 C224 C 0.03011 0.18352 0.79446
 C225 C -0.03663 0.12783 0.80147
 C226 C -0.04478 0.07419 0.81589
 C227 C 0.01360 0.07480 0.82488
 N228 N 0.03870 0.23697 0.77866
 N229 N -0.01416 0.23574 0.77082
 C230 C -0.00842 0.28678 0.75460
 C231 C -0.06992 0.27964 0.74655
 C232 C -0.06679 0.32681 0.73007
 C233 C -0.00173 0.38215 0.72138
 C234 C 0.06009 0.38970 0.72975
 C235 C 0.05681 0.34241 0.74619
 H236 H 0.12729 0.13106 0.82030
 H237 H 0.14045 0.22566 0.79611
 H238 H -0.08322 0.12445 0.79532
 H239 H -0.09824 0.03138 0.81926
 H240 H -0.12053 0.23685 0.75291
 H241 H -0.11528 0.31956 0.72402
 H242 H 0.11108 0.43177 0.72343
 H243 H 0.10505 0.34896 0.75216
 C244 C 0.93451 -0.04276 0.11414
 C245 C 0.89484 -0.03244 0.09826
 C246 C 0.87168 0.01152 0.10386
 C247 C 0.89169 0.04849 0.12530
 C248 C 0.93173 0.03836 0.14135
 C249 C 0.95383 -0.00829 0.13628
 N250 N 0.82209 0.01101 0.08842
 N251 N 0.79881 0.05049 0.09133
 C252 C 0.74580 0.04377 0.07593
 C253 C 0.73443 0.09907 0.07526
 C254 C 0.68391 0.09401 0.05996
 C255 C 0.64279 0.03256 0.04550
 C256 C 0.65291 -0.02377 0.04671
 C257 C 0.70432 -0.01800 0.06164
 H258 H 0.94624 -0.08143 0.10916
 H259 H 0.87891 -0.06200 0.08187
 H260 H 0.87284 0.08160 0.13023
 H261 H 0.93879 0.06149 0.15852
 H262 H 0.76563 0.14669 0.08629
 H263 H 0.67702 0.13815 0.05943
 H264 H 0.62226 -0.07155 0.03570
 H265 H 0.71151 -0.06192 0.06205
 C266 C 0.09442 0.01990 0.47769
 C267 C 0.14408 0.06005 0.46062
 C268 C 0.16179 0.12926 0.45511
 C269 C 0.12963 0.15793 0.46697
 C270 C 0.08075 0.11847 0.48388
 C271 C 0.06343 0.04936 0.49031
 N272 N 0.21042 0.16909 0.43704
 N273 N 0.22076 0.22845 0.43032
 C274 C 0.26877 0.27157 0.41260
 C275 C 0.27267 0.33367 0.40572
 C276 C 0.31938 0.37782 0.38864
 C277 C 0.36343 0.36065 0.37826
 C278 C 0.35928 0.29809 0.38524
 C279 C 0.31226 0.25382 0.40222
 H280 H 0.07907 -0.03481 0.48064
 H281 H 0.16733 0.03644 0.45125
 H282 H 0.14103 0.21059 0.46284
 H283 H 0.05493 0.14215 0.49134
 H284 H 0.23935 0.34787 0.41366
 H285 H 0.32132 0.42553 0.38369
 H286 H 0.39235 0.28316 0.37755
 H287 H 0.31021 0.20616 0.40729
 C288 C -0.06381 0.87696 0.82519
 C289 C -0.07000 0.82346 0.81044
 C290 C -0.02595 0.84218 0.79157
 C291 C 0.02271 0.91516 0.78706
 C292 C 0.02816 0.96858 0.80145
 C293 C -0.01538 0.95161 0.82090
 N294 N -0.02914 0.78666 0.77780
 N295 N 0.02087 0.80056 0.76459
 C296 C 0.01848 0.74657 0.75023
 C297 C 0.07899 0.76395 0.73851
 C298 C 0.07760 0.71342 0.72358
 C299 C 0.01507 0.64497 0.71990
 C300 C -0.04532 0.62737 0.73198
 C301 C -0.04358 0.67754 0.74711
 H302 H -0.09321 0.85875 0.84095
 H303 H -0.10665 0.76712 0.81449
 H304 H 0.05785 0.93114 0.77262
 H305 H 0.06928 1.02327 0.79752
 H306 H 0.12715 0.81708 0.74079
 H307 H 0.12477 0.72861 0.71442
 H308 H -0.09425 0.57495 0.72956
 H309 H -0.09103 0.66290 0.75595
   
