data_POSCAR
  _audit_creation_date              2014-09-24
  _audit_creation_method            'ToBaCCo'
  _symmetry_space_group_name_H-M    'P1'
  _symmetry_Int_Tables_number       1
  _symmetry_cell_setting            triclinic
  loop_
  _symmetry_equiv_pos_as_xyz
 x,y,z
_cell_length_a 50.0141
_cell_length_b 47.5120
_cell_length_c 27.4534
_cell_angle_alpha 89.943900
_cell_angle_beta 90.020300
_cell_angle_gamma 89.987300
loop_
  _atom_site_label
  _atom_site_type_symbol
  _atom_site_fract_x
  _atom_site_fract_y
  _atom_site_fract_z
C1 C 0.70504 0.29191 0.54323
 C2 C 0.69815 0.30375 0.49800
 C3 C 0.70431 0.29057 0.45409
 C4 C 0.71897 0.26522 0.45425
 C5 C 0.72724 0.25322 0.49915
 C6 C 0.72011 0.26640 0.54383
 C7 C 0.72920 0.25426 0.58752
 C8 C 0.74302 0.22890 0.58775
 C9 C 0.75060 0.21554 0.54414
 C10 C 0.74239 0.22777 0.49927
 C11 C 0.72490 0.25121 0.41063
 C12 C 0.73924 0.22621 0.41078
 C13 C 0.74883 0.21442 0.45447
 C14 C 0.76302 0.18856 0.45463
 C15 C 0.76927 0.17592 0.49938
 C16 C 0.76473 0.18947 0.54415
 H17 H 0.72580 0.26415 0.62238
 H18 H 0.74726 0.21976 0.62295
 H19 H 0.71820 0.25927 0.37581
 H20 H 0.74213 0.21587 0.37611
 H21 H 0.68606 0.32271 0.49665
 H22 H 0.78098 0.15669 0.49900
 C23 C 0.21990 0.81067 0.54272
 C24 C 0.21092 0.82171 0.49838
 C25 C 0.21972 0.81103 0.45386
 C26 C 0.23848 0.78880 0.45309
 C27 C 0.24767 0.77707 0.49768
 C28 C 0.23820 0.78789 0.54267
 C29 C 0.24718 0.77557 0.58620
 C30 C 0.26461 0.75273 0.58570
 C31 C 0.27513 0.74217 0.54176
 C32 C 0.26608 0.75422 0.49716
 C33 C 0.24787 0.77769 0.40892
 C34 C 0.26598 0.75552 0.40836
 C35 C 0.27502 0.74323 0.45193
 C36 C 0.29283 0.72023 0.45138
 C37 C 0.30118 0.70825 0.49519
 C38 C 0.29304 0.71880 0.54065
 H39 H 0.24054 0.78317 0.62127
 H40 H 0.26923 0.74321 0.62042
 H41 H 0.24126 0.78597 0.37423
 H42 H 0.27266 0.74797 0.37325
 H43 H 0.19645 0.83874 0.49849
 H44 H 0.31532 0.69094 0.49355
 C45 C 0.20112 0.21849 -0.45387
 C46 C 0.19303 0.20631 -0.49764
 C47 C 0.20404 0.21426 -0.54272
 C48 C 0.22465 0.23499 -0.54333
 C49 C 0.23286 0.24783 -0.49895
 C50 C 0.22092 0.23963 -0.45421
 C51 C 0.22919 0.25258 -0.41080
 C52 C 0.24973 0.27220 -0.41073
 C53 C 0.26244 0.28013 -0.45423
 C54 C 0.25378 0.26818 -0.49895
 C55 C 0.23898 0.24140 -0.58603
 C56 C 0.25946 0.26123 -0.58601
 C57 C 0.26669 0.27569 -0.54329
 C58 C 0.28811 0.29548 -0.54267
 C59 C 0.29676 0.30607 -0.49754
 C60 C 0.28422 0.29898 -0.45390
 H61 H 0.22008 0.24743 -0.37619
 H62 H 0.25580 0.28075 -0.37595
 H63 H 0.23533 0.23033 -0.61975
 H64 H 0.27029 0.26417 -0.61969
 H65 H 0.17724 0.19066 -0.49635
 H66 H 0.31280 0.32142 -0.49621
 C67 C -0.26399 0.67728 -0.45768
 C68 C -0.27159 0.66599 -0.50283
 C69 C -0.26259 0.67697 -0.54741
 C70 C -0.24368 0.69931 -0.54676
 C71 C -0.23511 0.71077 -0.50152
 C72 C -0.24507 0.69960 -0.45691
 C73 C -0.23398 0.70931 -0.41289
 C74 C -0.21508 0.73068 -0.41220
 C75 C -0.20583 0.74286 -0.45556
 C76 C -0.21555 0.73262 -0.50080
 C77 C -0.23112 0.70859 -0.58970
 C78 C -0.21226 0.73005 -0.58898
 C79 C -0.20486 0.74327 -0.54523
 C80 C -0.18514 0.76490 -0.54413
 C81 C -0.17595 0.77439 -0.49869
 C82 C -0.18598 0.76395 -0.45487
 H83 H -0.23898 0.69980 -0.37830
 H84 H -0.20716 0.73693 -0.37717
 H85 H -0.23486 0.69858 -0.62438
 H86 H -0.20271 0.73523 -0.62313
 H87 H -0.28703 0.64997 -0.50342
 H88 H -0.16149 0.79139 -0.49701
 N89 N 0.01886 1.05651 -0.05196
 N90 N 0.03604 1.07694 -0.06133
 N91 N -0.03577 1.03180 -0.08448
 N92 N -0.05479 1.03509 -0.11722
 N93 N -0.03709 1.05161 -0.05123
 N94 N -0.05691 1.06917 -0.06095
 N95 N 0.02027 1.03688 -0.08548
 N96 N 0.03843 1.04335 -0.11841
 C97 C 0.04827 1.06829 -0.10277
 C98 C -0.06798 1.05832 -0.10195
 N99 N -0.02938 0.95180 -0.05205
 N100 N -0.04557 0.93072 -0.06263
 N101 N 0.02514 0.97648 -0.08624
 N102 N 0.04372 0.97305 -0.11981
 N103 N 0.02656 0.95643 -0.05341
 N104 N 0.04600 0.93865 -0.06405
 N105 N -0.03092 0.97151 -0.08548
 N106 N -0.04820 0.96438 -0.11959
 Mn107 Mn -0.00531 1.00419 -0.08585
 C108 C -0.05746 0.93904 -0.10460
 C109 C 0.05674 0.94951 -0.10527
 N110 N -0.03656 1.05101 0.05436
 N111 N -0.05628 1.06843 0.06542
 N112 N 0.02156 1.03598 0.08592
 N113 N 0.03999 1.04211 0.11847
 N114 N 0.01957 1.05611 0.05333
 N115 N 0.03662 1.07663 0.06314
 N116 N -0.03431 1.03130 0.08771
 N117 N -0.05219 1.03486 0.12235
 Mn118 Mn -0.00886 1.05417 0.00113
 C119 C -0.06597 1.05787 0.10783
 C120 C 0.04943 1.06739 0.10371
 N121 N 0.02742 0.95610 0.05159
 N122 N 0.04746 0.93870 0.06029
 N123 N -0.02983 0.97098 0.08670
 N124 N -0.04750 0.96423 0.12035
 N125 N -0.02861 0.95140 0.05307
 N126 N -0.04537 0.93071 0.06314
 N127 N 0.02623 0.97568 0.08521
 N128 N 0.04541 0.97217 0.11761
 Mn129 Mn -0.00100 0.95364 -0.00018
 Mn130 Mn -0.00407 1.00349 0.08677
 Cl131 Cl -0.00483 1.00389 0.00045
 C132 C 0.05868 0.94917 0.10142
 C133 C -0.05726 0.93918 0.10500
 N134 N 0.46858 0.47620 0.08596
 N135 N 0.45018 0.47201 0.11960
 N136 N 0.52370 0.45286 0.05246
 N137 N 0.54161 0.43307 0.06139
 N138 N 0.52473 0.47256 0.08590
 N139 N 0.54340 0.46679 0.11833
 N140 N 0.46760 0.45633 0.05281
 N141 N 0.44853 0.43804 0.06314
 C142 C 0.43760 0.44830 0.10465
 C143 C 0.55392 0.44219 0.10246
 N144 N 0.52450 0.47250 -0.08597
 N145 N 0.54294 0.46676 -0.11874
 N146 N 0.46735 0.45628 -0.05213
 N147 N 0.44787 0.43833 -0.06147
 N148 N 0.46837 0.47594 -0.08570
 N149 N 0.44964 0.47188 -0.11880
 N150 N 0.52343 0.45263 -0.05280
 N151 N 0.54098 0.43259 -0.06251
 Mn152 Mn 0.49552 0.45421 0.00010
 C153 C 0.55322 0.44192 -0.10355
 C154 C 0.43681 0.44850 -0.10298
 N155 N 0.52829 0.53286 0.08538
 N156 N 0.54772 0.53569 0.11738
 N157 N 0.47342 0.55649 0.05210
 N158 N 0.45569 0.57644 0.06102
 N159 N 0.47219 0.53675 0.08554
 N160 N 0.45362 0.54271 0.11802
 N161 N 0.52953 0.55275 0.05222
 N162 N 0.54977 0.56990 0.06122
 Mn163 Mn 0.49842 0.50461 0.08615
 C164 C 0.56107 0.55876 0.10184
 C165 C 0.44333 0.56743 0.10212
 N166 N 0.47190 0.53643 -0.08591
 N167 N 0.45379 0.54255 -0.11913
 N168 N 0.52939 0.55266 -0.05336
 N169 N 0.54938 0.56999 -0.06313
 N170 N 0.52803 0.53268 -0.08625
 N171 N 0.54715 0.53561 -0.11882
 N172 N 0.47335 0.55648 -0.05313
 N173 N 0.45633 0.57693 -0.06351
 Mn174 Mn 0.49816 0.50440 -0.08637
 Mn175 Mn 0.50147 0.55496 -0.00051
 Cl176 Cl 0.49838 0.50455 -0.00015
 C177 C 0.44403 0.56773 -0.10454
 C178 C 0.56044 0.55883 -0.10390
 C179 C 0.32649 0.33493 0.33771
 C180 C 0.34144 0.32361 0.37629
 C181 C 0.32885 0.30955 0.41443
 C182 C 0.30088 0.30596 0.41494
 C183 C 0.28603 0.31614 0.37494
 C184 C 0.29873 0.33041 0.33669
 C185 C 0.33987 0.35285 0.30069
 C186 C 0.33363 0.35065 0.25091
 C187 C 0.34707 0.36727 0.21653
 C188 C 0.36679 0.38656 0.23141
 C189 C 0.37263 0.38898 0.28128
 C190 C 0.35931 0.37241 0.31542
 C191 C 0.38215 0.40349 0.19549
 C192 C 0.38921 0.43146 0.20611
 C193 C 0.40647 0.44634 0.17556
 C194 C 0.41693 0.43366 0.13354
 C195 C 0.40878 0.40625 0.12139
 C196 C 0.39157 0.39128 0.15213
 H197 H 0.36296 0.32613 0.37748
 H198 H 0.34109 0.30155 0.44394
 H199 H 0.26441 0.31475 0.37467
 H200 H 0.28667 0.33916 0.30762
 H201 H 0.31876 0.33573 0.23852
 H202 H 0.34203 0.36508 0.17837
 H203 H 0.38796 0.40329 0.29395
 H204 H 0.36425 0.37495 0.35358
 H205 H 0.38183 0.44167 0.23870
 H206 H 0.41217 0.46756 0.18554
 H207 H 0.41651 0.39598 0.08914
 H208 H 0.38664 0.36971 0.14309
 C209 C -0.15359 0.81142 0.33708
 C210 C -0.18091 0.80455 0.33816
 C211 C -0.19133 0.78821 0.37621
 C212 C -0.17458 0.77817 0.41377
 C213 C -0.14705 0.78434 0.41119
 C214 C -0.13673 0.80055 0.37334
 C215 C -0.14269 0.83122 0.30030
 C216 C -0.12484 0.85239 0.31494
 C217 C -0.11370 0.87072 0.28090
 C218 C -0.12016 0.86842 0.23127
 C219 C -0.13830 0.84746 0.21651
 C220 C -0.14961 0.82911 0.25081
 C221 C -0.10705 0.88733 0.19544
 C222 C -0.09680 0.87670 0.15147
 C223 C -0.08145 0.89386 0.12084
 C224 C -0.07609 0.92191 0.13373
 C225 C -0.08749 0.93290 0.17637
 C226 C -0.10284 0.91583 0.20683
 H227 H -0.19440 0.81294 0.31092
 H228 H -0.21274 0.78492 0.37773
 H229 H -0.13337 0.77661 0.43874
 H230 H -0.11549 0.80499 0.37285
 H231 H -0.11944 0.85480 0.35292
 H232 H -0.09952 0.88635 0.29339
 H233 H -0.14374 0.84531 0.17852
 H234 H -0.16329 0.81294 0.23857
 H235 H -0.09958 0.85480 0.14187
 H236 H -0.07294 0.88488 0.08809
 H237 H -0.08395 0.95454 0.18694
 H238 H -0.11094 0.92476 0.23997
 C239 C 0.69560 0.64368 0.33114
 C240 C 0.70060 0.67272 0.33406
 C241 C 0.71545 0.68376 0.37289
 C242 C 0.72584 0.66593 0.40944
 C243 C 0.72163 0.63672 0.40489
 C244 C 0.70688 0.62579 0.36625
 C245 C 0.67705 0.63204 0.29412
 C246 C 0.65774 0.61222 0.30828
 C247 C 0.64028 0.60067 0.27420
 C248 C 0.64173 0.60847 0.22488
 C249 C 0.66071 0.62874 0.21069
 C250 C 0.67819 0.64048 0.24507
 C251 C 0.62322 0.59532 0.18911
 C252 C 0.61100 0.61130 0.15207
 C253 C 0.59149 0.59919 0.12196
 C254 C 0.58380 0.57103 0.12873
 C255 C 0.59690 0.55479 0.16414
 C256 C 0.61649 0.56673 0.19372
 H257 H 0.69184 0.68702 0.30778
 H258 H 0.71726 0.70641 0.37591
 H259 H 0.72965 0.62222 0.43166
 H260 H 0.70379 0.60325 0.36437
 H261 H 0.65590 0.60586 0.34603
 H262 H 0.62539 0.58579 0.28670
 H263 H 0.66237 0.63512 0.17294
 H264 H 0.69291 0.65573 0.23322
 H265 H 0.61569 0.63340 0.14769
 H266 H 0.58166 0.61214 0.09486
 H267 H 0.59165 0.53290 0.16965
 H268 H 0.62604 0.55362 0.22093
 C269 C 0.16613 1.17484 0.33708
 C270 C 0.17539 1.15898 0.37679
 C271 C 0.18873 1.17190 0.41525
 C272 C 0.19366 1.20109 0.41499
 C273 C 0.18540 1.21682 0.37404
 C274 C 0.17184 1.20379 0.33543
 C275 C 0.14923 1.16113 0.29946
 C276 C 0.15270 1.16667 0.24952
 C277 C 0.13740 1.15225 0.21469
 C278 C 0.11845 1.13208 0.22935
 C279 C 0.11441 1.12742 0.27932
 C280 C 0.12956 1.14174 0.31386
 C281 C 0.10304 1.11531 0.19341
 C282 C 0.09903 1.08643 0.20163
 C283 C 0.08235 1.07083 0.17130
 C284 C 0.06932 1.08367 0.13182
 C285 C 0.07430 1.11222 0.12189
 C286 C 0.09108 1.12794 0.15249
 H287 H 0.17190 1.13651 0.37854
 H288 H 0.19521 1.15892 0.44551
 H289 H 0.18794 1.23945 0.37314
 H290 H 0.16470 1.21657 0.30545
 H291 H 0.16771 1.18152 0.23741
 H292 H 0.14090 1.15625 0.17639
 H293 H 0.09944 1.11260 0.29179
 H294 H 0.12586 1.13761 0.35207
 H295 H 0.10847 1.07597 0.23219
 H296 H 0.07918 1.04878 0.17951
 H297 H 0.06454 1.12259 0.09160
 H298 H 0.09382 1.15017 0.14534
 C299 C 0.66942 0.33395 -0.33693
 C300 C 0.68373 0.34899 -0.37234
 C301 C 0.69627 0.33498 -0.41063
 C302 C 0.69514 0.30543 -0.41443
 C303 C 0.68123 0.29035 -0.37811
 C304 C 0.66872 0.30445 -0.33958
 C305 C 0.65380 0.34931 -0.29953
 C306 C 0.65388 0.34081 -0.25049
 C307 C 0.63911 0.35577 -0.21570
 C308 C 0.62385 0.37937 -0.22946
 C309 C 0.62350 0.38743 -0.27875
 C310 C 0.63835 0.37267 -0.31324
 C311 C 0.60794 0.39554 -0.19325
 C312 C 0.60554 0.42491 -0.19777
 C313 C 0.58836 0.43997 -0.16747
 C314 C 0.57347 0.42612 -0.13142
 C315 C 0.57688 0.39703 -0.12485
 C316 C 0.59389 0.38182 -0.15568
 H317 H 0.68490 0.37174 -0.37081
 H318 H 0.70691 0.34737 -0.43753
 H319 H 0.67865 0.26777 -0.38093
 H320 H 0.65739 0.29239 -0.31321
 H321 H 0.66570 0.32290 -0.23898
 H322 H 0.63994 0.34912 -0.17801
 H323 H 0.61138 0.40495 -0.29095
 H324 H 0.63740 0.37930 -0.35097
 H325 H 0.61662 0.43627 -0.22537
 H326 H 0.58638 0.46247 -0.17286
 H327 H 0.56557 0.38587 -0.09730
 H328 H 0.59517 0.35921 -0.15136
 C329 C 0.18253 0.85100 -0.33521
 C330 C 0.19951 0.86617 -0.36635
 C331 C 0.21274 0.85262 -0.40443
 C332 C 0.20914 0.82368 -0.41228
 C333 C 0.19268 0.80832 -0.38047
 C334 C 0.17971 0.82183 -0.34183
 C335 C 0.16624 0.86604 -0.29853
 C336 C 0.16481 0.85657 -0.25017
 C337 C 0.14886 0.87075 -0.21620
 C338 C 0.13365 0.89439 -0.23019
 C339 C 0.13512 0.90361 -0.27885
 C340 C 0.15137 0.88976 -0.31243
 C341 C 0.11565 0.90894 -0.19499
 C342 C 0.11102 0.93810 -0.19877
 C343 C 0.09225 0.95135 -0.16892
 C344 C 0.07811 0.93591 -0.13384
 C345 C 0.08353 0.90711 -0.12824
 C346 C 0.10193 0.89369 -0.15878
 H347 H 0.20207 0.88865 -0.36180
 H348 H 0.22515 0.86487 -0.42886
 H349 H 0.18918 0.78610 -0.38660
 H350 H 0.16647 0.80978 -0.31860
 H351 H 0.17623 0.83837 -0.23862
 H352 H 0.14858 0.86325 -0.17897
 H353 H 0.12321 0.92118 -0.29150
 H354 H 0.15179 0.89716 -0.34976
 H355 H 0.12171 0.95074 -0.22518
 H356 H 0.08864 0.97367 -0.17355
 H357 H 0.07276 0.89471 -0.10156
 H358 H 0.10463 0.87120 -0.15508
 C359 C 0.33064 0.67799 -0.34006
 C360 C 0.32899 0.70750 -0.34120
 C361 C 0.31583 0.72119 -0.37960
 C362 C 0.30368 0.70559 -0.41729
 C363 C 0.30486 0.67599 -0.41494
 C364 C 0.31797 0.66243 -0.37681
 C365 C 0.34677 0.66319 -0.30264
 C366 C 0.36384 0.64120 -0.31672
 C367 C 0.37847 0.62628 -0.28210
 C368 C 0.37636 0.63283 -0.23235
 C369 C 0.35979 0.65532 -0.21820
 C370 C 0.34515 0.67043 -0.25310
 C371 C 0.39153 0.61599 -0.19600
 C372 C 0.40443 0.62888 -0.15631
 C373 C 0.42075 0.61304 -0.12510
 C374 C 0.42451 0.58413 -0.13326
 C375 C 0.41070 0.57108 -0.17155
 C376 C 0.39430 0.58678 -0.20236
 H377 H 0.33895 0.72000 -0.31366
 H378 H 0.31649 0.74396 -0.38116
 H379 H 0.29554 0.66319 -0.44284
 H380 H 0.31853 0.63964 -0.37641
 H381 H 0.36600 0.63561 -0.35476
 H382 H 0.39165 0.60966 -0.29443
 H383 H 0.35769 0.66082 -0.18013
 H384 H 0.33210 0.68728 -0.24130
 H385 H 0.40278 0.65135 -0.15055
 H386 H 0.43120 0.62360 -0.09579
 H387 H 0.41295 0.54875 -0.17830
 H388 H 0.38408 0.57606 -0.23177
 C389 C -0.19522 1.15147 -0.33615
 C390 C -0.21056 1.13519 -0.36830
 C391 C -0.22453 1.14786 -0.40648
 C392 C -0.22366 1.17725 -0.41360
 C393 C -0.20841 1.19351 -0.38075
 C394 C -0.19464 1.18080 -0.34219
 C395 C -0.17845 1.13762 -0.29862
 C396 C -0.17775 1.14758 -0.25048
 C397 C -0.16157 1.13439 -0.21559
 C398 C -0.14552 1.11119 -0.22836
 C399 C -0.14614 1.10154 -0.27680
 C400 C -0.16252 1.11446 -0.31134
 C401 C -0.12765 1.09732 -0.19209
 C402 C -0.12283 1.06818 -0.19466
 C403 C -0.10398 1.05549 -0.16430
 C404 C -0.08987 1.07146 -0.12992
 C405 C -0.09562 1.10025 -0.12522
 C406 C -0.11421 1.11312 -0.15627
 H407 H -0.21151 1.11254 -0.36416
 H408 H -0.23611 1.13455 -0.43059
 H409 H -0.20588 1.21592 -0.38633
 H410 H -0.18248 1.19375 -0.31847
 H411 H -0.18997 1.16535 -0.23976
 H412 H -0.16184 1.14220 -0.17858
 H413 H -0.13353 1.08431 -0.28847
 H414 H -0.16228 1.10671 -0.34843
 H415 H -0.13335 1.05516 -0.22071
 H416 H -0.10015 1.03316 -0.16822
 H417 H -0.08491 1.11303 -0.09906
 H418 H -0.11720 1.13562 -0.15344
 C419 C 0.69214 0.64445 -0.33801
 C420 C 0.70391 0.62643 -0.37231
 C421 C 0.71909 0.63724 -0.41055
 C422 C 0.72323 0.66645 -0.41546
 C423 C 0.71193 0.68445 -0.38015
 C424 C 0.69673 0.67353 -0.34167
 C425 C 0.67382 0.63282 -0.30061
 C426 C 0.67502 0.64167 -0.25181
 C427 C 0.65791 0.62986 -0.21689
 C428 C 0.63923 0.60912 -0.23027
 C429 C 0.63770 0.60092 -0.27938
 C430 C 0.65481 0.61252 -0.31400
 C431 C 0.62117 0.59590 -0.19383
 C432 C 0.61485 0.56716 -0.19760
 C433 C 0.59575 0.55507 -0.16716
 C434 C 0.58274 0.57130 -0.13170
 C435 C 0.59001 0.59964 -0.12582
 C436 C 0.60903 0.61189 -0.15679
 H437 H 0.70106 0.60387 -0.36991
 H438 H 0.72769 0.62262 -0.43644
 H439 H 0.71355 0.70709 -0.38369
 H440 H 0.68753 0.68792 -0.31611
 H441 H 0.68955 0.65726 -0.24055
 H442 H 0.65965 0.63655 -0.17933
 H443 H 0.62303 0.58564 -0.29127
 H444 H 0.65298 0.60581 -0.35154
 H445 H 0.62437 0.55404 -0.22477
 H446 H 0.59079 0.53306 -0.17201
 H447 H 0.58023 0.61259 -0.09872
 H448 H 0.61338 0.63410 -0.15304
 C449 C 0.16378 1.18233 -0.32752
 C450 C 0.19158 1.18004 -0.33432
 C451 C 0.20389 1.19258 -0.37459
 C452 C 0.18866 1.20778 -0.40853
 C453 C 0.16105 1.21062 -0.40134
 C454 C 0.14872 1.19810 -0.36115
 C455 C 0.15019 1.16684 -0.28755
 C456 C 0.12853 1.17893 -0.26252
 C457 C 0.11409 1.16325 -0.22836
 C458 C 0.12097 1.13513 -0.21856
 C459 C 0.14328 1.12342 -0.24216
 C460 C 0.15772 1.13908 -0.27626
 C461 C 0.10386 1.11750 -0.18654
 C462 C 0.09748 1.08981 -0.20027
 C463 C 0.07990 1.07370 -0.17234
 C464 C 0.06829 1.08487 -0.13002
 C465 C 0.07514 1.11226 -0.11544
 C466 C 0.09271 1.12847 -0.14353
 H467 H 0.20374 1.16824 -0.30886
 H468 H 0.22520 1.18991 -0.37993
 H469 H 0.14896 1.22201 -0.42753
 H470 H 0.12723 1.19986 -0.35745
 H471 H 0.12245 1.20038 -0.26999
 H472 H 0.09689 1.17281 -0.21105
 H473 H 0.14927 1.10191 -0.23491
 H474 H 0.17414 1.12905 -0.29517
 H475 H 0.10541 1.08088 -0.23354
 H476 H 0.07501 1.05264 -0.18448
 H477 H 0.06652 1.12136 -0.08287
 H478 H 0.09746 1.14964 -0.13179
 C479 C 0.31789 0.33967 -0.32837
 C480 C 0.29146 0.34556 -0.34276
 C481 C 0.28013 0.33176 -0.38277
 C482 C 0.29498 0.31173 -0.40875
 C483 C 0.32114 0.30547 -0.39404
 C484 C 0.33248 0.31924 -0.35420
 C485 C 0.33091 0.35579 -0.28854
 C486 C 0.34876 0.34248 -0.25639
 C487 C 0.36326 0.35815 -0.22242
 C488 C 0.36018 0.38751 -0.21968
 C489 C 0.34144 0.40067 -0.25036
 C490 C 0.32699 0.38499 -0.28445
 C491 C 0.37781 0.40445 -0.18744
 C492 C 0.38866 0.43000 -0.20412
 C493 C 0.40719 0.44475 -0.17592
 C494 C 0.41537 0.43422 -0.13050
 C495 C 0.40391 0.40921 -0.11297
 C496 C 0.38529 0.39448 -0.14114
 H497 H 0.27965 0.36102 -0.32340
 H498 H 0.26000 0.33706 -0.39406
 H499 H 0.33298 0.29032 -0.41414
 H500 H 0.35303 0.31460 -0.34473
 H501 H 0.35194 0.31995 -0.25815
 H502 H 0.37768 0.34737 -0.19965
 H503 H 0.33832 0.42320 -0.24868
 H504 H 0.31354 0.39594 -0.30890
 H505 H 0.38364 0.43809 -0.23985
 H506 H 0.41569 0.46398 -0.19037
 H507 H 0.40973 0.40072 -0.07792
 H508 H 0.37699 0.37509 -0.12694
 C509 C -0.15283 0.80760 -0.33233
 C510 C -0.18063 0.80751 -0.33985
 C511 C -0.19172 0.79217 -0.37838
 C512 C -0.17520 0.77641 -0.40942
 C513 C -0.14761 0.77544 -0.40045
 C514 C -0.13652 0.79087 -0.36226
 C515 C -0.14052 0.82686 -0.29634
 C516 C -0.11849 0.84339 -0.31001
 C517 C -0.10704 0.86221 -0.27717
 C518 C -0.11724 0.86484 -0.22976
 C519 C -0.13914 0.84816 -0.21575
 C520 C -0.15085 0.82949 -0.24895
 C521 C -0.10460 0.88482 -0.19537
 C522 C -0.09778 0.87638 -0.14791
 C523 C -0.08316 0.89436 -0.11756
 C524 C -0.07536 0.92113 -0.13408
 C525 C -0.08334 0.93002 -0.18065
 C526 C -0.09773 0.91202 -0.21103
 H527 H -0.19358 0.82045 -0.31756
 H528 H -0.21301 0.79352 -0.38526
 H529 H -0.13455 0.76349 -0.42417
 H530 H -0.11507 0.79034 -0.35688
 H531 H -0.11034 0.84206 -0.34649
 H532 H -0.08998 0.87457 -0.28873
 H533 H -0.14738 0.84988 -0.17940
 H534 H -0.16781 0.81693 -0.23756
 H535 H -0.10277 0.85547 -0.13506
 H536 H -0.07733 0.88702 -0.08174
 H537 H -0.07777 0.95060 -0.19427
 H538 H -0.10309 0.91916 -0.24722
 C539 C 0.32739 0.68173 0.32471
 C540 C 0.34295 0.69856 0.35586
 C541 C 0.33143 0.71171 0.39614
 C542 C 0.30412 0.70844 0.40595
 C543 C 0.28832 0.69216 0.37456
 C544 C 0.29985 0.67893 0.33417
 C545 C 0.34034 0.66584 0.28454
 C546 C 0.33346 0.63762 0.27572
 C547 C 0.34773 0.62166 0.24179
 C548 C 0.36919 0.63356 0.21590
 C549 C 0.37528 0.66213 0.22315
 C550 C 0.36102 0.67808 0.25708
 C551 C 0.38640 0.61582 0.18424
 C552 C 0.39677 0.62634 0.14023
 C553 C 0.41476 0.61034 0.11273
 C554 C 0.42277 0.58356 0.12880
 C555 C 0.41182 0.57272 0.17200
 C556 C 0.39385 0.58866 0.19941
 H557 H 0.36427 0.70073 0.35015
 H558 H 0.34393 0.72396 0.42039
 H559 H 0.26723 0.68925 0.38196
 H560 H 0.28732 0.66627 0.31065
 H561 H 0.31778 0.62750 0.29651
 H562 H 0.34232 0.59981 0.23652
 H563 H 0.39182 0.67188 0.20409
 H564 H 0.36655 0.69988 0.26258
 H565 H 0.39116 0.64705 0.12730
 H566 H 0.42280 0.61916 0.07943
 H567 H 0.41762 0.55213 0.18528
 H568 H 0.38655 0.58008 0.23345
 C569 C -0.19972 1.14937 0.33343
 C570 C -0.19748 1.17860 0.34085
 C571 C -0.21093 1.19176 0.37922
 C572 C -0.22661 1.17600 0.41192
 C573 C -0.22917 1.14688 0.40411
 C574 C -0.21647 1.13389 0.36481
 C575 C -0.18319 1.13485 0.29567
 C576 C -0.17404 1.10720 0.30352
 C577 C -0.15692 1.09421 0.27037
 C578 C -0.14762 1.10870 0.22901
 C579 C -0.15734 1.13602 0.22021
 C580 C -0.17510 1.14881 0.25284
 C581 C -0.12693 1.09573 0.19691
 C582 C -0.12589 1.10146 0.14654
 C583 C -0.10595 1.08944 0.11727
 C584 C -0.08705 1.07106 0.13767
 C585 C -0.08811 1.06524 0.18769
 C586 C -0.10752 1.07767 0.21700
 H587 H -0.18434 1.19128 0.31853
 H588 H -0.20764 1.21404 0.38514
 H589 H -0.24125 1.13413 0.42836
 H590 H -0.21951 1.11155 0.35967
 H591 H -0.17930 1.09570 0.33614
 H592 H -0.15061 1.07285 0.27783
 H593 H -0.15063 1.14797 0.18895
 H594 H -0.18213 1.16982 0.24468
 H595 H -0.14062 1.11497 0.12955
 H596 H -0.10556 1.09416 0.07868
 H597 H -0.07353 1.05145 0.20452
 H598 H -0.10693 1.07339 0.25571
 C599 C 0.66976 0.32945 0.32761
 C600 C 0.65394 0.31371 0.36002
 C601 C 0.66541 0.30063 0.40046
 C602 C 0.69292 0.30288 0.40914
 C603 C 0.70897 0.31811 0.37660
 C604 C 0.69747 0.33134 0.33609
 C605 C 0.65695 0.34502 0.28687
 C606 C 0.66431 0.37294 0.27660
 C607 C 0.65013 0.38869 0.24215
 C608 C 0.62833 0.37684 0.21715
 C609 C 0.62178 0.34851 0.22584
 C610 C 0.63592 0.33279 0.26032
 C611 C 0.61122 0.39442 0.18501
 C612 C 0.60051 0.38349 0.14159
 C613 C 0.58244 0.39930 0.11387
 C614 C 0.57467 0.42629 0.12915
 C615 C 0.58600 0.43756 0.17168
 C616 C 0.60407 0.42181 0.19929
 H617 H 0.63250 0.31227 0.35503
 H618 H 0.65277 0.28912 0.42555
 H619 H 0.73025 0.32011 0.38306
 H620 H 0.71017 0.34318 0.31158
 H621 H 0.68030 0.38301 0.29666
 H622 H 0.65587 0.41036 0.23579
 H623 H 0.60498 0.33881 0.20751
 H624 H 0.63002 0.31120 0.26700
 H625 H 0.60587 0.36258 0.12937
 H626 H 0.57411 0.39016 0.08109
 H627 H 0.58042 0.45833 0.18431
 H628 H 0.61166 0.43071 0.23285
 C629 C 0.18284 0.84798 0.32785
 C630 C 0.20998 0.85315 0.33801
 C631 C 0.22228 0.84065 0.37842
 C632 C 0.20762 0.82281 0.40913
 C633 C 0.18068 0.81738 0.39885
 C634 C 0.16841 0.82977 0.35853
 C635 C 0.16903 0.86256 0.28712
 C636 C 0.14990 0.84831 0.25887
 C637 C 0.13472 0.86275 0.22421
 C638 C 0.13833 0.89180 0.21699
 C639 C 0.15828 0.90579 0.24371
 C640 C 0.17348 0.89132 0.27838
 C641 C 0.11994 0.90770 0.18457
 C642 C 0.10972 0.93389 0.19943
 C643 C 0.09041 0.94772 0.17155
 C644 C 0.08086 0.93568 0.12822
 C645 C 0.09172 0.91002 0.11234
 C646 C 0.11105 0.89614 0.14029
 H647 H 0.22163 0.86695 0.31488
 H648 H 0.24307 0.84517 0.38618
 H649 H 0.16906 0.80386 0.42256
 H650 H 0.14738 0.82578 0.35226
 H651 H 0.14628 0.82606 0.26432
 H652 H 0.11938 0.85140 0.20454
 H653 H 0.16176 0.92809 0.23852
 H654 H 0.18794 0.90293 0.29975
 H655 H 0.11586 0.94319 0.23363
 H656 H 0.08243 0.96750 0.18466
 H657 H 0.08481 0.90034 0.07893
 H658 H 0.11880 0.87617 0.12760
   
