data_POSCAR
  _audit_creation_date              2014-09-24
  _audit_creation_method            'ToBaCCo'
  _symmetry_space_group_name_H-M    'P1'
  _symmetry_Int_Tables_number       1
  _symmetry_cell_setting            triclinic
  loop_
  _symmetry_equiv_pos_as_xyz
 x,y,z
_cell_length_a 38.4678
_cell_length_b 32.3707
_cell_length_c 31.5371
_cell_angle_alpha 90.544100
_cell_angle_beta 89.655400
_cell_angle_gamma 89.844900
loop_
  _atom_site_label
  _atom_site_type_symbol
  _atom_site_fract_x
  _atom_site_fract_y
  _atom_site_fract_z
C1 C 1.20537 0.25975 0.30837
 H2 H 1.20888 0.22662 0.30981
 C3 C 1.17850 0.27849 0.33127
 H4 H 1.16161 0.25971 0.35077
 C5 C 1.22214 0.32406 0.27943
 H6 H 1.23896 0.34161 0.25890
 C7 C 1.19570 0.34423 0.30225
 H8 H 1.19220 0.37713 0.29829
 N9 N 1.22559 0.28231 0.28176
 C10 C 1.23906 0.18152 0.19158
 H11 H 1.26661 0.17480 0.19263
 C12 C 1.21688 0.15637 0.16755
 H13 H 1.22746 0.13014 0.15019
 C14 C 1.19165 0.22406 0.21240
 H15 H 1.18177 0.25097 0.22896
 C16 C 1.16871 0.19980 0.18926
 H17 H 1.14142 0.20775 0.19052
 Zn18 Zn 1.25482 0.24987 0.24619
 N19 N 1.22602 0.21435 0.21383
 C20 C 1.28161 0.17960 0.29083
 N21 N 1.28465 0.22066 0.28295
 C22 C 1.30912 0.24399 0.30264
 C23 C 1.33333 0.22580 0.32928
 C24 C 1.30453 0.16023 0.31879
 C25 C 1.26705 0.31235 0.18445
 C26 C 1.28772 0.33699 0.15815
 C27 C 1.33754 0.29605 0.17767
 C28 C 1.31609 0.27255 0.20366
 N29 N 1.28177 0.28195 0.20796
 H30 H 1.26136 0.16185 0.27564
 H31 H 1.31035 0.27681 0.29666
 H32 H 1.35318 0.24516 0.34343
 H33 H 1.30169 0.12740 0.32353
 H34 H 1.23937 0.31795 0.18663
 H35 H 1.27588 0.36191 0.14063
 H36 H 1.36465 0.28745 0.17475
 H37 H 1.32697 0.24653 0.22019
 C38 C 1.18122 0.16565 0.16589
 C39 C 1.17298 0.32105 0.32781
 C40 C 1.32366 0.32980 0.15565
 C41 C 1.33141 0.18335 0.33801
 C42 C 0.69668 -0.24458 0.31221
 H43 H 0.69852 -0.27793 0.31278
 C44 C 0.67066 -0.22447 0.33529
 H45 H 0.65256 -0.24243 0.35397
 C46 C 0.71740 -0.18080 0.28576
 H47 H 0.73544 -0.16406 0.26601
 C48 C 0.69192 -0.15930 0.30883
 H49 H 0.69033 -0.12607 0.30600
 N50 N 0.71865 -0.22275 0.28708
 C51 C 0.73703 -0.31495 0.18865
 H52 H 0.76478 -0.32020 0.19015
 C53 C 0.71667 -0.33820 0.16066
 H54 H 0.72879 -0.36158 0.14067
 C55 C 0.68730 -0.27809 0.21276
 H56 H 0.67580 -0.25424 0.23245
 C57 C 0.66613 -0.30043 0.18548
 H58 H 0.63847 -0.29437 0.18630
 Zn59 Zn 0.74883 -0.25488 0.25302
 N60 N 0.72194 -0.28611 0.21454
 C61 C 0.77006 -0.33118 0.28983
 N62 N 0.77325 -0.28932 0.29068
 C63 C 0.79219 -0.26988 0.32109
 C64 C 0.80994 -0.29270 0.35134
 C65 C 0.78735 -0.35529 0.31967
 C66 C 0.76504 -0.19525 0.19218
 C67 C 0.78633 -0.17005 0.16741
 C68 C 0.83644 -0.19991 0.20141
 C69 C 0.81422 -0.22447 0.22550
 N70 N 0.77921 -0.22127 0.22101
 H71 H 0.75402 -0.34600 0.26623
 H72 H 0.79356 -0.23650 0.32165
 H73 H 0.82553 -0.27668 0.37476
 H74 H 0.78533 -0.38855 0.31747
 H75 H 0.73711 -0.19404 0.18852
 H76 H 0.77465 -0.14926 0.14483
 H77 H 0.86419 -0.20385 0.20502
 H78 H 0.82506 -0.24645 0.24736
 C79 C 0.68077 -0.33081 0.15872
 C80 C 0.66784 -0.18143 0.33344
 C81 C 0.82249 -0.17164 0.17236
 C82 C 0.80775 -0.33592 0.35088
 C83 C 0.70948 0.26022 -0.19310
 H84 H 0.71364 0.22720 -0.19166
 C85 C 0.68271 0.27837 -0.16950
 H86 H 0.66659 0.25928 -0.14939
 C87 C 0.72429 0.32479 -0.22303
 H88 H 0.74012 0.34258 -0.24449
 C89 C 0.69794 0.34436 -0.19957
 H90 H 0.69363 0.37710 -0.20381
 N91 N 0.72868 0.28320 -0.22043
 C92 C 0.74096 0.18836 -0.31777
 H93 H 0.76865 0.18254 -0.31916
 C94 C 0.71822 0.16434 -0.34226
 H95 H 0.72854 0.13987 -0.36237
 C96 C 0.69366 0.22740 -0.29034
 H97 H 0.68388 0.25250 -0.27095
 C98 C 0.67020 0.20422 -0.31385
 H99 H 0.64284 0.21107 -0.31006
 Zn100 Zn 0.75756 0.25209 -0.25747
 N101 N 0.72827 0.21877 -0.29187
 C102 C 0.78790 0.17849 -0.22187
 N103 N 0.78708 0.22053 -0.22217
 C104 C 0.80795 0.24320 -0.19629
 C105 C 0.83234 0.22386 -0.17067
 C106 C 0.81160 0.15775 -0.19597
 C107 C 0.77014 0.31521 -0.31854
 C108 C 0.79096 0.34144 -0.34302
 C109 C 0.84163 0.30580 -0.31707
 C110 C 0.81991 0.28052 -0.29333
 N111 N 0.78496 0.28638 -0.29320
 H112 H 0.77059 0.16100 -0.24198
 H113 H 0.80635 0.27657 -0.19667
 H114 H 0.84958 0.24250 -0.15139
 H115 H 0.81276 0.12435 -0.19710
 H116 H 0.74215 0.31836 -0.31920
 H117 H 0.77847 0.36481 -0.36208
 H118 H 0.86899 0.29865 -0.31612
 H119 H 0.83123 0.25587 -0.27516
 C120 C 0.68231 0.17233 -0.34063
 C121 C 0.67626 0.32074 -0.17316
 C122 C 0.82750 0.33802 -0.34168
 C123 C 0.83452 0.18071 -0.17043
 C124 C 1.19846 -0.24844 -0.19150
 H125 H 1.20060 -0.28176 -0.19284
 C126 C 1.17256 -0.22993 -0.16684
 H127 H 1.15486 -0.24909 -0.14887
 C128 C 1.21819 -0.18305 -0.21480
 H129 H 1.23574 -0.16506 -0.23403
 C130 C 1.19283 -0.16315 -0.19009
 H131 H 1.19085 -0.12983 -0.19109
 N132 N 1.21984 -0.22500 -0.21583
 C133 C 1.23664 -0.31079 -0.32051
 H134 H 1.26443 -0.31594 -0.32041
 C135 C 1.21563 -0.33258 -0.34899
 H136 H 1.22729 -0.35481 -0.37070
 C137 C 1.18743 -0.27557 -0.29248
 H138 H 1.17635 -0.25291 -0.27104
 C139 C 1.16563 -0.29646 -0.32018
 H140 H 1.13799 -0.29059 -0.31793
 Zn141 Zn 1.24956 -0.25492 -0.25249
 N142 N 1.22211 -0.28365 -0.29233
 C143 C 1.27495 -0.33299 -0.22326
 N144 N 1.27477 -0.29124 -0.21782
 C145 C 1.29193 -0.27295 -0.18518
 C146 C 1.31170 -0.29654 -0.15760
 C147 C 1.29469 -0.35784 -0.19649
 C148 C 1.26639 -0.19168 -0.30953
 C149 C 1.28827 -0.16616 -0.33315
 C150 C 1.33771 -0.19990 -0.30156
 C151 C 1.31493 -0.22465 -0.27854
 N152 N 1.28000 -0.21983 -0.28248
 H153 H 1.26009 -0.34710 -0.24842
 H154 H 1.29039 -0.23980 -0.18087
 H155 H 1.32496 -0.28113 -0.13179
 H156 H 1.29548 -0.39094 -0.20182
 H157 H 1.23849 -0.18921 -0.31286
 H158 H 1.27707 -0.14379 -0.35447
 H159 H 1.36533 -0.20536 -0.29857
 H160 H 1.32528 -0.24823 -0.25813
 C161 C 1.17965 -0.32538 -0.34904
 C162 C 1.16930 -0.18689 -0.16629
 C163 C 1.32443 -0.16970 -0.32893
 C164 C 1.31413 -0.33949 -0.16394
 C165 C 0.25711 0.18853 0.69693
 H166 H 0.22919 0.18467 0.69760
 C167 C 0.27775 0.16206 0.67186
 H168 H 0.26557 0.13778 0.65338
 C169 C 0.30693 0.22514 0.71970
 H170 H 0.31833 0.25008 0.73777
 C171 C 0.32842 0.19954 0.69516
 H172 H 0.35620 0.20450 0.69625
 N173 N 0.27196 0.21919 0.72045
 C174 C 0.18880 0.24960 0.81008
 H175 H 0.18853 0.28274 0.80594
 C176 C 0.16200 0.23069 0.83250
 H177 H 0.14147 0.24973 0.84608
 C178 C 0.21515 0.18479 0.79531
 H179 H 0.23547 0.16703 0.77980
 C180 C 0.18944 0.16460 0.81884
 H181 H 0.19050 0.13128 0.82043
 Zn182 Zn 0.24317 0.25570 0.75299
 N183 N 0.21383 0.22645 0.79058
 C184 C 0.18090 0.26928 0.71071
 N185 N 0.21368 0.28436 0.71479
 C186 C 0.22419 0.31778 0.69223
 C187 C 0.20031 0.33964 0.66752
 C188 C 0.15641 0.28986 0.68644
 C189 C 0.29298 0.27291 0.81433
 C190 C 0.31570 0.29614 0.83931
 C191 C 0.29083 0.35825 0.81045
 C192 C 0.26860 0.33376 0.78582
 N193 N 0.27083 0.29179 0.78713
 H194 H 0.17344 0.24126 0.72662
 H195 H 0.25087 0.32803 0.69405
 H196 H 0.20916 0.36673 0.65092
 H197 H 0.13022 0.27775 0.68478
 H198 H 0.29345 0.23954 0.81594
 H199 H 0.33313 0.28017 0.86044
 H200 H 0.28926 0.39158 0.80835
 H201 H 0.24968 0.34847 0.76584
 C202 C 0.16174 0.18760 0.83690
 C203 C 0.31386 0.16777 0.67024
 C204 C 0.31547 0.33947 0.83669
 C205 C 0.16556 0.32614 0.66536
 C206 C 0.76114 0.68575 0.69126
 H207 H 0.73314 0.68267 0.69213
 C208 C 0.78101 0.65996 0.66453
 H209 H 0.76782 0.63715 0.64531
 C210 C 0.81189 0.71900 0.71621
 H211 H 0.82393 0.74225 0.73596
 C212 C 0.83267 0.69388 0.69022
 H213 H 0.86060 0.69806 0.69064
 N214 N 0.77681 0.71414 0.71689
 C215 C 0.70139 0.73208 0.81926
 H216 H 0.69851 0.76531 0.81812
 C217 C 0.68038 0.70917 0.84640
 H218 H 0.66136 0.72520 0.86604
 C219 C 0.72922 0.67121 0.79411
 H220 H 0.74818 0.65658 0.77344
 C221 C 0.70943 0.64707 0.82181
 H222 H 0.71316 0.61395 0.82107
 Zn223 Zn 0.74891 0.74707 0.75436
 N224 N 0.72435 0.71282 0.79276
 C225 C 0.68224 0.76693 0.72375
 N226 N 0.71635 0.77766 0.72147
 C227 C 0.72695 0.80897 0.69593
 C228 C 0.70256 0.83246 0.67357
 C229 C 0.65716 0.78932 0.70199
 C230 C 0.79969 0.76330 0.81496
 C231 C 0.82135 0.78630 0.84154
 C232 C 0.79531 0.84866 0.81476
 C233 C 0.77407 0.82438 0.78863
 N234 N 0.77713 0.78246 0.78850
 H235 H 0.67423 0.74078 0.74235
 H236 H 0.75432 0.81618 0.69347
 H237 H 0.71176 0.85750 0.65413
 H238 H 0.63013 0.78041 0.70493
 H239 H 0.80088 0.72990 0.81530
 H240 H 0.83870 0.76999 0.86246
 H241 H 0.79288 0.88199 0.81404
 H242 H 0.75510 0.83919 0.76874
 C243 C 0.68400 0.66602 0.84792
 C244 C 0.81746 0.66367 0.66406
 C245 C 0.81985 0.82974 0.84107
 C246 C 0.66693 0.82301 0.67704
 C247 C 0.75862 0.18811 0.19213
 H248 H 0.73064 0.18478 0.19241
 C249 C 0.77897 0.16292 0.16543
 H250 H 0.76653 0.14022 0.14519
 C251 C 0.80889 0.22155 0.21831
 H252 H 0.82058 0.24442 0.23882
 C253 C 0.83013 0.19723 0.19211
 H254 H 0.85798 0.20118 0.19405
 N255 N 0.77384 0.21632 0.21834
 C256 C 0.70106 0.23435 0.32361
 H257 H 0.70038 0.26776 0.32470
 C258 C 0.68009 0.21174 0.35110
 H259 H 0.66329 0.22795 0.37339
 C260 C 0.72310 0.17274 0.29231
 H261 H 0.73979 0.15765 0.26925
 C262 C 0.70268 0.14884 0.31945
 H263 H 0.70346 0.11558 0.31608
 Zn264 Zn 0.74550 0.24883 0.25549
 N265 N 0.72124 0.21470 0.29415
 C266 C 0.67843 0.27019 0.22719
 N267 N 0.71284 0.27849 0.22228
 C268 C 0.72394 0.30662 0.19343
 C269 C 0.69991 0.32895 0.16944
 C270 C 0.65365 0.29160 0.20396
 C271 C 0.79551 0.26725 0.31638
 C272 C 0.81727 0.29140 0.34169
 C273 C 0.79194 0.35248 0.31106
 C274 C 0.77061 0.32709 0.28626
 N275 N 0.77331 0.28523 0.28864
 H276 H 0.66995 0.24671 0.24894
 H277 H 0.75150 0.31196 0.18929
 H278 H 0.70957 0.35120 0.14698
 H279 H 0.62639 0.28463 0.20877
 H280 H 0.79646 0.23393 0.31855
 H281 H 0.83447 0.27613 0.36360
 H282 H 0.78993 0.38572 0.30826
 H283 H 0.75204 0.34094 0.26512
 C284 C 0.68043 0.16847 0.34897
 C285 C 0.81521 0.16750 0.16496
 C286 C 0.81623 0.33472 0.33851
 C287 C 0.66407 0.32177 0.17497
 C288 C 0.26560 0.69184 0.19308
 H289 H 0.23780 0.68746 0.19572
 C290 C 0.28501 0.66755 0.16452
 H291 H 0.27201 0.64448 0.14527
 C292 C 0.31638 0.72688 0.21523
 H293 H 0.32864 0.75010 0.23480
 C294 C 0.33668 0.70351 0.18703
 H295 H 0.36447 0.70849 0.18664
 N296 N 0.28159 0.72016 0.21847
 C297 C 0.21206 0.73240 0.32753
 H298 H 0.21194 0.76574 0.33042
 C299 C 0.19032 0.70900 0.35326
 H300 H 0.17363 0.72450 0.37621
 C301 C 0.23287 0.67199 0.29262
 H302 H 0.24924 0.65773 0.26870
 C303 C 0.21156 0.64728 0.31788
 H304 H 0.21145 0.61427 0.31229
 Zn305 Zn 0.25451 0.75014 0.25931
 N306 N 0.23179 0.71383 0.29692
 C307 C 0.18626 0.76859 0.23418
 N308 N 0.21993 0.78080 0.23032
 C309 C 0.22869 0.81342 0.20559
 C310 C 0.20289 0.83618 0.18497
 C311 C 0.15980 0.79027 0.21421
 C312 C 0.30867 0.76585 0.31531
 C313 C 0.33074 0.78849 0.34161
 C314 C 0.29759 0.84982 0.32578
 C315 C 0.27658 0.82597 0.29898
 N316 N 0.28290 0.78488 0.29361
 H317 H 0.17971 0.74168 0.25247
 H318 H 0.25572 0.82206 0.20230
 H319 H 0.21074 0.86228 0.16616
 H320 H 0.13319 0.78002 0.21808
 H321 H 0.31217 0.73280 0.31198
 H322 H 0.35040 0.77143 0.35841
 H323 H 0.29213 0.88257 0.32915
 H324 H 0.25502 0.84031 0.28292
 C325 C 0.18934 0.66600 0.34807
 C326 C 0.32104 0.67323 0.16115
 C327 C 0.32594 0.83159 0.34674
 C328 C 0.16773 0.82473 0.18945
 O329 O 1.04573 0.07652 0.07865
 O330 O 1.08537 0.03831 0.04031
 C331 C 1.07735 0.06674 0.06786
 O332 O 0.95409 -0.07427 0.08532
 O333 O 0.91379 -0.04076 0.04466
 C334 C 0.92234 -0.06646 0.07426
 O335 O 1.05106 -0.06613 0.08692
 O336 O 1.08781 -0.02998 0.04342
 C337 C 1.08190 -0.05501 0.07441
 O338 O 0.94875 0.07610 0.07545
 O339 O 0.91114 0.03255 0.04098
 C340 C 0.91770 0.06389 0.06573
 Zr341 Zr 0.99776 0.05268 0.05710
 O342 O 0.99419 0.05472 0.12413
 O343 O 0.99935 0.11800 0.05576
 Zr344 Zr 1.00162 -0.05154 0.06159
 O345 O 1.00066 -0.05383 0.12853
 O346 O 1.00751 -0.11665 0.05958
 O347 O 1.03054 0.00256 0.06758
 O348 O 0.96938 -0.00034 0.06762
 O349 O 0.94795 0.06720 -0.07013
 O350 O 0.91091 0.02763 -0.03015
 C351 C 0.91705 0.05527 -0.05873
 O352 O 1.05095 -0.07444 -0.06895
 O353 O 1.08779 -0.03324 -0.03033
 C354 C 1.08175 -0.06136 -0.05874
 O355 O 0.95382 -0.08347 -0.06408
 O356 O 0.91367 -0.04395 -0.02784
 C357 C 0.92205 -0.07370 -0.05396
 O358 O 1.04615 0.06922 -0.07368
 O359 O 1.08531 0.03328 -0.03353
 C360 C 1.07774 0.05921 -0.06303
 Zr361 Zr 0.99764 0.04731 -0.04980
 O362 O 0.99423 0.04234 -0.11665
 O363 O 0.99872 0.11255 -0.05376
 Zr364 Zr 1.00139 -0.05685 -0.04500
 O365 O 0.99765 -0.06126 -0.11181
 O366 O 1.00779 -0.12170 -0.04124
 Zr367 Zr 1.05116 0.00046 0.00550
 Zr368 Zr 0.94742 -0.00459 0.00674
 O369 O 0.96925 -0.00661 -0.05472
 O370 O 1.03039 -0.00369 -0.05611
 O371 O 0.96634 0.05651 0.00365
 O372 O 1.03214 -0.06028 0.00827
 O373 O 1.02755 0.05905 0.00301
 O374 O 0.97050 -0.06376 0.00908
 H375 H 0.95363 0.00076 0.09258
 H376 H 1.04904 -0.08341 0.00910
 H377 H 0.95367 -0.00864 -0.07955
 H378 H 1.04226 0.08410 0.00177
 H379 H 0.98534 -0.12872 0.04970
 H380 H 0.98841 -0.13250 -0.02386
 H381 H 1.01478 -0.04186 -0.12390
 H382 H 1.01590 0.02911 -0.12708
 H383 H 0.97915 0.12345 -0.03649
 H384 H 0.98199 0.12716 0.03483
 H385 H 1.01558 0.04195 0.13547
 H386 H 0.99693 -0.02527 0.13884
 O387 O 1.04511 0.58810 0.56304
 O388 O 1.08442 0.54995 0.52415
 C389 C 1.07658 0.57861 0.55145
 O390 O 0.95454 0.43613 0.57316
 O391 O 0.91316 0.46913 0.53384
 C392 C 0.92246 0.44317 0.56289
 O393 O 1.05114 0.44452 0.57263
 O394 O 1.08726 0.48055 0.52833
 C395 C 1.08178 0.45550 0.55941
 O396 O 0.94851 0.58679 0.56262
 O397 O 0.91011 0.54274 0.53002
 C398 C 0.91734 0.57418 0.55446
 Zr399 Zr 0.99713 0.56321 0.54319
 O400 O 0.99493 0.56538 0.61030
 O401 O 0.99836 0.62854 0.54166
 Zr402 Zr 1.00154 0.45927 0.54844
 O403 O 1.00189 0.45766 0.61542
 O404 O 1.00767 0.39417 0.54696
 O405 O 1.03045 0.51349 0.55325
 O406 O 0.96911 0.51023 0.55506
 O407 O 0.94587 0.57688 0.41738
 O408 O 0.90904 0.53766 0.45803
 C409 C 0.91517 0.56543 0.42943
 O410 O 1.04843 0.43463 0.41681
 O411 O 1.08567 0.47673 0.45370
 C412 C 1.07932 0.44822 0.42586
 O413 O 0.95151 0.42574 0.42518
 O414 O 0.91180 0.46571 0.46170
 C415 C 0.91989 0.43547 0.43607
 O416 O 1.04303 0.57779 0.41044
 O417 O 1.08357 0.54471 0.45124
 C418 C 1.07488 0.56933 0.42090
 Zr419 Zr 0.99530 0.55660 0.43650
 O420 O 0.99023 0.55054 0.36989
 O421 O 0.99655 0.62173 0.43119
 Zr422 Zr 0.99938 0.45302 0.44210
 O423 O 0.99411 0.44886 0.37541
 O424 O 1.00604 0.38821 0.44580
 Zr425 Zr 1.05024 0.51102 0.49074
 Zr426 Zr 0.94597 0.50551 0.49493
 O427 O 0.96675 0.50282 0.43293
 O428 O 1.02825 0.50598 0.42979
 O429 O 0.96484 0.56651 0.49060
 O430 O 1.03122 0.45029 0.49448
 O431 O 1.02598 0.56926 0.48829
 O432 O 0.96948 0.44651 0.49702
 H433 H 0.95376 0.51132 0.58038
 H434 H 1.04808 0.42710 0.49503
 H435 H 0.95070 0.50053 0.40856
 H436 H 1.04033 0.59454 0.48622
 H437 H 0.98547 0.38181 0.53757
 H438 H 0.98747 0.37746 0.46447
 H439 H 1.01223 0.46653 0.36267
 H440 H 1.01164 0.53719 0.35882
 H441 H 0.97809 0.63313 0.44989
 H442 H 0.98083 0.63756 0.52090
 H443 H 1.01671 0.55303 0.62101
 H444 H 0.99698 0.48601 0.62564
 O445 O 0.54460 0.08309 0.57604
 O446 O 0.58416 0.04661 0.53581
 C447 C 0.57617 0.07442 0.56399
 O448 O 0.45646 -0.07102 0.58423
 O449 O 0.41444 -0.03806 0.54578
 C450 C 0.42427 -0.06398 0.57446
 O451 O 0.55298 -0.06006 0.58222
 O452 O 0.58811 -0.02215 0.53833
 C453 C 0.58334 -0.04818 0.56886
 O454 O 0.44741 0.07912 0.57689
 O455 O 0.40988 0.03495 0.54307
 C456 C 0.41638 0.06610 0.56810
 Zr457 Zr 0.49653 0.05777 0.55626
 O458 O 0.49459 0.05895 0.62340
 O459 O 0.49650 0.12315 0.55574
 Zr460 Zr 0.50286 -0.04622 0.55906
 O461 O 0.50308 -0.04904 0.62595
 O462 O 0.51030 -0.11110 0.55626
 O463 O 0.53081 0.00871 0.56472
 O464 O 0.46965 0.00371 0.56710
 O465 O 0.44264 0.07286 0.43249
 O466 O 0.40785 0.03003 0.47165
 C467 C 0.41238 0.05910 0.44418
 O468 O 0.54968 -0.06639 0.42727
 O469 O 0.58652 -0.02376 0.46424
 C470 C 0.58041 -0.05223 0.43622
 O471 O 0.45324 -0.08007 0.43711
 O472 O 0.41269 -0.04107 0.47318
 C473 C 0.42138 -0.07123 0.44768
 O474 O 0.53971 0.07673 0.42247
 O475 O 0.58151 0.04428 0.46182
 C476 C 0.57183 0.06914 0.43205
 Zr477 Zr 0.49329 0.05353 0.44952
 O478 O 0.48728 0.04942 0.38292
 O479 O 0.49323 0.11885 0.44639
 Zr480 Zr 0.50019 -0.05017 0.45252
 O481 O 0.49399 -0.05136 0.38582
 O482 O 0.50852 -0.11480 0.45198
 Zr483 Zr 0.54998 0.00818 0.50188
 Zr484 Zr 0.44614 -0.00069 0.50708
 O485 O 0.46624 -0.00129 0.44479
 O486 O 0.52750 0.00404 0.44113
 O487 O 0.46343 0.06109 0.50428
 O488 O 0.53229 -0.05319 0.50455
 O489 O 0.52457 0.06582 0.50108
 O490 O 0.47090 -0.05896 0.50764
 H491 H 0.45467 0.00389 0.59277
 H492 H 0.54957 -0.07595 0.50443
 H493 H 0.44988 -0.00370 0.42074
 H494 H 0.53853 0.09144 0.49946
 H495 H 0.48812 -0.12391 0.54748
 H496 H 0.49383 -0.12649 0.47470
 H497 H 0.51362 -0.03597 0.37324
 H498 H 0.50789 0.03477 0.37131
 H499 H 0.47437 0.12916 0.46515
 H500 H 0.47788 0.13203 0.53635
 H501 H 0.51705 0.04822 0.63386
 H502 H 0.50373 -0.02025 0.63647
 O503 O 0.54843 0.58121 0.06829
 O504 O 0.58779 0.54397 0.02845
 C505 C 0.57992 0.57191 0.05658
 O506 O 0.45683 0.42720 0.06966
 O507 O 0.41592 0.46521 0.03437
 C508 C 0.42487 0.43666 0.06085
 O509 O 0.55347 0.43500 0.07027
 O510 O 0.59017 0.47358 0.02890
 C511 C 0.58429 0.44657 0.05822
 O512 O 0.45179 0.58194 0.06592
 O513 O 0.41337 0.53870 0.03235
 C514 C 0.42049 0.56990 0.05708
 Zr515 Zr 0.50033 0.55691 0.04805
 O516 O 0.49792 0.55241 0.11499
 O517 O 0.50012 0.62191 0.05488
 Zr518 Zr 0.50388 0.45376 0.04891
 O519 O 0.50369 0.46210 0.11544
 O520 O 0.50674 0.38890 0.05573
 O521 O 0.53368 0.50688 0.05574
 O522 O 0.47137 0.50416 0.05715
 O523 O 0.44939 0.57715 -0.07667
 O524 O 0.41225 0.53657 -0.03810
 C525 C 0.41853 0.56587 -0.06486
 O526 O 0.55127 0.43337 -0.08363
 O527 O 0.58873 0.47371 -0.04499
 C528 C 0.58223 0.44629 -0.07390
 O529 O 0.45416 0.42534 -0.07678
 O530 O 0.41467 0.46429 -0.03883
 C531 C 0.42257 0.43500 -0.06564
 O532 O 0.54604 0.57841 -0.08355
 O533 O 0.58655 0.54224 -0.04570
 C534 C 0.57787 0.56896 -0.07426
 Zr535 Zr 0.49875 0.55532 -0.05892
 O536 O 0.49403 0.55187 -0.12575
 O537 O 0.49969 0.62066 -0.06121
 Zr538 Zr 0.50219 0.45146 -0.05819
 O539 O 0.49735 0.45054 -0.12503
 O540 O 0.50780 0.38638 -0.05760
 Zr541 Zr 0.55338 0.50681 -0.00682
 Zr542 Zr 0.44897 0.50200 -0.00352
 O543 O 0.46991 0.50198 -0.06538
 O544 O 0.53145 0.50468 -0.06793
 O545 O 0.46844 0.56293 -0.00461
 O546 O 0.53354 0.44630 -0.00561
 O547 O 0.52939 0.56530 -0.00647
 O548 O 0.47230 0.44291 -0.00361
 H549 H 0.45565 0.50429 0.08217
 H550 H 0.55000 0.42272 -0.00626
 H551 H 0.45383 0.50107 -0.08980
 H552 H 0.54389 0.59052 -0.00741
 H553 H 0.51349 0.37723 0.02783
 H554 H 0.48945 0.37534 -0.03875
 H555 H 0.51596 0.46819 -0.13673
 H556 H 0.51561 0.53925 -0.13723
 H557 H 0.48188 0.63112 -0.04100
 H558 H 0.50201 0.63338 0.02606
 H559 H 0.52057 0.54160 0.12476
 H560 H 0.50426 0.43400 0.12761
 C561 C 1.15746 0.13882 0.14106
 C562 C 1.12670 0.15245 0.12685
 C563 C 1.10003 0.12645 0.10664
 C564 C 1.10599 0.09001 0.08747
 H565 H 1.11918 0.18432 0.13180
 H566 H 1.07400 0.13932 0.10659
 H567 H 1.16537 0.10715 0.13528
 H568 H 1.13212 0.07786 0.08438
 C569 C 1.15697 0.65009 0.62272
 C570 C 1.12595 0.66420 0.61002
 C571 C 1.09946 0.63906 0.58852
 C572 C 1.10529 0.60234 0.56991
 H573 H 1.11803 0.69542 0.61800
 H574 H 1.07347 0.65206 0.58836
 H575 H 1.16570 0.61940 0.61391
 H576 H 1.13128 0.58980 0.56699
 C577 C 0.65796 0.14621 0.63457
 C578 C 0.62596 0.15921 0.62410
 C579 C 0.59899 0.13336 0.60419
 C580 C 0.60492 0.09803 0.58292
 H581 H 0.61775 0.19029 0.63202
 H582 H 0.57268 0.14525 0.60648
 H583 H 0.66655 0.11544 0.62578
 H584 H 0.63115 0.08688 0.57774
 C585 C 0.65876 0.64372 0.13051
 C586 C 0.62855 0.65791 0.11539
 C587 C 0.60247 0.63245 0.09355
 C588 C 0.60850 0.59539 0.07576
 H589 H 0.62085 0.68957 0.12155
 H590 H 0.57661 0.64572 0.09211
 H591 H 0.66726 0.61249 0.12359
 H592 H 0.63449 0.58265 0.07385
 C593 C 0.84494 -0.14475 0.14599
 C594 C 0.87658 -0.13279 0.15864
 C595 C 0.90154 -0.10887 0.13307
 C596 C 0.89439 -0.08802 0.09750
 H597 H 0.88596 -0.14209 0.18938
 H598 H 0.92776 -0.10838 0.14539
 H599 H 0.83486 -0.13462 0.11586
 H600 H 0.86814 -0.08609 0.08557
 C601 C 0.84740 0.36511 0.63620
 C602 C 0.88378 0.36742 0.63948
 C603 C 0.90586 0.39319 0.61651
 C604 C 0.89665 0.42119 0.58466
 H605 H 0.89731 0.34874 0.66220
 H606 H 0.93309 0.39001 0.62453
 H607 H 0.83441 0.38711 0.61603
 H608 H 0.86974 0.42579 0.57610
 C609 C 0.34743 -0.14289 0.64539
 C610 C 0.38011 -0.13397 0.65687
 C611 C 0.40504 -0.10972 0.63155
 C612 C 0.39710 -0.08653 0.59787
 H613 H 0.39019 -0.14576 0.68631
 H614 H 0.43171 -0.11094 0.64231
 H615 H 0.33681 -0.13028 0.61659
 H616 H 0.37052 -0.08320 0.58751
 C617 C 0.34608 0.35720 0.12977
 C618 C 0.37969 0.36316 0.13921
 C619 C 0.40469 0.38807 0.11473
 C620 C 0.39706 0.41366 0.08282
 H621 H 0.39056 0.34835 0.16674
 H622 H 0.43146 0.38510 0.12476
 H623 H 0.33437 0.37314 0.10345
 H624 H 0.37047 0.41854 0.07309
 C625 C 0.86257 0.16121 -0.14571
 C626 C 0.86004 0.12400 -0.12792
 C627 C 0.88990 0.10673 -0.10492
 C628 C 0.88682 0.07354 -0.08027
 H629 H 0.83609 0.10657 -0.12991
 H630 H 0.91495 0.12168 -0.10825
 H631 H 0.88608 0.17903 -0.14087
 H632 H 0.86155 0.05946 -0.07572
 C633 C 0.82969 0.64075 0.38072
 C634 C 0.82590 0.60054 0.38976
 C635 C 0.85270 0.57777 0.41367
 C636 C 0.88641 0.58646 0.40824
 H637 H 0.80319 0.58369 0.37945
 H638 H 0.84483 0.55214 0.43330
 H639 H 0.85087 0.65766 0.39525
 H640 H 0.89388 0.61009 0.38586
 C641 C 0.35590 0.16672 0.36328
 C642 C 0.35518 0.12692 0.38025
 C643 C 0.38416 0.11187 0.40155
 C644 C 0.38277 0.07599 0.42569
 H645 H 0.33206 0.10804 0.37850
 H646 H 0.40825 0.12916 0.40001
 H647 H 0.37774 0.18607 0.37233
 H648 H 0.35784 0.06142 0.43141
 C649 C 0.33761 0.63463 -0.13827
 C650 C 0.36708 0.64987 -0.12212
 C651 C 0.39404 0.62497 -0.10158
 C652 C 0.38894 0.58830 -0.08314
 H653 H 0.37404 0.68171 -0.12778
 H654 H 0.41967 0.63876 -0.10106
 H655 H 0.33227 0.60187 -0.13638
 H656 H 0.36316 0.57524 -0.08047
 C657 C 1.13977 -0.16822 -0.14300
 C658 C 1.14065 -0.13033 -0.12610
 C659 C 1.10994 -0.11344 -0.10417
 C660 C 1.11211 -0.07911 -0.08070
 H661 H 1.16414 -0.11199 -0.12769
 H662 H 1.08538 -0.12959 -0.10690
 H663 H 1.11670 -0.18694 -0.13858
 H664 H 1.13700 -0.06394 -0.07682
 C665 C 1.14210 0.33938 0.34892
 C666 C 1.14034 0.37879 0.36152
 C667 C 1.10880 0.39503 0.38242
 C668 C 1.10967 0.43091 0.40345
 H669 H 1.16257 0.39893 0.35777
 H670 H 1.08506 0.37705 0.38158
 H671 H 1.12033 0.31917 0.35560
 H672 H 1.13399 0.44766 0.40569
 C673 C 0.63828 -0.16125 0.35534
 C674 C 0.63913 -0.12245 0.36993
 C675 C 0.60850 -0.10476 0.39138
 C676 C 0.61060 -0.06961 0.41357
 H677 H 0.66255 -0.10414 0.36722
 H678 H 0.58408 -0.12137 0.38986
 H679 H 0.61522 -0.17968 0.36095
 H680 H 0.63536 -0.05393 0.41642
 C681 C 0.64540 0.33841 -0.15147
 C682 C 0.64320 0.37787 -0.13919
 C683 C 0.61169 0.39367 -0.11791
 C684 C 0.61249 0.42947 -0.09678
 H685 H 0.66507 0.39844 -0.14352
 H686 H 0.58811 0.37540 -0.11847
 H687 H 0.62408 0.31775 -0.14417
 H688 H 0.63671 0.44642 -0.09466
 C689 C 1.13327 0.16928 -0.14244
 C690 C 1.13310 0.12898 -0.12713
 C691 C 1.10339 0.11246 -0.10834
 C692 C 1.10590 0.07706 -0.08380
 H693 H 1.15687 0.11101 -0.12702
 H694 H 1.07875 0.12862 -0.11062
 H695 H 1.11053 0.18831 -0.13595
 H696 H 1.13153 0.06433 -0.07781
 C697 C 1.16278 0.64263 0.37192
 C698 C 1.16427 0.60187 0.37866
 C699 C 1.13628 0.57979 0.40109
 C700 C 1.10267 0.59018 0.39725
 H701 H 1.18721 0.58434 0.36982
 H702 H 1.14361 0.55332 0.41983
 H703 H 1.14113 0.66015 0.38503
 H704 H 1.09514 0.61461 0.37591
 C705 C 0.65540 0.14541 0.37557
 C706 C 0.65908 0.10553 0.38584
 C707 C 0.63260 0.08305 0.41066
 C708 C 0.59852 0.09124 0.40765
 H709 H 0.68272 0.08903 0.37768
 H710 H 0.64142 0.05772 0.43007
 H711 H 0.63320 0.16250 0.38781
 H712 H 0.58955 0.11452 0.38580
 C713 C 0.66093 0.64363 -0.12635
 C714 C 0.66503 0.60200 -0.11541
 C715 C 0.63910 0.57936 -0.09470
 C716 C 0.60381 0.59002 -0.09616
 H717 H 0.68996 0.58705 -0.12011
 H718 H 0.64663 0.55063 -0.07993
 H719 H 0.63907 0.66039 -0.11272
 H720 H 0.59554 0.61464 -0.11688
 C721 C 0.84331 -0.14412 -0.13262
 C722 C 0.87479 -0.15717 -0.12022
 C723 C 0.90070 -0.13153 -0.09770
 C724 C 0.89374 -0.09756 -0.07426
 H725 H 0.88389 -0.18741 -0.13009
 H726 H 0.92726 -0.14258 -0.10000
 H727 H 0.83550 -0.11251 -0.12618
 H728 H 0.86721 -0.08721 -0.06961
 C729 C 0.84011 0.36189 0.36295
 C730 C 0.87169 0.34920 0.37524
 C731 C 0.89801 0.37577 0.39571
 C732 C 0.89136 0.41081 0.41749
 H733 H 0.88049 0.31843 0.36679
 H734 H 0.92452 0.36459 0.39340
 H735 H 0.83257 0.39384 0.36777
 H736 H 0.86489 0.42131 0.42233
 C737 C 0.34725 -0.14430 0.37058
 C738 C 0.37981 -0.15723 0.38561
 C739 C 0.40300 -0.13258 0.40850
 C740 C 0.39501 -0.09547 0.42986
 H741 H 0.39036 -0.18668 0.37551
 H742 H 0.42925 -0.14462 0.41068
 H743 H 0.34009 -0.11221 0.37557
 H744 H 0.36821 -0.08588 0.43401
 C745 C 0.34051 0.36560 -0.13939
 C746 C 0.37245 0.35217 -0.12937
 C747 C 0.39962 0.37765 -0.10895
 C748 C 0.39369 0.41156 -0.08510
 H749 H 0.38064 0.32161 -0.13948
 H750 H 0.42601 0.36644 -0.11284
 H751 H 0.33338 0.39744 -0.13302
 H752 H 0.36737 0.42192 -0.07884
 C753 C 1.13833 -0.15303 0.16941
 C754 C 1.14141 -0.12095 0.14321
 C755 C 1.11012 -0.10229 0.12443
 C756 C 1.11256 -0.07221 0.09586
 H757 H 1.16658 -0.10873 0.13470
 H758 H 1.08479 -0.11418 0.13325
 H759 H 1.11237 -0.16421 0.17636
 H760 H 1.13798 -0.06094 0.08658
 C761 C 1.13758 0.34833 0.64264
 C762 C 1.14091 0.38477 0.62338
 C763 C 1.11014 0.40407 0.60412
 C764 C 1.11252 0.43778 0.58019
 H765 H 1.16560 0.40056 0.62187
 H766 H 1.08500 0.38968 0.60887
 H767 H 1.11209 0.33405 0.64281
 H768 H 1.13775 0.45135 0.57396
 C769 C 0.63883 -0.15347 0.65578
 C770 C 0.64295 -0.11908 0.63293
 C771 C 0.61212 -0.09886 0.61451
 C772 C 0.61448 -0.06628 0.58879
 H773 H 0.66834 -0.10577 0.62770
 H774 H 0.58676 -0.11174 0.62153
 H775 H 0.61261 -0.16515 0.65982
 H776 H 0.63979 -0.05391 0.58071
 C777 C 0.63644 0.34410 0.15164
 C778 C 0.64144 0.37618 0.12578
 C779 C 0.61125 0.39604 0.10567
 C780 C 0.61471 0.42728 0.07849
 H781 H 0.66715 0.38820 0.11962
 H782 H 0.58552 0.38451 0.11319
 H783 H 0.60995 0.33376 0.15680
 H784 H 0.64042 0.43847 0.07039
 C785 C 0.83701 0.14007 0.13753
 C786 C 0.86804 0.15219 0.12269
 C787 C 0.89370 0.12570 0.10033
 C788 C 0.88831 0.08762 0.08433
 H789 H 0.87668 0.18342 0.12901
 H790 H 0.91930 0.13929 0.09736
 H791 H 0.82734 0.10950 0.13015
 H792 H 0.86268 0.07395 0.08449
 C793 C 0.84101 0.63689 0.63807
 C794 C 0.83128 0.61084 0.60672
 C795 C 0.85680 0.58602 0.58138
 C796 C 0.88957 0.59862 0.57518
 H797 H 0.80410 0.60632 0.59972
 H798 H 0.84820 0.55713 0.56746
 H799 H 0.86831 0.63906 0.64576
 H800 H 0.89758 0.62840 0.58750
 C801 C 0.33591 0.14004 0.64339
 C802 C 0.36613 0.15294 0.62678
 C803 C 0.39197 0.12690 0.60420
 C804 C 0.38695 0.08882 0.58801
 H805 H 0.37396 0.18470 0.63161
 H806 H 0.41727 0.14113 0.60064
 H807 H 0.32706 0.10880 0.63760
 H808 H 0.36152 0.07464 0.58863
 C809 C 0.34194 0.64607 0.13238
 C810 C 0.37223 0.65845 0.11557
 C811 C 0.39731 0.63195 0.09221
 C812 C 0.39152 0.59382 0.07649
 H813 H 0.38084 0.68981 0.12113
 H814 H 0.42283 0.64551 0.08822
 H815 H 0.33237 0.61527 0.12589
 H816 H 0.36589 0.58021 0.07757
   
