data_POSCAR
  _audit_creation_date              2014-09-24
  _audit_creation_method            'ToBaCCo'
  _symmetry_space_group_name_H-M    'P1'
  _symmetry_Int_Tables_number       1
  _symmetry_cell_setting            triclinic
  loop_
  _symmetry_equiv_pos_as_xyz
 x,y,z
_cell_length_a 31.9290
_cell_length_b 31.8130
_cell_length_c 39.4368
_cell_angle_alpha 89.880900
_cell_angle_beta 90.041700
_cell_angle_gamma 90.006500
loop_
  _atom_site_label
  _atom_site_type_symbol
  _atom_site_fract_x
  _atom_site_fract_y
  _atom_site_fract_z
B1 B 0.25886 0.24620 0.29204
 B2 B 0.21016 0.23429 0.27908
 B3 B 0.22268 0.28482 0.28609
 B4 B 0.27309 0.29266 0.27381
 B5 B 0.29060 0.24594 0.25853
 B6 B 0.25153 0.20951 0.26168
 B7 B 0.22492 0.27155 0.21859
 B8 B 0.27372 0.28331 0.23138
 B9 B 0.26099 0.23287 0.22465
 B10 B 0.21073 0.22515 0.23669
 B11 B 0.19309 0.27184 0.25204
 B12 B 0.23231 0.30825 0.24894
 B13 B 0.72770 0.77138 0.21304
 B14 B 0.71230 0.72203 0.22068
 B15 B 0.76200 0.73112 0.20877
 B16 B 0.77774 0.77721 0.22648
 B17 B 0.73676 0.79554 0.24996
 B18 B 0.69602 0.76104 0.24634
 B19 B 0.76058 0.71941 0.27634
 B20 B 0.77611 0.76901 0.26900
 B21 B 0.72638 0.75996 0.28067
 B22 B 0.71072 0.71394 0.26301
 B23 B 0.75164 0.69563 0.23954
 B24 B 0.79239 0.73020 0.24312
 B25 B 0.73673 0.21932 -0.22000
 B26 B 0.72420 0.26884 -0.22992
 B27 B 0.77338 0.25798 -0.21757
 B28 B 0.78643 0.20989 -0.23293
 B29 B 0.74446 0.19214 -0.25568
 B30 B 0.70579 0.22906 -0.25388
 B31 B 0.77254 0.26460 -0.28560
 B32 B 0.78522 0.21493 -0.27579
 B33 B 0.73620 0.22614 -0.28802
 B34 B 0.72301 0.27398 -0.27250
 B35 B 0.76491 0.29168 -0.24998
 B36 B 0.80384 0.25484 -0.25191
 B37 B 0.27198 0.76372 -0.28247
 B38 B 0.22210 0.77202 -0.26922
 B39 B 0.23899 0.72268 -0.27756
 B40 B 0.28943 0.71830 -0.26461
 B41 B 0.30340 0.76570 -0.24829
 B42 B 0.26202 0.79911 -0.25153
 B43 B 0.23917 0.73426 -0.20968
 B44 B 0.28889 0.72664 -0.22208
 B45 B 0.27227 0.77560 -0.21460
 B46 B 0.22194 0.77972 -0.22710
 B47 B 0.20778 0.73221 -0.24368
 B48 B 0.24990 0.69915 -0.24033
 B49 B 1.23194 1.27287 0.71029
 B50 B 1.21428 1.22439 0.71903
 B51 B 1.26461 1.23131 0.70805
 B52 B 1.28149 1.27758 0.72483
 B53 B 1.24030 1.29831 0.74674
 B54 B 1.19856 1.26502 0.74305
 B55 B 1.26117 1.22266 0.77586
 B56 B 1.27807 1.27146 0.76745
 B57 B 1.22778 1.26425 0.77814
 B58 B 1.21136 1.21810 0.76156
 B59 B 1.25231 1.19744 0.73951
 B60 B 1.29402 1.23084 0.74293
 B61 B 0.76419 0.74409 0.78881
 B62 B 0.71430 0.73541 0.77755
 B63 B 0.72933 0.78446 0.78749
 B64 B 0.77913 0.79162 0.77372
 B65 B 0.79370 0.74613 0.75387
 B66 B 0.75320 0.71140 0.75633
 B67 B 0.72665 0.77892 0.71928
 B68 B 0.77680 0.78772 0.73124
 B69 B 0.76116 0.73908 0.72049
 B70 B 0.71163 0.73130 0.73461
 B71 B 0.69697 0.77653 0.75415
 B72 B 0.73747 0.81175 0.75194
 B73 B 1.23724 0.72610 0.21324
 B74 B 1.28705 0.71656 0.22387
 B75 B 1.27200 0.76607 0.21527
 B76 B 1.22285 0.77297 0.23002
 B77 B 1.20830 0.72674 0.24835
 B78 B 1.24837 0.69163 0.24479
 B79 B 1.27605 0.75732 0.28334
 B80 B 1.22594 0.76684 0.27226
 B81 B 1.24134 0.71751 0.28127
 B82 B 1.29045 0.71054 0.26654
 B83 B 1.30502 0.75642 0.24767
 B84 B 1.26511 0.79177 0.25189
 B85 B 0.77289 1.26913 0.22025
 B86 B 0.72306 1.27827 0.23320
 B87 B 0.73878 1.22883 0.22379
 B88 B 0.78887 1.22259 0.23694
 B89 B 0.80390 1.26894 0.25466
 B90 B 0.76342 1.30365 0.25198
 B91 B 0.73854 1.23762 0.29194
 B92 B 0.78811 1.22907 0.27959
 B93 B 0.77285 1.27825 0.28842
 B94 B 0.72262 1.28432 0.27565
 B95 B 0.70739 1.23784 0.25768
 B96 B 0.74852 1.20348 0.26033
 O97 O 0.46813 1.08412 0.04432
 O98 O 0.52186 0.94186 0.04612
 O99 O 0.42225 0.99382 0.04772
 O100 O 0.56611 1.03324 0.04816
 O101 O 0.45071 0.93541 0.03322
 O102 O 0.53917 1.09168 0.03185
 O103 O 0.57710 0.96361 0.02358
 O104 O 0.41265 1.06317 0.02178
 C105 C 0.42979 1.08074 0.04588
 C106 C 0.56026 0.94508 0.04734
 C107 C 0.42826 0.95591 0.05341
 C108 C 0.56138 1.07157 0.05266
 O109 O 0.52104 1.08408 -0.03763
 O110 O 0.46925 0.94040 -0.03582
 O111 O 0.42257 1.02976 -0.03902
 O112 O 0.56864 0.99419 -0.03794
 O113 O 0.54081 0.93577 -0.02256
 O114 O 0.44907 1.08914 -0.02485
 O115 O 0.57577 1.06428 -0.01338
 O116 O 0.41350 0.96077 -0.01326
 Co117 Co 0.49436 1.08052 0.00346
 Co118 Co 0.49558 0.94518 0.00511
 Co119 Co 0.42583 1.01203 0.00431
 Co120 Co 0.56385 1.01376 0.00505
 O121 O 0.49491 1.01286 0.00439
 C122 C 0.55953 1.08063 -0.03843
 C123 C 0.43072 0.94226 -0.03693
 C124 C 0.42640 1.06790 -0.04449
 C125 C 0.56390 0.95590 -0.04261
 O126 O 0.96132 0.59872 0.52641
 O127 O 1.04774 0.45210 0.53994
 O128 O 0.91666 0.46956 0.53297
 O129 O 1.06057 0.52897 0.54852
 O130 O 0.97470 0.44825 0.55307
 O131 O 1.03804 0.58988 0.53122
 O132 O 1.10255 0.47794 0.51442
 O133 O 0.92482 0.54611 0.54738
 C134 C 0.93627 0.58376 0.54857
 C135 C 1.08665 0.44877 0.53348
 C136 C 0.93615 0.45053 0.55533
 C137 C 1.05747 0.56784 0.55304
 O138 O 1.04007 0.57239 0.46224
 O139 O 0.95503 0.43272 0.48614
 O140 O 0.91437 0.56390 0.48540
 O141 O 1.06083 0.49427 0.46101
 O142 O 1.03067 0.43665 0.47370
 O143 O 0.96839 0.57921 0.45761
 O144 O 1.09056 0.55512 0.49278
 O145 O 0.91688 0.48682 0.46974
 Co146 Co 1.00150 0.57988 0.49529
 Co147 Co 1.00140 0.44872 0.51224
 Co148 Co 0.92557 0.51648 0.50833
 Co149 Co 1.05768 0.51033 0.50501
 O150 O 0.99426 0.51560 0.50433
 C151 C 1.07815 0.57554 0.46804
 C152 C 0.92649 0.44861 0.46734
 C153 C 0.92985 0.57695 0.45891
 C154 C 1.05355 0.45709 0.45398
 O155 O 1.03432 0.45445 0.05899
 O156 O 1.03387 0.54488 -0.06588
 O157 O 1.02011 0.41711 -0.04422
 O158 O 1.02269 0.58189 0.03798
 O159 O 1.04805 0.47244 -0.06230
 O160 O 1.05083 0.52579 0.05358
 O161 O 1.05290 0.57221 -0.01840
 O162 O 1.05189 0.42589 0.01187
 C163 C 1.05870 0.43119 0.04254
 C164 C 1.05930 0.56697 -0.04918
 C165 C 1.04908 0.43374 -0.06012
 C166 C 1.05237 0.56448 0.05235
 O167 O 0.96542 0.54523 0.05947
 O168 O 0.96237 0.45524 -0.06544
 O169 O 0.97624 0.41759 0.03839
 O170 O 0.97738 0.58274 -0.04385
 O171 O 0.94776 0.52807 -0.06088
 O172 O 0.94897 0.47396 0.05455
 O173 O 0.94635 0.57318 0.01244
 O174 O 0.94484 0.42674 -0.01797
 Co175 Co 0.99982 0.49990 0.05115
 Co176 Co 0.99803 0.50020 -0.05807
 Co177 Co 0.99835 0.43022 -0.00295
 Co178 Co 0.99969 0.56921 -0.00292
 O179 O 0.99899 0.49985 -0.00321
 C180 C 0.94005 0.56769 0.04318
 C181 C 0.93821 0.43162 -0.04881
 C182 C 0.94781 0.43526 0.05410
 C183 C 0.94716 0.56675 -0.05847
 O184 O 0.53175 0.95529 0.55764
 O185 O 0.53500 1.04513 0.43444
 O186 O 0.51671 0.91766 0.45446
 O187 O 0.51961 1.08253 0.53811
 O188 O 0.54698 0.97214 0.43761
 O189 O 0.54747 1.02639 0.55353
 O190 O 0.55248 1.07316 0.48220
 O191 O 0.54953 0.92649 0.51059
 C192 C 0.55680 0.93278 0.54115
 C193 C 0.55982 1.06753 0.45155
 C194 C 0.54661 0.93335 0.43915
 C195 C 0.54910 1.06506 0.55257
 O196 O 0.46152 1.04498 0.55752
 O197 O 0.46052 0.95792 0.43382
 O198 O 0.47424 0.91773 0.53729
 O199 O 0.47860 1.08470 0.45487
 O200 O 0.44796 1.03095 0.43754
 O201 O 0.44576 0.97361 0.55254
 O202 O 0.44493 1.07478 0.51041
 O203 O 0.44199 0.92897 0.48099
 Co204 Co 0.49665 1.00018 0.55001
 Co205 Co 0.49755 1.00151 0.44124
 Co206 Co 0.49579 0.93128 0.49590
 Co207 Co 0.49870 1.07044 0.49642
 O208 O 0.49725 1.00086 0.49589
 C209 C 0.43705 1.06792 0.54074
 C210 C 0.43525 0.93520 0.45025
 C211 C 0.44530 0.93485 0.55272
 C212 C 0.44821 1.06968 0.43988
 O213 O 1.07394 1.03794 0.47700
 O214 O 0.93098 1.03487 0.52142
 O215 O 0.98984 1.04145 0.43942
 O216 O 1.01694 1.03735 0.55745
 O217 O 0.92982 1.02574 0.46196
 O218 O 1.07711 1.02491 0.53481
 O219 O 0.95011 1.00052 0.56338
 O220 O 1.05847 1.00619 0.43308
 C221 C 1.07394 1.03759 0.44583
 C222 C 0.93327 1.03244 0.55255
 C223 C 0.95210 1.04973 0.44365
 C224 C 1.05399 1.04760 0.55325
 O225 O 1.07415 0.93646 0.52092
 O226 O 0.93284 0.93772 0.47189
 O227 O 1.02246 0.93341 0.43935
 O228 O 0.98660 0.92866 0.55402
 O229 O 0.92781 0.94583 0.52992
 O230 O 1.08060 0.94933 0.46427
 O231 O 1.05422 0.96591 0.56479
 O232 O 0.95505 0.96937 0.42942
 Co233 Co 1.07037 0.98717 0.49913
 Co234 Co 0.93664 0.98617 0.49640
 Co235 Co 1.00627 0.98744 0.44188
 Co236 Co 1.00237 0.98325 0.55330
 O237 O 1.00389 0.98611 0.49767
 C238 C 1.07341 0.93677 0.55193
 C239 C 0.93640 0.93888 0.44093
 C240 C 1.05975 0.92507 0.44533
 C241 C 0.94876 0.92106 0.54866
 O242 O 0.57410 0.53767 -0.02532
 O243 O 0.43236 0.53683 0.02214
 O244 O 0.48902 0.54480 -0.05917
 O245 O 0.52032 0.53717 0.05685
 O246 O 0.42914 0.52953 -0.03639
 O247 O 0.57944 0.52346 0.03270
 O248 O 0.45265 0.50291 0.06407
 O249 O 0.55571 0.50743 -0.06921
 C250 C 0.57324 0.53777 -0.05652
 C251 C 0.43578 0.53480 0.05315
 C252 C 0.45164 0.55382 -0.05431
 C253 C 0.55741 0.54650 0.05182
 O254 O 0.57441 0.43582 0.01812
 O255 O 0.43164 0.44003 -0.02806
 O256 O 0.51731 0.43611 -0.06240
 O257 O 0.48681 0.42999 0.05377
 O258 O 0.42777 0.44831 0.03088
 O259 O 0.57730 0.44909 -0.03921
 O260 O 0.55566 0.46439 0.06292
 O261 O 0.45098 0.47434 -0.06984
 Co262 Co 0.57024 0.48668 -0.00342
 Co263 Co 0.43643 0.48840 -0.00297
 Co264 Co 0.50335 0.49029 -0.05854
 Co265 Co 0.50398 0.48387 0.05277
 O266 O 0.50355 0.48729 -0.00293
 C267 C 0.57379 0.43506 0.04922
 C268 C 0.43330 0.44291 -0.05911
 C269 C 0.55458 0.42656 -0.05827
 C270 C 0.44861 0.42378 0.04991
 C271 C 0.33244 1.15824 0.15050
 C272 C 0.35301 1.18335 0.17421
 C273 C 0.33005 1.20606 0.19736
 C274 C 0.28588 1.20535 0.19710
 C275 C 0.26614 1.18039 0.17248
 N276 N 0.28963 1.15781 0.14997
 C277 C 0.35705 1.13467 0.12505
 N278 N 0.33973 1.12599 0.09434
 C279 C 0.36220 1.10792 0.06898
 C280 C 0.40489 1.09870 0.07360
 C281 C 0.42300 1.10609 0.10525
 C282 C 0.39906 1.12329 0.13119
 H283 H 0.34772 1.22528 0.21484
 H284 H 0.23232 1.17895 0.17106
 H285 H 0.34702 1.10190 0.04491
 H286 H 0.45550 1.09821 0.10998
 H287 H 0.38670 1.18674 0.17456
 H288 H 0.41364 1.12772 0.15568
 C289 C 0.83289 0.67794 0.63962
 C290 C 0.81616 0.71807 0.63356
 C291 C 0.79016 0.73648 0.65788
 C292 C 0.78093 0.71535 0.68837
 C293 C 0.79590 0.67402 0.69201
 N294 N 0.82127 0.65699 0.66819
 C295 C 0.86259 0.65669 0.61643
 N296 N 0.86987 0.61509 0.62174
 C297 C 0.89559 0.59215 0.60173
 C298 C 0.91576 0.61085 0.57396
 C299 C 0.91049 0.65415 0.56869
 C300 C 0.88394 0.67728 0.58992
 H301 H 0.77942 0.76821 0.65347
 H302 H 0.78943 0.65567 0.71451
 H303 H 0.89902 0.55888 0.60690
 H304 H 0.92540 0.66967 0.54742
 H305 H 0.82334 0.73557 0.61079
 H306 H 0.88016 0.71055 0.58525
 C307 C 0.66425 0.85064 0.13776
 C308 C 0.70842 0.85017 0.13836
 C309 C 0.72933 0.82414 0.16159
 C310 C 0.70632 0.79865 0.18383
 C311 C 0.66228 0.79959 0.18151
 N312 N 0.64298 0.82500 0.15907
 C313 C 0.63880 0.87721 0.11501
 N314 N 0.59679 0.86951 0.11341
 C315 C 0.57048 0.89183 0.09322
 C316 C 0.58641 0.92387 0.07275
 C317 C 0.62935 0.93331 0.07468
 C318 C 0.65564 0.91020 0.09581
 H319 H 0.76323 0.82435 0.16241
 H320 H 0.64259 0.78039 0.19757
 H321 H 0.53759 0.88360 0.09243
 H322 H 0.64278 0.95825 0.05944
 H323 H 0.72684 0.86933 0.12135
 H324 H 0.68845 0.91837 0.09684
 C325 C 1.18127 0.34565 0.62473
 C326 C 1.22495 0.34108 0.62762
 C327 C 1.24157 0.31789 0.65475
 C328 C 1.21484 0.29925 0.67874
 C329 C 1.17146 0.30470 0.67460
 N330 N 1.15627 0.32713 0.64822
 C331 C 1.16012 0.37019 0.59783
 N332 N 1.11785 0.36593 0.59522
 C333 C 1.09435 0.38942 0.57383
 C334 C 1.11321 0.42018 0.55356
 C335 C 1.15695 0.42454 0.55480
 C336 C 1.18062 0.39964 0.57700
 H337 H 1.27519 0.31478 0.65697
 H338 H 1.14919 0.29091 0.69200
 H339 H 1.06077 0.38480 0.57356
 H340 H 1.17263 0.44809 0.53955
 H341 H 1.24612 0.35483 0.60933
 H342 H 1.21403 0.40470 0.57855
 C343 C 0.66790 1.15469 -0.13824
 C344 C 0.71212 1.15414 -0.13772
 C345 C 0.73461 1.17462 -0.16348
 C346 C 0.71323 1.19578 -0.18946
 C347 C 0.66900 1.19560 -0.18853
 N348 N 0.64815 1.17563 -0.16350
 C349 C 0.64106 1.13415 -0.11250
 N350 N 0.59939 1.14389 -0.11194
 C351 C 0.57213 1.12657 -0.08939
 C352 C 0.58664 1.09769 -0.06539
 C353 C 0.62924 1.08643 -0.06602
 C354 C 0.65646 1.10438 -0.08946
 H355 H 0.76848 1.17384 -0.16309
 H356 H 0.65034 1.21171 -0.20736
 H357 H 0.53958 1.13606 -0.08980
 H358 H 0.64173 1.06377 -0.04817
 H359 H 0.72940 1.13866 -0.11772
 H360 H 0.68885 1.09458 -0.08945
 C361 C 1.18423 0.65096 0.36757
 C362 C 1.22529 0.66635 0.37112
 C363 C 1.24479 0.68589 0.34336
 C364 C 1.22307 0.69110 0.31261
 C365 C 1.18349 0.67201 0.30973
 N366 N 1.16524 0.65367 0.33688
 C367 C 1.15921 0.63329 0.39569
 N368 N 1.11686 0.63293 0.39182
 C369 C 1.09068 0.61586 0.41506
 C370 C 1.10683 0.59691 0.44433
 C371 C 1.15040 0.59721 0.44934
 C372 C 1.17680 0.61551 0.42507
 H373 H 1.27639 0.69756 0.34623
 H374 H 1.16602 0.67249 0.28626
 H375 H 1.05731 0.61639 0.41020
 H376 H 1.16402 0.58269 0.47163
 H377 H 1.24172 0.66455 0.39507
 H378 H 1.21034 0.61451 0.42887
 C379 C 0.33224 0.85229 -0.13520
 C380 C 0.28861 0.84556 -0.13384
 C381 C 0.26902 0.82162 -0.15913
 C382 C 0.29272 0.80420 -0.18555
 C383 C 0.33623 0.81191 -0.18571
 N384 N 0.35433 0.83508 -0.16102
 C385 C 0.35607 0.87643 -0.10951
 N386 N 0.39867 0.87282 -0.10918
 C387 C 0.42336 0.89384 -0.08681
 C388 C 0.40524 0.92050 -0.06277
 C389 C 0.36147 0.92530 -0.06295
 C390 C 0.33682 0.90349 -0.08622
 H391 H 0.23557 0.81636 -0.15780
 H392 H 0.35648 0.79908 -0.20502
 H393 H 0.45695 0.88930 -0.08760
 H394 H 0.34618 0.94592 -0.04499
 H395 H 0.26972 0.85776 -0.11339
 H396 H 0.30333 0.90839 -0.08598
 C397 C 0.83558 0.34855 0.37054
 C398 C 0.85911 0.32738 0.34616
 C399 C 0.83894 0.30601 0.32031
 C400 C 0.79482 0.30455 0.31847
 C401 C 0.77222 0.32671 0.34328
 N402 N 0.79289 0.34819 0.36824
 C403 C 0.85739 0.37230 0.39758
 N404 N 0.84383 0.41136 0.40623
 C405 C 0.86524 0.43602 0.42849
 C406 C 0.90274 0.42170 0.44342
 C407 C 0.91655 0.38108 0.43553
 C408 C 0.89407 0.35640 0.41264
 H409 H 0.85852 0.28990 0.30214
 H410 H 0.73834 0.32698 0.34282
 H411 H 0.85306 0.46692 0.43434
 H412 H 0.94499 0.36862 0.44666
 H413 H 0.89302 0.32791 0.34664
 H414 H 0.90544 0.32524 0.40658
 C415 C 1.16445 0.33245 0.13008
 C416 C 1.19388 0.35402 0.14956
 C417 C 1.21377 0.33382 0.17617
 C418 C 1.20556 0.29125 0.18393
 C419 C 1.17701 0.26999 0.16278
 N420 N 1.15715 0.29090 0.13688
 C421 C 1.13922 0.35665 0.10497
 N422 N 1.13326 0.39852 0.11046
 C423 C 1.10964 0.42312 0.08981
 C424 C 1.09025 0.40601 0.06116
 C425 C 1.09670 0.36312 0.05418
 C426 C 1.12083 0.33817 0.07629
 H427 H 1.23512 0.35253 0.19116
 H428 H 1.16935 0.23740 0.16762
 H429 H 1.10518 0.45588 0.09626
 H430 H 1.08151 0.34858 0.03263
 H431 H 1.20071 0.38689 0.14492
 H432 H 1.12487 0.30499 0.07117
 C433 C 0.66348 0.83867 0.63110
 C434 C 0.67487 0.79594 0.62905
 C435 C 0.69493 0.77648 0.65678
 C436 C 0.70460 0.79952 0.68622
 C437 C 0.69128 0.84171 0.68721
 N438 N 0.67194 0.85963 0.66026
 C439 C 0.64027 0.86234 0.60429
 N440 N 0.62788 0.90215 0.61198
 C441 C 0.60392 0.92597 0.59103
 C442 C 0.59008 0.90994 0.55992
 C443 C 0.60385 0.86970 0.55034
 C444 C 0.62893 0.84571 0.57247
 H445 H 0.70249 0.74339 0.65526
 H446 H 0.69580 0.86097 0.70944
 H447 H 0.59427 0.95688 0.59939
 H448 H 0.59354 0.85605 0.52662
 H449 H 0.66791 0.77737 0.60685
 H450 H 0.63814 0.81442 0.56493
 C451 C 1.17468 0.66721 -0.12707
 C452 C 1.20940 0.64910 -0.14279
 C453 C 1.23147 0.67173 -0.16699
 C454 C 1.22011 0.71328 -0.17561
 C455 C 1.18660 0.73129 -0.15751
 N456 N 1.16473 0.70800 -0.13426
 C457 C 1.14668 0.64060 -0.10599
 N458 N 1.13059 0.65516 -0.07626
 C459 C 1.10447 0.63134 -0.05665
 C460 C 1.09226 0.59091 -0.06725
 C461 C 1.10849 0.57555 -0.09778
 C462 C 1.13587 0.60002 -0.11698
 H463 H 1.25622 0.65536 -0.18020
 H464 H 1.17620 0.76286 -0.16328
 H465 H 1.09196 0.64457 -0.03351
 H466 H 1.09946 0.54481 -0.10705
 H467 H 1.21834 0.61690 -0.13750
 H468 H 1.14751 0.58778 -0.14078
 C469 C 0.67440 1.16870 0.37387
 C470 C 0.70801 1.15038 0.35682
 C471 C 0.72955 1.17329 0.33256
 C472 C 0.71915 1.21551 0.32540
 C473 C 0.68690 1.23369 0.34481
 N474 N 0.66527 1.21003 0.36799
 C475 C 0.64671 1.14184 0.39501
 N476 N 0.63100 1.15600 0.42501
 C477 C 0.60520 1.13187 0.44466
 C478 C 0.59303 1.09150 0.43386
 C479 C 0.60899 1.07651 0.40313
 C480 C 0.63587 1.10134 0.38384
 H481 H 0.75334 1.15675 0.31839
 H482 H 0.67740 1.26586 0.34027
 H483 H 0.59285 1.14483 0.46795
 H484 H 0.59993 1.04587 0.39367
 H485 H 0.71651 1.11784 0.36114
 H486 H 0.64705 1.08939 0.35980
 C487 C 0.82713 0.66596 0.12513
 C488 C 0.79403 0.64650 0.14213
 C489 C 0.77236 0.66818 0.16701
 C490 C 0.78206 0.71032 0.17495
 C491 C 0.81394 0.72966 0.15574
 N492 N 0.83569 0.70720 0.13189
 C493 C 0.85481 0.64025 0.10297
 N494 N 0.86965 0.65552 0.07295
 C495 C 0.89499 0.63219 0.05230
 C496 C 0.90750 0.59141 0.06197
 C497 C 0.89245 0.57536 0.09272
 C498 C 0.86613 0.59940 0.11307
 H499 H 0.74881 0.65082 0.18088
 H500 H 0.82295 0.76181 0.16087
 H501 H 0.90664 0.64600 0.02904
 H502 H 0.90173 0.54437 0.10136
 H503 H 0.78592 0.61402 0.13717
 H504 H 0.85565 0.58649 0.13703
 C505 C 0.32557 1.16427 0.62375
 C506 C 0.29248 1.14568 0.64139
 C507 C 0.27275 1.16768 0.66706
 C508 C 0.28416 1.20938 0.67483
 C509 C 0.31619 1.22775 0.65528
 N510 N 0.33611 1.20493 0.63074
 C511 C 0.35135 1.13841 0.60053
 N512 N 0.36821 1.15534 0.57184
 C513 C 0.39332 1.13254 0.55075
 C514 C 0.40364 1.09071 0.55882
 C515 C 0.38624 1.07277 0.58799
 C516 C 0.36009 1.09630 0.60874
 H517 H 0.24901 1.15111 0.68135
 H518 H 0.32675 1.25937 0.66052
 H519 H 0.40689 1.14764 0.52873
 H520 H 0.39396 1.04085 0.59533
 H521 H 0.28273 1.11373 0.63621
 H522 H 0.34828 1.08207 0.63178
 C523 C 0.83620 0.32430 -0.13271
 C524 C 0.84134 0.28043 -0.13558
 C525 C 0.82056 0.25844 -0.16167
 C526 C 0.79424 0.27988 -0.18451
 C527 C 0.78931 0.32361 -0.17965
 N528 N 0.81024 0.34408 -0.15479
 C529 C 0.86038 0.35103 -0.10872
 N530 N 0.86853 0.39152 -0.11798
 C531 C 0.89136 0.41828 -0.09849
 C532 C 0.90744 0.40503 -0.06716
 C533 C 0.89820 0.36389 -0.05632
 C534 C 0.87497 0.33667 -0.07713
 H535 H 0.82608 0.22508 -0.16455
 H536 H 0.76940 0.34219 -0.19602
 H537 H 0.89774 0.44965 -0.10786
 H538 H 0.91044 0.35223 -0.03247
 H539 H 0.86248 0.26361 -0.11894
 H540 H 0.86862 0.30495 -0.06860
 C541 C 0.33523 0.82606 0.36797
 C542 C 0.29596 0.80748 0.37353
 C543 C 0.27766 0.78315 0.34773
 C544 C 0.29851 0.77693 0.31661
 C545 C 0.33920 0.79379 0.31365
 N546 N 0.35560 0.81804 0.33851
 C547 C 0.35464 0.85672 0.39137
 N548 N 0.37700 0.88871 0.37738
 C549 C 0.39986 0.91602 0.39614
 C550 C 0.40285 0.91110 0.43144
 C551 C 0.37875 0.87926 0.44680
 C552 C 0.35424 0.85216 0.42681
 H553 H 0.24643 0.77099 0.35167
 H554 H 0.35766 0.78978 0.29095
 H555 H 0.41753 0.94017 0.38310
 H556 H 0.38031 0.87418 0.47393
 H557 H 0.27873 0.81348 0.39665
 H558 H 0.33719 0.82667 0.43870
 C559 C 1.13719 1.16212 0.35375
 C560 C 1.16014 1.19718 0.36410
 C561 C 1.18136 1.22083 0.34017
 C562 C 1.18003 1.21048 0.30542
 C563 C 1.15533 1.17603 0.29590
 N564 N 1.13529 1.15277 0.31999
 C565 C 1.11919 1.13234 0.37866
 N566 N 1.11006 1.09293 0.36783
 C567 C 1.09604 1.06261 0.38910
 C568 C 1.09081 1.07091 0.42383
 C569 C 1.09948 1.11131 0.43578
 C570 C 1.11333 1.14231 0.41323
 H571 H 1.20106 1.24573 0.34968
 H572 H 1.15336 1.16646 0.26963
 H573 H 1.08928 1.03185 0.37876
 H574 H 1.09491 1.11902 0.46226
 H575 H 1.16418 1.20520 0.39050
 H576 H 1.11893 1.17350 0.42298
 C577 C 0.64298 0.66001 -0.14806
 C578 C 0.66954 0.69207 -0.13713
 C579 C 0.69053 0.71629 -0.16079
 C580 C 0.68573 0.70951 -0.19593
 C581 C 0.65827 0.67740 -0.20595
 N582 N 0.63819 0.65358 -0.18211
 C583 C 0.62340 0.63068 -0.12345
 N584 N 0.61099 0.59234 -0.13470
 C585 C 0.59518 0.56265 -0.11357
 C586 C 0.59150 0.57044 -0.07859
 C587 C 0.60341 0.60982 -0.06629
 C588 C 0.61898 0.64021 -0.08865
 H589 H 0.71207 0.73935 -0.15090
 H590 H 0.65367 0.67043 -0.23253
 H591 H 0.58586 0.53272 -0.12420
 H592 H 0.60012 0.61726 -0.03963
 H593 H 0.67607 0.69748 -0.11061
 H594 H 0.62701 0.67072 -0.07857
 C595 C 0.86011 1.13979 0.65294
 C596 C 0.86330 1.13186 0.68806
 C597 C 0.84048 1.15633 0.71092
 C598 C 0.81427 1.18843 0.69902
 C599 C 0.81220 1.19509 0.66368
 N600 N 0.83460 1.17103 0.64207
 C601 C 0.88162 1.11420 0.62697
 N602 N 0.86844 1.11637 0.59401
 C603 C 0.88542 1.09228 0.56899
 C604 C 0.91700 1.06344 0.57694
 C605 C 0.93176 1.06191 0.61047
 C606 C 0.91473 1.08739 0.63532
 H607 H 0.84271 1.14949 0.73777
 H608 H 0.79191 1.21856 0.65271
 H609 H 0.87321 1.09452 0.54344
 H610 H 0.95645 1.04057 0.61783
 H611 H 0.88204 1.10645 0.69808
 H612 H 0.92754 1.08555 0.66063
 C613 C 0.36341 0.64390 0.15229
 C614 C 0.36745 0.63655 0.18739
 C615 C 0.34410 0.66036 0.21022
 C616 C 0.31642 0.69122 0.19836
 C617 C 0.31351 0.69751 0.16306
 N618 N 0.33654 0.67405 0.14140
 C619 C 0.38520 0.61833 0.12651
 N620 N 0.37138 0.61940 0.09372
 C621 C 0.38813 0.59471 0.06902
 C622 C 0.41999 0.56628 0.07720
 C623 C 0.43551 0.56584 0.11048
 C624 C 0.41883 0.59210 0.13496
 H625 H 0.34712 0.65384 0.23706
 H626 H 0.29227 0.72034 0.15233
 H627 H 0.37545 0.59608 0.04358
 H628 H 0.46050 0.54479 0.11786
 H629 H 0.38719 0.61199 0.19749
 H630 H 0.43221 0.59117 0.16011
 C631 C 1.14521 0.84108 0.65873
 C632 C 1.16859 0.86329 0.68290
 C633 C 1.18965 0.84144 0.70817
 C634 C 1.18812 0.79730 0.70917
 C635 C 1.15903 0.77710 0.68798
 N636 N 1.13957 0.79895 0.66281
 C637 C 1.12873 0.86312 0.62851
 N638 N 1.13847 0.90439 0.62417
 C639 C 1.12402 0.92724 0.59771
 C640 C 1.09773 0.90875 0.57365
 C641 C 1.08825 0.86592 0.57650
 C642 C 1.10395 0.84278 0.60399
 H643 H 1.20960 0.85914 0.72512
 H644 H 1.15315 0.74383 0.69024
 H645 H 1.13134 0.96046 0.59644
 H646 H 1.06697 0.85116 0.55875
 H647 H 1.17252 0.89704 0.68136
 H648 H 1.09579 0.80990 0.60658
 C649 C 0.64886 0.34619 0.15813
 C650 C 0.67393 0.36905 0.18079
 C651 C 0.69399 0.34818 0.20736
 C652 C 0.69001 0.30432 0.21084
 C653 C 0.65963 0.28412 0.19081
 N654 N 0.64083 0.30498 0.16475
 C655 C 0.63218 0.36578 0.12683
 N656 N 0.59397 0.35400 0.11474
 C657 C 0.57628 0.37277 0.08715
 C658 C 0.59737 0.40524 0.07017
 C659 C 0.63752 0.41639 0.08111
 C660 C 0.65517 0.39658 0.10928
 H661 H 0.71534 0.36590 0.22315
 H662 H 0.65248 0.25125 0.19448
 H663 H 0.54482 0.36409 0.07970
 H664 H 0.65411 0.44214 0.06912
 H665 H 0.67929 0.40238 0.17730
 H666 H 0.68609 0.40596 0.11766
 C667 C 0.85351 0.83278 0.34537
 C668 C 0.82766 0.79946 0.35475
 C669 C 0.80375 0.77976 0.33045
 C670 C 0.80660 0.79088 0.29596
 C671 C 0.83466 0.82307 0.28720
 N672 N 0.85684 0.84328 0.31187
 C673 C 0.87577 0.85757 0.37132
 N674 N 0.90906 0.88137 0.36176
 C675 C 0.92976 0.90631 0.38403
 C676 C 0.91689 0.90845 0.41804
 C677 C 0.88324 0.88381 0.42869
 C678 C 0.86226 0.85872 0.40537
 H679 H 0.78151 0.75710 0.33966
 H680 H 0.83802 0.83302 0.26109
 H681 H 0.95581 0.92494 0.37497
 H682 H 0.87210 0.88530 0.45460
 H683 H 0.82489 0.78882 0.38069
 H684 H 0.83488 0.84188 0.41401
 C685 C 0.35756 0.33347 -0.15629
 C686 C 0.32626 0.30562 -0.14619
 C687 C 0.30196 0.28618 -0.17043
 C688 C 0.30815 0.29367 -0.20532
 C689 C 0.34024 0.32153 -0.21453
 N690 N 0.36354 0.34086 -0.19008
 C691 C 0.38046 0.35845 -0.13084
 N692 N 0.39540 0.39665 -0.14024
 C693 C 0.41282 0.42345 -0.11763
 C694 C 0.41516 0.41269 -0.08308
 C695 C 0.40123 0.37305 -0.07281
 C696 C 0.38429 0.34557 -0.09671
 H697 H 0.27757 0.26575 -0.16114
 H698 H 0.34630 0.32858 -0.24093
 H699 H 0.42392 0.45360 -0.12668
 H700 H 0.40357 0.36336 -0.04653
 H701 H 0.31889 0.30009 -0.11981
 H702 H 0.37420 0.31481 -0.08833
 C703 C 1.15890 0.32885 -0.14005
 C704 C 1.15191 0.28561 -0.14558
 C705 C 1.17553 0.26405 -0.17000
 C706 C 1.20619 0.28520 -0.18899
 C707 C 1.21305 0.32806 -0.18162
 N708 N 1.18950 0.34832 -0.15813
 C709 C 1.13230 0.35499 -0.11723
 N710 N 1.13227 0.39765 -0.12133
 C711 C 1.10735 0.42375 -0.10279
 C712 C 1.07984 0.40713 -0.07851
 C713 C 1.08033 0.36343 -0.07310
 C714 C 1.10644 0.33738 -0.09218
 H715 H 1.16850 0.23135 -0.17495
 H716 H 1.23614 0.34617 -0.19539
 H717 H 1.10823 0.45723 -0.10768
 H718 H 1.06005 0.34918 -0.05432
 H719 H 1.12732 0.26877 -0.13255
 H720 H 1.10608 0.30398 -0.08716
 C721 C 0.65662 0.82485 0.36190
 C722 C 0.64741 0.78241 0.35470
 C723 C 0.67159 0.76032 0.33091
 C724 C 0.70523 0.77999 0.31427
 C725 C 0.71414 0.82199 0.32343
 N726 N 0.68993 0.84287 0.34615
 C727 C 0.62959 0.85189 0.38383
 N728 N 0.63195 0.89462 0.38061
 C729 C 0.60700 0.92150 0.39848
 C730 C 0.57702 0.90572 0.42116
 C731 C 0.57493 0.86186 0.42560
 C732 C 0.60103 0.83500 0.40722
 H733 H 0.66250 0.72860 0.32427
 H734 H 0.73894 0.83938 0.31112
 H735 H 0.60996 0.95502 0.39436
 H736 H 0.55268 0.84813 0.44312
 H737 H 0.62061 0.76683 0.36576
 H738 H 0.59863 0.80153 0.41150
 C739 C 0.83407 0.67574 -0.13176
 C740 C 0.83994 0.71951 -0.13530
 C741 C 0.81583 0.74223 -0.15884
 C742 C 0.78587 0.72167 -0.17892
 C743 C 0.78009 0.67817 -0.17341
 N744 N 0.80403 0.65688 -0.15075
 C745 C 0.86135 0.64839 -0.11034
 N746 N 0.86136 0.60602 -0.11604
 C747 C 0.88700 0.57888 -0.09907
 C748 C 0.91536 0.59412 -0.07491
 C749 C 0.91486 0.63742 -0.06779
 C750 C 0.88797 0.66452 -0.08522
 H751 H 0.82195 0.77543 -0.16234
 H752 H 0.75767 0.66036 -0.18807
 H753 H 0.88611 0.54576 -0.10523
 H754 H 0.93577 0.65057 -0.04897
 H755 H 0.86401 0.73602 -0.12142
 H756 H 0.88846 0.69757 -0.07897
 C757 C 0.33211 1.18126 0.37111
 C758 C 0.33986 1.22425 0.36471
 C759 C 0.31391 1.24671 0.34220
 C760 C 0.28009 1.22678 0.32602
 C761 C 0.27238 1.18436 0.33492
 N762 N 0.29824 1.16323 0.35629
 C763 C 0.36115 1.15352 0.39081
 N764 N 0.35834 1.11091 0.38688
 C765 C 0.38476 1.08328 0.40260
 C766 C 0.41683 1.09812 0.42374
 C767 C 0.41962 1.14183 0.42881
 C768 C 0.39203 1.16947 0.41260
 H769 H 0.32198 1.27883 0.33584
 H770 H 0.24768 1.16656 0.32294
 H771 H 0.38116 1.04993 0.39809
 H772 H 0.44350 1.15488 0.44521
 H773 H 0.36689 1.24002 0.37519
 H774 H 0.39509 1.20278 0.41732
 C775 C 1.16740 0.66516 0.13045
 C776 C 1.16247 0.70871 0.13579
 C777 C 1.18656 0.72907 0.16057
 C778 C 1.21556 0.70637 0.18010
 C779 C 1.22054 0.66326 0.17284
 N780 N 1.19659 0.64421 0.14898
 C781 C 1.13982 0.64013 0.10766
 N782 N 1.13865 0.59748 0.11160
 C783 C 1.11246 0.57228 0.09342
 C784 C 1.08470 0.58994 0.06985
 C785 C 1.08638 0.63360 0.06448
 C786 C 1.11387 0.65871 0.08309
 H787 H 1.18114 0.76212 0.16539
 H788 H 1.24230 0.64398 0.18701
 H789 H 1.11243 0.53878 0.09822
 H790 H 1.06592 0.64854 0.04614
 H791 H 1.13908 0.72678 0.12236
 H792 H 1.11432 0.69213 0.07821
 C793 C 0.66592 1.16513 0.62950
 C794 C 0.66184 1.20887 0.63429
 C795 C 0.68624 1.22921 0.65887
 C796 C 0.71476 1.20632 0.67874
 C797 C 0.71890 1.16299 0.67201
 N798 N 0.69465 1.14396 0.64833
 C799 C 0.63781 1.14021 0.60704
 N800 N 0.63611 1.09762 0.61130
 C801 C 0.60942 1.07257 0.59347
 C802 C 0.58164 1.09034 0.56996
 C803 C 0.58380 1.13392 0.56430
 C804 C 0.61182 1.15886 0.58254
 H805 H 0.68130 1.26239 0.66334
 H806 H 0.74011 1.14353 0.68656
 H807 H 0.60904 1.03911 0.59845
 H808 H 0.56337 1.14893 0.54599
 H809 H 0.63884 1.22715 0.62063
 H810 H 0.61263 1.19221 0.57739
 C811 C 0.83961 0.33409 0.13760
 C812 C 0.79595 0.33710 0.13900
 C813 C 0.77393 0.31337 0.16287
 C814 C 0.79496 0.28739 0.18626
 C815 C 0.83858 0.28287 0.18182
 N816 N 0.85939 0.30615 0.15827
 C817 C 0.86488 0.36069 0.11457
 N818 N 0.90096 0.34477 0.10163
 C819 C 0.92696 0.36788 0.08174
 C820 C 0.91792 0.41022 0.07452
 C821 C 0.88101 0.42754 0.08773
 C822 C 0.85418 0.40274 0.10754
 H823 H 0.74053 0.31552 0.16235
 H824 H 0.85666 0.26241 0.19817
 H825 H 0.95525 0.35333 0.07224
 H826 H 0.87306 0.46010 0.08286
 H827 H 0.77895 0.35751 0.12182
 H828 H 0.82617 0.41668 0.11810
 C829 C 0.33720 0.83031 0.63481
 C830 C 0.29355 0.83362 0.63704
 C831 C 0.27177 0.80906 0.66065
 C832 C 0.29306 0.78182 0.68295
 C833 C 0.33649 0.77697 0.67756
 N834 N 0.35704 0.80113 0.65435
 C835 C 0.36249 0.85798 0.61228
 N836 N 0.39904 0.84295 0.59943
 C837 C 0.42499 0.86682 0.58000
 C838 C 0.41549 0.90917 0.57304
 C839 C 0.37811 0.92564 0.58618
 C840 C 0.35136 0.90006 0.60557
 H841 H 0.23843 0.81227 0.66129
 H842 H 0.35472 0.75575 0.69315
 H843 H 0.45358 0.85281 0.57058
 H844 H 0.36968 0.95811 0.58152
 H845 H 0.27636 0.85510 0.62088
 H846 H 0.32303 0.91346 0.61602
 C847 C 0.32291 1.15205 -0.14188
 C848 C 0.34647 1.17314 -0.16616
 C849 C 0.32650 1.19462 -0.19183
 C850 C 0.28235 1.19601 -0.19388
 C851 C 0.25959 1.17344 -0.16930
 N852 N 0.28021 1.15214 -0.14409
 C853 C 0.34555 1.13124 -0.11399
 N854 N 0.34177 1.08909 -0.10886
 C855 C 0.36748 1.06793 -0.08711
 C856 C 0.39957 1.08933 -0.06971
 C857 C 0.40333 1.13282 -0.07447
 C858 C 0.37641 1.15377 -0.09642
 H859 H 0.34648 1.21109 -0.20953
 H860 H 0.22573 1.17302 -0.16999
 H861 H 0.36299 1.03448 -0.08354
 H862 H 0.42712 1.15070 -0.06124
 H863 H 0.38040 1.17318 -0.16518
 H864 H 0.38031 1.18726 -0.10040
 C865 C 0.82314 0.64680 0.35653
 C866 C 0.77989 0.65484 0.35955
 C867 C 0.75907 0.67666 0.33361
 C868 C 0.78138 0.69084 0.30516
 C869 C 0.82429 0.68068 0.30301
 N870 N 0.84351 0.65974 0.32831
 C871 C 0.84894 0.62698 0.38312
 N872 N 0.89140 0.63075 0.38062
 C873 C 0.91810 0.61436 0.40391
 C874 C 0.90221 0.59279 0.43194
 C875 C 0.85859 0.58763 0.43472
 C876 C 0.83185 0.60458 0.41039
 H877 H 0.72607 0.68359 0.33632
 H878 H 0.84355 0.69014 0.28185
 H879 H 0.95148 0.61887 0.40076
 H880 H 0.84504 0.57070 0.45588
 H881 H 0.76244 0.64576 0.38185
 H882 H 0.79850 0.59984 0.41303
 C883 C 0.67144 1.15797 0.14483
 C884 C 0.69555 1.19295 0.13524
 C885 C 0.71956 1.21401 0.15957
 C886 C 0.71900 1.20104 0.19363
 C887 C 0.69622 1.16421 0.20148
 N888 N 0.67336 1.14417 0.17738
 C889 C 0.64282 1.13652 0.12092
 N890 N 0.63616 1.09436 0.12403
 C891 C 0.60953 1.07300 0.10327
 C892 C 0.58709 1.09439 0.07793
 C893 C 0.59261 1.13806 0.07501
 C894 C 0.62054 1.15913 0.09624
 H895 H 0.73691 1.24129 0.15175
 H896 H 0.69487 1.15211 0.22709
 H897 H 0.60625 1.03934 0.10635
 H898 H 0.57611 1.15585 0.05574
 H899 H 0.69554 1.20421 0.10932
 H900 H 0.62415 1.19283 0.09367
 C901 C 1.16995 0.64724 0.64744
 C902 C 1.17488 0.63258 0.68064
 C903 C 1.19922 0.65519 0.70338
 C904 C 1.21920 0.69284 0.69358
 C905 C 1.21579 0.70490 0.65934
 N906 N 1.19078 0.68272 0.63767
 C907 C 1.14040 0.62610 0.62393
 N908 N 1.11850 0.64936 0.60096
 C909 C 1.09002 0.63183 0.57947
 C910 C 1.08254 0.58825 0.58006
 C911 C 1.10462 0.56380 0.60370
 C912 C 1.13344 0.58250 0.62559
 H913 H 1.20030 0.64383 0.72923
 H914 H 1.23049 0.73333 0.65034
 H915 H 1.07431 0.65178 0.56119
 H916 H 1.10057 0.53000 0.60461
 H917 H 1.15826 0.60512 0.68970
 H918 H 1.15080 0.56277 0.64300
 C919 C 0.66445 0.85969 -0.13497
 C920 C 0.64244 0.83128 -0.15511
 C921 C 0.66361 0.80703 -0.17839
 C922 C 0.70740 0.81016 -0.18223
 C923 C 0.72852 0.83960 -0.16180
 N924 N 0.70678 0.86349 -0.13893
 C925 C 0.64093 0.88449 -0.10967
 N926 N 0.64722 0.92667 -0.10625
 C927 C 0.62263 0.95072 -0.08561
 C928 C 0.58940 0.93229 -0.06743
 C929 C 0.58302 0.88889 -0.07059
 C930 C 0.60876 0.86504 -0.09126
 H931 H 0.64492 0.78593 -0.19364
 H932 H 0.76198 0.84400 -0.16435
 H933 H 0.62913 0.98398 -0.08329
 H934 H 0.55831 0.87308 -0.05673
 H935 H 0.60872 0.82824 -0.15331
 H936 H 0.60328 0.83151 -0.09307
 C937 C 1.14958 0.36253 0.35753
 C938 C 1.12966 0.33475 0.33546
 C939 C 1.15321 0.30998 0.31403
 C940 C 1.19735 0.31243 0.31356
 C941 C 1.21634 0.34139 0.33568
 N942 N 1.19229 0.36546 0.35688
 C943 C 1.12394 0.38767 0.38143
 N944 N 1.13525 0.42764 0.38979
 C945 C 1.11174 0.45173 0.41114
 C946 C 1.07481 0.43551 0.42565
 C947 C 1.06258 0.39467 0.41699
 C948 C 1.08700 0.37073 0.39520
 H949 H 1.13607 0.28873 0.29776
 H950 H 1.25004 0.34501 0.33598
 H951 H 1.12274 0.48282 0.41783
 H952 H 1.03487 0.38059 0.42806
 H953 H 1.09587 0.33234 0.33433
 H954 H 1.07748 0.33873 0.38997
 C955 C 0.33087 0.85162 0.14202
 C956 C 0.28723 0.85372 0.14664
 C957 C 0.26750 0.82469 0.16818
 C958 C 0.29108 0.79367 0.18499
 C959 C 0.33444 0.79225 0.17862
 N960 N 0.35268 0.82058 0.15773
 C961 C 0.35487 0.88118 0.12051
 N962 N 0.39330 0.86863 0.10961
 C963 C 0.41803 0.89304 0.08981
 C964 C 0.40454 0.93303 0.07968
 C965 C 0.36574 0.94761 0.09158
 C966 C 0.34068 0.92170 0.11198
 H967 H 0.23414 0.82745 0.17250
 H968 H 0.35446 0.76961 0.19111
 H969 H 0.44781 0.88067 0.08129
 H970 H 0.35415 0.97826 0.08410
 H971 H 0.26853 0.87739 0.13402
 H972 H 0.31085 0.93337 0.12087
 C973 C 0.83643 0.34486 0.64057
 C974 C 0.79233 0.34559 0.64196
 C975 C 0.77130 0.31831 0.66397
 C976 C 0.79398 0.29006 0.68420
 C977 C 0.83784 0.28893 0.68046
 N978 N 0.85746 0.31598 0.65931
 C979 C 0.86154 0.37440 0.61996
 N980 N 0.90293 0.36571 0.61502
 C981 C 0.92841 0.39087 0.59628
 C982 C 0.91216 0.42698 0.58086
 C983 C 0.87009 0.43749 0.58672
 C984 C 0.84475 0.41152 0.60635
 H985 H 0.73755 0.32032 0.66590
 H986 H 0.85702 0.26758 0.69514
 H987 H 0.96065 0.38164 0.59226
 H988 H 0.85650 0.46544 0.57547
 H989 H 0.77404 0.36705 0.62671
 H990 H 0.81261 0.42072 0.61056
 C991 C 1.13178 1.15860 0.64748
 C992 C 1.12522 1.15333 0.68244
 C993 C 1.15070 1.17487 0.70543
 C994 C 1.18227 1.20188 0.69360
 C995 C 1.18615 1.20736 0.65825
 N996 N 1.16184 1.18538 0.63655
 C997 C 1.10957 1.13340 0.62209
 N998 N 1.13100 1.11967 0.59438
 C999 C 1.11331 1.09417 0.57080
 C1000 C 1.07167 1.08117 0.57456
 C1001 C 1.04847 1.09691 0.60202
 C1002 C 1.06738 1.12273 0.62599
 H1003 H 1.14624 1.16962 0.73232
 H1004 H 1.20970 1.22761 0.64740
 H1005 H 1.13217 1.08298 0.54988
 H1006 H 1.01620 1.08788 0.60585
 H1007 H 1.10193 1.13152 0.69188
 H1008 H 1.04936 1.13391 0.64740
 C1009 C 0.63384 0.65515 0.14761
 C1010 C 0.62710 0.64826 0.18234
 C1011 C 0.65113 0.67028 0.20599
 C1012 C 0.68114 0.69941 0.19489
 C1013 C 0.68488 0.70660 0.15972
 N1014 N 0.66220 0.68402 0.13737
 C1015 C 0.61292 0.63017 0.12174
 N1016 N 0.63592 0.61402 0.09577
 C1017 C 0.61860 0.58908 0.07163
 C1018 C 0.57585 0.57956 0.07304
 C1019 C 0.55138 0.59819 0.09856
 C1020 C 0.56990 0.62304 0.12321
 H1021 H 0.64689 0.66376 0.23272
 H1022 H 0.70716 0.72871 0.14947
 H1023 H 0.63844 0.57558 0.05225
 H1024 H 0.51816 0.59221 0.10038
 H1025 H 0.60478 0.62496 0.19097
 H1026 H 0.55094 0.63638 0.14326
 C1027 C 1.14549 0.82812 0.34675
 C1028 C 1.13149 0.79141 0.33083
 C1029 C 1.15582 0.77338 0.30553
 C1030 C 1.19451 0.79118 0.29650
 C1031 C 1.20579 0.82960 0.31134
 N1032 N 1.18178 0.84638 0.33625
 C1033 C 1.12242 0.84740 0.37494
 N1034 N 1.14414 0.87070 0.39787
 C1035 C 1.12486 0.89254 0.42288
 C1036 C 1.08103 0.89291 0.42494
 C1037 C 1.05808 0.86756 0.40256
 C1038 C 1.07866 0.84469 0.37754
 H1039 H 1.14459 0.74492 0.29377
 H1040 H 1.23473 0.84520 0.30457
 H1041 H 1.14370 0.91176 0.43961
 H1042 H 1.02416 0.86727 0.40315
 H1043 H 1.10287 0.77589 0.33851
 H1044 H 1.06024 0.82719 0.35937
 C1045 C 0.64009 0.33234 -0.15861
 C1046 C 0.63349 0.33809 -0.19357
 C1047 C 0.66050 0.31861 -0.21668
 C1048 C 0.69364 0.29353 -0.20485
 C1049 C 0.69820 0.28856 -0.16953
 N1050 N 0.67211 0.30800 -0.14787
 C1051 C 0.61548 0.35348 -0.13246
 N1052 N 0.63498 0.36334 -0.10281
 C1053 C 0.61524 0.38393 -0.07741
 C1054 C 0.57339 0.39580 -0.08128
 C1055 C 0.55194 0.38375 -0.11089
 C1056 C 0.57301 0.36280 -0.13669
 H1057 H 0.65542 0.32308 -0.24359
 H1058 H 0.72202 0.26881 -0.15854
 H1059 H 0.63277 0.39254 -0.05496
 H1060 H 0.51950 0.39243 -0.11490
 H1061 H 0.60854 0.35804 -0.20288
 H1062 H 0.55642 0.35431 -0.15963
 C1063 C 0.86829 1.16089 0.35200
 C1064 C 0.84086 1.19173 0.36349
 C1065 C 0.81662 1.21351 0.34044
 C1066 C 0.81963 1.20576 0.30534
 C1067 C 0.84923 1.17590 0.29465
 N1068 N 0.87241 1.15421 0.31799
 C1069 C 0.89048 1.13432 0.37680
 N1070 N 0.93069 1.12233 0.37097
 C1071 C 0.95197 1.09751 0.39320
 C1072 C 0.93225 1.08256 0.42278
 C1073 C 0.89102 1.09496 0.42932
 C1074 C 0.87011 1.12085 0.40648
 H1075 H 0.79424 1.23532 0.35085
 H1076 H 0.85311 1.16893 0.26800
 H1077 H 0.98363 1.08806 0.38703
 H1078 H 0.87456 1.08364 0.45155
 H1079 H 0.83741 1.19841 0.39026
 H1080 H 0.83780 1.12910 0.41148
 C1081 C 0.36971 0.66359 -0.14752
 C1082 C 0.34227 0.69494 -0.13711
 C1083 C 0.31802 0.71538 -0.16091
 C1084 C 0.32103 0.70566 -0.19569
 C1085 C 0.35078 0.67542 -0.20533
 N1086 N 0.37396 0.65509 -0.18124
 C1087 C 0.39153 0.63815 -0.12188
 N1088 N 0.43188 0.62630 -0.12704
 C1089 C 0.45275 0.60195 -0.10429
 C1090 C 0.43238 0.58715 -0.07494
 C1091 C 0.39107 0.59963 -0.06895
 C1092 C 0.37061 0.62525 -0.09228
 H1093 H 0.29525 0.73722 -0.15120
 H1094 H 0.35461 0.66694 -0.23170
 H1095 H 0.48454 0.59250 -0.11004
 H1096 H 0.37417 0.58840 -0.04692
 H1097 H 0.33861 0.70282 -0.11057
 H1098 H 0.33818 0.63353 -0.08783
 C1099 C 0.85713 0.84285 0.65385
 C1100 C 0.82063 0.86417 0.66354
 C1101 C 0.79716 0.84922 0.69071
 C1102 C 0.80917 0.81237 0.70760
 C1103 C 0.84842 0.79477 0.69944
 N1104 N 0.87084 0.80988 0.67279
 C1105 C 0.88071 0.85586 0.62354
 N1106 N 0.92332 0.85560 0.62411
 C1107 C 0.94641 0.87184 0.59823
 C1108 C 0.92637 0.89055 0.57026
 C1109 C 0.88263 0.88751 0.56793
 C1110 C 0.85973 0.87028 0.59453
 H1111 H 0.76896 0.86574 0.69756
 H1112 H 0.85994 0.76713 0.71246
 H1113 H 0.98014 0.87309 0.60083
 H1114 H 0.86588 0.90112 0.54669
 H1115 H 0.81008 0.89186 0.65001
 H1116 H 0.82587 0.86965 0.59295
 C1117 C 0.35561 0.34014 0.15359
 C1118 C 0.32587 0.31028 0.14474
 C1119 C 0.30068 0.29322 0.16939
 C1120 C 0.30464 0.30463 0.20382
 C1121 C 0.33615 0.33383 0.21198
 N1122 N 0.36057 0.35084 0.18690
 C1123 C 0.37995 0.36030 0.12630
 N1124 N 0.42176 0.36690 0.12996
 C1125 C 0.44521 0.38394 0.10461
 C1126 C 0.42638 0.39591 0.07372
 C1127 C 0.38353 0.38860 0.06940
 C1128 C 0.36029 0.37097 0.09556
 H1129 H 0.27772 0.27093 0.16061
 H1130 H 0.34103 0.34335 0.23800
 H1131 H 0.47805 0.39004 0.10926
 H1132 H 0.36765 0.39816 0.04636
 H1133 H 0.32184 0.30018 0.11872
 H1134 H 0.32692 0.36665 0.09205
   
