data_POSCAR
  _audit_creation_date              2014-09-24
  _audit_creation_method            'ToBaCCo'
  _symmetry_space_group_name_H-M    'P1'
  _symmetry_Int_Tables_number       1
  _symmetry_cell_setting            triclinic
  loop_
  _symmetry_equiv_pos_as_xyz
 x,y,z
_cell_length_a 56.6518
_cell_length_b 56.6231
_cell_length_c 19.6518
_cell_angle_alpha 89.974700
_cell_angle_beta 90.026100
_cell_angle_gamma 120.028900
loop_
  _atom_site_label
  _atom_site_type_symbol
  _atom_site_fract_x
  _atom_site_fract_y
  _atom_site_fract_z
O1 O 0.21182 0.46464 0.43433
 O2 O 0.25784 0.46492 0.56776
 O3 O 0.21155 0.46459 0.56679
 O4 O 0.25847 0.46554 0.43507
 O5 O 0.28032 0.51056 0.43587
 O6 O 0.23397 0.50961 0.56746
 O7 O 0.28041 0.50987 0.56648
 O8 O 0.23366 0.50964 0.43651
 Cu9 Cu 0.23271 0.46039 0.50088
 Cu10 Cu 0.25928 0.51441 0.50168
 C11 C 0.21453 0.48715 0.41384
 C12 C 0.27746 0.48748 0.58886
 C13 C 0.21453 0.48703 0.58869
 C14 C 0.27772 0.48830 0.41394
 O15 O 0.53525 -0.25362 0.43325
 O16 O 0.53363 -0.20805 0.56502
 O17 O 0.53525 -0.25335 0.56615
 O18 O 0.53334 -0.20850 0.43268
 O19 O 0.48837 -0.23239 0.43340
 O20 O 0.49036 -0.27725 0.56542
 O21 O 0.48864 -0.23175 0.56423
 O22 O 0.49037 -0.27767 0.43462
 Cu23 Cu 0.53888 -0.22852 0.49927
 Cu24 Cu 0.48495 -0.25716 0.49949
 C25 C 0.51308 -0.27380 0.41219
 C26 C 0.51079 -0.21179 0.58591
 C27 C 0.51308 -0.27337 0.58776
 C28 C 0.51045 -0.21250 0.41131
 O29 O 1.20709 0.74265 0.56460
 O30 O 1.25264 0.78946 0.43202
 O31 O 1.20716 0.74275 0.43218
 O32 O 1.25283 0.78943 0.56476
 O33 O 1.27583 0.76746 0.56461
 O34 O 1.23080 0.72143 0.43187
 O35 O 1.27640 0.76834 0.43374
 O36 O 1.23010 0.72068 0.56267
 Cu37 Cu 1.22761 0.76828 0.49849
 Cu38 Cu 1.25562 0.74233 0.49822
 C39 C 1.21045 0.72323 0.58493
 C40 C 1.27272 0.78729 0.41111
 C41 C 1.21097 0.72381 0.41027
 C42 C 1.27243 0.78665 0.58645
 O43 O 0.74608 0.53481 0.56681
 O44 O 0.79162 0.53329 0.43494
 O45 O 0.74619 0.53469 0.43409
 O46 O 0.79120 0.53291 0.56729
 O47 O 0.76722 0.48791 0.56717
 O48 O 0.72285 0.48969 0.43366
 O49 O 0.76831 0.48826 0.43651
 O50 O 0.72189 0.48991 0.56473
 Cu51 Cu 0.77112 0.53845 0.50080
 Cu52 Cu 0.74266 0.48446 0.50056
 C53 C 0.72578 0.51263 0.58737
 C54 C 0.78810 0.51046 0.41449
 C55 C 0.72657 0.51240 0.41180
 C56 C 0.78716 0.51003 0.58893
 O57 O 0.46569 0.21190 0.56788
 O58 O 0.46716 0.25864 0.43486
 O59 O 0.46587 0.21179 0.43516
 O60 O 0.46732 0.25879 0.56722
 O61 O 0.51231 0.28004 0.56720
 O62 O 0.51086 0.23352 0.43523
 O63 O 0.51216 0.28042 0.43656
 O64 O 0.51057 0.23283 0.56625
 Cu65 Cu 0.46199 0.23309 0.50123
 Cu66 Cu 0.51596 0.25880 0.50134
 C67 C 0.48789 0.21397 0.58891
 C68 C 0.48998 0.27795 0.41434
 C69 C 0.48819 0.21441 0.41346
 C70 C 0.49015 0.27778 0.58870
 O71 O 0.78924 0.25295 0.56781
 O72 O 0.74232 0.20741 0.43543
 O73 O 0.78916 0.25308 0.43505
 O74 O 0.74234 0.20769 0.56783
 O75 O 0.72121 0.23153 0.56779
 O76 O 0.76737 0.27626 0.43484
 O77 O 0.72052 0.23060 0.43713
 O78 O 0.76836 0.27695 0.56586
 Cu79 Cu 0.76795 0.22794 0.50147
 Cu80 Cu 0.74226 0.25621 0.50138
 C81 C 0.78721 0.27313 0.58861
 C82 C 0.72295 0.21084 0.41507
 C83 C 0.78647 0.27272 0.41308
 C84 C 0.72346 0.21163 0.58952
 N85 N 0.97093 0.52360 0.07340
 N86 N 0.95057 0.52822 0.08446
 N87 N 1.02866 0.53628 0.11849
 N88 N 1.04932 0.54965 0.16047
 N89 N 1.02819 0.55278 0.07224
 N90 N 1.04837 0.57797 0.08208
 N91 N 0.97120 0.50701 0.11965
 N92 N 0.95094 0.49965 0.16295
 C93 C 0.93821 0.51299 0.14042
 C94 C 1.06143 0.57561 0.13719
 N95 N 1.02930 0.46908 0.07316
 N96 N 1.04986 0.46472 0.08365
 N97 N 0.97180 0.45662 0.11990
 N98 N 0.95105 0.44359 0.16180
 N99 N 0.97201 0.43986 0.07407
 N100 N 0.95156 0.41483 0.08417
 N101 N 1.02925 0.48590 0.11904
 N102 N 1.04987 0.49368 0.16141
 Mn103 Mn 1.00022 0.49644 0.12000
 C104 C 1.06257 0.48035 0.13881
 C105 C 0.93864 0.41756 0.13904
 N106 N 1.02778 0.55242 -0.07478
 N107 N 1.04788 0.57755 -0.08591
 N108 N 0.97043 0.50640 -0.11953
 N109 N 0.94976 0.49871 -0.16174
 N110 N 0.97051 0.52324 -0.07354
 N111 N 0.95003 0.52772 -0.08369
 N112 N 1.02788 0.53566 -0.12077
 N113 N 1.04816 0.54880 -0.16390
 Mn114 Mn 0.99935 0.53832 -0.00068
 C115 C 1.06049 0.57490 -0.14161
 C116 C 0.93720 0.51214 -0.13878
 N117 N 0.97154 0.43945 -0.07299
 N118 N 0.95121 0.41432 -0.08259
 N119 N 1.02851 0.48528 -0.12020
 N120 N 1.04911 0.49307 -0.16263
 N121 N 1.02878 0.46868 -0.07392
 N122 N 1.04941 0.46443 -0.08419
 N123 N 0.97098 0.45601 -0.11894
 N124 N 0.95006 0.44276 -0.16028
 Mn125 Mn 1.00042 0.45395 0.00008
 Mn126 Mn 0.99945 0.49582 -0.12061
 Cl127 Cl 0.99987 0.49614 -0.00030
 C128 C 0.93794 0.41680 -0.13710
 C129 C 1.06195 0.47990 -0.13964
 N130 N 0.47684 0.44781 0.07323
 N131 N 0.47216 0.42280 0.08431
 N132 N 0.46454 0.49306 0.11932
 N133 N 0.45144 0.50043 0.16189
 N134 N 0.44779 0.47603 0.07356
 N135 N 0.42270 0.47111 0.08425
 N136 N 0.49359 0.46469 0.11923
 N137 N 0.50100 0.45175 0.16233
 C138 C 0.48753 0.42565 0.13997
 C139 C 0.42538 0.48662 0.13944
 N140 N 0.53190 0.56077 0.07250
 N141 N 0.53646 0.58578 0.08265
 N142 N 0.54403 0.51551 0.11826
 N143 N 0.55708 0.50763 0.15964
 N144 N 0.56065 0.53230 0.07192
 N145 N 0.58563 0.53664 0.08121
 N146 N 0.51500 0.54400 0.11847
 N147 N 0.50725 0.55699 0.16043
 Mn148 Mn 0.50430 0.50434 0.11956
 C149 C 0.52080 0.58301 0.13754
 C150 C 0.58297 0.52099 0.13607
 N151 N 0.44737 0.47583 -0.07334
 N152 N 0.42213 0.47051 -0.08366
 N153 N 0.49292 0.46449 -0.12044
 N154 N 0.50043 0.45154 -0.16316
 N155 N 0.47646 0.44773 -0.07385
 N156 N 0.47203 0.42277 -0.08415
 N157 N 0.46387 0.49294 -0.11937
 N158 N 0.45043 0.50010 -0.16158
 Mn159 Mn 0.46182 0.46153 -0.00010
 C160 C 0.42444 0.48596 -0.13867
 C161 C 0.48726 0.42555 -0.13997
 N162 N 0.56029 0.53221 -0.07522
 N163 N 0.58527 0.53675 -0.08560
 N164 N 0.51445 0.54387 -0.12004
 N165 N 0.50666 0.55689 -0.16186
 N166 N 0.53156 0.56066 -0.07445
 N167 N 0.53625 0.58570 -0.08470
 N168 N 0.54345 0.51528 -0.12103
 N169 N 0.55636 0.50744 -0.16303
 Mn170 Mn 0.54642 0.54679 -0.00131
 Mn171 Mn 0.50366 0.50417 -0.12101
 Cl172 Cl 0.50404 0.50420 -0.00073
 C173 C 0.58241 0.52103 -0.14043
 C174 C 0.52043 0.58294 -0.13923
 N175 N 0.43943 -0.02884 0.07258
 N176 N 0.41431 -0.04915 0.08229
 N177 N 0.48500 0.02816 0.12038
 N178 N 0.49288 0.04882 0.16269
 N179 N 0.46836 0.02841 0.07424
 N180 N 0.46415 0.04907 0.08450
 N181 N 0.45600 -0.02939 0.11846
 N182 N 0.44277 -0.05030 0.15989
 C183 C 0.41681 -0.06241 0.13678
 C184 C 0.47969 0.06165 0.13981
 N185 N 0.55234 0.02796 0.07469
 N186 N 0.57741 0.04813 0.08604
 N187 N 0.50652 -0.02961 0.11878
 N188 N 0.49886 -0.05037 0.16067
 N189 N 0.52343 -0.02936 0.07275
 N190 N 0.52799 -0.04982 0.08260
 N191 N 0.53552 0.02785 0.12078
 N192 N 0.54857 0.04805 0.16424
 Mn193 Mn 0.49575 -0.00075 0.12035
 C194 C 0.57467 0.06055 0.14202
 C195 C 0.51237 -0.06281 0.13753
 N196 N 0.46874 0.02917 -0.07277
 N197 N 0.46422 0.04967 -0.08256
 N198 N 0.45669 -0.02804 -0.12044
 N199 N 0.44374 -0.04866 -0.16279
 N200 N 0.43988 -0.02808 -0.07441
 N201 N 0.41490 -0.04855 -0.08480
 N202 N 0.48578 0.02952 -0.11857
 N203 N 0.49369 0.05047 -0.16000
 Mn204 Mn 0.45379 0.00017 -0.00009
 C205 C 0.48008 0.06283 -0.13698
 C206 C 0.41771 -0.06124 -0.14005
 N207 N 0.52384 -0.02860 -0.07426
 N208 N 0.52850 -0.04893 -0.08544
 N209 N 0.53620 0.02912 -0.11852
 N210 N 0.54946 0.04985 -0.16038
 N211 N 0.55275 0.02871 -0.07236
 N212 N 0.57786 0.04902 -0.08211
 N213 N 0.50722 -0.02835 -0.12045
 N214 N 0.49989 -0.04861 -0.16381
 Mn215 Mn 0.53841 -0.00032 0.00021
 Mn216 Mn 0.49647 0.00056 -0.12024
 Cl217 Cl 0.49611 -0.00008 0.00005
 C218 C 0.51329 -0.06130 -0.14141
 C219 C 0.57541 0.06209 -0.13712
 C220 C 1.15341 0.48629 0.28433
 C221 C 1.15812 0.46420 0.28215
 C222 C 1.17860 0.46469 0.32355
 C223 C 1.19451 0.48730 0.36583
 C224 C 1.19000 0.50960 0.36567
 C225 C 1.16922 0.50903 0.32585
 C226 C 1.13095 0.48527 0.24396
 C227 C 1.12540 0.50675 0.24908
 C228 C 1.10325 0.50512 0.21337
 C229 C 1.08688 0.48240 0.17207
 C230 C 1.09314 0.46136 0.16576
 C231 C 1.11499 0.46252 0.20254
 C232 C 1.16346 0.53042 0.32826
 C233 C 1.14179 0.52920 0.29086
 C234 C 1.14189 0.44188 0.23966
 C235 C 1.12080 0.44113 0.20024
 H236 H 1.17547 0.54803 0.36027
 H237 H 1.13766 0.54584 0.29522
 H238 H 1.14538 0.42475 0.23724
 H239 H 1.10866 0.42344 0.16858
 H240 H 1.18200 0.44748 0.32338
 H241 H 1.20191 0.52691 0.39869
 H242 H 1.09862 0.52146 0.21806
 H243 H 1.08046 0.44373 0.13437
 C244 C 0.51527 0.66809 0.28240
 C245 C 0.53924 0.69309 0.29337
 C246 C 0.53839 0.71265 0.33562
 C247 C 0.51364 0.70757 0.36580
 C248 C 0.48957 0.68271 0.35151
 C249 C 0.49040 0.66274 0.31115
 C250 C 0.51640 0.64679 0.24170
 C251 C 0.49276 0.62119 0.23436
 C252 C 0.49431 0.60046 0.19926
 C253 C 0.51906 0.60549 0.17009
 C254 C 0.54234 0.63153 0.17549
 C255 C 0.54125 0.65216 0.21257
 C256 C 0.46698 0.63718 0.30064
 C257 C 0.46819 0.61669 0.26331
 C258 C 0.56368 0.69780 0.26296
 C259 C 0.56462 0.67776 0.22282
 H260 H 0.44766 0.63279 0.32258
 H261 H 0.44977 0.59712 0.25739
 H262 H 0.58230 0.71707 0.27068
 H263 H 0.58393 0.68217 0.20073
 H264 H 0.55707 0.73168 0.34531
 H265 H 0.47034 0.67829 0.37422
 H266 H 0.47633 0.58042 0.19475
 H267 H 0.56147 0.63530 0.15350
 C268 C 0.33112 -0.15274 0.28111
 C269 C 0.33623 -0.17241 0.31004
 C270 C 0.31616 -0.19310 0.35047
 C271 C 0.29144 -0.19363 0.36466
 C272 C 0.28660 -0.17381 0.33429
 C273 C 0.30626 -0.15352 0.29198
 C274 C 0.35255 -0.13042 0.24037
 C275 C 0.34744 -0.11076 0.21114
 C276 C 0.36821 -0.08912 0.17413
 C277 C 0.39413 -0.08661 0.16891
 C278 C 0.39888 -0.10653 0.19812
 C279 C 0.37802 -0.12872 0.23317
 C280 C 0.30180 -0.13363 0.26142
 C281 C 0.32196 -0.11274 0.22126
 C282 C 0.36166 -0.17054 0.29964
 C283 C 0.38227 -0.14894 0.26228
 H284 H 0.28264 -0.13408 0.26906
 H285 H 0.31775 -0.09771 0.19909
 H286 H 0.36586 -0.18559 0.32173
 H287 H 0.40175 -0.14798 0.25650
 H288 H 0.32040 -0.20802 0.37332
 H289 H 0.26767 -0.17396 0.34391
 H290 H 0.36465 -0.07361 0.15214
 H291 H 0.41884 -0.10465 0.19376
 C292 C 0.84865 0.50942 0.28677
 C293 C 0.84382 0.53140 0.28195
 C294 C 0.82357 0.53153 0.32292
 C295 C 0.80793 0.50960 0.36728
 C296 C 0.81253 0.48738 0.36988
 C297 C 0.83315 0.48738 0.33056
 C298 C 0.87085 0.50983 0.24665
 C299 C 0.87653 0.48851 0.25426
 C300 C 0.89839 0.48955 0.21842
 C301 C 0.91431 0.51152 0.17455
 C302 C 0.90795 0.53240 0.16600
 C303 C 0.88642 0.53185 0.20281
 C304 C 0.83906 0.46613 0.33560
 C305 C 0.86052 0.46680 0.29846
 C306 C 0.85969 0.55299 0.23719
 C307 C 0.88051 0.55313 0.19799
 H308 H 0.82731 0.44908 0.36943
 H309 H 0.86478 0.45031 0.30489
 H310 H 0.85612 0.57002 0.23275
 H311 H 0.89237 0.57025 0.16445
 H312 H 0.82008 0.54867 0.32070
 H313 H 0.80083 0.47062 0.40460
 H314 H 0.90310 0.47333 0.22488
 H315 H 0.92028 0.54945 0.13262
 C316 C 0.49107 0.33954 0.28631
 C317 C 0.51306 0.34609 0.33022
 C318 C 0.51305 0.32546 0.36957
 C319 C 0.49086 0.29861 0.36692
 C320 C 0.46897 0.29231 0.32245
 C321 C 0.46911 0.31271 0.28142
 C322 C 0.49067 0.36137 0.24617
 C323 C 0.46868 0.35491 0.20224
 C324 C 0.46813 0.37591 0.16543
 C325 C 0.48899 0.40318 0.17406
 C326 C 0.51092 0.40923 0.21802
 C327 C 0.51195 0.38839 0.25389
 C328 C 0.44756 0.30699 0.23657
 C329 C 0.44743 0.32770 0.19735
 C330 C 0.53427 0.37328 0.33538
 C331 C 0.53361 0.39410 0.29824
 H332 H 0.43055 0.28637 0.23207
 H333 H 0.43033 0.32242 0.16374
 H334 H 0.55129 0.37859 0.36933
 H335 H 0.55005 0.41487 0.30482
 H336 H 0.52977 0.33053 0.40440
 H337 H 0.45184 0.27166 0.32021
 H338 H 0.45110 0.37119 0.13200
 H339 H 0.52711 0.43017 0.22456
 C340 C 0.66108 0.15009 0.28801
 C341 C 0.65467 0.16569 0.33172
 C342 C 0.67538 0.18636 0.37077
 C343 C 0.70219 0.19094 0.36803
 C344 C 0.70835 0.17519 0.32379
 C345 C 0.68786 0.15487 0.28305
 C346 C 0.63918 0.12784 0.24812
 C347 C 0.64550 0.11219 0.20431
 C348 C 0.62442 0.09064 0.16763
 C349 C 0.59721 0.08438 0.17624
 C350 C 0.59130 0.10037 0.22014
 C351 C 0.61222 0.12223 0.25586
 C352 C 0.69344 0.13889 0.23837
 C353 C 0.67266 0.11803 0.19937
 C354 C 0.62754 0.15982 0.33694
 C355 C 0.60665 0.13833 0.30002
 H356 H 0.71402 0.14242 0.23381
 H357 H 0.67783 0.10611 0.16586
 H358 H 0.62233 0.17164 0.37072
 H359 H 0.58593 0.13411 0.30659
 H360 H 0.67042 0.19814 0.40542
 H361 H 0.72896 0.17864 0.32147
 H362 H 0.62904 0.07826 0.13423
 H363 H 0.57041 0.09574 0.22667
 C364 C 0.48573 0.15371 -0.28106
 C365 C 0.51060 0.17326 -0.30983
 C366 C 0.51143 0.19408 -0.35022
 C367 C 0.48737 0.19483 -0.36453
 C368 C 0.46262 0.17514 -0.33426
 C369 C 0.46177 0.15473 -0.29201
 C370 C 0.48459 0.13124 -0.24043
 C371 C 0.45972 0.11170 -0.21138
 C372 C 0.45861 0.08992 -0.17447
 C373 C 0.48187 0.08715 -0.16916
 C374 C 0.50664 0.10696 -0.19820
 C375 C 0.50821 0.12928 -0.23315
 C376 C 0.43732 0.13495 -0.26162
 C377 C 0.43636 0.11393 -0.22156
 C378 C 0.53401 0.17114 -0.29932
 C379 C 0.53279 0.14941 -0.26204
 H380 H 0.41871 0.13559 -0.26932
 H381 H 0.41705 0.09899 -0.19953
 H382 H 0.55334 0.18611 -0.32126
 H383 H 0.55120 0.14827 -0.25615
 H384 H 0.53066 0.20890 -0.37298
 H385 H 0.44394 0.17547 -0.34395
 H386 H 0.43946 0.07451 -0.15260
 H387 H 0.52460 0.10489 -0.19377
 C388 C 0.66748 0.51505 -0.28408
 C389 C 0.66207 0.49014 -0.31281
 C390 C 0.68209 0.48921 -0.35275
 C391 C 0.70706 0.51322 -0.36660
 C392 C 0.71218 0.53800 -0.33639
 C393 C 0.69258 0.53894 -0.29462
 C394 C 0.64614 0.51629 -0.24385
 C395 C 0.65157 0.54118 -0.21475
 C396 C 0.63093 0.54238 -0.17804
 C397 C 0.60483 0.51918 -0.17296
 C398 C 0.59974 0.49438 -0.20212
 C399 C 0.62047 0.49272 -0.23686
 C400 C 0.69734 0.56342 -0.26426
 C401 C 0.67727 0.56448 -0.22457
 C402 C 0.63644 0.46679 -0.30265
 C403 C 0.61593 0.46811 -0.26571
 H404 H 0.71668 0.58199 -0.27165
 H405 H 0.68172 0.58381 -0.20250
 H406 H 0.63200 0.44743 -0.32454
 H407 H 0.59632 0.44974 -0.25999
 H408 H 0.67764 0.46996 -0.37548
 H409 H 0.73129 0.55663 -0.34573
 H410 H 0.63477 0.56154 -0.15603
 H411 H 0.57965 0.47646 -0.19782
 C412 C 0.84732 0.33134 -0.28125
 C413 C 0.82776 0.33660 -0.31013
 C414 C 0.80702 0.31660 -0.35065
 C415 C 0.80634 0.29180 -0.36492
 C416 C 0.82606 0.28681 -0.33458
 C417 C 0.84641 0.30640 -0.29223
 C418 C 0.86970 0.35269 -0.24047
 C419 C 0.88928 0.34744 -0.21134
 C420 C 0.91099 0.36815 -0.17435
 C421 C 0.91365 0.39415 -0.16904
 C422 C 0.89379 0.39902 -0.19809
 C423 C 0.87155 0.37823 -0.23314
 C424 C 0.86620 0.30180 -0.26175
 C425 C 0.88715 0.32189 -0.22158
 C426 C 0.82977 0.36210 -0.29959
 C427 C 0.85141 0.38263 -0.26215
 H428 H 0.86564 0.28258 -0.26947
 H429 H 0.90212 0.31757 -0.19949
 H430 H 0.81479 0.36641 -0.32161
 H431 H 0.85248 0.40216 -0.25626
 H432 H 0.79218 0.32095 -0.37345
 H433 H 0.82580 0.26783 -0.34426
 H434 H 0.92645 0.36449 -0.15247
 H435 H 0.89578 0.41903 -0.19367
 C436 C 0.50970 -0.15113 -0.28681
 C437 C 0.48759 -0.16680 -0.33025
 C438 C 0.48758 -0.18749 -0.36932
 C439 C 0.50986 -0.19199 -0.36685
 C440 C 0.53184 -0.17620 -0.32279
 C441 C 0.53172 -0.15587 -0.28205
 C442 C 0.51013 -0.12883 -0.24702
 C443 C 0.53221 -0.11310 -0.20351
 C444 C 0.53278 -0.09149 -0.16697
 C445 C 0.51184 -0.08521 -0.17548
 C446 C 0.48982 -0.10127 -0.21906
 C447 C 0.48877 -0.12323 -0.25460
 C448 C 0.55338 -0.13983 -0.23763
 C449 C 0.55353 -0.11893 -0.19872
 C450 C 0.46630 -0.16096 -0.33525
 C451 C 0.46699 -0.13941 -0.29843
 H452 H 0.57044 -0.14334 -0.23324
 H453 H 0.57071 -0.10695 -0.16543
 H454 H 0.44919 -0.17284 -0.36882
 H455 H 0.45046 -0.13522 -0.30481
 H456 H 0.47079 -0.19931 -0.40383
 H457 H 0.54903 -0.17960 -0.32068
 H458 H 0.54986 -0.07906 -0.13381
 H459 H 0.47357 -0.09662 -0.22548
 C460 C 0.33718 0.48781 -0.28260
 C461 C 0.34162 0.51231 -0.31184
 C462 C 0.32107 0.51230 -0.35156
 C463 C 0.29657 0.48774 -0.36494
 C464 C 0.29241 0.46335 -0.33434
 C465 C 0.31252 0.46336 -0.29254
 C466 C 0.35909 0.48760 -0.24247
 C467 C 0.35461 0.46313 -0.21269
 C468 C 0.37578 0.46294 -0.17594
 C469 C 0.40149 0.48673 -0.17152
 C470 C 0.40564 0.51107 -0.20152
 C471 C 0.38436 0.51171 -0.23628
 C472 C 0.30872 0.43931 -0.26159
 C473 C 0.32932 0.43925 -0.22187
 C474 C 0.36688 0.53622 -0.30256
 C475 C 0.38796 0.53587 -0.26591
 H476 H 0.28973 0.42033 -0.26850
 H477 H 0.32560 0.42023 -0.19928
 H478 H 0.37059 0.55527 -0.32498
 H479 H 0.40728 0.55461 -0.26108
 H480 H 0.32480 0.53126 -0.37468
 H481 H 0.27366 0.44431 -0.34334
 H482 H 0.37267 0.44412 -0.15333
 H483 H 0.42542 0.52943 -0.19776
 C484 C 1.14992 0.66147 -0.28732
 C485 C 1.16590 0.65517 -0.32988
 C486 C 1.18648 0.67586 -0.36917
 C487 C 1.19060 0.70253 -0.36777
 C488 C 1.17449 0.70859 -0.32457
 C489 C 1.15424 0.68813 -0.28366
 C490 C 1.12773 0.63956 -0.24731
 C491 C 1.11166 0.64576 -0.20470
 C492 C 1.09015 0.62466 -0.16801
 C493 C 1.08432 0.59753 -0.17551
 C494 C 1.10075 0.59174 -0.21813
 C495 C 1.12259 0.61270 -0.25379
 C496 C 1.13787 0.69360 -0.24010
 C497 C 1.11706 0.67282 -0.20100
 C498 C 1.16052 0.62815 -0.33376
 C499 C 1.13910 0.60725 -0.29671
 H500 H 1.14105 0.71409 -0.23655
 H501 H 1.10482 0.67790 -0.16841
 H502 H 1.17266 0.62304 -0.36661
 H503 H 1.13527 0.58661 -0.30218
 H504 H 1.19854 0.67096 -0.40295
 H505 H 1.17760 0.72910 -0.32324
 H506 H 1.07743 0.62916 -0.13558
 H507 H 1.09645 0.57091 -0.22376
 C508 C 0.84712 0.50854 -0.28213
 C509 C 0.84314 0.53109 -0.27939
 C510 C 0.82296 0.53132 -0.32045
 C511 C 0.80662 0.50898 -0.36295
 C512 C 0.81031 0.48616 -0.36326
 C513 C 0.83081 0.48601 -0.32379
 C514 C 0.86936 0.50888 -0.24235
 C515 C 0.87426 0.48697 -0.24814
 C516 C 0.89629 0.48802 -0.21306
 C517 C 0.91309 0.51057 -0.17173
 C518 C 0.90745 0.53199 -0.16471
 C519 C 0.88580 0.53144 -0.20086
 C520 C 0.83588 0.46415 -0.32678
 C521 C 0.85736 0.46471 -0.28992
 C522 C 0.85982 0.55318 -0.23678
 C523 C 0.88067 0.55328 -0.19786
 H524 H 0.82346 0.44670 -0.35889
 H525 H 0.86094 0.44771 -0.29473
 H526 H 0.85688 0.57065 -0.23394
 H527 H 0.89321 0.57081 -0.16610
 H528 H 0.82018 0.54892 -0.31999
 H529 H 0.79804 0.46905 -0.39654
 H530 H 0.90047 0.47140 -0.21822
 H531 H 0.92047 0.54947 -0.13325
 C532 C 0.49126 0.33930 -0.28343
 C533 C 0.51356 0.34572 -0.32609
 C534 C 0.51355 0.32507 -0.36526
 C535 C 0.49107 0.29836 -0.36368
 C536 C 0.46893 0.29217 -0.32032
 C537 C 0.46905 0.31258 -0.27949
 C538 C 0.49080 0.36117 -0.24379
 C539 C 0.46849 0.35484 -0.20121
 C540 C 0.46784 0.37589 -0.16507
 C541 C 0.48890 0.40308 -0.17314
 C542 C 0.51118 0.40903 -0.21564
 C543 C 0.51233 0.38812 -0.25074
 C544 C 0.44719 0.30698 -0.23588
 C545 C 0.44700 0.32772 -0.19708
 C546 C 0.53505 0.37281 -0.33033
 C547 C 0.53435 0.39369 -0.29364
 H548 H 0.42999 0.28643 -0.23211
 H549 H 0.42966 0.32256 -0.16448
 H550 H 0.55231 0.37801 -0.36326
 H551 H 0.55103 0.41440 -0.29945
 H552 H 0.53048 0.33004 -0.39926
 H553 H 0.45159 0.27162 -0.31891
 H554 H 0.45056 0.37128 -0.13271
 H555 H 0.52753 0.42994 -0.22163
 C556 C 0.66211 0.15186 -0.28082
 C557 C 0.65600 0.16839 -0.32192
 C558 C 0.67663 0.18877 -0.36170
 C559 C 0.70300 0.19215 -0.36226
 C560 C 0.70890 0.17558 -0.32035
 C561 C 0.68852 0.15550 -0.27898
 C562 C 0.64022 0.12974 -0.24070
 C563 C 0.64621 0.11306 -0.19981
 C564 C 0.62508 0.09149 -0.16344
 C565 C 0.59811 0.08619 -0.16972
 C566 C 0.59252 0.10327 -0.21038
 C567 C 0.61353 0.12520 -0.24564
 C568 C 0.69382 0.13859 -0.23692
 C569 C 0.67306 0.11784 -0.19770
 C570 C 0.62920 0.16367 -0.32404
 C571 C 0.60828 0.14232 -0.28687
 H572 H 0.71413 0.14126 -0.23476
 H573 H 0.67796 0.10512 -0.16642
 H574 H 0.62425 0.17626 -0.35570
 H575 H 0.58777 0.13899 -0.29103
 H576 H 0.67185 0.20122 -0.39449
 H577 H 0.72918 0.17813 -0.32053
 H578 H 0.62939 0.07824 -0.13252
 H579 H 0.57179 0.09936 -0.21496
 C580 C 1.15319 0.48593 -0.28253
 C581 C 1.15707 0.46329 -0.28271
 C582 C 1.17765 0.46387 -0.32372
 C583 C 1.19446 0.48705 -0.36336
 C584 C 1.19081 0.50987 -0.36073
 C585 C 1.16997 0.50928 -0.32121
 C586 C 1.13060 0.48486 -0.24279
 C587 C 1.12589 0.50694 -0.24565
 C588 C 1.10355 0.50527 -0.21081
 C589 C 1.08629 0.48195 -0.17238
 C590 C 1.09175 0.46032 -0.16806
 C591 C 1.11370 0.46149 -0.20422
 C592 C 1.16509 0.53127 -0.32118
 C593 C 1.14332 0.53006 -0.28429
 C594 C 1.13991 0.44037 -0.24298
 C595 C 1.11870 0.43955 -0.20408
 H596 H 1.17790 0.54939 -0.35086
 H597 H 1.13997 0.54725 -0.28649
 H598 H 1.14275 0.42282 -0.24239
 H599 H 1.10582 0.42140 -0.17459
 H600 H 1.18040 0.44625 -0.32542
 H601 H 1.20345 0.52768 -0.39165
 H602 H 1.09950 0.52205 -0.21381
 H603 H 1.07837 0.44226 -0.13882
 C604 C 0.51518 0.66847 -0.28256
 C605 C 0.49030 0.66326 -0.31098
 C606 C 0.48951 0.68332 -0.35105
 C607 C 0.51362 0.70809 -0.36553
 C608 C 0.53839 0.71306 -0.33559
 C609 C 0.53919 0.69343 -0.29354
 C610 C 0.51626 0.64704 -0.24233
 C611 C 0.54111 0.65224 -0.21355
 C612 C 0.54214 0.63149 -0.17691
 C613 C 0.51880 0.60549 -0.17165
 C614 C 0.49405 0.60062 -0.20052
 C615 C 0.49257 0.62147 -0.23516
 C616 C 0.56364 0.69798 -0.26346
 C617 C 0.56454 0.67782 -0.22368
 C618 C 0.46683 0.63774 -0.30062
 C619 C 0.46800 0.61712 -0.26381
 H620 H 0.58230 0.71721 -0.27118
 H621 H 0.58385 0.68210 -0.20184
 H622 H 0.44751 0.63346 -0.32237
 H623 H 0.44958 0.59757 -0.25814
 H624 H 0.47027 0.67898 -0.37357
 H625 H 0.55710 0.73204 -0.34545
 H626 H 0.56127 0.63514 -0.15512
 H627 H 0.47602 0.58060 -0.19606
 C628 C 0.33239 -0.15230 -0.28340
 C629 C 0.30606 -0.15574 -0.28515
 C630 C 0.28611 -0.17624 -0.32654
 C631 C 0.29237 -0.19338 -0.36507
 C632 C 0.31864 -0.19017 -0.36081
 C633 C 0.33882 -0.16944 -0.32086
 C634 C 0.35389 -0.12979 -0.24334
 C635 C 0.38052 -0.12553 -0.24468
 C636 C 0.40122 -0.10323 -0.20973
 C637 C 0.39533 -0.08556 -0.17268
 C638 C 0.36837 -0.09059 -0.16975
 C639 C 0.34758 -0.11249 -0.20608
 C640 C 0.36552 -0.16502 -0.31921
 C641 C 0.38605 -0.14335 -0.28200
 C642 C 0.30044 -0.13821 -0.24663
 C643 C 0.32081 -0.11706 -0.20745
 H644 H 0.37070 -0.17814 -0.34790
 H645 H 0.40646 -0.14036 -0.28292
 H646 H 0.28019 -0.14071 -0.24725
 H647 H 0.31567 -0.10387 -0.17897
 H648 H 0.26592 -0.17864 -0.32945
 H649 H 0.32373 -0.20307 -0.39079
 H650 H 0.42194 -0.09951 -0.21161
 H651 H 0.36385 -0.07688 -0.14154
 C652 C 0.50887 -0.15278 0.28142
 C653 C 0.48629 -0.16915 0.32283
 C654 C 0.48649 -0.18956 0.36270
 C655 C 0.50938 -0.19310 0.36298
 C656 C 0.53178 -0.17669 0.32068
 C657 C 0.53152 -0.15660 0.27928
 C658 C 0.50917 -0.13062 0.24129
 C659 C 0.53181 -0.11409 0.20012
 C660 C 0.53233 -0.09247 0.16375
 C661 C 0.51081 -0.08697 0.17026
 C662 C 0.48818 -0.10390 0.21119
 C663 C 0.48716 -0.12588 0.24648
 C664 C 0.55367 -0.13985 0.23693
 C665 C 0.55374 -0.11906 0.19771
 C666 C 0.46432 -0.16426 0.32518
 C667 C 0.46483 -0.14287 0.28796
 H668 H 0.57121 -0.14266 0.23456
 H669 H 0.57133 -0.10646 0.16620
 H670 H 0.44682 -0.17673 0.35707
 H671 H 0.44774 -0.13941 0.29228
 H672 H 0.46932 -0.20189 0.39576
 H673 H 0.54944 -0.17936 0.32063
 H674 H 0.54987 -0.07935 0.13261
 H675 H 0.47148 -0.09983 0.21596
 C676 C 0.33900 0.48956 0.28474
 C677 C 0.31256 0.46679 0.28303
 C678 C 0.29222 0.46656 0.32436
 C679 C 0.29819 0.48910 0.36609
 C680 C 0.32461 0.51206 0.36546
 C681 C 0.34519 0.51224 0.32570
 C682 C 0.36083 0.48932 0.24447
 C683 C 0.38753 0.51149 0.24914
 C684 C 0.40847 0.51059 0.21355
 C685 C 0.40279 0.48793 0.17282
 C686 C 0.37580 0.46620 0.16690
 C687 C 0.35474 0.46661 0.20359
 C688 C 0.37201 0.53434 0.32761
 C689 C 0.39287 0.53389 0.29030
 C690 C 0.30718 0.44455 0.24106
 C691 C 0.32788 0.44454 0.20170
 H692 H 0.37702 0.55193 0.35917
 H693 H 0.41339 0.55109 0.29423
 H694 H 0.28686 0.42692 0.23901
 H695 H 0.32291 0.42689 0.17043
 H696 H 0.27190 0.44885 0.32457
 H697 H 0.32945 0.52936 0.39805
 H698 H 0.42921 0.52744 0.21785
 H699 H 0.37141 0.44864 0.13590
 C700 C 1.15113 0.66262 0.28030
 C701 C 1.15404 0.68876 0.28073
 C702 C 1.17416 0.70911 0.32210
 C703 C 1.19145 0.70345 0.36186
 C704 C 1.18878 0.67738 0.35894
 C705 C 1.16841 0.65678 0.31907
 C706 C 1.12900 0.64069 0.24028
 C707 C 1.12522 0.61424 0.24296
 C708 C 1.10327 0.59313 0.20799
 C709 C 1.08546 0.59843 0.16966
 C710 C 1.09000 0.62521 0.16545
 C711 C 1.11156 0.64641 0.20172
 C712 C 1.16447 0.63024 0.31881
 C713 C 1.14314 0.60930 0.28166
 C714 C 1.13640 0.69379 0.24094
 C715 C 1.11562 0.67301 0.20179
 H716 H 1.17768 0.62550 0.34856
 H717 H 1.14050 0.58902 0.28375
 H718 H 1.13850 0.71389 0.24054
 H719 H 1.10232 0.67770 0.17231
 H720 H 1.17615 0.72916 0.32402
 H721 H 1.20179 0.67276 0.38995
 H722 H 1.09992 0.57255 0.21092
 H723 H 1.07618 0.62928 0.13628
 C724 C 0.48644 0.15311 0.28316
 C725 C 0.46367 0.15674 0.28511
 C726 C 0.46446 0.17733 0.32655
 C727 C 0.48795 0.19435 0.36497
 C728 C 0.51088 0.19095 0.36050
 C729 C 0.51011 0.17014 0.32046
 C730 C 0.48518 0.13051 0.24304
 C731 C 0.50743 0.12606 0.24417
 C732 C 0.50558 0.10365 0.20921
 C733 C 0.48191 0.08609 0.17236
 C734 C 0.46011 0.09132 0.16961
 C735 C 0.46147 0.11332 0.20595
 C736 C 0.53227 0.16554 0.31857
 C737 C 0.53089 0.14378 0.28129
 C738 C 0.44041 0.13933 0.24674
 C739 C 0.43939 0.11809 0.20752
 H740 H 0.55065 0.17857 0.34712
 H741 H 0.54823 0.14065 0.28200
 H742 H 0.42276 0.14198 0.24752
 H743 H 0.42098 0.10499 0.17917
 H744 H 0.44676 0.17988 0.32961
 H745 H 0.52895 0.20377 0.39037
 H746 H 0.52248 0.09977 0.21096
 H747 H 0.44179 0.07769 0.14155
 C748 C 0.66769 0.51426 0.27911
 C749 C 0.66117 0.49023 0.31462
 C750 C 0.68103 0.48948 0.35544
 C751 C 0.70705 0.51274 0.36243
 C752 C 0.71343 0.53658 0.32564
 C753 C 0.69381 0.53739 0.28351
 C754 C 0.64646 0.51551 0.23847
 C755 C 0.65281 0.53960 0.20337
 C756 C 0.63219 0.54097 0.16689
 C757 C 0.60534 0.51877 0.16765
 C758 C 0.59943 0.49469 0.20229
 C759 C 0.61996 0.49285 0.23731
 C760 C 0.69952 0.56101 0.24695
 C761 C 0.67942 0.56205 0.20726
 C762 C 0.63467 0.46768 0.31027
 C763 C 0.61438 0.46902 0.27246
 H764 H 0.71963 0.57895 0.24961
 H765 H 0.68460 0.58076 0.18046
 H766 H 0.62943 0.44902 0.33736
 H767 H 0.59410 0.45136 0.27126
 H768 H 0.67584 0.47111 0.38395
 H769 H 0.73344 0.55454 0.33058
 H770 H 0.63671 0.55960 0.14055
 H771 H 0.57878 0.47750 0.20248
 C772 C 0.84747 0.33233 0.28213
 C773 C 0.83008 0.33874 0.31848
 C774 C 0.80938 0.31866 0.35871
 C775 C 0.80643 0.29251 0.36432
 C776 C 0.82380 0.28626 0.32680
 C777 C 0.84430 0.30611 0.28520
 C778 C 0.86997 0.35376 0.24190
 C779 C 0.88754 0.34749 0.20582
 C780 C 0.90947 0.36825 0.16947
 C781 C 0.91424 0.39514 0.17125
 C782 C 0.89628 0.40098 0.20703
 C783 C 0.87396 0.38031 0.24197
 C784 C 0.86207 0.30051 0.24777
 C785 C 0.88323 0.32081 0.20845
 C786 C 0.83421 0.36533 0.31550
 C787 C 0.85587 0.38580 0.27811
 H788 H 0.85978 0.28034 0.24940
 H789 H 0.89663 0.31569 0.18089
 H790 H 0.82090 0.37050 0.34329
 H791 H 0.85863 0.40614 0.27797
 H792 H 0.79629 0.32375 0.38785
 H793 H 0.82161 0.26617 0.33072
 H794 H 0.92341 0.36377 0.14224
 H795 H 0.89981 0.42165 0.20803
   
