data_POSCAR
  _audit_creation_date              2014-09-24
  _audit_creation_method            'ToBaCCo'
  _symmetry_space_group_name_H-M    'P1'
  _symmetry_Int_Tables_number       1
  _symmetry_cell_setting            triclinic
  loop_
  _symmetry_equiv_pos_as_xyz
 x,y,z
_cell_length_a 29.9345
_cell_length_b 30.5460
_cell_length_c 33.6674
_cell_angle_alpha 87.238100
_cell_angle_beta 88.091300
_cell_angle_gamma 88.888600
loop_
  _atom_site_label
  _atom_site_type_symbol
  _atom_site_fract_x
  _atom_site_fract_y
  _atom_site_fract_z
C1 C 1.23014 0.24549 0.25289
 C2 C 0.74467 -0.28478 0.24214
 C3 C 0.73465 0.23946 -0.26343
 C4 C 1.24025 -0.23579 -0.24586
 C5 C 0.27111 0.23590 0.75485
 C6 C 0.75372 0.76025 0.75645
 C7 C 0.76417 0.28345 0.26008
 C8 C 0.25835 0.75724 0.24343
 O9 O 1.05206 0.02857 0.06263
 O10 O 0.90225 -0.01811 0.04805
 O11 O 0.95260 0.07932 0.05713
 O12 O 1.00357 -0.06969 0.05545
 O13 O 0.89481 0.05684 0.02948
 O14 O 1.06676 -0.04241 0.03957
 O15 O 0.93205 -0.07623 0.02660
 O16 O 1.03022 0.09092 0.04046
 C17 C 1.04608 0.06770 0.06819
 C18 C 0.90877 -0.05787 0.05260
 C19 C 0.91169 0.07448 0.05804
 C20 C 1.04284 -0.06453 0.06378
 O21 O 1.06788 -0.00809 -0.03686
 O22 O 0.91478 0.03814 -0.04845
 O23 O 1.01068 0.08893 -0.03813
 O24 O 0.97124 -0.06082 -0.04695
 O25 O 0.90594 -0.03824 -0.03036
 O26 O 1.07040 0.06351 -0.01330
 O27 O 1.04289 -0.07078 -0.01895
 O28 O 0.93382 0.09527 -0.02057
 Co29 Co 1.05665 0.01044 0.01246
 Co30 Co 0.91218 0.00969 0.00021
 Co31 Co 0.98223 0.08096 0.00948
 Co32 Co 0.98717 -0.06167 0.00434
 O33 O 0.98456 0.00980 0.00661
 C34 C 1.06594 -0.04739 -0.04281
 C35 C 0.91986 0.07819 -0.05046
 C36 C 1.05133 0.08334 -0.04150
 C37 C 0.93166 -0.05572 -0.05524
 O38 O 1.07911 0.52146 0.57215
 O39 O 0.93151 0.47383 0.54854
 O40 O 0.97764 0.57510 0.56177
 O41 O 1.03235 0.42609 0.55714
 O42 O 0.92332 0.55108 0.53051
 O43 O 1.09666 0.45228 0.54559
 O44 O 0.96451 0.41926 0.52359
 O45 O 1.05595 0.58493 0.55237
 C46 C 1.07184 0.56024 0.57928
 C47 C 0.93949 0.43395 0.55010
 C48 C 0.93712 0.56869 0.56028
 C49 C 1.07116 0.42922 0.56748
 O50 O 1.10131 0.49265 0.47036
 O51 O 0.94724 0.53533 0.45451
 O52 O 1.04636 0.58848 0.47110
 O53 O 1.00691 0.44006 0.45305
 O54 O 0.94022 0.45911 0.46858
 O55 O 1.10228 0.56146 0.50099
 O56 O 1.07653 0.42967 0.48486
 O57 O 0.96671 0.59271 0.48262
 Co58 Co 1.08710 0.50672 0.52106
 Co59 Co 0.94342 0.50484 0.50178
 Co60 Co 1.01217 0.57765 0.51631
 Co61 Co 1.01974 0.43614 0.50532
 O62 O 1.01549 0.50643 0.51115
 C63 C 1.09747 0.45451 0.46095
 C64 C 0.95157 0.57548 0.45312
 C65 C 1.08738 0.58391 0.47243
 C66 C 0.96758 0.44446 0.44351
 O67 O 0.59010 0.00571 0.52895
 O68 O 0.43500 -0.03359 0.53883
 O69 O 0.49994 0.06201 0.54317
 O70 O 0.52692 -0.09056 0.52665
 O71 O 0.43363 0.04325 0.53011
 O72 O 0.59037 -0.06545 0.50615
 O73 O 0.45064 -0.08881 0.50565
 O74 O 0.57189 0.06933 0.50921
 C75 C 0.58941 0.04503 0.53504
 C76 C 0.43561 -0.07371 0.53695
 C77 C 0.46021 0.05861 0.55371
 C78 C 0.56748 -0.08780 0.53132
 O79 O 0.57931 -0.03013 0.42866
 O80 O 0.43193 0.03437 0.44791
 O81 O 0.53124 0.07368 0.43918
 O82 O 0.47834 -0.07085 0.43083
 O83 O 0.42044 -0.04026 0.45811
 O84 O 0.59329 0.03965 0.44977
 O85 O 0.55469 -0.09071 0.45078
 O86 O 0.46094 0.08639 0.47551
 Co87 Co 0.58112 -0.01193 0.47906
 Co88 Co 0.43756 0.00037 0.49304
 Co89 Co 0.51536 0.06484 0.49104
 Co90 Co 0.50345 -0.07720 0.47910
 O91 O 0.50935 -0.00604 0.48557
 C92 C 0.57376 -0.06907 0.42333
 C93 C 0.43761 0.07393 0.44875
 C94 C 0.57020 0.06540 0.42823
 C95 C 0.43827 -0.05957 0.42940
 O96 O 0.58318 0.53196 0.00595
 O97 O 0.39872 0.44190 0.02489
 O98 O 0.45334 0.56966 0.03845
 O99 O 0.53180 0.40295 0.02392
 O100 O 0.42048 0.50900 0.05688
 O101 O 0.56962 0.45909 0.03716
 O102 O 0.45897 0.41633 0.04599
 O103 O 0.53023 0.55800 0.04011
 C104 C 0.57052 0.55049 0.03624
 C105 C 0.41812 0.41804 0.04960
 C106 C 0.43171 0.54665 0.06454
 C107 C 0.55750 0.42131 0.04641
 O108 O 0.56833 0.42793 -0.03521
 O109 O 0.40422 0.55263 -0.01009
 O110 O 0.53861 0.56716 -0.04321
 O111 O 0.43145 0.41894 -0.03375
 O112 O 0.40562 0.48414 -0.04548
 O113 O 0.56198 0.50398 -0.06324
 O114 O 0.50417 0.41864 -0.05503
 O115 O 0.45970 0.57099 -0.04586
 Co116 Co 0.56230 0.48144 -0.01275
 Co117 Co 0.41601 0.49596 0.00543
 Co118 Co 0.49484 0.55970 -0.00285
 Co119 Co 0.48229 0.42069 -0.00451
 O120 O 0.48902 0.48949 -0.00368
 C121 C 0.54442 0.41456 -0.06117
 C122 C 0.41893 0.57264 -0.04019
 C123 C 0.55778 0.54434 -0.06942
 C124 C 0.41078 0.44599 -0.05598
 C125 C 1.19843 0.22910 0.22292
 C126 C 1.17104 0.19295 0.23016
 C127 C 1.14192 0.17794 0.19938
 N128 N 1.12458 0.13719 0.20293
 N129 N 1.10036 0.12233 0.17411
 C130 C 1.09230 0.14780 0.14081
 N131 N 1.10890 0.18885 0.13762
 N132 N 1.13336 0.20360 0.16632
 C133 C 1.06838 0.13079 0.10751
 C134 C 1.06226 0.08605 0.10440
 H135 H 1.17284 0.17387 0.25804
 H136 H 1.05934 0.15337 0.08317
 H137 H 1.19477 0.24849 0.19534
 H138 H 1.07335 0.06328 0.12787
 C139 C 1.21444 0.73957 0.72467
 C140 C 1.19551 0.69866 0.73336
 C141 C 1.16649 0.67894 0.70496
 N142 N 1.15681 0.63568 0.70872
 N143 N 1.13158 0.61758 0.68225
 C144 C 1.11475 0.64226 0.65137
 N145 N 1.12382 0.68559 0.64806
 N146 N 1.14925 0.70357 0.67430
 C147 C 1.08927 0.62287 0.62035
 C148 C 1.08789 0.57783 0.61593
 H149 H 1.20252 0.68071 0.76104
 H150 H 1.07507 0.64501 0.59781
 H151 H 1.20633 0.75681 0.69684
 H152 H 1.10297 0.55540 0.63774
 C153 C 0.70575 0.22164 0.70496
 C154 C 0.68437 0.18132 0.70901
 C155 C 0.66329 0.16238 0.67497
 N156 N 0.65488 0.11882 0.67557
 N157 N 0.63811 0.10097 0.64402
 C158 C 0.62899 0.12611 0.61077
 N159 N 0.63681 0.16972 0.61042
 N160 N 0.65386 0.18748 0.64181
 C161 C 0.61067 0.10731 0.57547
 C162 C 0.60934 0.06232 0.57032
 H163 H 0.68653 0.16164 0.73651
 H164 H 0.59862 0.12990 0.55226
 H165 H 0.70238 0.24092 0.67728
 H166 H 0.62268 0.03939 0.59264
 C167 C 0.70866 0.69086 0.22192
 C168 C 0.71892 0.65876 0.19470
 C169 C 0.68490 0.63961 0.17061
 N170 N 0.69771 0.61192 0.14190
 N171 N 0.66765 0.59560 0.11864
 C172 C 0.62360 0.60633 0.12326
 N173 N 0.61070 0.63373 0.15222
 N174 N 0.64081 0.65014 0.17544
 C175 C 0.59031 0.58966 0.09684
 C176 C 0.60291 0.56530 0.06424
 H177 H 0.75350 0.64891 0.18947
 H178 H 0.55538 0.59796 0.10237
 H179 H 0.67402 0.70117 0.22611
 H180 H 0.63788 0.55749 0.05836
 C181 C 0.77137 -0.25852 0.21024
 C182 C 0.78803 -0.21666 0.21445
 C183 C 0.81424 -0.19394 0.18217
 N184 N 0.82296 -0.15071 0.18415
 N185 N 0.84581 -0.12959 0.15474
 C186 C 0.86107 -0.15096 0.12235
 N187 N 0.85283 -0.19432 0.12060
 N188 N 0.82974 -0.21538 0.14990
 C189 C 0.88550 -0.12775 0.08926
 C190 C 0.88637 -0.08218 0.08601
 H191 H 0.78134 -0.19975 0.24158
 H192 H 0.90138 -0.14675 0.06621
 H193 H 0.77998 -0.27464 0.18298
 H194 H 0.86879 -0.06327 0.10823
 C195 C 0.75988 0.27859 0.71817
 C196 C 0.79250 0.27347 0.68817
 C197 C 0.81605 0.31038 0.66793
 N198 N 0.84969 0.30189 0.64141
 N199 N 0.87106 0.33449 0.62188
 C200 C 0.85965 0.37696 0.62795
 N201 N 0.82591 0.38558 0.65456
 N202 N 0.80452 0.35284 0.67429
 C203 C 0.88264 0.41273 0.60491
 C204 C 0.91792 0.40278 0.57869
 H205 H 0.80111 0.24075 0.67905
 H206 H 0.87083 0.44627 0.60727
 H207 H 0.75113 0.31133 0.72720
 H208 H 0.92932 0.36901 0.57707
 C209 C 0.26661 -0.20051 0.73078
 C210 C 0.29819 -0.21138 0.70129
 C211 C 0.32299 -0.17875 0.67656
 N212 N 0.35203 -0.19261 0.64795
 N213 N 0.37412 -0.16388 0.62421
 C214 C 0.36808 -0.12013 0.62818
 N215 N 0.33928 -0.10614 0.65708
 N216 N 0.31709 -0.13498 0.68090
 C217 C 0.39096 -0.08854 0.60054
 C218 C 0.41617 -0.10311 0.56813
 H219 H 0.30414 -0.24554 0.69522
 H220 H 0.38608 -0.05375 0.60443
 H221 H 0.25963 -0.16620 0.73563
 H222 H 0.42004 -0.13794 0.56398
 C223 C 0.26589 0.27333 0.23151
 C224 C 0.28810 0.25975 0.19704
 C225 C 0.32247 0.28615 0.17598
 N226 N 0.32916 0.28245 0.13630
 N227 N 0.35808 0.30809 0.11595
 C228 C 0.38195 0.33780 0.13467
 N229 N 0.37625 0.34075 0.17460
 N230 N 0.34677 0.31546 0.19491
 C231 C 0.40992 0.36889 0.11124
 C232 C 0.39271 0.38880 0.07699
 H233 H 0.27738 0.23059 0.18322
 H234 H 0.44204 0.37810 0.12180
 H235 H 0.27851 0.30141 0.24574
 H236 H 0.35833 0.38291 0.06987
 C237 C 0.76784 0.20463 -0.24813
 C238 C 0.80122 0.21500 -0.22234
 C239 C 0.82529 0.18180 -0.19784
 N240 N 0.85457 0.19503 -0.17123
 N241 N 0.87374 0.16615 -0.14602
 C242 C 0.86434 0.12285 -0.14634
 N243 N 0.83557 0.10942 -0.17342
 N244 N 0.81632 0.13839 -0.19869
 C245 C 0.88267 0.09150 -0.11617
 C246 C 0.90621 0.10631 -0.08460
 H247 H 0.80686 0.24911 -0.21697
 H248 H 0.87495 0.05708 -0.11721
 H249 H 0.76237 0.17042 -0.25307
 H250 H 0.91293 0.14094 -0.08340
 C251 C 0.77605 0.68272 0.26308
 C252 C 0.81297 0.69671 0.28306
 C253 C 0.83957 0.66718 0.30913
 N254 N 0.87058 0.68412 0.33223
 N255 N 0.89338 0.65831 0.35766
 C256 C 0.88614 0.61451 0.36081
 N257 N 0.85556 0.59745 0.33731
 N258 N 0.83262 0.62331 0.31197
 C259 C 0.90911 0.58601 0.39044
 C260 C 0.93464 0.60305 0.41977
 H261 H 0.82072 0.73124 0.28172
 H262 H 0.90313 0.55111 0.39092
 H263 H 0.76723 0.64844 0.26602
 H264 H 0.93972 0.63805 0.41998
 C265 C 0.25473 0.20850 0.27512
 C266 C 0.28248 0.21779 0.30604
 C267 C 0.30941 0.18468 0.32780
 N268 N 0.33719 0.19769 0.35575
 N269 N 0.36174 0.16848 0.37640
 C270 C 0.35942 0.12510 0.36990
 N271 N 0.33162 0.11199 0.34188
 N272 N 0.30706 0.14129 0.32111
 C273 C 0.38552 0.09269 0.39353
 C274 C 0.41451 0.10555 0.42217
 H275 H 0.28503 0.25146 0.31440
 H276 H 0.38094 0.05818 0.38913
 H277 H 0.25360 0.17534 0.26518
 H278 H 0.41949 0.14006 0.42625
 C279 C 0.27316 0.73366 -0.22404
 C280 C 0.26752 0.71851 -0.18446
 C281 C 0.30217 0.69253 -0.16363
 N282 N 0.29331 0.67610 -0.12620
 N283 N 0.32437 0.65322 -0.10640
 C284 C 0.36564 0.64601 -0.12312
 N285 N 0.37468 0.66265 -0.16057
 N286 N 0.34347 0.68550 -0.18048
 C287 C 0.39978 0.62043 -0.10096
 C288 C 0.38815 0.59897 -0.06484
 H289 H 0.23696 0.72589 -0.16784
 H290 H 0.43359 0.61785 -0.11322
 H291 H 0.30282 0.72282 -0.24033
 H292 H 0.35378 0.60065 -0.05378
 C293 C 1.20645 -0.21475 -0.21766
 C294 C 1.21811 -0.18329 -0.19136
 C295 C 1.18518 -0.16441 -0.16347
 N296 N 1.19416 -0.12654 -0.14617
 N297 N 1.16447 -0.10884 -0.12106
 C298 C 1.12486 -0.12854 -0.11210
 N299 N 1.11609 -0.16671 -0.12902
 N300 N 1.14563 -0.18422 -0.15443
 C301 C 1.09232 -0.10954 -0.08389
 C302 C 1.09490 -0.06607 -0.07382
 H303 H 1.25198 -0.17137 -0.19201
 H304 H 1.06586 -0.12995 -0.07102
 H305 H 1.17239 -0.22635 -0.21635
 H306 H 1.11958 -0.04499 -0.08871
 C307 C 1.20178 0.27040 0.28274
 C308 C 1.19759 0.31602 0.28335
 C309 C 1.17411 0.33705 0.31660
 N310 N 1.17741 0.38085 0.32079
 N311 N 1.15801 0.39969 0.35202
 C312 C 1.13456 0.37531 0.38004
 N313 N 1.13089 0.33170 0.37557
 N314 N 1.15039 0.31289 0.34452
 C315 C 1.11360 0.39466 0.41517
 C316 C 1.11922 0.43803 0.42476
 H317 H 1.21328 0.33687 0.26027
 H318 H 1.09351 0.37326 0.43484
 H319 H 1.18386 0.25069 0.30547
 H320 H 1.13925 0.45995 0.40559
 C321 C 0.72195 -0.25705 0.27358
 C322 C 0.69440 -0.22067 0.26476
 C323 C 0.66931 -0.19824 0.29646
 N324 N 0.65340 -0.15666 0.28999
 N325 N 0.63102 -0.13622 0.31884
 C326 C 0.62334 -0.15687 0.35503
 N327 N 0.63872 -0.19859 0.36125
 N328 N 0.66141 -0.21883 0.33259
 C329 C 0.59920 -0.13511 0.38755
 C330 C 0.59355 -0.08975 0.38816
 H331 H 0.69184 -0.20816 0.23426
 H332 H 0.58836 -0.15535 0.41325
 H333 H 0.72402 -0.26847 0.30449
 H334 H 0.60670 -0.06896 0.36372
 C335 C 0.70602 0.25408 -0.22834
 C336 C 0.67160 0.28531 -0.23192
 C337 C 0.65340 0.30765 -0.19695
 N338 N 0.61566 0.33280 -0.19958
 N339 N 0.60011 0.35444 -0.16840
 C340 C 0.62204 0.35213 -0.13362
 N341 N 0.65994 0.32728 -0.13112
 N342 N 0.67526 0.30539 -0.16215
 C343 C 0.60557 0.37607 -0.09903
 C344 C 0.56205 0.39265 -0.09637
 H345 H 0.65983 0.29543 -0.26108
 H346 H 0.62744 0.37880 -0.07429
 H347 H 0.71611 0.24383 -0.19862
 H348 H 0.53925 0.38737 -0.11993
 C349 C 1.24182 0.21785 -0.21064
 C350 C 1.20611 0.18993 -0.21471
 C351 C 1.18417 0.16803 -0.17952
 N352 N 1.14298 0.15085 -0.18201
 N353 N 1.12299 0.13123 -0.15014
 C354 C 1.14367 0.12760 -0.11474
 N355 N 1.18514 0.14415 -0.11244
 N356 N 1.20494 0.16412 -0.14419
 C357 C 1.12154 0.10681 -0.07914
 C358 C 1.07540 0.10228 -0.07673
 H359 H 1.19431 0.18405 -0.24401
 H360 H 1.14139 0.09728 -0.05373
 H361 H 1.25152 0.22399 -0.18066
 H362 H 1.05552 0.11461 -0.10131
 C363 C 1.22847 0.73023 0.26892
 C364 C 1.23359 0.72011 0.30969
 C365 C 1.20037 0.69522 0.33452
 N366 N 1.21065 0.68120 0.37200
 N367 N 1.18087 0.65980 0.39551
 C368 C 1.13941 0.65182 0.38261
 N369 N 1.12897 0.66604 0.34514
 N370 N 1.15891 0.68728 0.32149
 C371 C 1.10616 0.62854 0.40890
 C372 C 1.11860 0.60728 0.44455
 H373 H 1.26293 0.73038 0.32442
 H374 H 1.07184 0.62742 0.39984
 H375 H 1.20076 0.71525 0.25501
 H376 H 1.15346 0.60665 0.45226
 C377 C 0.73648 0.25408 0.28877
 C378 C 0.70875 0.22111 0.27702
 C379 C 0.68971 0.18875 0.30630
 N380 N 0.65160 0.16771 0.29879
 N381 N 0.63419 0.13860 0.32548
 C382 C 0.65472 0.12902 0.36033
 N383 N 0.69321 0.14949 0.36747
 N384 N 0.71029 0.17894 0.34104
 C385 C 0.63557 0.09799 0.39067
 C386 C 0.58998 0.08978 0.39355
 H387 H 0.70063 0.21914 0.24610
 H388 H 0.65705 0.08511 0.41391
 H389 H 0.74233 0.25540 0.32032
 H390 H 0.56775 0.10583 0.37244
 C391 C 0.71546 0.73476 -0.22275
 C392 C 0.71620 0.68992 -0.21220
 C393 C 0.67986 0.66919 -0.18781
 N394 N 0.67972 0.62501 -0.18131
 N395 N 0.64831 0.60602 -0.15775
 C396 C 0.61589 0.63050 -0.13967
 N397 N 0.61596 0.67467 -0.14627
 N398 N 0.64723 0.69365 -0.16999
 C399 C 0.58328 0.61027 -0.11092
 C400 C 0.58059 0.56495 -0.10471
 H401 H 0.74449 0.66948 -0.22072
 H402 H 0.56326 0.63155 -0.09231
 H403 H 0.68647 0.75401 -0.21345
 H404 H 0.59962 0.54376 -0.12416
 C405 C 0.77231 -0.21163 -0.21213
 C406 C 0.81031 -0.18596 -0.21809
 C407 C 0.82546 -0.15789 -0.18692
 N408 N 0.86727 -0.14134 -0.18922
 N409 N 0.88155 -0.11689 -0.16059
 C410 C 0.85438 -0.10775 -0.12878
 N411 N 0.81238 -0.12375 -0.12681
 N412 N 0.79824 -0.14843 -0.15526
 C413 C 0.87007 -0.08237 -0.09600
 C414 C 0.91525 -0.07478 -0.09118
 H415 H 0.82985 -0.18734 -0.24567
 H416 H 0.84583 -0.07258 -0.07335
 H417 H 0.75387 -0.20959 -0.18395
 H418 H 0.93977 -0.08657 -0.11272
 C419 C 0.78759 0.31567 0.28502
 C420 C 0.83298 0.32596 0.28217
 C421 C 0.85255 0.35505 0.31031
 N422 N 0.89762 0.35782 0.31248
 N423 N 0.91551 0.38213 0.33950
 C424 C 0.88891 0.40477 0.36513
 N425 N 0.84394 0.40254 0.36250
 N426 N 0.82609 0.37811 0.33566
 C427 C 0.90743 0.42924 0.39709
 C428 C 0.95251 0.42735 0.40624
 H429 H 0.85508 0.31148 0.26018
 H430 H 0.88392 0.44647 0.41622
 H431 H 0.76657 0.33231 0.30664
 H432 H 0.97650 0.41043 0.38737
 C433 C 0.29299 -0.22272 0.26525
 C434 C 0.28496 -0.18688 0.28914
 C435 C 0.32068 -0.16620 0.31030
 N436 N 0.31105 -0.13015 0.33117
 N437 N 0.34272 -0.11109 0.35076
 C438 C 0.38534 -0.12725 0.35022
 N439 N 0.39506 -0.16325 0.32921
 N440 N 0.36335 -0.18230 0.30953
 C441 C 0.41987 -0.10782 0.37387
 C442 C 0.40959 -0.07269 0.39766
 H443 H 0.25144 -0.17308 0.29188
 H444 H 0.45253 -0.12364 0.37522
 H445 H 0.32664 -0.23670 0.26453
 H446 H 0.37653 -0.05767 0.39669
 C447 C 0.30572 0.26418 -0.22725
 C448 C 0.29522 0.30616 -0.21454
 C449 C 0.32446 0.32951 -0.18887
 N450 N 0.31186 0.36960 -0.17631
 N451 N 0.33644 0.38987 -0.15076
 C452 C 0.37449 0.37067 -0.13685
 N453 N 0.38730 0.33081 -0.14972
 N454 N 0.36279 0.31060 -0.17530
 C455 C 0.40003 0.39051 -0.10615
 C456 C 0.38912 0.43132 -0.09135
 H457 H 0.26321 0.32126 -0.22143
 H458 H 0.42713 0.37116 -0.09329
 H459 H 0.33693 0.24873 -0.21827
 H460 H 0.36372 0.45212 -0.10512
 C461 C 1.23428 -0.20798 0.22153
 C462 C 1.18786 -0.19998 0.22247
 C463 C 1.16683 -0.16848 0.19389
 N464 N 1.12165 -0.16652 0.19144
 N465 N 1.10231 -0.14013 0.16411
 C466 C 1.12747 -0.11460 0.13825
 N467 N 1.17258 -0.11615 0.14104
 N468 N 1.19190 -0.14262 0.16827
 C469 C 1.10704 -0.08697 0.10646
 C470 C 1.06163 -0.08814 0.09869
 H471 H 1.16581 -0.21855 0.24271
 H472 H 1.12893 -0.06690 0.08722
 H473 H 1.25425 -0.18699 0.20122
 H474 H 1.03959 -0.10843 0.11756
 C475 C 1.24658 0.26327 0.72326
 C476 C 1.20284 0.27982 0.72691
 C477 C 1.18441 0.31031 0.69607
 N478 N 1.14011 0.32077 0.69654
 N479 N 1.12342 0.34844 0.66871
 C480 C 1.15052 0.36694 0.63962
 N481 N 1.19481 0.35677 0.63941
 N482 N 1.21141 0.32896 0.66703
 C483 C 1.13299 0.39709 0.60823
 C484 C 1.08746 0.40257 0.60175
 H485 H 1.18202 0.27130 0.75288
 H486 H 1.15691 0.41358 0.58810
 H487 H 1.26621 0.27288 0.69672
 H488 H 1.06334 0.38479 0.62068
 C489 C 0.73626 -0.20938 0.72297
 C490 C 0.69831 -0.21828 0.70181
 C491 C 0.68196 -0.18976 0.66877
 N492 N 0.64218 -0.19845 0.65305
 N493 N 0.62632 -0.17324 0.62323
 C494 C 0.64969 -0.13841 0.60777
 N495 N 0.68974 -0.12983 0.62326
 N496 N 0.70557 -0.15500 0.65331
 C497 C 0.63179 -0.11039 0.57489
 C498 C 0.58768 -0.11432 0.56374
 H499 H 0.67927 -0.24736 0.70975
 H500 H 0.65297 -0.08591 0.56001
 H501 H 0.75568 -0.18091 0.71361
 H502 H 0.56618 -0.13739 0.58020
 C503 C 0.73759 0.31188 0.23060
 C504 C 0.69110 0.31373 0.22791
 C505 C 0.66975 0.34029 0.19591
 N506 N 0.62778 0.33120 0.18508
 N507 N 0.60892 0.35404 0.15510
 C508 C 0.63123 0.38707 0.13513
 N509 N 0.67287 0.39660 0.14640
 N510 N 0.69187 0.37352 0.17608
 C511 C 0.61142 0.41222 0.10155
 C512 C 0.57549 0.39692 0.08124
 H513 H 0.66990 0.29421 0.24808
 H514 H 0.62722 0.44245 0.09113
 H515 H 0.75728 0.33174 0.20923
 H516 H 0.56124 0.36547 0.09009
 C517 C 0.79690 0.25395 0.23779
 C518 C 0.78515 0.23339 0.20357
 C519 C 0.81488 0.20251 0.18295
 N520 N 0.79866 0.17946 0.15337
 N521 N 0.82520 0.15232 0.13324
 C522 C 0.86904 0.14728 0.14185
 N523 N 0.88533 0.17031 0.17151
 N524 N 0.85868 0.19735 0.19182
 C525 C 0.89906 0.11961 0.11783
 C526 C 0.88262 0.09434 0.08838
 H527 H 0.75243 0.23964 0.19151
 H528 H 0.93478 0.12130 0.12165
 H529 H 0.82779 0.24374 0.25164
 H530 H 0.84685 0.09181 0.08537
 C531 C 0.79024 0.73060 0.73913
 C532 C 0.78196 0.70302 0.70835
 C533 C 0.81724 0.67796 0.68736
 N534 N 0.80578 0.65091 0.65874
 N535 N 0.83703 0.62948 0.63789
 C536 C 0.88108 0.63429 0.64474
 N537 N 0.89262 0.66121 0.67355
 N538 N 0.86129 0.68263 0.69451
 C539 C 0.91588 0.61249 0.62010
 C540 C 0.90457 0.58562 0.58974
 H541 H 0.74808 0.70052 0.69849
 H542 H 0.95066 0.61944 0.62455
 H543 H 0.82390 0.73189 0.74985
 H544 H 0.86971 0.57879 0.58556
 C545 C 0.29362 0.19774 0.73419
 C546 C 0.33313 0.20234 0.71121
 C547 C 0.35093 0.16812 0.68553
 N548 N 0.39309 0.17140 0.66984
 N549 N 0.40908 0.14230 0.64459
 C550 C 0.38341 0.10894 0.63382
 N551 N 0.34119 0.10560 0.64952
 N552 N 0.32528 0.13457 0.67508
 C553 C 0.39977 0.07904 0.60333
 C554 C 0.44450 0.07853 0.59055
 H555 H 0.35134 0.23263 0.71115
 H556 H 0.37589 0.05933 0.58902
 H557 H 0.27566 0.16737 0.73315
 H558 H 0.46856 0.09655 0.60637
 C559 C 0.27985 0.73014 0.21400
 C560 C 0.30334 0.69094 0.22307
 C561 C 0.33177 0.66983 0.19262
 N562 N 0.34531 0.62732 0.19791
 N563 N 0.37092 0.60830 0.17022
 C564 C 0.38441 0.63134 0.13652
 N565 N 0.37142 0.67395 0.13159
 N566 N 0.34556 0.69280 0.15904
 C567 C 0.41110 0.61091 0.10469
 C568 C 0.41456 0.56566 0.10150
 H569 H 0.30154 0.67611 0.25294
 H570 H 0.42426 0.63228 0.08064
 H571 H 0.28252 0.74266 0.18323
 H572 H 0.39923 0.54408 0.12429
   
