data_POSCAR
  _audit_creation_date              2014-09-24
  _audit_creation_method            'ToBaCCo'
  _symmetry_space_group_name_H-M    'P1'
  _symmetry_Int_Tables_number       1
  _symmetry_cell_setting            triclinic
  loop_
  _symmetry_equiv_pos_as_xyz
 x,y,z
_cell_length_a 32.6722
_cell_length_b 33.0984
_cell_length_c 21.6892
_cell_angle_alpha 85.451300
_cell_angle_beta 87.776600
_cell_angle_gamma 89.082800
loop_
  _atom_site_label
  _atom_site_type_symbol
  _atom_site_fract_x
  _atom_site_fract_y
  _atom_site_fract_z
C1 C 1.27134 0.21079 0.25300
 C2 C 1.23714 0.23197 0.22775
 C3 C 1.20271 0.20998 0.21194
 C4 C 1.20248 0.16736 0.22080
 C5 C 1.23697 0.14729 0.24566
 C6 C 1.27154 0.16814 0.26230
 C7 C 1.23731 0.27718 0.21879
 C8 C 1.27190 0.29774 0.19147
 C9 C 1.27220 0.34062 0.18282
 C10 C 1.23709 0.36214 0.20150
 C11 C 1.20321 0.34249 0.23085
 C12 C 1.20320 0.29992 0.23878
 H13 H 1.29731 0.22785 0.26550
 H14 H 1.17642 0.22613 0.19294
 H15 H 1.29773 0.27985 0.17620
 H16 H 1.17688 0.28442 0.26070
 H17 H 1.23669 0.11445 0.25250
 H18 H 1.23661 0.39502 0.19548
 C19 C 0.77025 -0.30019 0.29445
 C20 C 0.73679 -0.27591 0.27458
 C21 C 0.70294 -0.29421 0.25092
 C22 C 0.70257 -0.33606 0.24534
 C23 C 0.73620 -0.35997 0.26551
 C24 C 0.77046 -0.34252 0.29014
 C25 C 0.73812 -0.23115 0.27595
 C26 C 0.77432 -0.21048 0.25642
 C27 C 0.77613 -0.16817 0.25600
 C28 C 0.74110 -0.14672 0.27548
 C29 C 0.70447 -0.16651 0.29490
 C30 C 0.70325 -0.20896 0.29511
 H31 H 0.79561 -0.28549 0.31341
 H32 H 0.67736 -0.27562 0.23454
 H33 H 0.80082 -0.22755 0.24129
 H34 H 0.67539 -0.22484 0.30957
 H35 H 0.73549 -0.39250 0.26287
 H36 H 0.74227 -0.11397 0.27505
 C37 C 0.78010 0.19103 -0.24827
 C38 C 0.74679 0.21362 -0.27268
 C39 C 0.71390 0.19344 -0.29610
 C40 C 0.71425 0.15098 -0.29562
 C41 C 0.74790 0.12904 -0.27105
 C42 C 0.78086 0.14859 -0.24692
 C43 C 0.74632 0.25836 -0.27243
 C44 C 0.78218 0.28027 -0.28867
 C45 C 0.78290 0.32248 -0.28504
 C46 C 0.74689 0.34241 -0.26580
 C47 C 0.71091 0.32097 -0.24894
 C48 C 0.71071 0.27900 -0.25330
 H49 H 0.80512 0.20683 -0.23015
 H50 H 0.68825 0.21101 -0.31420
 H51 H 0.80918 0.26389 -0.30348
 H52 H 0.68322 0.26220 -0.23949
 H53 H 0.74828 0.09623 -0.27023
 H54 H 0.74683 0.37508 -0.26486
 C55 C 1.25593 -0.31326 -0.20961
 C56 C 1.22457 -0.28842 -0.23515
 C57 C 1.18708 -0.30558 -0.24799
 C58 C 1.18089 -0.34738 -0.23506
 C59 C 1.21201 -0.37143 -0.20751
 C60 C 1.25001 -0.35518 -0.19521
 C61 C 1.23137 -0.24431 -0.24734
 C62 C 1.26546 -0.23052 -0.28392
 C63 C 1.27453 -0.18922 -0.29156
 C64 C 1.24864 -0.16133 -0.26265
 C65 C 1.21355 -0.17433 -0.22689
 C66 C 1.20522 -0.21621 -0.21974
 H67 H 1.28407 -0.29890 -0.19943
 H68 H 1.16306 -0.28638 -0.26784
 H69 H 1.28537 -0.25216 -0.30580
 H70 H 1.17911 -0.22764 -0.19207
 H71 H 1.20689 -0.40363 -0.19732
 H72 H 1.25540 -0.12929 -0.26915
 C73 C 0.21970 0.29549 0.77372
 C74 C 0.24272 0.26080 0.79193
 C75 C 0.22233 0.22512 0.81278
 C76 C 0.17964 0.22255 0.81223
 C77 C 0.15683 0.25772 0.79304
 C78 C 0.17691 0.29426 0.77396
 C79 C 0.28804 0.26049 0.78512
 C80 C 0.31085 0.29465 0.79582
 C81 C 0.35390 0.29459 0.78670
 C82 C 0.37352 0.25927 0.76677
 C83 C 0.35083 0.22477 0.75776
 C84 C 0.30848 0.22573 0.76643
 H85 H 0.23504 0.32311 0.75637
 H86 H 0.24010 0.19874 0.82912
 H87 H 0.29452 0.32067 0.81158
 H88 H 0.29139 0.19938 0.75643
 H89 H 0.12383 0.25741 0.79281
 H90 H 0.40654 0.25812 0.75964
 C91 C 0.71968 0.79100 0.71181
 C92 C 0.74129 0.75628 0.73436
 C93 C 0.71988 0.72061 0.75277
 C94 C 0.67705 0.71942 0.74811
 C95 C 0.65615 0.75467 0.72519
 C96 C 0.67697 0.79108 0.70815
 C97 C 0.78632 0.75798 0.73932
 C98 C 0.80390 0.79218 0.76119
 C99 C 0.84628 0.79487 0.76512
 C100 C 0.87164 0.76342 0.74541
 C101 C 0.85485 0.72934 0.72198
 C102 C 0.81188 0.72633 0.72062
 H103 H 0.73644 0.81831 0.69698
 H104 H 0.73697 0.69428 0.77048
 H105 H 0.78446 0.81656 0.77654
 H106 H 0.79794 0.70001 0.70427
 H107 H 0.62339 0.75309 0.72146
 H108 H 0.90462 0.76601 0.74631
 C109 C 0.71543 0.28531 0.21742
 C110 C 0.74220 0.25351 0.23563
 C111 C 0.72655 0.21477 0.25318
 C112 C 0.68443 0.20773 0.25217
 C113 C 0.65833 0.23960 0.23061
 C114 C 0.67337 0.27847 0.21405
 C115 C 0.78675 0.26059 0.23286
 C116 C 0.80281 0.29520 0.25567
 C117 C 0.84490 0.30241 0.25059
 C118 C 0.87098 0.27538 0.22060
 C119 C 0.85536 0.24089 0.19675
 C120 C 0.81302 0.23360 0.20385
 H121 H 0.72794 0.31497 0.20490
 H122 H 0.74709 0.19033 0.26871
 H123 H 0.78263 0.31613 0.27854
 H124 H 0.79940 0.20773 0.18600
 H125 H 0.62604 0.23434 0.22583
 H126 H 0.90346 0.28145 0.21498
 C127 C 0.22660 0.78942 0.24273
 C128 C 0.24905 0.75367 0.25618
 C129 C 0.22848 0.71832 0.27820
 C130 C 0.18574 0.71838 0.28833
 C131 C 0.16353 0.75474 0.27353
 C132 C 0.18383 0.79045 0.24986
 C133 C 0.29416 0.75365 0.24689
 C134 C 0.31665 0.78623 0.26478
 C135 C 0.35918 0.78770 0.25433
 C136 C 0.37925 0.75614 0.22551
 C137 C 0.35740 0.72265 0.20855
 C138 C 0.31471 0.72173 0.21928
 H139 H 0.24265 0.81639 0.22406
 H140 H 0.24613 0.69087 0.28939
 H141 H 0.30091 0.81074 0.28652
 H142 H 0.29720 0.69652 0.20633
 H143 H 0.13078 0.75525 0.28006
 H144 H 0.41220 0.75725 0.21760
 O145 O 1.06415 -0.06013 0.13856
 O146 O 1.03335 -0.10553 0.08081
 C147 C 1.05597 -0.09682 0.12535
 O148 O 0.91022 0.04495 0.10730
 O149 O 0.95095 0.09336 0.05532
 C150 C 0.91957 0.08218 0.09070
 O151 O 0.92220 -0.06608 0.12554
 O152 O 0.96531 -0.10883 0.07492
 C153 C 0.93478 -0.10195 0.11347
 O154 O 1.06375 0.05410 0.11941
 O155 O 1.02469 0.09774 0.05777
 C156 C 1.05285 0.09036 0.09822
 Zr157 Zr 1.04411 -0.00317 0.09607
 O158 O 1.03940 0.00041 0.19308
 O159 O 1.10884 -0.00243 0.09468
 Zr160 Zr 0.94166 -0.00894 0.08863
 O161 O 0.93904 -0.00521 0.18577
 O162 O 0.87748 -0.01613 0.08846
 O163 O 0.99468 -0.04245 0.10775
 O164 O 0.98952 0.02941 0.10066
 O165 O 1.07189 0.05961 -0.09363
 O166 O 1.02458 0.09975 -0.04542
 C167 C 1.05554 0.09470 -0.08280
 O168 O 0.93915 -0.06503 -0.09843
 O169 O 0.97592 -0.10798 -0.03260
 C170 C 0.95200 -0.10086 -0.07833
 O171 O 0.92333 0.04722 -0.10180
 O172 O 0.95428 0.09433 -0.04769
 C173 C 0.92852 0.08410 -0.08784
 O174 O 1.08012 -0.05444 -0.08841
 O175 O 1.04350 -0.10259 -0.02825
 C176 C 1.07189 -0.09184 -0.06984
 Zr177 Zr 1.05355 0.00005 -0.05910
 O178 O 1.06297 0.00504 -0.15641
 O179 O 1.11687 0.00334 -0.04418
 Zr180 Zr 0.95085 -0.00736 -0.06709
 O181 O 0.95576 -0.00129 -0.16503
 O182 O 0.88666 -0.01435 -0.06780
 Zr183 Zr 1.00180 -0.06536 0.01996
 Zr184 Zr 0.99224 0.05562 0.00923
 O185 O 0.99968 0.03161 -0.07763
 O186 O 1.00593 -0.03949 -0.07208
 O187 O 1.05351 0.03516 0.01577
 O188 O 0.94126 -0.04374 0.01329
 O189 O 1.05874 -0.03685 0.02215
 O190 O 0.93532 0.02719 0.00677
 H191 H 0.98631 0.04773 0.13456
 H192 H 0.91863 -0.06323 0.01239
 H193 H 0.99967 0.05007 -0.11590
 H194 H 1.08380 -0.05399 0.02611
 H195 H 0.86861 -0.00490 0.04741
 H196 H 0.87977 -0.01486 -0.11183
 H197 H 0.97553 -0.02216 -0.17818
 H198 H 1.04415 -0.01415 -0.17303
 H199 H 1.13057 0.00535 -0.08585
 H200 H 1.11654 -0.00345 0.13853
 H201 H 1.02109 -0.02156 0.21015
 H202 H 0.95141 -0.03037 0.20504
 O203 O 1.06521 0.43807 0.62757
 O204 O 1.03689 0.39471 0.56395
 C205 C 1.05861 0.40199 0.61035
 O206 O 0.91000 0.54157 0.60121
 O207 O 0.95041 0.59205 0.55430
 C208 C 0.91886 0.57930 0.58812
 O209 O 0.92600 0.42991 0.61089
 O210 O 0.96959 0.39030 0.55559
 C211 C 0.93952 0.39501 0.59528
 O212 O 1.06050 0.55176 0.62070
 O213 O 1.02302 0.59719 0.55948
 C214 C 1.04916 0.58839 0.60230
 Zr215 Zr 1.04499 0.49568 0.58854
 O216 O 1.04346 0.49084 0.68652
 O217 O 1.10958 0.49912 0.58506
 Zr218 Zr 0.94273 0.48905 0.57861
 O219 O 0.93857 0.48893 0.67632
 O220 O 0.87893 0.47922 0.57804
 O221 O 0.99612 0.45583 0.59596
 O222 O 0.98974 0.52723 0.59478
 O223 O 1.07455 0.56449 0.40495
 O224 O 1.02700 0.60295 0.45602
 C225 C 1.05868 0.59908 0.41909
 O226 O 0.94147 0.44039 0.38719
 O227 O 0.97910 0.39580 0.44927
 C228 C 0.95480 0.40421 0.40432
 O229 O 0.92442 0.55202 0.39345
 O230 O 0.95540 0.59716 0.45106
 C231 C 0.92923 0.58819 0.41080
 O232 O 1.08078 0.45115 0.39745
 O233 O 1.04589 0.40095 0.45579
 C234 C 1.07314 0.41323 0.41372
 Zr235 Zr 1.05576 0.50443 0.43353
 O236 O 1.06791 0.51322 0.33700
 O237 O 1.11885 0.50645 0.45090
 Zr238 Zr 0.95345 0.49677 0.42230
 O239 O 0.96248 0.50726 0.32511
 O240 O 0.89047 0.48715 0.41043
 Zr241 Zr 1.00440 0.43637 0.50600
 Zr242 Zr 0.99312 0.55687 0.50536
 O243 O 1.00183 0.53641 0.41626
 O244 O 1.00880 0.46540 0.41585
 O245 O 1.05459 0.53684 0.51169
 O246 O 0.94352 0.45757 0.49994
 O247 O 1.06097 0.46493 0.51184
 O248 O 0.93653 0.52793 0.49938
 H249 H 0.98522 0.54418 0.63013
 H250 H 0.92107 0.43806 0.49740
 H251 H 1.00204 0.55661 0.37999
 H252 H 1.08607 0.44776 0.51442
 H253 H 0.86817 0.49685 0.54329
 H254 H 0.87493 0.50309 0.44032
 H255 H 0.97745 0.48351 0.31004
 H256 H 1.04393 0.50289 0.31709
 H257 H 1.13322 0.50882 0.40974
 H258 H 1.11794 0.49615 0.62864
 H259 H 1.01786 0.50399 0.70091
 H260 H 0.95614 0.46640 0.69329
 O261 O 0.55599 -0.05476 0.61846
 O262 O 0.51430 -0.09750 0.57176
 C263 C 0.54225 -0.09051 0.60998
 O264 O 0.41991 0.07181 0.60394
 O265 O 0.46017 0.11117 0.53479
 C266 C 0.43310 0.10672 0.57964
 O267 O 0.41565 -0.04110 0.63128
 O268 O 0.44539 -0.09122 0.57635
 C269 C 0.42128 -0.07870 0.62049
 O270 O 0.56748 0.05737 0.59221
 O271 O 0.53224 0.10454 0.53084
 C272 C 0.56063 0.09423 0.56990
 Zr273 Zr 0.53963 0.00283 0.57526
 O274 O 0.54193 0.00286 0.67283
 O275 O 0.60399 -0.00320 0.56454
 Zr276 Zr 0.43666 0.01207 0.58120
 O277 O 0.43438 0.01714 0.67781
 O278 O 0.37216 0.01938 0.57828
 O279 O 0.48568 -0.02821 0.59692
 O280 O 0.49084 0.04302 0.58299
 O281 O 0.56502 0.05491 0.37899
 O282 O 0.52772 0.10284 0.42874
 C283 C 0.55556 0.09224 0.38916
 O284 O 0.41394 -0.04998 0.40196
 O285 O 0.44628 -0.09515 0.47038
 C286 C 0.42133 -0.08641 0.42630
 O287 O 0.41382 0.06325 0.39037
 O288 O 0.45509 0.10757 0.43438
 C289 C 0.42509 0.09966 0.39946
 O290 O 0.55623 -0.05787 0.39519
 O291 O 0.51750 -0.09951 0.46337
 C292 C 0.54558 -0.09345 0.41918
 Zr293 Zr 0.53900 0.00006 0.42071
 O294 O 0.54220 -0.00415 0.32369
 O295 O 0.60334 -0.00439 0.42702
 Zr296 Zr 0.43598 0.00650 0.42639
 O297 O 0.43739 0.00831 0.32856
 O298 O 0.37118 0.00631 0.42932
 Zr299 Zr 0.48377 -0.05530 0.51232
 Zr300 Zr 0.49138 0.06577 0.48975
 O301 O 0.48923 0.03850 0.40570
 O302 O 0.48541 -0.03332 0.41834
 O303 O 0.54939 0.03702 0.49108
 O304 O 0.42639 -0.02546 0.51125
 O305 O 0.54436 -0.03460 0.50399
 O306 O 0.43044 0.04574 0.49738
 H307 H 0.49270 0.06235 0.61529
 H308 H 0.40132 -0.04202 0.51589
 H309 H 0.48940 0.05648 0.36697
 H310 H 0.56747 -0.05435 0.50647
 H311 H 0.35959 -0.00771 0.58053
 H312 H 0.36184 0.02477 0.46086
 H313 H 0.45643 -0.01344 0.31625
 H314 H 0.52390 0.01693 0.30456
 H315 H 0.61447 -0.00659 0.38425
 H316 H 0.61467 -0.00466 0.60682
 H317 H 0.53056 0.02893 0.68553
 H318 H 0.46018 0.00499 0.69359
 O319 O 0.56491 0.56488 0.10159
 O320 O 0.61085 0.53029 0.04185
 C321 C 0.60196 0.55387 0.08552
 O322 O 0.44663 0.42411 0.08493
 O323 O 0.40370 0.46961 0.03338
 C324 C 0.41045 0.43700 0.06920
 O325 O 0.56038 0.42452 0.09500
 O326 O 0.60877 0.46283 0.03867
 C327 C 0.59804 0.43386 0.07948
 O328 O 0.45165 0.57517 0.09249
 O329 O 0.40582 0.54368 0.03530
 C330 C 0.41492 0.56954 0.07478
 Zr331 Zr 0.50805 0.55047 0.06473
 O332 O 0.50061 0.54538 0.16240
 O333 O 0.51213 0.61434 0.06050
 Zr334 Zr 0.50481 0.44943 0.06167
 O335 O 0.49635 0.44664 0.15924
 O336 O 0.50672 0.38544 0.06423
 O337 O 0.54277 0.49742 0.07606
 O338 O 0.46979 0.50084 0.07385
 O339 O 0.45718 0.58884 -0.11977
 O340 O 0.40863 0.54830 -0.06775
 C341 C 0.41953 0.57920 -0.10527
 O342 O 0.56864 0.43929 -0.12811
 O343 O 0.61253 0.47075 -0.06765
 C344 C 0.60506 0.44713 -0.11055
 O345 O 0.45450 0.43926 -0.12382
 O346 O 0.40720 0.47519 -0.06844
 C347 C 0.41717 0.44833 -0.10727
 O348 O 0.57066 0.57917 -0.12592
 O349 O 0.61383 0.53894 -0.06594
 C350 C 0.60691 0.56765 -0.10879
 Zr351 Zr 0.51238 0.56069 -0.09097
 O352 O 0.51196 0.56882 -0.18866
 O353 O 0.51582 0.62361 -0.08144
 Zr354 Zr 0.51063 0.45956 -0.09475
 O355 O 0.51595 0.46654 -0.19275
 O356 O 0.51029 0.39561 -0.09343
 Zr357 Zr 0.57010 0.50244 -0.01385
 Zr358 Zr 0.44728 0.50755 -0.01598
 O359 O 0.47566 0.51221 -0.10483
 O360 O 0.54852 0.50952 -0.10432
 O361 O 0.47391 0.56488 -0.01337
 O362 O 0.54300 0.44545 -0.01611
 O363 O 0.54624 0.56159 -0.01247
 O364 O 0.47132 0.44816 -0.01766
 H365 H 0.44959 0.49930 0.10922
 H366 H 0.56041 0.42069 -0.01679
 H367 H 0.45781 0.51542 -0.14080
 H368 H 0.56536 0.58444 -0.01132
 H369 H 0.49670 0.37813 0.02417
 H370 H 0.51244 0.38898 -0.13723
 H371 H 0.48989 0.47782 -0.20882
 H372 H 0.52738 0.54563 -0.20462
 H373 H 0.51813 0.63684 -0.12404
 H374 H 0.51171 0.62168 0.10395
 H375 H 0.52095 0.52513 0.17838
 H376 H 0.52211 0.45531 0.17643
 C377 C 1.16759 0.14132 0.20672
 C378 C 1.13553 0.15172 0.17147
 C379 C 1.10696 0.11939 0.15729
 C380 C 1.07568 0.12520 0.11889
 H381 H 1.13168 0.18232 0.15081
 H382 H 1.11342 0.08886 0.17671
 H383 H 1.16976 0.10986 0.22479
 H384 H 1.06878 0.15544 0.09882
 C385 C 1.14308 0.63201 0.74979
 C386 C 1.11953 0.64382 0.70227
 C387 C 1.08997 0.61490 0.68183
 C388 C 1.06894 0.62199 0.63024
 H389 H 1.12519 0.67198 0.67452
 H390 H 1.08837 0.58519 0.70673
 H391 H 1.13727 0.60271 0.77444
 H392 H 1.06921 0.65176 0.60553
 C393 C 0.67990 0.12776 0.68230
 C394 C 0.64922 0.14298 0.64757
 C395 C 0.61811 0.11497 0.62884
 C396 C 0.58800 0.12563 0.58996
 H397 H 0.64746 0.17475 0.63180
 H398 H 0.62097 0.08360 0.64689
 H399 H 0.68052 0.09535 0.69473
 H400 H 0.58461 0.15677 0.57123
 C401 C 0.66652 0.64623 0.21841
 C402 C 0.66900 0.61342 0.18606
 C403 C 0.63277 0.59823 0.15710
 C404 C 0.63670 0.56906 0.11791
 H405 H 0.69830 0.59848 0.17847
 H406 H 0.60295 0.61169 0.16666
 H407 H 0.63741 0.66224 0.22206
 H408 H 0.66687 0.55663 0.10753
 C409 C 0.81362 -0.14470 0.23646
 C410 C 0.84641 -0.15798 0.20382
 C411 C 0.87901 -0.12883 0.18320
 C412 C 0.91007 -0.13619 0.14267
 H413 H 0.84814 -0.18845 0.18917
 H414 H 0.87543 -0.09864 0.19892
 H415 H 0.81322 -0.11331 0.24758
 H416 H 0.91461 -0.16617 0.12671
 C417 C 0.81794 0.34610 0.70114
 C418 C 0.85416 0.33335 0.67784
 C419 C 0.88614 0.36368 0.66326
 C420 C 0.91686 0.35908 0.62163
 H421 H 0.85963 0.30264 0.66572
 H422 H 0.88157 0.39274 0.68257
 H423 H 0.81501 0.37808 0.70879
 H424 H 0.92206 0.33027 0.60196
 C425 C 0.31020 -0.17573 0.66796
 C426 C 0.33730 -0.14927 0.68499
 C427 C 0.37094 -0.13323 0.64254
 C428 C 0.39765 -0.10747 0.66251
 H429 H 0.33373 -0.13808 0.73059
 H430 H 0.37103 -0.13872 0.59392
 H431 H 0.31492 -0.18894 0.62404
 H432 H 0.39533 -0.10076 0.71067
 C433 C 0.30582 0.36368 0.15743
 C434 C 0.34333 0.34909 0.14309
 C435 C 0.37823 0.37522 0.12031
 C436 C 0.37452 0.41282 0.09228
 H437 H 0.35052 0.31725 0.15189
 H438 H 0.40849 0.36180 0.12532
 H439 H 0.30128 0.39621 0.15182
 H440 H 0.34458 0.42579 0.08303
 C441 C 0.81523 0.12328 -0.22141
 C442 C 0.84394 0.13584 -0.18474
 C443 C 0.87453 0.10653 -0.15903
 C444 C 0.90217 0.11591 -0.11834
 H445 H 0.84404 0.16656 -0.17118
 H446 H 0.87310 0.07566 -0.17215
 H447 H 0.81594 0.09171 -0.23163
 H448 H 0.90388 0.14667 -0.10493
 C449 C 0.80319 0.63160 0.30927
 C450 C 0.83800 0.64293 0.33397
 C451 C 0.86881 0.61196 0.35377
 C452 C 0.90175 0.62066 0.38511
 H453 H 0.84403 0.67412 0.34130
 H454 H 0.86323 0.58079 0.34479
 H455 H 0.79981 0.59949 0.30395
 H456 H 0.90690 0.65157 0.39576
 C457 C 0.30421 0.14442 0.28739
 C458 C 0.33888 0.15731 0.31085
 C459 C 0.36823 0.12618 0.33638
 C460 C 0.40082 0.13375 0.36957
 H461 H 0.34510 0.18912 0.31323
 H462 H 0.36148 0.09492 0.32953
 H463 H 0.30045 0.11180 0.28906
 H464 H 0.40816 0.16465 0.37762
 C465 C 0.28002 0.61829 -0.16864
 C466 C 0.31903 0.62800 -0.16043
 C467 C 0.34816 0.59815 -0.13187
 C468 C 0.38810 0.60637 -0.13345
 H469 H 0.33064 0.65759 -0.17593
 H470 H 0.33708 0.56957 -0.11015
 H471 H 0.27120 0.58727 -0.15508
 H472 H 0.39863 0.63460 -0.15717
 C473 C 1.18676 -0.14303 -0.19868
 C474 C 1.15363 -0.15070 -0.16096
 C475 C 1.12906 -0.11727 -0.13576
 C476 C 1.09662 -0.12455 -0.09667
 H477 H 1.14421 -0.18140 -0.14780
 H478 H 1.13790 -0.08628 -0.14911
 H479 H 1.19501 -0.11160 -0.20962
 H480 H 1.08826 -0.15563 -0.08297
 C481 C 1.16932 0.36829 0.25370
 C482 C 1.14649 0.35872 0.30512
 C483 C 1.11962 0.38977 0.33148
 C484 C 1.09718 0.38166 0.38368
 H485 H 1.14993 0.32938 0.33040
 H486 H 1.11931 0.42020 0.30888
 H487 H 1.16625 0.39859 0.23117
 H488 H 1.09660 0.35099 0.40532
 C489 C 0.66844 -0.14082 0.31173
 C490 C 0.63387 -0.15307 0.34322
 C491 C 0.60263 -0.12196 0.35839
 C492 C 0.56992 -0.12847 0.39761
 H493 H 0.62948 -0.18445 0.35979
 H494 H 0.60851 -0.09131 0.33900
 H495 H 0.67142 -0.10865 0.29858
 H496 H 0.56367 -0.15871 0.41828
 C497 C 0.67338 0.34177 -0.22632
 C498 C 0.67480 0.37569 -0.19676
 C499 C 0.63753 0.39568 -0.17321
 C500 C 0.64066 0.42745 -0.13940
 H501 H 0.70403 0.38844 -0.18750
 H502 H 0.60776 0.38380 -0.18197
 H503 H 0.64402 0.32786 -0.23157
 H504 H 0.67074 0.43818 -0.12960
 C505 C 1.16249 0.18446 -0.16958
 C506 C 1.12256 0.17645 -0.16480
 C507 C 1.10864 0.13601 -0.14044
 C508 C 1.07106 0.13214 -0.11532
 H509 H 1.09965 0.19973 -0.17456
 H510 H 1.12977 0.11038 -0.13867
 H511 H 1.18336 0.15953 -0.15709
 H512 H 1.05131 0.15878 -0.11437
 C513 C 1.16737 0.68187 0.31264
 C514 C 1.12831 0.67816 0.33333
 C515 C 1.11243 0.63876 0.35951
 C516 C 1.07649 0.63701 0.39097
 H517 H 1.10782 0.70405 0.33409
 H518 H 1.13046 0.61138 0.35418
 H519 H 1.18669 0.65487 0.31709
 H520 H 1.05950 0.66486 0.39756
 C521 C 0.66815 0.16735 0.27473
 C522 C 0.63010 0.16351 0.29911
 C523 C 0.61287 0.12489 0.32588
 C524 C 0.57587 0.12622 0.35392
 H525 H 0.61112 0.19037 0.30285
 H526 H 0.63035 0.09681 0.32536
 H527 H 0.68834 0.14104 0.27494
 H528 H 0.56007 0.15527 0.35524
 C529 C 0.65346 0.68493 -0.23402
 C530 C 0.66646 0.65052 -0.20343
 C531 C 0.63578 0.61972 -0.18302
 C532 C 0.64197 0.59053 -0.13788
 H533 H 0.69765 0.64610 -0.18921
 H534 H 0.60558 0.62360 -0.20187
 H535 H 0.62103 0.68717 -0.24333
 H536 H 0.67192 0.58613 -0.11845
 C537 C 0.86309 -0.16860 -0.21130
 C538 C 0.89641 -0.16991 -0.17768
 C539 C 0.91022 -0.13344 -0.15098
 C540 C 0.93873 -0.13617 -0.10856
 H541 H 0.91238 -0.19841 -0.16698
 H542 H 0.89599 -0.10443 -0.16458
 H543 H 0.84586 -0.14040 -0.21795
 H544 H 0.95197 -0.16551 -0.09412
 C545 C 0.86078 0.33851 0.27669
 C546 C 0.89674 0.33797 0.30376
 C547 C 0.91042 0.37342 0.33329
 C548 C 0.94147 0.37005 0.37149
 H549 H 0.91533 0.31051 0.30709
 H550 H 0.89406 0.40202 0.32545
 H551 H 0.84108 0.36515 0.27790
 H552 H 0.95660 0.34092 0.38084
 C553 C 0.38269 -0.17768 0.27281
 C554 C 0.37434 -0.16136 0.32641
 C555 C 0.39694 -0.12647 0.34493
 C556 C 0.39900 -0.12030 0.40475
 H557 H 0.35109 -0.17476 0.35841
 H558 H 0.41269 -0.10648 0.31006
 H559 H 0.40828 -0.16662 0.24326
 H560 H 0.38614 -0.14236 0.43952
 C561 C 0.37828 0.32784 -0.20227
 C562 C 0.36474 0.36265 -0.17982
 C563 C 0.39455 0.39302 -0.16541
 C564 C 0.38463 0.42435 -0.13175
 H565 H 0.33283 0.36843 -0.16862
 H566 H 0.42634 0.38754 -0.17889
 H567 H 0.41106 0.32452 -0.21098
 H568 H 0.35305 0.42968 -0.11714
 C569 C 1.16358 -0.17287 0.23126
 C570 C 1.12328 -0.16868 0.22344
 C571 C 1.10630 -0.13062 0.19451
 C572 C 1.07233 -0.13175 0.16278
 H573 H 1.10287 -0.19406 0.23159
 H574 H 1.12325 -0.10271 0.19438
 H575 H 1.18233 -0.14659 0.21783
 H576 H 1.05744 -0.16058 0.15989
 C577 C 1.15446 0.33150 0.75190
 C578 C 1.12131 0.33063 0.71798
 C579 C 1.10328 0.36823 0.68895
 C580 C 1.07627 0.36621 0.64476
 H581 H 1.10909 0.30180 0.70759
 H582 H 1.11344 0.39736 0.70165
 H583 H 1.16810 0.36048 0.75818
 H584 H 1.06744 0.33672 0.63161
 C585 C 0.65716 -0.17236 0.68753
 C586 C 0.61650 -0.16687 0.68489
 C587 C 0.59888 -0.12814 0.65967
 C588 C 0.55977 -0.12619 0.64414
 H589 H 0.59532 -0.19075 0.69943
 H590 H 0.61847 -0.10211 0.64962
 H591 H 0.67624 -0.14655 0.67276
 H592 H 0.54120 -0.15318 0.65056
 C593 C 0.64382 0.31076 0.19408
 C594 C 0.65418 0.34636 0.16462
 C595 C 0.62200 0.37488 0.14334
 C596 C 0.63073 0.40862 0.10770
 H597 H 0.68575 0.35397 0.15319
 H598 H 0.59035 0.36689 0.15442
 H599 H 0.61152 0.30419 0.20205
 H600 H 0.66234 0.41628 0.09570
 C601 C 0.88430 0.21332 0.16561
 C602 C 0.87276 0.17983 0.14087
 C603 C 0.90267 0.15138 0.11627
 C604 C 0.89171 0.11307 0.11301
 H605 H 0.84107 0.17134 0.14075
 H606 H 0.93363 0.16104 0.10357
 H607 H 0.91670 0.22009 0.16492
 H608 H 0.86136 0.10347 0.12959
 C609 C 0.88343 0.69847 0.69811
 C610 C 0.87254 0.67097 0.66019
 C611 C 0.90278 0.64271 0.63513
 C612 C 0.89023 0.60897 0.61256
 H613 H 0.84128 0.66911 0.64622
 H614 H 0.93524 0.64876 0.63676
 H615 H 0.91528 0.69950 0.71030
 H616 H 0.85795 0.60161 0.61542
 C617 C 0.37006 0.18689 0.73934
 C618 C 0.39002 0.18522 0.68493
 C619 C 0.40183 0.14591 0.66163
 C620 C 0.41813 0.14442 0.60458
 H621 H 0.39541 0.21296 0.65581
 H622 H 0.39740 0.11822 0.69120
 H623 H 0.36216 0.15897 0.76647
 H624 H 0.42340 0.17248 0.57621
 C625 C 0.38090 0.68878 0.18280
 C626 C 0.36507 0.65773 0.15560
 C627 C 0.39329 0.62631 0.13396
 C628 C 0.38258 0.59626 0.09979
 H629 H 0.33267 0.65567 0.14822
 H630 H 0.42511 0.62913 0.14519
 H631 H 0.41390 0.68968 0.18653
 H632 H 0.35109 0.59319 0.08716
   
