data_POSCAR
  _audit_creation_date              2014-09-24
  _audit_creation_method            'ToBaCCo'
  _symmetry_space_group_name_H-M    'P1'
  _symmetry_Int_Tables_number       1
  _symmetry_cell_setting            triclinic
  loop_
  _symmetry_equiv_pos_as_xyz
 x,y,z
_cell_length_a 31.2648
_cell_length_b 31.3003
_cell_length_c 44.8047
_cell_angle_alpha 89.955900
_cell_angle_beta 89.885300
_cell_angle_gamma 121.530700
loop_
  _atom_site_label
  _atom_site_type_symbol
  _atom_site_fract_x
  _atom_site_fract_y
  _atom_site_fract_z
C1 C 0.02442 0.50985 1.27680
 C2 C -0.02919 0.48323 1.27675
 C3 C -0.05431 0.47114 1.24905
 C4 C -0.02894 0.48300 1.22141
 C5 C 0.02420 0.50748 1.22172
 C6 C 0.04971 0.52173 1.24912
 H7 H 0.09031 0.54043 1.24872
 H8 H -0.09492 0.45196 1.24902
 C9 C 0.52667 0.49974 1.22214
 C10 C 0.49914 0.52385 1.22187
 C11 C 0.48709 0.53746 1.24900
 C12 C 0.50263 0.52865 1.27668
 C13 C 0.53127 0.50521 1.27658
 C14 C 0.54263 0.49117 1.24940
 H15 H 0.56344 0.47224 1.24950
 H16 H 0.46639 0.55645 1.24830
 C17 C 0.49003 0.97588 1.27896
 C18 C 0.51485 1.02942 1.27870
 C19 C 0.52532 1.05427 1.25094
 C20 C 0.51325 1.02831 1.22382
 C21 C 0.48868 0.97564 1.22408
 C22 C 0.47814 0.95035 1.25145
 H23 H 0.45794 0.90972 1.25112
 H24 H 0.54557 1.09489 1.25016
 C25 C 0.97876 0.49583 0.72355
 C26 C 1.02973 0.51022 0.72250
 C27 C 1.05623 0.51879 0.74922
 C28 C 1.03358 0.51419 0.77720
 C29 C 0.98195 0.49868 0.77805
 C30 C 0.95571 0.49063 0.75127
 H31 H 0.91598 0.47734 0.75204
 H32 H 1.09591 0.53204 0.74792
 C33 C 0.51657 0.49021 0.72241
 C34 C 0.49701 0.52207 0.72183
 C35 C 0.48947 0.53991 0.74890
 C36 C 0.49870 0.52491 0.77649
 C37 C 0.51661 0.49176 0.77703
 C38 C 0.52561 0.47516 0.75001
 H39 H 0.54065 0.45083 0.75048
 H40 H 0.47391 0.56380 0.74857
 C41 C 0.49774 0.02253 0.72060
 C42 C 0.48118 -0.02935 0.72157
 C43 C 0.47583 -0.05191 0.74974
 C44 C 0.48492 -0.02500 0.77641
 C45 C 0.50279 0.02680 0.77513
 C46 C 0.50838 0.04961 0.74731
 H47 H 0.52299 0.08956 0.74635
 H48 H 0.46077 -0.09189 0.75119
 O49 O 0.41718 0.66381 0.97489
 O50 O 0.41146 0.74307 0.96719
 C51 C 0.38551 0.76232 0.96116
 O52 O 0.34660 0.75243 0.97597
 O53 O 0.26662 0.66563 0.96585
 C54 C 0.24640 0.61979 0.95913
 O55 O 0.25408 0.58961 0.97370
 O56 O 0.34074 0.59897 0.96469
 C57 C 0.38731 0.62590 0.95918
 O58 O 0.41231 0.67359 1.03472
 O59 O 0.41105 0.75550 1.02702
 C60 C 0.37800 0.75892 1.04161
 O61 O 0.33182 0.73385 1.03511
 O62 O 0.24959 0.64880 1.02517
 C63 C 0.24447 0.61141 1.03965
 O64 O 0.26849 0.59023 1.03317
 O65 O 0.35307 0.59490 1.02395
 C66 C 0.38959 0.62686 1.03973
 Cr67 Cr 0.41026 0.70747 1.00094
 Cr68 Cr 0.30014 0.69896 1.00051
 Cr69 Cr 0.30536 0.59618 0.99894
 O70 O 0.33860 0.66757 1.00013
 O71 O 0.58791 0.34389 0.97497
 O72 O 0.58848 0.26229 0.96634
 C73 C 0.61231 0.24143 0.95887
 O74 O 0.65158 0.24924 0.97241
 O75 O 0.73435 0.33425 0.96387
 C76 C 0.75683 0.38035 0.95743
 O77 O 0.75025 0.41143 0.97186
 O78 O 0.66538 0.40707 0.96477
 C79 C 0.61869 0.38196 0.95955
 O80 O 0.59291 0.33194 1.03436
 O81 O 0.58888 0.24790 1.02581
 C82 C 0.62073 0.24137 1.03936
 O83 O 0.66657 0.26401 1.03207
 O84 O 0.75105 0.34745 1.02344
 C85 C 0.75873 0.38581 1.03798
 O86 O 0.73727 0.40959 1.03165
 O87 O 0.65489 0.41004 1.02458
 C88 C 0.61723 0.37839 1.03996
 Cr89 Cr 0.59240 0.29798 1.00032
 Cr90 Cr 0.69947 0.30012 0.99797
 Cr91 Cr 0.70053 0.40669 0.99824
 O92 O 0.66416 0.33489 0.99882
 O93 O 0.65663 0.41296 0.52491
 O94 O 0.73743 0.41188 0.53553
 C95 C 0.75847 0.38831 0.54290
 O96 O 0.75123 0.34962 0.52912
 O97 O 0.66430 0.26753 0.53629
 C98 C 0.61721 0.24431 0.54008
 O99 O 0.58825 0.25068 0.52321
 O100 O 0.59157 0.33473 0.53102
 C101 C 0.61647 0.38062 0.53830
 O102 O 0.67466 0.41258 0.46567
 O103 O 0.75680 0.41413 0.47625
 C104 C 0.76299 0.38216 0.46240
 O105 O 0.74010 0.33617 0.46950
 O106 O 0.65593 0.25158 0.47678
 C107 C 0.62112 0.24615 0.45956
 O108 O 0.59785 0.26878 0.46366
 O109 O 0.59567 0.34998 0.47152
 C110 C 0.62908 0.38913 0.45806
 Cr111 Cr 0.70493 0.41010 0.50059
 Cr112 Cr 0.70162 0.30265 0.50284
 Cr113 Cr 0.59608 0.30240 0.49746
 O114 O 0.66760 0.33853 0.50038
 O115 O 0.34965 0.59047 0.52231
 O116 O 0.26519 0.58602 0.53142
 C117 C 0.24113 0.60713 0.53787
 O118 O 0.24644 0.64477 0.52356
 O119 O 0.32917 0.72960 0.53436
 C120 C 0.37559 0.75411 0.54046
 O121 O 0.40800 0.75118 0.52490
 O122 O 0.40839 0.66922 0.53350
 C123 C 0.38571 0.62248 0.53848
 O124 O 0.33692 0.59514 0.46278
 O125 O 0.25032 0.58605 0.47211
 C126 C 0.24308 0.61659 0.45751
 O127 O 0.26419 0.66260 0.46424
 O128 O 0.34469 0.74919 0.47519
 C129 C 0.38270 0.75784 0.45981
 O130 O 0.40774 0.73739 0.46534
 O131 O 0.41352 0.65824 0.47410
 C132 C 0.38369 0.62128 0.45784
 Cr133 Cr 0.30180 0.59207 0.49720
 Cr134 Cr 0.29750 0.69532 0.49931
 Cr135 Cr 0.40675 0.70259 0.49942
 O136 O 0.33528 0.66331 0.49872
 C137 C 0.46075 0.57201 0.35538
 C138 C 0.50921 0.58005 0.35305
 C139 C 0.52344 0.56625 0.32700
 C140 C 0.48947 0.54376 0.30321
 C141 C 0.44159 0.53728 0.30644
 N142 N 0.42858 0.55078 0.33209
 C143 C 0.44292 0.58498 0.38250
 N144 N 0.39264 0.56074 0.38778
 C145 C 0.37300 0.57105 0.41181
 C146 C 0.40464 0.60826 0.43220
 C147 C 0.45663 0.63393 0.42713
 C148 C 0.47590 0.62246 0.40237
 H149 H 0.56160 0.57466 0.32529
 H150 H 0.41360 0.51958 0.28912
 H151 H 0.33266 0.55055 0.41468
 H152 H 0.48246 0.66324 0.44211
 H153 H 0.53583 0.59622 0.37115
 H154 H 0.51599 0.64370 0.39860
 C155 C 0.44040 0.88798 0.35745
 C156 C 0.43430 0.92918 0.35472
 C157 C 0.45016 0.95804 0.32871
 C158 C 0.47283 0.94663 0.30540
 C159 C 0.47711 0.90431 0.30893
 N160 N 0.46167 0.87704 0.33454
 C161 C 0.42547 0.85646 0.38464
 N162 N 0.44811 0.83020 0.39047
 C163 C 0.43589 0.79949 0.41453
 C164 C 0.39821 0.79322 0.43439
 C165 C 0.37424 0.81984 0.42878
 C166 C 0.38772 0.85144 0.40401
 H167 H 0.44401 0.98890 0.32674
 H168 H 0.49465 0.89400 0.29188
 H169 H 0.45512 0.77944 0.41780
 H170 H 0.34466 0.81585 0.44333
 H171 H 0.41827 0.93973 0.37254
 H172 H 0.36775 0.87046 0.39980
 C173 C 0.11312 0.54656 0.35470
 C174 C 0.06955 0.49882 0.35219
 C175 C 0.04031 0.48631 0.32642
 C176 C 0.05371 0.52134 0.30311
 C177 C 0.09840 0.56825 0.30637
 N178 N 0.12597 0.57964 0.33176
 C179 C 0.14510 0.56266 0.38175
 N180 N 0.17388 0.61252 0.38795
 C181 C 0.20468 0.63045 0.41208
 C182 C 0.20839 0.59744 0.43164
 C183 C 0.17935 0.54587 0.42554
 C184 C 0.14772 0.52835 0.40074
 H185 H 0.00760 0.44889 0.32461
 H186 H 0.11046 0.59672 0.28923
 H187 H 0.22665 0.67053 0.41569
 H188 H 0.18125 0.51900 0.43985
 H189 H 0.05751 0.47154 0.37000
 H190 H 0.12661 0.48854 0.39625
 C191 C 0.57587 0.46125 0.35510
 C192 C 0.61211 0.49270 0.33398
 C193 C 0.59736 0.50722 0.30858
 C194 C 0.54672 0.49056 0.30405
 C195 C 0.51140 0.45842 0.32527
 N196 N 0.52665 0.44468 0.34996
 C197 C 0.58986 0.44452 0.38227
 N198 N 0.55557 0.40026 0.39539
 C199 C 0.56666 0.38206 0.41985
 C200 C 0.61486 0.40887 0.43240
 C201 C 0.65023 0.45516 0.41962
 C202 C 0.63787 0.47318 0.39480
 H203 H 0.62544 0.53147 0.29237
 H204 H 0.47185 0.44414 0.32212
 H205 H 0.53812 0.34639 0.42912
 H206 H 0.68765 0.47761 0.42877
 H207 H 0.65134 0.50522 0.33656
 H208 H 0.66567 0.50938 0.38581
 C209 C 0.56675 0.11844 0.35647
 C210 C 0.57291 0.07729 0.35366
 C211 C 0.55651 0.04819 0.32782
 C212 C 0.53317 0.05925 0.30479
 C213 C 0.52910 0.10170 0.30831
 N214 N 0.54507 0.12919 0.33375
 C215 C 0.58144 0.14981 0.38365
 N216 N 0.55937 0.17674 0.38906
 C217 C 0.57088 0.20698 0.41321
 C218 C 0.60704 0.21187 0.43374
 C219 C 0.63055 0.18468 0.42857
 C220 C 0.61793 0.15369 0.40360
 H221 H 0.56260 0.01730 0.32580
 H222 H 0.51115 0.11182 0.29148
 H223 H 0.55202 0.22747 0.41612
 H224 H 0.65905 0.18769 0.44363
 H225 H 0.58926 0.06683 0.37129
 H226 H 0.63748 0.13413 0.39980
 C227 C 0.88387 0.44153 0.35572
 C228 C 0.86884 0.40802 0.33172
 C229 C 0.89713 0.42233 0.30558
 C230 C 0.94109 0.46996 0.30307
 C231 C 0.95356 0.50324 0.32727
 N232 N 0.92510 0.48838 0.35259
 C233 C 0.85536 0.42653 0.38413
 N234 N 0.85121 0.46089 0.40049
 C235 C 0.82335 0.44826 0.42603
 C236 C 0.79755 0.39844 0.43638
 C237 C 0.80300 0.36306 0.42030
 C238 C 0.83176 0.37690 0.39436
 H239 H 0.88561 0.39510 0.28778
 H240 H 0.98558 0.54115 0.32598
 H241 H 0.82053 0.47686 0.43782
 H242 H 0.78431 0.32430 0.42744
 H243 H 0.83540 0.37100 0.33301
 H244 H 0.83541 0.34888 0.38246
 C245 C 0.55919 0.44535 1.14327
 C246 C 0.53193 0.41218 1.16669
 C247 C 0.52135 0.43021 1.19225
 C248 C 0.53785 0.48112 1.19468
 C249 C 0.56562 0.51336 1.17110
 N250 N 0.57562 0.49493 1.14630
 C251 C 0.57188 0.42780 1.11593
 N252 N 0.61399 0.46022 1.10023
 C253 C 0.62878 0.44581 1.07559
 C254 C 0.60059 0.39601 1.06558
 C255 C 0.55633 0.36248 1.08100
 C256 C 0.54175 0.37821 1.10596
 H257 H 0.50021 0.40443 1.21019
 H258 H 0.57954 0.55305 1.17249
 H259 H 0.66296 0.47303 1.06425
 H260 H 0.53293 0.32390 1.07387
 H261 H 0.51972 0.37288 1.16571
 H262 H 0.50708 0.35170 1.11711
 C263 C 0.88434 0.44635 1.14259
 C264 C 0.87325 0.46666 1.16715
 C265 C 0.90185 0.47839 1.19301
 C266 C 0.94226 0.47062 1.19479
 C267 C 0.95128 0.44900 1.16979
 N268 N 0.92243 0.43742 1.14483
 C269 C 0.85434 0.43322 1.11479
 N270 N 0.84739 0.39393 1.09786
 C271 C 0.81820 0.37876 1.07291
 C272 C 0.79376 0.40361 1.06374
 C273 C 0.80184 0.44515 1.08043
 C274 C 0.83203 0.46008 1.10575
 H275 H 0.89314 0.49516 1.21134
 H276 H 0.97989 0.43947 1.17039
 H277 H 0.81341 0.34680 1.06062
 H278 H 0.78434 0.46592 1.07416
 H279 H 0.84231 0.47286 1.16670
 H280 H 0.83783 0.49244 1.11803
 C281 C 0.56053 0.11467 1.14340
 C282 C 0.59604 0.12148 1.16504
 C283 C 0.58029 0.09301 1.19109
 C284 C 0.52935 0.05781 1.19579
 C285 C 0.49478 0.05242 1.17394
 N286 N 0.51100 0.08076 1.14864
 C287 C 0.57582 0.14486 1.11563
 N288 N 0.54315 0.15500 1.10202
 C289 C 0.55592 0.18452 1.07725
 C290 C 0.60428 0.20611 1.06492
 C291 C 0.63785 0.19474 1.07812
 C292 C 0.62375 0.16408 1.10324
 H293 H 0.60787 0.09842 1.20766
 H294 H 0.45505 0.02604 1.17711
 H295 H 0.52870 0.19194 1.06766
 H296 H 0.67528 0.20981 1.06918
 H297 H 0.63550 0.14921 1.16233
 H298 H 0.65025 0.15553 1.11269
 C299 C 0.45067 0.55917 1.14146
 C300 C 0.43649 0.50920 1.14714
 C301 C 0.45199 0.49744 1.17344
 C302 C 0.48223 0.53530 1.19378
 C303 C 0.49597 0.58465 1.18723
 N304 N 0.48017 0.59520 1.16161
 C305 C 0.43484 0.57440 1.11435
 N306 N 0.45984 0.62388 1.10680
 C307 C 0.44680 0.64141 1.08292
 C308 C 0.40594 0.60834 1.06501
 C309 C 0.37965 0.55714 1.07234
 C310 C 0.39377 0.54007 1.09694
 H311 H 0.44042 0.45884 1.17793
 H312 H 0.51945 0.61482 1.20243
 H313 H 0.46807 0.68122 1.07820
 H314 H 0.34753 0.53026 1.05938
 H315 H 0.41421 0.47938 1.13155
 H316 H 0.37167 0.50067 1.10246
 C317 C 0.11504 0.54439 1.14308
 C318 C 0.11674 0.51326 1.16508
 C319 C 0.08688 0.50131 1.19052
 C320 C 0.05535 0.52022 1.19431
 C321 C 0.05529 0.55198 1.17224
 N322 N 0.08473 0.56311 1.14752
 C323 C 0.14676 0.55906 1.11579
 N324 N 0.15670 0.60108 1.10068
 C325 C 0.18668 0.61782 1.07605
 C326 C 0.20913 0.59193 1.06529
 C327 C 0.19845 0.54788 1.08011
 C328 C 0.16715 0.53118 1.10512
 H329 H 0.08830 0.47720 1.20734
 H330 H 0.03196 0.56789 1.17469
 H331 H 0.19364 0.65186 1.06529
 H332 H 0.21438 0.52632 1.07243
 H333 H 0.14149 0.49896 1.16322
 H334 H 0.15902 0.49663 1.11566
 C335 C 0.43812 0.88670 1.14492
 C336 C 0.40360 0.87995 1.16734
 C337 C 0.42037 0.90939 1.19293
 C338 C 0.47135 0.94543 1.19641
 C339 C 0.50491 0.95079 1.17380
 N340 N 0.48771 0.92156 1.14897
 C341 C 0.42211 0.85547 1.11763
 N342 N 0.45576 0.84799 1.10283
 C343 C 0.44302 0.81825 1.07826
 C344 C 0.39368 0.79363 1.06732
 C345 C 0.35883 0.80193 1.08182
 C346 C 0.37289 0.83291 1.10674
 H347 H 0.39355 0.90397 1.21012
 H348 H 0.54468 0.97776 1.17603
 H349 H 0.47123 0.81323 1.06765
 H350 H 0.32054 0.78441 1.07396
 H351 H 0.36419 0.85154 1.16565
 H352 H 0.34538 0.83920 1.11709
 C353 C 0.55205 0.43989 0.64256
 C354 C 0.52112 0.40489 0.66439
 C355 C 0.50956 0.42139 0.69034
 C356 C 0.52860 0.47255 0.69470
 C357 C 0.55992 0.50646 0.67264
 N358 N 0.57083 0.48954 0.64752
 C359 C 0.56621 0.42432 0.61485
 N360 N 0.60982 0.45752 0.60065
 C361 C 0.62603 0.44513 0.57576
 C362 C 0.59780 0.39659 0.56382
 C363 C 0.55200 0.36234 0.57763
 C364 C 0.53602 0.37604 0.60293
 H365 H 0.48558 0.39419 0.70700
 H366 H 0.57598 0.54634 0.67550
 H367 H 0.66143 0.47285 0.56578
 H368 H 0.52857 0.32465 0.56908
 H369 H 0.50677 0.36528 0.66193
 H370 H 0.50028 0.34900 0.61281
 C371 C 0.53791 0.11034 0.64079
 C372 C 0.50134 0.10851 0.65995
 C373 C 0.48779 0.07930 0.68579
 C374 C 0.51008 0.05153 0.69240
 C375 C 0.54625 0.05411 0.67270
 N376 N 0.55936 0.08335 0.64785
 C377 C 0.55601 0.14316 0.61413
 N378 N 0.60392 0.16156 0.60461
 C379 C 0.62392 0.19323 0.58093
 C380 C 0.59509 0.20813 0.56512
 C381 C 0.54517 0.18866 0.57410
 C382 C 0.52553 0.15626 0.59855
 H383 H 0.46016 0.07855 0.70076
 H384 H 0.56474 0.03372 0.67739
 H385 H 0.66242 0.20690 0.57464
 H386 H 0.52149 0.19892 0.56247
 H387 H 0.48452 0.13057 0.65567
 H388 H 0.48687 0.14146 0.60495
 C389 C 0.88741 0.45724 0.64562
 C390 C 0.88925 0.49253 0.66583
 C391 C 0.91948 0.50541 0.69106
 C392 C 0.94770 0.48321 0.69632
 C393 C 0.94429 0.44755 0.67597
 N394 N 0.91463 0.43561 0.65148
 C395 C 0.85537 0.44145 0.61871
 N396 N 0.84183 0.39674 0.60576
 C397 C 0.81169 0.37924 0.58135
 C398 C 0.79303 0.40726 0.56864
 C399 C 0.80739 0.45390 0.58128
 C400 C 0.83869 0.47124 0.60607
 H401 H 0.92079 0.53263 0.70655
 H402 H 0.96473 0.42884 0.67971
 H403 H 0.80179 0.34319 0.57224
 H404 H 0.79456 0.47720 0.57196
 H405 H 0.86694 0.50937 0.66279
 H406 H 0.84988 0.50779 0.61482
 C407 C 0.44744 0.55701 0.64137
 C408 C 0.43145 0.50688 0.64803
 C409 C 0.44755 0.49560 0.67424
 C410 C 0.48038 0.53396 0.69363
 C411 C 0.49586 0.58351 0.68615
 N412 N 0.47935 0.59362 0.66059
 C413 C 0.43097 0.57166 0.61415
 N414 N 0.45646 0.62079 0.60580
 C415 C 0.44330 0.63770 0.58165
 C416 C 0.40186 0.60434 0.56415
 C417 C 0.37497 0.55352 0.57232
 C418 C 0.38915 0.53709 0.59724
 H419 H 0.43417 0.45679 0.67947
 H420 H 0.52119 0.61413 0.70056
 H421 H 0.46506 0.67728 0.57633
 H422 H 0.34236 0.52650 0.55975
 H423 H 0.40717 0.47643 0.63330
 H424 H 0.36658 0.49797 0.60331
 C425 C 0.44043 0.87958 0.64471
 C426 C 0.46706 0.87326 0.66765
 C427 C 0.48023 0.90317 0.69307
 C428 C 0.46805 0.94043 0.69563
 C429 C 0.44063 0.94486 0.67214
 N430 N 0.42744 0.91458 0.64782
 C431 C 0.42509 0.84810 0.61762
 N432 N 0.38040 0.83413 0.60447
 C433 C 0.36381 0.80440 0.57983
 C434 C 0.39324 0.78756 0.56676
 C435 C 0.43989 0.80245 0.57966
 C436 C 0.45580 0.83245 0.60509
 H437 H 0.50140 0.89808 0.71032
 H438 H 0.42771 0.97079 0.67357
 H439 H 0.32778 0.79409 0.57045
 H440 H 0.46380 0.79033 0.57034
 H441 H 0.47695 0.84494 0.66624
 H442 H 0.49200 0.84371 0.61460
 C443 C 0.11273 0.53923 0.64132
 C444 C 0.11256 0.50594 0.66250
 C445 C 0.08477 0.49591 0.68871
 C446 C 0.05723 0.51889 0.69398
 C447 C 0.05838 0.55196 0.67242
 N448 N 0.08583 0.56128 0.64706
 C449 C 0.14358 0.55358 0.61378
 N450 N 0.15454 0.59654 0.59943
 C451 C 0.18430 0.61362 0.57477
 C452 C 0.20559 0.58716 0.56327
 C453 C 0.19375 0.54207 0.57721
 C454 C 0.16258 0.52499 0.60225
 H455 H 0.08506 0.47053 0.70504
 H456 H 0.03828 0.57108 0.67600
 H457 H 0.19219 0.64844 0.56467
 H458 H 0.20877 0.52006 0.56888
 H459 H 0.13458 0.48877 0.65956
 H460 H 0.15365 0.48978 0.61217
 C461 C 0.46029 0.57341 0.85587
 C462 C 0.49613 0.60919 0.83609
 C463 C 0.50886 0.59332 0.81025
 C464 C 0.48640 0.54208 0.80423
 C465 C 0.45072 0.50753 0.82443
 N466 N 0.43852 0.52382 0.84929
 C467 C 0.44366 0.58798 0.88293
 N468 N 0.39662 0.55614 0.89372
 C469 C 0.37815 0.56714 0.91807
 C470 C 0.40775 0.61258 0.93333
 C471 C 0.45679 0.64554 0.92296
 C472 C 0.47484 0.63344 0.89783
 H473 H 0.53615 0.62096 0.79492
 H474 H 0.43204 0.46768 0.82020
 H475 H 0.34026 0.54040 0.92536
 H476 H 0.48104 0.68091 0.93407
 H477 H 0.51320 0.64894 0.83998
 H478 H 0.51291 0.65923 0.89047
 C479 C 0.12202 0.55221 0.85485
 C480 C 0.12899 0.52604 0.83188
 C481 C 0.10001 0.51375 0.80613
 C482 C 0.06321 0.52655 0.80327
 C483 C 0.05812 0.55343 0.82680
 N484 N 0.08741 0.56566 0.85145
 C485 C 0.15285 0.56754 0.88209
 N486 N 0.16417 0.61104 0.89574
 C487 C 0.19334 0.62812 0.92051
 C488 C 0.21261 0.60056 0.93311
 C489 C 0.20034 0.55496 0.91980
 C490 C 0.17062 0.53840 0.89427
 H491 H 0.10541 0.49277 0.78889
 H492 H 0.03231 0.56651 0.82519
 H493 H 0.20154 0.66327 0.93024
 H494 H 0.21437 0.53249 0.92882
 H495 H 0.15715 0.51594 0.83348
 H496 H 0.16136 0.50303 0.88439
 C497 C 0.44241 0.89153 0.85815
 C498 C 0.42493 0.92383 0.85188
 C499 C 0.43888 0.95100 0.82527
 C500 C 0.47105 0.94711 0.80513
 C501 C 0.48832 0.91511 0.81233
 N502 N 0.47384 0.88858 0.83829
 C503 C 0.42759 0.86030 0.88557
 N504 N 0.45554 0.84067 0.89428
 C505 C 0.44358 0.81033 0.91855
 C506 C 0.40080 0.79761 0.93566
 C507 C 0.37147 0.81745 0.92712
 C508 C 0.38453 0.84851 0.90215
 H509 H 0.42427 0.97486 0.82031
 H510 H 0.51328 0.91123 0.79734
 H511 H 0.46720 0.79572 0.92417
 H512 H 0.33780 0.80823 0.93938
 H513 H 0.40105 0.92863 0.86720
 H514 H 0.36009 0.86166 0.89568
 C515 C 0.54999 0.44139 0.85747
 C516 C 0.51460 0.40624 0.83741
 C517 C 0.50343 0.42283 0.81134
 C518 C 0.52701 0.47421 0.80529
 C519 C 0.56194 0.50820 0.82588
 N520 N 0.57273 0.49117 0.85099
 C521 C 0.56533 0.42568 0.88457
 N522 N 0.61261 0.45594 0.89532
 C523 C 0.63009 0.44323 0.91939
 C524 C 0.59923 0.39754 0.93430
 C525 C 0.54988 0.36636 0.92407
 C526 C 0.53283 0.38023 0.89928
 H527 H 0.47657 0.39559 0.79576
 H528 H 0.58132 0.54813 0.82170
 H529 H 0.66825 0.46869 0.92665
 H530 H 0.52465 0.33091 0.93493
 H531 H 0.49681 0.36635 0.84123
 H532 H 0.49457 0.35571 0.89192
 C533 C 0.89219 0.44917 0.85719
 C534 C 0.92286 0.43007 0.85015
 C535 C 0.95240 0.44659 0.82449
 C536 C 0.95216 0.48263 0.80605
 C537 C 0.92176 0.50150 0.81406
 N538 N 0.89300 0.48463 0.83915
 C539 C 0.85844 0.43105 0.88342
 N540 N 0.84533 0.46177 0.89665
 C541 C 0.81358 0.44689 0.92048
 C542 C 0.79250 0.39820 0.93205
 C543 C 0.80525 0.36590 0.91850
 C544 C 0.83800 0.38208 0.89429
 H545 H 0.97518 0.43098 0.81886
 H546 H 0.92084 0.52948 0.80033
 H547 H 0.80446 0.47289 0.93008
 H548 H 0.78968 0.32789 0.92647
 H549 H 0.92433 0.40285 0.86429
 H550 H 0.84607 0.35591 0.88383
 C551 C 0.54436 0.11675 0.85406
 C552 C 0.51171 0.11869 0.83330
 C553 C 0.49829 0.08943 0.80759
 C554 C 0.51730 0.05833 0.80237
 C555 C 0.55069 0.05823 0.82323
 N556 N 0.56322 0.08704 0.84819
 C557 C 0.55982 0.14713 0.88172
 N558 N 0.60389 0.15917 0.89508
 C559 C 0.62096 0.18803 0.92008
 C560 C 0.59316 0.20685 0.93302
 C561 C 0.54700 0.19366 0.92004
 C562 C 0.53014 0.16375 0.89463
 H563 H 0.47278 0.09079 0.79184
 H564 H 0.56686 0.03538 0.81963
 H565 H 0.65663 0.19703 0.92941
 H566 H 0.52385 0.20666 0.92941
 H567 H 0.49721 0.14306 0.83643
 H568 H 0.49405 0.15363 0.88551
   
