data_POSCAR
  _audit_creation_date              2014-09-24
  _audit_creation_method            'ToBaCCo'
  _symmetry_space_group_name_H-M    'P1'
  _symmetry_Int_Tables_number       1
  _symmetry_cell_setting            triclinic
  loop_
  _symmetry_equiv_pos_as_xyz
 x,y,z
_cell_length_a 26.3334
_cell_length_b 26.2710
_cell_length_c 25.9041
_cell_angle_alpha 89.910700
_cell_angle_beta 89.592800
_cell_angle_gamma 89.311400
loop_
  _atom_site_label
  _atom_site_type_symbol
  _atom_site_fract_x
  _atom_site_fract_y
  _atom_site_fract_z
C1 C 0.18285 0.19545 0.23098
 C2 C 0.20382 0.15353 0.20482
 C3 C 0.21282 0.15522 0.15118
 C4 C 0.19526 0.19759 0.12284
 C5 C 0.16809 0.23702 0.14819
 C6 C 0.16601 0.23760 0.20220
 H7 H 0.21667 0.12085 0.22703
 H8 H 0.19935 0.19796 0.08117
 H9 H 0.14601 0.26860 0.22123
 C10 C -0.14182 0.82583 0.23569
 C11 C -0.18588 0.85677 0.23418
 C12 C -0.22068 0.85251 0.19357
 C13 C -0.21058 0.81827 0.15359
 C14 C -0.16730 0.78714 0.15380
 C15 C -0.13338 0.79027 0.19525
 H16 H -0.19337 0.88357 0.26505
 H17 H -0.23778 0.81466 0.12274
 H18 H -0.10041 0.76541 0.19490
 C19 C -0.17645 0.18301 -0.24512
 C20 C -0.22255 0.15762 -0.23792
 C21 C -0.24956 0.16126 -0.19039
 C22 C -0.22689 0.18680 -0.14880
 C23 C -0.18029 0.21174 -0.15558
 C24 C -0.15599 0.20977 -0.20347
 H25 H -0.23794 0.13687 -0.27016
 H26 H -0.24715 0.19018 -0.11241
 H27 H -0.11976 0.22844 -0.20751
 C28 C 0.19228 0.83668 -0.22093
 C29 C 0.23767 0.83622 -0.19215
 C30 C 0.24993 0.79541 -0.15901
 C31 C 0.21525 0.75530 -0.15421
 C32 C 0.17088 0.75432 -0.18327
 C33 C 0.15960 0.79490 -0.21702
 H34 H 0.26406 0.86726 -0.19616
 H35 H 0.22295 0.72321 -0.12929
 H36 H 0.12502 0.79445 -0.23941
 C37 C 0.15547 1.18492 0.77980
 C38 C 0.19243 1.14654 0.78521
 C39 C 0.22469 1.14518 0.82827
 C40 C 0.21994 1.18376 0.86588
 C41 C 0.18280 1.22261 0.86073
 C42 C 0.15098 1.22253 0.81768
 H43 H 0.19621 1.11807 0.75527
 H44 H 0.24487 1.18319 0.89890
 H45 H 0.12311 1.25273 0.81330
 C46 C 0.85772 0.85752 0.78090
 C47 C 0.80555 0.85677 0.79261
 C48 C 0.78516 0.81542 0.82013
 C49 C 0.81649 0.77334 0.83205
 C50 C 0.86784 0.77219 0.81776
 C51 C 0.88850 0.81566 0.79449
 H52 H 0.78149 0.88895 0.78241
 H53 H 0.80086 0.74122 0.85271
 H54 H 0.92836 0.81655 0.78433
 C55 C 0.19059 0.82838 1.24888
 C56 C 0.23101 0.83137 1.21316
 C57 C 0.23071 0.80429 1.16685
 C58 C 0.18923 0.77367 1.15532
 C59 C 0.14796 0.77031 1.18947
 C60 C 0.14847 0.79837 1.23605
 H61 H 0.26334 0.85505 1.22062
 H62 H 0.18862 0.75272 1.11940
 H63 H 0.11717 0.79551 1.26315
 C64 C 0.80560 1.19552 1.24024
 C65 C 0.80754 1.24364 1.21599
 C66 C 0.77661 1.25542 1.17382
 C67 C 0.74359 1.21807 1.15516
 C68 C 0.74412 1.16883 1.17580
 C69 C 0.77564 1.15747 1.21813
 H70 H 0.83289 1.27258 1.22997
 H71 H 0.71985 1.22570 1.12203
 H72 H 0.77458 1.12001 1.23563
 N73 N 0.52803 1.04749 1.09395
 N74 N 0.56734 1.05241 1.12444
 N75 N 0.42506 1.06380 1.04262
 N76 N 0.38003 1.08707 1.04062
 N77 N 0.42465 1.02864 1.07870
 N78 N 0.38023 1.02679 1.10191
 N79 N 0.53200 1.07824 1.05394
 N80 N 0.57475 1.10439 1.05663
 C81 C 0.59567 1.08839 1.10171
 C82 C 0.35266 1.06334 1.07812
 N83 N 0.44514 1.01484 0.90329
 N84 N 0.40742 1.01146 0.87020
 N85 N 0.54432 1.06963 0.94076
 N86 N 0.57449 1.10745 0.92641
 N87 N 0.55005 1.03110 0.90882
 N88 N 0.58387 1.04110 0.87286
 N89 N 0.43860 1.05475 0.93328
 N90 N 0.39619 1.07933 0.92165
 Mn91 Mn 0.48547 1.06771 0.99277
 C92 C 0.37729 1.05202 0.88219
 C93 C 0.59954 1.08823 0.88438
 N94 N 0.44378 0.92033 1.09006
 N95 N 0.39949 0.90902 1.11148
 N96 N 0.56263 0.90671 1.07331
 N97 N 0.60592 0.88638 1.08951
 N98 N 0.54654 0.94172 1.10582
 N99 N 0.57806 0.94647 1.14457
 N100 N 0.45991 0.88266 1.06078
 N101 N 0.42729 0.84526 1.06093
 Mn102 Mn 0.48498 0.98471 1.09247
 C103 C 0.39010 0.86181 1.09273
 C104 C 0.61484 0.91204 1.13401
 N105 N 0.56996 0.92521 0.92049
 N106 N 0.60450 0.91362 0.88499
 N107 N 0.47295 0.87325 0.95288
 N108 N 0.44047 0.83573 0.95095
 N109 N 0.46453 0.90587 0.91538
 N110 N 0.42560 0.89135 0.88702
 N111 N 0.57562 0.89599 0.96138
 N112 N 0.61294 0.86291 0.95391
 Mn113 Mn 0.50689 0.96918 0.91142
 Mn114 Mn 0.51863 0.88946 1.01227
 Cl115 Cl 0.49924 0.97788 1.00210
 C116 C 0.63158 0.87539 0.90693
 C117 C 0.41144 0.84712 0.90977
 N118 N 0.02492 0.45586 0.09956
 N119 N 0.02472 0.40940 0.11986
 N120 N 0.05542 0.56828 0.05982
 N121 N 0.08167 0.60941 0.07206
 N122 N 0.01660 0.56333 0.09153
 N123 N 0.01414 0.60137 0.12436
 N124 N 0.06805 0.46344 0.07470
 N125 N 0.09832 0.42362 0.07958
 C126 C 0.07180 0.39061 0.10824
 C127 C 0.05447 0.62996 0.11203
 N128 N 0.04963 0.53513 -0.09411
 N129 N 0.05832 0.56384 -0.13471
 N130 N 0.08640 0.44678 -0.03211
 N131 N 0.12361 0.41331 -0.02593
 N132 N 0.05547 0.43189 -0.06863
 N133 N 0.07174 0.38848 -0.08907
 N134 N 0.07463 0.55168 -0.05376
 N135 N 0.10159 0.59233 -0.06670
 Mn136 Mn 0.07171 0.50897 0.01211
 C137 C 0.09045 0.59934 -0.11760
 C138 C 0.11402 0.37722 -0.06142
 N139 N -0.08834 0.55867 0.07347
 N140 N -0.09562 0.60254 0.09731
 N141 N -0.11715 0.45327 0.04352
 N142 N -0.15706 0.42471 0.05056
 N143 N -0.08710 0.45153 0.08367
 N144 N -0.10685 0.42150 0.11986
 N145 N -0.11322 0.55821 0.02967
 N146 N -0.13859 0.60126 0.02289
 Mn147 Mn -0.03337 0.50622 0.08799
 C148 C -0.12734 0.62831 0.06561
 C149 C -0.15034 0.40464 0.09773
 N150 N -0.05579 0.42453 -0.08607
 N151 N -0.05596 0.37607 -0.10070
 N152 N -0.09376 0.54132 -0.08021
 N153 N -0.11340 0.58639 -0.09240
 N154 N -0.05581 0.52945 -0.11125
 N155 N -0.04879 0.56608 -0.14509
 N156 N -0.09786 0.43577 -0.06077
 N157 N -0.12676 0.39563 -0.05621
 Mn158 Mn -0.00159 0.47893 -0.09042
 Mn159 Mn -0.10578 0.49816 -0.01740
 Cl160 Cl -0.01712 0.49807 -0.00185
 C161 C -0.10093 0.35894 -0.08147
 C162 C -0.08506 0.60088 -0.13361
 N163 N 0.93582 -0.05228 0.44726
 N164 N 0.91090 -0.06732 0.40576
 N165 N 0.96451 -0.06729 0.56314
 N166 N 0.96321 -0.08512 0.61068
 N167 N 0.92566 -0.03626 0.55516
 N168 N 0.89687 -0.03285 0.59717
 N169 N 0.97468 -0.08301 0.45603
 N170 N 0.97715 -0.11938 0.42115
 C171 C 0.93723 -0.10946 0.39016
 C172 C 0.92038 -0.06435 0.63101
 N173 N 1.10397 -0.01910 0.56959
 N174 N 1.13477 -0.01867 0.60945
 N175 N 1.08363 -0.07253 0.46370
 N176 N 1.09673 -0.10673 0.42831
 N177 N 1.11560 -0.03447 0.46317
 N178 N 1.15139 -0.04186 0.42829
 N179 N 1.07371 -0.05839 0.57190
 N180 N 1.08372 -0.08616 0.61353
 Mn181 Mn 1.02397 -0.07105 0.51369
 C182 C 1.12169 -0.06042 0.63678
 C183 C 1.13933 -0.08689 0.40686
 N184 N 0.91564 0.07269 0.53822
 N185 N 0.88275 0.08414 0.57583
 N186 N 0.96001 0.09236 0.42661
 N187 N 0.94776 0.12700 0.39230
 N188 N 0.92446 0.05772 0.43031
 N189 N 0.88648 0.06945 0.39873
 N190 N 0.94811 0.10970 0.53220
 N191 N 0.93819 0.14715 0.56413
 Mn192 Mn 0.92450 0.01009 0.49270
 C193 C 0.89757 0.13130 0.59112
 C194 C 0.90260 0.11223 0.37426
 N195 N 1.10623 0.07363 0.44552
 N196 N 1.14550 0.08812 0.41698
 N197 N 1.05493 0.11931 0.54254
 N198 N 1.04954 0.15364 0.57917
 N199 N 1.09316 0.08846 0.55241
 N200 N 1.11488 0.10090 0.59635
 N201 N 1.06675 0.10320 0.43658
 N202 N 1.07786 0.13837 0.40240
 Mn203 Mn 1.10521 0.02705 0.50778
 Mn204 Mn 1.00744 0.10597 0.48434
 Cl205 Cl 1.01523 0.01785 0.49951
 C206 C 1.12647 0.12805 0.38973
 C207 C 1.08736 0.14195 0.61210
 C208 C 1.17493 0.19302 0.28449
 C209 C 1.16491 0.23439 0.31609
 C210 C 1.15197 0.21423 0.36257
 C211 C 1.15516 0.16222 0.35634
 O212 O 1.16956 0.14917 0.30923
 H213 H 1.16482 0.27443 0.30627
 H214 H 1.13744 0.23484 0.39579
 C215 C 0.89249 -0.16889 0.27699
 C216 C 0.93601 -0.19813 0.28426
 C217 C 0.95784 -0.17953 0.32763
 C218 C 0.92645 -0.14044 0.34416
 O219 O 0.88672 -0.13382 0.31375
 H220 H 0.95079 -0.22930 0.26122
 H221 H 0.99296 -0.19259 0.34492
 C222 C 0.84861 0.18378 0.70674
 C223 C 0.88074 0.22250 0.69178
 C224 C 0.89939 0.20853 0.64530
 C225 C 0.87831 0.16193 0.63479
 O226 O 0.84654 0.14682 0.67163
 H227 H 0.88952 0.25735 0.71192
 H228 H 0.92711 0.22909 0.62260
 C229 C 1.17931 -0.11946 0.74488
 C230 C 1.19979 -0.07152 0.74980
 C231 C 1.17977 -0.04343 0.71069
 C232 C 1.14813 -0.07573 0.68461
 O233 O 1.14737 -0.12197 0.70537
 H234 H 1.22621 -0.05827 0.77843
 H235 H 1.18760 -0.00398 0.70189
 C236 C 0.23891 1.11458 1.12751
 C237 C 0.23318 1.06457 1.14281
 C238 C 0.27210 1.03851 1.12044
 C239 C 0.29975 1.07427 1.09368
 O240 O 0.27927 1.12062 1.09704
 H241 H 0.20533 1.04938 1.16943
 H242 H 0.28186 0.99884 1.12676
 C243 C 0.29621 0.79460 0.86819
 C244 C 0.31188 0.75614 0.90149
 C245 C 0.35753 0.77071 0.91960
 C246 C 0.36706 0.81672 0.89644
 O247 O 0.33016 0.83159 0.86518
 H248 H 0.29294 0.72154 0.91252
 H249 H 0.38083 0.75060 0.94740
 C250 C 0.73109 0.88173 1.19201
 C251 C 0.71497 0.91791 1.22738
 C252 C 0.66853 0.93377 1.21044
 C253 C 0.65990 0.90614 1.16620
 O254 O 0.69756 0.87475 1.15490
 H255 H 0.73430 0.93142 1.26133
 H256 H 0.64405 0.96242 1.22791
 C257 C 0.70077 1.14216 0.81498
 C258 C 0.67014 1.12873 0.77410
 C259 C 0.62654 1.11168 0.79581
 C260 C 0.63284 1.11586 0.84834
 O261 O 0.67780 1.13458 0.86036
 H262 H 0.67798 1.13102 0.73313
 H263 H 0.59454 1.09571 0.77573
 C264 C 0.13576 0.27421 0.12020
 C265 C 0.11391 0.26582 0.07275
 C266 C 0.08249 0.30671 0.06479
 C267 C 0.08682 0.33673 0.10815
 O268 O 0.11966 0.31748 0.14141
 H269 H 0.11984 0.23375 0.04717
 H270 H 0.06110 0.31515 0.03022
 C271 C -0.15820 0.24471 -0.11553
 C272 C -0.17114 0.24437 -0.06385
 C273 C -0.14705 0.28522 -0.04344
 C274 C -0.12045 0.30694 -0.08382
 O275 O -0.12730 0.28259 -0.12759
 H276 H -0.19684 0.21908 -0.04385
 H277 H -0.15108 0.29957 -0.00445
 C278 C 0.13855 0.70888 -0.17958
 C279 C 0.11315 0.68857 -0.22085
 C280 C 0.09352 0.64429 -0.20292
 C281 C 0.10735 0.64110 -0.15167
 O282 O 0.13534 0.68003 -0.13741
 H283 H 0.11093 0.70318 -0.25986
 H284 H 0.07166 0.61726 -0.22478
 C285 C -0.15989 0.74963 0.11182
 C286 C -0.18027 0.75460 0.06293
 C287 C -0.17058 0.70951 0.03898
 C288 C -0.14448 0.68067 0.07463
 O289 O -0.13758 0.70481 0.11874
 H290 H -0.20086 0.78679 0.04697
 H291 H -0.18183 0.69875 0.00046
 C292 C 1.12246 0.18587 0.73388
 C293 C 1.08007 0.21687 0.72732
 C294 C 1.06171 0.20496 0.68001
 C295 C 1.09401 0.16765 0.66137
 O296 O 1.13067 0.15578 0.69377
 H297 H 1.06355 0.24430 0.75376
 H298 H 1.02825 0.22082 0.66169
 C299 C 0.87986 -0.10260 0.75331
 C300 C 0.92644 -0.08282 0.76643
 C301 C 0.94450 -0.06034 0.72298
 C302 C 0.90808 -0.06811 0.68611
 O303 O 0.86865 -0.09366 0.70424
 H304 H 0.94691 -0.08851 0.80213
 H305 H 0.98206 -0.04489 0.71727
 C306 C 1.19261 -0.14507 0.29623
 C307 C 1.23522 -0.12039 0.31448
 C308 C 1.22054 -0.09762 0.35900
 C309 C 1.17039 -0.10994 0.36564
 O310 O 1.15309 -0.13914 0.32807
 H311 H 1.27301 -0.11859 0.29815
 H312 H 1.24353 -0.07395 0.38350
 C313 C 0.83235 0.18633 0.28625
 C314 C 0.85017 0.22451 0.31786
 C315 C 0.87475 0.20043 0.35655
 C316 C 0.87069 0.14923 0.34643
 O317 O 0.84439 0.14012 0.30402
 H318 H 0.84576 0.26530 0.31397
 H319 H 0.89521 0.21817 0.38772
 C320 C 0.17583 0.26452 -0.10149
 C321 C 0.20501 0.27330 -0.05836
 C322 C 0.18542 0.31691 -0.03701
 C323 C 0.14582 0.33137 -0.06857
 O324 O 0.13987 0.29975 -0.10737
 H325 H 0.23704 0.25130 -0.04437
 H326 H 0.19850 0.33599 -0.00268
 C327 C -0.21982 0.30320 0.14977
 C328 C -0.25674 0.32405 0.11824
 C329 C -0.23632 0.36720 0.09901
 C330 C -0.18829 0.36991 0.11962
 O331 O -0.17823 0.33151 0.15120
 H332 H -0.29399 0.30956 0.10951
 H333 H -0.25342 0.39240 0.07078
 C334 C -0.10310 0.72748 -0.17500
 C335 C -0.05455 0.71917 -0.19452
 C336 C -0.04283 0.67033 -0.18226
 C337 C -0.08414 0.65225 -0.15564
 O338 O -0.12090 0.68660 -0.15092
 H339 H -0.03051 0.74439 -0.21650
 H340 H -0.00812 0.65008 -0.19141
 C341 C 0.10592 0.73577 0.17622
 C342 C 0.05889 0.73574 0.20004
 C343 C 0.03339 0.69696 0.17770
 C344 C 0.06641 0.67611 0.14169
 O345 O 0.11045 0.69965 0.14046
 H346 H 0.04479 0.76050 0.23035
 H347 H -0.00460 0.68462 0.18726
 C348 C 0.26372 1.10410 0.83326
 C349 C 0.26426 1.05904 0.80554
 C350 C 0.30697 1.03349 0.82042
 C351 C 0.32937 1.06445 0.85621
 O352 O 0.30324 1.10712 0.86445
 H353 H 0.23688 1.04585 0.77787
 H354 H 0.32018 0.99665 0.80691
 C355 C 0.27491 0.80793 1.13181
 C356 C 0.28742 0.77325 1.09362
 C357 C 0.33242 0.78936 1.07388
 C358 C 0.34385 0.83265 1.10124
 O359 O 0.30920 0.84412 1.13636
 H360 H 0.26733 0.73939 1.08244
 H361 H 0.35467 0.77134 1.04359
 C362 C 0.71091 1.12998 1.15302
 C363 C 0.72074 1.07831 1.15434
 C364 C 0.67989 1.05665 1.13178
 C365 C 0.64827 1.09651 1.11791
 O366 O 0.66693 1.14123 1.13062
 H367 H 0.75332 1.05867 1.17050
 H368 H 0.67299 1.01638 1.12741
 C369 C 0.73229 0.81673 0.83969
 C370 C 0.70450 0.77371 0.85090
 C371 C 0.66264 0.79066 0.87679
 C372 C 0.66738 0.84268 0.87871
 O373 O 0.70940 0.85893 0.85615
 H374 H 0.71428 0.73441 0.84278
 H375 H 0.63257 0.76786 0.89316
   
