data_POSCAR
  _audit_creation_date              2014-09-24
  _audit_creation_method            'ToBaCCo'
  _symmetry_space_group_name_H-M    'P1'
  _symmetry_Int_Tables_number       1
  _symmetry_cell_setting            triclinic
  loop_
  _symmetry_equiv_pos_as_xyz
 x,y,z
_cell_length_a 25.2982
_cell_length_b 25.3034
_cell_length_c 25.2539
_cell_angle_alpha 90.124300
_cell_angle_beta 90.123900
_cell_angle_gamma 89.999000
loop_
  _atom_site_label
  _atom_site_type_symbol
  _atom_site_fract_x
  _atom_site_fract_y
  _atom_site_fract_z
C1 C 0.61313 1.00029 -0.45275
 C2 C 0.64019 0.99996 -0.50092
 C3 C 0.61300 0.99961 -0.54913
 C4 C 0.55707 0.99980 -0.54971
 C5 C 0.52911 0.99990 -0.50102
 C6 C 0.55720 1.00004 -0.45227
 C7 C 0.52862 0.99992 -0.40451
 C8 C 0.47360 0.99961 -0.40458
 C9 C 0.44502 0.99961 -0.45238
 C10 C 0.47296 0.99987 -0.50106
 C11 C 0.52835 0.99989 -0.59750
 C12 C 0.47333 1.00013 -0.59753
 C13 C 0.44480 1.00010 -0.54976
 C14 C 0.38886 1.00027 -0.54918
 C15 C 0.36191 0.99980 -0.50095
 C16 C 0.38919 0.99936 -0.45287
 H17 H 0.54864 0.99997 -0.36657
 H18 H 0.45359 0.99946 -0.36672
 H19 H 0.54828 0.99986 -0.63541
 H20 H 0.45325 1.00026 -0.63544
 H21 H 0.68317 0.99998 -0.50088
 H22 H 0.31896 0.99977 -0.50073
 C23 C -0.61198 1.45368 0.00058
 C24 C -0.63922 1.50165 0.00024
 C25 C -0.61221 1.54982 -0.00021
 C26 C -0.55626 1.55045 -0.00011
 C27 C -0.52818 1.50187 0.00002
 C28 C -0.55615 1.45325 0.00026
 C29 C -0.52760 1.40557 0.00017
 C30 C -0.47257 1.40558 -0.00020
 C31 C -0.44404 1.45327 -0.00031
 C32 C -0.47204 1.50188 -0.00009
 C33 C -0.52765 1.59815 -0.00014
 C34 C -0.47261 1.59817 0.00002
 C35 C -0.44398 1.55048 0.00002
 C36 C -0.38803 1.54987 0.00012
 C37 C -0.36100 1.50171 -0.00030
 C38 C -0.38821 1.45372 -0.00062
 H39 H -0.54763 1.36776 0.00031
 H40 H -0.45253 1.36778 -0.00032
 H41 H -0.54767 1.63598 -0.00020
 H42 H -0.45261 1.63600 0.00007
 H43 H -0.68216 1.50138 0.00032
 H44 H -0.31806 1.50146 -0.00038
 C45 C 0.00020 0.45086 0.38871
 C46 C -0.00020 0.49900 0.36170
 C47 C -0.00059 0.54701 0.38903
 C48 C -0.00039 0.54750 0.44497
 C49 C -0.00020 0.49892 0.47297
 C50 C -0.00000 0.45030 0.44476
 C51 C -0.00003 0.40263 0.47336
 C52 C -0.00030 0.40267 0.52849
 C53 C -0.00036 0.45037 0.55726
 C54 C -0.00021 0.49896 0.52924
 C55 C -0.00037 0.59520 0.47360
 C56 C -0.00011 0.59528 0.52872
 C57 C -0.00005 0.54762 0.55738
 C58 C 0.00015 0.54716 0.61342
 C59 C -0.00022 0.49908 0.64053
 C60 C -0.00058 0.45094 0.61331
 H61 H 0.00008 0.36479 0.45326
 H62 H -0.00037 0.36484 0.54845
 H63 H -0.00047 0.63298 0.45356
 H64 H -0.00003 0.63315 0.54878
 H65 H -0.00020 0.49922 0.31868
 H66 H -0.00022 0.49912 0.68358
 O67 O -0.13639 1.00162 -0.07205
 O68 O 0.13613 0.99802 -0.07154
 O69 O -0.00187 1.07128 -0.13644
 O70 O 0.00155 0.92813 -0.13652
 O71 O 0.00160 0.86390 -0.07168
 O72 O -0.00188 1.13571 -0.07152
 O73 O 0.07136 0.99789 -0.13618
 O74 O -0.07166 1.00154 -0.13644
 Zr75 Zr -0.00014 0.99977 -0.09331
 O76 O 0.04789 0.95194 -0.04806
 O77 O -0.04814 1.04775 -0.04817
 C78 C -0.12041 1.00239 -0.12080
 C79 C 0.12013 0.99710 -0.12035
 C80 C -0.00269 1.12000 -0.12039
 C81 C 0.00238 0.87946 -0.12053
 H82 H 0.07019 1.07005 -0.07030
 O83 O 0.04767 1.04749 -0.04776
 H84 H -0.07047 0.92958 -0.07064
 O85 O -0.04793 0.95221 -0.04799
 O86 O 0.13619 1.00176 0.07189
 O87 O -0.13634 0.99829 0.07144
 O88 O 0.07133 1.13582 0.00195
 O89 O 0.07130 0.86400 -0.00180
 O90 O -0.07158 0.86404 0.00154
 O91 O -0.07149 1.13584 -0.00188
 O92 O 0.00169 1.07167 0.13643
 O93 O -0.00180 0.92857 0.13632
 O94 O 0.00171 1.13592 0.07162
 O95 O -0.00188 0.86413 0.07142
 O96 O 0.13614 1.07152 0.00198
 O97 O -0.13633 1.07157 -0.00201
 O98 O -0.13637 0.92836 0.00142
 O99 O 0.13611 0.92830 -0.00162
 O100 O 0.07149 1.00191 0.13632
 O101 O -0.07156 0.99832 0.13607
 Zr102 Zr 0.09314 0.99991 0.00011
 Zr103 Zr -0.09336 0.99995 -0.00022
 Zr104 Zr -0.00009 1.09276 0.00002
 Zr105 Zr -0.00013 0.90708 -0.00011
 Zr106 Zr -0.00006 1.00006 0.09319
 O107 O -0.04812 0.95212 0.04788
 O108 O 0.04795 1.04788 0.04813
 C109 C 0.12024 1.00268 0.12065
 C110 C -0.12033 0.99750 0.12024
 C111 C 0.12011 1.12019 0.00283
 C112 C 0.12008 0.87963 -0.00252
 C113 C -0.12035 0.87969 0.00227
 C114 C -0.12028 1.12023 -0.00279
 C115 C 0.00252 1.12033 0.12047
 C116 C -0.00266 0.87985 0.12028
 H117 H -0.07038 1.07029 0.07029
 O118 O -0.04787 1.04765 0.04772
 H119 H 0.07022 0.92976 0.07044
 O120 O 0.04770 0.95233 0.04782
 C121 C 0.21382 0.99743 0.29810
 C122 C 0.25891 0.95687 0.30602
 C123 C 0.29643 1.00242 0.32051
 C124 C 0.25182 1.04298 0.31321
 C125 C 0.23041 1.00353 0.23995
 C126 C 0.26790 1.04912 0.25438
 C127 C 0.27500 0.96294 0.24720
 C128 C 0.31315 1.00853 0.26240
 C129 C 0.33174 1.00166 0.36649
 C130 C 0.35928 1.00099 0.40547
 C131 C 0.19238 1.00379 0.19617
 C132 C 0.15997 1.00355 0.16117
 H133 H 0.17259 0.99288 0.31232
 H134 H 0.25562 0.91892 0.32775
 H135 H 0.24268 1.07588 0.34086
 H136 H 0.27114 1.08706 0.23263
 H137 H 0.28408 0.93004 0.21953
 H138 H 0.35443 1.01307 0.24831
 C139 C -0.29043 0.99390 0.23462
 C140 C -0.29137 0.95250 0.27983
 C141 C -0.29538 0.99770 0.32034
 C142 C -0.29506 1.03909 0.27594
 C143 C -0.22995 0.99669 0.23957
 C144 C -0.23402 1.04184 0.28013
 C145 C -0.23032 0.95532 0.28400
 C146 C -0.23490 1.00048 0.32516
 C147 C -0.33035 0.99839 0.36644
 C148 C -0.35764 0.99899 0.40549
 C149 C -0.19222 0.99645 0.19569
 C150 C -0.15998 0.99668 0.16068
 H151 H -0.31281 0.99117 0.19685
 H152 H -0.31539 0.91579 0.28024
 H153 H -0.32210 1.07353 0.27316
 H154 H -0.21002 1.07857 0.27978
 H155 H -0.20329 0.92087 0.28684
 H156 H -0.21243 1.00321 0.36288
 C157 C -0.23682 0.95641 -0.27891
 C158 C -0.29757 0.96324 -0.27539
 C159 C -0.29519 1.00223 -0.32186
 C160 C -0.23501 0.99537 -0.32602
 C161 C -0.22993 1.00324 -0.24068
 C162 C -0.22761 1.04220 -0.28719
 C163 C -0.29011 1.01011 -0.23640
 C164 C -0.28835 1.04909 -0.28368
 C165 C -0.33011 1.00154 -0.36816
 C166 C -0.35742 1.00093 -0.40730
 C167 C -0.19228 1.00346 -0.19658
 C168 C -0.16006 1.00323 -0.16139
 H169 H -0.21521 0.91831 -0.27647
 H170 H -0.32675 0.93078 -0.27109
 H171 H -0.21272 0.98929 -0.36336
 H172 H -0.19844 1.07466 -0.29156
 H173 H -0.31231 1.01619 -0.19901
 H174 H -0.30998 1.08718 -0.28618
 C175 C 0.28565 0.97193 -0.23856
 C176 C 0.27470 0.94675 -0.29353
 C177 C 0.29564 0.99716 -0.32002
 C178 C 0.30721 1.02238 -0.26584
 C179 C 0.22995 0.99613 -0.23947
 C180 C 0.25090 1.04653 -0.26598
 C181 C 0.21848 0.97095 -0.29369
 C182 C 0.23993 1.02132 -0.32081
 C183 C 0.33077 0.99791 -0.36599
 C184 C 0.35818 0.99859 -0.40493
 C185 C 0.19211 0.99592 -0.19571
 C186 C 0.15979 0.99619 -0.16075
 H187 H 0.30398 0.95161 -0.20421
 H188 H 0.28491 0.90574 -0.30538
 H189 H 0.34413 1.04352 -0.25495
 H190 H 0.24069 1.08755 -0.25416
 H191 H 0.18159 0.94979 -0.30467
 H192 H 0.22151 1.04165 -0.35512
 C193 C 0.23336 1.28003 -0.04149
 C194 C 0.23421 1.32519 -0.00008
 C195 C 0.29471 1.32067 0.00273
 C196 C 0.29441 1.27614 -0.03872
 C197 C 0.22947 1.23976 0.00378
 C198 C 0.28997 1.23511 0.00659
 C199 C 0.22981 1.28432 0.04519
 C200 C 0.29088 1.28044 0.04803
 C201 C 0.32965 1.36678 0.00199
 C202 C 0.35698 1.40576 0.00133
 C203 C 0.19186 1.19578 0.00400
 C204 C 0.15970 1.16068 0.00374
 H205 H 0.20929 1.27939 -0.07830
 H206 H 0.21165 1.36272 -0.00285
 H207 H 0.32139 1.27331 -0.07322
 H208 H 0.31244 1.19753 0.00936
 H209 H 0.20284 1.28720 0.07970
 H210 H 0.31496 1.28114 0.08483
 C211 C 0.25206 0.73352 -0.05307
 C212 C 0.30778 0.73376 -0.02736
 C213 C 0.29562 0.67991 -0.00217
 C214 C 0.24052 0.67900 -0.02787
 C215 C 0.22988 0.76042 -0.00326
 C216 C 0.21783 0.70653 0.02190
 C217 C 0.28496 0.76143 0.02248
 C218 C 0.27342 0.70682 0.04763
 C219 C 0.33080 0.63398 -0.00145
 C220 C 0.35826 0.59507 -0.00084
 C221 C 0.19201 0.80419 -0.00353
 C222 C 0.15972 0.83917 -0.00333
 H223 H 0.24284 0.74499 -0.09447
 H224 H 0.34520 0.74439 -0.04757
 H225 H 0.22262 0.64461 -0.04856
 H226 H 0.18044 0.69579 0.04214
 H227 H 0.30278 0.79586 0.04317
 H228 H 0.28261 0.69534 0.08904
 C229 C -0.28168 0.75852 -0.02925
 C230 C -0.26755 0.70163 -0.04712
 C231 C -0.29589 0.67999 0.00200
 C232 C -0.31065 0.73613 0.01991
 C233 C -0.23016 0.76051 0.00303
 C234 C -0.25849 0.73889 0.05218
 C235 C -0.21553 0.70432 -0.01485
 C236 C -0.24436 0.68206 0.03425
 C237 C -0.33107 0.63405 0.00132
 C238 C -0.35852 0.59513 0.00073
 C239 C -0.19230 0.80428 0.00328
 C240 C -0.16000 0.83925 0.00307
 H241 H -0.29658 0.79050 -0.05535
 H242 H -0.27167 0.68582 -0.08796
 H243 H -0.35021 0.74865 0.03417
 H244 H -0.25433 0.75471 0.09301
 H245 H -0.17601 0.69169 -0.02913
 H246 H -0.22940 0.65011 0.06035
 C247 C -0.28098 1.24213 0.02859
 C248 C -0.26641 1.29893 0.04643
 C249 C -0.29486 1.32074 -0.00268
 C250 C -0.31005 1.26468 -0.02057
 C251 C -0.22963 1.23982 -0.00372
 C252 C -0.25806 1.26159 -0.05286
 C253 C -0.21457 1.29592 0.01414
 C254 C -0.24350 1.31835 -0.03496
 C255 C -0.32981 1.36685 -0.00197
 C256 C -0.35716 1.40582 -0.00133
 C257 C -0.19202 1.19583 -0.00394
 C258 C -0.15986 1.16073 -0.00368
 H259 H -0.29595 1.21025 0.05470
 H260 H -0.27024 1.31479 0.08727
 H261 H -0.34974 1.25240 -0.03481
 H262 H -0.25419 1.24573 -0.09369
 H263 H -0.17491 1.30831 0.02840
 H264 H -0.22846 1.35019 -0.06108
 C265 C 0.05033 1.25657 0.26531
 C266 C 0.04035 1.31481 0.24937
 C267 C 0.00223 1.32053 0.29632
 C268 C 0.01218 1.26299 0.31290
 C269 C 0.00331 1.23979 0.23053
 C270 C -0.03484 1.24544 0.27747
 C271 C -0.00663 1.29737 0.21408
 C272 C -0.04475 1.30371 0.26152
 C273 C 0.00150 1.36658 0.33156
 C274 C 0.00087 1.40555 0.35908
 C275 C 0.00357 1.19590 0.19261
 C276 C 0.00335 1.16085 0.16024
 H277 H 0.08943 1.23669 0.26644
 H278 H 0.07125 1.34384 0.23818
 H279 H 0.01989 1.24942 0.35397
 H280 H -0.06574 1.21640 0.28860
 H281 H -0.01435 1.31107 0.17305
 H282 H -0.08386 1.32357 0.26034
 C283 C -0.04867 1.27974 -0.23546
 C284 C -0.00746 1.32494 -0.23462
 C285 C -0.00251 1.32043 -0.29509
 C286 C -0.04375 1.27587 -0.29651
 C287 C -0.00353 1.23950 -0.22989
 C288 C 0.00142 1.23486 -0.29035
 C289 C 0.03766 1.28411 -0.22854
 C290 C 0.04265 1.28022 -0.28954
 C291 C -0.00182 1.36659 -0.33000
 C292 C -0.00121 1.40561 -0.35728
 C293 C -0.00376 1.19552 -0.19226
 C294 C -0.00353 1.16044 -0.16006
 H295 H -0.08623 1.27907 -0.21282
 H296 H -0.01109 1.36247 -0.21206
 H297 H -0.07720 1.27301 -0.32488
 H298 H 0.00506 1.19729 -0.31282
 H299 H 0.07114 1.28704 -0.20019
 H300 H 0.08021 1.28093 -0.31219
 C301 C -0.02876 0.75703 -0.28174
 C302 C 0.02037 0.73388 -0.31021
 C303 C 0.00209 0.67806 -0.29495
 C304 C -0.04701 0.70045 -0.26711
 C305 C 0.00314 0.75943 -0.22995
 C306 C -0.01511 0.70356 -0.21482
 C307 C 0.05226 0.73706 -0.25778
 C308 C 0.03396 0.68055 -0.24315
 C309 C 0.00139 0.63170 -0.32979
 C310 C 0.00078 0.59256 -0.35708
 C311 C 0.00340 0.80365 -0.19240
 C312 C 0.00319 0.83888 -0.16023
 H313 H -0.05454 0.78900 -0.29718
 H314 H 0.03494 0.74579 -0.34986
 H315 H -0.08784 0.68491 -0.27132
 H316 H -0.02970 0.69154 -0.17521
 H317 H 0.09308 0.75262 -0.25352
 H318 H 0.05974 0.64860 -0.22763
 C319 C -0.00870 0.76528 0.29042
 C320 C -0.04877 0.71888 0.28972
 C321 C -0.00260 0.67985 0.29547
 C322 C 0.03748 0.72545 0.29677
 C323 C -0.00357 0.76055 0.22998
 C324 C 0.04257 0.72149 0.23577
 C325 C -0.04362 0.71492 0.22872
 C326 C 0.00252 0.67526 0.23502
 C327 C -0.00191 0.63383 0.33054
 C328 C -0.00129 0.59490 0.35795
 C329 C -0.00377 0.80442 0.19223
 C330 C -0.00352 0.83944 0.15997
 H331 H -0.01334 0.80282 0.31275
 H332 H -0.08632 0.71729 0.31233
 H333 H 0.07083 0.72926 0.32517
 H334 H 0.08013 0.72302 0.21317
 H335 H -0.07697 0.71106 0.20033
 H336 H 0.00716 0.63777 0.21259
   
