data_POSCAR
  _audit_creation_date              2014-09-24
  _audit_creation_method            'ToBaCCo'
  _symmetry_space_group_name_H-M    'P1'
  _symmetry_Int_Tables_number       1
  _symmetry_cell_setting            triclinic
  loop_
  _symmetry_equiv_pos_as_xyz
 x,y,z
_cell_length_a 12.2666
_cell_length_b 23.5658
_cell_length_c 12.2416
_cell_angle_alpha 90.360000
_cell_angle_beta 89.077700
_cell_angle_gamma 89.845200
loop_
  _atom_site_label
  _atom_site_type_symbol
  _atom_site_fract_x
  _atom_site_fract_y
  _atom_site_fract_z
N1 N 0.18969 0.06010 0.11521
 N2 N 0.24680 0.10745 0.11848
 N3 N 0.11347 -0.05927 0.19149
 N4 N 0.11539 -0.10693 0.24759
 N5 N 0.19038 -0.05962 0.11546
 N6 N 0.24640 -0.10753 0.11813
 N7 N 0.11270 0.06063 0.19098
 N8 N 0.11539 0.10850 0.24753
 C9 C 0.20021 0.13680 0.20208
 C10 C 0.19940 -0.13617 0.20168
 N11 N -0.19556 -0.05978 0.11592
 N12 N -0.25120 -0.10761 0.11900
 N13 N -0.12175 0.06072 0.19087
 N14 N -0.12274 0.10992 0.24331
 N15 N -0.19734 0.05956 0.11610
 N16 N -0.25387 0.11093 0.11709
 N17 N -0.12113 -0.05923 0.19190
 N18 N -0.12438 -0.10674 0.24842
 Mn19 Mn -0.00425 0.00072 0.19281
 C20 C -0.20726 -0.13582 0.20335
 C21 C -0.20454 0.13989 0.19799
 N22 N 0.19540 -0.05972 -0.11993
 N23 N 0.25322 -0.11063 -0.12096
 N24 N 0.11820 0.05856 -0.19558
 N25 N 0.12071 0.10632 -0.25142
 N26 N 0.19252 0.05922 -0.11943
 N27 N 0.24722 0.10733 -0.12162
 N28 N 0.11911 -0.06152 -0.19392
 N29 N 0.12022 -0.11099 -0.24529
 Mn30 Mn 0.19319 -0.00003 -0.00207
 C31 C 0.20322 -0.14025 -0.20042
 C32 C 0.20239 0.13582 -0.20509
 N33 N -0.19316 0.05880 -0.11931
 N34 N -0.24895 0.10676 -0.12181
 N35 N -0.11564 -0.06174 -0.19443
 N36 N -0.11642 -0.11037 -0.24890
 N37 N -0.19306 -0.06073 -0.11912
 N38 N -0.25033 -0.11171 -0.12132
 N39 N -0.11635 0.05835 -0.19541
 N40 N -0.11791 0.10611 -0.25121
 Mn41 Mn -0.19590 -0.00054 -0.00161
 Mn42 Mn 0.00139 -0.00164 -0.19640
 Cl43 Cl -0.00141 -0.00039 -0.00186
 C44 C -0.20182 0.13541 -0.20523
 C45 C -0.19983 -0.14022 -0.20395
 N46 N 0.69506 0.55996 0.61415
 N47 N 0.74921 0.60833 0.61455
 N48 N 0.62060 0.43986 0.69062
 N49 N 0.62357 0.39186 0.74552
 N50 N 0.69565 0.43990 0.61285
 N51 N 0.75164 0.39194 0.61319
 N52 N 0.62061 0.55976 0.69255
 N53 N 0.62273 0.60788 0.74836
 C54 C 0.70406 0.63733 0.69949
 C55 C 0.70649 0.36285 0.69716
 N56 N 0.30962 0.44038 0.62315
 N57 N 0.25421 0.39249 0.62590
 N58 N 0.38632 0.55985 0.69898
 N59 N 0.38456 0.60776 0.75543
 N60 N 0.30932 0.55981 0.62560
 N61 N 0.25300 0.60754 0.63073
 N62 N 0.38615 0.44018 0.69707
 N63 N 0.38441 0.39213 0.75198
 Mn64 Mn 0.50347 0.49990 0.69626
 C65 C 0.30093 0.36330 0.70742
 C66 C 0.30016 0.63654 0.71275
 N67 N 0.69230 0.44002 0.37800
 N68 N 0.74759 0.39192 0.37363
 N69 N 0.61575 0.55989 0.30584
 N70 N 0.61845 0.60754 0.24978
 N71 N 0.69255 0.55962 0.37939
 N72 N 0.74942 0.60703 0.37499
 N73 N 0.61575 0.44025 0.30411
 N74 N 0.61733 0.39233 0.24762
 Mn75 Mn 0.69534 0.49988 0.49610
 C76 C 0.70071 0.36309 0.29116
 C77 C 0.70354 0.63585 0.29246
 N78 N 0.30650 0.56063 0.39062
 N79 N 0.25051 0.60860 0.39002
 N80 N 0.38137 0.44053 0.31078
 N81 N 0.37864 0.39248 0.25485
 N82 N 0.30621 0.44075 0.38846
 N83 N 0.25035 0.39294 0.38697
 N84 N 0.38133 0.56046 0.31258
 N85 N 0.37806 0.60829 0.25713
 Mn86 Mn 0.30649 0.50041 0.50700
 Mn87 Mn 0.49849 0.50029 0.30689
 Cl88 Cl 0.50096 0.50012 0.50155
 C89 C 0.29536 0.63747 0.30557
 C90 C 0.29570 0.36370 0.30248
 C91 C 0.17573 0.26904 0.32780
 C92 C 0.14747 0.24602 0.21298
 C93 C 0.22766 0.19669 0.22937
 C94 C 0.25567 0.21889 0.34369
 C95 C 0.32102 0.23120 0.17740
 C96 C 0.24112 0.28135 0.16152
 C97 C 0.26907 0.30359 0.27586
 C98 C 0.34939 0.25424 0.29220
 H99 H 0.11594 0.28512 0.38972
 H100 H 0.06473 0.24113 0.17901
 H101 H 0.26141 0.19228 0.41788
 H102 H 0.38075 0.21511 0.11545
 H103 H 0.23528 0.30789 0.08724
 H104 H 0.43264 0.25859 0.32544
 C105 C 0.83993 0.72467 0.28215
 C106 C 0.82613 0.75386 0.17023
 C107 C 0.76823 0.80380 0.22827
 C108 C 0.78241 0.77544 0.33980
 C109 C 0.65688 0.77527 0.21377
 C110 C 0.71446 0.72451 0.15608
 C111 C 0.72861 0.69616 0.26761
 C112 C 0.67074 0.74609 0.32566
 H113 H 0.91487 0.70310 0.31033
 H114 H 0.89045 0.75786 0.10618
 H115 H 0.81028 0.79711 0.41506
 H116 H 0.58181 0.79676 0.18572
 H117 H 0.68672 0.70278 0.08085
 H118 H 0.60680 0.74191 0.39003
 C119 C 0.65149 0.25394 0.70680
 C120 C 0.74391 0.21751 0.65425
 C121 C 0.77241 0.19556 0.76818
 C122 C 0.68035 0.23119 0.82117
 C123 C 0.85395 0.24425 0.78407
 C124 C 0.82512 0.26703 0.66967
 C125 C 0.73303 0.30265 0.72269
 C126 C 0.76155 0.28067 0.83661
 H127 H 0.56820 0.25902 0.67409
 H128 H 0.73682 0.19060 0.57998
 H129 H 0.62079 0.21595 0.88357
 H130 H 0.93713 0.23903 0.81692
 H131 H 0.88467 0.28230 0.60730
 H132 H 0.76874 0.30746 0.91104
 C133 C 0.16524 0.71832 0.78870
 C134 C 0.22930 0.75935 0.86270
 C135 C 0.22726 0.80222 0.77610
 C136 C 0.16341 0.76613 0.70276
 C137 C 0.33218 0.78364 0.72879
 C138 C 0.33841 0.73629 0.81537
 C139 C 0.27401 0.69666 0.73922
 C140 C 0.27081 0.74328 0.65123
 H141 H 0.09626 0.69170 0.81721
 H142 H 0.21018 0.76933 0.94965
 H143 H 0.09111 0.78103 0.65752
 H144 H 0.39807 0.81342 0.70455
 H145 H 0.41108 0.72527 0.86385
 H146 H 0.28847 0.73733 0.56276
 C147 C 0.32622 0.26731 0.82274
 C148 C 0.21155 0.24438 0.85296
 C149 C 0.22843 0.19598 0.76948
 C150 C 0.34264 0.21811 0.73962
 C151 C 0.17697 0.23179 0.67920
 C152 C 0.16057 0.28101 0.76234
 C153 C 0.27476 0.30313 0.73247
 C154 C 0.29165 0.25474 0.64899
 H155 H 0.38765 0.28247 0.88174
 H156 H 0.17765 0.23898 0.93684
 H157 H 0.41680 0.19131 0.73037
 H158 H 0.11552 0.21664 0.62021
 H159 H 0.08653 0.30790 0.77158
 H160 H 0.32566 0.26021 0.56517
 C161 C 0.84530 0.72016 0.75071
 C162 C 0.82447 0.77145 0.67563
 C163 C 0.77609 0.80260 0.76894
 C164 C 0.79643 0.75616 0.84558
 C165 C 0.66518 0.78311 0.74579
 C166 C 0.71061 0.74776 0.64837
 C167 C 0.73040 0.69755 0.72609
 C168 C 0.68183 0.73217 0.82279
 H169 H 0.92093 0.69447 0.75243
 H170 H 0.88361 0.79019 0.61655
 H171 H 0.83336 0.76275 0.92661
 H172 H 0.59336 0.81183 0.74486
 H173 H 0.67428 0.74559 0.56634
 H174 H 0.62237 0.71728 0.88552
 C175 C 0.17859 0.73386 0.33433
 C176 C 0.26061 0.78349 0.34291
 C177 C 0.22632 0.80393 0.22964
 C178 C 0.14399 0.75512 0.22057
 C179 C 0.31546 0.76746 0.17381
 C180 C 0.35006 0.74623 0.28752
 C181 C 0.26775 0.69740 0.27846
 C182 C 0.23343 0.71786 0.16519
 H183 H 0.12227 0.71955 0.40044
 H184 H 0.27192 0.81133 0.41531
 H185 H 0.05934 0.75994 0.19229
 H186 H 0.37182 0.78174 0.10770
 H187 H 0.43476 0.74154 0.31568
 H188 H 0.22210 0.69012 0.09266
 C189 C 0.67308 0.26672 0.17397
 C190 C 0.78657 0.24252 0.14203
 C191 C 0.77182 0.19741 0.22326
 C192 C 0.66217 0.21708 0.25539
 C193 C 0.82508 0.23015 0.30989
 C194 C 0.84028 0.28017 0.22993
 C195 C 0.72667 0.30292 0.26381
 C196 C 0.71264 0.25404 0.34621
 H197 H 0.60982 0.28048 0.11585
 H198 H 0.81861 0.23455 0.05794
 H199 H 0.59100 0.18837 0.26485
 H200 H 0.88816 0.21260 0.36444
 H201 H 0.91518 0.30591 0.21856
 H202 H 0.68123 0.25789 0.43145
   
