data_POSCAR
  _audit_creation_date              2014-09-24
  _audit_creation_method            'ToBaCCo'
  _symmetry_space_group_name_H-M    'P1'
  _symmetry_Int_Tables_number       1
  _symmetry_cell_setting            triclinic
  loop_
  _symmetry_equiv_pos_as_xyz
 x,y,z
_cell_length_a 30.1166
_cell_length_b 30.2720
_cell_length_c 9.0138
_cell_angle_alpha 89.006000
_cell_angle_beta 89.228400
_cell_angle_gamma 90.436000
loop_
  _atom_site_label
  _atom_site_type_symbol
  _atom_site_fract_x
  _atom_site_fract_y
  _atom_site_fract_z
O1 O 0.21018 0.30029 0.08035
 O2 O 0.29671 0.21638 0.12707
 O3 O 0.21182 0.21454 0.07151
 O4 O 0.29564 0.30257 0.11920
 O5 O 0.28315 0.30055 0.36113
 O6 O 0.19967 0.21276 0.31360
 O7 O 0.28439 0.21466 0.36919
 O8 O 0.19753 0.29890 0.32219
 Cu9 Cu 0.25493 0.25859 0.07552
 Cu10 Cu 0.23983 0.25656 0.36555
 C11 C 0.18903 0.31390 0.19346
 C12 C 0.30541 0.20128 0.25569
 C13 C 0.19134 0.19870 0.18482
 C14 C 0.30374 0.31649 0.24808
 O15 O 0.71184 0.29663 0.29474
 O16 O 0.79555 0.21292 0.18013
 O17 O 0.70945 0.21386 0.21906
 O18 O 0.79245 0.29957 0.17637
 O19 O 0.81350 0.29096 0.40817
 O20 O 0.72634 0.20309 0.45462
 O21 O 0.81232 0.20382 0.41639
 O22 O 0.73261 0.28569 0.52642
 Cu23 Cu 0.75079 0.25680 0.19598
 Cu24 Cu 0.77320 0.24538 0.47282
 C25 C 0.70801 0.30463 0.43328
 C26 C 0.81795 0.19392 0.28218
 C27 C 0.70320 0.19371 0.34119
 C28 C 0.81789 0.30987 0.28077
 O29 O 0.71108 0.79795 0.60393
 O30 O 0.79610 0.70989 0.65192
 O31 O 0.71288 0.71376 0.55775
 O32 O 0.79751 0.79671 0.60388
 O33 O 0.78672 0.79709 0.84661
 O34 O 0.70004 0.70966 0.79945
 O35 O 0.78339 0.71179 0.89342
 O36 O 0.70032 0.79551 0.84677
 Cu37 Cu 0.75596 0.75421 0.58370
 Cu38 Cu 0.74128 0.75294 0.86798
 C39 C 0.69120 0.81147 0.72081
 C40 C 0.80418 0.69633 0.78403
 C41 C 0.69151 0.69764 0.66727
 C42 C 0.80668 0.81187 0.72938
 O43 O 0.28188 0.70956 0.66026
 O44 O 0.20153 0.79228 0.78517
 O45 O 0.28384 0.79461 0.69108
 O46 O 0.19906 0.70686 0.74196
 O47 O 0.21898 0.69774 0.97528
 O48 O 0.30512 0.78335 0.92216
 O49 O 0.22299 0.78247 1.01657
 O50 O 0.30200 0.69768 0.89227
 Cu51 Cu 0.23931 0.75196 0.69649
 Cu52 Cu 0.26443 0.73928 0.97480
 C53 C 0.30537 0.68928 0.75496
 C54 C 0.19872 0.80176 0.92190
 C55 C 0.30915 0.80363 0.79814
 C56 C 0.19469 0.68724 0.86720
 O57 O 1.04068 0.05402 -0.20314
 O58 O 0.95232 -0.03200 -0.18018
 O59 O 0.95407 0.05420 -0.18536
 O60 O 1.03686 -0.03104 -0.24855
 O61 O 1.04711 -0.03949 -0.00764
 O62 O 0.96293 0.04728 0.05666
 O63 O 0.96255 -0.03883 0.06118
 O64 O 1.04962 0.04574 0.03824
 Cu65 Cu 0.99508 0.01190 -0.22759
 Cu66 Cu 1.00662 0.00309 0.06041
 C67 C 1.06004 0.06462 -0.08398
 C68 C 0.94240 -0.04991 -0.05470
 C69 C 0.94408 0.06533 -0.05470
 C70 C 1.05599 -0.04999 -0.14111
 O71 O 0.54610 0.43633 0.63316
 O72 O 0.46284 0.50720 0.81824
 O73 O 0.45951 0.43040 0.70534
 O74 O 0.54713 0.50763 0.80524
 O75 O 0.53985 0.54293 0.59047
 O76 O 0.45170 0.46347 0.48690
 O77 O 0.45375 0.54173 0.60319
 O78 O 0.53633 0.47265 0.42202
 Cu79 Cu 0.50573 0.46602 0.75772
 Cu80 Cu 0.49469 0.50857 0.50463
 C81 C 0.55529 0.44253 0.49567
 C82 C 0.44421 0.53700 0.73997
 C83 C 0.44030 0.43358 0.58165
 C84 C 0.55782 0.53912 0.71762
 O85 O 0.03783 0.51915 -0.35032
 O86 O -0.04760 0.43584 -0.23880
 O87 O -0.04612 0.51509 -0.37439
 O88 O 0.04082 0.43735 -0.27465
 O89 O 0.03914 0.45889 -0.04166
 O90 O -0.04845 0.53872 -0.14387
 O91 O -0.04732 0.46052 -0.00996
 O92 O 0.03727 0.54214 -0.11919
 Cu93 Cu -0.00469 0.47346 -0.32923
 Cu94 Cu -0.00507 0.50231 -0.05606
 C95 C 0.05202 0.54505 -0.25137
 C96 C -0.06179 0.43396 -0.10498
 C97 C -0.06149 0.54095 -0.27811
 C98 C 0.05523 0.43481 -0.14355
 O99 O 0.45137 1.04732 0.64769
 O100 O 0.53754 0.96077 0.62534
 O101 O 0.53773 1.04521 0.67597
 O102 O 0.45107 0.96102 0.65054
 O103 O 0.45124 0.96621 0.40619
 O104 O 0.54072 1.05056 0.43154
 O105 O 0.53767 0.96640 0.38085
 O106 O 0.45406 1.05274 0.40345
 Cu107 Cu 0.49420 1.00287 0.67297
 Cu108 Cu 0.49589 1.00987 0.38238
 C109 C 0.43807 1.06479 0.52683
 C110 C 0.55230 0.94901 0.49874
 C111 C 0.55470 1.06182 0.55859
 C112 C 0.43626 0.94891 0.52677
 C113 C 1.15927 0.16556 0.17126
 C114 C 1.14632 0.14930 0.04115
 C115 C 1.11212 0.11422 0.03905
 C116 C 1.09474 0.09938 -0.08694
 H117 H 1.16042 0.16187 -0.06271
 H118 H 1.10046 0.10053 0.14466
 H119 H 1.14383 0.15276 0.27281
 H120 H 1.10553 0.11342 -0.19293
 C121 C 0.65628 0.66566 0.63411
 C122 C 0.63803 0.63744 0.73254
 C123 C 0.60441 0.60556 0.68200
 C124 C 0.59098 0.57150 0.76721
 H125 H 0.64876 0.63689 0.84686
 H126 H 0.59114 0.60956 0.57135
 H127 H 0.64622 0.66412 0.51915
 H128 H 0.60470 0.56713 0.87704
 C129 C -0.14878 0.34166 0.25361
 C130 C -0.14132 0.35836 0.11602
 C131 C -0.10611 0.39102 0.08063
 C132 C -0.09566 0.40074 -0.06148
 H133 H -0.16120 0.34713 0.02431
 H134 H -0.08876 0.40690 0.17006
 H135 H -0.12792 0.35182 0.34413
 H136 H -0.11218 0.38335 -0.14952
 C137 C 0.34364 0.83806 0.78197
 C138 C 0.35326 0.85920 0.65374
 C139 C 0.38804 0.89366 0.64964
 C140 C 0.40139 0.91439 0.52411
 H141 H 0.33573 0.85119 0.55334
 H142 H 0.40332 0.90217 0.75372
 H143 H 0.36207 0.84618 0.88053
 H144 H 0.38687 0.90576 0.41906
 C145 C -0.16210 0.66293 -0.18283
 C146 C -0.14300 0.63719 -0.28315
 C147 C -0.11079 0.60378 -0.23335
 C148 C -0.09419 0.57406 -0.32574
 H149 H -0.15169 0.64007 -0.39922
 H150 H -0.10071 0.60336 -0.11825
 H151 H -0.15371 0.65837 -0.06689
 H152 H -0.10436 0.57434 -0.44068
 C153 C 0.34040 1.16789 0.26983
 C154 C 0.35353 1.15088 0.39997
 C155 C 0.38872 1.11734 0.40284
 C156 C 0.40348 1.09909 0.52915
 H157 H 0.33842 1.16148 0.50309
 H158 H 0.40273 1.10712 0.29752
 H159 H 0.35613 1.15697 0.16806
 H160 H 0.38970 1.10906 0.63496
 C161 C 1.16717 -0.16442 -0.02778
 C162 C 1.14252 -0.14144 -0.12362
 C163 C 1.11118 -0.10723 -0.07494
 C164 C 1.08841 -0.08447 -0.17643
 H165 H 1.14562 -0.14776 -0.24137
 H166 H 1.10676 -0.10074 0.04219
 H167 H 1.16450 -0.15800 0.08992
 H168 H 1.09357 -0.09153 -0.29296
 C169 C 0.67468 0.33490 0.49360
 C170 C 0.64633 0.35857 0.41325
 C171 C 0.61339 0.38603 0.49092
 C172 C 0.58794 0.41476 0.41842
 H173 H 0.64734 0.35763 0.29310
 H174 H 0.61037 0.38306 0.61075
 H175 H 0.67317 0.33722 0.61358
 H176 H 0.59162 0.41864 0.29908
 C177 C 0.83885 -0.15488 -0.26736
 C178 C 0.85337 -0.13572 -0.14477
 C179 C 0.88755 -0.10067 -0.15902
 C180 C 0.90732 -0.08398 -0.04091
 H181 H 0.84075 -0.14592 -0.03616
 H182 H 0.89737 -0.08892 -0.26909
 H183 H 0.85304 -0.14413 -0.37349
 H184 H 0.89824 -0.09627 0.06914
 C185 C 0.33765 0.35131 0.26576
 C186 C 0.35145 0.36316 0.39967
 C187 C 0.38662 0.39661 0.41848
 C188 C 0.40432 0.40201 0.55204
 H189 H 0.33741 0.34700 0.49806
 H190 H 0.39868 0.41587 0.32354
 H191 H 0.35241 0.36654 0.16697
 H192 H 0.39277 0.38133 0.64441
 C193 C 0.16319 0.65374 -0.11061
 C194 C 0.13862 0.63712 -0.21944
 C195 C 0.10570 0.60218 -0.18471
 C196 C 0.08567 0.57906 -0.29024
 H197 H 0.14290 0.64880 -0.33319
 H198 H 0.09794 0.59502 -0.06887
 H199 H 0.15928 0.64004 0.00092
 H200 H 0.09425 0.58500 -0.40607
 C201 C 0.66860 1.15932 0.34454
 C202 C 0.65038 1.14181 0.46764
 C203 C 0.61363 1.10977 0.45400
 C204 C 0.59130 1.09397 0.57219
 H205 H 0.66140 1.15195 0.57594
 H206 H 0.60438 1.09917 0.34421
 H207 H 0.65588 1.14951 0.23784
 H208 H 0.60054 1.10428 0.68222
 C209 C 0.15406 0.34730 0.17589
 C210 C 0.14140 0.36143 0.04187
 C211 C 0.10572 0.39395 0.02274
 C212 C 0.09114 0.40348 -0.11326
 H213 H 0.15712 0.34819 -0.05660
 H214 H 0.09104 0.40944 0.11902
 H215 H 0.13794 0.35987 0.27457
 H216 H 0.10564 0.38687 -0.20773
 C217 C 0.65713 0.84583 0.71663
 C218 C 0.64064 0.86351 0.59304
 C219 C 0.60560 0.89700 0.60555
 C220 C 0.58696 0.91520 0.48633
 H221 H 0.65242 0.85316 0.48502
 H222 H 0.59482 0.90699 0.71521
 H223 H 0.64428 0.85652 0.82308
 H224 H 0.59773 0.90546 0.37649
 C225 C 0.85112 0.15992 0.25058
 C226 C 0.86263 0.14705 0.11499
 C227 C 0.89685 0.11286 0.09813
 C228 C 0.91009 0.09951 -0.03522
 H229 H 0.84724 0.16167 0.01801
 H230 H 0.91149 0.09840 0.19677
 H231 H 0.86727 0.14493 0.34562
 H232 H 0.89542 0.11397 -0.13378
 C233 C 0.33679 0.65609 0.70132
 C234 C 0.35902 0.62870 0.79098
 C235 C 0.39040 0.59706 0.72648
 C236 C 0.41166 0.56685 0.80855
 H237 H 0.35422 0.62969 0.91027
 H238 H 0.39642 0.59887 0.60761
 H239 H 0.34140 0.65387 0.58213
 H240 H 0.40550 0.56438 0.92714
   
