data_POSCAR
  _audit_creation_date              2014-09-24
  _audit_creation_method            'ToBaCCo'
  _symmetry_space_group_name_H-M    'P1'
  _symmetry_Int_Tables_number       1
  _symmetry_cell_setting            triclinic
  loop_
  _symmetry_equiv_pos_as_xyz
 x,y,z
_cell_length_a 32.9825
_cell_length_b 33.2642
_cell_length_c 33.0244
_cell_angle_alpha 90.009500
_cell_angle_beta 89.999300
_cell_angle_gamma 90.342700
loop_
  _atom_site_label
  _atom_site_type_symbol
  _atom_site_fract_x
  _atom_site_fract_y
  _atom_site_fract_z
N1 N 0.57656 0.68908 0.60958
 N2 N 0.56130 0.67254 0.64243
 C3 C 0.52875 0.69377 0.65435
 C4 C 0.52346 0.72503 0.62745
 C5 C 0.55417 0.72124 0.59941
 H6 H 0.51020 0.68706 0.68050
 H7 H 0.55984 0.74060 0.57369
 Cu8 Cu 0.58540 0.62478 0.66611
 Cu9 Cu 0.62456 0.66801 0.58280
 Cu10 Cu 0.66830 0.58308 0.62490
 N11 N 0.60997 0.57704 0.68932
 N12 N 0.64267 0.56110 0.67331
 C13 C 0.65345 0.52871 0.69516
 C14 C 0.62589 0.52412 0.72628
 C15 C 0.59869 0.55518 0.72180
 H16 H 0.67914 0.50967 0.68875
 H17 H 0.57272 0.56132 0.74075
 N18 N 0.68969 0.60975 0.57597
 N19 N 0.67320 0.64226 0.56015
 C20 C 0.69485 0.65349 0.52742
 C21 C 0.72620 0.62672 0.52246
 C22 C 0.72212 0.59937 0.55356
 H23 H 0.68834 0.67916 0.50849
 H24 H 0.74157 0.57397 0.55939
 H25 H 0.61673 0.60904 0.60119
 H26 H 0.64965 0.64164 0.63358
 N27 N 0.92277 0.30977 0.10981
 N28 N 0.93808 0.32619 0.14270
 C29 C 0.97016 0.30446 0.15498
 C30 C 0.97509 0.27299 0.12820
 C31 C 0.94467 0.27720 0.09988
 H32 H 0.98871 0.31113 0.18114
 H33 H 0.93895 0.25797 0.07407
 Cu34 Cu 0.91491 0.37469 0.16580
 Cu35 Cu 0.87551 0.33167 0.08245
 Cu36 Cu 0.83255 0.41715 0.12416
 N37 N 0.89034 0.42239 0.18911
 N38 N 0.85787 0.43863 0.17294
 C39 C 0.84716 0.47098 0.19491
 C40 C 0.87447 0.47522 0.22626
 C41 C 0.90147 0.44402 0.22181
 H42 H 0.82170 0.49027 0.18840
 H43 H 0.92725 0.43770 0.24093
 N44 N 0.81141 0.39092 0.07488
 N45 N 0.82763 0.35821 0.05920
 C46 C 0.80621 0.34730 0.02621
 C47 C 0.77528 0.37447 0.02094
 C48 C 0.77936 0.40174 0.05213
 H49 H 0.81253 0.32151 0.00738
 H50 H 0.76013 0.42733 0.05784
 H51 H 0.88391 0.39061 0.10073
 H52 H 0.85058 0.35844 0.13314
 N53 N 0.42355 0.18901 -0.10908
 N54 N 0.43951 0.17134 -0.14088
 C55 C 0.47221 0.19258 -0.15308
 C56 C 0.47690 0.22498 -0.12739
 C57 C 0.44568 0.22187 -0.09980
 H58 H 0.49130 0.18506 -0.17856
 H59 H 0.43949 0.24218 -0.07501
 Cu60 Cu 0.41621 0.12215 -0.16300
 Cu61 Cu 0.37500 0.16857 -0.08247
 Cu62 Cu 0.33137 0.08231 -0.12262
 N63 N 0.39088 0.07415 -0.18555
 N64 N 0.35752 0.05896 -0.16981
 C65 C 0.34610 0.02648 -0.19139
 C66 C 0.37385 0.02107 -0.22212
 C67 C 0.40189 0.05168 -0.21764
 H68 H 0.31961 0.00818 -0.18524
 H69 H 0.42805 0.05722 -0.23661
 N70 N 0.30938 0.11028 -0.07495
 N71 N 0.32581 0.14332 -0.05983
 C72 C 0.30377 0.15530 -0.02771
 C73 C 0.27222 0.12845 -0.02247
 C74 C 0.27658 0.10029 -0.05273
 H75 H 0.31024 0.18144 -0.00931
 H76 H 0.25719 0.07451 -0.05803
 H77 H 0.38267 0.10904 -0.09844
 H78 H 0.35130 0.14047 -0.13313
 N79 N 0.07728 0.80992 0.38960
 N80 N 0.06188 0.82643 0.35688
 C81 C 0.02907 0.80508 0.34516
 C82 C 0.02379 0.77373 0.37208
 C83 C 0.05474 0.77764 0.39993
 H84 H 0.01038 0.81182 0.31917
 H85 H 0.06049 0.75830 0.42559
 Cu86 Cu 0.08603 0.87436 0.33297
 Cu87 Cu 0.12564 0.83114 0.41606
 Cu88 Cu 0.16868 0.91713 0.37465
 N89 N 0.10988 0.92326 0.31079
 N90 N 0.14249 0.93954 0.32702
 C91 C 0.15304 0.97246 0.30571
 C92 C 0.12549 0.97705 0.27467
 C93 C 0.09846 0.94550 0.27869
 H94 H 0.17875 0.99167 0.31232
 H95 H 0.07266 0.93922 0.25946
 N96 N 0.19077 0.89009 0.42278
 N97 N 0.17461 0.85715 0.43841
 C98 C 0.19661 0.84603 0.47088
 C99 C 0.22779 0.87336 0.47584
 C100 C 0.22331 0.90087 0.44500
 H101 H 0.19035 0.82022 0.48982
 H102 H 0.24234 0.92682 0.43930
 H103 H 0.11717 0.88998 0.39809
 H104 H 0.15036 0.85825 0.36545
 C105 C 0.09319 0.15523 0.12760
 N106 N 0.12201 0.15614 0.09828
 C107 C 0.15139 0.12777 0.09746
 N108 N 0.15190 0.09846 0.12601
 C109 C 0.12311 0.09745 0.15535
 N110 N 0.09376 0.12586 0.15612
 C111 C 0.40345 0.84426 0.62853
 N112 N 0.40306 0.87307 0.65765
 C113 C 0.37406 0.90183 0.65732
 N114 N 0.34549 0.90178 0.62778
 C115 C 0.34580 0.87306 0.59862
 N116 N 0.37480 0.84430 0.59901
 C117 C 0.90494 0.65527 0.37236
 N118 N 0.90473 0.62591 0.34385
 C119 C 0.87560 0.59693 0.34438
 N120 N 0.84659 0.59736 0.37352
 C121 C 0.84673 0.62670 0.40210
 N122 N 0.87594 0.65561 0.40149
 C123 C 0.59704 0.34546 -0.12937
 N124 N 0.62604 0.34542 -0.10025
 C125 C 0.65510 0.37447 -0.09976
 N126 N 0.65505 0.40371 -0.12843
 C127 C 0.62600 0.40387 -0.15756
 N128 N 0.59704 0.37472 -0.15798
 C129 C 0.02864 0.19138 0.16151
 C130 C 0.03720 0.23723 0.16239
 C131 C 0.00533 0.24295 0.12891
 C132 C -0.00368 0.19757 0.12808
 C133 C 0.03781 0.23830 0.09591
 C134 C 0.07011 0.23212 0.12936
 C135 C 0.06117 0.18671 0.12849
 C136 C 0.02929 0.19248 0.09507
 H137 H 0.02510 0.17179 0.18851
 H138 H 0.04044 0.25572 0.19019
 H139 H -0.03436 0.18366 0.12755
 H140 H 0.04130 0.25792 0.06893
 H141 H 0.10080 0.24598 0.12985
 H142 H 0.02637 0.17373 0.06740
 C143 C 0.46781 0.80748 0.66181
 C144 C 0.45938 0.76163 0.66179
 C145 C 0.49141 0.75655 0.62834
 C146 C 0.50021 0.80198 0.62837
 C147 C 0.45898 0.76173 0.59535
 C148 C 0.42654 0.76723 0.62879
 C149 C 0.43536 0.81266 0.62879
 C150 C 0.46736 0.80757 0.59537
 H151 H 0.47124 0.82657 0.68919
 H152 H 0.45622 0.74255 0.68919
 H153 H 0.53086 0.81595 0.62818
 H154 H 0.45567 0.74257 0.56802
 H155 H 0.39589 0.75326 0.62895
 H156 H 0.47031 0.82681 0.56806
 C157 C 0.96899 0.69290 0.40512
 C158 C 1.00189 0.69831 0.37205
 C159 C 0.99322 0.74366 0.37147
 C160 C 0.96079 0.73869 0.40455
 C161 C 0.96119 0.73793 0.33806
 C162 C 0.96945 0.69213 0.33868
 C163 C 0.93697 0.68713 0.37176
 C164 C 0.92834 0.73249 0.37116
 H165 H 0.97185 0.67404 0.43268
 H166 H 1.03247 0.68454 0.37241
 H167 H 0.95753 0.75817 0.43164
 H168 H 0.95799 0.75653 0.31036
 H169 H 0.97279 0.67270 0.31157
 H170 H 0.89774 0.74620 0.37083
 C171 C 0.53276 0.30764 -0.16269
 C172 C 0.54113 0.26186 -0.16214
 C173 C 0.50899 0.25682 -0.12875
 C174 C 0.50024 0.30216 -0.12931
 C175 C 0.54131 0.26272 -0.09571
 C176 C 0.57386 0.26818 -0.12909
 C177 C 0.56510 0.31352 -0.12962
 C178 C 0.53298 0.30845 -0.09626
 H179 H 0.52948 0.32640 -0.19028
 H180 H 0.54433 0.24250 -0.18931
 H181 H 0.46960 0.31580 -0.12938
 H182 H 0.54449 0.24389 -0.06816
 H183 H 0.60449 0.25454 -0.12899
 H184 H 0.52995 0.32796 -0.06916
 C185 C 0.12452 0.07359 0.23273
 C186 C 0.09156 0.04072 0.23857
 C187 C 0.12512 0.00915 0.24307
 C188 C 0.15808 0.04162 0.23763
 C189 C 0.12454 0.00096 0.19726
 C190 C 0.09097 0.03297 0.19234
 C191 C 0.12393 0.06539 0.18692
 C192 C 0.15748 0.03379 0.19143
 H193 H 0.12448 0.10381 0.24699
 H194 H 0.06446 0.04323 0.25832
 H195 H 0.18578 0.04509 0.25642
 H196 H 0.12454 -0.02927 0.18301
 H197 H 0.06336 0.02975 0.17336
 H198 H 0.18465 0.03113 0.17178
 C199 C 0.59258 0.44160 -0.22115
 C200 C 0.59211 0.48724 -0.21191
 C201 C 0.62550 0.49356 -0.24385
 C202 C 0.62594 0.44835 -0.25348
 C203 C 0.65869 0.48821 -0.21165
 C204 C 0.62530 0.48142 -0.17929
 C205 C 0.62575 0.43619 -0.18888
 C206 C 0.65911 0.44254 -0.22081
 H207 H 0.56536 0.42216 -0.22486
 H208 H 0.56441 0.50566 -0.20821
 H209 H 0.62619 0.43505 -0.28432
 H210 H 0.68587 0.50772 -0.20804
 H211 H 0.62507 0.49467 -0.14844
 H212 H 0.68665 0.42380 -0.22413
 C213 C 0.34088 0.96583 0.69396
 C214 C 0.33981 0.95757 0.74009
 C215 C 0.37351 0.98919 0.74604
 C216 C 0.37457 0.99781 0.70032
 C217 C 0.40631 0.95688 0.74141
 C218 C 0.37261 0.92485 0.73504
 C219 C 0.37369 0.93348 0.68933
 C220 C 0.40737 0.96507 0.69527
 H221 H 0.31392 0.96932 0.67417
 H222 H 0.31192 0.95460 0.75869
 H223 H 0.37538 1.02817 0.68638
 H224 H 0.43322 0.95353 0.76129
 H225 H 0.37183 0.89449 0.74898
 H226 H 0.43516 0.96781 0.67649
 C227 C 0.84207 0.55876 0.28109
 C228 C 0.87516 0.55263 0.24841
 C229 C 0.87504 0.50737 0.25785
 C230 C 0.84195 0.51308 0.29010
 C231 C 0.90847 0.51324 0.28983
 C232 C 0.90859 0.55890 0.28073
 C233 C 0.87550 0.56462 0.31302
 C234 C 0.87539 0.51937 0.32248
 H235 H 0.81477 0.57784 0.27782
 H236 H 0.87506 0.56598 0.21761
 H237 H 0.81454 0.49387 0.29362
 H238 H 0.93588 0.49436 0.29333
 H239 H 0.93606 0.57801 0.27707
 H240 H 0.87547 0.50602 0.35328
 C241 C 0.18895 0.09557 0.03355
 C242 C 0.19440 0.12833 0.00066
 C243 C 0.24017 0.12912 0.00945
 C244 C 0.23512 0.09637 0.04192
 C245 C 0.23449 0.16232 0.04134
 C246 C 0.18828 0.16152 0.03294
 C247 C 0.18326 0.12874 0.06542
 C248 C 0.22902 0.12955 0.07421
 H249 H 0.16987 0.06811 0.03068
 H250 H 0.18051 0.12782 -0.02996
 H251 H 0.25473 0.06958 0.04530
 H252 H 0.25342 0.18985 0.04440
 H253 H 0.16872 0.18834 0.02947
 H254 H 0.24293 0.13002 0.10482
 C255 C 0.76899 0.62706 0.42550
 C256 C 0.76316 0.59414 0.45820
 C257 C 0.75809 0.62718 0.49033
 C258 C 0.76350 0.66010 0.45804
 C259 C 0.80390 0.62724 0.49894
 C260 C 0.80938 0.59420 0.46638
 C261 C 0.81479 0.62711 0.43412
 C262 C 0.80972 0.66016 0.46628
 H263 H 0.75496 0.62696 0.39495
 H264 H 0.74366 0.56699 0.45521
 H265 H 0.74446 0.68730 0.45471
 H266 H 0.81792 0.62731 0.52949
 H267 H 0.82860 0.56709 0.46948
 H268 H 0.82913 0.68736 0.46940
 C269 C 0.73284 0.37424 -0.07621
 C270 C 0.73863 0.40721 -0.04353
 C271 C 0.74355 0.37421 -0.01134
 C272 C 0.73818 0.34125 -0.04361
 C273 C 0.69772 0.37424 -0.00288
 C274 C 0.69238 0.40724 -0.03550
 C275 C 0.68702 0.37428 -0.06773
 C276 C 0.69195 0.34128 -0.03550
 H277 H 0.74696 0.37427 -0.10673
 H278 H 0.75819 0.43432 -0.04649
 H279 H 0.75717 0.31400 -0.04687
 H280 H 0.68360 0.37424 0.02764
 H281 H 0.67319 0.43438 -0.03250
 H282 H 0.67249 0.31411 -0.03239
 C283 C 0.28214 0.90597 0.56062
 C284 C 0.29134 0.90668 0.51466
 C285 C 0.25932 0.87347 0.50831
 C286 C 0.24977 0.87276 0.55387
 C287 C 0.29157 0.84073 0.51374
 C288 C 0.32400 0.87395 0.52051
 C289 C 0.31444 0.87324 0.56606
 C290 C 0.28246 0.84003 0.55973
 H291 H 0.27844 0.93286 0.58016
 H292 H 0.29492 0.93421 0.49597
 H293 H 0.21889 0.87226 0.56725
 H294 H 0.29512 0.81391 0.49409
 H295 H 0.35487 0.87443 0.50713
 H296 H 0.27914 0.81261 0.57864
   
