data_POSCAR
  _audit_creation_date              2014-09-24
  _audit_creation_method            'ToBaCCo'
  _symmetry_space_group_name_H-M    'P1'
  _symmetry_Int_Tables_number       1
  _symmetry_cell_setting            triclinic
  loop_
  _symmetry_equiv_pos_as_xyz
 x,y,z
_cell_length_a 48.1324
_cell_length_b 26.7141
_cell_length_c 19.8717
_cell_angle_alpha 89.886500
_cell_angle_beta 89.897700
_cell_angle_gamma 90.198600
loop_
  _atom_site_label
  _atom_site_type_symbol
  _atom_site_fract_x
  _atom_site_fract_y
  _atom_site_fract_z
C1 C 0.69692 0.29891 0.56435
 C2 C 0.68485 0.31070 0.50213
 C3 C 0.69717 0.29694 0.44143
 C4 C 0.72311 0.27257 0.44151
 C5 C 0.73634 0.26157 0.50352
 C6 C 0.72319 0.27456 0.56525
 C7 C 0.73786 0.26733 0.62555
 C8 C 0.76429 0.24660 0.62574
 C9 C 0.77731 0.23149 0.56572
 C10 C 0.76333 0.23971 0.50362
 C11 C 0.73668 0.26125 0.38099
 C12 C 0.76312 0.24064 0.38094
 C13 C 0.77683 0.22889 0.44145
 C14 C 0.80460 0.21104 0.44168
 C15 C 0.81815 0.20500 0.50351
 C16 C 0.80499 0.21315 0.56549
 H17 H 0.72970 0.27990 0.67330
 H18 H 0.77486 0.24489 0.67360
 H19 H 0.72739 0.27003 0.33283
 H20 H 0.77304 0.23610 0.33256
 H21 H 0.66469 0.32878 0.50065
 H22 H 0.83890 0.18921 0.50347
 C23 C 0.19725 0.79605 0.56395
 C24 C 0.18381 0.80607 0.50316
 C25 C 0.19614 0.79460 0.44146
 C26 C 0.22278 0.77261 0.43993
 C27 C 0.23682 0.76254 0.50126
 C28 C 0.22405 0.77458 0.56351
 C29 C 0.23865 0.76613 0.62348
 C30 C 0.26528 0.74594 0.62253
 C31 C 0.27809 0.73167 0.56170
 C32 C 0.26381 0.74113 0.50023
 C33 C 0.23588 0.76124 0.37870
 C34 C 0.26240 0.74080 0.37753
 C35 C 0.27672 0.73052 0.43756
 C36 C 0.30399 0.71143 0.43652
 C37 C 0.31797 0.70328 0.49695
 C38 C 0.30553 0.71182 0.55988
 H39 H 0.22983 0.77617 0.67174
 H40 H 0.27593 0.74307 0.67018
 H41 H 0.22588 0.76872 0.33100
 H42 H 0.27175 0.73384 0.32890
 H43 H 0.16323 0.82253 0.50389
 H44 H 0.33859 0.68705 0.49452
 C45 C 0.20353 0.18470 -0.43851
 C46 C 0.19312 0.16707 -0.49969
 C47 C 0.20297 0.18520 -0.56182
 C48 C 0.22579 0.21936 -0.56222
 C49 C 0.23742 0.23575 -0.50033
 C50 C 0.22614 0.21855 -0.43841
 C51 C 0.23792 0.23517 -0.37775
 C52 C 0.25996 0.26886 -0.37764
 C53 C 0.27152 0.28645 -0.43818
 C54 C 0.26031 0.26969 -0.50021
 C55 C 0.23823 0.23568 -0.62260
 C56 C 0.26023 0.26956 -0.62251
 C57 C 0.27201 0.28659 -0.56197
 C58 C 0.29427 0.32183 -0.56124
 C59 C 0.30393 0.33967 -0.49909
 C60 C 0.29387 0.32083 -0.43812
 H61 H 0.23030 0.22208 -0.32956
 H62 H 0.26770 0.28134 -0.32938
 H63 H 0.23130 0.22213 -0.67097
 H64 H 0.26768 0.28259 -0.67083
 H65 H 0.17512 0.14251 -0.49846
 H66 H 0.32162 0.36496 -0.49786
 C67 C -0.29574 0.68130 -0.43740
 C68 C -0.30534 0.66289 -0.49935
 C69 C -0.29628 0.68298 -0.56109
 C70 C -0.27427 0.71869 -0.56106
 C71 C -0.26270 0.73489 -0.49907
 C72 C -0.27347 0.71635 -0.43721
 C73 C -0.26050 0.73090 -0.37683
 C74 C -0.23888 0.76543 -0.37659
 C75 C -0.22855 0.78554 -0.43691
 C76 C -0.24013 0.76958 -0.49887
 C77 C -0.26239 0.73644 -0.62139
 C78 C -0.24083 0.77118 -0.62112
 C79 C -0.22890 0.78767 -0.56055
 C80 C -0.20685 0.82333 -0.55970
 C81 C -0.19724 0.84108 -0.49747
 C82 C -0.20683 0.82116 -0.43675
 H83 H -0.26662 0.71509 -0.32888
 H84 H -0.23030 0.77619 -0.32841
 H85 H -0.26934 0.72319 -0.66990
 H86 H -0.23376 0.78516 -0.66931
 H87 H -0.32293 0.63739 -0.49936
 H88 H -0.17986 0.86707 -0.49600
 O89 O -0.04119 0.91412 0.12537
 O90 O -0.07037 0.96311 0.06246
 C91 C -0.06569 0.93029 0.10920
 O92 O 0.04137 1.08618 0.11974
 O93 O 0.07082 1.03544 0.05991
 C94 C 0.06600 1.07053 0.10352
 O95 O -0.03660 1.08694 0.12659
 O96 O -0.06859 1.04568 0.06146
 C97 C -0.06200 1.07637 0.10942
 O98 O 0.03621 0.90325 0.11854
 O99 O 0.06842 0.94896 0.05913
 C100 C 0.06164 0.91464 0.10257
 Zr101 Zr -0.00181 0.93469 0.08637
 O102 O 0.00115 0.93246 0.19260
 O103 O -0.00727 0.85604 0.08313
 Zr104 Zr 0.00178 1.06124 0.08782
 O105 O 0.00497 1.06100 0.19407
 O106 O 0.00065 1.14046 0.08767
 O107 O -0.02468 1.00006 0.10055
 O108 O 0.02403 0.99579 0.09964
 O109 O 0.03623 0.90469 -0.11566
 O110 O 0.06831 0.94976 -0.05545
 C111 C 0.06163 0.91598 -0.09948
 O112 O -0.03592 1.08902 -0.12084
 O113 O -0.06795 1.04712 -0.05640
 C114 C -0.06131 1.07835 -0.10385
 O115 O 0.04155 1.08707 -0.11375
 O116 O 0.07093 1.03590 -0.05468
 C117 C 0.06616 1.07133 -0.09797
 O118 O -0.04160 0.91667 -0.12097
 O119 O -0.07092 0.96453 -0.05660
 C120 C -0.06618 0.93236 -0.10405
 Zr121 Zr -0.00184 0.93590 -0.08283
 O122 O 0.00122 0.93548 -0.18912
 O123 O -0.00739 0.85724 -0.08212
 Zr124 Zr 0.00201 1.06239 -0.08131
 O125 O 0.00529 1.06470 -0.18750
 O126 O 0.00101 1.14161 -0.07770
 Zr127 Zr -0.04139 1.00235 0.00257
 Zr128 Zr 0.04155 0.99485 0.00250
 O129 O 0.02413 0.99707 -0.09459
 O130 O -0.02456 1.00149 -0.09547
 O131 O 0.02285 0.92331 0.00161
 O132 O -0.02212 1.07314 0.00331
 O133 O -0.02642 0.92846 0.00179
 O134 O 0.02713 1.06934 0.00333
 H135 H 0.03641 0.99452 0.13938
 H136 H -0.03398 1.10340 0.00355
 H137 H 0.03647 0.99629 -0.13453
 H138 H -0.04000 0.90049 0.00159
 H139 H 0.01674 1.15249 0.06107
 H140 H 0.01795 1.15308 -0.05413
 H141 H -0.00928 1.04238 -0.20572
 H142 H -0.01346 0.95771 -0.20678
 H143 H 0.00829 0.84256 -0.05682
 H144 H 0.00876 0.84177 0.05865
 H145 H -0.01276 0.95606 0.21067
 H146 H -0.01075 1.04102 0.21184
 O147 O 0.45926 0.41463 0.12391
 O148 O 0.43006 0.46253 0.05946
 C149 C 0.43473 0.43019 0.10683
 O150 O 0.54141 0.58723 0.11768
 O151 O 0.57125 0.53619 0.05964
 C152 C 0.56616 0.57151 0.10267
 O153 O 0.46371 0.58819 0.12241
 O154 O 0.43208 0.54579 0.05768
 C155 C 0.43842 0.57721 0.10498
 O156 O 0.53672 0.40455 0.11971
 O157 O 0.56898 0.44983 0.05990
 C158 C 0.56216 0.41590 0.10381
 Zr159 Zr 0.49879 0.43558 0.08612
 O160 O 0.50131 0.43573 0.19248
 O161 O 0.49364 0.35682 0.08576
 Zr162 Zr 0.50203 0.56203 0.08432
 O163 O 0.50466 0.56410 0.19060
 O164 O 0.50075 0.64124 0.08063
 O165 O 0.47562 0.50079 0.09796
 O166 O 0.52440 0.49703 0.09842
 O167 O 0.53802 0.40301 -0.11380
 O168 O 0.56959 0.44967 -0.05428
 C169 C 0.56328 0.41498 -0.09731
 O170 O 0.46489 0.58667 -0.12536
 O171 O 0.43268 0.54503 -0.06103
 C172 C 0.43944 0.57583 -0.10890
 O173 O 0.54247 0.58630 -0.11604
 O174 O 0.57180 0.53625 -0.05497
 C175 C 0.56708 0.57111 -0.09912
 O176 O 0.46062 0.41362 -0.12254
 O177 O 0.43063 0.46168 -0.06054
 C178 C 0.43586 0.42895 -0.10697
 Zr179 Zr 0.49972 0.43449 -0.08296
 O180 O 0.50341 0.43283 -0.18911
 O181 O 0.49444 0.35577 -0.08024
 Zr182 Zr 0.50284 0.56091 -0.08466
 O183 O 0.50666 0.56094 -0.19080
 O184 O 0.50145 0.64014 -0.08419
 Zr185 Zr 0.45919 0.50147 -0.00040
 Zr186 Zr 0.54238 0.49513 0.00181
 O187 O 0.52543 0.49584 -0.09574
 O188 O 0.47662 0.49947 -0.09786
 O189 O 0.52395 0.42337 0.00239
 O190 O 0.47831 0.57243 -0.00093
 O191 O 0.47465 0.42786 0.00101
 O192 O 0.52765 0.56940 0.00037
 H193 H 0.53656 0.49626 0.13858
 H194 H 0.46640 0.60260 -0.00166
 H195 H 0.53804 0.49472 -0.13516
 H196 H 0.46126 0.39959 0.00103
 H197 H 0.51773 0.65295 0.05723
 H198 H 0.51758 0.65226 -0.05805
 H199 H 0.49144 0.54001 -0.20888
 H200 H 0.48900 0.45521 -0.20769
 H201 H 0.51013 0.34157 -0.05449
 H202 H 0.50939 0.34236 0.06045
 H203 H 0.48630 0.45750 0.20957
 H204 H 0.48977 0.54223 0.20852
 C205 C 0.34558 0.36500 0.27740
 C206 C 0.33355 0.40182 0.31807
 C207 C 0.31583 0.38763 0.37032
 C208 C 0.30903 0.33694 0.38060
 C209 C 0.32073 0.30142 0.33674
 N210 N 0.33881 0.31605 0.28777
 C211 C 0.36719 0.37869 0.22777
 N212 N 0.36663 0.42450 0.19762
 C213 C 0.38729 0.44056 0.15606
 C214 C 0.41072 0.41057 0.14496
 C215 C 0.41152 0.36292 0.17464
 C216 C 0.38960 0.34657 0.21529
 H217 H 0.30750 0.41630 0.40309
 H218 H 0.31701 0.26180 0.34421
 H219 H 0.38596 0.47757 0.13420
 H220 H 0.42922 0.33865 0.16708
 H221 H 0.33884 0.44099 0.31164
 H222 H 0.39075 0.31014 0.23911
 C223 C -0.15518 0.86623 0.27955
 C224 C -0.16713 0.90315 0.32021
 C225 C -0.18501 0.88910 0.37221
 C226 C -0.19204 0.83848 0.38222
 C227 C -0.18046 0.80290 0.33825
 N228 N -0.16222 0.81737 0.28957
 C229 C -0.13342 0.87969 0.23025
 N230 N -0.13375 0.92554 0.20022
 C231 C -0.11299 0.94135 0.15881
 C232 C -0.08970 0.91102 0.14768
 C233 C -0.08910 0.86336 0.17735
 C234 C -0.11112 0.84728 0.21789
 H235 H -0.19326 0.91782 0.40501
 H236 H -0.18436 0.76331 0.34547
 H237 H -0.11416 0.97840 0.13699
 H238 H -0.07150 0.83884 0.16978
 H239 H -0.16165 0.94224 0.31401
 H240 H -0.11015 0.81081 0.24165
 C241 C 0.65230 0.64475 0.27533
 C242 C 0.65984 0.69496 0.28514
 C243 C 0.67779 0.70752 0.33759
 C244 C 0.68839 0.67022 0.38054
 C245 C 0.68051 0.62028 0.36803
 N246 N 0.66312 0.60901 0.31637
 C247 C 0.63156 0.62986 0.22437
 N248 N 0.63379 0.58436 0.19414
 C249 C 0.61402 0.56641 0.15165
 C250 C 0.58971 0.59387 0.13979
 C251 C 0.58721 0.64124 0.16956
 C252 C 0.60817 0.65954 0.21133
 H253 H 0.68222 0.74672 0.34661
 H254 H 0.68816 0.59017 0.39942
 H255 H 0.61670 0.52972 0.12984
 H256 H 0.56874 0.66358 0.16187
 H257 H 0.65164 0.72430 0.25328
 H258 H 0.60538 0.69533 0.23583
 C259 C 0.15238 1.14505 0.27404
 C260 C 0.16053 1.19516 0.28180
 C261 C 0.17825 1.20833 0.33450
 C262 C 0.18793 1.17173 0.37972
 C263 C 0.17945 1.12185 0.36923
 N264 N 0.16235 1.10997 0.31730
 C265 C 0.13176 1.12972 0.22307
 N266 N 0.13359 1.08339 0.19499
 C267 C 0.11373 1.06504 0.15301
 C268 C 0.08975 1.09301 0.13963
 C269 C 0.08769 1.14119 0.16710
 C270 C 0.10874 1.15986 0.20827
 H271 H 0.18316 1.24754 0.34188
 H272 H 0.18642 1.09228 0.40243
 H273 H 0.11603 1.02771 0.13300
 H274 H 0.06947 1.16393 0.15808
 H275 H 0.15296 1.22399 0.24820
 H276 H 0.10628 1.19636 0.23102
 C277 C 0.64735 0.33636 -0.26904
 C278 C 0.65798 0.28774 -0.27384
 C279 C 0.67558 0.27563 -0.32743
 C280 C 0.68196 0.31163 -0.37698
 C281 C 0.67069 0.35985 -0.36984
 N282 N 0.65420 0.37095 -0.31651
 C283 C 0.62745 0.35044 -0.21633
 N284 N 0.63194 0.39296 -0.18039
 C285 C 0.61252 0.41182 -0.13780
 C286 C 0.58620 0.38931 -0.13283
 C287 C 0.58151 0.34449 -0.16794
 C288 C 0.60225 0.32459 -0.20910
 H289 H 0.68308 0.23760 -0.33195
 H290 H 0.67514 0.38883 -0.40653
 H291 H 0.61718 0.44577 -0.11066
 H292 H 0.56156 0.32571 -0.16523
 H293 H 0.65250 0.25948 -0.23694
 H294 H 0.59806 0.29114 -0.23812
 C295 C 0.14644 0.83288 -0.26813
 C296 C 0.14858 0.78266 -0.28841
 C297 C 0.16636 0.77015 -0.34128
 C298 C 0.18198 0.80745 -0.37345
 C299 C 0.18028 0.85670 -0.34991
 N300 N 0.16270 0.86812 -0.29859
 C301 C 0.12549 0.84921 -0.21839
 N302 N 0.13065 0.89047 -0.18021
 C303 C 0.11116 0.91056 -0.13873
 C304 C 0.08423 0.89021 -0.13616
 C305 C 0.07867 0.84704 -0.17402
 C306 C 0.09923 0.82630 -0.21477
 H307 H 0.16725 0.73178 -0.35867
 H308 H 0.19212 0.88628 -0.37395
 H309 H 0.11640 0.94363 -0.11010
 H310 H 0.05821 0.83005 -0.17357
 H311 H 0.13629 0.75357 -0.26464
 H312 H 0.09409 0.79429 -0.24568
 C313 C 0.35521 0.66222 -0.27863
 C314 C 0.32669 0.65039 -0.27890
 C315 C 0.30978 0.66852 -0.33072
 C316 C 0.32105 0.69865 -0.38224
 C317 C 0.34951 0.71045 -0.37873
 N318 N 0.36544 0.69225 -0.32821
 C319 C 0.37541 0.64124 -0.22972
 N320 N 0.40275 0.65258 -0.23905
 C321 C 0.42326 0.63333 -0.20022
 C322 C 0.41690 0.59971 -0.14809
 C323 C 0.38881 0.58821 -0.13612
 C324 C 0.36802 0.60880 -0.17668
 H325 H 0.28828 0.65649 -0.33251
 H326 H 0.35922 0.73397 -0.41655
 H327 H 0.44454 0.64373 -0.21120
 H328 H 0.38290 0.56274 -0.09608
 H329 H 0.31743 0.62622 -0.24142
 H330 H 0.34670 0.59861 -0.16651
 C331 C -0.14586 1.16594 -0.27106
 C332 C -0.17419 1.15272 -0.27251
 C333 C -0.19102 1.17033 -0.32480
 C334 C -0.17983 1.20115 -0.37566
 C335 C -0.15164 1.21464 -0.37066
 N336 N -0.13578 1.19691 -0.31975
 C337 C -0.12559 1.14498 -0.22240
 N338 N -0.09825 1.15587 -0.23257
 C339 C -0.07766 1.13633 -0.19431
 C340 C -0.08393 1.10285 -0.14198
 C341 C -0.11202 1.09199 -0.12895
 C342 C -0.13291 1.11290 -0.16892
 H343 H -0.21232 1.15729 -0.32763
 H344 H -0.14206 1.23885 -0.40787
 H345 H -0.05637 1.14628 -0.20603
 H346 H -0.11787 1.06679 -0.08856
 H347 H -0.18327 1.12765 -0.23584
 H348 H -0.15424 1.10331 -0.15793
 C349 C 0.65361 0.64303 -0.27192
 C350 C 0.66192 0.69291 -0.28091
 C351 C 0.67966 0.70531 -0.33401
 C352 C 0.68914 0.66818 -0.37867
 C353 C 0.68045 0.61852 -0.36705
 N354 N 0.66336 0.60735 -0.31453
 C355 C 0.63295 0.62881 -0.22038
 N356 N 0.63549 0.58424 -0.18768
 C357 C 0.61562 0.56685 -0.14473
 C358 C 0.59089 0.59364 -0.13540
 C359 C 0.58821 0.64025 -0.16740
 C360 C 0.60929 0.65818 -0.20932
 H361 H 0.68476 0.74438 -0.34216
 H362 H 0.68726 0.58856 -0.39971
 H363 H 0.61858 0.53107 -0.12058
 H364 H 0.56949 0.66219 -0.16149
 H365 H 0.65441 0.72212 -0.24791
 H366 H 0.60641 0.69331 -0.23561
 C367 C 0.15251 1.14647 -0.27001
 C368 C 0.15683 1.19705 -0.28661
 C369 C 0.17427 1.20947 -0.34020
 C370 C 0.18779 1.17181 -0.37654
 C371 C 0.18381 1.12186 -0.35691
 N372 N 0.16644 1.11054 -0.30491
 C373 C 0.13164 1.13112 -0.21914
 N374 N 0.13476 1.08691 -0.18573
 C375 C 0.11496 1.06855 -0.14321
 C376 C 0.08982 1.09422 -0.13451
 C377 C 0.08650 1.14036 -0.16728
 C378 C 0.10730 1.15898 -0.20926
 H379 H 0.17669 1.24840 -0.35449
 H380 H 0.19391 1.09189 -0.38407
 H381 H 0.11836 1.03290 -0.11885
 H382 H 0.06743 1.16145 -0.16205
 H383 H 0.14655 1.22672 -0.25932
 H384 H 0.10362 1.19353 -0.23625
 C385 C 0.34737 0.35759 -0.27487
 C386 C 0.34270 0.30713 -0.29118
 C387 C 0.32412 0.29507 -0.34240
 C388 C 0.30991 0.33300 -0.37665
 C389 C 0.31415 0.38279 -0.35690
 N390 N 0.33262 0.39375 -0.30727
 C391 C 0.36932 0.37261 -0.22700
 N392 N 0.36668 0.41618 -0.19212
 C393 C 0.38712 0.43387 -0.15127
 C394 C 0.41236 0.40799 -0.14554
 C395 C 0.41540 0.36289 -0.18073
 C396 C 0.39397 0.34501 -0.22115
 H397 H 0.32155 0.25627 -0.35697
 H398 H 0.30355 0.41295 -0.38256
 H399 H 0.38402 0.46897 -0.12529
 H400 H 0.43454 0.34178 -0.17785
 H401 H 0.35365 0.27731 -0.26570
 H402 H 0.39724 0.31105 -0.24964
 C403 C -0.15456 0.86182 -0.27305
 C404 C -0.15497 0.81209 -0.29572
 C405 C -0.17319 0.79826 -0.34690
 C406 C -0.19093 0.83384 -0.37545
 C407 C -0.19054 0.88279 -0.35031
 N408 N -0.17255 0.89549 -0.30042
 C409 C -0.13329 0.87876 -0.22448
 N410 N -0.10935 0.85220 -0.21779
 C411 C -0.08806 0.86785 -0.17825
 C412 C -0.09013 0.91288 -0.14242
 C413 C -0.11493 0.94018 -0.14694
 C414 C -0.13645 0.92347 -0.18836
 H415 H -0.17274 0.76032 -0.36602
 H416 H -0.20387 0.91117 -0.37182
 H417 H -0.06940 0.84544 -0.17566
 H418 H -0.11735 0.97516 -0.12019
 H419 H -0.14087 0.78447 -0.27529
 H420 H -0.15520 0.94553 -0.19262
 C421 C 0.35285 0.66362 0.26982
 C422 C 0.32711 0.64017 0.28223
 C423 C 0.31026 0.65750 0.33454
 C424 C 0.31889 0.69817 0.37382
 C425 C 0.34416 0.72162 0.35832
 N426 N 0.36038 0.70370 0.30799
 C427 C 0.37356 0.64315 0.22217
 N428 N 0.40074 0.65505 0.23215
 C429 C 0.42153 0.63570 0.19422
 C430 C 0.41558 0.60163 0.14250
 C431 C 0.38759 0.59014 0.12948
 C432 C 0.36653 0.61073 0.16919
 H433 H 0.29112 0.63790 0.34635
 H434 H 0.35153 0.75280 0.38817
 H435 H 0.44272 0.64627 0.20569
 H436 H 0.38198 0.56475 0.08930
 H437 H 0.32064 0.60727 0.25475
 H438 H 0.34515 0.60121 0.15830
 C439 C -0.14645 1.16236 0.27854
 C440 C -0.17440 1.14698 0.28248
 C441 C -0.19122 1.16482 0.33471
 C442 C -0.18036 1.19800 0.38300
 C443 C -0.15251 1.21318 0.37586
 N444 N -0.13666 1.19522 0.32505
 C445 C -0.12617 1.14156 0.22985
 N446 N -0.09880 1.15126 0.24096
 C447 C -0.07824 1.13211 0.20221
 C448 C -0.08461 1.10037 0.14823
 C449 C -0.11274 1.09082 0.13423
 C450 C -0.13359 1.11130 0.17483
 H451 H -0.21217 1.15030 0.33957
 H452 H -0.14319 1.23898 0.41129
 H453 H -0.05693 1.14103 0.21477
 H454 H -0.11864 1.06707 0.09250
 H455 H -0.18306 1.11994 0.24797
 H456 H -0.15503 1.10316 0.16294
 C457 C 0.64636 0.33263 0.27328
 C458 C 0.64816 0.28266 0.29503
 C459 C 0.66584 0.27050 0.34814
 C460 C 0.68166 0.30793 0.37912
 C461 C 0.68023 0.35691 0.35425
 N462 N 0.66278 0.36797 0.30267
 C463 C 0.62558 0.34871 0.22318
 N464 N 0.63111 0.38919 0.18357
 C465 C 0.61174 0.40929 0.14183
 C466 C 0.58460 0.38986 0.14058
 C467 C 0.57871 0.34735 0.17977
 C468 C 0.59913 0.32654 0.22075
 H469 H 0.66653 0.23233 0.36656
 H470 H 0.69227 0.38655 0.37731
 H471 H 0.61727 0.44167 0.11189
 H472 H 0.55809 0.33097 0.18028
 H473 H 0.63571 0.25351 0.27216
 H474 H 0.59374 0.29514 0.25276
 C475 C 0.14513 0.83054 0.27354
 C476 C 0.14635 0.78075 0.29639
 C477 C 0.16388 0.76854 0.34979
 C478 C 0.18017 0.80569 0.37989
 C479 C 0.17931 0.85443 0.35402
 N480 N 0.16195 0.86558 0.30224
 C481 C 0.12458 0.84681 0.22285
 N482 N 0.13032 0.88736 0.18348
 C483 C 0.11117 0.90762 0.14124
 C484 C 0.08402 0.88825 0.13915
 C485 C 0.07795 0.84561 0.17795
 C486 C 0.09813 0.82470 0.21948
 H487 H 0.16423 0.73052 0.36880
 H488 H 0.19178 0.88382 0.37628
 H489 H 0.11684 0.94008 0.11165
 H490 H 0.05732 0.82930 0.17788
 H491 H 0.13366 0.75173 0.27402
 H492 H 0.09251 0.79331 0.25126
   
