data_POSCAR
  _audit_creation_date              2014-09-24
  _audit_creation_method            'ToBaCCo'
  _symmetry_space_group_name_H-M    'P1'
  _symmetry_Int_Tables_number       1
  _symmetry_cell_setting            triclinic
  loop_
  _symmetry_equiv_pos_as_xyz
 x,y,z
_cell_length_a 15.6002
_cell_length_b 16.9980
_cell_length_c 15.2117
_cell_angle_alpha 89.221200
_cell_angle_beta 89.302900
_cell_angle_gamma 90.605500
loop_
  _atom_site_label
  _atom_site_type_symbol
  _atom_site_fract_x
  _atom_site_fract_y
  _atom_site_fract_z
C1 C 0.42450 1.12073 -0.54450
 C2 C 0.42063 1.12334 -0.45212
 C3 C 0.49734 1.13528 -0.40783
 C4 C 0.57658 1.11758 -0.44902
 C5 C 0.57930 1.12273 -0.54336
 C6 C 0.50173 1.14389 -0.58436
 H7 H 0.49864 1.15562 -0.65428
 H8 H 0.49413 1.14324 -0.33732
 C9 C -0.53860 1.41285 -0.00749
 C10 C -0.44772 1.41458 0.00075
 C11 C -0.40712 1.48842 0.00809
 C12 C -0.45085 1.56046 0.01460
 C13 C -0.54173 1.55878 0.00345
 C14 C -0.58275 1.48492 -0.00496
 H15 H -0.65213 1.48331 -0.00651
 H16 H -0.33803 1.49034 0.00319
 C17 C -0.00869 0.55213 0.56049
 C18 C 0.00175 0.55985 0.46769
 C19 C 0.00076 0.49233 0.41560
 C20 C -0.00545 0.41554 0.45106
 C21 C -0.01896 0.40781 0.54337
 C22 C -0.02120 0.47532 0.59531
 H23 H -0.02401 0.46636 0.66588
 H24 H 0.00280 0.50086 0.34488
 O25 O -0.20635 0.99577 -0.12429
 O26 O 0.22905 0.98776 -0.10593
 O27 O 0.01444 1.08303 -0.22597
 O28 O 0.01431 0.87210 -0.21491
 O29 O 0.00379 0.77881 -0.10362
 O30 O 0.00393 1.18329 -0.12533
 O31 O 0.12851 0.97703 -0.21529
 O32 O -0.09690 0.99162 -0.22700
 Zr33 Zr 0.01120 0.98003 -0.14783
 O34 O 0.08466 0.91052 -0.06762
 O35 O -0.06761 1.05435 -0.07934
 C36 C -0.17575 1.00232 -0.20404
 C37 C 0.20557 0.98719 -0.18749
 C38 C 0.00723 1.15616 -0.20478
 C39 C 0.01032 0.80012 -0.18575
 H40 H 0.12220 1.08765 -0.11177
 O41 O 0.08505 1.05400 -0.07373
 H42 H -0.10901 0.87888 -0.11171
 O43 O -0.07239 0.91162 -0.07373
 O44 O 0.21585 0.99498 0.13363
 O45 O -0.22020 0.99106 0.11734
 O46 O 0.12559 1.18760 -0.00337
 O47 O 0.11892 0.78294 0.01177
 O48 O -0.11979 0.78500 0.01883
 O49 O -0.11039 1.18839 -0.00812
 O50 O -0.00441 1.09633 0.22530
 O51 O -0.01051 0.88502 0.23567
 O52 O 0.00829 1.19084 0.11537
 O53 O -0.00193 0.78525 0.13452
 O54 O 0.22716 1.09052 0.01171
 O55 O -0.21602 1.09212 -0.01194
 O56 O -0.22143 0.88199 0.00298
 O57 O 0.22429 0.87952 0.01685
 O58 O 0.10520 0.99703 0.23522
 O59 O -0.12029 0.98832 0.22784
 Zr60 Zr 0.15447 0.98513 0.01110
 Zr61 Zr -0.14695 0.98625 -0.00059
 Zr62 Zr 0.00633 1.12488 -0.00143
 Zr63 Zr 0.00090 0.84578 0.01196
 Zr64 Zr -0.00404 0.98880 0.15816
 O65 O -0.07973 0.91564 0.08500
 O66 O 0.07859 1.05880 0.08399
 C67 C 0.18516 1.00124 0.21298
 C68 C -0.19761 0.99262 0.19937
 C69 C 0.20443 1.16334 0.00276
 C70 C 0.19878 0.80672 0.01431
 C71 C -0.19888 0.80935 0.01431
 C72 C -0.19007 1.16492 -0.01252
 C73 C 0.00324 1.16847 0.19729
 C74 C -0.00650 0.81164 0.21423
 H75 H -0.11280 1.09411 0.11226
 O76 O -0.07579 1.05912 0.07751
 H77 H 0.11163 0.88422 0.13079
 O78 O 0.07628 0.91579 0.09026
 C79 C 0.27547 1.08530 0.41968
 C80 C 0.36359 1.08249 0.40298
 C81 C 0.39130 1.03541 0.33169
 C82 C 0.33285 1.00345 0.27284
 C83 C 0.24511 1.01713 0.28384
 C84 C 0.21755 1.05349 0.36129
 C85 C 0.15746 1.12034 0.37310
 C86 C 0.22041 1.15451 0.43787
 H87 H 0.45872 1.02477 0.31947
 H88 H 0.35681 0.97229 0.21612
 H89 H 0.09565 1.10127 0.40409
 H90 H 0.15252 1.15659 0.31221
 H91 H 0.19526 1.15413 0.50656
 H92 H 0.25013 1.21107 0.41511
 C93 C -0.35836 1.11341 0.31011
 C94 C -0.35790 1.09069 0.39918
 C95 C -0.31241 1.02066 0.41809
 C96 C -0.26203 0.98434 0.35229
 C97 C -0.26321 1.01221 0.26439
 C98 C -0.31808 1.07326 0.24443
 C99 C -0.30364 1.14681 0.19136
 C100 C -0.34656 1.19139 0.26553
 H101 H -0.31645 0.99241 0.48203
 H102 H -0.22139 0.93574 0.37025
 H103 H -0.34191 1.14659 0.13023
 H104 H -0.23455 1.16056 0.18192
 H105 H -0.40793 1.21842 0.24658
 H106 H -0.30277 1.23122 0.30132
 C107 C -0.37984 1.05988 -0.30981
 C108 C -0.35695 1.09297 -0.39214
 C109 C -0.26794 1.10162 -0.40948
 C110 C -0.20738 1.06973 -0.35018
 C111 C -0.23491 1.03034 -0.27181
 C112 C -0.32141 1.03189 -0.25112
 C113 C -0.37921 0.96693 -0.22006
 C114 C -0.44371 0.99666 -0.28580
 H115 H -0.24514 1.13168 -0.46846
 H116 H -0.13967 1.07619 -0.36543
 H117 H -0.39998 0.97543 -0.15073
 H118 H -0.35364 0.90801 -0.23619
 H119 H -0.50278 1.01977 -0.25420
 H120 H -0.45426 0.95494 -0.34023
 C121 C 0.31559 1.01823 -0.40422
 C122 C 0.34793 1.09519 -0.39706
 C123 C 0.32681 1.13661 -0.32046
 C124 C 0.28737 1.09759 -0.24895
 C125 C 0.26557 1.01718 -0.25354
 C126 C 0.27265 0.98081 -0.33493
 C127 C 0.31175 0.90345 -0.35679
 C128 C 0.35708 0.94449 -0.43386
 H129 H 0.34807 1.19699 -0.31284
 H130 H 0.27349 1.13045 -0.19000
 H131 H 0.26286 0.85960 -0.37739
 H132 H 0.35633 0.88226 -0.30530
 H133 H 0.33290 0.92530 -0.49866
 H134 H 0.42787 0.94641 -0.42855
 C135 C 0.41641 1.27194 0.03285
 C136 C 0.40771 1.34002 -0.01911
 C137 C 0.33618 1.34154 -0.07578
 C138 C 0.27019 1.28424 -0.06875
 C139 C 0.27492 1.22220 -0.00678
 C140 C 0.35264 1.21393 0.03772
 C141 C 0.36940 1.19794 0.13271
 C142 C 0.43924 1.26120 0.12683
 H143 H 0.32800 1.39034 -0.12131
 H144 H 0.21437 1.28988 -0.10993
 H145 H 0.39505 1.13796 0.14419
 H146 H 0.31449 1.21387 0.17604
 H147 H 0.50474 1.23733 0.13285
 H148 H 0.42539 1.31389 0.16689
 C149 C 0.33430 0.63592 -0.05704
 C150 C 0.40030 0.62875 0.00414
 C151 C 0.39900 0.68540 0.07202
 C152 C 0.33422 0.74446 0.07546
 C153 C 0.26686 0.74656 0.01334
 C154 C 0.27106 0.69041 -0.05183
 C155 C 0.22704 0.66285 -0.13202
 C156 C 0.29774 0.60044 -0.13789
 H157 H 0.44640 0.68313 0.12332
 H158 H 0.33554 0.78688 0.12790
 H159 H 0.22994 0.70735 -0.18624
 H160 H 0.16230 0.63780 -0.11706
 H161 H 0.34096 0.60855 -0.19601
 H162 H 0.27305 0.53954 -0.12678
 C163 C -0.41424 0.70250 -0.00918
 C164 C -0.39956 0.62886 0.03014
 C165 C -0.32326 0.62317 0.08031
 C166 C -0.25898 0.68200 0.07656
 C167 C -0.26953 0.75024 0.02496
 C168 C -0.35121 0.76167 -0.01090
 C169 C -0.37529 0.78798 -0.10084
 C170 C -0.44285 0.72300 -0.09981
 H171 H -0.31097 0.57108 0.11963
 H172 H -0.19991 0.67267 0.11173
 H173 H -0.32324 0.77957 -0.15034
 H174 H -0.40391 0.84724 -0.09933
 H175 H -0.42952 0.67568 -0.14770
 H176 H -0.50927 0.74598 -0.10073
 C177 C -0.31527 1.34340 0.05177
 C178 C -0.38948 1.34446 0.00029
 C179 C -0.39686 1.28084 -0.05910
 C180 C -0.33264 1.22135 -0.06391
 C181 C -0.25715 1.22585 -0.01272
 C182 C -0.25237 1.28904 0.04367
 C183 C -0.19667 1.32495 0.11120
 C184 C -0.26710 1.38672 0.12112
 H185 H -0.45048 1.27783 -0.10339
 H186 H -0.34098 1.17332 -0.10918
 H187 H -0.13591 1.34899 0.08229
 H188 H -0.18893 1.28763 0.17085
 H189 H -0.24402 1.44609 0.10029
 H190 H -0.30062 1.38390 0.18601
 C191 C -0.03444 1.27651 0.40944
 C192 C 0.00391 1.35076 0.39324
 C193 C 0.05380 1.35836 0.31453
 C194 C 0.05434 1.29920 0.25099
 C195 C 0.00720 1.22940 0.26487
 C196 C -0.03140 1.21718 0.34734
 C197 C -0.12007 1.18930 0.36731
 C198 C -0.12531 1.25487 0.43352
 H199 H 0.09230 1.41047 0.30065
 H200 H 0.09058 1.30869 0.19051
 H201 H -0.12141 1.12947 0.39780
 H202 H -0.16270 1.19723 0.31043
 H203 H -0.13259 1.23112 0.50135
 H204 H -0.17161 1.30146 0.41531
 C205 C -0.08719 1.30472 -0.35774
 C206 C -0.01692 1.33188 -0.40816
 C207 C 0.06021 1.28948 -0.40068
 C208 C 0.06813 1.22943 -0.33603
 C209 C -0.00065 1.21215 -0.27768
 C210 C -0.07953 1.24574 -0.29586
 C211 C -0.15069 1.27610 -0.24009
 C212 C -0.15993 1.34151 -0.30918
 H213 H 0.11590 1.30672 -0.43984
 H214 H 0.12918 1.20061 -0.32786
 H215 H -0.12830 1.29762 -0.17550
 H216 H -0.20650 1.23488 -0.23707
 H217 H -0.14449 1.40041 -0.28319
 H218 H -0.22094 1.33746 -0.34592
 C219 C -0.04005 0.60865 -0.29497
 C220 C -0.00171 0.61537 -0.37912
 C221 C 0.05127 0.68287 -0.39397
 C222 C 0.05640 0.74326 -0.33119
 C223 C 0.01096 0.73685 -0.25075
 C224 C -0.03332 0.66691 -0.23275
 C225 C -0.12345 0.65512 -0.20111
 C226 C -0.13131 0.59128 -0.26944
 H227 H 0.09092 0.68911 -0.45231
 H228 H 0.09562 0.79489 -0.34567
 H229 H -0.16448 0.70694 -0.21455
 H230 H -0.12672 0.63208 -0.13239
 H231 H -0.17689 0.60583 -0.32276
 H232 H -0.13980 0.53185 -0.23931
 C233 C -0.05369 0.69280 0.42160
 C234 C 0.01023 0.63566 0.41891
 C235 C 0.07672 0.64584 0.35587
 C236 C 0.07154 0.70417 0.28996
 C237 C 0.00065 0.75441 0.28674
 C238 C -0.05774 0.75189 0.35746
 C239 C -0.15342 0.74740 0.35620
 C240 C -0.14865 0.68308 0.42635
 H241 H 0.12887 0.60433 0.35308
 H242 H 0.12089 0.70770 0.23927
 H243 H -0.17846 0.72632 0.29243
 H244 H -0.18327 0.80196 0.38075
 H245 H -0.17074 0.62453 0.40336
 H246 H -0.17521 0.70098 0.49112
   
