data_POSCAR
  _audit_creation_date              2014-09-24
  _audit_creation_method            'ToBaCCo'
  _symmetry_space_group_name_H-M    'P1'
  _symmetry_Int_Tables_number       1
  _symmetry_cell_setting            triclinic
  loop_
  _symmetry_equiv_pos_as_xyz
 x,y,z
_cell_length_a 31.0717
_cell_length_b 40.7581
_cell_length_c 16.8165
_cell_angle_alpha 90.539200
_cell_angle_beta 90.525100
_cell_angle_gamma 111.639800
loop_
  _atom_site_label
  _atom_site_type_symbol
  _atom_site_fract_x
  _atom_site_fract_y
  _atom_site_fract_z
C1 C 0.49056 0.97288 0.56338
 C2 C 0.48667 0.96300 0.48177
 C3 C 0.49993 0.98947 0.42426
 C4 C 0.51540 1.02577 0.44392
 C5 C 0.52220 1.03585 0.52590
 C6 C 0.51107 1.00904 0.58335
 H7 H 0.51478 1.01647 0.64588
 H8 H 0.49633 0.98136 0.36216
 C9 C 0.02816 0.51499 0.54804
 C10 C 0.03967 0.51302 0.46764
 C11 C 0.01382 0.48325 0.42173
 C12 C -0.02529 0.45634 0.45258
 C13 C -0.03668 0.45852 0.53371
 C14 C -0.00957 0.48784 0.58012
 H15 H -0.01706 0.48917 0.64266
 H16 H 0.02186 0.48268 0.35923
 C17 C 0.50541 0.54227 0.53038
 C18 C 0.52085 0.54247 0.45122
 C19 C 0.53322 0.51460 0.42352
 C20 C 0.53019 0.48600 0.47225
 C21 C 0.51606 0.48604 0.55226
 C22 C 0.50282 0.51371 0.57895
 H23 H 0.49402 0.51453 0.64099
 H24 H 0.54200 0.51396 0.36140
 O25 O 0.42183 0.70615 -0.07872
 O26 O 0.39962 0.76181 -0.08232
 C27 C 0.37067 0.77685 -0.08541
 O28 O 0.33376 0.76651 -0.04549
 O29 O 0.26974 0.70438 -0.08040
 C30 C 0.25654 0.67181 -0.09855
 O31 O 0.27284 0.65083 -0.06531
 O32 O 0.35787 0.65783 -0.09688
 C33 C 0.39834 0.67781 -0.11638
 O34 O 0.42428 0.70975 0.08153
 O35 O 0.40280 0.76611 0.07978
 C36 C 0.36959 0.76649 0.12362
 O37 O 0.32740 0.74865 0.10748
 O38 O 0.26020 0.68943 0.07463
 C39 C 0.26368 0.66344 0.11109
 O40 O 0.29264 0.64972 0.09183
 O41 O 0.37619 0.65429 0.05836
 C42 C 0.41127 0.67687 0.09287
 Cr43 Cr 0.40950 0.73479 0.00017
 Cr44 Cr 0.29965 0.72643 0.01335
 Cr45 Cr 0.32562 0.65516 -0.00286
 O46 O 0.34514 0.70543 0.00320
 O47 O 0.57173 0.31143 -0.05000
 O48 O 0.57701 0.25162 -0.09862
 C49 C 0.59874 0.23187 -0.11859
 O50 O 0.63351 0.23084 -0.07933
 O51 O 0.70875 0.28622 -0.09980
 C52 C 0.72842 0.31913 -0.11083
 O53 O 0.72135 0.34223 -0.06706
 O54 O 0.64143 0.34922 -0.08137
 C55 C 0.59775 0.33791 -0.08788
 O56 O 0.57871 0.29402 0.10065
 O57 O 0.57745 0.23184 0.05236
 C58 C 0.60620 0.22110 0.08676
 O59 O 0.64958 0.23654 0.07967
 O60 O 0.72707 0.29117 0.05696
 C61 C 0.73502 0.31906 0.09858
 O62 O 0.71132 0.33844 0.09220
 O63 O 0.63252 0.34740 0.07902
 C64 C 0.59909 0.32651 0.11899
 Cr65 Cr 0.57867 0.27292 0.00117
 Cr66 Cr 0.67846 0.26234 -0.01001
 Cr67 Cr 0.67551 0.34246 0.00554
 O68 O 0.64446 0.29267 -0.00070
 C69 C 0.45061 0.89172 -0.31175
 C70 C 0.42364 0.90112 -0.25877
 C71 C 0.41940 0.93379 -0.25896
 C72 C 0.44335 0.95774 -0.31699
 C73 C 0.47030 0.94865 -0.37520
 C74 C 0.47421 0.91497 -0.37148
 O75 O 0.45078 0.85958 -0.29900
 C76 C 0.42297 0.84852 -0.23706
 C77 C 0.40515 0.87292 -0.21106
 C78 C 0.37471 0.86694 -0.14813
 C79 C 0.36244 0.83457 -0.10946
 C80 C 0.38123 0.80913 -0.13309
 C81 C 0.41191 0.81623 -0.19825
 H82 H 0.39811 0.94056 -0.21614
 H83 H 0.43877 0.98281 -0.31886
 H84 H 0.49532 0.90728 -0.41299
 H85 H 0.36106 0.88660 -0.12917
 H86 H 0.33933 0.82980 -0.05939
 H87 H 0.42683 0.79738 -0.21764
 C88 C 0.12685 0.57603 -0.32676
 C89 C 0.10881 0.60064 -0.30272
 C90 C 0.06432 0.59828 -0.32385
 C91 C 0.03756 0.56952 -0.37208
 C92 C 0.05611 0.54454 -0.39940
 C93 C 0.10133 0.54782 -0.37637
 O94 O 0.16855 0.58180 -0.29619
 C95 C 0.17718 0.61077 -0.25219
 C96 C 0.14203 0.62365 -0.25486
 C97 C 0.14382 0.65359 -0.21228
 C98 C 0.18305 0.67051 -0.16387
 C99 C 0.21885 0.65685 -0.15776
 C100 C 0.21600 0.62678 -0.20349
 H101 H 0.05051 0.61757 -0.30308
 H102 H 0.00276 0.56689 -0.38928
 H103 H 0.11580 0.52867 -0.39560
 H104 H 0.11573 0.66322 -0.21520
 H105 H 0.18460 0.69330 -0.12861
 H106 H 0.24269 0.61567 -0.19979
 C107 C 0.44903 0.59025 -0.34476
 C108 C 0.47736 0.62468 -0.35757
 C109 C 0.51416 0.63372 -0.40994
 C110 C 0.52241 0.60615 -0.44974
 C111 C 0.49421 0.57017 -0.43632
 C112 C 0.45667 0.56256 -0.38312
 O113 O 0.41723 0.58694 -0.29028
 C114 C 0.42586 0.61999 -0.26752
 C115 C 0.46244 0.64420 -0.30639
 C116 C 0.47915 0.68009 -0.28729
 C117 C 0.45745 0.69129 -0.22530
 C118 C 0.41958 0.66666 -0.18460
 C119 C 0.40340 0.63056 -0.20708
 H120 H 0.53664 0.66096 -0.41801
 H121 H 0.55277 0.61299 -0.48641
 H122 H 0.43398 0.53569 -0.37125
 H123 H 0.50847 0.69865 -0.31770
 H124 H 0.47033 0.71900 -0.20862
 H125 H 0.37531 0.61093 -0.17618
 C126 C 0.56770 0.11536 -0.34389
 C127 C 0.54240 0.13455 -0.37088
 C128 C 0.51227 0.12371 -0.43597
 C129 C 0.50736 0.09147 -0.47343
 C130 C 0.53240 0.07070 -0.44535
 C131 C 0.56345 0.08349 -0.37997
 O132 O 0.59271 0.12907 -0.27918
 C133 C 0.58282 0.15745 -0.26440
 C134 C 0.55208 0.16210 -0.31833
 C135 C 0.53519 0.18922 -0.31057
 C136 C 0.55069 0.21237 -0.24470
 C137 C 0.58260 0.20803 -0.18862
 C138 C 0.59891 0.18017 -0.19944
 H139 H 0.49203 0.13886 -0.45549
 H140 H 0.48187 0.08178 -0.52088
 H141 H 0.58303 0.06853 -0.35634
 H142 H 0.51049 0.19217 -0.35299
 H143 H 0.53782 0.23353 -0.23740
 H144 H 0.62266 0.17564 -0.15737
 C145 C 0.86354 0.40863 -0.33348
 C146 C 0.86207 0.37469 -0.34322
 C147 C 0.89208 0.36623 -0.39297
 C148 C 0.92502 0.39391 -0.43398
 C149 C 0.92687 0.42913 -0.42560
 C150 C 0.89546 0.43641 -0.37455
 O151 O 0.83361 0.41139 -0.28059
 C152 C 0.81279 0.37848 -0.25632
 C153 C 0.82871 0.35494 -0.29300
 C154 C 0.81232 0.31924 -0.27480
 C155 C 0.77842 0.30742 -0.21595
 C156 C 0.76202 0.33135 -0.17614
 C157 C 0.77938 0.36739 -0.19753
 H158 H 0.89086 0.33943 -0.39866
 H159 H 0.94963 0.38805 -0.47109
 H160 H 0.89633 0.46303 -0.36618
 H161 H 0.82553 0.30121 -0.30415
 H162 H 0.76574 0.27979 -0.20033
 H163 H 0.76782 0.38644 -0.16846
 C164 C 0.55471 0.42535 -0.32756
 C165 C 0.51818 0.41266 -0.27650
 C166 C 0.47987 0.42239 -0.28000
 C167 C 0.47932 0.44662 -0.33805
 C168 C 0.51627 0.46010 -0.39268
 C169 C 0.55429 0.44870 -0.38759
 O170 O 0.58901 0.41433 -0.31044
 C171 C 0.57354 0.39413 -0.24738
 C172 C 0.53016 0.39208 -0.22496
 C173 C 0.50730 0.37283 -0.16026
 C174 C 0.52998 0.35481 -0.11669
 C175 C 0.57509 0.35676 -0.13738
 C176 C 0.59728 0.37685 -0.20378
 H177 H 0.45180 0.41225 -0.23842
 H178 H 0.44957 0.45440 -0.34125
 H179 H 0.58389 0.45926 -0.42600
 H180 H 0.47324 0.37181 -0.14373
 H181 H 0.51265 0.33985 -0.06571
 H182 H 0.63164 0.37884 -0.22094
 C183 C 0.87133 0.39645 0.34096
 C184 C 0.89176 0.38006 0.29020
 C185 C 0.93918 0.38758 0.29045
 C186 C 0.96669 0.41309 0.34511
 C187 C 0.94641 0.42971 0.40013
 C188 C 0.89773 0.42083 0.39791
 O189 O 0.82658 0.38834 0.32550
 C190 C 0.81852 0.36616 0.26394
 C191 C 0.85712 0.35980 0.24082
 C192 C 0.85688 0.33831 0.17602
 C193 C 0.81539 0.32326 0.13236
 C194 C 0.77562 0.33065 0.15283
 C195 C 0.77714 0.35206 0.22037
 H196 H 0.95463 0.37501 0.24849
 H197 H 1.00376 0.41945 0.34553
 H198 H 0.88120 0.43416 0.43593
 H199 H 0.88779 0.33391 0.15862
 H200 H 0.81493 0.30729 0.08029
 H201 H 0.74753 0.35848 0.23691
 C202 C 0.56482 0.10554 0.31563
 C203 C 0.53214 0.09618 0.25559
 C204 C 0.49456 0.06452 0.25347
 C205 C 0.49005 0.04133 0.31617
 C206 C 0.52261 0.04999 0.38066
 C207 C 0.56094 0.08281 0.37951
 O208 O 0.59768 0.13727 0.30538
 C209 C 0.58503 0.14804 0.23758
 C210 C 0.54499 0.12372 0.20541
 C211 C 0.52421 0.12938 0.13638
 C212 C 0.54530 0.16166 0.09877
 C213 C 0.58673 0.18751 0.12983
 C214 C 0.60735 0.18046 0.19999
 H215 H 0.46919 0.05803 0.20553
 H216 H 0.45975 0.01715 0.31585
 H217 H 0.58723 0.09021 0.42600
 H218 H 0.49256 0.10978 0.11270
 H219 H 0.52937 0.16645 0.04476
 H220 H 0.63876 0.19978 0.22523
 C221 C 0.57175 0.42695 0.34423
 C222 C 0.53684 0.39471 0.35519
 C223 C 0.49954 0.39040 0.40449
 C224 C 0.49810 0.42052 0.44370
 C225 C 0.53397 0.45407 0.43403
 C226 C 0.57134 0.45716 0.38342
 O227 O 0.60255 0.42578 0.29130
 C228 C 0.58671 0.39214 0.26826
 C229 C 0.54669 0.37192 0.30565
 C230 C 0.52326 0.33630 0.28760
 C231 C 0.54152 0.32105 0.22782
 C232 C 0.58231 0.34158 0.18717
 C233 C 0.60543 0.37757 0.20899
 H234 H 0.47193 0.36494 0.41095
 H235 H 0.46850 0.41787 0.48017
 H236 H 0.59873 0.48245 0.37368
 H237 H 0.49156 0.32097 0.31732
 H238 H 0.52318 0.29356 0.21188
 H239 H 0.63637 0.39421 0.17903
 C240 C 0.13926 0.56771 0.33918
 C241 C 0.13475 0.59997 0.34486
 C242 C 0.10101 0.60570 0.39027
 C243 C 0.07048 0.57695 0.43144
 C244 C 0.07459 0.54343 0.42770
 C245 C 0.10953 0.53877 0.38060
 O246 O 0.17183 0.56752 0.28866
 C247 C 0.18806 0.60036 0.26182
 C248 C 0.16648 0.62119 0.29459
 C249 C 0.17614 0.65586 0.27234
 C250 C 0.20907 0.66961 0.21311
 C251 C 0.23160 0.64867 0.17727
 C252 C 0.22137 0.61363 0.20306
 H253 H 0.09746 0.63113 0.39208
 H254 H 0.04268 0.58051 0.46418
 H255 H 0.11267 0.51326 0.37507
 H256 H 0.15832 0.67157 0.29856
 H257 H 0.21660 0.69651 0.19457
 H258 H 0.23744 0.59684 0.17617
 C259 C 0.45620 0.88022 0.35606
 C260 C 0.41104 0.86252 0.37777
 C261 C 0.38944 0.87514 0.43612
 C262 C 0.41522 0.90764 0.47270
 C263 C 0.46200 0.92635 0.45182
 C264 C 0.48280 0.91209 0.39315
 O265 O 0.46873 0.86551 0.29408
 C266 C 0.43060 0.83795 0.27610
 C267 C 0.39443 0.83489 0.32582
 C268 C 0.35044 0.80941 0.31482
 C269 C 0.34322 0.78637 0.24941
 C270 C 0.37964 0.78930 0.19588
 C271 C 0.42425 0.81522 0.21054
 H272 H 0.35341 0.86126 0.45040
 H273 H 0.39827 0.91889 0.51500
 H274 H 0.51788 0.92642 0.37403
 H275 H 0.32238 0.80781 0.35415
 H276 H 0.30885 0.76670 0.23974
 H277 H 0.45259 0.81860 0.17046
 C278 C 0.46890 0.59155 0.31614
 C279 C 0.50818 0.61704 0.28699
 C280 C 0.55260 0.61871 0.30667
 C281 C 0.55660 0.59334 0.35924
 C282 C 0.51656 0.56782 0.39231
 C283 C 0.47215 0.56673 0.36983
 O284 O 0.43001 0.59365 0.28792
 C285 C 0.44496 0.62122 0.24028
 C286 C 0.49249 0.63678 0.23828
 C287 C 0.51534 0.66644 0.19315
 C288 C 0.48808 0.68033 0.14756
 C289 C 0.43907 0.66397 0.14666
 C290 C 0.41729 0.63407 0.19406
 H291 H 0.58300 0.63870 0.28220
 H292 H 0.59067 0.59404 0.37600
 H293 H 0.44113 0.54711 0.39363
 H294 H 0.55275 0.67837 0.19278
 H295 H 0.50512 0.70310 0.11104
 H296 H 0.37995 0.62113 0.19464
   
