data_POSCAR
  _audit_creation_date              2014-09-24
  _audit_creation_method            'ToBaCCo'
  _symmetry_space_group_name_H-M    'P1'
  _symmetry_Int_Tables_number       1
  _symmetry_cell_setting            triclinic
  loop_
  _symmetry_equiv_pos_as_xyz
 x,y,z
_cell_length_a 24.2888
_cell_length_b 24.3393
_cell_length_c 24.2571
_cell_angle_alpha 90.390300
_cell_angle_beta 90.310200
_cell_angle_gamma 90.100300
loop_
  _atom_site_label
  _atom_site_type_symbol
  _atom_site_fract_x
  _atom_site_fract_y
  _atom_site_fract_z
C1 C 0.49839 1.01927 -0.65361
 C2 C 0.44773 1.02341 -0.62630
 C3 C 0.44728 1.01660 -0.56880
 C4 C 0.49559 1.00297 -0.53904
 C5 C 0.54544 0.99770 -0.56866
 C6 C 0.54803 1.00856 -0.62562
 C7 C 0.49393 0.99601 -0.47724
 C8 C 0.54237 0.99992 -0.44455
 C9 C 0.54066 0.99283 -0.38719
 C10 C 0.48960 0.98640 -0.36158
 C11 C 0.44089 0.98239 -0.39236
 C12 C 0.44354 0.98553 -0.45002
 H13 H 0.49859 1.01979 -0.69817
 H14 H 0.40939 1.02474 -0.54728
 H15 H 0.58280 0.98713 -0.54729
 H16 H 0.58189 1.00790 -0.46284
 H17 H 0.48788 0.98502 -0.31700
 H18 H 0.40591 0.97885 -0.47301
 C19 C -0.65033 1.49735 0.00095
 C20 C -0.62180 1.44788 0.00884
 C21 C -0.56390 1.44953 0.00880
 C22 C -0.53474 1.49884 -0.00120
 C23 C -0.56545 1.54758 -0.00932
 C24 C -0.62330 1.54805 -0.00503
 C25 C -0.47260 1.49972 -0.00097
 C26 C -0.44315 1.54914 0.00898
 C27 C -0.38543 1.55012 0.00913
 C28 C -0.35659 1.50104 0.00147
 C29 C -0.38415 1.45088 -0.00501
 C30 C -0.44189 1.45081 -0.00877
 H31 H -0.69451 1.49595 -0.00451
 H32 H -0.54190 1.41265 0.01952
 H33 H -0.54430 1.58565 -0.01682
 H34 H -0.46418 1.58702 0.01852
 H35 H -0.31199 1.50189 0.00087
 H36 H -0.46224 1.41210 -0.01665
 C37 C -0.00049 0.35346 0.50000
 C38 C -0.00320 0.37825 0.44797
 C39 C -0.00774 0.43602 0.44606
 C40 C -0.00184 0.46894 0.49437
 C41 C 0.00524 0.44169 0.54540
 C42 C 0.00456 0.38428 0.54847
 C43 C 0.00018 0.53102 0.49126
 C44 C -0.00611 0.56427 0.53923
 C45 C 0.00216 0.62171 0.53789
 C46 C 0.00971 0.64620 0.48619
 C47 C 0.01478 0.61505 0.43799
 C48 C 0.01132 0.55777 0.44080
 H49 H -0.00343 0.30920 0.50325
 H50 H -0.01299 0.45506 0.40652
 H51 H 0.01310 0.46403 0.58316
 H52 H -0.01475 0.54547 0.57821
 H53 H 0.01026 0.69053 0.48266
 H54 H 0.01921 0.53506 0.40336
 O55 O -0.14693 0.99777 -0.07695
 O56 O 0.13518 0.99607 -0.08467
 O57 O -0.00774 1.07476 -0.14641
 O58 O -0.00374 0.92612 -0.14818
 O59 O -0.00260 0.85777 -0.08264
 O60 O -0.00710 1.14155 -0.07843
 O61 O 0.06626 0.99823 -0.15042
 O62 O -0.08243 1.00112 -0.14635
 Zr63 Zr -0.00644 1.00002 -0.10297
 O64 O 0.04501 0.94997 -0.05790
 O65 O -0.05538 1.04917 -0.05437
 C66 C -0.13268 0.99907 -0.12836
 C67 C 0.11747 0.99510 -0.13525
 C68 C -0.00745 1.12551 -0.12958
 C69 C -0.00143 0.87511 -0.13321
 H70 H 0.06806 1.07300 -0.07997
 O71 O 0.04480 1.04950 -0.05648
 H72 H -0.07799 0.92513 -0.07823
 O73 O -0.05414 0.94913 -0.05526
 O74 O 0.13982 1.00427 0.06463
 O75 O -0.14229 0.99758 0.07160
 O76 O 0.07067 1.14003 -0.00168
 O77 O 0.07178 0.85869 -0.01048
 O78 O -0.07667 0.85755 -0.00168
 O79 O -0.07862 1.13946 -0.00345
 O80 O 0.00318 1.07227 0.13592
 O81 O 0.00258 0.92386 0.13453
 O82 O -0.00049 1.14044 0.07039
 O83 O -0.00027 0.85668 0.06699
 O84 O 0.13843 1.07396 -0.00680
 O85 O -0.14569 1.07216 -0.00512
 O86 O -0.14475 0.92350 -0.00047
 O87 O 0.13920 0.92554 -0.01145
 O88 O 0.07536 1.00282 0.13410
 O89 O -0.07374 0.99562 0.13784
 Zr90 Zr 0.09343 0.99958 -0.00878
 Zr91 Zr -0.10005 0.99815 -0.00384
 Zr92 Zr -0.00393 1.09570 -0.00477
 Zr93 Zr -0.00276 0.90232 -0.00711
 Zr94 Zr -0.00045 0.99826 0.09083
 O95 O -0.05162 0.94828 0.04473
 O96 O 0.04746 1.04850 0.04292
 C97 C 0.12548 1.00650 0.11606
 C98 C -0.12502 0.99670 0.12228
 C99 C 0.12177 1.12442 -0.00212
 C100 C 0.12273 0.87471 -0.01142
 C101 C -0.12764 0.87302 0.00142
 C102 C -0.12946 1.12304 -0.00423
 C103 C 0.00335 1.12331 0.12086
 C104 C 0.00282 0.87304 0.11802
 H105 H -0.07449 1.07116 0.06982
 O106 O -0.05174 1.04783 0.04547
 H107 H 0.07330 0.92704 0.06459
 O108 O 0.04835 0.94964 0.04180
 C109 C 0.30624 1.03611 0.27076
 C110 C 0.30186 1.01089 0.32289
 C111 C 0.34769 1.00970 0.35877
 C112 C 0.39871 1.03242 0.34281
 C113 C 0.40056 1.06161 0.29287
 C114 C 0.35528 1.06364 0.25766
 C115 C 0.25904 1.03121 0.23107
 C116 C 0.26231 1.04967 0.17631
 C117 C 0.21873 1.04152 0.13975
 C118 C 0.17038 1.01512 0.15657
 C119 C 0.16600 0.99742 0.21138
 C120 C 0.21043 1.00434 0.24840
 C121 C 0.25233 0.98553 0.33800
 C122 C 0.20737 0.98296 0.30182
 H123 H 0.24847 0.96674 0.37817
 H124 H 0.17024 0.96239 0.31530
 H125 H 0.34436 0.98721 0.39700
 H126 H 0.43731 1.08350 0.28059
 H127 H 0.22298 1.05619 0.09790
 H128 H 0.12889 0.97665 0.22465
 H129 H 0.36002 1.08645 0.22005
 H130 H 0.29852 1.06947 0.16031
 C131 C -0.30387 1.00657 0.27973
 C132 C -0.34903 1.03985 0.26456
 C133 C -0.39619 1.04158 0.29726
 C134 C -0.40141 1.00894 0.34480
 C135 C -0.35553 0.97713 0.36071
 C136 C -0.30762 0.97588 0.32866
 C137 C -0.25499 1.00468 0.24196
 C138 C -0.20693 0.97395 0.25307
 C139 C -0.16369 0.97210 0.21497
 C140 C -0.16797 1.00013 0.16486
 C141 C -0.21473 1.03196 0.15431
 C142 C -0.25769 1.03488 0.19231
 C143 C -0.34778 1.07057 0.21602
 C144 C -0.30334 1.06769 0.18040
 H145 H -0.38238 1.09626 0.20464
 H146 H -0.30493 1.09129 0.14267
 H147 H -0.42876 1.06958 0.28548
 H148 H -0.35708 0.95062 0.39625
 H149 H -0.12758 0.94763 0.22400
 H150 H -0.21764 1.05484 0.11616
 H151 H -0.27455 0.94956 0.34212
 H152 H -0.20214 0.95095 0.29065
 C153 C -0.31597 0.98579 -0.28165
 C154 C -0.31689 1.02288 -0.32632
 C155 C -0.36323 1.02499 -0.36149
 C156 C -0.40831 0.98971 -0.35314
 C157 C -0.40520 0.95065 -0.31095
 C158 C -0.35994 0.94867 -0.27571
 C159 C -0.26821 0.98753 -0.24246
 C160 C -0.26732 0.95716 -0.19328
 C161 C -0.22297 0.96123 -0.15702
 C162 C -0.17794 0.99506 -0.16887
 C163 C -0.17788 1.02536 -0.21790
 C164 C -0.22343 1.02286 -0.25410
 C165 C -0.27163 1.05747 -0.33535
 C166 C -0.22546 1.05667 -0.30065
 H167 H -0.27178 1.08544 -0.36993
 H168 H -0.19146 1.08405 -0.30955
 H169 H -0.36468 1.05486 -0.39439
 H170 H -0.43823 0.92136 -0.30497
 H171 H -0.22382 0.93753 -0.11938
 H172 H -0.14352 1.05236 -0.22669
 H173 H -0.36028 0.91759 -0.24427
 H174 H -0.30094 0.93096 -0.18125
 C175 C 0.29137 0.97743 -0.29741
 C176 C 0.33736 0.94500 -0.28242
 C177 C 0.38416 0.94372 -0.31590
 C178 C 0.38749 0.97636 -0.36324
 C179 C 0.34132 1.00714 -0.37913
 C180 C 0.29372 1.00752 -0.34685
 C181 C 0.24365 0.98040 -0.25837
 C182 C 0.19515 1.01038 -0.26944
 C183 C 0.15340 1.01430 -0.23001
 C184 C 0.15949 0.98915 -0.17854
 C185 C 0.20660 0.95777 -0.16797
 C186 C 0.24816 0.95265 -0.20743
 C187 C 0.33763 0.91601 -0.23278
 C188 C 0.29429 0.92030 -0.19577
 H189 H 0.37279 0.89106 -0.22147
 H190 H 0.29720 0.89837 -0.15711
 H191 H 0.41915 0.91886 -0.30378
 H192 H 0.34285 1.03297 -0.41527
 H193 H 0.11696 1.03818 -0.23924
 H194 H 0.21085 0.93710 -0.12875
 H195 H 0.26012 1.03320 -0.36021
 H196 H 0.18883 1.03127 -0.30802
 C197 C 0.28155 1.30178 0.01652
 C198 C 0.26172 1.35190 0.03838
 C199 C 0.29512 1.39877 0.03859
 C200 C 0.34836 1.39807 0.01567
 C201 C 0.36920 1.34716 -0.00273
 C202 C 0.33627 1.29982 -0.00254
 C203 C 0.24262 1.25377 0.01328
 C204 C 0.25723 1.20219 -0.00911
 C205 C 0.21833 1.15984 -0.01356
 C206 C 0.16391 1.16806 0.00372
 C207 C 0.14949 1.21872 0.02733
 C208 C 0.18809 1.26126 0.03228
 C209 C 0.20797 1.35573 0.05856
 C210 C 0.17190 1.31143 0.05545
 H211 H 0.19305 1.39407 0.07582
 H212 H 0.13033 1.31687 0.07056
 H213 H 0.27905 1.43614 0.05691
 H214 H 0.40970 1.34411 -0.02085
 H215 H 0.23063 1.12092 -0.03153
 H216 H 0.10786 1.22524 0.04193
 H217 H 0.35389 1.26256 -0.01899
 H218 H 0.29821 1.19390 -0.02387
 C219 C 0.27887 0.69415 -0.00686
 C220 C 0.26106 0.64638 0.02066
 C221 C 0.29434 0.59967 0.02201
 C222 C 0.34540 0.59756 -0.00543
 C223 C 0.36344 0.64574 -0.03197
 C224 C 0.33069 0.69318 -0.03277
 C225 C 0.24100 0.74296 -0.00771
 C226 C 0.25476 0.79364 -0.03216
 C227 C 0.21699 0.83717 -0.03269
 C228 C 0.16452 0.83071 -0.00974
 C229 C 0.15115 0.78101 0.01571
 C230 C 0.18876 0.73768 0.01738
 C231 C 0.20962 0.64478 0.04630
 C232 C 0.17402 0.68923 0.04419
 H233 H 0.19616 0.60810 0.06749
 H234 H 0.13421 0.68557 0.06386
 H235 H 0.28031 0.56515 0.04618
 H236 H 0.40168 0.64668 -0.05454
 H237 H 0.22847 0.87549 -0.05188
 H238 H 0.11121 0.77609 0.03490
 H239 H 0.34616 0.72829 -0.05480
 H240 H 0.29433 0.80040 -0.05097
 C241 C -0.28310 0.69377 0.02404
 C242 C -0.33227 0.69614 -0.00740
 C243 C -0.36739 0.65009 -0.01019
 C244 C -0.35407 0.60180 0.01832
 C245 C -0.30768 0.60155 0.05298
 C246 C -0.27272 0.64682 0.05600
 C247 C -0.24349 0.74080 0.02098
 C248 C -0.19042 0.73856 0.04443
 C249 C -0.15363 0.78182 0.03792
 C250 C -0.16871 0.82894 0.00871
 C251 C -0.22181 0.83229 -0.01417
 C252 C -0.25877 0.78790 -0.00945
 C253 C -0.34525 0.74394 -0.03664
 C254 C -0.30976 0.78923 -0.03678
 H255 H -0.38328 0.74626 -0.06009
 H256 H -0.32156 0.82510 -0.06027
 H257 H -0.40363 0.65094 -0.03647
 H258 H -0.29766 0.56550 0.07696
 H259 H -0.11291 0.77832 0.05587
 H260 H -0.23342 0.86829 -0.03755
 H261 H -0.23749 0.64380 0.08303
 H262 H -0.17580 0.70321 0.06664
 C263 C -0.28599 1.30268 -0.00360
 C264 C -0.27312 1.34770 0.03140
 C265 C -0.30654 1.39445 0.03164
 C266 C -0.35183 1.39892 -0.00427
 C267 C -0.36478 1.35432 -0.03900
 C268 C -0.33243 1.30667 -0.03860
 C269 C -0.24833 1.25378 -0.00288
 C270 C -0.25850 1.20528 -0.03357
 C271 C -0.22068 1.16188 -0.03293
 C272 C -0.17170 1.16636 -0.00244
 C273 C -0.16207 1.21357 0.02947
 C274 C -0.20011 1.25668 0.03015
 C275 C -0.22612 1.34671 0.06501
 C276 C -0.18993 1.30255 0.06375
 H277 H -0.21636 1.38130 0.09172
 H278 H -0.15337 1.30434 0.08956
 H279 H -0.29673 1.42796 0.05972
 H280 H -0.39920 1.35669 -0.06743
 H281 H -0.22896 1.12544 -0.05752
 H282 H -0.12477 1.21660 0.05414
 H283 H -0.34368 1.27401 -0.06678
 H284 H -0.29522 1.20019 -0.05831
 C285 C 0.01112 1.27433 0.30629
 C286 C -0.01846 1.32417 0.30232
 C287 C -0.02259 1.35945 0.34859
 C288 C 0.00148 1.34506 0.39968
 C289 C 0.03228 1.29602 0.40186
 C290 C 0.03707 1.26156 0.35638
 C291 C 0.01272 1.23652 0.25737
 C292 C 0.03959 1.18531 0.25868
 C293 C 0.03719 1.14983 0.21366
 C294 C 0.00850 1.16429 0.16571
 C295 C -0.01666 1.21614 0.16276
 C296 C -0.01531 1.25208 0.20860
 C297 C -0.04448 1.33782 0.25247
 C298 C -0.04287 1.30263 0.20664
 H299 H -0.06702 1.37604 0.24900
 H300 H -0.06429 1.31480 0.16938
 H301 H -0.04702 1.39642 0.34508
 H302 H 0.05491 1.28448 0.43855
 H303 H 0.05768 1.11043 0.21661
 H304 H -0.03904 1.22755 0.12578
 H305 H 0.06151 1.22509 0.36178
 H306 H 0.06193 1.17107 0.29427
 C307 C 0.00723 1.28769 -0.30331
 C308 C 0.03993 1.27304 -0.34924
 C309 C 0.04206 1.30724 -0.39532
 C310 C 0.00988 1.35496 -0.39820
 C311 C -0.02111 1.37064 -0.35210
 C312 C -0.02229 1.33759 -0.30504
 C313 C 0.00369 1.24800 -0.25627
 C314 C -0.02620 1.25874 -0.20762
 C315 C -0.02962 1.21925 -0.16602
 C316 C -0.00420 1.16798 -0.17251
 C317 C 0.02642 1.15738 -0.22014
 C318 C 0.03123 1.19698 -0.26142
 C319 C 0.06838 1.22310 -0.35029
 C320 C 0.06356 1.18558 -0.30764
 H321 H 0.09345 1.21206 -0.38548
 H322 H 0.08526 1.14683 -0.31106
 H323 H 0.06705 1.29533 -0.43033
 H324 H -0.04643 1.40720 -0.35339
 H325 H -0.05293 1.22841 -0.12915
 H326 H 0.04740 1.11831 -0.22470
 H327 H -0.04807 1.35074 -0.27139
 H328 H -0.04704 1.29729 -0.20091
 C329 C 0.01124 0.72520 -0.31934
 C330 C -0.01964 0.67597 -0.31746
 C331 C -0.02231 0.64101 -0.36412
 C332 C 0.00525 0.65470 -0.41340
 C333 C 0.03792 0.70271 -0.41308
 C334 C 0.04089 0.73709 -0.36729
 C335 C 0.01081 0.76303 -0.27039
 C336 C 0.03720 0.81457 -0.27054
 C337 C 0.03360 0.84971 -0.22535
 C338 C 0.00404 0.83461 -0.17840
 C339 C -0.02133 0.78274 -0.17683
 C340 C -0.01892 0.74723 -0.22298
 C341 C -0.04804 0.66239 -0.26917
 C342 C -0.04727 0.69697 -0.22283
 H343 H -0.07144 0.62451 -0.26722
 H344 H -0.07015 0.68467 -0.18671
 H345 H -0.04812 0.60478 -0.36232
 H346 H 0.06342 0.71346 -0.44785
 H347 H 0.05397 0.88931 -0.22731
 H348 H -0.04465 0.77105 -0.14076
 H349 H 0.06716 0.77262 -0.37054
 H350 H 0.05995 0.82937 -0.30543
 C351 C 0.02911 0.71442 0.29333
 C352 C -0.00535 0.66748 0.29207
 C353 C -0.00761 0.63258 0.33812
 C354 C 0.02443 0.64400 0.38523
 C355 C 0.06229 0.68752 0.38388
 C356 C 0.06480 0.72221 0.33861
 C357 C 0.02500 0.75473 0.24718
 C358 C 0.05099 0.80645 0.24930
 C359 C 0.04340 0.84418 0.20713
 C360 C 0.01044 0.83130 0.16123
 C361 C -0.01488 0.77949 0.15794
 C362 C -0.00916 0.74178 0.20140
 C363 C -0.03822 0.65672 0.24551
 C364 C -0.03917 0.69250 0.20064
 H365 H -0.06396 0.62032 0.24392
 H366 H -0.06550 0.68249 0.16577
 H367 H -0.03636 0.59846 0.33848
 H368 H 0.08880 0.69593 0.41902
 H369 H 0.06368 0.88378 0.21040
 H370 H -0.04077 0.76949 0.12280
 H371 H 0.09421 0.75542 0.34044
 H372 H 0.07611 0.81932 0.28384
   
