data_POSCAR
  _audit_creation_date              2014-09-24
  _audit_creation_method            'ToBaCCo'
  _symmetry_space_group_name_H-M    'P1'
  _symmetry_Int_Tables_number       1
  _symmetry_cell_setting            triclinic
  loop_
  _symmetry_equiv_pos_as_xyz
 x,y,z
_cell_length_a 41.0963
_cell_length_b 10.2913
_cell_length_c 14.2739
_cell_angle_alpha 90.454800
_cell_angle_beta 89.977300
_cell_angle_gamma 92.880100
loop_
  _atom_site_label
  _atom_site_type_symbol
  _atom_site_fract_x
  _atom_site_fract_y
  _atom_site_fract_z
C1 C 0.67066 0.16998 0.57478
 C2 C 0.65530 0.14162 0.48897
 C3 C 0.67259 0.13887 0.40497
 C4 C 0.70700 0.15700 0.40601
 C5 C 0.72343 0.17523 0.49284
 C6 C 0.70529 0.17508 0.57781
 C7 C 0.72234 0.16939 0.66257
 C8 C 0.75603 0.18564 0.66528
 C9 C 0.77437 0.20531 0.58277
 C10 C 0.75806 0.19319 0.49500
 C11 C 0.72542 0.15435 0.32324
 C12 C 0.75912 0.17676 0.32472
 C13 C 0.77620 0.19673 0.40967
 C14 C 0.81055 0.22438 0.41207
 C15 C 0.82546 0.24337 0.49999
 C16 C 0.80868 0.22719 0.58513
 H17 H 0.70989 0.14829 0.72783
 H18 H 0.76722 0.18029 0.73340
 H19 H 0.71390 0.13571 0.25602
 H20 H 0.77130 0.17932 0.25774
 H21 H 0.62886 0.13328 0.48567
 H22 H 0.85128 0.26648 0.50310
 C23 C 0.19052 0.89715 0.57370
 C24 C 0.17447 0.88959 0.48752
 C25 C 0.19124 0.86976 0.40341
 C26 C 0.22573 0.86399 0.40582
 C27 C 0.24209 0.86663 0.49376
 C28 C 0.22430 0.88298 0.57764
 C29 C 0.24054 0.88240 0.66406
 C30 C 0.27354 0.86337 0.66868
 C31 C 0.29184 0.84410 0.58705
 C32 C 0.27623 0.85114 0.49834
 C33 C 0.24431 0.85324 0.32376
 C34 C 0.27815 0.84514 0.32798
 C35 C 0.29455 0.84177 0.41458
 C36 C 0.32874 0.83059 0.42022
 C37 C 0.34344 0.82048 0.50846
 C38 C 0.32555 0.82308 0.59219
 H39 H 0.22790 0.89512 0.72971
 H40 H 0.28453 0.86735 0.73748
 H41 H 0.23288 0.85229 0.25548
 H42 H 0.29125 0.84059 0.26243
 H43 H 0.14838 0.90096 0.48589
 H44 H 0.36886 0.79781 0.51073
 C45 C 0.31600 0.18172 -0.60388
 C46 C 0.33146 0.16905 -0.51762
 C47 C 0.31456 0.17987 -0.43281
 C48 C 0.28061 0.19644 -0.43417
 C49 C 0.26402 0.20256 -0.52093
 C50 C 0.28183 0.19444 -0.60609
 C51 C 0.26506 0.19903 -0.69106
 C52 C 0.23181 0.21630 -0.69302
 C53 C 0.21342 0.22641 -0.60977
 C54 C 0.22979 0.22109 -0.52257
 C55 C 0.26316 0.21350 -0.35105
 C56 C 0.23009 0.23511 -0.35247
 C57 C 0.21233 0.23634 -0.43717
 C58 C 0.17810 0.25638 -0.43882
 C59 C 0.16282 0.26650 -0.52702
 C60 C 0.17955 0.24796 -0.61214
 H61 H 0.27752 0.18987 -0.75738
 H62 H 0.22122 0.22592 -0.76164
 H63 H 0.27503 0.21304 -0.28344
 H64 H 0.21931 0.25449 -0.28530
 H65 H 0.35756 0.15744 -0.51629
 H66 H 0.13675 0.27386 -0.53012
 C67 C -0.18384 0.66212 -0.57162
 C68 C -0.16760 0.62531 -0.48960
 C69 C -0.18214 0.63026 -0.40145
 C70 C -0.21500 0.66437 -0.39385
 C71 C -0.23268 0.69511 -0.47542
 C72 C -0.21734 0.69141 -0.56460
 C73 C -0.23615 0.71600 -0.64445
 C74 C -0.26843 0.74829 -0.63707
 C75 C -0.28408 0.75427 -0.54969
 C76 C -0.26570 0.73126 -0.46754
 C77 C -0.23066 0.66811 -0.30671
 C78 C -0.26186 0.71222 -0.29816
 C79 C -0.28017 0.74393 -0.37753
 C80 C -0.31225 0.78878 -0.36991
 C81 C -0.33019 0.80408 -0.45258
 C82 C -0.31751 0.78267 -0.54233
 H83 H -0.22671 0.70770 -0.71469
 H84 H -0.28057 0.77122 -0.70153
 H85 H -0.21880 0.63845 -0.24333
 H86 H -0.27102 0.71977 -0.22771
 H87 H -0.14204 0.60576 -0.49065
 H88 H -0.35596 0.81492 -0.44533
 O89 O -0.03259 0.74429 0.19202
 O90 O -0.07612 0.81418 0.10869
 C91 C -0.06354 0.74884 0.17600
 O92 O 0.03393 1.26942 0.14385
 O93 O 0.07276 1.17123 0.05576
 C94 C 0.06383 1.25419 0.11891
 O95 O -0.05530 1.17991 0.17027
 O96 O -0.08697 1.01925 0.09757
 C97 C -0.08296 1.11506 0.15608
 O98 O 0.05697 0.81887 0.15907
 O99 O 0.08380 0.95885 0.05745
 C100 C 0.08337 0.87770 0.12646
 Zr101 Zr 0.00720 0.83530 0.12070
 O102 O 0.01499 0.84116 0.26709
 O103 O 0.01344 0.63239 0.11991
 Zr104 Zr -0.00861 1.15616 0.10855
 O105 O -0.00205 1.18012 0.25489
 O106 O -0.02119 1.35220 0.09632
 O107 O -0.02831 0.97170 0.14157
 O108 O 0.02707 1.02296 0.12424
 O109 O 0.04525 0.77519 -0.17050
 O110 O 0.07802 0.93599 -0.10128
 C111 C 0.07302 0.83750 -0.15810
 O112 O -0.06364 1.14237 -0.16785
 O113 O -0.09126 1.00541 -0.06577
 C114 C -0.09014 1.08504 -0.13566
 O115 O 0.02552 1.22825 -0.19116
 O116 O 0.06895 1.15247 -0.11056
 C117 C 0.05658 1.22043 -0.17695
 O118 O -0.04504 0.71913 -0.16220
 O119 O -0.08202 0.80102 -0.06018
 C120 C -0.07462 0.73070 -0.13203
 Zr121 Zr -0.00051 0.80803 -0.11148
 O122 O -0.00116 0.76788 -0.25686
 O123 O 0.00502 0.60840 -0.08623
 Zr124 Zr -0.01483 1.12963 -0.12508
 O125 O -0.01730 1.12155 -0.27313
 O126 O -0.02713 1.32633 -0.12624
 Zr127 Zr -0.05180 0.93863 0.01168
 Zr128 Zr 0.04359 1.02689 -0.01574
 O129 O 0.01920 0.99126 -0.14379
 O130 O -0.03621 0.94214 -0.12903
 O131 O 0.03348 0.82455 -0.00310
 O132 O -0.04078 1.13962 -0.00157
 O133 O -0.02403 0.77272 0.01354
 O134 O 0.01616 1.19457 -0.01724
 H135 H 0.04228 1.04070 0.17713
 H136 H -0.05883 1.19995 -0.00043
 H137 H 0.03120 0.99643 -0.20392
 H138 H -0.03603 0.68720 0.01956
 H139 H -0.00492 1.39578 0.05455
 H140 H -0.00725 1.37757 -0.10747
 H141 H -0.03093 1.04297 -0.29025
 H142 H -0.00603 0.85001 -0.28808
 H143 H 0.02829 0.59625 -0.07277
 H144 H 0.03500 0.61743 0.09202
 H145 H 0.00085 0.90764 0.29282
 H146 H -0.01624 1.11310 0.28610
 O147 O 0.44954 0.26775 0.15086
 O148 O 0.41882 0.40408 0.06484
 C149 C 0.42192 0.31353 0.12702
 O150 O 0.55128 0.69732 0.19919
 O151 O 0.58606 0.58056 0.10959
 C152 C 0.58012 0.65933 0.17787
 O153 O 0.45941 0.70800 0.18496
 O154 O 0.42356 0.61481 0.07746
 C155 C 0.43019 0.68461 0.15149
 O156 O 0.54022 0.23463 0.15746
 O157 O 0.58043 0.36297 0.08869
 C158 C 0.57074 0.26893 0.14268
 Zr159 Zr 0.49728 0.31820 0.10434
 O160 O 0.49468 0.27037 0.24785
 O161 O 0.48893 0.11933 0.06954
 Zr162 Zr 0.50525 0.64565 0.13764
 O163 O 0.50377 0.62118 0.28472
 O164 O 0.50711 0.85026 0.15560
 O165 O 0.47222 0.48582 0.13328
 O166 O 0.52851 0.47265 0.14399
 O167 O 0.54885 0.28740 -0.17121
 O168 O 0.58527 0.38685 -0.06854
 C169 C 0.57809 0.31144 -0.13955
 O170 O 0.47172 0.76659 -0.15364
 O171 O 0.42963 0.64375 -0.08740
 C172 C 0.44111 0.73446 -0.14324
 O173 O 0.56158 0.75124 -0.12444
 O174 O 0.59105 0.60469 -0.04453
 C175 C 0.58887 0.70386 -0.09854
 O176 O 0.46096 0.34308 -0.20672
 O177 O 0.42392 0.43171 -0.10761
 C178 C 0.43178 0.37458 -0.18529
 Zr179 Zr 0.50399 0.35947 -0.12699
 O180 O 0.51113 0.35820 -0.27358
 O181 O 0.49257 0.15708 -0.13513
 Zr182 Zr 0.51288 0.68701 -0.09381
 O183 O 0.52066 0.72474 -0.23775
 O184 O 0.51474 0.88820 -0.06275
 Zr185 Zr 0.45636 0.51462 -0.00546
 Zr186 Zr 0.55286 0.49110 0.01443
 O187 O 0.53661 0.51928 -0.12302
 O188 O 0.48079 0.53434 -0.13492
 O189 O 0.52927 0.30654 -0.00804
 O190 O 0.48112 0.69622 0.01762
 O191 O 0.47110 0.32275 -0.01968
 O192 O 0.53878 0.68399 0.03060
 H193 H 0.54103 0.46088 0.20231
 H194 H 0.46819 0.77482 0.02132
 H195 H 0.55247 0.52560 -0.17526
 H196 H 0.45352 0.25467 -0.03022
 H197 H 0.52794 0.88480 0.12863
 H198 H 0.53602 0.91103 -0.03292
 H199 H 0.50553 0.66479 -0.27309
 H200 H 0.51321 0.45034 -0.29280
 H201 H 0.51292 0.11353 -0.12196
 H202 H 0.51027 0.08676 0.05149
 H203 H 0.49396 0.35365 0.28249
 H204 H 0.48363 0.56854 0.29946
 C205 C 0.33741 0.18874 0.31201
 C206 C 0.33924 0.29423 0.25681
 C207 C 0.36532 0.32463 0.18655
 C208 C 0.39308 0.26169 0.17949
 H209 H 0.32184 0.36854 0.26775
 H210 H 0.36284 0.41218 0.14608
 H211 H 0.35505 0.11513 0.30542
 H212 H 0.39682 0.17792 0.22259
 C213 C -0.16603 0.68551 0.34433
 C214 C -0.13598 0.64620 0.32720
 C215 C -0.11698 0.69776 0.24727
 C216 C -0.08523 0.67764 0.24146
 H217 H -0.12410 0.58146 0.37365
 H218 H -0.12815 0.76242 0.19851
 H219 H -0.17607 0.74675 0.29163
 H220 H -0.07410 0.61658 0.29274
 C221 C 0.66107 0.77344 0.37920
 C222 C 0.63076 0.81851 0.37845
 C223 C 0.60557 0.78872 0.30633
 C224 C 0.60809 0.70176 0.23687
 H225 H 0.62287 0.88240 0.43338
 H226 H 0.58274 0.83539 0.31589
 H227 H 0.66890 0.72204 0.31798
 H228 H 0.63048 0.65345 0.22517
 C229 C 0.16203 1.23708 0.30255
 C230 C 0.13492 1.29889 0.28341
 C231 C 0.11650 1.26638 0.19694
 C232 C 0.08882 1.32297 0.17701
 H233 H 0.12578 1.37009 0.33179
 H234 H 0.12332 1.18251 0.15626
 H235 H 0.17082 1.17390 0.24819
 H236 H 0.08140 1.40324 0.22040
 C237 C 0.64976 0.19845 -0.34968
 C238 C 0.65748 0.27677 -0.27614
 C239 C 0.63330 0.31602 -0.20543
 C240 C 0.60435 0.25290 -0.19211
 H241 H 0.68103 0.32828 -0.27266
 H242 H 0.63904 0.40547 -0.16696
 H243 H 0.62440 0.16762 -0.35844
 H244 H 0.59794 0.16352 -0.22941
 C245 C 0.17147 0.92023 -0.34082
 C246 C 0.14556 0.84411 -0.31923
 C247 C 0.12542 0.87307 -0.23769
 C248 C 0.09926 0.79647 -0.21905
 H249 H 0.13846 0.76243 -0.36458
 H250 H 0.13018 0.96286 -0.19880
 H251 H 0.17974 0.99714 -0.29316
 H252 H 0.09464 0.70830 -0.26013
 C253 C 0.34063 0.79203 -0.32219
 C254 C 0.37231 0.81682 -0.30495
 C255 C 0.38851 0.76429 -0.22240
 C256 C 0.41923 0.80404 -0.20422
 H257 H 0.38702 0.87540 -0.35332
 H258 H 0.37671 0.68532 -0.18324
 H259 H 0.32615 0.74513 -0.26752
 H260 H 0.43036 0.88269 -0.24534
 C261 C -0.17333 1.23380 -0.33012
 C262 C -0.14250 1.19772 -0.32579
 C263 C -0.12267 1.20917 -0.24146
 C264 C -0.12051 1.10665 -0.18568
 H265 H -0.13081 1.15365 -0.38517
 H266 H -0.10368 1.28615 -0.24065
 H267 H -0.18448 1.26450 -0.26558
 H268 H -0.13918 1.02839 -0.18769
 C269 C 0.67152 0.80225 -0.28285
 C270 C 0.64536 0.87491 -0.27214
 C271 C 0.62016 0.85520 -0.19944
 C272 C 0.61947 0.75684 -0.13887
 H273 H 0.63922 0.94220 -0.32610
 H274 H 0.59867 0.91089 -0.20770
 H275 H 0.67916 0.74718 -0.22397
 H276 H 0.64058 0.70037 -0.12797
 C277 C 0.15916 1.25236 -0.35466
 C278 C 0.12818 1.28734 -0.34478
 C279 C 0.10967 1.25450 -0.25791
 C280 C 0.07844 1.28357 -0.24765
 H281 H 0.11575 1.33556 -0.40035
 H282 H 0.12082 1.19508 -0.20576
 H283 H 0.16955 1.21306 -0.29242
 H284 H 0.06729 1.34134 -0.30088
 C285 C 0.33370 0.18746 -0.34458
 C286 C 0.35903 0.27337 -0.33727
 C287 C 0.37954 0.28839 -0.25299
 C288 C 0.40772 0.35761 -0.26020
 H289 H 0.36515 0.33489 -0.39684
 H290 H 0.37258 0.24027 -0.18820
 H291 H 0.32637 0.12699 -0.28561
 H292 H 0.41509 0.39709 -0.32766
 C293 C -0.16019 0.61584 -0.31961
 C294 C -0.15693 0.70966 -0.25429
 C295 C -0.13178 0.71807 -0.18053
 C296 C -0.10171 0.67378 -0.18969
 H297 H -0.17290 0.79020 -0.25629
 H298 H -0.13677 0.78403 -0.12339
 H299 H -0.14359 0.53740 -0.32076
 H300 H -0.09569 0.61491 -0.24982
 C301 C 0.34968 0.81398 0.33638
 C302 C 0.38035 0.86603 0.33410
 C303 C 0.40627 0.82673 0.26950
 C304 C 0.40231 0.73707 0.20146
 H305 H 0.38820 0.93398 0.38893
 H306 H 0.43050 0.86835 0.28408
 H307 H 0.34060 0.74910 0.28154
 H308 H 0.37836 0.69651 0.18327
 C309 C -0.16920 1.22234 0.33102
 C310 C -0.13952 1.28505 0.32697
 C311 C -0.11369 1.26006 0.25796
 C312 C -0.11197 1.14824 0.21036
 H313 H -0.13266 1.35836 0.37870
 H314 H -0.09335 1.33114 0.25512
 H315 H -0.17713 1.16474 0.27102
 H316 H -0.13184 1.07528 0.21360
 C317 C 0.65241 0.13121 0.31905
 C318 C 0.65360 0.22755 0.25712
 C319 C 0.62780 0.24924 0.18800
 C320 C 0.59632 0.20649 0.19634
 H321 H 0.67324 0.30160 0.26125
 H322 H 0.63456 0.32048 0.13511
 H323 H 0.63214 0.06069 0.31717
 H324 H 0.58863 0.13899 0.25059
 C325 C 0.17132 0.85603 0.31611
 C326 C 0.14412 0.77723 0.31533
 C327 C 0.11708 0.77707 0.24641
 C328 C 0.11473 0.86033 0.17523
 H329 H 0.13959 0.71405 0.37486
 H330 H 0.09635 0.71166 0.26218
 H331 H 0.17779 0.91686 0.25692
 H332 H 0.13511 0.92623 0.15759
   
