data_POSCAR
  _audit_creation_date              2014-09-24
  _audit_creation_method            'ToBaCCo'
  _symmetry_space_group_name_H-M    'P1'
  _symmetry_Int_Tables_number       1
  _symmetry_cell_setting            triclinic
  loop_
  _symmetry_equiv_pos_as_xyz
 x,y,z
_cell_length_a 43.0902
_cell_length_b 26.5689
_cell_length_c 14.2642
_cell_angle_alpha 90.000600
_cell_angle_beta 89.999200
_cell_angle_gamma 89.999100
loop_
  _atom_site_label
  _atom_site_type_symbol
  _atom_site_fract_x
  _atom_site_fract_y
  _atom_site_fract_z
C1 C 0.72540 0.27109 0.55144
 C2 C 0.72564 0.27108 0.45250
 C3 C 0.75070 0.24988 0.40407
 C4 C 0.77563 0.22858 0.45313
 C5 C 0.77540 0.22850 0.55228
 C6 C 0.75029 0.24978 0.60069
 H7 H 0.75012 0.24974 0.67682
 H8 H 0.75076 0.25000 0.32797
 C9 C 0.22573 0.77132 0.55214
 C10 C 0.22550 0.77123 0.45334
 C11 C 0.25029 0.74976 0.40411
 C12 C 0.27530 0.72833 0.45248
 C13 C 0.27555 0.72832 0.55146
 C14 C 0.25072 0.74988 0.60068
 H15 H 0.25078 0.75000 0.67676
 H16 H 0.25011 0.74971 0.32806
 C17 C 0.27414 0.27067 -0.54985
 C18 C 0.27403 0.27091 -0.45107
 C19 C 0.24901 0.24987 -0.40212
 C20 C 0.22401 0.22850 -0.45079
 C21 C 0.22413 0.22826 -0.54997
 C22 C 0.24921 0.24937 -0.59872
 H23 H 0.24938 0.24926 -0.67481
 H24 H 0.24907 0.25015 -0.32603
 C25 C -0.22609 0.77126 -0.54982
 C26 C -0.22597 0.77100 -0.45104
 C27 C -0.25078 0.74935 -0.40217
 C28 C -0.27575 0.72790 -0.45091
 C29 C -0.27588 0.72816 -0.55008
 C30 C -0.25099 0.74988 -0.59876
 H31 H -0.25095 0.75018 -0.67485
 H32 H -0.25060 0.74922 -0.32608
 N33 N 0.03240 1.05492 0.16675
 N34 N 0.05611 1.06083 0.22416
 N35 N -0.03293 1.09001 0.10203
 N36 N -0.05657 1.12097 0.11416
 N37 N -0.03289 1.05492 0.16682
 N38 N -0.05647 1.06100 0.22469
 N39 N 0.03242 1.08998 0.10192
 N40 N 0.05617 1.12075 0.11353
 C41 C 0.07074 1.10208 0.19018
 C42 C -0.07107 1.10237 0.19106
 N43 N -0.03287 1.05494 -0.16479
 N44 N -0.05662 1.06084 -0.22211
 N45 N 0.03247 1.09001 -0.10006
 N46 N 0.05613 1.12093 -0.11207
 N47 N 0.03243 1.05493 -0.16487
 N48 N 0.05604 1.06099 -0.22264
 N49 N -0.03288 1.08999 -0.09994
 N50 N -0.05665 1.12074 -0.11144
 Mn51 Mn -0.00023 1.09066 0.00099
 C52 C -0.07125 1.10208 -0.18805
 C53 C 0.07065 1.10234 -0.18893
 N54 N -0.03287 0.94665 0.16675
 N55 N -0.05660 0.94071 0.22412
 N56 N 0.03246 0.91159 0.10199
 N57 N 0.05610 0.88063 0.11403
 N58 N 0.03242 0.94665 0.16682
 N59 N 0.05602 0.94055 0.22465
 N60 N -0.03288 0.91161 0.10188
 N61 N -0.05662 0.88084 0.11339
 Mn62 Mn -0.00023 1.00079 0.16790
 C63 C -0.07121 0.89946 0.19004
 C64 C 0.07061 0.89919 0.19093
 N65 N 0.03241 0.94663 -0.16480
 N66 N 0.05617 0.94071 -0.22208
 N67 N -0.03292 0.91158 -0.10001
 N68 N -0.05658 0.88064 -0.11194
 N69 N -0.03290 0.94664 -0.16486
 N70 N -0.05652 0.94053 -0.22261
 N71 N 0.03241 0.91161 -0.09991
 N72 N 0.05618 0.88086 -0.11131
 Mn73 Mn -0.00023 1.00079 -0.16596
 Mn74 Mn -0.00023 0.91095 0.00099
 Cl75 Cl -0.00023 1.00080 0.00097
 C76 C 0.07079 0.89948 -0.18792
 C77 C -0.07111 0.89919 -0.18880
 N78 N 0.53294 0.58840 -0.10281
 N79 N 0.55667 0.61921 -0.11440
 N80 N 0.46761 0.55339 -0.16771
 N81 N 0.44393 0.55949 -0.22529
 N82 N 0.46761 0.58842 -0.10281
 N83 N 0.44392 0.61932 -0.11453
 N84 N 0.53293 0.55336 -0.16767
 N85 N 0.55664 0.55932 -0.22510
 C86 C 0.57125 0.60058 -0.19107
 C87 C 0.42934 0.60081 -0.19131
 N88 N 0.46766 0.41001 -0.10283
 N89 N 0.44389 0.37928 -0.11435
 N90 N 0.53299 0.44504 -0.16772
 N91 N 0.55668 0.43899 -0.22527
 N92 N 0.53301 0.40999 -0.10283
 N93 N 0.55672 0.37913 -0.11455
 N94 N 0.46768 0.44506 -0.16769
 N95 N 0.44394 0.43917 -0.22504
 Mn96 Mn 0.50030 0.49921 -0.16884
 C97 C 0.42931 0.39794 -0.19099
 C98 C 0.57129 0.39769 -0.19132
 N99 N 0.46766 0.58840 0.09910
 N100 N 0.44396 0.61924 0.11091
 N101 N 0.53297 0.55335 0.16393
 N102 N 0.55658 0.55947 0.22174
 N103 N 0.53300 0.58842 0.09911
 N104 N 0.55664 0.61939 0.11113
 N105 N 0.46769 0.55332 0.16389
 N106 N 0.44403 0.55928 0.22148
 Mn107 Mn 0.50030 0.58906 -0.00186
 C108 C 0.42942 0.60057 0.18764
 C109 C 0.57116 0.60083 0.18800
 N110 N 0.53295 0.41002 0.09913
 N111 N 0.55667 0.37922 0.11095
 N112 N 0.46763 0.44508 0.16394
 N113 N 0.44399 0.43904 0.22166
 N114 N 0.46759 0.41000 0.09913
 N115 N 0.44391 0.37911 0.11106
 N116 N 0.53290 0.44511 0.16391
 N117 N 0.55657 0.43919 0.22149
 Mn118 Mn 0.50030 0.40935 -0.00186
 Mn119 Mn 0.50030 0.49921 0.16502
 Cl120 Cl 0.50030 0.49921 -0.00190
 C121 C 0.57120 0.39791 0.18768
 C122 C 0.42938 0.39771 0.18789
 C123 C 0.34805 0.33314 0.31311
 C124 C 0.36140 0.31060 0.23407
 C125 C 0.38778 0.33180 0.19263
 C126 C 0.29973 0.29222 0.39842
 C127 C 0.38742 0.39829 0.30901
 C128 C 0.36105 0.37712 0.35015
 C129 C 0.32155 0.31065 0.35812
 C130 C 0.40114 0.37570 0.23010
 H131 H 0.35156 0.27649 0.20492
 H132 H 0.39784 0.31365 0.13181
 H133 H 0.39715 0.43220 0.33924
 H134 H 0.35089 0.39490 0.41120
 C135 C -0.15265 0.83485 0.31357
 C136 C -0.13918 0.81238 0.23471
 C137 C -0.11276 0.83365 0.19376
 C138 C -0.20072 0.79331 0.39852
 C139 C -0.11338 0.90010 0.31028
 C140 C -0.13980 0.87886 0.35093
 C141 C -0.17903 0.81210 0.35833
 C142 C -0.09951 0.87753 0.23162
 H143 H -0.14892 0.77824 0.20540
 H144 H -0.10258 0.81555 0.13310
 H145 H -0.10372 0.93400 0.34074
 H146 H -0.15007 0.89655 0.41190
 C147 C 0.65217 0.66600 0.31397
 C148 C 0.63936 0.62176 0.35058
 C149 C 0.61310 0.60038 0.30915
 C150 C 0.70009 0.70746 0.40039
 C151 C 0.61251 0.66713 0.19329
 C152 C 0.63877 0.68855 0.23503
 C153 C 0.67846 0.68878 0.35950
 C154 C 0.59931 0.62300 0.23038
 H155 H 0.64955 0.60397 0.41155
 H156 H 0.60351 0.56630 0.33909
 H157 H 0.60239 0.68530 0.13258
 H158 H 0.64846 0.72285 0.20623
 C159 C 0.15213 1.16645 0.31451
 C160 C 0.13931 1.12228 0.35128
 C161 C 0.11291 1.10113 0.31034
 C162 C 0.20011 1.20766 0.40053
 C163 C 0.11226 1.16799 0.19463
 C164 C 0.13865 1.18917 0.23589
 C165 C 0.17847 1.18908 0.35974
 C166 C 0.09904 1.12394 0.23194
 H167 H 0.14958 1.10439 0.41204
 H168 H 0.10328 1.06710 0.34039
 H169 H 0.10206 1.18628 0.13419
 H170 H 0.14837 1.22344 0.20704
 C171 C 0.65279 0.33292 -0.31530
 C172 C 0.63934 0.31052 -0.23630
 C173 C 0.61290 0.33180 -0.19529
 C174 C 0.70115 0.29170 -0.40001
 C175 C 0.61341 0.39811 -0.31202
 C176 C 0.63984 0.37686 -0.35273
 C177 C 0.67932 0.31029 -0.35993
 C178 C 0.59958 0.37565 -0.23315
 H179 H 0.64913 0.27645 -0.20685
 H180 H 0.60277 0.31375 -0.13450
 H181 H 0.60372 0.43196 -0.34255
 H182 H 0.65008 0.39453 -0.41377
 C183 C 0.15233 0.83488 -0.31093
 C184 C 0.13948 0.87886 -0.34842
 C185 C 0.11303 0.90011 -0.30795
 C186 C 0.20041 0.79331 -0.39587
 C187 C 0.11237 0.83371 -0.19133
 C188 C 0.13882 0.81244 -0.23211
 C189 C 0.17873 0.81209 -0.35562
 C190 C 0.09913 0.87757 -0.22932
 H191 H 0.14978 0.89653 -0.40937
 H192 H 0.10338 0.93399 -0.33851
 H193 H 0.10216 0.81562 -0.13069
 H194 H 0.14855 0.77831 -0.20270
 C195 C 0.34796 0.66593 -0.31527
 C196 C 0.36143 0.68823 -0.23621
 C197 C 0.38782 0.66683 -0.19521
 C198 C 0.29972 0.70751 -0.39998
 C199 C 0.38724 0.60058 -0.31207
 C200 C 0.36084 0.62196 -0.35278
 C201 C 0.32149 0.68874 -0.35992
 C202 C 0.40108 0.62295 -0.23314
 H203 H 0.35169 0.72233 -0.20671
 H204 H 0.39797 0.68480 -0.13437
 H205 H 0.39688 0.56671 -0.34265
 H206 H 0.35059 0.60438 -0.41388
 C207 C -0.15270 1.16653 -0.31189
 C208 C -0.13918 1.18921 -0.23331
 C209 C -0.11276 1.16799 -0.19221
 C210 C -0.20064 1.20788 -0.39794
 C211 C -0.11349 1.10118 -0.30800
 C212 C -0.13991 1.12237 -0.34878
 C213 C -0.17903 1.18925 -0.35707
 C214 C -0.09957 1.12396 -0.22965
 H215 H -0.14886 1.22349 -0.20438
 H216 H -0.10253 1.18626 -0.13180
 H217 H -0.10389 1.06716 -0.33814
 H218 H -0.15021 1.10451 -0.40952
 C219 C 0.65250 0.66536 -0.31535
 C220 C 0.63900 0.68797 -0.23668
 C221 C 0.61266 0.66663 -0.19542
 C222 C 0.70033 0.70701 -0.40142
 C223 C 0.61341 0.59984 -0.31126
 C224 C 0.63976 0.62114 -0.35219
 C225 C 0.67876 0.68820 -0.36062
 C226 C 0.59950 0.62255 -0.23281
 H227 H 0.64865 0.72228 -0.20778
 H228 H 0.60243 0.68485 -0.13493
 H229 H 0.60384 0.56579 -0.34135
 H230 H 0.65006 0.60334 -0.41301
 C231 C 0.15181 1.16707 -0.31487
 C232 C 0.13843 1.18973 -0.23600
 C233 C 0.11211 1.16847 -0.19426
 C234 C 0.19988 1.20809 -0.40126
 C235 C 0.11260 1.10166 -0.31002
 C236 C 0.13891 1.12289 -0.35143
 C237 C 0.17818 1.18964 -0.36036
 C238 C 0.09885 1.12439 -0.23130
 H239 H 0.14819 1.22400 -0.20723
 H240 H 0.10202 1.18672 -0.13360
 H241 H 0.10295 1.06762 -0.33991
 H242 H 0.14909 1.10501 -0.41235
 C243 C 0.34774 0.33374 -0.31451
 C244 C 0.36068 0.37769 -0.35183
 C245 C 0.38714 0.39878 -0.31119
 C246 C 0.29950 0.29265 -0.39940
 C247 C 0.38765 0.33227 -0.19477
 C248 C 0.36118 0.31116 -0.23571
 C249 C 0.32127 0.31120 -0.35922
 C250 C 0.40098 0.37611 -0.23257
 H251 H 0.35043 0.39546 -0.41274
 H252 H 0.39685 0.43264 -0.34162
 H253 H 0.39781 0.31410 -0.13414
 H254 H 0.35138 0.27706 -0.20642
 C255 C -0.15230 0.83419 -0.31400
 C256 C -0.13893 0.81177 -0.23489
 C257 C -0.11260 0.83312 -0.19345
 C258 C -0.20047 0.79284 -0.39933
 C259 C -0.11305 0.89955 -0.30997
 C260 C -0.13939 0.87822 -0.35111
 C261 C -0.17872 0.81149 -0.35904
 C262 C -0.09931 0.87706 -0.23100
 H263 H -0.14871 0.77763 -0.20569
 H264 H -0.10252 0.81506 -0.13258
 H265 H -0.10338 0.93348 -0.34026
 H266 H -0.14956 0.89591 -0.41223
 C267 C 0.34834 0.66516 0.31315
 C268 C 0.36173 0.68790 0.23443
 C269 C 0.38803 0.66664 0.19274
 C270 C 0.30054 0.70649 0.39979
 C271 C 0.38742 0.59967 0.30824
 C272 C 0.36113 0.62090 0.34960
 C273 C 0.32210 0.68785 0.35878
 C274 C 0.40122 0.62251 0.22975
 H275 H 0.35203 0.72225 0.20583
 H276 H 0.39817 0.68495 0.13223
 H277 H 0.39703 0.56557 0.33805
 H278 H 0.35091 0.60299 0.41043
 C279 C -0.15212 1.16712 0.31751
 C280 C -0.13922 1.12293 0.35395
 C281 C -0.11294 1.10170 0.31237
 C282 C -0.20020 1.20811 0.40389
 C283 C -0.11250 1.16855 0.19669
 C284 C -0.13879 1.18981 0.23859
 C285 C -0.17848 1.18966 0.36308
 C286 C -0.09923 1.12444 0.23360
 H287 H -0.14936 1.10503 0.41489
 H288 H -0.10328 1.06764 0.34217
 H289 H -0.10244 1.18681 0.13600
 H290 H -0.14856 1.22408 0.20991
 C291 C 0.65239 0.33367 0.31323
 C292 C 0.63953 0.37789 0.34963
 C293 C 0.61320 0.39899 0.30827
 C294 C 0.70031 0.29268 0.39983
 C295 C 0.61268 0.33196 0.19286
 C296 C 0.63902 0.31083 0.23456
 C297 C 0.67868 0.31115 0.35883
 C298 C 0.59942 0.37606 0.22981
 H299 H 0.64972 0.39586 0.41042
 H300 H 0.60354 0.43306 0.33803
 H301 H 0.60256 0.31360 0.13238
 H302 H 0.64877 0.27652 0.20599
 C303 C 0.15173 0.83427 0.31660
 C304 C 0.13841 0.81181 0.23746
 C305 C 0.11209 0.83312 0.19587
 C306 C 0.19994 0.79306 0.40193
 C307 C 0.11247 0.89960 0.31230
 C308 C 0.13879 0.87830 0.35360
 C309 C 0.17816 0.81166 0.36170
 C310 C 0.09878 0.87708 0.23329
 H311 H 0.14821 0.77767 0.20834
 H312 H 0.10205 0.81504 0.13497
 H313 H 0.10278 0.93353 0.34250
 H314 H 0.14893 0.89603 0.41473
   
