data_POSCAR
  _audit_creation_date              2014-09-24
  _audit_creation_method            'ToBaCCo'
  _symmetry_space_group_name_H-M    'P1'
  _symmetry_Int_Tables_number       1
  _symmetry_cell_setting            triclinic
  loop_
  _symmetry_equiv_pos_as_xyz
 x,y,z
_cell_length_a 17.4874
_cell_length_b 17.4848
_cell_length_c 17.5351
_cell_angle_alpha 90.172000
_cell_angle_beta 90.128500
_cell_angle_gamma 89.996600
loop_
  _atom_site_label
  _atom_site_type_symbol
  _atom_site_fract_x
  _atom_site_fract_y
  _atom_site_fract_z
O1 O 0.42578 0.93844 -0.57261
 O2 O 0.57309 0.93756 -0.42183
 O3 O 0.42430 0.93876 -0.42601
 O4 O 0.57616 0.93246 -0.57057
 O5 O 0.57469 1.05865 -0.57766
 O6 O 0.43223 1.06491 -0.42305
 O7 O 0.58127 1.06335 -0.42919
 O8 O 0.42782 1.06486 -0.57297
 Cu9 Cu 0.49985 0.92405 -0.49774
 Cu10 Cu 0.50425 1.07570 -0.50063
 C11 C 0.40132 1.00197 -0.59779
 C12 C 0.60280 1.00040 -0.40029
 C13 C 0.40312 1.00278 -0.39935
 C14 C 0.60015 0.99432 -0.59969
 O15 O -0.57659 1.42712 0.06585
 O16 O -0.42868 1.57662 0.06275
 O17 O -0.57631 1.57631 0.06082
 O18 O -0.42673 1.42790 0.06303
 O19 O -0.43469 1.41812 -0.06242
 O20 O -0.57187 1.57778 -0.06501
 O21 O -0.42212 1.56667 -0.06274
 O22 O -0.58214 1.42916 -0.05995
 Cu23 Cu -0.50212 1.50197 0.07582
 Cu24 Cu -0.50279 1.49793 -0.07523
 C25 C -0.60554 1.40347 0.00360
 C26 C -0.39929 1.59605 -0.00034
 C27 C -0.59855 1.60342 -0.00264
 C28 C -0.40627 1.39697 0.00068
 O29 O -0.06544 0.42888 0.42681
 O30 O -0.05979 0.57864 0.57489
 O31 O -0.06311 0.57794 0.42791
 O32 O -0.06620 0.43066 0.57719
 O33 O 0.06011 0.42604 0.57592
 O34 O 0.06282 0.56912 0.42205
 O35 O 0.06643 0.57578 0.57230
 O36 O 0.06069 0.42080 0.42991
 Cu37 Cu -0.07640 0.50406 0.50170
 Cu38 Cu 0.07531 0.49813 0.50016
 C39 C -0.00336 0.39895 0.40379
 C40 C 0.00443 0.60311 0.59851
 C41 C 0.00022 0.59810 0.39921
 C42 C -0.00365 0.40355 0.60207
 O43 O -0.19569 0.99652 -0.10550
 O44 O 0.19836 1.00715 -0.10151
 O45 O -0.00021 1.10574 -0.19511
 O46 O 0.00588 0.89944 -0.19887
 O47 O 0.00938 0.80467 -0.10746
 O48 O -0.00958 1.19765 -0.10068
 O49 O 0.10565 1.00022 -0.19528
 O50 O -0.10166 1.00374 -0.19756
 Zr51 Zr 0.00152 1.00170 -0.13462
 O52 O 0.07260 0.93352 -0.07023
 O53 O -0.07047 1.06845 -0.06935
 C54 C -0.17236 1.00082 -0.17550
 C55 C 0.17604 1.00347 -0.17203
 C56 C -0.00605 1.17582 -0.17141
 C57 C 0.00904 0.82863 -0.17735
 H58 H 0.09972 1.10590 -0.09902
 O59 O 0.06783 1.07190 -0.06733
 H60 H -0.09778 0.89696 -0.10447
 O61 O -0.06613 0.92997 -0.07117
 O62 O 0.19605 1.00839 0.10506
 O63 O -0.19717 0.99390 0.10069
 O64 O 0.09783 1.20006 0.00543
 O65 O 0.10980 0.80634 -0.00607
 O66 O -0.09759 0.80000 -0.00423
 O67 O -0.10842 1.19395 0.00238
 O68 O 0.00071 1.10006 0.19754
 O69 O -0.00302 0.89288 0.19322
 O70 O -0.00530 1.19490 0.10627
 O71 O 0.00488 0.80090 0.09879
 O72 O 0.19397 1.10942 0.00580
 O73 O -0.19909 1.09827 -0.00525
 O74 O -0.19304 0.89119 0.00148
 O75 O 0.20054 0.90241 -0.00263
 O76 O 0.10231 0.99823 0.19704
 O77 O -0.10428 0.99018 0.19447
 Zr78 Zr 0.13510 1.00407 0.00094
 Zr79 Zr -0.13405 0.99633 -0.00182
 Zr80 Zr -0.00360 1.13445 0.00190
 Zr81 Zr 0.00442 0.86514 -0.00318
 Zr82 Zr -0.00044 0.99739 0.13355
 O83 O -0.06742 0.92730 0.06650
 O84 O 0.06729 1.07031 0.07079
 C85 C 0.17286 1.00430 0.17516
 C86 C -0.17476 0.99043 0.17118
 C87 C 0.16901 1.17925 0.00686
 C88 C 0.17964 0.83124 -0.00542
 C89 C -0.16866 0.82117 -0.00060
 C90 C -0.17824 1.16943 -0.00181
 C91 C -0.00222 1.17101 0.17617
 C92 C 0.00020 0.82267 0.16945
 H93 H -0.10446 1.09689 0.10190
 O94 O -0.07083 1.06571 0.06894
 H95 H 0.10432 0.89938 0.09970
 O96 O 0.07104 0.93169 0.06750
 N97 N 0.34427 1.05460 0.28602
 C98 C 0.34176 1.00283 0.34350
 N99 N 0.28318 0.95199 0.34571
 N100 N 0.22862 0.95330 0.29256
 C101 C 0.23158 1.00454 0.23465
 N102 N 0.29054 1.05490 0.23202
 N103 N -0.34699 1.03992 0.27978
 C104 C -0.34215 0.99178 0.34013
 N105 N -0.28251 0.94225 0.34427
 N106 N -0.22892 0.94169 0.29033
 C107 C -0.23417 0.98946 0.22965
 N108 N -0.29429 1.03829 0.22510
 N109 N -0.30458 1.06638 -0.32432
 C110 C -0.34061 1.00040 -0.34435
 N111 N -0.32058 0.93457 -0.30849
 N112 N -0.26695 0.93481 -0.25440
 C113 C -0.23094 1.00073 -0.23482
 N114 N -0.25043 1.06648 -0.27074
 N115 N 0.34847 1.05336 -0.28072
 C116 C 0.34381 1.00430 -0.34069
 N117 N 0.28402 0.95499 -0.34474
 N118 N 0.23017 0.95526 -0.29118
 C119 C 0.23520 1.00367 -0.23080
 N120 N 0.29536 1.05258 -0.22630
 N121 N 0.31287 1.31794 0.07185
 C122 C 0.33689 1.34851 0.00484
 N123 N 0.30436 1.32365 -0.06116
 N124 N 0.25008 1.27023 -0.06023
 C125 C 0.22646 1.23969 0.00667
 N126 N 0.25875 1.26426 0.07273
 N127 N 0.31765 0.68913 0.06262
 C128 C 0.34709 0.66158 -0.00362
 N129 N 0.32191 0.69137 -0.07067
 N130 N 0.26908 0.74633 -0.07138
 C131 C 0.23984 0.77355 -0.00507
 N132 N 0.26486 0.74403 0.06189
 N133 N -0.34155 0.71347 0.04906
 C134 C -0.33876 0.65388 -0.00059
 N135 N -0.27901 0.64872 -0.04966
 N136 N -0.22372 0.70125 -0.04873
 C137 C -0.22706 0.76130 0.00044
 N138 N -0.28713 0.76673 0.04896
 N139 N -0.35285 1.27690 -0.04819
 C140 C -0.34829 1.33666 0.00126
 N141 N -0.28800 1.34079 0.04990
 N142 N -0.23365 1.28744 0.04854
 C143 C -0.23846 1.22741 -0.00048
 N144 N -0.29924 1.22270 -0.04850
 N145 N 0.04419 1.27865 0.35041
 C146 C -0.00501 1.33854 0.34595
 N147 N -0.05359 1.34289 0.28569
 N148 N -0.05240 1.28951 0.23130
 C149 C -0.00358 1.22933 0.23606
 N150 N 0.04431 1.22447 0.29682
 N151 N 0.04572 1.28589 -0.34141
 C152 C -0.00473 1.34475 -0.33879
 N153 N -0.05591 1.34803 -0.28074
 N154 N -0.05603 1.29457 -0.22668
 C155 C -0.00602 1.23527 -0.22984
 N156 N 0.04458 1.23167 -0.28827
 N157 N 0.07385 0.68675 -0.31796
 C158 C 0.00632 0.66026 -0.34610
 N159 N -0.05987 0.69015 -0.31865
 N160 N -0.05870 0.74430 -0.26513
 C161 C 0.00867 0.77046 -0.23705
 N162 N 0.07500 0.74087 -0.26422
 N163 N 0.04977 0.65098 0.27962
 C164 C 0.00057 0.65607 0.33921
 N165 N -0.04924 0.71550 0.34210
 N166 N -0.04919 0.76867 0.28789
 C167 C -0.00055 0.76327 0.22796
 N168 N 0.04879 0.70340 0.22455
   
