data_POSCAR
  _audit_creation_date              2014-09-24
  _audit_creation_method            'ToBaCCo'
  _symmetry_space_group_name_H-M    'P1'
  _symmetry_Int_Tables_number       1
  _symmetry_cell_setting            triclinic
  loop_
  _symmetry_equiv_pos_as_xyz
 x,y,z
_cell_length_a 32.6479
_cell_length_b 32.7115
_cell_length_c 29.4169
_cell_angle_alpha 91.006300
_cell_angle_beta 90.087600
_cell_angle_gamma 88.569800
loop_
  _atom_site_label
  _atom_site_type_symbol
  _atom_site_fract_x
  _atom_site_fract_y
  _atom_site_fract_z
C1 C 0.58364 0.62888 0.65815
 C2 C 0.54986 0.65626 0.65718
 C3 C 0.55075 0.69153 0.63075
 C4 C 0.58542 0.69896 0.60408
 C5 C 0.61897 0.67132 0.60364
 C6 C 0.61819 0.63630 0.63102
 C7 C 0.58353 0.59447 0.68611
 C8 C 0.61803 0.56755 0.68794
 C9 C 0.65190 0.57503 0.66001
 C10 C 0.65195 0.60864 0.63118
 C11 C 0.68526 0.61488 0.60234
 C12 C 0.68559 0.64892 0.57390
 C13 C 0.65300 0.67768 0.57568
 H14 H 0.52303 0.65055 0.67759
 H15 H 0.58580 0.72563 0.58275
 H16 H 0.55716 0.59012 0.70751
 H17 H 0.67848 0.55444 0.66052
 H18 H 0.71096 0.59323 0.60184
 H19 H 0.65350 0.70415 0.55403
 C20 C 0.92551 0.37097 0.14792
 C21 C 0.95562 0.33975 0.15090
 C22 C 0.95110 0.30223 0.12709
 C23 C 0.91594 0.29666 0.10018
 C24 C 0.88661 0.32828 0.09523
 C25 C 0.89119 0.36546 0.11948
 C26 C 0.92873 0.40731 0.17368
 C27 C 0.89774 0.43777 0.17201
 C28 C 0.86460 0.43289 0.14194
 C29 C 0.86124 0.39702 0.11559
 C30 C 0.82821 0.39208 0.08566
 C31 C 0.82436 0.35565 0.06003
 C32 C 0.85294 0.32346 0.06605
 H33 H 0.98140 0.34432 0.17343
 H34 H 0.91199 0.26798 0.08178
 H35 H 0.95462 0.41133 0.19632
 H36 H 0.84138 0.45697 0.13908
 H37 H 0.80529 0.41643 0.08270
 H38 H 0.84959 0.29510 0.04691
 C39 C 0.41569 0.13810 -0.15578
 C40 C 0.44422 0.16955 -0.15551
 C41 C 0.43898 0.20363 -0.12609
 C42 C 0.40563 0.20572 -0.09612
 C43 C 0.37773 0.17390 -0.09484
 C44 C 0.38234 0.14030 -0.12530
 C45 C 0.41940 0.10505 -0.18673
 C46 C 0.38927 0.07500 -0.18919
 C47 C 0.35675 0.07695 -0.15751
 C48 C 0.35338 0.10909 -0.12549
 C49 C 0.32124 0.11059 -0.09383
 C50 C 0.31753 0.14314 -0.06202
 C51 C 0.34531 0.17515 -0.06360
 H52 H 0.46964 0.16827 -0.17920
 H53 H 0.40176 0.23199 -0.07338
 H54 H 0.44490 0.10374 -0.21037
 H55 H 0.33440 0.05311 -0.15655
 H56 H 0.29889 0.08668 -0.09461
 H57 H 0.34208 0.20075 -0.03983
 C58 C 0.09641 0.84625 0.32636
 C59 C 0.07032 0.81288 0.32429
 C60 C 0.06534 0.78775 0.36215
 C61 C 0.09002 0.79424 0.40101
 C62 C 0.11767 0.82641 0.40275
 C63 C 0.11980 0.85336 0.36595
 C64 C 0.09856 0.87335 0.28999
 C65 C 0.12232 0.90838 0.29365
 C66 C 0.14580 0.91523 0.33297
 C67 C 0.14517 0.88761 0.36883
 C68 C 0.16946 0.89370 0.40753
 C69 C 0.16949 0.86560 0.44299
 C70 C 0.14302 0.83234 0.44085
 H71 H 0.05205 0.80791 0.29394
 H72 H 0.08858 0.77398 0.42964
 H73 H 0.08049 0.86818 0.25956
 H74 H 0.16479 0.94191 0.33536
 H75 H 0.18932 0.91977 0.40957
 H76 H 0.14184 0.81141 0.46895
 N77 N 0.10089 0.19687 0.13415
 N78 N 0.07301 0.17602 0.15532
 C79 C 0.03933 0.19993 0.16181
 C80 C 0.04702 0.23801 0.14459
 C81 C 0.08647 0.23527 0.12779
 H82 H 0.01159 0.19058 0.17833
 H83 H 0.10279 0.25881 0.11050
 Cu84 Cu 0.08463 0.12057 0.17474
 Cu85 Cu 0.15207 0.17101 0.11323
 Cu86 Cu 0.15113 0.06474 0.11192
 N87 N 0.10295 0.06648 0.19327
 N88 N 0.12737 0.04356 0.16740
 C89 C 0.13447 0.00748 0.18771
 C90 C 0.11399 0.00843 0.22891
 C91 C 0.09453 0.04633 0.23145
 H92 H 0.15470 -0.01664 0.17462
 H93 H 0.07598 0.05846 0.25923
 N94 N 0.18767 0.09616 0.07336
 N95 N 0.18929 0.13644 0.07542
 C96 C 0.21764 0.14878 0.04582
 C97 C 0.23476 0.11450 0.02424
 C98 C 0.21510 0.08174 0.04258
 H99 H 0.22454 0.18040 0.03996
 H100 H 0.22044 0.04972 0.03417
 H101 H 0.11884 0.12036 0.10112
 H102 H 0.15582 0.11644 0.14935
 N103 N 0.41936 0.81429 0.61674
 N104 N 0.44167 0.84334 0.63476
 C105 C 0.47982 0.82841 0.64242
 C106 C 0.48131 0.78773 0.62903
 C107 C 0.44244 0.77972 0.61283
 H108 H 0.50455 0.84571 0.65702
 H109 H 0.43220 0.75135 0.59778
 Cu110 Cu 0.41863 0.89737 0.64871
 Cu111 Cu 0.36372 0.82468 0.59477
 Cu112 Cu 0.32149 0.92022 0.62025
 N113 N 0.38767 0.94138 0.67935
 N114 N 0.34893 0.94872 0.66953
 C115 C 0.33400 0.97855 0.69729
 C116 C 0.36514 0.99089 0.72572
 C117 C 0.39894 0.96676 0.71350
 H118 H 0.30278 0.99043 0.69679
 H119 H 0.42891 0.96664 0.72921
 N120 N 0.29324 0.87962 0.58274
 N121 N 0.30846 0.84251 0.57438
 C122 C 0.28284 0.82277 0.54603
 C123 C 0.25034 0.84892 0.53580
 C124 C 0.25779 0.88463 0.55993
 H125 H 0.28859 0.79258 0.53151
 H126 H 0.23949 0.91263 0.55985
 H127 H 0.36881 0.88622 0.58751
 H128 H 0.35075 0.86877 0.64405
 N129 N 0.92438 0.68346 0.40018
 N130 N 0.94259 0.66525 0.36492
 C131 C 0.97899 0.68264 0.35810
 C132 C 0.98414 0.71258 0.39116
 C133 C 0.94924 0.71208 0.41749
 H134 H 1.00022 0.67430 0.33113
 H135 H 0.94196 0.73214 0.44611
 Cu136 Cu 0.91794 0.62010 0.32986
 Cu137 Cu 0.86838 0.67088 0.41986
 Cu138 Cu 0.82171 0.59833 0.35885
 N139 N 0.88801 0.57649 0.29954
 N140 N 0.84989 0.56881 0.31009
 C141 C 0.83673 0.53782 0.28371
 C142 C 0.86836 0.52513 0.25536
 C143 C 0.90055 0.55035 0.26618
 H144 H 0.80667 0.52479 0.28566
 H145 H 0.93069 0.54985 0.25097
 N146 N 0.80110 0.61630 0.41783
 N147 N 0.81844 0.64588 0.44109
 C148 C 0.79662 0.65379 0.47924
 C149 C 0.76435 0.62712 0.48000
 C150 C 0.76832 0.60360 0.44081
 H151 H 0.80416 0.67652 0.50485
 H152 H 0.74847 0.57943 0.42956
 H153 H 0.88737 0.61598 0.39145
 H154 H 0.86860 0.65531 0.35084
 N155 N 0.58836 0.30662 -0.11331
 N156 N 0.56061 0.32961 -0.13382
 C157 C 0.52742 0.30721 -0.14273
 C158 C 0.53505 0.26803 -0.12731
 C159 C 0.57403 0.26862 -0.10914
 H160 H 0.50006 0.31841 -0.15970
 H161 H 0.59018 0.24359 -0.09285
 Cu162 Cu 0.57043 0.38620 -0.14888
 Cu163 Cu 0.63908 0.32874 -0.08965
 Cu164 Cu 0.66444 0.42300 -0.12947
 N165 N 0.58983 0.43414 -0.17985
 N166 N 0.62728 0.44705 -0.17369
 C167 C 0.63344 0.47903 -0.20069
 C168 C 0.59786 0.48675 -0.22496
 C169 C 0.57063 0.45796 -0.21063
 H170 H 0.66145 0.49593 -0.20193
 H171 H 0.53952 0.45414 -0.22238
 N172 N 0.69777 0.39371 -0.08437
 N173 N 0.68855 0.35725 -0.06952
 C174 C 0.71582 0.34621 -0.03726
 C175 C 0.74329 0.37747 -0.03159
 C176 C 0.73093 0.40699 -0.06190
 H177 H 0.71462 0.31844 -0.01797
 H178 H 0.74445 0.43652 -0.06618
 H179 H 0.62308 0.39007 -0.09075
 H180 H 0.64182 0.36541 -0.14549
 C181 C -0.02009 0.26967 0.13002
 C182 C 0.01896 0.27373 0.14316
 H183 H -0.02936 0.23962 0.11833
 H184 H 0.03183 0.30350 0.14906
 C185 C 0.51444 0.71940 0.63008
 C186 C 0.51758 0.76010 0.62983
 H187 H 0.48447 0.70606 0.63226
 H188 H 0.54747 0.77368 0.63189
 C189 C 1.03546 0.75750 0.35981
 C190 C 1.01816 0.74090 0.39626
 H191 H 1.02288 0.74985 0.32665
 H192 H 1.02534 0.75142 0.43034
 C193 C 0.46695 0.23829 -0.12734
 C194 C 0.50765 0.23301 -0.12866
 H195 H 0.45372 0.26889 -0.12359
 H196 H 0.52120 0.20245 -0.12777
 C197 C 0.12195 -0.06194 0.25651
 C198 C 0.11530 -0.02205 0.26502
 H199 H 0.12435 -0.07327 0.22176
 H200 H 0.10895 -0.01149 0.29948
 C201 C 0.62113 0.53444 -0.28214
 C202 C 0.59022 0.51942 -0.25799
 H203 H 0.65099 0.51945 -0.27884
 H204 H 0.55885 0.52970 -0.26296
 C205 C 0.39260 1.04420 0.77677
 C206 C 0.36111 1.02159 0.76264
 H207 H 0.42144 1.04052 0.75870
 H208 H 0.33044 1.02758 0.77530
 C209 C 0.90018 0.47400 0.20264
 C210 C 0.86671 0.49125 0.22188
 H211 H 0.93023 0.48437 0.21246
 H212 H 0.83690 0.47868 0.21501
 C213 C 0.28464 0.14521 -0.02731
 C214 C 0.26664 0.11206 -0.01120
 H215 H 0.27648 0.17507 -0.01313
 H216 H 0.27594 0.08182 -0.02330
 C217 C 0.71937 0.65407 0.54132
 C218 C 0.73269 0.62280 0.51492
 H219 H 0.73090 0.68443 0.53630
 H220 H 0.71805 0.59351 0.51689
 C221 C 0.79059 0.35054 0.02699
 C222 C 0.77656 0.38160 0.00185
 H223 H 0.77883 0.32019 0.02147
 H224 H 0.79056 0.41120 0.00488
 C225 C 0.19749 0.87212 0.48180
 C226 C 0.21800 0.84137 0.50184
 H227 H 0.20468 0.90341 0.49065
 H228 H 0.21367 0.81014 0.49030
   
