data_POSCAR
  _audit_creation_date              2014-09-24
  _audit_creation_method            'ToBaCCo'
  _symmetry_space_group_name_H-M    'P1'
  _symmetry_Int_Tables_number       1
  _symmetry_cell_setting            triclinic
  loop_
  _symmetry_equiv_pos_as_xyz
 x,y,z
_cell_length_a 40.0462
_cell_length_b 43.6078
_cell_length_c 44.3693
_cell_angle_alpha 89.471600
_cell_angle_beta 90.845000
_cell_angle_gamma 89.927900
loop_
  _atom_site_label
  _atom_site_type_symbol
  _atom_site_fract_x
  _atom_site_fract_y
  _atom_site_fract_z
N1 N 0.30820 0.37727 1.36792
 N2 N 0.31121 0.35134 1.38299
 C3 C 0.28566 0.34856 1.40215
 C4 C 0.26551 0.37443 1.39920
 C5 C 0.28104 0.39233 1.37744
 H6 H 0.28221 0.32903 1.41694
 H7 H 0.27236 0.41379 1.36777
 Cu8 Cu 0.34823 0.32369 1.37595
 Cu9 Cu 0.33765 0.38730 1.33468
 Cu10 Cu 0.37265 0.32182 1.30415
 N11 N 0.37863 0.29246 1.36213
 N12 N 0.38713 0.29095 1.33370
 C13 C 0.40549 0.26549 1.32965
 C14 C 0.40917 0.25035 1.35725
 C15 C 0.39182 0.26846 1.37734
 H16 H 0.41537 0.25876 1.30816
 H17 H 0.38751 0.26387 1.40093
 N18 N 0.36744 0.36084 1.28154
 N19 N 0.35523 0.38591 1.29367
 C20 C 0.35500 0.40864 1.27303
 C21 C 0.36773 0.39745 1.24644
 C22 C 0.37556 0.36706 1.25276
 H23 H 0.34590 0.43154 1.27715
 H24 H 0.38602 0.35057 1.23749
 H25 H 0.33276 0.34227 1.32572
 H26 H 0.37601 0.35377 1.33687
 N27 N 1.19936 0.64570 0.84962
 N28 N 1.18975 0.66621 0.86917
 C29 C 1.21318 0.66852 0.89109
 C30 C 1.23890 0.64817 0.88508
 C31 C 1.22908 0.63409 0.85847
 H32 H 1.21116 0.68348 0.91026
 H33 H 1.24206 0.61627 0.84658
 Cu34 Cu 1.14651 0.68644 0.86524
 Cu35 Cu 1.17153 0.63426 0.81528
 Cu36 Cu 1.11148 0.68845 0.79584
 N37 N 1.10872 0.71299 0.85554
 N38 N 1.09548 0.71405 0.82831
 C39 C 1.07194 0.73607 0.82710
 C40 C 1.07020 0.74981 0.85520
 C41 C 1.09390 0.73419 0.87272
 H42 H 1.05786 0.74191 0.80690
 H43 H 1.10116 0.73877 0.89579
 N44 N 1.12468 0.65504 0.76880
 N45 N 1.14800 0.63477 0.77610
 C46 C 1.15226 0.61562 0.75285
 C47 C 1.13014 0.62392 0.73000
 C48 C 1.11289 0.64887 0.74092
 H49 H 1.16991 0.59684 0.75266
 H50 H 1.09359 0.66183 0.72919
 H51 H 1.15962 0.67922 0.81232
 H52 H 1.12478 0.65388 0.82472
 N53 N 0.72496 -0.15980 0.18134
 N54 N 0.72554 -0.18112 0.16054
 C55 C 0.74385 -0.17085 0.13719
 C56 C 0.75472 -0.14147 0.14374
 C57 C 0.74230 -0.13530 0.17187
 H58 H 0.74769 -0.18311 0.11644
 H59 H 0.74519 -0.11425 0.18435
 Cu60 Cu 0.69953 -0.21883 0.16517
 Cu61 Cu 0.70124 -0.16416 0.21902
 Cu62 Cu 0.65036 -0.22742 0.22533
 N63 N 0.67296 -0.25609 0.17118
 N64 N 0.65536 -0.25936 0.19574
 C65 C 0.63803 -0.28554 0.19445
 C66 C 0.64413 -0.29970 0.16724
 C67 C 0.66674 -0.28023 0.15301
 H68 H 0.62032 -0.29233 0.21133
 H69 H 0.67692 -0.28279 0.13074
 N70 N 0.64857 -0.19292 0.25318
 N71 N 0.66839 -0.16888 0.25136
 C72 C 0.65875 -0.14795 0.27171
 C73 C 0.63124 -0.15937 0.28660
 C74 C 0.62560 -0.18786 0.27434
 H75 H 0.66905 -0.12513 0.27373
 H76 H 0.60500 -0.20298 0.27936
 H77 H 0.69809 -0.21166 0.21967
 H78 H 0.66446 -0.18983 0.19890
 N79 N -0.19545 1.14048 -0.36549
 N80 N -0.17833 1.14998 -0.38886
 C81 C -0.19306 1.13971 -0.41431
 C82 C -0.22126 1.12342 -0.40634
 C83 C -0.22213 1.12452 -0.37524
 H84 H -0.18446 1.14441 -0.43688
 H85 H -0.24035 1.11389 -0.36074
 Cu86 Cu -0.14016 1.17691 -0.38376
 Cu87 Cu -0.18134 1.14857 -0.32413
 Cu88 Cu -0.10277 1.18013 -0.31604
 N89 N -0.11098 1.21091 -0.37303
 N90 N -0.09689 1.21244 -0.34617
 C91 C -0.08066 1.23927 -0.34360
 C92 C -0.08475 1.25569 -0.37040
 C93 C -0.10390 1.23661 -0.38869
 H94 H -0.06740 1.24623 -0.32342
 H95 H -0.11368 1.24157 -0.41105
 N96 N -0.12434 1.15723 -0.28359
 N97 N -0.15521 1.14689 -0.28598
 C98 C -0.16325 1.13269 -0.26000
 C99 C -0.13594 1.13392 -0.24055
 C100 C -0.11171 1.14966 -0.25628
 H101 H -0.18659 1.12095 -0.25610
 H102 H -0.08673 1.15518 -0.24850
 H103 H -0.15028 1.18575 -0.33034
 H104 H -0.13321 1.14668 -0.33764
 N105 N 0.72552 0.65694 0.66083
 N106 N 0.72274 0.68320 0.64627
 C107 C 0.74393 0.68346 0.62302
 C108 C 0.76110 0.65587 0.62307
 C109 C 0.74883 0.63967 0.64751
 H110 H 0.74624 0.70219 0.60705
 H111 H 0.75543 0.61658 0.65443
 Cu112 Cu 0.69037 0.71382 0.65785
 Cu113 Cu 0.69723 0.64651 0.69473
 Cu114 Cu 0.63439 0.69827 0.71126
 N115 N 0.64959 0.73746 0.66107
 N116 N 0.62736 0.73119 0.68170
 C117 C 0.60192 0.75130 0.67894
 C118 C 0.60852 0.77125 0.65515
 C119 C 0.63908 0.76159 0.64439
 H120 H 0.58043 0.75140 0.69338
 H121 H 0.65291 0.77129 0.62589
 N122 N 0.64148 0.65963 0.73413
 N123 N 0.66591 0.64038 0.72810
 C124 C 0.66580 0.61734 0.74845
 C125 C 0.63999 0.62212 0.76821
 C126 C 0.62491 0.64907 0.75835
 H127 H 0.68342 0.59854 0.74906
 H128 H 0.60425 0.66068 0.76877
 H129 H 0.65718 0.67266 0.67907
 H130 H 0.68534 0.69017 0.70797
 N131 N 0.78222 0.34741 0.14131
 N132 N 0.78428 0.32070 0.12804
 C133 C 0.75990 0.31868 0.10690
 C134 C 0.74177 0.34578 0.10682
 C135 C 0.75674 0.36346 0.12892
 H136 H 0.75557 0.29894 0.09280
 H137 H 0.74871 0.38579 0.13637
 Cu138 Cu 0.81821 0.29098 0.14014
 Cu139 Cu 0.81010 0.35782 0.17592
 Cu140 Cu 0.87686 0.30999 0.19254
 N141 N 0.85988 0.26852 0.14474
 N142 N 0.88283 0.27580 0.16490
 C143 C 0.90898 0.25652 0.16235
 C144 C 0.90198 0.23604 0.13933
 C145 C 0.87056 0.24452 0.12872
 H146 H 0.93135 0.25737 0.17624
 H147 H 0.85661 0.23444 0.11029
 N148 N 0.86584 0.34613 0.21719
 N149 N 0.84062 0.36447 0.21024
 C150 C 0.83850 0.38642 0.23114
 C151 C 0.86360 0.38199 0.25252
 C152 C 0.88055 0.35612 0.24286
 H153 H 0.81940 0.40389 0.23104
 H154 H 0.90172 0.34514 0.25385
 H155 H 0.85084 0.33335 0.15953
 H156 H 0.82575 0.31395 0.18954
 N157 N 0.29532 0.12442 0.84087
 N158 N 0.29488 0.14132 0.86526
 C159 C 0.27194 0.12980 0.88427
 C160 C 0.25740 0.10422 0.87103
 C161 C 0.27289 0.10177 0.84344
 H162 H 0.26627 0.13932 0.90602
 H163 H 0.26796 0.08509 0.82608
 Cu164 Cu 0.32380 0.17719 0.86887
 Cu165 Cu 0.32372 0.13315 0.80664
 Cu166 Cu 0.38766 0.18377 0.82138
 N167 N 0.34974 0.21512 0.86608
 N168 N 0.37422 0.21740 0.84675
 C169 C 0.38714 0.24574 0.84774
 C170 C 0.37009 0.26223 0.86892
 C171 C 0.34659 0.24213 0.88045
 H172 H 0.40734 0.25386 0.83385
 H173 H 0.32800 0.24711 0.89716
 N174 N 0.38765 0.15629 0.78684
 N175 N 0.36277 0.13760 0.78036
 C176 C 0.36899 0.12383 0.75393
 C177 C 0.39907 0.13483 0.74316
 C178 C 0.41019 0.15523 0.76477
 H179 H 0.35236 0.10783 0.74287
 H180 H 0.43257 0.16905 0.76416
 H181 H 0.35913 0.14595 0.83650
 H182 H 0.33792 0.17801 0.81557
 N183 N 0.19774 0.88099 0.35704
 N184 N 0.19092 0.86016 0.37767
 C185 C 0.20777 0.86670 0.40325
 C186 C 0.22651 0.89287 0.39836
 C187 C 0.21960 0.90127 0.36869
 H188 H 0.20744 0.85274 0.42350
 H189 H 0.22983 0.92051 0.35638
 Cu190 Cu 0.16308 0.82490 0.36849
 Cu191 Cu 0.17856 0.87917 0.31629
 Cu192 Cu 0.10619 0.83577 0.31395
 N193 N 0.12980 0.79372 0.35941
 N194 N 0.10721 0.79853 0.33816
 C195 C 0.08678 0.77422 0.33649
 C196 C 0.09728 0.75254 0.35763
 C197 C 0.12469 0.76587 0.37191
 H198 H 0.06600 0.77264 0.32077
 H199 H 0.13989 0.75608 0.38989
 N200 N 0.11810 0.86543 0.28236
 N201 N 0.14607 0.88143 0.28241
 C202 C 0.14887 0.89584 0.25549
 C203 C 0.12149 0.88803 0.23777
 C204 C 0.10264 0.86881 0.25550
 H205 H 0.17036 0.90896 0.24850
 H206 H 0.08061 0.85628 0.24847
 H207 H 0.13761 0.86571 0.33774
 H208 H 0.15714 0.83522 0.31456
 Zn209 Zn -0.00335 0.99382 -0.04638
 Zn210 Zn -0.01736 0.95459 0.00693
 Zn211 Zn 0.02469 1.01165 0.01407
 Zn212 Zn -0.04871 1.01625 0.00043
 O213 O -0.01105 0.99408 -0.00611
 O214 O -0.00558 0.95641 -0.06230
 O215 O 0.01256 0.94396 0.03515
 O216 O 0.05862 1.02159 -0.01084
 O217 O -0.01334 0.92670 -0.02237
 O218 O 0.03741 1.00690 -0.05481
 O219 O 0.04268 0.98601 0.04211
 O220 O -0.04100 1.04832 0.02405
 O221 O -0.05770 0.94839 0.02352
 O222 O 0.01326 1.04602 0.03391
 O223 O -0.08033 0.99445 0.01863
 O224 O -0.06740 1.03182 -0.03333
 O225 O -0.03186 1.01709 -0.06798
 C226 C -0.00887 0.93004 -0.05047
 C227 C 0.03600 0.95822 0.04851
 C228 C 0.06131 1.01757 -0.03906
 C229 C -0.01496 1.05902 0.03674
 C230 C -0.08189 0.96674 0.02746
 C231 C -0.05800 1.03142 -0.06051
 Zn232 Zn 0.48111 0.00300 0.46222
 Zn233 Zn 0.47516 -0.00675 0.52857
 Zn234 Zn 0.54040 -0.01861 0.49764
 Zn235 Zn 0.51497 0.04545 0.50461
 O236 O 0.50296 0.00571 0.49834
 O237 O 0.43937 -0.01043 0.46578
 O238 O 0.49186 -0.03890 0.54909
 O239 O 0.54523 -0.03862 0.46266
 O240 O 0.43473 -0.01845 0.51480
 O241 O 0.50034 -0.02305 0.43722
 O242 O 0.53995 -0.04765 0.52668
 O243 O 0.55905 0.04991 0.50939
 O244 O 0.46788 0.02246 0.55621
 O245 O 0.57822 0.00271 0.50329
 O246 O 0.49753 0.06081 0.53788
 O247 O 0.50235 0.07078 0.47444
 O248 O 0.47848 0.03872 0.44234
 C249 C 0.42247 -0.01909 0.48825
 C250 C 0.51872 -0.05417 0.54677
 C251 C 0.52670 -0.03909 0.43921
 C252 C 0.58306 0.03096 0.50841
 C253 C 0.47866 0.04978 0.55793
 C254 C 0.48766 0.06553 0.44948
 Zn255 Zn 0.98415 0.51011 0.53006
 Zn256 Zn 0.99341 0.46474 0.48059
 Zn257 Zn 0.96884 0.52752 0.46662
 Zn258 Zn 1.03970 0.51868 0.48627
 O259 O 0.99664 0.50522 0.49093
 O260 O 0.97403 0.47446 0.54801
 O261 O 0.96603 0.45795 0.44867
 O262 O 0.93792 0.54817 0.48671
 O263 O 0.97886 0.44117 0.51093
 O264 O 0.94849 0.53465 0.53400
 O265 O 0.94698 0.50480 0.43982
 O266 O 1.04309 0.54980 0.45952
 O267 O 1.03300 0.44890 0.47112
 O268 O 0.99035 0.55539 0.44493
 O269 O 1.06702 0.48885 0.47388
 O270 O 1.05787 0.53238 0.52082
 O271 O 1.01636 0.52689 0.55282
 C272 C 0.97243 0.44724 0.53817
 C273 C 0.94775 0.47651 0.43358
 C274 C 0.93146 0.54969 0.51455
 C275 C 1.02078 0.56312 0.44350
 C276 C 1.06188 0.46059 0.46895
 C277 C 1.04601 0.53506 0.54705
 Zn278 Zn 0.47722 0.50832 0.96021
 Zn279 Zn 0.47013 0.52725 1.02389
 Zn280 Zn 0.48346 0.46168 1.01014
 Zn281 Zn 0.53688 0.50892 1.00173
 O282 O 0.49196 0.50148 0.99893
 O283 O 0.44531 0.53721 0.95754
 O284 O 0.44647 0.50737 1.05140
 O285 O 0.46236 0.44069 0.98110
 O286 O 0.44124 0.55224 1.00477
 O287 O 0.45907 0.47463 0.94376
 O288 O 0.45775 0.45860 1.04299
 O289 O 0.56015 0.47559 1.01315
 O290 O 0.49783 0.55050 1.04549
 O291 O 0.52082 0.44049 1.01881
 O292 O 0.54778 0.53785 1.02886
 O293 O 0.55391 0.52087 0.96658
 O294 O 0.50997 0.52086 0.93564
 C295 C 0.43220 0.55413 0.97729
 C296 C 0.44338 0.47923 1.05812
 C297 C 0.45361 0.44794 0.95435
 C298 C 0.55132 0.44839 1.01959
 C299 C 0.52937 0.55295 1.04642
 C300 C 0.54093 0.52519 0.94061
 C301 C 1.18886 0.41432 0.42445
 C302 C 1.17331 0.39089 0.43963
 C303 C 1.18743 0.36196 0.44319
 C304 C 1.21872 0.35684 0.43029
 C305 C 1.23504 0.38035 0.41355
 C306 C 1.21961 0.40963 0.41093
 O307 O 1.17152 0.44028 0.42413
 C308 C 1.14429 0.43300 0.43927
 C309 C 1.14399 0.40295 0.44899
 C310 C 1.11740 0.39025 0.46455
 C311 C 1.09009 0.40936 0.47045
 C312 C 1.09017 0.44064 0.46127
 C313 C 1.11774 0.45258 0.44547
 H314 H 1.17478 0.34392 0.45543
 H315 H 1.22946 0.33419 0.43276
 H316 H 1.23109 0.42850 0.39899
 H317 H 1.11762 0.36648 0.47178
 H318 H 1.06917 0.39999 0.48268
 H319 H 1.11835 0.47628 0.43798
 C320 C 0.31970 0.61219 0.91348
 C321 C 0.32388 0.62674 0.94062
 C322 C 0.30187 0.64901 0.95057
 C323 C 0.27432 0.65640 0.93191
 C324 C 0.26911 0.64141 0.90389
 C325 C 0.29257 0.61917 0.89459
 O326 O 0.34272 0.59096 0.90861
 C327 C 0.36180 0.59204 0.93327
 C328 C 0.35137 0.61352 0.95360
 C329 C 0.36693 0.61746 0.98153
 C330 C 0.39409 0.59826 0.98890
 C331 C 0.40520 0.57573 0.96837
 C332 C 0.38893 0.57296 0.93998
 H333 H 0.30553 0.66004 0.97212
 H334 H 0.25694 0.67348 0.93968
 H335 H 0.28969 0.60705 0.87358
 H336 H 0.35808 0.63431 0.99731
 H337 H 0.40614 0.60069 1.01075
 H338 H 0.39636 0.55574 0.92397
 C339 C -0.18124 0.89292 0.09162
 C340 C -0.19129 0.92310 0.09155
 C341 C -0.21890 0.93331 0.10719
 C342 C -0.23674 0.91158 0.12391
 C343 C -0.22707 0.88027 0.12435
 C344 C -0.19917 0.87070 0.10759
 O345 O -0.15315 0.88851 0.07662
 C346 C -0.14543 0.91652 0.06686
 C347 C -0.16814 0.93839 0.07526
 C348 C -0.16467 0.96929 0.06818
 C349 C -0.13653 0.97814 0.05186
 C350 C -0.11226 0.95622 0.04322
 C351 C -0.11699 0.92485 0.05076
 H352 H -0.22604 0.95726 0.10706
 H353 H -0.25806 0.91914 0.13662
 H354 H -0.19093 0.84704 0.10802
 H355 H -0.18283 0.98607 0.07524
 H356 H -0.13341 1.00222 0.04649
 H357 H -0.09894 0.90755 0.04471
 C358 C 0.69802 0.09277 0.56196
 C359 C 0.70928 0.07610 0.53795
 C360 C 0.74284 0.07500 0.53025
 C361 C 0.76564 0.09154 0.54821
 C362 C 0.75458 0.10797 0.57363
 C363 C 0.72026 0.10866 0.58045
 O364 O 0.66526 0.09109 0.56546
 C365 C 0.65557 0.07274 0.54336
 C366 C 0.68151 0.06259 0.52603
 C367 C 0.67690 0.04185 0.50265
 C368 C 0.64427 0.03121 0.49700
 C369 C 0.61719 0.04203 0.51419
 C370 C 0.62298 0.06321 0.53756
 H371 H 0.75118 0.06184 0.51122
 H372 H 0.79194 0.09082 0.54290
 H373 H 0.71114 0.12120 0.59962
 H374 H 0.69770 0.03379 0.48957
 H375 H 0.64001 0.01486 0.47913
 H376 H 0.60279 0.07137 0.55136
 C377 C 0.44447 0.18321 0.39894
 C378 C 0.45326 0.16475 0.37542
 C379 C 0.44945 0.17380 0.34545
 C380 C 0.43566 0.20292 0.33949
 C381 C 0.42517 0.22213 0.36338
 C382 C 0.43019 0.21190 0.39360
 O383 O 0.44982 0.17032 0.42578
 C384 C 0.46198 0.14297 0.41906
 C385 C 0.46434 0.13826 0.38854
 C386 C 0.47453 0.11045 0.37657
 C387 C 0.48240 0.08654 0.39690
 C388 C 0.48060 0.09109 0.42846
 C389 C 0.47057 0.11984 0.43965
 H390 H 0.45656 0.15887 0.32727
 H391 H 0.43223 0.20976 0.31617
 H392 H 0.42323 0.22563 0.41268
 H393 H 0.47568 0.10708 0.35247
 H394 H 0.48992 0.06453 0.38814
 H395 H 0.46829 0.12369 0.46361
 C396 C 0.93395 0.32804 0.58809
 C397 C 0.94554 0.34591 0.61132
 C398 C 0.94866 0.33509 0.64075
 C399 C 0.93917 0.30467 0.64656
 C400 C 0.92614 0.28574 0.62316
 C401 C 0.92371 0.29794 0.59341
 O402 O 0.93398 0.34240 0.56158
 C403 C 0.94567 0.37001 0.56829
 C404 C 0.95281 0.37345 0.59848
 C405 C 0.96498 0.40065 0.61049
 C406 C 0.97036 0.42521 0.59048
 C407 C 0.96407 0.42198 0.55909
 C408 C 0.95136 0.39394 0.54794
 H409 H 0.95817 0.34953 0.65863
 H410 H 0.94130 0.29644 0.66956
 H411 H 0.91463 0.28448 0.57466
 H412 H 0.97029 0.40283 0.63436
 H413 H 0.98028 0.44644 0.59934
 H414 H 0.94625 0.39078 0.52414
 C415 C 0.03405 0.81321 -0.09989
 C416 C 0.01610 0.82859 -0.12190
 C417 C 0.01378 0.81838 -0.15140
 C418 C 0.03100 0.79144 -0.15865
 C419 C 0.05077 0.77541 -0.13662
 C420 C 0.05161 0.78653 -0.10659
 O421 O 0.03414 0.82738 -0.07352
 C422 C 0.01607 0.85239 -0.07910
 C423 C 0.00458 0.85431 -0.10844
 C424 C -0.01262 0.87975 -0.11977
 C425 C -0.01776 0.90437 -0.10018
 C426 C -0.00622 0.90288 -0.06981
 C427 C 0.01044 0.87625 -0.05903
 H428 H -0.00036 0.83099 -0.16841
 H429 H 0.02948 0.78391 -0.18176
 H430 H 0.06600 0.77536 -0.08884
 H431 H -0.02084 0.88101 -0.14310
 H432 H -0.03028 0.92475 -0.10873
 H433 H 0.02035 0.87487 -0.03621
 C434 C 0.61068 0.64057 1.11504
 C435 C 0.58870 0.62622 1.13397
 C436 C 0.58575 0.63357 1.16407
 C437 C 0.60558 0.65736 1.17515
 C438 C 0.62761 0.67404 1.15605
 C439 C 0.63077 0.66465 1.12556
 O440 O 0.60872 0.63018 1.08693
 C441 C 0.58478 0.60906 1.08833
 C442 C 0.57165 0.60608 1.11666
 C443 C 0.54499 0.58694 1.12317
 C444 C 0.53120 0.57000 1.09948
 C445 C 0.54453 0.57201 1.07011
 C446 C 0.57196 0.59165 1.06442
 H447 H 0.56840 0.62164 1.17852
 H448 H 0.60303 0.66268 1.19871
 H449 H 0.64710 0.67641 1.11008
 H450 H 0.53482 0.58546 1.14561
 H451 H 0.51034 0.55495 1.10407
 H452 H 0.58226 0.59383 1.04208
 C453 C 0.39621 0.42029 1.16841
 C454 C 0.37937 0.44756 1.16447
 C455 C 0.35818 0.45941 1.18595
 C456 C 0.35422 0.44254 1.21270
 C457 C 0.37147 0.41438 1.21757
 C458 C 0.39258 0.40305 1.19483
 O459 O 0.41624 0.41383 1.14572
 C460 C 0.41198 0.43759 1.12711
 C461 C 0.38965 0.45884 1.13758
 C462 C 0.38268 0.48623 1.12253
 C463 C 0.39982 0.49221 1.09580
 C464 C 0.42331 0.47087 1.08461
 C465 C 0.42901 0.44288 1.10031
 H466 H 0.34538 0.48105 1.18238
 H467 H 0.33767 0.45155 1.22951
 H468 H 0.40650 0.38194 1.19785
 H469 H 0.36527 0.50273 1.13141
 H470 H 0.39518 0.51373 1.08409
 H471 H 0.44723 0.42643 1.09269
 C472 C 0.59813 -0.10957 0.34867
 C473 C 0.56434 -0.11296 0.34375
 C474 C 0.55104 -0.13091 0.32085
 C475 C 0.57350 -0.14617 0.30229
 C476 C 0.60848 -0.14282 0.30657
 C477 C 0.62100 -0.12401 0.32995
 O478 O 0.60535 -0.09203 0.37222
 C479 C 0.57544 -0.08411 0.38222
 C480 C 0.54959 -0.09614 0.36536
 C481 C 0.51623 -0.09038 0.37131
 C482 C 0.50914 -0.07133 0.39565
 C483 C 0.53524 -0.05897 0.41377
 C484 C 0.56893 -0.06560 0.40702
 H485 H 0.52434 -0.13328 0.31756
 H486 H 0.56362 -0.16030 0.28432
 H487 H 0.64759 -0.12129 0.33379
 H488 H 0.49638 -0.10003 0.35759
 H489 H 0.48327 -0.06649 0.40061
 H490 H 0.58933 -0.05623 0.42029
 C491 C -0.09886 1.09484 -0.17171
 C492 C -0.12647 1.09240 -0.15376
 C493 C -0.15787 1.10297 -0.16288
 C494 C -0.16086 1.11655 -0.19166
 C495 C -0.13258 1.11971 -0.21033
 C496 C -0.10114 1.10875 -0.20006
 O497 O -0.07154 1.08262 -0.15930
 C498 C -0.08205 1.07235 -0.13287
 C499 C -0.11539 1.07793 -0.12822
 C500 C -0.13134 1.06932 -0.10181
 C501 C -0.11213 1.05433 -0.07936
 C502 C -0.07782 1.04784 -0.08391
 C503 C -0.06268 1.05705 -0.11114
 H504 H -0.17931 1.10063 -0.14849
 H505 H -0.18506 1.12489 -0.19924
 H506 H -0.07921 1.11038 -0.21396
 H507 H -0.15758 1.07403 -0.09858
 H508 H -0.12408 1.04736 -0.05866
 H509 H -0.03652 1.05265 -0.11522
 C510 C 1.09098 0.59313 0.65868
 C511 C 1.11862 0.58163 0.64457
 C512 C 1.15056 0.58303 0.65726
 C513 C 1.15409 0.59684 0.68561
 C514 C 1.12602 0.60936 0.70030
 C515 C 1.09405 0.60758 0.68649
 O516 O 1.06273 0.58843 0.64342
 C517 C 1.07275 0.57377 0.61908
 C518 C 1.10675 0.56928 0.61850
 C519 C 1.12248 0.55461 0.59487
 C520 C 1.10232 0.54398 0.57098
 C521 C 1.06711 0.54765 0.57149
 C522 C 1.05223 0.56288 0.59591
 H523 H 1.17191 0.57355 0.64590
 H524 H 1.17871 0.59812 0.69594
 H525 H 1.07212 0.61653 0.69739
 H526 H 1.14929 0.55141 0.59485
 H527 H 1.11402 0.53230 0.55246
 H528 H 1.02545 0.56619 0.59684
 C529 C 0.82972 0.61078 0.58613
 C530 C 0.82980 0.62421 0.55798
 C531 C 0.80867 0.64831 0.54985
 C532 C 0.78640 0.65888 0.57159
 C533 C 0.78549 0.64515 0.60072
 C534 C 0.80764 0.62076 0.60800
 O535 O 0.85195 0.58833 0.58934
 C536 C 0.86630 0.58752 0.56258
 C537 C 0.85355 0.60892 0.54254
 C538 C 0.86468 0.61180 0.51314
 C539 C 0.89008 0.59188 0.50403
 C540 C 0.90399 0.56980 0.52437
 C541 C 0.89178 0.56767 0.55411
 H542 H 0.80922 0.65855 0.52755
 H543 H 0.76952 0.67736 0.56543
 H544 H 0.80788 0.60991 0.63004
 H545 H 0.85420 0.62878 0.49776
 H546 H 0.89916 0.59396 0.48124
 H547 H 0.90171 0.55104 0.57016
 C548 C 0.67270 0.39136 1.06887
 C549 C 0.65185 0.36826 1.05929
 C550 C 0.65960 0.33737 1.06340
 C551 C 0.68986 0.33005 1.07827
 C552 C 0.71134 0.35353 1.08902
 C553 C 0.70263 0.38462 1.08391
 O554 O 0.66059 0.41919 1.06332
 C555 C 0.63134 0.41361 1.05010
 C556 C 0.62464 0.38283 1.04722
 C557 C 0.59462 0.37198 1.03529
 C558 C 0.57054 0.39375 1.02607
 C559 C 0.57704 0.42564 1.02861
 C560 C 0.60807 0.43558 1.04062
 H561 H 0.64276 0.31955 1.05579
 H562 H 0.69598 0.30615 1.08221
 H563 H 0.71848 0.40311 1.09168
 H564 H 0.58970 0.34766 1.03356
 H565 H 0.54691 0.38579 1.01695
 H566 H 0.61361 0.45971 1.04331
 C567 C 0.18427 1.07363 -0.08408
 C568 C 0.17847 1.04664 -0.09899
 C569 C 0.19787 1.03671 -0.12263
 C570 C 0.22424 1.05553 -0.13164
 C571 C 0.23062 1.08399 -0.11729
 C572 C 0.21047 1.09291 -0.09277
 O573 O 0.16204 1.07900 -0.06273
 C574 C 0.14175 1.05489 -0.06441
 C575 C 0.15079 1.03457 -0.08639
 C576 C 0.13232 1.00863 -0.09341
 C577 C 0.10310 1.00343 -0.07728
 C578 C 0.09308 1.02379 -0.05433
 C579 C 0.11295 1.04976 -0.04748
 H580 H 0.19269 1.01532 -0.13396
 H581 H 0.23946 1.04777 -0.14999
 H582 H 0.21434 1.11450 -0.08143
 H583 H 0.13981 0.99325 -0.11109
 H584 H 0.08816 0.98347 -0.08268
 H585 H 0.10556 1.06591 -0.03042
 C586 C 0.30119 -0.06413 0.42895
 C587 C 0.29830 -0.06973 0.45937
 C588 C 0.27209 -0.08656 0.47133
 C589 C 0.24811 -0.09829 0.45110
 C590 C 0.25070 -0.09298 0.41957
 C591 C 0.27751 -0.07528 0.40851
 O592 O 0.32878 -0.04905 0.42197
 C593 C 0.34367 -0.04505 0.44854
 C594 C 0.32608 -0.05716 0.47220
 C595 C 0.33796 -0.05650 0.50183
 C596 C 0.36940 -0.04313 0.50718
 C597 C 0.38826 -0.03093 0.48300
 C598 C 0.37480 -0.03167 0.45332
 H599 H 0.27047 -0.09095 0.49532
 H600 H 0.22768 -0.11162 0.46003
 H601 H 0.28070 -0.07129 0.38462
 H602 H 0.32383 -0.06642 0.52009
 H603 H 0.37930 -0.04289 0.53002
 H604 H 0.38853 -0.02288 0.43426
 C605 C 0.57898 -0.16000 0.60918
 C606 C 0.54932 -0.15346 0.62292
 C607 C 0.53751 -0.17050 0.64716
 C608 C 0.55709 -0.19527 0.65764
 C609 C 0.58790 -0.20256 0.64386
 C610 C 0.59880 -0.18443 0.61920
 O611 O 0.58573 -0.14112 0.58645
 C612 C 0.55973 -0.12223 0.58579
 C613 C 0.53672 -0.12876 0.60763
 C614 C 0.50755 -0.11187 0.61087
 C615 C 0.50187 -0.08730 0.59074
 C616 C 0.52523 -0.08007 0.56793
 C617 C 0.55464 -0.09792 0.56558
 H618 H 0.51405 -0.16495 0.65763
 H619 H 0.54806 -0.20861 0.67648
 H620 H 0.62199 -0.18900 0.60792
 H621 H 0.48978 -0.11742 0.62823
 H622 H 0.47922 -0.07397 0.59297
 H623 H 0.57300 -0.09315 0.54850
 C624 C 1.07783 0.67518 0.39284
 C625 C 1.05238 0.66557 0.37410
 C626 C 1.04089 0.68273 0.34958
 C627 C 1.05617 0.71109 0.34415
 C628 C 1.08231 0.72193 0.36329
 C629 C 1.09339 0.70339 0.38791
 O630 O 1.08404 0.65583 0.41555
 C631 C 1.06190 0.63361 0.41105
 C632 C 1.04192 0.63857 0.38599
 C633 C 1.01580 0.61923 0.37794
 C634 C 1.00969 0.59394 0.39674
 C635 C 1.02978 0.58833 0.42285
 C636 C 1.05666 0.60822 0.42981
 H637 H 1.02065 0.67471 0.33527
 H638 H 1.04726 0.72448 0.32506
 H639 H 1.11296 0.71082 0.40321
 H640 H 1.00018 0.62386 0.35831
 H641 H 0.98902 0.57892 0.39119
 H642 H 1.07194 0.60484 0.44991
 C643 C -0.07064 1.16542 0.09756
 C644 C -0.03731 1.16394 0.10533
 C645 C -0.02226 1.18511 0.12449
 C646 C -0.04238 1.20873 0.13590
 C647 C -0.07685 1.21079 0.12794
 C648 C -0.09096 1.18854 0.10856
 O649 O -0.08036 1.14329 0.07918
 C650 C -0.05258 1.12744 0.07513
 C651 C -0.02541 1.13899 0.09054
 C652 C 0.00615 1.12560 0.08916
 C653 C 0.00968 1.09930 0.07125
 C654 C -0.01816 1.08698 0.05524
 C655 C -0.04967 1.10151 0.05735
 H656 H 0.00402 1.18360 0.13037
 H657 H -0.03095 1.22551 0.15057
 H658 H -0.11711 1.18890 0.10214
 H659 H 0.02725 1.13502 0.10143
 H660 H 0.03398 1.08852 0.06998
 H661 H -0.07151 1.09289 0.04553
 C662 C 0.39255 0.33451 0.91027
 C663 C 0.39487 0.35476 0.88640
 C664 C 0.38754 0.34657 0.85684
 C665 C 0.37806 0.31612 0.85159
 C666 C 0.37561 0.29479 0.87577
 C667 C 0.38231 0.30425 0.90563
 O668 O 0.40308 0.34633 0.93620
 C669 C 0.41221 0.37458 0.92850
 C670 C 0.40753 0.38093 0.89833
 C671 C 0.41665 0.40871 0.88522
 C672 C 0.43130 0.43087 0.90395
 C673 C 0.43689 0.42480 0.93513
 C674 C 0.42692 0.39620 0.94751
 H675 H 0.39015 0.36273 0.83837
 H676 H 0.37330 0.30891 0.82863
 H677 H 0.38160 0.28810 0.92430
 H678 H 0.41299 0.41304 0.86134
 H679 H 0.43880 0.45251 0.89401
 H680 H 0.43094 0.39070 0.97113
 C681 C 0.59337 0.58523 0.83263
 C682 C 0.61880 0.56889 0.84642
 C683 C 0.65123 0.56870 0.83576
 C684 C 0.65779 0.58609 0.80978
 C685 C 0.63215 0.60350 0.79523
 C686 C 0.59943 0.60305 0.80694
 O687 O 0.56436 0.58225 0.84652
 C688 C 0.57175 0.56376 0.86965
 C689 C 0.60479 0.55511 0.87067
 C690 C 0.61828 0.53671 0.89351
 C691 C 0.59688 0.52694 0.91640
 C692 C 0.56260 0.53527 0.91581
 C693 C 0.54982 0.55375 0.89189
 H694 H 0.67082 0.55569 0.84708
 H695 H 0.68303 0.58640 0.80141
 H696 H 0.57932 0.61596 0.79630
 H697 H 0.64443 0.53041 0.89390
 H698 H 0.60697 0.51276 0.93453
 H699 H 0.52387 0.56078 0.89106
 C700 C 0.42392 0.09604 0.67080
 C701 C 0.44508 0.11776 0.65913
 C702 C 0.45218 0.14516 0.67354
 C703 C 0.43689 0.15044 0.70121
 C704 C 0.41481 0.12851 0.71387
 C705 C 0.40814 0.10093 0.69825
 O706 O 0.42117 0.07131 0.65364
 C707 C 0.44100 0.07767 0.63065
 C708 C 0.45608 0.10588 0.63295
 C709 C 0.47796 0.11720 0.61159
 C710 C 0.48477 0.09863 0.58682
 C711 C 0.46987 0.06921 0.58386
 C712 C 0.44752 0.05869 0.60619
 H713 H 0.46899 0.16187 0.66387
 H714 H 0.44202 0.17184 0.71249
 H715 H 0.39166 0.08364 0.70737
 H716 H 0.48954 0.13947 0.61398
 H717 H 0.50199 0.10714 0.57013
 H718 H 0.43578 0.03639 0.60472
 C719 C 0.10311 0.92421 0.16185
 C720 C 0.09872 0.89822 0.14488
 C721 C 0.10347 0.86880 0.15645
 C722 C 0.11249 0.86597 0.18694
 C723 C 0.11678 0.89230 0.20508
 C724 C 0.11276 0.92191 0.19225
 O725 O 0.09423 0.94972 0.14714
 C726 C 0.08391 0.93954 0.12042
 C727 C 0.08624 0.90818 0.11797
 C728 C 0.07421 0.89226 0.09313
 C729 C 0.05867 0.90928 0.06996
 C730 C 0.05554 0.94162 0.07192
 C731 C 0.06899 0.95705 0.09730
 H732 H 0.09915 0.84872 0.14279
 H733 H 0.11526 0.84324 0.19673
 H734 H 0.11490 0.94226 0.20594
 H735 H 0.07577 0.86752 0.09204
 H736 H 0.04849 0.89717 0.05070
 H737 H 0.06618 0.98159 0.09975
 C738 C 0.89946 0.41090 0.32681
 C739 C 0.87987 0.43639 0.33081
 C740 C 0.85508 0.44539 0.31046
 C741 C 0.85006 0.42733 0.28488
 C742 C 0.86972 0.40067 0.27995
 C743 C 0.89488 0.39245 0.30144
 O744 O 0.92231 0.40708 0.34860
 C745 C 0.91694 0.43074 0.36663
 C746 C 0.89121 0.44929 0.35665
 C747 C 0.88192 0.47591 0.37129
 C748 C 0.90024 0.48408 0.39710
 C749 C 0.92723 0.46564 0.40785
 C750 C 0.93536 0.43827 0.39256
 H751 H 0.84023 0.46576 0.31403
 H752 H 0.83088 0.43456 0.26900
 H753 H 0.91053 0.37250 0.29856
 H754 H 0.86168 0.49019 0.36283
 H755 H 0.89363 0.50504 0.40849
 H756 H 0.95611 0.42398 0.39991
   
