data_POSCAR
  _audit_creation_date              2014-09-24
  _audit_creation_method            'ToBaCCo'
  _symmetry_space_group_name_H-M    'P1'
  _symmetry_Int_Tables_number       1
  _symmetry_cell_setting            triclinic
  loop_
  _symmetry_equiv_pos_as_xyz
 x,y,z
_cell_length_a 49.9008
_cell_length_b 50.0809
_cell_length_c 50.2721
_cell_angle_alpha 89.887200
_cell_angle_beta 89.938100
_cell_angle_gamma 89.949500
loop_
  _atom_site_label
  _atom_site_type_symbol
  _atom_site_fract_x
  _atom_site_fract_y
  _atom_site_fract_z
N1 N 0.27047 0.22182 0.19892
 N2 N 0.25902 0.24346 0.18932
 C3 C 0.27301 0.25193 0.16795
 C4 C 0.29412 0.23458 0.16410
 C5 C 0.29205 0.21576 0.18401
 H6 H 0.26859 0.26964 0.15642
 H7 H 0.30558 0.19928 0.18771
 Cu8 Cu 0.22764 0.25917 0.20625
 Cu9 Cu 0.25739 0.20388 0.23073
 Cu10 Cu 0.20275 0.23218 0.26253
 N11 N 0.19755 0.27520 0.22507
 N12 N 0.18790 0.26455 0.24702
 C13 C 0.16764 0.27980 0.25611
 C14 C 0.16455 0.30103 0.23893
 C15 C 0.18374 0.29765 0.21948
 H16 H 0.15622 0.27594 0.27401
 H17 H 0.18750 0.31073 0.20275
 N18 N 0.22045 0.19944 0.27525
 N19 N 0.24130 0.18862 0.26315
 C20 C 0.24947 0.16714 0.27718
 C21 C 0.23290 0.16445 0.29894
 C22 C 0.21480 0.18514 0.29727
 H23 H 0.26658 0.15479 0.27237
 H24 H 0.19917 0.18977 0.31145
 H25 H 0.21807 0.21644 0.22769
 H26 H 0.24111 0.23780 0.24777
 N27 N 0.72093 -0.22369 0.19919
 N28 N 0.73371 -0.24430 0.18903
 C29 C 0.72106 -0.25214 0.16669
 C30 C 0.69943 -0.23543 0.16280
 C31 C 0.69978 -0.21767 0.18368
 H32 H 0.72676 -0.26899 0.15449
 H33 H 0.68544 -0.20194 0.18759
 Cu34 Cu 0.76501 -0.25955 0.20650
 Cu35 Cu 0.73192 -0.20690 0.23228
 Cu36 Cu 0.78648 -0.23450 0.26483
 N37 N 0.79510 -0.27524 0.22564
 N38 N 0.80339 -0.26535 0.24842
 C39 C 0.82403 -0.28009 0.25753
 C40 C 0.82879 -0.30017 0.23945
 C41 C 0.81020 -0.29669 0.21947
 H42 H 0.83458 -0.27663 0.27599
 H43 H 0.80773 -0.30899 0.20199
 N44 N 0.76682 -0.20324 0.27836
 N45 N 0.74601 -0.19268 0.26598
 C46 C 0.73673 -0.17194 0.28037
 C47 C 0.75251 -0.16951 0.30269
 C48 C 0.77133 -0.18952 0.30093
 H49 H 0.71964 -0.15969 0.27521
 H50 H 0.78694 -0.19388 0.31520
 H51 H 0.77185 -0.21762 0.23021
 H52 H 0.74901 -0.24092 0.24839
 N53 N 0.72283 0.22364 0.80030
 N54 N 0.73543 0.24431 0.81046
 C55 C 0.72229 0.25246 0.83244
 C56 C 0.70054 0.23591 0.83612
 C57 C 0.70133 0.21792 0.81546
 H58 H 0.72762 0.26957 0.84440
 H59 H 0.68688 0.20239 0.81133
 Cu60 Cu 0.76671 0.25976 0.79314
 Cu61 Cu 0.73426 0.20668 0.76746
 Cu62 Cu 0.78834 0.23486 0.73464
 N63 N 0.79636 0.27583 0.77366
 N64 N 0.80459 0.26616 0.75075
 C65 C 0.82476 0.28137 0.74137
 C66 C 0.82927 0.30150 0.75943
 C67 C 0.81103 0.29758 0.77967
 H68 H 0.83518 0.27816 0.72276
 H69 H 0.80848 0.30978 0.79722
 N70 N 0.76936 0.20309 0.72147
 N71 N 0.74876 0.19228 0.73401
 C72 C 0.73993 0.17119 0.71990
 C73 C 0.75579 0.16877 0.69761
 C74 C 0.77420 0.18916 0.69908
 H75 H 0.72306 0.15873 0.72520
 H76 H 0.78971 0.19366 0.68472
 H77 H 0.77412 0.21786 0.76940
 H78 H 0.75091 0.24090 0.75132
 N79 N 0.27107 -0.22328 0.80093
 N80 N 0.26059 -0.24567 0.80990
 C81 C 0.27483 -0.25408 0.83111
 C82 C 0.29509 -0.23592 0.83551
 C83 C 0.29226 -0.21668 0.81609
 H84 H 0.27118 -0.27227 0.84215
 H85 H 0.30505 -0.19955 0.81287
 Cu86 Cu 0.23016 -0.26204 0.79206
 Cu87 Cu 0.25740 -0.20505 0.76946
 Cu88 Cu 0.20286 -0.23385 0.73782
 N89 N 0.19945 -0.27798 0.77432
 N90 N 0.18883 -0.26674 0.75312
 C91 C 0.16849 -0.28197 0.74427
 C92 C 0.16636 -0.30376 0.76088
 C93 C 0.18620 -0.30081 0.77971
 H94 H 0.15650 -0.27776 0.72684
 H95 H 0.19087 -0.31447 0.79575
 N96 N 0.21989 -0.20062 0.72539
 N97 N 0.24070 -0.18966 0.73738
 C98 C 0.24844 -0.16795 0.72347
 C99 C 0.23166 -0.16525 0.70192
 C100 C 0.21386 -0.18617 0.70356
 H101 H 0.26546 -0.15548 0.72818
 H102 H 0.19824 -0.19091 0.68945
 H103 H 0.21859 -0.21889 0.77273
 H104 H 0.24179 -0.23851 0.75114
 N105 N 0.72845 -0.22514 0.79843
 N106 N 0.74083 -0.24578 0.80901
 C107 C 0.72609 -0.25520 0.82946
 C108 C 0.70348 -0.23955 0.83165
 C109 C 0.70548 -0.22069 0.81178
 H110 H 0.73122 -0.27227 0.84165
 H111 H 0.69118 -0.20509 0.80724
 Cu112 Cu 0.77460 -0.25889 0.79472
 Cu113 Cu 0.74269 -0.20597 0.76785
 Cu114 Cu 0.80172 -0.22977 0.74044
 N115 N 0.80711 -0.27251 0.77820
 N116 N 0.81763 -0.26113 0.75701
 C117 C 0.83925 -0.27523 0.74918
 C118 C 0.84228 -0.29640 0.76647
 C119 C 0.82166 -0.29427 0.78457
 H120 H 0.85138 -0.27082 0.73188
 H121 H 0.81720 -0.30793 0.80067
 N122 N 0.78268 -0.19825 0.72647
 N123 N 0.76015 -0.18920 0.73691
 C124 C 0.75163 -0.16808 0.72256
 C125 C 0.76971 -0.16376 0.70230
 C126 C 0.78910 -0.18313 0.70519
 H127 H 0.73341 -0.15697 0.72620
 H128 H 0.80626 -0.18624 0.69241
 H129 H 0.76292 -0.23848 0.75218
 H130 H 0.78253 -0.21547 0.77397
 N131 N 0.27865 0.22565 0.79977
 N132 N 0.26518 0.24549 0.81051
 C133 C 0.27912 0.25512 0.83134
 C134 C 0.30235 0.24043 0.83363
 C135 C 0.30156 0.22194 0.81341
 H136 H 0.27310 0.27180 0.84361
 H137 H 0.31671 0.20722 0.80872
 Cu138 Cu 0.23126 0.25760 0.79580
 Cu139 Cu 0.26602 0.20679 0.76843
 Cu140 Cu 0.20680 0.22906 0.74020
 N141 N 0.19865 0.27035 0.77886
 N142 N 0.18919 0.25923 0.75714
 C143 C 0.16721 0.27265 0.74916
 C144 C 0.16280 0.29314 0.76689
 C145 C 0.18302 0.29128 0.78543
 H146 H 0.15572 0.26829 0.73147
 H147 H 0.18646 0.30461 0.80197
 N148 N 0.22745 0.19878 0.72593
 N149 N 0.25003 0.19025 0.73669
 C150 C 0.25953 0.16967 0.72221
 C151 C 0.24204 0.16521 0.70152
 C152 C 0.22198 0.18387 0.70434
 H153 H 0.27790 0.15891 0.72619
 H154 H 0.20486 0.18651 0.69143
 H155 H 0.24496 0.23891 0.75313
 H156 H 0.22572 0.21450 0.77384
 N157 N 0.28043 -0.22574 0.20129
 N158 N 0.26755 -0.24626 0.19116
 C159 C 0.28105 -0.25523 0.16972
 C160 C 0.30340 -0.23942 0.16640
 C161 C 0.30251 -0.22093 0.18664
 H162 H 0.27529 -0.27207 0.15758
 H163 H 0.31699 -0.20537 0.19058
 Cu164 Cu 0.23477 -0.25934 0.20752
 Cu165 Cu 0.26802 -0.20718 0.23307
 Cu166 Cu 0.20947 -0.23065 0.26229
 N167 N 0.20202 -0.27250 0.22390
 N168 N 0.19218 -0.26111 0.24536
 C169 C 0.17022 -0.27459 0.25330
 C170 C 0.16622 -0.29537 0.23582
 C171 C 0.18667 -0.29362 0.21747
 H172 H 0.15856 -0.27014 0.27089
 H173 H 0.19045 -0.30721 0.20119
 N174 N 0.22993 -0.20010 0.27639
 N175 N 0.25222 -0.19117 0.26530
 C176 C 0.26161 -0.17056 0.27977
 C177 C 0.24437 -0.16648 0.30078
 C178 C 0.22456 -0.18540 0.29818
 H179 H 0.27971 -0.15948 0.27553
 H180 H 0.20766 -0.18834 0.31134
 H181 H 0.24797 -0.23925 0.24963
 H182 H 0.22791 -0.21603 0.22847
 N183 N 0.72668 0.22468 0.20147
 N184 N 0.73891 0.24536 0.19082
 C185 C 0.72411 0.25468 0.17040
 C186 C 0.70161 0.23891 0.16828
 C187 C 0.70373 0.22010 0.18819
 H188 H 0.72912 0.27176 0.15817
 H189 H 0.68954 0.20444 0.19279
 Cu190 Cu 0.77258 0.25874 0.20494
 Cu191 Cu 0.74111 0.20563 0.23200
 Cu192 Cu 0.79984 0.22996 0.25932
 N193 N 0.80477 0.27276 0.22160
 N194 N 0.81535 0.26152 0.24280
 C195 C 0.83674 0.27588 0.25065
 C196 C 0.83956 0.29710 0.23339
 C197 C 0.81904 0.29469 0.21526
 H198 H 0.84890 0.27160 0.26794
 H199 H 0.81449 0.30827 0.19913
 N200 N 0.78120 0.19823 0.27326
 N201 N 0.75875 0.18899 0.26287
 C202 C 0.75051 0.16774 0.27719
 C203 C 0.76868 0.16354 0.29736
 C204 C 0.78784 0.18310 0.29446
 H205 H 0.73242 0.15647 0.27358
 H206 H 0.80499 0.18634 0.30718
 H207 H 0.76096 0.23839 0.24753
 H208 H 0.78083 0.21544 0.22582
 C209 C 0.25107 0.01352 0.50060
 C210 C 0.25107 -0.01365 0.50091
 C211 C 0.25125 -0.02959 0.47601
 C212 C 0.24975 -0.02907 0.52612
 C213 C 0.25099 0.02944 0.52551
 C214 C 0.25004 0.02894 0.47537
 C215 C 0.23092 -0.04840 0.47170
 C216 C 0.23074 -0.06382 0.44863
 C217 C 0.25101 -0.06090 0.42942
 C218 C 0.27158 -0.04224 0.43388
 C219 C 0.27171 -0.02673 0.45702
 C220 C 0.22832 -0.02576 0.54394
 C221 C 0.22657 -0.04158 0.56682
 C222 C 0.24606 -0.06118 0.57212
 C223 C 0.26759 -0.06424 0.55431
 C224 C 0.26933 -0.04842 0.53149
 C225 C 0.27123 0.02649 0.54468
 C226 C 0.27079 0.04188 0.56789
 C227 C 0.25013 0.06052 0.57225
 C228 C 0.23009 0.06354 0.55285
 C229 C 0.23059 0.04824 0.52970
 C230 C 0.26971 0.04822 0.47014
 C231 C 0.26829 0.06397 0.44724
 C232 C 0.24698 0.06092 0.42922
 C233 C 0.22738 0.04142 0.43441
 C234 C 0.22883 0.02566 0.45735
 H235 H 0.21508 -0.05106 0.48621
 H236 H 0.21491 -0.07836 0.44601
 H237 H 0.28741 -0.03951 0.41939
 H238 H 0.28781 -0.01260 0.46018
 H239 H 0.21269 -0.01132 0.53983
 H240 H 0.20955 -0.03904 0.57995
 H241 H 0.28594 -0.05133 0.51791
 H242 H 0.28737 0.01235 0.54163
 H243 H 0.28644 0.03906 0.58252
 H244 H 0.21421 0.07806 0.55539
 H245 H 0.21491 0.05096 0.51506
 H246 H 0.28616 0.05111 0.48387
 H247 H 0.28388 0.07855 0.44364
 H248 H 0.21051 0.03888 0.42113
 H249 H 0.21313 0.01128 0.46134
 H250 H 0.28310 -0.07891 0.55803
 C251 C 0.74892 -0.01359 0.50070
 C252 C 0.74900 0.01355 0.49918
 C253 C 0.74858 0.03057 0.52335
 C254 C 0.75056 0.02786 0.47330
 C255 C 0.74812 -0.03063 0.47655
 C256 C 0.75056 -0.02788 0.52658
 C257 C 0.72830 0.02801 0.54259
 C258 C 0.72799 0.04471 0.56488
 C259 C 0.74777 0.06443 0.56811
 C260 C 0.76797 0.06690 0.54877
 C261 C 0.76831 0.05021 0.52661
 C262 C 0.73151 0.04754 0.46720
 C263 C 0.73362 0.06242 0.44378
 C264 C 0.75499 0.05808 0.42606
 C265 C 0.77402 0.03825 0.43215
 C266 C 0.77187 0.02334 0.45560
 C267 C 0.76753 -0.05061 0.47318
 C268 C 0.76677 -0.06739 0.45108
 C269 C 0.74646 -0.06465 0.43193
 C270 C 0.72703 -0.04457 0.43525
 C271 C 0.72776 -0.02780 0.45747
 C272 C 0.77211 -0.02365 0.54399
 C273 C 0.77434 -0.03858 0.56742
 C274 C 0.75513 -0.05814 0.57377
 C275 C 0.73348 -0.06215 0.55636
 C276 C 0.73130 -0.04725 0.53296
 H277 H 0.71258 0.01332 0.54019
 H278 H 0.71199 0.04258 0.57930
 H279 H 0.78370 0.08162 0.55090
 H280 H 0.78411 0.05251 0.51200
 H281 H 0.71511 0.05155 0.48077
 H282 H 0.71891 0.07785 0.43991
 H283 H 0.78708 0.00860 0.46019
 H284 H 0.78340 -0.05314 0.48765
 H285 H 0.78224 -0.08240 0.44888
 H286 H 0.71096 -0.04222 0.42098
 H287 H 0.71228 -0.01284 0.45996
 H288 H 0.78746 -0.00914 0.53919
 H289 H 0.79114 -0.03493 0.58052
 H290 H 0.71861 -0.07735 0.56045
 H291 H 0.71470 -0.05101 0.51962
 H292 H 0.79062 0.03435 0.41882
 C293 C 0.50052 0.25295 -0.01008
 C294 C 0.49921 0.25217 0.01695
 C295 C 0.47324 0.25053 0.03134
 C296 C 0.52375 0.25189 0.03363
 C297 C 0.52643 0.25270 -0.02459
 C298 C 0.47614 0.25289 -0.02698
 C299 C 0.46704 0.26966 0.05071
 C300 C 0.44321 0.26792 0.06520
 C301 C 0.42519 0.24684 0.06076
 C302 C 0.43146 0.22765 0.04131
 C303 C 0.45532 0.22943 0.02679
 C304 C 0.54299 0.27226 0.03180
 C305 C 0.56605 0.27141 0.04760
 C306 C 0.57018 0.25021 0.06554
 C307 C 0.55065 0.23011 0.06755
 C308 C 0.52765 0.23100 0.05182
 C309 C 0.54434 0.23123 -0.02205
 C310 C 0.56737 0.23004 -0.03790
 C311 C 0.57273 0.25020 -0.05669
 C312 C 0.55500 0.27194 -0.05871
 C313 C 0.53202 0.27309 -0.04292
 C314 C 0.47345 0.23328 -0.04666
 C315 C 0.45135 0.23331 -0.06357
 C316 C 0.43148 0.25305 -0.06126
 C317 C 0.43405 0.27263 -0.04140
 C318 C 0.45631 0.27264 -0.02447
 H319 H 0.48075 0.28593 0.05468
 H320 H 0.43920 0.28275 0.08034
 H321 H 0.41790 0.21127 0.03732
 H322 H 0.45995 0.21421 0.01222
 H323 H 0.54015 0.28877 0.01813
 H324 H 0.58079 0.28713 0.04554
 H325 H 0.51296 0.21519 0.05365
 H326 H 0.54005 0.21501 -0.00842
 H327 H 0.58045 0.21287 -0.03615
 H328 H 0.55877 0.28796 -0.07271
 H329 H 0.51834 0.28974 -0.04523
 H330 H 0.48852 0.21786 -0.04890
 H331 H 0.44971 0.21772 -0.07838
 H332 H 0.41916 0.28823 -0.03935
 H333 H 0.45826 0.28822 -0.00970
 H334 H 0.55301 0.21380 0.08153
 C335 C 0.50029 0.74880 -0.01754
 C336 C 0.50152 0.74882 0.00952
 C337 C 0.47696 0.74908 0.02623
 C338 C 0.52740 0.74986 0.02404
 C339 C 0.52486 0.74869 -0.03425
 C340 C 0.47436 0.75016 -0.03197
 C341 C 0.47339 0.76959 0.04485
 C342 C 0.45054 0.77033 0.06081
 C343 C 0.43081 0.75045 0.05863
 C344 C 0.43456 0.72967 0.04020
 C345 C 0.45748 0.72897 0.02414
 C346 C 0.54544 0.77102 0.02014
 C347 C 0.56890 0.77259 0.03525
 C348 C 0.57465 0.75313 0.05465
 C349 C 0.55660 0.73189 0.05832
 C350 C 0.53317 0.73036 0.04324
 C351 C 0.54431 0.72855 -0.03173
 C352 C 0.56746 0.72914 -0.04746
 C353 C 0.57149 0.74983 -0.06600
 C354 C 0.55171 0.76964 -0.06875
 C355 C 0.52862 0.76901 -0.05310
 C356 C 0.46813 0.73058 -0.05087
 C357 C 0.44435 0.73211 -0.06541
 C358 C 0.42640 0.75341 -0.06150
 C359 C 0.43270 0.77303 -0.04252
 C360 C 0.45651 0.77147 -0.02797
 H361 H 0.48828 0.78518 0.04688
 H362 H 0.44847 0.78631 0.07515
 H363 H 0.41965 0.71413 0.03803
 H364 H 0.46006 0.71278 0.01013
 H365 H 0.54111 0.78654 0.00574
 H366 H 0.58250 0.78909 0.03185
 H367 H 0.51935 0.71406 0.04674
 H368 H 0.54158 0.71247 -0.01756
 H369 H 0.58239 0.71365 -0.04486
 H370 H 0.55399 0.78554 -0.08321
 H371 H 0.51377 0.78462 -0.05549
 H372 H 0.48179 0.71414 -0.05442
 H373 H 0.44031 0.71694 -0.08019
 H374 H 0.41921 0.78958 -0.03894
 H375 H 0.46118 0.78704 -0.01380
 H376 H 0.56020 0.71685 0.07341
 C377 C -0.01437 0.50297 0.24842
 C378 C 0.01288 0.50382 0.24930
 C379 C 0.02941 0.47912 0.24923
 C380 C 0.02788 0.52939 0.24909
 C381 C -0.03096 0.52761 0.24814
 C382 C -0.02915 0.47731 0.24681
 C383 C 0.02641 0.45943 0.26893
 C384 C 0.04216 0.43629 0.26828
 C385 C 0.06122 0.43254 0.24798
 C386 C 0.06438 0.45252 0.22856
 C387 C 0.04870 0.47558 0.22924
 C388 C 0.04654 0.53454 0.26926
 C389 C 0.06234 0.55751 0.26841
 C390 C 0.05998 0.57570 0.24720
 C391 C 0.04097 0.57069 0.22717
 C392 C 0.02514 0.54766 0.22804
 C393 C -0.04941 0.53154 0.22747
 C394 C -0.06553 0.55430 0.22687
 C395 C -0.06368 0.57359 0.24705
 C396 C -0.04535 0.56952 0.26793
 C397 C -0.02915 0.54669 0.26849
 C398 C -0.02483 0.45950 0.22570
 C399 C -0.03948 0.43577 0.22412
 C400 C -0.05885 0.42954 0.24351
 C401 C -0.06316 0.44752 0.26454
 C402 C -0.04853 0.47121 0.26609
 H403 H 0.01188 0.46197 0.28474
 H404 H 0.03921 0.42120 0.28345
 H405 H 0.07923 0.45047 0.21298
 H406 H 0.05146 0.49064 0.21398
 H407 H 0.04899 0.52062 0.28559
 H408 H 0.07651 0.56098 0.28432
 H409 H 0.01125 0.54375 0.21199
 H410 H -0.05127 0.51695 0.21170
 H411 H -0.07978 0.55659 0.21081
 H412 H -0.04341 0.58409 0.28370
 H413 H -0.01531 0.54383 0.28483
 H414 H -0.01028 0.46408 0.21037
 H415 H -0.03559 0.42225 0.20778
 H416 H -0.07826 0.44353 0.27951
 H417 H -0.05232 0.48486 0.28236
 H418 H 0.03896 0.58411 0.21038
 C419 C 0.01356 0.49639 0.75135
 C420 C -0.01367 0.49811 0.75147
 C421 C -0.03093 0.47395 0.75138
 C422 C -0.02778 0.52419 0.75275
 C423 C 0.03091 0.52049 0.75108
 C424 C 0.02765 0.47028 0.75254
 C425 C -0.02889 0.45471 0.73120
 C426 C -0.04538 0.43212 0.73156
 C427 C -0.06425 0.42847 0.75206
 C428 C -0.06642 0.44800 0.77200
 C429 C -0.05000 0.47052 0.77160
 C430 C -0.04697 0.53059 0.73341
 C431 C -0.06126 0.55452 0.73489
 C432 C -0.05680 0.57244 0.75592
 C433 C -0.03755 0.56597 0.77531
 C434 C -0.02323 0.54201 0.77379
 C435 C 0.05057 0.52347 0.77076
 C436 C 0.06734 0.54572 0.77080
 C437 C 0.06493 0.56546 0.75103
 C438 C 0.04527 0.56244 0.73123
 C439 C 0.02851 0.54006 0.73116
 C440 C 0.02342 0.45254 0.77379
 C441 C 0.03796 0.42872 0.77538
 C442 C 0.05711 0.42232 0.75585
 C443 C 0.06118 0.44012 0.73457
 C444 C 0.04666 0.46390 0.73301
 H445 H -0.01455 0.45720 0.71520
 H446 H -0.04317 0.41737 0.71599
 H447 H -0.08109 0.44602 0.78777
 H448 H -0.05202 0.48523 0.78724
 H449 H -0.05095 0.51695 0.71719
 H450 H -0.07627 0.55870 0.71992
 H451 H -0.00884 0.53720 0.78919
 H452 H 0.05275 0.50861 0.78630
 H453 H 0.08201 0.54766 0.78653
 H454 H 0.04319 0.57715 0.71555
 H455 H 0.01380 0.53789 0.71549
 H456 H 0.00918 0.45735 0.78933
 H457 H 0.03428 0.41534 0.79193
 H458 H 0.07612 0.43600 0.71948
 H459 H 0.05041 0.47750 0.71664
 H460 H -0.03357 0.57943 0.79166
 C461 C 0.35531 0.24037 0.11047
 C462 C 0.36982 0.21748 0.10357
 C463 C 0.39221 0.21949 0.08694
 C464 C 0.31518 0.23673 0.14471
 C465 C 0.38542 0.26731 0.08371
 C466 C 0.36301 0.26525 0.10032
 C467 C 0.33325 0.23844 0.12885
 C468 C 0.40044 0.24448 0.07705
 H469 H 0.36411 0.19814 0.11142
 H470 H 0.40355 0.20160 0.08247
 H471 H 0.39104 0.28677 0.07614
 H472 H 0.35192 0.28310 0.10552
 C473 C 0.64217 0.75943 0.10731
 C474 C 0.63516 0.73464 0.09658
 C475 C 0.61360 0.73265 0.07896
 C476 C 0.68046 0.76277 0.14350
 C477 C 0.60630 0.78038 0.08231
 C478 C 0.62786 0.78232 0.09994
 C479 C 0.66325 0.76123 0.12675
 C480 C 0.59872 0.75547 0.07185
 H481 H 0.64611 0.71680 0.10213
 H482 H 0.60846 0.71325 0.07098
 H483 H 0.59505 0.79825 0.07752
 H484 H 0.63303 0.80159 0.10823
 C485 C 0.63965 0.24334 -0.11019
 C486 C 0.64268 0.23641 -0.08336
 C487 C 0.62098 0.23874 -0.06584
 C488 C 0.67969 0.23851 -0.14434
 C489 C 0.59324 0.25495 -0.10199
 C490 C 0.61490 0.25260 -0.11943
 C491 C 0.66170 0.24069 -0.12847
 C492 C 0.59602 0.24806 -0.07498
 H493 H 0.66175 0.22919 -0.07600
 H494 H 0.62377 0.23348 -0.04512
 H495 H 0.57417 0.26171 -0.10976
 H496 H 0.61229 0.25784 -0.14019
 C497 C 0.35648 0.75917 -0.11113
 C498 C 0.37106 0.78213 -0.10474
 C499 C 0.39350 0.78036 -0.08818
 C500 C 0.31621 0.76226 -0.14517
 C501 C 0.38660 0.73263 -0.08400
 C502 C 0.36417 0.73446 -0.10055
 C503 C 0.33434 0.76082 -0.12940
 C504 C 0.40168 0.75553 -0.07783
 H505 H 0.36537 0.80134 -0.11293
 H506 H 0.40487 0.79829 -0.08410
 H507 H 0.39219 0.71330 -0.07606
 H508 H 0.35301 0.71655 -0.10535
 C509 C 0.11198 0.36324 0.24451
 C510 C 0.10046 0.37347 0.22128
 C511 C 0.08358 0.39571 0.22249
 C512 C 0.14581 0.32269 0.24122
 C513 C 0.08931 0.39736 0.27033
 C514 C 0.10624 0.37510 0.26907
 C515 C 0.13026 0.34105 0.24293
 C516 C 0.07802 0.40808 0.24700
 H517 H 0.10471 0.36441 0.20218
 H518 H 0.07488 0.40325 0.20424
 H519 H 0.08563 0.40661 0.28945
 H520 H 0.11513 0.36738 0.28717
 C521 C 0.11701 0.63369 0.75387
 C522 C 0.12717 0.60812 0.75876
 C523 C 0.11031 0.58592 0.75744
 C524 C 0.14927 0.67529 0.75833
 C525 C 0.07303 0.61475 0.74588
 C526 C 0.08995 0.63697 0.74725
 C527 C 0.13437 0.65649 0.75614
 C528 C 0.08299 0.58899 0.75122
 H529 H 0.14810 0.60535 0.76377
 H530 H 0.11866 0.56632 0.76123
 H531 H 0.05205 0.61776 0.74128
 H532 H 0.08189 0.65670 0.74344
 C533 C -0.11697 0.64103 0.24428
 C534 C -0.10410 0.63230 0.22114
 C535 C -0.08635 0.61073 0.22216
 C536 C -0.15258 0.68009 0.24132
 C537 C -0.09387 0.60678 0.26965
 C538 C -0.11166 0.62837 0.26857
 C539 C -0.13622 0.66242 0.24284
 C540 C -0.08125 0.59753 0.24637
 H541 H -0.10801 0.64198 0.20224
 H542 H -0.07665 0.60432 0.20398
 H543 H -0.09057 0.59686 0.28852
 H544 H -0.12158 0.63492 0.28660
 C545 C -0.11732 0.36094 0.75458
 C546 C -0.11144 0.37324 0.73023
 C547 C -0.09379 0.39492 0.72926
 C548 C -0.15244 0.32151 0.75745
 C549 C -0.08754 0.39175 0.77697
 C550 C -0.10514 0.37010 0.77789
 C551 C -0.13633 0.33938 0.75591
 C552 C -0.08187 0.40460 0.75269
 H553 H -0.12078 0.36631 0.71206
 H554 H -0.09001 0.40453 0.71032
 H555 H -0.07834 0.39846 0.79528
 H556 H -0.10945 0.36065 0.79682
 C557 C 0.24020 0.11263 0.36119
 C558 C 0.23413 0.08546 0.35879
 C559 C 0.23641 0.06854 0.38086
 C560 C 0.23543 0.14560 0.32034
 C561 C 0.25089 0.10598 0.40773
 C562 C 0.24860 0.12282 0.38568
 C563 C 0.23758 0.13028 0.33873
 C564 C 0.24482 0.07863 0.40560
 H565 H 0.22763 0.07737 0.33990
 H566 H 0.23186 0.04754 0.37853
 H567 H 0.25700 0.11446 0.42657
 H568 H 0.25322 0.14385 0.38778
 C569 C 0.74896 0.11699 0.63553
 C570 C 0.75413 0.12691 0.61001
 C571 C 0.75334 0.10987 0.58809
 C572 C 0.75293 0.14992 0.67634
 C573 C 0.74175 0.07287 0.61705
 C574 C 0.74258 0.08999 0.63902
 C575 C 0.75086 0.13460 0.65801
 C576 C 0.74739 0.08261 0.59137
 H577 H 0.75897 0.14779 0.60708
 H578 H 0.75735 0.11804 0.56852
 H579 H 0.73733 0.05194 0.62021
 H580 H 0.73858 0.08211 0.65871
 C581 C 0.23855 -0.11321 0.63981
 C582 C 0.24692 -0.12335 0.61526
 C583 C 0.24941 -0.10640 0.59332
 C584 C 0.23393 -0.14632 0.68057
 C585 C 0.23510 -0.06898 0.62037
 C586 C 0.23264 -0.08600 0.64235
 C587 C 0.23596 -0.13092 0.66222
 C588 C 0.24356 -0.07901 0.59561
 H589 H 0.25141 -0.14440 0.61305
 H590 H 0.25552 -0.11481 0.57443
 H591 H 0.23069 -0.04795 0.62280
 H592 H 0.22617 -0.07795 0.66129
 C593 C 0.74613 -0.11763 0.36479
 C594 C 0.74018 -0.09053 0.36123
 C595 C 0.73984 -0.07328 0.38310
 C596 C 0.74959 -0.15070 0.32401
 C597 C 0.75110 -0.11031 0.41214
 C598 C 0.75139 -0.12748 0.39030
 C599 C 0.74768 -0.13535 0.34235
 C600 C 0.74558 -0.08296 0.40877
 H601 H 0.73615 -0.08268 0.34153
 H602 H 0.73575 -0.05228 0.37987
 H603 H 0.75517 -0.11844 0.43170
 H604 H 0.75596 -0.14843 0.39330
 C605 C 0.64127 0.75362 -0.11605
 C606 C 0.62898 0.72900 -0.11100
 C607 C 0.60655 0.72761 -0.09432
 C608 C 0.68191 0.75749 -0.14964
 C609 C 0.60891 0.77544 -0.08743
 C610 C 0.63131 0.77678 -0.10405
 C611 C 0.66354 0.75543 -0.13418
 C612 C 0.59610 0.75089 -0.08259
 H613 H 0.63649 0.71096 -0.12026
 H614 H 0.59697 0.70847 -0.09117
 H615 H 0.60158 0.79364 -0.07836
 H616 H 0.64070 0.79593 -0.10777
 C617 C 0.36438 0.25013 -0.11458
 C618 C 0.36032 0.25630 -0.08772
 C619 C 0.38219 0.25783 -0.07038
 C620 C 0.32369 0.24433 -0.14766
 C621 C 0.41220 0.24745 -0.10688
 C622 C 0.39037 0.24596 -0.12414
 C623 C 0.34200 0.24725 -0.13233
 C624 C 0.40833 0.25308 -0.07974
 H625 H 0.34026 0.25953 -0.08011
 H626 H 0.37860 0.26201 -0.04955
 H627 H 0.43213 0.24413 -0.11475
 H628 H 0.39374 0.24127 -0.14491
 C629 C 0.36287 0.75408 0.11106
 C630 C 0.37510 0.72950 0.10573
 C631 C 0.39685 0.72814 0.08818
 C632 C 0.32395 0.75786 0.14658
 C633 C 0.39385 0.77592 0.08096
 C634 C 0.37213 0.77722 0.09845
 C635 C 0.34150 0.75589 0.13022
 C636 C 0.40667 0.75142 0.07587
 H637 H 0.36814 0.71147 0.11547
 H638 H 0.40647 0.70904 0.08486
 H639 H 0.40071 0.79411 0.07148
 H640 H 0.36278 0.79635 0.10240
 C641 C 0.63957 0.24584 0.11594
 C642 C 0.63000 0.22290 0.10330
 C643 C 0.60772 0.22443 0.08658
 C644 C 0.68004 0.24177 0.14960
 C645 C 0.60470 0.27204 0.09468
 C646 C 0.62701 0.27045 0.11145
 C647 C 0.66173 0.24386 0.13412
 C648 C 0.59464 0.24896 0.08228
 H649 H 0.63961 0.20377 0.10658
 H650 H 0.60070 0.20640 0.07699
 H651 H 0.59491 0.29115 0.09196
 H652 H 0.63422 0.28833 0.12120
 C653 C -0.10583 0.64280 0.76164
 C654 C -0.09543 0.63497 0.73700
 C655 C -0.07905 0.61238 0.73518
 C656 C -0.13960 0.68340 0.76475
 C657 C -0.08306 0.60562 0.78277
 C658 C -0.09945 0.62820 0.78454
 C659 C -0.12394 0.66511 0.76330
 C660 C -0.07289 0.59730 0.75802
 H661 H -0.10024 0.64614 0.71914
 H662 H -0.07126 0.60666 0.71590
 H663 H -0.07898 0.59424 0.80065
 H664 H -0.10751 0.63401 0.80370
 C665 C -0.10796 0.35931 0.23805
 C666 C -0.10152 0.37380 0.21509
 C667 C -0.08516 0.39638 0.21678
 C668 C -0.14146 0.31856 0.23510
 C669 C -0.08130 0.38982 0.26441
 C670 C -0.09766 0.36724 0.26267
 C671 C -0.12595 0.33694 0.23646
 C672 C -0.07506 0.40479 0.24151
 H673 H -0.10950 0.36791 0.19595
 H674 H -0.08100 0.40766 0.19885
 H675 H -0.07355 0.39559 0.28367
 H676 H -0.10250 0.35615 0.28057
 C677 C 0.10772 0.35313 0.76197
 C678 C 0.09693 0.36047 0.73734
 C679 C 0.07997 0.38262 0.73541
 C680 C 0.14285 0.31372 0.76513
 C681 C 0.08413 0.38986 0.78289
 C682 C 0.10110 0.36771 0.78477
 C683 C 0.12656 0.33144 0.76369
 C684 C 0.07362 0.39774 0.75813
 H685 H 0.10193 0.34931 0.71957
 H686 H 0.07192 0.38800 0.71614
 H687 H 0.07991 0.40128 0.80067
 H688 H 0.10946 0.36228 0.80391
 C689 C 0.11279 0.64331 0.24183
 C690 C 0.12250 0.61856 0.25043
 C691 C 0.10529 0.59666 0.25225
 C692 C 0.14669 0.68368 0.23789
 C693 C 0.06842 0.62419 0.23690
 C694 C 0.08571 0.64612 0.23509
 C695 C 0.13088 0.66558 0.23966
 C696 C 0.07804 0.59920 0.24552
 H697 H 0.14345 0.61613 0.25556
 H698 H 0.11343 0.57761 0.25851
 H699 H 0.04751 0.62682 0.23180
 H700 H 0.07799 0.66521 0.22842
 C701 C 0.76338 -0.10962 0.64183
 C702 C 0.78596 -0.10250 0.62688
 C703 C 0.78338 -0.08532 0.60506
 C704 C 0.76770 -0.14433 0.68132
 C705 C 0.73562 -0.08203 0.61329
 C706 C 0.73825 -0.09919 0.63511
 C707 C 0.76583 -0.12832 0.66347
 C708 C 0.75812 -0.07508 0.59787
 H709 H 0.80549 -0.11056 0.63182
 H710 H 0.80101 -0.08066 0.59338
 H711 H 0.71597 -0.07424 0.60843
 H712 H 0.72064 -0.10455 0.64655
 C713 C 0.24944 -0.11215 0.36096
 C714 C 0.22587 -0.09999 0.36994
 C715 C 0.22650 -0.08288 0.39184
 C716 C 0.24676 -0.14702 0.32160
 C717 C 0.27446 -0.08955 0.39559
 C718 C 0.27378 -0.10673 0.37368
 C719 C 0.24830 -0.13095 0.33936
 C720 C 0.25075 -0.07770 0.40512
 H721 H 0.20693 -0.10401 0.36023
 H722 H 0.20798 -0.07376 0.39848
 H723 H 0.29338 -0.08616 0.40557
 H724 H 0.29214 -0.11612 0.36695
 C725 C 0.76287 0.10935 0.35782
 C726 C 0.73773 0.09927 0.36497
 C727 C 0.73521 0.08216 0.38683
 C728 C 0.76690 0.14407 0.31831
 C729 C 0.78313 0.08479 0.39425
 C730 C 0.78559 0.10193 0.37238
 C731 C 0.76518 0.12805 0.33616
 C732 C 0.75786 0.07492 0.40188
 H733 H 0.72001 0.10488 0.35383
 H734 H 0.71555 0.07464 0.39202
 H735 H 0.80087 0.07989 0.40563
 H736 H 0.80513 0.10973 0.36710
 C737 C 0.24763 0.11120 0.64111
 C738 C 0.27214 0.10580 0.62865
 C739 C 0.27312 0.08882 0.60659
 C740 C 0.24455 0.14581 0.68066
 C741 C 0.22509 0.08230 0.60968
 C742 C 0.22417 0.09922 0.63172
 C743 C 0.24623 0.12984 0.66282
 C744 C 0.24953 0.07715 0.59667
 H745 H 0.29041 0.11507 0.63569
 H746 H 0.29218 0.08545 0.59683
 H747 H 0.20666 0.07330 0.60275
 H748 H 0.20509 0.10323 0.64123
   
