data_POSCAR
  _audit_creation_date              2014-09-24
  _audit_creation_method            'ToBaCCo'
  _symmetry_space_group_name_H-M    'P1'
  _symmetry_Int_Tables_number       1
  _symmetry_cell_setting            triclinic
  loop_
  _symmetry_equiv_pos_as_xyz
 x,y,z
_cell_length_a 13.6178
_cell_length_b 14.5022
_cell_length_c 14.8410
_cell_angle_alpha 108.668800
_cell_angle_beta 63.683000
_cell_angle_gamma 70.100600
loop_
  _atom_site_label
  _atom_site_type_symbol
  _atom_site_fract_x
  _atom_site_fract_y
  _atom_site_fract_z
C1 C 0.52321 0.56558 0.04706
 C2 C 0.50823 0.58653 -0.03417
 C3 C 0.46016 0.53390 -0.08378
 C4 C 0.43700 0.45401 -0.06119
 C5 C 0.46073 0.42627 0.01274
 C6 C 0.49858 0.48610 0.07071
 H7 H 0.51818 0.46465 0.12702
 H8 H 0.44951 0.54877 -0.14700
 C9 C 0.03852 0.38412 0.46401
 C10 C 0.03080 0.46831 0.55260
 C11 C 0.00775 0.57277 0.55899
 C12 C -0.01344 0.59612 0.48295
 C13 C -0.00048 0.51077 0.39177
 C14 C 0.03005 0.40320 0.38053
 H15 H 0.03701 0.33746 0.31260
 H16 H -0.00506 0.64091 0.63010
 C17 C 0.55874 -0.06269 0.37059
 C18 C 0.48893 -0.09663 0.43965
 C19 C 0.48902 -0.08967 0.53628
 C20 C 0.53638 -0.02983 0.57875
 C21 C 0.59660 0.01327 0.51492
 C22 C 0.61682 -0.01185 0.40632
 H23 H 0.66159 0.02298 0.35913
 H24 H 0.43250 -0.11337 0.59105
 O25 O 0.38859 0.04451 -0.03603
 O26 O 0.46691 0.01149 0.16256
 O27 O 0.39506 0.17684 0.12112
 O28 O 0.46822 -0.12683 0.00059
 O29 O 0.67614 -0.19837 -0.14281
 O30 O 0.60331 0.09925 -0.02865
 O31 O 0.67501 -0.05765 0.02256
 O32 O 0.59751 -0.03364 -0.18449
 Cu33 Cu 0.40915 0.03299 0.07569
 Cu34 Cu 0.65927 -0.05648 -0.09679
 C35 C 0.47541 0.01745 -0.13994
 C36 C 0.58490 -0.02908 0.12627
 C37 C 0.48641 0.18886 0.06212
 C38 C 0.58683 -0.21438 -0.09085
 O39 O -0.21227 0.66497 1.11281
 O40 O 0.14619 0.52050 0.96018
 O41 O -0.00922 0.60046 0.90670
 O42 O -0.05039 0.57921 1.15952
 O43 O -0.01927 0.40603 1.07066
 O44 O 0.02549 0.42575 0.81657
 O45 O 0.18122 0.34598 0.86796
 O46 O -0.17805 0.49135 1.01889
 Cu47 Cu -0.03600 0.60945 1.04409
 Cu48 Cu 0.00499 0.39985 0.93527
 C49 C -0.25570 0.60346 1.08945
 C50 C 0.22411 0.40846 0.89045
 C51 C 0.01407 0.51730 0.81932
 C52 C -0.03586 0.48623 1.15498
 O53 O 0.01210 -0.14802 0.44970
 O54 O 0.03346 0.09975 0.45722
 O55 O 0.18222 -0.08725 0.43573
 O56 O -0.13364 0.04366 0.48248
 O57 O -0.24406 0.15953 0.68030
 O58 O 0.06557 -0.00643 0.63271
 O59 O -0.06837 0.19309 0.65414
 O60 O -0.13155 -0.03230 0.64956
 Cu61 Cu 0.03817 -0.03485 0.43500
 Cu62 Cu -0.09908 0.08352 0.67314
 C63 C -0.07814 -0.12395 0.55023
 C64 C -0.01313 0.18792 0.55623
 C65 C 0.17619 -0.06507 0.52864
 C66 C -0.24232 0.12306 0.58944
 N67 N -0.43317 0.61464 1.09562
 N68 N -0.39320 0.66248 1.14124
 N69 N 0.39848 0.40126 0.88660
 N70 N 0.36114 0.35108 0.83949
 N71 N -0.07110 -0.29494 0.51419
 N72 N -0.13472 -0.18996 0.55255
 N73 N 0.03923 0.28538 0.46383
 N74 N -0.00741 0.28459 0.55878
 N75 N 0.48990 0.01151 -0.30833
 N76 N 0.42819 0.05676 -0.19841
 N77 N 0.54377 -0.05639 0.28251
 N78 N 0.61605 -0.04394 0.20295
 N79 N 0.56267 -0.36622 -0.08264
 N80 N 0.62433 -0.33360 -0.13860
 N81 N 0.46905 0.32358 0.00922
 N82 N 0.45680 0.30318 0.08964
 N83 N -0.38321 0.09015 0.56345
 N84 N -0.36508 0.16313 0.60954
 N85 N 0.38942 -0.10361 0.43333
 N86 N 0.29093 -0.08892 0.52102
 N87 N -0.02125 0.53507 1.31320
 N88 N -0.02737 0.46662 1.24003
 N89 N 0.03414 0.45267 0.64190
 N90 N 0.02073 0.53014 0.72616
   
