data_POSCAR
  _audit_creation_date              2014-09-24
  _audit_creation_method            'ToBaCCo'
  _symmetry_space_group_name_H-M    'P1'
  _symmetry_Int_Tables_number       1
  _symmetry_cell_setting            triclinic
  loop_
  _symmetry_equiv_pos_as_xyz
 x,y,z
_cell_length_a 29.3008
_cell_length_b 34.2554
_cell_length_c 26.6606
_cell_angle_alpha 88.755700
_cell_angle_beta 89.793100
_cell_angle_gamma 91.552500
loop_
  _atom_site_label
  _atom_site_type_symbol
  _atom_site_fract_x
  _atom_site_fract_y
  _atom_site_fract_z
C1 C 0.27914 0.28938 0.23578
 C2 C 0.24503 0.26731 0.26118
 C3 C 0.21209 0.28607 0.28944
 C4 C 0.21254 0.32701 0.29151
 C5 C 0.24734 0.34885 0.26663
 C6 C 0.28101 0.33021 0.23908
 C7 C 0.24362 0.22461 0.25730
 C8 C 0.27002 0.20168 0.28959
 C9 C 0.27060 0.16094 0.28451
 C10 C 0.24536 0.14374 0.24563
 C11 C 0.21770 0.16634 0.21431
 C12 C 0.21684 0.20685 0.22037
 H13 H 0.30418 0.27477 0.21337
 H14 H 0.18597 0.26888 0.30940
 H15 H 0.29005 0.21562 0.31859
 H16 H 0.19557 0.22454 0.19625
 H17 H 0.24816 0.38044 0.26859
 H18 H 0.24676 0.11255 0.23999
 C19 C 0.78152 0.79760 0.22641
 C20 C 0.74794 0.77433 0.25068
 C21 C 0.71231 0.79169 0.27630
 C22 C 0.70942 0.83266 0.27732
 C23 C 0.74394 0.85567 0.25296
 C24 C 0.78055 0.83856 0.22784
 C25 C 0.75091 0.73164 0.24913
 C26 C 0.78335 0.71258 0.27852
 C27 C 0.79083 0.67255 0.27284
 C28 C 0.76351 0.65151 0.23895
 C29 C 0.72983 0.67018 0.21074
 C30 C 0.72373 0.71034 0.21579
 H31 H 0.80769 0.78349 0.20503
 H32 H 0.68791 0.77311 0.29688
 H33 H 0.80302 0.72916 0.30548
 H34 H 0.69828 0.72503 0.19343
 H35 H 0.74241 0.88722 0.25375
 H36 H 0.76837 0.62053 0.23440
 C37 C 0.77552 0.29486 0.72105
 C38 C 0.74135 0.27225 0.74535
 C39 C 0.70734 0.29036 0.77282
 C40 C 0.70718 0.33142 0.77625
 C41 C 0.74274 0.35359 0.75252
 C42 C 0.77679 0.33553 0.72496
 C43 C 0.74276 0.22951 0.74286
 C44 C 0.77604 0.20954 0.76991
 C45 C 0.78239 0.16928 0.76348
 C46 C 0.75241 0.14926 0.73084
 C47 C 0.71831 0.16901 0.70450
 C48 C 0.71349 0.20917 0.71078
 H49 H 0.80129 0.28070 0.69913
 H50 H 0.68219 0.27229 0.79305
 H51 H 0.79630 0.22569 0.79678
 H52 H 0.68764 0.22467 0.68997
 H53 H 0.74346 0.38519 0.75431
 H54 H 0.75636 0.11846 0.72414
 C55 C 0.28270 0.79136 0.74132
 C56 C 0.24804 0.76909 0.76545
 C57 C 0.21256 0.78764 0.78984
 C58 C 0.21122 0.82855 0.78947
 C59 C 0.24611 0.85067 0.76509
 C60 C 0.28273 0.83245 0.74137
 C61 C 0.24922 0.72628 0.76405
 C62 C 0.28239 0.70641 0.79145
 C63 C 0.28827 0.66620 0.78527
 C64 C 0.25862 0.64589 0.75298
 C65 C 0.22346 0.66519 0.72790
 C66 C 0.21939 0.70557 0.73278
 H67 H 0.30869 0.77635 0.72074
 H68 H 0.18623 0.77030 0.80927
 H69 H 0.30376 0.72252 0.81735
 H70 H 0.19327 0.72086 0.71212
 H71 H 0.24523 0.88226 0.76599
 H72 H 0.26229 0.61483 0.74784
 C73 C 0.08316 0.03347 0.01979
 H74 H 0.09647 0.01217 -0.00528
 C75 C 0.11340 0.05708 0.04685
 H76 H 0.14984 0.05337 0.04318
 C77 C 0.01979 0.06441 0.05564
 H78 H -0.01683 0.06690 0.05891
 C79 C 0.04879 0.08853 0.08348
 H80 H 0.03451 0.10959 0.10841
 N81 N 0.03727 0.03698 0.02540
 C82 C 0.02364 -0.03383 -0.09820
 H83 H 0.00122 -0.01459 -0.11824
 C84 C 0.04986 -0.05972 -0.12508
 H85 H 0.04844 -0.05927 -0.16567
 C86 C 0.05343 -0.05792 -0.02139
 H87 H 0.05484 -0.05675 0.01910
 C88 C 0.07981 -0.08456 -0.04673
 H89 H 0.10165 -0.10389 -0.02565
 Zn90 Zn -0.00468 0.00410 -0.00874
 N91 N 0.02694 -0.03255 -0.04734
 C92 C -0.02229 0.05605 -0.08949
 N93 N -0.04149 0.03662 -0.04933
 C94 C -0.08598 0.04147 -0.03672
 C95 C -0.11329 0.06580 -0.06581
 C96 C -0.04882 0.07948 -0.12069
 C97 C -0.07431 -0.04942 0.01886
 C98 C -0.10221 -0.07232 0.05097
 C99 C -0.06149 -0.04550 0.12157
 C100 C -0.03441 -0.02300 0.08812
 N101 N -0.04153 -0.02509 0.03781
 H102 H 0.01351 0.05267 -0.09791
 H103 H -0.10028 0.02684 -0.00374
 H104 H -0.14862 0.06940 -0.05519
 H105 H -0.03357 0.09301 -0.15403
 H106 H -0.07881 -0.05086 -0.02133
 H107 H -0.12844 -0.09141 0.03556
 H108 H -0.05584 -0.04351 0.16157
 H109 H -0.00752 -0.00423 0.10244
 C110 C 0.07849 -0.08537 -0.09926
 C111 C 0.09615 0.08482 0.07928
 C112 C -0.09565 -0.07059 0.10289
 C113 C -0.09483 0.08509 -0.10856
 C114 C 0.09044 0.53098 0.53392
 H115 H 0.10434 0.51047 0.50817
 C116 C 0.11994 0.55282 0.56410
 H117 H 0.15641 0.54868 0.56199
 C118 C 0.02633 0.56189 0.56825
 H119 H -0.01028 0.56507 0.56969
 C120 C 0.05456 0.58422 0.59916
 H121 H 0.03974 0.60469 0.62454
 N122 N 0.04447 0.53510 0.53754
 C123 C 0.03089 0.46660 0.41038
 H124 H 0.00817 0.48586 0.39083
 C125 C 0.05649 0.44068 0.38288
 H126 H 0.05447 0.44131 0.34232
 C127 C 0.06122 0.44178 0.48652
 H128 H 0.06292 0.44253 0.52702
 C129 C 0.08698 0.41505 0.46053
 H130 H 0.10867 0.39528 0.48110
 Zn131 Zn 0.00304 0.50372 0.50063
 N132 N 0.03476 0.46757 0.46121
 C133 C -0.01414 0.55633 0.41984
 N134 N -0.03274 0.53772 0.46093
 C135 C -0.07629 0.54441 0.47560
 C136 C -0.10332 0.56981 0.44775
 C137 C -0.04072 0.58037 0.38948
 C138 C -0.03090 0.47536 0.59553
 C139 C -0.05957 0.45247 0.62688
 C140 C -0.09596 0.42596 0.55339
 C141 C -0.06687 0.44956 0.52344
 N142 N -0.03532 0.47376 0.54480
 H143 H 0.02110 0.55174 0.40990
 H144 H -0.08999 0.53041 0.50932
 H145 H -0.13780 0.57494 0.46026
 H146 H -0.02620 0.59275 0.35509
 H147 H -0.00508 0.49418 0.61185
 H148 H -0.05627 0.45437 0.66721
 H149 H -0.12102 0.40685 0.53596
 H150 H -0.06936 0.44867 0.48300
 C151 C 0.08498 0.41452 0.40802
 C152 C 0.10180 0.57904 0.59794
 C153 C -0.09220 0.42712 0.60573
 C154 C -0.08579 0.58796 0.40374
 C155 C 0.58270 0.02774 0.52043
 H156 H 0.59613 0.00824 0.49311
 C157 C 0.61255 0.05288 0.54572
 H158 H 0.64891 0.05203 0.53850
 C159 C 0.51930 0.05321 0.56309
 H160 H 0.48283 0.05307 0.56962
 C161 C 0.54794 0.07878 0.58926
 H162 H 0.53353 0.09833 0.61611
 N163 N 0.53707 0.02776 0.53027
 C164 C 0.51736 -0.04671 0.40813
 H165 H 0.48959 -0.03126 0.39116
 C166 C 0.54354 -0.07087 0.37861
 H167 H 0.53672 -0.07273 0.33882
 C168 C 0.56004 -0.06381 0.48026
 H169 H 0.56631 -0.06075 0.51997
 C170 C 0.58701 -0.08831 0.45217
 H171 H 0.61430 -0.10397 0.47022
 Zn172 Zn 0.49560 -0.00705 0.49843
 N173 N 0.52713 -0.04245 0.45764
 C174 C 0.46852 0.04060 0.41613
 N175 N 0.45477 0.02373 0.46051
 C176 C 0.41259 0.03008 0.47968
 C177 C 0.38159 0.05243 0.45271
 C178 C 0.43788 0.06168 0.38689
 C179 C 0.42841 -0.06139 0.52903
 C180 C 0.40112 -0.08386 0.56221
 C181 C 0.44475 -0.05769 0.63116
 C182 C 0.47123 -0.03563 0.59664
 N183 N 0.46218 -0.03745 0.54669
 H184 H 0.50303 0.03694 0.40286
 H185 H 0.40312 0.01819 0.51624
 H186 H 0.34847 0.05778 0.46894
 H187 H 0.44877 0.07346 0.35063
 H188 H 0.42224 -0.06246 0.48910
 H189 H 0.37379 -0.10233 0.54784
 H190 H 0.45159 -0.05559 0.67092
 H191 H 0.49881 -0.01706 0.60986
 C192 C 0.57919 -0.09158 0.40059
 C193 C 0.59512 0.07864 0.58067
 C194 C 0.40925 -0.08206 0.61385
 C195 C 0.39334 0.06705 0.40463
 C196 C 0.59339 0.52327 0.03384
 H197 H 0.60634 0.50085 0.01037
 C198 C 0.62432 0.54766 0.05885
 H199 H 0.66064 0.54322 0.05537
 C200 C 0.53113 0.55779 0.06597
 H201 H 0.49492 0.56270 0.06703
 C202 C 0.56082 0.58268 0.09180
 H203 H 0.54727 0.60589 0.11392
 N204 N 0.54756 0.52794 0.03890
 C205 C 0.52414 0.45704 -0.08546
 H206 H 0.49749 0.47445 -0.10145
 C207 C 0.54866 0.43279 -0.11650
 H208 H 0.54167 0.43270 -0.15636
 C209 C 0.56566 0.43540 -0.01453
 H210 H 0.57188 0.43641 0.02540
 C211 C 0.59119 0.41091 -0.04424
 H212 H 0.61743 0.39338 -0.02723
 Zn213 Zn 0.50399 0.49474 0.00649
 N214 N 0.53410 0.45904 -0.03571
 C215 C 0.48435 0.54703 -0.07281
 N216 N 0.46599 0.52778 -0.03207
 C217 C 0.42201 0.53319 -0.01794
 C218 C 0.39480 0.55889 -0.04507
 C219 C 0.45751 0.57118 -0.10271
 C220 C 0.46192 0.42605 0.04737
 C221 C 0.43429 0.40327 0.07994
 C222 C 0.41967 0.46094 0.12725
 C223 C 0.44795 0.48259 0.09409
 N224 N 0.46821 0.46507 0.05469
 H225 H 0.51963 0.54276 -0.08289
 H226 H 0.40798 0.51799 0.01470
 H227 H 0.36015 0.56333 -0.03259
 H228 H 0.47196 0.58411 -0.13681
 H229 H 0.47740 0.41255 0.01554
 H230 H 0.42901 0.37240 0.07330
 H231 H 0.40304 0.47530 0.15785
 H232 H 0.45255 0.51352 0.09931
 C233 C 0.58317 0.40991 -0.09597
 C234 C 0.60792 0.57749 0.08852
 C235 C 0.41271 0.42088 0.12014
 C236 C 0.41235 0.57826 -0.08828
 C237 C 0.15688 -0.10568 -0.11771
 C238 C 0.18876 -0.12589 -0.14496
 C239 C 0.17504 -0.15133 -0.18282
 C240 C 0.12780 -0.15678 -0.19293
 C241 C 0.09515 -0.13684 -0.16424
 C242 C 0.11005 -0.11036 -0.12709
 C243 C 0.04856 -0.14446 -0.17347
 N244 N 0.03578 -0.16886 -0.21056
 N245 N 0.06639 -0.18623 -0.23889
 C246 C 0.11188 -0.18095 -0.23150
 H247 H 0.16899 -0.08553 -0.08962
 H248 H 0.22467 -0.12146 -0.13656
 H249 H 0.02216 -0.13155 -0.15135
 H250 H 0.13502 -0.19551 -0.25608
 C251 C 0.16230 0.39231 0.38780
 C252 C 0.19297 0.37176 0.35927
 C253 C 0.17769 0.34729 0.32103
 C254 C 0.13011 0.34311 0.31191
 C255 C 0.09873 0.36324 0.34204
 C256 C 0.11520 0.38889 0.37937
 C257 C 0.05175 0.35669 0.33393
 N258 N 0.03744 0.33329 0.29642
 N259 N 0.06687 0.31592 0.26663
 C260 C 0.11262 0.32013 0.27291
 H261 H 0.17559 0.41180 0.41603
 H262 H 0.22914 0.37525 0.36685
 H263 H 0.02626 0.36965 0.35723
 H264 H 0.13471 0.30567 0.24710
 C265 C 0.65654 -0.10073 0.36734
 C266 C 0.68780 -0.11811 0.33620
 C267 C 0.67484 -0.14934 0.30533
 C268 C 0.62796 -0.16205 0.30539
 C269 C 0.59637 -0.14474 0.33833
 C270 C 0.61088 -0.11355 0.36900
 C271 C 0.55097 -0.15915 0.33930
 N272 N 0.53735 -0.18707 0.30694
 N273 N 0.56602 -0.20140 0.27364
 C274 C 0.61054 -0.18960 0.27135
 H275 H 0.66814 -0.07671 0.39028
 H276 H 0.72303 -0.10780 0.33798
 H277 H 0.52612 -0.14843 0.36534
 H278 H 0.63141 -0.20127 0.24209
 C279 C 0.65975 0.39761 -0.12976
 C280 C 0.68953 0.37948 -0.16184
 C281 C 0.67415 0.35012 -0.19438
 C282 C 0.62643 0.34018 -0.19514
 C283 C 0.59624 0.35847 -0.16139
 C284 C 0.61325 0.38756 -0.12903
 C285 C 0.54938 0.34847 -0.16009
 N286 N 0.53406 0.32134 -0.19473
 N287 N 0.56226 0.30573 -0.22978
 C288 C 0.60735 0.31499 -0.23093
 H289 H 0.67316 0.42006 -0.10540
 H290 H 0.72544 0.38765 -0.15963
 H291 H 0.52346 0.33021 -0.17598
 H292 H 0.62751 0.30311 -0.26062
 C293 C -0.16577 0.09146 -0.15767
 C294 C -0.19496 0.11117 -0.18975
 C295 C -0.18387 0.14895 -0.20878
 C296 C -0.14027 0.16579 -0.19624
 C297 C -0.11209 0.14671 -0.16049
 C298 C -0.12456 0.10872 -0.14197
 C299 C -0.07223 0.16655 -0.14445
 N300 N -0.05874 0.20077 -0.16705
 N301 N -0.08248 0.21653 -0.20442
 C302 C -0.12230 0.20001 -0.22022
 H303 H -0.17586 0.06233 -0.14450
 H304 H -0.22759 0.09706 -0.19753
 H305 H -0.05162 0.15529 -0.11420
 H306 H -0.13900 0.21349 -0.25196
 C307 C -0.15962 0.59711 0.36057
 C308 C -0.18888 0.61701 0.32876
 C309 C -0.17496 0.65205 0.30443
 C310 C -0.13004 0.66722 0.31292
 C311 C -0.10145 0.64843 0.34849
 C312 C -0.11579 0.61216 0.37115
 C313 C -0.05969 0.66714 0.36061
 N314 N -0.04566 0.70004 0.33521
 N315 N -0.07070 0.71571 0.29883
 C316 C -0.11218 0.70033 0.28660
 H317 H -0.17148 0.56942 0.37694
 H318 H -0.22297 0.60484 0.32332
 H319 H -0.03822 0.65627 0.39035
 H320 H -0.13046 0.71399 0.25610
 C321 C 0.37466 0.12556 0.35294
 C322 C 0.34511 0.14835 0.32485
 C323 C 0.29938 0.13658 0.31809
 C324 C 0.28323 0.10094 0.34097
 C325 C 0.31420 0.07635 0.36654
 C326 C 0.36012 0.08942 0.37398
 C327 C 0.29808 0.03910 0.38295
 N328 N 0.25326 0.02899 0.37850
 N329 N 0.22352 0.05339 0.35832
 C330 C 0.23688 0.08903 0.33969
 H331 H 0.40938 0.13632 0.35820
 H332 H 0.35835 0.17533 0.30774
 H333 H 0.32058 0.01769 0.39877
 H334 H 0.21101 0.10774 0.32450
 C335 C 0.33815 0.58875 -0.13020
 C336 C 0.30872 0.60948 -0.16086
 C337 C 0.32283 0.64466 -0.18475
 C338 C 0.36817 0.65909 -0.17691
 C339 C 0.39686 0.63965 -0.14203
 C340 C 0.38231 0.60319 -0.11994
 C341 C 0.43889 0.65793 -0.12998
 N342 N 0.45317 0.69087 -0.15514
 N343 N 0.42812 0.70700 -0.19117
 C344 C 0.38633 0.69212 -0.20315
 H345 H 0.32607 0.56096 -0.11437
 H346 H 0.27431 0.59782 -0.16567
 H347 H 0.46037 0.64673 -0.10046
 H348 H 0.36803 0.70611 -0.23337
 C349 C -0.17143 -0.08520 0.14024
 C350 C -0.20128 -0.10638 0.17180
 C351 C -0.18626 -0.13796 0.20156
 C352 C -0.13870 -0.14618 0.20129
 C353 C -0.10856 -0.12490 0.16821
 C354 C -0.12531 -0.09429 0.13750
 C355 C -0.06235 -0.13502 0.16699
 N356 N -0.04684 -0.16277 0.19913
 N357 N -0.07434 -0.18097 0.23245
 C358 C -0.11945 -0.17338 0.23502
 H359 H -0.18460 -0.06165 0.11718
 H360 H -0.23705 -0.09922 0.17052
 H361 H -0.03834 -0.12101 0.14101
 H362 H -0.13946 -0.18811 0.26419
 C363 C -0.17061 0.40864 0.63303
 C364 C -0.20208 0.38716 0.66232
 C365 C -0.18767 0.35936 0.69775
 C366 C -0.14024 0.35367 0.70430
 C367 C -0.10817 0.37498 0.67362
 C368 C -0.12367 0.40298 0.63802
 C369 C -0.06159 0.36688 0.67905
 N370 N -0.04816 0.34067 0.71448
 N371 N -0.07809 0.32189 0.74467
 C372 C -0.12357 0.32755 0.74093
 H373 H -0.18304 0.42994 0.60609
 H374 H -0.23815 0.39180 0.65666
 H375 H -0.03573 0.38086 0.65534
 H376 H -0.14612 0.31178 0.76687
 C377 C 0.33339 -0.09376 0.65222
 C378 C 0.30289 -0.11360 0.68438
 C379 C 0.31678 -0.14515 0.71491
 C380 C 0.36401 -0.15454 0.71496
 C381 C 0.39481 -0.13466 0.68122
 C382 C 0.37908 -0.10420 0.64957
 C383 C 0.44058 -0.14604 0.68026
 N384 N 0.45516 -0.17358 0.71328
 N385 N 0.42713 -0.19040 0.74720
 C386 C 0.38235 -0.18157 0.74956
 H387 H 0.32100 -0.07025 0.62852
 H388 H 0.26744 -0.10549 0.68287
 H389 H 0.46499 -0.13318 0.65381
 H390 H 0.36190 -0.19519 0.77921
 C391 C 0.33421 0.40377 0.14793
 C392 C 0.30253 0.38193 0.17658
 C393 C 0.31671 0.35367 0.21157
 C394 C 0.36414 0.34818 0.21869
 C395 C 0.39636 0.37008 0.18891
 C396 C 0.38102 0.39783 0.15310
 C397 C 0.44308 0.36399 0.19670
 N398 N 0.45646 0.33797 0.23238
 N399 N 0.42631 0.31784 0.26090
 C400 C 0.38071 0.32217 0.25549
 H401 H 0.32207 0.42504 0.12078
 H402 H 0.26650 0.38665 0.17073
 H403 H 0.46908 0.37994 0.17514
 H404 H 0.35801 0.30563 0.28049
 C405 C 0.12390 0.10171 0.16349
 C406 C 0.15362 0.12086 0.19590
 C407 C 0.18758 0.14696 0.17740
 C408 C 0.19164 0.15385 0.12493
 C409 C 0.16113 0.13445 0.09186
 C410 C 0.12735 0.10785 0.11150
 C411 C 0.16525 0.14272 0.04013
 N412 N 0.19859 0.16781 0.02284
 N413 N 0.22797 0.18520 0.05375
 C414 C 0.22572 0.17903 0.10413
 H415 H 0.09836 0.08140 0.17910
 H416 H 0.15005 0.11532 0.23592
 H417 H 0.14217 0.12970 0.01330
 H418 H 0.25072 0.19372 0.12732
 C419 C 0.16247 0.62895 0.61319
 C420 C 0.19137 0.65010 0.64461
 C421 C 0.19088 0.64292 0.69653
 C422 C 0.16017 0.61421 0.71734
 C423 C 0.13096 0.59253 0.68534
 C424 C 0.13207 0.60027 0.63290
 C425 C 0.10194 0.56336 0.70701
 N426 N 0.10143 0.55734 0.75745
 N427 N 0.12800 0.57840 0.78762
 C428 C 0.15725 0.60663 0.76936
 H429 H 0.16366 0.63509 0.57316
 H430 H 0.21469 0.67196 0.62825
 H431 H 0.07982 0.54516 0.68443
 H432 H 0.17771 0.62296 0.79574
 C433 C 0.62775 0.09728 0.66224
 C434 C 0.65790 0.11860 0.69196
 C435 C 0.68739 0.14726 0.67062
 C436 C 0.68653 0.15449 0.61807
 C437 C 0.65553 0.13296 0.58782
 C438 C 0.62633 0.10380 0.61023
 C439 C 0.65450 0.14171 0.53605
 N440 N 0.68368 0.16926 0.51598
 N441 N 0.71368 0.18867 0.54414
 C442 C 0.71620 0.18219 0.59440
 H443 H 0.60573 0.07504 0.67992
 H444 H 0.65818 0.11275 0.73206
 H445 H 0.63066 0.12713 0.51139
 H446 H 0.74149 0.19862 0.61523
 C447 C 0.63921 0.59809 0.16981
 C448 C 0.66900 0.62004 0.19922
 C449 C 0.69992 0.64723 0.17717
 C450 C 0.70112 0.65214 0.12426
 C451 C 0.67076 0.62974 0.09428
 C452 C 0.63977 0.60241 0.11747
 C453 C 0.67215 0.63584 0.04197
 N454 N 0.70268 0.66202 0.02129
 N455 N 0.73178 0.68250 0.04937
 C456 C 0.73211 0.67843 0.10008
 H457 H 0.61571 0.57728 0.18803
 H458 H 0.66770 0.61603 0.23963
 H459 H 0.64920 0.62021 0.01735
 H460 H 0.75668 0.69566 0.12092
   
