data_POSCAR
  _audit_creation_date              2014-09-24
  _audit_creation_method            'ToBaCCo'
  _symmetry_space_group_name_H-M    'P1'
  _symmetry_Int_Tables_number       1
  _symmetry_cell_setting            triclinic
  loop_
  _symmetry_equiv_pos_as_xyz
 x,y,z
_cell_length_a 41.5413
_cell_length_b 40.5754
_cell_length_c 47.0701
_cell_angle_alpha 89.967100
_cell_angle_beta 90.130300
_cell_angle_gamma 122.533900
loop_
  _atom_site_label
  _atom_site_type_symbol
  _atom_site_fract_x
  _atom_site_fract_y
  _atom_site_fract_z
C1 C -0.03448 0.42606 1.34398
 C2 C 0.00447 0.44499 1.34609
 C3 C 0.01937 0.46217 1.31983
 N4 N -0.00954 0.45468 1.30208
 C5 C -0.04242 0.43248 1.31669
 C6 C 0.05884 0.48793 1.31352
 C7 C 0.07244 0.50005 1.28515
 C8 C 0.11029 0.52639 1.27734
 C9 C 0.11182 0.52670 1.24824
 C10 C 0.07528 0.49990 1.23867
 N11 N 0.05159 0.48364 1.26118
 C12 C 0.06556 0.48921 1.20985
 C13 C 0.02767 0.46504 1.19989
 C14 C 0.01769 0.44859 1.17304
 C15 C -0.02115 0.43010 1.17093
 C16 C -0.03397 0.43539 1.19678
 N17 N -0.00383 0.45705 1.21429
 C18 C -0.07184 0.42495 1.20277
 C19 C -0.08435 0.42499 1.23100
 C20 C -0.12054 0.41613 1.23857
 C21 C -0.12242 0.41464 1.26770
 C22 C -0.08774 0.42182 1.27745
 N23 N -0.06488 0.42783 1.25505
 C24 C -0.07940 0.41958 1.30631
 H25 H -0.05460 0.40976 1.36081
 H26 H 0.01966 0.44618 1.36512
 H27 H -0.03961 0.42853 1.25620
 H28 H 0.13520 0.54257 1.29068
 H29 H 0.13741 0.54375 1.23564
 H30 H 0.03647 0.45007 1.15649
 H31 H -0.03750 0.41512 1.15214
 H32 H -0.14715 0.40764 1.28022
 H33 H 0.02402 0.45927 1.26016
 H34 H -0.14434 0.40916 1.22495
 C35 C 0.51697 0.54144 1.34082
 C36 C 0.54012 0.52711 1.33855
 C37 C 0.53201 0.50812 1.31250
 N38 N 0.50577 0.51187 1.29833
 C39 C 0.49664 0.53218 1.31566
 C40 C 0.54736 0.48641 1.30236
 C41 C 0.54453 0.47579 1.27337
 C42 C 0.54831 0.44599 1.26305
 C43 C 0.54418 0.44544 1.23408
 C44 C 0.53793 0.47486 1.22740
 N45 N 0.53832 0.49333 1.25147
 C46 C 0.53523 0.48584 1.19944
 C47 C 0.52335 0.51164 1.19302
 C48 C 0.52595 0.52794 1.16658
 C49 C 0.50848 0.54846 1.16892
 C50 C 0.49496 0.54318 1.19652
 N51 N 0.50417 0.52075 1.21118
 C52 C 0.47172 0.55599 1.20714
 C53 C 0.45992 0.55104 1.23572
 C54 C 0.42887 0.55184 1.24540
 C55 C 0.42736 0.54646 1.27433
 C56 C 0.45799 0.54327 1.28155
 N57 N 0.47760 0.54596 1.25786
 C58 C 0.46905 0.54119 1.30955
 H59 H 0.51595 0.55776 1.35860
 H60 H 0.56078 0.53071 1.35430
 H61 H 0.50389 0.54854 1.25721
 H62 H 0.55311 0.42628 1.27509
 H63 H 0.54603 0.42582 1.21959
 H64 H 0.53874 0.52515 1.14749
 H65 H 0.50538 0.56461 1.15200
 H66 H 0.40634 0.54552 1.28842
 H67 H 0.53837 0.51895 1.25271
 H68 H 0.40913 0.55553 1.23289
 C69 C 0.54032 1.04467 1.15069
 C70 C 0.51841 1.00487 1.14780
 C71 C 0.51052 0.98946 1.17496
 N72 N 0.52681 1.01868 1.19438
 C73 C 0.54459 1.05277 1.17966
 C74 C 0.49091 0.94903 1.18114
 C75 C 0.48176 0.93364 1.20904
 C76 C 0.47178 0.89617 1.21638
 C77 C 0.46398 0.89194 1.24495
 C78 C 0.46942 0.92698 1.25441
 N79 N 0.48024 0.95226 1.23234
 C80 C 0.46423 0.93495 1.28274
 C81 C 0.47856 0.97368 1.29186
 C82 C 0.46495 0.98402 1.31484
 C83 C 0.48909 1.02348 1.31835
 C84 C 0.51620 1.03611 1.29702
 N85 N 0.50952 1.00572 1.28059
 C86 C 0.54789 1.07471 1.29402
 C87 C 0.56681 1.08825 1.26755
 C88 C 0.60344 1.12046 1.26351
 C89 C 0.60947 1.12478 1.23467
 C90 C 0.57664 1.09456 1.22173
 N91 N 0.55101 1.07220 1.24201
 C92 C 0.56887 1.09041 1.19213
 H93 H 0.55344 1.06469 1.13311
 H94 H 0.51044 0.98913 1.12785
 H95 H 0.52259 1.05003 1.23852
 H96 H 0.47074 0.87420 1.20269
 H97 H 0.45600 0.86615 1.25732
 H98 H 0.44026 0.96504 1.32783
 H99 H 0.48671 1.04096 1.33456
 H100 H 0.63544 1.14750 1.22464
 H101 H 0.48323 0.97943 1.23275
 H102 H 0.62394 1.13894 1.27957
 C103 C 0.97733 0.49545 0.82081
 C104 C 1.01610 0.52054 0.81879
 C105 C 1.02754 0.50986 0.79469
 N106 N 0.99675 0.48007 0.78134
 C107 C 0.96599 0.47124 0.79724
 C108 C 1.06587 0.52549 0.78620
 C109 C 1.07510 0.52064 0.75815
 C110 C 1.10923 0.52463 0.75036
 C111 C 1.10743 0.51828 0.72163
 C112 C 1.07248 0.51108 0.71236
 N113 N 1.05261 0.51194 0.73487
 C114 C 1.05990 0.50424 0.68364
 C115 C 1.02060 0.48257 0.67651
 C116 C 1.00590 0.47953 0.64941
 C117 C 0.96715 0.45475 0.65136
 C118 C 0.95926 0.44363 0.67958
 N119 N 0.99193 0.46057 0.69497
 C120 C 0.92238 0.41716 0.69032
 C121 C 0.91418 0.41061 0.71958
 C122 C 0.88074 0.37963 0.73094
 C123 C 0.88259 0.38573 0.75981
 C124 C 0.91713 0.42032 0.76523
 N125 N 0.93617 0.43525 0.74056
 C126 C 0.92846 0.43938 0.79181
 H127 H 0.95987 0.49536 0.83782
 H128 H 1.03377 0.54379 0.83364
 H129 H 0.96036 0.46304 0.73772
 H130 H 1.13273 0.53049 0.76403
 H131 H 1.12920 0.51814 0.70915
 H132 H 1.02122 0.49399 0.63016
 H133 H 0.94706 0.44622 0.63399
 H134 H 0.86048 0.36734 0.77492
 H135 H 1.02666 0.51019 0.73397
 H136 H 0.85714 0.35554 0.71954
 C137 C 0.43394 0.46867 0.66330
 C138 C 0.44864 0.44540 0.66283
 C139 C 0.46796 0.45165 0.68828
 N140 N 0.46584 0.47823 0.70413
 C141 C 0.44487 0.48854 0.68898
 C142 C 0.48803 0.43377 0.69604
 C143 C 0.50323 0.43637 0.72349
 C144 C 0.52861 0.42518 0.73007
 C145 C 0.53543 0.43066 0.75878
 C146 C 0.51412 0.44513 0.76904
 N147 N 0.49435 0.44825 0.74742
 C148 C 0.51255 0.45358 0.79797
 C149 C 0.49670 0.47484 0.80764
 C150 C 0.49109 0.47983 0.83593
 C151 C 0.47682 0.50341 0.83635
 C152 C 0.47371 0.51174 0.80827
 N153 N 0.48628 0.49458 0.79080
 C154 C 0.46154 0.53666 0.79937
 C155 C 0.45608 0.54265 0.77060
 C156 C 0.45016 0.57138 0.76117
 C157 C 0.44275 0.56547 0.73252
 C158 C 0.44427 0.53323 0.72513
 N159 N 0.45226 0.51944 0.74850
 C160 C 0.43627 0.51640 0.69766
 H161 H 0.41698 0.47054 0.64665
 H162 H 0.44522 0.42588 0.64578
 H163 H 0.45048 0.49301 0.74993
 H164 H 0.54100 0.41418 0.71569
 H165 H 0.55406 0.42472 0.77071
 H166 H 0.49677 0.46787 0.85443
 H167 H 0.46984 0.51340 0.85527
 H168 H 0.43658 0.58278 0.71873
 H169 H 0.47305 0.45411 0.74935
 H170 H 0.45053 0.59394 0.77370
 C171 C 0.53383 0.03160 0.85230
 C172 C 0.50618 -0.00751 0.85243
 C173 C 0.49562 -0.01867 0.82429
 N174 N 0.51526 0.01303 0.80727
 C175 C 0.53877 0.04363 0.82428
 C176 C 0.46506 -0.05591 0.81481
 C177 C 0.45537 -0.06415 0.78554
 C178 C 0.42134 -0.09580 0.77499
 C179 C 0.42566 -0.09695 0.74621
 C180 C 0.46215 -0.06614 0.73968
 N181 N 0.47996 -0.04608 0.76365
 C182 C 0.47874 -0.05845 0.71230
 C183 C 0.51038 -0.02099 0.70496
 C184 C 0.53406 -0.01226 0.68160
 C185 C 0.55879 0.02752 0.68130
 C186 C 0.55034 0.04158 0.70500
 N187 N 0.52087 0.01204 0.71949
 C188 C 0.56851 0.08136 0.71221
 C189 C 0.56981 0.09400 0.74034
 C190 C 0.58381 0.13231 0.74829
 C191 C 0.58268 0.13274 0.77746
 C192 C 0.56764 0.09460 0.78649
 N193 N 0.56012 0.07122 0.76376
 C194 C 0.56247 0.08282 0.81520
 H195 H 0.54764 0.04941 0.87092
 H196 H 0.49428 -0.02476 0.87146
 H197 H 0.55251 0.04229 0.76435
 H198 H 0.39593 -0.11671 0.78651
 H199 H 0.40428 -0.11829 0.73177
 H200 H 0.53404 -0.03228 0.66643
 H201 H 0.58106 0.04415 0.66585
 H202 H 0.59174 0.15823 0.79054
 H203 H 0.50893 -0.02473 0.76529
 H204 H 0.59414 0.15745 0.73459
 O205 O 0.36897 0.63580 0.97792
 O206 O 0.37486 0.70181 0.96725
 C207 C 0.35994 0.72064 0.95992
 O208 O 0.32989 0.71565 0.97131
 O209 O 0.26501 0.64943 0.96233
 C210 C 0.24399 0.61260 0.96006
 O211 O 0.24602 0.58955 0.97706
 O212 O 0.30790 0.58862 0.96935
 C213 C 0.34333 0.60582 0.96420
 O214 O 0.36683 0.64946 1.03454
 O215 O 0.37412 0.71611 1.02328
 C216 C 0.35068 0.72319 1.03480
 O217 O 0.31592 0.70640 1.02751
 O218 O 0.24955 0.64224 1.01892
 C219 C 0.24349 0.61492 1.03580
 O220 O 0.25962 0.59600 1.03320
 O221 O 0.31803 0.58932 1.02538
 C222 C 0.34706 0.61327 1.03985
 Cr223 Cr 0.36916 0.67476 1.00069
 Cr224 Cr 0.29098 0.67735 0.99511
 Cr225 Cr 0.28404 0.59298 1.00115
 O226 O 0.31495 0.64858 0.99888
 O227 O 0.63304 0.38834 0.97525
 O228 O 0.62510 0.32065 0.96862
 C229 C 0.63946 0.30052 0.96371
 O230 O 0.66787 0.30464 0.97734
 O231 O 0.73481 0.36747 0.96836
 C232 C 0.75537 0.40353 0.96241
 O233 O 0.75408 0.42965 0.97622
 O234 O 0.69430 0.43348 0.96645
 C235 C 0.65903 0.41673 0.96081
 O236 O 0.63334 0.37955 1.03222
 O237 O 0.62266 0.31050 1.02522
 C238 C 0.64363 0.30213 1.03906
 O239 O 0.67879 0.31728 1.03385
 O240 O 0.74699 0.37864 1.02514
 C241 C 0.75513 0.40906 1.03908
 O242 O 0.74237 0.43028 1.03263
 O243 O 0.68509 0.43796 1.02255
 C244 C 0.65499 0.41593 1.03670
 Cr245 Cr 0.63069 0.35077 1.00035
 Cr246 Cr 0.70634 0.34331 1.00112
 Cr247 Cr 0.71773 0.43064 0.99950
 O248 O 0.68486 0.37483 1.00028
 O249 O 0.64522 0.38867 0.52572
 O250 O 0.70648 0.38703 0.53466
 C251 C 0.72215 0.36806 0.53959
 O252 O 0.71687 0.33973 0.52419
 O253 O 0.65162 0.27482 0.53165
 C254 C 0.61625 0.25618 0.53694
 O255 O 0.59302 0.26162 0.52341
 O256 O 0.59809 0.32755 0.53567
 C257 C 0.61625 0.36413 0.54016
 O258 O 0.65608 0.38872 0.46927
 O259 O 0.71997 0.39158 0.47838
 C260 C 0.72440 0.36815 0.46359
 O261 O 0.70484 0.33153 0.46734
 O262 O 0.64044 0.26523 0.47461
 C263 C 0.61288 0.26221 0.46034
 O264 O 0.59539 0.27860 0.46756
 O265 O 0.59631 0.34160 0.48014
 C266 C 0.62026 0.37105 0.46558
 Cr267 Cr 0.68092 0.38697 0.50196
 Cr268 Cr 0.67746 0.30381 0.49951
 Cr269 Cr 0.59770 0.30324 0.50169
 O270 O 0.65208 0.33131 0.50113
 O271 O 0.34159 0.63274 0.53233
 O272 O 0.27755 0.62869 0.52303
 C273 C 0.27236 0.65296 0.53624
 O274 O 0.28907 0.68890 0.52982
 O275 O 0.35224 0.75650 0.52086
 C276 C 0.37863 0.76176 0.53760
 O277 O 0.39576 0.74384 0.53500
 O278 O 0.40059 0.68317 0.52468
 C279 C 0.37699 0.65209 0.53775
 O280 O 0.35377 0.63372 0.47538
 O281 O 0.28967 0.62987 0.46628
 C282 C 0.27237 0.64687 0.46037
 O283 O 0.27811 0.67672 0.47360
 O284 O 0.34335 0.74153 0.46444
 C285 C 0.37933 0.76231 0.46190
 O286 O 0.40176 0.76002 0.47897
 O287 O 0.40113 0.69638 0.46898
 C288 C 0.38335 0.66048 0.46230
 Cr289 Cr 0.31665 0.63332 0.49926
 Cr290 Cr 0.31664 0.71493 0.49728
 Cr291 Cr 0.39779 0.71969 0.50185
 O292 O 0.34352 0.68901 0.49947
 C293 C 0.45088 0.54802 0.33393
 C294 C 0.45023 0.58183 0.33620
 C295 C 0.43313 0.58918 0.36069
 N296 N 0.43898 0.62513 0.36442
 N297 N 0.42391 0.63239 0.38661
 C298 C 0.40221 0.60393 0.40580
 N299 N 0.39597 0.56781 0.40191
 N300 N 0.41125 0.56059 0.37978
 C301 C 0.38591 0.61204 0.43051
 C302 C 0.39854 0.65029 0.43811
 H303 H 0.46356 0.60401 0.31985
 H304 H 0.36465 0.58784 0.44327
 H305 H 0.44092 0.52758 0.35149
 H306 H 0.42122 0.67425 0.42599
 C307 C 0.44515 0.90352 0.30220
 C308 C 0.45470 0.90767 0.33105
 C309 C 0.43445 0.87636 0.35208
 N310 N 0.44993 0.88115 0.37829
 N311 N 0.43186 0.85397 0.39818
 C312 C 0.39740 0.82103 0.39273
 N313 N 0.38168 0.81628 0.36653
 N314 N 0.39991 0.84346 0.34651
 C315 C 0.37756 0.79105 0.41487
 C316 C 0.39689 0.79166 0.43930
 H317 H 0.47936 0.93476 0.33865
 H318 H 0.34809 0.76767 0.41154
 H319 H 0.42504 0.87430 0.29438
 H320 H 0.42707 0.81366 0.44143
 C321 C 0.08505 0.50100 0.33641
 C322 C 0.11293 0.54040 0.34097
 C323 C 0.14169 0.55379 0.36373
 N324 N 0.16387 0.59245 0.36989
 N325 N 0.19081 0.60536 0.38983
 C326 C 0.19688 0.58013 0.40421
 N327 N 0.17488 0.54145 0.39791
 N328 N 0.14773 0.52849 0.37806
 C329 C 0.22666 0.59428 0.42633
 C330 C 0.24406 0.63204 0.43726
 H331 H 0.11320 0.56246 0.32780
 H332 H 0.23379 0.57423 0.43498
 H333 H 0.08067 0.48086 0.35326
 H334 H 0.23497 0.65103 0.42972
 C335 C 0.56542 0.47393 0.32106
 C336 C 0.55381 0.46257 0.34907
 C337 C 0.57311 0.44996 0.36817
 N338 N 0.55574 0.43131 0.39262
 N339 N 0.57266 0.41968 0.41036
 C340 C 0.60774 0.42653 0.40446
 N341 N 0.62541 0.44567 0.38015
 N342 N 0.60833 0.45711 0.36226
 C343 C 0.62605 0.41315 0.42403
 C344 C 0.60443 0.38528 0.44462
 H345 H 0.52816 0.46026 0.35686
 H346 H 0.65619 0.42438 0.42179
 H347 H 0.58654 0.46872 0.31261
 H348 H 0.57386 0.37253 0.44528
 C349 C 0.56097 0.09806 0.31882
 C350 C 0.57782 0.13850 0.31956
 C351 C 0.58829 0.15932 0.34696
 N352 N 0.58664 0.19157 0.35045
 N353 N 0.59464 0.20952 0.37558
 C354 C 0.60495 0.19607 0.39804
 N355 N 0.60728 0.16427 0.39439
 N356 N 0.59882 0.14605 0.36939
 C357 C 0.61437 0.21585 0.42580
 C358 C 0.60073 0.23919 0.43390
 H359 H 0.57942 0.15425 0.30050
 H360 H 0.63175 0.21122 0.44042
 H361 H 0.55379 0.08329 0.33919
 H362 H 0.58107 0.24137 0.42006
 C363 C 0.88818 0.40212 0.32653
 C364 C 0.88675 0.42358 0.34903
 C365 C 0.85366 0.40737 0.36818
 N366 N 0.85118 0.43093 0.38730
 N367 N 0.82146 0.41661 0.40485
 C368 C 0.79316 0.37814 0.40398
 N369 N 0.79572 0.35456 0.38493
 N370 N 0.82534 0.36892 0.36730
 C371 C 0.76072 0.36156 0.42378
 C372 C 0.75459 0.38487 0.44187
 H373 H 0.91024 0.45351 0.35222
 H374 H 0.74144 0.33008 0.42435
 H375 H 0.86357 0.37333 0.32181
 H376 H 0.77308 0.41640 0.44061
 C377 C 0.54278 0.46705 1.17578
 C378 C 0.57608 0.48740 1.15988
 C379 C 0.58517 0.46812 1.13778
 N380 N 0.61800 0.48900 1.12278
 N381 N 0.62671 0.47180 1.10283
 C382 C 0.60291 0.43307 1.09718
 N383 N 0.57008 0.41218 1.11218
 N384 N 0.56136 0.42939 1.13212
 C385 C 0.61220 0.41373 1.07522
 C386 C 0.64526 0.43438 1.05900
 H387 H 0.59618 0.51819 1.16404
 H388 H 0.59249 0.38271 1.07167
 H389 H 0.52321 0.43592 1.17265
 H390 H 0.66475 0.46545 1.06252
 C391 C 0.90272 0.41399 1.17957
 C392 C 0.88156 0.43087 1.17410
 C393 C 0.85875 0.42211 1.14795
 N394 N 0.84373 0.44363 1.14104
 N395 N 0.82350 0.43629 1.11723
 C396 C 0.81752 0.40710 1.09947
 N397 N 0.83234 0.38546 1.10648
 N398 N 0.85264 0.39286 1.13022
 C399 C 0.79483 0.39807 1.07328
 C400 C 0.78047 0.42038 1.06399
 H401 H 0.88414 0.45338 1.18808
 H402 H 0.78883 0.37265 1.06119
 H403 H 0.90413 0.39688 1.16261
 H404 H 0.78683 0.44609 1.07586
 C405 C 0.58742 0.12467 1.17518
 C406 C 0.56963 0.13097 1.15246
 C407 C 0.58953 0.16607 1.13441
 N408 N 0.56925 0.17335 1.11567
 N409 N 0.58682 0.20409 1.09836
 C410 C 0.62541 0.22864 1.09902
 N411 N 0.64574 0.22132 1.11773
 N412 N 0.62813 0.19065 1.13516
 C413 C 0.64522 0.26170 1.07907
 C414 C 0.62521 0.27235 1.06149
 H415 H 0.53957 0.11029 1.14832
 H416 H 0.67607 0.27739 1.07779
 H417 H 0.61432 0.14981 1.18208
 H418 H 0.59450 0.25751 1.06364
 C419 C 0.45740 0.57377 1.18747
 C420 C 0.43521 0.55343 1.16395
 C421 C 0.42211 0.57101 1.14342
 N422 N 0.39714 0.54851 1.12273
 N423 N 0.38576 0.56413 1.10341
 C424 C 0.39910 0.60290 1.10396
 N425 N 0.42420 0.62548 1.12462
 N426 N 0.43545 0.60980 1.14404
 C427 C 0.38737 0.62046 1.08222
 C428 C 0.35814 0.59722 1.06309
 H429 H 0.42752 0.52366 1.16036
 H430 H 0.40195 0.65200 1.08121
 H431 H 0.46236 0.60211 1.19278
 H432 H 0.34266 0.56569 1.06504
 C433 C 0.09709 0.50450 1.18895
 C434 C 0.09858 0.52649 1.16565
 C435 C 0.12860 0.54080 1.14399
 N436 N 0.12998 0.56409 1.12271
 N437 N 0.15636 0.57641 1.10245
 C438 C 0.18224 0.56574 1.10271
 N439 N 0.18086 0.54246 1.12400
 N440 N 0.15456 0.53024 1.14429
 C441 C 0.21086 0.57805 1.08013
 C442 C 0.21567 0.60422 1.05882
 H443 H 0.07661 0.53296 1.16306
 H444 H 0.22867 0.56602 1.08034
 H445 H 0.12030 0.50025 1.19296
 H446 H 0.19892 0.61743 1.05910
 C447 C 0.48141 0.92146 1.15706
 C448 C 0.44435 0.88946 1.15290
 C449 C 0.43387 0.86101 1.12976
 N450 N 0.39661 0.83285 1.12548
 N451 N 0.38641 0.80647 1.10492
 C452 C 0.41309 0.80707 1.08790
 N453 N 0.45043 0.83514 1.09226
 N454 N 0.46065 0.86167 1.11279
 C455 C 0.40187 0.77790 1.06507
 C456 C 0.36362 0.75236 1.05770
 H457 H 0.42203 0.88514 1.16725
 H458 H 0.42397 0.77716 1.05349
 H459 H 0.50341 0.92769 1.14174
 H460 H 0.34191 0.75447 1.06869
 C461 C 0.49436 0.41133 0.67433
 C462 C 0.51699 0.42980 0.65061
 C463 C 0.52995 0.41041 0.63161
 N464 N 0.55798 0.43203 0.61252
 N465 N 0.57092 0.41532 0.59566
 C466 C 0.55627 0.37630 0.59714
 N467 N 0.52794 0.35455 0.61605
 N468 N 0.51512 0.37132 0.63307
 C469 C 0.57036 0.35772 0.57827
 C470 C 0.60313 0.38025 0.56196
 H471 H 0.52784 0.46045 0.64708
 H472 H 0.55455 0.32612 0.57691
 H473 H 0.48604 0.38171 0.67937
 H474 H 0.61926 0.41177 0.56425
 C475 C 0.58669 0.11106 0.68937
 C476 C 0.56644 0.10795 0.66478
 C477 C 0.58196 0.13798 0.64248
 N478 N 0.55862 0.13633 0.62156
 N479 N 0.57203 0.16333 0.60121
 C480 C 0.60937 0.19290 0.60094
 N481 N 0.63279 0.19440 0.62175
 N482 N 0.61933 0.16750 0.64222
 C483 C 0.62462 0.22278 0.57850
 C484 C 0.60092 0.22630 0.55938
 H485 H 0.53737 0.08320 0.66234
 H486 H 0.65527 0.24307 0.57743
 H487 H 0.61455 0.13716 0.69310
 H488 H 0.57020 0.20728 0.56133
 C489 C 0.89095 0.39573 0.66956
 C490 C 0.86137 0.40232 0.66823
 C491 C 0.83550 0.39001 0.64366
 N492 N 0.81322 0.40476 0.63997
 N493 N 0.79111 0.39552 0.61704
 C494 C 0.79044 0.37111 0.59697
 N495 N 0.81237 0.35598 0.60083
 N496 N 0.83463 0.36538 0.62369
 C497 C 0.76646 0.36086 0.57142
 C498 C 0.74767 0.37969 0.56435
 H499 H 0.85958 0.42037 0.68431
 H500 H 0.76386 0.33810 0.55772
 H501 H 0.89479 0.38041 0.65239
 H502 H 0.75110 0.40315 0.57767
 C503 C 0.41728 0.52858 0.67725
 C504 C 0.43506 0.54837 0.65224
 C505 C 0.41778 0.56320 0.63284
 N506 N 0.43929 0.58902 0.61215
 N507 N 0.42420 0.60285 0.59448
 C508 C 0.38692 0.59123 0.59669
 N509 N 0.36529 0.56514 0.61724
 N510 N 0.38046 0.55150 0.63506
 C511 C 0.36988 0.60598 0.57691
 C512 C 0.39254 0.63803 0.55936
 H513 H 0.46324 0.55448 0.64733
 H514 H 0.33910 0.59155 0.57628
 H515 H 0.39074 0.52549 0.68360
 H516 H 0.42333 0.65342 0.56120
 C517 C 0.46270 0.91051 0.69247
 C518 C 0.46053 0.91556 0.66337
 C519 C 0.44687 0.88325 0.64310
 N520 N 0.43606 0.88673 0.61666
 N521 N 0.42466 0.85819 0.59771
 C522 C 0.42407 0.82530 0.60439
 N523 N 0.43528 0.82197 0.63075
 N524 N 0.44637 0.85040 0.64982
 C525 C 0.41191 0.79400 0.58335
 C526 C 0.39040 0.79143 0.55980
 H527 H 0.46765 0.94366 0.65519
 H528 H 0.41902 0.77224 0.58680
 H529 H 0.44809 0.88074 0.70031
 H530 H 0.38086 0.81149 0.55779
 C531 C 0.08655 0.51688 0.66114
 C532 C 0.12286 0.55112 0.66183
 C533 C 0.14874 0.56349 0.63732
 N534 N 0.17828 0.60120 0.63509
 N535 N 0.20153 0.61291 0.61275
 C536 C 0.19626 0.58727 0.59193
 N537 N 0.16704 0.54944 0.59436
 N538 N 0.14361 0.53779 0.61659
 C539 C 0.22170 0.59991 0.56714
 C540 C 0.24582 0.63931 0.56035
 H541 H 0.13142 0.57095 0.67970
 H542 H 0.22064 0.57778 0.55358
 H543 H 0.07743 0.50144 0.64107
 H544 H 0.24511 0.66115 0.57309
 C545 C 0.45438 0.55801 0.82141
 C546 C 0.42238 0.53812 0.83876
 C547 C 0.41451 0.55703 0.86196
 N548 N 0.38129 0.53620 0.87651
 N549 N 0.37368 0.55238 0.89790
 C550 C 0.39909 0.58999 0.90572
 N551 N 0.43247 0.61084 0.89126
 N552 N 0.44005 0.59467 0.86974
 C553 C 0.39053 0.60799 0.92931
 C554 C 0.35433 0.58890 0.94154
 H555 H 0.40247 0.50707 0.83539
 H556 H 0.41245 0.63697 0.93648
 H557 H 0.47370 0.58938 0.82321
 H558 H 0.33219 0.56069 0.93327
 C559 C 0.09624 0.54567 0.80590
 C560 C 0.09301 0.53574 0.83464
 C561 C 0.12463 0.55675 0.85496
 N562 N 0.12208 0.54063 0.88072
 N563 N 0.15010 0.55912 0.89966
 C564 C 0.18167 0.59463 0.89367
 N565 N 0.18410 0.61104 0.86797
 N566 N 0.15611 0.59238 0.84890
 C567 C 0.21269 0.61488 0.91468
 C568 C 0.21458 0.59463 0.93786
 H569 H 0.06716 0.50998 0.84238
 H570 H 0.23460 0.64542 0.91154
 H571 H 0.12455 0.56694 0.79806
 H572 H 0.19381 0.56351 0.93967
 C573 C 0.44242 0.91432 0.83466
 C574 C 0.45805 0.90298 0.85587
 C575 C 0.43401 0.86938 0.87450
 N576 N 0.44972 0.85247 0.88895
 N577 N 0.42829 0.82178 0.90567
 C578 C 0.39036 0.80695 0.90872
 N579 N 0.37471 0.82414 0.89452
 N580 N 0.39611 0.85468 0.87761
 C581 C 0.36674 0.77357 0.92767
 C582 C 0.37995 0.75074 0.93799
 H583 H 0.48873 0.91679 0.85725
 H584 H 0.33883 0.76718 0.93382
 H585 H 0.41216 0.89492 0.83086
 H586 H 0.40709 0.75623 0.93057
 C587 C 0.52820 0.43879 0.81921
 C588 C 0.55886 0.46405 0.83670
 C589 C 0.57312 0.44956 0.85894
 N590 N 0.60637 0.47466 0.87262
 N591 N 0.61896 0.46205 0.89341
 C592 C 0.59857 0.42390 0.90140
 N593 N 0.56528 0.39887 0.88780
 N594 N 0.55283 0.41142 0.86690
 C595 C 0.61115 0.40959 0.92495
 C596 C 0.64769 0.43146 0.93670
 H597 H 0.57247 0.49533 0.83412
 H598 H 0.59105 0.38050 0.93300
 H599 H 0.51655 0.40765 0.81987
 H600 H 0.66872 0.45949 0.92757
 C601 C 0.90026 0.42355 0.81525
 C602 C 0.88628 0.44484 0.82715
 C603 C 0.85991 0.43030 0.85144
 N604 N 0.85170 0.45449 0.86483
 N605 N 0.82861 0.44216 0.88727
 C606 C 0.81277 0.40511 0.89716
 N607 N 0.82075 0.38079 0.88364
 N608 N 0.84400 0.39319 0.86125
 C609 C 0.78716 0.39119 0.92194
 C610 C 0.78217 0.41663 0.93845
 H611 H 0.89624 0.47381 0.81909
 H612 H 0.77211 0.36044 0.92733
 H613 H 0.88939 0.39398 0.82235
 H614 H 0.79815 0.44753 0.93339
 C615 C 0.58238 0.11385 0.83684
 C616 C 0.56242 0.12454 0.85421
 C617 C 0.58207 0.15711 0.87443
 N618 N 0.56287 0.17179 0.88674
 N619 N 0.58043 0.20144 0.90503
 C620 C 0.61778 0.21735 0.91177
 N621 N 0.63688 0.20246 0.89963
 N622 N 0.61940 0.17299 0.88121
 C623 C 0.63732 0.24952 0.93234
 C624 C 0.62130 0.27018 0.94169
 H625 H 0.53167 0.10942 0.85214
 H626 H 0.66508 0.25723 0.94017
 H627 H 0.61331 0.13087 0.83692
 H628 H 0.59448 0.26380 0.93273
   
