data_POSCAR
  _audit_creation_date              2014-09-24
  _audit_creation_method            'ToBaCCo'
  _symmetry_space_group_name_H-M    'P1'
  _symmetry_Int_Tables_number       1
  _symmetry_cell_setting            triclinic
  loop_
  _symmetry_equiv_pos_as_xyz
 x,y,z
_cell_length_a 40.9109
_cell_length_b 41.9563
_cell_length_c 39.9230
_cell_angle_alpha 89.791600
_cell_angle_beta 88.989200
_cell_angle_gamma 89.892500
loop_
  _atom_site_label
  _atom_site_type_symbol
  _atom_site_fract_x
  _atom_site_fract_y
  _atom_site_fract_z
C1 C 0.19015 0.20690 0.23218
 N2 N 0.17553 0.22981 0.21348
 C3 C 0.18815 0.23850 0.18308
 N4 N 0.21564 0.22385 0.17127
 C5 C 0.23066 0.20085 0.18954
 N6 N 0.21771 0.19265 0.21995
 C7 C -0.19037 0.79257 0.25801
 N8 N -0.18377 0.76233 0.24779
 C9 C -0.19891 0.74970 0.22090
 N10 N -0.22079 0.76776 0.20397
 C11 C -0.22777 0.79809 0.21369
 N12 N -0.21242 0.81020 0.24077
 C13 C -0.19644 0.20760 -0.25474
 N14 N -0.22405 0.19292 -0.24334
 C15 C -0.24461 0.20751 -0.22102
 N16 N -0.23703 0.23726 -0.21004
 C17 C -0.20954 0.25233 -0.22133
 N18 N -0.18941 0.23726 -0.24357
 C19 C 0.21029 0.79130 -0.23807
 N20 N 0.19425 0.76818 -0.22051
 C21 C 0.20318 0.76020 -0.18897
 N22 N 0.22854 0.77577 -0.17479
 C23 C 0.24504 0.79897 -0.19197
 N24 N 0.23567 0.80647 -0.22355
 C25 C 0.19673 1.18266 0.79388
 N26 N 0.17952 1.20614 0.80968
 C27 C 0.19222 1.22223 0.83594
 N28 N 0.22270 1.21450 0.84638
 C29 C 0.24036 1.19117 0.83093
 N30 N 0.22717 1.17537 0.80476
 C31 C 0.78863 0.79193 0.73794
 N32 N 0.79985 0.76249 0.74654
 C33 C 0.78764 0.74705 0.77401
 N34 N 0.76418 0.76145 0.79315
 C35 C 0.75274 0.79082 0.78508
 N36 N 0.76509 0.80586 0.75748
 C37 C 0.20187 0.80257 1.20923
 N38 N 0.18513 0.77900 1.19374
 C39 C 0.19822 0.76346 1.16679
 N40 N 0.22851 0.77186 1.15534
 C41 C 0.24565 0.79525 1.17050
 N42 N 0.23214 0.81046 1.19736
 C43 C 0.79529 1.21712 1.25961
 N44 N 0.76673 1.20588 1.24748
 C45 C 0.74882 1.22335 1.22579
 N46 N 0.75977 1.25253 1.21608
 C47 C 0.78822 1.26442 1.22793
 N48 N 0.80585 1.24646 1.24966
 O49 O 0.53520 0.95967 0.95955
 O50 O 0.48364 0.97150 1.06623
 O51 O 0.58375 0.99223 1.03573
 O52 O 0.43337 0.99154 0.98006
 O53 O 0.54500 0.97350 1.06984
 O54 O 0.47611 0.96824 0.95749
 O55 O 0.47050 0.95967 1.01589
 O56 O 0.57848 0.98603 0.97432
 C57 C 0.56555 0.96109 0.96261
 C58 C 0.47151 0.95217 1.04599
 C59 C 0.57436 0.97393 1.05951
 C60 C 0.44542 0.97327 0.95642
 O61 O 0.48735 1.03110 0.94437
 O62 O 0.54304 1.03457 1.07414
 O63 O 0.55731 1.04956 0.97277
 O64 O 0.44619 1.01168 1.04098
 O65 O 0.48391 1.03646 1.06584
 O66 O 0.54615 1.01671 0.93562
 O67 O 0.46411 1.04283 0.99124
 O68 O 0.56699 1.05374 1.03009
 Co69 Co 0.51152 0.99554 0.95517
 Co70 Co 0.51365 1.00406 1.06340
 Co71 Co 0.56715 1.01906 1.00309
 Co72 Co 0.46940 1.00165 1.00307
 O73 O 0.51753 1.00625 1.00895
 C74 C 0.47010 1.04996 0.96156
 C75 C 0.56075 1.05516 1.06051
 C76 C 0.55671 1.04334 0.94290
 C77 C 0.45428 1.03297 1.06080
 O78 O 0.02432 0.47096 0.03569
 O79 O 0.02202 0.52827 -0.05796
 O80 O -0.01253 0.43237 -0.03037
 O81 O -0.00888 0.56477 0.03061
 O82 O 0.02239 0.46745 -0.04844
 O83 O 0.02578 0.52797 0.03801
 O84 O -0.00523 0.56571 -0.03096
 O85 O -0.01170 0.43493 0.02988
 C86 C 0.01737 0.44228 0.03519
 C87 C 0.01855 0.55685 -0.04940
 C88 C 0.01558 0.43915 -0.04176
 C89 C 0.01977 0.55679 0.03659
 O90 O -0.03566 0.52845 0.06694
 O91 O -0.03893 0.46620 -0.07005
 O92 O -0.07123 0.46455 0.03023
 O93 O -0.06755 0.55093 -0.03469
 O94 O -0.03972 0.52528 -0.07352
 O95 O -0.03523 0.47106 0.06731
 O96 O -0.06968 0.54257 0.02869
 O97 O -0.07314 0.45867 -0.02975
 Co98 Co -0.00677 0.49962 0.04749
 Co99 Co -0.00980 0.49677 -0.05665
 Co100 Co -0.04059 0.45195 -0.00007
 Co101 Co -0.03665 0.55053 -0.00142
 O102 O -0.02344 0.49990 -0.00302
 C103 C -0.06345 0.53884 0.05889
 C104 C -0.06711 0.45859 -0.06024
 C105 C -0.06408 0.46450 0.06020
 C106 C -0.06299 0.54345 -0.06472
 O107 O 1.07784 0.02913 0.46930
 O108 O 0.97530 0.04245 0.52396
 O109 O 0.99118 0.01423 0.41738
 O110 O 1.04735 0.00305 0.57073
 O111 O 0.97227 0.03666 0.46313
 O112 O 1.08027 0.02542 0.53296
 O113 O 0.98854 0.01252 0.56633
 O114 O 1.02918 0.04257 0.45485
 C115 C 1.05882 0.04893 0.45621
 C116 C 0.97868 0.03899 0.55483
 C117 C 0.96931 0.03287 0.43167
 C118 C 1.07001 0.02257 0.56283
 O119 O 1.08371 -0.03554 0.52921
 O120 O 0.95579 -0.02554 0.47238
 O121 O 1.05063 -0.01033 0.42954
 O122 O 0.98389 -0.04936 0.53947
 O123 O 0.94910 -0.01382 0.53302
 O124 O 1.07705 -0.03505 0.46764
 O125 O 1.03949 -0.05694 0.54838
 O126 O 1.00004 -0.03894 0.44663
 Co127 Co 1.07414 -0.00394 0.49950
 Co128 Co 0.96861 0.00818 0.49822
 Co129 Co 1.01410 0.00139 0.45327
 Co130 Co 1.01467 -0.02119 0.55195
 O131 O 1.02062 -0.00526 0.50256
 C132 C 1.06956 -0.05771 0.54445
 C133 C 0.97108 -0.04490 0.45402
 C134 C 1.07059 -0.03150 0.43747
 C135 C 0.95510 -0.04161 0.54123
 C136 C 1.14588 0.17344 0.32206
 C137 C 1.13133 0.19826 0.30418
 C138 C 1.14638 0.21007 0.27494
 C139 C 1.17616 0.19695 0.26296
 C140 C 1.19100 0.17263 0.28193
 C141 C 1.17593 0.16101 0.31113
 C142 C 1.12906 0.15872 0.35000
 C143 C 1.11547 0.14442 0.37246
 C144 C 1.10008 0.12494 0.39788
 C145 C 1.06637 0.11931 0.39722
 C146 C 1.05238 0.09589 0.41794
 C147 C 1.07208 0.07765 0.43932
 C148 C 1.10558 0.08479 0.44119
 C149 C 1.11947 0.10824 0.42054
 H150 H 1.10796 0.20795 0.31236
 H151 H 1.13414 0.22887 0.26135
 H152 H 1.21394 0.16194 0.27394
 H153 H 1.18734 0.14169 0.32473
 H154 H 1.05118 0.13191 0.37956
 H155 H 1.02653 0.09088 0.41586
 H156 H 1.12136 0.07120 0.45744
 H157 H 1.14561 0.11225 0.42109
 C158 C 0.86241 -0.16605 0.33693
 C159 C 0.83810 -0.14859 0.32084
 C160 C 0.82018 -0.16242 0.29523
 C161 C 0.82637 -0.19409 0.28513
 C162 C 0.85044 -0.21169 0.30219
 C163 C 0.86835 -0.19770 0.32779
 C164 C 0.88227 -0.15067 0.36147
 C165 C 0.89886 -0.13639 0.38104
 C166 C 0.91838 -0.11749 0.40305
 C167 C 0.95163 -0.11280 0.39575
 C168 C 0.96947 -0.09047 0.41379
 C169 C 0.95414 -0.07240 0.43920
 C170 C 0.92120 -0.07855 0.44760
 C171 C 0.90343 -0.10090 0.42954
 H172 H 0.83336 -0.12402 0.32768
 H173 H 0.80188 -0.14798 0.28305
 H174 H 0.85600 -0.23611 0.29544
 H175 H 0.88719 -0.21140 0.34004
 H176 H 0.96341 -0.12539 0.37517
 H177 H 0.99478 -0.08623 0.40672
 H178 H 0.90877 -0.06507 0.46711
 H179 H 0.87768 -0.10424 0.43531
 C180 C 0.87193 0.15800 0.68116
 C181 C 0.87844 0.18922 0.69117
 C182 C 0.85599 0.20555 0.71163
 C183 C 0.82670 0.19082 0.72238
 C184 C 0.82027 0.15951 0.71185
 C185 C 0.84275 0.14325 0.69140
 C186 C 0.89499 0.14091 0.66035
 C187 C 0.91352 0.12584 0.64273
 C188 C 0.93425 0.10679 0.62128
 C189 C 0.93536 0.11279 0.58679
 C190 C 0.95159 0.09166 0.56522
 C191 C 0.96676 0.06412 0.57791
 C192 C 0.96707 0.05924 0.61279
 C193 C 0.95080 0.08042 0.63432
 H194 H 0.90091 0.20088 0.68330
 H195 H 0.86176 0.22961 0.71924
 H196 H 0.79803 0.14742 0.71962
 H197 H 0.83744 0.11910 0.68370
 H198 H 0.92256 0.13309 0.57643
 H199 H 0.95094 0.09613 0.53850
 H200 H 0.97861 0.03832 0.62333
 H201 H 0.95003 0.07553 0.66099
 C202 C 1.17357 -0.17572 0.66989
 C203 C 1.15891 -0.20174 0.68610
 C204 C 1.17178 -0.21354 0.71588
 C205 C 1.19945 -0.19921 0.73014
 C206 C 1.21485 -0.17395 0.71261
 C207 C 1.20189 -0.16226 0.68283
 C208 C 1.15753 -0.16051 0.64235
 C209 C 1.14319 -0.14632 0.62082
 C210 C 1.12517 -0.12765 0.59717
 C211 C 1.09104 -0.12969 0.59695
 C212 C 1.07291 -0.10792 0.57829
 C213 C 1.08874 -0.08371 0.55974
 C214 C 1.12313 -0.08290 0.55872
 C215 C 1.14122 -0.10469 0.57745
 H216 H 1.13684 -0.21220 0.67637
 H217 H 1.15927 -0.23316 0.72824
 H218 H 1.23630 -0.16236 0.72238
 H219 H 1.21331 -0.14196 0.67055
 H220 H 1.07837 -0.14722 0.61234
 H221 H 1.04647 -0.10921 0.57957
 H222 H 1.13603 -0.06456 0.54467
 H223 H 1.16762 -0.10275 0.57767
 C224 C 0.31158 1.15009 1.14938
 C225 C 0.29964 1.14301 1.18156
 C226 C 0.27333 1.16019 1.19514
 C227 C 0.25837 1.18479 1.17663
 C228 C 0.27122 1.19216 1.14448
 C229 C 0.29755 1.17487 1.13100
 C230 C 0.33723 1.13095 1.13469
 C231 C 0.35813 1.11433 1.12220
 C232 C 0.38242 1.09392 1.10701
 C233 C 0.41558 1.09811 1.11380
 C234 C 0.43904 1.07813 1.09895
 C235 C 0.42954 1.05370 1.07714
 C236 C 0.39615 1.04963 1.07057
 C237 C 0.37277 1.06963 1.08543
 H238 H 0.31032 1.12383 1.19597
 H239 H 0.26447 1.15373 1.21997
 H240 H 0.26067 1.21089 1.12937
 H241 H 0.30662 1.18050 1.10602
 H242 H 0.42329 1.11684 1.13051
 H243 H 0.46458 1.08186 1.10442
 H244 H 0.38807 1.03107 1.05389
 H245 H 0.34716 1.06616 1.08004
 C246 C 0.31880 0.85291 0.85425
 C247 C 0.30340 0.82808 0.87185
 C248 C 0.27948 0.80971 0.85644
 C249 C 0.27045 0.81606 0.82311
 C250 C 0.28680 0.84073 0.80548
 C251 C 0.31068 0.85896 0.82098
 C252 C 0.34185 0.87315 0.87070
 C253 C 0.36053 0.89068 0.88458
 C254 C 0.38210 0.91207 0.90151
 C255 C 0.36900 0.93672 0.92111
 C256 C 0.38967 0.95710 0.93840
 C257 C 0.42376 0.95304 0.93633
 C258 C 0.43679 0.92858 0.91610
 C259 C 0.41603 0.90818 0.89881
 H260 H 0.30951 0.82323 0.89767
 H261 H 0.26773 0.79097 0.87094
 H262 H 0.28088 0.84644 0.77982
 H263 H 0.32244 0.87816 0.80715
 H264 H 0.34277 0.93999 0.92329
 H265 H 0.37894 0.97577 0.95371
 H266 H 0.46296 0.92490 0.91407
 H267 H 0.42642 0.88922 0.88364
 C268 C 0.70723 0.85546 1.15810
 C269 C 0.71348 0.82402 1.14835
 C270 C 0.73477 0.80492 1.16680
 C271 C 0.75023 0.81702 1.19542
 C272 C 0.74351 0.84876 1.20500
 C273 C 0.72222 0.86773 1.18648
 C274 C 0.68508 0.87507 1.13934
 C275 C 0.66625 0.89166 1.12419
 C276 C 0.64321 0.91160 1.10698
 C277 C 0.61049 0.91209 1.11767
 C278 C 0.58809 0.93210 1.10197
 C279 C 0.59811 0.95202 1.07526
 C280 C 0.63102 0.95111 1.06437
 C281 C 0.65342 0.93102 1.08018
 H282 H 0.70190 0.81423 1.12648
 H283 H 0.73910 0.78073 1.15844
 H284 H 0.75473 0.85914 1.22677
 H285 H 0.71746 0.89202 1.19433
 H286 H 0.60231 0.89719 1.13840
 H287 H 0.56298 0.93214 1.11100
 H288 H 0.63951 0.96607 1.04385
 H289 H 0.67872 0.93084 1.07170
 C290 C 0.67450 1.15733 0.82033
 C291 C 0.69419 1.14324 0.79552
 C292 C 0.72043 1.16008 0.78122
 C293 C 0.72759 1.19139 0.79168
 C294 C 0.70687 1.20563 0.81601
 C295 C 0.68066 1.18867 0.83024
 C296 C 0.64970 1.13885 0.83750
 C297 C 0.63000 1.12320 0.85321
 C298 C 0.60795 1.10454 0.87381
 C299 C 0.59701 1.07467 0.86315
 C300 C 0.57886 1.05512 0.88508
 C301 C 0.57178 1.06521 0.91798
 C302 C 0.58178 1.09575 0.92793
 C303 C 0.59972 1.11523 0.90600
 H304 H 0.68976 1.11893 0.78776
 H305 H 0.73546 1.14815 0.76249
 H306 H 0.71125 1.22963 0.82475
 H307 H 0.66566 1.19977 0.84957
 H308 H 0.60339 1.06608 0.83832
 H309 H 0.57154 1.03169 0.87680
 H310 H 0.57662 1.10422 0.95308
 H311 H 0.60814 1.13822 0.91458
 C312 C 0.13818 0.30764 0.12291
 C313 C 0.16679 0.29320 0.11063
 C314 C 0.18332 0.27093 0.13030
 C315 C 0.17135 0.26282 0.16252
 C316 C 0.14269 0.27773 0.17467
 C317 C 0.12627 0.29995 0.15498
 C318 C 0.12061 0.33017 0.10279
 C319 C 0.10486 0.34912 0.08704
 C320 C 0.08482 0.37188 0.06985
 C321 C 0.09430 0.40388 0.06788
 C322 C 0.07287 0.42673 0.05518
 C323 C 0.04159 0.41782 0.04456
 C324 C 0.03286 0.38542 0.04526
 C325 C 0.05435 0.36261 0.05788
 H326 H 0.17622 0.29901 0.08583
 H327 H 0.20529 0.25992 0.12015
 H328 H 0.13277 0.27212 0.19931
 H329 H 0.10414 0.31103 0.16473
 H330 H 0.11779 0.41131 0.07721
 H331 H 0.08030 0.45149 0.05485
 H332 H 0.00902 0.37783 0.03707
 H333 H 0.04674 0.33792 0.05937
 C334 C -0.17771 0.34034 -0.17819
 C335 C -0.20581 0.32523 -0.16547
 C336 C -0.21707 0.29721 -0.18028
 C337 C -0.20013 0.28384 -0.20784
 C338 C -0.17264 0.29993 -0.22117
 C339 C -0.16153 0.32792 -0.20640
 C340 C -0.16337 0.36646 -0.16044
 C341 C -0.14978 0.38699 -0.14491
 C342 C -0.13188 0.40963 -0.12545
 C343 C -0.14142 0.41564 -0.09225
 C344 C -0.12115 0.43323 -0.07145
 C345 C -0.09092 0.44486 -0.08359
 C346 C -0.08239 0.44024 -0.11751
 C347 C -0.10272 0.42261 -0.13827
 H348 H -0.21837 0.33450 -0.14346
 H349 H -0.23829 0.28547 -0.16939
 H350 H -0.15910 0.29046 -0.24246
 H351 H -0.13963 0.33929 -0.21633
 H352 H -0.16383 0.40554 -0.08200
 H353 H -0.12845 0.43645 -0.04547
 H354 H -0.05932 0.44894 -0.12760
 H355 H -0.09499 0.41793 -0.16388
 C356 C 0.14650 0.69114 -0.13348
 C357 C 0.13954 0.69769 -0.16696
 C358 C 0.15824 0.71982 -0.18504
 C359 C 0.18430 0.73583 -0.16988
 C360 C 0.19136 0.72885 -0.13623
 C361 C 0.17253 0.70663 -0.11815
 C362 C 0.12661 0.66852 -0.11523
 C363 C 0.10920 0.64931 -0.10126
 C364 C 0.08778 0.62595 -0.08621
 C365 C 0.09077 0.59397 -0.09552
 C366 C 0.06854 0.57143 -0.08314
 C367 C 0.04285 0.58062 -0.06131
 C368 C 0.04042 0.61275 -0.05152
 C369 C 0.06274 0.63528 -0.06396
 H370 H 0.11949 0.68578 -0.17910
 H371 H 0.15208 0.72450 -0.21086
 H372 H 0.21120 0.74073 -0.12377
 H373 H 0.17815 0.70168 -0.09223
 H374 H 0.10997 0.58652 -0.11285
 H375 H 0.07119 0.54691 -0.09110
 H376 H 0.02103 0.62056 -0.03464
 H377 H 0.06014 0.66002 -0.05670
 C378 C -0.16883 0.65865 0.18223
 C379 C -0.15484 0.67051 0.21137
 C380 C -0.16543 0.69960 0.22469
 C381 C -0.19005 0.71735 0.20887
 C382 C -0.20478 0.70460 0.18028
 C383 C -0.19416 0.67550 0.16704
 C384 C -0.15480 0.63128 0.16576
 C385 C -0.14199 0.60984 0.15037
 C386 C -0.12551 0.58639 0.12999
 C387 C -0.09600 0.57296 0.14040
 C388 C -0.07668 0.55531 0.11787
 C389 C -0.08656 0.55131 0.08458
 C390 C -0.11728 0.56305 0.07508
 C391 C -0.13656 0.58054 0.09764
 H392 H -0.13501 0.65781 0.22316
 H393 H -0.15359 0.70862 0.24677
 H394 H -0.22384 0.71752 0.16750
 H395 H -0.20496 0.66667 0.14430
 H396 H -0.08710 0.57752 0.16532
 H397 H -0.05319 0.54651 0.12593
 H398 H -0.12566 0.56020 0.04968
 H399 H -0.15926 0.59097 0.08925
 C400 C 1.15472 0.13121 0.71436
 C401 C 1.13723 0.15583 0.72999
 C402 C 1.15115 0.17301 0.75608
 C403 C 1.18294 0.16580 0.76709
 C404 C 1.20039 0.14104 0.75087
 C405 C 1.18635 0.12394 0.72478
 C406 C 1.14004 0.11314 0.68794
 C407 C 1.12766 0.09787 0.66599
 C408 C 1.11284 0.07942 0.63995
 C409 C 1.12524 0.08094 0.60708
 C410 C 1.11119 0.06263 0.58191
 C411 C 1.08454 0.04247 0.58931
 C412 C 1.07209 0.04131 0.62240
 C413 C 1.08617 0.05966 0.64750
 H414 H 1.11272 0.16168 0.72213
 H415 H 1.13677 0.19181 0.76767
 H416 H 1.22486 0.13463 0.75836
 H417 H 1.20013 0.10490 0.71285
 H418 H 1.14587 0.09616 0.60093
 H419 H 1.12135 0.06411 0.55672
 H420 H 1.05152 0.02617 0.62894
 H421 H 1.07633 0.05832 0.67284
 C422 C 0.83235 -0.15664 0.65757
 C423 C 0.80650 -0.14323 0.67607
 C424 C 0.79148 -0.16049 0.70210
 C425 C 0.80223 -0.19153 0.71024
 C426 C 0.82771 -0.20509 0.69067
 C427 C 0.84265 -0.18772 0.66467
 C428 C 0.84991 -0.13775 0.63305
 C429 C 0.86577 -0.12177 0.61358
 C430 C 0.88631 -0.10273 0.59176
 C431 C 0.87700 -0.07177 0.58269
 C432 C 0.89885 -0.05212 0.56482
 C433 C 0.93031 -0.06324 0.55612
 C434 C 0.93891 -0.09478 0.56422
 C435 C 0.91706 -0.11434 0.58193
 H436 H 0.79842 -0.11913 0.67089
 H437 H 0.77191 -0.14909 0.71623
 H438 H 0.83672 -0.22887 0.69582
 H439 H 0.86277 -0.19829 0.65058
 H440 H 0.85330 -0.06248 0.59032
 H441 H 0.89162 -0.02792 0.55893
 H442 H 0.96294 -0.10402 0.55778
 H443 H 0.92458 -0.13820 0.58891
 C444 C 1.15865 -0.14561 0.28936
 C445 C 1.19037 -0.13842 0.27817
 C446 C 1.20484 -0.15579 0.25202
 C447 C 1.18773 -0.18074 0.23645
 C448 C 1.15591 -0.18803 0.24837
 C449 C 1.14154 -0.17056 0.27456
 C450 C 1.14344 -0.12681 0.31543
 C451 C 1.13076 -0.11063 0.33695
 C452 C 1.11561 -0.09090 0.36229
 C453 C 1.12355 -0.09488 0.39601
 C454 C 1.10899 -0.07549 0.42052
 C455 C 1.08630 -0.05183 0.41157
 C456 C 1.07849 -0.04802 0.37760
 C457 C 1.09306 -0.06744 0.35316
 H458 H 1.20384 -0.11914 0.28945
 H459 H 1.22933 -0.14932 0.24387
 H460 H 1.14183 -0.20699 0.23731
 H461 H 1.11694 -0.17632 0.28303
 H462 H 1.14099 -0.11295 0.40335
 H463 H 1.11546 -0.07905 0.44646
 H464 H 1.06109 -0.03008 0.36989
 H465 H 1.08676 -0.06412 0.32713
 C466 C 0.85365 0.15764 0.32012
 C467 C 0.86440 0.18833 0.31167
 C468 C 0.84492 0.20834 0.29219
 C469 C 0.81433 0.19785 0.28071
 C470 C 0.80364 0.16703 0.29001
 C471 C 0.82316 0.14718 0.30947
 C472 C 0.87397 0.13657 0.33926
 C473 C 0.89065 0.11852 0.35518
 C474 C 0.91027 0.09677 0.37427
 C475 C 0.91008 0.09862 0.40925
 C476 C 0.92907 0.07756 0.42791
 C477 C 0.94852 0.05437 0.41179
 C478 C 0.94841 0.05249 0.37664
 C479 C 0.92937 0.07360 0.35800
 H480 H 0.88797 0.19669 0.31988
 H481 H 0.85413 0.23180 0.28579
 H482 H 0.78032 0.15789 0.28197
 H483 H 0.81457 0.12349 0.31595
 H484 H 0.89533 0.11640 0.42210
 H485 H 0.92869 0.07961 0.45495
 H486 H 0.96311 0.03485 0.36357
 H487 H 0.92961 0.07191 0.33093
 C488 C 0.13690 0.29408 -0.11488
 C489 C 0.16833 0.28662 -0.10401
 C490 C 0.18670 0.26291 -0.12023
 C491 C 0.17388 0.24622 -0.14770
 C492 C 0.14213 0.25407 -0.15832
 C493 C 0.12389 0.27776 -0.14203
 C494 C 0.11802 0.31876 -0.09864
 C495 C 0.10167 0.33953 -0.08590
 C496 C 0.08152 0.36449 -0.07191
 C497 C 0.05201 0.35701 -0.05545
 C498 C 0.03094 0.38134 -0.04471
 C499 C 0.03910 0.41349 -0.05040
 C500 C 0.06933 0.42078 -0.06593
 C501 C 0.09033 0.39642 -0.07668
 H502 H 0.17867 0.29918 -0.08305
 H503 H 0.21094 0.25776 -0.11114
 H504 H 0.13119 0.24197 -0.17925
 H505 H 0.09959 0.28340 -0.15070
 H506 H 0.04492 0.33238 -0.05165
 H507 H 0.00793 0.37496 -0.03267
 H508 H 0.07639 0.44529 -0.07056
 H509 H 0.11309 0.40248 -0.08945
 C510 C -0.17323 0.35016 0.18789
 C511 C -0.20410 0.33963 0.17841
 C512 C -0.21737 0.31188 0.19248
 C513 C -0.19981 0.29397 0.21620
 C514 C -0.16929 0.30566 0.22657
 C515 C -0.15610 0.33343 0.21238
 C516 C -0.15777 0.37602 0.16997
 C517 C -0.14411 0.39628 0.15348
 C518 C -0.12681 0.41848 0.13213
 C519 C -0.13780 0.42419 0.09965
 C520 C -0.11822 0.44102 0.07668
 C521 C -0.08728 0.45219 0.08592
 C522 C -0.07732 0.44808 0.11921
 C523 C -0.09694 0.43119 0.14214
 H524 H -0.21748 0.35230 0.15932
 H525 H -0.24100 0.30406 0.18390
 H526 H -0.15499 0.29289 0.24486
 H527 H -0.13207 0.34129 0.21975
 H528 H -0.16080 0.41431 0.09158
 H529 H -0.12659 0.44387 0.05125
 H530 H -0.05365 0.45649 0.12707
 H531 H -0.08811 0.42676 0.16716
 C532 C -0.16940 0.66014 -0.19023
 C533 C -0.15521 0.67610 -0.21769
 C534 C -0.16986 0.70374 -0.23034
 C535 C -0.19871 0.71589 -0.21540
 C536 C -0.21335 0.69894 -0.18862
 C537 C -0.19877 0.67133 -0.17616
 C538 C -0.15237 0.63452 -0.17394
 C539 C -0.13827 0.61445 -0.15800
 C540 C -0.12171 0.59252 -0.13625
 C541 C -0.09365 0.57609 -0.14713
 C542 C -0.07530 0.55845 -0.12421
 C543 C -0.08469 0.55748 -0.09013
 C544 C -0.11374 0.57288 -0.07987
 C545 C -0.13206 0.59022 -0.10277
 H546 H -0.13231 0.66782 -0.22860
 H547 H -0.15793 0.71619 -0.25096
 H548 H -0.23563 0.70746 -0.17663
 H549 H -0.20985 0.65931 -0.15475
 H550 H -0.08530 0.57786 -0.17297
 H551 H -0.05300 0.54692 -0.13280
 H552 H -0.12174 0.57245 -0.05387
 H553 H -0.15366 0.60292 -0.09404
 C554 C 0.14414 0.69263 0.11701
 C555 C 0.13082 0.70784 0.14521
 C556 C 0.14872 0.73108 0.16186
 C557 C 0.18039 0.73956 0.15049
 C558 C 0.19360 0.72379 0.12211
 C559 C 0.17558 0.70056 0.10555
 C560 C 0.12530 0.66906 0.09981
 C561 C 0.10879 0.64950 0.08598
 C562 C 0.08809 0.62638 0.07044
 C563 C 0.05846 0.63606 0.05665
 C564 C 0.03671 0.61342 0.04453
 C565 C 0.04431 0.58075 0.04610
 C566 C 0.07470 0.57128 0.05880
 C567 C 0.09641 0.59400 0.07101
 H568 H 0.10648 0.70184 0.15430
 H569 H 0.13753 0.74245 0.18352
 H570 H 0.21782 0.72943 0.11245
 H571 H 0.18613 0.68888 0.08374
 H572 H 0.05178 0.66106 0.05610
 H573 H 0.01357 0.62142 0.03471
 H574 H 0.08123 0.54630 0.06029
 H575 H 0.11927 0.58625 0.08169
 C576 C 0.33348 1.16235 0.86936
 C577 C 0.31595 1.18713 0.88473
 C578 C 0.28603 1.19707 0.87178
 C579 C 0.27314 1.18220 0.84333
 C580 C 0.29140 1.15785 0.82759
 C581 C 0.32130 1.14799 0.84058
 C582 C 0.36240 1.14971 0.88465
 C583 C 0.38556 1.13752 0.89795
 C584 C 0.41159 1.12081 0.91437
 C585 C 0.43491 1.10390 0.89543
 C586 C 0.45610 1.08259 0.91117
 C587 C 0.45395 1.07777 0.94604
 C588 C 0.43205 1.09656 0.96508
 C589 C 0.41095 1.11787 0.94931
 H590 H 0.32500 1.19825 0.90719
 H591 H 0.27270 1.21591 0.88452
 H592 H 0.28232 1.14591 0.80564
 H593 H 0.33454 1.12862 0.82862
 H594 H 0.43551 1.10586 0.86836
 H595 H 0.47266 1.06844 0.89584
 H596 H 0.42976 1.09337 0.99196
 H597 H 0.39290 1.13069 0.96421
 C598 C 0.33703 0.82804 1.12864
 C599 C 0.31963 0.80408 1.11247
 C600 C 0.29034 0.79265 1.12656
 C601 C 0.27799 0.80528 1.15690
 C602 C 0.29621 0.82872 1.17337
 C603 C 0.32547 0.84001 1.15930
 C604 C 0.36513 0.84249 1.11271
 C605 C 0.38771 0.85656 1.09977
 C606 C 0.41324 0.87582 1.08504
 C607 C 0.41345 0.88234 1.05063
 C608 C 0.43422 0.90579 1.03732
 C609 C 0.45476 0.92318 1.05843
 C610 C 0.45580 0.91507 1.09261
 C611 C 0.43510 0.89157 1.10582
 H612 H 0.32824 0.79482 1.08860
 H613 H 0.27697 0.77459 1.11321
 H614 H 0.28755 0.83889 1.19679
 H615 H 0.33866 0.85871 1.17192
 H616 H 0.39642 0.87047 1.03437
 H617 H 0.43278 0.91157 1.01091
 H618 H 0.47141 0.92799 1.10946
 H619 H 0.43497 0.88687 1.13253
 C620 C 0.66792 1.17940 1.17714
 C621 C 0.67830 1.20979 1.16712
 C622 C 0.70375 1.22480 1.18384
 C623 C 0.71930 1.20942 1.21065
 C624 C 0.70776 1.17940 1.22130
 C625 C 0.68229 1.16451 1.20461
 C626 C 0.64482 1.16210 1.15752
 C627 C 0.62687 1.14632 1.14068
 C628 C 0.60717 1.12607 1.12027
 C629 C 0.61192 1.12603 1.08548
 C630 C 0.59590 1.10365 1.06583
 C631 C 0.57499 1.08091 1.08081
 C632 C 0.56946 1.08189 1.11569
 C633 C 0.58554 1.10429 1.13528
 H634 H 0.66745 1.22143 1.14574
 H635 H 0.71200 1.24789 1.17499
 H636 H 0.71902 1.16692 1.24191
 H637 H 0.67454 1.14092 1.21247
 H638 H 0.62880 1.14265 1.07363
 H639 H 0.60065 1.10356 1.03906
 H640 H 0.55348 1.06474 1.12797
 H641 H 0.58188 1.10399 1.16223
 C642 C 0.68551 0.83943 0.85135
 C643 C 0.69590 0.80850 0.85898
 C644 C 0.71725 0.79239 0.83711
 C645 C 0.72856 0.80708 0.80731
 C646 C 0.71750 0.83800 0.79966
 C647 C 0.69615 0.85402 0.82155
 C648 C 0.66455 0.85666 0.87429
 C649 C 0.64724 0.87204 0.89292
 C650 C 0.62676 0.89166 0.91409
 C651 C 0.59273 0.88856 0.91329
 C652 C 0.57270 0.91019 0.93060
 C653 C 0.58651 0.93535 0.94877
 C654 C 0.62075 0.93736 0.95071
 C655 C 0.64072 0.91567 0.93340
 H656 H 0.68780 0.79697 0.88198
 H657 H 0.72524 0.76863 0.84382
 H658 H 0.72564 0.85004 0.77698
 H659 H 0.68824 0.87796 0.81539
 H660 H 0.58167 0.87011 0.89835
 H661 H 0.54643 0.90800 0.92859
 H662 H 0.63213 0.95638 0.96456
 H663 H 0.66704 0.91832 0.93415
   
