data_POSCAR
  _audit_creation_date              2014-09-24
  _audit_creation_method            'ToBaCCo'
  _symmetry_space_group_name_H-M    'P1'
  _symmetry_Int_Tables_number       1
  _symmetry_cell_setting            triclinic
  loop_
  _symmetry_equiv_pos_as_xyz
 x,y,z
_cell_length_a 33.6994
_cell_length_b 33.3980
_cell_length_c 30.9655
_cell_angle_alpha 89.895900
_cell_angle_beta 89.957000
_cell_angle_gamma 88.002000
loop_
  _atom_site_label
  _atom_site_type_symbol
  _atom_site_fract_x
  _atom_site_fract_y
  _atom_site_fract_z
C1 C -0.12408 0.30569 -0.03012
 C2 C -0.12595 0.31070 0.01365
 C3 C -0.09000 0.29620 0.03055
 N4 N -0.06590 0.28400 -0.00222
 C5 C -0.08676 0.28925 -0.03921
 C6 C -0.08008 0.29216 0.07517
 C7 C -0.03981 0.29286 0.08895
 C8 C -0.02784 0.30758 0.12861
 C9 C 0.01275 0.30410 0.12976
 C10 C 0.02486 0.28777 0.09062
 N11 N -0.00728 0.28129 0.06565
 C12 C 0.06490 0.27834 0.07998
 C13 C 0.07853 0.26963 0.03770
 C14 C 0.11706 0.25718 0.02769
 C15 C 0.11900 0.25397 -0.01623
 C16 C 0.08156 0.26472 -0.03209
 N17 N 0.05667 0.27350 0.00121
 C18 C 0.07014 0.26264 -0.07623
 C19 C 0.02991 0.25599 -0.08716
 C20 C 0.01736 0.23367 -0.12206
 C21 C -0.02314 0.23749 -0.12339
 C22 C -0.03485 0.26093 -0.08843
 N23 N -0.00232 0.27181 -0.06619
 C24 C -0.07436 0.27443 -0.07993
 H25 H -0.14799 0.31311 -0.05225
 H26 H -0.15096 0.32488 0.02999
 H27 H -0.00201 0.29277 -0.04132
 H28 H -0.04626 0.32101 0.15368
 H29 H 0.03128 0.31333 0.15622
 H30 H 0.14121 0.25002 0.04970
 H31 H 0.14461 0.24225 -0.03373
 H32 H -0.04134 0.22415 -0.14775
 H33 H -0.00702 0.26616 0.03636
 H34 H 0.03496 0.21522 -0.14396
 C35 C 0.39057 0.82997 0.52266
 C36 C 0.39026 0.82975 0.47834
 C37 C 0.42262 0.80594 0.46547
 N38 N 0.44288 0.79199 0.50034
 C39 C 0.42309 0.80627 0.53535
 C40 C 0.43101 0.79358 0.42273
 C41 C 0.46950 0.77867 0.41111
 C42 C 0.47910 0.75733 0.37394
 C43 C 0.51971 0.75236 0.37303
 C44 C 0.53402 0.76959 0.41039
 N45 N 0.50319 0.78555 0.43340
 C46 C 0.57461 0.77286 0.42118
 C47 C 0.58753 0.77851 0.46422
 C48 C 0.62677 0.78180 0.47682
 C49 C 0.62706 0.78202 0.52107
 C50 C 0.58800 0.77886 0.53441
 N51 N 0.56397 0.77631 0.49954
 C52 C 0.57564 0.77362 0.57775
 C53 C 0.53516 0.77055 0.58930
 C54 C 0.52128 0.75368 0.62714
 C55 C 0.48066 0.75857 0.62677
 C56 C 0.47061 0.77954 0.58943
 N57 N 0.50404 0.78627 0.56653
 C58 C 0.43194 0.79419 0.57812
 H59 H 0.36918 0.84568 0.54312
 H60 H 0.36860 0.84525 0.45801
 H61 H 0.50590 0.80445 0.53927
 H62 H 0.45933 0.74602 0.34976
 H63 H 0.53624 0.73730 0.34759
 H64 H 0.65292 0.78216 0.45662
 H65 H 0.65349 0.78259 0.54078
 H66 H 0.46120 0.74742 0.65142
 H67 H 0.50539 0.80403 0.46031
 H68 H 0.53808 0.73887 0.65257
 C69 C 0.88840 0.74097 0.02324
 C70 C 0.88769 0.74123 -0.02092
 C71 C 0.92343 0.72359 -0.03469
 N72 N 0.94627 0.71331 -0.00017
 C73 C 0.92471 0.72377 0.03519
 C74 C 0.93436 0.71663 -0.07840
 C75 C 0.97469 0.70954 -0.09033
 C76 C 0.98778 0.69253 -0.12894
 C77 C 1.02855 0.69322 -0.12874
 C78 C 1.03934 0.71010 -0.08985
 N79 N 1.00646 0.71969 -0.06646
 C80 C 1.07847 0.71931 -0.07830
 C81 C 1.08966 0.72711 -0.03531
 C82 C 1.12401 0.74578 -0.02346
 C83 C 1.12470 0.74615 0.02071
 C84 C 1.09098 0.72711 0.03463
 N85 N 1.06932 0.71582 0.00015
 C86 C 1.08065 0.72009 0.07843
 C87 C 1.04120 0.71115 0.09031
 C88 C 1.03002 0.69366 0.12902
 C89 C 0.98927 0.69259 0.12886
 C90 C 0.97662 0.70893 0.08991
 N91 N 1.00836 0.71988 0.06643
 C92 C 0.93655 0.71616 0.07819
 H93 H 0.86511 0.75290 0.04413
 H94 H 0.86385 0.75405 -0.04043
 H95 H 1.00728 0.73645 0.03791
 H96 H 0.96999 0.68055 -0.15461
 H97 H 1.04804 0.68253 -0.15435
 H98 H 1.14587 0.75872 -0.04442
 H99 H 1.14704 0.76009 0.04007
 H100 H 0.97104 0.68108 0.15453
 H101 H 1.00572 0.73633 -0.03805
 H102 H 1.04913 0.68253 0.15474
 C103 C 0.61857 0.23424 0.47701
 C104 C 0.61848 0.23413 0.52124
 C105 C 0.58200 0.22022 0.53398
 N106 N 0.55980 0.21179 0.49901
 C107 C 0.58215 0.22036 0.46413
 C108 C 0.57028 0.21403 0.57721
 C109 C 0.53042 0.20852 0.58925
 C110 C 0.51815 0.19446 0.62908
 C111 C 0.47730 0.19705 0.62914
 C112 C 0.46583 0.21256 0.58932
 N113 N 0.49836 0.21936 0.56518
 C114 C 0.42633 0.22250 0.57718
 C115 C 0.41493 0.22971 0.53391
 C116 C 0.37852 0.24622 0.52102
 C117 C 0.37856 0.24607 0.47677
 C118 C 0.41501 0.22949 0.46407
 N119 N 0.43720 0.21947 0.49905
 C120 C 0.42648 0.22203 0.42087
 C121 C 0.46606 0.21237 0.40872
 C122 C 0.47770 0.19711 0.36889
 C123 C 0.51856 0.19479 0.36894
 C124 C 0.53071 0.20872 0.40880
 N125 N 0.49853 0.21926 0.43287
 C126 C 0.57054 0.21444 0.42085
 H127 H 0.64255 0.24410 0.45679
 H128 H 0.64239 0.24385 0.54158
 H129 H 0.49885 0.23487 0.46188
 H130 H 0.53666 0.18383 0.65554
 H131 H 0.45828 0.18877 0.65563
 H132 H 0.35449 0.25750 0.54130
 H133 H 0.35457 0.25723 0.45637
 H134 H 0.53717 0.18440 0.34247
 H135 H 0.49880 0.23508 0.53618
 H136 H 0.45876 0.18884 0.34238
 C137 C 0.67070 -0.11888 -0.02532
 C138 C 0.66730 -0.11931 0.01882
 C139 C 0.68957 -0.08828 0.03416
 N140 N 0.70610 -0.06875 0.00072
 C141 C 0.69551 -0.08795 -0.03569
 C142 C 0.69581 -0.07905 0.07829
 C143 C 0.69663 -0.03842 0.09195
 C144 C 0.68490 -0.02480 0.13253
 C145 C 0.68808 0.01599 0.13247
 C146 C 0.70126 0.02657 0.09177
 N147 N 0.70602 -0.00667 0.06708
 C148 C 0.70954 0.06617 0.07935
 C149 C 0.71689 0.07823 0.03635
 C150 C 0.72926 0.11589 0.02489
 C151 C 0.73264 0.11619 -0.01896
 C152 C 0.72198 0.07870 -0.03347
 N153 N 0.71304 0.05527 0.00068
 C154 C 0.72547 0.06543 -0.07695
 C155 C 0.73234 0.02405 -0.08576
 C156 C 0.75886 0.00851 -0.11614
 C157 C 0.75550 -0.03230 -0.11572
 C158 C 0.72660 -0.04095 -0.08544
 N159 N 0.71362 -0.00641 -0.06621
 C160 C 0.71144 -0.07951 -0.07709
 H161 H 0.65578 -0.13871 -0.04703
 H162 H 0.64912 -0.13928 0.03719
 H163 H 0.69040 -0.00348 -0.04398
 H164 H 0.67319 -0.04197 0.15900
 H165 H 0.68064 0.03571 0.15919
 H166 H 0.73683 0.14031 0.04589
 H167 H 0.74487 0.14048 -0.03718
 H168 H 0.77359 -0.05304 -0.13471
 H169 H 0.71826 -0.00790 0.03634
 H170 H 0.78005 0.02442 -0.13529
 C171 C 0.16500 0.39581 0.47975
 C172 C 0.16493 0.39613 0.52408
 C173 C 0.18740 0.42810 0.53655
 N174 N 0.20079 0.44755 0.50144
 C175 C 0.18750 0.42761 0.46670
 C176 C 0.19952 0.43639 0.57916
 C177 C 0.21306 0.47473 0.59045
 C178 C 0.23398 0.48385 0.62753
 C179 C 0.23793 0.52462 0.62782
 C180 C 0.22057 0.53942 0.59020
 N181 N 0.20537 0.50881 0.56769
 C182 C 0.21684 0.58037 0.57854
 C183 C 0.21070 0.59309 0.53537
 C184 C 0.20669 0.63269 0.52205
 C185 C 0.20680 0.63239 0.47785
 C186 C 0.21087 0.59262 0.46530
 N187 N 0.21355 0.56870 0.50057
 C188 C 0.21719 0.57934 0.42239
 C189 C 0.22103 0.53828 0.41147
 C190 C 0.23851 0.52307 0.37411
 C191 C 0.23442 0.48233 0.37500
 C192 C 0.21333 0.47365 0.41217
 N193 N 0.20569 0.50795 0.43442
 C194 C 0.19954 0.43549 0.42394
 H195 H 0.15039 0.37443 0.45953
 H196 H 0.15026 0.37503 0.54469
 H197 H 0.18727 0.51106 0.46134
 H198 H 0.24575 0.46366 0.65201
 H199 H 0.25244 0.54095 0.65302
 H200 H 0.20570 0.65940 0.54173
 H201 H 0.20592 0.65884 0.45766
 H202 H 0.24615 0.46184 0.35084
 H203 H 0.18710 0.51158 0.54064
 H204 H 0.25313 0.53913 0.34870
 C205 C 0.25575 0.89203 0.02456
 C206 C 0.25478 0.89145 -0.01964
 C207 C 0.27386 0.92531 -0.03371
 N208 N 0.28571 0.94692 0.00056
 C209 C 0.27480 0.92645 0.03611
 C210 C 0.28125 0.93553 -0.07736
 C211 C 0.29129 0.97499 -0.08892
 C212 C 0.31116 0.98542 -0.12634
 C213 C 0.31318 1.02640 -0.12634
 C214 C 0.29449 1.04001 -0.08895
 N215 N 0.28191 1.00843 -0.06586
 C216 C 0.28709 1.08076 -0.07814
 C217 C 0.27991 1.09258 -0.03483
 C218 C 0.25974 1.12755 -0.02226
 C219 C 0.26001 1.12803 0.02186
 C220 C 0.28039 1.09335 0.03511
 N221 N 0.29207 1.07134 0.00033
 C222 C 0.28772 1.08217 0.07868
 C223 C 0.29600 1.04162 0.08991
 C224 C 0.31368 1.02827 0.12807
 C225 C 0.31226 0.98718 0.12812
 C226 C 0.29427 0.97659 0.08981
 N227 N 0.28493 1.00981 0.06642
 C228 C 0.28375 0.93748 0.07881
 H229 H 0.24324 0.86994 0.04574
 H230 H 0.24078 0.86898 -0.03894
 H231 H 0.26757 1.01097 0.03859
 H232 H 0.32349 0.96562 -0.15089
 H233 H 0.32716 1.04409 -0.15100
 H234 H 0.24479 1.14973 -0.04256
 H235 H 0.24519 1.15061 0.04168
 H236 H 0.32294 0.96740 0.15362
 H237 H 0.26416 1.01004 -0.03828
 H238 H 0.32613 1.04616 0.15344
 C239 C 0.76622 0.37368 0.52041
 C240 C 0.76585 0.37432 0.47616
 C241 C 0.78271 0.40981 0.46370
 N242 N 0.79339 0.43084 0.49884
 C243 C 0.78328 0.40881 0.53357
 C244 C 0.78960 0.42153 0.42056
 C245 C 0.79981 0.46081 0.40919
 C246 C 0.81530 0.47189 0.36962
 C247 C 0.81749 0.51294 0.37012
 C248 C 0.80314 0.52578 0.40994
 N249 N 0.79276 0.49377 0.43368
 C250 C 0.79627 0.56624 0.42193
 C251 C 0.79027 0.57798 0.46537
 C252 C 0.77518 0.61508 0.47864
 C253 C 0.77516 0.61453 0.52291
 C254 C 0.79026 0.57711 0.53532
 N255 N 0.79951 0.55480 0.50007
 C256 C 0.79641 0.56444 0.57849
 C257 C 0.80312 0.52372 0.58984
 C258 C 0.81737 0.51015 0.62945
 C259 C 0.81559 0.46903 0.62906
 C260 C 0.80033 0.45862 0.58922
 N261 N 0.79304 0.49211 0.56544
 C262 C 0.79068 0.41938 0.57691
 H263 H 0.75469 0.35022 0.54050
 H264 H 0.75405 0.35143 0.45562
 H265 H 0.77733 0.49371 0.53656
 H266 H 0.82365 0.45248 0.34293
 H267 H 0.82785 0.53128 0.34385
 H268 H 0.76441 0.63977 0.45871
 H269 H 0.76440 0.63873 0.54344
 H270 H 0.82411 0.44913 0.65534
 H271 H 0.77683 0.49482 0.46246
 H272 H 0.82752 0.52802 0.65611
 O273 O 0.21064 0.27400 0.31062
 O274 O 0.24182 0.19287 0.23633
 O275 O 0.26961 0.22259 0.30711
 O276 O 0.18240 0.24433 0.23842
 O277 O 0.21701 0.28669 0.19999
 O278 O 0.30381 0.26595 0.26962
 O279 O 0.27604 0.23571 0.19811
 O280 O 0.24322 0.31717 0.27109
 Cu281 Cu 0.22251 0.22925 0.27698
 Cu282 Cu 0.26362 0.28073 0.23106
 C283 C 0.22185 0.30930 0.30358
 C284 C 0.26386 0.20061 0.20433
 C285 C 0.30143 0.24082 0.30028
 C286 C 0.18518 0.26850 0.20690
 O287 O 0.75331 0.80427 0.22844
 O288 O 0.78538 0.72203 0.30169
 O289 O 0.81397 0.75356 0.23106
 O290 O 0.72700 0.77469 0.30044
 O291 O 0.69267 0.73128 0.26338
 O292 O 0.77931 0.71151 0.19258
 O293 O 0.75120 0.67979 0.26288
 O294 O 0.71876 0.76188 0.19028
 Cu295 Cu 0.77348 0.76788 0.26909
 Cu296 Cu 0.73198 0.71702 0.22330
 C297 C 0.73080 0.79696 0.19671
 C298 C 0.77304 0.68702 0.29510
 C299 C 0.81135 0.72933 0.19974
 C300 C 0.69542 0.75586 0.29445
 O301 O 0.80814 0.23922 0.22904
 O302 O 0.72591 0.21445 0.30240
 O303 O 0.75561 0.18377 0.23128
 O304 O 0.78062 0.26718 0.30198
 O305 O 0.74049 0.30802 0.26481
 O306 O 0.71379 0.22357 0.19499
 O307 O 0.68560 0.25549 0.26568
 O308 O 0.76650 0.27813 0.19145
 Cu309 Cu 0.77166 0.22204 0.26983
 Cu310 Cu 0.72257 0.27040 0.22550
 C311 C 0.80095 0.26260 0.19735
 C312 C 0.69189 0.23131 0.29673
 C313 C 0.73061 0.18937 0.20109
 C314 C 0.76471 0.30167 0.29575
 O315 O 0.19136 0.76503 0.23346
 O316 O 0.27133 0.79062 0.30857
 O317 O 0.24338 0.82089 0.23538
 O318 O 0.22000 0.73483 0.30450
 O319 O 0.26505 0.69769 0.26958
 O320 O 0.28442 0.78198 0.19713
 O321 O 0.31471 0.75561 0.26905
 O322 O 0.23372 0.72593 0.19712
 Cu323 Cu 0.22734 0.78187 0.27420
 Cu324 Cu 0.27868 0.73628 0.22959
 C325 C 0.19897 0.74116 0.20246
 C326 C 0.30654 0.77742 0.30162
 C327 C 0.26716 0.81574 0.20383
 C328 C 0.23928 0.70186 0.29930
 O329 O 0.75589 0.17683 0.76214
 O330 O 0.78295 0.26139 0.69268
 O331 O 0.81025 0.22903 0.76489
 O332 O 0.72653 0.20999 0.69245
 O333 O 0.68785 0.25010 0.73209
 O334 O 0.77275 0.27309 0.80103
 O335 O 0.74310 0.30234 0.72994
 O336 O 0.71958 0.21869 0.80231
 Cu337 Cu 0.77281 0.21533 0.72396
 Cu338 Cu 0.72681 0.26509 0.77019
 C339 C 0.73403 0.18369 0.79486
 C340 C 0.76721 0.29602 0.69896
 C341 C 0.80560 0.25415 0.79538
 C342 C 0.69289 0.22683 0.70006
 O343 O 0.31524 0.75660 0.73260
 O344 O 0.23267 0.72560 0.80203
 O345 O 0.26536 0.69891 0.73009
 O346 O 0.28325 0.78160 0.80479
 O347 O 0.24466 0.82200 0.76528
 O348 O 0.22034 0.73659 0.69570
 O349 O 0.19173 0.76709 0.76673
 O350 O 0.27251 0.79162 0.69224
 Cu351 Cu 0.27834 0.73667 0.77101
 Cu352 Cu 0.22823 0.78345 0.72623
 C353 C 0.30756 0.77832 0.69974
 C354 C 0.19838 0.74200 0.79693
 C355 C 0.23958 0.70350 0.70046
 C356 C 0.26703 0.81583 0.79784
 O357 O 0.24456 0.31721 0.73187
 O358 O 0.27950 0.23411 0.80188
 O359 O 0.30549 0.26610 0.73039
 O360 O 0.22054 0.28427 0.80348
 O361 O 0.18475 0.24422 0.76365
 O362 O 0.27085 0.22289 0.69341
 O363 O 0.24375 0.19230 0.76421
 O364 O 0.21225 0.27460 0.69155
 Cu365 Cu 0.26619 0.27984 0.77045
 Cu366 Cu 0.22423 0.22942 0.72433
 C367 C 0.22321 0.30983 0.69927
 C368 C 0.26660 0.19932 0.79568
 C369 C 0.30268 0.24124 0.69963
 C370 C 0.18846 0.26661 0.79643
 O371 O 0.75203 0.67955 0.73634
 O372 O 0.72106 0.76348 0.80696
 O373 O 0.69406 0.73197 0.73482
 O374 O 0.77954 0.71166 0.80668
 O375 O 0.81579 0.75177 0.76727
 O376 O 0.72942 0.77416 0.69704
 O377 O 0.75683 0.80457 0.76824
 O378 O 0.78721 0.72055 0.69684
 Cu379 Cu 0.73298 0.71767 0.77510
 Cu380 Cu 0.77592 0.76688 0.72849
 C381 C 0.77431 0.68588 0.70416
 C382 C 0.73430 0.79807 0.80022
 C383 C 0.69741 0.75606 0.70332
 C384 C 0.81211 0.72848 0.79938
 N385 N 0.29312 0.15040 0.10326
 C386 C 0.28485 0.11156 0.11156
 N387 N 0.27184 0.10207 0.15178
 N388 N 0.26616 0.13022 0.18178
 C389 C 0.27382 0.16899 0.17299
 N390 N 0.28780 0.17851 0.13334
 N391 N 0.77120 0.58873 0.64889
 C392 C 0.79391 0.59487 0.61341
 N393 N 0.81200 0.63041 0.60922
 N394 N 0.80682 0.65902 0.63884
 C395 C 0.78355 0.65307 0.67390
 N396 N 0.76612 0.61727 0.67856
 N397 N 0.69644 0.85045 0.09877
 C398 C 0.70152 0.88952 0.10923
 N399 N 0.71657 0.89734 0.14902
 N400 N 0.72531 0.86806 0.17703
 C401 C 0.71942 0.82936 0.16654
 N402 N 0.70478 0.82107 0.12687
 N403 N 0.20990 0.36465 0.59752
 C404 C 0.20188 0.40276 0.61109
 N405 N 0.19864 0.40954 0.65426
 N406 N 0.20460 0.37984 0.68259
 C407 C 0.21297 0.34198 0.66874
 N408 N 0.21501 0.33481 0.62573
 N409 N 0.85065 0.29294 0.09772
 C410 C 0.88977 0.28682 0.10699
 N411 N 0.89918 0.27181 0.14682
 N412 N 0.87117 0.26418 0.17583
 C413 C 0.83232 0.27133 0.16628
 N414 N 0.82259 0.28585 0.12670
 N415 N 0.40583 0.79691 0.65349
 C416 C 0.39887 0.79351 0.61041
 N417 N 0.36111 0.78722 0.59729
 N418 N 0.33181 0.78401 0.62581
 C419 C 0.33916 0.78628 0.66874
 N420 N 0.37669 0.79283 0.68214
 N421 N 0.10081 0.73688 0.15090
 C422 C 0.11014 0.72271 0.11086
 N423 N 0.14883 0.71267 0.10230
 N424 N 0.17691 0.71730 0.13194
 C425 C 0.16754 0.73240 0.17141
 N426 N 0.12894 0.74193 0.18044
 N427 N 0.63594 0.19347 0.60649
 C428 C 0.60100 0.21450 0.61137
 N429 N 0.59577 0.23806 0.64674
 N430 N 0.62467 0.24105 0.67575
 C431 C 0.65983 0.22058 0.67042
 N432 N 0.66485 0.19651 0.63545
 N433 N 0.70990 0.13201 0.89555
 C434 C 0.72539 0.09433 0.88899
 N435 N 0.73942 0.08532 0.84883
 N436 N 0.74097 0.11333 0.81817
 C437 C 0.72741 0.15138 0.82599
 N438 N 0.71112 0.15999 0.86499
 N439 N 0.25670 0.61175 0.36575
 C440 C 0.22217 0.60989 0.38815
 N441 N 0.19286 0.63789 0.38026
 N442 N 0.19807 0.66690 0.35145
 C443 C 0.23256 0.66862 0.32901
 N444 N 0.26170 0.64040 0.33647
 N445 N 0.26714 0.91514 0.84947
 C446 C 0.27936 0.90576 0.89028
 N447 N 0.28899 0.86681 0.89942
 N448 N 0.28602 0.83852 0.86953
 C449 C 0.27302 0.84788 0.82922
 N450 N 0.26369 0.88674 0.81963
 N451 N 0.76170 0.39912 0.35134
 C452 C 0.78559 0.39139 0.38590
 N453 N 0.80388 0.35469 0.38948
 N454 N 0.79797 0.32654 0.36003
 C455 C 0.77359 0.33400 0.32588
 N456 N 0.75576 0.37091 0.32186
 N457 N 0.09180 0.25554 0.84897
 C458 C 0.09954 0.26534 0.89066
 N459 N 0.13589 0.27989 0.89943
 N460 N 0.16369 0.28193 0.86900
 C461 C 0.15622 0.26992 0.82811
 N462 N 0.11960 0.25709 0.81849
 N463 N 0.60838 0.73551 0.36173
 C464 C 0.60500 0.76903 0.38642
 N465 N 0.63085 0.79873 0.37967
 N466 N 0.65922 0.79487 0.34983
 C467 C 0.66241 0.76143 0.32504
 N468 N 0.63639 0.73187 0.33143
 N469 N 0.91134 0.73114 0.84902
 C470 C 0.90438 0.71701 0.88949
 N471 N 0.86730 0.70473 0.89888
 N472 N 0.83837 0.70720 0.86967
 C473 C 0.84518 0.72227 0.82978
 N474 N 0.88227 0.73402 0.81986
 N475 N 0.39903 0.24880 0.35235
 C476 C 0.39537 0.22432 0.38710
 N477 N 0.36143 0.20407 0.39201
 N478 N 0.33196 0.20859 0.36363
 C479 C 0.33531 0.23355 0.32930
 N480 N 0.36949 0.25336 0.32396
 N481 N 0.71097 0.85050 0.90176
 C482 C 0.71473 0.88971 0.89098
 N483 N 0.72308 0.89830 0.84901
 N484 N 0.72856 0.86935 0.81980
 C485 C 0.72506 0.83040 0.83110
 N486 N 0.71581 0.82153 0.87254
 N487 N 0.20930 0.36363 0.40568
 C488 C 0.20132 0.40181 0.39216
 N489 N 0.19767 0.40871 0.34904
 N490 N 0.20327 0.37908 0.32068
 C491 C 0.21169 0.34116 0.33442
 N492 N 0.21408 0.33384 0.37743
 N493 N 0.27255 0.10066 0.84840
 C494 C 0.28537 0.10998 0.88868
 N495 N 0.29458 0.14857 0.89678
 N496 N 0.29020 0.17669 0.86649
 C497 C 0.27629 0.16742 0.82681
 N498 N 0.26778 0.12886 0.81818
 N499 N 0.77079 0.59034 0.35160
 C500 C 0.79297 0.59703 0.38729
 N501 N 0.81028 0.63298 0.39145
 N502 N 0.80495 0.66137 0.36149
 C503 C 0.78233 0.65476 0.32611
 N504 N 0.76557 0.61864 0.32162
 N505 N 0.10132 0.74505 0.85154
 C506 C 0.10882 0.72229 0.88718
 N507 N 0.14545 0.70452 0.89195
 N508 N 0.17368 0.70982 0.86255
 C509 C 0.16634 0.73312 0.82728
 N510 N 0.12958 0.75042 0.82219
 N511 N 0.63662 0.19559 0.39094
 C512 C 0.60119 0.21591 0.38656
 N513 N 0.59528 0.23982 0.35152
 N514 N 0.62391 0.24380 0.32234
 C515 C 0.65953 0.22405 0.32711
 N516 N 0.66530 0.19962 0.36177
 N517 N 0.87325 0.30165 0.87120
 C518 C 0.89515 0.26960 0.88606
 N519 N 0.88784 0.23273 0.87015
 N520 N 0.86006 0.22808 0.84022
 C521 C 0.83803 0.26005 0.82570
 N522 N 0.84487 0.29690 0.84189
 N523 N 0.40463 0.79652 0.34761
 C524 C 0.39776 0.79307 0.39071
 N525 N 0.36002 0.78678 0.40402
 N526 N 0.33066 0.78352 0.37562
 C527 C 0.33795 0.78578 0.33265
 N528 N 0.37544 0.79241 0.31910
 N529 N 0.29993 0.87025 0.10789
 C530 C 0.28177 0.90680 0.11324
 N531 N 0.26004 0.91392 0.14958
 N532 N 0.25607 0.88525 0.17913
 C533 C 0.27388 0.84854 0.17345
 N534 N 0.29607 0.84168 0.13746
 N535 N 0.76404 0.39489 0.64602
 C536 C 0.78732 0.38814 0.61078
 N537 N 0.80529 0.35140 0.60569
 N538 N 0.79969 0.32233 0.63436
 C539 C 0.77592 0.32891 0.66922
 N540 N 0.75844 0.36581 0.67469
 N541 N 0.69007 0.13179 0.11117
 C542 C 0.71188 0.09687 0.11374
 N543 N 0.73834 0.09183 0.14647
 N544 N 0.74338 0.12092 0.17510
 C545 C 0.72223 0.15615 0.17196
 N546 N 0.69522 0.16094 0.13972
 N547 N 0.25658 0.61318 0.63452
 C548 C 0.22205 0.61136 0.61218
 N549 N 0.19295 0.63969 0.61967
 N550 N 0.19833 0.66889 0.64812
 C551 C 0.23280 0.67049 0.67056
 N552 N 0.26175 0.64201 0.66342
 N553 N 0.90912 0.73915 0.14828
 C554 C 0.90546 0.71651 0.11221
 N555 N 0.87141 0.69663 0.10620
 N556 N 0.84189 0.69979 0.13476
 C557 C 0.84528 0.72299 0.17041
 N558 N 0.87956 0.74236 0.17683
 N559 N 0.39952 0.24943 0.64582
 C560 C 0.39533 0.22520 0.61105
 N561 N 0.36122 0.20518 0.60658
 N562 N 0.33213 0.20966 0.63544
 C563 C 0.33604 0.23432 0.66984
 N564 N 0.37036 0.25395 0.67469
 N565 N 0.12696 0.30139 0.11229
 C566 C 0.09465 0.27837 0.11523
 N567 N 0.09111 0.25379 0.14991
 N568 N 0.11932 0.25164 0.18004
 C569 C 0.15200 0.27408 0.17662
 N570 N 0.15516 0.29919 0.14237
 N571 N 0.60980 0.73625 0.63699
 C572 C 0.60651 0.76965 0.61199
 N573 N 0.63281 0.79907 0.61802
 N574 N 0.66146 0.79506 0.64753
 C575 C 0.66447 0.76176 0.67268
 N576 N 0.63804 0.73249 0.66695
   
