data_POSCAR
  _audit_creation_date              2014-09-24
  _audit_creation_method            'ToBaCCo'
  _symmetry_space_group_name_H-M    'P1'
  _symmetry_Int_Tables_number       1
  _symmetry_cell_setting            triclinic
  loop_
  _symmetry_equiv_pos_as_xyz
 x,y,z
_cell_length_a 56.4208
_cell_length_b 55.2352
_cell_length_c 55.4569
_cell_angle_alpha 90.591400
_cell_angle_beta 89.377100
_cell_angle_gamma 89.633400
loop_
  _atom_site_label
  _atom_site_type_symbol
  _atom_site_fract_x
  _atom_site_fract_y
  _atom_site_fract_z
C1 C 0.24842 0.26512 0.23315
 C2 C 0.26650 0.26535 0.21561
 C3 C 0.28475 0.24788 0.21567
 C4 C 0.28470 0.23003 0.23358
 C5 C 0.26671 0.22954 0.25123
 C6 C 0.24851 0.24717 0.25106
 C7 C 0.23025 0.28256 0.23307
 C8 C 0.21209 0.28234 0.25065
 C9 C 0.21232 0.26439 0.26845
 C10 C 0.23041 0.24686 0.26880
 C11 C 0.23064 0.22897 0.28657
 C12 C 0.24872 0.21134 0.28687
 C13 C 0.26669 0.21176 0.26911
 H14 H 0.26619 0.27897 0.20167
 H15 H 0.29885 0.21667 0.23397
 H16 H 0.23042 0.29653 0.21948
 H17 H 0.19824 0.26387 0.28189
 H18 H 0.21656 0.22858 0.30002
 H19 H 0.28085 0.19840 0.26939
 C20 C 0.75076 -0.26870 0.22736
 C21 C 0.73280 -0.26893 0.21005
 C22 C 0.71452 -0.25128 0.21035
 C23 C 0.71485 -0.23325 0.22863
 C24 C 0.73286 -0.23267 0.24586
 C25 C 0.75089 -0.25044 0.24522
 C26 C 0.76858 -0.28656 0.22701
 C27 C 0.78701 -0.28636 0.24408
 C28 C 0.78697 -0.26767 0.26170
 C29 C 0.76904 -0.24996 0.26247
 C30 C 0.76893 -0.23183 0.28038
 C31 C 0.75104 -0.21402 0.28112
 C32 C 0.73312 -0.21449 0.26373
 H33 H 0.73268 -0.28364 0.19700
 H34 H 0.70172 -0.21887 0.22904
 H35 H 0.76847 -0.29999 0.21265
 H36 H 0.80023 -0.26734 0.27566
 H37 H 0.78294 -0.23138 0.29360
 H38 H 0.71916 -0.20092 0.26437
 C39 C 0.74939 0.27373 0.76912
 C40 C 0.73113 0.27406 0.78653
 C41 C 0.71269 0.25684 0.78600
 C42 C 0.71314 0.23918 0.76735
 C43 C 0.73140 0.23854 0.74999
 C44 C 0.74962 0.25583 0.75091
 C45 C 0.76741 0.29112 0.76975
 C46 C 0.78611 0.29085 0.75254
 C47 C 0.78613 0.27251 0.73455
 C48 C 0.76808 0.25519 0.73360
 C49 C 0.76815 0.23732 0.71542
 C50 C 0.75008 0.21994 0.71439
 C51 C 0.73178 0.22068 0.73181
 H52 H 0.73097 0.28850 0.79988
 H53 H 0.69990 0.22509 0.76674
 H54 H 0.76722 0.30421 0.78441
 H55 H 0.79957 0.27213 0.72047
 H56 H 0.78216 0.23712 0.70188
 H57 H 0.71796 0.20715 0.73139
 C58 C 0.25037 -0.27002 0.77169
 C59 C 0.26829 -0.27027 0.78904
 C60 C 0.28758 -0.25423 0.78760
 C61 C 0.28846 -0.23768 0.76844
 C62 C 0.27023 -0.23664 0.75149
 C63 C 0.25114 -0.25292 0.75306
 C64 C 0.23164 -0.28656 0.77283
 C65 C 0.21328 -0.28630 0.75568
 C66 C 0.21405 -0.26854 0.73750
 C67 C 0.23282 -0.25208 0.73602
 C68 C 0.23360 -0.23482 0.71763
 C69 C 0.25244 -0.21835 0.71608
 C70 C 0.27077 -0.21951 0.73300
 H71 H 0.26694 -0.28283 0.80385
 H72 H 0.30338 -0.22560 0.76653
 H73 H 0.23113 -0.29911 0.78769
 H74 H 0.20073 -0.26812 0.72360
 H75 H 0.21931 -0.23391 0.70475
 H76 H 0.28552 -0.20708 0.73172
 C77 C 0.75048 -0.26349 0.76822
 C78 C 0.73217 -0.26355 0.78554
 C79 C 0.71416 -0.24583 0.78535
 C80 C 0.71469 -0.22789 0.76755
 C81 C 0.73292 -0.22755 0.75016
 C82 C 0.75094 -0.24537 0.75055
 C83 C 0.76837 -0.28123 0.76845
 C84 C 0.78709 -0.28126 0.75128
 C85 C 0.78728 -0.26283 0.73375
 C86 C 0.76939 -0.24509 0.73324
 C87 C 0.76956 -0.22718 0.71547
 C88 C 0.75159 -0.20943 0.71484
 C89 C 0.73338 -0.20972 0.73235
 H90 H 0.73209 -0.27726 0.79939
 H91 H 0.70070 -0.21436 0.76701
 H92 H 0.76802 -0.29438 0.78278
 H93 H 0.80074 -0.26269 0.71969
 H94 H 0.78350 -0.22729 0.70187
 H95 H 0.71965 -0.19590 0.73227
 C96 C 0.24854 0.26926 0.77241
 C97 C 0.26638 0.26942 0.78984
 C98 C 0.28443 0.25174 0.78937
 C99 C 0.28444 0.23376 0.77124
 C100 C 0.26671 0.23334 0.75372
 C101 C 0.24867 0.25114 0.75429
 C102 C 0.23059 0.28696 0.77281
 C103 C 0.21269 0.28679 0.75536
 C104 C 0.21291 0.26863 0.73739
 C105 C 0.23076 0.25083 0.73674
 C106 C 0.23103 0.23279 0.71875
 C107 C 0.24894 0.21494 0.71807
 C108 C 0.26670 0.21536 0.73568
 H109 H 0.26641 0.28351 0.80358
 H110 H 0.29813 0.21989 0.77094
 H111 H 0.23038 0.30071 0.78690
 H112 H 0.19935 0.26855 0.72370
 H113 H 0.21745 0.23282 0.70507
 H114 H 0.28038 0.20150 0.73551
 C115 C 0.25231 -0.27782 0.23456
 C116 C 0.27056 -0.27866 0.21716
 C117 C 0.28918 -0.26164 0.21738
 C118 C 0.28893 -0.24366 0.23573
 C119 C 0.27065 -0.24247 0.25303
 C120 C 0.25225 -0.25958 0.25244
 C121 C 0.23407 -0.29498 0.23422
 C122 C 0.21534 -0.29415 0.25138
 C123 C 0.21551 -0.27550 0.26904
 C124 C 0.23378 -0.25841 0.26972
 C125 C 0.23385 -0.24017 0.28753
 C126 C 0.25208 -0.22296 0.28818
 C127 C 0.27041 -0.22424 0.27084
 H128 H 0.27057 -0.29332 0.20405
 H129 H 0.30231 -0.22970 0.23607
 H130 H 0.23413 -0.30833 0.21979
 H131 H 0.20203 -0.27469 0.28307
 H132 H 0.21951 -0.23913 0.30067
 H133 H 0.28467 -0.21119 0.27141
 C134 C 0.74805 0.26980 0.22795
 C135 C 0.72987 0.27017 0.21088
 C136 C 0.71205 0.25247 0.21106
 C137 C 0.71251 0.23438 0.22871
 C138 C 0.73059 0.23375 0.24584
 C139 C 0.74852 0.25144 0.24537
 C140 C 0.76586 0.28741 0.22766
 C141 C 0.78457 0.28694 0.24441
 C142 C 0.78477 0.26827 0.26168
 C143 C 0.76690 0.25074 0.26233
 C144 C 0.76706 0.23263 0.27989
 C145 C 0.74915 0.21504 0.28064
 C146 C 0.73102 0.21570 0.26344
 H147 H 0.72980 0.28403 0.19718
 H148 H 0.69864 0.22090 0.22925
 H149 H 0.76551 0.30083 0.21357
 H150 H 0.79823 0.26780 0.27543
 H151 H 0.78095 0.23245 0.29323
 H152 H 0.71736 0.20199 0.26359
 O153 O 0.27011 0.02054 0.47836
 O154 O 0.27075 -0.02632 0.52508
 O155 O 0.27054 -0.02663 0.47822
 O156 O 0.27022 0.02087 0.52531
 O157 O 0.23113 0.02069 0.52589
 O158 O 0.23145 -0.02674 0.47877
 O159 O 0.23166 -0.02644 0.52571
 O160 O 0.23102 0.02037 0.47890
 Cu161 Cu 0.27432 -0.00285 0.50169
 Cu162 Cu 0.22740 -0.00303 0.50238
 C163 C 0.25046 0.02847 0.47060
 C164 C 0.25132 -0.03444 0.53338
 C165 C 0.25104 -0.03484 0.47044
 C166 C 0.25061 0.02892 0.53367
 O167 O 0.73173 0.02672 0.52133
 O168 O 0.73173 -0.02119 0.47467
 O169 O 0.73200 -0.02044 0.52156
 O170 O 0.73150 0.02598 0.47440
 O171 O 0.77059 0.02600 0.47381
 O172 O 0.77109 -0.02055 0.52086
 O173 O 0.77083 -0.02105 0.47382
 O174 O 0.77083 0.02656 0.52080
 Cu175 Cu 0.72782 0.00277 0.49806
 Cu176 Cu 0.77475 0.00273 0.49727
 C177 C 0.75128 0.03482 0.52909
 C178 C 0.75128 -0.02927 0.46620
 C179 C 0.75163 -0.02846 0.52929
 C180 C 0.75096 0.03393 0.46601
 O181 O 0.47496 0.27284 0.02432
 O182 O 0.52090 0.27419 -0.02332
 O183 O 0.47479 0.27340 -0.02262
 O184 O 0.52109 0.27365 0.02367
 O185 O 0.52191 0.23372 0.02286
 O186 O 0.47578 0.23348 -0.02357
 O187 O 0.52198 0.23426 -0.02400
 O188 O 0.47577 0.23292 0.02334
 Cu189 Cu 0.49785 0.27752 0.00060
 Cu190 Cu 0.49895 0.22960 -0.00044
 C191 C 0.46746 0.25265 0.03197
 C192 C 0.52936 0.25445 -0.03178
 C193 C 0.46734 0.25340 -0.03103
 C194 C 0.52943 0.25372 0.03120
 O195 O 0.52439 0.72539 0.02322
 O196 O 0.47868 0.72467 -0.02368
 O197 O 0.52456 0.72659 -0.02371
 O198 O 0.47832 0.72348 0.02350
 O199 O 0.47695 0.76338 0.02539
 O200 O 0.52216 0.76647 -0.02281
 O201 O 0.47589 0.76454 -0.02123
 O202 O 0.52308 0.76532 0.02409
 Cu203 Cu 0.50165 0.72103 -0.00029
 Cu204 Cu 0.49936 0.76893 0.00149
 C205 C 0.53169 0.74548 0.03155
 C206 C 0.46938 0.74449 -0.03030
 C207 C 0.53119 0.74706 -0.03145
 C208 C 0.46979 0.74291 0.03261
 O209 O 0.02034 0.47387 0.26671
 O210 O -0.02530 0.52175 0.26551
 O211 O -0.02584 0.47482 0.26545
 O212 O 0.02095 0.52095 0.26672
 O213 O 0.02227 0.52071 0.22695
 O214 O -0.02415 0.47418 0.22568
 O215 O -0.02376 0.52145 0.22573
 O216 O 0.02192 0.47357 0.22695
 Cu217 Cu -0.00259 0.49790 0.27008
 Cu218 Cu -0.00079 0.49743 0.22234
 C219 C 0.02897 0.46553 0.24704
 C220 C -0.03237 0.52976 0.24542
 C221 C -0.03299 0.46659 0.24534
 C222 C 0.02961 0.52875 0.24706
 O223 O 0.02326 0.52585 0.73574
 O224 O -0.02328 0.47942 0.73553
 O225 O -0.02298 0.52645 0.73516
 O226 O 0.02289 0.47880 0.73594
 O227 O 0.02232 0.47968 0.77571
 O228 O -0.02396 0.52700 0.77494
 O229 O -0.02383 0.47979 0.77531
 O230 O 0.02205 0.52690 0.77552
 Cu231 Cu 0.00006 0.50257 0.73161
 Cu232 Cu -0.00094 0.50339 0.77936
 C233 C 0.03055 0.53439 0.75567
 C234 C -0.03148 0.47160 0.75538
 C235 C -0.03135 0.53486 0.75491
 C236 C 0.03051 0.47110 0.75595
 C237 C 0.33994 0.24904 0.16125
 C238 C 0.33005 0.22700 0.16865
 C239 C 0.31220 0.22662 0.18631
 C240 C 0.30383 0.24826 0.19699
 C241 C 0.31376 0.27030 0.18964
 C242 C 0.33160 0.27069 0.17197
 C243 C 0.35881 0.24948 0.14236
 C244 C 0.37804 0.26541 0.14437
 C245 C 0.39571 0.26591 0.12653
 C246 C 0.39460 0.25045 0.10630
 C247 C 0.37542 0.23448 0.10430
 C248 C 0.35771 0.23401 0.12211
 C249 C 0.41334 0.25101 0.08732
 C250 C 0.42209 0.22940 0.07688
 C251 C 0.43969 0.22993 0.05898
 C252 C 0.44890 0.25209 0.05104
 C253 C 0.44015 0.27371 0.06147
 C254 C 0.42259 0.27317 0.07944
 H255 H 0.33626 0.21000 0.16094
 H256 H 0.30474 0.20937 0.19141
 H257 H 0.30788 0.28726 0.19771
 H258 H 0.33867 0.28798 0.16649
 H259 H 0.37961 0.27727 0.15993
 H260 H 0.41046 0.27815 0.12875
 H261 H 0.37388 0.22261 0.08874
 H262 H 0.34294 0.22182 0.11983
 H263 H 0.41551 0.21205 0.08279
 H264 H 0.44608 0.21295 0.05135
 H265 H 0.44683 0.29108 0.05574
 H266 H 0.41601 0.29013 0.08693
 C267 C 0.66003 0.74763 0.15755
 C268 C 0.68267 0.73820 0.15219
 C269 C 0.70048 0.73842 0.16949
 C270 C 0.69634 0.74834 0.19276
 C271 C 0.67353 0.75790 0.19792
 C272 C 0.65569 0.75742 0.18065
 C273 C 0.64106 0.74727 0.13911
 C274 C 0.62490 0.76665 0.13740
 C275 C 0.60707 0.76631 0.12010
 C276 C 0.60505 0.74666 0.10394
 C277 C 0.62124 0.72731 0.10562
 C278 C 0.63896 0.72757 0.12303
 C279 C 0.58617 0.74637 0.08540
 C280 C 0.57475 0.72466 0.07917
 C281 C 0.55715 0.72436 0.06163
 C282 C 0.55038 0.74579 0.05007
 C283 C 0.56167 0.76752 0.05636
 C284 C 0.57942 0.76779 0.07374
 H285 H 0.68683 0.73106 0.13438
 H286 H 0.71779 0.73173 0.16401
 H287 H 0.66887 0.76484 0.21566
 H288 H 0.63828 0.76431 0.18561
 H289 H 0.62616 0.78226 0.14927
 H290 H 0.59473 0.78137 0.11955
 H291 H 0.62042 0.71203 0.09328
 H292 H 0.65088 0.71219 0.12403
 H293 H 0.57920 0.70790 0.08806
 H294 H 0.54867 0.70735 0.05730
 H295 H 0.55696 0.78432 0.04766
 H296 H 0.58810 0.78476 0.07778
 C297 C 0.65763 0.25733 -0.16057
 C298 C 0.68015 0.26651 -0.15528
 C299 C 0.69813 0.26656 -0.17281
 C300 C 0.69428 0.25719 -0.19625
 C301 C 0.67152 0.24805 -0.20138
 C302 C 0.65352 0.24823 -0.18387
 C303 C 0.63857 0.25708 -0.14183
 C304 C 0.62282 0.23751 -0.14033
 C305 C 0.60498 0.23720 -0.12267
 C306 C 0.60251 0.25638 -0.10594
 C307 C 0.61826 0.27595 -0.10743
 C308 C 0.63602 0.27633 -0.12519
 C309 C 0.58368 0.25590 -0.08696
 C310 C 0.57159 0.27723 -0.07998
 C311 C 0.55400 0.27678 -0.06205
 C312 C 0.54797 0.25495 -0.05079
 C313 C 0.55997 0.23361 -0.05781
 C314 C 0.57767 0.23409 -0.07562
 H315 H 0.68410 0.27316 -0.13735
 H316 H 0.71537 0.27294 -0.16737
 H317 H 0.66703 0.24161 -0.21922
 H318 H 0.63620 0.24157 -0.18876
 H319 H 0.62444 0.22224 -0.15265
 H320 H 0.59298 0.22199 -0.12225
 H321 H 0.61706 0.29089 -0.09467
 H322 H 0.64764 0.29183 -0.12600
 H323 H 0.57549 0.29426 -0.08860
 H324 H 0.54499 0.29351 -0.05714
 H325 H 0.55585 0.21653 -0.04938
 H326 H 0.58688 0.21740 -0.08025
 C327 C 0.34246 0.74483 -0.15823
 C328 C 0.33020 0.72358 -0.16442
 C329 C 0.31284 0.72377 -0.18220
 C330 C 0.30663 0.74538 -0.19386
 C331 C 0.31871 0.76668 -0.18749
 C332 C 0.33658 0.76634 -0.17026
 C333 C 0.36116 0.74463 -0.13931
 C334 C 0.36562 0.76541 -0.12522
 C335 C 0.38332 0.76536 -0.10780
 C336 C 0.39665 0.74429 -0.10330
 C337 C 0.39194 0.72339 -0.11713
 C338 C 0.37475 0.72366 -0.13508
 C339 C 0.41533 0.74416 -0.08437
 C340 C 0.43531 0.72879 -0.08651
 C341 C 0.45264 0.72856 -0.06869
 C342 C 0.45082 0.74424 -0.04873
 C343 C 0.43120 0.75982 -0.04656
 C344 C 0.41345 0.75950 -0.06394
 H345 H 0.33374 0.70669 -0.15539
 H346 H 0.30442 0.70684 -0.18682
 H347 H 0.31426 0.78384 -0.19558
 H348 H 0.34583 0.78303 -0.16655
 H349 H 0.35535 0.78183 -0.12741
 H350 H 0.38658 0.78204 -0.09804
 H351 H 0.40136 0.70661 -0.11405
 H352 H 0.37233 0.70737 -0.14573
 H353 H 0.43788 0.71714 -0.10213
 H354 H 0.46780 0.71656 -0.07080
 H355 H 0.42936 0.77188 -0.03111
 H356 H 0.39816 0.77113 -0.06109
 C357 C 0.15659 0.33642 0.24995
 C358 C 0.16495 0.32578 0.22832
 C359 C 0.18288 0.30822 0.22856
 C360 C 0.19291 0.30090 0.25042
 C361 C 0.18453 0.31151 0.27206
 C362 C 0.16658 0.32905 0.27183
 C363 C 0.13762 0.35521 0.24969
 C364 C 0.13861 0.37548 0.26517
 C365 C 0.12084 0.39321 0.26484
 C366 C 0.10170 0.39111 0.24897
 C367 C 0.10068 0.37084 0.23349
 C368 C 0.11842 0.35308 0.23387
 C369 C 0.08293 0.41004 0.24848
 C370 C 0.07383 0.41805 0.22644
 C371 C 0.05631 0.43604 0.22597
 C372 C 0.04743 0.44636 0.24754
 C373 C 0.05645 0.43826 0.26959
 C374 C 0.07403 0.42034 0.27005
 H375 H 0.15782 0.33124 0.21115
 H376 H 0.18876 0.30020 0.21161
 H377 H 0.19206 0.30646 0.28917
 H378 H 0.16036 0.33670 0.28882
 H379 H 0.15336 0.37787 0.27728
 H380 H 0.12229 0.40880 0.27672
 H381 H 0.08597 0.36855 0.22132
 H382 H 0.11693 0.33749 0.22200
 H383 H 0.08054 0.41066 0.20952
 H384 H 0.04977 0.44190 0.20868
 H385 H 0.04996 0.44580 0.28653
 H386 H 0.08049 0.41433 0.28732
 C387 C 0.15823 0.66127 0.75697
 C388 C 0.15397 0.68448 0.74794
 C389 C 0.17198 0.70172 0.74749
 C390 C 0.19477 0.69637 0.75647
 C391 C 0.19865 0.67302 0.76593
 C392 C 0.18071 0.65571 0.76596
 C393 C 0.13936 0.64277 0.75676
 C394 C 0.14415 0.61929 0.74796
 C395 C 0.12632 0.60185 0.74755
 C396 C 0.10346 0.60747 0.75627
 C397 C 0.09870 0.63090 0.76523
 C398 C 0.11644 0.64845 0.76530
 C399 C 0.08466 0.58889 0.75605
 C400 C 0.07057 0.58505 0.77667
 C401 C 0.05308 0.56724 0.77659
 C402 C 0.04910 0.55319 0.75577
 C403 C 0.06306 0.55722 0.73507
 C404 C 0.08079 0.57478 0.73528
 H405 H 0.13672 0.68920 0.74092
 H406 H 0.16759 0.71952 0.74084
 H407 H 0.21588 0.66748 0.77232
 H408 H 0.18441 0.63791 0.77306
 H409 H 0.16164 0.61453 0.74112
 H410 H 0.13046 0.58387 0.74070
 H411 H 0.08116 0.63569 0.77192
 H412 H 0.11236 0.66640 0.77229
 H413 H 0.07334 0.59559 0.79296
 H414 H 0.04256 0.56459 0.79279
 H415 H 0.06043 0.54664 0.71878
 H416 H 0.09132 0.57753 0.71911
 C417 C -0.15914 0.65920 0.24314
 C418 C -0.15430 0.68257 0.25175
 C419 C -0.17196 0.70042 0.25218
 C420 C -0.19498 0.69552 0.24362
 C421 C -0.19949 0.67195 0.23470
 C422 C -0.18189 0.65404 0.23467
 C423 C -0.14053 0.64017 0.24318
 C424 C -0.14549 0.61710 0.25231
 C425 C -0.12784 0.59925 0.25271
 C426 C -0.10501 0.60402 0.24367
 C427 C -0.10012 0.62701 0.23432
 C428 C -0.11767 0.64499 0.23424
 C429 C -0.08633 0.58508 0.24411
 C430 C -0.07227 0.58025 0.22356
 C431 C -0.05481 0.56218 0.22392
 C432 C -0.05085 0.54886 0.24497
 C433 C -0.06479 0.55388 0.26560
 C434 C -0.08247 0.57170 0.26511
 H435 H -0.13685 0.68698 0.25839
 H436 H -0.16709 0.71831 0.25842
 H437 H -0.21692 0.66677 0.22866
 H438 H -0.18604 0.63611 0.22792
 H439 H -0.16293 0.61301 0.25945
 H440 H -0.13208 0.58161 0.25987
 H441 H -0.08261 0.63117 0.22739
 H442 H -0.11347 0.66259 0.22698
 H443 H -0.07502 0.59022 0.20710
 H444 H -0.04431 0.55874 0.20777
 H445 H -0.06219 0.54388 0.28207
 H446 H -0.09297 0.57523 0.28125
 C447 C -0.15936 0.34404 0.75425
 C448 C -0.18210 0.34934 0.76345
 C449 C -0.19992 0.33189 0.76308
 C450 C -0.19567 0.30853 0.75325
 C451 C -0.17270 0.30340 0.74405
 C452 C -0.15487 0.32082 0.74466
 C453 C -0.14043 0.36268 0.75455
 C454 C -0.12420 0.36443 0.73523
 C455 C -0.10645 0.38195 0.73546
 C456 C -0.10456 0.39829 0.75494
 C457 C -0.12080 0.39657 0.77425
 C458 C -0.13846 0.37894 0.77409
 C459 C -0.08578 0.41709 0.75507
 C460 C -0.07433 0.42350 0.77660
 C461 C -0.05678 0.44124 0.77672
 C462 C -0.05012 0.45286 0.75529
 C463 C -0.06147 0.44641 0.73375
 C464 C -0.07915 0.42881 0.73366
 H465 H -0.18635 0.36723 0.77047
 H466 H -0.21733 0.33735 0.76953
 H467 H -0.16794 0.28559 0.73724
 H468 H -0.13737 0.31591 0.73798
 H469 H -0.12537 0.35242 0.71974
 H470 H -0.09406 0.38254 0.72044
 H471 H -0.12006 0.40903 0.78941
 H472 H -0.15045 0.37792 0.78941
 H473 H -0.07871 0.41458 0.79334
 H474 H -0.04826 0.44571 0.79359
 H475 H -0.05685 0.45514 0.71696
 H476 H -0.08786 0.42464 0.71684
 C477 C 0.24909 0.15661 0.34174
 C478 C 0.25430 0.15052 0.31757
 C479 C 0.25420 0.16827 0.29979
 C480 C 0.24884 0.19249 0.30576
 C481 C 0.24361 0.19858 0.32990
 C482 C 0.24376 0.18085 0.34770
 C483 C 0.24925 0.13775 0.36066
 C484 C 0.23201 0.13793 0.37916
 C485 C 0.23219 0.12023 0.39698
 C486 C 0.24960 0.10190 0.39672
 C487 C 0.26682 0.10170 0.37821
 C488 C 0.26666 0.11942 0.36040
 C489 C 0.24981 0.08309 0.41569
 C490 C 0.27132 0.07499 0.42541
 C491 C 0.27153 0.05727 0.44321
 C492 C 0.25023 0.04726 0.45175
 C493 C 0.22871 0.05538 0.44206
 C494 C 0.22851 0.07307 0.42422
 H495 H 0.25810 0.13195 0.31232
 H496 H 0.25797 0.16298 0.28127
 H497 H 0.23976 0.21716 0.33510
 H498 H 0.24006 0.18620 0.36620
 H499 H 0.21821 0.15164 0.37973
 H500 H 0.21883 0.12105 0.41114
 H501 H 0.28032 0.08769 0.37734
 H502 H 0.28034 0.11892 0.34656
 H503 H 0.28801 0.08258 0.41948
 H504 H 0.28841 0.05148 0.45036
 H505 H 0.21199 0.04798 0.44817
 H506 H 0.21166 0.07867 0.41687
 C507 C 0.75073 0.16490 0.65858
 C508 C 0.72939 0.17622 0.66581
 C509 C 0.72919 0.19408 0.68385
 C510 C 0.75032 0.20101 0.69514
 C511 C 0.77166 0.18969 0.68791
 C512 C 0.77187 0.17187 0.66984
 C513 C 0.75093 0.14587 0.63942
 C514 C 0.76560 0.12532 0.64132
 C515 C 0.76575 0.10741 0.62333
 C516 C 0.75116 0.10959 0.60308
 C517 C 0.73649 0.13011 0.60117
 C518 C 0.73641 0.14807 0.61911
 C519 C 0.75121 0.09049 0.58406
 C520 C 0.72985 0.08269 0.57387
 C521 C 0.72986 0.06460 0.55605
 C522 C 0.75126 0.05400 0.54795
 C523 C 0.77264 0.06187 0.55809
 C524 C 0.77260 0.07987 0.57600
 H525 H 0.71276 0.17109 0.65772
 H526 H 0.71249 0.20264 0.68881
 H527 H 0.78820 0.19442 0.69643
 H528 H 0.78864 0.16371 0.66450
 H529 H 0.77670 0.12287 0.65692
 H530 H 0.77698 0.09162 0.62547
 H531 H 0.72533 0.13245 0.58559
 H532 H 0.72521 0.16386 0.61689
 H533 H 0.71307 0.09034 0.57992
 H534 H 0.71309 0.05893 0.54863
 H535 H 0.78943 0.05409 0.55224
 H536 H 0.78936 0.08571 0.58333
 C537 C 0.25296 -0.16396 0.66088
 C538 C 0.24686 -0.18801 0.65531
 C539 C 0.24673 -0.20567 0.67318
 C540 C 0.25280 -0.19970 0.69701
 C541 C 0.25900 -0.17571 0.70258
 C542 C 0.25904 -0.15804 0.68474
 C543 C 0.25287 -0.14510 0.64196
 C544 C 0.27048 -0.12722 0.64138
 C545 C 0.27025 -0.10932 0.62376
 C546 C 0.25243 -0.10889 0.60624
 C547 C 0.23487 -0.12683 0.60676
 C548 C 0.23507 -0.14470 0.62442
 C549 C 0.25214 -0.08979 0.58756
 C550 C 0.23063 -0.07932 0.58028
 C551 C 0.23036 -0.06137 0.56271
 C552 C 0.25160 -0.05341 0.55205
 C553 C 0.27311 -0.06384 0.55935
 C554 C 0.27338 -0.08184 0.57686
 H555 H 0.24246 -0.19326 0.63704
 H556 H 0.24218 -0.22408 0.66831
 H557 H 0.26339 -0.17051 0.72086
 H558 H 0.26342 -0.13962 0.68973
 H559 H 0.28460 -0.12717 0.65445
 H560 H 0.28389 -0.09562 0.62404
 H561 H 0.22106 -0.12719 0.59336
 H562 H 0.22109 -0.15804 0.62451
 H563 H 0.21400 -0.08477 0.58842
 H564 H 0.21349 -0.05364 0.55756
 H565 H 0.28978 -0.05820 0.55141
 H566 H 0.29021 -0.08978 0.58180
 C567 C 0.75101 -0.15876 0.33645
 C568 C 0.74705 -0.15268 0.31227
 C569 C 0.74694 -0.17063 0.29432
 C570 C 0.75103 -0.19498 0.30016
 C571 C 0.75509 -0.20104 0.32431
 C572 C 0.75497 -0.18313 0.34229
 C573 C 0.75102 -0.13975 0.35551
 C574 C 0.73909 -0.14339 0.37754
 C575 C 0.73904 -0.12545 0.39549
 C576 C 0.75112 -0.10360 0.39188
 C577 C 0.76314 -0.10000 0.36989
 C578 C 0.76299 -0.11784 0.35185
 C579 C 0.75118 -0.08461 0.41097
 C580 C 0.77224 -0.07259 0.41686
 C581 C 0.77231 -0.05474 0.43491
 C582 C 0.75126 -0.04837 0.44728
 C583 C 0.73018 -0.06035 0.44131
 C584 C 0.73017 -0.07837 0.42343
 H585 H 0.74376 -0.13406 0.30731
 H586 H 0.74393 -0.16545 0.27582
 H587 H 0.75810 -0.21970 0.32932
 H588 H 0.75826 -0.18829 0.36075
 H589 H 0.72956 -0.16003 0.38076
 H590 H 0.72979 -0.12876 0.41234
 H591 H 0.77243 -0.08324 0.36657
 H592 H 0.77248 -0.11465 0.33511
 H593 H 0.78873 -0.07722 0.40770
 H594 H 0.78883 -0.04583 0.43907
 H595 H 0.71368 -0.05587 0.45051
 H596 H 0.71365 -0.08719 0.41908
 C597 C 0.65825 0.75327 -0.16099
 C598 C 0.66654 0.73161 -0.17171
 C599 C 0.68459 0.73192 -0.18915
 C600 C 0.69481 0.75390 -0.19626
 C601 C 0.68649 0.77557 -0.18560
 C602 C 0.66841 0.77527 -0.16817
 C603 C 0.63919 0.75288 -0.14229
 C604 C 0.64018 0.76823 -0.12194
 C605 C 0.62244 0.76757 -0.10417
 C606 C 0.60336 0.75149 -0.10631
 C607 C 0.60229 0.73625 -0.12670
 C608 C 0.61998 0.73696 -0.14450
 C609 C 0.58477 0.75042 -0.08721
 C610 C 0.57601 0.72801 -0.07950
 C611 C 0.55864 0.72693 -0.06140
 C612 C 0.54958 0.74826 -0.05065
 C613 C 0.55830 0.77069 -0.05840
 C614 C 0.57574 0.77176 -0.07645
 H615 H 0.65929 0.71434 -0.16639
 H616 H 0.69041 0.71494 -0.19723
 H617 H 0.69416 0.79277 -0.19051
 H618 H 0.66225 0.79229 -0.16045
 H619 H 0.65493 0.78042 -0.11951
 H620 H 0.62392 0.77929 -0.08850
 H621 H 0.58760 0.72395 -0.12903
 H622 H 0.61847 0.72521 -0.16015
 H623 H 0.58284 0.71126 -0.08724
 H624 H 0.55234 0.70936 -0.05582
 H625 H 0.55166 0.78746 -0.05051
 H626 H 0.58198 0.78930 -0.08220
 C627 C 0.33923 0.25252 -0.15705
 C628 C 0.34484 0.24798 -0.18145
 C629 C 0.32707 0.24773 -0.19881
 C630 C 0.30330 0.25206 -0.19218
 C631 C 0.29769 0.25666 -0.16781
 C632 C 0.31545 0.25686 -0.15044
 C633 C 0.35812 0.25269 -0.13858
 C634 C 0.35772 0.26991 -0.11974
 C635 C 0.37547 0.27005 -0.10236
 C636 C 0.39404 0.25296 -0.10341
 C637 C 0.39444 0.23575 -0.12226
 C638 C 0.37669 0.23561 -0.13963
 C639 C 0.41289 0.25308 -0.08490
 C640 C 0.42178 0.23123 -0.07575
 C641 C 0.43948 0.23133 -0.05832
 C642 C 0.44868 0.25329 -0.04960
 C643 C 0.43980 0.27514 -0.05875
 C644 C 0.42213 0.27503 -0.07621
 H645 H 0.36303 0.24497 -0.18720
 H646 H 0.33198 0.24450 -0.21751
 H647 H 0.27948 0.25970 -0.16211
 H648 H 0.31050 0.26003 -0.13174
 H649 H 0.34381 0.28348 -0.11857
 H650 H 0.37451 0.28338 -0.08793
 H651 H 0.40864 0.22251 -0.12373
 H652 H 0.37737 0.22193 -0.15376
 H653 H 0.41481 0.21402 -0.08183
 H654 H 0.44586 0.21418 -0.05158
 H655 H 0.44657 0.29237 -0.05248
 H656 H 0.41589 0.29216 -0.08314
 C657 C 0.34386 0.73714 0.16359
 C658 C 0.32130 0.72793 0.15856
 C659 C 0.30346 0.72803 0.17625
 C660 C 0.30752 0.73759 0.19957
 C661 C 0.33036 0.74661 0.20447
 C662 C 0.34822 0.74628 0.18682
 C663 C 0.36267 0.73756 0.14459
 C664 C 0.37825 0.75725 0.14296
 C665 C 0.39574 0.75786 0.12496
 C666 C 0.39800 0.73887 0.10799
 C667 C 0.38247 0.71913 0.10965
 C668 C 0.36507 0.71845 0.12776
 C669 C 0.41635 0.73980 0.08856
 C670 C 0.42855 0.71871 0.08100
 C671 C 0.44580 0.71967 0.06275
 C672 C 0.45137 0.74176 0.05177
 C673 C 0.43920 0.76283 0.05930
 C674 C 0.42184 0.76184 0.07741
 H675 H 0.31716 0.72123 0.14069
 H676 H 0.28616 0.72168 0.17098
 H677 H 0.33500 0.75316 0.22224
 H678 H 0.36560 0.75292 0.19152
 H679 H 0.37674 0.77242 0.15541
 H680 H 0.40760 0.77318 0.12444
 H681 H 0.38354 0.70432 0.09673
 H682 H 0.35356 0.70287 0.12866
 H683 H 0.42501 0.70150 0.08944
 H684 H 0.45496 0.70314 0.05743
 H685 H 0.44295 0.78010 0.05108
 H686 H 0.41250 0.77834 0.08245
 C687 C 0.65717 0.25330 0.15752
 C688 C 0.66480 0.27498 0.16834
 C689 C 0.68254 0.27472 0.18573
 C690 C 0.69306 0.25278 0.19271
 C691 C 0.68538 0.23110 0.18194
 C692 C 0.66764 0.23136 0.16456
 C693 C 0.63841 0.25355 0.13892
 C694 C 0.64010 0.23824 0.11856
 C695 C 0.62240 0.23835 0.10113
 C696 C 0.60263 0.25381 0.10363
 C697 C 0.60097 0.26920 0.12392
 C698 C 0.61865 0.26906 0.14139
 C699 C 0.58380 0.25382 0.08514
 C700 C 0.57361 0.27567 0.07748
 C701 C 0.55597 0.27566 0.05997
 C702 C 0.54807 0.25377 0.04980
 C703 C 0.55820 0.23191 0.05754
 C704 C 0.57588 0.23194 0.07499
 H705 H 0.65727 0.29220 0.16313
 H706 H 0.68790 0.29170 0.19388
 H707 H 0.69330 0.21393 0.18673
 H708 H 0.66197 0.21433 0.15678
 H709 H 0.65529 0.22640 0.11591
 H710 H 0.62437 0.22657 0.08550
 H711 H 0.58578 0.28106 0.12651
 H712 H 0.61664 0.28080 0.15704
 H713 H 0.57954 0.29283 0.08477
 H714 H 0.54856 0.29281 0.05437
 H715 H 0.55248 0.21474 0.05011
 H716 H 0.58318 0.21480 0.08075
 C717 C -0.15869 0.66453 0.75239
 C718 C -0.15403 0.68759 0.74314
 C719 C -0.17178 0.70533 0.74264
 C720 C -0.19483 0.70067 0.75162
 C721 C -0.19929 0.67740 0.76095
 C722 C -0.18156 0.65965 0.76121
 C723 C -0.13981 0.64561 0.75283
 C724 C -0.13816 0.62962 0.77231
 C725 C -0.12055 0.61173 0.77264
 C726 C -0.10404 0.60946 0.75357
 C727 C -0.10560 0.62554 0.73414
 C728 C -0.12330 0.64334 0.73374
 C729 C -0.08532 0.59038 0.75390
 C730 C -0.07845 0.57815 0.73256
 C731 C -0.06087 0.56022 0.73287
 C732 C -0.04987 0.55396 0.75457
 C733 C -0.05676 0.56610 0.77592
 C734 C -0.07421 0.58416 0.77558
 H735 H -0.13645 0.69216 0.73671
 H736 H -0.16689 0.72303 0.73616
 H737 H -0.21678 0.67226 0.76713
 H738 H -0.18594 0.64187 0.76791
 H739 H -0.15037 0.63104 0.78745
 H740 H -0.12006 0.59947 0.78774
 H741 H -0.09299 0.62452 0.71930
 H742 H -0.12421 0.65515 0.71832
 H743 H -0.08690 0.58218 0.71562
 H744 H -0.05606 0.55109 0.71613
 H745 H -0.04851 0.56180 0.79291
 H746 H -0.07878 0.59348 0.79228
 C747 C -0.16130 0.34037 0.24333
 C748 C -0.18417 0.34592 0.23537
 C749 C -0.20189 0.32836 0.23547
 C750 C -0.19735 0.30474 0.24396
 C751 C -0.17422 0.29945 0.25203
 C752 C -0.15646 0.31696 0.25153
 C753 C -0.14255 0.35900 0.24324
 C754 C -0.11985 0.35358 0.23394
 C755 C -0.10214 0.37116 0.23394
 C756 C -0.10670 0.39436 0.24357
 C757 C -0.12938 0.39976 0.25294
 C758 C -0.14718 0.38229 0.25263
 C759 C -0.08782 0.41286 0.24398
 C760 C -0.08365 0.42643 0.26504
 C761 C -0.06572 0.44376 0.26553
 C762 C -0.05181 0.44808 0.24486
 C763 C -0.05610 0.43460 0.22374
 C764 C -0.07382 0.41703 0.22336
 H765 H -0.18833 0.36388 0.22893
 H766 H -0.21939 0.33384 0.22982
 H767 H -0.16934 0.28151 0.25791
 H768 H -0.13893 0.31224 0.25779
 H769 H -0.11590 0.33580 0.22646
 H770 H -0.08475 0.36652 0.22675
 H771 H -0.13337 0.41757 0.26032
 H772 H -0.16450 0.38685 0.26005
 H773 H -0.09408 0.42341 0.28123
 H774 H -0.06287 0.45390 0.28205
 H775 H -0.04565 0.43750 0.20755
 H776 H -0.07682 0.40690 0.20686
 C777 C 0.15780 0.34148 0.75656
 C778 C 0.18152 0.34771 0.76085
 C779 C 0.19930 0.32997 0.76053
 C780 C 0.19377 0.30561 0.75587
 C781 C 0.17007 0.29936 0.75163
 C782 C 0.15228 0.31709 0.75199
 C783 C 0.13893 0.36037 0.75670
 C784 C 0.12073 0.35970 0.73960
 C785 C 0.10307 0.37756 0.73961
 C786 C 0.10320 0.39652 0.75671
 C787 C 0.12135 0.39715 0.77386
 C788 C 0.13901 0.37929 0.77385
 C789 C 0.08454 0.41562 0.75655
 C790 C 0.07475 0.42469 0.77828
 C791 C 0.05723 0.44269 0.77810
 C792 C 0.04907 0.45202 0.75619
 C793 C 0.05885 0.44295 0.73447
 C794 C 0.07638 0.42498 0.73465
 H795 H 0.18641 0.36639 0.76403
 H796 H 0.21745 0.33538 0.76351
 H797 H 0.16522 0.28068 0.74836
 H798 H 0.13414 0.31165 0.74901
 H799 H 0.12030 0.34552 0.72599
 H800 H 0.08919 0.37640 0.72633
 H801 H 0.12209 0.41165 0.78711
 H802 H 0.15264 0.38018 0.78743
 H803 H 0.08043 0.41764 0.79544
 H804 H 0.05000 0.44923 0.79514
 H805 H 0.05304 0.44981 0.71728
 H806 H 0.08380 0.41863 0.71763
 C807 C 0.15995 0.65360 0.25001
 C808 C 0.15579 0.67699 0.25932
 C809 C 0.17392 0.69409 0.25987
 C810 C 0.19686 0.68845 0.25088
 C811 C 0.20080 0.66489 0.24142
 C812 C 0.18268 0.64777 0.24111
 C813 C 0.14065 0.63537 0.24958
 C814 C 0.13861 0.61908 0.23007
 C815 C 0.12056 0.60187 0.22972
 C816 C 0.10400 0.60062 0.24879
 C817 C 0.10599 0.61697 0.26825
 C818 C 0.12413 0.63407 0.26868
 C819 C 0.08477 0.58231 0.24839
 C820 C 0.07755 0.57075 0.26970
 C821 C 0.05954 0.55350 0.26930
 C822 C 0.04846 0.54726 0.24755
 C823 C 0.05566 0.55878 0.22625
 C824 C 0.07354 0.57616 0.22668
 H825 H 0.13832 0.68230 0.26578
 H826 H 0.16941 0.71206 0.26641
 H827 H 0.21816 0.65904 0.23519
 H828 H 0.18667 0.62973 0.23434
 H829 H 0.15083 0.61975 0.21492
 H830 H 0.11975 0.58937 0.21459
 H831 H 0.09337 0.61672 0.28310
 H832 H 0.12534 0.64612 0.28413
 H833 H 0.08606 0.57475 0.28666
 H834 H 0.05448 0.54484 0.28600
 H835 H 0.04736 0.55448 0.20923
 H836 H 0.07836 0.58500 0.21001
 C837 C 0.75202 -0.15527 0.65932
 C838 C 0.73069 -0.16609 0.66670
 C839 C 0.73056 -0.18361 0.68469
 C840 C 0.75175 -0.19069 0.69579
 C841 C 0.77307 -0.17983 0.68846
 C842 C 0.77321 -0.16234 0.67043
 C843 C 0.75215 -0.13671 0.64010
 C844 C 0.76686 -0.11632 0.64182
 C845 C 0.76690 -0.09885 0.62377
 C846 C 0.75218 -0.10132 0.60363
 C847 C 0.73750 -0.12170 0.60187
 C848 C 0.73751 -0.13921 0.61987
 C849 C 0.75207 -0.08267 0.58455
 C850 C 0.73062 -0.07489 0.57448
 C851 C 0.73048 -0.05728 0.55657
 C852 C 0.75180 -0.04712 0.54826
 C853 C 0.77326 -0.05495 0.55830
 C854 C 0.77339 -0.07249 0.57630
 H855 H 0.71403 -0.16084 0.65872
 H856 H 0.71387 -0.19182 0.68973
 H857 H 0.78966 -0.18471 0.69684
 H858 H 0.78998 -0.15456 0.66499
 H859 H 0.77805 -0.11366 0.65734
 H860 H 0.77815 -0.08317 0.62578
 H861 H 0.72624 -0.12427 0.58638
 H862 H 0.72629 -0.15491 0.61778
 H863 H 0.71390 -0.08221 0.58068
 H864 H 0.71364 -0.05163 0.54924
 H865 H 0.78999 -0.04750 0.55229
 H866 H 0.79020 -0.07832 0.58354
 C867 C 0.25173 -0.16667 0.34261
 C868 C 0.24619 -0.19065 0.34867
 C869 C 0.24626 -0.20889 0.33102
 C870 C 0.25194 -0.20358 0.30692
 C871 C 0.25750 -0.17964 0.30085
 C872 C 0.25736 -0.16138 0.31848
 C873 C 0.25163 -0.14725 0.36137
 C874 C 0.26904 -0.12916 0.36118
 C875 C 0.26893 -0.11088 0.37880
 C876 C 0.25144 -0.11028 0.39704
 C877 C 0.23405 -0.12840 0.39724
 C878 C 0.23413 -0.14665 0.37961
 C879 C 0.25135 -0.09087 0.41580
 C880 C 0.22990 -0.08043 0.42398
 C881 C 0.22980 -0.06224 0.44169
 C882 C 0.25116 -0.05403 0.45159
 C883 C 0.27261 -0.06441 0.44338
 C884 C 0.27270 -0.08264 0.42571
 H885 H 0.24216 -0.19540 0.36715
 H886 H 0.24223 -0.22725 0.33628
 H887 H 0.26160 -0.17495 0.28236
 H888 H 0.26131 -0.14303 0.31314
 H889 H 0.28292 -0.12925 0.34755
 H890 H 0.28242 -0.09705 0.37797
 H891 H 0.22049 -0.12862 0.41120
 H892 H 0.22032 -0.16016 0.38011
 H893 H 0.21317 -0.08610 0.41646
 H894 H 0.21297 -0.05455 0.44755
 H895 H 0.28937 -0.05857 0.45071
 H896 H 0.28950 -0.09054 0.42006
 C897 C 0.74959 0.16042 0.33568
 C898 C 0.72824 0.17147 0.32878
 C899 C 0.72810 0.18912 0.31091
 C900 C 0.74930 0.19610 0.29948
 C901 C 0.77064 0.18498 0.30630
 C902 C 0.77079 0.16737 0.32421
 C903 C 0.74977 0.14180 0.35484
 C904 C 0.76460 0.12131 0.35276
 C905 C 0.76482 0.10386 0.37082
 C906 C 0.75016 0.10645 0.39134
 C907 C 0.73529 0.12688 0.39342
 C908 C 0.73513 0.14438 0.37540
 C909 C 0.75036 0.08790 0.41051
 C910 C 0.72908 0.08022 0.42126
 C911 C 0.72926 0.06269 0.43926
 C912 C 0.75076 0.05254 0.44698
 C913 C 0.77206 0.06028 0.43627
 C914 C 0.77185 0.07773 0.41819
 H915 H 0.71157 0.16633 0.33705
 H916 H 0.71139 0.19752 0.30625
 H917 H 0.78723 0.18977 0.29766
 H918 H 0.78757 0.15940 0.32928
 H919 H 0.77580 0.11858 0.33697
 H920 H 0.77620 0.08812 0.36856
 H921 H 0.72406 0.12954 0.40919
 H922 H 0.72380 0.16014 0.37776
 H923 H 0.71223 0.08753 0.41552
 H924 H 0.71254 0.05709 0.44711
 H925 H 0.78892 0.05285 0.44182
 H926 H 0.78855 0.08350 0.41043
 C927 C 0.24944 0.15945 0.66277
 C928 C 0.22803 0.16697 0.67377
 C929 C 0.22787 0.18494 0.69169
 C930 C 0.24910 0.19586 0.69898
 C931 C 0.27049 0.18837 0.68793
 C932 C 0.27066 0.17035 0.67005
 C933 C 0.24963 0.14029 0.64380
 C934 C 0.26724 0.12219 0.64345
 C935 C 0.26740 0.10412 0.62562
 C936 C 0.24998 0.10377 0.60768
 C937 C 0.23238 0.12192 0.60803
 C938 C 0.23219 0.13994 0.62590
 C939 C 0.25015 0.08457 0.58871
 C940 C 0.22884 0.07424 0.58085
 C941 C 0.22899 0.05621 0.56299
 C942 C 0.25046 0.04803 0.55261
 C943 C 0.27178 0.05832 0.56048
 C944 C 0.27162 0.07639 0.57831
 H945 H 0.21144 0.15865 0.66878
 H946 H 0.21114 0.19003 0.70012
 H947 H 0.28710 0.19670 0.69285
 H948 H 0.28739 0.16519 0.66165
 H949 H 0.28070 0.12177 0.65721
 H950 H 0.28097 0.09018 0.62610
 H951 H 0.21894 0.12240 0.59425
 H952 H 0.21860 0.15386 0.62550
 H953 H 0.21203 0.07988 0.58874
 H954 H 0.21226 0.04859 0.55739
 H955 H 0.28862 0.05250 0.55279
 H956 H 0.28831 0.08421 0.58372
   
