data_POSCAR
  _audit_creation_date              2014-09-24
  _audit_creation_method            'ToBaCCo'
  _symmetry_space_group_name_H-M    'P1'
  _symmetry_Int_Tables_number       1
  _symmetry_cell_setting            triclinic
  loop_
  _symmetry_equiv_pos_as_xyz
 x,y,z
_cell_length_a 51.8085
_cell_length_b 53.3329
_cell_length_c 49.2249
_cell_angle_alpha 94.048700
_cell_angle_beta 89.325700
_cell_angle_gamma 93.294100
loop_
  _atom_site_label
  _atom_site_type_symbol
  _atom_site_fract_x
  _atom_site_fract_y
  _atom_site_fract_z
C1 C 0.26792 0.46037 1.00622
 C2 C 0.24856 0.46177 1.03015
 C3 C 0.23540 0.48334 1.03263
 C4 C 0.24253 0.50146 1.01022
 C5 C 0.25162 0.46409 0.98128
 C6 C 0.23842 0.48552 0.98307
 C7 C 0.28502 0.48472 1.01042
 C8 C 0.27194 0.50609 1.01217
 H9 H 0.24474 0.44680 1.04344
 H10 H 0.23239 0.51925 1.01155
 H11 H 0.25045 0.45057 0.96379
 H12 H 0.30593 0.48502 1.01130
 C13 C 0.73320 0.53332 0.00741
 C14 C 0.74968 0.52876 0.03221
 C15 C 0.76457 0.50847 0.02866
 C16 C 0.76156 0.49447 0.00039
 C17 C 0.75318 0.53527 -0.01585
 C18 C 0.76802 0.51495 -0.01956
 C19 C 0.71783 0.50841 0.00071
 C20 C 0.73248 0.48817 -0.00292
 H21 H 0.75023 0.54121 0.05054
 H22 H 0.77325 0.47774 -0.00304
 H23 H 0.75699 0.55208 -0.02667
 H24 H 0.69693 0.50689 -0.00067
 C25 C 0.04462 0.22446 0.50571
 C26 C 0.04118 0.23721 0.48094
 C27 C 0.02080 0.25455 0.48224
 C28 C 0.00731 0.25528 0.50871
 C29 C 0.04803 0.24558 0.52834
 C30 C 0.02853 0.26182 0.53035
 C31 C 0.01782 0.21182 0.51094
 C32 C -0.00161 0.22784 0.51283
 H33 H 0.05353 0.23416 0.46337
 H34 H -0.00943 0.26717 0.51082
 H35 H 0.06505 0.24764 0.54100
 H36 H 0.01393 0.19164 0.51070
 C37 C 0.94818 0.77262 0.50349
 C38 C 0.94886 0.75016 0.48199
 C39 C 0.97003 0.73625 0.48367
 C40 C 0.98862 0.74592 0.50669
 C41 C 0.95067 0.76088 0.53073
 C42 C 0.97144 0.74651 0.53248
 C43 C 0.97403 0.78726 0.49951
 C44 C 0.99521 0.77355 0.50107
 H45 H 0.93494 0.74615 0.46590
 H46 H 1.00576 0.73455 0.50795
 H47 H 0.93619 0.76279 0.54666
 H48 H 0.97529 0.80696 0.49530
 C49 C 0.51065 0.05679 0.22215
 C50 C 0.48694 0.05664 0.24124
 C51 C 0.48417 0.03609 0.25621
 C52 C 0.50571 0.01754 0.25080
 C53 C 0.53334 0.05444 0.24149
 C54 C 0.53086 0.03390 0.25652
 C55 C 0.50833 0.03302 0.20606
 C56 C 0.50591 0.01112 0.22137
 H57 H 0.47420 0.07200 0.24381
 H58 H 0.50412 0.00131 0.26360
 H59 H 0.54892 0.06875 0.24453
 H60 H 0.50651 0.03237 0.18413
 C61 C 0.48847 -0.05684 0.76810
 C62 C 0.46537 -0.05586 0.74893
 C63 C 0.46682 -0.03584 0.73308
 C64 C 0.49153 -0.01870 0.73759
 C65 C 0.51193 -0.05649 0.74866
 C66 C 0.51363 -0.03659 0.73268
 C67 C 0.49012 -0.03114 0.78404
 C68 C 0.49172 -0.01125 0.76825
 H69 H 0.44960 -0.07005 0.74749
 H70 H 0.49275 -0.00242 0.72472
 H71 H 0.52540 -0.07130 0.74695
 H72 H 0.48987 -0.02894 0.80609
 C73 C 0.28715 0.00611 0.45886
 H74 H 0.28694 0.01938 0.47651
 C75 C 0.30635 0.00870 0.43900
 H76 H 0.32092 0.02401 0.44171
 C77 C 0.26925 -0.03089 0.43509
 H78 H 0.25529 -0.04675 0.43405
 C79 C 0.28800 -0.02890 0.41459
 H80 H 0.28768 -0.04289 0.39754
 N81 N 0.26907 -0.01340 0.45659
 C82 C 0.21076 0.01388 0.51418
 H83 H 0.21083 -0.00066 0.52843
 C84 C 0.19445 0.03369 0.51870
 H85 H 0.18258 0.03445 0.53694
 C86 C 0.22643 0.03027 0.47326
 H87 H 0.23855 0.02851 0.45528
 C88 C 0.20997 0.05018 0.47669
 H89 H 0.20960 0.06346 0.46109
 Zn90 Zn 0.24613 -0.01620 0.48654
 N91 N 0.22646 0.01260 0.49189
 C92 C 0.26876 -0.00270 0.53871
 N93 N 0.26704 -0.01994 0.51698
 C94 C 0.28164 -0.04037 0.51531
 C95 C 0.29858 -0.04432 0.53616
 C96 C 0.28543 -0.00597 0.56013
 C97 C 0.20782 -0.04652 0.45831
 C98 C 0.18852 -0.06576 0.45457
 C99 C 0.19847 -0.07951 0.49876
 C100 C 0.21807 -0.06039 0.50132
 N101 N 0.22228 -0.04430 0.48128
 H102 H 0.25754 0.01378 0.53933
 H103 H 0.28024 -0.05349 0.49753
 H104 H 0.31034 -0.06050 0.53415
 H105 H 0.28635 0.00778 0.57740
 H106 H 0.21110 -0.03310 0.44297
 H107 H 0.17769 -0.06732 0.43581
 H108 H 0.19476 -0.09124 0.51560
 H109 H 0.22917 -0.05778 0.51986
 C110 C 0.19350 0.05203 0.49961
 C111 C 0.30702 -0.00897 0.41646
 C112 C 0.18315 -0.08232 0.47521
 C113 C 0.30065 -0.02701 0.55899
 C114 C 0.70728 0.03262 0.53059
 H115 H 0.70817 0.04712 0.51633
 C116 C 0.68692 0.03152 0.54946
 H117 H 0.67254 0.04550 0.54978
 C118 C 0.72341 -0.00452 0.54588
 H119 H 0.73689 -0.01917 0.54396
 C120 C 0.70352 -0.00626 0.56506
 H121 H 0.70274 -0.02174 0.57820
 N122 N 0.72522 0.01488 0.52929
 C123 C 0.79990 0.04111 0.50486
 H124 H 0.80650 0.02258 0.49945
 C125 C 0.81815 0.06094 0.51024
 H126 H 0.83853 0.05735 0.50933
 C127 C 0.76573 0.06856 0.51182
 H128 H 0.74531 0.07149 0.51242
 C129 C 0.78349 0.08915 0.51695
 H130 H 0.77661 0.10776 0.52174
 Zn131 Zn 0.75111 0.01568 0.50150
 N132 N 0.77417 0.04494 0.50651
 C133 C 0.73770 0.03422 0.45110
 N134 N 0.73363 0.01533 0.46809
 C135 C 0.71518 -0.00349 0.46286
 C136 C 0.69943 -0.00349 0.44007
 C137 C 0.72230 0.03499 0.42808
 C138 C 0.78404 -0.01536 0.52607
 C139 C 0.80003 -0.03517 0.52841
 C140 C 0.78965 -0.04999 0.48211
 C141 C 0.77348 -0.02996 0.48078
 N142 N 0.77105 -0.01310 0.50261
 H143 H 0.75236 0.04909 0.45582
 H144 H 0.71230 -0.01818 0.47685
 H145 H 0.68473 -0.01858 0.43639
 H146 H 0.72518 0.05066 0.41532
 H147 H 0.78208 -0.00150 0.54301
 H148 H 0.80977 -0.03666 0.54751
 H149 H 0.79193 -0.06278 0.46428
 H150 H 0.76339 -0.02757 0.46212
 C151 C 0.81002 0.08522 0.51682
 C152 C 0.68479 0.01177 0.56691
 C153 C 0.80336 -0.05267 0.50614
 C154 C 0.70254 0.01619 0.42259
 C155 C 0.48441 0.22322 1.00700
 H156 H 0.46858 0.22197 0.99273
 C157 C 0.48292 0.20906 1.02977
 H158 H 0.46592 0.19675 1.03269
 C159 C 0.52625 0.24000 1.01959
 H160 H 0.54333 0.25164 1.01525
 C161 C 0.52553 0.22623 1.04274
 H162 H 0.54190 0.22796 1.05635
 N163 N 0.50571 0.23846 1.00245
 C164 C 0.47344 0.28929 0.94824
 H165 H 0.48542 0.28586 0.93036
 C166 C 0.45356 0.30580 0.94768
 H167 H 0.45012 0.31466 0.92905
 C168 C 0.46336 0.28144 0.99404
 H169 H 0.46760 0.27226 1.01223
 C170 C 0.44350 0.29810 0.99452
 H171 H 0.43276 0.30161 1.01326
 Zn172 Zn 0.50549 0.25574 0.97022
 N173 N 0.47774 0.27726 0.97105
 C174 C 0.47868 0.22705 0.92772
 N175 N 0.50152 0.23076 0.94117
 C176 C 0.52094 0.21488 0.93638
 C177 C 0.51780 0.19429 0.91736
 C178 C 0.47460 0.20652 0.90878
 C179 C 0.54188 0.29365 0.98738
 C180 C 0.56360 0.31018 0.98590
 C181 C 0.57256 0.29143 0.94088
 C182 C 0.55089 0.27486 0.94344
 N183 N 0.53615 0.27620 0.96653
 H184 H 0.46316 0.23935 0.93247
 H185 H 0.53862 0.21786 0.94794
 H186 H 0.53319 0.18144 0.91428
 H187 H 0.45613 0.20349 0.89865
 H188 H 0.52939 0.29478 1.00514
 H189 H 0.56781 0.32406 1.00262
 H190 H 0.58402 0.29042 0.92233
 H191 H 0.54552 0.26141 0.92675
 C192 C 0.43830 0.31053 0.97109
 C193 C 0.50363 0.21049 1.04808
 C194 C 0.57912 0.30925 0.96238
 C195 C 0.49422 0.18969 0.90367
 C196 C 0.48324 0.77927 -0.01449
 H197 H 0.46849 0.78149 0.00111
 C198 C 0.48403 0.79451 -0.03639
 H199 H 0.46989 0.80859 -0.03741
 C200 C 0.52025 0.75890 -0.03129
 H201 H 0.53465 0.74538 -0.02896
 C202 C 0.52180 0.77380 -0.05354
 H203 H 0.53711 0.77119 -0.06846
 N204 N 0.50103 0.76175 -0.01245
 C205 C 0.46106 0.70974 0.04067
 H206 H 0.47342 0.71125 0.05834
 C207 C 0.43982 0.69225 0.03921
 H208 H 0.43591 0.68030 0.05584
 C209 C 0.45230 0.72202 -0.00349
 H210 H 0.45769 0.73291 -0.02055
 C211 C 0.43110 0.70474 -0.00586
 H212 H 0.42010 0.70289 -0.02454
 Zn213 Zn 0.49887 0.74327 0.01899
 N214 N 0.46707 0.72391 0.01930
 C215 C 0.48237 0.77280 0.06635
 N216 N 0.50205 0.76769 0.04862
 C217 C 0.52410 0.78274 0.04846
 C218 C 0.52674 0.80439 0.06592
 C219 C 0.48414 0.79451 0.08416
 C220 C 0.52568 0.70270 -0.00255
 C221 C 0.54563 0.68622 -0.00556
 C222 C 0.56488 0.70618 0.03553
 C223 C 0.54456 0.72238 0.03768
 N224 N 0.52581 0.72071 0.01842
 H225 H 0.46473 0.76092 0.06560
 H226 H 0.53919 0.77852 0.03375
 H227 H 0.54424 0.81641 0.06495
 H228 H 0.46782 0.79912 0.09713
 H229 H 0.51028 0.70153 -0.01732
 H230 H 0.54530 0.67217 -0.02255
 H231 H 0.58003 0.70819 0.05061
 H232 H 0.54401 0.73643 0.05456
 C233 C 0.42505 0.68914 0.01536
 C234 C 0.50352 0.79190 -0.05627
 C235 C 0.56577 0.68805 0.01343
 C236 C 0.50625 0.81102 0.08340
 C237 C 1.03280 0.46078 0.22810
 H238 H 1.01950 0.44435 0.22679
 C239 C 1.05536 0.46107 0.21237
 H240 H 1.05953 0.44474 0.19904
 C241 C 1.04311 0.50246 0.24633
 H242 H 1.03795 0.51870 0.25919
 C243 C 1.06560 0.50378 0.23037
 H244 H 1.07792 0.52092 0.23130
 N245 N 1.02728 0.48113 0.24494
 C246 C 0.96977 0.44782 0.29971
 H247 H 0.95407 0.46007 0.29772
 C248 C 0.96742 0.42871 0.31777
 H249 H 0.94960 0.42606 0.32919
 C250 C 1.01235 0.43697 0.28786
 H251 H 1.03021 0.44080 0.27702
 C252 C 1.01084 0.41769 0.30566
 H253 H 1.02759 0.40684 0.30808
 Zn254 Zn 0.99515 0.47974 0.26363
 N255 N 0.99196 0.45155 0.28513
 C256 C 0.94878 0.46179 0.23452
 N257 N 0.96935 0.47886 0.23667
 C258 C 0.97230 0.49780 0.21962
 C259 C 0.95349 0.50108 0.20047
 C260 C 0.92937 0.46438 0.21549
 C261 C 1.00904 0.51403 0.30802
 C262 C 1.00599 0.53451 0.32694
 C263 C 0.96732 0.54366 0.30345
 C264 C 0.97111 0.52312 0.28503
 N265 N 0.99174 0.50881 0.28754
 H266 H 0.94701 0.44663 0.24798
 H267 H 0.98899 0.51093 0.22160
 H268 H 0.95602 0.51661 0.18747
 H269 H 0.91258 0.45129 0.21465
 H270 H 1.02501 0.50208 0.30985
 H271 H 1.01969 0.53818 0.34338
 H272 H 0.95083 0.55486 0.30098
 H273 H 0.95719 0.51838 0.26909
 C274 C 0.98823 0.41345 0.32109
 C275 C 1.07189 0.48284 0.21327
 C276 C 0.98476 0.54949 0.32488
 C277 C 0.93135 0.48465 0.19867
 C278 C -0.02403 0.50118 0.78581
 H279 H -0.01082 0.48616 0.78528
 C280 C -0.04561 0.50052 0.80304
 H281 H -0.04909 0.48464 0.81539
 C282 C -0.03538 0.54007 0.77019
 H283 H -0.03100 0.55574 0.75783
 C284 C -0.05715 0.54022 0.78722
 H285 H -0.06930 0.55609 0.78773
 N286 N -0.01940 0.52067 0.76972
 C287 C 0.03283 0.48708 0.70900
 H288 H 0.04977 0.49981 0.71159
 C289 C 0.03326 0.46622 0.69019
 H290 H 0.05064 0.46282 0.67839
 C291 C -0.01075 0.47635 0.72063
 H292 H -0.02801 0.48061 0.73216
 C293 C -0.01135 0.45563 0.70157
 H294 H -0.02896 0.44380 0.69887
 Zn295 Zn 0.01130 0.52074 0.74844
 N296 N 0.01119 0.49149 0.72412
 C297 C 0.05493 0.50247 0.77401
 N298 N 0.03907 0.52188 0.77335
 C299 C 0.04102 0.54179 0.79220
 C300 C 0.05956 0.54279 0.81269
 C301 C 0.07379 0.50274 0.79409
 C302 C -0.00570 0.54928 0.70815
 C303 C -0.00626 0.56917 0.69131
 C304 C 0.03286 0.58751 0.71257
 C305 C 0.03264 0.56719 0.72913
 N306 N 0.01329 0.54880 0.72687
 H307 H 0.05249 0.48633 0.75958
 H308 H 0.02780 0.55672 0.79158
 H309 H 0.06079 0.55880 0.82751
 H310 H 0.08579 0.48683 0.79466
 H311 H -0.02058 0.53418 0.70647
 H312 H -0.02157 0.56911 0.67652
 H313 H 0.04810 0.60224 0.71492
 H314 H 0.04786 0.56620 0.74376
 C315 C 0.01091 0.45034 0.68625
 C316 C -0.06246 0.52030 0.80405
 C317 C 0.01304 0.58878 0.69356
 C318 C 0.07615 0.52300 0.81392
 C319 C 0.10960 0.19445 0.48992
 C320 C 0.10688 0.17174 0.50326
 C321 C 0.08398 0.16743 0.51864
 C322 C 0.06479 0.18498 0.52024
 C323 C 0.06670 0.20645 0.50518
 C324 C 0.08996 0.21147 0.49106
 C325 C 0.08005 0.14547 0.53224
 C326 C 0.09774 0.12691 0.52980
 C327 C 0.12046 0.12977 0.51397
 C328 C 0.12582 0.15308 0.50170
 C329 C 0.14992 0.15690 0.48846
 C330 C 0.16786 0.13840 0.48671
 C331 C 0.16220 0.11502 0.49713
 C332 C 0.13820 0.11020 0.51041
 C333 C 0.13261 0.08568 0.51892
 C334 C 0.15043 0.06712 0.51520
 C335 C 0.17466 0.07219 0.50316
 C336 C 0.18033 0.09632 0.49409
 H337 H 0.12642 0.19942 0.47796
 H338 H 0.04815 0.18156 0.53324
 H339 H 0.09308 0.22862 0.48068
 H340 H 0.06279 0.14232 0.54448
 H341 H 0.09327 0.11063 0.54114
 H342 H 0.15575 0.17427 0.47963
 H343 H 0.18620 0.14228 0.47657
 H344 H 0.11425 0.07992 0.52769
 H345 H 0.14485 0.04848 0.52137
 H346 H 0.19892 0.10067 0.48468
 C347 C 0.68401 0.57655 0.04130
 C348 C 0.67704 0.59131 0.02007
 C349 C 0.68918 0.58688 -0.00565
 C350 C 0.70797 0.56891 -0.00946
 C351 C 0.71517 0.55485 0.01203
 C352 C 0.70239 0.55855 0.03718
 C353 C 0.68211 0.59998 -0.02767
 C354 C 0.66275 0.61696 -0.02501
 C355 C 0.64981 0.62186 0.00006
 C356 C 0.65778 0.60953 0.02321
 C357 C 0.64630 0.61590 0.04875
 C358 C 0.62690 0.63280 0.05145
 C359 C 0.61796 0.64395 0.02887
 C360 C 0.62921 0.63870 0.00282
 C361 C 0.61897 0.65021 -0.01946
 C362 C 0.59859 0.66616 -0.01586
 C363 C 0.58767 0.67132 0.00994
 C364 C 0.59761 0.66024 0.03226
 H365 H 0.67494 0.57770 0.06111
 H366 H 0.71621 0.56531 -0.02957
 H367 H 0.70606 0.54696 0.05374
 H368 H 0.69141 0.59681 -0.04736
 H369 H 0.65858 0.62618 -0.04309
 H370 H 0.65215 0.60839 0.06732
 H371 H 0.61861 0.63700 0.07147
 H372 H 0.62591 0.64701 -0.04004
 H373 H 0.59143 0.67467 -0.03343
 H374 H 0.58906 0.66384 0.05227
 C375 C 0.88513 -0.19721 0.48546
 C376 C 0.88688 -0.17432 0.50196
 C377 C 0.90819 -0.17020 0.51980
 C378 C 0.92673 -0.18820 0.52085
 C379 C 0.92561 -0.21019 0.50338
 C380 C 0.90417 -0.21474 0.48615
 C381 C 0.91131 -0.14789 0.53620
 C382 C 0.89442 -0.12888 0.53441
 C383 C 0.87333 -0.13160 0.51635
 C384 C 0.86866 -0.15518 0.50095
 C385 C 0.84595 -0.15876 0.48522
 C386 C 0.82877 -0.13977 0.48399
 C387 C 0.83390 -0.11620 0.49760
 C388 C 0.85652 -0.11163 0.51354
 C389 C 0.86174 -0.08699 0.52549
 C390 C 0.84468 -0.06812 0.52266
 C391 C 0.82169 -0.07297 0.50801
 C392 C 0.81656 -0.09711 0.49528
 H393 H 0.86971 -0.20186 0.47118
 H394 H 0.94289 -0.18462 0.53468
 H395 H 0.90181 -0.23166 0.47287
 H396 H 0.92735 -0.14485 0.55023
 H397 H 0.89815 -0.11235 0.54797
 H398 H 0.84057 -0.17631 0.47399
 H399 H 0.81147 -0.14347 0.47185
 H400 H 0.87921 -0.08143 0.53653
 H401 H 0.84979 -0.04944 0.53177
 H402 H 0.79894 -0.10117 0.48376
 C403 C 0.29852 0.39706 1.01470
 C404 C 0.31865 0.39749 0.99500
 C405 C 0.32079 0.41822 0.97850
 C406 C 0.30340 0.43741 0.98167
 C407 C 0.28422 0.43740 1.00207
 C408 C 0.28175 0.41667 1.01820
 C409 C 0.34065 0.42009 0.95929
 C410 C 0.35934 0.40245 0.95694
 C411 C 0.35860 0.38182 0.97345
 C412 C 0.33713 0.37852 0.99168
 C413 C 0.33489 0.35640 1.00589
 C414 C 0.35354 0.33867 1.00334
 C415 C 0.37550 0.34254 0.98718
 C416 C 0.37851 0.36427 0.97219
 C417 C 0.40174 0.36789 0.95720
 C418 C 0.42087 0.35050 0.95689
 C419 C 0.41757 0.32875 0.97125
 C420 C 0.39464 0.32487 0.98622
 H421 H 0.29570 0.38227 1.02843
 H422 H 0.30540 0.45312 0.96881
 H423 H 0.26717 0.41526 1.03389
 H424 H 0.34213 0.43572 0.94632
 H425 H 0.37397 0.40529 0.94157
 H426 H 0.31863 0.35197 1.01887
 H427 H 0.35099 0.32196 1.01465
 H428 H 0.40619 0.38440 0.94624
 H429 H 0.43863 0.35450 0.94580
 H430 H 0.39165 0.30806 0.99728
 C431 C 0.92706 0.21290 0.50062
 C432 C 0.92132 0.19376 0.51878
 C433 C 0.94093 0.18871 0.53719
 C434 C 0.96546 0.20110 0.53611
 C435 C 0.97127 0.21859 0.51677
 C436 C 0.95171 0.22508 0.49971
 C437 C 0.93639 0.17065 0.55600
 C438 C 0.91343 0.15602 0.55581
 C439 C 0.89406 0.15870 0.53646
 C440 C 0.89744 0.17872 0.51857
 C441 C 0.87721 0.18239 0.50053
 C442 C 0.85525 0.16610 0.49868
 C443 C 0.85264 0.14535 0.51443
 C444 C 0.87180 0.14155 0.53387
 C445 C 0.86855 0.11989 0.54891
 C446 C 0.84792 0.10235 0.54391
 C447 C 0.82956 0.10581 0.52415
 C448 C 0.83149 0.12776 0.51005
 H449 H 0.91329 0.21827 0.48619
 H450 H 0.98051 0.19640 0.54971
 H451 H 0.95586 0.23867 0.48466
 H452 H 0.95107 0.16727 0.57062
 H453 H 0.91165 0.14249 0.57104
 H454 H 0.87791 0.19757 0.48719
 H455 H 0.84052 0.16934 0.48406
 H456 H 0.88210 0.11527 0.56393
 H457 H 0.84661 0.08556 0.55515
 H458 H 0.81734 0.13040 0.49459
 C459 C 0.29515 0.57237 0.03627
 C460 C 0.31622 0.57711 0.01829
 C461 C 0.32036 0.55873 -0.00334
 C462 C 0.30536 0.53601 -0.00544
 C463 C 0.28559 0.53116 0.01333
 C464 C 0.28001 0.54971 0.03366
 C465 C 0.33981 0.56279 -0.02254
 C466 C 0.35564 0.58465 -0.02073
 C467 C 0.35306 0.60323 0.00087
 C468 C 0.33343 0.59916 0.02108
 C469 C 0.33237 0.61671 0.04388
 C470 C 0.35001 0.63737 0.04701
 C471 C 0.36890 0.64184 0.02723
 C472 C 0.37015 0.62528 0.00345
 C473 C 0.38864 0.63146 -0.01676
 C474 C 0.40588 0.65236 -0.01284
 C475 C 0.40540 0.66795 0.01122
 C476 C 0.38671 0.66272 0.03115
 H477 H 0.28985 0.58577 0.05250
 H478 H 0.30925 0.52181 -0.02163
 H479 H 0.26449 0.54632 0.04812
 H480 H 0.34297 0.54879 -0.03913
 H481 H 0.37046 0.58588 -0.03616
 H482 H 0.31864 0.61452 0.06026
 H483 H 0.34883 0.65000 0.06518
 H484 H 0.39020 0.62073 -0.03601
 H485 H 0.42012 0.65605 -0.02858
 H486 H 0.38596 0.67499 0.04963
 C487 C 0.06683 -0.20820 0.50782
 C488 C 0.07026 -0.18904 0.48927
 C489 C 0.04880 -0.18433 0.47316
 C490 C 0.02509 -0.19782 0.47600
 C491 C 0.02154 -0.21551 0.49562
 C492 C 0.04276 -0.22114 0.51094
 C493 C 0.05074 -0.16560 0.45479
 C494 C 0.07297 -0.15005 0.45334
 C495 C 0.09439 -0.15290 0.47003
 C496 C 0.09374 -0.17375 0.48686
 C497 C 0.11648 -0.17836 0.50078
 C498 C 0.13864 -0.16245 0.49936
 C499 C 0.13873 -0.14081 0.48493
 C500 C 0.11648 -0.13558 0.47035
 C501 C 0.11679 -0.11259 0.45767
 C502 C 0.13835 -0.09573 0.45918
 C503 C 0.16070 -0.10118 0.47292
 C504 C 0.16075 -0.12405 0.48552
 H505 H 0.08200 -0.21284 0.52105
 H506 H 0.00898 -0.19390 0.46339
 H507 H 0.04049 -0.23477 0.52620
 H508 H 0.03457 -0.16239 0.44193
 H509 H 0.07291 -0.13607 0.43857
 H510 H 0.11785 -0.19441 0.51270
 H511 H 0.15565 -0.16672 0.51039
 H512 H 0.10020 -0.10645 0.44751
 H513 H 0.13704 -0.07792 0.45018
 H514 H 0.17781 -0.12875 0.49617
 C515 C 0.71077 0.42051 1.00537
 C516 C 0.69184 0.41582 0.98477
 C517 C 0.68936 0.43456 0.96606
 C518 C 0.70351 0.45777 0.96958
 C519 C 0.72076 0.46260 0.99119
 C520 C 0.72495 0.44360 1.00845
 C521 C 0.67218 0.43044 0.94444
 C522 C 0.65660 0.40841 0.94137
 C523 C 0.65703 0.38981 0.96038
 C524 C 0.67483 0.39365 0.98256
 C525 C 0.67404 0.37591 1.00258
 C526 C 0.65588 0.35571 1.00165
 C527 C 0.63828 0.35189 0.98038
 C528 C 0.63928 0.36819 0.95879
 C529 C 0.62193 0.36243 0.93688
 C530 C 0.60319 0.34259 0.93757
 C531 C 0.60113 0.32788 0.95998
 C532 C 0.61916 0.33218 0.98098
 H533 H 0.71492 0.40688 1.01961
 H534 H 0.70064 0.47242 0.95589
 H535 H 0.73833 0.44703 1.02519
 H536 H 0.67046 0.44460 0.92991
 H537 H 0.64350 0.40710 0.92445
 H538 H 0.68648 0.37771 1.02007
 H539 H 0.65539 0.34312 1.01804
 H540 H 0.62217 0.37294 0.91898
 H541 H 0.58960 0.33934 0.92096
 H542 H 0.61794 0.32041 0.99809
 C543 C 0.54054 0.10351 1.17337
 C544 C 0.51891 0.11581 1.16467
 C545 C 0.49457 0.10934 1.17648
 C546 C 0.49209 0.09085 1.19540
 C547 C 0.51371 0.07884 1.20396
 C548 C 0.53786 0.08527 1.19238
 C549 C 0.47256 0.12088 1.16893
 C550 C 0.47396 0.13862 1.14965
 C551 C 0.49756 0.14541 1.13672
 C552 C 0.52041 0.13373 1.14423
 C553 C 0.54380 0.13984 1.13054
 C554 C 0.54478 0.15621 1.10981
 C555 C 0.52271 0.16761 1.10216
 C556 C 0.49890 0.16292 1.11592
 C557 C 0.47736 0.17580 1.10798
 C558 C 0.47918 0.19153 1.08650
 C559 C 0.50244 0.19514 1.07216
 C560 C 0.52428 0.18344 1.08049
 H561 H 0.55982 0.10722 1.16570
 H562 H 0.47295 0.08530 1.20258
 H563 H 0.55482 0.07568 1.19750
 H564 H 0.45390 0.11600 1.17793
 H565 H 0.45589 0.14620 1.14485
 H566 H 0.56177 0.13185 1.13493
 H567 H 0.56309 0.15990 1.09952
 H568 H 0.45878 0.17428 1.11792
 H569 H 0.46219 0.20095 1.08109
 H570 H 0.54242 0.18602 1.06956
 C571 C -0.04568 0.70211 0.58755
 C572 C -0.02130 0.69485 0.59579
 C573 C 0.00098 0.70531 0.58278
 C574 C -0.00134 0.72266 0.56276
 C575 C -0.02572 0.72959 0.55490
 C576 C -0.04776 0.71902 0.56750
 C577 C 0.02543 0.69811 0.58952
 C578 C 0.02830 0.68019 0.60831
 C579 C 0.00672 0.66896 0.62158
 C580 C -0.01840 0.67709 0.61588
 C581 C -0.03984 0.66721 0.63047
 C582 C -0.03716 0.64905 0.64886
 C583 C -0.01310 0.63991 0.65353
 C584 C 0.00931 0.64981 0.64028
 C585 C 0.03321 0.63967 0.64601
 C586 C 0.03451 0.62031 0.66365
 C587 C 0.01214 0.61037 0.67615
 C588 C -0.01151 0.62063 0.67129
 H589 H -0.06370 0.69453 0.59550
 H590 H 0.01590 0.73065 0.55325
 H591 H -0.06694 0.72313 0.56130
 H592 H 0.04257 0.70611 0.57980
 H593 H 0.04786 0.67563 0.61210
 H594 H -0.05914 0.67325 0.62837
 H595 H -0.05427 0.64184 0.65930
 H596 H 0.05120 0.64584 0.63678
 H597 H 0.05302 0.61260 0.66691
 H598 H -0.02888 0.61343 0.68129
 C599 C 0.46204 0.89368 -0.18427
 C600 C 0.48478 0.88477 -0.17361
 C601 C 0.50880 0.89552 -0.18244
 C602 C 0.50977 0.91388 -0.20157
 C603 C 0.48708 0.92185 -0.21278
 C604 C 0.46325 0.91201 -0.20320
 C605 C 0.53183 0.88825 -0.17186
 C606 C 0.53165 0.87081 -0.15224
 C607 C 0.50828 0.85966 -0.14248
 C608 C 0.48448 0.86625 -0.15389
 C609 C 0.46120 0.85409 -0.14524
 C610 C 0.46096 0.83694 -0.12533
 C611 C 0.48381 0.83115 -0.11317
 C612 C 0.50786 0.84221 -0.12163
 C613 C 0.53042 0.83559 -0.10844
 C614 C 0.52896 0.81903 -0.08768
 C615 C 0.50509 0.80847 -0.07927
 C616 C 0.48262 0.81444 -0.09235
 H617 H 0.44293 0.88751 -0.17785
 H618 H 0.52836 0.92241 -0.20722
 H619 H 0.44525 0.91890 -0.20965
 H620 H 0.55027 0.89634 -0.17863
 H621 H 0.55035 0.86638 -0.14525
 H622 H 0.44267 0.85724 -0.15364
 H623 H 0.44256 0.82827 -0.11920
 H624 H 0.54950 0.84318 -0.11323
 H625 H 0.54660 0.81499 -0.07766
 H626 H 0.46407 0.80607 -0.08625
 C627 C 1.02085 0.27933 0.41277
 C628 C 1.00706 0.30140 0.41701
 C629 C 0.99666 0.30680 0.44335
 C630 C 1.00050 0.29098 0.46446
 C631 C 1.01522 0.26958 0.46043
 C632 C 1.02482 0.26392 0.43393
 C633 C 0.98282 0.32827 0.44879
 C634 C 0.97966 0.34501 0.42891
 C635 C 0.99025 0.34096 0.40251
 C636 C 1.00364 0.31847 0.39625
 C637 C 1.01346 0.31397 0.36956
 C638 C 1.01114 0.33115 0.34996
 C639 C 0.99909 0.35357 0.35602
 C640 C 0.98821 0.35878 0.38225
 C641 C 0.97626 0.38194 0.38718
 C642 C 0.97579 0.39923 0.36718
 C643 C 0.98704 0.39415 0.34153
 C644 C 0.99829 0.37103 0.33600
 H645 H 1.02912 0.27340 0.39338
 H646 H 0.99276 0.29650 0.48423
 H647 H 1.03512 0.24718 0.42883
 H648 H 0.97458 0.33242 0.46885
 H649 H 0.96879 0.36108 0.43504
 H650 H 1.02325 0.29731 0.36304
 H651 H 1.01928 0.32697 0.32986
 H652 H 0.96757 0.38764 0.40644
 H653 H 0.96724 0.41705 0.37219
 H654 H 1.00673 0.36670 0.31608
 C655 C 0.49411 0.94098 0.20950
 C656 C 0.50242 0.93654 0.18216
 C657 C 0.51228 0.95761 0.16858
 C658 C 0.51342 0.98181 0.18172
 C659 C 0.50478 0.98625 0.20876
 C660 C 0.49537 0.96526 0.22248
 C661 C 0.52118 0.95461 0.14183
 C662 C 0.52036 0.93112 0.12792
 C663 C 0.51046 0.90941 0.14021
 C664 C 0.50141 0.91209 0.16783
 C665 C 0.49168 0.89027 0.18009
 C666 C 0.49081 0.86670 0.16598
 C667 C 0.49950 0.86380 0.13908
 C668 C 0.50940 0.88511 0.12577
 C669 C 0.51777 0.88118 0.09840
 C670 C 0.51664 0.85725 0.08512
 C671 C 0.50717 0.83622 0.09838
 C672 C 0.49837 0.83965 0.12537
 H673 H 0.48635 0.92615 0.22150
 H674 H 0.52211 0.99703 0.17071
 H675 H 0.48798 0.96725 0.24306
 H676 H 0.52889 0.97068 0.13140
 H677 H 0.52777 0.93079 0.10741
 H678 H 0.48450 0.89072 0.20072
 H679 H 0.48320 0.85053 0.17629
 H680 H 0.52521 0.89611 0.08641
 H681 H 0.52292 0.85529 0.06404
 H682 H 0.49097 0.82347 0.13581
 C683 C 0.04243 0.30382 0.59496
 C684 C 0.02841 0.32524 0.59098
 C685 C 0.01322 0.32475 0.56720
 C686 C 0.01355 0.30432 0.54754
 C687 C 0.02809 0.28346 0.55136
 C688 C 0.04208 0.28336 0.57562
 C689 C -0.00227 0.34467 0.56308
 C690 C -0.00347 0.36490 0.58235
 C691 C 0.01156 0.36646 0.60622
 C692 C 0.02865 0.34686 0.60996
 C693 C 0.04592 0.34987 0.63208
 C694 C 0.04610 0.37097 0.65031
 C695 C 0.02857 0.38953 0.64782
 C696 C 0.01059 0.38729 0.62613
 C697 C -0.00786 0.40586 0.62558
 C698 C -0.00785 0.42605 0.64527
 C699 C 0.01068 0.42862 0.66585
 C700 C 0.02884 0.41032 0.66703
 H701 H 0.05327 0.30196 0.61318
 H702 H 0.00255 0.30504 0.52918
 H703 H 0.05264 0.26726 0.58010
 H704 H -0.01387 0.34449 0.54487
 H705 H -0.01577 0.37954 0.57747
 H706 H 0.06026 0.33656 0.63535
 H707 H 0.05995 0.37262 0.66677
 H708 H -0.02295 0.40501 0.61061
 H709 H -0.02222 0.43993 0.64423
 H710 H 0.04290 0.41206 0.68331
 C711 C 0.51377 0.05684 0.78434
 C712 C 0.49664 0.06441 0.80564
 C713 C 0.47650 0.04684 0.81270
 C714 C 0.47485 0.02236 0.80016
 C715 C 0.49263 0.01499 0.77998
 C716 C 0.51168 0.03251 0.77176
 C717 C 0.45829 0.05360 0.83251
 C718 C 0.45966 0.07741 0.84585
 C719 C 0.47981 0.09537 0.84035
 C720 C 0.49891 0.08858 0.82030
 C721 C 0.52013 0.10580 0.81633
 C722 C 0.52284 0.12869 0.83158
 C723 C 0.50425 0.13570 0.85089
 C724 C 0.48204 0.11954 0.85499
 C725 C 0.46310 0.12824 0.87381
 C726 C 0.46685 0.15126 0.88890
 C727 C 0.48949 0.16643 0.88579
 C728 C 0.50794 0.15872 0.86644
 H729 H 0.52895 0.06922 0.77683
 H730 H 0.45972 0.00890 0.80616
 H731 H 0.52556 0.02717 0.75618
 H732 H 0.44281 0.04025 0.83790
 H733 H 0.44504 0.08081 0.86117
 H734 H 0.53561 0.10179 0.80218
 H735 H 0.53979 0.14102 0.82827
 H736 H 0.44511 0.11780 0.87735
 H737 H 0.45225 0.15691 0.90367
 H738 H 0.52528 0.17066 0.86359
 C739 C 1.00505 0.68895 0.43805
 C740 C 0.98472 0.67181 0.42840
 C741 C 0.95928 0.67656 0.43756
 C742 C 0.95463 0.69756 0.45540
 C743 C 0.97499 0.71425 0.46466
 C744 C 1.00017 0.70973 0.45586
 C745 C 0.93851 0.66035 0.42894
 C746 C 0.94223 0.63944 0.41126
 C747 C 0.96708 0.63380 0.40135
 C748 C 0.98871 0.65026 0.41004
 C749 C 1.01353 0.64468 0.39999
 C750 C 1.01718 0.62395 0.38197
 C751 C 0.99637 0.60781 0.37323
 C752 C 0.97102 0.61234 0.38286
 C753 C 0.95066 0.59518 0.37342
 C754 C 0.95531 0.57487 0.35495
 C755 C 0.98031 0.57076 0.34519
 C756 C 1.00081 0.58721 0.35467
 H757 H 1.02496 0.68699 0.43226
 H758 H 0.93509 0.70071 0.46244
 H759 H 1.01622 0.72255 0.46240
 H760 H 0.91903 0.66389 0.43591
 H761 H 0.92500 0.62812 0.40568
 H762 H 1.03074 0.65606 0.40553
 H763 H 1.03661 0.62056 0.37472
 H764 H 0.93086 0.59677 0.37981
 H765 H 0.93917 0.56215 0.34840
 H766 H 1.02023 0.58429 0.34712
 C767 C 1.17746 0.50832 0.07204
 C768 C 1.17799 0.49592 0.09651
 C769 C 1.19839 0.47983 0.09978
 C770 C 1.21747 0.47677 0.07955
 C771 C 1.21622 0.48847 0.05494
 C772 C 1.19617 0.50454 0.05169
 C773 C 1.19948 0.46646 0.12303
 C774 C 1.17999 0.46760 0.14257
 C775 C 1.15885 0.48277 0.13994
 C776 C 1.15866 0.49833 0.11743
 C777 C 1.13924 0.51578 0.11667
 C778 C 1.11993 0.51714 0.13648
 C779 C 1.11869 0.50067 0.15730
 C780 C 1.13795 0.48302 0.15919
 C781 C 1.13491 0.46567 0.17968
 C782 C 1.11368 0.46596 0.19738
 C783 C 1.09511 0.48376 0.19566
 C784 C 1.09787 0.50131 0.17585
 H785 H 1.16229 0.52035 0.06751
 H786 H 1.23323 0.46496 0.08311
 H787 H 1.19433 0.51387 0.03313
 H788 H 1.21527 0.45444 0.12586
 H789 H 1.18232 0.45669 0.15989
 H790 H 1.13870 0.52907 0.10122
 H791 H 1.10541 0.53083 0.13506
 H792 H 1.14801 0.45098 0.18187
 H793 H 1.11160 0.45206 0.21240
 H794 H 1.08316 0.51478 0.17419
 C795 C 0.56217 -0.05211 0.67658
 C796 C 0.57205 -0.02801 0.66977
 C797 C 0.56219 -0.00672 0.68438
 C798 C 0.54307 -0.00967 0.70455
 C799 C 0.53367 -0.03364 0.71114
 C800 C 0.54337 -0.05477 0.69685
 C801 C 0.57152 0.01746 0.67896
 C802 C 0.59084 0.02113 0.65964
 C803 C 0.60152 0.00063 0.64462
 C804 C 0.59149 -0.02432 0.64929
 C805 C 0.60116 -0.04475 0.63324
 C806 C 0.62041 -0.04112 0.61390
 C807 C 0.63105 -0.01709 0.60984
 C808 C 0.62184 0.00421 0.62503
 C809 C 0.63370 0.02812 0.62013
 C810 C 0.65381 0.03056 0.60115
 C811 C 0.66283 0.00937 0.58640
 C812 C 0.65108 -0.01436 0.59068
 H813 H 0.56866 -0.06937 0.66690
 H814 H 0.53590 0.00685 0.71543
 H815 H 0.53616 -0.07358 0.70103
 H816 H 0.56394 0.03381 0.68997
 H817 H 0.59682 0.04044 0.65683
 H818 H 0.59411 -0.06396 0.63490
 H819 H 0.62725 -0.05743 0.60216
 H820 H 0.62830 0.04531 0.63092
 H821 H 0.66273 0.04910 0.59846
 H822 H 0.65754 -0.03087 0.57901
 C823 C -0.16618 0.50253 0.94994
 C824 C -0.16733 0.51241 0.92402
 C825 C -0.19076 0.52273 0.91690
 C826 C -0.21171 0.52353 0.93530
 C827 C -0.21004 0.51387 0.96091
 C828 C -0.18717 0.50329 0.96795
 C829 C -0.19324 0.53223 0.89147
 C830 C -0.17302 0.53172 0.87272
 C831 C -0.14919 0.52184 0.87875
 C832 C -0.14617 0.51236 0.90499
 C833 C -0.12200 0.50344 0.91145
 C834 C -0.10156 0.50355 0.89300
 C835 C -0.10430 0.51229 0.86725
 C836 C -0.12814 0.52139 0.85956
 C837 C -0.12983 0.52961 0.83290
 C838 C -0.10867 0.52912 0.81505
 C839 C -0.08508 0.52044 0.82297
 C840 C -0.08313 0.51201 0.84916
 H841 H -0.14943 0.49398 0.95702
 H842 H -0.22950 0.53143 0.92953
 H843 H -0.18525 0.49595 0.98774
 H844 H -0.21109 0.54015 0.88593
 H845 H -0.17666 0.53960 0.85370
 H846 H -0.11800 0.49647 0.93086
 H847 H -0.08335 0.49662 0.89900
 H848 H -0.14725 0.53631 0.82500
 H849 H -0.11092 0.53530 0.79477
 H850 H -0.06490 0.50554 0.85572
 C851 C 0.43420 0.05202 0.31050
 C852 C 0.42183 0.02827 0.31481
 C853 C 0.43173 0.00677 0.30063
 C854 C 0.45219 0.00936 0.28180
 C855 C 0.46342 0.03316 0.27697
 C856 C 0.45456 0.05433 0.29193
 C857 C 0.42106 -0.01718 0.30514
 C858 C 0.40087 -0.02039 0.32364
 C859 C 0.39006 0.00041 0.33802
 C860 C 0.40021 0.02517 0.33286
 C861 C 0.38804 0.04605 0.34542
 C862 C 0.36724 0.04297 0.36307
 C863 C 0.35790 0.01903 0.36931
 C864 C 0.36918 -0.00265 0.35709
 C865 C 0.35923 -0.02643 0.36481
 C866 C 0.33901 -0.02842 0.38372
 C867 C 0.32786 -0.00689 0.39554
 C868 C 0.33733 0.01677 0.38794
 H869 H 0.42897 0.06921 0.32144
 H870 H 0.45893 -0.00717 0.27047
 H871 H 0.46354 0.07288 0.28952
 H872 H 0.42849 -0.03370 0.29434
 H873 H 0.39375 -0.03953 0.32574
 H874 H 0.39374 0.06521 0.34156
 H875 H 0.35852 0.05959 0.37216
 H876 H 0.36703 -0.04387 0.35719
 H877 H 0.33253 -0.04694 0.38960
 H878 H 0.32868 0.03359 0.39659
 C879 C 0.21453 0.49243 0.91175
 C880 C 0.19015 0.50274 0.91642
 C881 C 0.18272 0.50867 0.94386
 C882 C 0.19883 0.50378 0.96545
 C883 C 0.22237 0.49265 0.96038
 C884 C 0.23020 0.48746 0.93335
 C885 C 0.15901 0.51899 0.94969
 C886 C 0.14205 0.52298 0.92900
 C887 C 0.14810 0.51674 0.90137
 C888 C 0.17277 0.50687 0.89494
 C889 C 0.17904 0.50107 0.86729
 C890 C 0.16166 0.50396 0.84670
 C891 C 0.13731 0.51279 0.85263
 C892 C 0.13020 0.51965 0.87995
 C893 C 0.10521 0.52870 0.88462
 C894 C 0.08805 0.53021 0.86319
 C895 C 0.09506 0.52284 0.83637
 C896 C 0.11990 0.51446 0.83126
 H897 H 0.22207 0.48762 0.89171
 H898 H 0.19252 0.50778 0.98624
 H899 H 0.24862 0.47940 0.92879
 H900 H 0.15330 0.52376 0.97060
 H901 H 0.12414 0.53085 0.93548
 H902 H 0.19728 0.49396 0.86071
 H903 H 0.16728 0.49892 0.82582
 H904 H 0.09807 0.53442 0.90459
 H905 H 0.06890 0.53655 0.86778
 H906 H 0.12567 0.50909 0.81051
 C907 C 0.55837 0.01603 0.32291
 C908 C 0.58528 0.02159 0.31961
 C909 C 0.59386 0.03073 0.29449
 C910 C 0.57612 0.03441 0.27397
 C911 C 0.54959 0.02912 0.27781
 C912 C 0.54095 0.01977 0.30235
 C913 C 0.62008 0.03635 0.28995
 C914 C 0.63816 0.03343 0.30990
 C915 C 0.63073 0.02477 0.33546
 C916 C 0.60384 0.01863 0.34035
 C917 C 0.59639 0.00998 0.36590
 C918 C 0.61436 0.00769 0.38610
 C919 C 0.64052 0.01379 0.38178
 C920 C 0.64923 0.02226 0.35641
 C921 C 0.67612 0.02805 0.35329
 C922 C 0.69330 0.02584 0.37455
 C923 C 0.68445 0.01773 0.39962
 C924 C 0.65798 0.01164 0.40297
 H925 H 0.54998 0.00897 0.34116
 H926 H 0.58303 0.04136 0.25486
 H927 H 0.52052 0.01590 0.30605
 H928 H 0.62675 0.04324 0.27074
 H929 H 0.65792 0.03834 0.30459
 H930 H 0.57666 0.00489 0.37117
 H931 H 0.60763 0.00113 0.40545
 H932 H 0.68462 0.03440 0.33475
 H933 H 0.71370 0.03037 0.37126
 H934 H 0.65078 0.00573 0.42242
 C935 C 0.80827 0.47128 0.07015
 C936 C 0.82090 0.49024 0.08767
 C937 C 0.81432 0.51542 0.08525
 C938 C 0.79605 0.52113 0.06616
 C939 C 0.78365 0.50214 0.04907
 C940 C 0.79007 0.47722 0.05122
 C941 C 0.82608 0.53496 0.10176
 C942 C 0.84438 0.53024 0.12075
 C943 C 0.85181 0.50557 0.12407
 C944 C 0.83988 0.48521 0.10727
 C945 C 0.84747 0.46057 0.11053
 C946 C 0.86623 0.45596 0.12921
 C947 C 0.87816 0.47558 0.14555
 C948 C 0.87100 0.50066 0.14342
 C949 C 0.88352 0.51981 0.16073
 C950 C 0.90268 0.51434 0.17864
 C951 C 0.91011 0.48967 0.18019
 C952 C 0.89746 0.47027 0.16386
 H953 H 0.81194 0.45164 0.07046
 H954 H 0.79194 0.54062 0.06428
 H955 H 0.78085 0.46207 0.03843
 H956 H 0.82111 0.55425 0.09996
 H957 H 0.85245 0.54658 0.13241
 H958 H 0.83938 0.44428 0.09878
 H959 H 0.87153 0.43675 0.13079
 H960 H 0.87913 0.53930 0.16106
 H961 H 0.91171 0.52960 0.19152
 H962 H 0.90310 0.45110 0.16493
 C963 C 0.42245 -0.00300 0.68823
 C964 C 0.40879 -0.02338 0.67367
 C965 C 0.41448 -0.04809 0.67964
 C966 C 0.43347 -0.05198 0.69873
 C967 C 0.44690 -0.03160 0.71278
 C968 C 0.44113 -0.00713 0.70740
 C969 C 0.40126 -0.06889 0.66652
 C970 C 0.38219 -0.06587 0.64772
 C971 C 0.37573 -0.04174 0.64090
 C972 C 0.38969 -0.02015 0.65359
 C973 C 0.38442 0.00388 0.64540
 C974 C 0.36612 0.00679 0.62567
 C975 C 0.35196 -0.01398 0.61360
 C976 C 0.35618 -0.03852 0.62133
 C977 C 0.34056 -0.05880 0.60912
 C978 C 0.32241 -0.05490 0.58937
 C979 C 0.31904 -0.03073 0.58108
 C980 C 0.33371 -0.01030 0.59359
 H981 H 0.41892 0.01639 0.68568
 H982 H 0.43797 -0.07104 0.70238
 H983 H 0.45074 0.00899 0.71842
 H984 H 0.40564 -0.08782 0.67093
 H985 H 0.37323 -0.08302 0.63841
 H986 H 0.39454 0.02094 0.65344
 H987 H 0.36299 0.02560 0.61982
 H988 H 0.34158 -0.07793 0.61451
 H989 H 0.31083 -0.07095 0.58063
 H990 H 0.33136 0.00851 0.58730
   
