data_POSCAR
  _audit_creation_date              2014-09-24
  _audit_creation_method            'ToBaCCo'
  _symmetry_space_group_name_H-M    'P1'
  _symmetry_Int_Tables_number       1
  _symmetry_cell_setting            triclinic
  loop_
  _symmetry_equiv_pos_as_xyz
 x,y,z
_cell_length_a 19.0977
_cell_length_b 19.0027
_cell_length_c 19.0498
_cell_angle_alpha 85.524500
_cell_angle_beta 110.620800
_cell_angle_gamma 90.774900
loop_
  _atom_site_label
  _atom_site_type_symbol
  _atom_site_fract_x
  _atom_site_fract_y
  _atom_site_fract_z
O1 O 0.60239 0.48836 0.03329
 O2 O 0.41137 0.51762 0.02849
 O3 O 0.49586 0.40528 0.04357
 O4 O 0.51906 0.59715 0.02152
 O5 O 0.46708 0.59500 -0.10200
 O6 O 0.45956 0.40127 -0.07971
 O7 O 0.36786 0.50269 -0.09302
 O8 O 0.55948 0.49246 -0.09105
 Cu9 Cu 0.51145 0.50187 0.04443
 Cu10 Cu 0.45937 0.49746 -0.10405
 C11 C 0.61333 0.48800 -0.02857
 C12 C 0.35683 0.51421 -0.03302
 C13 C 0.47399 0.37055 -0.01444
 C14 C 0.49610 0.62875 -0.04386
 O15 O -0.08996 0.57538 0.45468
 O16 O -0.04248 0.38592 0.47047
 O17 O -0.05371 0.47788 0.55906
 O18 O -0.08213 0.48516 0.35882
 O19 O 0.03898 0.50276 0.38556
 O20 O 0.06433 0.50823 0.58453
 O21 O 0.07761 0.41046 0.50081
 O22 O 0.02751 0.59954 0.46904
 Cu23 Cu -0.07943 0.47795 0.45694
 Cu24 Cu 0.06423 0.50759 0.48734
 C25 C -0.03831 0.61982 0.46072
 C26 C 0.02547 0.36605 0.49036
 C27 C 0.00894 0.49512 0.60530
 C28 C -0.02602 0.49440 0.33850
 O29 O 0.54597 0.04485 0.59222
 O30 O 0.50172 0.07152 0.38653
 O31 O 0.42571 0.08064 0.48017
 O32 O 0.62052 0.03525 0.50270
 O33 O 0.59113 -0.07709 0.49065
 O34 O 0.39536 -0.03134 0.46636
 O35 O 0.47086 -0.04049 0.37518
 O36 O 0.51225 -0.06604 0.58039
 Cu37 Cu 0.52608 0.06936 0.49057
 Cu38 Cu 0.48971 -0.06488 0.47663
 C39 C 0.53484 -0.01468 0.62155
 C40 C 0.48036 0.01967 0.34612
 C41 C 0.37834 0.03157 0.47305
 C42 C 0.63911 -0.02831 0.50078
 C43 C 0.50444 -0.01457 -0.09057
 C44 C 0.49825 -0.07055 -0.03966
 C45 C 0.48654 -0.05565 0.02656
 C46 C 0.47921 0.01389 0.04300
 C47 C 0.48035 0.06951 -0.01009
 C48 C 0.49189 0.05459 -0.07623
 H49 H 0.49309 0.09796 -0.11634
 H50 H 0.48392 -0.09884 0.06626
 C51 C -0.02343 0.49585 1.03963
 C52 C -0.08580 0.49417 0.97276
 C53 C -0.07545 0.50049 0.90373
 C54 C -0.00385 0.50812 0.90023
 C55 C 0.05907 0.50890 0.96748
 C56 C 0.04842 0.50104 1.03662
 H57 H 0.09628 0.50097 1.08854
 H58 H -0.12358 0.49918 0.85218
 C59 C 0.08809 0.01633 0.49932
 C60 C 0.03692 0.06426 0.51028
 C61 C -0.03276 0.04211 0.51412
 C62 C -0.05709 -0.02796 0.50929
 C63 C -0.00513 -0.08162 0.49714
 C64 C 0.07171 -0.05510 0.49274
 H65 H 0.03299 -0.07523 0.49409
 H66 H -0.06996 0.08169 0.52069
 C67 C -0.26351 0.42446 1.00075
 C68 C -0.31011 0.48494 0.97191
 C69 C -0.28363 0.54477 0.94229
 C70 C -0.21061 0.54665 0.94361
 C71 C -0.16272 0.48816 0.97307
 C72 C -0.18936 0.42557 0.99997
 C73 C -0.28976 0.36224 1.02803
 C74 C -0.24398 0.30215 1.05334
 C75 C -0.17186 0.30273 1.05111
 C76 C -0.14476 0.36358 1.02419
 H77 H -0.34597 0.35932 1.02903
 H78 H -0.26490 0.25467 1.07389
 H79 H -0.13691 0.25565 1.06988
 H80 H -0.08907 0.36145 1.02184
 H81 H -0.31948 0.59083 0.91895
 H82 H -0.19105 0.59429 0.92171
 C83 C 0.26042 0.57038 1.00463
 C84 C 0.28356 0.52003 0.96543
 C85 C 0.23166 0.47210 0.92451
 C86 C 0.16091 0.46767 0.92861
 C87 C 0.13640 0.51581 0.96712
 C88 C 0.18540 0.56936 1.00364
 C89 C 0.30773 0.62539 1.03913
 C90 C 0.28228 0.67701 1.07284
 C91 C 0.20904 0.67614 1.07149
 C92 C 0.16070 0.62350 1.03666
 H93 H 0.36379 0.63091 1.03824
 H94 H 0.31914 0.71885 1.09871
 H95 H 0.18918 0.71719 1.09646
 H96 H 0.10350 0.62690 1.03442
 H97 H 0.24729 0.43417 0.89297
 H98 H 0.12490 0.42586 0.90132
 C99 C -0.07081 -0.28013 0.51946
 C100 C -0.05165 -0.30803 0.46112
 C101 C -0.02827 -0.26188 0.41311
 C102 C -0.02332 -0.19002 0.42170
 C103 C -0.03473 -0.16190 0.48260
 C104 C -0.05620 -0.20758 0.53373
 C105 C -0.09592 -0.32369 0.56923
 C106 C -0.10294 -0.29748 0.63285
 C107 C -0.08195 -0.22873 0.65001
 C108 C -0.05715 -0.18474 0.60183
 H109 H -0.10894 -0.37852 0.56074
 H110 H -0.12148 -0.33169 0.67081
 H111 H -0.08360 -0.20981 0.70156
 H112 H -0.03656 -0.13366 0.61946
 H113 H -0.01209 -0.28188 0.36918
 H114 H -0.00442 -0.15634 0.38356
 C115 C 0.05183 0.25204 0.57226
 C116 C 0.04348 0.29002 0.50287
 C117 C 0.04469 0.25391 0.44205
 C118 C 0.04930 0.18040 0.44765
 C119 C 0.05163 0.14110 0.51385
 C120 C 0.05475 0.17695 0.57763
 C121 C 0.05564 0.28723 0.63604
 C122 C 0.06141 0.24924 0.70353
 C123 C 0.06281 0.17578 0.70851
 C124 C 0.05925 0.13979 0.64631
 H125 H 0.05487 0.34424 0.63434
 H126 H 0.06455 0.27694 0.75209
 H127 H 0.06683 0.14650 0.76090
 H128 H 0.06045 0.08277 0.65274
 H129 H 0.03847 0.28269 0.38875
 H130 H 0.04590 0.15381 0.39829
 C131 C 0.58967 0.01871 -0.24502
 C132 C 0.54116 -0.02234 -0.30181
 C133 C 0.49136 -0.06842 -0.28228
 C134 C 0.48152 -0.06730 -0.21321
 C135 C 0.52533 -0.02456 -0.15811
 C136 C 0.58339 0.01506 -0.17214
 C137 C 0.64693 0.06061 -0.25702
 C138 C 0.69633 0.09710 -0.19958
 C139 C 0.69115 0.09192 -0.12848
 C140 C 0.63585 0.05096 -0.11448
 H141 H 0.65622 0.06465 -0.30970
 H142 H 0.73992 0.12849 -0.20996
 H143 H 0.73063 0.11930 -0.08371
 H144 H 0.63547 0.04674 -0.05766
 H145 H 0.45361 -0.10050 -0.32363
 H146 H 0.43610 -0.09709 -0.20493
 C147 C 0.40609 0.00853 0.20709
 C148 C 0.47183 0.02771 0.26543
 C149 C 0.53478 0.04824 0.24776
 C150 C 0.53505 0.04613 0.17484
 C151 C 0.47161 0.02565 0.11646
 C152 C 0.40589 0.00788 0.13204
 C153 C 0.34033 -0.00967 0.22156
 C154 C 0.27608 -0.02855 0.16370
 C155 C 0.27598 -0.02940 0.09062
 C156 C 0.34010 -0.01130 0.07463
 H157 H 0.33776 -0.00870 0.27733
 H158 H 0.22598 -0.04232 0.17558
 H159 H 0.22584 -0.04393 0.04600
 H160 H 0.33758 -0.01197 0.01702
 H161 H 0.58586 0.06200 0.29181
 H162 H 0.58661 0.05723 0.16482
 C163 C 0.57092 -0.25909 -0.02147
 C164 C 0.50188 -0.29399 -0.05166
 C165 C 0.43561 -0.25439 -0.08463
 C166 C 0.43620 -0.18129 -0.08373
 C167 C 0.50335 -0.14564 -0.05227
 C168 C 0.57166 -0.18411 -0.02234
 C169 C 0.63925 -0.29707 0.00989
 C170 C 0.70655 -0.26194 0.03965
 C171 C 0.70726 -0.18861 0.03895
 C172 C 0.64047 -0.14976 0.00842
 H173 H 0.64137 -0.35399 0.01147
 H174 H 0.75828 -0.29195 0.06334
 H175 H 0.75979 -0.16174 0.06221
 H176 H 0.64314 -0.09283 0.00869
 H177 H 0.38247 -0.28055 -0.10734
 H178 H 0.38346 -0.15231 -0.10536
 C179 C 0.40298 0.25726 -0.05071
 C180 C 0.46694 0.29318 -0.00613
 C181 C 0.52833 0.25418 0.04398
 C182 C 0.53008 0.18091 0.04565
 C183 C 0.46916 0.14438 -0.00032
 C184 C 0.40400 0.18220 -0.04723
 C185 C 0.33794 0.29412 -0.09864
 C186 C 0.27575 0.25800 -0.14242
 C187 C 0.27700 0.18460 -0.13921
 C188 C 0.34037 0.14679 -0.09208
 H189 H 0.33433 0.35093 -0.10229
 H190 H 0.22630 0.28712 -0.17884
 H191 H 0.22856 0.15682 -0.17322
 H192 H 0.33894 0.08973 -0.09060
 H193 H 0.57740 0.28079 0.07861
 H194 H 0.58126 0.15301 0.07960
 C195 C -0.22309 -0.03042 0.57797
 C196 C -0.28196 -0.04412 0.51079
 C197 C -0.26466 -0.06294 0.44895
 C198 C -0.19057 -0.06291 0.45108
 C199 C -0.13199 -0.04319 0.51476
 C200 C -0.14795 -0.02847 0.57973
 C201 C -0.23771 -0.01848 0.64368
 C202 C -0.17997 -0.00270 0.70917
 C203 C -0.10671 0.00108 0.71055
 C204 C -0.09055 -0.01190 0.64680
 H205 H -0.29366 -0.02293 0.64512
 H206 H -0.19204 0.00618 0.75921
 H207 H -0.06200 0.01318 0.76157
 H208 H -0.03256 -0.01043 0.65118
 H209 H -0.30918 -0.07350 0.39710
 H210 H -0.17951 -0.07381 0.40095
 C211 C 0.29657 0.05757 0.54798
 C212 C 0.30416 0.04556 0.47824
 C213 C 0.24004 0.03385 0.41631
 C214 C 0.16958 0.03111 0.42303
 C215 C 0.16101 0.03761 0.49251
 C216 C 0.22493 0.05139 0.55571
 C217 C 0.35935 0.07149 0.61163
 C218 C 0.35236 0.07737 0.68138
 C219 C 0.28310 0.06860 0.68944
 C220 C 0.22006 0.05525 0.62749
 H221 H 0.41429 0.07804 0.60824
 H222 H 0.40114 0.08776 0.72965
 H223 H 0.27826 0.07175 0.74404
 H224 H 0.16790 0.04688 0.63656
 H225 H 0.24495 0.02370 0.36303
 H226 H 0.12165 0.01923 0.37451
 C227 C -0.05612 0.55803 1.21089
 C228 C -0.03550 0.49554 1.25914
 C229 C -0.01425 0.43494 1.23421
 C230 C -0.01229 0.43560 1.16210
 C231 C -0.03175 0.49682 1.11334
 C232 C -0.05330 0.55901 1.13735
 C233 C -0.07694 0.62019 1.23507
 C234 C -0.09293 0.68244 1.18812
 C235 C -0.08846 0.68386 1.11662
 C236 C -0.06920 0.62280 1.09106
 H237 H -0.08066 0.62117 1.29035
 H238 H -0.10849 0.72988 1.20743
 H239 H -0.10035 0.73247 1.08063
 H240 H -0.06609 0.62628 1.03528
 H241 H 0.00296 0.38740 1.27165
 H242 H 0.00611 0.38845 1.14467
 C243 C 0.03990 0.56209 0.72231
 C244 C 0.01541 0.50023 0.68368
 C245 C -0.01362 0.44439 0.71663
 C246 C -0.01890 0.44844 0.78670
 C247 C 0.00321 0.50909 0.82550
 C248 C 0.03203 0.56706 0.79337
 C249 C 0.06883 0.62031 0.69096
 C250 C 0.08945 0.68152 0.72878
 C251 C 0.08025 0.68669 0.79747
 C252 C 0.05109 0.63042 0.82928
 H253 H 0.07477 0.62012 0.63672
 H254 H 0.11120 0.72575 0.70385
 H255 H 0.09503 0.73483 0.82585
 H256 H 0.04304 0.63718 0.88178
 H257 H -0.03349 0.39737 0.68728
 H258 H -0.04087 0.40378 0.81093
   
