data_POSCAR
  _audit_creation_date              2014-09-24
  _audit_creation_method            'ToBaCCo'
  _symmetry_space_group_name_H-M    'P1'
  _symmetry_Int_Tables_number       1
  _symmetry_cell_setting            triclinic
  loop_
  _symmetry_equiv_pos_as_xyz
 x,y,z
_cell_length_a 44.7658
_cell_length_b 44.7633
_cell_length_c 44.7639
_cell_angle_alpha 89.999600
_cell_angle_beta 90.000100
_cell_angle_gamma 89.999800
loop_
  _atom_site_label
  _atom_site_type_symbol
  _atom_site_fract_x
  _atom_site_fract_y
  _atom_site_fract_z
Si1 Si 0.25000 0.49999 1.00005
 Si2 Si 0.75000 0.50000 -0.00005
 Si3 Si -0.00000 0.25001 0.50006
 Si4 Si 0.99998 0.75002 0.49994
 Si5 Si 0.50004 0.00005 0.25000
 Si6 Si 0.49994 -0.00006 0.74999
 C7 C 0.29565 0.02260 0.46399
 H8 H 0.29642 0.03968 0.48107
 C9 C 0.31585 0.02339 0.44025
 H10 H 0.33221 0.04118 0.43894
 C11 C 0.27397 -0.02198 0.44522
 H12 H 0.25804 -0.03994 0.44756
 C13 C 0.29381 -0.02203 0.42111
 H14 H 0.29292 -0.03989 0.40481
 N15 N 0.27514 0.00024 0.46596
 C16 C 0.20434 0.03597 0.52253
 H17 H 0.20356 0.01888 0.53961
 C18 C 0.18413 0.05971 0.52332
 H19 H 0.16777 0.06102 0.54111
 C20 C 0.22602 0.05474 0.47796
 H21 H 0.24195 0.05240 0.46000
 C22 C 0.20619 0.07885 0.47791
 H23 H 0.20708 0.09516 0.46005
 Zn24 Zn 0.24999 0.00001 0.49995
 N25 N 0.22484 0.03399 0.50018
 C26 C 0.27396 0.02199 0.55468
 N27 N 0.27514 -0.00023 0.53393
 C28 C 0.29564 -0.02258 0.53591
 C29 C 0.31584 -0.02338 0.55966
 C30 C 0.29378 0.02204 0.57880
 C31 C 0.20434 -0.03596 0.47735
 C32 C 0.18414 -0.05970 0.47656
 C33 C 0.20619 -0.07884 0.52198
 C34 C 0.22602 -0.05472 0.52193
 N35 N 0.22484 -0.03398 0.49971
 H36 H 0.25803 0.03995 0.55234
 H37 H 0.29641 -0.03966 0.51883
 H38 H 0.33220 -0.04116 0.56097
 H39 H 0.29289 0.03991 0.59510
 H40 H 0.20357 -0.01887 0.46027
 H41 H 0.16778 -0.06101 0.45877
 H42 H 0.20708 -0.09514 0.53985
 H43 H 0.24194 -0.05238 0.53989
 C44 C 0.18504 0.08130 0.50077
 C45 C 0.31495 0.00084 0.41866
 C46 C 0.18504 -0.08129 0.49911
 C47 C 0.31493 -0.00082 0.58125
 C48 C 0.70434 0.02259 0.53602
 H49 H 0.70357 0.03968 0.51895
 C50 C 0.68413 0.02336 0.55977
 H51 H 0.66777 0.04114 0.56109
 C52 C 0.72601 -0.02201 0.55475
 H53 H 0.74194 -0.03997 0.55240
 C54 C 0.70618 -0.02208 0.57886
 H55 H 0.70706 -0.03996 0.59515
 N56 N 0.72484 0.00023 0.53403
 C57 C 0.79564 0.03600 0.47749
 H58 H 0.79641 0.01893 0.46040
 C59 C 0.81585 0.05975 0.47672
 H60 H 0.83221 0.06107 0.45893
 C61 C 0.77396 0.05473 0.52208
 H62 H 0.75803 0.05238 0.54004
 C63 C 0.79379 0.07885 0.52215
 H64 H 0.79290 0.09514 0.54003
 Zn65 Zn 0.74999 0.00002 0.50005
 N66 N 0.77514 0.03401 0.49984
 C67 C 0.72602 0.02205 0.44534
 N68 N 0.72484 -0.00018 0.46606
 C69 C 0.70434 -0.02254 0.46406
 C70 C 0.68414 -0.02331 0.44031
 C71 C 0.70620 0.02212 0.42122
 C72 C 0.79564 -0.03596 0.52261
 C73 C 0.81584 -0.05971 0.52339
 C74 C 0.79380 -0.07880 0.47795
 C75 C 0.77397 -0.05468 0.47802
 N76 N 0.77514 -0.03396 0.50026
 H77 H 0.74195 0.04001 0.44769
 H78 H 0.70357 -0.03963 0.48113
 H79 H 0.66779 -0.04110 0.43899
 H80 H 0.70709 0.04000 0.40493
 H81 H 0.79641 -0.01889 0.53971
 H82 H 0.83220 -0.06103 0.54118
 H83 H 0.79291 -0.09509 0.46007
 H84 H 0.75804 -0.05233 0.46006
 C85 C 0.81494 0.08132 0.49929
 C86 C 0.68503 0.00078 0.58134
 C87 C 0.81494 -0.08128 0.50081
 C88 C 0.68505 -0.00075 0.41874
 C89 C 0.47738 0.20435 1.03589
 H90 H 0.46032 0.20357 1.01879
 C91 C 0.47658 0.18415 1.05964
 H92 H 0.45880 0.16778 1.06093
 C93 C 0.52194 0.22604 1.05468
 H94 H 0.53990 0.24197 1.05235
 C95 C 0.52198 0.20621 1.07880
 H96 H 0.53983 0.20711 1.09511
 N97 N 0.49974 0.22486 1.03392
 C98 C 0.46407 0.29566 0.97730
 H99 H 0.48118 0.29643 0.96025
 C100 C 0.44032 0.31586 0.97647
 H101 H 0.43904 0.33222 0.95868
 C102 C 0.44524 0.27397 1.02185
 H103 H 0.44755 0.25804 1.03981
 C104 C 0.42112 0.29380 1.02186
 H105 H 0.40479 0.29290 1.03970
 Zn106 Zn 0.50000 0.25000 0.99994
 N107 N 0.46602 0.27515 0.99966
 C108 C 0.47806 0.22602 0.94520
 N109 N 0.50027 0.22485 0.96595
 C110 C 0.52262 0.20435 0.96399
 C111 C 0.52343 0.18414 0.94025
 C112 C 0.47802 0.20619 0.92109
 C113 C 0.53592 0.29567 1.02256
 C114 C 0.55967 0.31587 1.02339
 C115 C 0.57888 0.29380 0.97801
 C116 C 0.55476 0.27398 0.97802
 N117 N 0.53398 0.27516 1.00021
 H118 H 0.46010 0.24195 0.94752
 H119 H 0.53969 0.20358 0.98108
 H120 H 0.54121 0.16777 0.93896
 H121 H 0.46017 0.20708 0.90477
 H122 H 0.51881 0.29644 1.03961
 H123 H 0.56095 0.33223 1.04118
 H124 H 0.59521 0.29291 0.96017
 H125 H 0.55245 0.25804 0.96006
 C126 C 0.41870 0.31495 0.99899
 C127 C 0.49912 0.18506 1.08124
 C128 C 0.58129 0.31496 1.00087
 C129 C 0.50089 0.18504 0.91865
 C130 C 0.47735 0.79564 -0.03589
 H131 H 0.46030 0.79642 -0.01878
 C132 C 0.47653 0.81584 -0.05963
 H133 H 0.45875 0.83221 -0.06092
 C134 C 0.52190 0.77395 -0.05470
 H135 H 0.53986 0.75802 -0.05239
 C136 C 0.52192 0.79378 -0.07882
 H137 H 0.53976 0.79288 -0.09515
 N138 N 0.49970 0.77513 -0.03393
 C139 C 0.46408 0.70433 0.02272
 H140 H 0.48120 0.70356 0.03976
 C141 C 0.44034 0.68413 0.02356
 H142 H 0.43907 0.66777 0.04135
 C143 C 0.44522 0.72602 -0.02182
 H144 H 0.44752 0.74195 -0.03978
 C145 C 0.42111 0.70619 -0.02182
 H146 H 0.40476 0.70708 -0.03964
 Zn147 Zn 0.49999 0.74999 0.00006
 N148 N 0.46601 0.72484 0.00036
 C149 C 0.47809 0.77397 0.05481
 N150 N 0.50029 0.77514 0.03404
 C151 C 0.52264 0.79565 0.03599
 C152 C 0.52346 0.81586 0.05972
 C153 C 0.47807 0.79380 0.07892
 C154 C 0.53590 0.70433 -0.02259
 C155 C 0.55965 0.68413 -0.02344
 C156 C 0.57889 0.70620 0.02193
 C157 C 0.55477 0.72602 0.02193
 N158 N 0.53398 0.72484 -0.00024
 H159 H 0.46013 0.75804 0.05250
 H160 H 0.53969 0.79642 0.01888
 H161 H 0.54124 0.83222 0.06100
 H162 H 0.46023 0.79291 0.09525
 H163 H 0.51878 0.70355 -0.03963
 H164 H 0.56092 0.66776 -0.04122
 H165 H 0.59523 0.70709 0.03975
 H166 H 0.55247 0.74196 0.03989
 C167 C 0.41870 0.68504 0.00106
 C168 C 0.49906 0.81493 -0.08125
 C169 C 0.58129 0.68504 -0.00094
 C170 C 0.50093 0.81496 0.08134
 C171 C 1.03588 0.47731 0.20434
 H172 H 1.01876 0.46026 0.20356
 C173 C 1.05963 0.47647 0.18415
 H174 H 1.06090 0.45868 0.16779
 C175 C 1.05472 0.52185 0.22603
 H176 H 1.05241 0.53981 0.24196
 C177 C 1.07884 0.52185 0.20621
 H178 H 1.09518 0.53968 0.20710
 N179 N 1.03394 0.49967 0.22485
 C180 C 0.97731 0.46402 0.29564
 H181 H 0.96025 0.48112 0.29641
 C182 C 0.97650 0.44028 0.31586
 H183 H 0.95871 0.43899 0.33222
 C184 C 1.02187 0.44521 0.27397
 H185 H 1.03983 0.44753 0.25804
 C186 C 1.02190 0.42110 0.29381
 H187 H 1.03975 0.40478 0.29292
 Zn188 Zn 0.99995 0.49996 0.24999
 N189 N 0.99967 0.46597 0.27514
 C190 C 0.94519 0.47806 0.22601
 N191 N 0.96597 0.50024 0.22483
 C192 C 0.96404 0.52259 0.20432
 C193 C 0.94030 0.52343 0.18412
 C194 C 0.92107 0.47805 0.20618
 C195 C 1.02257 0.53590 0.29564
 C196 C 1.02338 0.55965 0.31584
 C197 C 0.97799 0.57883 0.29377
 C198 C 0.97803 0.55471 0.27395
 N199 N 1.00022 0.53394 0.27513
 H200 H 0.94748 0.46010 0.24195
 H201 H 0.98116 0.53964 0.20355
 H202 H 0.93903 0.54122 0.16775
 H203 H 0.90473 0.46022 0.20708
 H204 H 1.03963 0.51880 0.29642
 H205 H 1.04116 0.56094 0.33221
 H206 H 0.96014 0.59515 0.29287
 H207 H 0.96007 0.55239 0.25801
 C208 C 0.99903 0.41867 0.31496
 C209 C 1.08126 0.49898 0.18506
 C210 C 1.00085 0.58126 0.31493
 C211 C 0.91866 0.50092 0.18503
 C212 C -0.03587 0.47744 0.79566
 H213 H -0.01875 0.46039 0.79644
 C214 C -0.05962 0.47660 0.81586
 H215 H -0.06089 0.45881 0.83222
 C216 C -0.05472 0.52197 0.77397
 H217 H -0.05242 0.53993 0.75803
 C218 C -0.07884 0.52197 0.79379
 H219 H -0.09518 0.53980 0.79289
 N220 N -0.03393 0.49979 0.77515
 C221 C 0.02269 0.46412 0.70436
 H222 H 0.03975 0.48122 0.70358
 C223 C 0.02350 0.44038 0.68415
 H224 H 0.04128 0.43908 0.66779
 C225 C -0.02187 0.44532 0.72604
 H226 H -0.03983 0.44764 0.74197
 C227 C -0.02190 0.42120 0.70622
 H228 H -0.03975 0.40488 0.70711
 Zn229 Zn 0.00005 0.50007 0.75000
 N230 N 0.00033 0.46608 0.72486
 C231 C 0.05481 0.47818 0.77398
 N232 N 0.03403 0.50036 0.77515
 C233 C 0.03597 0.52272 0.79566
 C234 C 0.05971 0.52356 0.81586
 C235 C 0.07893 0.47818 0.79381
 C236 C -0.02258 0.53601 0.70434
 C237 C -0.02340 0.55974 0.68413
 C238 C 0.02200 0.57893 0.70619
 C239 C 0.02197 0.55482 0.72602
 N240 N -0.00023 0.53405 0.72485
 H241 H 0.05251 0.46022 0.75805
 H242 H 0.01885 0.53977 0.79643
 H243 H 0.06098 0.54135 0.83222
 H244 H 0.09526 0.46034 0.79292
 H245 H -0.03964 0.51890 0.70357
 H246 H -0.04118 0.56103 0.66777
 H247 H 0.03984 0.59525 0.70708
 H248 H 0.03993 0.55251 0.74195
 C249 C 0.00096 0.41876 0.68507
 C250 C -0.08125 0.49910 0.81494
 C251 C -0.00087 0.58136 0.68503
 C252 C 0.08134 0.50105 0.81496
 C253 C 0.07848 0.18895 0.50014
 N254 N 0.08951 0.17817 0.47406
 N255 N 0.11131 0.15790 0.47416
 C256 C 0.12274 0.14778 0.50034
 N257 N 0.11175 0.15861 0.52642
 N258 N 0.08994 0.17888 0.52632
 C259 C 0.05394 0.20956 0.50007
 C260 C 0.03280 0.22622 0.50004
 C261 C 0.14521 0.12493 0.50047
 C262 C 0.16361 0.10527 0.50060
 C263 C 0.68894 0.57849 -0.00043
 N264 N 0.67835 0.58946 -0.02661
 N265 N 0.65808 0.61127 -0.02671
 C266 C 0.64778 0.62275 -0.00063
 N267 N 0.65841 0.61181 0.02555
 N268 N 0.67868 0.59000 0.02565
 C269 C 0.70955 0.55394 -0.00031
 C270 C 0.72621 0.53280 -0.00021
 C271 C 0.62492 0.64521 -0.00072
 C272 C 0.60526 0.66362 -0.00082
 C273 C 0.92150 -0.18892 0.50008
 N274 N 0.91047 -0.17812 0.47402
 N275 N 0.88866 -0.15785 0.47413
 C276 C 0.87724 -0.14776 0.50032
 N277 N 0.88824 -0.15860 0.52639
 N278 N 0.91004 -0.17887 0.52627
 C279 C 0.94604 -0.20953 0.49999
 C280 C 0.96718 -0.22619 0.49994
 C281 C 0.85477 -0.12490 0.50047
 C282 C 0.83637 -0.10524 0.50062
 C283 C 0.31105 0.42150 0.99960
 N284 N 0.32164 0.41055 0.97341
 N285 N 0.34191 0.38874 0.97329
 C286 C 0.35221 0.37724 0.99936
 N287 N 0.34158 0.38815 1.02555
 N288 N 0.32131 0.40996 1.02567
 C289 C 0.29044 0.44605 0.99975
 C290 C 0.27378 0.46719 0.99987
 C291 C 0.37507 0.35477 0.99924
 C292 C 0.39473 0.33637 0.99913
 C293 C 0.92151 0.18896 0.49998
 N294 N 0.91056 0.17808 0.52605
 N295 N 0.88875 0.15781 0.52595
 C296 C 0.87724 0.14780 0.49977
 N297 N 0.88815 0.15872 0.47369
 N298 N 0.90996 0.17899 0.47380
 C299 C 0.94605 0.20956 0.50005
 C300 C 0.96719 0.22623 0.50008
 C301 C 0.85477 0.12494 0.49962
 C302 C 0.83637 0.10529 0.49948
 C303 C 0.31106 0.57848 0.00050
 N304 N 0.32124 0.59008 -0.02557
 N305 N 0.34151 0.61189 -0.02545
 C306 C 0.35222 0.62274 0.00073
 N307 N 0.34199 0.61117 0.02680
 N308 N 0.32172 0.58937 0.02669
 C309 C 0.29045 0.55393 0.00035
 C310 C 0.27379 0.53280 0.00023
 C311 C 0.37508 0.64521 0.00084
 C312 C 0.39473 0.66361 0.00093
 C313 C 0.07847 -0.18893 0.49978
 N314 N 0.08986 -0.17880 0.47360
 N315 N 0.11167 -0.15853 0.47349
 C316 C 0.12273 -0.14777 0.49956
 N317 N 0.11138 -0.15794 0.52575
 N318 N 0.08958 -0.17821 0.52586
 C319 C 0.05393 -0.20953 0.49987
 C320 C 0.03279 -0.22619 0.49992
 C321 C 0.14521 -0.12491 0.49942
 C322 C 0.16361 -0.10525 0.49929
 C323 C 0.68894 0.42151 1.00031
 N324 N 0.67844 0.41047 1.02650
 N325 N 0.65817 0.38866 1.02660
 C326 C 0.64778 0.37725 1.00053
 N327 N 0.65833 0.38826 0.97434
 N328 N 0.67860 0.41006 0.97424
 C329 C 0.70955 0.44606 1.00019
 C330 C 0.72621 0.46720 1.00009
 C331 C 0.62492 0.35478 1.00064
 C332 C 0.60526 0.33638 1.00074
 C333 C 0.49982 0.07852 1.18891
 N334 N 0.47363 0.08983 1.17871
 N335 N 0.47351 0.11163 1.15844
 C336 C 0.49957 0.12277 1.14773
 N337 N 0.52576 0.11149 1.15797
 N338 N 0.52589 0.08969 1.17825
 C339 C 0.49993 0.05398 1.20953
 C340 C 0.50000 0.03285 1.22620
 C341 C 0.49942 0.14523 1.12487
 C342 C 0.49929 0.16363 1.10521
 C343 C -0.00021 0.68897 0.57844
 N344 N -0.02640 0.67878 0.58976
 N345 N -0.02651 0.65851 0.61158
 C346 C -0.00044 0.64782 0.62271
 N347 N 0.02575 0.65805 0.61142
 N348 N 0.02586 0.67832 0.58961
 C349 C -0.00011 0.70958 0.55389
 C350 C -0.00005 0.72623 0.53275
 C351 C -0.00058 0.62497 0.64518
 C352 C -0.00071 0.60531 0.66360
 C353 C 0.49971 0.92147 -0.18892
 N354 N 0.47352 0.91022 -0.17866
 N355 N 0.47340 0.88841 -0.15838
 C356 C 0.49947 0.87722 -0.14774
 N357 N 0.52566 0.88844 -0.15805
 N358 N 0.52578 0.91024 -0.17833
 C359 C 0.49983 0.94601 -0.20954
 C360 C 0.49989 0.96714 -0.22621
 C361 C 0.49934 0.85476 -0.12488
 C362 C 0.49921 0.83636 -0.10522
 C363 C 0.99973 0.31106 0.42156
 N364 N 1.02580 0.32165 0.41031
 N365 N 1.02567 0.34191 0.38849
 C366 C 0.99947 0.35221 0.37729
 N367 N 0.97341 0.34158 0.38849
 N368 N 0.97354 0.32132 0.41031
 C369 C 0.99986 0.29045 0.44610
 C370 C 0.99994 0.27380 0.46725
 C371 C 0.99933 0.37506 0.35481
 C372 C 0.99919 0.39471 0.33639
 C373 C 0.50027 0.92155 0.18896
 N374 N 0.47420 0.91031 0.17838
 N375 N 0.47432 0.88849 0.15811
 C376 C 0.50051 0.87728 0.14780
 N377 N 0.52658 0.88849 0.15842
 N378 N 0.52646 0.91030 0.17869
 C379 C 0.50016 0.94610 0.20956
 C380 C 0.50009 0.96724 0.22622
 C381 C 0.50065 0.85481 0.12495
 C382 C 0.50078 0.83639 0.10530
 C383 C 0.00026 0.31110 0.57852
 N384 N 0.02645 0.32136 0.58977
 N385 N 0.02658 0.34164 0.61157
 C386 C 0.00052 0.35228 0.62277
 N387 N -0.02568 0.34197 0.61157
 N388 N -0.02580 0.32169 0.58977
 C389 C 0.00013 0.29048 0.55399
 C390 C 0.00006 0.27381 0.53285
 C391 C 0.00067 0.37514 0.64524
 C392 C 0.00080 0.39480 0.66364
 C393 C 0.50017 0.07844 0.81104
 N394 N 0.52636 0.08978 0.82120
 N395 N 0.52649 0.11159 0.84147
 C396 C 0.50042 0.12271 0.85219
 N397 N 0.47423 0.11142 0.84198
 N398 N 0.47410 0.08960 0.82172
 C399 C 0.50005 0.05389 0.79043
 C400 C 0.49998 0.03275 0.77378
 C401 C 0.50057 0.14519 0.87504
 C402 C 0.50071 0.16360 0.89469
 C403 C 1.00018 0.68893 0.42147
 N404 N 1.02637 0.67874 0.41014
 N405 N 1.02648 0.65847 0.38834
 C406 C 1.00042 0.64775 0.37722
 N407 N 0.97423 0.65799 0.38851
 N408 N 0.97411 0.67826 0.41031
 C409 C 1.00007 0.70955 0.44600
 C410 C 1.00001 0.72622 0.46714
 C411 C 1.00056 0.62489 0.35476
 C412 C 1.00069 0.60523 0.33635
 C413 C 1.18892 0.49955 0.07852
 N414 N 1.17829 0.47336 0.08944
 N415 N 1.15802 0.47325 0.11124
 C416 C 1.14775 0.49932 0.12277
 N417 N 1.15843 0.52550 0.11190
 N418 N 1.17870 0.52562 0.09010
 C419 C 1.20954 0.49969 0.05398
 C420 C 1.22620 0.49981 0.03285
 C421 C 1.12489 0.49921 0.14524
 C422 C 1.10523 0.49911 0.16364
 C423 C 0.57844 0.00006 0.68895
 N424 N 0.58943 -0.02601 0.67810
 N425 N 0.61124 -0.02590 0.65784
 C426 C 0.62271 0.00029 0.64780
 N427 N 0.61176 0.02636 0.65869
 N428 N 0.58995 0.02624 0.67896
 C429 C 0.55389 -0.00003 0.70955
 C430 C 0.53275 -0.00007 0.72621
 C431 C 0.64519 0.00044 0.62495
 C432 C 0.66360 0.00059 0.60530
 C433 C -0.18893 0.49963 0.92147
 N434 N -0.17837 0.47345 0.91047
 N435 N -0.15810 0.47335 0.88866
 C436 C -0.14775 0.49943 0.87722
 N437 N -0.15835 0.52561 0.88819
 N438 N -0.17862 0.52571 0.90999
 C439 C -0.20954 0.49975 0.94601
 C440 C -0.22621 0.49985 0.96715
 C441 C -0.12489 0.49933 0.85476
 C442 C -0.10522 0.49923 0.83636
 C443 C 0.42154 0.00018 0.31104
 N444 N 0.41011 0.02636 0.32114
 N445 N 0.38830 0.02647 0.34140
 C446 C 0.37727 0.00039 0.35219
 N447 N 0.38866 -0.02579 0.34205
 N448 N 0.41047 -0.02590 0.32179
 C449 C 0.44609 0.00009 0.29044
 C450 C 0.46723 0.00005 0.27378
 C451 C 0.35480 0.00053 0.37504
 C452 C 0.33639 0.00066 0.39470
 C453 C 0.18896 0.50045 0.92155
 N454 N 0.17873 0.47438 0.90998
 N455 N 0.15846 0.47450 0.88816
 C456 C 0.14781 0.50069 0.87727
 N457 N 0.15808 0.52676 0.88880
 N458 N 0.17834 0.52664 0.91062
 C459 C 0.20956 0.50030 0.94609
 C460 C 0.22621 0.50018 0.96724
 C461 C 0.12496 0.50081 0.85480
 C462 C 0.10530 0.50091 0.83639
 C463 C 0.57851 -0.00005 0.31107
 N464 N 0.59001 -0.02623 0.32109
 N465 N 0.61181 -0.02634 0.34137
 C466 C 0.62276 -0.00027 0.35225
 N467 N 0.61131 0.02591 0.34219
 N468 N 0.58950 0.02602 0.32191
 C469 C 0.55397 0.00003 0.29046
 C470 C 0.53284 0.00006 0.27380
 C471 C 0.64523 -0.00041 0.37511
 C472 C 0.66363 -0.00055 0.39477
 C473 C 0.81104 0.50038 0.07845
 N474 N 0.82158 0.52656 0.08946
 N475 N 0.84184 0.52666 0.11128
 C476 C 0.85219 0.50059 0.12271
 N477 N 0.84162 0.47440 0.11174
 N478 N 0.82135 0.47430 0.08992
 C479 C 0.79044 0.50025 0.05390
 C480 C 0.77378 0.50015 0.03275
 C481 C 0.87505 0.50069 0.14519
 C482 C 0.89470 0.50079 0.16360
 C483 C 0.42147 -0.00018 0.68892
 N484 N 0.41040 0.02590 0.67817
 N485 N 0.38859 0.02579 0.65790
 C486 C 0.37722 -0.00039 0.64774
 N487 N 0.38825 -0.02646 0.65853
 N488 N 0.41005 -0.02636 0.67881
 C489 C 0.44601 -0.00010 0.70953
 C490 C 0.46714 -0.00006 0.72620
 C491 C 0.35475 -0.00052 0.62488
 C492 C 0.33635 -0.00065 0.60522
   
