data_POSCAR
  _audit_creation_date              2014-09-24
  _audit_creation_method            'ToBaCCo'
  _symmetry_space_group_name_H-M    'P1'
  _symmetry_Int_Tables_number       1
  _symmetry_cell_setting            triclinic
  loop_
  _symmetry_equiv_pos_as_xyz
 x,y,z
_cell_length_a 50.1015
_cell_length_b 50.1075
_cell_length_c 15.0938
_cell_angle_alpha 90.037600
_cell_angle_beta 89.916400
_cell_angle_gamma 120.026700
loop_
  _atom_site_label
  _atom_site_type_symbol
  _atom_site_fract_x
  _atom_site_fract_y
  _atom_site_fract_z
C1 C 0.24771 0.49366 0.54192
 C2 C 0.24789 0.49515 0.45171
 C3 C 0.22186 0.49403 0.40178
 C4 C 0.27381 0.49736 0.39860
 C5 C 0.27262 0.49254 0.59251
 C6 C 0.22267 0.49372 0.59424
 C7 C 0.19200 0.46893 0.41030
 C8 C 0.16748 0.46829 0.36455
 C9 C 0.17194 0.49288 0.30798
 C10 C 0.20267 0.51775 0.29904
 C11 C 0.22708 0.51814 0.34487
 C12 C 0.26860 0.47334 0.34067
 C13 C 0.29325 0.47366 0.29643
 C14 C 0.32338 0.49837 0.30787
 C15 C 0.32839 0.52306 0.36298
 C16 C 0.30377 0.52249 0.40841
 C17 C 0.28706 0.51301 0.66308
 C18 C 0.31133 0.51310 0.70887
 C19 C 0.32198 0.49291 0.68450
 C20 C 0.30685 0.47186 0.61513
 C21 C 0.28210 0.47128 0.57095
 C22 C 0.21802 0.51909 0.59133
 C23 C 0.19394 0.51867 0.63924
 C24 C 0.17400 0.49279 0.69024
 C25 C 0.17891 0.46755 0.69365
 C26 C 0.20327 0.46815 0.64668
 H27 H 0.18769 0.44960 0.45205
 H28 H 0.14544 0.44750 0.37161
 H29 H 0.20837 0.53812 0.26087
 H30 H 0.25008 0.53781 0.33770
 H31 H 0.24559 0.45383 0.33225
 H32 H 0.28884 0.45456 0.25349
 H33 H 0.30810 0.54130 0.45251
 H34 H 0.27982 0.52929 0.68199
 H35 H 0.32167 0.52902 0.76348
 H36 H 0.31441 0.45611 0.59352
 H37 H 0.27066 0.45451 0.51888
 H38 H 0.23297 0.53909 0.55161
 H39 H 0.19051 0.53833 0.63518
 H40 H 0.16400 0.44746 0.73312
 H41 H 0.20666 0.44846 0.64982
 H42 H 0.35146 0.54232 0.37283
 C43 C 0.50995 -0.24484 0.54564
 C44 C 0.50989 -0.24494 0.45516
 C45 C 0.50799 -0.27126 0.40475
 C46 C 0.51124 -0.21924 0.40204
 C47 C 0.50790 -0.22063 0.59682
 C48 C 0.51147 -0.26928 0.59769
 C49 C 0.53230 -0.26660 0.34870
 C50 C 0.53155 -0.29152 0.30488
 C51 C 0.50614 -0.32135 0.31483
 C52 C 0.48133 -0.32581 0.36859
 C53 C 0.48232 -0.30095 0.41361
 C54 C 0.53292 -0.18834 0.42066
 C55 C 0.53300 -0.16450 0.37254
 C56 C 0.51217 -0.17098 0.30225
 C57 C 0.49156 -0.20203 0.28096
 C58 C 0.49098 -0.22582 0.33062
 C59 C 0.48259 -0.21611 0.58668
 C60 C 0.48150 -0.19244 0.63266
 C61 C 0.50580 -0.17282 0.68896
 C62 C 0.53081 -0.17779 0.70022
 C63 C 0.53167 -0.20173 0.65525
 C64 C 0.49014 -0.28470 0.66549
 C65 C 0.49035 -0.30870 0.71197
 C66 C 0.51179 -0.31841 0.69142
 C67 C 0.53387 -0.30178 0.62468
 C68 C 0.53397 -0.27736 0.57991
 H69 H 0.55218 -0.24379 0.34086
 H70 H 0.55078 -0.28753 0.26302
 H71 H 0.46155 -0.34863 0.37732
 H72 H 0.46325 -0.30484 0.45608
 H73 H 0.54962 -0.18259 0.47314
 H74 H 0.54906 -0.14100 0.39178
 H75 H 0.47440 -0.24945 0.31374
 H76 H 0.46389 -0.23071 0.54248
 H77 H 0.46203 -0.18900 0.62273
 H78 H 0.54964 -0.16318 0.74402
 H79 H 0.55127 -0.20505 0.66421
 H80 H 0.47296 -0.27840 0.68194
 H81 H 0.47389 -0.31887 0.76527
 H82 H 0.55055 -0.30802 0.60297
 H83 H 0.55134 -0.26515 0.52969
 H84 H 0.47580 -0.20808 0.22579
 C85 C 1.24540 0.75344 0.54542
 C86 C 1.24536 0.75369 0.45509
 C87 C 1.27124 0.77853 0.40462
 C88 C 1.21987 0.72904 0.40229
 C89 C 1.22097 0.72735 0.59634
 C90 C 1.26993 0.77909 0.59790
 C91 C 1.26646 0.79931 0.35485
 C92 C 1.29098 0.82365 0.31019
 C93 C 1.32081 0.82725 0.31181
 C94 C 1.32501 0.80542 0.36001
 C95 C 1.30058 0.78160 0.40660
 C96 C 1.18897 0.72018 0.41931
 C97 C 1.16523 0.69614 0.37170
 C98 C 1.17186 0.68104 0.30378
 C99 C 1.20292 0.69091 0.28440
 C100 C 1.22662 0.71455 0.33334
 C101 C 1.21736 0.69783 0.59056
 C102 C 1.19372 0.67322 0.63713
 C103 C 1.17267 0.67745 0.68942
 C104 C 1.17695 0.70750 0.69533
 C105 C 1.20105 0.73214 0.65038
 C106 C 1.28568 0.77276 0.66358
 C107 C 1.30907 0.79662 0.71267
 C108 C 1.31765 0.82779 0.69732
 C109 C 1.30092 0.83364 0.63209
 C110 C 1.27724 0.80965 0.58417
 H111 H 1.24379 0.79698 0.35202
 H112 H 1.28606 0.83891 0.27179
 H113 H 1.34746 0.80744 0.36583
 H114 H 1.30457 0.76563 0.44478
 H115 H 1.18316 0.73170 0.47006
 H116 H 1.14168 0.68910 0.38937
 H117 H 1.25030 0.72129 0.31797
 H118 H 1.23270 0.69382 0.54919
 H119 H 1.19119 0.65066 0.62803
 H120 H 1.16241 0.71247 0.73709
 H121 H 1.20381 0.75493 0.65631
 H122 H 1.27994 0.74923 0.67671
 H123 H 1.31956 0.79006 0.76431
 H124 H 1.30655 0.85675 0.61432
 H125 H 1.26479 0.81504 0.53552
 H126 H 1.20902 0.68046 0.23121
 C127 C 0.75390 0.50555 0.54708
 C128 C 0.75397 0.50603 0.45668
 C129 C 0.77976 0.50731 0.40430
 C130 C 0.72819 0.50512 0.40586
 C131 C 0.72975 0.50721 0.60019
 C132 C 0.77830 0.50362 0.59730
 C133 C 0.81047 0.52971 0.42185
 C134 C 0.83459 0.52953 0.37603
 C135 C 0.82854 0.50765 0.30907
 C136 C 0.79763 0.48622 0.28864
 C137 C 0.77353 0.48598 0.33605
 C138 C 0.73386 0.52962 0.34935
 C139 C 0.70957 0.52972 0.30424
 C140 C 0.67932 0.50496 0.31337
 C141 C 0.67382 0.48001 0.36802
 C142 C 0.69805 0.48015 0.41425
 C143 C 0.71460 0.48594 0.66829
 C144 C 0.69141 0.48677 0.71756
 C145 C 0.68239 0.50888 0.69980
 C146 C 0.69862 0.53076 0.63234
 C147 C 0.72216 0.53015 0.58445
 C148 C 0.78175 0.47763 0.59056
 C149 C 0.80575 0.47668 0.63493
 C150 C 0.82734 0.50208 0.68571
 C151 C 0.82312 0.52786 0.69298
 C152 C 0.79866 0.52837 0.65040
 H153 H 0.81585 0.54711 0.47201
 H154 H 0.85797 0.54623 0.39452
 H155 H 0.79195 0.46958 0.23595
 H156 H 0.74998 0.46882 0.32028
 H157 H 0.75701 0.54899 0.34185
 H158 H 0.71441 0.54905 0.26180
 H159 H 0.69334 0.46093 0.45703
 H160 H 0.72058 0.46843 0.68310
 H161 H 0.68140 0.47035 0.77100
 H162 H 0.69267 0.54785 0.61268
 H163 H 0.73418 0.54745 0.53394
 H164 H 0.76610 0.45827 0.54983
 H165 H 0.80816 0.45660 0.62508
 H166 H 0.83807 0.54745 0.73389
 H167 H 0.79606 0.54848 0.65701
 H168 H 0.65067 0.46072 0.37631
 C169 C 0.48990 0.24531 0.54783
 C170 C 0.49034 0.24539 0.45745
 C171 C 0.48927 0.26989 0.40460
 C172 C 0.49234 0.22098 0.40722
 C173 C 0.48846 0.21948 0.60007
 C174 C 0.49145 0.27134 0.59887
 C175 C 0.46701 0.27846 0.42153
 C176 C 0.46721 0.30251 0.37430
 C177 C 0.48901 0.31786 0.30674
 C178 C 0.51031 0.30815 0.28708
 C179 C 0.51051 0.28455 0.33575
 C180 C 0.46786 0.20090 0.35249
 C181 C 0.46861 0.17657 0.30953
 C182 C 0.49423 0.17248 0.31886
 C183 C 0.51920 0.19327 0.37123
 C184 C 0.51818 0.21725 0.41559
 C185 C 0.50996 0.22556 0.66731
 C186 C 0.50972 0.20145 0.71435
 C187 C 0.48802 0.17029 0.69503
 C188 C 0.46583 0.16468 0.62872
 C189 C 0.46583 0.18890 0.58316
 C190 C 0.51752 0.30079 0.59408
 C191 C 0.51857 0.32531 0.64127
 C192 C 0.49321 0.32109 0.69318
 C193 C 0.46722 0.29112 0.69788
 C194 C 0.46661 0.26654 0.65238
 H195 H 0.44962 0.26676 0.47202
 H196 H 0.45059 0.30938 0.39213
 H197 H 0.52689 0.31874 0.23399
 H198 H 0.52757 0.27799 0.32034
 H199 H 0.44781 0.20356 0.34517
 H200 H 0.44924 0.16096 0.26879
 H201 H 0.53735 0.23272 0.45718
 H202 H 0.52725 0.24908 0.68291
 H203 H 0.52630 0.20779 0.76723
 H204 H 0.44902 0.14167 0.60799
 H205 H 0.44841 0.18366 0.53319
 H206 H 0.53697 0.30481 0.55316
 H207 H 0.53877 0.34783 0.63303
 H208 H 0.44761 0.28615 0.73920
 H209 H 0.44645 0.24379 0.65756
 H210 H 0.53915 0.19049 0.37939
 C211 C 0.75096 0.24795 0.54547
 C212 C 0.75171 0.24741 0.45528
 C213 C 0.72757 0.22145 0.40279
 C214 C 0.77686 0.27322 0.40526
 C215 C 0.77686 0.27248 0.59651
 C216 C 0.72466 0.22394 0.59686
 C217 C 0.71867 0.19076 0.42306
 C218 C 0.69460 0.16651 0.37708
 C219 C 0.67959 0.17238 0.30741
 C220 C 0.68970 0.20322 0.28429
 C221 C 0.71333 0.22745 0.33174
 C222 C 0.79786 0.26836 0.35638
 C223 C 0.82254 0.29295 0.31282
 C224 C 0.82617 0.32261 0.31595
 C225 C 0.80463 0.32725 0.36312
 C226 C 0.78025 0.30276 0.40792
 C227 C 0.77204 0.29242 0.65018
 C228 C 0.79672 0.31673 0.69441
 C229 C 0.82702 0.32161 0.68678
 C230 C 0.83121 0.30058 0.63419
 C231 C 0.80648 0.27641 0.58991
 C232 C 0.69480 0.21925 0.58573
 C233 C 0.66983 0.19509 0.62985
 C234 C 0.67436 0.17507 0.68475
 C235 C 0.70436 0.18024 0.69722
 C236 C 0.72936 0.20473 0.65447
 H237 H 0.73003 0.18551 0.47551
 H238 H 0.68741 0.14318 0.39759
 H239 H 0.67938 0.20872 0.22953
 H240 H 0.72017 0.25095 0.31386
 H241 H 0.79548 0.24567 0.35368
 H242 H 0.83872 0.28880 0.27621
 H243 H 0.76412 0.30681 0.44514
 H244 H 0.74926 0.28975 0.65556
 H245 H 0.79184 0.33238 0.73080
 H246 H 0.85332 0.30185 0.62874
 H247 H 0.81045 0.26072 0.55015
 H248 H 0.69082 0.23400 0.54182
 H249 H 0.64688 0.19148 0.61926
 H250 H 0.70839 0.16526 0.73996
 H251 H 0.75227 0.20807 0.66385
 H252 H 0.80705 0.34995 0.36674
 O253 O 0.95710 0.52312 -0.16523
 O254 O 0.92303 0.48182 -0.08092
 C255 C 0.92934 0.50220 -0.14241
 O256 O 1.04375 0.47080 -0.15257
 O257 O 1.07752 0.51374 -0.07402
 C258 C 1.07148 0.49187 -0.13028
 O259 O 0.95721 0.43025 -0.16232
 O260 O 0.92340 0.43766 -0.07788
 C261 C 0.92949 0.42332 -0.13906
 O262 O 1.04388 0.56881 -0.15769
 O263 O 1.07760 0.55958 -0.07902
 C264 C 1.07154 0.57522 -0.13587
 Zr265 Zr 1.00055 0.53197 -0.11649
 O266 O 1.00406 0.53181 -0.25632
 O267 O 0.99730 0.57245 -0.12262
 Zr268 Zr 1.00039 0.46450 -0.11183
 O269 O 1.00400 0.46520 -0.25165
 O270 O 0.99668 0.42053 -0.10781
 O271 O 0.97293 0.48444 -0.13157
 O272 O 1.02727 0.51148 -0.13032
 O273 O 1.04375 0.57071 0.14615
 O274 O 1.07761 0.56084 0.07040
 C275 C 1.07144 0.57703 0.12496
 O276 O 0.95696 0.43153 0.16248
 O277 O 0.92330 0.43851 0.07643
 C278 C 0.92928 0.42449 0.13877
 O279 O 1.04341 0.47268 0.15509
 O280 O 1.07747 0.51461 0.07321
 C281 C 1.07121 0.49335 0.13191
 O282 O 0.95751 0.52585 0.15464
 O283 O 0.92349 0.48366 0.07374
 C284 C 0.92980 0.50485 0.13265
 Zr285 Zr 1.00049 0.53334 0.10732
 O286 O 1.00384 0.53468 0.24730
 O287 O 0.99738 0.57394 0.10782
 Zr288 Zr 1.00013 0.46576 0.11188
 O289 O 1.00329 0.46842 0.25179
 O290 O 0.99674 0.42191 0.11421
 Zr291 Zr 0.95436 0.47603 -0.00232
 Zr292 Zr 1.04624 0.52171 -0.00208
 O293 O 1.02710 0.51299 0.12602
 O294 O 0.97269 0.48595 0.12696
 O295 O 1.02803 0.55160 -0.00492
 O296 O 0.97341 0.44692 0.00019
 O297 O 0.97378 0.52425 -0.00497
 O298 O 1.02776 0.47356 0.00050
 H299 H 1.04125 0.51812 -0.18226
 H300 H 0.95945 0.42429 0.00098
 H301 H 1.04110 0.52036 0.17783
 H302 H 0.96007 0.53320 -0.00620
 H303 H 1.01423 0.42249 -0.07268
 H304 H 1.01410 0.42341 0.07899
 H305 H 0.98614 0.47104 0.27383
 H306 H 0.98515 0.51646 0.27071
 H307 H 1.01321 0.58868 0.06645
 H308 H 1.01338 0.58787 -0.08323
 H309 H 0.98535 0.51341 -0.27870
 H310 H 0.98772 0.46881 -0.27566
 O311 O 0.43203 0.47545 0.15858
 O312 O 0.44033 0.51708 0.07486
 C313 C 0.42555 0.49653 0.13541
 O314 O 0.57085 0.52683 0.15743
 O315 O 0.56207 0.48425 0.07757
 C316 C 0.57747 0.50572 0.13527
 O317 O 0.52598 0.56850 0.16344
 O318 O 0.48539 0.56177 0.07735
 C319 C 0.50552 0.57575 0.13950
 O320 O 0.47221 0.42916 0.15067
 O321 O 0.51580 0.43838 0.07507
 C322 C 0.49337 0.42248 0.12977
 Zr323 Zr 0.46676 0.46672 0.11071
 O324 O 0.46843 0.46521 0.25071
 O325 O 0.42265 0.42656 0.11069
 Zr326 Zr 0.53447 0.53381 0.11430
 O327 O 0.53466 0.53107 0.25426
 O328 O 0.57516 0.57749 0.11748
 O329 O 0.48689 0.51420 0.12911
 O330 O 0.51371 0.48661 0.12949
 O331 O 0.47420 0.43022 -0.15313
 O332 O 0.51703 0.43922 -0.07428
 C333 C 0.49526 0.42359 -0.13095
 O334 O 0.52854 0.56999 -0.15811
 O335 O 0.48655 0.56245 -0.07714
 C336 C 0.50778 0.57710 -0.13624
 O337 O 0.57317 0.52826 -0.14716
 O338 O 0.56321 0.48484 -0.06964
 C339 C 0.57951 0.50700 -0.12476
 O340 O 0.43361 0.47579 -0.16245
 O341 O 0.44117 0.51749 -0.07992
 C342 C 0.42673 0.49665 -0.14016
 Zr343 Zr 0.46834 0.46753 -0.11317
 O344 O 0.47243 0.46784 -0.25290
 O345 O 0.42449 0.42718 -0.11966
 Zr346 Zr 0.53593 0.53455 -0.10949
 O347 O 0.53736 0.53209 -0.24936
 O348 O 0.57668 0.57816 -0.11100
 Zr349 Zr 0.47862 0.52401 -0.00060
 Zr350 Zr 0.52398 0.47744 0.00177
 O351 O 0.51551 0.48752 -0.12692
 O352 O 0.48859 0.51511 -0.12944
 O353 O 0.47578 0.44795 -0.00086
 O354 O 0.52689 0.55260 0.00207
 O355 O 0.44945 0.47582 -0.00206
 O356 O 0.55404 0.52554 0.00338
 H357 H 0.52025 0.47928 0.18157
 H358 H 0.53600 0.57529 0.00279
 H359 H 0.52287 0.48063 -0.17829
 H360 H 0.42680 0.46701 -0.00284
 H361 H 0.59095 0.57598 0.08190
 H362 H 0.59117 0.57728 -0.06832
 H363 H 0.51896 0.53213 -0.27297
 H364 H 0.47217 0.48625 -0.27539
 H365 H 0.42466 0.41210 -0.07777
 H366 H 0.42380 0.41124 0.07192
 H367 H 0.46931 0.48410 0.27387
 H368 H 0.51540 0.52970 0.27620
 O369 O 0.47478 0.04236 0.16802
 O370 O 0.51494 0.07644 0.08083
 C371 C 0.49507 0.07016 0.14395
 O372 O 0.52912 -0.04292 0.14519
 O373 O 0.48509 -0.07707 0.07163
 C374 C 0.50787 -0.07069 0.12460
 O375 O 0.56928 0.04304 0.15379
 O376 O 0.56017 0.07681 0.07503
 C377 C 0.57558 0.07069 0.13251
 O378 O 0.42950 -0.04387 0.15927
 O379 O 0.43822 -0.07753 0.07843
 C380 C 0.42285 -0.07151 0.13649
 Zr381 Zr 0.46632 -0.00069 0.11758
 O382 O 0.46799 -0.00426 0.25705
 O383 O 0.42579 0.00232 0.12833
 Zr384 Zr 0.53384 -0.00010 0.10741
 O385 O 0.53244 -0.00361 0.24738
 O386 O 0.57781 0.00360 0.10504
 O387 O 0.51397 0.02728 0.12988
 O388 O 0.48698 -0.02735 0.12855
 O389 O 0.42626 -0.04419 -0.14506
 O390 O 0.43649 -0.07792 -0.07028
 C391 C 0.42006 -0.07187 -0.12419
 O392 O 0.56496 0.04362 -0.16631
 O393 O 0.55813 0.07725 -0.07898
 C394 C 0.57196 0.07130 -0.14217
 O395 O 0.52445 -0.04328 -0.15889
 O396 O 0.48263 -0.07750 -0.07670
 C397 C 0.50385 -0.07112 -0.13567
 O398 O 0.47068 0.04216 -0.15326
 O399 O 0.51306 0.07639 -0.07346
 C400 C 0.49160 0.06996 -0.13153
 Zr401 Zr 0.46339 -0.00074 -0.10608
 O402 O 0.46052 -0.00407 -0.24598
 O403 O 0.42268 0.00217 -0.10110
 Zr404 Zr 0.53100 0.00001 -0.11628
 O405 O 0.52667 -0.00335 -0.25596
 O406 O 0.57494 0.00380 -0.12538
 Zr407 Zr 0.52136 0.04568 0.00068
 Zr408 Zr 0.47597 -0.04635 0.00041
 O409 O 0.48377 -0.02720 -0.12755
 O410 O 0.51058 0.02726 -0.12852
 O411 O 0.44601 -0.02824 0.00640
 O412 O 0.55054 0.02674 -0.00509
 O413 O 0.47314 0.02599 0.00644
 O414 O 0.52418 -0.02746 -0.00536
 H415 H 0.48066 -0.04148 0.18006
 H416 H 0.57317 0.04063 -0.00748
 H417 H 0.47623 -0.04119 -0.17941
 H418 H 0.46403 0.03956 0.00865
 H419 H 0.57694 -0.01149 0.06125
 H420 H 0.57446 -0.01270 -0.08832
 H421 H 0.52586 0.01489 -0.27732
 H422 H 0.47935 0.01374 -0.27027
 H423 H 0.40755 -0.01508 -0.06407
 H424 H 0.41076 -0.01244 0.08542
 H425 H 0.48643 0.01460 0.27852
 H426 H 0.53285 0.01497 0.27143
 C427 C 1.11671 0.47322 0.29192
 C428 C 1.14771 0.49269 0.26453
 C429 C 1.15238 0.51209 0.19059
 C430 C 1.12771 0.51218 0.14773
 C431 C 1.09734 0.49287 0.17630
 C432 C 1.09216 0.47333 0.24856
 H433 H 1.11075 0.45879 0.35000
 H434 H 1.17484 0.52652 0.16160
 H435 H 1.13252 0.52726 0.09126
 H436 H 1.06902 0.45839 0.27319
 C437 C 0.53119 0.64769 0.27773
 C438 C 0.50581 0.65220 0.27030
 C439 C 0.48021 0.63137 0.22017
 C440 C 0.48018 0.60664 0.17717
 C441 C 0.50549 0.60191 0.18504
 C442 C 0.53095 0.62266 0.23612
 H443 H 0.55109 0.66338 0.31662
 H444 H 0.46046 0.63453 0.21314
 H445 H 0.46031 0.59120 0.13796
 H446 H 0.55086 0.61977 0.24320
 C447 C 0.34690 -0.11934 0.25594
 C448 C 0.34581 -0.14787 0.26708
 C449 C 0.37051 -0.15074 0.23284
 C450 C 0.39509 -0.12619 0.18888
 C451 C 0.39626 -0.09777 0.18010
 C452 C 0.37196 -0.09457 0.21418
 H453 H 0.32916 -0.11541 0.28306
 H454 H 0.37049 -0.17231 0.23655
 H455 H 0.41338 -0.12938 0.16255
 H456 H 0.37226 -0.07288 0.20827
 C457 C 0.85134 0.47887 0.23285
 C458 C 0.85433 0.50697 0.26180
 C459 C 0.88242 0.53434 0.24660
 C460 C 0.90699 0.53357 0.20540
 C461 C 0.90384 0.50552 0.17649
 C462 C 0.87571 0.47823 0.18974
 H463 H 0.83040 0.45723 0.24486
 H464 H 0.88545 0.55650 0.26578
 H465 H 0.92834 0.55501 0.19484
 H466 H 0.87280 0.45630 0.16856
 C467 C 0.46271 0.34515 0.24246
 C468 C 0.48992 0.34422 0.25834
 C469 C 0.51816 0.36911 0.22927
 C470 C 0.51915 0.39418 0.18580
 C471 C 0.49205 0.39532 0.17209
 C472 C 0.46381 0.37057 0.20070
 H473 H 0.44045 0.32619 0.26186
 H474 H 0.53969 0.36965 0.24181
 H475 H 0.54125 0.41309 0.16505
 H476 H 0.44252 0.37074 0.19001
 C477 C 0.62858 0.14971 0.22845
 C478 C 0.65323 0.14649 0.26027
 C479 C 0.65212 0.11810 0.24819
 C480 C 0.62680 0.09345 0.20725
 C481 C 0.60231 0.09679 0.17564
 C482 C 0.60360 0.12524 0.18572
 H483 H 0.62821 0.17093 0.23797
 H484 H 0.67092 0.11488 0.26970
 H485 H 0.62659 0.07186 0.19921
 H486 H 0.58496 0.12838 0.16228
 C487 C 0.51569 0.14990 -0.21712
 C488 C 0.48870 0.14555 -0.26023
 C489 C 0.46258 0.11555 -0.25814
 C490 C 0.46365 0.09116 -0.21698
 C491 C 0.49059 0.09588 -0.17494
 C492 C 0.51645 0.12555 -0.17458
 H493 H 0.53699 0.17170 -0.21851
 H494 H 0.44065 0.11055 -0.28544
 H495 H 0.44308 0.06861 -0.21683
 H496 H 0.53760 0.12989 -0.14288
 C497 C 0.63497 0.48213 -0.20880
 C498 C 0.65765 0.50885 -0.25307
 C499 C 0.65441 0.53533 -0.25008
 C500 C 0.62928 0.53474 -0.20800
 C501 C 0.60677 0.50792 -0.16592
 C502 C 0.61018 0.48183 -0.16541
 H503 H 0.63507 0.46063 -0.21036
 H504 H 0.67152 0.55711 -0.27790
 H505 H 0.62765 0.55549 -0.20792
 H506 H 0.59317 0.46077 -0.13351
 C507 C 0.88292 0.35878 -0.30146
 C508 C 0.85240 0.34682 -0.27008
 C509 C 0.84806 0.36095 -0.19456
 C510 C 0.87297 0.38573 -0.15267
 C511 C 0.90312 0.39723 -0.18428
 C512 C 0.90780 0.38348 -0.25910
 H513 H 0.88794 0.35012 -0.36104
 H514 H 0.82563 0.35235 -0.16454
 H515 H 0.86856 0.39558 -0.09442
 H516 H 0.93073 0.39204 -0.28591
 C517 C 0.53135 -0.11721 -0.26772
 C518 C 0.50535 -0.14690 -0.26532
 C519 C 0.47892 -0.15159 -0.21963
 C520 C 0.47856 -0.12705 -0.17663
 C521 C 0.50445 -0.09722 -0.17981
 C522 C 0.53084 -0.09256 -0.22596
 H523 H 0.55192 -0.11299 -0.30313
 H524 H 0.45867 -0.17432 -0.21641
 H525 H 0.45789 -0.13140 -0.14162
 H526 H 0.55118 -0.06990 -0.22937
 C527 C 0.35065 0.46696 -0.25904
 C528 C 0.34880 0.49391 -0.26939
 C529 C 0.37300 0.52185 -0.23609
 C530 C 0.39816 0.52274 -0.19324
 C531 C 0.40012 0.49590 -0.18469
 C532 C 0.37615 0.46803 -0.21817
 H533 H 0.33224 0.44486 -0.28150
 H534 H 0.37285 0.54323 -0.24418
 H535 H 0.41633 0.54451 -0.16817
 H536 H 0.37683 0.44686 -0.21123
 C537 C 1.11983 0.65194 -0.25024
 C538 C 1.14782 0.65230 -0.26616
 C539 C 1.15012 0.62672 -0.23715
 C540 C 1.12558 0.60204 -0.19343
 C541 C 1.09777 0.60175 -0.17950
 C542 C 1.09509 0.62686 -0.20858
 H543 H 1.11625 0.67033 -0.27347
 H544 H 1.17126 0.62607 -0.24482
 H545 H 1.12825 0.58293 -0.17151
 H546 H 1.07382 0.62717 -0.19876
 C547 C 0.85062 0.47415 -0.24348
 C548 C 0.85263 0.50191 -0.27256
 C549 C 0.88076 0.52963 -0.25902
 C550 C 0.90576 0.52955 -0.21853
 C551 C 0.90323 0.50195 -0.18825
 C552 C 0.87543 0.47427 -0.20075
 H553 H 0.82945 0.45230 -0.24975
 H554 H 0.88414 0.55148 -0.28273
 H555 H 0.92702 0.55122 -0.20976
 H556 H 0.87293 0.45265 -0.17782
 C557 C 0.52162 0.37143 -0.23146
 C558 C 0.49367 0.34618 -0.26158
 C559 C 0.46618 0.34684 -0.24602
 C560 C 0.46675 0.37199 -0.20402
 C561 C 0.49463 0.39682 -0.17414
 C562 C 0.52198 0.39614 -0.18735
 H563 H 0.54330 0.37181 -0.23867
 H564 H 0.44417 0.32869 -0.26993
 H565 H 0.44530 0.37196 -0.19475
 H566 H 0.54379 0.41498 -0.16470
 C567 C 0.64382 0.11879 -0.28036
 C568 C 0.64785 0.14850 -0.27220
 C569 C 0.62656 0.15266 -0.22233
 C570 C 0.60196 0.12760 -0.17993
 C571 C 0.59775 0.09777 -0.18828
 C572 C 0.61886 0.09362 -0.23949
 H573 H 0.65988 0.11504 -0.31903
 H574 H 0.62934 0.17541 -0.21476
 H575 H 0.58627 0.13163 -0.14050
 H576 H 0.61640 0.07100 -0.24688
 C577 C 1.11819 0.46626 -0.26737
 C578 C 1.14794 0.49203 -0.26117
 C579 C 1.15256 0.51729 -0.20956
 C580 C 1.12784 0.51691 -0.16544
 C581 C 1.09787 0.49145 -0.17321
 C582 C 1.09335 0.46604 -0.22431
 H583 H 1.11404 0.44657 -0.30724
 H584 H 1.17535 0.53730 -0.20309
 H585 H 1.13219 0.53680 -0.12629
 H586 H 1.07060 0.44603 -0.23143
 C587 C 0.53671 0.65139 -0.26530
 C588 C 0.51098 0.65592 -0.26461
 C589 C 0.48424 0.63368 -0.21936
 C590 C 0.48338 0.60846 -0.17715
 C591 C 0.50883 0.60401 -0.18022
 C592 C 0.53549 0.62576 -0.22467
 H593 H 0.55851 0.66792 -0.29433
 H594 H 0.46317 0.63461 -0.21840
 H595 H 0.46249 0.59214 -0.14318
 H596 H 0.55579 0.62334 -0.22664
 C597 C 0.34497 -0.11828 -0.24837
 C598 C 0.34237 -0.14767 -0.25516
 C599 C 0.36560 -0.15158 -0.21413
 C600 C 0.39029 -0.12725 -0.17001
 C601 C 0.39296 -0.09807 -0.16624
 C602 C 0.36994 -0.09391 -0.20532
 H603 H 0.32745 -0.11381 -0.27378
 H604 H 0.36599 -0.17288 -0.21897
 H605 H 0.40783 -0.13111 -0.14110
 H606 H 0.37107 -0.07177 -0.20211
 C607 C 0.53847 -0.11689 0.24076
 C608 C 0.51146 -0.14557 0.25283
 C609 C 0.48353 -0.14953 0.21898
 C610 C 0.48261 -0.12551 0.17498
 C611 C 0.50939 -0.09665 0.16573
 C612 C 0.53737 -0.09262 0.19862
 H613 H 0.56056 -0.11308 0.26366
 H614 H 0.46210 -0.17095 0.22824
 H615 H 0.46072 -0.12928 0.15037
 H616 H 0.55848 -0.07071 0.19140
 C617 C 0.35300 0.47190 0.27024
 C618 C 0.34958 0.49798 0.26389
 C619 C 0.37129 0.52362 0.21552
 C620 C 0.39582 0.52303 0.17322
 C621 C 0.39947 0.49704 0.18003
 C622 C 0.37784 0.47151 0.22932
 H623 H 0.33661 0.45194 0.30783
 H624 H 0.36899 0.54391 0.20934
 H625 H 0.41198 0.54300 0.13545
 H626 H 0.37991 0.45109 0.23556
 C627 C 1.11851 0.65420 0.23797
 C628 C 1.14649 0.65487 0.25446
 C629 C 1.14974 0.62996 0.22507
 C630 C 1.12562 0.60501 0.18104
 C631 C 1.09750 0.60412 0.16696
 C632 C 1.09421 0.62897 0.19558
 H633 H 1.11533 0.67321 0.25751
 H634 H 1.17064 0.62929 0.23792
 H635 H 1.12865 0.58599 0.16036
 H636 H 1.07285 0.62899 0.18461
 C637 C 0.51975 0.15129 0.22182
 C638 C 0.49466 0.14632 0.27490
 C639 C 0.46986 0.11621 0.28554
 C640 C 0.47020 0.09141 0.24416
 C641 C 0.49512 0.09632 0.19000
 C642 C 0.51981 0.12658 0.17892
 H643 H 0.53902 0.17437 0.21224
 H644 H 0.45035 0.11187 0.32665
 H645 H 0.45073 0.06845 0.25371
 H646 H 0.53920 0.13123 0.13696
 C647 C 0.63210 0.47954 0.21828
 C648 C 0.65353 0.50533 0.26668
 C649 C 0.65009 0.53146 0.27067
 C650 C 0.62540 0.53163 0.22809
 C651 C 0.60391 0.50582 0.17949
 C652 C 0.60772 0.47988 0.17443
 H653 H 0.63443 0.45922 0.21365
 H654 H 0.66625 0.55157 0.30806
 H655 H 0.62322 0.55201 0.23304
 H656 H 0.59169 0.45968 0.13728
 C657 C 0.88260 0.35420 0.28347
 C658 C 0.85252 0.34871 0.27077
 C659 C 0.84778 0.36830 0.21475
 C660 C 0.87266 0.39276 0.17141
 C661 C 0.90289 0.39853 0.18467
 C662 C 0.90757 0.37898 0.24140
 H663 H 0.88682 0.33949 0.32687
 H664 H 0.82473 0.36435 0.20343
 H665 H 0.86817 0.40713 0.12750
 H666 H 0.93050 0.38265 0.25280
   
