data_POSCAR
  _audit_creation_date              2014-09-24
  _audit_creation_method            'ToBaCCo'
  _symmetry_space_group_name_H-M    'P1'
  _symmetry_Int_Tables_number       1
  _symmetry_cell_setting            triclinic
  loop_
  _symmetry_equiv_pos_as_xyz
 x,y,z
_cell_length_a 50.9551
_cell_length_b 51.0010
_cell_length_c 50.8842
_cell_angle_alpha 89.893600
_cell_angle_beta 89.921900
_cell_angle_gamma 89.929700
loop_
  _atom_site_label
  _atom_site_type_symbol
  _atom_site_fract_x
  _atom_site_fract_y
  _atom_site_fract_z
C1 C 0.16819 0.17000 0.19986
 C2 C 0.15703 0.19227 0.18814
 C3 C 0.16815 0.20289 0.16530
 C4 C 0.19046 0.19129 0.15416
 C5 C 0.20167 0.16902 0.16583
 C6 C 0.19053 0.15838 0.18869
 H7 H 0.13970 0.20127 0.19668
 H8 H 0.19898 0.19953 0.13642
 H9 H 0.19914 0.14109 0.19769
 C10 C -0.16484 0.83239 0.20447
 C11 C -0.15396 0.80984 0.19308
 C12 C -0.16581 0.79849 0.17104
 C13 C -0.18856 0.80968 0.16038
 C14 C -0.19947 0.83221 0.17174
 C15 C -0.18761 0.84355 0.19378
 H16 H -0.13629 0.80118 0.20125
 H17 H -0.19769 0.80095 0.14326
 H18 H -0.19606 0.86104 0.20249
 C19 C -0.16908 0.16605 -0.20219
 C20 C -0.19138 0.15435 -0.19108
 C21 C -0.20309 0.16531 -0.16872
 C22 C -0.19252 0.18801 -0.15747
 C23 C -0.17024 0.19973 -0.16854
 C24 C -0.15852 0.18876 -0.19089
 H25 H -0.19958 0.13672 -0.19971
 H26 H -0.20153 0.19645 -0.14012
 H27 H -0.14121 0.19784 -0.19937
 C28 C 0.16888 0.83327 -0.20207
 C29 C 0.15687 0.81084 -0.19159
 C30 C 0.16730 0.79877 -0.16916
 C31 C 0.18976 0.80910 -0.15720
 C32 C 0.20178 0.83151 -0.16762
 C33 C 0.19135 0.84360 -0.19005
 H34 H 0.13944 0.80282 -0.20079
 H35 H 0.19780 0.79977 -0.13981
 H36 H 0.20067 0.86100 -0.19805
 C37 C 0.17052 1.16829 0.79866
 C38 C 0.15903 1.19070 0.80973
 C39 C 0.16969 1.20179 0.83251
 C40 C 0.19184 1.19048 0.84424
 C41 C 0.20334 1.16808 0.83322
 C42 C 0.19269 1.15699 0.81044
 H43 H 0.14181 1.19945 0.80074
 H44 H 0.20003 1.19900 0.86193
 H45 H 0.20159 1.13958 0.80201
 C46 C 0.83270 0.83426 0.79612
 C47 C 0.81034 0.84536 0.80773
 C48 C 0.79910 0.83372 0.83000
 C49 C 0.81021 0.81094 0.84070
 C50 C 0.83257 0.79979 0.82914
 C51 C 0.84380 0.81146 0.80683
 H52 H 0.80174 0.86306 0.79955
 H53 H 0.80151 0.80202 0.85802
 H54 H 0.86117 0.80289 0.79790
 C55 C 0.16559 0.82991 1.20210
 C56 C 0.15370 0.80781 1.19092
 C57 C 0.16460 0.79621 1.16848
 C58 C 0.18737 0.80671 1.15718
 C59 C 0.19927 0.82880 1.16831
 C60 C 0.18839 0.84039 1.19077
 H61 H 0.13601 0.79968 1.19958
 H62 H 0.19576 0.79777 1.13976
 H63 H 0.19761 0.85754 1.19931
 C64 C 0.83227 1.16859 1.20264
 C65 C 0.80981 1.15670 1.19217
 C66 C 0.79777 1.16731 1.16980
 C67 C 0.80817 1.18981 1.15790
 C68 C 0.83062 1.20170 1.16833
 C69 C 0.84265 1.19111 1.19070
 H70 H 0.80176 1.13922 1.20129
 H71 H 0.79890 1.19797 1.14053
 H72 H 0.86008 1.20032 1.19869
 O73 O 0.46255 1.04511 1.04829
 O74 O 0.43399 1.01942 1.02474
 C75 C 0.43913 1.03788 1.04141
 O76 O 0.53676 1.04260 0.95502
 O77 O 0.56559 1.01906 0.98054
 C78 C 0.56025 1.03579 0.96213
 O79 O 0.46299 1.04507 0.95754
 O80 O 0.43421 1.01949 0.98110
 C81 C 0.43951 1.03787 0.96432
 O82 O 0.53630 1.04275 1.05132
 O83 O 0.56535 1.01903 1.02622
 C84 C 0.55986 1.03588 1.04443
 Zr85 Zr 0.49956 1.03014 1.03640
 O86 O 0.50181 1.07156 1.03636
 O87 O 0.49636 1.02975 1.07789
 Zr88 Zr 0.49986 1.03032 0.97002
 O89 O 0.50102 1.07165 0.97271
 O90 O 0.49735 1.03163 0.92852
 O91 O 0.47629 1.03514 1.00310
 O92 O 0.52257 1.03509 1.00325
 O93 O 0.53685 0.95161 1.05142
 O94 O 0.56562 0.97551 1.02617
 C95 C 0.56033 0.95863 1.04446
 O96 O 0.46354 0.94895 0.95735
 O97 O 0.43449 0.97400 0.98110
 C98 C 0.43999 0.95584 0.96421
 O99 O 0.53730 0.95184 0.95512
 O100 O 0.56583 0.97564 0.98057
 C101 C 0.56070 0.95886 0.96221
 O102 O 0.46309 0.94870 1.04865
 O103 O 0.43428 0.97386 1.02472
 C104 C 0.43961 0.95560 1.04160
 Zr105 Zr 0.49994 0.96379 1.03643
 O106 O 0.50320 0.92240 1.03638
 O107 O 0.49674 0.96388 1.07792
 Zr108 Zr 0.50026 0.96391 0.96991
 O109 O 0.50352 0.92252 0.97012
 O110 O 0.49745 0.96404 0.92841
 Zr111 Zr 0.46093 0.99682 1.00303
 Zr112 Zr 0.53889 0.99719 1.00330
 O113 O 0.52291 0.95916 1.00325
 O114 O 0.47676 0.95861 1.00309
 O115 O 0.52311 0.99706 1.04164
 O116 O 0.47733 0.99703 0.96507
 O117 O 0.47692 0.99686 1.04113
 O118 O 0.52342 0.99723 0.96489
 H119 H 0.53444 1.05047 1.00327
 H120 H 0.46553 0.99706 0.94961
 H121 H 0.53494 0.94389 1.00327
 H122 H 0.46488 0.99682 1.05644
 H123 H 0.51069 1.01936 0.92157
 H124 H 0.51210 0.97477 0.92155
 H125 H 0.48875 0.91557 0.98066
 H126 H 0.48868 0.91547 1.02555
 H127 H 0.51133 0.97460 1.08484
 H128 H 0.51129 1.01944 1.08481
 H129 H 0.48987 1.07794 1.02241
 H130 H 0.50107 1.07826 0.95438
 O131 O 0.04498 0.46326 -0.04861
 O132 O 0.01936 0.43443 -0.02515
 C133 C 0.03783 0.43978 -0.04184
 O134 O 0.04194 0.53667 0.04504
 O135 O 0.01831 0.56556 0.01967
 C136 C 0.03504 0.56016 0.03804
 O137 O 0.04472 0.46301 0.04222
 O138 O 0.01933 0.43431 0.01854
 C139 C 0.03763 0.43957 0.03537
 O140 O 0.04232 0.53695 -0.05127
 O141 O 0.01840 0.56568 -0.02601
 C142 C 0.03534 0.56040 -0.04426
 Zr143 Zr 0.02983 0.50008 -0.03651
 O144 O 0.07128 0.50251 -0.03648
 O145 O 0.02956 0.49720 -0.07801
 Zr146 Zr 0.02987 0.49987 0.02987
 O147 O 0.07123 0.50121 0.02712
 O148 O 0.03112 0.49707 0.07135
 O149 O 0.03487 0.47658 -0.00332
 O150 O 0.03461 0.52284 -0.00326
 O151 O -0.04887 0.53711 -0.05131
 O152 O -0.02514 0.56576 -0.02593
 C153 C -0.04195 0.56054 -0.04424
 O154 O -0.05137 0.46312 0.04257
 O155 O -0.02617 0.43440 0.01861
 C156 C -0.04434 0.43967 0.03562
 O157 O -0.04887 0.53681 0.04503
 O158 O -0.02512 0.56562 0.01969
 C159 C -0.04191 0.56028 0.03805
 O160 O -0.05147 0.46338 -0.04887
 O161 O -0.02623 0.43451 -0.02509
 C162 C -0.04447 0.43989 -0.04195
 Zr163 Zr -0.03659 0.50017 -0.03646
 O164 O -0.07803 0.50324 -0.03629
 O165 O -0.03647 0.49728 -0.07796
 Zr166 Zr -0.03661 0.49996 0.03004
 O167 O -0.07806 0.50300 0.02979
 O168 O -0.03663 0.49689 0.07154
 Zr169 Zr -0.00342 0.46107 -0.00327
 Zr170 Zr -0.00339 0.53897 -0.00320
 O171 O -0.04139 0.52285 -0.00318
 O172 O -0.04174 0.47671 -0.00322
 O173 O -0.00338 0.52349 -0.04160
 O174 O -0.00336 0.47718 0.03475
 O175 O -0.00337 0.47735 -0.04130
 O176 O -0.00337 0.52321 0.03513
 H177 H 0.04995 0.53476 -0.00323
 H178 H -0.00331 0.46530 0.05018
 H179 H -0.05673 0.53481 -0.00314
 H180 H -0.00333 0.46546 -0.05667
 H181 H 0.01871 0.51023 0.07837
 H182 H -0.02591 0.51148 0.07844
 H183 H -0.08490 0.48816 0.01936
 H184 H -0.08491 0.48857 -0.02558
 H185 H -0.02570 0.51189 -0.08484
 H186 H 0.01917 0.51211 -0.08485
 H187 H 0.07768 0.49047 -0.02262
 H188 H 0.07781 0.50118 0.04544
 O189 O 1.04854 -0.04523 0.46287
 O190 O 1.02499 -0.01962 0.43408
 C191 C 1.04172 -0.03803 0.43937
 O192 O 0.95526 -0.04260 0.53698
 O193 O 0.98060 -0.01896 0.56576
 C194 C 0.96233 -0.03577 0.56048
 O195 O 0.95779 -0.04510 0.46313
 O196 O 0.98135 -0.01965 0.43421
 C197 C 0.96457 -0.03796 0.43959
 O198 O 1.05132 -0.04278 0.53671
 O199 O 1.02618 -0.01894 0.56562
 C200 C 1.04437 -0.03586 0.56025
 Zr201 Zr 1.03649 -0.03020 0.49982
 O202 O 1.03651 -0.07163 0.50226
 O203 O 1.07793 -0.02988 0.49673
 Zr204 Zr 0.97021 -0.03032 0.50000
 O205 O 0.97297 -0.07165 0.50131
 O206 O 0.92877 -0.03155 0.49747
 O207 O 1.00330 -0.03524 0.47647
 O208 O 1.00337 -0.03507 0.52282
 O209 O 1.05121 0.04848 0.53675
 O210 O 1.02603 0.02463 0.56564
 C211 C 1.04421 0.04154 0.56028
 O212 O 0.95743 0.05095 0.46314
 O213 O 0.98125 0.02582 0.43423
 C214 C 0.96432 0.04398 0.43961
 O215 O 0.95517 0.04836 0.53701
 O216 O 0.98053 0.02456 0.56576
 C217 C 0.96225 0.04141 0.56050
 O218 O 1.04873 0.05105 0.46287
 O219 O 1.02489 0.02589 0.43412
 C220 C 1.04178 0.04408 0.43938
 Zr221 Zr 1.03639 0.03614 0.49983
 O222 O 1.03622 0.07754 0.50280
 O223 O 1.07783 0.03600 0.49675
 Zr224 Zr 0.96996 0.03608 0.50002
 O225 O 0.96999 0.07748 0.50299
 O226 O 0.92851 0.03590 0.49717
 Zr227 Zr 1.00318 0.00304 0.46087
 Zr228 Zr 1.00331 0.00287 0.53896
 O229 O 1.00320 0.04085 0.52273
 O230 O 1.00313 0.04130 0.47651
 O231 O 1.04161 0.00293 0.52323
 O232 O 0.96524 0.00291 0.47723
 O233 O 1.04119 0.00301 0.47698
 O234 O 0.96498 0.00283 0.52340
 H235 H 1.00340 -0.05043 0.53476
 H236 H 0.94981 0.00288 0.46540
 H237 H 1.00317 0.05619 0.53465
 H238 H 1.05652 0.00300 0.46499
 H239 H 0.92180 -0.01932 0.51083
 H240 H 0.92169 0.02531 0.51197
 H241 H 0.98065 0.08437 0.48827
 H242 H 1.02548 0.08442 0.48814
 H243 H 1.08472 0.02535 0.51147
 H244 H 1.08478 -0.01949 0.51161
 H245 H 1.02264 -0.07801 0.49029
 H246 H 0.95468 -0.07824 0.50137
 C247 C 1.15720 0.15951 0.22191
 C248 C 1.14742 0.15014 0.24136
 C249 C 1.13570 0.13881 0.26448
 C250 C 1.15023 0.12171 0.28034
 C251 C 1.13874 0.11037 0.30258
 C252 C 1.11252 0.11600 0.30926
 C253 C 1.09812 0.13334 0.29325
 C254 C 1.10965 0.14464 0.27101
 C255 C 1.10016 0.10363 0.33264
 C256 C 1.08336 0.11815 0.34909
 C257 C 1.07160 0.10638 0.37097
 C258 C 1.07647 0.07997 0.37669
 C259 C 1.09316 0.06537 0.36048
 C260 C 1.10495 0.07710 0.33861
 C261 C 1.06419 0.06772 0.39903
 C262 C 1.05395 0.05713 0.41758
 H263 H 1.17042 0.11711 0.27550
 H264 H 1.15044 0.09738 0.31469
 H265 H 1.07781 0.13780 0.29767
 H266 H 1.09820 0.15780 0.25881
 H267 H 1.07953 0.13868 0.34519
 H268 H 1.05873 0.11787 0.38342
 H269 H 1.09697 0.04488 0.36466
 H270 H 1.11748 0.06530 0.32613
 C271 C 0.84683 -0.15644 0.22575
 C272 C 0.85719 -0.14647 0.24453
 C273 C 0.86959 -0.13447 0.26686
 C274 C 0.86349 -0.14295 0.29231
 C275 C 0.87546 -0.13120 0.31401
 C276 C 0.89368 -0.11078 0.31051
 C277 C 0.89971 -0.10244 0.28483
 C278 C 0.88774 -0.11423 0.26316
 C279 C 0.90625 -0.09812 0.33354
 C280 C 0.90993 -0.07079 0.33413
 C281 C 0.92173 -0.05886 0.35580
 C282 C 0.93001 -0.07405 0.37717
 C283 C 0.92645 -0.10125 0.37680
 C284 C 0.91463 -0.11323 0.35514
 C285 C 0.94219 -0.06166 0.39940
 C286 C 0.95240 -0.05101 0.41787
 H287 H 0.84941 -0.15856 0.29539
 H288 H 0.87016 -0.13783 0.33354
 H289 H 0.91391 -0.08701 0.28147
 H290 H 0.89266 -0.10757 0.24354
 H291 H 0.90338 -0.05859 0.31797
 H292 H 0.92433 -0.03778 0.35592
 H293 H 0.93286 -0.11320 0.39321
 H294 H 0.91236 -0.13433 0.35513
 C295 C 0.84244 0.15524 0.77621
 C296 C 0.85267 0.14559 0.75716
 C297 C 0.86494 0.13400 0.73449
 C298 C 0.85014 0.12875 0.71196
 C299 C 0.86205 0.11737 0.68999
 C300 C 0.88895 0.11111 0.69026
 C301 C 0.90366 0.11650 0.71301
 C302 C 0.89171 0.12786 0.73497
 C303 C 0.90164 0.09897 0.66696
 C304 C 0.92690 0.10681 0.65899
 C305 C 0.93891 0.09524 0.63718
 C306 C 0.92586 0.07570 0.62305
 C307 C 0.90071 0.06780 0.63077
 C308 C 0.88865 0.07935 0.65257
 C309 C 0.93841 0.06362 0.60080
 C310 C 0.94915 0.05349 0.58230
 H311 H 0.82942 0.13348 0.71137
 H312 H 0.85028 0.11376 0.67266
 H313 H 0.92431 0.11158 0.71397
 H314 H 0.90332 0.13176 0.75234
 H315 H 0.93726 0.12209 0.66945
 H316 H 0.95837 0.10154 0.63135
 H317 H 0.89048 0.05261 0.62002
 H318 H 0.86935 0.07265 0.65841
 C319 C 1.15866 -0.15491 0.77620
 C320 C 1.14953 -0.14444 0.75700
 C321 C 1.13850 -0.13197 0.73415
 C322 C 1.13498 -0.14626 0.71097
 C323 C 1.12393 -0.13425 0.68888
 C324 C 1.11624 -0.10775 0.68968
 C325 C 1.12000 -0.09352 0.71304
 C326 C 1.13104 -0.10557 0.73512
 C327 C 1.10410 -0.09508 0.66636
 C328 C 1.11063 -0.06918 0.65936
 C329 C 1.09892 -0.05720 0.63758
 C330 C 1.08056 -0.07093 0.62252
 C331 C 1.07400 -0.09671 0.62926
 C332 C 1.08568 -0.10873 0.65101
 C333 C 1.06814 -0.05848 0.60038
 C334 C 1.05746 -0.04812 0.58196
 H335 H 1.14075 -0.16669 0.70999
 H336 H 1.12162 -0.14563 0.67109
 H337 H 1.11397 -0.07320 0.71440
 H338 H 1.13360 -0.09435 0.75299
 H339 H 1.12496 -0.05827 0.67059
 H340 H 1.10416 -0.03724 0.63252
 H341 H 1.05971 -0.10747 0.61781
 H342 H 1.07997 -0.12854 0.65610
 C343 C 0.22322 1.15762 1.15482
 C344 C 0.24223 1.14750 1.14498
 C345 C 0.26485 1.13538 1.13314
 C346 C 0.26258 1.11079 1.12122
 C347 C 0.28449 1.09899 1.10964
 C348 C 0.30901 1.11167 1.10985
 C349 C 0.31109 1.13639 1.12190
 C350 C 0.28913 1.14816 1.13345
 C351 C 0.33231 1.09910 1.09759
 C352 C 0.35701 1.10029 1.10987
 C353 C 0.37886 1.08819 1.09844
 C354 C 0.37632 1.07480 1.07460
 C355 C 0.35187 1.07362 1.06217
 C356 C 0.33000 1.08567 1.07357
 C357 C 0.39869 1.06203 1.06300
 C358 C 0.41727 1.05112 1.05321
 H359 H 0.24388 1.10070 1.12093
 H360 H 0.28234 1.07981 1.10084
 H361 H 0.32961 1.14678 1.12209
 H362 H 0.29108 1.16725 1.14255
 H363 H 0.35935 1.11020 1.12852
 H364 H 0.39768 1.08915 1.10827
 H365 H 0.34970 1.06335 1.04368
 H366 H 0.31134 1.08471 1.06346
 C367 C 0.22474 0.84223 0.84479
 C368 C 0.24392 0.85130 0.85519
 C369 C 0.26676 0.86227 0.86759
 C370 C 0.28158 0.88137 0.85454
 C371 C 0.30361 0.89228 0.86665
 C372 C 0.31111 0.88422 0.89203
 C373 C 0.29612 0.86494 0.90495
 C374 C 0.27410 0.85404 0.89279
 C375 C 0.33432 0.89606 0.90501
 C376 C 0.33359 0.90249 0.93189
 C377 C 0.35529 0.91408 0.94398
 C378 C 0.37798 0.91937 0.92940
 C379 C 0.37898 0.91290 0.90271
 C380 C 0.35731 0.90133 0.89058
 C381 C 0.40005 0.93190 0.94171
 C382 C 0.41839 0.94267 0.95198
 H383 H 0.27602 0.88794 0.83507
 H384 H 0.31452 0.90733 0.85634
 H385 H 0.30158 0.85810 0.92434
 H386 H 0.26281 0.83921 0.90303
 H387 H 0.31608 0.89901 0.94345
 H388 H 0.35428 0.91912 0.96464
 H389 H 0.39647 0.91689 0.89126
 H390 H 0.35860 0.89630 0.86995
 C391 C 0.77731 0.84385 1.16062
 C392 C 0.75792 0.85367 1.15124
 C393 C 0.73486 0.86544 1.13995
 C394 C 0.72536 0.88929 1.14968
 C395 C 0.70314 0.90089 1.13850
 C396 C 0.69009 0.88876 1.11742
 C397 C 0.69975 0.86473 1.10785
 C398 C 0.72199 0.85318 1.11904
 C399 C 0.66668 0.90121 1.10528
 C400 C 0.64507 0.88591 1.09753
 C401 C 0.62325 0.89760 1.08567
 C402 C 0.62271 0.92470 1.08141
 C403 C 0.64402 0.94012 1.08917
 C404 C 0.66586 0.92848 1.10105
 C405 C 0.60051 0.93664 1.06866
 C406 C 0.58206 0.94666 1.05774
 H407 H 0.73515 0.89892 1.16590
 H408 H 0.69600 0.91921 1.14652
 H409 H 0.69038 0.85509 1.09142
 H410 H 0.72923 0.83476 1.11130
 H411 H 0.64496 0.86493 1.10084
 H412 H 0.60684 0.88548 1.07977
 H413 H 0.64385 0.96112 1.08586
 H414 H 0.68231 0.94075 1.10647
 C415 C 0.77419 1.15314 0.84284
 C416 C 0.75522 1.14293 0.85262
 C417 C 0.73264 1.13074 0.86444
 C418 C 0.72481 1.10569 0.85647
 C419 C 0.70301 1.09375 0.86813
 C420 C 0.68873 1.10674 0.88791
 C421 C 0.69674 1.13195 0.89572
 C422 C 0.71855 1.14384 0.88406
 C423 C 0.66570 1.09402 0.90047
 C424 C 0.64300 1.10865 0.90629
 C425 C 0.62145 1.09674 0.91843
 C426 C 0.62229 1.07008 0.92490
 C427 C 0.64472 1.05531 0.91909
 C428 C 0.66629 1.06718 0.90694
 C429 C 0.60028 1.05795 0.93782
 C430 C 0.58194 1.04783 0.94882
 H431 H 0.73554 1.09540 0.84125
 H432 H 0.69714 1.07448 0.86147
 H433 H 0.68638 1.14230 0.91114
 H434 H 0.72451 1.16319 0.89043
 H435 H 0.64181 1.12925 0.90124
 H436 H 0.60416 1.10833 0.92279
 H437 H 0.64561 1.03468 0.92411
 H438 H 0.68359 1.05547 0.90301
 C439 C 0.15650 0.22557 0.15312
 C440 C 0.14667 0.24451 0.14288
 C441 C 0.13484 0.26706 0.13065
 C442 C 0.13334 0.26872 0.10324
 C443 C 0.12162 0.29051 0.09134
 C444 C 0.11121 0.31094 0.10674
 C445 C 0.11291 0.30910 0.13429
 C446 C 0.12465 0.28730 0.14614
 C447 C 0.09848 0.33395 0.09415
 C448 C 0.10918 0.34521 0.07125
 C449 C 0.09707 0.36679 0.05935
 C450 C 0.07413 0.37739 0.07016
 C451 C 0.06336 0.36636 0.09294
 C452 C 0.07543 0.34479 0.10487
 C453 C 0.06151 0.39945 0.05782
 C454 C 0.05074 0.41784 0.04754
 H455 H 0.14111 0.25312 0.09107
 H456 H 0.12032 0.29118 0.07012
 H457 H 0.10540 0.32465 0.14667
 H458 H 0.12577 0.28623 0.16738
 H459 H 0.12707 0.33752 0.06271
 H460 H 0.10559 0.37521 0.04174
 H461 H 0.04555 0.37435 0.10141
 H462 H 0.06652 0.33636 0.12226
 C463 C -0.15924 0.22289 -0.15678
 C464 C -0.14998 0.24222 -0.14685
 C465 C -0.13882 0.26519 -0.13490
 C466 C -0.12855 0.26381 -0.10945
 C467 C -0.11750 0.28604 -0.09787
 C468 C -0.11658 0.30999 -0.11164
 C469 C -0.12703 0.31118 -0.13720
 C470 C -0.13808 0.28892 -0.14874
 C471 C -0.10454 0.33352 -0.09946
 C472 C -0.08848 0.35033 -0.11440
 C473 C -0.07678 0.37222 -0.10281
 C474 C -0.08100 0.37764 -0.07619
 C475 C -0.09707 0.36114 -0.06120
 C476 C -0.10878 0.33922 -0.07274
 C477 C -0.06844 0.39982 -0.06416
 C478 C -0.05765 0.41824 -0.05405
 H479 H -0.12895 0.24552 -0.09860
 H480 H -0.10930 0.28440 -0.07832
 H481 H -0.12690 0.32940 -0.14817
 H482 H -0.14604 0.29022 -0.16843
 H483 H -0.08456 0.34628 -0.13491
 H484 H -0.06428 0.38481 -0.11457
 H485 H -0.10050 0.36517 -0.04058
 H486 H -0.12131 0.32685 -0.06081
 C487 C 0.15485 0.77586 -0.15829
 C488 C 0.14442 0.75672 -0.14910
 C489 C 0.13199 0.73393 -0.13798
 C490 C 0.14436 0.71994 -0.11781
 C491 C 0.13224 0.69792 -0.10682
 C492 C 0.10753 0.68960 -0.11587
 C493 C 0.09527 0.70378 -0.13620
 C494 C 0.10745 0.72579 -0.14718
 C495 C 0.09454 0.66635 -0.10400
 C496 C 0.06739 0.66651 -0.09887
 C497 C 0.05528 0.64480 -0.08725
 C498 C 0.07012 0.62264 -0.08065
 C499 C 0.09709 0.62221 -0.08583
 C500 C 0.10924 0.64390 -0.09743
 C501 C 0.05777 0.60053 -0.06813
 C502 C 0.04750 0.58213 -0.05738
 H503 H 0.16332 0.72613 -0.11049
 H504 H 0.14201 0.68765 -0.09096
 H505 H 0.07641 0.69768 -0.14381
 H506 H 0.09773 0.73645 -0.16283
 H507 H 0.05561 0.68361 -0.10339
 H508 H 0.03440 0.64537 -0.08322
 H509 H 0.10874 0.60514 -0.08083
 H510 H 0.13009 0.64304 -0.10145
 C511 C -0.15445 0.77551 0.15920
 C512 C -0.14485 0.75633 0.14924
 C513 C -0.13331 0.73353 0.13725
 C514 C -0.14611 0.72097 0.11648
 C515 C -0.13478 0.69899 0.10461
 C516 C -0.11044 0.68927 0.11338
 C517 C -0.09777 0.70200 0.13434
 C518 C -0.10915 0.72397 0.14619
 C519 C -0.09827 0.66610 0.10059
 C520 C -0.07109 0.66540 0.09563
 C521 C -0.05970 0.64372 0.08327
 C522 C -0.07528 0.62245 0.07573
 C523 C -0.10230 0.62289 0.08068
 C524 C -0.11374 0.64456 0.09302
 C525 C -0.06359 0.60035 0.06264
 C526 C -0.05375 0.58195 0.05150
 H527 H -0.16477 0.72826 0.10935
 H528 H -0.14484 0.68986 0.08830
 H529 H -0.07920 0.69480 0.14175
 H530 H -0.09911 0.73350 0.16230
 H531 H -0.05871 0.68181 0.10090
 H532 H -0.03878 0.64362 0.07945
 H533 H -0.11453 0.60651 0.07497
 H534 H -0.13464 0.64435 0.09687
 C535 C 1.15997 0.15733 0.77669
 C536 C 1.15054 0.14757 0.75731
 C537 C 1.13913 0.13586 0.73430
 C538 C 1.11977 0.14929 0.72016
 C539 C 1.10835 0.13776 0.69805
 C540 C 1.11617 0.11261 0.68979
 C541 C 1.13577 0.09934 0.70406
 C542 C 1.14714 0.11090 0.72617
 C543 C 1.10374 0.10017 0.66655
 C544 C 1.11890 0.08575 0.64849
 C545 C 1.10710 0.07392 0.62673
 C546 C 1.08004 0.07633 0.62275
 C547 C 1.06480 0.09064 0.64058
 C548 C 1.07655 0.10249 0.66233
 C549 C 1.06779 0.06402 0.60049
 C550 C 1.05722 0.05374 0.58202
 H551 H 1.11347 0.16865 0.72624
 H552 H 1.09358 0.14861 0.68729
 H553 H 1.14197 0.07984 0.69839
 H554 H 1.16206 0.10031 0.73703
 H555 H 1.13991 0.08386 0.65102
 H556 H 1.11908 0.06292 0.61301
 H557 H 1.04381 0.09254 0.63774
 H558 H 1.06429 0.11314 0.67606
 C559 C 0.84377 -0.15425 0.77462
 C560 C 0.85364 -0.14404 0.75565
 C561 C 0.86553 -0.13182 0.73309
 C562 C 0.85798 -0.10653 0.72551
 C563 C 0.86972 -0.09455 0.70374
 C564 C 0.88923 -0.10774 0.68927
 C565 C 0.89662 -0.13320 0.69701
 C566 C 0.88484 -0.14514 0.71877
 C567 C 0.90194 -0.09495 0.66631
 C568 C 0.92911 -0.09761 0.66206
 C569 C 0.94109 -0.08556 0.64047
 C570 C 0.92611 -0.07072 0.62284
 C571 C 0.89908 -0.06795 0.62687
 C572 C 0.88705 -0.07997 0.64847
 C573 C 0.93857 -0.05831 0.60069
 C574 C 0.94926 -0.04798 0.58225
 H575 H 0.84311 -0.09601 0.73651
 H576 H 0.86385 -0.07482 0.69848
 H577 H 0.91131 -0.14400 0.68608
 H578 H 0.89078 -0.16476 0.72443
 H579 H 0.94116 -0.10869 0.67563
 H580 H 0.96205 -0.08776 0.63758
 H581 H 0.88730 -0.05655 0.61331
 H582 H 0.86606 -0.07782 0.65103
 C583 C 1.15486 -0.15868 0.22379
 C584 C 1.14530 -0.14852 0.24293
 C585 C 1.13384 -0.13630 0.26569
 C586 C 1.14315 -0.11201 0.27434
 C587 C 1.13186 -0.09997 0.29628
 C588 C 1.11108 -0.11210 0.30988
 C589 C 1.10193 -0.13659 0.30108
 C590 C 1.11324 -0.14858 0.27912
 C591 C 1.09890 -0.09918 0.33302
 C592 C 1.09175 -0.11392 0.35532
 C593 C 1.08026 -0.10169 0.37706
 C594 C 1.07573 -0.07462 0.37679
 C595 C 1.08276 -0.05980 0.35472
 C596 C 1.09428 -0.07197 0.33298
 C597 C 1.06379 -0.06201 0.39908
 C598 C 1.05374 -0.05120 0.41759
 H599 H 1.15913 -0.10237 0.26412
 H600 H 1.13957 -0.08131 0.30277
 H601 H 1.08576 -0.14626 0.31092
 H602 H 1.10584 -0.16735 0.27253
 H603 H 1.09536 -0.13483 0.35608
 H604 H 1.07494 -0.11334 0.39408
 H605 H 1.07927 -0.03885 0.35428
 H606 H 1.09922 -0.06015 0.31598
 C607 C 0.84413 0.15816 0.22425
 C608 C 0.85470 0.14889 0.24332
 C609 C 0.86737 0.13774 0.26600
 C610 C 0.89081 0.12372 0.26311
 C611 C 0.90307 0.11271 0.28509
 C612 C 0.89200 0.11557 0.31028
 C613 C 0.86845 0.12978 0.31297
 C614 C 0.85624 0.14079 0.29096
 C615 C 0.90484 0.10359 0.33358
 C616 C 0.88973 0.09127 0.35320
 C617 C 0.90185 0.07964 0.37493
 C618 C 0.92920 0.08019 0.37738
 C619 C 0.94440 0.09250 0.35805
 C620 C 0.93232 0.10413 0.33629
 C621 C 0.94165 0.06774 0.39949
 C622 C 0.95203 0.05705 0.41790
 H623 H 0.89956 0.12119 0.24386
 H624 H 0.92097 0.10160 0.28232
 H625 H 0.85962 0.13261 0.33213
 H626 H 0.83813 0.15167 0.29342
 H627 H 0.86858 0.09022 0.35151
 H628 H 0.88991 0.07006 0.38972
 H629 H 0.96558 0.09305 0.35976
 H630 H 0.94446 0.11374 0.32169
 C631 C 0.15769 0.22459 -0.15594
 C632 C 0.14758 0.24360 -0.14615
 C633 C 0.13543 0.26619 -0.13435
 C634 C 0.14807 0.29053 -0.13499
 C635 C 0.13628 0.31244 -0.12343
 C636 C 0.11168 0.31026 -0.11102
 C637 C 0.09913 0.28570 -0.11051
 C638 C 0.11094 0.26383 -0.12210
 C639 C 0.09914 0.33348 -0.09866
 C640 C 0.08600 0.33112 -0.07442
 C641 C 0.07398 0.35291 -0.06291
 C642 C 0.07489 0.37734 -0.07544
 C643 C 0.08799 0.37994 -0.09950
 C644 C 0.10006 0.35816 -0.11104
 C645 C 0.06211 0.39962 -0.06372
 C646 C 0.05116 0.41808 -0.05379
 H647 H 0.16707 0.29255 -0.14436
 H648 H 0.14658 0.33099 -0.12387
 H649 H 0.08003 0.28346 -0.10143
 H650 H 0.10095 0.24510 -0.12156
 H651 H 0.08526 0.31247 -0.06424
 H652 H 0.06394 0.35070 -0.04426
 H653 H 0.08873 0.39874 -0.10941
 H654 H 0.10974 0.36054 -0.12985
 C655 C -0.15849 0.22463 0.15593
 C656 C -0.14916 0.24374 0.14556
 C657 C -0.13778 0.26646 0.13322
 C658 C -0.15065 0.27882 0.11230
 C659 C -0.13939 0.30070 0.10013
 C660 C -0.11506 0.31047 0.10872
 C661 C -0.10234 0.29795 0.12984
 C662 C -0.11364 0.27610 0.14198
 C663 C -0.10288 0.33350 0.09563
 C664 C -0.07569 0.33407 0.09076
 C665 C -0.06419 0.35575 0.07850
 C666 C -0.07966 0.37714 0.07094
 C667 C -0.10673 0.37678 0.07564
 C668 C -0.11829 0.35510 0.08789
 C669 C -0.06766 0.39943 0.05841
 C670 C -0.05724 0.41793 0.04797
 H671 H -0.16931 0.27146 0.10531
 H672 H -0.14950 0.30970 0.08372
 H673 H -0.08377 0.30521 0.13714
 H674 H -0.10354 0.26672 0.15820
 H675 H -0.06337 0.31761 0.09613
 H676 H -0.04323 0.35579 0.07488
 H677 H -0.11887 0.39328 0.06993
 H678 H -0.13920 0.35538 0.09165
 C679 C -0.15645 0.77780 -0.16029
 C680 C -0.14666 0.75841 -0.15087
 C681 C -0.13490 0.73536 -0.13953
 C682 C -0.11115 0.72571 -0.14944
 C683 C -0.09958 0.70348 -0.13823
 C684 C -0.11164 0.69059 -0.11694
 C685 C -0.13556 0.70041 -0.10718
 C686 C -0.14709 0.72264 -0.11841
 C687 C -0.09924 0.66715 -0.10479
 C688 C -0.11464 0.64568 -0.09677
 C689 C -0.10300 0.62381 -0.08495
 C690 C -0.07584 0.62308 -0.08100
 C691 C -0.06032 0.64425 -0.08903
 C692 C -0.07192 0.66614 -0.10087
 C693 C -0.06394 0.60081 -0.06831
 C694 C -0.05394 0.58231 -0.05746
 H695 H -0.10158 0.73538 -0.16582
 H696 H -0.08134 0.69622 -0.14640
 H697 H -0.14515 0.69115 -0.09059
 H698 H -0.16543 0.73000 -0.11052
 H699 H -0.13567 0.64571 -0.09983
 H700 H -0.11520 0.60750 -0.07883
 H701 H -0.03928 0.64393 -0.08596
 H702 H -0.05956 0.68248 -0.10651
 C703 C 0.15230 0.77363 0.15691
 C704 C 0.14201 0.75475 0.14715
 C705 C 0.12977 0.73224 0.13538
 C706 C 0.10510 0.72387 0.14407
 C707 C 0.09314 0.70209 0.13251
 C708 C 0.10576 0.68839 0.11209
 C709 C 0.13059 0.69696 0.10353
 C710 C 0.14249 0.71875 0.11510
 C711 C 0.09305 0.66536 0.09966
 C712 C 0.10792 0.64309 0.09293
 C713 C 0.09602 0.62157 0.08087
 C714 C 0.06913 0.62200 0.07538
 C715 C 0.05412 0.64398 0.08214
 C716 C 0.06597 0.66552 0.09421
 C717 C 0.05704 0.60006 0.06246
 C718 C 0.04697 0.58178 0.05142
 H719 H 0.09511 0.73414 0.15980
 H720 H 0.07418 0.69578 0.13975
 H721 H 0.14064 0.68707 0.08762
 H722 H 0.16156 0.72513 0.10816
 H723 H 0.12872 0.64222 0.09719
 H724 H 0.10781 0.60462 0.07577
 H725 H 0.03329 0.64454 0.07789
 H726 H 0.05406 0.68249 0.09885
 C727 C 0.22589 1.15629 0.84550
 C728 C 0.24470 1.14635 0.85587
 C729 C 0.26705 1.13438 0.86833
 C730 C 0.26427 1.11046 0.88155
 C731 C 0.28593 1.09881 0.89371
 C732 C 0.31071 1.11094 0.89281
 C733 C 0.31330 1.13499 0.87945
 C734 C 0.29160 1.14663 0.86732
 C735 C 0.33373 1.09852 0.90568
 C736 C 0.35845 1.09861 0.89331
 C737 C 0.38005 1.08665 0.90532
 C738 C 0.37724 1.07449 0.92983
 C739 C 0.35278 1.07439 0.94235
 C740 C 0.33115 1.08632 0.93038
 C741 C 0.39937 1.06182 0.94199
 C742 C 0.41778 1.05100 0.95218
 H743 H 0.24537 1.10078 0.88239
 H744 H 0.28338 1.08012 0.90352
 H745 H 0.33203 1.14497 0.87869
 H746 H 0.29395 1.16519 0.85720
 H747 H 0.36099 1.10754 0.87415
 H748 H 0.39888 1.08674 0.89541
 H749 H 0.35040 1.06508 0.96136
 H750 H 0.31247 1.08622 0.94055
 C751 C 0.22251 0.83974 1.15652
 C752 C 0.24190 0.84901 1.14661
 C753 C 0.26497 0.86022 1.13475
 C754 C 0.27308 0.85208 1.10977
 C755 C 0.29530 0.86323 1.09811
 C756 C 0.30971 0.88268 1.11131
 C757 C 0.30144 0.89065 1.13646
 C758 C 0.27921 0.87949 1.14807
 C759 C 0.33313 0.89480 1.09883
 C760 C 0.35567 0.90032 1.11377
 C761 C 0.37752 0.91213 1.10210
 C762 C 0.37716 0.91858 1.07536
 C763 C 0.35490 0.91304 1.06028
 C764 C 0.33303 0.90121 1.07191
 C765 C 0.39941 0.93133 1.06350
 C766 C 0.41788 0.94226 1.05354
 H767 H 0.26223 0.83713 1.09931
 H768 H 0.30135 0.85645 1.07887
 H769 H 0.31189 0.90583 1.14697
 H770 H 0.27305 0.88600 1.16738
 H771 H 0.35648 0.89531 1.13445
 H772 H 0.39467 0.91631 1.11394
 H773 H 0.35437 0.91806 1.03959
 H774 H 0.31587 0.89753 1.05996
 C775 C 0.77485 1.15497 1.15892
 C776 C 0.75571 1.14461 1.14971
 C777 C 0.73292 1.13225 1.13859
 C778 C 0.72470 1.10773 1.14781
 C779 C 0.70271 1.09561 1.13681
 C780 C 0.68864 1.10789 1.11643
 C781 C 0.69705 1.13258 1.10735
 C782 C 0.71904 1.14465 1.11836
 C783 C 0.66543 1.09495 1.10453
 C784 C 0.64302 1.10967 1.09785
 C785 C 0.62137 1.09756 1.08620
 C786 C 0.62181 1.07062 1.08108
 C787 C 0.64392 1.05577 1.08780
 C788 C 0.66559 1.06783 1.09946
 C789 C 0.59977 1.05832 1.06848
 C790 C 0.58145 1.04806 1.05765
 H791 H 0.73527 1.09799 1.16350
 H792 H 0.69654 1.07676 1.14445
 H793 H 0.68686 1.14237 1.09145
 H794 H 0.72530 1.16360 1.11101
 H795 H 0.64215 1.13050 1.10182
 H796 H 0.60433 1.10924 1.08111
 H797 H 0.64450 1.03491 1.08382
 H798 H 0.68266 1.05603 1.10407
 C799 C 0.77632 0.84532 0.84205
 C800 C 0.75732 0.85515 0.85218
 C801 C 0.73472 0.86697 0.86436
 C802 C 0.71080 0.86811 0.85093
 C803 C 0.68888 0.87967 0.86276
 C804 C 0.69063 0.89029 0.88821
 C805 C 0.71479 0.88904 0.90154
 C806 C 0.73666 0.87745 0.88968
 C807 C 0.66740 0.90260 0.90082
 C808 C 0.64235 0.89128 0.89829
 C809 C 0.62055 0.90274 0.91044
 C810 C 0.62348 0.92566 0.92522
 C811 C 0.64827 0.93714 0.92775
 C812 C 0.67009 0.92571 0.91565
 C813 C 0.60113 0.93728 0.93803
 C814 C 0.58256 0.94708 0.94896
 H815 H 0.70911 0.86012 0.83129
 H816 H 0.67066 0.88062 0.85188
 H817 H 0.71668 0.89671 0.92127
 H818 H 0.75508 0.87662 0.90027
 H819 H 0.63969 0.87333 0.88728
 H820 H 0.60145 0.89365 0.90842
 H821 H 0.65074 0.95492 0.93910
 H822 H 0.68903 0.93509 0.91766
   
