data_POSCAR
  _audit_creation_date              2014-09-24
  _audit_creation_method            'ToBaCCo'
  _symmetry_space_group_name_H-M    'P1'
  _symmetry_Int_Tables_number       1
  _symmetry_cell_setting            triclinic
  loop_
  _symmetry_equiv_pos_as_xyz
 x,y,z
_cell_length_a 23.9231
_cell_length_b 23.5506
_cell_length_c 38.0340
_cell_angle_alpha 99.752900
_cell_angle_beta 86.730700
_cell_angle_gamma 76.600600
loop_
  _atom_site_label
  _atom_site_type_symbol
  _atom_site_fract_x
  _atom_site_fract_y
  _atom_site_fract_z
C1 C -0.00792 0.64817 0.99633
 C2 C -0.02159 0.63593 1.03030
 C3 C -0.03856 0.58278 1.03168
 C4 C -0.03661 0.54012 1.00026
 C5 C -0.02311 0.55481 0.96676
 C6 C -0.01132 0.60990 0.96431
 C7 C -0.04543 0.47932 1.00246
 C8 C -0.05785 0.44213 0.97207
 C9 C -0.05855 0.38279 0.97268
 C10 C -0.05215 0.36198 1.00493
 C11 C -0.04265 0.39839 1.03589
 C12 C -0.03787 0.45615 1.03435
 H13 H 0.00253 0.69006 0.99476
 H14 H -0.05132 0.57350 1.05722
 H15 H -0.01846 0.52228 0.94253
 H16 H -0.06688 0.45852 0.94766
 H17 H -0.05321 0.31649 1.00586
 H18 H -0.02557 0.48117 1.05785
 C19 C 0.36853 -0.03191 0.49497
 C20 C 0.39862 -0.04407 0.52437
 C21 C 0.45603 -0.03925 0.52458
 C22 C 0.48245 -0.01772 0.49702
 C23 C 0.45015 -0.00465 0.46806
 C24 C 0.39413 -0.01307 0.46658
 C25 C 0.54185 -0.00623 0.49932
 C26 C 0.57406 0.00107 0.46870
 C27 C 0.62568 0.01989 0.47153
 C28 C 0.64746 0.02594 0.50517
 C29 C 0.62077 0.01164 0.53526
 C30 C 0.56619 -0.00067 0.53244
 H31 H 0.32440 -0.03612 0.49441
 H32 H 0.47935 -0.05274 0.54644
 H33 H 0.46664 0.01441 0.44704
 H34 H 0.55791 -0.00560 0.44291
 H35 H 0.68846 0.03769 0.50718
 H36 H 0.54193 -0.00350 0.55647
 C37 C 0.12094 0.01019 0.28216
 H38 H 0.11911 -0.02904 0.26331
 C39 C 0.16408 0.00709 0.30566
 H40 H 0.19507 -0.03478 0.30496
 C41 C 0.08170 0.11201 0.30728
 H42 H 0.04873 0.15249 0.30811
 C43 C 0.12328 0.11064 0.33150
 H44 H 0.12252 0.15044 0.35075
 N45 N 0.07967 0.06165 0.28437
 C46 C 0.01465 0.00580 0.18921
 H47 H 0.00978 0.04914 0.18236
 C48 C 0.01612 -0.04234 0.16213
 H49 H 0.01233 -0.03480 0.13498
 C50 C 0.02099 -0.05543 0.23295
 H51 H 0.02203 -0.05980 0.26078
 C52 C 0.02236 -0.10521 0.20645
 H53 H 0.02513 -0.14806 0.21394
 Zn54 Zn 0.01331 0.06777 0.25894
 N55 N 0.01799 -0.00139 0.22382
 C56 C 0.06037 0.13116 0.21627
 N57 N 0.00981 0.13261 0.23504
 C58 C -0.03973 0.17337 0.23248
 C59 C -0.04029 0.21178 0.20802
 C60 C 0.06164 0.16819 0.19152
 C61 C -0.04296 0.07617 0.32679
 C62 C -0.08824 0.07998 0.35229
 C63 C -0.15337 0.08566 0.30612
 C64 C -0.10643 0.08223 0.28127
 N65 N -0.05253 0.07815 0.29208
 H66 H 0.09907 0.09828 0.21883
 H67 H -0.07939 0.17388 0.24776
 H68 H -0.08057 0.24166 0.20455
 H69 H 0.10178 0.16428 0.17555
 H70 H 0.00012 0.06985 0.33488
 H71 H -0.07872 0.07675 0.37947
 H72 H -0.19599 0.08856 0.29725
 H73 H -0.11279 0.08172 0.25330
 C74 C 0.02081 -0.09898 0.17041
 C75 C 0.16393 0.05721 0.33161
 C76 C -0.14446 0.08524 0.34226
 C77 C 0.01040 0.20735 0.18610
 C78 C -0.02218 0.05134 0.76670
 H79 H -0.01933 0.05480 0.73868
 C80 C -0.03752 0.10289 0.79322
 H81 H -0.04594 0.14602 0.78546
 C82 C -0.01592 -0.00899 0.81093
 H83 H -0.00805 -0.05246 0.81795
 C84 C -0.03135 0.04108 0.83813
 H85 H -0.03334 0.03495 0.86570
 N86 N -0.01147 -0.00324 0.77597
 C87 C 0.09591 -0.13505 0.68866
 H88 H 0.07295 -0.16965 0.68831
 C89 C 0.14344 -0.14308 0.66373
 H90 H 0.15730 -0.18447 0.64461
 C91 C 0.10464 -0.03868 0.71378
 H92 H 0.08898 0.00215 0.73307
 C93 C 0.15270 -0.04499 0.68940
 H94 H 0.17328 -0.00850 0.68995
 Zn95 Zn 0.00516 -0.07317 0.74009
 N96 N 0.07613 -0.08264 0.71209
 C97 C -0.04150 -0.06691 0.67456
 N98 N -0.05570 -0.06556 0.70987
 C99 C -0.11201 -0.05140 0.72382
 C100 C -0.15649 -0.03631 0.70203
 C101 C -0.08419 -0.05216 0.65207
 C102 C 0.06368 -0.15447 0.77739
 C103 C 0.07079 -0.19408 0.80102
 C104 C -0.02555 -0.20597 0.79284
 C105 C -0.03093 -0.16575 0.76922
 N106 N 0.01281 -0.13952 0.76301
 H107 H 0.00306 -0.07697 0.66381
 H108 H -0.12233 -0.04924 0.75215
 H109 H -0.20103 -0.02332 0.71360
 H110 H -0.07148 -0.05309 0.62415
 H111 H 0.09761 -0.13269 0.77219
 H112 H 0.11078 -0.20335 0.81338
 H113 H -0.06182 -0.22389 0.79935
 H114 H -0.07107 -0.15304 0.75759
 C115 C 0.17125 -0.09685 0.66309
 C116 C -0.04300 0.09805 0.82949
 C117 C 0.02495 -0.21837 0.81019
 C118 C -0.14246 -0.03482 0.66591
 C119 C 0.01731 -0.23849 0.08507
 C120 C -0.00758 -0.23763 0.11938
 N121 N -0.03578 -0.28000 0.12431
 C122 C -0.04062 -0.32288 0.09642
 C123 C -0.01697 -0.32292 0.06138
 N124 N 0.01168 -0.28030 0.05737
 N125 N 0.04597 -0.19695 0.07966
 C126 C 0.04970 -0.15330 0.10700
 C127 C 0.02262 -0.15023 0.14137
 N128 N -0.00472 -0.19337 0.14686
 H129 H -0.06462 -0.35447 0.10187
 H130 H 0.07317 -0.12100 0.10175
 C131 C 0.00163 0.29048 0.09565
 C132 C -0.02549 0.32250 0.12920
 N133 N -0.05557 0.37990 0.13207
 C134 C -0.06022 0.40645 0.10283
 C135 C -0.03448 0.37374 0.06902
 N136 N -0.00401 0.31649 0.06648
 N137 N 0.03216 0.23343 0.09254
 C138 C 0.03671 0.20657 0.12146
 C139 C 0.00877 0.23784 0.15511
 N140 N -0.02197 0.29531 0.15814
 H141 H -0.08526 0.45188 0.10573
 H142 H 0.06053 0.16060 0.11796
 C143 C 0.29144 -0.09547 0.57731
 C144 C 0.29732 -0.06960 0.61249
 N145 N 0.33945 -0.04020 0.61856
 C146 C 0.37524 -0.03448 0.59093
 C147 C 0.36782 -0.05819 0.55543
 N148 N 0.32615 -0.08858 0.54972
 N149 N 0.24909 -0.12434 0.57106
 C150 C 0.21166 -0.12787 0.59836
 C151 C 0.21597 -0.10027 0.63365
 N152 N 0.25915 -0.07193 0.63976
 H153 H 0.40706 -0.00904 0.59655
 H154 H 0.17730 -0.14964 0.59221
 C155 C -0.26409 0.01723 0.59389
 C156 C -0.27741 -0.01434 0.61993
 N157 N -0.32741 -0.03234 0.61960
 C158 C -0.36391 -0.02162 0.59387
 C159 C -0.34906 0.00743 0.56626
 N160 N -0.29961 0.02676 0.56798
 N161 N -0.21419 0.03499 0.59353
 C162 C -0.17585 0.02103 0.61749
 C163 C -0.18725 -0.01340 0.64265
 N164 N -0.23866 -0.02927 0.64376
 H165 H -0.40178 -0.03912 0.59416
 H166 H -0.13632 0.03585 0.61645
 C167 C 0.02461 -0.30063 0.90072
 C168 C 0.00347 -0.32429 0.86941
 N169 N -0.01914 -0.37221 0.86913
 C170 C -0.02236 -0.39698 0.89889
 C171 C -0.00334 -0.37162 0.93111
 N172 N 0.02010 -0.32421 0.93046
 N173 N 0.04745 -0.25300 0.90147
 C174 C 0.04973 -0.22737 0.87226
 C175 C 0.02725 -0.24971 0.84087
 N176 N 0.00446 -0.29791 0.84023
 H177 H -0.04260 -0.43368 0.89753
 H178 H 0.06702 -0.18850 0.87403
 C179 C -0.07861 0.24725 0.91434
 C180 C -0.05039 0.24916 0.88139
 N181 N -0.03002 0.29736 0.87785
 C182 C -0.03540 0.34312 0.90603
 C183 C -0.06153 0.34017 0.93964
 N184 N -0.08306 0.29226 0.94256
 N185 N -0.09835 0.19896 0.91822
 C186 C -0.08974 0.15155 0.89092
 C187 C -0.05891 0.15177 0.85826
 N188 N -0.04096 0.20141 0.85416
 H189 H -0.01657 0.37964 0.90263
 H190 H -0.10628 0.11386 0.89494
 C191 C -0.26900 0.07570 0.42284
 C192 C -0.27212 0.05103 0.38708
 N193 N -0.31206 0.01929 0.37928
 C194 C -0.34821 0.01014 0.40569
 C195 C -0.34299 0.03220 0.44207
 N196 N -0.30361 0.06519 0.44904
 N197 N -0.22984 0.10785 0.43113
 C198 C -0.19194 0.11479 0.40528
 C199 C -0.19200 0.08691 0.36947
 N200 N -0.23321 0.05661 0.36110
 H201 H -0.37780 -0.01702 0.39804
 H202 H -0.16103 0.14055 0.41285
 C203 C 0.27007 0.03855 0.41615
 C204 C 0.29350 0.01621 0.38043
 N205 N 0.35027 -0.01263 0.37336
 C206 C 0.38444 -0.02071 0.40045
 C207 C 0.36048 -0.00006 0.43627
 N208 N 0.30373 0.02928 0.44310
 N209 N 0.21369 0.06805 0.42341
 C210 C 0.17935 0.07600 0.39656
 C211 C 0.20207 0.05249 0.36072
 N212 N 0.25887 0.02294 0.35351
 H213 H 0.42927 -0.04474 0.39414
 H214 H 0.13426 0.09891 0.40321
   
