data_POSCAR
  _audit_creation_date              2014-09-24
  _audit_creation_method            'ToBaCCo'
  _symmetry_space_group_name_H-M    'P1'
  _symmetry_Int_Tables_number       1
  _symmetry_cell_setting            triclinic
  loop_
  _symmetry_equiv_pos_as_xyz
 x,y,z
_cell_length_a 23.3865
_cell_length_b 25.2907
_cell_length_c 24.5911
_cell_angle_alpha 90.199300
_cell_angle_beta 91.058700
_cell_angle_gamma 89.931400
loop_
  _atom_site_label
  _atom_site_type_symbol
  _atom_site_fract_x
  _atom_site_fract_y
  _atom_site_fract_z
C1 C 0.25304 0.24854 0.24505
 C2 C 0.75627 0.74876 0.25813
 C3 C 0.74463 0.24881 0.75015
 C4 C 0.24840 0.75031 0.75359
 C5 C 0.08471 0.06976 0.01803
 H6 H 0.09479 0.06106 -0.02382
 C7 C 0.11846 0.10543 0.04797
 H8 H 0.15431 0.12413 0.02861
 C9 C 0.02437 0.05713 0.09315
 H10 H -0.01311 0.03917 0.11023
 C11 C 0.05689 0.09234 0.12455
 H12 H 0.04486 0.09968 0.16620
 N13 N 0.03967 0.04534 0.04145
 C14 C 0.01902 -0.07193 -0.08603
 H15 H -0.02528 -0.06440 -0.09682
 C16 C 0.05148 -0.10534 -0.11840
 H17 H 0.03168 -0.12148 -0.15488
 C18 C 0.09779 -0.05833 -0.02585
 H19 H 0.11524 -0.04043 0.01083
 C20 C 0.13148 -0.09278 -0.05632
 H21 H 0.17448 -0.10108 -0.04213
 Zn22 Zn -0.00446 -0.00335 -0.00006
 N23 N 0.04286 -0.04808 -0.04158
 C24 C -0.03838 0.04728 -0.09828
 N25 N -0.05333 0.03706 -0.04616
 C26 C -0.10147 0.05828 -0.02487
 C27 C -0.13837 0.08872 -0.05718
 C28 C -0.07381 0.07795 -0.13194
 C29 C -0.02053 -0.06710 0.09171
 C30 C -0.05054 -0.09820 0.12828
 C31 C -0.13342 -0.09253 0.06862
 C32 C -0.10207 -0.06085 0.03361
 N33 N -0.04709 -0.04763 0.04635
 H34 H 0.00157 0.03241 -0.11361
 H35 H -0.11137 0.05132 0.01729
 H36 H -0.17713 0.10415 -0.03967
 H37 H -0.06052 0.08619 -0.17297
 H38 H 0.02378 -0.05737 0.10016
 H39 H -0.02910 -0.11103 0.16522
 H40 H -0.17692 -0.10287 0.05725
 H41 H -0.12160 -0.04719 -0.00396
 C42 C 0.10866 -0.11666 -0.10373
 C43 C 0.10527 0.11646 0.10241
 C44 C -0.10804 -0.11099 0.11728
 C45 C -0.12488 0.09886 -0.11163
 C46 C 0.08140 0.57638 0.52648
 H47 H 0.07965 0.58048 0.48270
 C48 C 0.11336 0.61222 0.55806
 H49 H 0.13650 0.64372 0.53848
 C50 C 0.05244 0.53119 0.60554
 H51 H 0.02727 0.50103 0.62448
 C52 C 0.08483 0.56522 0.63842
 H53 H 0.08476 0.56024 0.68215
 N54 N 0.05217 0.53646 0.55047
 C55 C 0.03160 0.40503 0.43668
 H56 H -0.01367 0.39797 0.44115
 C57 C 0.06385 0.37163 0.40393
 H58 H 0.04315 0.33905 0.38276
 C59 C 0.11347 0.45689 0.45798
 H60 H 0.13268 0.48994 0.47934
 C61 C 0.14706 0.42511 0.42467
 H62 H 0.19205 0.43401 0.42045
 Zn63 Zn 0.00856 0.49006 0.50480
 N64 N 0.05665 0.44682 0.46264
 C65 C -0.02905 0.53341 0.40378
 N66 N -0.03731 0.53279 0.45838
 C67 C -0.07642 0.56499 0.48175
 C68 C -0.10987 0.59896 0.44986
 C69 C -0.06081 0.56766 0.37042
 C70 C -0.01263 0.41281 0.58432
 C71 C -0.04562 0.38085 0.61764
 C72 C -0.12982 0.40975 0.56811
 C73 C -0.09540 0.44256 0.53705
 N74 N -0.03801 0.44452 0.54646
 H75 H 0.00318 0.50829 0.38616
 H76 H -0.08169 0.56410 0.52535
 H77 H -0.14169 0.62304 0.46956
 H78 H -0.05197 0.56871 0.32749
 H79 H 0.03339 0.41346 0.58970
 H80 H -0.02385 0.35881 0.64935
 H81 H -0.17487 0.40851 0.55841
 H82 H -0.11470 0.46591 0.50493
 C83 C 0.12212 0.38201 0.39715
 C84 C 0.11569 0.60634 0.61473
 C85 C -0.10550 0.37899 0.61019
 C86 C -0.10190 0.60126 0.39332
 C87 C 0.55568 0.08464 0.52633
 H88 H 0.54242 0.09592 0.48565
 C89 C 0.58749 0.11992 0.55835
 H90 H 0.59741 0.15843 0.54198
 C91 C 0.55724 0.02137 0.59703
 H92 H 0.54523 -0.01689 0.61222
 C93 C 0.58989 0.05516 0.63022
 H94 H 0.60329 0.04157 0.67011
 N95 N 0.54042 0.03670 0.54623
 C96 C 0.52585 -0.10092 0.44747
 H97 H 0.48722 -0.11675 0.46446
 C98 C 0.56019 -0.13335 0.41575
 H99 H 0.54803 -0.17430 0.40984
 C100 C 0.58804 -0.02841 0.43437
 H101 H 0.59833 0.01271 0.44159
 C102 C 0.62358 -0.05945 0.40209
 H103 H 0.66076 -0.04150 0.38427
 Zn104 Zn 0.49359 -0.00683 0.50079
 N105 N 0.54063 -0.04969 0.45681
 C106 C 0.44668 0.02859 0.40110
 N107 N 0.44844 0.03762 0.45560
 C108 C 0.42008 0.07911 0.47801
 C109 C 0.38916 0.11421 0.44496
 C110 C 0.41584 0.06229 0.36671
 C111 C 0.46996 -0.09049 0.57223
 C112 C 0.43627 -0.12447 0.60261
 C113 C 0.35249 -0.07651 0.57186
 C114 C 0.38782 -0.04352 0.54178
 N115 N 0.44553 -0.05066 0.54289
 H116 H 0.46949 -0.00463 0.38418
 H117 H 0.42224 0.08531 0.52155
 H118 H 0.36688 0.14705 0.46340
 H119 H 0.41546 0.05477 0.32332
 H120 H 0.51575 -0.09638 0.57140
 H121 H 0.45676 -0.15538 0.62632
 H122 H 0.30672 -0.07042 0.57013
 H123 H 0.36895 -0.01239 0.51742
 C124 C 0.61012 -0.11294 0.39278
 C125 C 0.60479 0.10566 0.61136
 C126 C 0.37672 -0.11755 0.60292
 C127 C 0.38701 0.10605 0.38848
 C128 C 0.56150 0.59537 0.03210
 H129 H 0.54276 0.61072 -0.00512
 C130 C 0.59451 0.62848 0.06540
 H131 H 0.59998 0.66936 0.05367
 C132 C 0.57628 0.52382 0.09265
 H133 H 0.56902 0.48305 0.10321
 C134 C 0.60971 0.55566 0.12726
 H135 H 0.62838 0.53861 0.16379
 N136 N 0.55224 0.54428 0.04648
 C137 C 0.52671 0.41256 -0.06013
 H138 H 0.48634 0.39903 -0.04469
 C139 C 0.55818 0.37951 -0.09368
 H140 H 0.54197 0.34023 -0.10212
 C141 C 0.59638 0.47996 -0.06680
 H142 H 0.61076 0.51934 -0.05611
 C143 C 0.62887 0.44846 -0.10154
 H144 H 0.66777 0.46460 -0.11774
 Zn145 Zn 0.50289 0.50334 0.00110
 N146 N 0.54669 0.46130 -0.04642
 C147 C 0.45897 0.54867 -0.09580
 N148 N 0.45614 0.55003 -0.04060
 C149 C 0.42248 0.58587 -0.01484
 C150 C 0.38867 0.62122 -0.04489
 C151 C 0.42711 0.58426 -0.12729
 C152 C 0.48330 0.41484 0.06689
 C153 C 0.45202 0.37901 0.09743
 C154 C 0.36816 0.43294 0.08249
 C155 C 0.40069 0.46696 0.05096
 N156 N 0.45746 0.45789 0.04428
 H157 H 0.48638 0.52035 -0.11552
 H158 H 0.42218 0.58715 0.02913
 H159 H 0.36178 0.64937 -0.02406
 H160 H 0.42986 0.58298 -0.17120
 H161 H 0.52816 0.40751 0.05999
 H162 H 0.47361 0.34432 0.11321
 H163 H 0.32386 0.44262 0.08868
 H164 H 0.38026 0.50064 0.03218
 C165 C 0.61031 0.39699 -0.11491
 C166 C 0.61861 0.60900 0.11412
 C167 C 0.39353 0.38795 0.10616
 C168 C 0.39131 0.62076 -0.10173
 C169 C 0.23468 -0.18136 -0.17353
 C170 C 0.21128 -0.21756 -0.21131
 C171 C 0.15067 -0.22356 -0.20749
 C172 C 0.11786 -0.19185 -0.17209
 C173 C 0.14351 -0.15294 -0.13789
 C174 C 0.20310 -0.15097 -0.13938
 C175 C 0.25455 -0.12297 -0.11694
 C176 C 0.29010 -0.15792 -0.15483
 H177 H 0.12751 -0.25332 -0.23041
 H178 H 0.07233 -0.19900 -0.17121
 H179 H 0.26279 -0.13162 -0.07322
 H180 H 0.25493 -0.08042 -0.12809
 H181 H 0.31748 -0.18699 -0.13270
 H182 H 0.31190 -0.13543 -0.18713
 C183 C 0.18510 0.26437 0.32475
 C184 C 0.21875 0.28503 0.28326
 C185 C 0.22142 0.34150 0.28243
 C186 C 0.19042 0.37301 0.31952
 C187 C 0.15588 0.34969 0.35933
 C188 C 0.15494 0.29479 0.35986
 C189 C 0.13353 0.24892 0.39109
 C190 C 0.16757 0.21420 0.35160
 H191 H 0.24776 0.36239 0.25412
 H192 H 0.19331 0.41564 0.31676
 H193 H 0.08644 0.24409 0.38675
 H194 H 0.15085 0.24827 0.43348
 H195 H 0.13979 0.18905 0.32515
 H196 H 0.20429 0.19346 0.37144
 C197 C 0.65786 -0.22350 0.29886
 C198 C 0.71742 -0.21596 0.29432
 C199 C 0.74087 -0.17265 0.32418
 C200 C 0.70704 -0.14018 0.35726
 C201 C 0.64757 -0.14791 0.36002
 C202 C 0.62445 -0.19074 0.33111
 C203 C 0.57587 -0.18975 0.29125
 C204 C 0.61184 -0.22454 0.25532
 H205 H 0.78607 -0.16381 0.32195
 H206 H 0.72768 -0.10858 0.37993
 H207 H 0.56788 -0.14974 0.27405
 H208 H 0.53746 -0.21011 0.30691
 H209 H 0.62487 -0.20473 0.21721
 H210 H 0.59246 -0.26427 0.24944
 C211 C 0.64923 0.28275 -0.20832
 C212 C 0.70863 0.28815 -0.21570
 C213 C 0.73524 0.33129 -0.18827
 C214 C 0.70437 0.36603 -0.15491
 C215 C 0.64478 0.36070 -0.14942
 C216 C 0.61874 0.31794 -0.17620
 C217 C 0.56845 0.31912 -0.21411
 C218 C 0.60104 0.28122 -0.24966
 H219 H 0.78054 0.33829 -0.19259
 H220 H 0.72764 0.39709 -0.13389
 H221 H 0.56158 0.35857 -0.23298
 H222 H 0.52989 0.30109 -0.19606
 H223 H 0.61260 0.29843 -0.28941
 H224 H 0.57979 0.24203 -0.25238
 C225 C -0.22266 0.21145 -0.15499
 C226 C -0.22207 0.20947 -0.21240
 C227 C -0.19629 0.16378 -0.23529
 C228 C -0.16709 0.12635 -0.20290
 C229 C -0.16291 0.13265 -0.14606
 C230 C -0.19438 0.17382 -0.12317
 C231 C -0.17611 0.21243 -0.08072
 C232 C -0.20508 0.25413 -0.11544
 H233 H -0.19718 0.15781 -0.27888
 H234 H -0.14641 0.09341 -0.22274
 H235 H -0.12886 0.21700 -0.07772
 H236 H -0.19777 0.20566 -0.04150
 H237 H -0.17374 0.28228 -0.13250
 H238 H -0.24223 0.27244 -0.09499
 C239 C -0.18327 0.66354 0.27428
 C240 C -0.20542 0.71168 0.29385
 C241 C -0.18943 0.72289 0.34900
 C242 C -0.15517 0.68793 0.38055
 C243 C -0.13533 0.63939 0.35924
 C244 C -0.15004 0.63001 0.30488
 C245 C -0.14648 0.58932 0.26127
 C246 C -0.18353 0.62672 0.22645
 H247 H -0.20296 0.75803 0.36962
 H248 H -0.14425 0.69954 0.42183
 H249 H -0.16858 0.55207 0.27220
 H250 H -0.10250 0.58459 0.24562
 H251 H -0.22624 0.60978 0.21668
 H252 H -0.16056 0.64278 0.19110
 C253 C 0.29341 0.15580 0.27235
 C254 C 0.28904 0.21077 0.28178
 C255 C 0.32173 0.23104 0.32644
 C256 C 0.35443 0.19768 0.36066
 C257 C 0.35535 0.14267 0.35184
 C258 C 0.32604 0.12322 0.30611
 C259 C 0.28446 0.07887 0.30319
 C260 C 0.24802 0.11395 0.26685
 H261 H 0.32169 0.27305 0.33508
 H262 H 0.37831 0.21497 0.39438
 H263 H 0.26471 0.07041 0.34303
 H264 H 0.30205 0.04386 0.28173
 H265 H 0.20695 0.12554 0.28546
 H266 H 0.24393 0.09769 0.22496
 C267 C 0.26529 0.69072 -0.16568
 C268 C 0.28719 0.72167 -0.20820
 C269 C 0.34850 0.72436 -0.20756
 C270 C 0.38250 0.69175 -0.17299
 C271 C 0.35721 0.65821 -0.13461
 C272 C 0.29829 0.66147 -0.13095
 C273 C 0.24890 0.63685 -0.10372
 C274 C 0.21107 0.67049 -0.14201
 H275 H 0.37158 0.75128 -0.23292
 H276 H 0.42861 0.69310 -0.17606
 H277 H 0.24633 0.64860 -0.06025
 H278 H 0.24594 0.59371 -0.11208
 H279 H 0.18707 0.70197 -0.12052
 H280 H 0.18512 0.64627 -0.17096
 C281 C -0.14737 -0.21616 0.21991
 C282 C -0.20699 -0.21325 0.22436
 C283 C -0.23317 -0.17095 0.19490
 C284 C -0.20123 -0.13703 0.16127
 C285 C -0.14143 -0.14340 0.15584
 C286 C -0.11663 -0.18282 0.18809
 C287 C -0.06155 -0.21071 0.19870
 C288 C -0.09569 -0.24822 0.23468
 H289 H -0.27893 -0.16500 0.19663
 H290 H -0.22378 -0.10612 0.13937
 H291 H -0.03030 -0.18624 0.22219
 H292 H -0.04486 -0.23000 0.16152
 H293 H -0.08415 -0.24518 0.27863
 H294 H -0.09714 -0.28894 0.21789
 C295 C -0.23416 0.32460 0.68447
 C296 C -0.21416 0.28188 0.71544
 C297 C -0.15435 0.27239 0.71160
 C298 C -0.11945 0.30285 0.67698
 C299 C -0.14200 0.34556 0.64582
 C300 C -0.20061 0.35433 0.65173
 C301 C -0.24949 0.38895 0.63457
 C302 C -0.28701 0.35512 0.67127
 H303 H -0.13346 0.24145 0.73457
 H304 H -0.07495 0.29180 0.67468
 H305 H -0.26140 0.38442 0.59085
 H306 H -0.24418 0.43033 0.64915
 H307 H -0.31906 0.33123 0.64814
 H308 H -0.30358 0.37710 0.70689
 C309 C 0.26771 -0.16219 0.70477
 C310 C 0.27972 -0.21607 0.71508
 C311 C 0.32070 -0.23831 0.67899
 C312 C 0.35222 -0.20679 0.64261
 C313 C 0.34100 -0.15217 0.63696
 C314 C 0.29612 -0.13274 0.66747
 C315 C 0.26136 -0.08439 0.67583
 C316 C 0.22808 -0.11707 0.71701
 H317 H 0.33007 -0.28015 0.68029
 H318 H 0.38489 -0.22546 0.61852
 H319 H 0.23529 -0.07363 0.63929
 H320 H 0.28681 -0.05174 0.69451
 H321 H 0.18331 -0.12544 0.70370
 H322 H 0.23278 -0.10069 0.75868
 C323 C 0.26939 0.31163 0.16504
 C324 C 0.29218 0.28195 0.20831
 C325 C 0.35269 0.28621 0.21501
 C326 C 0.38541 0.32044 0.18223
 C327 C 0.35973 0.35103 0.14012
 C328 C 0.30081 0.34426 0.13334
 C329 C 0.24983 0.36136 0.10045
 C330 C 0.21451 0.32498 0.13664
 H331 H 0.37594 0.26398 0.24545
 H332 H 0.43075 0.32337 0.19110
 H333 H 0.25182 0.34780 0.05749
 H334 H 0.23886 0.40372 0.10626
 H335 H 0.19557 0.29067 0.11447
 H336 H 0.18496 0.34716 0.16323
 C337 C 0.15380 0.21067 0.21463
 C338 C 0.21299 0.21621 0.20672
 C339 C 0.23642 0.18622 0.16358
 C340 C 0.20199 0.15401 0.12970
 C341 C 0.14247 0.15101 0.13698
 C342 C 0.12002 0.17877 0.18100
 C343 C 0.07073 0.21600 0.18149
 C344 C 0.10713 0.25128 0.21799
 H345 H 0.28199 0.18710 0.15660
 H346 H 0.22235 0.13123 0.09815
 H347 H 0.03324 0.19905 0.20237
 H348 H 0.06132 0.23345 0.14084
 H349 H 0.08935 0.25495 0.25940
 H350 H 0.11821 0.28941 0.19881
 C351 C 0.21637 0.65755 0.72462
 C352 C 0.21461 0.71319 0.71920
 C353 C 0.17621 0.73259 0.67806
 C354 C 0.14412 0.69831 0.64412
 C355 C 0.14884 0.64320 0.64979
 C356 C 0.18352 0.62404 0.69203
 C357 C 0.22879 0.58270 0.69016
 C358 C 0.26533 0.61914 0.72542
 H359 H 0.17116 0.77473 0.67199
 H360 H 0.11590 0.71495 0.61324
 H361 H 0.24575 0.57678 0.64862
 H362 H 0.21592 0.54595 0.71135
 H363 H 0.30362 0.63406 0.70434
 H364 H 0.27406 0.60240 0.76644
 C365 C 0.70345 0.21782 0.65575
 C366 C 0.70498 0.21460 0.71298
 C367 C 0.66842 0.17642 0.73623
 C368 C 0.63440 0.14245 0.70382
 C369 C 0.63693 0.14388 0.64660
 C370 C 0.67015 0.18384 0.62391
 C371 C 0.71379 0.17971 0.58076
 C372 C 0.75064 0.21644 0.61526
 H373 H 0.66668 0.17243 0.78000
 H374 H 0.60714 0.11446 0.72401
 H375 H 0.69896 0.19790 0.54190
 H376 H 0.73181 0.13917 0.57703
 H377 H 0.75730 0.25531 0.59545
 H378 H 0.79023 0.19722 0.63124
 C379 C 0.71471 0.72065 0.16320
 C380 C 0.71885 0.71358 0.21999
 C381 C 0.68455 0.67282 0.24185
 C382 C 0.65119 0.63937 0.20809
 C383 C 0.65144 0.64490 0.15106
 C384 C 0.68190 0.68751 0.13022
 C385 C 0.72357 0.68831 0.08521
 C386 C 0.75978 0.72471 0.12076
 H387 H 0.68437 0.66633 0.28535
 H388 H 0.62600 0.60878 0.22680
 H389 H 0.70589 0.70804 0.04824
 H390 H 0.74367 0.64907 0.07816
 H391 H 0.76289 0.76507 0.10340
 H392 H 0.80131 0.70709 0.13362
   
