data_POSCAR
  _audit_creation_date              2014-09-24
  _audit_creation_method            'ToBaCCo'
  _symmetry_space_group_name_H-M    'P1'
  _symmetry_Int_Tables_number       1
  _symmetry_cell_setting            triclinic
  loop_
  _symmetry_equiv_pos_as_xyz
 x,y,z
_cell_length_a 20.6347
_cell_length_b 20.2360
_cell_length_c 46.6950
_cell_angle_alpha 88.924600
_cell_angle_beta 84.827500
_cell_angle_gamma 123.161400
loop_
  _atom_site_label
  _atom_site_type_symbol
  _atom_site_fract_x
  _atom_site_fract_y
  _atom_site_fract_z
C1 C -0.06660 0.05487 0.55331
 H2 H -0.01422 0.05589 0.54715
 C3 C -0.06557 0.10646 0.57299
 H4 H -0.01229 0.14644 0.58217
 C5 C -0.19929 0.00206 0.54840
 H6 H -0.25073 -0.03719 0.53824
 C7 C -0.20109 0.05201 0.56824
 H8 H -0.25431 0.05023 0.57314
 N9 N -0.13288 0.00376 0.54156
 C10 C -0.11754 -0.19209 0.51386
 H11 H -0.13024 -0.19183 0.49189
 C12 C -0.10635 -0.24961 0.52442
 H13 H -0.11134 -0.29357 0.51034
 C14 C -0.09768 -0.13540 0.55875
 H15 H -0.09480 -0.09105 0.57209
 C16 C -0.08579 -0.19181 0.57020
 H17 H -0.07270 -0.18910 0.59223
 Zn18 Zn -0.12689 -0.06031 0.51377
 N19 N -0.11182 -0.13574 0.53085
 C20 C 0.01512 -0.00601 0.47836
 N21 N -0.04156 0.00779 0.48557
 C22 C -0.03806 0.07123 0.47317
 C23 C 0.02363 0.12304 0.45220
 C24 C 0.07707 0.04350 0.45722
 C25 C -0.28746 -0.17233 0.51258
 C26 C -0.35458 -0.22370 0.49977
 C27 C -0.28032 -0.16444 0.45307
 C28 C -0.21529 -0.11317 0.46681
 N29 N -0.21961 -0.11856 0.49605
 H30 H 0.01243 -0.05557 0.48885
 H31 H -0.08356 0.08124 0.47950
 H32 H 0.02497 0.17260 0.44225
 H33 H 0.12138 0.03126 0.45172
 H34 H -0.28879 -0.17706 0.53578
 H35 H -0.40671 -0.26692 0.51369
 H36 H -0.27413 -0.15863 0.42975
 H37 H -0.16051 -0.07119 0.45398
 C38 C -0.08917 -0.24946 0.55285
 C39 C -0.13355 0.10523 0.58074
 C40 C -0.35138 -0.22193 0.46947
 C41 C 0.08160 0.10871 0.44376
 C42 C 1.12620 0.03718 0.11049
 H43 H 1.13743 0.09547 0.10610
 C44 C 1.17340 0.01639 0.09563
 H45 H 1.22018 0.05896 0.07959
 C46 C 1.05582 -0.08581 0.13872
 H47 H 1.01181 -0.12415 0.15625
 C48 C 1.10212 -0.10880 0.12452
 H49 H 1.09157 -0.16594 0.13080
 N50 N 1.06983 -0.01312 0.13193
 C51 C 0.91651 0.06790 0.15274
 H52 H 0.92228 0.07568 0.17544
 C53 C 0.85405 0.06323 0.14130
 H54 H 0.81292 0.06927 0.15518
 C55 C 0.95856 0.04265 0.10778
 H56 H 0.99656 0.03009 0.09519
 C57 C 0.89784 0.03928 0.09529
 H58 H 0.89052 0.02518 0.07307
 Zn59 Zn 1.02592 0.02964 0.15624
 N60 N 0.96542 0.05466 0.13624
 C61 C 1.12046 0.18842 0.17512
 N62 N 1.11094 0.11728 0.17119
 C63 C 1.16265 0.10118 0.17951
 C64 C 1.22639 0.15675 0.19266
 C65 C 1.18369 0.24606 0.18865
 C66 C 0.88911 -0.10976 0.18239
 C67 C 0.83393 -0.16019 0.20537
 C68 C 0.92184 -0.07491 0.23844
 C69 C 0.97495 -0.02606 0.21492
 N70 N 0.95790 -0.04401 0.18754
 H71 H 1.07826 0.19968 0.16847
 H72 H 1.15303 0.04370 0.17662
 H73 H 1.26459 0.14051 0.19984
 H74 H 1.19011 0.30196 0.19221
 H75 H 0.87640 -0.12190 0.16040
 H76 H 0.77940 -0.21206 0.20086
 H77 H 0.93629 -0.05807 0.25995
 H78 H 1.02885 0.02742 0.21870
 C79 C 0.84281 0.04610 0.11251
 C80 C 1.16327 -0.05639 0.10325
 C81 C 0.84997 -0.14266 0.23386
 C82 C 1.23741 0.23010 0.19769
 C83 C 0.16800 1.04026 0.88003
 H84 H 0.11261 1.02003 0.89232
 C85 C 0.22234 1.03217 0.89272
 H86 H 0.20875 1.00727 0.91484
 C87 C 0.25001 1.08889 0.83549
 H88 H 0.25895 1.10813 0.81290
 C89 C 0.30482 1.07970 0.84709
 H90 H 0.35670 1.09346 0.83346
 N91 N 0.18204 1.06664 0.85171
 C92 C -0.06024 0.94564 0.84632
 H93 H -0.05783 0.91671 0.82742
 C94 C -0.13246 0.92167 0.86117
 H95 H -0.18420 0.87233 0.85379
 C96 C 0.00466 1.04724 0.87756
 H97 H 0.05832 1.09853 0.88298
 C98 C -0.06607 1.02386 0.89357
 H99 H -0.06503 1.05787 0.91132
 Zn100 Zn 0.10204 1.05246 0.83067
 N101 N 0.00636 1.00815 0.85445
 C102 C 0.07211 0.90957 0.80975
 N103 N 0.09651 0.98557 0.80188
 C104 C 0.13042 1.01887 0.77466
 C105 C 0.14301 0.97617 0.75436
 C106 C 0.08193 0.86404 0.78985
 C107 C 0.18845 1.22052 0.81451
 C108 C 0.19819 1.28728 0.80004
 C109 C 0.07340 1.20228 0.78263
 C110 C 0.06611 1.13774 0.79736
 N111 N 0.12330 1.14760 0.81266
 H112 H 0.04789 0.88544 0.83180
 H113 H 0.15194 1.08015 0.76909
 H114 H 0.17202 1.00434 0.73304
 H115 H 0.06398 0.80428 0.79657
 H116 H 0.23278 1.22690 0.82710
 H117 H 0.25049 1.34460 0.80181
 H118 H 0.02703 1.19157 0.77037
 H119 H 0.01478 1.07898 0.79640
 C120 C -0.13654 0.96203 0.88484
 C121 C 0.29002 1.04888 0.87576
 C122 C 0.14027 1.27860 0.78362
 C123 C 0.11977 0.89830 0.76205
 C124 C 0.29899 -0.08709 0.00264
 C125 C 0.31486 -0.07613 -0.02691
 C126 C 0.39466 -0.03999 -0.03316
 N127 N 0.42808 -0.02780 -0.00859
 C128 C 0.36987 -0.05642 0.01331
 C129 C 0.43675 -0.01562 -0.06092
 C130 C 0.51261 -0.00012 -0.06608
 C131 C 0.56356 0.03835 -0.09111
 C132 C 0.62573 0.03157 -0.08927
 C133 C 0.61189 -0.00925 -0.06291
 N134 N 0.54348 -0.02752 -0.04868
 C135 C 0.66023 -0.03210 -0.05327
 C136 C 0.66817 -0.03596 -0.02358
 C137 C 0.70774 -0.06455 -0.01120
 C138 C 0.70113 -0.05666 0.01789
 C139 C 0.65649 -0.02500 0.02242
 N140 N 0.63665 -0.01217 -0.00292
 C141 C 0.63468 -0.00804 0.04947
 C142 C 0.56997 -0.00098 0.05425
 C143 C 0.55258 0.02804 0.07843
 C144 C 0.47950 0.01323 0.07704
 C145 C 0.45523 -0.02225 0.05167
 N146 N 0.51071 -0.03022 0.03777
 C147 C 0.38170 -0.05002 0.04262
 H148 H 0.24190 -0.11426 0.01476
 H149 H 0.27236 -0.09390 -0.04200
 H150 H 0.50377 -0.06296 0.02003
 H151 H 0.55644 0.06741 -0.10909
 H152 H 0.67570 0.05424 -0.10543
 H153 H 0.73666 -0.09043 -0.02168
 H154 H 0.72398 -0.07513 0.03395
 H155 H 0.44793 0.02728 0.09281
 H156 H 0.51560 -0.06522 -0.02991
 H157 H 0.58800 0.05562 0.09566
 C158 C 0.06679 0.33757 0.68646
 C159 C 0.02125 0.30599 0.66451
 C160 C -0.00538 0.35392 0.65863
 N161 N 0.02091 0.41255 0.67669
 C162 C 0.06503 0.40275 0.69379
 C163 C -0.05758 0.34007 0.63841
 C164 C -0.07255 0.39700 0.62920
 C165 C -0.12997 0.38254 0.61208
 C166 C -0.12027 0.45414 0.60545
 C167 C -0.05719 0.51050 0.61863
 N168 N -0.02834 0.47528 0.63299
 C169 C -0.02509 0.59276 0.61575
 C170 C 0.02439 0.64531 0.63505
 C171 C 0.06319 0.72711 0.63193
 C172 C 0.09926 0.75480 0.65624
 C173 C 0.08335 0.68929 0.67308
 N174 N 0.03694 0.62242 0.66022
 C175 C 0.10679 0.69122 0.70071
 C176 C 0.10350 0.62677 0.71478
 C177 C 0.11723 0.62311 0.74313
 C178 C 0.11626 0.55516 0.74762
 C179 C 0.10197 0.51908 0.72190
 N180 N 0.09464 0.56328 0.70199
 C181 C 0.09941 0.44894 0.71704
 H182 H 0.09720 0.31452 0.69594
 H183 H 0.00941 0.25377 0.65412
 H184 H 0.09296 0.55537 0.68009
 H185 H -0.17329 0.32669 0.60447
 H186 H -0.15531 0.46366 0.59220
 H187 H 0.06551 0.76359 0.61414
 H188 H 0.13342 0.81634 0.66075
 H189 H 0.12533 0.53484 0.76755
 H190 H 0.02423 0.50448 0.64170
 H191 H 0.12836 0.66566 0.75885
 C192 C 0.25755 0.30531 0.30068
 C193 C 0.23061 0.28513 0.32943
 C194 C 0.28849 0.34261 0.34422
 N195 N 0.34982 0.39746 0.32548
 C196 C 0.33123 0.37482 0.29873
 C197 C 0.28795 0.33815 0.37441
 C198 C 0.34171 0.40190 0.38946
 C199 C 0.35464 0.39458 0.41762
 C200 C 0.41036 0.46917 0.42439
 C201 C 0.42952 0.52055 0.40030
 N202 N 0.38745 0.47888 0.37903
 C203 C 0.48623 0.60340 0.39799
 C204 C 0.52425 0.64484 0.37063
 C205 C 0.56834 0.72658 0.36487
 C206 C 0.60320 0.74199 0.33702
 C207 C 0.57706 0.66927 0.32636
 N208 N 0.52847 0.60981 0.34678
 C209 C 0.60401 0.65886 0.29915
 C210 C 0.55906 0.58976 0.28474
 C211 C 0.58500 0.57154 0.25958
 C212 C 0.52218 0.50274 0.25169
 C213 C 0.46002 0.47894 0.27279
 N214 N 0.48271 0.53325 0.29254
 C215 C 0.38441 0.40947 0.27321
 H216 H 0.22718 0.27005 0.28353
 H217 H 0.17571 0.23257 0.33848
 H218 H 0.44652 0.53515 0.30907
 H219 H 0.32820 0.34081 0.43166
 H220 H 0.43582 0.48303 0.44445
 H221 H 0.57536 0.77080 0.37924
 H222 H 0.64294 0.79998 0.32577
 H223 H 0.52322 0.47375 0.23262
 H224 H 0.38624 0.50263 0.35924
 H225 H 0.64288 0.60399 0.24786
 N226 N -0.17759 0.20791 0.63297
 N227 N -0.19783 0.14661 0.61765
 C228 C -0.13377 0.15984 0.60137
 C229 C -0.06991 0.23302 0.60665
 C230 C -0.10042 0.26138 0.62675
 H231 H -0.01022 0.26273 0.59670
 H232 H -0.21624 0.21325 0.64721
 H233 H -0.25462 0.09667 0.61859
 N234 N 0.74608 0.75180 0.30252
 N235 N 0.81050 0.80320 0.28559
 C236 C 0.79235 0.80628 0.25877
 C237 C 0.71236 0.75444 0.25879
 C238 C 0.68532 0.72072 0.28696
 H239 H 0.67845 0.74311 0.24097
 H240 H 0.74421 0.73721 0.32429
 H241 H 0.86587 0.83398 0.29241
 N242 N 0.40668 -0.02779 -0.11217
 N243 N 0.37065 -0.00812 -0.12895
 C244 C 0.34025 0.02589 -0.11323
 C245 C 0.35794 0.02828 -0.08521
 C246 C 0.40076 -0.00589 -0.08548
 H247 H 0.34222 0.05182 -0.06724
 H248 H 0.43356 -0.05702 -0.11891
 H249 H 0.36491 -0.02038 -0.15054
 N250 N -0.03657 0.60972 0.56369
 N251 N -0.05334 0.65077 0.54715
 C252 C -0.07269 0.69252 0.56392
 C253 C -0.06858 0.67633 0.59249
 C254 C -0.04453 0.62441 0.59133
 H255 H -0.07954 0.70015 0.61149
 H256 H -0.01744 0.57435 0.55598
 H257 H -0.04846 0.65187 0.52468
 N258 N 0.40225 0.32927 0.23743
 N259 N 0.36454 0.28311 0.21721
 C260 C 0.30187 0.28618 0.21395
 C261 C 0.30127 0.33876 0.23249
 C262 C 0.36541 0.36385 0.24727
 H263 H 0.25654 0.35099 0.23672
 H264 H 0.44988 0.33329 0.24541
 H265 H 0.38040 0.24794 0.20680
 N266 N 0.66826 -0.08955 -0.09751
 N267 N 0.72446 -0.09409 -0.11451
 C268 C 0.79097 -0.05534 -0.10200
 C269 C 0.77721 -0.02836 -0.07628
 C270 C 0.70002 -0.05073 -0.07433
 H271 H 0.81885 0.00716 -0.06166
 H272 H 0.61146 -0.11312 -0.10232
 H273 H 0.71626 -0.11701 -0.13466
 N274 N 0.29425 -0.11984 0.08845
 N275 N 0.23588 -0.12293 0.10408
 C276 C 0.21983 -0.07460 0.09075
 C277 C 0.27031 -0.03956 0.06539
 C278 C 0.31620 -0.07009 0.06476
 H279 H 0.27462 0.00343 0.04987
 H280 H 0.31904 -0.15075 0.09411
 H281 H 0.20986 -0.15549 0.12402
 N282 N 0.46470 0.62357 0.44881
 N283 N 0.51062 0.67252 0.46911
 C284 C 0.58390 0.72206 0.45586
 C285 C 0.58556 0.70553 0.42710
 C286 C 0.51041 0.64343 0.42343
 H287 H 0.63654 0.73064 0.41133
 H288 H 0.40479 0.58135 0.45292
 H289 H 0.48932 0.67034 0.49048
 N290 N 0.20389 0.46548 0.74569
 N291 N 0.21487 0.42114 0.76316
 C292 C 0.14933 0.34742 0.76708
 C293 C 0.09425 0.34579 0.75149
 C294 C 0.13143 0.42117 0.73798
 H295 H 0.03570 0.29664 0.74941
 H296 H 0.24624 0.52447 0.73856
 H297 H 0.26740 0.44132 0.77144
 N298 N 0.64456 -0.03220 0.10136
 N299 N 0.69934 -0.01547 0.11796
 C300 C 0.76930 0.02566 0.10175
 C301 C 0.75848 0.03596 0.07352
 C302 C 0.67833 -0.00126 0.07421
 H303 H 0.80249 0.06552 0.05505
 H304 H 0.58490 -0.06634 0.10850
 H305 H 0.68826 -0.03516 0.13977
 N306 N 0.23522 0.19491 0.38466
 N307 N 0.18189 0.13502 0.40296
 C308 C 0.14565 0.16005 0.42067
 C309 C 0.17772 0.23981 0.41332
 C310 C 0.23445 0.25941 0.39043
 H311 H 0.16262 0.27826 0.42325
 H312 H 0.27180 0.19160 0.36861
 H313 H 0.17005 0.07783 0.40285
 N314 N 0.20164 0.83439 0.70693
 N315 N 0.20383 0.88926 0.72249
 C316 C 0.13878 0.85498 0.74156
 C317 C 0.09325 0.77463 0.73804
 C318 C 0.13505 0.76434 0.71571
 H319 H 0.03616 0.73073 0.74909
 H320 H 0.24407 0.84529 0.69010
 H321 H 0.24915 0.94909 0.71992
   
