data_POSCAR
  _audit_creation_date              2014-09-24
  _audit_creation_method            'ToBaCCo'
  _symmetry_space_group_name_H-M    'P1'
  _symmetry_Int_Tables_number       1
  _symmetry_cell_setting            triclinic
  loop_
  _symmetry_equiv_pos_as_xyz
 x,y,z
_cell_length_a 47.7602
_cell_length_b 48.1144
_cell_length_c 48.0690
_cell_angle_alpha 89.796100
_cell_angle_beta 89.920900
_cell_angle_gamma 89.976300
loop_
  _atom_site_label
  _atom_site_type_symbol
  _atom_site_fract_x
  _atom_site_fract_y
  _atom_site_fract_z
N1 N 0.26680 0.21249 0.18989
 N2 N 0.25546 0.23528 0.17981
 C3 C 0.27049 0.24389 0.15766
 C4 C 0.29238 0.22543 0.15357
 C5 C 0.28929 0.20575 0.17444
 H6 H 0.26591 0.26225 0.14548
 H7 H 0.30283 0.18822 0.17860
 Cu8 Cu 0.22252 0.25162 0.19707
 Cu9 Cu 0.25242 0.19400 0.22305
 Cu10 Cu 0.19330 0.22258 0.25379
 N11 N 0.18915 0.26721 0.21417
 N12 N 0.17775 0.25576 0.23630
 C13 C 0.15539 0.27090 0.24411
 C14 C 0.15257 0.29313 0.22590
 C15 C 0.17442 0.29003 0.20715
 H16 H 0.14226 0.26610 0.26182
 H17 H 0.17960 0.30369 0.19003
 N18 N 0.21220 0.18907 0.26828
 N19 N 0.23478 0.17832 0.25668
 C20 C 0.24319 0.15626 0.27183
 C21 C 0.22503 0.15287 0.29406
 C22 C 0.20561 0.17405 0.29106
 H23 H 0.26129 0.14365 0.26709
 H24 H 0.18836 0.17865 0.30486
 H25 H 0.21143 0.20689 0.21825
 H26 H 0.23415 0.22875 0.24093
 N27 N 0.73261 -0.21133 0.19023
 N28 N 0.74470 -0.23297 0.17879
 C29 C 0.72915 -0.24145 0.15706
 C30 C 0.70593 -0.22415 0.15464
 C31 C 0.70905 -0.20521 0.17618
 H32 H 0.73429 -0.25915 0.14428
 H33 H 0.69510 -0.18845 0.18171
 Cu34 Cu 0.77915 -0.24870 0.19375
 Cu35 Cu 0.74754 -0.19339 0.22317
 Cu36 Cu 0.80723 -0.22203 0.25235
 N37 N 0.81177 -0.26525 0.21162
 N38 N 0.82269 -0.25477 0.23432
 C39 C 0.84430 -0.27078 0.24253
 C40 C 0.84714 -0.29276 0.22404
 C41 C 0.82603 -0.28833 0.20461
 H42 H 0.85660 -0.26682 0.26093
 H43 H 0.82094 -0.30114 0.18693
 N44 N 0.78846 -0.18892 0.26757
 N45 N 0.76566 -0.17809 0.25650
 C46 C 0.75740 -0.15631 0.27199
 C47 C 0.77588 -0.15319 0.29393
 C48 C 0.79533 -0.17427 0.29039
 H49 H 0.73919 -0.14370 0.26765
 H50 H 0.81283 -0.17901 0.30381
 H51 H 0.78890 -0.20490 0.21742
 H52 H 0.76675 -0.22889 0.23879
 N53 N 0.73352 0.21134 0.80950
 N54 N 0.74574 0.23290 0.82093
 C55 C 0.73048 0.24119 0.84299
 C56 C 0.70745 0.22382 0.84559
 C57 C 0.71019 0.20509 0.82392
 H58 H 0.73569 0.25866 0.85605
 H59 H 0.69598 0.18848 0.81859
 Cu60 Cu 0.77992 0.24881 0.80563
 Cu61 Cu 0.74823 0.19347 0.77638
 Cu62 Cu 0.80744 0.22246 0.74655
 N63 N 0.81202 0.26568 0.78718
 N64 N 0.82272 0.25535 0.76428
 C65 C 0.84400 0.27159 0.75571
 C66 C 0.84685 0.29357 0.77417
 C67 C 0.82608 0.28892 0.79395
 H68 H 0.85605 0.26779 0.73707
 H69 H 0.82109 0.30166 0.81173
 N70 N 0.78890 0.18918 0.73163
 N71 N 0.76620 0.17829 0.74286
 C72 C 0.75809 0.15633 0.72757
 C73 C 0.77660 0.15318 0.70561
 C74 C 0.79588 0.17440 0.70892
 H75 H 0.74003 0.14358 0.73211
 H76 H 0.81338 0.17911 0.69544
 H77 H 0.78956 0.20507 0.78172
 H78 H 0.76707 0.22908 0.76075
 N79 N 0.26748 -0.21376 0.81065
 N80 N 0.25636 -0.23659 0.82083
 C81 C 0.27164 -0.24519 0.84274
 C82 C 0.29353 -0.22670 0.84661
 C83 C 0.29015 -0.20701 0.82578
 H84 H 0.26723 -0.26362 0.85492
 H85 H 0.30348 -0.18937 0.82145
 Cu86 Cu 0.22327 -0.25303 0.80401
 Cu87 Cu 0.25252 -0.19493 0.77804
 Cu88 Cu 0.19356 -0.22383 0.74768
 N89 N 0.19019 -0.26903 0.78679
 N90 N 0.17864 -0.25751 0.76483
 C91 C 0.15658 -0.27297 0.75683
 C92 C 0.15411 -0.29561 0.77474
 C93 C 0.17591 -0.29219 0.79355
 H94 H 0.14366 -0.26806 0.73906
 H95 H 0.18130 -0.30566 0.81076
 N96 N 0.21179 -0.18984 0.73343
 N97 N 0.23431 -0.17895 0.74492
 C98 C 0.24229 -0.15656 0.73001
 C99 C 0.22392 -0.15311 0.70801
 C100 C 0.20483 -0.17461 0.71091
 H101 H 0.26026 -0.14381 0.73473
 H102 H 0.18758 -0.17929 0.69718
 H103 H 0.21172 -0.20816 0.78324
 H104 H 0.23451 -0.22969 0.76025
 N105 N 0.73418 -0.21132 0.81266
 N106 N 0.74528 -0.23422 0.82273
 C107 C 0.72996 -0.24289 0.84466
 C108 C 0.70806 -0.22441 0.84859
 C109 C 0.71150 -0.20460 0.82787
 H110 H 0.73431 -0.26136 0.85676
 H111 H 0.69806 -0.18702 0.82362
 Cu112 Cu 0.77815 -0.25079 0.80554
 Cu113 Cu 0.74905 -0.19268 0.77971
 Cu114 Cu 0.80793 -0.22189 0.74906
 N115 N 0.81135 -0.26682 0.78847
 N116 N 0.82289 -0.25545 0.76639
 C117 C 0.84493 -0.27094 0.75840
 C118 C 0.84746 -0.29345 0.77645
 C119 C 0.82568 -0.28993 0.79534
 H120 H 0.85782 -0.26619 0.74054
 H121 H 0.82029 -0.30330 0.81260
 N122 N 0.78963 -0.18798 0.73471
 N123 N 0.76717 -0.17693 0.74627
 C124 C 0.75910 -0.15475 0.73108
 C125 C 0.77733 -0.15162 0.70884
 C126 C 0.79644 -0.17308 0.71192
 H127 H 0.74109 -0.14199 0.73572
 H128 H 0.81358 -0.17800 0.69809
 H129 H 0.76712 -0.22737 0.76179
 H130 H 0.79001 -0.20599 0.78469
 N131 N 0.26543 0.21096 0.81162
 N132 N 0.25416 0.23373 0.82170
 C133 C 0.26951 0.24244 0.84349
 C134 C 0.29156 0.22410 0.84733
 C135 C 0.28820 0.20434 0.82670
 H136 H 0.26509 0.26084 0.85555
 H137 H 0.30177 0.18689 0.82240
 Cu138 Cu 0.22104 0.25003 0.80467
 Cu139 Cu 0.25078 0.19245 0.77869
 Cu140 Cu 0.19157 0.22130 0.74833
 N141 N 0.18769 0.26596 0.78772
 N142 N 0.17622 0.25451 0.76574
 C143 C 0.15398 0.26978 0.75781
 C144 C 0.15129 0.29210 0.77577
 C145 C 0.17312 0.28893 0.79451
 H146 H 0.14092 0.26502 0.74012
 H147 H 0.17842 0.30267 0.81143
 N148 N 0.21023 0.18776 0.73379
 N149 N 0.23282 0.17687 0.74526
 C150 C 0.24122 0.15500 0.72993
 C151 C 0.22307 0.15190 0.70771
 C152 C 0.20364 0.17304 0.71092
 H153 H 0.25941 0.14244 0.73446
 H154 H 0.18647 0.17790 0.69712
 H155 H 0.23264 0.22723 0.76088
 H156 H 0.20999 0.20532 0.78375
 N157 N 0.26436 -0.20891 0.18766
 N158 N 0.25025 -0.22844 0.17479
 C159 C 0.26495 -0.23692 0.15245
 C160 C 0.28970 -0.22191 0.15126
 C161 C 0.28848 -0.20426 0.17395
 H162 H 0.25821 -0.25297 0.13827
 H163 H 0.30430 -0.18966 0.18054
 Cu164 Cu 0.21459 -0.24173 0.18902
 Cu165 Cu 0.25097 -0.19166 0.22175
 Cu166 Cu 0.19163 -0.22015 0.25172
 N167 N 0.18395 -0.26017 0.20814
 N168 N 0.17525 -0.25193 0.23269
 C169 C 0.15476 -0.26901 0.24151
 C170 C 0.15030 -0.28912 0.22139
 C171 C 0.16925 -0.28273 0.20046
 H172 H 0.14423 -0.26708 0.26132
 H173 H 0.17270 -0.29403 0.18136
 N174 N 0.21141 -0.18787 0.26751
 N175 N 0.23413 -0.17711 0.25615
 C176 C 0.24293 -0.15570 0.27184
 C177 C 0.22484 -0.15270 0.29418
 C178 C 0.20510 -0.17350 0.29069
 H179 H 0.26109 -0.14311 0.26722
 H180 H 0.18763 -0.17812 0.30423
 H181 H 0.23046 -0.22741 0.23469
 H182 H 0.20845 -0.20015 0.21746
 N183 N 0.73473 0.21097 0.18768
 N184 N 0.74629 0.23344 0.17707
 C185 C 0.73099 0.24207 0.15517
 C186 C 0.70865 0.22400 0.15175
 C187 C 0.71182 0.20449 0.17278
 H188 H 0.73556 0.26034 0.14282
 H189 H 0.69801 0.18734 0.17756
 Cu190 Cu 0.77941 0.24970 0.19405
 Cu191 Cu 0.74902 0.19273 0.22102
 Cu192 Cu 0.80811 0.22168 0.25131
 N193 N 0.81269 0.26571 0.21099
 N194 N 0.82375 0.25460 0.23345
 C195 C 0.84565 0.27018 0.24161
 C196 C 0.84850 0.29235 0.22334
 C197 C 0.82717 0.28873 0.20414
 H198 H 0.85826 0.26581 0.25976
 H199 H 0.82202 0.30236 0.18697
 N200 N 0.78922 0.18838 0.26627
 N201 N 0.76669 0.17740 0.25486
 C202 C 0.75838 0.15550 0.27034
 C203 C 0.77656 0.15248 0.29259
 C204 C 0.79584 0.17372 0.28925
 H205 H 0.74034 0.14276 0.26581
 H206 H 0.81306 0.17859 0.30293
 H207 H 0.76713 0.22775 0.23829
 H208 H 0.78985 0.20528 0.21621
 C209 C 0.23673 -0.01488 0.52632
 C210 C 0.23735 0.01438 0.52618
 C211 C 0.23805 0.02875 0.50080
 C212 C 0.23778 0.01431 0.47554
 C213 C 0.23721 -0.01495 0.47565
 C214 C 0.23682 -0.02933 0.50105
 H215 H 0.23614 -0.05187 0.50116
 H216 H 0.23832 0.05130 0.50071
 C217 C 0.76532 -0.01486 0.47482
 C218 C 0.76557 0.01441 0.47482
 C219 C 0.76557 0.02871 0.50015
 C220 C 0.76559 0.01419 0.52546
 C221 C 0.76529 -0.01507 0.52547
 C222 C 0.76504 -0.02938 0.50014
 H223 H 0.76500 -0.05193 0.50013
 H224 H 0.76592 0.05127 0.50016
 C225 C 0.47436 0.23643 -0.01491
 C226 C 0.47443 0.23637 0.01438
 C227 C 0.49996 0.23630 0.02872
 C228 C 0.52543 0.23616 0.01420
 C229 C 0.52535 0.23626 -0.01509
 C230 C 0.49982 0.23650 -0.02942
 H231 H 0.49976 0.23642 -0.05199
 H232 H 0.50001 0.23607 0.05130
 C233 C 0.47448 0.76204 -0.01327
 C234 C 0.47417 0.76093 0.01599
 C235 C 0.49949 0.76082 0.03065
 C236 C 0.52512 0.76196 0.01647
 C237 C 0.52545 0.76288 -0.01281
 C238 C 0.50011 0.76286 -0.02747
 H239 H 0.50034 0.76377 -0.05003
 H240 H 0.49924 0.76022 0.05321
 C241 C -0.01442 0.52640 0.23313
 C242 C 0.01507 0.52612 0.23231
 C243 C 0.02936 0.50069 0.23250
 C244 C 0.01463 0.47553 0.23325
 C245 C -0.01484 0.47579 0.23395
 C246 C -0.02913 0.50122 0.23403
 H247 H -0.05185 0.50142 0.23447
 H248 H 0.05208 0.50047 0.23179
 C249 C 0.01356 0.47453 0.76398
 C250 C -0.01591 0.47497 0.76377
 C251 C -0.03006 0.50047 0.76394
 C252 C -0.01519 0.52554 0.76443
 C253 C 0.01429 0.52511 0.76441
 C254 C 0.02845 0.49961 0.76414
 H255 H 0.05117 0.49927 0.76447
 H256 H -0.05278 0.50081 0.76410
 C257 C 0.34279 0.25393 0.09943
 C258 C 0.35951 0.23065 0.09417
 C259 C 0.35378 0.20550 0.10771
 C260 C 0.33170 0.20370 0.12672
 C261 C 0.31499 0.22708 0.13248
 C262 C 0.32061 0.25216 0.11839
 C263 C 0.38316 0.23266 0.07570
 C264 C 0.40342 0.23399 0.06079
 C265 C 0.42765 0.23515 0.04400
 C266 C 0.44874 0.23584 0.03022
 H267 H 0.34713 0.27356 0.08918
 H268 H 0.36659 0.18733 0.10379
 H269 H 0.32779 0.18398 0.13689
 H270 H 0.30834 0.27062 0.12243
 C271 C 0.66079 0.75101 0.09627
 C272 C 0.63879 0.77012 0.09737
 C273 C 0.63926 0.79139 0.11707
 C274 C 0.66149 0.79345 0.13581
 C275 C 0.68378 0.77416 0.13525
 C276 C 0.68311 0.75298 0.11497
 C277 C 0.61537 0.76769 0.07875
 C278 C 0.59534 0.76590 0.06364
 C279 C 0.57143 0.76414 0.04656
 C280 C 0.55059 0.76296 0.03253
 H281 H 0.66062 0.73444 0.08107
 H282 H 0.62231 0.80634 0.11807
 H283 H 0.66082 0.81017 0.15074
 H284 H 0.69956 0.73763 0.11348
 C285 C 0.65902 0.25087 -0.09783
 C286 C 0.63964 0.22918 -0.09564
 C287 C 0.64270 0.20555 -0.11223
 C288 C 0.66489 0.20368 -0.13112
 C289 C 0.68438 0.22548 -0.13372
 C290 C 0.68126 0.24905 -0.11670
 C291 C 0.61612 0.23138 -0.07703
 C292 C 0.59600 0.23295 -0.06196
 C293 C 0.57195 0.23446 -0.04494
 C294 C 0.55098 0.23544 -0.03100
 H295 H 0.65676 0.26933 -0.08517
 H296 H 0.62779 0.18864 -0.11074
 H297 H 0.66663 0.18513 -0.14364
 H298 H 0.69563 0.26635 -0.11822
 C299 C 0.35618 0.79315 -0.10924
 C300 C 0.36043 0.76884 -0.09379
 C301 C 0.34244 0.74619 -0.09727
 C302 C 0.32044 0.74771 -0.11635
 C303 C 0.31619 0.77193 -0.13233
 C304 C 0.33420 0.79473 -0.12835
 C305 C 0.38386 0.76692 -0.07512
 C306 C 0.40394 0.76550 -0.06005
 C307 C 0.42797 0.76404 -0.04310
 C308 C 0.44893 0.76300 -0.02922
 H309 H 0.36999 0.81080 -0.10672
 H310 H 0.34563 0.72721 -0.08546
 H311 H 0.30715 0.72969 -0.11886
 H312 H 0.33145 0.81383 -0.13995
 C313 C 0.10998 0.35648 0.20526
 C314 C 0.09369 0.36067 0.22907
 C315 C 0.09603 0.34237 0.25163
 C316 C 0.11485 0.32010 0.25050
 C317 C 0.13166 0.31594 0.22679
 C318 C 0.12879 0.33428 0.20408
 C319 C 0.07533 0.38433 0.23053
 C320 C 0.06052 0.40458 0.23147
 C321 C 0.04388 0.42879 0.23231
 C322 C 0.03025 0.44986 0.23283
 H323 H 0.10835 0.37054 0.18768
 H324 H 0.08358 0.34552 0.27022
 H325 H 0.11655 0.30657 0.26844
 H326 H 0.14108 0.33166 0.18537
 C327 C 0.11616 0.63861 0.79176
 C328 C 0.09602 0.63794 0.77074
 C329 C 0.09473 0.65956 0.75129
 C330 C 0.11371 0.68168 0.75270
 C331 C 0.13442 0.68250 0.77364
 C332 C 0.13514 0.66060 0.79327
 C333 C 0.07718 0.61470 0.76889
 C334 C 0.06192 0.59481 0.76756
 C335 C 0.04468 0.57106 0.76625
 C336 C 0.03052 0.55037 0.76531
 H337 H 0.11735 0.62192 0.80695
 H338 H 0.07919 0.65924 0.73490
 H339 H 0.11205 0.69785 0.73714
 H340 H 0.15044 0.66002 0.80982
 C341 C -0.09490 0.66069 0.24813
 C342 C -0.09558 0.63993 0.22787
 C343 C -0.11501 0.64163 0.20623
 C344 C -0.13378 0.66388 0.20483
 C345 C -0.13354 0.68499 0.22517
 C346 C -0.11365 0.68302 0.24683
 C347 C -0.07678 0.61657 0.22948
 C348 C -0.06150 0.59664 0.23062
 C349 C -0.04424 0.57282 0.23172
 C350 C -0.03021 0.55199 0.23247
 H351 H -0.07996 0.65955 0.26504
 H352 H -0.11577 0.62562 0.19044
 H353 H -0.14847 0.66418 0.18776
 H354 H -0.11244 0.69849 0.26303
 C355 C -0.11616 0.35977 0.79109
 C356 C -0.09696 0.36155 0.76922
 C357 C -0.09609 0.34064 0.74913
 C358 C -0.11446 0.31807 0.75082
 C359 C -0.13415 0.31602 0.77270
 C360 C -0.13455 0.33726 0.79290
 C361 C -0.07849 0.38509 0.76729
 C362 C -0.06342 0.40513 0.76599
 C363 C -0.04629 0.42897 0.76485
 C364 C -0.03216 0.44970 0.76419
 H365 H -0.11705 0.37591 0.80673
 H366 H -0.08132 0.34186 0.73204
 H367 H -0.11311 0.30245 0.73477
 H368 H -0.14909 0.33689 0.81013
 C369 C 0.20551 0.10841 0.35649
 C370 C 0.23038 0.09375 0.36113
 C371 C 0.25330 0.09785 0.34344
 C372 C 0.25148 0.11679 0.32137
 C373 C 0.22669 0.13197 0.31678
 C374 C 0.20365 0.12739 0.33449
 C375 C 0.23262 0.07536 0.38468
 C376 C 0.23429 0.06051 0.40486
 C377 C 0.23595 0.04379 0.42896
 C378 C 0.23702 0.03006 0.44995
 H379 H 0.18763 0.10539 0.37006
 H380 H 0.27270 0.08669 0.34692
 H381 H 0.26971 0.11989 0.30836
 H382 H 0.18415 0.13842 0.33144
 C383 C 0.79735 0.10897 0.64368
 C384 C 0.77280 0.09385 0.63907
 C385 C 0.74967 0.09767 0.65652
 C386 C 0.75098 0.11672 0.67836
 C387 C 0.77547 0.13231 0.68299
 C388 C 0.79871 0.12807 0.66547
 C389 C 0.77099 0.07529 0.61576
 C390 C 0.76949 0.06033 0.59578
 C391 C 0.76785 0.04354 0.57186
 C392 C 0.76667 0.02983 0.55097
 H393 H 0.81537 0.10620 0.63025
 H394 H 0.73049 0.08619 0.65301
 H395 H 0.73259 0.11957 0.69119
 H396 H 0.81798 0.13946 0.66851
 C397 C 0.25139 -0.09749 0.65882
 C398 C 0.22842 -0.09362 0.64121
 C399 C 0.20371 -0.10849 0.64596
 C400 C 0.20209 -0.12754 0.66793
 C401 C 0.22522 -0.13199 0.68549
 C402 C 0.24982 -0.11649 0.68086
 C403 C 0.23052 -0.07534 0.61755
 C404 C 0.23218 -0.06064 0.59726
 C405 C 0.23397 -0.04411 0.57302
 C406 C 0.23533 -0.03053 0.55195
 H407 H 0.27068 -0.08615 0.65529
 H408 H 0.18577 -0.10562 0.63247
 H409 H 0.18272 -0.13877 0.67105
 H410 H 0.26810 -0.11943 0.69380
 C411 C 0.79619 -0.10953 0.35636
 C412 C 0.77162 -0.09440 0.36099
 C413 C 0.74861 -0.09804 0.34341
 C414 C 0.75006 -0.11692 0.32141
 C415 C 0.77458 -0.13252 0.31675
 C416 C 0.79769 -0.12846 0.33442
 C417 C 0.76976 -0.07594 0.38440
 C418 C 0.76836 -0.06102 0.40443
 C419 C 0.76698 -0.04424 0.42839
 C420 C 0.76607 -0.03052 0.44930
 H421 H 0.81412 -0.10688 0.36987
 H422 H 0.72942 -0.08653 0.34690
 H423 H 0.73177 -0.11961 0.30846
 H424 H 0.81697 -0.13985 0.33138
 C425 C 0.64612 0.79534 -0.10605
 C426 C 0.64055 0.77025 -0.09233
 C427 C 0.65739 0.74702 -0.09748
 C428 C 0.67960 0.74882 -0.11639
 C429 C 0.68518 0.77388 -0.13056
 C430 C 0.66824 0.79716 -0.12504
 C431 C 0.61693 0.76819 -0.07379
 C432 C 0.59670 0.76672 -0.05882
 C433 C 0.57248 0.76526 -0.04202
 C434 C 0.55132 0.76414 -0.02835
 H435 H 0.63319 0.81345 -0.10227
 H436 H 0.65313 0.72742 -0.08715
 H437 H 0.69196 0.73040 -0.12032
 H438 H 0.67202 0.81684 -0.13534
 C439 C 0.34236 0.25281 -0.09930
 C440 C 0.35936 0.22966 -0.09421
 C441 C 0.35382 0.20456 -0.10773
 C442 C 0.33159 0.20267 -0.12650
 C443 C 0.31452 0.22589 -0.13201
 C444 C 0.32004 0.25094 -0.11801
 C445 C 0.38307 0.23180 -0.07588
 C446 C 0.40333 0.23332 -0.06105
 C447 C 0.42754 0.23478 -0.04431
 C448 C 0.44863 0.23571 -0.03060
 H449 H 0.34657 0.27240 -0.08908
 H450 H 0.36685 0.18650 -0.10395
 H451 H 0.32782 0.18299 -0.13663
 H452 H 0.30755 0.26931 -0.12189
 C453 C 0.33751 0.74839 0.09556
 C454 C 0.35855 0.76859 0.09439
 C455 C 0.35679 0.79210 0.11134
 C456 C 0.33425 0.79533 0.12958
 C457 C 0.31308 0.77504 0.13116
 C458 C 0.31488 0.75159 0.11379
 C459 C 0.38231 0.76520 0.07629
 C460 C 0.40269 0.76310 0.06163
 C461 C 0.42707 0.76154 0.04511
 C462 C 0.44829 0.76093 0.03154
 H463 H 0.33869 0.73005 0.08258
 H464 H 0.37295 0.80790 0.11059
 H465 H 0.33348 0.81378 0.14235
 H466 H 0.29912 0.73546 0.11455
 C467 C 0.64539 0.20488 0.10814
 C468 C 0.64055 0.22960 0.09351
 C469 C 0.65831 0.25236 0.09745
 C470 C 0.68072 0.25049 0.11610
 C471 C 0.68556 0.22581 0.13118
 C472 C 0.66770 0.20297 0.12683
 C473 C 0.61682 0.23171 0.07518
 C474 C 0.59653 0.23315 0.06034
 C475 C 0.57229 0.23449 0.04360
 C476 C 0.55119 0.23538 0.02989
 H477 H 0.63175 0.18712 0.10528
 H478 H 0.65467 0.27166 0.08634
 H479 H 0.69382 0.26857 0.11905
 H480 H 0.67088 0.18358 0.13781
 C481 C -0.09354 0.66129 0.75276
 C482 C -0.09478 0.63980 0.77236
 C483 C -0.11468 0.64075 0.79365
 C484 C -0.13354 0.66289 0.79522
 C485 C -0.13290 0.68461 0.77538
 C486 C -0.11235 0.68352 0.75424
 C487 C -0.07623 0.61633 0.77026
 C488 C -0.06126 0.59624 0.76866
 C489 C -0.04444 0.57221 0.76696
 C490 C -0.03073 0.55122 0.76568
 H491 H -0.07817 0.66076 0.73616
 H492 H -0.11582 0.62418 0.80895
 H493 H -0.14864 0.66259 0.81197
 H494 H -0.11074 0.69957 0.73854
 C495 C -0.10972 0.35680 0.20421
 C496 C -0.09414 0.36109 0.22843
 C497 C -0.09670 0.34253 0.25076
 C498 C -0.11507 0.31996 0.24901
 C499 C -0.13119 0.31567 0.22489
 C500 C -0.12810 0.33427 0.20242
 C501 C -0.07612 0.38497 0.23051
 C502 C -0.06146 0.40530 0.23191
 C503 C -0.04477 0.42947 0.23311
 C504 C -0.03092 0.45039 0.23373
 H505 H -0.10785 0.37101 0.18678
 H506 H -0.08475 0.34567 0.26963
 H507 H -0.11692 0.30626 0.26680
 H508 H -0.13985 0.33155 0.18341
 C509 C 0.10886 0.35594 0.79514
 C510 C 0.09230 0.35956 0.77142
 C511 C 0.09446 0.34077 0.74940
 C512 C 0.11336 0.31860 0.75093
 C513 C 0.13044 0.31498 0.77453
 C514 C 0.12777 0.33382 0.79672
 C515 C 0.07394 0.38320 0.76934
 C516 C 0.05917 0.40345 0.76773
 C517 C 0.04259 0.42767 0.76608
 C518 C 0.02905 0.44878 0.76493
 H519 H 0.10739 0.37042 0.81230
 H520 H 0.08183 0.34346 0.73088
 H521 H 0.11486 0.30470 0.73336
 H522 H 0.14028 0.33163 0.81533
 C523 C 0.10897 0.64676 0.20074
 C524 C 0.09498 0.64042 0.22554
 C525 C 0.09867 0.65732 0.24886
 C526 C 0.11637 0.68042 0.24744
 C527 C 0.13075 0.68689 0.22266
 C528 C 0.12667 0.66985 0.19926
 C529 C 0.07708 0.61640 0.22712
 C530 C 0.06229 0.59615 0.22839
 C531 C 0.04530 0.57220 0.22983
 C532 C 0.03121 0.55145 0.23100
 H533 H 0.10631 0.63379 0.18255
 H534 H 0.08803 0.65254 0.26821
 H535 H 0.11895 0.69290 0.26592
 H536 H 0.13708 0.67424 0.17974
 C537 C 0.74945 -0.09689 0.65884
 C538 C 0.77209 -0.09371 0.64061
 C539 C 0.79673 -0.10877 0.64517
 C540 C 0.79861 -0.12727 0.66758
 C541 C 0.77580 -0.13100 0.68581
 C542 C 0.75128 -0.11535 0.68132
 C543 C 0.76988 -0.07570 0.61673
 C544 C 0.76832 -0.06111 0.59635
 C545 C 0.76688 -0.04457 0.57208
 C546 C 0.76598 -0.03089 0.55104
 H547 H 0.73024 -0.08538 0.65547
 H548 H 0.81442 -0.10641 0.63122
 H549 H 0.81793 -0.13862 0.67051
 H550 H 0.73325 -0.11772 0.69476
 C551 C 0.25287 -0.09788 0.34361
 C552 C 0.23000 -0.09412 0.36144
 C553 C 0.20529 -0.10902 0.35693
 C554 C 0.20352 -0.12787 0.33494
 C555 C 0.22649 -0.13210 0.31707
 C556 C 0.25114 -0.11670 0.32155
 C557 C 0.23212 -0.07580 0.38497
 C558 C 0.23367 -0.06102 0.40512
 C559 C 0.23521 -0.04437 0.42920
 C560 C 0.23627 -0.03069 0.45014
 H561 H 0.27215 -0.08651 0.34695
 H562 H 0.18743 -0.10624 0.37058
 H563 H 0.18412 -0.13906 0.33202
 H564 H 0.26931 -0.11948 0.30841
 C565 C 0.74932 0.09722 0.34241
 C566 C 0.77216 0.09396 0.36033
 C567 C 0.79662 0.10928 0.35573
 C568 C 0.79815 0.12805 0.33353
 C569 C 0.77519 0.13181 0.31557
 C570 C 0.75081 0.11597 0.32015
 C571 C 0.77028 0.07564 0.38400
 C572 C 0.76889 0.06081 0.40422
 C573 C 0.76748 0.04405 0.42832
 C574 C 0.76648 0.03026 0.44928
 H575 H 0.73025 0.08550 0.34584
 H576 H 0.81445 0.10688 0.36944
 H577 H 0.81737 0.13957 0.33054
 H578 H 0.73266 0.11838 0.30693
 C579 C 0.25161 0.09774 0.65781
 C580 C 0.22881 0.09394 0.63999
 C581 C 0.20395 0.10862 0.64462
 C582 C 0.20196 0.12723 0.66680
 C583 C 0.22486 0.13145 0.68471
 C584 C 0.24966 0.11630 0.68005
 C585 C 0.23115 0.07564 0.61647
 C586 C 0.23300 0.06077 0.59642
 C587 C 0.23492 0.04397 0.57249
 C588 C 0.23625 0.03019 0.55164
 H589 H 0.27100 0.08658 0.65433
 H590 H 0.18617 0.10584 0.63093
 H591 H 0.18246 0.13824 0.66987
 H592 H 0.26779 0.11912 0.69319
   
