data_POSCAR
  _audit_creation_date              2014-09-24
  _audit_creation_method            'ToBaCCo'
  _symmetry_space_group_name_H-M    'P1'
  _symmetry_Int_Tables_number       1
  _symmetry_cell_setting            triclinic
  loop_
  _symmetry_equiv_pos_as_xyz
 x,y,z
_cell_length_a 46.5400
_cell_length_b 41.8575
_cell_length_c 24.4923
_cell_angle_alpha 89.799500
_cell_angle_beta 90.104600
_cell_angle_gamma 89.739100
loop_
  _atom_site_label
  _atom_site_type_symbol
  _atom_site_fract_x
  _atom_site_fract_y
  _atom_site_fract_z
C1 C 0.80029 0.20415 0.44766
 C2 C 0.80549 0.18560 0.49451
 C3 C 0.78987 0.18934 0.54297
 C4 C 0.76730 0.21228 0.54436
 C5 C 0.76172 0.23167 0.49767
 C6 C 0.77843 0.22792 0.44946
 C7 C 0.77386 0.24927 0.40571
 C8 C 0.75157 0.27138 0.40664
 C9 C 0.73356 0.27398 0.45222
 C10 C 0.73922 0.25486 0.49904
 C11 C 0.74876 0.21469 0.58943
 C12 C 0.72658 0.23705 0.59041
 C13 C 0.72218 0.25853 0.54684
 C14 C 0.69990 0.28201 0.54792
 C15 C 0.69423 0.29955 0.49996
 C16 C 0.71042 0.29580 0.45259
 H17 H 0.78766 0.24949 0.37030
 H18 H 0.74882 0.28679 0.37140
 H19 H 0.75063 0.19860 0.62391
 H20 H 0.71240 0.23661 0.62530
 H21 H 0.82234 0.16762 0.49326
 H22 H 0.67754 0.31772 0.49965
 C23 C 0.28157 0.67994 0.46116
 C24 C 0.28905 0.66903 0.51324
 C25 C 0.27949 0.68440 0.56048
 C26 C 0.26174 0.71182 0.55594
 C27 C 0.25303 0.72264 0.50347
 C28 C 0.26285 0.70653 0.45592
 C29 C 0.25351 0.71721 0.40448
 C30 C 0.23582 0.74384 0.39946
 C31 C 0.22617 0.76045 0.44575
 C32 C 0.23466 0.74978 0.49844
 C33 C 0.25253 0.72870 0.60219
 C34 C 0.23546 0.75597 0.59718
 C35 C 0.22534 0.76650 0.54591
 C36 C 0.20785 0.79441 0.54005
 C37 C 0.20049 0.80468 0.48710
 C38 C 0.20873 0.78790 0.44054
 H39 H 0.25973 0.70505 0.36741
 H40 H 0.23006 0.75147 0.35862
 H41 H 0.25882 0.72132 0.64287
 H42 H 0.23082 0.76894 0.63419
 H43 H 0.30350 0.64872 0.51714
 H44 H 0.18641 0.82520 0.48177
 C45 C 0.28444 0.31051 -0.54839
 C46 C 0.29242 0.32179 -0.49656
 C47 C 0.28606 0.30515 -0.44869
 C48 C 0.26913 0.27729 -0.45156
 C49 C 0.25998 0.26560 -0.50312
 C50 C 0.26805 0.28184 -0.55182
 C51 C 0.25832 0.26968 -0.60203
 C52 C 0.24331 0.24105 -0.60489
 C53 C 0.23472 0.22473 -0.55739
 C54 C 0.24281 0.23748 -0.50583
 C55 C 0.26108 0.26091 -0.40401
 C56 C 0.24468 0.23344 -0.40669
 C57 C 0.23431 0.22189 -0.45683
 C58 C 0.21712 0.19400 -0.45919
 C59 C 0.21191 0.18022 -0.51033
 C60 C 0.21978 0.19511 -0.55956
 H61 H 0.26220 0.28203 -0.64008
 H62 H 0.23872 0.23198 -0.64515
 H63 H 0.26732 0.26917 -0.36394
 H64 H 0.24072 0.22100 -0.36870
 H65 H 0.30610 0.34264 -0.49343
 H66 H 0.19856 0.15907 -0.51248
 C67 C -0.29405 0.71458 -0.44222
 C68 C -0.30436 0.70234 -0.49164
 C69 C -0.29788 0.71603 -0.54264
 C70 C -0.27878 0.74252 -0.54436
 C71 C -0.26666 0.75425 -0.49496
 C72 C -0.27466 0.74065 -0.44383
 C73 C -0.26195 0.75252 -0.39593
 C74 C -0.24368 0.77857 -0.39738
 C75 C -0.23571 0.79267 -0.44713
 C76 C -0.24693 0.78023 -0.49654
 C77 C -0.27315 0.75932 -0.59308
 C78 C -0.25349 0.78423 -0.59467
 C79 C -0.23899 0.79417 -0.54738
 C80 C -0.21872 0.81959 -0.54880
 C81 C -0.20916 0.83226 -0.49891
 C82 C -0.21724 0.81931 -0.44868
 H83 H -0.26580 0.74176 -0.35648
 H84 H -0.23582 0.78737 -0.35874
 H85 H -0.28437 0.75410 -0.63059
 H86 H -0.25059 0.79643 -0.63326
 H87 H -0.31862 0.68193 -0.49021
 H88 H -0.19352 0.85139 -0.49862
 N89 N -0.03084 0.94228 -0.04609
 N90 N -0.05140 0.92079 -0.05137
 N91 N 0.02763 0.95974 -0.09876
 N92 N 0.04567 0.95207 -0.13813
 N93 N 0.02893 0.93867 -0.05898
 N94 N 0.04774 0.91592 -0.07048
 N95 N -0.03243 0.96354 -0.08555
 N96 N -0.05432 0.95753 -0.11797
 C97 C -0.06616 0.93106 -0.09592
 C98 C 0.05819 0.92478 -0.11988
 N99 N 0.03274 1.05243 -0.07459
 N100 N 0.05394 1.07112 -0.09062
 N101 N -0.03013 1.03170 -0.09531
 N102 N -0.05208 1.03663 -0.12844
 N103 N -0.02724 1.05568 -0.06140
 N104 N -0.04708 1.07773 -0.07092
 N105 N 0.02987 1.02821 -0.10804
 N106 N 0.04906 1.02959 -0.14743
 Mn107 Mn -0.00126 0.99578 -0.09742
 C108 C 0.06399 1.05641 -0.13604
 C109 C -0.06265 1.06531 -0.11257
 N110 N 0.03648 0.94367 0.05763
 N111 N 0.05665 0.92186 0.06618
 N112 N -0.01993 0.97156 0.10470
 N113 N -0.03925 0.97075 0.14393
 N114 N -0.02346 0.94752 0.07109
 N115 N -0.04521 0.92951 0.08695
 N116 N 0.04006 0.96807 0.09039
 N117 N 0.06284 0.96381 0.12158
 Mn118 Mn 0.00272 0.94262 0.00603
 C119 C 0.07310 0.93502 0.10587
 C120 C -0.05490 0.94442 0.13250
 N121 N -0.01964 1.06064 0.05564
 N122 N -0.03580 1.08516 0.07064
 N123 N 0.04249 1.03640 0.08133
 N124 N 0.06367 1.04361 0.11483
 N125 N 0.04025 1.05785 0.04227
 N126 N 0.05970 1.08048 0.04875
 N127 N -0.01718 1.03992 0.09583
 N128 N -0.03130 1.04986 0.13910
 Mn129 Mn 0.00649 1.05702 -0.00966
 Mn130 Mn 0.01143 1.00392 0.09343
 Cl131 Cl 0.00482 0.99987 -0.00190
 C132 C -0.04327 1.07769 0.12256
 C133 C 0.07452 1.07089 0.09368
 N134 N 0.53500 0.52921 0.09892
 N135 N 0.55134 0.53551 0.14147
 N136 N 0.47643 0.55699 0.06434
 N137 N 0.45739 0.57940 0.07644
 N138 N 0.47480 0.53320 0.09925
 N139 N 0.45459 0.53863 0.13576
 N140 N 0.53673 0.55231 0.06254
 N141 N 0.55446 0.57477 0.07975
 C142 C 0.56394 0.56350 0.12847
 C143 C 0.44377 0.56744 0.12089
 N144 N 0.47320 0.53825 -0.09122
 N145 N 0.45174 0.54502 -0.12454
 N146 N 0.53563 0.55527 -0.05626
 N147 N 0.55684 0.57526 -0.06731
 N148 N 0.53357 0.53353 -0.09459
 N149 N 0.55348 0.53770 -0.13200
 N150 N 0.47545 0.56008 -0.05317
 N151 N 0.45575 0.58258 -0.05995
 Mn152 Mn 0.50619 0.55653 0.00435
 C153 C 0.44099 0.57266 -0.10445
 C154 C 0.56798 0.56363 -0.11448
 N155 N 0.47123 0.46453 0.09454
 N156 N 0.45115 0.45909 0.13135
 N157 N 0.53058 0.43922 0.05475
 N158 N 0.55016 0.41673 0.06306
 N159 N 0.53171 0.46076 0.09354
 N160 N 0.55224 0.45379 0.12878
 N161 N 0.47035 0.44287 0.05598
 N162 N 0.44980 0.42199 0.06567
 Mn163 Mn 0.50312 0.49688 0.09698
 C164 C 0.43778 0.43263 0.11254
 C165 C 0.56371 0.42637 0.10922
 N166 N 0.52942 0.46521 -0.10001
 N167 N 0.54489 0.45698 -0.14276
 N168 N 0.46913 0.44594 -0.06147
 N169 N 0.44774 0.42631 -0.07273
 N170 N 0.46932 0.46995 -0.09607
 N171 N 0.44804 0.46758 -0.13133
 N172 N 0.52951 0.44219 -0.06339
 N173 N 0.54533 0.41786 -0.08026
 Mn174 Mn 0.50133 0.50181 -0.09586
 Mn175 Mn 0.49996 0.44220 -0.00351
 Cl176 Cl 0.50275 0.49936 0.00052
 C177 C 0.55525 0.42778 -0.12934
 C178 C 0.43461 0.44040 -0.11613
 C179 C 0.30835 0.37884 0.36586
 C180 C 0.32487 0.36364 0.32503
 C181 C 0.32442 0.32979 0.32324
 C182 C 0.30998 0.31214 0.36365
 C183 C 0.29503 0.32760 0.40588
 C184 C 0.29405 0.36115 0.40557
 C185 C 0.33925 0.31365 0.28228
 C186 C 0.35513 0.33025 0.24362
 C187 C 0.35753 0.36387 0.24531
 C188 C 0.34239 0.38081 0.28709
 C189 C 0.34643 0.41415 0.29133
 C190 C 0.36517 0.43028 0.25711
 C191 C 0.38006 0.41415 0.21631
 C192 C 0.37568 0.38097 0.20830
 C193 C 0.39013 0.36629 0.16405
 C194 C 0.40946 0.38343 0.13184
 C195 C 0.41510 0.41558 0.14267
 C196 C 0.39985 0.43099 0.18416
 H197 H 0.30610 0.40440 0.36863
 H198 H 0.31208 0.28633 0.36409
 H199 H 0.28221 0.37392 0.43678
 H200 H 0.33884 0.28778 0.28041
 H201 H 0.36634 0.31579 0.21420
 H202 H 0.33633 0.42847 0.32232
 H203 H 0.36824 0.45570 0.26307
 H204 H 0.38702 0.34164 0.15318
 H205 H 0.42067 0.37115 0.09930
 H206 H 0.40367 0.45612 0.19193
 C207 C -0.17917 0.82238 0.31839
 C208 C -0.17185 0.85513 0.31423
 C209 C -0.18319 0.87605 0.35421
 C210 C -0.20017 0.86438 0.39704
 C211 C -0.20609 0.83161 0.40248
 C212 C -0.19582 0.81092 0.36177
 C213 C -0.17688 0.90853 0.35244
 C214 C -0.15806 0.92062 0.31386
 C215 C -0.14473 0.90060 0.27507
 C216 C -0.15285 0.86765 0.27337
 C217 C -0.14133 0.84836 0.23148
 C218 C -0.12149 0.86034 0.19431
 C219 C -0.11187 0.89179 0.19785
 C220 C -0.12336 0.91241 0.23825
 C221 C -0.11213 0.94373 0.24146
 C222 C -0.09038 0.95386 0.20652
 C223 C -0.07910 0.93345 0.16679
 C224 C -0.09028 0.90254 0.16201
 H225 H -0.17134 0.80468 0.29021
 H226 H -0.20849 0.88101 0.42706
 H227 H -0.19895 0.78537 0.36522
 H228 H -0.18605 0.92476 0.38218
 H229 H -0.15446 0.94598 0.31558
 H230 H -0.14729 0.82374 0.22615
 H231 H -0.11306 0.84451 0.16321
 H232 H -0.11894 0.96079 0.27162
 H233 H -0.08213 0.97787 0.21114
 H234 H -0.08151 0.88647 0.13159
 C235 C 0.69015 0.67979 0.31919
 C236 C 0.66089 0.67075 0.32226
 C237 C 0.64589 0.67786 0.37102
 C238 C 0.65938 0.69419 0.41358
 C239 C 0.68850 0.70274 0.41073
 C240 C 0.70374 0.69507 0.36297
 C241 C 0.61752 0.66819 0.37781
 C242 C 0.60404 0.64996 0.33842
 C243 C 0.61821 0.64151 0.28969
 C244 C 0.64627 0.65393 0.27972
 C245 C 0.65843 0.64947 0.22747
 C246 C 0.64393 0.63263 0.18695
 C247 C 0.61755 0.61818 0.19781
 C248 C 0.60484 0.62158 0.25009
 C249 C 0.57967 0.60403 0.26143
 C250 C 0.56707 0.58497 0.22177
 C251 C 0.57869 0.58317 0.16933
 C252 C 0.60388 0.59990 0.15719
 H253 H 0.70343 0.67395 0.28458
 H254 H 0.64697 0.70018 0.44963
 H255 H 0.72659 0.69958 0.36022
 H256 H 0.60580 0.67409 0.41468
 H257 H 0.58203 0.64362 0.34657
 H258 H 0.67881 0.65970 0.21619
 H259 H 0.65383 0.63022 0.14715
 H260 H 0.56975 0.60363 0.30117
 H261 H 0.54777 0.57186 0.23201
 H262 H 0.61322 0.59790 0.11681
 C263 C 0.20346 1.12960 0.34358
 C264 C 0.18510 1.14462 0.30515
 C265 C 0.18167 1.17824 0.30873
 C266 C 0.19448 1.19545 0.35171
 C267 C 0.21117 1.17975 0.39160
 C268 C 0.21582 1.14676 0.38608
 C269 C 0.16454 1.19433 0.27068
 C270 C 0.14988 1.17777 0.23020
 C271 C 0.15126 1.14411 0.22678
 C272 C 0.16927 1.12727 0.26480
 C273 C 0.16976 1.09354 0.26304
 C274 C 0.15238 1.07674 0.22736
 C275 C 0.13427 1.09268 0.19101
 C276 C 0.13418 1.12655 0.18843
 C277 C 0.11634 1.14123 0.14845
 C278 C 0.09802 1.12305 0.11558
 C279 C 0.09681 1.08983 0.12161
 C280 C 0.11558 1.07478 0.15829
 H281 H 0.20847 1.10448 0.34277
 H282 H 0.18968 1.22069 0.35614
 H283 H 0.22895 1.13395 0.41559
 H284 H 0.16201 1.22006 0.27276
 H285 H 0.13671 1.19207 0.20335
 H286 H 0.18256 1.07910 0.29024
 H287 H 0.15279 1.05084 0.22892
 H288 H 0.11576 1.16668 0.14195
 H289 H 0.08390 1.13517 0.08696
 H290 H 0.11513 1.04897 0.16235
 C291 C 0.68187 0.30756 -0.30990
 C292 C 0.65274 0.31691 -0.31556
 C293 C 0.63930 0.31165 -0.36666
 C294 C 0.65443 0.29758 -0.40967
 C295 C 0.68378 0.28999 -0.40483
 C296 C 0.69715 0.29480 -0.35399
 C297 C 0.61107 0.32161 -0.37559
 C298 C 0.59653 0.33908 -0.33638
 C299 C 0.60948 0.34636 -0.28587
 C300 C 0.63698 0.33285 -0.27350
 C301 C 0.64768 0.33590 -0.21978
 C302 C 0.63262 0.35302 -0.18034
 C303 C 0.60717 0.36906 -0.19368
 C304 C 0.59566 0.36656 -0.24715
 C305 C 0.57147 0.38557 -0.26068
 C306 C 0.55891 0.40559 -0.22222
 C307 C 0.56949 0.40677 -0.16888
 C308 C 0.59343 0.38823 -0.15438
 H309 H 0.69395 0.31176 -0.27304
 H310 H 0.64339 0.29340 -0.44803
 H311 H 0.72001 0.29075 -0.34902
 H312 H 0.60045 0.31697 -0.41418
 H313 H 0.57482 0.34610 -0.34633
 H314 H 0.66739 0.32458 -0.20671
 H315 H 0.64150 0.35460 -0.13950
 H316 H 0.56250 0.38651 -0.30128
 H317 H 0.54054 0.42005 -0.23414
 H318 H 0.60193 0.38969 -0.11322
 C319 C 0.18214 0.86419 -0.37951
 C320 C 0.16620 0.84974 -0.33709
 C321 C 0.16723 0.81596 -0.33281
 C322 C 0.18196 0.79758 -0.37206
 C323 C 0.19646 0.81229 -0.41572
 C324 C 0.19663 0.84584 -0.41804
 C325 C 0.15285 0.80061 -0.29032
 C326 C 0.13705 0.81794 -0.25233
 C327 C 0.13433 0.85152 -0.25609
 C328 C 0.14887 0.86762 -0.29965
 C329 C 0.14463 0.90089 -0.30578
 C330 C 0.12659 0.91781 -0.27130
 C331 C 0.11246 0.90259 -0.22852
 C332 C 0.11670 0.86944 -0.21908
 C333 C 0.10280 0.85571 -0.17323
 C334 C 0.08449 0.87387 -0.14019
 C335 C 0.07929 0.90613 -0.15184
 C336 C 0.09370 0.92043 -0.19557
 H337 H 0.18389 0.88968 -0.38437
 H338 H 0.18057 0.77175 -0.37029
 H339 H 0.20816 0.85812 -0.45024
 H340 H 0.15363 0.77481 -0.28656
 H341 H 0.12632 0.80408 -0.22143
 H342 H 0.15418 0.91459 -0.33821
 H343 H 0.12352 0.94318 -0.27850
 H344 H 0.10564 0.83105 -0.16161
 H345 H 0.07385 0.86239 -0.10613
 H346 H 0.09020 0.94558 -0.20423
 C347 C 0.29754 0.62376 -0.33110
 C348 C 0.31897 0.63956 -0.30037
 C349 C 0.32328 0.67257 -0.31069
 C350 C 0.30892 0.68790 -0.35407
 C351 C 0.28964 0.67099 -0.38684
 C352 C 0.28337 0.63924 -0.37386
 C353 C 0.34282 0.68973 -0.27928
 C354 C 0.35916 0.67464 -0.23919
 C355 C 0.35730 0.64136 -0.23018
 C356 C 0.33696 0.62351 -0.26153
 C357 C 0.33658 0.58993 -0.25567
 C358 C 0.35617 0.57416 -0.22234
 C359 C 0.37628 0.59116 -0.19209
 C360 C 0.37630 0.62503 -0.19334
 C361 C 0.39596 0.64098 -0.15866
 C362 C 0.41612 0.62388 -0.12771
 C363 C 0.41741 0.59056 -0.13069
 C364 C 0.39697 0.57431 -0.16172
 H365 H 0.29153 0.59930 -0.32382
 H366 H 0.31383 0.71252 -0.36417
 H367 H 0.26823 0.62596 -0.39851
 H368 H 0.34593 0.71505 -0.28646
 H369 H 0.37424 0.68956 -0.21786
 H370 H 0.32235 0.57481 -0.27857
 H371 H 0.35584 0.54827 -0.22092
 H372 H 0.39641 0.66659 -0.15468
 H373 H 0.43147 0.63684 -0.10307
 H374 H 0.39747 0.54840 -0.16295
 C375 C -0.18375 1.11906 -0.37823
 C376 C -0.17479 1.13290 -0.32848
 C377 C -0.18056 1.16587 -0.32058
 C378 C -0.19454 1.18402 -0.36141
 C379 C -0.20181 1.17022 -0.41180
 C380 C -0.19657 1.13746 -0.41907
 C381 C -0.17107 1.18092 -0.27314
 C382 C -0.15440 1.16455 -0.23492
 C383 C -0.14699 1.13206 -0.24211
 C384 C -0.15883 1.11556 -0.28797
 C385 C -0.15379 1.08239 -0.29250
 C386 C -0.13571 1.06641 -0.25650
 C387 C -0.12189 1.08271 -0.21461
 C388 C -0.12770 1.11560 -0.20580
 C389 C -0.11294 1.13077 -0.16237
 C390 C -0.09258 1.11421 -0.13087
 C391 C -0.08631 1.08208 -0.14140
 C392 C -0.10164 1.06632 -0.18240
 H393 H -0.17989 1.09440 -0.38830
 H394 H -0.19754 1.20950 -0.35565
 H395 H -0.20210 1.12598 -0.45725
 H396 H -0.17571 1.20600 -0.26637
 H397 H -0.14751 1.17813 -0.20004
 H398 H -0.16353 1.06791 -0.32364
 H399 H -0.13194 1.04107 -0.26247
 H400 H -0.11587 1.15567 -0.15280
 H401 H -0.08108 1.12691 -0.09924
 H402 H -0.09716 1.04134 -0.19055
 C403 C 0.66914 0.70548 -0.30751
 C404 C 0.66720 0.67182 -0.30221
 C405 C 0.68050 0.65300 -0.34309
 C406 C 0.69426 0.66737 -0.38769
 C407 C 0.69540 0.70073 -0.39330
 C408 C 0.68286 0.71955 -0.35231
 C409 C 0.67953 0.61981 -0.34019
 C410 C 0.66426 0.60461 -0.29924
 C411 C 0.64911 0.62211 -0.25929
 C412 C 0.65166 0.65619 -0.25922
 C413 C 0.63814 0.67342 -0.21685
 C414 C 0.62129 0.65817 -0.17788
 C415 C 0.61691 0.62524 -0.17976
 C416 C 0.63102 0.60666 -0.22012
 C417 C 0.62537 0.57347 -0.22110
 C418 C 0.60576 0.55976 -0.18525
 C419 C 0.59135 0.57830 -0.14652
 C420 C 0.59764 0.61092 -0.14276
 H421 H 0.65942 0.72169 -0.27885
 H422 H 0.70406 0.65239 -0.41865
 H423 H 0.68229 0.74534 -0.35625
 H424 H 0.69024 0.60532 -0.37070
 H425 H 0.66473 0.57892 -0.30034
 H426 H 0.64001 0.69893 -0.21275
 H427 H 0.61091 0.67249 -0.14677
 H428 H 0.63478 0.55745 -0.25039
 H429 H 0.60135 0.53445 -0.18875
 H430 H 0.58639 0.62546 -0.11305
 C431 C 0.17301 1.18798 -0.33230
 C432 C 0.17021 1.15459 -0.32539
 C433 C 0.18405 1.13453 -0.36382
 C434 C 0.20040 1.14759 -0.40642
 C435 C 0.20305 1.18084 -0.41293
 C436 C 0.18884 1.20072 -0.37543
 C437 C 0.18110 1.10147 -0.36028
 C438 C 0.16346 1.08781 -0.32111
 C439 C 0.14843 1.10678 -0.28299
 C440 C 0.15321 1.14051 -0.28314
 C441 C 0.14081 1.15900 -0.24113
 C442 C 0.12283 1.14539 -0.20242
 C443 C 0.11600 1.11304 -0.20458
 C444 C 0.12870 1.09318 -0.24483
 C445 C 0.12017 1.06078 -0.24653
 C446 C 0.09966 1.04894 -0.21041
 C447 C 0.08722 1.06872 -0.17101
 C448 C 0.09591 1.10060 -0.16750
 H449 H 0.16215 1.20501 -0.30660
 H450 H 0.21122 1.13166 -0.43462
 H451 H 0.18882 1.22643 -0.38076
 H452 H 0.19200 1.08596 -0.38900
 H453 H 0.16235 1.06212 -0.32136
 H454 H 0.14491 1.18416 -0.23657
 H455 H 0.11357 1.16059 -0.17124
 H456 H 0.12805 1.04418 -0.27655
 H457 H 0.09323 1.02418 -0.21390
 H458 H 0.08615 1.11612 -0.13734
 C459 C 0.33416 0.30790 -0.32385
 C460 C 0.33167 0.34016 -0.30719
 C461 C 0.31265 0.36029 -0.33702
 C462 C 0.29660 0.34824 -0.38092
 C463 C 0.29976 0.31642 -0.39735
 C464 C 0.31873 0.29647 -0.36860
 C465 C 0.31040 0.39260 -0.32407
 C466 C 0.32790 0.40595 -0.28434
 C467 C 0.34798 0.38721 -0.25496
 C468 C 0.34847 0.35347 -0.26392
 C469 C 0.36586 0.33427 -0.22962
 C470 C 0.38378 0.34774 -0.19061
 C471 C 0.38568 0.38081 -0.18520
 C472 C 0.36781 0.40109 -0.21727
 C473 C 0.37161 0.43449 -0.21231
 C474 C 0.39273 0.44699 -0.17816
 C475 C 0.41032 0.42683 -0.14689
 C476 C 0.40617 0.39377 -0.14934
 H477 H 0.34888 0.29129 -0.30491
 H478 H 0.28235 0.36392 -0.40378
 H479 H 0.32220 0.27208 -0.38182
 H480 H 0.29554 0.40800 -0.34606
 H481 H 0.32491 0.43111 -0.27706
 H482 H 0.36584 0.30855 -0.23152
 H483 H 0.39702 0.33207 -0.16565
 H484 H 0.35962 0.45161 -0.23625
 H485 H 0.39568 0.47264 -0.17698
 H486 H 0.42005 0.37804 -0.12576
 C487 C -0.19799 0.88237 -0.34541
 C488 C -0.17820 0.86625 -0.31086
 C489 C -0.17359 0.83316 -0.31988
 C490 C -0.18666 0.81775 -0.36425
 C491 C -0.20533 0.83449 -0.39899
 C492 C -0.21116 0.86668 -0.38879
 C493 C -0.15552 0.81576 -0.28532
 C494 C -0.14124 0.83055 -0.24256
 C495 C -0.14380 0.86375 -0.23363
 C496 C -0.16237 0.88196 -0.26872
 C497 C -0.16337 0.91547 -0.26241
 C498 C -0.14597 0.93086 -0.22494
 C499 C -0.12754 0.91353 -0.19107
 C500 C -0.12712 0.87968 -0.19287
 C501 C -0.10927 0.86338 -0.15479
 C502 C -0.09071 0.88017 -0.12038
 C503 C -0.08944 0.91348 -0.12299
 C504 C -0.10863 0.93004 -0.15684
 H505 H -0.20386 0.90708 -0.34016
 H506 H -0.18200 0.79281 -0.37239
 H507 H -0.22572 0.87988 -0.41516
 H508 H -0.15214 0.79040 -0.29172
 H509 H -0.12726 0.81543 -0.21862
 H510 H -0.17639 0.93085 -0.28771
 H511 H -0.14659 0.95674 -0.22316
 H512 H -0.10882 0.83773 -0.15109
 H513 H -0.07630 0.86696 -0.09376
 H514 H -0.10811 0.95595 -0.15797
 C515 C 0.30859 0.61430 0.36849
 C516 C 0.32751 0.63080 0.33306
 C517 C 0.32848 0.66458 0.33715
 C518 C 0.31276 0.68060 0.37774
 C519 C 0.29516 0.66365 0.41387
 C520 C 0.29287 0.63053 0.40825
 C521 C 0.34567 0.68217 0.30163
 C522 C 0.36241 0.66705 0.26250
 C523 C 0.36325 0.63341 0.25821
 C524 C 0.34582 0.61497 0.29464
 C525 C 0.34819 0.58134 0.29308
 C526 C 0.36728 0.56620 0.25814
 C527 C 0.38426 0.58377 0.22229
 C528 C 0.38186 0.61755 0.22031
 C529 C 0.39855 0.63393 0.18081
 C530 C 0.41790 0.61754 0.14731
 C531 C 0.42136 0.58445 0.15217
 C532 C 0.40407 0.56766 0.18900
 H533 H 0.30544 0.58886 0.36675
 H534 H 0.31481 0.70626 0.38228
 H535 H 0.27921 0.61704 0.43562
 H536 H 0.34637 0.70800 0.30436
 H537 H 0.37537 0.68248 0.23747
 H538 H 0.33634 0.56586 0.31996
 H539 H 0.36890 0.54035 0.25953
 H540 H 0.39716 0.65938 0.17463
 H541 H 0.43076 0.63097 0.11852
 H542 H 0.40622 0.54190 0.19216
 C543 C -0.17916 1.18217 0.30508
 C544 C -0.14932 1.17618 0.31065
 C545 C -0.13664 1.18176 0.36238
 C546 C -0.15321 1.19262 0.40618
 C547 C -0.18293 1.19756 0.40079
 C548 C -0.19563 1.19238 0.34952
 C549 C -0.10753 1.17563 0.37087
 C550 C -0.09104 1.16173 0.33036
 C551 C -0.10304 1.15382 0.27925
 C552 C -0.13195 1.16337 0.26774
 C553 C -0.14244 1.15944 0.21403
 C554 C -0.12588 1.14474 0.17396
 C555 C -0.09875 1.13232 0.18637
 C556 C -0.08708 1.13645 0.23946
 C557 C -0.06056 1.12142 0.25167
 C558 C -0.04646 1.10295 0.21295
 C559 C -0.05781 1.09941 0.16052
 C560 C -0.08361 1.11471 0.14676
 H561 H -0.19069 1.17763 0.26773
 H562 H -0.14290 1.19687 0.44526
 H563 H -0.21868 1.19456 0.34433
 H564 H -0.09756 1.18070 0.40992
 H565 H -0.06872 1.15778 0.34011
 H566 H -0.16336 1.16789 0.20154
 H567 H -0.13485 1.14203 0.13338
 H568 H -0.05083 1.12205 0.29160
 H569 H -0.02659 1.09102 0.22427
 H570 H -0.09264 1.11140 0.10633
 C571 C 0.68910 0.36716 0.36714
 C572 C 0.67501 0.35292 0.32204
 C573 C 0.67637 0.31914 0.31761
 C574 C 0.68973 0.30063 0.35853
 C575 C 0.70178 0.31521 0.40445
 C576 C 0.70197 0.34851 0.40774
 C577 C 0.66337 0.30389 0.27358
 C578 C 0.64779 0.32116 0.23496
 C579 C 0.64431 0.35460 0.23911
 C580 C 0.65869 0.37083 0.28271
 C581 C 0.65531 0.40428 0.28686
 C582 C 0.63727 0.42109 0.25190
 C583 C 0.62217 0.40550 0.21083
 C584 C 0.62607 0.37225 0.20244
 C585 C 0.61078 0.35808 0.15864
 C586 C 0.59137 0.37588 0.12698
 C587 C 0.58653 0.40823 0.13789
 C588 C 0.60256 0.42303 0.17896
 H589 H 0.68992 0.39257 0.37337
 H590 H 0.68945 0.27477 0.35618
 H591 H 0.71131 0.36012 0.44300
 H592 H 0.66466 0.27813 0.26958
 H593 H 0.63803 0.30731 0.20302
 H594 H 0.66573 0.41832 0.31773
 H595 H 0.63471 0.44661 0.25782
 H596 H 0.61291 0.33322 0.14819
 H597 H 0.57943 0.36400 0.09500
 H598 H 0.59930 0.44825 0.18703
 C599 C 0.16463 0.79320 0.31107
 C600 C 0.16960 0.82503 0.29370
 C601 C 0.18950 0.84349 0.32405
 C602 C 0.20342 0.83052 0.36991
 C603 C 0.19742 0.79946 0.38740
 C604 C 0.17817 0.78084 0.35752
 C605 C 0.19465 0.87518 0.30976
 C606 C 0.17893 0.88988 0.26854
 C607 C 0.15757 0.87317 0.23940
 C608 C 0.15433 0.83971 0.24942
 C609 C 0.13550 0.82227 0.21560
 C610 C 0.11847 0.83747 0.17668
 C611 C 0.11907 0.87060 0.17074
 C612 C 0.13886 0.88895 0.20153
 C613 C 0.13783 0.92259 0.19564
 C614 C 0.11718 0.93722 0.16267
 C615 C 0.09731 0.91898 0.13356
 C616 C 0.09901 0.88563 0.13607
 H617 H 0.14939 0.77775 0.29134
 H618 H 0.21812 0.84504 0.39355
 H619 H 0.17290 0.75694 0.37125
 H620 H 0.21035 0.88915 0.33196
 H621 H 0.18408 0.91449 0.26035
 H622 H 0.13344 0.79669 0.21822
 H623 H 0.10383 0.82322 0.15249
 H624 H 0.15159 0.93843 0.21820
 H625 H 0.11624 0.96309 0.16116
 H626 H 0.08346 0.87143 0.11392
   
