data_POSCAR
  _audit_creation_date              2014-09-24
  _audit_creation_method            'ToBaCCo'
  _symmetry_space_group_name_H-M    'P1'
  _symmetry_Int_Tables_number       1
  _symmetry_cell_setting            triclinic
  loop_
  _symmetry_equiv_pos_as_xyz
 x,y,z
_cell_length_a 11.6572
_cell_length_b 11.6572
_cell_length_c 10.6889
_cell_angle_alpha 90.432800
_cell_angle_beta 89.567200
_cell_angle_gamma 89.827500
loop_
  _atom_site_label
  _atom_site_type_symbol
  _atom_site_fract_x
  _atom_site_fract_y
  _atom_site_fract_z
O1 O 0.14197 0.58154 1.13211
 O2 O 0.14440 0.40518 0.88833
 O3 O 0.03232 0.62984 0.88920
 O4 O 0.03612 0.38008 1.11062
 O5 O -0.15031 0.40643 1.10599
 O6 O -0.14736 0.58245 0.86382
 O7 O -0.04171 0.37802 0.88431
 O8 O -0.03833 0.62925 1.10867
 Cu9 Cu 0.09707 0.50565 0.99903
 Cu10 Cu -0.10287 0.50553 0.99583
 C11 C 0.06311 0.65068 1.15397
 C12 C 0.06216 0.34679 0.85190
 C13 C -0.06906 0.65217 0.84430
 C14 C -0.06752 0.34920 1.14314
 O15 O 0.40643 -0.15031 0.39314
 O16 O 0.58245 -0.14736 0.63532
 O17 O 0.37801 -0.04170 0.61482
 O18 O 0.62925 -0.03832 0.39047
 O19 O 0.58154 0.14197 0.36702
 O20 O 0.40518 0.14440 0.61080
 O21 O 0.62984 0.03232 0.60993
 O22 O 0.38007 0.03613 0.38851
 Cu23 Cu 0.50552 -0.10286 0.50330
 Cu24 Cu 0.50564 0.09707 0.50010
 C25 C 0.34920 -0.06752 0.35599
 C26 C 0.65217 -0.06906 0.65484
 C27 C 0.34679 0.06216 0.64724
 C28 C 0.65067 0.06311 0.34517
 C29 C -0.14997 0.01733 0.29078
 C30 C -0.04021 0.04657 0.25060
 C31 C -0.01319 0.15622 0.20995
 C32 C -0.09653 0.23987 0.20714
 C33 C -0.21106 0.20960 0.24474
 C34 C -0.23778 0.09598 0.28629
 C35 C 0.04657 -0.04021 0.24854
 C36 C 0.01733 -0.14997 0.20836
 C37 C 0.09598 -0.23777 0.21284
 C38 C 0.20960 -0.21106 0.25440
 C39 C 0.23987 -0.09653 0.29199
 C40 C 0.15622 -0.01318 0.28918
 H41 H -0.16611 -0.06730 0.32840
 H42 H 0.07210 0.17450 0.17423
 H43 H -0.06730 -0.16611 0.17074
 H44 H 0.17450 0.07210 0.32490
 H45 H -0.27844 0.27362 0.24166
 H46 H 0.27362 -0.27844 0.25748
 C47 C -0.01782 -0.15619 0.78846
 C48 C -0.04636 -0.04636 0.74957
 C49 C -0.15619 -0.01782 0.71067
 C50 C -0.24198 -0.09888 0.71015
 C51 C -0.21311 -0.21311 0.74957
 C52 C -0.09888 -0.24197 0.78899
 C53 C 0.04029 0.04029 0.74957
 C54 C 0.15049 0.01163 0.70885
 C55 C 0.23597 0.09253 0.70977
 C56 C 0.20683 0.20684 0.74957
 C57 C 0.09252 0.23597 0.78937
 C58 C 0.01163 0.15049 0.79029
 H59 H 0.06764 -0.17304 0.82347
 H60 H -0.17305 0.06765 0.67567
 H61 H 0.16835 -0.07336 0.67144
 H62 H -0.07336 0.16835 0.82769
 H63 H -0.27872 -0.27872 0.74957
 H64 H 0.27242 0.27242 0.74957
   
