data_POSCAR
  _audit_creation_date              2014-09-24
  _audit_creation_method            'ToBaCCo'
  _symmetry_space_group_name_H-M    'P1'
  _symmetry_Int_Tables_number       1
  _symmetry_cell_setting            triclinic
  loop_
  _symmetry_equiv_pos_as_xyz
 x,y,z
_cell_length_a 22.9750
_cell_length_b 35.7320
_cell_length_c 28.4075
_cell_angle_alpha 90.131500
_cell_angle_beta 89.670500
_cell_angle_gamma 89.441100
loop_
  _atom_site_label
  _atom_site_type_symbol
  _atom_site_fract_x
  _atom_site_fract_y
  _atom_site_fract_z
O1 O 0.27227 0.28767 0.18250
 O2 O 0.32556 0.21121 0.25757
 O3 O 0.26245 0.21573 0.18257
 O4 O 0.33553 0.28446 0.25837
 O5 O 0.25584 0.28953 0.30161
 O6 O 0.18410 0.22010 0.22691
 O7 O 0.24688 0.21676 0.30233
 O8 O 0.19226 0.29204 0.22557
 Cu9 Cu 0.30722 0.24941 0.21613
 Cu10 Cu 0.21202 0.25524 0.26875
 C11 C 0.22235 0.30201 0.19019
 C12 C 0.29481 0.20063 0.29222
 C13 C 0.21019 0.20636 0.19130
 C14 C 0.30803 0.29877 0.29300
 O15 O 0.83634 0.28307 0.23675
 O16 O 0.76373 0.21567 0.31521
 O17 O 0.82698 0.20944 0.23948
 O18 O 0.77464 0.28711 0.31377
 O19 O 0.69409 0.29084 0.27200
 O20 O 0.74803 0.21422 0.19571
 O21 O 0.68529 0.21921 0.27169
 O22 O 0.75628 0.28743 0.19467
 Cu23 Cu 0.80888 0.24843 0.28012
 Cu24 Cu 0.71328 0.25346 0.22881
 C25 C 0.80833 0.29712 0.20254
 C26 C 0.71121 0.20644 0.30759
 C27 C 0.79590 0.19814 0.20564
 C28 C 0.72450 0.30118 0.30684
 O29 O 0.75330 0.79158 0.70195
 O30 O 0.80494 0.71368 0.77516
 O31 O 0.74425 0.71961 0.69759
 O32 O 0.81049 0.78710 0.77937
 O33 O 0.72835 0.79022 0.81918
 O34 O 0.66406 0.72061 0.74025
 O35 O 0.72439 0.71694 0.81763
 O36 O 0.67090 0.79369 0.74218
 Cu37 Cu 0.78662 0.75239 0.73465
 Cu38 Cu 0.68881 0.75530 0.78403
 C39 C 0.70396 0.80655 0.71013
 C40 C 0.77345 0.70176 0.80867
 C41 C 0.69229 0.70892 0.70457
 C42 C 0.77953 0.80191 0.81187
 O43 O 0.32542 0.78396 0.72519
 O44 O 0.25927 0.71265 0.80132
 O45 O 0.31259 0.71205 0.72056
 O46 O 0.26915 0.78560 0.80471
 O47 O 0.18593 0.79230 0.76799
 O48 O 0.22923 0.71923 0.68292
 O49 O 0.17596 0.71961 0.76393
 O50 O 0.24185 0.79114 0.68815
 Cu51 Cu 0.29986 0.74785 0.76688
 Cu52 Cu 0.19971 0.75633 0.72222
 C53 C 0.29510 0.79940 0.69333
 C54 C 0.20670 0.70335 0.79492
 C55 C 0.27849 0.70335 0.68737
 C56 C 0.22047 0.80228 0.80041
 C57 C 0.97835 -0.00769 0.01300
 C58 C 1.03758 -0.00549 0.01072
 C59 C 1.06865 0.02629 0.03248
 C60 C 1.07310 -0.03400 -0.01485
 C61 C 0.94622 -0.03485 -0.01640
 C62 C 0.94332 0.01825 0.04317
 C63 C 1.05419 0.06325 0.02014
 C64 C 1.07784 0.09321 0.04484
 C65 C 1.11636 0.08660 0.08209
 C66 C 1.13369 0.04979 0.09252
 C67 C 1.11002 0.01976 0.06773
 C68 C 1.11240 -0.02286 -0.05002
 C69 C 1.14175 -0.04966 -0.07735
 C70 C 1.13258 -0.08791 -0.06954
 C71 C 1.09493 -0.09911 -0.03334
 C72 C 1.06591 -0.07235 -0.00581
 C73 C 0.90940 -0.06108 0.00476
 C74 C 0.88065 -0.08749 -0.02283
 C75 C 0.88735 -0.08740 -0.07200
 C76 C 0.92393 -0.06102 -0.09313
 C77 C 0.95293 -0.03482 -0.06557
 C78 C 0.95715 0.02331 0.09086
 C79 C 0.92831 0.05059 0.11768
 C80 C 0.88365 0.07241 0.09782
 C81 C 0.86833 0.06642 0.05064
 C82 C 0.89778 0.03945 0.02357
 H83 H 1.02306 0.06878 -0.00754
 H84 H 1.06485 0.12152 0.03590
 H85 H 1.16393 0.04434 0.12085
 H86 H 1.12193 -0.00859 0.07741
 H87 H 1.11863 0.00654 -0.05748
 H88 H 1.17038 -0.04063 -0.10545
 H89 H 1.03660 -0.08151 0.02174
 H90 H 0.90382 -0.06150 0.04264
 H91 H 0.85290 -0.10787 -0.00597
 H92 H 0.92959 -0.06058 -0.13101
 H93 H 0.98075 -0.01453 -0.08252
 H94 H 0.99149 0.00687 0.10694
 H95 H 0.94147 0.05513 0.15378
 H96 H 0.83418 0.08306 0.03460
 H97 H 0.88636 0.03598 -0.01311
 H98 H 1.08740 -0.12855 -0.02697
 C99 C 0.47372 0.50454 0.49268
 C100 C 0.53296 0.50553 0.49630
 C101 C 0.56232 0.53602 0.52237
 C102 C 0.57009 0.47564 0.47511
 C103 C 0.44488 0.47720 0.46129
 C104 C 0.43571 0.53022 0.52060
 C105 C 0.55087 0.57369 0.51138
 C106 C 0.57192 0.60223 0.54011
 C107 C 0.60466 0.59353 0.58026
 C108 C 0.61912 0.55602 0.58960
 C109 C 0.59819 0.52744 0.56076
 C110 C 0.61363 0.48473 0.44238
 C111 C 0.64369 0.45638 0.41808
 C112 C 0.63097 0.41862 0.42659
 C113 C 0.58861 0.40961 0.46039
 C114 C 0.55919 0.43785 0.48504
 C115 C 0.40431 0.45208 0.47997
 C116 C 0.38248 0.42329 0.45202
 C117 C 0.40089 0.41935 0.40509
 C118 C 0.43899 0.44561 0.38564
 C119 C 0.46066 0.47447 0.41351
 C120 C 0.44349 0.53407 0.56939
 C121 C 0.41330 0.56177 0.59439
 C122 C 0.37381 0.58546 0.57126
 C123 C 0.36200 0.57935 0.52341
 C124 C 0.39316 0.55210 0.49812
 H125 H 0.52396 0.58087 0.48149
 H126 H 0.56135 0.63108 0.53184
 H127 H 0.64501 0.54885 0.62008
 H128 H 0.60767 0.49857 0.56966
 H129 H 0.62264 0.51371 0.43430
 H130 H 0.67606 0.46386 0.39197
 H131 H 0.52624 0.43027 0.51061
 H132 H 0.39145 0.45386 0.51665
 H133 H 0.35256 0.40341 0.46730
 H134 H 0.45285 0.44320 0.34924
 H135 H 0.49118 0.49400 0.39829
 H136 H 0.47461 0.51654 0.58775
 H137 H 0.42216 0.56553 0.63151
 H138 H 0.33041 0.59671 0.50530
 H139 H 0.38570 0.54907 0.46070
 H140 H 0.57750 0.38069 0.46696
 C141 C 0.03067 0.50738 0.00478
 C142 C -0.02871 0.50681 0.00749
 C143 C -0.05900 0.47956 0.03831
 C144 C -0.06521 0.53183 -0.02215
 C145 C 0.06175 0.53682 -0.02199
 C146 C 0.06658 0.47733 0.02650
 C147 C -0.09829 0.45413 0.01874
 C148 C -0.11986 0.42468 0.04581
 C149 C -0.10245 0.42036 0.09275
 C150 C -0.06598 0.44703 0.11319
 C151 C -0.04463 0.47656 0.08622
 C152 C -0.05646 0.53326 -0.07113
 C153 C -0.08675 0.55933 -0.09834
 C154 C -0.12733 0.58371 -0.07721
 C155 C -0.13806 0.58130 -0.02864
 C156 C -0.10733 0.55537 -0.00127
 C157 C 0.04940 0.57496 -0.01416
 C158 C 0.07346 0.60217 -0.04346
 C159 C 0.11052 0.59162 -0.08066
 C160 C 0.12584 0.55377 -0.08659
 C161 C 0.10157 0.52655 -0.05748
 C162 C 0.10960 0.48629 0.05939
 C163 C 0.13980 0.45786 0.08294
 C164 C 0.12779 0.42012 0.07351
 C165 C 0.08578 0.41125 0.03970
 C166 C 0.05615 0.43959 0.01584
 H167 H -0.10999 0.45601 -0.01807
 H168 H -0.14856 0.40451 0.02976
 H169 H -0.05292 0.44435 0.14961
 H170 H -0.01502 0.49624 0.10212
 H171 H -0.02500 0.51482 -0.08806
 H172 H -0.07810 0.56085 -0.13581
 H173 H -0.11492 0.55452 0.03637
 H174 H 0.01967 0.58349 0.01366
 H175 H 0.06184 0.63132 -0.03805
 H176 H 0.15517 0.54528 -0.11472
 H177 H 0.11202 0.49735 -0.06388
 H178 H 0.11837 0.51525 0.06790
 H179 H 0.17188 0.46525 0.10908
 H180 H 0.07523 0.38234 0.03241
 H181 H 0.02375 0.43211 -0.00998
 H182 H -0.16922 0.60004 -0.01188
 C183 C 0.53066 1.00590 0.50315
 C184 C 0.47179 1.00333 0.49850
 C185 C 0.43845 0.97565 0.52618
 C186 C 0.43864 1.02802 0.46605
 C187 C 0.56376 1.03636 0.48041
 C188 C 0.56389 0.97802 0.53097
 C189 C 0.40790 0.94724 0.50314
 C190 C 0.38232 0.91851 0.52912
 C191 C 0.38665 0.91823 0.57833
 C192 C 0.41477 0.94753 0.60150
 C193 C 0.44037 0.97617 0.57558
 C194 C 0.45550 1.03156 0.41867
 C195 C 0.42758 1.05741 0.38954
 C196 C 0.38102 1.07927 0.40680
 C197 C 0.36276 1.07474 0.45368
 C198 C 0.39120 1.04919 0.48303
 C199 C 0.54896 1.07395 0.48924
 C200 C 0.57423 1.10237 0.46269
 C201 C 0.61448 1.09355 0.42692
 C202 C 0.63218 1.05623 0.42021
 C203 C 0.60705 1.02776 0.44694
 C204 C 0.59343 0.98919 0.57162
 C205 C 0.61975 0.96246 0.60060
 C206 C 0.61811 0.92431 0.58863
 C207 C 0.58955 0.91329 0.54740
 C208 C 0.56282 0.93996 0.51868
 H209 H 0.40602 0.94650 0.46506
 H210 H 0.36066 0.89596 0.51092
 H211 H 0.41828 0.94758 0.63951
 H212 H 0.46328 0.99815 0.59388
 H213 H 0.49129 1.01500 0.40458
 H214 H 0.44294 1.06084 0.35370
 H215 H 0.37739 1.04677 0.51941
 H216 H 0.51622 1.08109 0.51542
 H217 H 0.56087 1.13114 0.46878
 H218 H 0.66368 1.04906 0.39306
 H219 H 0.61915 0.99891 0.43988
 H220 H 0.59417 1.01842 0.58178
 H221 H 0.64068 0.97141 0.63273
 H222 H 0.58743 0.88398 0.53780
 H223 H 0.54021 0.93091 0.48736
 H224 H 0.32706 1.09144 0.46772
 C225 C 1.12126 0.17250 0.16306
 C226 C 1.18264 0.17953 0.16241
 C227 C 1.21849 0.15696 0.13330
 C228 C 1.19629 0.12699 0.10816
 C229 C 1.13738 0.11823 0.11079
 C230 C 1.09936 0.14055 0.13879
 C231 C 1.08032 0.19690 0.18516
 C232 C 1.02148 0.18787 0.18789
 C233 C 1.00156 0.15492 0.16798
 C234 C 1.03975 0.13164 0.14313
 H235 H 1.09196 0.22385 0.19909
 H236 H 0.99110 0.20668 0.20544
 H237 H 0.95608 0.14773 0.17102
 H238 H 1.02211 0.10665 0.12741
 H239 H 1.26499 0.16149 0.13102
 H240 H 1.22560 0.11026 0.08651
 C241 C 0.60466 0.67749 0.66500
 C242 C 0.66587 0.68143 0.67161
 C243 C 0.70402 0.65697 0.64759
 C244 C 0.68333 0.62882 0.61847
 C245 C 0.62363 0.62362 0.61260
 C246 C 0.58361 0.64739 0.63678
 C247 C 0.56355 0.70279 0.68492
 C248 C 0.50396 0.69645 0.68129
 C249 C 0.48382 0.66558 0.65673
 C250 C 0.52297 0.64148 0.63413
 H251 H 0.57617 0.72812 0.70264
 H252 H 0.47317 0.71569 0.69757
 H253 H 0.43760 0.66050 0.65484
 H254 H 0.50526 0.61799 0.61514
 H255 H 0.75069 0.65922 0.65185
 H256 H 0.71436 0.61079 0.60032
 C257 C -0.10552 0.32705 0.15933
 C258 C -0.16530 0.32659 0.17275
 C259 C -0.20210 0.35589 0.15821
 C260 C -0.18090 0.38576 0.13227
 C261 C -0.12201 0.38765 0.12022
 C262 C -0.08365 0.35816 0.13339
 C263 C -0.06729 0.29692 0.16944
 C264 C -0.00881 0.29807 0.15603
 C265 C 0.01266 0.32878 0.13173
 C266 C -0.02431 0.35846 0.12012
 H267 H -0.08202 0.27180 0.18664
 H268 H 0.01991 0.27481 0.16413
 H269 H 0.05799 0.32935 0.12117
 H270 H -0.00610 0.38134 0.10026
 H271 H -0.24782 0.35609 0.16783
 H272 H -0.21065 0.40798 0.12204
 C273 C 0.37621 0.82360 0.64008
 C274 C 0.32109 0.82811 0.66256
 C275 C 0.28882 0.86110 0.65542
 C276 C 0.31060 0.88989 0.62782
 C277 C 0.36479 0.88627 0.60569
 C278 C 0.39789 0.85293 0.61110
 C279 C 0.40977 0.79044 0.64457
 C280 C 0.46300 0.78637 0.62116
 C281 C 0.48405 0.81506 0.59305
 C282 C 0.45213 0.84815 0.58812
 H283 H 0.39503 0.76699 0.66518
 H284 H 0.48789 0.76069 0.62445
 H285 H 0.52541 0.81169 0.57500
 H286 H 0.47023 0.86982 0.56605
 H287 H 0.24672 0.86495 0.67224
 H288 H 0.28506 0.91532 0.62380
 C289 C -0.24024 0.64022 -0.14699
 C290 C -0.20473 0.67036 -0.16215
 C291 C -0.14572 0.67055 -0.14989
 C292 C -0.12180 0.64231 -0.12232
 C293 C -0.15610 0.61297 -0.10578
 C294 C -0.21573 0.61157 -0.11802
 C295 C -0.29877 0.63690 -0.16137
 C296 C -0.33270 0.60707 -0.14616
 C297 C -0.30906 0.57969 -0.11705
 C298 C -0.25104 0.58164 -0.10330
 H299 H -0.31880 0.65660 -0.18520
 H300 H -0.37750 0.60500 -0.15741
 H301 H -0.33559 0.55652 -0.10558
 H302 H -0.23402 0.55931 -0.08155
 H303 H -0.11781 0.69306 -0.16144
 H304 H -0.07601 0.64344 -0.11351
 C305 C 0.31226 1.13139 0.30275
 C306 C 0.31431 1.16847 0.32037
 C307 C 0.33437 1.17507 0.36593
 C308 C 0.35443 1.14565 0.39367
 C309 C 0.35430 1.10869 0.37687
 C310 C 0.33152 1.10114 0.33150
 C311 C 0.29023 1.12366 0.25748
 C312 C 0.28646 1.08696 0.24115
 C313 C 0.30400 1.05733 0.26962
 C314 C 0.32603 1.06419 0.31444
 H315 H 0.27526 1.14579 0.23454
 H316 H 0.26924 1.08147 0.20644
 H317 H 0.30018 1.02885 0.25702
 H318 H 0.33770 1.04026 0.33574
 H319 H 0.33572 1.20335 0.37974
 H320 H 0.37168 1.15193 0.42819
 C321 C 1.24259 -0.14842 -0.13866
 C322 C 1.20330 -0.16886 -0.16799
 C323 C 1.14332 -0.16058 -0.16449
 C324 C 1.12171 -0.13495 -0.13191
 C325 C 1.15889 -0.11611 -0.10156
 C326 C 1.21961 -0.12282 -0.10430
 C327 C 1.30397 -0.15075 -0.14386
 C328 C 1.34082 -0.13152 -0.11361
 C329 C 1.31792 -0.10888 -0.07814
 C330 C 1.25796 -0.10423 -0.07364
 H331 H 1.32500 -0.16595 -0.17207
 H332 H 1.38754 -0.13396 -0.11802
 H333 H 1.34681 -0.09420 -0.05463
 H334 H 1.24197 -0.08582 -0.04607
 H335 H 1.11192 -0.17487 -0.18626
 H336 H 1.07519 -0.12963 -0.13046
 C337 C 0.70797 0.32751 0.38927
 C338 C 0.70133 0.32999 0.33961
 C339 C 0.67261 0.36108 0.32038
 C340 C 0.65151 0.38981 0.34907
 C341 C 0.65880 0.38859 0.39797
 C342 C 0.68836 0.35767 0.41843
 C343 C 0.73213 0.29536 0.41093
 C344 C 0.74056 0.29414 0.45946
 C345 C 0.72499 0.32465 0.48743
 C346 C 0.69909 0.35614 0.46731
 H347 H 0.74379 0.27057 0.39109
 H348 H 0.75947 0.26941 0.47543
 H349 H 0.73244 0.32375 0.52501
 H350 H 0.68790 0.37926 0.49038
 H351 H 0.66670 0.36328 0.28266
 H352 H 0.62843 0.41302 0.33298
 C353 C 0.76742 -0.14176 -0.13553
 C354 C 0.80254 -0.16888 -0.16032
 C355 C 0.86350 -0.16623 -0.15732
 C356 C 0.88968 -0.13990 -0.12850
 C357 C 0.85629 -0.11484 -0.10164
 C358 C 0.79482 -0.11516 -0.10533
 C359 C 0.70647 -0.13814 -0.14243
 C360 C 0.67349 -0.11153 -0.11786
 C361 C 0.70014 -0.08695 -0.08708
 C362 C 0.76020 -0.08823 -0.08134
 H363 H 0.68315 -0.15418 -0.16816
 H364 H 0.62701 -0.10947 -0.12354
 H365 H 0.67433 -0.06606 -0.06856
 H366 H 0.77911 -0.06730 -0.05873
 H367 H 0.89174 -0.18559 -0.17627
 H368 H 0.93678 -0.13941 -0.12663
 C369 C 0.39507 0.32714 0.33603
 C370 C 0.33540 0.32782 0.32271
 C371 C 0.29964 0.35760 0.33780
 C372 C 0.32172 0.38681 0.36439
 C373 C 0.38048 0.38748 0.37658
 C374 C 0.41785 0.35756 0.36269
 C375 C 0.43225 0.29651 0.32517
 C376 C 0.49061 0.29659 0.33849
 C377 C 0.51298 0.32663 0.36354
 C378 C 0.47702 0.35671 0.37597
 H379 H 0.41680 0.27184 0.30737
 H380 H 0.51855 0.27302 0.32975
 H381 H 0.55823 0.32635 0.37402
 H382 H 0.49589 0.37901 0.39646
 H383 H 0.25404 0.35864 0.32827
 H384 H 0.29275 0.40940 0.37516
 C385 C 0.14380 0.64561 -0.19385
 C386 C 0.18100 0.67363 -0.17553
 C387 C 0.19369 0.67385 -0.12732
 C388 C 0.16980 0.64745 -0.09711
 C389 C 0.13233 0.61999 -0.11408
 C390 C 0.11792 0.61933 -0.16256
 C391 C 0.13276 0.64234 -0.24260
 C392 C 0.09426 0.61564 -0.25957
 C393 C 0.06633 0.59154 -0.22862
 C394 C 0.07799 0.59318 -0.18059
 H395 H 0.15422 0.65972 -0.26829
 H396 H 0.08599 0.61368 -0.29697
 H397 H 0.03593 0.57119 -0.24196
 H398 H 0.05526 0.57391 -0.15783
 H399 H 0.22207 0.69493 -0.11276
 H400 H 0.18104 0.64825 -0.06013
 C401 C 0.62152 1.17421 0.33828
 C402 C 0.68302 1.18106 0.33830
 C403 C 0.71825 1.16003 0.36919
 C404 C 0.69535 1.13183 0.39708
 C405 C 0.63635 1.12326 0.39541
 C406 C 0.59901 1.14386 0.36530
 C407 C 0.58098 1.19727 0.31404
 C408 C 0.52219 1.18812 0.31192
 C409 C 0.50181 1.15646 0.33460
 C410 C 0.53948 1.13474 0.36154
 H411 H 0.59271 1.22337 0.29787
 H412 H 0.49218 1.20584 0.29266
 H413 H 0.45637 1.14914 0.33209
 H414 H 0.52148 1.11074 0.37931
 H415 H 0.76476 1.16448 0.37105
 H416 H 0.72418 1.11635 0.42018
 C417 C 0.20590 0.32900 0.10826
 C418 C 0.19913 0.33099 0.15802
 C419 C 0.17012 0.36182 0.17810
 C420 C 0.14873 0.39070 0.15019
 C421 C 0.15600 0.38995 0.10122
 C422 C 0.18597 0.35936 0.07988
 C423 C 0.23047 0.29719 0.08574
 C424 C 0.23901 0.29648 0.03712
 C425 C 0.22313 0.32718 0.00991
 C426 C 0.19682 0.35835 0.03090
 H427 H 0.24237 0.27226 0.10496
 H428 H 0.25824 0.27200 0.02049
 H429 H 0.23068 0.32668 -0.02773
 H430 H 0.18541 0.38163 0.00840
 H431 H 0.16415 0.36370 0.21590
 H432 H 0.12539 0.41365 0.16696
 C433 C 0.72308 0.86718 0.66557
 C434 C 0.68446 0.83892 0.68157
 C435 C 0.62578 0.84072 0.66860
 C436 C 0.60547 0.86879 0.63896
 C437 C 0.64316 0.89560 0.62041
 C438 C 0.70268 0.89486 0.63335
 C439 C 0.78116 0.86921 0.68155
 C440 C 0.81911 0.89591 0.66361
 C441 C 0.80017 0.92120 0.62974
 C442 C 0.74256 0.92084 0.61468
 H443 H 0.79774 0.85095 0.70868
 H444 H 0.86354 0.89692 0.67601
 H445 H 0.83009 0.94152 0.61546
 H446 H 0.72980 0.94101 0.58830
 H447 H 0.59543 0.81981 0.68087
 H448 H 0.55972 0.86964 0.63027
 C449 C 0.81015 0.12840 0.19745
 C450 C 0.81476 0.16495 0.17867
 C451 C 0.83765 0.16999 0.13348
 C452 C 0.85817 0.13951 0.10739
 C453 C 0.85577 0.10305 0.12553
 C454 C 0.82988 0.09710 0.17037
 C455 C 0.78535 0.12223 0.24233
 C456 C 0.77921 0.08607 0.25984
 C457 C 0.79713 0.05543 0.23293
 C458 C 0.82196 0.06073 0.18855
 H459 H 0.77006 0.14518 0.26407
 H460 H 0.75988 0.08180 0.29424
 H461 H 0.79149 0.02738 0.24641
 H462 H 0.83391 0.03606 0.16845
 H463 H 0.84106 0.19785 0.11880
 H464 H 0.87776 0.14456 0.07323
 C465 C 0.32619 0.68377 0.61108
 C466 C 0.29719 0.67453 0.65349
 C467 C 0.29154 0.63708 0.66654
 C468 C 0.31505 0.60866 0.63858
 C469 C 0.34613 0.61694 0.59733
 C470 C 0.35262 0.65488 0.58346
 C471 C 0.33114 0.72129 0.59640
 C472 C 0.36366 0.73039 0.55655
 C473 C 0.39221 0.70242 0.53097
 C474 C 0.38706 0.66503 0.54421
 H475 H 0.31011 0.74384 0.61567
 H476 H 0.36748 0.75934 0.54591
 H477 H 0.41853 0.70973 0.50070
 H478 H 0.41111 0.64448 0.52381
 H479 H 0.26965 0.62984 0.69913
 H480 H 0.31009 0.57990 0.64979
   
