data_POSCAR
  _audit_creation_date              2014-09-24
  _audit_creation_method            'ToBaCCo'
  _symmetry_space_group_name_H-M    'P1'
  _symmetry_Int_Tables_number       1
  _symmetry_cell_setting            triclinic
  loop_
  _symmetry_equiv_pos_as_xyz
 x,y,z
_cell_length_a 26.2793
_cell_length_b 26.2690
_cell_length_c 26.8940
_cell_angle_alpha 93.621100
_cell_angle_beta 92.384100
_cell_angle_gamma 87.400100
loop_
  _atom_site_label
  _atom_site_type_symbol
  _atom_site_fract_x
  _atom_site_fract_y
  _atom_site_fract_z
C1 C 0.15862 0.52322 1.07013
 H2 H 0.13676 0.52007 1.03540
 C3 C 0.13263 0.52687 1.11411
 H4 H 0.09135 0.52721 1.11151
 C5 C 0.23799 0.52431 1.11492
 H6 H 0.27917 0.52224 1.11500
 C7 C 0.21325 0.52755 1.16043
 H8 H 0.23605 0.52841 1.19487
 N9 N 0.21041 0.52181 1.07082
 C10 C 0.28896 0.57122 0.94412
 H11 H 0.26664 0.54934 0.91650
 C12 C 0.32383 0.60444 0.92845
 H13 H 0.32731 0.60726 0.88885
 C14 C 0.31202 0.59183 1.02878
 H15 H 0.30784 0.58625 1.06778
 C16 C 0.34783 0.62563 1.01462
 H17 H 0.37066 0.64605 1.04307
 Zn18 Zn 0.23967 0.51263 1.00672
 N19 N 0.28371 0.56513 0.99344
 C20 C 0.16347 0.56210 0.95247
 N21 N 0.18565 0.51488 0.95745
 C22 C 0.16881 0.47350 0.92957
 C23 C 0.12757 0.47904 0.89521
 C24 C 0.12249 0.56931 0.91890
 C25 C 0.29520 0.42370 1.03974
 C26 C 0.33414 0.38569 1.03479
 C27 C 0.33646 0.40139 0.94745
 C28 C 0.29795 0.43904 0.95408
 N29 N 0.27929 0.45069 0.99994
 H30 H 0.17759 0.59431 0.97516
 H31 H 0.18683 0.43621 0.93437
 H32 H 0.11431 0.44582 0.87341
 H33 H 0.10627 0.60756 0.91595
 H34 H 0.27985 0.43334 1.07591
 H35 H 0.34824 0.36626 1.06727
 H36 H 0.35119 0.39396 0.91064
 H37 H 0.28451 0.46061 0.92290
 C38 C 0.35435 0.63189 0.96377
 C39 C 0.15959 0.52818 1.16030
 C40 C 0.35663 0.37568 0.98857
 C41 C 0.10359 0.52744 0.88986
 C42 C 0.80697 0.51039 -0.06621
 H43 H 0.80760 0.54544 -0.04304
 C44 C 0.83830 0.50405 -0.10703
 H45 H 0.86284 0.53442 -0.11467
 C46 C 0.77546 0.42789 -0.08364
 H47 H 0.75119 0.39809 -0.07437
 C48 C 0.80639 0.41983 -0.12468
 H49 H 0.80501 0.38390 -0.14654
 N50 N 0.77752 0.47196 -0.05433
 C51 C 0.68074 0.54836 0.05811
 H52 H 0.69349 0.52647 0.08939
 C53 C 0.64489 0.58872 0.06488
 H54 H 0.63068 0.59765 0.10170
 C55 C 0.68426 0.56237 -0.02785
 H56 H 0.69942 0.55149 -0.06394
 C57 C 0.64842 0.60322 -0.02272
 H58 H 0.63620 0.62356 -0.05522
 Zn59 Zn 0.74519 0.47790 0.00792
 N60 N 0.69908 0.53553 0.01224
 C61 C 0.81146 0.53845 0.06268
 N62 N 0.79663 0.48949 0.05834
 C63 C 0.81921 0.45334 0.08709
 C64 C 0.85953 0.46598 0.12077
 C65 C 0.85108 0.55266 0.09561
 C66 C 0.65663 0.42493 0.01806
 C67 C 0.62632 0.38335 0.02150
 C68 C 0.70224 0.32811 0.02219
 C69 C 0.73134 0.37107 0.01864
 N70 N 0.70822 0.41844 0.01675
 H71 H 0.79248 0.56682 0.04023
 H72 H 0.80668 0.41470 0.08366
 H73 H 0.87767 0.43678 0.14296
 H74 H 0.86148 0.59203 0.09748
 H75 H 0.63842 0.46231 0.01519
 H76 H 0.58533 0.38979 0.02199
 H77 H 0.72133 0.29081 0.02291
 H78 H 0.77223 0.36634 0.01590
 C79 C 0.62765 0.61631 0.02397
 C80 C 0.83958 0.45765 -0.13583
 C81 C 0.64886 0.33411 0.02339
 C82 C 0.87632 0.51617 0.12487
 C83 C 0.01351 0.34073 0.42655
 H84 H 0.00908 0.35854 0.46345
 C85 C 0.01557 0.37162 0.38671
 H86 H 0.01362 0.41265 0.39438
 C87 C 0.01885 0.26633 0.37229
 H88 H 0.01834 0.22522 0.36678
 C89 C 0.02115 0.29604 0.33094
 H90 H 0.02341 0.27698 0.29422
 N91 N 0.01469 0.28906 0.41900
 C92 C -0.07629 0.19481 0.50715
 H93 H -0.05567 0.19646 0.54269
 C94 C -0.11760 0.16326 0.49983
 H95 H -0.12799 0.14073 0.52992
 C96 C -0.08717 0.22092 0.42460
 H97 H -0.07513 0.24305 0.39511
 C98 C -0.12852 0.18958 0.41555
 H99 H -0.14781 0.18849 0.37921
 Zn100 Zn 0.00369 0.25224 0.47623
 N101 N -0.06063 0.22141 0.46918
 C102 C -0.03356 0.31510 0.55984
 N103 N 0.00759 0.29836 0.53341
 C104 C 0.05502 0.31449 0.54643
 C105 C 0.06266 0.34892 0.58737
 C106 C -0.02763 0.34986 0.60116
 C107 C 0.08692 0.17843 0.45290
 C108 C 0.12073 0.13782 0.46527
 C109 C 0.08675 0.14253 0.54751
 C110 C 0.05408 0.18263 0.53373
 N111 N 0.05399 0.19946 0.48704
 H112 H -0.07096 0.30196 0.54863
 H113 H 0.08701 0.30069 0.52457
 H114 H 0.10081 0.36126 0.59631
 H115 H -0.06076 0.36302 0.62176
 H116 H 0.08697 0.19268 0.41613
 H117 H 0.14657 0.12121 0.43778
 H118 H 0.08478 0.13027 0.58491
 H119 H 0.02879 0.20073 0.56079
 C120 C -0.14297 0.15879 0.45294
 C121 C 0.01871 0.34970 0.33786
 C122 C 0.12072 0.11925 0.51318
 C123 C 0.02102 0.36718 0.61543
 C124 C 0.93938 0.71014 0.59765
 H125 H 0.91085 0.73656 0.58280
 C126 C 0.92429 0.67278 0.62789
 H127 H 0.88469 0.67253 0.63724
 C128 C 1.02452 0.67664 0.60065
 H129 H 1.06310 0.67700 0.58852
 C130 C 1.01109 0.63869 0.63135
 H131 H 1.03992 0.61077 0.64322
 N132 N 0.98867 0.71129 0.58416
 C133 C 0.92430 0.81936 0.48782
 H134 H 0.93155 0.79750 0.45323
 C135 C 0.88956 0.86141 0.48808
 H136 H 0.86996 0.87151 0.45363
 C137 C 0.94225 0.83423 0.57449
 H138 H 0.96339 0.82365 0.60793
 C139 C 0.90831 0.87648 0.57635
 H140 H 0.90302 0.89748 0.61180
 Zn141 Zn 1.00179 0.75391 0.53180
 N142 N 0.95022 0.80705 0.53061
 C143 C 0.95044 0.68984 0.46594
 N144 N 0.99629 0.71146 0.47288
 C145 C 1.03541 0.69808 0.44238
 C146 C 1.02968 0.65931 0.40458
 C147 C 0.94295 0.65162 0.42867
 C148 C 1.06580 0.83637 0.54089
 C149 C 1.11061 0.86247 0.54115
 C150 C 1.15829 0.78179 0.53719
 C151 C 1.11210 0.75694 0.53750
 N152 N 1.06683 0.78445 0.53865
 H153 H 0.91995 0.70136 0.49055
 H154 H 1.07154 0.71594 0.44835
 H155 H 1.06155 0.64769 0.38160
 H156 H 0.90596 0.63518 0.42479
 H157 H 1.03014 0.85819 0.54074
 H158 H 1.10809 0.90379 0.54191
 H159 H 1.19365 0.75922 0.53470
 H160 H 1.11250 0.71572 0.53458
 C161 C 0.88215 0.89117 0.53258
 C162 C 0.96013 0.63569 0.64428
 C163 C 1.15765 0.83541 0.53825
 C164 C 0.98335 0.63459 0.39835
 C165 C 0.42164 0.01346 0.33004
 H166 H 0.45438 0.03553 0.34140
 C167 C 0.38129 0.01183 0.36187
 H168 H 0.38325 0.03278 0.39787
 C169 C 0.38003 -0.04161 0.26977
 H170 H 0.38010 -0.06324 0.23428
 C171 C 0.33837 -0.04368 0.30021
 H172 H 0.30691 -0.06710 0.28778
 N173 N 0.42043 -0.01306 0.28499
 C174 C 0.50741 -0.09778 0.18145
 H175 H 0.53752 -0.10579 0.20882
 C176 C 0.50305 -0.12905 0.13734
 H177 H 0.52987 -0.16123 0.13163
 C178 C 0.43690 -0.04552 0.15521
 H179 H 0.41158 -0.01244 0.16222
 C180 C 0.43120 -0.07541 0.11086
 H181 H 0.40083 -0.06444 0.08490
 Zn182 Zn 0.47836 -0.00974 0.24586
 N183 N 0.47428 -0.05706 0.18956
 C184 C 0.54254 -0.06604 0.31146
 N185 N 0.53722 -0.02175 0.28777
 C186 C 0.57017 0.01636 0.29797
 C187 C 0.60985 0.01106 0.33375
 C188 C 0.58197 -0.07310 0.34732
 C189 C 0.51372 0.06068 0.18431
 C190 C 0.51297 0.10509 0.15850
 C191 C 0.44395 0.13971 0.20871
 C192 C 0.44547 0.09414 0.23313
 N193 N 0.47975 0.05564 0.22023
 H194 H 0.51516 -0.09530 0.30356
 H195 H 0.56476 0.05173 0.27962
 H196 H 0.63507 0.04225 0.34187
 H197 H 0.58462 -0.10823 0.36635
 H198 H 0.54015 0.02924 0.17445
 H199 H 0.53929 0.10775 0.12892
 H200 H 0.41543 0.16932 0.21831
 H201 H 0.41821 0.08906 0.26118
 C202 C 0.46461 -0.11801 0.10099
 C203 C 0.33896 -0.01694 0.34707
 C204 C 0.47737 0.14501 0.17014
 C205 C 0.61591 -0.03387 0.35937
 C206 C 0.59932 -0.02470 0.67498
 H207 H 0.58286 -0.06177 0.67393
 C208 C 0.62910 -0.01245 0.63609
 H209 H 0.63683 -0.04094 0.60615
 C210 C 0.60467 0.05909 0.71255
 H211 H 0.59275 0.08755 0.74097
 C212 C 0.63386 0.07326 0.67380
 H213 H 0.64596 0.11210 0.67405
 N214 N 0.58712 0.01111 0.71177
 C215 C 0.49868 -0.07284 0.81046
 H216 H 0.46534 -0.04714 0.81100
 C217 C 0.50200 -0.11372 0.84111
 H218 H 0.47066 -0.11983 0.86466
 C219 C 0.58078 -0.09487 0.78024
 H220 H 0.61211 -0.08617 0.75789
 C221 C 0.58522 -0.13710 0.80960
 H222 H 0.61974 -0.16120 0.80896
 Zn223 Zn 0.53072 -0.00207 0.74930
 N224 N 0.53784 -0.06390 0.78120
 C225 C 0.44636 -0.04157 0.68762
 N226 N 0.47584 -0.00163 0.70221
 C227 C 0.47016 0.04354 0.68041
 C228 C 0.43393 0.05029 0.64224
 C229 C 0.40931 -0.03649 0.64893
 C230 C 0.55447 0.06371 0.83431
 C231 C 0.54205 0.09616 0.87577
 C232 C 0.45413 0.09802 0.84556
 C233 C 0.46823 0.06640 0.80461
 N234 N 0.51755 0.04950 0.79987
 H235 H 0.45218 -0.07740 0.70518
 H236 H 0.49430 0.07451 0.69276
 H237 H 0.43059 0.08710 0.62642
 H238 H 0.38629 -0.06854 0.63706
 H239 H 0.59319 0.04865 0.83033
 H240 H 0.57144 0.10656 0.90352
 H241 H 0.41448 0.11036 0.84878
 H242 H 0.43911 0.05343 0.77788
 C243 C 0.54566 -0.14633 0.84097
 C244 C 0.64501 0.03757 0.63419
 C245 C 0.49106 0.11244 0.88223
 C246 C 0.40322 0.00985 0.62538
 C247 C 0.25651 -0.01806 0.50684
 C248 C 0.74729 0.01950 0.48552
 C249 C 0.49074 0.24201 1.02266
 C250 C 0.49898 0.74588 -0.02738
 C251 C 1.01325 0.50838 0.25676
 C252 C -0.02396 0.49180 0.75261
 C253 C 0.15613 0.07652 0.52764
 C254 C 0.16182 0.05975 0.57539
 C255 C 0.19851 0.02196 0.57308
 C256 C 0.21272 0.01757 0.52412
 O257 O 0.18730 0.05096 0.49639
 H258 H 0.14280 0.07369 0.60872
 H259 H 0.21414 0.00059 0.60371
 C260 C 0.58680 0.65697 0.02873
 C261 C 0.55557 0.66584 0.06872
 C262 C 0.52012 0.70209 0.05451
 C263 C 0.53263 0.71374 0.00719
 O264 O 0.57268 0.68576 -0.00838
 H265 H 0.55637 0.64640 0.10301
 H266 H 0.48745 0.71639 0.07517
 C267 C 0.84858 -0.06201 0.53324
 C268 C 0.85205 -0.02231 0.56918
 C269 C 0.81518 0.01265 0.55617
 C270 C 0.79098 -0.00815 0.51342
 O271 O 0.81217 -0.05312 0.49882
 H272 H 0.87885 -0.01855 0.60068
 H273 H 0.80685 0.04929 0.57550
 C274 C 0.40273 0.34128 0.98394
 C275 C 0.43527 0.34044 0.94485
 C276 C 0.47266 0.30512 0.95538
 C277 C 0.46126 0.28717 1.00067
 O278 O 0.41832 0.30876 1.01779
 H279 H 0.43263 0.36290 0.91245
 H280 H 0.50429 0.29294 0.93231
 C281 C 0.81841 0.11969 0.44311
 C282 C 0.80086 0.10143 0.39658
 C283 C 0.77108 0.06193 0.40500
 C284 C 0.77191 0.05915 0.45629
 O285 O 0.80106 0.09400 0.47907
 H286 H 0.81048 0.11347 0.36055
 H287 H 0.75294 0.03720 0.37660
 C288 C 0.39372 0.66551 -0.05219
 C289 C 0.40042 0.67718 -0.10083
 C290 C 0.44078 0.70778 -0.09877
 C291 C 0.45637 0.71277 -0.04899
 O292 O 0.42740 0.68744 -0.02073
 H293 H 0.37851 0.66559 -0.13419
 H294 H 0.45611 0.72517 -0.13000
 C295 C 0.20388 -0.13534 0.53296
 C296 C 0.25310 -0.15472 0.52640
 C297 C 0.28090 -0.11340 0.51797
 C298 C 0.24671 -0.07187 0.52059
 O299 O 0.20032 -0.08546 0.52927
 H300 H 0.26688 -0.19417 0.52581
 H301 H 0.32069 -0.11368 0.50908
 C302 C 0.61534 0.29044 1.02502
 C303 C 0.63048 0.24005 1.03099
 C304 C 0.58629 0.21438 1.03042
 C305 C 0.54749 0.25086 1.02353
 O306 O 0.56524 0.29680 1.02088
 H307 H 0.66879 0.22384 1.03581
 H308 H 0.58265 0.17405 1.03481
 C309 C 0.47322 0.18941 1.13888
 C310 C 0.45190 0.23712 1.15195
 C311 C 0.45549 0.26476 1.11089
 C312 C 0.47786 0.23145 1.07544
 O313 O 0.48924 0.18625 1.09294
 H314 H 0.43626 0.25044 1.18725
 H315 H 0.44370 0.30444 1.10782
 C316 C -0.05516 0.59328 0.67354
 C317 C -0.10458 0.57929 0.67915
 C318 C -0.10062 0.53874 0.70852
 C319 C -0.04901 0.53089 0.71898
 O320 O -0.02159 0.56367 0.69731
 H321 H -0.13952 0.59607 0.66349
 H322 H -0.13177 0.51780 0.72091
 C323 C 0.54884 0.81062 -0.12624
 C324 C 0.57411 0.76435 -0.13668
 C325 C 0.56102 0.73403 -0.10034
 C326 C 0.52970 0.76444 -0.06932
 O327 O 0.52203 0.81071 -0.08575
 H328 H 0.59635 0.75294 -0.16879
 H329 H 0.57054 0.69367 -0.09892
 C330 C 1.01800 0.38222 0.29820
 C331 C 1.02158 0.36833 0.24787
 C332 C 1.01924 0.41333 0.22455
 C333 C 1.01352 0.45122 0.26215
 O334 O 1.01351 0.43225 0.30641
 H335 H 1.02611 0.33043 0.23004
 H336 H 1.02207 0.41808 0.18510
 C337 C 0.46024 0.85132 0.05606
 C338 C 0.42456 0.85927 0.01758
 C339 C 0.43415 0.82138 -0.01793
 C340 C 0.47471 0.79234 0.00094
 O341 O 0.49086 0.81077 0.04564
 H342 H 0.39499 0.88899 0.01475
 H343 H 0.41409 0.81558 -0.05367
 C344 C 0.02763 0.40424 0.65901
 C345 C 0.07371 0.41933 0.68032
 C346 C 0.06174 0.45356 0.71866
 C347 C 0.00904 0.45665 0.71870
 O348 O -0.01141 0.42724 0.68197
 H349 H 0.11176 0.40737 0.66943
 H350 H 0.08867 0.47441 0.74259
 C351 C 0.47574 0.14268 0.92764
 C352 C 0.42845 0.14108 0.94781
 C353 C 0.42886 0.17603 0.98711
 C354 C 0.47658 0.19626 0.98858
 O355 O 0.50517 0.17605 0.95233
 H356 H 0.39706 0.11774 0.93501
 H357 H 0.39761 0.18688 1.01110
 C358 C 0.97759 0.59039 0.36179
 C359 C 0.93636 0.55932 0.35900
 C360 C 0.94542 0.52451 0.32089
 C361 C 0.99198 0.53577 0.30328
 O362 O 1.01157 0.57608 0.32788
 H363 H 0.90320 0.56132 0.38159
 H364 H 0.92063 0.49466 0.30675
 C365 C 1.13170 0.52763 0.20380
 C366 C 1.15056 0.52573 0.25254
 C367 C 1.10868 0.52095 0.28048
 C368 C 1.06745 0.52117 0.24690
 O369 O 1.08168 0.52485 0.20089
 H370 H 1.18986 0.52566 0.26616
 H371 H 1.10839 0.51576 0.32006
 C372 C 0.67091 0.05206 0.58975
 C373 C 0.67284 0.10097 0.57413
 C374 C 0.69952 0.09618 0.53154
 C375 C 0.71231 0.04461 0.52438
 O376 O 0.69429 0.01798 0.55941
 H377 H 0.65648 0.13594 0.59135
 H378 H 0.70920 0.12687 0.50914
 C379 C -0.12262 0.44856 0.82480
 C380 C -0.10827 0.40141 0.80296
 C381 C -0.06976 0.41021 0.77268
 C382 C -0.06343 0.46236 0.77766
 O383 O -0.09535 0.48536 0.80964
 H384 H -0.12255 0.36456 0.80953
 H385 H -0.04832 0.38146 0.75074
 C386 C 0.29777 -0.02065 0.38230
 C387 C 0.24862 -0.03519 0.37056
 C388 C 0.22535 -0.03450 0.41519
 C389 C 0.26205 -0.01966 0.45078
 O390 O 0.30576 -0.01146 0.43068
 H391 H 0.23179 -0.04535 0.33410
 H392 H 0.18679 -0.04476 0.42132
 C393 C 0.05970 0.53434 0.85394
 C394 C 0.03032 0.57902 0.85029
 C395 C -0.00405 0.56951 0.81222
 C396 C 0.00674 0.51977 0.79446
 O397 O 0.04465 0.49801 0.82078
 H398 H 0.03278 0.61449 0.87273
 H399 H -0.03392 0.59577 0.79931
 C400 C 0.65645 -0.03803 0.39931
 C401 C 0.67201 -0.08194 0.42228
 C402 C 0.70898 -0.06757 0.45681
 C403 C 0.71428 -0.01593 0.45201
 O404 O 0.68141 0.00192 0.41794
 H405 H 0.65789 -0.11987 0.41543
 H406 H 0.72819 -0.09185 0.48332
 C407 C 0.91967 0.53043 0.15925
 C408 C 0.93949 0.57847 0.16411
 C409 C 0.97708 0.57571 0.19985
 C410 C 0.97847 0.52610 0.21416
 O411 O 0.94337 0.49849 0.18980
 H412 H 0.92810 0.61218 0.14474
 H413 H 1.00053 0.60643 0.21454
 C414 C 0.36544 0.01624 0.58352
 C415 C 0.36144 0.05842 0.55507
 C416 C 0.32143 0.05033 0.52280
 C417 C 0.30403 0.00335 0.53275
 O418 O 0.33051 -0.01740 0.56992
 H419 H 0.38427 0.09172 0.55728
 H420 H 0.30602 0.07592 0.49540
   
