data_POSCAR
  _audit_creation_date              2014-09-24
  _audit_creation_method            'ToBaCCo'
  _symmetry_space_group_name_H-M    'P1'
  _symmetry_Int_Tables_number       1
  _symmetry_cell_setting            triclinic
  loop_
  _symmetry_equiv_pos_as_xyz
 x,y,z
_cell_length_a 40.3448
_cell_length_b 46.8718
_cell_length_c 46.5191
_cell_angle_alpha 90.746900
_cell_angle_beta 90.322500
_cell_angle_gamma 92.250200
loop_
  _atom_site_label
  _atom_site_type_symbol
  _atom_site_fract_x
  _atom_site_fract_y
  _atom_site_fract_z
C1 C 0.19375 0.19115 0.20600
 C2 C 0.17038 0.20385 0.22367
 C3 C 0.16128 0.23211 0.21919
 C4 C 0.17556 0.24743 0.19626
 C5 C 0.19896 0.23488 0.17827
 C6 C 0.20844 0.20675 0.18341
 C7 C 0.20278 0.16308 0.21072
 C8 C 0.22701 0.15055 0.19372
 C9 C 0.24203 0.16622 0.17146
 C10 C 0.23254 0.19416 0.16595
 C11 C 0.24649 0.20961 0.14312
 C12 C 0.23642 0.23732 0.13727
 C13 C 0.21293 0.24994 0.15517
 H14 H 0.15960 0.19158 0.24106
 H15 H 0.16853 0.26914 0.19242
 H16 H 0.19137 0.15111 0.22811
 H17 H 0.26058 0.15650 0.15816
 H18 H 0.26466 0.19979 0.12949
 H19 H 0.20547 0.27149 0.15122
 C20 C 0.74337 0.68343 0.72009
 C21 C 0.72992 0.69339 0.74584
 C22 C 0.71287 0.71891 0.74665
 C23 C 0.70988 0.73505 0.72155
 C24 C 0.72429 0.72593 0.69572
 C25 C 0.74055 0.69974 0.69496
 C26 C 0.75975 0.65750 0.71907
 C27 C 0.77305 0.64756 0.69309
 C28 C 0.77005 0.66388 0.66823
 C29 C 0.75435 0.68996 0.66911
 C30 C 0.75306 0.70666 0.64455
 C31 C 0.73851 0.73338 0.64525
 C32 C 0.72342 0.74268 0.67079
 H33 H 0.73210 0.68096 0.76522
 H34 H 0.69707 0.75495 0.72237
 H35 H 0.76182 0.64504 0.73839
 H36 H 0.78062 0.65656 0.64820
 H37 H 0.76432 0.69905 0.62494
 H38 H 0.71182 0.76312 0.67155
 C39 C 0.30254 0.77862 0.74675
 C40 C 0.33083 0.76769 0.75963
 C41 C 0.34478 0.74272 0.74872
 C42 C 0.33009 0.72878 0.72462
 C43 C 0.30186 0.73945 0.71151
 C44 C 0.28794 0.76440 0.72269
 C45 C 0.28875 0.80365 0.75748
 C46 C 0.26054 0.81489 0.74441
 C47 C 0.24595 0.80018 0.72061
 C48 C 0.25944 0.77515 0.70975
 C49 C 0.24492 0.76082 0.68594
 C50 C 0.25881 0.73616 0.67448
 C51 C 0.28734 0.72558 0.68735
 H52 H 0.34182 0.77870 0.77814
 H53 H 0.34068 0.70960 0.71599
 H54 H 0.30033 0.81453 0.77588
 H55 H 0.22409 0.80800 0.71025
 H56 H 0.22300 0.76917 0.67602
 H57 H 0.29805 0.70641 0.67883
 C58 C 0.80030 0.31221 0.22289
 C59 C 0.81740 0.29680 0.24367
 C60 C 0.82008 0.26693 0.24079
 C61 C 0.80440 0.25267 0.21727
 C62 C 0.78805 0.26778 0.19610
 C63 C 0.78612 0.29762 0.19874
 C64 C 0.79766 0.34202 0.22543
 C65 C 0.78219 0.35720 0.20358
 C66 C 0.76885 0.34258 0.17943
 C67 C 0.77032 0.31290 0.17699
 C68 C 0.75667 0.29833 0.15291
 C69 C 0.75899 0.26862 0.15001
 C70 C 0.77441 0.25346 0.17188
 H71 H 0.82875 0.30821 0.26181
 H72 H 0.80593 0.22973 0.21469
 H73 H 0.80818 0.35347 0.24393
 H74 H 0.75685 0.35439 0.16267
 H75 H 0.74489 0.31021 0.13610
 H76 H 0.77605 0.23050 0.17006
 C77 C 0.73718 0.73632 0.26522
 C78 C 0.75506 0.74450 0.24062
 C79 C 0.76314 0.77353 0.23552
 C80 C 0.75183 0.79431 0.25485
 C81 C 0.73540 0.78636 0.28008
 C82 C 0.72826 0.75728 0.28549
 C83 C 0.72861 0.70750 0.27013
 C84 C 0.71186 0.69932 0.29533
 C85 C 0.70457 0.72024 0.31609
 C86 C 0.71261 0.74918 0.31136
 C87 C 0.70553 0.77015 0.33210
 C88 C 0.71301 0.79916 0.32681
 C89 C 0.72718 0.80709 0.30049
 H90 H 0.76264 0.72819 0.22560
 H91 H 0.75759 0.81677 0.25126
 H92 H 0.73526 0.69147 0.25444
 H93 H 0.69212 0.71407 0.33577
 H94 H 0.69411 0.76396 0.35223
 H95 H 0.73317 0.82942 0.29639
 C96 C 0.29517 0.19784 -0.24415
 C97 C 0.32368 0.21074 -0.25647
 C98 C 0.33534 0.23814 -0.24736
 C99 C 0.31765 0.25253 -0.22600
 C100 C 0.28922 0.23990 -0.21365
 C101 C 0.27787 0.21243 -0.22262
 C102 C 0.28399 0.17040 -0.25282
 C103 C 0.25584 0.15710 -0.24027
 C104 C 0.23853 0.17189 -0.21886
 C105 C 0.24940 0.19951 -0.20990
 C106 C 0.23272 0.21433 -0.18814
 C107 C 0.24431 0.24171 -0.17892
 C108 C 0.27232 0.25437 -0.19214
 H109 H 0.33675 0.19916 -0.27287
 H110 H 0.32604 0.27368 -0.21870
 H111 H 0.29749 0.15928 -0.26933
 H112 H 0.21686 0.16193 -0.20898
 H113 H 0.21113 0.20437 -0.17806
 H114 H 0.28125 0.27559 -0.18574
 C115 C 0.74518 0.30241 -0.22578
 C116 C 0.72448 0.29731 -0.24999
 C117 C 0.71469 0.26915 -0.25824
 C118 C 0.72647 0.24629 -0.24227
 C119 C 0.74504 0.25119 -0.21714
 C120 C 0.75430 0.27928 -0.20864
 C121 C 0.75698 0.33012 -0.21835
 C122 C 0.77680 0.33495 -0.19364
 C123 C 0.78345 0.31208 -0.17552
 C124 C 0.77260 0.28419 -0.18295
 C125 C 0.77986 0.26107 -0.16527
 C126 C 0.77005 0.23305 -0.17361
 C127 C 0.75348 0.22831 -0.19993
 H128 H 0.71653 0.31517 -0.26250
 H129 H 0.71942 0.22444 -0.24826
 H130 H 0.75102 0.34788 -0.23188
 H131 H 0.79827 0.31582 -0.15623
 H132 H 0.79318 0.26483 -0.14519
 H133 H 0.74575 0.20676 -0.20646
 C134 C 0.16966 0.81704 0.27974
 C135 C 0.13977 0.80731 0.26704
 C136 C 0.12096 0.78461 0.27894
 C137 C 0.13260 0.77154 0.30392
 C138 C 0.16270 0.78106 0.31689
 C139 C 0.18116 0.80412 0.30483
 C140 C 0.18820 0.83953 0.26750
 C141 C 0.21818 0.84988 0.28009
 C142 C 0.22933 0.83720 0.30552
 C143 C 0.21112 0.81424 0.31777
 C144 C 0.22257 0.80107 0.34260
 C145 C 0.20475 0.77772 0.35453
 C146 C 0.17472 0.76790 0.34161
 H147 H 0.13117 0.81778 0.24796
 H148 H 0.11836 0.75388 0.31318
 H149 H 0.17898 0.84906 0.24805
 H150 H 0.25236 0.84468 0.31562
 H151 H 0.24572 0.80876 0.35241
 H152 H 0.16058 0.75019 0.35081
 C153 C 0.45402 0.47950 0.48622
 C154 C 0.45446 0.46221 0.51061
 C155 C 0.47513 0.43874 0.51186
 C156 C 0.49537 0.43261 0.48824
 C157 C 0.49516 0.44964 0.46370
 C158 C 0.47461 0.47327 0.46273
 C159 C 0.43328 0.50286 0.48492
 C160 C 0.43323 0.52031 0.46055
 C161 C 0.45417 0.51413 0.43741
 C162 C 0.47464 0.49066 0.43823
 C163 C 0.49503 0.48425 0.41487
 C164 C 0.51537 0.46056 0.41559
 C165 C 0.51521 0.44335 0.44009
 H166 H 0.43863 0.46705 0.52864
 H167 H 0.51129 0.41457 0.48876
 H168 H 0.41750 0.50756 0.50299
 H169 H 0.45427 0.52743 0.41851
 H170 H 0.49470 0.49762 0.39608
 H171 H 0.53090 0.42512 0.44090
 C172 C -0.04466 -0.04800 0.99406
 C173 C -0.03497 -0.07309 1.00717
 C174 C -0.01439 -0.09208 0.99277
 C175 C -0.00261 -0.08520 0.96519
 C176 C -0.01220 -0.06013 0.95166
 C177 C -0.03356 -0.04163 0.96613
 C178 C -0.06583 -0.02946 1.00831
 C179 C -0.07676 -0.00477 0.99479
 C180 C -0.06548 0.00133 0.96684
 C181 C -0.04409 -0.01686 0.95256
 C182 C -0.03342 -0.01069 0.92469
 C183 C -0.01205 -0.02875 0.91008
 C184 C -0.00136 -0.05345 0.92374
 H185 H -0.04369 -0.07780 1.02862
 H186 H 0.01334 -0.09969 0.95399
 H187 H -0.07429 -0.03467 1.02977
 H188 H -0.07318 0.02020 0.95589
 H189 H -0.04173 0.00839 0.91437
 H190 H 0.01486 -0.06769 0.91256
 C191 C 1.03299 0.53990 1.02457
 C192 C 1.02120 0.55715 1.04677
 C193 C 1.00276 0.58128 1.04075
 C194 C 0.99516 0.58726 1.01190
 C195 C 1.00607 0.56962 0.98950
 C196 C 1.02529 0.54597 0.99583
 C197 C 1.05318 0.51715 1.03079
 C198 C 1.06652 0.50043 1.00865
 C199 C 1.05762 0.50592 0.97993
 C200 C 1.03702 0.52852 0.97344
 C201 C 1.02828 0.53420 0.94489
 C202 C 1.00865 0.55746 0.93849
 C203 C 0.99815 0.57534 0.96083
 H204 H 1.02750 0.55220 1.06880
 H205 H 0.98066 0.60546 1.00667
 H206 H 1.05932 0.51312 1.05306
 H207 H 1.06700 0.49308 0.96250
 H208 H 1.03698 0.52069 0.92766
 H209 H 0.98309 0.59333 0.95595
 C210 C 0.52637 0.05203 0.50531
 C211 C 0.53622 0.07681 0.52075
 C212 C 0.52252 0.10313 0.51450
 C213 C 0.49880 0.10464 0.49240
 C214 C 0.48923 0.08009 0.47628
 C215 C 0.50274 0.05363 0.48303
 C216 C 0.54046 0.02585 0.51136
 C217 C 0.53080 0.00092 0.49572
 C218 C 0.50650 0.00264 0.47402
 C219 C 0.49316 0.02887 0.46710
 C220 C 0.47138 0.03087 0.44373
 C221 C 0.45914 0.05735 0.43591
 C222 C 0.46736 0.08173 0.45283
 H223 H 0.55463 0.07560 0.53772
 H224 H 0.48869 0.12502 0.48711
 H225 H 0.55878 0.02508 0.52841
 H226 H 0.49900 -0.01621 0.46147
 H227 H 0.46459 0.01182 0.43129
 H228 H 0.45776 0.10219 0.44711
 C229 C -0.04628 0.04651 0.50825
 C230 C -0.03361 0.06773 0.48981
 C231 C 0.00056 0.07495 0.48942
 C232 C 0.02199 0.06043 0.50756
 C233 C 0.00962 0.03934 0.52620
 C234 C -0.02468 0.03238 0.52672
 C235 C -0.08023 0.03912 0.50836
 C236 C -0.09298 0.01746 0.52628
 C237 C -0.07145 0.00375 0.54507
 C238 C -0.03734 0.01128 0.54563
 C239 C -0.01556 -0.00199 0.56457
 C240 C 0.01866 0.00487 0.56389
 C241 C 0.03106 0.02520 0.54444
 H242 H -0.05045 0.07850 0.47581
 H243 H 0.04838 0.06575 0.50743
 H244 H -0.09670 0.04982 0.49390
 H245 H -0.08119 -0.01267 0.55925
 H246 H -0.02502 -0.01798 0.57937
 H247 H 0.05747 0.03048 0.54399
 C248 C 0.47178 0.53630 -0.00110
 C249 C 0.48657 0.56039 -0.01421
 C250 C 0.51346 0.57567 -0.00097
 C251 C 0.52536 0.56626 0.02569
 C252 C 0.51062 0.54240 0.03914
 C253 C 0.48375 0.52731 0.02569
 C254 C 0.44506 0.52114 -0.01437
 C255 C 0.42994 0.49714 -0.00123
 C256 C 0.44207 0.48831 0.02553
 C257 C 0.46885 0.50324 0.03906
 C258 C 0.48093 0.49452 0.06578
 C259 C 0.50764 0.50956 0.07944
 C260 C 0.52234 0.53349 0.06590
 H261 H 0.47702 0.56698 -0.03476
 H262 H 0.54598 0.57768 0.03631
 H263 H 0.43591 0.52817 -0.03495
 H264 H 0.43084 0.46984 0.03591
 H265 H 0.46942 0.47602 0.07599
 H266 H 0.54305 0.54518 0.07599
 C267 C 0.54715 -0.06128 0.01330
 C268 C 0.53889 -0.08698 -0.00133
 C269 C 0.52036 -0.10885 0.01229
 C270 C 0.51011 -0.10473 0.04082
 C271 C 0.51830 -0.07918 0.05569
 C272 C 0.53669 -0.05722 0.04187
 C273 C 0.56630 -0.03983 -0.00006
 C274 C 0.57576 -0.01447 0.01479
 C275 C 0.56462 -0.01018 0.04310
 C276 C 0.54502 -0.03139 0.05675
 C277 C 0.53431 -0.02763 0.08525
 C278 C 0.51662 -0.04981 0.09916
 C279 C 0.50880 -0.07546 0.08432
 H280 H 0.54689 -0.08983 -0.02333
 H281 H 0.49602 -0.12156 0.05160
 H282 H 0.57472 -0.04332 -0.02187
 H283 H 0.57152 0.00939 0.05465
 H284 H 0.54064 -0.00798 0.09691
 H285 H 0.49507 -0.09250 0.09513
 C286 C 1.05604 0.42949 0.51482
 C287 C 1.04493 0.40469 0.49975
 C288 C 1.02728 0.38254 0.51397
 C289 C 1.02147 0.38547 0.54364
 C290 C 1.03268 0.40991 0.55889
 C291 C 1.04970 0.43223 0.54449
 C292 C 1.07352 0.45155 0.50069
 C293 C 1.08498 0.47624 0.51575
 C294 C 1.07804 0.47903 0.54530
 C295 C 1.06041 0.45719 0.55981
 C296 C 1.05349 0.45967 0.58939
 C297 C 1.03713 0.43703 0.60376
 C298 C 1.02699 0.41228 0.58840
 H299 H 1.04985 0.40299 0.47695
 H300 H 1.00818 0.36862 0.55511
 H301 H 1.07864 0.44926 0.47794
 H302 H 1.08633 0.49810 0.55708
 H303 H 1.06141 0.47877 0.60133
 H304 H 1.01403 0.39496 0.59945
 C305 C 0.42560 0.01488 0.20719
 H306 H 0.41993 0.03721 0.20753
 C307 C 0.45001 0.00511 0.18849
 H308 H 0.46260 0.01996 0.17423
 C309 C 0.41717 -0.03155 0.22591
 H310 H 0.40450 -0.04585 0.24062
 C311 C 0.44160 -0.04202 0.20814
 H312 H 0.44706 -0.06441 0.20911
 N313 N 0.40888 -0.00376 0.22464
 C314 C 0.31574 0.03327 0.24997
 H315 H 0.31417 0.02124 0.26962
 C316 C 0.28980 0.05023 0.24225
 H317 H 0.26845 0.05130 0.25615
 C318 C 0.34552 0.04623 0.20803
 H319 H 0.36674 0.04397 0.19433
 C320 C 0.32019 0.06415 0.19975
 H321 H 0.32233 0.07586 0.17991
 Zn322 Zn 0.37292 0.00565 0.24877
 N323 N 0.34301 0.03159 0.23310
 C324 C 0.38229 0.04769 0.29208
 N325 N 0.38906 0.02042 0.28447
 C326 C 0.40648 0.00368 0.30225
 C327 C 0.41659 0.01386 0.32943
 C328 C 0.39192 0.05872 0.31894
 C329 C 0.33287 -0.03861 0.22875
 C330 C 0.30936 -0.06108 0.22910
 C331 C 0.31444 -0.06217 0.28087
 C332 C 0.33785 -0.03935 0.27955
 N333 N 0.34621 -0.02794 0.25370
 H334 H 0.36920 0.06097 0.27739
 H335 H 0.41190 -0.01782 0.29554
 H336 H 0.42977 -0.00013 0.34335
 H337 H 0.38593 0.08037 0.32464
 H338 H 0.33977 -0.02890 0.20857
 H339 H 0.29837 -0.06878 0.20903
 H340 H 0.30707 -0.07039 0.30159
 H341 H 0.34820 -0.03011 0.29918
 C342 C 0.29190 0.06612 0.21705
 C343 C 0.45781 -0.02386 0.18859
 C344 C 0.29944 -0.07284 0.25537
 C345 C 0.40896 0.04170 0.33822
 C346 C 0.07409 -0.02252 0.70223
 H347 H 0.05782 -0.02112 0.72047
 C348 C 0.06061 -0.02216 0.67440
 H349 H 0.03413 -0.02040 0.67175
 C350 C 0.12805 -0.02688 0.68344
 H351 H 0.15426 -0.02910 0.68690
 C352 C 0.11567 -0.02681 0.65542
 H353 H 0.13279 -0.02847 0.63770
 N354 N 0.10746 -0.02407 0.70626
 C355 C 0.17871 -0.05088 0.76973
 H356 H 0.18167 -0.03158 0.78265
 C357 C 0.19994 -0.07331 0.77391
 H358 H 0.21927 -0.07105 0.79011
 C359 C 0.15001 -0.07701 0.73273
 H360 H 0.13035 -0.07836 0.71684
 C361 C 0.17066 -0.09996 0.73621
 H362 H 0.16640 -0.11874 0.72278
 Zn363 Zn 0.12764 -0.02135 0.74359
 N364 N 0.15457 -0.05300 0.74921
 C365 C 0.09457 -0.04127 0.79330
 N366 N 0.09499 -0.02074 0.77286
 C367 C 0.07272 0.00028 0.77331
 C368 C 0.04925 0.00151 0.79516
 C369 C 0.07155 -0.04081 0.81561
 C370 C 0.14873 0.03533 0.76248
 C371 C 0.16965 0.05990 0.76267
 C372 C 0.20528 0.03643 0.72910
 C373 C 0.18377 0.01244 0.72955
 N374 N 0.15573 0.01238 0.74561
 H375 H 0.11220 -0.05801 0.79247
 H376 H 0.07339 0.01631 0.75678
 H377 H 0.03200 0.01862 0.79525
 H378 H 0.07177 -0.05737 0.83155
 H379 H 0.12693 0.03480 0.77579
 H380 H 0.16326 0.07792 0.77597
 H381 H 0.22728 0.03590 0.71594
 H382 H 0.18981 -0.00633 0.71729
 C383 C 0.19633 -0.09821 0.75685
 C384 C 0.08166 -0.02374 0.65050
 C385 C 0.19828 0.06075 0.74556
 C386 C 0.04865 -0.01903 0.81688
 C387 C 0.60123 0.47854 0.21050
 H388 H 0.60813 0.46004 0.22250
 C389 C 0.57902 0.47529 0.18755
 H390 H 0.56895 0.45419 0.18197
 C391 C 0.60612 0.52850 0.20342
 H392 H 0.61635 0.54922 0.20997
 C393 C 0.58418 0.52614 0.17994
 H394 H 0.57772 0.54520 0.16866
 N395 N 0.61443 0.50475 0.21793
 C396 C 0.70276 0.47390 0.25969
 H397 H 0.69924 0.47939 0.28209
 C398 C 0.72822 0.45595 0.25178
 H399 H 0.74416 0.44742 0.26809
 C400 C 0.68614 0.47785 0.21101
 H401 H 0.66965 0.48629 0.19514
 C402 C 0.71185 0.46087 0.20212
 H403 H 0.71468 0.45603 0.17947
 Zn404 Zn 0.64394 0.50435 0.24985
 N405 N 0.68149 0.48341 0.23943
 C406 C 0.62818 0.46159 0.29220
 N407 N 0.61947 0.48634 0.27975
 C408 C 0.59206 0.50000 0.28837
 C409 C 0.57358 0.49009 0.31168
 C410 C 0.61035 0.45088 0.31563
 C411 C 0.67265 0.56081 0.24434
 C412 C 0.68265 0.58823 0.25421
 C413 C 0.66479 0.57498 0.30179
 C414 C 0.65514 0.54803 0.29106
 N415 N 0.65844 0.54158 0.26265
 H416 H 0.64905 0.45021 0.28429
 H417 H 0.58517 0.51923 0.27759
 H418 H 0.55230 0.50174 0.31836
 H419 H 0.61817 0.43161 0.32582
 H420 H 0.67600 0.55496 0.22200
 H421 H 0.69346 0.60323 0.23915
 H422 H 0.66148 0.57957 0.32443
 H423 H 0.64525 0.53222 0.30568
 C424 C 0.73261 0.44906 0.22267
 C425 C 0.57039 0.49919 0.17177
 C426 C 0.67839 0.59570 0.28334
 C427 C 0.58318 0.46559 0.32614
 C428 C 0.96112 0.50269 0.71951
 H429 H 0.95956 0.52556 0.72218
 C430 C 0.98319 0.49160 0.69956
 H431 H 0.99860 0.50599 0.68688
 C432 C 0.94297 0.45606 0.73286
 H433 H 0.92750 0.44224 0.74601
 C434 C 0.96512 0.44410 0.71368
 H435 H 0.96605 0.42110 0.71191
 N436 N 0.94088 0.48488 0.73504
 C437 C 0.85927 0.53944 0.75774
 H438 H 0.85751 0.53546 0.78055
 C439 C 0.83838 0.55872 0.74495
 H440 H 0.82054 0.56944 0.75808
 C441 C 0.88420 0.52957 0.71290
 H442 H 0.90155 0.51777 0.70033
 C443 C 0.86363 0.54844 0.69920
 H444 H 0.86589 0.55138 0.67624
 Zn445 Zn 0.91001 0.50056 0.76083
 N446 N 0.88221 0.52591 0.74179
 C447 C 0.93098 0.54788 0.79646
 N448 N 0.93440 0.51963 0.79068
 C449 C 0.95509 0.50382 0.80656
 C450 C 0.97145 0.51579 0.83060
 C451 C 0.94685 0.56072 0.82031
 C452 C 0.86262 0.45536 0.75742
 C453 C 0.84162 0.43325 0.76732
 C454 C 0.85952 0.44504 0.81581
 C455 C 0.88017 0.46690 0.80498
 N456 N 0.88185 0.47128 0.77617
 H457 H 0.91545 0.56042 0.78299
 H458 H 0.95795 0.48155 0.80106
 H459 H 0.98710 0.50252 0.84325
 H460 H 0.94290 0.58297 0.82515
 H461 H 0.86396 0.45968 0.73466
 H462 H 0.82702 0.42073 0.75184
 H463 H 0.85899 0.44162 0.83877
 H464 H 0.89479 0.48031 0.81967
 C465 C 0.84073 0.56365 0.71531
 C466 C 0.98511 0.46190 0.69635
 C467 C 0.84018 0.42758 0.79691
 C468 C 0.96661 0.54443 0.83825
 C469 C 0.20720 0.40988 0.01403
 H470 H 0.22938 0.40856 0.02705
 C471 C 0.18234 0.42795 0.02239
 H472 H 0.18548 0.44060 0.04193
 C473 C 0.17633 0.39502 -0.02741
 H474 H 0.17425 0.38213 -0.04682
 C475 C 0.15102 0.41334 -0.02010
 H476 H 0.12932 0.41423 -0.03379
 N477 N 0.20353 0.39344 -0.01014
 C478 C 0.26831 0.32402 0.00888
 H479 H 0.28406 0.32463 -0.00987
 C480 C 0.27296 0.30363 0.02998
 H481 H 0.29244 0.28861 0.02732
 C482 C 0.22331 0.34256 0.03465
 H483 H 0.20348 0.35729 0.03614
 C484 C 0.22709 0.32257 0.05626
 H485 H 0.21032 0.32278 0.07427
 Zn486 Zn 0.23882 0.36939 -0.01840
 N487 N 0.24404 0.34315 0.01170
 C488 C 0.30317 0.39149 -0.00273
 N489 N 0.27765 0.39332 -0.02179
 C490 C 0.27802 0.41383 -0.04220
 C491 C 0.30489 0.43343 -0.04413
 C492 C 0.33045 0.41075 -0.00379
 C493 C 0.20444 0.32773 -0.05154
 C494 C 0.19935 0.30810 -0.07416
 C495 C 0.24688 0.32963 -0.09806
 C496 C 0.25112 0.34876 -0.07495
 N497 N 0.23024 0.34728 -0.05215
 H498 H 0.30213 0.37555 0.01382
 H499 H 0.25712 0.41522 -0.05673
 H500 H 0.30457 0.44974 -0.06037
 H501 H 0.35038 0.40880 0.01161
 H502 H 0.18846 0.32678 -0.03295
 H503 H 0.17922 0.29221 -0.07291
 H504 H 0.26404 0.33122 -0.11576
 H505 H 0.27177 0.36413 -0.07487
 C506 C 0.25217 0.30267 0.05409
 C507 C 0.15382 0.42982 0.00528
 C508 C 0.22118 0.30843 -0.09755
 C509 C 0.33142 0.43228 -0.02455
 C510 C 0.71909 0.07723 -0.01832
 H511 H 0.74142 0.07496 -0.03078
 C512 C 0.69326 0.05678 -0.02088
 H513 H 0.69576 0.03873 -0.03536
 C514 C 0.68892 0.10336 0.01602
 H515 H 0.68747 0.12152 0.03043
 C516 C 0.66264 0.08296 0.01456
 H517 H 0.64083 0.08568 0.02760
 N518 N 0.71619 0.10035 -0.00070
 C519 C 0.77936 0.16765 -0.03852
 H520 H 0.79292 0.17562 -0.01976
 C521 C 0.78459 0.18050 -0.06521
 H522 H 0.80220 0.19839 -0.06707
 C523 C 0.74000 0.13448 -0.05923
 H524 H 0.72218 0.11694 -0.05699
 C525 C 0.74513 0.14612 -0.08629
 H526 H 0.73136 0.13729 -0.10459
 Zn527 Zn 0.75289 0.12679 0.00007
 N528 N 0.75765 0.14481 -0.03610
 C529 C 0.81647 0.10549 -0.01076
 N530 N 0.79056 0.10537 0.00779
 C531 C 0.78926 0.08760 0.03066
 C532 C 0.81427 0.06836 0.03511
 C533 C 0.84202 0.08662 -0.00711
 C534 C 0.72320 0.17411 0.02503
 C535 C 0.71970 0.19650 0.04475
 C536 C 0.76654 0.17968 0.07133
 C537 C 0.76921 0.15770 0.05107
 N538 N 0.74765 0.15529 0.02853
 H539 H 0.81689 0.11956 -0.02897
 H540 H 0.76810 0.08769 0.04484
 H541 H 0.81229 0.05377 0.05292
 H542 H 0.86214 0.08693 -0.02236
 H543 H 0.70670 0.17190 0.00665
 H544 H 0.70026 0.21142 0.04153
 H545 H 0.78442 0.18133 0.08871
 H546 H 0.78891 0.14290 0.05312
 C547 C 0.76776 0.16924 -0.08951
 C548 C 0.66458 0.05957 -0.00442
 C549 C 0.74159 0.19955 0.06827
 C550 C 0.84069 0.06718 0.01568
 C551 C 0.20385 0.58877 0.46777
 H552 H 0.21860 0.59420 0.44913
 C553 C 0.18025 0.56612 0.46623
 H554 H 0.17686 0.55431 0.44622
 C555 C 0.19118 0.59694 0.51676
 H556 H 0.19594 0.60852 0.53666
 C557 C 0.16744 0.57448 0.51620
 H558 H 0.15385 0.56967 0.53561
 N559 N 0.20876 0.60374 0.49276
 C560 C 0.21145 0.66238 0.44853
 H561 H 0.19409 0.64429 0.44672
 C562 C 0.20835 0.68569 0.43025
 H563 H 0.18860 0.68507 0.41443
 C564 C 0.25775 0.68538 0.47179
 H565 H 0.27690 0.68511 0.48816
 C566 C 0.25555 0.70898 0.45414
 H567 H 0.27325 0.72675 0.45706
 Zn568 Zn 0.24277 0.63283 0.49503
 N569 N 0.23616 0.66256 0.46858
 C570 C 0.30158 0.62471 0.46410
 N571 N 0.28391 0.61597 0.48740
 C572 C 0.29423 0.59428 0.50398
 C573 C 0.32349 0.58052 0.49734
 C574 C 0.33087 0.61169 0.45677
 C575 C 0.21437 0.66499 0.53721
 C576 C 0.21121 0.68011 0.56290
 C577 C 0.26564 0.66547 0.57706
 C578 C 0.26771 0.65044 0.55094
 N579 N 0.24216 0.65047 0.53173
 H580 H 0.29269 0.64142 0.45067
 H581 H 0.27948 0.58743 0.52216
 H582 H 0.33111 0.56332 0.51080
 H583 H 0.34427 0.61890 0.43795
 H584 H 0.19465 0.66493 0.52134
 H585 H 0.18884 0.69159 0.56665
 H586 H 0.28622 0.66522 0.59200
 H587 H 0.28983 0.63913 0.54591
 C588 C 0.23076 0.70940 0.43288
 C589 C 0.16186 0.55854 0.49075
 C590 C 0.23708 0.68073 0.58321
 C591 C 0.34213 0.58910 0.47324
 C592 C 0.67039 0.93140 0.53133
 H593 H 0.69202 0.94366 0.53891
 C594 C 0.63971 0.94418 0.53012
 H595 H 0.63837 0.96622 0.53693
 C596 C 0.64665 0.88820 0.51204
 H597 H 0.64985 0.86665 0.50419
 C598 C 0.61557 0.90011 0.51042
 H599 H 0.59489 0.88742 0.50153
 N600 N 0.67346 0.90426 0.52132
 C601 C 0.75207 0.84515 0.53633
 H602 H 0.76954 0.85192 0.51999
 C603 C 0.75825 0.82132 0.55276
 H604 H 0.78062 0.80985 0.54902
 C605 C 0.70126 0.85149 0.56050
 H606 H 0.67887 0.86316 0.56310
 C607 C 0.70672 0.82786 0.57778
 H608 H 0.68833 0.82133 0.59346
 Zn609 Zn 0.71541 0.88928 0.51419
 N610 N 0.72359 0.85929 0.53992
 C611 C 0.77558 0.91629 0.53621
 N612 N 0.74937 0.91889 0.51793
 C613 C 0.74655 0.94279 0.50194
 C614 C 0.77079 0.96481 0.50344
 C615 C 0.80069 0.93775 0.53812
 C616 C 0.71951 0.84691 0.46915
 C617 C 0.71686 0.83662 0.44083
 C618 C 0.70077 0.88328 0.42617
 C619 C 0.70369 0.89263 0.45469
 N620 N 0.71358 0.87470 0.47555
 H621 H 0.77719 0.89765 0.54944
 H622 H 0.72519 0.94512 0.48829
 H623 H 0.76802 0.98351 0.49036
 H624 H 0.82131 0.93521 0.55271
 H625 H 0.72588 0.83241 0.48590
 H626 H 0.72216 0.81459 0.43640
 H627 H 0.69297 0.89804 0.41000
 H628 H 0.69715 0.91409 0.46020
 C629 C 0.73524 0.81216 0.57349
 C630 C 0.61204 0.92885 0.51837
 C631 C 0.70757 0.85499 0.41882
 C632 C 0.79853 0.96234 0.52141
 C633 C 0.03309 0.20346 0.40399
 H634 H 0.05148 0.22085 0.40298
 C635 C 0.03883 0.17996 0.42114
 H636 H 0.06180 0.17935 0.43322
 C637 C -0.01962 0.18368 0.39007
 H638 H -0.04262 0.18549 0.37837
 C639 C -0.01504 0.15986 0.40728
 H640 H -0.03439 0.14326 0.40810
 N641 N 0.00443 0.20481 0.38865
 C642 C 0.03264 0.26797 0.32391
 H643 H 0.01417 0.28371 0.32761
 C644 C 0.05554 0.27170 0.30171
 H645 H 0.05467 0.29049 0.28849
 C646 C 0.05528 0.22380 0.33598
 H647 H 0.05460 0.20478 0.34882
 C648 C 0.07858 0.22666 0.31407
 H649 H 0.09600 0.20997 0.31106
 Zn650 Zn -0.00120 0.23887 0.36790
 N651 N 0.03291 0.24430 0.34051
 C652 C 0.02298 0.29018 0.39632
 N653 N -0.00050 0.26854 0.39559
 C654 C -0.02341 0.26548 0.41671
 C655 C -0.02299 0.28431 0.44009
 C656 C 0.02420 0.30969 0.41936
 C657 C -0.04685 0.21618 0.32784
 C658 C -0.07471 0.21556 0.30995
 C659 C -0.09121 0.25973 0.33199
 C660 C -0.06323 0.25927 0.34982
 N661 N -0.04168 0.23776 0.34732
 H662 H 0.04143 0.29179 0.37961
 H663 H -0.04149 0.24782 0.41570
 H664 H -0.04109 0.28119 0.45697
 H665 H 0.04363 0.32625 0.42006
 H666 H -0.02891 0.19972 0.32584
 H667 H -0.07820 0.19840 0.29430
 H668 H -0.10792 0.27714 0.33398
 H669 H -0.05820 0.27658 0.36499
 C670 C 0.07867 0.25070 0.29629
 C671 C 0.01451 0.15786 0.42316
 C672 C -0.09700 0.23776 0.31156
 C673 C 0.00126 0.30654 0.44185
 C674 C -0.05366 0.70993 0.09276
 H675 H -0.06983 0.72351 0.08095
 C676 C -0.04880 0.68196 0.08309
 H677 H -0.06146 0.67397 0.06388
 C678 C -0.01688 0.70383 0.13191
 H679 H -0.00358 0.71241 0.15043
 C680 C -0.01188 0.67581 0.12339
 H681 H 0.00498 0.66322 0.13565
 N682 N -0.03767 0.72027 0.11679
 C683 C -0.09029 0.79149 0.15282
 H684 H -0.07004 0.80733 0.15267
 C685 C -0.12055 0.79825 0.16475
 H686 H -0.12343 0.81939 0.17381
 C687 C -0.11034 0.74426 0.14227
 H688 H -0.10590 0.72315 0.13386
 C689 C -0.14101 0.74999 0.15460
 H690 H -0.16025 0.73327 0.15533
 Zn691 Zn -0.04226 0.75857 0.12920
 N692 N -0.08575 0.76497 0.14178
 C693 C -0.05476 0.80084 0.08840
 N694 N -0.03111 0.78355 0.09844
 C695 C -0.00036 0.78373 0.08650
 C696 C 0.00806 0.80299 0.06468
 C697 C -0.04740 0.82039 0.06684
 C698 C -0.02449 0.75184 0.18622
 C699 C -0.00447 0.75303 0.21075
 C700 C 0.03455 0.78387 0.18550
 C701 C 0.01374 0.78203 0.16135
 N702 N -0.01471 0.76552 0.16190
 H703 H -0.07953 0.79956 0.09701
 H704 H 0.01778 0.76920 0.09419
 H705 H 0.03283 0.80339 0.05583
 H706 H -0.06671 0.83390 0.05939
 H707 H -0.04741 0.73905 0.18615
 H708 H -0.01233 0.74129 0.22957
 H709 H 0.05742 0.79652 0.18415
 H710 H 0.02080 0.79322 0.14207
 C711 C -0.14618 0.77727 0.16623
 C712 C -0.02761 0.66462 0.09860
 C713 C 0.02584 0.76872 0.21049
 C714 C -0.01546 0.82206 0.05504
 C715 C 0.49648 0.23281 0.58541
 H716 H 0.47181 0.24046 0.58856
 C717 C 0.50100 0.20819 0.56860
 H718 H 0.47957 0.19684 0.55936
 C719 C 0.55427 0.23792 0.59407
 H720 H 0.57519 0.24960 0.60369
 C721 C 0.55991 0.21375 0.57747
 H722 H 0.58507 0.20697 0.57489
 N723 N 0.52285 0.24619 0.59902
 C724 C 0.48413 0.28699 0.67634
 H725 H 0.50213 0.30472 0.67702
 C726 C 0.45947 0.28504 0.69708
 H727 H 0.45878 0.30137 0.71370
 C728 C 0.46326 0.24450 0.65348
 H729 H 0.46503 0.22852 0.63674
 C730 C 0.43800 0.24170 0.67390
 H731 H 0.42039 0.22378 0.67213
 Zn732 Zn 0.51871 0.27580 0.62715
 N733 N 0.48506 0.26742 0.65457
 C734 C 0.47960 0.32225 0.61469
 N735 N 0.50920 0.31053 0.60885
 C736 C 0.53058 0.32272 0.58965
 C737 C 0.52259 0.34796 0.57581
 C738 C 0.47090 0.34750 0.60175
 C739 C 0.56338 0.25296 0.66243
 C740 C 0.59301 0.24840 0.67658
 C741 C 0.61249 0.29600 0.66398
 C742 C 0.58225 0.29957 0.64950
 N743 N 0.55884 0.27780 0.64854
 H744 H 0.46225 0.31187 0.62909
 H745 H 0.55375 0.31279 0.58501
 H746 H 0.53992 0.35752 0.56074
 H747 H 0.44720 0.35637 0.60672
 H748 H 0.54429 0.23610 0.66136
 H749 H 0.59636 0.22808 0.68679
 H750 H 0.63152 0.31293 0.66403
 H751 H 0.57799 0.31924 0.63841
 C752 C 0.43557 0.26250 0.69580
 C753 C 0.53307 0.19786 0.56539
 C754 C 0.61827 0.26976 0.67705
 C755 C 0.49236 0.36064 0.58196
 C756 C 0.55623 0.70635 0.92232
 H757 H 0.56985 0.72627 0.92654
 C758 C 0.55816 0.68428 0.94196
 H759 H 0.57398 0.68731 0.96072
 C760 C 0.51716 0.67923 0.89410
 H761 H 0.50055 0.67748 0.87586
 C762 C 0.51828 0.65654 0.91331
 H763 H 0.50294 0.63751 0.90907
 N764 N 0.53617 0.70351 0.89878
 C765 C 0.57237 0.74446 0.82528
 H766 H 0.54876 0.74521 0.81435
 C767 C 0.60148 0.74465 0.80908
 H768 H 0.59954 0.74526 0.78593
 C769 C 0.60326 0.74253 0.86854
 H770 H 0.60404 0.74166 0.89166
 C771 C 0.63292 0.74267 0.85322
 H772 H 0.65612 0.74171 0.86490
 Zn773 Zn 0.53344 0.73646 0.87544
 N774 N 0.57362 0.74236 0.85443
 C775 C 0.54620 0.79115 0.90268
 N776 N 0.52630 0.76708 0.90120
 C777 C 0.50084 0.76270 0.91983
 C778 C 0.49470 0.78280 0.94125
 C779 C 0.54091 0.81195 0.92389
 C780 C 0.49636 0.71065 0.82954
 C781 C 0.47036 0.70763 0.80966
 C782 C 0.44627 0.74939 0.83053
 C783 C 0.47274 0.75162 0.85000
 N784 N 0.49707 0.73234 0.84929
 H785 H 0.56647 0.79402 0.88775
 H786 H 0.48561 0.74322 0.91828
 H787 H 0.47448 0.77867 0.95600
 H788 H 0.55736 0.83069 0.92498
 H789 H 0.51628 0.69586 0.82902
 H790 H 0.47037 0.69029 0.79406
 H791 H 0.42733 0.76502 0.83175
 H792 H 0.47393 0.76902 0.86546
 C793 C 0.63229 0.74278 0.82303
 C794 C 0.53884 0.65902 0.93780
 C795 C 0.44488 0.72720 0.80989
 C796 C 0.51500 0.80772 0.94375
 N797 N 0.10583 0.27697 0.25715
 N798 N 0.12752 0.27282 0.23633
 C799 C 0.13711 0.24566 0.23846
 C800 C 0.12052 0.23339 0.26136
 N801 N 0.10132 0.25355 0.27253
 H802 H 0.12182 0.21174 0.26882
 N803 N 0.69074 0.73198 0.81946
 N804 N 0.71290 0.72534 0.79985
 C805 C 0.69829 0.72825 0.77401
 C806 C 0.66635 0.73680 0.77839
 N807 N 0.66245 0.73877 0.80717
 H808 H 0.64741 0.73930 0.76219
 N809 N 0.41457 0.70306 0.77032
 N810 N 0.38830 0.70643 0.75369
 C811 C 0.37464 0.73095 0.76215
 C812 C 0.39354 0.74246 0.78463
 N813 N 0.41823 0.72444 0.78911
 H814 H 0.38989 0.76219 0.79622
 N815 N -0.13614 0.21535 0.27742
 N816 N -0.15838 0.22255 0.25812
 C817 C -0.16093 0.25116 0.25996
 C818 C -0.13952 0.26121 0.28156
 N819 N -0.12442 0.23819 0.29171
 H820 H -0.13365 0.28314 0.28783
 N821 N -0.18521 0.80984 0.18696
 N822 N -0.20946 0.80960 0.20597
 C823 C -0.21612 0.78207 0.21278
 C824 C -0.19528 0.76534 0.19674
 N825 N -0.17615 0.78355 0.18122
 H826 H -0.19178 0.74266 0.19854
 N827 N 0.40349 0.28286 0.73461
 N828 N 0.37666 0.27713 0.75001
 C829 C 0.36416 0.25135 0.74115
 C830 C 0.38458 0.24144 0.71963
 N831 N 0.40878 0.26178 0.71619
 H832 H 0.38201 0.22159 0.70761
 N833 N 0.66037 0.23732 0.69107
 N834 N 0.68617 0.23633 0.70855
 C835 C 0.69232 0.26300 0.71901
 C836 C 0.66945 0.28070 0.70669
 N837 N 0.64967 0.26359 0.68979
 H838 H 0.66526 0.30283 0.71188
 N839 N 0.04223 0.75259 0.25820
 N840 N 0.06709 0.75600 0.27685
 C841 C 0.08927 0.77470 0.26522
 C842 C 0.07707 0.78258 0.23878
 N843 N 0.04768 0.76839 0.23515
 H844 H 0.08869 0.79696 0.22358
 N845 N 0.23458 0.07989 0.21921
 N846 N 0.21650 0.10206 0.21350
 C847 C 0.23646 0.12120 0.19992
 C848 C 0.26747 0.10990 0.19725
 N849 N 0.26524 0.08414 0.20975
 H850 H 0.28998 0.12038 0.18944
 N851 N 0.81664 0.58552 0.67320
 N852 N 0.79874 0.60755 0.66649
 C853 C 0.79077 0.62058 0.69140
 C854 C 0.80439 0.60566 0.71369
 N855 N 0.82039 0.58397 0.70142
 H856 H 0.80418 0.61100 0.73638
 N857 N 0.81919 0.39708 0.83547
 N858 N 0.80235 0.37256 0.83899
 C859 C 0.79222 0.36345 0.81266
 C860 C 0.80350 0.38319 0.79287
 N861 N 0.82042 0.40386 0.80792
 H862 H 0.80144 0.38143 0.76972
 N863 N 0.24992 -0.09650 0.23508
 N864 N 0.22757 -0.11683 0.24121
 C865 C 0.23620 -0.12773 0.26677
 C866 C 0.26491 -0.11312 0.27619
 N867 N 0.27254 -0.09385 0.25575
 H868 H 0.27888 -0.11609 0.29576
 N869 N 0.24217 -0.12145 0.78056
 N870 N 0.25994 -0.14449 0.77777
 C871 C 0.24763 -0.15950 0.75487
 C872 C 0.22151 -0.14466 0.74379
 N873 N 0.21891 -0.12107 0.76037
 H874 H 0.20650 -0.15006 0.72507
 N875 N 0.77166 0.43008 0.18852
 N876 N 0.78567 0.40561 0.18278
 C877 C 0.77943 0.38837 0.20525
 C878 C 0.76101 0.40313 0.22502
 N879 N 0.75665 0.42905 0.21373
 H880 H 0.74843 0.39462 0.24373
 N881 N 0.68342 0.63150 0.32182
 N882 N 0.69198 0.65880 0.32591
 C883 C 0.70177 0.66907 0.30027
 C884 C 0.69885 0.64698 0.28023
 N885 N 0.68725 0.62386 0.29455
 H886 H 0.70367 0.64801 0.25743
 N887 N 0.24662 0.08749 0.72754
 N888 N 0.26235 0.11263 0.73061
 C889 C 0.24558 0.12768 0.75025
 C890 C 0.21879 0.11067 0.75917
 N891 N 0.22035 0.08571 0.74445
 H892 H 0.20020 0.11595 0.77479
 N893 N 0.27981 0.26228 0.07507
 N894 N 0.27653 0.24453 0.09688
 C895 C 0.24997 0.25257 0.11202
 C896 C 0.23706 0.27582 0.09866
 N897 N 0.25632 0.28126 0.07565
 H898 H 0.21509 0.28688 0.10461
 N899 N 0.75831 0.76543 0.57796
 N900 N 0.75930 0.74411 0.59619
 C901 C 0.74127 0.75134 0.61932
 C902 C 0.72900 0.77809 0.61453
 N903 N 0.74032 0.78607 0.58848
 H904 H 0.71419 0.79077 0.62875
 N905 N 0.70223 0.86322 0.36738
 N906 N 0.70334 0.84921 0.34255
 C907 C 0.70723 0.82151 0.34870
 C908 C 0.70857 0.81903 0.37825
 N909 N 0.70552 0.84561 0.38918
 H910 H 0.71272 0.79993 0.39032
 N911 N 0.19301 0.26767 -0.12235
 N912 N 0.19830 0.24937 -0.14368
 C913 C 0.22795 0.25699 -0.15511
 C914 C 0.24058 0.28055 -0.13995
 N915 N 0.21810 0.28669 -0.11977
 H916 H 0.26449 0.29135 -0.14256
 N917 N 0.77250 0.16475 -0.14132
 N918 N 0.77343 0.18111 -0.16426
 C919 C 0.77514 0.20845 -0.15477
 C920 C 0.77552 0.20829 -0.12501
 N921 N 0.77362 0.18060 -0.11757
 H922 H 0.77405 0.22633 -0.11035
 N923 N 0.24918 0.75673 0.41696
 N924 N 0.24309 0.77532 0.39662
 C925 C 0.21804 0.76391 0.38039
 C926 C 0.20895 0.73752 0.39158
 N927 N 0.22905 0.73381 0.41441
 H928 H 0.19028 0.72232 0.38338
 N929 N 0.20721 0.71128 0.61607
 N930 N 0.21199 0.72631 0.64010
 C931 C 0.24316 0.72186 0.64905
 C932 C 0.25738 0.70350 0.62960
 N933 N 0.23412 0.69743 0.60926
 H934 H 0.28252 0.69632 0.62973
 N935 N 0.72149 0.24599 0.08322
 N936 N 0.72550 0.26494 0.10448
 C937 C 0.74633 0.25374 0.12370
 C938 C 0.75498 0.22732 0.11344
 N939 N 0.73910 0.22325 0.08809
 H940 H 0.77181 0.21286 0.12322
 N941 N 0.46011 0.40340 0.57848
 N942 N 0.45482 0.42436 0.56043
 C943 C 0.47484 0.42056 0.53769
 C944 C 0.49282 0.39650 0.54259
 N945 N 0.48285 0.38644 0.56823
 H946 H 0.51045 0.38664 0.52855
 N947 N 0.01766 0.84134 0.01511
 N948 N 0.01872 0.86386 -0.00191
 C949 C -0.00610 0.88061 0.00630
 C950 C -0.02245 0.86746 0.02880
 N951 N -0.00703 0.84303 0.03364
 H952 H -0.04358 0.87493 0.04050
 N953 N -0.00936 0.61652 0.10641
 N954 N -0.00059 0.59391 0.09143
 C955 C -0.00649 0.59931 0.06347
 C956 C -0.01975 0.62612 0.06194
 N957 N -0.02084 0.63614 0.08918
 H958 H -0.02555 0.63812 0.04298
 N959 N 0.56652 0.15681 0.55603
 N960 N 0.56458 0.13146 0.54322
 C961 C 0.53453 0.12895 0.53048
 C962 C 0.51799 0.15375 0.53594
 N963 N 0.53886 0.17061 0.55205
 H964 H 0.49311 0.15863 0.52939
 N965 N 0.04952 0.12722 0.45129
 N966 N 0.04679 0.10531 0.46891
 C967 C 0.01424 0.09780 0.47058
 C968 C -0.00292 0.11595 0.45316
 N969 N 0.01998 0.13398 0.44154
 H970 H -0.02945 0.11670 0.45010
 N971 N 0.56080 0.63709 0.98082
 N972 N 0.55454 0.61510 0.99778
 C973 C 0.52826 0.60012 0.98640
 C974 C 0.51876 0.61384 0.96161
 N975 N 0.53964 0.63682 0.95895
 H976 H 0.49806 0.60828 0.94752
 N977 N 0.48852 0.82266 0.98818
 N978 N 0.48929 0.84422 1.00687
 C979 C 0.51165 0.86387 0.99715
 C980 C 0.52462 0.85353 0.97177
 N981 N 0.50956 0.82772 0.96691
 H982 H 0.54341 0.86366 0.95847
 N983 N -0.01025 0.31713 0.49204
 N984 N -0.00345 0.33693 0.51192
 C985 C 0.01527 0.35774 0.49939
 C986 C 0.01971 0.34984 0.47089
 N987 N 0.00342 0.32436 0.46725
 H988 H 0.03336 0.36131 0.45446
 N989 N 0.39069 0.58334 0.44304
 N990 N 0.41502 0.56564 0.43893
 C991 C 0.41157 0.54506 0.45878
 C992 C 0.38413 0.55085 0.47531
 N993 N 0.37173 0.57493 0.46475
 H994 H 0.37367 0.53819 0.49253
 N995 N 0.86735 0.02851 0.04072
 N996 N 0.88920 0.00871 0.03565
 C997 C 0.90085 0.01293 0.00881
 C998 C 0.88538 0.03628 -0.00224
 N999 N 0.86467 0.04536 0.01822
 H1000 H 0.88755 0.04489 -0.02360
 N1001 N 0.63139 0.02397 -0.03140
 N1002 N 0.60766 0.00424 -0.02714
 C1003 C 0.59861 0.00640 0.00066
 C1004 C 0.61760 0.02844 0.01331
 N1005 N 0.63778 0.03869 -0.00742
 H1006 H 0.61838 0.03505 0.03569
 N1007 N 0.12878 0.52102 0.46573
 N1008 N 0.10830 0.49910 0.47150
 C1009 C 0.10459 0.49859 0.50030
 C1010 C 0.12362 0.52106 0.51197
 N1011 N 0.13834 0.53456 0.48971
 H1012 H 0.12736 0.52625 0.53449
 N1013 N 0.12301 0.45583 0.04119
 N1014 N 0.09959 0.47473 0.04279
 C1015 C 0.08934 0.47962 0.01567
 C1016 C 0.10729 0.46260 -0.00270
 N1017 N 0.12808 0.44828 0.01412
 H1018 H 0.10670 0.46172 -0.02595
 N1019 N 0.55790 0.93082 0.49514
 N1020 N 0.53588 0.94978 0.48812
 C1021 C 0.54595 0.97486 0.50048
 C1022 C 0.57490 0.97041 0.51564
 N1023 N 0.58173 0.94272 0.51152
 H1024 H 0.59060 0.98623 0.52672
 N1025 N 0.82009 1.01051 0.51166
 N1026 N 0.84834 1.02581 0.51269
 C1027 C 0.87125 1.00925 0.52444
 C1028 C 0.85594 0.98314 0.53069
 N1029 N 0.82401 0.98477 0.52225
 H1030 H 0.86742 0.96433 0.53874
 N1031 N 0.36383 0.47080 -0.04731
 N1032 N 0.38972 0.48834 -0.04188
 C1033 C 0.40147 0.48175 -0.01568
 C1034 C 0.38176 0.45942 -0.00526
 N1035 N 0.35858 0.45318 -0.02564
 H1036 H 0.38351 0.44933 0.01542
 N1037 N 0.57111 0.43141 0.36435
 N1038 N 0.55361 0.42936 0.38831
 C1039 C 0.53697 0.45366 0.39102
 C1040 C 0.54490 0.47065 0.36783
 N1041 N 0.56621 0.45603 0.35165
 H1042 H 0.53699 0.49200 0.36384
 N1043 N 0.00065 0.00075 0.84035
 N1044 N -0.01596 -0.00121 0.86472
 C1045 C -0.00161 -0.02128 0.88056
 C1046 C 0.02447 -0.03164 0.86493
 N1047 N 0.02509 -0.01729 0.83995
 H1048 H 0.04193 -0.04719 0.87163
 N1049 N 0.08844 -0.02395 0.59850
 N1050 N 0.07254 -0.01659 0.57495
 C1051 C 0.04212 -0.00898 0.58313
 C1052 C 0.03990 -0.01183 0.61260
 N1053 N 0.06948 -0.02114 0.62146
 H1054 H 0.01978 -0.00549 0.62623
 N1055 N 0.52702 0.47319 0.14424
 N1056 N 0.50996 0.47517 0.12000
 C1057 C 0.52011 0.49983 0.10759
 C1058 C 0.54402 0.51300 0.12531
 N1059 N 0.54758 0.49568 0.14792
 H1060 H 0.55796 0.53282 0.12185
 N1061 N 0.49388 -0.06089 0.17189
 N1062 N 0.50973 -0.06861 0.14841
 C1063 C 0.50709 -0.04726 0.12954
 C1064 C 0.48903 -0.02607 0.14223
 N1065 N 0.48110 -0.03551 0.16870
 H1066 H 0.48003 -0.00712 0.13224
 N1067 N 1.01612 0.42292 0.67636
 N1068 N 1.03045 0.41560 0.65200
 C1069 C 1.02996 0.43848 0.63475
 C1070 C 1.01479 0.46018 0.64939
 N1071 N 1.00635 0.44952 0.67526
 H1072 H 1.00759 0.48046 0.64097
 N1073 N 0.97727 0.58376 0.87245
 N1074 N 0.98808 0.58811 0.89914
 C1075 C 0.99815 0.56281 0.90867
 C1076 C 0.99316 0.54281 0.88691
 N1077 N 0.98001 0.55667 0.86463
 H1078 H 0.99662 0.52010 0.88810
 N1079 N 0.40993 0.07830 0.37619
 N1080 N 0.42252 0.08320 0.40223
 C1081 C 0.43923 0.05993 0.40932
 C1082 C 0.43656 0.04066 0.38661
 N1083 N 0.41811 0.05289 0.36631
 H1084 H 0.44799 0.02026 0.38471
   
