data_POSCAR
  _audit_creation_date              2014-09-24
  _audit_creation_method            'ToBaCCo'
  _symmetry_space_group_name_H-M    'P1'
  _symmetry_Int_Tables_number       1
  _symmetry_cell_setting            triclinic
  loop_
  _symmetry_equiv_pos_as_xyz
 x,y,z
_cell_length_a 54.1384
_cell_length_b 54.1790
_cell_length_c 22.3103
_cell_angle_alpha 89.947100
_cell_angle_beta 90.052900
_cell_angle_gamma 89.994700
loop_
  _atom_site_label
  _atom_site_type_symbol
  _atom_site_fract_x
  _atom_site_fract_y
  _atom_site_fract_z
C1 C -0.02279 0.25799 0.03008
 C2 C -0.02258 0.25778 -0.03333
 C3 C -0.00003 0.25775 -0.06418
 C4 C 0.02231 0.25785 -0.03239
 C5 C 0.02208 0.25808 0.03088
 C6 C -0.00043 0.25818 0.06176
 H7 H -0.00050 0.25825 0.11040
 H8 H 0.00014 0.25750 -0.11284
 C9 C 0.47759 0.75990 0.53179
 C10 C 0.47737 0.75993 0.46861
 C11 C 0.49967 0.75993 0.43689
 C12 C 0.52217 0.75981 0.46789
 C13 C 0.52240 0.75979 0.53107
 C14 C 0.50010 0.75987 0.56279
 H15 H 0.50025 0.75973 0.61140
 H16 H 0.49951 0.75984 0.38828
 C17 C 1.02247 0.74083 0.03095
 C18 C 1.02215 0.74076 -0.03232
 C19 C 0.99960 0.74069 -0.06310
 C20 C 0.97731 0.74077 -0.03123
 C21 C 0.97764 0.74082 0.03204
 C22 C 1.00019 0.74082 0.06282
 H23 H 1.00035 0.74097 0.11146
 H24 H 0.99944 0.74075 -0.11174
 C25 C 0.52243 0.24143 0.53321
 C26 C 0.52265 0.24120 0.47003
 C27 C 0.50034 0.24101 0.43822
 C28 C 0.47783 0.24113 0.46911
 C29 C 0.47760 0.24137 0.53230
 C30 C 0.49991 0.24148 0.56411
 H31 H 0.49976 0.24175 0.61271
 H32 H 0.50049 0.24093 0.38961
 C33 C 0.74088 -0.02293 0.03332
 C34 C 0.74107 -0.02284 -0.02997
 C35 C 0.74112 -0.00040 -0.06117
 C36 C 0.74107 0.02194 -0.02971
 C37 C 0.74087 0.02186 0.03346
 C38 C 0.74074 -0.00055 0.06475
 H39 H 0.74070 -0.00053 0.11338
 H40 H 0.74138 -0.00033 -0.10977
 C41 C 0.24093 0.47778 0.53153
 C42 C 0.24117 0.47766 0.46834
 C43 C 0.24126 0.50000 0.43672
 C44 C 0.24121 0.52245 0.46780
 C45 C 0.24100 0.52257 0.53098
 C46 C 0.24082 0.50023 0.56261
 H47 H 0.24075 0.50031 0.61121
 H48 H 0.24152 0.49992 0.38811
 C49 C 0.25787 1.02330 0.03131
 C50 C 0.25785 1.02329 -0.03212
 C51 C 0.25788 1.00084 -0.06332
 C52 C 0.25783 0.97846 -0.03188
 C53 C 0.25781 0.97847 0.03128
 C54 C 0.25788 1.00086 0.06261
 H55 H 0.25779 1.00076 0.11125
 H56 H 0.25779 1.00074 -0.11196
 C57 C 0.76011 0.52219 0.53118
 C58 C 0.76007 0.52233 0.46800
 C59 C 0.76015 0.50001 0.43642
 C60 C 0.76018 0.47756 0.46756
 C61 C 0.76024 0.47742 0.53074
 C62 C 0.76024 0.49974 0.56231
 H63 H 0.76017 0.49964 0.61093
 H64 H 0.75999 0.50011 0.38781
 O65 O 0.28856 0.25432 0.23361
 O66 O 0.22433 0.25826 0.18012
 O67 O 0.25460 0.28833 0.23408
 O68 O 0.25828 0.22425 0.17968
 O69 O 0.24503 0.21078 0.26757
 O70 O 0.24135 0.27487 0.32198
 O71 O 0.21108 0.24480 0.26801
 O72 O 0.27532 0.24086 0.32151
 Cu73 Cu 0.25778 0.25765 0.19800
 Cu74 Cu 0.24187 0.24147 0.30365
 C75 C 0.29278 0.24696 0.28662
 C76 C 0.20687 0.25216 0.21499
 C77 C 0.24738 0.29241 0.28724
 C78 C 0.25223 0.20670 0.21440
 O79 O 0.75480 0.78925 0.26778
 O80 O 0.75858 0.72515 0.32209
 O81 O 0.78880 0.75529 0.26836
 O82 O 0.72458 0.75911 0.32153
 O83 O 0.71135 0.74571 0.23356
 O84 O 0.77556 0.74189 0.18039
 O85 O 0.74535 0.71175 0.23412
 O86 O 0.74157 0.77585 0.17981
 Cu87 Cu 0.75803 0.75855 0.30384
 Cu88 Cu 0.74213 0.74245 0.19808
 C89 C 0.74758 0.79337 0.21460
 C90 C 0.75259 0.70763 0.28729
 C91 C 0.79301 0.74797 0.21537
 C92 C 0.70714 0.75303 0.28655
 O93 O 0.78961 0.24487 0.26656
 O94 O 0.72560 0.24126 0.32206
 O95 O 0.75550 0.21099 0.26760
 O96 O 0.75970 0.27514 0.32096
 O97 O 0.74600 0.28844 0.23327
 O98 O 0.74181 0.22430 0.17991
 O99 O 0.71191 0.25456 0.23438
 O100 O 0.77591 0.25817 0.17887
 Cu101 Cu 0.75899 0.24172 0.30314
 Cu102 Cu 0.74253 0.25771 0.19776
 C103 C 0.79356 0.25209 0.21331
 C104 C 0.70796 0.24733 0.28762
 C105 C 0.74798 0.20683 0.21471
 C106 C 0.75352 0.29261 0.28616
 O107 O 0.25795 0.77583 0.17821
 O108 O 0.25430 0.71166 0.23211
 O109 O 0.22410 0.74170 0.17760
 O110 O 0.28814 0.74580 0.23276
 O111 O 0.27448 0.75905 0.32040
 O112 O 0.21045 0.75495 0.26525
 O113 O 0.24065 0.72491 0.31976
 O114 O 0.24430 0.78908 0.26586
 Cu115 Cu 0.25750 0.74241 0.19632
 Cu116 Cu 0.24109 0.75833 0.30166
 C117 C 0.25172 0.79328 0.21290
 C118 C 0.24690 0.70746 0.28508
 C119 C 0.20647 0.74767 0.21209
 C120 C 0.29211 0.75308 0.28592
 O121 O 0.75921 0.27475 0.67838
 O122 O 0.75518 0.21077 0.73341
 O123 O 0.72502 0.24100 0.67949
 O124 O 0.78938 0.24452 0.73220
 O125 O 0.77640 0.25814 0.82012
 O126 O 0.71203 0.25462 0.76741
 O127 O 0.74220 0.22440 0.82132
 O128 O 0.74623 0.28838 0.76631
 Cu129 Cu 0.75850 0.24138 0.69698
 Cu130 Cu 0.74291 0.25776 0.80267
 C131 C 0.75338 0.29236 0.71304
 C132 C 0.74804 0.20679 0.78669
 C133 C 0.70767 0.24725 0.71450
 C134 C 0.79375 0.25189 0.78510
 O135 O 0.24482 0.78942 0.73211
 O136 O 0.24129 0.72536 0.67743
 O137 O 0.21095 0.75533 0.73127
 O138 O 0.27517 0.75944 0.67823
 O139 O 0.28842 0.74596 0.76617
 O140 O 0.22420 0.74184 0.81920
 O141 O 0.25454 0.71187 0.76536
 O142 O 0.25806 0.77593 0.82004
 Cu143 Cu 0.24173 0.75875 0.69587
 Cu144 Cu 0.25764 0.74254 0.80157
 C145 C 0.25200 0.79348 0.78534
 C146 C 0.24734 0.70781 0.71215
 C147 C 0.20675 0.74792 0.78422
 C148 C 0.29262 0.75336 0.71321
 O149 O 0.25396 0.28853 0.76696
 O150 O 0.25794 0.22433 0.82058
 O151 O 0.28801 0.25458 0.76645
 O152 O 0.22389 0.25827 0.82113
 O153 O 0.21036 0.24502 0.73332
 O154 O 0.27449 0.24132 0.67863
 O155 O 0.24441 0.21107 0.73276
 O156 O 0.24044 0.27527 0.67914
 Cu157 Cu 0.25731 0.25776 0.80263
 Cu158 Cu 0.24106 0.24184 0.69711
 C159 C 0.24658 0.29273 0.71395
 C160 C 0.25181 0.20687 0.78576
 C161 C 0.29207 0.24736 0.71328
 C162 C 0.20631 0.25223 0.78650
 O163 O 0.74572 0.71098 0.76696
 O164 O 0.74174 0.77502 0.82110
 O165 O 0.71171 0.74495 0.76640
 O166 O 0.77575 0.74106 0.82167
 O167 O 0.78937 0.75450 0.73411
 O168 O 0.72533 0.75840 0.67884
 O169 O 0.75536 0.78847 0.73353
 O170 O 0.75934 0.72443 0.67939
 Cu171 Cu 0.74235 0.74164 0.80287
 Cu172 Cu 0.75873 0.75780 0.69762
 C173 C 0.75318 0.70690 0.71401
 C174 C 0.74791 0.79255 0.78649
 C175 C 0.70771 0.75231 0.71327
 C176 C 0.79336 0.74716 0.78725
 C177 C 0.23260 0.11846 0.14680
 C178 C 0.24120 0.11100 0.08316
 C179 C 0.25659 0.09005 0.11086
 C180 C 0.24802 0.09712 0.17413
 C181 C 0.25519 0.13550 0.15205
 C182 C 0.27061 0.11456 0.17972
 C183 C 0.26375 0.12840 0.08872
 C184 C 0.27918 0.10708 0.11599
 C185 C 0.25722 0.06506 0.08600
 C186 C 0.25759 0.04508 0.06232
 C187 C 0.25429 0.16087 0.17467
 C188 C 0.25343 0.18178 0.19296
 H189 H 0.21343 0.12343 0.15962
 H190 H 0.22914 0.10922 0.04311
 H191 H 0.24157 0.08398 0.20897
 H192 H 0.28272 0.11633 0.21966
 H193 H 0.27017 0.14149 0.05375
 H194 H 0.29833 0.10210 0.10306
 C195 C 0.74283 0.61380 0.68041
 C196 C 0.73459 0.60562 0.61693
 C197 C 0.75830 0.59021 0.61159
 C198 C 0.76658 0.59798 0.67464
 C199 C 0.75663 0.63570 0.65226
 C200 C 0.78035 0.62031 0.64683
 C201 C 0.74837 0.62790 0.58916
 C202 C 0.77208 0.61212 0.58339
 C203 C 0.75912 0.56520 0.58708
 C204 C 0.75965 0.54518 0.56377
 C205 C 0.75556 0.66107 0.67462
 C206 C 0.75454 0.68198 0.69272
 H207 H 0.73076 0.61479 0.72054
 H208 H 0.71579 0.59928 0.60437
 H209 H 0.77405 0.58539 0.70948
 H210 H 0.79916 0.62666 0.65928
 H211 H 0.74091 0.64045 0.55419
 H212 H 0.78410 0.61110 0.54316
 C213 C 0.76672 0.88169 0.14672
 C214 C 0.75765 0.88928 0.08349
 C215 C 0.74245 0.91016 0.11196
 C216 C 0.75150 0.90296 0.17483
 C217 C 0.74419 0.86463 0.15270
 C218 C 0.72896 0.88549 0.18115
 C219 C 0.73515 0.87185 0.08978
 C220 C 0.71992 0.89310 0.11783
 C221 C 0.74166 0.93519 0.08738
 C222 C 0.74120 0.95522 0.06395
 C223 C 0.74527 0.83923 0.17511
 C224 C 0.74627 0.81831 0.19326
 H225 H 0.78599 0.87670 0.15875
 H226 H 0.76941 0.89116 0.04299
 H227 H 0.75819 0.91603 0.20950
 H228 H 0.71715 0.88362 0.22154
 H229 H 0.72849 0.85882 0.05497
 H230 H 0.70066 0.89809 0.10569
 C231 C 0.23487 0.37136 0.58925
 C232 C 0.21946 0.39260 0.61678
 C233 C 0.24205 0.40964 0.61194
 C234 C 0.25743 0.38878 0.58397
 C235 C 0.24346 0.36407 0.65249
 C236 C 0.26605 0.38112 0.64753
 C237 C 0.22806 0.38492 0.68042
 C238 C 0.25065 0.40237 0.67512
 C239 C 0.24145 0.43470 0.58747
 C240 C 0.24112 0.45476 0.56416
 C241 C 0.24438 0.33865 0.67477
 C242 C 0.24530 0.31770 0.69280
 H243 H 0.22843 0.35837 0.55410
 H244 H 0.20030 0.39763 0.60388
 H245 H 0.26947 0.39068 0.54398
 H246 H 0.28522 0.37609 0.66031
 H247 H 0.21596 0.38303 0.72032
 H248 H 0.25711 0.41540 0.71015
 C249 C 0.87180 0.26344 0.08662
 C250 C 0.89303 0.27913 0.11337
 C251 C 0.91024 0.25666 0.10898
 C252 C 0.88937 0.24100 0.08180
 C253 C 0.86475 0.25515 0.15023
 C254 C 0.88196 0.23267 0.14572
 C255 C 0.88560 0.27083 0.17737
 C256 C 0.90321 0.24835 0.17253
 C257 C 0.93527 0.25733 0.08420
 C258 C 0.95531 0.25772 0.06074
 C259 C 0.83937 0.25420 0.17300
 C260 C 0.81847 0.25330 0.19151
 H261 H 0.85865 0.26960 0.05144
 H262 H 0.89787 0.29824 0.09980
 H263 H 0.89123 0.22877 0.04215
 H264 H 0.87712 0.21354 0.15917
 H265 H 0.88375 0.28311 0.21691
 H266 H 0.91640 0.24216 0.20758
 C267 C 0.37190 0.74832 0.58963
 C268 C 0.38768 0.77200 0.58349
 C269 C 0.40957 0.75831 0.61221
 C270 C 0.39415 0.73464 0.61793
 C271 C 0.36399 0.75676 0.65246
 C272 C 0.38586 0.74306 0.68114
 C273 C 0.37939 0.78046 0.64665
 C274 C 0.40169 0.76678 0.67499
 C275 C 0.43461 0.75905 0.58783
 C276 C 0.45463 0.75952 0.56450
 C277 C 0.33856 0.75574 0.67451
 C278 C 0.31760 0.75474 0.69232
 H279 H 0.35939 0.74076 0.55471
 H280 H 0.38877 0.78388 0.54299
 H281 H 0.40052 0.71581 0.60586
 H282 H 0.38479 0.73113 0.72153
 H283 H 0.37300 0.79929 0.65862
 H284 H 0.41424 0.77435 0.70978
 C285 C 0.11330 0.75800 0.17768
 C286 C 0.10508 0.76627 0.11422
 C287 C 0.08964 0.74259 0.10877
 C288 C 0.09747 0.73428 0.17180
 C289 C 0.13522 0.74422 0.14953
 C290 C 0.11979 0.72053 0.14398
 C291 C 0.12737 0.75251 0.08645
 C292 C 0.11156 0.72883 0.08056
 C293 C 0.06456 0.74180 0.08432
 C294 C 0.04445 0.74128 0.06116
 C295 C 0.16063 0.74528 0.17207
 C296 C 0.18155 0.74629 0.19042
 H297 H 0.11431 0.77004 0.21785
 H298 H 0.09874 0.78507 0.10173
 H299 H 0.08489 0.72679 0.20661
 H300 H 0.12614 0.70172 0.15637
 H301 H 0.13990 0.75998 0.05150
 H302 H 0.11053 0.71685 0.04028
 C303 C 0.62062 0.22076 0.64841
 C304 C 0.59842 0.23459 0.67662
 C305 C 0.59053 0.24303 0.61375
 C306 C 0.61232 0.22920 0.58517
 C307 C 0.63617 0.24437 0.65397
 C308 C 0.62824 0.25279 0.59105
 C309 C 0.61439 0.25822 0.68251
 C310 C 0.60609 0.26663 0.61921
 C311 C 0.56545 0.24236 0.58937
 C312 C 0.54540 0.24188 0.56601
 C313 C 0.66164 0.24524 0.67598
 C314 C 0.68264 0.24609 0.69373
 H315 H 0.62691 0.20190 0.66057
 H316 H 0.58587 0.22711 0.71150
 H317 H 0.61114 0.21728 0.54480
 H318 H 0.64075 0.26025 0.55604
 H319 H 0.61555 0.27019 0.72277
 H320 H 0.59981 0.28547 0.60695
 C321 C 0.75864 0.11378 0.82172
 C322 C 0.76662 0.10567 0.88547
 C323 C 0.74296 0.09015 0.89029
 C324 C 0.73494 0.09787 0.82697
 C325 C 0.74461 0.13564 0.84932
 C326 C 0.72093 0.12014 0.85424
 C327 C 0.75261 0.12790 0.91270
 C328 C 0.72895 0.11202 0.91796
 C329 C 0.74214 0.06511 0.91483
 C330 C 0.74158 0.04504 0.93801
 C331 C 0.74567 0.16101 0.82671
 C332 C 0.74668 0.18190 0.80832
 H333 H 0.77088 0.11480 0.78191
 H334 H 0.78539 0.09941 0.89858
 H335 H 0.72768 0.08523 0.79201
 H336 H 0.70215 0.12640 0.84123
 H337 H 0.75985 0.14050 0.94779
 H338 H 0.71676 0.11097 0.95788
 C339 C 0.25803 0.61437 0.31860
 C340 C 0.26631 0.60620 0.38209
 C341 C 0.24274 0.59058 0.38736
 C342 C 0.23442 0.59835 0.32430
 C343 C 0.24403 0.63614 0.34673
 C344 C 0.22044 0.62053 0.35210
 C345 C 0.25233 0.62834 0.40984
 C346 C 0.22875 0.61235 0.41554
 C347 C 0.24209 0.56552 0.41186
 C348 C 0.24164 0.54547 0.43517
 C349 C 0.24488 0.66155 0.32440
 C350 C 0.24573 0.68250 0.30631
 H351 H 0.27010 0.61550 0.27850
 H352 H 0.28516 0.60001 0.39469
 H353 H 0.22706 0.58573 0.28942
 H354 H 0.20158 0.62673 0.33961
 H355 H 0.25966 0.64092 0.44486
 H356 H 0.21673 0.61120 0.45575
 C357 C 0.23239 0.88179 0.85247
 C358 C 0.24097 0.88936 0.91610
 C359 C 0.25641 0.91023 0.88827
 C360 C 0.24785 0.90305 0.82502
 C361 C 0.25495 0.86471 0.84756
 C362 C 0.27041 0.88556 0.81977
 C363 C 0.26350 0.87191 0.91087
 C364 C 0.27897 0.89314 0.88347
 C365 C 0.25708 0.93529 0.91269
 C366 C 0.25750 0.95537 0.93582
 C367 C 0.25403 0.83932 0.82509
 C368 C 0.25317 0.81840 0.80684
 H369 H 0.21321 0.87683 0.83959
 H370 H 0.22890 0.89124 0.95604
 H371 H 0.24144 0.91614 0.78999
 H372 H 0.28253 0.88370 0.77993
 H373 H 0.26989 0.85886 0.94601
 H374 H 0.29813 0.89811 0.89647
 C375 C 0.74314 0.38576 0.31875
 C376 C 0.73487 0.39402 0.38211
 C377 C 0.75855 0.40948 0.38744
 C378 C 0.76685 0.40162 0.32450
 C379 C 0.75698 0.36392 0.34717
 C380 C 0.78067 0.37937 0.35259
 C381 C 0.74869 0.37181 0.41015
 C382 C 0.77238 0.38763 0.41591
 C383 C 0.75931 0.43452 0.41177
 C384 C 0.75979 0.45456 0.43500
 C385 C 0.75594 0.33851 0.32506
 C386 C 0.75492 0.31757 0.30717
 H387 H 0.73108 0.38468 0.27857
 H388 H 0.71606 0.40034 0.39451
 H389 H 0.77431 0.41418 0.28959
 H390 H 0.79949 0.37303 0.34029
 H391 H 0.74126 0.35930 0.44520
 H392 H 0.78438 0.38874 0.45620
 C393 C 0.12726 0.24675 0.91194
 C394 C 0.11129 0.27032 0.91788
 C395 C 0.08944 0.25641 0.88965
 C396 C 0.10505 0.23284 0.88415
 C397 C 0.13501 0.25511 0.84887
 C398 C 0.11317 0.24119 0.82070
 C399 C 0.11941 0.27870 0.85447
 C400 C 0.09716 0.26479 0.82664
 C401 C 0.06435 0.25704 0.91413
 C402 C 0.04426 0.25747 0.93733
 C403 C 0.16043 0.25426 0.82634
 C404 C 0.18136 0.25341 0.80804
 H405 H 0.13987 0.23936 0.94689
 H406 H 0.11020 0.28227 0.95818
 H407 H 0.09886 0.21399 0.89660
 H408 H 0.11423 0.22917 0.78051
 H409 H 0.12560 0.29756 0.84212
 H410 H 0.08450 0.27220 0.79183
 C411 C 0.61388 0.74274 0.31862
 C412 C 0.60557 0.73432 0.38185
 C413 C 0.59019 0.75803 0.38749
 C414 C 0.59810 0.76649 0.32469
 C415 C 0.63577 0.75639 0.34728
 C416 C 0.62042 0.78011 0.35301
 C417 C 0.62784 0.74794 0.41012
 C418 C 0.61210 0.77166 0.41619
 C419 C 0.56515 0.75883 0.41185
 C420 C 0.54513 0.75936 0.43518
 C421 C 0.66120 0.75534 0.32525
 C422 C 0.68216 0.75435 0.30744
 H423 H 0.61492 0.73081 0.27827
 H424 H 0.59915 0.71550 0.39398
 H425 H 0.58557 0.77410 0.28987
 H426 H 0.62684 0.79893 0.34099
 H427 H 0.64033 0.74035 0.44507
 H428 H 0.61103 0.78353 0.45665
 C429 C 0.87242 0.75230 0.91295
 C430 C 0.88824 0.72863 0.91921
 C431 C 0.91016 0.74236 0.89085
 C432 C 0.89470 0.76603 0.88503
 C433 C 0.86460 0.74390 0.84997
 C434 C 0.88651 0.75764 0.82167
 C435 C 0.88004 0.72022 0.85589
 C436 C 0.90236 0.73394 0.82792
 C437 C 0.93524 0.74162 0.91535
 C438 C 0.95534 0.74115 0.93854
 C439 C 0.83920 0.74489 0.82736
 C440 C 0.81828 0.74585 0.80896
 H441 H 0.85986 0.75982 0.94776
 H442 H 0.88927 0.71672 0.95966
 H443 H 0.90103 0.78485 0.89726
 H444 H 0.88551 0.76961 0.78132
 H445 H 0.87371 0.70139 0.84376
 H446 H 0.91496 0.72641 0.79324
 C447 C 0.38504 0.22849 0.31964
 C448 C 0.40247 0.25107 0.32533
 C449 C 0.40976 0.24229 0.38836
 C450 C 0.39274 0.21972 0.38312
 C451 C 0.36417 0.24377 0.34786
 C452 C 0.37147 0.23500 0.41094
 C453 C 0.38119 0.26635 0.35321
 C454 C 0.38886 0.25755 0.41660
 C455 C 0.43481 0.24166 0.41287
 C456 C 0.45485 0.24133 0.43629
 C457 C 0.33873 0.24473 0.32565
 C458 C 0.31776 0.24567 0.30769
 H459 H 0.38315 0.21652 0.27953
 H460 H 0.41551 0.25765 0.29043
 H461 H 0.39780 0.20054 0.39568
 H462 H 0.35847 0.22845 0.44596
 H463 H 0.37613 0.28554 0.34077
 H464 H 0.39076 0.26947 0.45681
 C465 C 0.72091 0.87934 0.85258
 C466 C 0.72866 0.88739 0.91650
 C467 C 0.74291 0.90920 0.88919
 C468 C 0.73515 0.90156 0.82566
 C469 C 0.74453 0.86373 0.84836
 C470 C 0.75880 0.88553 0.82110
 C471 C 0.75227 0.87140 0.91194
 C472 C 0.76652 0.89357 0.88506
 C473 C 0.74211 0.93419 0.91381
 C474 C 0.74157 0.95419 0.93724
 C475 C 0.74557 0.83837 0.82594
 C476 C 0.74657 0.81746 0.80779
 H477 H 0.70216 0.87318 0.83907
 H478 H 0.71629 0.88849 0.95608
 H479 H 0.72812 0.91426 0.79049
 H480 H 0.77122 0.88445 0.78164
 H481 H 0.75929 0.85875 0.94725
 H482 H 0.78526 0.89972 0.89869
 C483 C 0.25218 0.37152 0.41232
 C484 C 0.26641 0.39361 0.38497
 C485 C 0.24284 0.40930 0.38918
 C486 C 0.22861 0.38758 0.41696
 C487 C 0.24429 0.36371 0.34894
 C488 C 0.22071 0.37939 0.35324
 C489 C 0.25854 0.38543 0.32122
 C490 C 0.23493 0.40152 0.32585
 C491 C 0.24212 0.43440 0.41335
 C492 C 0.24162 0.45452 0.43627
 C493 C 0.24524 0.33828 0.32670
 C494 C 0.24615 0.31735 0.30860
 H495 H 0.25924 0.35894 0.44772
 H496 H 0.28519 0.39975 0.39828
 H497 H 0.21632 0.38878 0.45666
 H498 H 0.20192 0.37324 0.34005
 H499 H 0.27088 0.38425 0.28162
 H500 H 0.22785 0.41413 0.29058
 C501 C 0.24676 0.12781 0.91053
 C502 C 0.23280 0.10561 0.88291
 C503 C 0.25641 0.09004 0.88827
 C504 C 0.27037 0.11187 0.91632
 C505 C 0.25500 0.13555 0.84737
 C506 C 0.27862 0.12000 0.85283
 C507 C 0.24102 0.11373 0.81937
 C508 C 0.26467 0.09776 0.82517
 C509 C 0.25709 0.06504 0.91306
 C510 C 0.25751 0.04506 0.93677
 C511 C 0.25405 0.16096 0.82497
 C512 C 0.25311 0.18190 0.80691
 H513 H 0.23943 0.14040 0.94548
 H514 H 0.21397 0.09940 0.89554
 H515 H 0.28243 0.11078 0.95654
 H516 H 0.29746 0.12622 0.84030
 H517 H 0.22891 0.11480 0.77927
 H518 H 0.27202 0.08511 0.79036
 C519 C 0.76489 0.62900 0.41182
 C520 C 0.74251 0.61135 0.41709
 C521 C 0.75807 0.59069 0.38881
 C522 C 0.78048 0.60797 0.38397
 C523 C 0.75615 0.63631 0.34871
 C524 C 0.77173 0.61566 0.32047
 C525 C 0.73374 0.61903 0.35366
 C526 C 0.74932 0.59798 0.32576
 C527 C 0.75898 0.56559 0.41294
 C528 C 0.75957 0.54547 0.43588
 C529 C 0.75499 0.66174 0.32658
 C530 C 0.75394 0.68269 0.30856
 H531 H 0.77124 0.64201 0.44704
 H532 H 0.73054 0.60926 0.45715
 H533 H 0.79970 0.60312 0.39670
 H534 H 0.78376 0.61774 0.28051
 H535 H 0.71450 0.62388 0.34106
 H536 H 0.74295 0.58494 0.29066
 C537 C 0.12834 0.73568 0.90857
 C538 C 0.11071 0.75806 0.91383
 C539 C 0.08995 0.74246 0.88603
 C540 C 0.10721 0.72006 0.88120
 C541 C 0.13544 0.74429 0.84526
 C542 C 0.11470 0.72867 0.81748
 C543 C 0.11818 0.76670 0.85020
 C544 C 0.09702 0.75108 0.82278
 C545 C 0.06497 0.74163 0.91077
 C546 C 0.04502 0.74113 0.93446
 C547 C 0.16083 0.74544 0.82301
 C548 C 0.18178 0.74650 0.80511
 H549 H 0.14147 0.72941 0.94367
 H550 H 0.10874 0.77010 0.95379
 H551 H 0.10239 0.70087 0.89422
 H552 H 0.11667 0.71658 0.77763
 H553 H 0.12300 0.78590 0.83731
 H554 H 0.08384 0.75738 0.78781
 C555 C 0.62953 0.23586 0.41381
 C556 C 0.61192 0.25829 0.41847
 C557 C 0.59114 0.24262 0.39096
 C558 C 0.60838 0.22016 0.38673
 C559 C 0.63672 0.24419 0.35032
 C560 C 0.61595 0.22850 0.32286
 C561 C 0.61948 0.26665 0.35466
 C562 C 0.59830 0.25096 0.32753
 C563 C 0.56602 0.24191 0.41523
 C564 C 0.54587 0.24150 0.43811
 C565 C 0.66213 0.24518 0.32779
 C566 C 0.68304 0.24610 0.30939
 H567 H 0.64261 0.22969 0.44915
 H568 H 0.60996 0.27050 0.45812
 H569 H 0.60352 0.20104 0.40018
 H570 H 0.61790 0.21624 0.28331
 H571 H 0.62433 0.28579 0.34133
 H572 H 0.58519 0.25715 0.29231
 C573 C 0.87304 0.24640 0.90886
 C574 C 0.89524 0.23257 0.88096
 C575 C 0.91078 0.25618 0.88654
 C576 C 0.88894 0.27001 0.91487
 C577 C 0.86522 0.25480 0.84586
 C578 C 0.88074 0.27842 0.85153
 C579 C 0.88705 0.24095 0.81756
 C580 C 0.90300 0.26460 0.82358
 C581 C 0.93579 0.25686 0.91134
 C582 C 0.95573 0.25734 0.93523
 C583 C 0.83977 0.25392 0.82369
 C584 C 0.81878 0.25306 0.80588
 H585 H 0.86047 0.23895 0.94377
 H586 H 0.90151 0.21373 0.89331
 H587 H 0.89004 0.28193 0.95524
 H588 H 0.87446 0.29727 0.83929
 H589 H 0.88596 0.22897 0.77731
 H590 H 0.91561 0.27207 0.78882
 C591 C 0.38064 0.73417 0.35326
 C592 C 0.40177 0.74984 0.32594
 C593 C 0.40893 0.75832 0.38926
 C594 C 0.38818 0.74267 0.41695
 C595 C 0.36336 0.75659 0.34851
 C596 C 0.37053 0.76505 0.41189
 C597 C 0.38408 0.77226 0.32086
 C598 C 0.39165 0.78074 0.38464
 C599 C 0.43403 0.75911 0.41362
 C600 C 0.45417 0.75958 0.43660
 C601 C 0.33795 0.75549 0.32597
 C602 C 0.31703 0.75446 0.30760
 H603 H 0.37581 0.71499 0.34021
 H604 H 0.41489 0.74361 0.29088
 H605 H 0.39018 0.73054 0.45681
 H606 H 0.35745 0.77126 0.44708
 H607 H 0.38210 0.78444 0.28112
 H608 H 0.39648 0.79989 0.39780
 C609 C 0.27843 0.88019 0.14635
 C610 C 0.27021 0.88845 0.08290
 C611 C 0.25625 0.91023 0.11112
 C612 C 0.26448 0.90238 0.17419
 C613 C 0.25480 0.86463 0.15148
 C614 C 0.24082 0.88641 0.17965
 C615 C 0.24658 0.87251 0.08836
 C616 C 0.23263 0.89466 0.11615
 C617 C 0.25695 0.93531 0.08681
 C618 C 0.25741 0.95540 0.06368
 C619 C 0.25386 0.83920 0.17370
 C620 C 0.25295 0.81825 0.19171
 H621 H 0.29726 0.87393 0.15893
 H622 H 0.28227 0.88961 0.04278
 H623 H 0.27182 0.91494 0.20920
 H624 H 0.22870 0.88527 0.21966
 H625 H 0.23926 0.85999 0.05323
 H626 H 0.21380 0.90091 0.10348
 C627 C 0.73444 0.38080 0.64591
 C628 C 0.75006 0.40191 0.67345
 C629 C 0.75864 0.40911 0.61024
 C630 C 0.74304 0.38839 0.58232
 C631 C 0.75689 0.36356 0.65079
 C632 C 0.76546 0.37077 0.58752
 C633 C 0.77251 0.38427 0.67867
 C634 C 0.78109 0.39187 0.61500
 C635 C 0.75943 0.43419 0.58592
 C636 C 0.75989 0.45429 0.56289
 C637 C 0.75579 0.33817 0.67320
 C638 C 0.75476 0.31726 0.69146
 H639 H 0.71524 0.37595 0.65877
 H640 H 0.74376 0.41500 0.70850
 H641 H 0.73096 0.39040 0.54237
 H642 H 0.77174 0.35772 0.55235
 H643 H 0.78464 0.38227 0.71852
 H644 H 0.80027 0.39673 0.60202
 C645 C 0.73548 0.12830 0.09064
 C646 C 0.75791 0.11075 0.08501
 C647 C 0.74250 0.08999 0.11338
 C648 C 0.72003 0.10716 0.11858
 C649 C 0.74432 0.13553 0.15367
 C650 C 0.72888 0.11479 0.18201
 C651 C 0.76679 0.11836 0.14835
 C652 C 0.75135 0.09720 0.17636
 C653 C 0.74168 0.06494 0.08907
 C654 C 0.74121 0.04489 0.06589
 C655 C 0.74546 0.16094 0.17580
 C656 C 0.74654 0.18188 0.19371
 H657 H 0.72900 0.14133 0.05555
 H658 H 0.76981 0.10876 0.04478
 H659 H 0.70080 0.10225 0.10608
 H660 H 0.71694 0.11677 0.22214
 H661 H 0.78603 0.12326 0.16074
 H662 H 0.75785 0.08412 0.21131
 C663 C 0.23554 0.62925 0.58716
 C664 C 0.25801 0.61170 0.58207
 C665 C 0.24250 0.59093 0.61014
 C666 C 0.22000 0.60811 0.61481
 C667 C 0.24414 0.63652 0.65037
 C668 C 0.22862 0.61577 0.67841
 C669 C 0.26664 0.61935 0.64559
 C670 C 0.25111 0.59819 0.67330
 C671 C 0.24175 0.56583 0.58599
 C672 C 0.24131 0.54571 0.56307
 C673 C 0.24516 0.66195 0.67261
 C674 C 0.24610 0.68288 0.69074
 H675 H 0.22918 0.64226 0.55190
 H676 H 0.27005 0.60971 0.54211
 H677 H 0.20082 0.60319 0.60190
 H678 H 0.21652 0.61775 0.71826
 H679 H 0.28584 0.62426 0.65838
 H680 H 0.25749 0.58514 0.70844
 C681 C 0.88155 0.76690 0.14905
 C682 C 0.90273 0.75137 0.17673
 C683 C 0.90982 0.74264 0.11362
 C684 C 0.88904 0.75815 0.08556
 C685 C 0.86432 0.74447 0.15432
 C686 C 0.87145 0.73576 0.09116
 C687 C 0.88509 0.72894 0.18236
 C688 C 0.89260 0.72022 0.11878
 C689 C 0.93481 0.74179 0.08891
 C690 C 0.95476 0.74126 0.06525
 C691 C 0.83893 0.74560 0.17655
 C692 C 0.81798 0.74663 0.19445
 H693 H 0.87669 0.78611 0.16164
 H694 H 0.91589 0.75776 0.21161
 H695 H 0.89099 0.77012 0.04541
 H696 H 0.85833 0.72939 0.05614
 H697 H 0.88314 0.71692 0.22240
 H698 H 0.89746 0.70102 0.10607
 C699 C 0.38513 0.25870 0.67891
 C700 C 0.40130 0.23515 0.67448
 C701 C 0.40907 0.24297 0.61108
 C702 C 0.39329 0.26649 0.61509
 C703 C 0.36343 0.24436 0.65134
 C704 C 0.37122 0.25217 0.58788
 C705 C 0.37919 0.22083 0.64723
 C706 C 0.38736 0.22865 0.58345
 C707 C 0.43422 0.24229 0.58697
 C708 C 0.45438 0.24181 0.56418
 C709 C 0.33797 0.24526 0.67363
 C710 C 0.31702 0.24615 0.69180
 H711 H 0.38392 0.27109 0.71840
 H712 H 0.41394 0.22816 0.70983
 H713 H 0.39938 0.28525 0.60161
 H714 H 0.35862 0.25913 0.55241
 H715 H 0.37309 0.20205 0.66060
 H716 H 0.38860 0.21631 0.54385
 C717 C 0.11470 0.27092 0.18095
 C718 C 0.10715 0.27939 0.11713
 C719 C 0.09002 0.25688 0.11245
 C720 C 0.09715 0.24840 0.17582
 C721 C 0.13554 0.25538 0.15341
 C722 C 0.11840 0.23286 0.14862
 C723 C 0.12837 0.26384 0.08999
 C724 C 0.11087 0.24135 0.08488
 C725 C 0.06501 0.25752 0.08767
 C726 C 0.04501 0.25787 0.06402
 C727 C 0.16094 0.25440 0.17582
 C728 C 0.18189 0.25345 0.19388
 H729 H 0.11660 0.28309 0.22070
 H730 H 0.10222 0.29852 0.10391
 H731 H 0.08403 0.24208 0.21080
 H732 H 0.12333 0.21371 0.16172
 H733 H 0.14145 0.27013 0.05486
 H734 H 0.10897 0.22924 0.04503
 C735 C 0.61579 0.77162 0.67857
 C736 C 0.60821 0.78017 0.61483
 C737 C 0.59086 0.75781 0.61027
 C738 C 0.59803 0.74926 0.67357
 C739 C 0.63645 0.75590 0.65084
 C740 C 0.61910 0.73354 0.64618
 C741 C 0.62926 0.76444 0.58749
 C742 C 0.61153 0.74211 0.58251
 C743 C 0.56574 0.75871 0.58600
 C744 C 0.54560 0.75929 0.56306
 C745 C 0.66187 0.75474 0.67330
 C746 C 0.68279 0.75368 0.69162
 H747 H 0.61783 0.78377 0.71831
 H748 H 0.60343 0.79935 0.60167
 H749 H 0.58491 0.74305 0.70869
 H750 H 0.62387 0.71435 0.65921
 H751 H 0.64234 0.77063 0.55225
 H752 H 0.60947 0.73002 0.54267
   
