data_POSCAR
  _audit_creation_date              2014-09-24
  _audit_creation_method            'ToBaCCo'
  _symmetry_space_group_name_H-M    'P1'
  _symmetry_Int_Tables_number       1
  _symmetry_cell_setting            triclinic
  loop_
  _symmetry_equiv_pos_as_xyz
 x,y,z
_cell_length_a 21.3034
_cell_length_b 21.4385
_cell_length_c 27.6520
_cell_angle_alpha 94.972900
_cell_angle_beta 101.604700
_cell_angle_gamma 97.259100
loop_
  _atom_site_label
  _atom_site_type_symbol
  _atom_site_fract_x
  _atom_site_fract_y
  _atom_site_fract_z
C1 C 0.00624 0.50582 0.98671
 C2 C -0.01713 0.50317 1.02908
 C3 C -0.04449 0.55749 1.04975
 C4 C -0.02175 0.44522 1.05469
 C5 C 0.02526 0.45006 0.96030
 C6 C 0.00830 0.56421 0.96159
 C7 C -0.00767 0.61803 1.06305
 C8 C -0.03741 0.67021 1.07493
 C9 C -0.10381 0.66202 1.07470
 C10 C -0.13968 0.60126 1.06434
 C11 C -0.11019 0.54928 1.05205
 C12 C 0.00745 0.44894 1.10528
 C13 C 0.00403 0.39522 1.13035
 C14 C -0.02852 0.33698 1.10536
 C15 C -0.05901 0.33320 1.05488
 C16 C -0.05624 0.38719 1.02988
 C17 C -0.00152 0.43422 0.90931
 C18 C 0.01284 0.38112 0.88342
 C19 C 0.05356 0.34226 0.90784
 C20 C 0.08209 0.35835 0.95860
 C21 C 0.06870 0.41257 0.98453
 C22 C -0.04910 0.58549 0.93929
 C23 C -0.04643 0.64033 0.91547
 C24 C 0.01340 0.67457 0.91372
 C25 C 0.07090 0.65305 0.93580
 C26 C 0.06825 0.59791 0.95926
 H27 H 0.04330 0.62518 1.06216
 H28 H -0.00912 0.71701 1.08273
 H29 H -0.19108 0.59436 1.06394
 H30 H -0.13939 0.50304 1.04199
 H31 H 0.03349 0.49343 1.12523
 H32 H 0.02729 0.39881 1.16930
 H33 H -0.08066 0.38369 0.99120
 H34 H -0.03490 0.46224 0.88959
 H35 H -0.00928 0.36917 0.84432
 H36 H 0.11425 0.32909 0.97806
 H37 H 0.09131 0.42466 1.02351
 H38 H -0.09576 0.55947 0.94025
 H39 H -0.09102 0.65624 0.89831
 H40 H 0.11770 0.67846 0.93455
 H41 H 0.11289 0.58172 0.97600
 H42 H -0.08517 0.28881 1.03495
 C43 C 0.50170 0.00497 0.47463
 C44 C 0.51334 0.00741 0.52514
 C45 C 0.46066 0.01252 0.55257
 C46 C 0.57904 0.00611 0.55588
 C47 C 0.55358 0.00051 0.44639
 C48 C 0.43599 0.00668 0.44436
 C49 C 0.42587 0.06403 0.54965
 C50 C 0.37568 0.06731 0.57512
 C51 C 0.35981 0.01949 0.60393
 C52 C 0.39539 -0.03151 0.60752
 C53 C 0.44562 -0.03470 0.58222
 C54 C 0.60383 0.05242 0.59669
 C55 C 0.66543 0.05279 0.62597
 C56 C 0.70367 0.00744 0.61479
 C57 C 0.67890 -0.03975 0.57452
 C58 C 0.61659 -0.04092 0.54570
 C59 C 0.54617 -0.05008 0.40898
 C60 C 0.59347 -0.05496 0.38114
 C61 C 0.64866 -0.00928 0.38989
 C62 C 0.65628 0.04183 0.42712
 C63 C 0.60877 0.04681 0.45508
 C64 C 0.38286 -0.03831 0.44649
 C65 C 0.32158 -0.03578 0.41739
 C66 C 0.31297 0.01128 0.38523
 C67 C 0.36612 0.05531 0.38255
 C68 C 0.42717 0.05308 0.41180
 H69 H 0.43749 0.10143 0.52757
 H70 H 0.34892 0.10703 0.57229
 H71 H 0.38437 -0.06888 0.62976
 H72 H 0.47225 -0.07454 0.58514
 H73 H 0.57566 0.08879 0.60560
 H74 H 0.68385 0.08906 0.65716
 H75 H 0.59779 -0.07837 0.51545
 H76 H 0.50376 -0.08601 0.40153
 H77 H 0.58702 -0.09436 0.35244
 H78 H 0.69847 0.07792 0.43431
 H79 H 0.61478 0.08677 0.48323
 H80 H 0.38893 -0.07538 0.47052
 H81 H 0.28122 -0.07067 0.41976
 H82 H 0.36011 0.09158 0.35777
 H83 H 0.46761 0.08788 0.40932
 H84 H 0.70730 -0.07593 0.56574
 C85 C 0.07236 0.02877 0.25937
 H86 H 0.06814 0.06018 0.23074
 C87 C 0.13311 0.02578 0.28883
 H88 H 0.17528 0.05538 0.28282
 C89 C 0.02285 -0.04868 0.30164
 H90 H -0.02058 -0.07745 0.30629
 C91 C 0.08275 -0.05339 0.33175
 H92 H 0.08569 -0.08583 0.35976
 N93 N 0.01880 -0.00804 0.26636
 C94 C -0.15107 -0.08559 0.15073
 H95 H -0.18036 -0.04794 0.15145
 C96 C -0.17442 -0.14070 0.11809
 H97 H -0.22168 -0.14553 0.09351
 C98 C -0.05399 -0.12567 0.18191
 H99 H -0.00698 -0.11961 0.20677
 C100 C -0.07564 -0.18176 0.14983
 H101 H -0.04521 -0.21856 0.15050
 Zn102 Zn -0.06370 -0.00371 0.22711
 N103 N -0.09196 -0.07913 0.18210
 C104 C -0.07555 0.06042 0.14011
 N105 N -0.05931 0.06817 0.19075
 C106 C -0.03904 0.12692 0.21621
 C107 C -0.03614 0.18053 0.19097
 C108 C -0.07387 0.11286 0.11344
 C109 C -0.17554 -0.04106 0.26492
 C110 C -0.21957 -0.03591 0.29565
 C111 C -0.15212 0.05920 0.33948
 C112 C -0.10923 0.05224 0.30785
 N113 N -0.12227 0.00352 0.27056
 H114 H -0.08950 0.01367 0.12006
 H115 H -0.02394 0.13240 0.25613
 H116 H -0.02000 0.22678 0.21195
 H117 H -0.08736 0.10618 0.07323
 H118 H -0.18416 -0.08110 0.23685
 H119 H -0.26197 -0.07152 0.29007
 H120 H -0.14171 0.09849 0.36865
 H121 H -0.06522 0.08542 0.31362
 C122 C -0.13677 -0.18948 0.11756
 C123 C 0.13851 -0.01576 0.32557
 C124 C -0.20825 0.01521 0.33314
 C125 C -0.05423 0.17359 0.13889
 C126 C 0.07582 0.12343 0.78909
 H127 H 0.05933 0.11920 0.74919
 C128 C 0.07766 0.18109 0.81716
 H129 H 0.06389 0.22109 0.79835
 C130 C 0.10858 0.07526 0.86218
 H131 H 0.11874 0.03358 0.87977
 C132 C 0.11166 0.13243 0.89175
 H133 H 0.12444 0.13453 0.93184
 N134 N 0.09038 0.07166 0.81175
 C135 C 0.17082 -0.06305 0.73185
 H136 H 0.15673 -0.10243 0.75111
 C137 C 0.22012 -0.06639 0.70566
 H138 H 0.24437 -0.10784 0.70544
 C139 C 0.15601 0.03812 0.70714
 H140 H 0.13072 0.07861 0.70748
 C141 C 0.20504 0.03664 0.68039
 H142 H 0.21723 0.07627 0.66058
 Zn143 Zn 0.07495 -0.00664 0.77027
 N144 N 0.14045 -0.01089 0.73282
 C145 C -0.01718 -0.03788 0.67871
 N146 N -0.00659 -0.01116 0.72665
 C147 C -0.05454 0.01191 0.74529
 C148 C -0.11587 0.00962 0.71514
 C149 C -0.07831 -0.04198 0.64738
 C150 C 0.12620 -0.08526 0.84118
 C151 C 0.12488 -0.13730 0.86828
 C152 C 0.01158 -0.16756 0.82965
 C153 C 0.01513 -0.11537 0.80298
 N154 N 0.07186 -0.07549 0.80902
 H155 H 0.02161 -0.05647 0.66495
 H156 H -0.04505 0.03207 0.78374
 H157 H -0.15338 0.02839 0.73059
 H158 H -0.08665 -0.06343 0.60930
 H159 H 0.17087 -0.05319 0.84507
 H160 H 0.16847 -0.14529 0.89329
 H161 H -0.03383 -0.19903 0.82406
 H162 H -0.02747 -0.10720 0.77713
 C163 C 0.23791 -0.01609 0.67993
 C164 C 0.09469 0.18563 0.86925
 C165 C 0.06719 -0.17902 0.86253
 C166 C -0.12814 -0.01764 0.66550
 N167 N -0.13233 -0.29097 0.08021
 N168 N -0.16227 -0.24587 0.08408
 N169 N -0.03004 0.28285 0.13226
 N170 N -0.05272 0.22711 0.11125
 N171 N 0.30776 0.02377 0.62923
 N172 N 0.28945 -0.01975 0.65406
 N173 N -0.23312 0.01016 0.64546
 N174 N -0.19056 -0.02105 0.63330
 N175 N 0.01437 -0.27000 0.88835
 N176 N 0.06657 -0.23332 0.88924
 N177 N 0.06267 0.28594 0.88005
 N178 N 0.09005 0.24198 0.89950
 N179 N -0.30476 -0.01580 0.35975
 N180 N -0.25304 0.02323 0.36473
 N181 N 0.25120 0.01535 0.35464
 N182 N 0.19973 -0.02055 0.35676
   
