data_POSCAR
  _audit_creation_date              2014-09-24
  _audit_creation_method            'ToBaCCo'
  _symmetry_space_group_name_H-M    'P1'
  _symmetry_Int_Tables_number       1
  _symmetry_cell_setting            triclinic
  loop_
  _symmetry_equiv_pos_as_xyz
 x,y,z
_cell_length_a 54.2776
_cell_length_b 54.3109
_cell_length_c 15.4167
_cell_angle_alpha 89.942900
_cell_angle_beta 89.953800
_cell_angle_gamma 119.913900
loop_
  _atom_site_label
  _atom_site_type_symbol
  _atom_site_fract_x
  _atom_site_fract_y
  _atom_site_fract_z
C1 C 0.22631 0.49745 0.45316
 C2 C 0.22940 0.50308 0.54425
 C3 C 0.25422 0.50692 0.58611
 C4 C 0.27447 0.50246 0.54231
 C5 C 0.27080 0.49646 0.45208
 C6 C 0.24681 0.49356 0.40954
 H7 H 0.24532 0.49037 0.33985
 H8 H 0.25605 0.50997 0.65577
 C9 C 0.49516 -0.27532 0.45819
 C10 C 0.49885 -0.27238 0.54959
 C11 C 0.49974 -0.24916 0.59177
 C12 C 0.49672 -0.22835 0.54620
 C13 C 0.49349 -0.23100 0.45438
 C14 C 0.49173 -0.25478 0.41248
 H15 H 0.49022 -0.25582 0.34230
 H16 H 0.50115 -0.24838 0.66196
 C17 C 1.27193 0.77371 0.45526
 C18 C 1.26929 0.77539 0.54673
 C19 C 1.24600 0.75367 0.59066
 C20 C 1.22511 0.73014 0.54610
 C21 C 1.22738 0.72812 0.45557
 C22 C 1.25110 0.74942 0.41145
 H23 H 1.25210 0.74796 0.34152
 H24 H 1.24452 0.75471 0.66060
 C25 C 0.77358 0.50189 0.45617
 C26 C 0.77381 0.50081 0.54826
 C27 C 0.75055 0.49903 0.59440
 C28 C 0.72726 0.49841 0.55195
 C29 C 0.72727 0.49907 0.45964
 C30 C 0.75029 0.50069 0.41355
 H31 H 0.75027 0.50140 0.34321
 H32 H 0.75067 0.49829 0.66469
 C33 C 0.49850 0.27166 0.45362
 C34 C 0.49969 0.27298 0.54571
 C35 C 0.50157 0.25149 0.59153
 C36 C 0.50210 0.22879 0.54895
 C37 C 0.50100 0.22800 0.45669
 C38 C 0.49929 0.24938 0.41089
 H39 H 0.49832 0.24855 0.34058
 H40 H 0.50240 0.25231 0.66178
 C41 C 0.72867 0.22652 0.45513
 C42 C 0.72861 0.22713 0.54645
 C43 C 0.75084 0.24978 0.59086
 C44 C 0.77405 0.27181 0.54615
 C45 C 0.77365 0.27139 0.45353
 C46 C 0.75095 0.24880 0.40974
 H47 H 0.75057 0.24859 0.33940
 H48 H 0.75063 0.24925 0.66118
 O49 O 0.96147 0.43665 0.16065
 O50 O 0.93010 0.44328 0.07788
 C51 C 0.93601 0.43045 0.13823
 O52 O 1.03984 0.56426 0.15246
 O53 O 1.07131 0.55658 0.07411
 C54 C 1.06549 0.57051 0.13096
 O55 O 0.95977 0.52239 0.15613
 O56 O 0.92900 0.48355 0.07562
 C57 C 0.93436 0.50274 0.13397
 O58 O 1.04104 0.47497 0.15166
 O59 O 1.07197 0.51490 0.07506
 C60 C 1.06642 0.49492 0.13063
 Zr61 Zr 1.00091 0.46849 0.11065
 O62 O 1.00393 0.46990 0.24763
 O63 O 0.99816 0.42821 0.10907
 Zr64 Zr 1.00005 0.53045 0.11028
 O65 O 1.00250 0.53131 0.24742
 O66 O 0.99691 0.56777 0.11027
 O67 O 0.97514 0.48664 0.12735
 O68 O 1.02504 0.51194 0.12665
 O69 O 1.04133 0.47542 -0.14963
 O70 O 1.07213 0.51442 -0.07028
 C71 C 1.06680 0.49483 -0.12718
 O72 O 0.96040 0.52143 -0.15818
 O73 O 0.92920 0.48359 -0.07486
 C74 C 0.93484 0.50216 -0.13577
 O75 O 1.04019 0.56466 -0.14919
 O76 O 1.07156 0.55643 -0.07224
 C77 C 1.06575 0.57068 -0.12800
 O78 O 0.96132 0.43711 -0.15822
 O79 O 0.92972 0.44306 -0.07456
 C80 C 0.93562 0.43035 -0.13551
 Zr81 Zr 1.00109 0.46852 -0.10812
 O82 O 1.00437 0.46938 -0.24503
 O83 O 0.99829 0.42821 -0.10510
 Zr84 Zr 1.00046 0.53048 -0.10866
 O85 O 1.00395 0.53233 -0.24559
 O86 O 0.99665 0.56743 -0.10883
 Zr87 Zr 0.95832 0.47806 0.00067
 Zr88 Zr 1.04289 0.52094 0.00134
 O89 O 1.02541 0.51198 -0.12424
 O90 O 0.97550 0.48670 -0.12576
 O91 O 1.02650 0.47663 0.00141
 O92 O 0.97550 0.52241 0.00036
 O93 O 0.97623 0.45150 0.00112
 O94 O 1.02563 0.54817 0.00102
 H95 H 1.03771 0.51835 0.17793
 H96 H 0.96249 0.53027 -0.00040
 H97 H 1.03823 0.51848 -0.17530
 H98 H 0.96342 0.43063 0.00109
 H99 H 1.01281 0.58215 0.07493
 H100 H 1.01236 0.58191 -0.07332
 H101 H 0.98831 0.51430 -0.26864
 H102 H 0.98945 0.47295 -0.26825
 H103 H 1.01524 0.43041 -0.07429
 H104 H 1.01441 0.43006 0.07474
 H105 H 0.98878 0.47327 0.27000
 H106 H 0.98571 0.51390 0.26941
 O107 O 0.52523 0.56549 -0.15091
 O108 O 0.48557 0.55678 -0.07287
 C109 C 0.50511 0.57078 -0.13020
 O110 O 0.47811 0.43812 -0.15809
 O111 O 0.51621 0.44487 -0.07607
 C112 C 0.49713 0.43153 -0.13520
 O113 O 0.44025 0.48021 -0.16507
 O114 O 0.44556 0.51666 -0.07780
 C115 C 0.43341 0.49897 -0.14105
 O116 O 0.56721 0.52714 -0.14599
 O117 O 0.55827 0.48699 -0.07056
 C118 C 0.57276 0.50719 -0.12545
 Zr119 Zr 0.53326 0.53331 -0.10470
 O120 O 0.53693 0.53435 -0.24152
 O121 O 0.57053 0.57358 -0.09561
 Zr122 Zr 0.47098 0.47094 -0.11394
 O123 O 0.47344 0.47048 -0.25089
 O124 O 0.43057 0.43366 -0.11737
 O125 O 0.48964 0.51488 -0.12629
 O126 O 0.51461 0.49008 -0.12555
 O127 O 0.56362 0.52387 0.15802
 O128 O 0.55682 0.48585 0.07592
 C129 C 0.57023 0.50490 0.13496
 O130 O 0.43573 0.47535 0.15074
 O131 O 0.44414 0.51507 0.07372
 C132 C 0.43018 0.49531 0.13050
 O133 O 0.47421 0.43362 0.14312
 O134 O 0.51487 0.44337 0.06934
 C135 C 0.49441 0.42839 0.12306
 O136 O 0.52083 0.56081 0.16583
 O137 O 0.48423 0.55529 0.07879
 C138 C 0.50189 0.56745 0.14212
 Zr139 Zr 0.53043 0.53039 0.11392
 O140 O 0.53089 0.52767 0.25081
 O141 O 0.56752 0.57093 0.11721
 Zr142 Zr 0.46827 0.46791 0.10462
 O143 O 0.46821 0.46471 0.24152
 O144 O 0.42801 0.43054 0.09831
 Zr145 Zr 0.47949 0.52157 0.00029
 Zr146 Zr 0.52201 0.47959 -0.00042
 O147 O 0.51156 0.48674 0.12504
 O148 O 0.48642 0.51145 0.12663
 O149 O 0.54944 0.52394 0.00518
 O150 O 0.45270 0.47726 -0.00517
 O151 O 0.52380 0.54863 0.00549
 O152 O 0.47767 0.45197 -0.00571
 H153 H 0.52150 0.48434 -0.17698
 H154 H 0.43185 0.46939 -0.00749
 H155 H 0.51737 0.47977 0.17610
 H156 H 0.53146 0.56943 0.00790
 H157 H 0.43222 0.41851 -0.08693
 H158 H 0.43010 0.41673 0.06179
 H159 H 0.46926 0.48209 0.26562
 H160 H 0.51196 0.52338 0.27200
 H161 H 0.58257 0.56957 0.08500
 H162 H 0.58499 0.57096 -0.06442
 H163 H 0.51886 0.53165 -0.26563
 H164 H 0.47747 0.48933 -0.27201
 O165 O 0.52247 -0.04053 0.15442
 O166 O 0.48466 -0.07125 0.07080
 C167 C 0.50319 -0.06596 0.13133
 O168 O 0.47541 0.03971 0.15218
 O169 O 0.51449 0.07108 0.07367
 C170 C 0.49478 0.06531 0.13075
 O171 O 0.43760 -0.03993 0.15808
 O172 O 0.44351 -0.07109 0.07256
 C173 C 0.43091 -0.06549 0.13457
 O174 O 0.56459 0.03923 0.14960
 O175 O 0.55679 0.07082 0.07251
 C176 C 0.57082 0.06491 0.12886
 Zr177 Zr 0.53094 -0.00047 0.10614
 O178 O 0.53313 0.00201 0.24319
 O179 O 0.56817 -0.00381 0.10169
 Zr180 Zr 0.46886 -0.00011 0.10834
 O181 O 0.46985 0.00252 0.24540
 O182 O 0.42843 -0.00311 0.10700
 O183 O 0.48715 -0.02570 0.12347
 O184 O 0.51229 0.02424 0.12417
 O185 O 0.56470 0.04032 -0.15294
 O186 O 0.55638 0.07131 -0.07433
 C187 C 0.57058 0.06576 -0.13095
 O188 O 0.43617 -0.03865 -0.15855
 O189 O 0.44349 -0.07035 -0.07992
 C190 C 0.43010 -0.06426 -0.13792
 O191 O 0.47524 0.04099 -0.15141
 O192 O 0.51441 0.07165 -0.07184
 C193 C 0.49487 0.06629 -0.12878
 O194 O 0.52246 -0.03908 -0.16449
 O195 O 0.48455 -0.07063 -0.08161
 C196 C 0.50318 -0.06459 -0.14247
 Zr197 Zr 0.53080 0.00042 -0.11237
 O198 O 0.53262 0.00415 -0.24921
 O199 O 0.56796 -0.00306 -0.11176
 Zr200 Zr 0.46864 0.00081 -0.11013
 O201 O 0.47002 0.00401 -0.24714
 O202 O 0.42849 -0.00160 -0.10722
 Zr203 Zr 0.47839 -0.04238 -0.00351
 Zr204 Zr 0.52110 0.04248 -0.00056
 O205 O 0.51209 0.02524 -0.12646
 O206 O 0.48692 -0.02467 -0.12927
 O207 O 0.54851 0.02543 -0.00241
 O208 O 0.45181 -0.02445 -0.00140
 O209 O 0.52281 -0.02490 -0.00412
 O210 O 0.47675 0.02584 0.00017
 H211 H 0.51867 0.03671 0.17589
 H212 H 0.43092 -0.03719 -0.00075
 H213 H 0.51847 0.03808 -0.17743
 H214 H 0.53070 -0.03789 -0.00509
 H215 H 0.43045 0.01381 0.07633
 H216 H 0.43054 0.01467 -0.07275
 H217 H 0.47121 -0.01235 -0.27026
 H218 H 0.51408 -0.01068 -0.27205
 H219 H 0.58254 0.01302 -0.07758
 H220 H 0.58304 0.01322 0.07144
 H221 H 0.51482 -0.01328 0.26607
 H222 H 0.47350 -0.01245 0.26762
 C223 C 1.16029 0.49790 0.30963
 C224 C 1.17554 0.51960 0.36995
 C225 C 1.19753 0.51947 0.41709
 C226 C 1.20474 0.49811 0.40328
 C227 C 1.18991 0.47722 0.33946
 C228 C 1.16724 0.47663 0.29410
 C229 C 1.13639 0.49729 0.26241
 C230 C 1.12027 0.47484 0.20494
 C231 C 1.09700 0.47390 0.16227
 C232 C 1.09055 0.49566 0.17516
 C233 C 1.10722 0.51835 0.23112
 C234 C 1.12996 0.51904 0.27620
 C235 C 1.15100 0.45485 0.23480
 C236 C 1.12777 0.45384 0.19150
 C237 C 1.16843 0.54094 0.38218
 C238 C 1.14618 0.54082 0.33547
 H239 H 1.15609 0.43824 0.22252
 H240 H 1.11561 0.43650 0.14705
 H241 H 1.18016 0.55789 0.42822
 H242 H 1.14141 0.55771 0.34659
 H243 H 1.20937 0.53626 0.46356
 H244 H 1.19491 0.46047 0.32866
 H245 H 1.08414 0.45659 0.11841
 H246 H 1.10203 0.53502 0.24085
 C247 C 0.49787 0.65820 0.32334
 C248 C 0.51737 0.67244 0.39007
 C249 C 0.51676 0.69482 0.43287
 C250 C 0.49630 0.70271 0.41173
 C251 C 0.47741 0.68861 0.34240
 C252 C 0.47793 0.66618 0.29870
 C253 C 0.49859 0.63469 0.27774
 C254 C 0.47924 0.62054 0.21045
 C255 C 0.48028 0.59845 0.16658
 C256 C 0.50051 0.59047 0.18965
 C257 C 0.51960 0.60485 0.25788
 C258 C 0.51878 0.62699 0.30195
 C259 C 0.45877 0.65136 0.23133
 C260 C 0.45939 0.62892 0.18803
 C261 C 0.53722 0.66410 0.41263
 C262 C 0.53788 0.64172 0.36940
 H263 H 0.44317 0.65718 0.21184
 H264 H 0.44428 0.61811 0.13636
 H265 H 0.55234 0.67493 0.46430
 H266 H 0.55354 0.63597 0.38877
 H267 H 0.53296 0.70672 0.48068
 H268 H 0.46153 0.69426 0.32473
 H269 H 0.46542 0.58760 0.11430
 H270 H 0.53526 0.59900 0.27644
 C271 C 0.33865 -0.15872 0.31632
 C272 C 0.32416 -0.15285 0.38098
 C273 C 0.30169 -0.17537 0.42493
 C274 C 0.29394 -0.20383 0.40716
 C275 C 0.30816 -0.20932 0.33954
 C276 C 0.33076 -0.18681 0.29468
 C277 C 0.36238 -0.13496 0.26989
 C278 C 0.37693 -0.14071 0.20491
 C279 C 0.39943 -0.11795 0.16077
 C280 C 0.40732 -0.08963 0.18128
 C281 C 0.39243 -0.08440 0.24696
 C282 C 0.36998 -0.10693 0.29130
 C283 C 0.34586 -0.19174 0.22931
 C284 C 0.36858 -0.16909 0.18531
 C285 C 0.33235 -0.12453 0.40053
 C286 C 0.35492 -0.10195 0.35651
 H287 H 0.34011 -0.21329 0.21210
 H288 H 0.37965 -0.17385 0.13542
 H289 H 0.32130 -0.11980 0.45054
 H290 H 0.36061 -0.08040 0.37361
 H291 H 0.28954 -0.17066 0.47080
 H292 H 0.30251 -0.23099 0.32429
 H293 H 0.41070 -0.12233 0.11054
 H294 H 0.39820 -0.06279 0.26358
 C295 C 0.84017 0.50179 0.30825
 C296 C 0.84077 0.52757 0.32363
 C297 C 0.81797 0.52722 0.36752
 C298 C 0.79598 0.50166 0.40190
 C299 C 0.79549 0.47596 0.38555
 C300 C 0.81735 0.47584 0.33707
 C301 C 0.86407 0.50201 0.26192
 C302 C 0.86283 0.47616 0.24257
 C303 C 0.88550 0.47652 0.19769
 C304 C 0.90995 0.50248 0.17709
 C305 C 0.91095 0.52821 0.19757
 C306 C 0.88776 0.52808 0.23829
 C307 C 0.81700 0.45042 0.31727
 C308 C 0.83912 0.45055 0.26949
 C309 C 0.86446 0.55317 0.29671
 C310 C 0.88773 0.55345 0.25583
 H311 H 0.79941 0.43024 0.33843
 H312 H 0.83786 0.43046 0.25470
 H313 H 0.86524 0.57320 0.30877
 H314 H 0.90579 0.57369 0.23740
 H315 H 0.81804 0.54693 0.37947
 H316 H 0.77817 0.45624 0.41066
 H317 H 0.88443 0.45668 0.18055
 H318 H 0.92952 0.54823 0.18026
 C319 C 0.49765 0.33762 0.30426
 C320 C 0.47326 0.31056 0.30687
 C321 C 0.47412 0.28871 0.35284
 C322 C 0.49866 0.29424 0.39928
 C323 C 0.52295 0.32140 0.39596
 C324 C 0.52268 0.34315 0.34753
 C325 C 0.49684 0.36070 0.25616
 C326 C 0.52145 0.38755 0.25158
 C327 C 0.52058 0.40937 0.20559
 C328 C 0.49510 0.40474 0.16724
 C329 C 0.47050 0.37788 0.17324
 C330 C 0.47139 0.35557 0.21650
 C331 C 0.54680 0.37036 0.34197
 C332 C 0.54628 0.39211 0.29409
 C333 C 0.44839 0.30608 0.26489
 C334 C 0.44739 0.32826 0.22114
 H335 H 0.56625 0.37486 0.37476
 H336 H 0.56537 0.41277 0.29119
 H337 H 0.42941 0.28533 0.26682
 H338 H 0.42769 0.32398 0.19053
 H339 H 0.45543 0.26774 0.35585
 H340 H 0.54187 0.32548 0.43135
 H341 H 0.53944 0.43021 0.20174
 H342 H 0.45093 0.37435 0.14332
 C343 C 0.66205 0.15793 0.31348
 C344 C 0.66500 0.18511 0.30852
 C345 C 0.68694 0.20756 0.35491
 C346 C 0.70569 0.20284 0.40580
 C347 C 0.70270 0.17560 0.40910
 C348 C 0.68073 0.15297 0.36365
 C349 C 0.63898 0.13420 0.26514
 C350 C 0.63591 0.10700 0.27066
 C351 C 0.61377 0.08444 0.22527
 C352 C 0.59484 0.08897 0.17423
 C353 C 0.59843 0.11652 0.16902
 C354 C 0.62038 0.13917 0.21464
 C355 C 0.67705 0.12548 0.36736
 C356 C 0.65498 0.10288 0.32179
 C357 C 0.64591 0.18922 0.25746
 C358 C 0.62399 0.16665 0.21129
 H359 H 0.69129 0.12139 0.40604
 H360 H 0.65284 0.08199 0.32665
 H361 H 0.64792 0.21006 0.25317
 H362 H 0.60970 0.17073 0.17280
 H363 H 0.68940 0.22862 0.35212
 H364 H 0.71757 0.17214 0.44668
 H365 H 0.61129 0.06340 0.22981
 H366 H 0.58391 0.12030 0.13064
 C367 C 0.50168 0.16216 -0.30736
 C368 C 0.48477 0.17353 -0.28001
 C369 C 0.48585 0.19635 -0.32603
 C370 C 0.50312 0.20741 -0.40075
 C371 C 0.52078 0.19627 -0.42478
 C372 C 0.51996 0.17356 -0.37892
 C373 C 0.50000 0.13763 -0.26070
 C374 C 0.51698 0.12629 -0.28814
 C375 C 0.51503 0.10276 -0.24428
 C376 C 0.49618 0.09061 -0.17416
 C377 C 0.47939 0.10215 -0.14689
 C378 C 0.48127 0.12583 -0.19003
 C379 C 0.53683 0.16182 -0.40383
 C380 C 0.53541 0.13861 -0.35908
 C381 C 0.46658 0.16141 -0.20834
 C382 C 0.46483 0.13794 -0.16422
 H383 H 0.55109 0.17049 -0.45881
 H384 H 0.54871 0.13013 -0.38057
 H385 H 0.45339 0.16998 -0.18662
 H386 H 0.45039 0.12914 -0.10967
 H387 H 0.47194 0.20434 -0.30649
 H388 H 0.53543 0.20546 -0.47865
 H389 H 0.52796 0.09373 -0.26475
 H390 H 0.46508 0.09280 -0.09223
 C391 C 0.66159 0.50007 -0.30495
 C392 C 0.68997 0.51747 -0.27964
 C393 C 0.71155 0.51589 -0.32510
 C394 C 0.70507 0.49778 -0.39768
 C395 C 0.67623 0.47979 -0.41993
 C396 C 0.65449 0.48095 -0.37417
 C397 C 0.63886 0.50205 -0.25848
 C398 C 0.61043 0.48431 -0.28314
 C399 C 0.58892 0.48624 -0.23872
 C400 C 0.59579 0.50609 -0.17157
 C401 C 0.62428 0.52382 -0.14750
 C402 C 0.64599 0.52172 -0.19054
 C403 C 0.62580 0.46353 -0.39683
 C404 C 0.60412 0.46509 -0.35181
 C405 C 0.69625 0.53660 -0.21062
 C406 C 0.67466 0.53877 -0.16706
 H407 H 0.62005 0.44864 -0.45005
 H408 H 0.58226 0.45128 -0.37134
 H409 H 0.71809 0.55022 -0.19058
 H410 H 0.68046 0.55393 -0.11462
 H411 H 0.73351 0.53003 -0.30709
 H412 H 0.67064 0.46463 -0.47227
 H413 H 0.56684 0.47249 -0.25646
 H414 H 0.62938 0.53884 -0.09494
 C415 C 0.84251 0.33738 -0.31477
 C416 C 0.81457 0.32728 -0.28583
 C417 C 0.79199 0.30495 -0.33065
 C418 C 0.79708 0.29306 -0.40542
 C419 C 0.82553 0.30289 -0.43090
 C420 C 0.84819 0.32524 -0.38679
 C421 C 0.86631 0.36119 -0.26886
 C422 C 0.89425 0.37121 -0.29779
 C423 C 0.91680 0.39381 -0.25396
 C424 C 0.91161 0.40651 -0.18173
 C425 C 0.88335 0.39620 -0.15391
 C426 C 0.86065 0.37350 -0.19712
 C427 C 0.87644 0.33582 -0.41377
 C428 C 0.89908 0.35842 -0.37003
 C429 C 0.80975 0.34008 -0.21355
 C430 C 0.83238 0.36281 -0.17002
 H431 H 0.88108 0.32665 -0.46947
 H432 H 0.92055 0.36597 -0.39307
 H433 H 0.78828 0.33256 -0.19065
 H434 H 0.82771 0.37211 -0.11473
 H435 H 0.77039 0.29789 -0.30980
 H436 H 0.83013 0.29297 -0.48462
 H437 H 0.93837 0.40153 -0.27637
 H438 H 0.87899 0.40570 -0.09845
 C439 C 0.49838 -0.15966 -0.31870
 C440 C 0.47960 -0.17202 -0.38841
 C441 C 0.47840 -0.19537 -0.43097
 C442 C 0.49661 -0.20588 -0.40691
 C443 C 0.51481 -0.19345 -0.33487
 C444 C 0.51581 -0.17038 -0.29089
 C445 C 0.49984 -0.13499 -0.27395
 C446 C 0.51850 -0.12275 -0.20361
 C447 C 0.51969 -0.09938 -0.16101
 C448 C 0.50252 -0.08835 -0.18895
 C449 C 0.48417 -0.10053 -0.25987
 C450 C 0.48258 -0.12408 -0.30244
 C451 C 0.53424 -0.15755 -0.22037
 C452 C 0.53550 -0.13418 -0.17730
 C453 C 0.46248 -0.16067 -0.41460
 C454 C 0.46405 -0.13701 -0.37259
 H455 H 0.54782 -0.16562 -0.19830
 H456 H 0.54996 -0.12494 -0.12314
 H457 H 0.44792 -0.17002 -0.46848
 H458 H 0.45059 -0.12883 -0.39504
 H459 H 0.46289 -0.20560 -0.48201
 H460 H 0.52925 -0.20077 -0.31525
 H461 H 0.53376 -0.08985 -0.10606
 H462 H 0.47121 -0.09167 -0.28151
 C463 C 0.34153 0.50123 -0.32134
 C464 C 0.32665 0.48077 -0.38512
 C465 C 0.30406 0.48094 -0.42793
 C466 C 0.29662 0.50194 -0.41023
 C467 C 0.31131 0.52181 -0.34360
 C468 C 0.33396 0.52169 -0.29963
 C469 C 0.36530 0.50097 -0.27581
 C470 C 0.38010 0.52123 -0.21125
 C471 C 0.40246 0.52061 -0.16740
 C472 C 0.41010 0.49997 -0.18815
 C473 C 0.39506 0.47998 -0.25370
 C474 C 0.37263 0.48032 -0.29742
 C475 C 0.34942 0.54177 -0.23497
 C476 C 0.37209 0.54154 -0.19157
 C477 C 0.33457 0.46043 -0.40496
 C478 C 0.35723 0.46026 -0.36199
 H479 H 0.34394 0.55778 -0.21770
 H480 H 0.38339 0.55737 -0.14206
 H481 H 0.32322 0.44457 -0.45438
 H482 H 0.36269 0.44422 -0.37926
 H483 H 0.29169 0.46404 -0.47331
 H484 H 0.30598 0.53808 -0.32841
 H485 H 0.41380 0.53614 -0.11715
 H486 H 0.40061 0.46397 -0.27036
 C487 C 1.15780 0.66288 -0.31091
 C488 C 1.15597 0.68710 -0.33212
 C489 C 1.17841 0.70940 -0.37749
 C490 C 1.20193 0.70706 -0.40381
 C491 C 1.20344 0.68267 -0.38285
 C492 C 1.18150 0.66055 -0.33542
 C493 C 1.13442 0.63949 -0.26242
 C494 C 1.13654 0.61557 -0.23949
 C495 C 1.11426 0.59342 -0.19318
 C496 C 1.08972 0.59478 -0.17218
 C497 C 1.08782 0.61878 -0.19620
 C498 C 1.11030 0.64140 -0.24047
 C499 C 1.18274 0.63619 -0.31196
 C500 C 1.16071 0.61414 -0.26430
 C501 C 1.13168 0.68839 -0.30805
 C502 C 1.10914 0.66584 -0.26350
 H503 H 1.20093 0.63418 -0.33036
 H504 H 1.16252 0.59574 -0.24730
 H505 H 1.12998 0.70690 -0.32434
 H506 H 1.09068 0.66758 -0.24673
 H507 H 1.17743 0.72831 -0.39389
 H508 H 1.22174 0.68109 -0.40312
 H509 H 1.11562 0.57479 -0.17567
 H510 H 1.06897 0.61990 -0.17976
 C511 C 0.84166 0.50158 -0.31578
 C512 C 0.84749 0.52163 -0.38151
 C513 C 0.82490 0.52170 -0.42473
 C514 C 0.79650 0.50141 -0.40504
 C515 C 0.79108 0.48203 -0.33655
 C516 C 0.81359 0.48185 -0.29238
 C517 C 0.86543 0.50149 -0.26997
 C518 C 0.85968 0.48154 -0.20386
 C519 C 0.88243 0.48165 -0.16029
 C520 C 0.91074 0.50165 -0.18235
 C521 C 0.91600 0.52144 -0.24910
 C522 C 0.89347 0.52147 -0.29299
 C523 C 0.80865 0.46216 -0.22592
 C524 C 0.83131 0.46199 -0.18247
 C525 C 0.87581 0.54132 -0.40266
 C526 C 0.89844 0.54121 -0.35922
 H527 H 0.78709 0.44674 -0.20738
 H528 H 0.82657 0.44646 -0.13161
 H529 H 0.88053 0.55686 -0.45347
 H530 H 0.91999 0.55672 -0.37754
 H531 H 0.82952 0.53842 -0.47093
 H532 H 0.76938 0.46636 -0.31996
 H533 H 0.87805 0.46629 -0.10914
 H534 H 0.93763 0.53694 -0.26690
 C535 C 0.49788 0.33923 -0.31615
 C536 C 0.51682 0.33009 -0.29051
 C537 C 0.51701 0.30777 -0.33564
 C538 C 0.49877 0.29488 -0.40722
 C539 C 0.47935 0.30396 -0.42978
 C540 C 0.47904 0.32625 -0.38538
 C541 C 0.49765 0.36276 -0.26933
 C542 C 0.47853 0.37170 -0.29473
 C543 C 0.47838 0.39406 -0.25019
 C544 C 0.49724 0.40759 -0.18073
 C545 C 0.51631 0.39832 -0.15610
 C546 C 0.51655 0.37586 -0.20014
 C547 C 0.46017 0.33574 -0.40884
 C548 C 0.45994 0.35812 -0.36430
 C549 C 0.53539 0.34367 -0.22083
 C550 C 0.53529 0.36620 -0.17648
 H551 H 0.44555 0.32587 -0.46230
 H552 H 0.44510 0.36486 -0.38452
 H553 H 0.55017 0.33687 -0.20052
 H554 H 0.54998 0.37611 -0.12321
 H555 H 0.53220 0.30128 -0.31720
 H556 H 0.46368 0.29303 -0.47983
 H557 H 0.46365 0.40098 -0.27011
 H558 H 0.53092 0.40852 -0.10279
 C559 C 0.66190 0.15914 -0.31171
 C560 C 0.65918 0.18270 -0.33493
 C561 C 0.68119 0.20507 -0.38146
 C562 C 0.70577 0.20398 -0.40301
 C563 C 0.70852 0.18062 -0.37772
 C564 C 0.68639 0.15784 -0.33321
 C565 C 0.63865 0.13532 -0.26425
 C566 C 0.64101 0.11137 -0.24351
 C567 C 0.61857 0.08852 -0.19993
 C568 C 0.59437 0.08994 -0.17519
 C569 C 0.59256 0.11430 -0.19498
 C570 C 0.61447 0.13690 -0.24088
 C571 C 0.68812 0.13370 -0.31049
 C572 C 0.66571 0.11076 -0.26687
 C573 C 0.63449 0.18334 -0.31137
 C574 C 0.61257 0.16089 -0.26463
 H575 H 0.70685 0.13244 -0.32713
 H576 H 0.66779 0.09243 -0.25106
 H577 H 0.63213 0.20137 -0.32893
 H578 H 0.59391 0.16222 -0.24746
 H579 H 0.67932 0.22324 -0.40102
 H580 H 0.72764 0.18005 -0.39433
 H581 H 0.62003 0.06982 -0.18434
 H582 H 0.57382 0.11534 -0.17649
 C583 C 1.16119 0.49791 -0.30837
 C584 C 1.15576 0.47800 -0.37400
 C585 C 1.17852 0.47950 -0.42085
 C586 C 1.20677 0.50110 -0.40434
 C587 C 1.21186 0.52026 -0.33557
 C588 C 1.18909 0.51899 -0.28831
 C589 C 1.13714 0.49673 -0.26019
 C590 C 1.14243 0.51689 -0.19537
 C591 C 1.11940 0.51597 -0.15092
 C592 C 1.09123 0.49505 -0.17109
 C593 C 1.08646 0.47483 -0.23575
 C594 C 1.10929 0.47563 -0.28061
 C595 C 1.19357 0.53868 -0.22247
 C596 C 1.17064 0.53770 -0.17694
 C597 C 1.12763 0.45707 -0.39216
 C598 C 1.10477 0.45590 -0.34621
 H599 H 1.21496 0.55513 -0.20641
 H600 H 1.17502 0.55341 -0.12713
 H601 H 1.12322 0.44159 -0.44278
 H602 H 1.08337 0.43952 -0.36256
 H603 H 1.17419 0.46352 -0.46974
 H604 H 1.23334 0.53700 -0.32165
 H605 H 1.12343 0.53170 -0.10142
 H606 H 1.06497 0.45865 -0.25213
 C607 C 0.50048 0.66161 -0.30457
 C608 C 0.52475 0.68878 -0.30660
 C609 C 0.52357 0.71076 -0.35055
 C610 C 0.49883 0.70524 -0.39560
 C611 C 0.47458 0.67805 -0.39229
 C612 C 0.47520 0.65615 -0.34599
 C613 C 0.50169 0.63834 -0.25935
 C614 C 0.47722 0.61136 -0.25551
 C615 C 0.47847 0.58937 -0.21189
 C616 C 0.50414 0.59408 -0.17505
 C617 C 0.52859 0.62102 -0.18049
 C618 C 0.52737 0.64345 -0.22149
 C619 C 0.45122 0.62884 -0.34122
 C620 C 0.45213 0.60686 -0.29600
 C621 C 0.54987 0.69321 -0.26651
 C622 C 0.55122 0.67086 -0.22525
 H623 H 0.43158 0.62441 -0.37266
 H624 H 0.43315 0.58611 -0.29354
 H625 H 0.56875 0.71403 -0.26802
 H626 H 0.57109 0.67509 -0.19593
 H627 H 0.54222 0.73175 -0.35372
 H628 H 0.45551 0.67400 -0.42669
 H629 H 0.45974 0.56847 -0.20815
 H630 H 0.54828 0.62458 -0.15134
 C631 C 0.33684 -0.15770 -0.31087
 C632 C 0.31093 -0.15801 -0.31971
 C633 C 0.28828 -0.18088 -0.36221
 C634 C 0.29213 -0.20223 -0.40026
 C635 C 0.31811 -0.20175 -0.39072
 C636 C 0.34047 -0.17971 -0.34468
 C637 C 0.36073 -0.13375 -0.26613
 C638 C 0.38621 -0.13406 -0.25395
 C639 C 0.40865 -0.11147 -0.20990
 C640 C 0.40620 -0.08811 -0.18239
 C641 C 0.38073 -0.08784 -0.19629
 C642 C 0.35765 -0.11096 -0.23659
 C643 C 0.36643 -0.17907 -0.33231
 C644 C 0.38879 -0.15681 -0.28660
 C645 C 0.30845 -0.13514 -0.28762
 C646 C 0.33152 -0.11185 -0.24761
 H647 H 0.36942 -0.19599 -0.35772
 H648 H 0.40836 -0.15724 -0.27767
 H649 H 0.28863 -0.13506 -0.29458
 H650 H 0.32883 -0.09448 -0.22468
 H651 H 0.26817 -0.18139 -0.36995
 H652 H 0.32082 -0.21847 -0.41945
 H653 H 0.42817 -0.11178 -0.19831
 H654 H 0.37873 -0.07000 -0.17383
 C655 C 0.49914 -0.16143 0.30783
 C656 C 0.52145 -0.15693 0.36357
 C657 C 0.51998 -0.18005 0.40835
 C658 C 0.49613 -0.20737 0.39927
 C659 C 0.47430 -0.21174 0.34132
 C660 C 0.47562 -0.18873 0.29574
 C661 C 0.50027 -0.13702 0.26220
 C662 C 0.47790 -0.14144 0.20691
 C663 C 0.47903 -0.11813 0.16398
 C664 C 0.50225 -0.09050 0.17646
 C665 C 0.52444 -0.08651 0.23250
 C666 C 0.52358 -0.10970 0.27537
 C667 C 0.45366 -0.19231 0.23974
 C668 C 0.45479 -0.16907 0.19602
 C669 C 0.54449 -0.12933 0.37473
 C670 C 0.54553 -0.10609 0.33141
 H671 H 0.43538 -0.21322 0.22999
 H672 H 0.43736 -0.17273 0.15369
 H673 H 0.56177 -0.12562 0.41781
 H674 H 0.56363 -0.08512 0.34210
 H675 H 0.53694 -0.17678 0.45233
 H676 H 0.45596 -0.23280 0.33436
 H677 H 0.46171 -0.12151 0.12150
 H678 H 0.54243 -0.06541 0.24256
 C679 C 0.33781 0.49673 0.30615
 C680 C 0.34227 0.52201 0.34505
 C681 C 0.32006 0.52187 0.39174
 C682 C 0.29351 0.49688 0.39789
 C683 C 0.28895 0.47204 0.35555
 C684 C 0.31131 0.47166 0.31124
 C685 C 0.36145 0.49640 0.26024
 C686 C 0.35739 0.47080 0.22489
 C687 C 0.38019 0.47044 0.18340
 C688 C 0.40645 0.49562 0.17495
 C689 C 0.41007 0.52120 0.20909
 C690 C 0.38773 0.52163 0.25327
 C691 C 0.30791 0.44661 0.27359
 C692 C 0.33064 0.44613 0.23174
 C693 C 0.36892 0.54677 0.33725
 C694 C 0.39121 0.54665 0.29139
 H695 H 0.28761 0.42713 0.27747
 H696 H 0.32723 0.42631 0.20438
 H697 H 0.37256 0.56641 0.36675
 H698 H 0.41142 0.56622 0.28658
 H699 H 0.32335 0.54102 0.42396
 H700 H 0.26845 0.45282 0.36083
 H701 H 0.37745 0.45081 0.15634
 H702 H 0.43045 0.54052 0.20305
 C703 C 1.15891 0.66156 0.31380
 C704 C 1.18583 0.66373 0.31156
 C705 C 1.20840 0.68574 0.35748
 C706 C 1.20397 0.70520 0.40540
 C707 C 1.17701 0.70296 0.40588
 C708 C 1.15432 0.68104 0.36079
 C709 C 1.13507 0.63847 0.26605
 C710 C 1.10816 0.63623 0.26889
 C711 C 1.08548 0.61410 0.22400
 C712 C 1.08964 0.59441 0.17598
 C713 C 1.11688 0.59713 0.17344
 C714 C 1.13963 0.61903 0.21876
 C715 C 1.12714 0.67817 0.36195
 C716 C 1.10442 0.65611 0.31687
 C717 C 1.18951 0.64377 0.26382
 C718 C 1.16680 0.62180 0.21820
 H719 H 1.12337 0.69306 0.39823
 H720 H 1.08376 0.65460 0.31962
 H721 H 1.21010 0.64513 0.26172
 H722 H 1.17053 0.60682 0.18228
 H723 H 1.22923 0.68759 0.35696
 H724 H 1.17380 0.71835 0.44137
 H725 H 1.06466 0.61225 0.22637
 H726 H 1.12030 0.58195 0.13744
 C727 C 0.49693 0.15883 0.31287
 C728 C 0.51909 0.18659 0.29659
 C729 C 0.51998 0.20920 0.34292
 C730 C 0.49911 0.20406 0.40559
 C731 C 0.47676 0.17621 0.42017
 C732 C 0.47568 0.15343 0.37430
 C733 C 0.49609 0.13494 0.26511
 C734 C 0.47406 0.10716 0.28178
 C735 C 0.47351 0.08448 0.23684
 C736 C 0.49484 0.08941 0.17572
 C737 C 0.51669 0.11749 0.15956
 C738 C 0.51744 0.14031 0.20420
 C739 C 0.45394 0.12537 0.38907
 C740 C 0.45314 0.10261 0.34355
 C741 C 0.54005 0.19114 0.23502
 C742 C 0.53925 0.16837 0.18961
 H743 H 0.43747 0.12095 0.43641
 H744 H 0.43605 0.08127 0.35704
 H745 H 0.55727 0.21246 0.22207
 H746 H 0.55588 0.17276 0.14291
 H747 H 0.53715 0.23070 0.33183
 H748 H 0.46055 0.17236 0.46795
 H749 H 0.45659 0.06302 0.25000
 H750 H 0.53330 0.12163 0.11300
 C751 C 0.66157 0.50257 0.31713
 C752 C 0.66706 0.48026 0.30181
 C753 C 0.68897 0.47953 0.34764
 C754 C 0.70501 0.50073 0.40884
 C755 C 0.69959 0.52319 0.42249
 C756 C 0.67771 0.52411 0.37716
 C757 C 0.63840 0.50333 0.26970
 C758 C 0.63283 0.52554 0.28538
 C759 C 0.61067 0.52609 0.24052
 C760 C 0.59412 0.50462 0.18026
 C761 C 0.60014 0.48255 0.16513
 C762 C 0.62220 0.48176 0.20991
 C763 C 0.67151 0.54600 0.39107
 C764 C 0.64943 0.54670 0.34593
 C765 C 0.65036 0.45903 0.24160
 C766 C 0.62829 0.45976 0.19642
 H767 H 0.68377 0.56268 0.43738
 H768 H 0.64529 0.56392 0.35864
 H769 H 0.65434 0.44167 0.22944
 H770 H 0.61586 0.44294 0.15069
 H771 H 0.69323 0.46226 0.33729
 H772 H 0.71218 0.53964 0.46915
 H773 H 0.60630 0.54319 0.25283
 H774 H 0.58754 0.46584 0.11924
 C775 C 0.84086 0.33938 0.31142
 C776 C 0.82592 0.34562 0.37388
 C777 C 0.80289 0.32324 0.41694
 C778 C 0.79558 0.29490 0.40027
 C779 C 0.81029 0.28899 0.33595
 C780 C 0.83301 0.31118 0.29129
 C781 C 0.86549 0.36281 0.26727
 C782 C 0.88046 0.35656 0.20484
 C783 C 0.90389 0.37895 0.16309
 C784 C 0.91218 0.40718 0.18386
 C785 C 0.89735 0.41319 0.24721
 C786 C 0.87379 0.39101 0.28902
 C787 C 0.84844 0.30578 0.22832
 C788 C 0.87172 0.32810 0.18559
 C789 C 0.83476 0.37409 0.39350
 C790 C 0.85840 0.39641 0.35210
 H791 H 0.84255 0.28411 0.21225
 H792 H 0.88308 0.32303 0.13752
 H793 H 0.82350 0.37915 0.44193
 H794 H 0.86470 0.41808 0.36965
 H795 H 0.79133 0.32778 0.46577
 H796 H 0.80466 0.26718 0.32307
 H797 H 0.91554 0.37455 0.11418
 H798 H 0.90434 0.43505 0.26415
   
