data_POSCAR
  _audit_creation_date              2014-09-24
  _audit_creation_method            'ToBaCCo'
  _symmetry_space_group_name_H-M    'P1'
  _symmetry_Int_Tables_number       1
  _symmetry_cell_setting            triclinic
  loop_
  _symmetry_equiv_pos_as_xyz
 x,y,z
_cell_length_a 30.9738
_cell_length_b 31.4441
_cell_length_c 30.7151
_cell_angle_alpha 90.589000
_cell_angle_beta 91.019200
_cell_angle_gamma 90.591500
loop_
  _atom_site_label
  _atom_site_type_symbol
  _atom_site_fract_x
  _atom_site_fract_y
  _atom_site_fract_z
C1 C 0.18206 0.19170 0.24436
 N2 N 0.21470 0.16965 0.22597
 C3 C 0.23201 0.18168 0.18762
 N4 N 0.21640 0.21686 0.16763
 C5 C 0.18400 0.23972 0.18547
 N6 N 0.16679 0.22676 0.22373
 C7 C -0.18107 0.79814 0.24698
 N8 N -0.21554 0.81832 0.22911
 C9 C -0.23368 0.80531 0.19063
 N10 N -0.21707 0.77087 0.16995
 C11 C -0.18286 0.74976 0.18740
 N12 N -0.16481 0.76382 0.22576
 C13 C -0.20938 0.21041 -0.26015
 N14 N -0.23989 0.18740 -0.23925
 C15 C -0.25666 0.20118 -0.20113
 N16 N -0.24270 0.23903 -0.18400
 C17 C -0.21253 0.26285 -0.20455
 N18 N -0.19580 0.24814 -0.24243
 C19 C 0.19187 0.80526 -0.25519
 N20 N 0.22982 0.82294 -0.24092
 C21 C 0.25369 0.80470 -0.20873
 N22 N 0.23898 0.76805 -0.19077
 C23 C 0.20114 0.74974 -0.20465
 N24 N 0.17767 0.76868 -0.23678
 C25 C 0.20066 1.18991 0.75218
 N26 N 0.23438 1.17324 0.77494
 C27 C 0.24601 1.18889 0.81492
 N28 N 0.22330 1.22141 0.83233
 C29 C 0.18948 1.23861 0.81015
 N30 N 0.17854 1.22265 0.77011
 C31 C 0.81242 0.82635 0.77171
 N32 N 0.77283 0.83634 0.78702
 C33 C 0.75529 0.81417 0.82031
 N34 N 0.77791 0.78180 0.83850
 C35 C 0.81748 0.77127 0.82345
 N36 N 0.83420 0.79376 0.79014
 C37 C 0.20319 0.79675 1.25819
 N38 N 0.18536 0.75919 1.24451
 C39 C 0.20544 0.73415 1.21499
 N40 N 0.24385 0.74721 1.19869
 C41 C 0.26244 0.78445 1.21242
 N42 N 0.24183 0.80897 1.24200
 C43 C 0.79740 1.19614 1.24149
 N44 N 0.81744 1.23182 1.22736
 C45 C 0.80068 1.25495 1.19414
 N46 N 0.76288 1.24183 1.17472
 C47 C 0.74193 1.20649 1.18896
 N48 N 0.75950 1.18384 1.22217
 O49 O 0.53505 0.96264 0.92233
 O50 O 0.45891 0.95218 1.09282
 O51 O 0.58869 0.98266 1.04959
 O52 O 0.44635 0.93158 0.95975
 O53 O 0.53830 0.95056 1.08411
 O54 O 0.45675 0.97797 0.91294
 O55 O 0.43460 0.92252 1.03389
 O56 O 0.56691 0.94500 0.98186
 C57 C 0.55882 0.93755 0.94290
 C58 C 0.43913 0.92255 1.07389
 C59 C 0.57722 0.95460 1.07554
 C60 C 0.44374 0.94183 0.92160
 O61 O 0.46857 1.05366 0.94772
 O62 O 0.53896 1.03604 1.08572
 O63 O 0.60566 1.01553 0.97099
 O64 O 0.40725 1.00346 1.04410
 O65 O 0.45681 1.03336 1.08790
 O66 O 0.54724 1.04560 0.94494
 O67 O 0.41343 1.01412 0.96543
 O68 O 0.55752 1.05415 1.02118
 Co69 Co 0.50163 1.00768 0.93933
 Co70 Co 0.49865 0.99302 1.08015
 Co71 Co 0.55890 0.99894 1.00087
 Co72 Co 0.43098 0.96984 1.00070
 O73 O 0.49515 0.99055 1.00871
 C74 C 0.42879 1.04883 0.95182
 C75 C 0.55615 1.06221 1.06078
 C76 C 0.58770 1.03996 0.94165
 C77 C 0.41839 1.02990 1.07397
 O78 O 0.05275 0.46888 0.06116
 O79 O 0.04388 0.54276 -0.09095
 O80 O 0.00951 0.41407 -0.05024
 O81 O 0.06711 0.54694 0.04314
 O82 O 0.04438 0.46254 -0.08731
 O83 O 0.02351 0.53644 0.09286
 O84 O 0.07671 0.55528 -0.03076
 O85 O 0.02542 0.41475 0.02790
 C86 C 0.05447 0.43055 0.05183
 C87 C 0.07547 0.55788 -0.07070
 C88 C 0.03888 0.42468 -0.07632
 C89 C 0.05809 0.55249 0.08179
 O90 O -0.05020 0.52354 0.05774
 O91 O -0.03923 0.46257 -0.09254
 O92 O -0.05427 0.44685 0.04330
 O93 O -0.00423 0.58890 -0.04150
 O94 O -0.03833 0.54306 -0.08526
 O95 O -0.01811 0.46426 0.10206
 O96 O -0.01564 0.58016 0.03667
 O97 O -0.06949 0.44840 -0.03252
 Co98 Co 0.00087 0.49491 0.05656
 Co99 Co 0.00296 0.50236 -0.08121
 Co100 Co -0.01976 0.43687 -0.00341
 Co101 Co 0.02890 0.56271 0.00134
 O102 O 0.00498 0.50093 -0.00921
 C103 C -0.04840 0.56310 0.05359
 C104 C -0.07079 0.44844 -0.07264
 C105 C -0.04675 0.43973 0.08318
 C106 C -0.03324 0.58001 -0.06999
 O107 O 1.07748 0.03858 0.46069
 O108 O 0.90965 0.04667 0.54003
 O109 O 0.95071 0.01707 0.40818
 O110 O 1.04161 0.06858 0.55035
 O111 O 0.91674 0.04808 0.45992
 O112 O 1.08823 0.02261 0.53959
 O113 O 0.96812 0.07722 0.56334
 O114 O 1.01783 0.05560 0.42929
 C115 C 1.05654 0.06344 0.43684
 C116 C 0.92834 0.07650 0.55981
 C117 C 0.92395 0.04387 0.42047
 C118 C 1.07950 0.05858 0.55295
 O119 O 1.05444 -0.05318 0.52783
 O120 O 0.91636 -0.03722 0.45903
 O121 O 1.02906 -0.01463 0.38988
 O122 O 0.95896 -0.00350 0.59121
 O123 O 0.91555 -0.03445 0.54195
 O124 O 1.05563 -0.04449 0.44852
 O125 O 1.03697 -0.01412 0.58384
 O126 O 0.98023 -0.05411 0.43879
 Co127 Co 1.06169 -0.00692 0.49452
 Co128 Co 0.92200 0.00586 0.49973
 Co129 Co 0.99972 0.00135 0.43746
 Co130 Co 1.00150 0.03012 0.56660
 O131 O 0.99282 0.00932 0.50204
 C132 C 1.05077 -0.04864 0.56806
 C133 C 0.94107 -0.06261 0.44045
 C134 C 1.05878 -0.03847 0.40780
 C135 C 0.92924 -0.03003 0.58058
 C136 C 1.12182 0.14158 0.35589
 C137 C 1.10556 0.17836 0.33646
 C138 C 1.12628 0.19613 0.30053
 C139 C 1.16324 0.17685 0.28301
 C140 C 1.18001 0.14075 0.30409
 C141 C 1.15949 0.12342 0.34002
 C142 C 1.09779 0.11886 0.38832
 C143 C 1.07847 0.09578 0.41262
 H144 H 1.07615 0.19251 0.34814
 H145 H 1.11232 0.22398 0.28560
 H146 H 1.20850 0.12495 0.29230
 H147 H 1.17224 0.09476 0.35448
 C148 C 0.88144 -0.14654 0.35765
 C149 C 0.89925 -0.18236 0.33764
 C150 C 0.87782 -0.20205 0.30204
 C151 C 0.83864 -0.18556 0.28550
 C152 C 0.82045 -0.15049 0.30726
 C153 C 0.84165 -0.13132 0.34286
 C154 C 0.90517 -0.12181 0.38997
 C155 C 0.92289 -0.09692 0.41472
 H156 H 0.93025 -0.19424 0.34861
 H157 H 0.89290 -0.22904 0.28652
 H158 H 0.79023 -0.13689 0.29627
 H159 H 0.82763 -0.10348 0.35791
 C160 C 0.85531 0.15406 0.63437
 C161 C 0.86833 0.19430 0.64977
 C162 C 0.84574 0.21412 0.68335
 C163 C 0.81017 0.19350 0.70248
 C164 C 0.79629 0.15389 0.68501
 C165 C 0.81872 0.13444 0.65139
 C166 C 0.88169 0.13027 0.60492
 C167 C 0.90337 0.10728 0.58279
 H168 H 0.89680 0.20968 0.63696
 H169 H 0.85739 0.24468 0.69546
 H170 H 0.76888 0.13700 0.69816
 H171 H 0.80846 0.10319 0.63982
 C172 C 1.11428 -0.12781 0.65073
 C173 C 1.15636 -0.11403 0.66098
 C174 C 1.18171 -0.13626 0.69089
 C175 C 1.16541 -0.17283 0.71120
 C176 C 1.12326 -0.18701 0.70014
 C177 C 1.09782 -0.16454 0.67014
 C178 C 1.08839 -0.10294 0.62120
 C179 C 1.06943 -0.07952 0.59671
 H180 H 1.16947 -0.08565 0.64620
 H181 H 1.21396 -0.12441 0.69842
 H182 H 1.10966 -0.21498 0.71519
 H183 H 1.06526 -0.17549 0.66251
 C184 C 0.32763 1.10598 1.12877
 C185 C 0.31108 1.09484 1.16917
 C186 C 0.27989 1.12006 1.18882
 C187 C 0.26453 1.15709 1.16833
 C188 C 0.28187 1.16821 1.12773
 C189 C 0.31310 1.14280 1.10818
 C190 C 0.35947 1.07945 1.10866
 C191 C 0.38623 1.05688 1.09249
 H192 H 0.32216 1.06646 1.18548
 H193 H 0.26771 1.11017 1.22001
 H194 H 0.27116 1.19632 1.11074
 H195 H 0.32577 1.15180 1.07689
 C196 C 0.36290 0.86930 0.84518
 C197 C 0.35067 0.82950 0.86108
 C198 C 0.31552 0.80735 0.84234
 C199 C 0.29167 0.82486 0.80742
 C200 C 0.30561 0.86419 0.79050
 C201 C 0.34076 0.88624 0.80940
 C202 C 0.39454 0.89471 0.86889
 C203 C 0.41863 0.91628 0.89136
 H204 H 0.36737 0.81622 0.88902
 H205 H 0.30632 0.77715 0.85628
 H206 H 0.28859 0.87881 0.76352
 H207 H 0.34970 0.91719 0.79703
 C208 C 0.66710 0.87826 1.13269
 C209 C 0.68393 0.88945 1.17376
 C210 C 0.71610 0.86491 1.19321
 C211 C 0.73223 0.82856 1.17180
 C212 C 0.71431 0.81715 1.13069
 C213 C 0.68208 0.84191 1.11133
 C214 C 0.63513 0.90477 1.11232
 C215 C 0.60863 0.92749 1.09555
 H216 H 0.67252 0.91749 1.19063
 H217 H 0.72862 0.87495 1.22486
 H218 H 0.72555 0.78951 1.11306
 H219 H 0.66919 0.83294 1.07948
 C220 C 0.66070 1.12038 0.86938
 C221 C 0.67501 1.10789 0.82835
 C222 C 0.70146 1.13500 0.80456
 C223 C 0.71424 1.17519 0.82154
 C224 C 0.69864 1.18778 0.86255
 C225 C 0.67218 1.16051 0.88623
 C226 C 0.63494 1.09169 0.89451
 C227 C 0.61348 1.06777 0.91583
 H228 H 0.66617 1.07693 0.81495
 H229 H 0.71239 1.12394 0.77316
 H230 H 0.70741 1.21835 0.87687
 H231 H 0.66112 1.17052 0.91796
 C232 C 0.12991 0.34597 0.11658
 C233 C 0.16316 0.32242 0.09812
 C234 C 0.18145 0.28848 0.12090
 C235 C 0.16649 0.27737 0.16242
 C236 C 0.13367 0.30186 0.18101
 C237 C 0.11557 0.33581 0.15824
 C238 C 0.10754 0.37799 0.09180
 C239 C 0.08548 0.40323 0.07239
 H240 H 0.17429 0.32966 0.06576
 H241 H 0.20665 0.27039 0.10553
 H242 H 0.12140 0.29439 0.21285
 H243 H 0.08958 0.35354 0.17275
 C244 C -0.15481 0.37195 -0.14058
 C245 C -0.14357 0.36141 -0.18325
 C246 C -0.16365 0.32700 -0.20481
 C247 C -0.19520 0.30247 -0.18387
 C248 C -0.20773 0.31458 -0.14168
 C249 C -0.18749 0.34898 -0.12014
 C250 C -0.12873 0.40225 -0.11615
 C251 C -0.10393 0.42505 -0.09592
 H252 H -0.11800 0.37869 -0.19923
 H253 H -0.15332 0.31876 -0.23729
 H254 H -0.23193 0.29650 -0.12459
 H255 H -0.19612 0.35655 -0.08694
 C256 C 0.14865 0.64136 -0.13854
 C257 C 0.18739 0.66014 -0.12362
 C258 C 0.20526 0.69460 -0.14585
 C259 C 0.18436 0.71098 -0.18314
 C260 C 0.14606 0.69106 -0.19846
 C261 C 0.12841 0.65659 -0.17631
 C262 C 0.12709 0.60930 -0.11341
 C263 C 0.10562 0.58439 -0.09317
 H264 H 0.20318 0.64890 -0.09422
 H265 H 0.23477 0.70912 -0.13310
 H266 H 0.12916 0.70264 -0.22706
 H267 H 0.09822 0.64255 -0.18800
 C268 C -0.12553 0.64589 0.11756
 C269 C -0.11104 0.65659 0.15974
 C270 C -0.13020 0.68978 0.18275
 C271 C -0.16424 0.71291 0.16389
 C272 C -0.17934 0.70124 0.12182
 C273 C -0.15997 0.66805 0.09877
 C274 C -0.10231 0.61464 0.09285
 C275 C -0.07966 0.58996 0.07372
 H276 H -0.08418 0.63989 0.17451
 H277 H -0.11781 0.69771 0.21504
 H278 H -0.20546 0.71833 0.10627
 H279 H -0.17122 0.66033 0.06601
 C280 C 1.15312 0.13001 0.63700
 C281 C 1.13425 0.16741 0.65216
 C282 C 1.15099 0.18822 0.68922
 C283 C 1.18694 0.17177 0.71206
 C284 C 1.20710 0.13528 0.69501
 C285 C 1.19007 0.11444 0.65796
 C286 C 1.13093 0.10501 0.60391
 C287 C 1.10917 0.08380 0.57887
 H288 H 1.10541 0.17957 0.63637
 H289 H 1.13465 0.21637 0.70070
 H290 H 1.23498 0.12164 0.71120
 H291 H 1.20473 0.08527 0.64671
 C292 C 0.87172 -0.10117 0.67373
 C293 C 0.89293 -0.13603 0.69161
 C294 C 0.87311 -0.16024 0.72358
 C295 C 0.83154 -0.14993 0.73838
 C296 C 0.81030 -0.11490 0.71968
 C297 C 0.83033 -0.09074 0.68763
 C298 C 0.89255 -0.07616 0.64113
 C299 C 0.90980 -0.05522 0.61366
 H300 H 0.92493 -0.14443 0.68097
 H301 H 0.89074 -0.18686 0.73681
 H302 H 0.77839 -0.10582 0.72993
 H303 H 0.81360 -0.06381 0.67384
 C304 C 1.13211 -0.11885 0.33631
 C305 C 1.11518 -0.15905 0.32560
 C306 C 1.13909 -0.18746 0.30074
 C307 C 1.18046 -0.17598 0.28599
 C308 C 1.19755 -0.13566 0.29804
 C309 C 1.17347 -0.10736 0.32292
 C310 C 1.10679 -0.08946 0.36091
 C311 C 1.08506 -0.06557 0.38187
 H312 H 1.08324 -0.16830 0.33608
 H313 H 1.12466 -0.21809 0.29252
 H314 H 1.22923 -0.12548 0.28767
 H315 H 1.18694 -0.07635 0.33132
 C316 C 0.85960 0.11858 0.33423
 C317 C 0.81921 0.10645 0.31694
 C318 C 0.79800 0.13250 0.28698
 C319 C 0.81709 0.17110 0.27375
 C320 C 0.85745 0.18325 0.29230
 C321 C 0.87845 0.15714 0.32220
 C322 C 0.88203 0.09151 0.36421
 C323 C 0.90121 0.06939 0.38958
 H324 H 0.80428 0.07668 0.32629
 H325 H 0.76702 0.12193 0.27375
 H326 H 0.87334 0.21265 0.28336
 H327 H 0.90965 0.16687 0.33563
 C328 C 0.11391 0.33415 -0.13181
 C329 C 0.10376 0.31935 -0.17385
 C330 C 0.12902 0.28818 -0.19332
 C331 C 0.16499 0.27118 -0.17092
 C332 C 0.17512 0.28686 -0.12868
 C333 C 0.14972 0.31804 -0.10936
 C334 C 0.08746 0.36584 -0.11176
 C335 C 0.06521 0.39253 -0.09533
 H336 H 0.07613 0.33175 -0.19154
 H337 H 0.11998 0.27727 -0.22581
 H338 H 0.20243 0.27487 -0.11022
 H339 H 0.15789 0.32942 -0.07679
 C340 C -0.12610 0.35719 0.14504
 C341 C -0.16594 0.34633 0.12553
 C342 C -0.19102 0.31332 0.14239
 C343 C -0.17629 0.29045 0.17890
 C344 C -0.13668 0.30286 0.19902
 C345 C -0.11186 0.33583 0.18211
 C346 C -0.09829 0.38790 0.12515
 C347 C -0.07455 0.41227 0.10709
 H348 H -0.17714 0.36266 0.09663
 H349 H -0.22126 0.30509 0.12602
 H350 H -0.12410 0.28656 0.22735
 H351 H -0.08100 0.34393 0.19736
 C352 C -0.10859 0.67377 -0.11934
 C353 C -0.14944 0.68299 -0.10318
 C354 C -0.17425 0.71509 -0.12212
 C355 C -0.15839 0.73842 -0.15754
 C356 C -0.11716 0.72848 -0.17343
 C357 C -0.09262 0.69649 -0.15446
 C358 C -0.08281 0.64076 -0.10055
 C359 C -0.06034 0.61312 -0.08605
 H360 H -0.16209 0.66541 -0.07598
 H361 H -0.20569 0.72160 -0.10884
 H362 H -0.10352 0.74539 -0.20057
 H363 H -0.06106 0.68948 -0.16726
 C364 C 0.13576 0.62859 0.15766
 C365 C 0.11934 0.64972 0.19393
 C366 C 0.14296 0.68283 0.21388
 C367 C 0.18330 0.69543 0.19758
 C368 C 0.20041 0.67264 0.16232
 C369 C 0.17667 0.63951 0.14242
 C370 C 0.10875 0.59927 0.13315
 C371 C 0.08562 0.57676 0.11077
 H372 H 0.08757 0.64169 0.20580
 H373 H 0.12887 0.69950 0.24109
 H374 H 0.23134 0.68142 0.14898
 H375 H 0.18953 0.62352 0.11412
 C376 C 0.34504 1.12696 0.88965
 C377 C 0.33786 1.11600 0.84585
 C378 C 0.30635 1.13680 0.82130
 C379 C 0.28144 1.16897 0.84026
 C380 C 0.28962 1.18056 0.88411
 C381 C 0.32117 1.15953 0.90870
 C382 C 0.37524 1.10263 0.91497
 C383 C 0.40007 1.07954 0.93359
 H384 H 0.35609 1.09072 0.83084
 H385 H 0.30108 1.12715 0.78766
 H386 H 0.27102 1.20516 0.89975
 H387 H 0.32635 1.16810 0.94266
 C388 C 0.36896 0.84105 1.14671
 C389 C 0.35700 0.85645 1.18758
 C390 C 0.32385 0.83653 1.21009
 C391 C 0.30209 0.80087 1.19196
 C392 C 0.31608 0.78402 1.15204
 C393 C 0.34919 0.80422 1.12941
 C394 C 0.39691 0.86659 1.12054
 C395 C 0.41770 0.89079 1.09893
 H396 H 0.37188 0.88510 1.20113
 H397 H 0.31411 0.85011 1.24089
 H398 H 0.29996 0.75667 1.13718
 H399 H 0.35794 0.79228 1.09759
 C400 C 0.63299 1.15034 1.12145
 C401 C 0.64131 1.14093 1.16518
 C402 C 0.67559 1.16075 1.18764
 C403 C 0.70212 1.19047 1.16672
 C404 C 0.69214 1.20161 1.12344
 C405 C 0.65790 1.18134 1.10079
 C406 C 0.60301 1.12365 1.09716
 C407 C 0.58010 1.09749 1.07910
 H408 H 0.62250 1.11675 1.18140
 H409 H 0.68220 1.15173 1.22102
 H410 H 0.71208 1.22428 1.10644
 H411 H 0.65206 1.18851 1.06678
 C412 C 0.63859 0.85935 0.87741
 C413 C 0.66213 0.82721 0.89784
 C414 C 0.69909 0.81096 0.87833
 C415 C 0.71325 0.82713 0.83837
 C416 C 0.68819 0.85805 0.81722
 C417 C 0.65120 0.87402 0.83665
 C418 C 0.60620 0.88228 0.90078
 C419 C 0.58228 0.90536 0.92028
 H420 H 0.65308 0.81606 0.92970
 H421 H 0.71758 0.78716 0.89550
 H422 H 0.69793 0.87101 0.78634
 H423 H 0.63359 0.89930 0.82079
   
