data_POSCAR
  _audit_creation_date              2014-09-24
  _audit_creation_method            'ToBaCCo'
  _symmetry_space_group_name_H-M    'P1'
  _symmetry_Int_Tables_number       1
  _symmetry_cell_setting            triclinic
  loop_
  _symmetry_equiv_pos_as_xyz
 x,y,z
_cell_length_a 22.5809
_cell_length_b 22.6012
_cell_length_c 22.4605
_cell_angle_alpha 88.160300
_cell_angle_beta 89.885300
_cell_angle_gamma 88.788500
loop_
  _atom_site_label
  _atom_site_type_symbol
  _atom_site_fract_x
  _atom_site_fract_y
  _atom_site_fract_z
C1 C 0.59751 0.54346 -0.00682
 C2 C 0.58029 0.60283 0.00218
 C3 C 0.52084 0.62062 0.01094
 C4 C 0.47703 0.57607 0.01215
 C5 C 0.49285 0.51623 0.00029
 C6 C 0.55286 0.50011 -0.01029
 C7 C 0.56605 0.44136 -0.02666
 C8 C 0.52280 0.39863 -0.02741
 C9 C 0.46390 0.41250 -0.01315
 C10 C 0.44829 0.47227 -0.00137
 C11 C 0.41804 0.58894 0.02808
 C12 C 0.37489 0.54629 0.02633
 C13 C 0.38811 0.48844 0.00793
 C14 C 0.34303 0.44626 -0.00021
 C15 C 0.36015 0.38676 -0.00861
 C16 C 0.41957 0.36895 -0.01328
 H17 H 0.60953 0.42731 -0.04121
 H18 H 0.53597 0.35488 -0.04123
 H19 H 0.40425 0.63173 0.04382
 H20 H 0.33131 0.55949 0.04149
 H21 H 0.61375 0.63587 0.00217
 H22 H 0.32755 0.35304 -0.01360
 C23 C 0.00063 0.63495 0.42931
 C24 C 0.01157 0.62250 0.36947
 C25 C 0.00378 0.56600 0.34701
 C26 C -0.00707 0.51830 0.38853
 C27 C -0.01906 0.53042 0.44944
 C28 C -0.01751 0.58918 0.46913
 C29 C -0.03399 0.60062 0.52828
 C30 C -0.04768 0.55487 0.56856
 C31 C -0.04402 0.49565 0.55187
 C32 C -0.03084 0.48346 0.49132
 C33 C -0.00059 0.45887 0.37283
 C34 C -0.01174 0.41299 0.41366
 C35 C -0.02853 0.42431 0.47266
 C36 C -0.04047 0.37774 0.51404
 C37 C -0.05380 0.39025 0.57324
 C38 C -0.05465 0.44815 0.59330
 H39 H -0.03728 0.64525 0.54412
 H40 H -0.06112 0.56663 0.61293
 H41 H 0.01611 0.44673 0.32974
 H42 H -0.00543 0.36836 0.39849
 H43 H 0.02539 0.65803 0.33933
 H44 H -0.06337 0.35407 0.60446
 C45 C 0.58160 -0.02950 0.67104
 C46 C 0.64119 -0.03478 0.65335
 C47 C 0.65908 -0.02921 0.59370
 C48 C 0.61440 -0.02260 0.54894
 C49 C 0.55369 -0.01575 0.56578
 C50 C 0.53724 -0.01940 0.62672
 C51 C 0.47683 -0.01111 0.64153
 C52 C 0.43357 -0.00255 0.59814
 C53 C 0.44832 0.00101 0.53753
 C54 C 0.50907 -0.00579 0.52131
 C55 C 0.62737 -0.02788 0.48811
 C56 C 0.58429 -0.01705 0.44492
 C57 C 0.52540 -0.00316 0.46056
 C58 C 0.48224 0.01115 0.41672
 C59 C 0.42269 0.01793 0.43324
 C60 C 0.40425 0.01089 0.49273
 H61 H 0.46118 -0.01007 0.68684
 H62 H 0.38845 0.00166 0.61356
 H63 H 0.67045 -0.04240 0.47281
 H64 H 0.59761 -0.02139 0.39896
 H65 H 0.67494 -0.04401 0.68680
 H66 H 0.39059 0.03098 0.39932
 O67 O 0.52689 -0.00294 -0.05203
 O68 O 0.45729 -0.00561 0.09524
 O69 O 0.48386 0.07891 0.01725
 O70 O 0.50304 -0.08528 0.02635
 O71 O 0.59145 -0.07425 0.06591
 O72 O 0.57184 0.08780 0.05835
 O73 O 0.54557 0.00454 0.13531
 O74 O 0.61526 0.00840 -0.01258
 Cu75 Cu 0.48385 -0.00433 0.01753
 Cu76 Cu 0.58974 0.00773 0.06592
 C77 C 0.58254 0.00200 -0.05761
 C78 C 0.48992 -0.00125 0.14060
 C79 C 0.52472 0.11117 0.03674
 C80 C 0.55125 -0.10745 0.04731
 O81 O -0.08448 0.57885 0.97219
 O82 O 0.06332 0.50798 0.98036
 O83 O -0.00322 0.55031 0.89407
 O84 O -0.01489 0.53993 1.05806
 O85 O -0.05351 0.45132 1.05264
 O86 O -0.04364 0.46263 0.88776
 O87 O 0.02450 0.41958 0.97376
 O88 O -0.12278 0.49006 0.96756
 Cu89 Cu -0.00589 0.55315 0.97652
 Cu90 Cu -0.05288 0.44712 0.96960
 C91 C -0.12910 0.54589 0.96944
 C92 C 0.06916 0.45197 0.97890
 C93 C -0.02133 0.50845 0.86292
 C94 C -0.03577 0.49377 1.08341
 O95 O 0.00634 -0.04494 0.39416
 O96 O 0.01685 0.10307 0.45431
 O97 O 0.09361 0.02616 0.41167
 O98 O -0.06808 0.03283 0.43346
 O99 O -0.05717 -0.00693 0.52403
 O100 O 0.10630 -0.00948 0.50355
 O101 O 0.02807 0.06505 0.54553
 O102 O 0.02036 -0.08332 0.48484
 Cu103 Cu 0.01167 0.03331 0.41426
 Cu104 Cu 0.02586 -0.01276 0.52354
 C105 C 0.01090 -0.08948 0.42968
 C106 C 0.02235 0.10944 0.51001
 C107 C 0.12755 0.00758 0.45352
 C108 C -0.09033 0.01394 0.48221
 C109 C -0.34175 0.52682 0.99066
 C110 C -0.29675 0.56318 0.97859
 C111 C -0.23613 0.53852 0.97726
 C112 C -0.18898 0.57250 0.96932
 H113 H -0.30340 0.60964 0.96719
 H114 H -0.22993 0.49101 0.98375
 H115 H -0.32955 0.48094 0.99964
 H116 H -0.19433 0.62018 0.96449
 C117 C 0.28286 0.46488 0.99541
 C118 C 0.23585 0.42967 0.99476
 C119 C 0.17641 0.45665 0.98829
 C120 C 0.12826 0.42402 0.98387
 H121 H 0.23958 0.38211 1.00024
 H122 H 0.17199 0.50457 0.98714
 H123 H 0.27297 0.51170 0.98998
 H124 H 0.13221 0.37612 0.98442
 C125 C 0.01159 -0.30477 0.45036
 C126 C -0.00023 -0.25592 0.41724
 C127 C 0.01059 -0.19740 0.44072
 C128 C 0.00382 -0.14866 0.40622
 H129 H -0.01926 -0.25880 0.37320
 H130 H 0.02369 -0.19417 0.48692
 H131 H 0.02961 -0.30036 0.49465
 H132 H -0.00833 -0.15216 0.35980
 C133 C -0.03976 0.31566 0.49584
 C134 C -0.01010 0.27320 0.52648
 C135 C -0.00528 0.21371 0.50288
 C136 C 0.02023 0.16893 0.53394
 H137 H 0.01231 0.28292 0.56758
 H138 H -0.02386 0.20622 0.45931
 H139 H -0.06090 0.30542 0.45422
 H140 H 0.03649 0.17535 0.57860
 C141 C 0.56675 -0.03523 -0.26800
 C142 C 0.60221 -0.02034 -0.22335
 C143 C 0.57881 -0.02105 -0.16240
 C144 C 0.60934 -0.00037 -0.11705
 H145 H 0.64566 -0.00238 -0.23150
 H146 H 0.53443 -0.03720 -0.15481
 H147 H 0.52300 -0.04961 -0.25563
 H148 H 0.65430 0.01444 -0.12353
 C149 C 0.49986 0.02283 0.35407
 C150 C 0.46860 0.00503 0.30792
 C151 C 0.49310 0.01177 0.24769
 C152 C 0.46284 -0.00365 0.19998
 H153 H 0.42705 -0.01739 0.31473
 H154 H 0.53760 0.02837 0.24245
 H155 H 0.54168 0.04432 0.34571
 H156 H 0.41771 -0.01861 0.20461
 C157 C 0.50535 -0.31804 0.01503
 C158 C 0.54267 -0.27580 0.03141
 C159 C 0.52502 -0.21223 0.03068
 C160 C 0.56283 -0.17208 0.04980
 H161 H 0.58668 -0.28736 0.04739
 H162 H 0.48203 -0.19824 0.01336
 H163 H 0.46065 -0.30341 0.00419
 H164 H 0.60558 -0.18710 0.06702
 C165 C 0.43137 0.30448 -0.02136
 C166 C 0.47061 0.27248 0.01148
 C167 C 0.47536 0.20720 0.00750
 C168 C 0.51841 0.17646 0.03630
 H169 H 0.49823 0.29439 0.04308
 H170 H 0.44333 0.18425 -0.01869
 H171 H 0.40190 0.28151 -0.05041
 H172 H 0.55106 0.20027 0.06091
 C173 C -0.27874 -0.03161 0.58369
 C174 C -0.24966 -0.00276 0.53980
 C175 C -0.18424 -0.00726 0.53546
 C176 C -0.15542 0.01729 0.48912
 H177 H -0.27311 0.02668 0.50858
 H178 H -0.15956 -0.03158 0.56998
 H179 H -0.25147 -0.05368 0.61781
 H180 H -0.18061 0.04025 0.45407
 C181 C 0.33939 0.01646 0.50696
 C182 C 0.29674 0.00035 0.46952
 C183 C 0.23306 0.00529 0.48485
 C184 C 0.19194 0.00457 0.44200
 H185 H 0.30845 -0.01762 0.42685
 H186 H 0.21989 0.01024 0.53089
 H187 H 0.32564 0.03450 0.54890
 H188 H 0.20602 0.00325 0.39587
 C189 C 0.00846 0.56190 1.28418
 C190 C -0.01998 0.52360 1.25029
 C191 C -0.01472 0.52790 1.18451
 C192 C -0.03999 0.48898 1.14918
 H193 H -0.05009 0.49181 1.26987
 H194 H 0.01052 0.56372 1.16459
 H195 H 0.03184 0.59693 1.26042
 H196 H -0.06395 0.45223 1.16897
 C197 C -0.06836 0.45489 0.65763
 C198 C -0.03374 0.48354 0.69500
 C199 C -0.04398 0.47951 0.76015
 C200 C -0.01476 0.51350 0.79743
 H201 H 0.00392 0.50771 0.67785
 H202 H -0.07545 0.44790 0.77784
 H203 H -0.10384 0.42844 0.67621
 H204 H 0.01484 0.54670 0.77936
   
