data_POSCAR
  _audit_creation_date              2014-09-24
  _audit_creation_method            'ToBaCCo'
  _symmetry_space_group_name_H-M    'P1'
  _symmetry_Int_Tables_number       1
  _symmetry_cell_setting            triclinic
  loop_
  _symmetry_equiv_pos_as_xyz
 x,y,z
_cell_length_a 31.4863
_cell_length_b 31.4872
_cell_length_c 23.4629
_cell_angle_alpha 90.067600
_cell_angle_beta 90.030600
_cell_angle_gamma 89.982100
loop_
  _atom_site_label
  _atom_site_type_symbol
  _atom_site_fract_x
  _atom_site_fract_y
  _atom_site_fract_z
Zr1 Zr -0.07482 0.00204 -0.00336
 O2 O -0.12169 -0.03081 -0.05087
 O3 O -0.11183 0.04026 0.05056
 O4 O -0.11018 -0.04006 0.04809
 O5 O -0.05824 0.07942 -0.10535
 O6 O -0.05939 -0.07832 0.09501
 O7 O -0.10953 0.04324 -0.05646
 O8 O -0.06221 0.07515 0.10408
 O9 O -0.04031 -0.00041 0.07298
 O10 O -0.03858 0.05768 -0.00019
 O11 O -0.03804 -0.05356 -0.00891
 O12 O -0.03826 0.00247 -0.07893
 Zr13 Zr 0.07368 0.00093 -0.00305
 Zr14 Zr -0.00123 -0.05399 0.06545
 Zr15 Zr -0.00010 0.05689 -0.07229
 Zr16 Zr -0.00269 0.05419 0.07381
 O17 O 0.00176 0.05349 -0.16232
 O18 O -0.00427 0.04047 0.16225
 O19 O 0.03727 0.05713 0.00201
 O20 O 0.03649 0.00061 0.07151
 O21 O 0.03801 -0.05515 -0.00643
 O22 O 0.03849 0.00326 -0.07870
 C23 C -0.10066 0.06696 0.08916
 C24 C -0.09717 0.07099 -0.09301
 C25 C -0.09815 -0.06942 0.08265
 O26 O -0.00028 -0.05108 0.15553
 O27 O 0.05643 -0.07990 0.09455
 O28 O 0.10805 -0.04232 0.04833
 C29 C 0.09541 -0.07136 0.08306
 O30 O -0.05449 -0.07275 -0.12218
 Zr31 Zr 0.00145 -0.05124 -0.08039
 O32 O 0.11056 -0.03830 -0.05559
 O33 O -0.00264 -0.12069 0.05439
 O34 O -0.00108 -0.11819 -0.07112
 O35 O 0.00708 -0.04063 -0.16934
 O36 O 0.06076 -0.07624 -0.10490
 C37 C 0.09919 -0.06736 -0.09082
 O38 O 0.12065 0.03268 0.04556
 O39 O -0.00149 0.12370 -0.06234
 O40 O 0.10895 0.04442 -0.05298
 O41 O 0.05798 0.08371 -0.09812
 O42 O -0.00413 0.12136 0.06719
 O43 O 0.05318 0.08122 0.10955
 C44 C 0.09681 0.07451 -0.08650
 H45 H -0.05579 0.08397 0.00013
 H46 H 0.05447 0.00014 0.10613
 H47 H 0.05661 0.00462 -0.11312
 H48 H -0.05622 -0.07911 -0.01185
 H49 H -0.01264 0.06689 0.18231
 H50 H -0.00143 -0.08077 0.16939
 H51 H -0.00216 -0.13347 0.09297
 H52 H 0.00698 -0.13093 -0.10822
 H53 H -0.01169 0.13284 0.10521
 H54 H -0.00247 0.13604 -0.10116
 H55 H 0.00269 0.08313 -0.17639
 H56 H 0.01475 -0.06811 -0.18723
 H57 H 0.04559 0.09814 0.14366
 H58 H 0.14869 0.02263 0.03173
 H59 H -0.14984 -0.02101 -0.03709
 H60 H -0.04704 -0.09515 -0.15009
 Zr61 Zr 0.57362 0.50089 0.49709
 O62 O 0.62047 0.53304 0.54543
 O63 O 0.61058 0.46134 0.44513
 O64 O 0.60790 0.45806 0.54923
 O65 O 0.55825 0.58286 0.40069
 O66 O 0.55621 0.42091 0.59593
 O67 O 0.60905 0.54388 0.44664
 O68 O 0.56086 0.42312 0.39606
 O69 O 0.53796 0.44478 0.49441
 O70 O 0.53856 0.50263 0.42129
 O71 O 0.53630 0.50119 0.57151
 O72 O 0.53724 0.55716 0.50114
 Zr73 Zr 0.42516 0.50202 0.49625
 Zr74 Zr 0.49859 0.44653 0.56616
 Zr75 Zr 0.50001 0.55634 0.42673
 Zr76 Zr 0.50152 0.44812 0.42028
 O77 O 0.49858 0.62321 0.43576
 O78 O 0.49914 0.38125 0.43059
 O79 O 0.46185 0.50186 0.42080
 O80 O 0.46191 0.44637 0.49167
 O81 O 0.45954 0.50020 0.57271
 O82 O 0.46137 0.55771 0.49869
 C83 C 0.59927 0.43214 0.41008
 C84 C 0.59706 0.57368 0.41260
 C85 C 0.59522 0.42935 0.58443
 O86 O 0.49722 0.37975 0.55610
 O87 O 0.44032 0.42247 0.59585
 O88 O 0.38967 0.46038 0.54818
 C89 C 0.40159 0.43129 0.58321
 O90 O 0.55300 0.58220 0.60815
 Zr91 Zr 0.49716 0.55481 0.57285
 O92 O 0.38806 0.54060 0.54960
 O93 O 0.49931 0.45022 0.65619
 O94 O 0.49561 0.54191 0.66151
 O95 O 0.49553 0.62191 0.56524
 O96 O 0.43760 0.57582 0.60285
 C97 C 0.39918 0.56747 0.58799
 O98 O 0.37838 0.46877 0.44906
 O99 O 0.50208 0.55228 0.33676
 O100 O 0.39052 0.54269 0.44234
 O101 O 0.44187 0.57849 0.39305
 O102 O 0.50711 0.45800 0.33118
 O103 O 0.44564 0.42618 0.37876
 C104 C 0.40291 0.57008 0.40533
 H105 H 0.55671 0.50371 0.38689
 H106 H 0.44374 0.42080 0.48904
 H107 H 0.44411 0.58397 0.49859
 H108 H 0.55422 0.50102 0.60620
 H109 H 0.50728 0.36822 0.39371
 H110 H 0.49761 0.36731 0.59489
 H111 H 0.49813 0.42064 0.67050
 H112 H 0.48725 0.56851 0.68114
 H113 H 0.51479 0.43038 0.31369
 H114 H 0.50303 0.58182 0.32230
 H115 H 0.49770 0.63524 0.39676
 H116 H 0.48795 0.63368 0.60309
 H117 H 0.45313 0.40347 0.35131
 H118 H 0.35020 0.47866 0.46261
 H119 H 0.64855 0.52287 0.53189
 H120 H 0.54539 0.59949 0.64191
 Zr121 Zr 0.57480 -0.00228 0.49809
 O122 O 0.62206 0.03042 0.45124
 O123 O 0.61151 -0.04088 0.55204
 O124 O 0.61004 0.03995 0.54991
 O125 O 0.55820 -0.07932 0.39519
 O126 O 0.55917 0.07827 0.59661
 O127 O 0.60950 -0.04341 0.44461
 O128 O 0.56161 -0.07584 0.60481
 O129 O 0.54005 0.00017 0.57420
 O130 O 0.53834 -0.05779 0.50057
 O131 O 0.53811 0.05341 0.49259
 O132 O 0.53837 -0.00242 0.42230
 Zr133 Zr 0.42610 -0.00061 0.49738
 Zr134 Zr 0.50108 0.05388 0.56672
 Zr135 Zr 0.50000 -0.05674 0.42825
 Zr136 Zr 0.50225 -0.05433 0.57437
 O137 O 0.49832 -0.05313 0.33823
 O138 O 0.50380 -0.04075 0.66289
 O139 O 0.46242 -0.05692 0.50231
 O140 O 0.46318 -0.00062 0.57214
 O141 O 0.46201 0.05533 0.49460
 O142 O 0.46153 -0.00298 0.42195
 C143 C 0.60016 -0.06776 0.59027
 C144 C 0.59717 -0.07099 0.40767
 C145 C 0.59796 0.06942 0.58440
 O146 O 0.50000 0.05071 0.65677
 O147 O 0.44344 0.07996 0.59583
 O148 O 0.39178 0.04275 0.54898
 C149 C 0.40443 0.07167 0.58408
 O150 O 0.55489 0.07281 0.37956
 Zr151 Zr 0.49877 0.05140 0.42085
 O152 O 0.38955 0.03894 0.44478
 O153 O 0.50259 0.12060 0.55603
 O154 O 0.50155 0.11833 0.43057
 O155 O 0.49338 0.04087 0.33182
 O156 O 0.43964 0.07675 0.39604
 C157 C 0.40111 0.06803 0.40977
 O158 O 0.37882 -0.03221 0.54542
 O159 O 0.50121 -0.12356 0.43783
 O160 O 0.39088 -0.04407 0.44693
 O161 O 0.44188 -0.08343 0.40191
 O162 O 0.50326 -0.12147 0.56709
 O163 O 0.44624 -0.08116 0.60981
 C164 C 0.40301 -0.07419 0.41333
 H165 H 0.55548 -0.08414 0.50075
 H166 H 0.44512 -0.00015 0.60666
 H167 H 0.44350 -0.00422 0.38741
 H168 H 0.55633 0.07893 0.48987
 H169 H 0.51201 -0.06723 0.68284
 H170 H 0.50120 0.08036 0.67088
 H171 H 0.50203 0.13334 0.59467
 H172 H 0.49367 0.13117 0.39350
 H173 H 0.51072 -0.13316 0.60501
 H174 H 0.50231 -0.13584 0.39894
 H175 H 0.49733 -0.08274 0.32396
 H176 H 0.48584 0.06838 0.31400
 H177 H 0.45374 -0.09821 0.64379
 H178 H 0.35089 -0.02200 0.53141
 H179 H 0.65009 0.02046 0.46526
 H180 H 0.54758 0.09522 0.35165
 Zr181 Zr -0.07419 0.49938 -0.00759
 O182 O -0.12164 0.46780 0.04022
 O183 O -0.11069 0.53946 -0.05967
 O184 O -0.10832 0.54246 0.04469
 O185 O -0.05870 0.41649 -0.10307
 O186 O -0.05648 0.57945 0.09150
 O187 O -0.10953 0.45590 -0.05789
 O188 O -0.06056 0.57734 -0.10807
 O189 O -0.03812 0.55521 -0.01016
 O190 O -0.03889 0.49706 -0.08314
 O191 O -0.03701 0.49906 0.06708
 O192 O -0.03798 0.44298 -0.00299
 Zr193 Zr 0.07455 0.49728 -0.00715
 Zr194 Zr 0.00105 0.55348 0.06186
 Zr195 Zr -0.00046 0.44320 -0.07712
 Zr196 Zr -0.00149 0.55134 -0.08403
 O197 O 0.00065 0.37633 -0.06807
 O198 O 0.00188 0.61824 -0.07426
 O199 O 0.03803 0.49743 -0.08290
 O200 O 0.03797 0.55307 -0.01237
 O201 O 0.03985 0.49964 0.06902
 O202 O 0.03792 0.44187 -0.00483
 C203 C -0.09914 0.56888 -0.09423
 C204 C -0.09757 0.42563 -0.09140
 C205 C -0.09553 0.57117 0.08001
 O206 O 0.00261 0.62020 0.05130
 O207 O 0.05925 0.57764 0.09177
 O208 O 0.10998 0.53930 0.04481
 C209 C 0.09801 0.56869 0.07952
 O210 O -0.05421 0.41841 0.10418
 Zr211 Zr 0.00189 0.44526 0.06901
 O212 O 0.11116 0.45857 0.04681
 O213 O 0.00019 0.55014 0.15190
 O214 O 0.00334 0.45857 0.15761
 O215 O 0.00287 0.37813 0.06143
 O216 O 0.06117 0.42369 0.09952
 C217 C 0.09974 0.43174 0.08507
 O218 O 0.12181 0.52989 -0.05408
 O219 O -0.00226 0.44715 -0.16709
 O220 O 0.10913 0.45596 -0.06056
 O221 O 0.05775 0.42038 -0.11015
 O222 O -0.00742 0.54104 -0.17306
 O223 O 0.05463 0.57245 -0.12559
 C224 C 0.09680 0.42839 -0.09755
 H225 H -0.05706 0.49595 -0.11756
 H226 H 0.05628 0.57854 -0.01500
 H227 H 0.05499 0.41548 -0.00469
 H228 H -0.05501 0.49945 0.10166
 H229 H -0.00599 0.63117 -0.11128
 H230 H 0.00216 0.63288 0.08999
 H231 H 0.00146 0.57976 0.16612
 H232 H 0.01144 0.43200 0.17744
 H233 H -0.01494 0.56863 -0.19067
 H234 H -0.00336 0.41759 -0.18154
 H235 H 0.00164 0.36420 -0.10705
 H236 H 0.01029 0.36635 0.09930
 H237 H 0.04734 0.59474 -0.15368
 H238 H 0.14983 0.51987 -0.04012
 H239 H -0.14953 0.47817 0.02628
 H240 H -0.04677 0.40120 0.13805
 Zr241 Zr 0.07505 0.50199 0.50329
 O242 O 0.12207 0.46900 0.55030
 O243 O 0.11195 0.54040 0.44956
 O244 O 0.11034 0.46006 0.45140
 O245 O 0.05852 0.57881 0.60630
 O246 O 0.05951 0.42204 0.40415
 O247 O 0.10979 0.54291 0.55684
 O248 O 0.06223 0.57546 0.39651
 O249 O 0.04044 0.49986 0.42702
 O250 O 0.03878 0.55764 0.50082
 O251 O 0.03833 0.44636 0.50831
 O252 O 0.03859 0.50205 0.57894
 Zr253 Zr -0.07340 0.50076 0.50326
 Zr254 Zr 0.00142 0.44624 0.43403
 Zr255 Zr 0.00038 0.55648 0.57299
 Zr256 Zr 0.00278 0.55446 0.42688
 O257 O -0.00144 0.55275 0.66299
 O258 O 0.00414 0.54119 0.33827
 O259 O -0.03709 0.55702 0.49879
 O260 O -0.03633 0.50084 0.42863
 O261 O -0.03771 0.44468 0.50599
 O262 O -0.03813 0.50280 0.57887
 C263 C 0.10071 0.56718 0.41117
 C264 C 0.09745 0.57042 0.59382
 C265 C 0.09826 0.43085 0.41660
 O266 O 0.00041 0.44956 0.34399
 O267 O -0.05622 0.42045 0.40470
 O268 O -0.10781 0.45775 0.45154
 C269 C -0.09518 0.42890 0.41641
 O270 O 0.05495 0.42653 0.62123
 Zr271 Zr -0.00106 0.44831 0.57991
 O272 O -0.11020 0.46137 0.55553
 O273 O 0.00289 0.37948 0.44432
 O274 O 0.00142 0.38140 0.56984
 O275 O -0.00644 0.45858 0.66899
 O276 O -0.06033 0.42331 0.60447
 C277 C -0.09879 0.43227 0.59059
 O278 O -0.12043 0.53272 0.45507
 O279 O 0.00171 0.62333 0.56378
 O280 O -0.10869 0.54389 0.55370
 O281 O -0.05776 0.58308 0.59916
 O282 O 0.00428 0.62159 0.43430
 O283 O -0.05318 0.58169 0.39170
 C284 C -0.09658 0.57382 0.58750
 H285 H 0.05600 0.58392 0.50075
 H286 H -0.05436 0.50052 0.39405
 H287 H -0.05620 0.50400 0.61336
 H288 H 0.05652 0.42079 0.51094
 H289 H 0.01241 0.56772 0.31848
 H290 H 0.00155 0.41994 0.32979
 H291 H 0.00236 0.36689 0.40559
 H292 H -0.00662 0.36850 0.60681
 H293 H 0.01177 0.63325 0.39639
 H294 H 0.00267 0.63549 0.60274
 H295 H -0.00243 0.58234 0.67736
 H296 H -0.01409 0.43104 0.68664
 H297 H -0.04567 0.59884 0.35783
 H298 H -0.14846 0.52260 0.46879
 H299 H 0.15018 0.47886 0.53651
 H300 H 0.04753 0.40400 0.64891
 Zr301 Zr 0.42671 0.00055 0.00318
 O302 O 0.37976 0.03250 -0.04518
 O303 O 0.38983 -0.03909 0.05505
 O304 O 0.39254 -0.04238 -0.04888
 O305 O 0.44189 0.08280 0.09936
 O306 O 0.44431 -0.07948 -0.09565
 O307 O 0.39118 0.04360 0.05347
 O308 O 0.43963 -0.07718 0.10406
 O309 O 0.46251 -0.05547 0.00587
 O310 O 0.46170 0.00250 0.07902
 O311 O 0.46403 0.00083 -0.07125
 O312 O 0.46295 0.05687 -0.00091
 Zr313 Zr 0.57515 0.00202 0.00398
 Zr314 Zr 0.50187 -0.05374 -0.06587
 Zr315 Zr 0.50015 0.05624 0.07353
 Zr316 Zr 0.49889 -0.05192 0.08003
 O317 O 0.50147 0.12311 0.06467
 O318 O 0.50160 -0.11881 0.06980
 O319 O 0.53846 0.00187 0.07945
 O320 O 0.53850 -0.05367 0.00866
 O321 O 0.54084 -0.00002 -0.07253
 O322 O 0.53876 0.05760 0.00158
 C323 C 0.40120 -0.06830 0.08999
 C324 C 0.40313 0.07355 0.08738
 C325 C 0.40530 -0.07111 -0.08407
 O326 O 0.50323 -0.12051 -0.05585
 O327 O 0.56014 -0.07804 -0.09514
 O328 O 0.61071 -0.03985 -0.04765
 C329 C 0.59882 -0.06922 -0.08235
 O330 O 0.44716 0.08153 -0.10829
 Zr331 Zr 0.50305 0.05452 -0.07261
 O332 O 0.61215 0.04086 -0.04916
 O333 O 0.50131 -0.05021 -0.15590
 O334 O 0.50504 0.04136 -0.16123
 O335 O 0.50406 0.12164 -0.06493
 O336 O 0.56252 0.07610 -0.10216
 C337 C 0.60097 0.06795 -0.08722
 O338 O 0.62212 -0.03097 0.05111
 O339 O 0.49801 0.05228 0.16350
 O340 O 0.60964 0.04278 0.05791
 O341 O 0.55819 0.07854 0.10723
 O342 O 0.49314 -0.04184 0.16911
 O343 O 0.55482 -0.07360 0.12164
 C344 C 0.59716 0.07020 0.09490
 H345 H 0.44350 0.00360 0.11338
 H346 H 0.55671 -0.07921 0.01137
 H347 H 0.55589 0.08394 0.00179
 H348 H 0.44612 0.00054 -0.10594
 H349 H 0.49352 -0.13179 0.10670
 H350 H 0.50285 -0.13303 -0.09463
 H351 H 0.50251 -0.07981 -0.17019
 H352 H 0.51334 0.06794 -0.18086
 H353 H 0.48550 -0.06943 0.18660
 H354 H 0.49696 0.08183 0.17798
 H355 H 0.50232 0.13517 0.10369
 H356 H 0.51161 0.13344 -0.10273
 H357 H 0.54738 -0.09618 0.14924
 H358 H 0.65025 -0.02100 0.03755
 H359 H 0.35171 0.02232 -0.03164
 H360 H 0.45477 0.09863 -0.14217
 Zr361 Zr 0.42512 0.49829 0.00398
 O362 O 0.37852 0.53140 0.05161
 O363 O 0.38782 0.46035 -0.04987
 O364 O 0.38987 0.54045 -0.04751
 O365 O 0.44145 0.42073 0.10583
 O366 O 0.44071 0.57842 -0.09462
 O367 O 0.39027 0.45720 0.05699
 O368 O 0.43718 0.42517 -0.10345
 O369 O 0.45954 0.50057 -0.07240
 O370 O 0.46113 0.44249 0.00080
 O371 O 0.46208 0.55375 0.00934
 O372 O 0.46172 0.49773 0.07953
 Zr373 Zr 0.57354 0.49881 0.00349
 Zr374 Zr 0.49884 0.55399 -0.06504
 Zr375 Zr 0.49969 0.44315 0.07289
 Zr376 Zr 0.49691 0.44579 -0.07325
 O377 O 0.50153 0.44658 0.16292
 O378 O 0.49528 0.45947 -0.16169
 O379 O 0.53695 0.44274 -0.00145
 O380 O 0.53631 0.49920 -0.07106
 O381 O 0.53809 0.55504 0.00685
 O382 O 0.53843 0.49666 0.07918
 C383 C 0.39879 0.43360 -0.08849
 C384 C 0.40252 0.42933 0.09347
 C385 C 0.40196 0.56968 -0.08218
 O386 O 0.49975 0.55103 -0.15512
 O387 O 0.55663 0.57968 -0.09411
 O388 O 0.60810 0.54183 -0.04789
 C389 C 0.59560 0.57096 -0.08261
 O390 O 0.44571 0.57296 0.12261
 Zr391 Zr 0.50158 0.55130 0.08084
 O392 O 0.61059 0.53804 0.05583
 O393 O 0.49761 0.62070 -0.05408
 O394 O 0.49915 0.61827 0.07159
 O395 O 0.50737 0.54079 0.16980
 O396 O 0.56096 0.57618 0.10514
 C397 C 0.59934 0.56719 0.09098
 O398 O 0.62026 0.46670 -0.04508
 O399 O 0.49823 0.37634 0.06299
 O400 O 0.60878 0.45545 0.05362
 O401 O 0.55780 0.41630 0.09885
 O402 O 0.49515 0.37864 -0.06664
 O403 O 0.55261 0.41844 -0.10897
 C404 C 0.59664 0.42548 0.08725
 H405 H 0.44382 0.41627 0.00047
 H406 H 0.55427 0.49958 -0.10567
 H407 H 0.55657 0.49532 0.11360
 H408 H 0.44399 0.57938 0.01225
 H409 H 0.48674 0.43310 -0.18171
 H410 H 0.49868 0.58072 -0.16899
 H411 H 0.49811 0.63343 -0.09269
 H412 H 0.50727 0.63098 0.10869
 H413 H 0.48745 0.36721 -0.10465
 H414 H 0.49725 0.36403 0.10182
 H415 H 0.50241 0.41693 0.17700
 H416 H 0.51509 0.56828 0.18761
 H417 H 0.54491 0.40159 -0.14310
 H418 H 0.64838 0.47664 -0.03138
 H419 H 0.35030 0.52178 0.03787
 H420 H 0.45323 0.59531 0.15058
 Zr421 Zr 0.07363 -0.00067 0.50362
 O422 O 0.12064 -0.03251 0.45521
 O423 O 0.11045 0.03883 0.55590
 O424 O 0.10786 0.04242 0.45188
 O425 O 0.05828 -0.08319 0.59912
 O426 O 0.05611 0.07969 0.40540
 O427 O 0.10906 -0.04388 0.55373
 O428 O 0.06060 0.07676 0.60509
 O429 O 0.03784 0.05534 0.50674
 O430 O 0.03854 -0.00287 0.57934
 O431 O 0.03637 -0.00074 0.42911
 O432 O 0.03735 -0.05697 0.49900
 Zr433 Zr -0.07486 -0.00215 0.50411
 Zr434 Zr -0.00145 0.05381 0.43489
 Zr435 Zr 0.00005 -0.05660 0.57332
 Zr436 Zr 0.00135 0.05155 0.58075
 O437 O -0.00120 -0.12344 0.56381
 O438 O -0.00139 0.11847 0.57115
 O439 O -0.03823 -0.00223 0.57966
 O440 O -0.03819 0.05352 0.50928
 O441 O -0.04043 0.00013 0.42774
 O442 O -0.03850 -0.05773 0.50125
 C443 C 0.09904 0.06796 0.59101
 C444 C 0.09706 -0.07391 0.58736
 C445 C 0.09513 0.07127 0.41687
 O446 O -0.00290 0.12055 0.44557
 O447 O -0.05966 0.07802 0.40543
 O448 O -0.11032 0.03983 0.45257
 C449 C -0.09836 0.06915 0.41796
 O450 O 0.05323 -0.08146 0.39165
 Zr451 Zr -0.00268 -0.05440 0.42721
 O452 O -0.11182 -0.04063 0.45037
 O453 O -0.00075 0.05058 0.34483
 O454 O -0.00441 -0.04101 0.33869
 O455 O -0.00393 -0.12154 0.43427
 O456 O -0.06216 -0.07561 0.39707
 C457 C -0.10061 -0.06744 0.41193
 O458 O -0.12182 0.03072 0.55142
 O459 O 0.00209 -0.05290 0.66332
 O460 O -0.10944 -0.04321 0.55755
 O461 O -0.05802 -0.07912 0.60665
 O462 O 0.00711 0.04120 0.66976
 O463 O -0.05460 0.07310 0.62241
 C464 C -0.09700 -0.07078 0.59433
 H465 H 0.05670 -0.00406 0.61375
 H466 H -0.05641 0.07906 0.51213
 H467 H -0.05566 -0.08405 0.50112
 H468 H 0.05430 -0.00036 0.39447
 H469 H 0.00667 0.13133 0.60817
 H470 H -0.00252 0.13320 0.40691
 H471 H -0.00196 0.08022 0.33078
 H472 H -0.01269 -0.06752 0.31879
 H473 H 0.01472 0.06875 0.68750
 H474 H 0.00314 -0.08250 0.67756
 H475 H -0.00206 -0.13564 0.60271
 H476 H -0.01148 -0.13319 0.39633
 H477 H -0.04717 0.09553 0.65030
 H478 H -0.14995 0.02082 0.53767
 H479 H 0.14867 -0.02234 0.46893
 H480 H 0.04566 -0.09848 0.35762
 Zr481 Zr 0.75196 0.17511 0.25444
 O482 O 0.71899 0.12832 0.30178
 O483 O 0.79039 0.13798 0.20092
 O484 O 0.71006 0.13959 0.20287
 O485 O 0.82890 0.19195 0.35708
 O486 O 0.67185 0.19019 0.15558
 O487 O 0.79287 0.14054 0.30801
 O488 O 0.82536 0.18748 0.14749
 O489 O 0.74969 0.20939 0.17799
 O490 O 0.80759 0.21136 0.25158
 O491 O 0.69631 0.21182 0.25948
 O492 O 0.75214 0.21184 0.32992
 Zr493 Zr 0.75063 0.32354 0.25366
 Zr494 Zr 0.69604 0.24843 0.18502
 Zr495 Zr 0.80654 0.25002 0.32356
 Zr496 Zr 0.80426 0.24705 0.17746
 O497 O 0.80296 0.25227 0.41356
 O498 O 0.79083 0.24521 0.08892
 O499 O 0.80691 0.28719 0.24917
 O500 O 0.75062 0.28617 0.17921
 O501 O 0.69459 0.28784 0.25679
 O502 O 0.75285 0.28857 0.32944
 C503 C 0.81717 0.14907 0.16246
 C504 C 0.82044 0.15298 0.34482
 C505 C 0.68075 0.15151 0.16817
 O506 O 0.69923 0.24906 0.09496
 O507 O 0.67013 0.30591 0.15546
 O508 O 0.70744 0.35771 0.20190
 C509 C 0.67854 0.34493 0.16693
 O510 O 0.67674 0.19562 0.37255
 Zr511 Zr 0.69839 0.25147 0.33088
 O512 O 0.71132 0.36050 0.30595
 O513 O 0.62931 0.24701 0.19557
 O514 O 0.63146 0.24896 0.32113
 O515 O 0.70880 0.25722 0.41990
 O516 O 0.67340 0.31080 0.35526
 C517 C 0.68229 0.34919 0.34117
 O518 O 0.78241 0.37042 0.20511
 O519 O 0.87337 0.24859 0.31413
 O520 O 0.79392 0.35901 0.30367
 O521 O 0.83321 0.30825 0.34925
 O522 O 0.87140 0.24570 0.18461
 O523 O 0.83133 0.30286 0.14181
 C524 C 0.82395 0.34703 0.33739
 H525 H 0.83388 0.19414 0.25154
 H526 H 0.75022 0.30405 0.14454
 H527 H 0.75410 0.30677 0.36383
 H528 H 0.67076 0.19364 0.26231
 H529 H 0.81733 0.23684 0.06909
 H530 H 0.66958 0.24780 0.08087
 H531 H 0.61664 0.24732 0.15689
 H532 H 0.61863 0.25711 0.35813
 H533 H 0.88301 0.23805 0.14669
 H534 H 0.88559 0.24776 0.35305
 H535 H 0.83258 0.25324 0.42780
 H536 H 0.68128 0.26489 0.43762
 H537 H 0.84837 0.29521 0.10786
 H538 H 0.77226 0.39849 0.21877
 H539 H 0.72883 0.10014 0.28815
 H540 H 0.65426 0.20312 0.40029
 Zr541 Zr 0.74872 0.82436 0.75503
 O542 O 0.78182 0.87142 0.80193
 O543 O 0.70974 0.86119 0.70169
 O544 O 0.79036 0.85976 0.70294
 O545 O 0.67239 0.80776 0.85844
 O546 O 0.82837 0.80902 0.65552
 O547 O 0.70793 0.85904 0.80870
 O548 O 0.67436 0.81141 0.64906
 O549 O 0.75055 0.78980 0.67870
 O550 O 0.69318 0.78794 0.75299
 O551 O 0.80445 0.78769 0.75977
 O552 O 0.74918 0.78785 0.83068
 Zr553 Zr 0.75032 0.67581 0.75498
 Zr554 Zr 0.80430 0.75086 0.68541
 Zr555 Zr 0.69480 0.74956 0.82514
 Zr556 Zr 0.69605 0.75201 0.67896
 O557 O 0.69919 0.74772 0.91508
 O558 O 0.70895 0.75364 0.59030
 O559 O 0.69400 0.71212 0.75087
 O560 O 0.74976 0.71297 0.68039
 O561 O 0.80630 0.71166 0.75727
 O562 O 0.74856 0.71100 0.83068
 C563 C 0.68258 0.84992 0.66369
 C564 C 0.68055 0.84671 0.84574
 C565 C 0.81953 0.84777 0.66803
 O566 O 0.80053 0.74990 0.59539
 O567 O 0.83005 0.69330 0.65579
 O568 O 0.79312 0.64158 0.70274
 C569 C 0.82175 0.65431 0.66745
 O570 O 0.82462 0.80419 0.87286
 Zr571 Zr 0.80299 0.74819 0.83132
 O572 O 0.79036 0.63902 0.80671
 O573 O 0.87110 0.75239 0.69530
 O574 O 0.86984 0.75118 0.82091
 O575 O 0.79317 0.74237 0.92041
 O576 O 0.82875 0.68895 0.85511
 C577 C 0.81992 0.65044 0.84120
 O578 O 0.71834 0.62863 0.70699
 O579 O 0.62788 0.75085 0.81665
 O580 O 0.70715 0.64052 0.80538
 O581 O 0.66813 0.69143 0.85111
 O582 O 0.62895 0.75306 0.68696
 O583 O 0.66893 0.69602 0.64365
 C584 C 0.67719 0.65261 0.83916
 H585 H 0.66682 0.80506 0.75312
 H586 H 0.74996 0.69497 0.64577
 H587 H 0.74757 0.69283 0.86506
 H588 H 0.82997 0.80593 0.76227
 H589 H 0.68231 0.76188 0.57069
 H590 H 0.83008 0.75113 0.58099
 H591 H 0.88353 0.75187 0.65649
 H592 H 0.88297 0.74319 0.85778
 H593 H 0.61700 0.76053 0.64919
 H594 H 0.61597 0.75187 0.85573
 H595 H 0.66970 0.74670 0.92973
 H596 H 0.82082 0.73472 0.93780
 H597 H 0.65165 0.70354 0.60986
 H598 H 0.72863 0.60065 0.72067
 H599 H 0.77184 0.89951 0.78823
 H600 H 0.84715 0.79680 0.90059
 Zr601 Zr 0.25066 0.32595 0.74653
 O602 O 0.21784 0.37275 0.69895
 O603 O 0.28895 0.36312 0.80028
 O604 O 0.20804 0.36130 0.79774
 O605 O 0.32822 0.30914 0.64448
 O606 O 0.16990 0.31049 0.84464
 O607 O 0.29185 0.36053 0.69317
 O608 O 0.32409 0.31365 0.85365
 O609 O 0.24832 0.29162 0.82296
 O610 O 0.30638 0.28975 0.74965
 O611 O 0.19521 0.28895 0.74107
 O612 O 0.25123 0.28911 0.67107
 Zr613 Zr 0.25005 0.17735 0.74719
 Zr614 Zr 0.19485 0.25236 0.81555
 Zr615 Zr 0.30577 0.25103 0.67766
 Zr616 Zr 0.30303 0.25407 0.82375
 O617 O 0.30232 0.24904 0.58763
 O618 O 0.28930 0.25604 0.91218
 O619 O 0.30614 0.21389 0.75207
 O620 O 0.24958 0.21479 0.82162
 O621 O 0.19384 0.21288 0.74379
 O622 O 0.25224 0.21232 0.67143
 C623 C 0.31587 0.35204 0.83864
 C624 C 0.31969 0.34811 0.65667
 C625 C 0.17853 0.34928 0.83213
 O626 O 0.19782 0.25200 0.90563
 O627 O 0.16936 0.19466 0.84515
 O628 O 0.20706 0.14301 0.79895
 C629 C 0.17808 0.15566 0.83385
 O630 O 0.17598 0.30502 0.62780
 Zr631 Zr 0.19765 0.24925 0.66972
 O632 O 0.21085 0.14024 0.69489
 O633 O 0.12814 0.25321 0.80446
 O634 O 0.13068 0.25162 0.67903
 O635 O 0.20828 0.24345 0.58077
 O636 O 0.17285 0.18981 0.64536
 C637 C 0.18180 0.15144 0.65958
 O638 O 0.28206 0.13063 0.79581
 O639 O 0.37257 0.25250 0.68760
 O640 O 0.29352 0.14197 0.69714
 O641 O 0.33268 0.19285 0.65174
 O642 O 0.37020 0.25548 0.81703
 O643 O 0.33012 0.19837 0.85977
 C644 C 0.32355 0.15400 0.66343
 H645 H 0.33265 0.30698 0.74987
 H646 H 0.24921 0.19693 0.85632
 H647 H 0.25362 0.19412 0.63705
 H648 H 0.16958 0.30702 0.73802
 H649 H 0.31570 0.26450 0.93219
 H650 H 0.16812 0.25294 0.91953
 H651 H 0.11534 0.25278 0.84305
 H652 H 0.11798 0.24342 0.64196
 H653 H 0.38171 0.26309 0.85502
 H654 H 0.38491 0.25339 0.64877
 H655 H 0.33196 0.24807 0.57352
 H656 H 0.18083 0.23565 0.56293
 H657 H 0.34698 0.20610 0.89387
 H658 H 0.27209 0.10252 0.78214
 H659 H 0.22760 0.40091 0.71276
 H660 H 0.15356 0.29745 0.59997
 Zr661 Zr 0.24795 0.67459 0.24490
 O662 O 0.28085 0.62759 0.19765
 O663 O 0.20947 0.63769 0.29856
 O664 O 0.28992 0.63916 0.29660
 O665 O 0.17103 0.69141 0.14203
 O666 O 0.32808 0.68984 0.34397
 O667 O 0.20689 0.63998 0.19115
 O668 O 0.17456 0.68741 0.35187
 O669 O 0.25024 0.70910 0.32131
 O670 O 0.19239 0.71098 0.24764
 O671 O 0.30365 0.71128 0.24001
 O672 O 0.24795 0.71122 0.16943
 Zr673 Zr 0.24954 0.82315 0.24570
 Zr674 Zr 0.30395 0.74808 0.31447
 Zr675 Zr 0.19358 0.74951 0.17564
 Zr676 Zr 0.19571 0.74685 0.32174
 O677 O 0.19733 0.75156 0.08565
 O678 O 0.20903 0.74525 0.41032
 O679 O 0.19322 0.78686 0.25002
 O680 O 0.24939 0.78589 0.32013
 O681 O 0.30555 0.78735 0.24268
 O682 O 0.24733 0.78800 0.16992
 C683 C 0.18272 0.64894 0.33704
 C684 C 0.17935 0.65239 0.15423
 C685 C 0.31919 0.65113 0.33140
 O686 O 0.30065 0.74879 0.40452
 O687 O 0.32984 0.80565 0.34428
 O688 O 0.29263 0.85741 0.29774
 C689 C 0.32145 0.84471 0.33289
 O690 O 0.32340 0.69486 0.12698
 Zr691 Zr 0.30175 0.75082 0.16860
 O692 O 0.28902 0.85993 0.19352
 O693 O 0.37068 0.74657 0.30395
 O694 O 0.36867 0.74812 0.17847
 O695 O 0.29143 0.75648 0.07957
 O696 O 0.32693 0.81007 0.14429
 C697 C 0.31810 0.84852 0.15838
 O698 O 0.21770 0.87019 0.29408
 O699 O 0.12673 0.74828 0.18497
 O700 O 0.20630 0.85856 0.19555
 O701 O 0.16701 0.80778 0.14990
 O702 O 0.12858 0.74555 0.31444
 O703 O 0.16860 0.80280 0.35718
 C704 C 0.17628 0.84656 0.16179
 H705 H 0.16608 0.69380 0.24766
 H706 H 0.24975 0.80384 0.35480
 H707 H 0.24615 0.80615 0.13553
 H708 H 0.32919 0.69306 0.23723
 H709 H 0.18249 0.73703 0.43012
 H710 H 0.33029 0.74756 0.41867
 H711 H 0.38332 0.74696 0.34265
 H712 H 0.38156 0.75620 0.14152
 H713 H 0.11691 0.73802 0.35234
 H714 H 0.11455 0.74743 0.14603
 H715 H 0.16775 0.75263 0.07132
 H716 H 0.31897 0.76408 0.06190
 H717 H 0.15153 0.79527 0.39113
 H718 H 0.22789 0.89821 0.28043
 H719 H 0.27092 0.59949 0.21135
 H720 H 0.34584 0.70229 0.09917
 Zr721 Zr 0.25084 0.82382 0.75329
 O722 O 0.28266 0.87072 0.70481
 O723 O 0.21147 0.86080 0.80551
 O724 O 0.20777 0.85807 0.70155
 O725 O 0.33347 0.80841 0.84875
 O726 O 0.17036 0.80634 0.65509
 O727 O 0.29421 0.85922 0.80328
 O728 O 0.17343 0.81110 0.85464
 O729 O 0.19477 0.78815 0.75635
 O730 O 0.25301 0.78883 0.82904
 O731 O 0.25078 0.78650 0.67880
 O732 O 0.30709 0.78746 0.74875
 Zr733 Zr 0.25208 0.67538 0.75389
 Zr734 Zr 0.19619 0.74877 0.68453
 Zr735 Zr 0.30668 0.75025 0.82309
 Zr736 Zr 0.19852 0.75176 0.83040
 O737 O 0.37351 0.74874 0.81370
 O738 O 0.13159 0.74916 0.82067
 O739 O 0.25226 0.71208 0.82940
 O740 O 0.19644 0.71212 0.75896
 O741 O 0.24982 0.70973 0.67749
 O742 O 0.30772 0.71162 0.75106
 C743 C 0.18233 0.84951 0.84058
 C744 C 0.32428 0.84719 0.83689
 C745 C 0.17886 0.84534 0.66658
 O746 O 0.12946 0.74734 0.69510
 O747 O 0.17204 0.69054 0.65491
 O748 O 0.21019 0.63989 0.70220
 C749 C 0.18094 0.65183 0.66741
 O750 O 0.33156 0.80322 0.64153
 Zr751 Zr 0.30440 0.74738 0.67699
 O752 O 0.29043 0.63830 0.70022
 O753 O 0.19935 0.74950 0.59448
 O754 O 0.29099 0.74573 0.58844
 O755 O 0.37154 0.74587 0.68412
 O756 O 0.32535 0.68784 0.64680
 C757 C 0.31714 0.64942 0.66169
 O758 O 0.21912 0.62857 0.80119
 O759 O 0.30305 0.75247 0.91309
 O760 O 0.29308 0.64080 0.80741
 O761 O 0.32905 0.69220 0.85657
 O762 O 0.20891 0.75758 0.91941
 O763 O 0.17692 0.69590 0.87209
 C764 C 0.32064 0.65324 0.84424
 H765 H 0.25428 0.80704 0.86342
 H766 H 0.17089 0.69394 0.76174
 H767 H 0.33400 0.69439 0.75096
 H768 H 0.25041 0.80441 0.64414
 H769 H 0.11876 0.75731 0.85767
 H770 H 0.11680 0.74773 0.65642
 H771 H 0.16969 0.74830 0.58040
 H772 H 0.31749 0.73738 0.56858
 H773 H 0.18138 0.76528 0.93710
 H774 H 0.33265 0.75345 0.92735
 H775 H 0.38573 0.74791 0.85262
 H776 H 0.38313 0.73827 0.64618
 H777 H 0.15447 0.70340 0.89989
 H778 H 0.22897 0.60040 0.78752
 H779 H 0.27256 0.89879 0.71851
 H780 H 0.34862 0.79560 0.60759
 Zr781 Zr 0.24908 0.17603 0.25295
 O782 O 0.21733 0.12868 0.20499
 O783 O 0.28880 0.13952 0.30539
 O784 O 0.29221 0.14165 0.20135
 O785 O 0.16661 0.19179 0.34859
 O786 O 0.32921 0.19324 0.15426
 O787 O 0.20594 0.14080 0.30347
 O788 O 0.32678 0.18967 0.35398
 O789 O 0.30502 0.21194 0.25546
 O790 O 0.24698 0.21150 0.32840
 O791 O 0.24878 0.21293 0.17816
 O792 O 0.19270 0.21221 0.24823
 Zr793 Zr 0.24729 0.32455 0.25215
 Zr794 Zr 0.30326 0.25090 0.18334
 Zr795 Zr 0.19317 0.24988 0.32226
 Zr796 Zr 0.30135 0.24876 0.32923
 O797 O 0.12631 0.25115 0.31305
 O798 O 0.36824 0.25153 0.31918
 O799 O 0.24748 0.28828 0.32797
 O800 O 0.30305 0.28799 0.25747
 O801 O 0.24948 0.28974 0.17604
 O802 O 0.19178 0.28810 0.24992
 C803 C 0.31800 0.15112 0.34030
 C804 C 0.17590 0.15294 0.33711
 C805 C 0.32096 0.15428 0.16616
 O806 O 0.37003 0.25249 0.19361
 O807 O 0.32744 0.30901 0.15343
 O808 O 0.28915 0.35983 0.20029
 C809 C 0.31853 0.34778 0.16575
 O810 O 0.16804 0.19575 0.14106
 Zr811 Zr 0.19501 0.25189 0.17613
 O812 O 0.20855 0.36116 0.19823
 O813 O 0.29979 0.24970 0.09330
 O814 O 0.20819 0.25310 0.08752
 O815 O 0.12789 0.25305 0.18367
 O816 O 0.17353 0.31116 0.14553
 C817 C 0.18167 0.34973 0.15995
 O818 O 0.28014 0.37188 0.29889
 O819 O 0.19702 0.24824 0.41227
 O820 O 0.20647 0.35931 0.30569
 O821 O 0.17085 0.30810 0.35546
 O822 O 0.29116 0.24354 0.41832
 O823 O 0.32288 0.30496 0.37040
 C824 C 0.17915 0.34702 0.34283
 H825 H 0.24588 0.19351 0.36294
 H826 H 0.32856 0.30625 0.26008
 H827 H 0.16544 0.30525 0.24981
 H828 H 0.24914 0.19481 0.14365
 H829 H 0.38122 0.24370 0.35619
 H830 H 0.38258 0.25188 0.15488
 H831 H 0.32939 0.25091 0.07909
 H832 H 0.18162 0.26122 0.06769
 H833 H 0.31874 0.23603 0.43601
 H834 H 0.16745 0.24727 0.42663
 H835 H 0.11420 0.25226 0.35201
 H836 H 0.11609 0.26038 0.14576
 H837 H 0.34545 0.29770 0.39815
 H838 H 0.27014 0.39991 0.28496
 H839 H 0.22758 0.10076 0.21892
 H840 H 0.15077 0.20314 0.10721
 Zr841 Zr 0.75117 0.67591 0.24632
 O842 O 0.78329 0.62899 0.29444
 O843 O 0.71172 0.63902 0.19414
 O844 O 0.70812 0.64152 0.29808
 O845 O 0.83323 0.69166 0.14999
 O846 O 0.67078 0.69314 0.34486
 O847 O 0.79432 0.64066 0.19553
 O848 O 0.67344 0.68881 0.14539
 O849 O 0.69502 0.71157 0.24369
 O850 O 0.75299 0.71116 0.17076
 O851 O 0.75121 0.71310 0.32097
 O852 O 0.80735 0.71236 0.25081
 Zr853 Zr 0.75204 0.82447 0.24645
 Zr854 Zr 0.69653 0.75080 0.31567
 Zr855 Zr 0.80662 0.74977 0.17663
 Zr856 Zr 0.69844 0.74816 0.16981
 O857 O 0.87347 0.75108 0.18593
 O858 O 0.63154 0.75058 0.17988
 O859 O 0.75210 0.78791 0.17078
 O860 O 0.69648 0.78764 0.24141
 O861 O 0.75010 0.78991 0.32269
 O862 O 0.80775 0.78825 0.24883
 C863 C 0.68247 0.65038 0.15924
 C864 C 0.82410 0.65279 0.16150
 C865 C 0.67923 0.65416 0.33315
 O866 O 0.62976 0.75217 0.30535
 O867 O 0.67221 0.80891 0.34570
 O868 O 0.71006 0.85976 0.29847
 C869 C 0.68091 0.84770 0.33335
 O870 O 0.83209 0.69645 0.35798
 Zr871 Zr 0.80476 0.75232 0.32276
 O872 O 0.79050 0.86147 0.30012
 O873 O 0.70003 0.74981 0.40570
 O874 O 0.79160 0.75380 0.41136
 O875 O 0.87188 0.75387 0.31535
 O876 O 0.82579 0.81184 0.35304
 C877 C 0.81743 0.85029 0.33840
 O878 O 0.71890 0.87138 0.19946
 O879 O 0.80270 0.74808 0.08662
 O880 O 0.79290 0.85922 0.19291
 O881 O 0.82892 0.80797 0.14351
 O882 O 0.70852 0.74263 0.08071
 O883 O 0.67657 0.80408 0.12843
 C884 C 0.82047 0.84691 0.15601
 H885 H 0.75414 0.69309 0.13624
 H886 H 0.67088 0.80579 0.23881
 H887 H 0.83402 0.80549 0.24893
 H888 H 0.75096 0.69510 0.35554
 H889 H 0.61860 0.74249 0.14292
 H890 H 0.61720 0.75166 0.34408
 H891 H 0.67042 0.75092 0.41994
 H892 H 0.81813 0.76217 0.43114
 H893 H 0.68095 0.73490 0.06313
 H894 H 0.83226 0.74717 0.07221
 H895 H 0.88561 0.75213 0.14699
 H896 H 0.88358 0.76140 0.35326
 H897 H 0.65397 0.79662 0.10082
 H898 H 0.72874 0.89951 0.21327
 H899 H 0.77318 0.60096 0.28067
 H900 H 0.84926 0.70404 0.39187
 Zr901 Zr 0.74975 0.32467 0.74784
 O902 O 0.71821 0.37184 0.79634
 O903 O 0.78903 0.36125 0.69510
 O904 O 0.79331 0.35910 0.79897
 O905 O 0.66680 0.30905 0.65273
 O906 O 0.83075 0.30749 0.84546
 O907 O 0.70630 0.35996 0.69778
 O908 O 0.82677 0.31117 0.64603
 O909 O 0.80569 0.28879 0.74460
 O910 O 0.74720 0.28929 0.67228
 O911 O 0.74992 0.28766 0.82251
 O912 O 0.69343 0.28842 0.75286
 Zr913 Zr 0.74808 0.17617 0.74788
 Zr914 Zr 0.80443 0.24978 0.81665
 Zr915 Zr 0.69344 0.25088 0.67865
 Zr916 Zr 0.80159 0.25205 0.67076
 O917 O 0.62663 0.24974 0.68852
 O918 O 0.86854 0.24928 0.68012
 O919 O 0.74775 0.21254 0.67220
 O920 O 0.80379 0.21276 0.74240
 O921 O 0.75072 0.21085 0.82413
 O922 O 0.69254 0.21257 0.75087
 C923 C 0.81802 0.34968 0.65992
 C924 C 0.67614 0.34787 0.66427
 C925 C 0.82244 0.34651 0.83373
 O926 O 0.87112 0.24794 0.80574
 O927 O 0.82847 0.19154 0.84641
 O928 O 0.79001 0.14082 0.79955
 C929 C 0.81941 0.15281 0.83411
 O930 O 0.66939 0.30462 0.86044
 Zr931 Zr 0.69621 0.24860 0.82480
 O932 O 0.70973 0.13936 0.80175
 O933 O 0.80154 0.25107 0.90672
 O934 O 0.71001 0.24700 0.91324
 O935 O 0.62904 0.24752 0.81808
 O936 O 0.67496 0.18916 0.85510
 C937 C 0.68303 0.15065 0.84025
 O938 O 0.78089 0.12912 0.70063
 O939 O 0.69679 0.25263 0.58863
 O940 O 0.70687 0.14140 0.69465
 O941 O 0.67074 0.19267 0.64558
 O942 O 0.79093 0.25751 0.58178
 O943 O 0.82293 0.19592 0.62927
 C944 C 0.67916 0.15369 0.65792
 H945 H 0.74589 0.30733 0.63780
 H946 H 0.82929 0.19449 0.73956
 H947 H 0.66621 0.19543 0.75113
 H948 H 0.75050 0.30574 0.85705
 H949 H 0.88128 0.25719 0.64300
 H950 H 0.88390 0.24847 0.84435
 H951 H 0.83123 0.24976 0.92063
 H952 H 0.68358 0.23876 0.93329
 H953 H 0.81844 0.26499 0.56388
 H954 H 0.66713 0.25362 0.57453
 H955 H 0.61428 0.24871 0.64968
 H956 H 0.61754 0.24003 0.85608
 H957 H 0.84528 0.20322 0.60127
 H958 H 0.77103 0.10103 0.71444
 H959 H 0.72831 0.39981 0.78243
 H960 H 0.65256 0.29714 0.89463
 C961 C 0.12581 0.40490 0.87819
 C962 C 0.15126 0.38095 0.85691
 C963 C 0.37100 0.59544 0.37813
 C964 C 0.34591 0.61942 0.35655
 C965 C 0.87116 0.90362 0.62126
 C966 C 0.84616 0.87950 0.64276
 C967 C 0.62897 0.09569 0.12190
 C968 C 0.65404 0.11978 0.14324
 C969 C 0.86994 0.09595 0.39307
 C970 C 0.84591 0.12110 0.37175
 C971 C 0.36974 0.40479 0.60849
 C972 C 0.34544 0.37992 0.62992
 C973 C 0.63062 0.90385 0.89314
 C974 C 0.65484 0.87864 0.87226
 C975 C 0.12977 0.59542 0.10504
 C976 C 0.15381 0.62049 0.12688
 C977 C 0.36896 0.90552 0.11405
 C978 C 0.34422 0.88074 0.13416
 C979 C 0.63154 0.40615 0.38580
 C980 C 0.65629 0.38144 0.36551
 C981 C 0.87166 0.59327 0.88433
 C982 C 0.84659 0.61815 0.86478
 C983 C 0.13121 0.09418 0.61519
 C984 C 0.15586 0.11907 0.63534
 C985 C 0.12986 0.40410 0.39138
 C986 C 0.15380 0.37896 0.36985
 C987 C 0.37030 0.59641 0.89266
 C988 C 0.34620 0.62142 0.87120
 C989 C 0.62960 0.09641 0.60955
 C990 C 0.65359 0.12167 0.63100
 C991 C 0.87013 0.90387 0.10776
 C992 C 0.84601 0.87882 0.12917
 C993 C 0.87098 0.09674 0.88042
 C994 C 0.84602 0.12101 0.85918
 C995 C 0.12933 0.59594 0.62075
 C996 C 0.15433 0.62007 0.64223
 C997 C 0.62910 0.90344 0.38058
 C998 C 0.65416 0.87937 0.35886
 C999 C 0.37053 0.40365 0.11986
 C1000 C 0.34537 0.37948 0.14088
 C1001 C 0.63163 0.59330 0.11505
 C1002 C 0.65639 0.61811 0.13509
 C1003 C 0.13144 0.90656 0.88490
 C1004 C 0.15622 0.88179 0.86474
 C1005 C 0.36898 0.09426 0.38523
 C1006 C 0.34424 0.11900 0.36481
 C1007 C 0.86897 0.40632 0.61504
 C1008 C 0.84417 0.38173 0.63543
 C1009 C 0.87329 0.59693 0.10882
 C1010 C 0.84959 0.62104 0.13336
 C1011 C 0.62651 0.40369 0.61287
 C1012 C 0.65043 0.37962 0.63687
 C1013 C 0.12638 0.09707 0.38860
 C1014 C 0.15025 0.12120 0.36463
 C1015 C 0.37405 0.90311 0.88771
 C1016 C 0.35008 0.87896 0.86397
 C1017 C 0.12888 0.90045 0.61461
 C1018 C 0.15306 0.87658 0.63842
 C1019 C 0.62897 0.59918 0.38511
 C1020 C 0.65330 0.62290 0.36123
 C1021 C 0.37122 0.09916 0.11457
 C1022 C 0.34691 0.12300 0.13825
 C1023 C 0.87343 0.40193 0.88437
 C1024 C 0.84880 0.37793 0.86121
 C1025 C 0.63325 0.09359 0.88732
 C1026 C 0.65772 0.11832 0.86619
 C1027 C 0.36681 0.59262 0.61403
 C1028 C 0.34230 0.61709 0.63559
 C1029 C 0.13192 0.40638 0.11154
 C1030 C 0.15635 0.38192 0.13346
 C1031 C 0.86710 0.90723 0.38593
 C1032 C 0.84264 0.88265 0.36446
 C1033 C 0.87167 0.59936 0.61505
 C1034 C 0.84750 0.62312 0.63909
 C1035 C 0.62841 0.39985 0.11473
 C1036 C 0.65265 0.37609 0.13868
 C1037 C 0.37128 0.89999 0.38566
 C1038 C 0.34721 0.87603 0.36148
 C1039 C 0.12850 0.10032 0.88618
 C1040 C 0.15250 0.12430 0.86222
 C1041 C 0.12672 0.90271 0.11097
 C1042 C 0.15060 0.87843 0.13463
 C1043 C 0.87351 0.40309 0.38833
 C1044 C 0.84963 0.37887 0.36458
 C1045 C 0.37314 0.09776 0.61215
 C1046 C 0.34930 0.12211 0.63601
 C1047 C 0.62709 0.59674 0.88959
 C1048 C 0.65123 0.62086 0.86613
 C1049 C 0.36621 0.40865 0.88552
 C1050 C 0.34138 0.38433 0.86427
 C1051 C 0.86700 0.09218 0.11519
 C1052 C 0.84245 0.11670 0.13659
 C1053 C 0.63242 0.90677 0.61639
 C1054 C 0.65702 0.88222 0.63782
 C1055 C 0.13301 0.59229 0.38490
 C1056 C 0.15750 0.61669 0.36321
   
