data_POSCAR
  _audit_creation_date              2014-09-24
  _audit_creation_method            'ToBaCCo'
  _symmetry_space_group_name_H-M    'P1'
  _symmetry_Int_Tables_number       1
  _symmetry_cell_setting            triclinic
  loop_
  _symmetry_equiv_pos_as_xyz
 x,y,z
_cell_length_a 33.1221
_cell_length_b 33.0925
_cell_length_c 40.7872
_cell_angle_alpha 88.857500
_cell_angle_beta 89.988500
_cell_angle_gamma 81.776500
loop_
  _atom_site_label
  _atom_site_type_symbol
  _atom_site_fract_x
  _atom_site_fract_y
  _atom_site_fract_z
C1 C 1.21512 0.23213 0.20790
 C2 C 1.24092 0.25834 0.18780
 C3 C 1.26331 0.28058 0.20656
 C4 C 1.25786 0.27474 0.24375
 C5 C 1.24531 0.20599 0.23086
 C6 C 1.26757 0.22835 0.24965
 C7 C 1.18908 0.26188 0.23037
 C8 C 1.21151 0.28407 0.24921
 H9 H 1.24230 0.25840 0.16118
 H10 H 1.27614 0.29303 0.25893
 H11 H 1.24702 0.17305 0.23358
 H12 H 1.15633 0.26276 0.23319
 C13 C 0.71355 -0.26580 0.20797
 C14 C 0.74005 -0.24010 0.18810
 C15 C 0.76128 -0.21692 0.20700
 C16 C 0.75412 -0.22144 0.24411
 C17 C 0.74274 -0.29088 0.23227
 C18 C 0.76387 -0.26763 0.25122
 C19 C 0.68622 -0.23537 0.22904
 C20 C 0.70751 -0.21223 0.24800
 H21 H 0.74212 -0.24043 0.16151
 H22 H 0.77150 -0.20245 0.25941
 H23 H 0.74459 -0.32376 0.23565
 H24 H 0.65337 -0.23449 0.23079
 C25 C 0.71245 0.21907 -0.29052
 C26 C 0.73520 0.24326 -0.31206
 C27 C 0.76041 0.26732 -0.29449
 C28 C 0.75807 0.26260 -0.25877
 C29 C 0.74289 0.19456 -0.26981
 C30 C 0.76809 0.21863 -0.25224
 C31 C 0.68935 0.24810 -0.26866
 C32 C 0.71458 0.27215 -0.25109
 H33 H 0.73365 0.24310 -0.33869
 H34 H 0.77771 0.28137 -0.24528
 H35 H 0.74405 0.16185 -0.26553
 H36 H 0.65696 0.24899 -0.26371
 C37 C 1.21717 -0.27766 -0.29215
 C38 C 1.24192 -0.25032 -0.31217
 C39 C 1.26456 -0.22849 -0.29329
 C40 C 1.26051 -0.23585 -0.25619
 C41 C 1.24834 -0.30436 -0.27033
 C42 C 1.27092 -0.28235 -0.25150
 C43 C 1.19161 -0.24905 -0.26856
 C44 C 1.21441 -0.22727 -0.24973
 H45 H 1.24180 -0.24860 -0.33881
 H46 H 1.27907 -0.21792 -0.24096
 H47 H 1.25027 -0.33737 -0.26816
 H48 H 1.15891 -0.24815 -0.26544
 C49 C 0.23436 0.22466 0.79009
 C50 C 0.25879 0.24808 0.80966
 C51 C 0.28080 0.27417 0.79056
 C52 C 0.27448 0.27221 0.75525
 C53 C 0.20680 0.25609 0.76891
 C54 C 0.22784 0.28089 0.75050
 C55 C 0.26398 0.20151 0.76562
 C56 C 0.28493 0.22656 0.74723
 H57 H 0.25998 0.24647 0.83631
 H58 H 0.29168 0.29260 0.74047
 H59 H 0.17418 0.25592 0.76614
 H60 H 0.26553 0.16904 0.76121
 C61 C 0.73177 0.72477 0.79126
 C62 C 0.75368 0.75059 0.81111
 C63 C 0.77925 0.77343 0.79211
 C64 C 0.77805 0.76615 0.75683
 C65 C 0.70916 0.75196 0.76689
 C66 C 0.73485 0.77482 0.74777
 C67 C 0.76291 0.69899 0.77290
 C68 C 0.78845 0.72187 0.75372
 H69 H 0.75193 0.75177 0.83772
 H70 H 0.79805 0.78408 0.74228
 H71 H 0.67717 0.75162 0.76106
 H72 H 0.76311 0.66634 0.77001
 C73 C 0.73725 0.21854 0.29618
 C74 C 0.76315 0.24699 0.31264
 C75 C 0.78209 0.26986 0.29110
 C76 C 0.77355 0.26230 0.25484
 C77 C 0.70759 0.24631 0.27373
 C78 C 0.72675 0.26910 0.25202
 C79 C 0.76624 0.19293 0.27281
 C80 C 0.78508 0.21592 0.25109
 H81 H 0.76583 0.24929 0.33908
 H82 H 0.78921 0.28103 0.23737
 H83 H 0.67487 0.24574 0.27337
 H84 H 0.76888 0.15988 0.27165
 C85 C 0.23134 0.71876 0.29201
 C86 C 0.25767 0.74236 0.31312
 C87 C 0.28099 0.76558 0.29544
 C88 C 0.27583 0.76315 0.25789
 C89 C 0.20634 0.75106 0.26997
 C90 C 0.22952 0.77418 0.25194
 C91 C 0.26116 0.69391 0.26879
 C92 C 0.28435 0.71710 0.25080
 H93 H 0.25782 0.74089 0.33976
 H94 H 0.29487 0.78213 0.24351
 H95 H 0.17356 0.75291 0.26662
 H96 H 0.26152 0.66145 0.26495
 O97 O 1.06759 0.01591 0.04009
 O98 O 0.93091 -0.01560 0.03918
 O99 O 0.97413 0.07139 0.03643
 O100 O 1.02644 -0.07131 0.04243
 O101 O 0.91957 0.05304 0.01852
 O102 O 1.08108 -0.05365 0.02370
 O103 O 0.95852 -0.07422 0.02391
 O104 O 1.04199 0.07329 0.01944
 C105 C 1.06045 0.05328 0.04241
 C106 C 0.93825 -0.05268 0.04457
 C107 C 0.93768 0.06931 0.04032
 C108 C 1.06288 -0.06888 0.04644
 O109 O 1.07251 -0.02829 -0.04007
 O110 O 0.93028 0.02455 -0.04386
 O111 O 1.01879 0.06512 -0.04428
 O112 O 0.98443 -0.07094 -0.03953
 O113 O 0.92647 -0.04289 -0.02307
 O114 O 1.07581 0.03953 -0.02380
 O115 O 1.05325 -0.08259 -0.02090
 O116 O 0.94927 0.07933 -0.02746
 Co117 Co 1.06702 -0.00607 -0.00009
 Co118 Co 0.93400 0.00425 -0.00223
 Co119 Co 0.99649 0.06515 -0.00377
 Co120 Co 1.00522 -0.06767 0.00126
 O121 O 1.00064 -0.00112 -0.00122
 C122 C 1.06969 -0.06466 -0.04330
 C123 C 0.93321 0.06081 -0.04907
 C124 C 1.05617 0.05826 -0.04678
 C125 C 0.94732 -0.06331 -0.04402
 O126 O 1.06522 0.54058 0.52081
 O127 O 0.91407 0.45823 0.52185
 O128 O 0.93914 0.57981 0.52240
 O129 O 1.04068 0.41853 0.52596
 O130 O 0.91887 0.52562 0.54075
 O131 O 1.06101 0.47343 0.54152
 O132 O 0.97101 0.43148 0.54170
 O133 O 1.00801 0.56666 0.53950
 C134 C 1.04524 0.55986 0.54268
 C135 C 0.93362 0.43813 0.54427
 C136 C 0.92339 0.56149 0.54494
 C137 C 1.05814 0.43719 0.54682
 O138 O 1.07088 0.44493 0.48007
 O139 O 0.90907 0.55400 0.47756
 O140 O 1.03194 0.57238 0.47517
 O141 O 0.94835 0.42665 0.47721
 O142 O 0.92132 0.48517 0.45911
 O143 O 1.05871 0.51393 0.45882
 O144 O 1.01680 0.42741 0.46110
 O145 O 0.96414 0.57022 0.45851
 Co146 Co 1.05663 0.49383 0.50023
 Co147 Co 0.92317 0.50516 0.49989
 Co148 Co 0.98620 0.56530 0.49904
 Co149 Co 0.99386 0.43294 0.50137
 O150 O 0.98997 0.49928 0.50014
 C151 C 1.05323 0.42976 0.45754
 C152 C 0.92733 0.56995 0.45519
 C153 C 1.05218 0.55121 0.45425
 C154 C 0.92981 0.44813 0.45491
 O155 O 0.55350 0.00841 0.54871
 O156 O 0.42067 -0.03748 0.52766
 O157 O 0.45576 0.08428 0.51814
 O158 O 0.54928 -0.06508 0.54062
 O159 O 0.41926 0.03810 0.53649
 O160 O 0.60182 -0.04308 0.51828
 O161 O 0.47828 -0.06159 0.54945
 O162 O 0.52907 0.06902 0.52975
 C163 C 0.54576 0.04617 0.55266
 C164 C 0.44063 -0.05579 0.55071
 C165 C 0.43019 0.07272 0.53809
 C166 C 0.58769 -0.06966 0.53706
 O167 O 0.56374 -0.02445 0.46442
 O168 O 0.41574 0.05069 0.47392
 O169 O 0.54052 0.05149 0.46357
 O170 O 0.46484 -0.07866 0.48528
 O171 O 0.42562 -0.02510 0.46466
 O172 O 0.58687 0.03163 0.49702
 O173 O 0.53778 -0.07872 0.47510
 O174 O 0.47192 0.06426 0.45400
 Co175 Co 0.55627 -0.00922 0.50654
 Co176 Co 0.42748 0.00587 0.50075
 Co177 Co 0.49919 0.06210 0.49234
 Co178 Co 0.50661 -0.06480 0.51147
 O179 O 0.49471 0.00047 0.50178
 C180 C 0.55776 -0.05887 0.45634
 C181 C 0.43476 0.06546 0.45156
 C182 C 0.57603 0.05251 0.47232
 C183 C 0.43916 -0.06236 0.46414
 O184 O 0.57674 0.53697 0.02203
 O185 O 0.42813 0.45517 0.02183
 O186 O 0.45003 0.57731 0.02078
 O187 O 0.55492 0.41472 0.02220
 O188 O 0.43134 0.52284 0.03958
 O189 O 0.57356 0.46900 0.04002
 O190 O 0.48568 0.42724 0.04018
 O191 O 0.51878 0.56345 0.03968
 C192 C 0.55598 0.55651 0.04349
 C193 C 0.44852 0.43536 0.04398
 C194 C 0.43425 0.55916 0.04333
 C195 C 0.57102 0.43254 0.04425
 O196 O 0.58317 0.44390 -0.02326
 O197 O 0.42226 0.54980 -0.02442
 O198 O 0.54467 0.57088 -0.02328
 O199 O 0.46059 0.42266 -0.02321
 O200 O 0.43414 0.48090 -0.04175
 O201 O 0.57075 0.51350 -0.04161
 O202 O 0.52870 0.42537 -0.04131
 O203 O 0.47731 0.56811 -0.04211
 Co204 Co 0.56891 0.49138 -0.00077
 Co205 Co 0.43604 0.50167 -0.00114
 Co206 Co 0.49815 0.56271 -0.00119
 Co207 Co 0.50701 0.42967 -0.00057
 O208 O 0.50252 0.49633 -0.00093
 C209 C 0.56505 0.42821 -0.04538
 C210 C 0.44095 0.56595 -0.04646
 C211 C 0.56419 0.55090 -0.04511
 C212 C 0.44132 0.44369 -0.04532
 C213 C 1.15111 0.16201 0.15158
 N214 N 1.16772 0.12310 0.14524
 N215 N 1.14860 0.10026 0.12562
 C216 C 1.11223 0.11563 0.11188
 N217 N 1.09556 0.15451 0.11830
 N218 N 1.11469 0.17736 0.13791
 C219 C 1.17263 0.18705 0.17144
 C220 C 1.19143 0.20775 0.18789
 C221 C 1.09326 0.09231 0.08877
 C222 C 1.07795 0.07375 0.06822
 C223 C 1.14870 0.65708 0.65130
 N224 N 1.16394 0.61896 0.64169
 N225 N 1.14233 0.59858 0.62200
 C226 C 1.10483 0.61570 0.61146
 N227 N 1.08955 0.65377 0.62115
 N228 N 1.11116 0.67416 0.64084
 C229 C 1.17257 0.67965 0.67127
 C230 C 1.19274 0.69887 0.68780
 C231 C 1.08296 0.59510 0.58842
 C232 C 1.06528 0.57855 0.56804
 C233 C 0.64219 0.15003 0.66071
 N234 N 0.60555 0.16667 0.64805
 N235 N 0.58375 0.14425 0.63020
 C236 C 0.59774 0.10441 0.62466
 N237 N 0.63429 0.08774 0.63745
 N238 N 0.65610 0.11015 0.65530
 C239 C 0.66684 0.17478 0.67822
 C240 C 0.68793 0.19549 0.69265
 C241 C 0.57699 0.08197 0.60186
 C242 C 0.56142 0.06455 0.58062
 C243 C 0.65139 0.66275 0.15138
 N244 N 0.61112 0.67353 0.14487
 N245 N 0.59166 0.65082 0.12539
 C246 C 0.61189 0.61660 0.11197
 N247 N 0.65214 0.60576 0.11855
 N248 N 0.67160 0.62847 0.13803
 C249 C 0.67268 0.68790 0.17129
 C250 C 0.69093 0.70898 0.18782
 C251 C 0.59176 0.59396 0.08913
 C252 C 0.57520 0.57610 0.06887
 C253 C 0.83590 -0.14744 0.15949
 N254 N 0.82095 -0.10941 0.14821
 N255 N 0.84277 -0.08945 0.12764
 C256 C 0.88018 -0.10694 0.11766
 N257 N 0.89522 -0.14489 0.12907
 N258 N 0.87340 -0.16485 0.14964
 C259 C 0.81054 -0.17076 0.17844
 C260 C 0.78846 -0.19128 0.19254
 C261 C 0.90183 -0.08713 0.09305
 C262 C 0.91901 -0.07112 0.07137
 C263 C 0.82964 0.33659 0.65464
 N264 N 0.81310 0.37383 0.64262
 N265 N 0.83445 0.39496 0.62252
 C266 C 0.87303 0.37952 0.61375
 N267 N 0.88960 0.34233 0.62584
 N268 N 0.86825 0.32121 0.64594
 C269 C 0.80549 0.31247 0.67430
 C270 C 0.78465 0.29161 0.68960
 C271 C 0.89503 0.40105 0.59027
 C272 C 0.91295 0.41840 0.56974
 C273 C 0.33599 -0.15438 0.66103
 N274 N 0.31861 -0.11845 0.64724
 N275 N 0.34031 -0.09701 0.62775
 C276 C 0.38003 -0.11087 0.62147
 N277 N 0.39747 -0.14669 0.63540
 N278 N 0.37576 -0.16813 0.65489
 C279 C 0.31151 -0.17953 0.67893
 C280 C 0.29039 -0.20148 0.69242
 C281 C 0.40206 -0.09009 0.59784
 C282 C 0.41998 -0.07379 0.57684
 C283 C 0.34126 0.34620 0.15887
 N284 N 0.32826 0.38479 0.14782
 N285 N 0.35122 0.40353 0.12732
 C286 C 0.38786 0.38424 0.11719
 N287 N 0.40096 0.34572 0.12836
 N288 N 0.37799 0.32698 0.14886
 C289 C 0.31459 0.32433 0.17779
 C290 C 0.29151 0.30496 0.19193
 C291 C 0.41060 0.40284 0.09259
 C292 C 0.42856 0.41792 0.07089
 C293 C 0.83708 0.16514 -0.17845
 N294 N 0.85947 0.12805 -0.18306
 N295 N 0.87943 0.10763 -0.15807
 C296 C 0.87751 0.12363 -0.12766
 N297 N 0.85518 0.16076 -0.12305
 N298 N 0.83523 0.18118 -0.14805
 C299 C 0.81354 0.18585 -0.20495
 C300 C 0.79276 0.20200 -0.22716
 C301 C 0.89777 0.10106 -0.10043
 C302 C 0.91421 0.08237 -0.07722
 C303 C 0.82934 0.67728 0.32840
 N304 N 0.86350 0.65036 0.32313
 N305 N 0.88256 0.62906 0.34807
 C306 C 0.86789 0.63387 0.37901
 N307 N 0.83376 0.66083 0.38429
 N308 N 0.81470 0.68214 0.35934
 C309 C 0.80751 0.69838 0.30134
 C310 C 0.78823 0.71477 0.27851
 C311 C 0.88829 0.61082 0.40581
 C312 C 0.90578 0.59178 0.42835
 C313 C 0.33582 0.17130 0.32458
 N314 N 0.35975 0.13525 0.31922
 N315 N 0.37930 0.11415 0.34404
 C316 C 0.37534 0.12841 0.37498
 N317 N 0.35145 0.16449 0.38034
 N318 N 0.33189 0.18559 0.35551
 C319 C 0.31308 0.19280 0.29816
 C320 C 0.29297 0.20975 0.27600
 C321 C 0.39604 0.10560 0.40175
 C322 C 0.41354 0.08686 0.42441
 C323 C 0.34086 0.66221 -0.17692
 N324 N 0.35329 0.62137 -0.17748
 N325 N 0.37341 0.60224 -0.15205
 C326 C 0.38156 0.62338 -0.12530
 N327 N 0.36918 0.66423 -0.12476
 N328 N 0.34906 0.68337 -0.15019
 C329 C 0.31753 0.68237 -0.20357
 C330 C 0.29690 0.69880 -0.22563
 C331 C 0.40245 0.60275 -0.09769
 C332 C 0.41995 0.58570 -0.07434
 C333 C 1.16255 -0.16296 -0.17279
 N334 N 1.17907 -0.16899 -0.14237
 N335 N 1.16059 -0.14999 -0.11679
 C336 C 1.12498 -0.12455 -0.12089
 N337 N 1.10848 -0.11850 -0.15131
 N338 N 1.12696 -0.13750 -0.17689
 C339 C 1.18160 -0.18452 -0.20006
 C340 C 1.19698 -0.20346 -0.22283
 C341 C 1.10519 -0.10404 -0.09343
 C342 C 1.08876 -0.08640 -0.07044
 C343 C 1.15697 0.34629 0.32639
 N344 N 1.17231 0.33905 0.35711
 N345 N 1.15222 0.35605 0.38283
 C346 C 1.11613 0.38069 0.37860
 N347 N 1.10082 0.38799 0.34788
 N348 N 1.12091 0.37099 0.32216
 C349 C 1.17727 0.32595 0.29897
 C350 C 1.19344 0.30763 0.27614
 C351 C 1.09397 0.39805 0.40637
 C352 C 1.07530 0.41247 0.42974
 C353 C 0.64944 -0.14616 0.32180
 N354 N 0.66928 -0.12368 0.34213
 N355 N 0.65002 -0.10531 0.36767
 C356 C 0.61039 -0.10889 0.37365
 N357 N 0.59052 -0.13130 0.35328
 N358 N 0.60978 -0.14967 0.32773
 C359 C 0.67064 -0.16784 0.29539
 C360 C 0.68792 -0.18732 0.27359
 C361 C 0.59044 -0.09080 0.40209
 C362 C 0.57475 -0.07607 0.42656
 C363 C 0.66617 0.33681 -0.17503
 N364 N 0.67747 0.32534 -0.14387
 N365 N 0.65822 0.34417 -0.11849
 C366 C 0.62699 0.37497 -0.12349
 N367 N 0.61574 0.38650 -0.15466
 N368 N 0.63500 0.36767 -0.18003
 C369 C 0.68507 0.31475 -0.20232
 C370 C 0.69967 0.29528 -0.22522
 C371 C 0.60526 0.39420 -0.09612
 C372 C 0.58687 0.40991 -0.07304
 C373 C 1.16623 0.15432 -0.15493
 N374 N 1.18363 0.12152 -0.13694
 N375 N 1.16080 0.10103 -0.11765
 C376 C 1.11991 0.11266 -0.11584
 N377 N 1.10250 0.14539 -0.13390
 N378 N 1.12533 0.16587 -0.15320
 C379 C 1.19093 0.17774 -0.17434
 C380 C 1.21106 0.19836 -0.19039
 C381 C 1.09603 0.09266 -0.09304
 C382 C 1.07702 0.07658 -0.07263
 C383 C 1.16050 0.65057 0.34665
 N384 N 1.17666 0.61395 0.35999
 N385 N 1.15412 0.59309 0.37925
 C386 C 1.11471 0.60814 0.38568
 N387 N 1.09852 0.64472 0.37227
 N388 N 1.12105 0.66558 0.35301
 C389 C 1.18528 0.67392 0.32717
 C390 C 1.20613 0.69394 0.31120
 C391 C 1.09151 0.58717 0.40842
 C392 C 1.07293 0.57028 0.42867
 C393 C 0.68322 0.15230 0.36510
 N394 N 0.67936 0.11252 0.36078
 N395 N 0.66129 0.09198 0.38356
 C396 C 0.64682 0.11053 0.41140
 N397 N 0.65078 0.15028 0.41574
 N398 N 0.66885 0.17083 0.39296
 C399 C 0.70174 0.17478 0.34035
 C400 C 0.71743 0.19422 0.31999
 C401 C 0.62424 0.08953 0.43444
 C402 C 0.60335 0.07234 0.45261
 C403 C 0.66322 0.65799 -0.15403
 N404 N 0.62892 0.67557 -0.13882
 N405 N 0.60815 0.65338 -0.11916
 C406 C 0.62099 0.61293 -0.11417
 N407 N 0.65523 0.59533 -0.12945
 N408 N 0.67600 0.61752 -0.14911
 C409 C 0.68674 0.68220 -0.17389
 C410 C 0.70726 0.70225 -0.19019
 C411 C 0.60027 0.58982 -0.09116
 C412 C 0.58346 0.57135 -0.07076
 C413 C 0.84894 -0.15874 -0.15871
 N414 N 0.83288 -0.12115 -0.14834
 N415 N 0.85343 -0.10118 -0.12744
 C416 C 0.89067 -0.11821 -0.11617
 N417 N 0.90680 -0.15573 -0.12663
 N418 N 0.88624 -0.17570 -0.14753
 C419 C 0.82499 -0.18203 -0.17842
 C420 C 0.80398 -0.20248 -0.19324
 C421 C 0.91137 -0.09811 -0.09164
 C422 C 0.92811 -0.08190 -0.07027
 C423 C 0.84786 0.34884 0.33415
 N424 N 0.88576 0.33490 0.34577
 N425 N 0.90355 0.35648 0.36733
 C426 C 0.88390 0.39256 0.37804
 N427 N 0.84614 0.40667 0.36623
 N428 N 0.82835 0.38509 0.34468
 C429 C 0.82612 0.32257 0.31556
 C430 C 0.80664 0.29916 0.30271
 C431 C 0.90091 0.41324 0.40410
 C432 C 0.91441 0.42960 0.42696
 C433 C 0.35175 -0.16871 0.34944
 N434 N 0.34383 -0.12740 0.35087
 N435 N 0.36287 -0.10733 0.37276
 C436 C 0.39034 -0.12787 0.39404
 N437 N 0.39835 -0.16917 0.39256
 N438 N 0.37931 -0.18924 0.37066
 C439 C 0.32839 -0.19075 0.32802
 C440 C 0.30752 -0.21004 0.31184
 C441 C 0.40908 -0.10617 0.41885
 C442 C 0.42355 -0.08696 0.43967
 C443 C 0.34768 0.34495 -0.16061
 N444 N 0.38534 0.32921 -0.14942
 N445 N 0.40508 0.35000 -0.12855
 C446 C 0.38773 0.38714 -0.11813
 N447 N 0.35014 0.40296 -0.12941
 N448 N 0.33041 0.38218 -0.15029
 C449 C 0.32464 0.32068 -0.18019
 C450 C 0.30447 0.29933 -0.19489
 C451 C 0.40746 0.40792 -0.09347
 C452 C 0.42329 0.42463 -0.07190
 C453 C 1.17280 -0.15821 0.17585
 N454 N 1.18603 -0.16389 0.14458
 N455 N 1.16420 -0.14565 0.11957
 C456 C 1.12834 -0.12133 0.12501
 N457 N 1.11513 -0.11559 0.15629
 N458 N 1.13697 -0.13383 0.18130
 C459 C 1.19476 -0.18024 0.20264
 C460 C 1.21171 -0.20012 0.22512
 C461 C 1.10440 -0.10253 0.09788
 C462 C 1.08490 -0.08709 0.07469
 C463 C 1.16757 0.34491 0.67464
 N464 N 1.13297 0.37108 0.68026
 N465 N 1.11064 0.38860 0.65527
 C466 C 1.12209 0.38022 0.62392
 N467 N 1.15670 0.35408 0.61831
 N468 N 1.17903 0.33657 0.64329
 C469 C 1.19027 0.32423 0.70147
 C470 C 1.20823 0.30543 0.72392
 C471 C 1.09842 0.39943 0.59699
 C472 C 1.07935 0.41615 0.57417
 C473 C 0.69166 -0.16984 0.66401
 N474 N 0.67131 -0.19092 0.64290
 N475 N 0.65367 -0.17261 0.61608
 C476 C 0.65596 -0.13268 0.60947
 N477 N 0.67643 -0.11163 0.63053
 N478 N 0.69406 -0.12994 0.65736
 C479 C 0.70838 -0.18901 0.69392
 C480 C 0.72129 -0.20556 0.71920
 C481 C 0.63382 -0.11191 0.58227
 C482 C 0.61366 -0.09337 0.56072
 C483 C 0.66689 0.33189 0.17515
 N484 N 0.68327 0.32786 0.14471
 N485 N 0.66389 0.34724 0.11904
 C486 C 0.62749 0.37117 0.12301
 N487 N 0.61108 0.37521 0.15345
 N488 N 0.63047 0.35582 0.17914
 C489 C 0.68767 0.31062 0.20266
 C490 C 0.70536 0.29214 0.22540
 C491 C 0.60696 0.39241 0.09537
 C492 C 0.59024 0.41051 0.07205
 C493 C 0.84431 0.16246 0.17205
 N494 N 0.85221 0.12113 0.17123
 N495 N 0.86977 0.10271 0.14504
 C496 C 0.87980 0.12506 0.11884
 N497 N 0.87191 0.16640 0.11966
 N498 N 0.85435 0.18483 0.14585
 C499 C 0.82457 0.18210 0.19996
 C500 C 0.80717 0.19795 0.22335
 C501 C 0.89927 0.10525 0.09089
 C502 C 0.91629 0.08869 0.06762
 C503 C 0.84695 0.66633 0.67755
 N504 N 0.86793 0.62823 0.68155
 N505 N 0.88349 0.60747 0.65570
 C506 C 0.87836 0.62411 0.62507
 N507 N 0.85745 0.66223 0.62108
 N508 N 0.84189 0.68299 0.64692
 C509 C 0.82777 0.68746 0.70507
 C510 C 0.81017 0.70423 0.72802
 C511 C 0.89424 0.60147 0.59713
 C512 C 0.90745 0.58285 0.57343
 C513 C 0.34628 0.18136 0.66608
 N514 N 0.38391 0.15913 0.66846
 N515 N 0.40135 0.14043 0.64233
 C516 C 0.38171 0.14337 0.61301
 N517 N 0.34413 0.16572 0.61060
 N518 N 0.32669 0.18443 0.63673
 C519 C 0.32605 0.19867 0.69476
 C520 C 0.30799 0.21199 0.71879
 C521 C 0.39906 0.12037 0.58566
 C522 C 0.41334 0.09949 0.56343
 C523 C 0.34813 0.66369 0.17343
 N524 N 0.37429 0.62861 0.17836
 N525 N 0.39177 0.60821 0.15298
 C526 C 0.38350 0.62214 0.12185
 N527 N 0.35740 0.65725 0.11692
 N528 N 0.33992 0.67765 0.14230
 C529 C 0.32724 0.68417 0.20069
 C530 C 0.30849 0.70008 0.22356
 C531 C 0.40153 0.59961 0.09440
 C532 C 0.41646 0.58089 0.07121
   
