data_POSCAR
  _audit_creation_date              2014-09-24
  _audit_creation_method            'ToBaCCo'
  _symmetry_space_group_name_H-M    'P1'
  _symmetry_Int_Tables_number       1
  _symmetry_cell_setting            triclinic
  loop_
  _symmetry_equiv_pos_as_xyz
 x,y,z
_cell_length_a 50.8943
_cell_length_b 50.9427
_cell_length_c 40.6380
_cell_angle_alpha 90.065000
_cell_angle_beta 89.974100
_cell_angle_gamma 120.543400
loop_
  _atom_site_label
  _atom_site_type_symbol
  _atom_site_fract_x
  _atom_site_fract_y
  _atom_site_fract_z
C1 C -0.05182 0.46374 -0.07968
 C2 C -0.05212 0.49042 -0.07964
 C3 C -0.04507 0.50188 -0.04786
 N4 N -0.04001 0.48326 -0.02851
 C5 C -0.04460 0.45965 -0.04792
 C6 C -0.04467 0.52851 -0.03686
 C7 C -0.02777 0.54453 -0.00860
 C8 C -0.03147 0.56585 0.00895
 C9 C -0.00964 0.57705 0.03327
 C10 C 0.00642 0.56191 0.03028
 N11 N -0.00474 0.54213 0.00477
 C12 C 0.03161 0.56752 0.04993
 C13 C 0.04227 0.54687 0.05220
 C14 C 0.06911 0.55296 0.06755
 C15 C 0.06936 0.52617 0.06757
 C16 C 0.04266 0.50466 0.05224
 N17 N 0.02615 0.51736 0.04279
 C18 C 0.03249 0.47329 0.04998
 C19 C 0.00744 0.45303 0.03031
 C20 C -0.00822 0.42159 0.03328
 C21 C -0.03000 0.41030 0.00891
 C22 C -0.02668 0.43519 -0.00865
 N23 N -0.00394 0.46117 0.00476
 C24 C -0.04365 0.43373 -0.03696
 H25 H -0.05616 0.44910 -0.10078
 H26 H -0.05676 0.50042 -0.10071
 H27 H 0.00526 0.48299 -0.00503
 H28 H -0.04820 0.57261 0.00480
 H29 H -0.00615 0.59422 0.05126
 H30 H 0.08643 0.57433 0.07814
 H31 H 0.08692 0.52278 0.07817
 H32 H -0.04644 0.38647 0.00473
 H33 H 0.00475 0.52990 -0.00502
 H34 H -0.00449 0.40817 0.05129
 C35 C 0.48070 0.53708 0.07820
 C36 C 0.45323 0.51027 0.07804
 C37 C 0.45152 0.49606 0.04836
 N38 N 0.47697 0.51327 0.03036
 C39 C 0.49483 0.53835 0.04859
 C40 C 0.42579 0.46881 0.03730
 C41 C 0.42630 0.45269 0.00926
 C42 C 0.40070 0.42937 -0.00607
 C43 C 0.41103 0.41874 -0.03115
 C44 C 0.44262 0.43590 -0.03037
 N45 N 0.45174 0.45640 -0.00559
 C46 C 0.46226 0.43115 -0.05076
 C47 C 0.49379 0.45237 -0.05345
 C48 C 0.51481 0.44600 -0.06723
 C49 C 0.54223 0.47277 -0.06720
 C50 C 0.53700 0.49484 -0.05393
 N51 N 0.50733 0.48221 -0.04523
 C52 C 0.55914 0.52633 -0.05134
 C53 C 0.55476 0.54606 -0.03029
 C54 C 0.57079 0.57767 -0.03216
 C55 C 0.56053 0.58812 -0.00692
 C56 C 0.53817 0.56265 0.00940
 N57 N 0.53479 0.53710 -0.00491
 C58 C 0.52244 0.56358 0.03760
 H59 H 0.48912 0.55390 0.09770
 H60 H 0.43631 0.50232 0.09742
 H61 H 0.52176 0.51501 0.00412
 H62 H 0.37704 0.42076 0.00027
 H63 H 0.39690 0.40032 -0.04785
 H64 H 0.51082 0.42426 -0.07621
 H65 H 0.56362 0.47562 -0.07593
 H66 H 0.56842 0.61177 -0.00141
 H67 H 0.47400 0.46979 0.00285
 H68 H 0.58795 0.59184 -0.05003
 C69 C 0.44563 0.92450 0.06143
 C70 C 0.47230 0.92400 0.06189
 C71 C 0.49392 0.95018 0.04591
 N72 N 0.48137 0.96663 0.03569
 C73 C 0.45185 0.95095 0.04516
 C74 C 0.52519 0.95969 0.04329
 C75 C 0.54569 0.98422 0.02321
 C76 C 0.57723 0.99831 0.02472
 C77 C 0.58863 1.01993 0.00021
 C78 C 0.56373 1.01839 -0.01554
 N79 N 0.53767 0.99649 -0.00151
 C80 C 0.56530 1.03553 -0.04348
 C81 C 0.54022 1.03756 -0.05494
 C82 C 0.53860 1.04829 -0.08570
 C83 C 0.51188 1.04863 -0.08643
 C84 C 0.49827 1.03863 -0.05582
 N85 N 0.51554 1.03156 -0.03667
 C86 C 0.47106 1.03749 -0.04546
 C87 C 0.45438 1.02015 -0.01765
 C88 C 0.43265 1.02370 -0.00075
 C89 C 0.42135 1.00217 0.02379
 C90 C 0.43677 0.98633 0.02161
 N91 N 0.45680 0.99732 -0.00373
 C92 C 0.43123 0.96161 0.04202
 H93 H 0.42420 0.90755 0.07226
 H94 H 0.47550 0.90656 0.07309
 H95 H 0.46930 0.98790 -0.01289
 H96 H 0.59063 0.99344 0.04162
 H97 H 0.61252 1.03491 -0.00551
 H98 H 0.55492 1.05503 -0.10560
 H99 H 0.50345 1.05547 -0.10720
 H100 H 0.40399 0.99880 0.04146
 H101 H 0.51575 0.98823 -0.01060
 H102 H 0.42579 1.04029 -0.00533
 C103 C 0.93000 0.47878 0.56741
 C104 C 0.93031 0.45202 0.56739
 C105 C 0.95720 0.45815 0.55211
 N106 N 0.97330 0.48766 0.54275
 C107 C 0.95671 0.50031 0.55215
 C108 C 0.96791 0.43754 0.54985
 C109 C 0.99316 0.44321 0.53026
 C110 C 1.00927 0.42812 0.53326
 C111 C 1.03113 0.43934 0.50899
 C112 C 1.02742 0.46063 0.49147
 N113 N 1.00435 0.46300 0.50480
 C114 C 1.04434 0.47664 0.46324
 C115 C 1.04483 0.50333 0.45234
 C116 C 1.05206 0.51489 0.42064
 C117 C 1.05181 0.54160 0.42072
 C118 C 1.04442 0.54559 0.45246
 N119 N 1.03971 0.52191 0.47175
 C120 C 1.04344 0.57149 0.46350
 C121 C 1.02625 0.56995 0.49167
 C122 C 1.02939 0.59479 0.50923
 C123 C 1.00748 0.58344 0.53345
 C124 C 0.99192 0.55199 0.53039
 N125 N 1.00348 0.54393 0.50492
 C126 C 0.96682 0.53167 0.54994
 H127 H 0.91239 0.48213 0.57797
 H128 H 0.91299 0.43065 0.57793
 H129 H 0.99440 0.52212 0.49509
 H130 H 1.00578 0.41095 0.55121
 H131 H 1.04789 0.43260 0.50484
 H132 H 1.05677 0.50495 0.39954
 H133 H 1.05630 0.55633 0.39970
 H134 H 1.00359 0.59680 0.55142
 H135 H 0.99485 0.47520 0.49500
 H136 H 1.04580 0.61865 0.50516
 C137 C 0.48010 0.54636 0.42936
 C138 C 0.45285 0.51934 0.42944
 C139 C 0.45780 0.49847 0.44602
 N140 N 0.48717 0.51183 0.45601
 C141 C 0.50082 0.54114 0.44591
 C142 C 0.43590 0.46720 0.44968
 C143 C 0.44011 0.44738 0.47040
 C144 C 0.42216 0.41585 0.46994
 C145 C 0.43276 0.40517 0.49463
 C146 C 0.45688 0.43048 0.50949
 N147 N 0.46105 0.45610 0.49472
 C148 C 0.47331 0.42947 0.53701
 C149 C 0.50118 0.45466 0.54773
 C150 C 0.51563 0.45581 0.57706
 C151 C 0.54280 0.48292 0.57714
 C152 C 0.54408 0.49745 0.54785
 N153 N 0.51864 0.48010 0.52986
 C154 C 0.56936 0.52528 0.53727
 C155 C 0.56852 0.54160 0.50959
 C156 C 0.59398 0.56540 0.49462
 C157 C 0.58347 0.57599 0.46976
 C158 C 0.55189 0.55837 0.47026
 N159 N 0.54297 0.53761 0.49474
 C160 C 0.53221 0.56274 0.44944
 H161 H 0.48422 0.56741 0.41821
 H162 H 0.43183 0.51546 0.41836
 H163 H 0.52077 0.52379 0.50311
 H164 H 0.40332 0.40197 0.45359
 H165 H 0.42365 0.38147 0.50100
 H166 H 0.50753 0.43882 0.59633
 H167 H 0.55976 0.49093 0.59649
 H168 H 0.59750 0.59461 0.45327
 H169 H 0.47517 0.47826 0.50300
 H170 H 0.61768 0.57428 0.50100
 C171 C 0.45337 -0.07468 0.44069
 C172 C 0.47993 -0.07527 0.44061
 C173 C 0.50270 -0.04685 0.45134
 N174 N 0.49083 -0.02898 0.45847
 C175 C 0.46068 -0.04591 0.45147
 C176 C 0.53414 -0.03733 0.45291
 C177 C 0.55426 -0.01302 0.47378
 C178 C 0.58588 0.00310 0.47147
 C179 C 0.59660 0.02355 0.49714
 C180 C 0.57126 0.01974 0.51408
 N181 N 0.54556 -0.00255 0.49972
 C182 C 0.57233 0.03579 0.54284
 C183 C 0.54699 0.03723 0.55453
 C184 C 0.54557 0.04906 0.58476
 C185 C 0.51883 0.04946 0.58504
 C186 C 0.50489 0.03791 0.55493
 N187 N 0.52209 0.03036 0.53634
 C188 C 0.47834 0.03727 0.54374
 C189 C 0.46284 0.02181 0.51483
 C190 C 0.44200 0.02670 0.49810
 C191 C 0.43128 0.00644 0.47227
 C192 C 0.44550 -0.01066 0.47428
 N193 N 0.46490 -0.00093 0.50017
 C194 C 0.43984 -0.03525 0.45330
 H195 H 0.43112 -0.09340 0.43383
 H196 H 0.48221 -0.09454 0.43366
 H197 H 0.47657 -0.01128 0.50921
 H198 H 0.59985 0.00056 0.45312
 H199 H 0.62033 0.03958 0.50256
 H200 H 0.56231 0.05709 0.60433
 H201 H 0.51086 0.05785 0.60486
 H202 H 0.41495 0.00463 0.45404
 H203 H 0.52347 -0.01211 0.50893
 H204 H 0.43538 0.04331 0.50378
 O205 O 0.16884 0.39754 0.22061
 O206 O 0.22204 0.39617 0.28147
 O207 O 0.17130 0.39741 0.28470
 O208 O 0.21957 0.39629 0.21738
 O209 O 0.24593 0.44669 0.21768
 O210 O 0.19803 0.44780 0.28458
 O211 O 0.24843 0.44657 0.28139
 O212 O 0.19554 0.44793 0.22087
 Cu213 Cu 0.19274 0.39173 0.25103
 Cu214 Cu 0.22464 0.45230 0.25114
 C215 C 0.17320 0.42305 0.21061
 C216 C 0.24432 0.42123 0.29154
 C217 C 0.17651 0.42291 0.29585
 C218 C 0.24101 0.42140 0.20631
 O219 O 0.60552 0.82594 0.27878
 O220 O 0.60283 0.77416 0.21340
 O221 O 0.60297 0.82557 0.21474
 O222 O 0.60516 0.77430 0.27750
 O223 O 0.55474 0.74902 0.27952
 O224 O 0.55257 0.79995 0.21713
 O225 O 0.55242 0.74887 0.21580
 O226 O 0.55510 0.80031 0.28080
 Cu227 Cu 0.60924 0.80256 0.24591
 Cu228 Cu 0.54866 0.77198 0.24857
 C229 C 0.58066 0.82195 0.29058
 C230 C 0.57709 0.75270 0.20368
 C231 C 0.57731 0.82143 0.20550
 C232 C 0.58021 0.75285 0.28890
 O233 O 0.22191 0.83162 0.22082
 O234 O 0.17191 0.78107 0.28694
 O235 O 0.22397 0.83264 0.28493
 O236 O 0.16970 0.78006 0.22275
 O237 O 0.19450 0.75485 0.22184
 O238 O 0.24838 0.80705 0.28361
 O239 O 0.19672 0.75588 0.28559
 O240 O 0.24631 0.80601 0.21994
 Cu241 Cu 0.19435 0.80891 0.25395
 Cu242 Cu 0.22392 0.77839 0.25262
 C243 C 0.24272 0.82740 0.20944
 C244 C 0.17592 0.75985 0.29731
 C245 C 0.24546 0.82873 0.29459
 C246 C 0.17292 0.75847 0.21196
 O247 O 0.82831 0.60501 0.72076
 O248 O 0.77434 0.60466 0.78184
 O249 O 0.82601 0.60519 0.78489
 O250 O 0.77657 0.60426 0.71773
 O251 O 0.75158 0.55386 0.71815
 O252 O 0.80061 0.55479 0.78485
 O253 O 0.74931 0.55426 0.78184
 O254 O 0.80296 0.55460 0.72115
 Cu255 Cu 0.80387 0.60990 0.75129
 Cu256 Cu 0.77359 0.54933 0.75153
 C257 C 0.82475 0.57978 0.71078
 C258 C 0.75259 0.57930 0.79198
 C259 C 0.82166 0.58002 0.79605
 C260 C 0.75562 0.57880 0.70674
 O261 O 0.39666 0.22016 0.71341
 O262 O 0.39603 0.16973 0.77911
 O263 O 0.39428 0.22023 0.77750
 O264 O 0.39843 0.16975 0.71498
 O265 O 0.44881 0.19681 0.71731
 O266 O 0.44468 0.24697 0.77946
 O267 O 0.44642 0.19682 0.78104
 O268 O 0.44705 0.24688 0.71576
 Cu269 Cu 0.39123 0.19223 0.74606
 Cu270 Cu 0.45179 0.22456 0.74863
 C271 C 0.42206 0.24213 0.70363
 C272 C 0.42123 0.17475 0.79100
 C273 C 0.41888 0.24227 0.78884
 C274 C 0.42441 0.17478 0.70569
 O275 O 0.78110 0.17194 0.72041
 O276 O 0.83026 0.22352 0.78643
 O277 O 0.77900 0.17123 0.78462
 O278 O 0.83239 0.22440 0.72228
 O279 O 0.80637 0.24837 0.72128
 O280 O 0.75337 0.19558 0.78319
 O281 O 0.80425 0.24749 0.78498
 O282 O 0.75547 0.19631 0.71943
 Cu283 Cu 0.80830 0.19530 0.75352
 Cu284 Cu 0.77727 0.22434 0.75207
 C285 C 0.75986 0.17541 0.70893
 C286 C 0.82553 0.24430 0.79673
 C287 C 0.75712 0.17449 0.79434
 C288 C 0.82842 0.24550 0.71145
 C289 C 0.06331 0.45332 0.12463
 C290 C 0.08038 0.44191 0.10995
 C291 C 0.08050 0.43926 0.07563
 C292 C 0.06418 0.44867 0.05604
 C293 C 0.04777 0.46094 0.07067
 C294 C 0.04704 0.46274 0.10511
 C295 C 0.09920 0.43486 0.13016
 C296 C 0.11550 0.43022 0.14773
 C297 C 0.13513 0.42625 0.16899
 C298 C 0.15231 0.42410 0.18771
 H299 H 0.06312 0.45556 0.15113
 H300 H 0.09373 0.43058 0.06401
 H301 H 0.06498 0.44716 0.02951
 H302 H 0.03440 0.47207 0.11676
 C303 C 0.57169 0.63132 0.09248
 C304 C 0.55419 0.64543 0.09402
 C305 C 0.52730 0.63376 0.07560
 C306 C 0.51748 0.60764 0.05641
 C307 C 0.53443 0.59287 0.05555
 C308 C 0.56189 0.60517 0.07322
 C309 C 0.56243 0.67050 0.11618
 C310 C 0.56794 0.69071 0.13539
 C311 C 0.57276 0.71340 0.15856
 C312 C 0.57550 0.73187 0.17889
 H313 H 0.59246 0.64008 0.10677
 H314 H 0.51352 0.64440 0.07672
 H315 H 0.49629 0.59846 0.04285
 H316 H 0.57519 0.59400 0.07282
 C317 C 0.34855 0.91479 0.06876
 C318 C 0.35161 0.91660 0.10309
 C319 C 0.38048 0.93444 0.11728
 C320 C 0.40627 0.94979 0.09733
 C321 C 0.40346 0.94737 0.06294
 C322 C 0.37440 0.93022 0.04873
 C323 C 0.32570 0.89854 0.12397
 C324 C 0.30496 0.88290 0.14235
 C325 C 0.28188 0.86403 0.16484
 C326 C 0.26331 0.84751 0.18482
 H327 H 0.32634 0.90092 0.05752
 H328 H 0.38314 0.93589 0.14379
 H329 H 0.42854 0.96300 0.10865
 H330 H 0.37189 0.92812 0.02223
 C331 C 0.91847 0.56537 0.57553
 C332 C 0.91861 0.56280 0.60985
 C333 C 0.93581 0.55156 0.62454
 C334 C 0.95219 0.54224 0.60504
 C335 C 0.95145 0.54396 0.57060
 C336 C 0.93492 0.55607 0.55596
 C337 C 0.89962 0.56966 0.63005
 C338 C 0.88317 0.57406 0.64764
 C339 C 0.86332 0.57765 0.66898
 C340 C 0.84593 0.57937 0.68777
 H341 H 0.90513 0.57390 0.56390
 H342 H 0.93599 0.54936 0.65104
 H343 H 0.96492 0.53304 0.61670
 H344 H 0.93412 0.55752 0.52943
 C345 C 0.46848 0.35907 0.57409
 C346 C 0.44222 0.34788 0.59352
 C347 C 0.42507 0.36238 0.59298
 C348 C 0.43461 0.38845 0.57370
 C349 C 0.46145 0.40024 0.55498
 C350 C 0.47804 0.38509 0.55487
 C351 C 0.43442 0.32300 0.61575
 C352 C 0.42934 0.30300 0.63504
 C353 C 0.42507 0.28062 0.65831
 C354 C 0.42288 0.26247 0.67873
 H355 H 0.48201 0.34814 0.57445
 H356 H 0.40481 0.35401 0.60806
 H357 H 0.42162 0.39993 0.57408
 H358 H 0.49879 0.39393 0.54056
 C359 C 0.64095 0.05576 0.59646
 C360 C 0.65455 0.08751 0.59865
 C361 C 0.64229 0.10237 0.58098
 C362 C 0.61607 0.08556 0.56196
 C363 C 0.60179 0.05367 0.56050
 C364 C 0.61469 0.03889 0.57734
 C365 C 0.67955 0.10481 0.62088
 C366 C 0.69958 0.12005 0.64020
 C367 C 0.72189 0.13867 0.66353
 C368 C 0.73986 0.15516 0.68400
 H369 H 0.65016 0.04403 0.61018
 H370 H 0.65252 0.12688 0.58261
 H371 H 0.60641 0.09728 0.54904
 H372 H 0.60389 0.01429 0.57648
 C373 C 0.47243 0.10207 0.90949
 C374 C 0.44207 0.08884 0.89937
 C375 C 0.42084 0.05898 0.90880
 C376 C 0.43014 0.04218 0.92772
 C377 C 0.46095 0.05494 0.93718
 C378 C 0.48180 0.08538 0.92825
 C379 C 0.43354 0.10565 0.87777
 C380 C 0.42811 0.12052 0.85888
 C381 C 0.42375 0.13874 0.83594
 C382 C 0.42169 0.15490 0.81572
 H383 H 0.48903 0.12522 0.90244
 H384 H 0.39729 0.04845 0.90093
 H385 H 0.41351 0.01876 0.93372
 H386 H 0.50545 0.09635 0.93587
 C387 C 0.61020 0.54063 0.87650
 C388 C 0.63897 0.55891 0.89059
 C389 C 0.64137 0.56772 0.92360
 C390 C 0.61503 0.55767 0.94266
 C391 C 0.58588 0.53835 0.92901
 C392 C 0.58392 0.53050 0.89544
 C393 C 0.66575 0.56698 0.87132
 C394 C 0.68725 0.57216 0.85428
 C395 C 0.71127 0.57642 0.83339
 C396 C 0.73074 0.57856 0.81483
 H397 H 0.60807 0.53376 0.85094
 H398 H 0.66357 0.58175 0.93480
 H399 H 0.61754 0.56390 0.96845
 H400 H 0.56194 0.51647 0.88377
 C401 C 0.93675 0.36163 0.91828
 C402 C 0.90753 0.35279 0.90663
 C403 C 0.89406 0.36992 0.91489
 C404 C 0.90989 0.39615 0.93405
 C405 C 0.93970 0.40592 0.94533
 C406 C 0.95269 0.38790 0.93761
 C407 C 0.89168 0.32720 0.88472
 C408 C 0.87759 0.30665 0.86554
 C409 C 0.86022 0.28370 0.84225
 C410 C 0.84472 0.26511 0.82175
 H411 H 0.94749 0.34862 0.91181
 H412 H 0.87140 0.36325 0.90609
 H413 H 0.89872 0.40883 0.94016
 H414 H 0.97573 0.39487 0.94521
 C415 C 0.57494 0.92240 0.42574
 C416 C 0.56441 0.91474 0.39335
 C417 C 0.54509 0.92412 0.38037
 C418 C 0.53571 0.94045 0.39978
 C419 C 0.54540 0.94772 0.43277
 C420 C 0.56565 0.93890 0.44529
 C421 C 0.57184 0.89594 0.37358
 C422 C 0.57637 0.87959 0.35597
 C423 C 0.57976 0.85989 0.33421
 C424 C 0.58104 0.84270 0.31474
 H425 H 0.58977 0.91507 0.43610
 H426 H 0.53688 0.91841 0.35528
 H427 H 0.52087 0.94753 0.38889
 H428 H 0.57319 0.94349 0.47065
 C429 C 0.35320 0.43564 0.42584
 C430 C 0.35514 0.43594 0.39143
 C431 C 0.38310 0.44467 0.37624
 C432 C 0.40920 0.45387 0.39529
 C433 C 0.40759 0.45451 0.42975
 C434 C 0.37934 0.44483 0.44495
 C435 C 0.32917 0.42958 0.37151
 C436 C 0.30828 0.42563 0.35413
 C437 C 0.28486 0.42255 0.33302
 C438 C 0.26580 0.42123 0.31439
 H439 H 0.33172 0.42908 0.43783
 H440 H 0.38489 0.44514 0.34965
 H441 H 0.43084 0.46128 0.38322
 H442 H 0.37777 0.44528 0.47151
 C443 C 0.06349 0.64369 0.41886
 C444 C 0.09280 0.65249 0.40750
 C445 C 0.10618 0.63534 0.41601
 C446 C 0.09017 0.60911 0.43505
 C447 C 0.06028 0.59935 0.44600
 C448 C 0.04738 0.61741 0.43810
 C449 C 0.10882 0.67798 0.38557
 C450 C 0.12309 0.69840 0.36634
 C451 C 0.14071 0.72111 0.34298
 C452 C 0.15644 0.73944 0.32241
 H453 H 0.05282 0.65670 0.41221
 H454 H 0.12890 0.64199 0.40744
 H455 H 0.10125 0.59640 0.44131
 H456 H 0.02428 0.61045 0.44545
 C457 C 0.89223 0.52755 0.91520
 C458 C 0.90517 0.55827 0.90685
 C459 C 0.93429 0.57955 0.91841
 C460 C 0.95066 0.56999 0.93773
 C461 C 0.93821 0.53887 0.94551
 C462 C 0.90850 0.51792 0.93433
 C463 C 0.88893 0.56720 0.88486
 C464 C 0.87454 0.57290 0.86557
 C465 C 0.85684 0.57749 0.84209
 C466 C 0.84108 0.57963 0.82138
 H467 H 0.86967 0.51088 0.90647
 H468 H 0.94462 0.60339 0.91186
 H469 H 0.97362 0.58675 0.94524
 H470 H 0.89775 0.49396 0.94050
 C471 C 0.42862 0.34839 0.92457
 C472 C 0.43083 0.35086 0.89021
 C473 C 0.44144 0.37924 0.87526
 C474 C 0.45065 0.40520 0.89453
 C475 C 0.44937 0.40303 0.92898
 C476 C 0.43779 0.37439 0.94392
 C477 C 0.42463 0.32500 0.87020
 C478 C 0.42099 0.30434 0.85263
 C479 C 0.41851 0.28138 0.83118
 C480 C 0.41787 0.26288 0.81218
 H481 H 0.42063 0.32657 0.93640
 H482 H 0.44342 0.38145 0.84873
 H483 H 0.45957 0.42714 0.88266
 H484 H 0.43683 0.37239 0.97048
 C485 C 0.63571 0.10147 0.91836
 C486 C 0.64776 0.08631 0.90083
 C487 C 0.63375 0.05453 0.90291
 C488 C 0.60735 0.03793 0.92189
 C489 C 0.59476 0.05303 0.93876
 C490 C 0.60936 0.08493 0.93724
 C491 C 0.67322 0.10343 0.87910
 C492 C 0.69379 0.11861 0.86034
 C493 C 0.71693 0.13727 0.83781
 C494 C 0.73581 0.15391 0.81816
 H495 H 0.64627 0.12602 0.91681
 H496 H 0.64279 0.04256 0.88929
 H497 H 0.59627 0.01331 0.92272
 H498 H 0.59993 0.09691 0.95012
 C499 C 0.06513 0.42537 0.41842
 C500 C 0.09426 0.44656 0.40686
 C501 C 0.10731 0.47730 0.41524
 C502 C 0.09112 0.48705 0.43440
 C503 C 0.06138 0.46619 0.44556
 C504 C 0.04883 0.43505 0.43775
 C505 C 0.11038 0.43750 0.38483
 C506 C 0.12461 0.43159 0.36550
 C507 C 0.14204 0.42662 0.34198
 C508 C 0.15751 0.42403 0.32123
 H509 H 0.05472 0.40151 0.41188
 H510 H 0.12989 0.49390 0.40651
 H511 H 0.10196 0.51102 0.44060
 H512 H 0.02586 0.41835 0.44526
 C513 C 0.55531 0.61496 0.37558
 C514 C 0.56470 0.64315 0.39054
 C515 C 0.56517 0.64538 0.42493
 C516 C 0.55552 0.61933 0.44426
 C517 C 0.54521 0.59088 0.42928
 C518 C 0.54566 0.58896 0.39484
 C519 C 0.57153 0.66907 0.37040
 C520 C 0.57579 0.68988 0.35276
 C521 C 0.57908 0.71311 0.33128
 C522 C 0.58041 0.73189 0.31228
 H523 H 0.55469 0.61295 0.34901
 H524 H 0.57221 0.66704 0.43674
 H525 H 0.55524 0.62114 0.47080
 H526 H 0.53777 0.56716 0.38295
 C527 C 0.35799 0.92729 0.42701
 C528 C 0.36003 0.91932 0.39455
 C529 C 0.38850 0.92751 0.38123
 C530 C 0.41478 0.94300 0.40039
 C531 C 0.41316 0.95060 0.43344
 C532 C 0.38434 0.94293 0.44631
 C533 C 0.33305 0.90134 0.37508
 C534 C 0.31136 0.88556 0.35784
 C535 C 0.28711 0.86637 0.33668
 C536 C 0.26746 0.84943 0.31784
 H537 H 0.33599 0.92085 0.43764
 H538 H 0.39036 0.92153 0.35609
 H539 H 0.43652 0.94918 0.38925
 H540 H 0.38196 0.94777 0.47174
 C541 C 0.54618 0.92967 0.11781
 C542 C 0.55641 0.91161 0.10310
 C543 C 0.55764 0.91025 0.06874
 C544 C 0.54813 0.92648 0.04916
 C545 C 0.53720 0.94405 0.06385
 C546 C 0.53666 0.94585 0.09829
 C547 C 0.56387 0.89320 0.12345
 C548 C 0.56892 0.87734 0.14121
 C549 C 0.57339 0.85829 0.16283
 C550 C 0.57592 0.84165 0.18196
 H551 H 0.54501 0.93079 0.14436
 H552 H 0.56537 0.89623 0.05712
 H553 H 0.54864 0.92484 0.02262
 H554 H 0.52835 0.95937 0.10998
 C555 C 0.35826 0.42117 0.09302
 C556 C 0.34454 0.43904 0.09423
 C557 C 0.35637 0.46560 0.07530
 C558 C 0.38227 0.47475 0.05593
 C559 C 0.39664 0.45743 0.05538
 C560 C 0.38420 0.43030 0.07358
 C561 C 0.31992 0.43167 0.11675
 C562 C 0.30021 0.42699 0.13634
 C563 C 0.27830 0.42325 0.16005
 C564 C 0.26065 0.42157 0.18088
 H565 H 0.34941 0.40068 0.10774
 H566 H 0.34605 0.47968 0.07619
 H567 H 0.39162 0.49574 0.04201
 H568 H 0.39511 0.41676 0.07347
 C569 C 0.07907 0.65034 0.07570
 C570 C 0.07875 0.64758 0.11002
 C571 C 0.06162 0.61885 0.12464
 C572 C 0.04554 0.59289 0.10506
 C573 C 0.04650 0.59541 0.07063
 C574 C 0.06291 0.62434 0.05605
 C575 C 0.09767 0.67367 0.13031
 C576 C 0.11415 0.69466 0.14804
 C577 C 0.13407 0.71813 0.16960
 C578 C 0.15158 0.73716 0.18863
 H579 H 0.09238 0.67245 0.06413
 H580 H 0.06133 0.61643 0.15115
 H581 H 0.03291 0.57073 0.11667
 H582 H 0.06389 0.62663 0.02952
 C583 C 0.47684 0.10364 0.58374
 C584 C 0.44873 0.08880 0.60007
 C585 C 0.42963 0.05720 0.59680
 C586 C 0.43893 0.04043 0.57779
 C587 C 0.46746 0.05516 0.56208
 C588 C 0.48615 0.08693 0.56479
 C589 C 0.44049 0.10595 0.62155
 C590 C 0.43483 0.12090 0.64010
 C591 C 0.42968 0.13907 0.66241
 C592 C 0.42655 0.15510 0.68194
 H593 H 0.49182 0.12805 0.58617
 H594 H 0.40788 0.04548 0.60942
 H595 H 0.42426 0.01594 0.57593
 H596 H 0.50816 0.09864 0.55269
 C597 C 0.63979 0.53081 0.57546
 C598 C 0.65070 0.55717 0.59467
 C599 C 0.63598 0.57409 0.59365
 C600 C 0.60998 0.56425 0.57412
 C601 C 0.59846 0.53733 0.55562
 C602 C 0.61383 0.52095 0.55598
 C603 C 0.67550 0.56531 0.61720
 C604 C 0.69540 0.57071 0.63680
 C605 C 0.71761 0.57534 0.66050
 C606 C 0.73557 0.57778 0.68133
 H607 H 0.65090 0.51746 0.57619
 H608 H 0.64412 0.59441 0.60857
 H609 H 0.59832 0.57707 0.57413
 H610 H 0.60522 0.50015 0.54181
 C611 C 0.92102 0.35465 0.57547
 C612 C 0.92111 0.35741 0.60979
 C613 C 0.93782 0.38620 0.62446
 C614 C 0.95375 0.41219 0.60495
 C615 C 0.95304 0.40966 0.57051
 C616 C 0.93701 0.38068 0.55589
 C617 C 0.90247 0.33121 0.63002
 C618 C 0.88628 0.31008 0.64769
 C619 C 0.86668 0.28638 0.66918
 C620 C 0.84946 0.26712 0.68816
 H621 H 0.90805 0.33250 0.56386
 H622 H 0.93795 0.38863 0.65096
 H623 H 0.96609 0.43437 0.61660
 H624 H 0.93623 0.37837 0.52935
   
