data_POSCAR
  _audit_creation_date              2014-09-24
  _audit_creation_method            'ToBaCCo'
  _symmetry_space_group_name_H-M    'P1'
  _symmetry_Int_Tables_number       1
  _symmetry_cell_setting            triclinic
  loop_
  _symmetry_equiv_pos_as_xyz
 x,y,z
_cell_length_a 26.9581
_cell_length_b 26.9456
_cell_length_c 26.9741
_cell_angle_alpha 89.953600
_cell_angle_beta 90.002700
_cell_angle_gamma 89.923300
loop_
  _atom_site_label
  _atom_site_type_symbol
  _atom_site_fract_x
  _atom_site_fract_y
  _atom_site_fract_z
O1 O 0.28794 1.04908 0.45003
 O2 O 0.29037 0.95237 0.54647
 O3 O 0.28874 0.95200 0.45040
 O4 O 0.28874 1.05024 0.54515
 O5 O 0.20694 1.04744 0.54855
 O6 O 0.20677 0.95150 0.45110
 O7 O 0.20840 0.95184 0.54826
 O8 O 0.20594 1.04775 0.45075
 Cu9 Cu 0.29718 1.00089 0.49800
 Cu10 Cu 0.19876 0.99960 0.49970
 C11 C 0.24655 1.06478 0.43403
 C12 C 0.24986 0.93578 0.56380
 C13 C 0.24774 0.93528 0.43440
 C14 C 0.24793 1.06548 0.56316
 O15 O 0.70815 -0.04920 0.45498
 O16 O 0.70876 0.04905 0.54982
 O17 O 0.70775 0.04796 0.45386
 O18 O 0.70889 -0.04841 0.55078
 O19 O 0.79081 -0.04832 0.55014
 O20 O 0.78973 0.04844 0.45365
 O21 O 0.79074 0.04756 0.55078
 O22 O 0.79010 -0.04750 0.45284
 Cu23 Cu 0.70014 -0.00014 0.50248
 Cu24 Cu 0.79859 0.00003 0.50179
 C25 C 0.74906 -0.06468 0.43752
 C26 C 0.74985 0.06471 0.56663
 C27 C 0.74857 0.06455 0.43727
 C28 C 0.75002 -0.06487 0.56695
 O29 O 0.29287 0.45077 0.95063
 O30 O 0.29223 0.54646 1.04824
 O31 O 0.29182 0.45059 1.04787
 O32 O 0.29289 0.54690 0.95096
 O33 O 0.21091 0.54717 0.95032
 O34 O 0.20990 0.45071 1.04687
 O35 O 0.21027 0.54812 1.04607
 O36 O 0.21089 0.44996 0.95111
 Cu37 Cu 0.30071 0.49865 0.99947
 Cu38 Cu 0.20225 0.49902 0.99854
 C39 C 0.25196 0.43389 0.93456
 C40 C 0.25113 0.56371 1.06346
 C41 C 0.25065 0.43419 1.06386
 C42 C 0.25205 0.56343 0.93424
 O43 O 0.45168 0.29094 1.04855
 O44 O 0.54792 0.29145 0.95172
 O45 O 0.45205 0.29135 0.95113
 O46 O 0.54753 0.29128 1.04899
 O47 O 0.54817 0.20932 1.04851
 O48 O 0.45180 0.20932 0.95163
 O49 O 0.54925 0.20942 0.95271
 O50 O 0.45087 0.20890 1.04731
 Cu51 Cu 0.49975 0.29951 1.00010
 Cu52 Cu 0.50007 0.20099 1.00000
 C53 C 0.43482 0.24984 1.06415
 C54 C 0.56511 0.25050 0.93602
 C55 C 0.43562 0.25032 0.93490
 C56 C 0.56421 0.25030 1.06537
 O57 O 0.45423 0.70852 -0.04989
 O58 O 0.54829 0.70878 0.04909
 O59 O 0.45232 0.70835 0.04725
 O60 O 0.55009 0.70874 -0.04825
 O61 O 0.54975 0.79070 -0.04826
 O62 O 0.45238 0.79036 0.04763
 O63 O 0.54957 0.79079 0.04753
 O64 O 0.45235 0.79052 -0.04828
 Cu65 Cu 0.50130 0.70035 -0.00044
 Cu66 Cu 0.50097 0.79884 -0.00038
 C67 C 0.43705 0.74951 -0.06557
 C68 C 0.56512 0.74983 0.06484
 C69 C 0.43577 0.74930 0.06370
 C70 C 0.56657 0.74978 -0.06459
 O71 O 1.04846 0.45236 0.29030
 O72 O 0.95061 0.54776 0.29150
 O73 O 0.95123 0.45170 0.29097
 O74 O 1.04798 0.54817 0.29037
 O75 O 1.04727 0.54846 0.20850
 O76 O 0.95005 0.45248 0.20905
 O77 O 0.95143 0.54974 0.20958
 O78 O 1.04599 0.45105 0.20839
 Cu79 Cu 0.99961 0.49998 0.29903
 Cu80 Cu 0.99862 0.50046 0.20064
 C81 C 1.06353 0.43528 0.24914
 C82 C 0.93472 0.56520 0.25076
 C83 C 0.93418 0.43572 0.25010
 C84 C 1.06419 0.56472 0.24933
 O85 O -0.04836 0.45318 0.70888
 O86 O 0.04991 0.54801 0.70812
 O87 O 0.04891 0.45201 0.70778
 O88 O -0.04751 0.54913 0.70888
 O89 O -0.04668 0.54911 0.79075
 O90 O 0.04947 0.45177 0.78971
 O91 O 0.04925 0.54918 0.79005
 O92 O -0.04634 0.45175 0.79079
 Cu93 Cu 0.00067 0.50064 0.70018
 Cu94 Cu 0.00151 0.50046 0.79856
 C95 C -0.06374 0.43613 0.74997
 C96 C 0.06603 0.56488 0.74898
 C97 C 0.06548 0.43532 0.74860
 C98 C -0.06358 0.56567 0.74998
 O99 O 0.45003 0.95102 0.29082
 O100 O 0.54485 1.04939 0.29177
 O101 O 0.44899 1.04844 0.29056
 O102 O 0.54589 0.95216 0.29161
 O103 O 0.54637 0.95196 0.20966
 O104 O 0.44974 1.04843 0.20868
 O105 O 0.54715 1.04779 0.20986
 O106 O 0.44918 0.95257 0.20889
 Cu107 Cu 0.49732 1.00026 0.29944
 Cu108 Cu 0.49818 1.00023 0.20102
 C109 C 0.43331 0.93534 0.24972
 C110 C 0.56242 1.06491 0.25096
 C111 C 0.43283 1.06486 0.24945
 C112 C 0.56257 0.93572 0.25078
 O113 O 1.04904 0.29159 0.54643
 O114 O 0.94970 0.29125 0.45247
 O115 O 0.95177 0.29141 0.54822
 O116 O 1.04688 0.29127 0.45045
 O117 O 1.04766 0.20925 0.45133
 O118 O 0.95153 0.20937 0.54803
 O119 O 0.95176 0.20925 0.45085
 O120 O 1.04733 0.20961 0.54852
 Cu121 Cu 0.99937 0.29965 0.49937
 Cu122 Cu 0.99961 0.20111 0.49970
 C123 C 1.06465 0.25064 0.56378
 C124 C 0.93420 0.25020 0.43543
 C125 C 0.93541 0.25040 0.56462
 C126 C 1.06346 0.25023 0.43433
 O127 O -0.04848 0.70954 0.54807
 O128 O 0.04917 0.70935 0.45254
 O129 O 0.04880 0.70917 0.54828
 O130 O -0.04807 0.70948 0.45234
 O131 O -0.04828 0.79152 0.45261
 O132 O 0.04921 0.79121 0.54796
 O133 O 0.04755 0.79137 0.45076
 O134 O -0.04663 0.79156 0.54977
 Cu135 Cu 0.00035 0.70111 0.50031
 Cu136 Cu 0.00048 0.79969 0.50028
 C137 C -0.06382 0.75058 0.56537
 C138 C 0.06461 0.75031 0.43518
 C139 C 0.06550 0.75013 0.56434
 C140 C -0.06468 0.75055 0.43625
 O141 O 0.70938 0.45334 1.05024
 O142 O 0.71036 0.54817 0.95192
 O143 O 0.71006 0.45240 0.95310
 O144 O 0.70943 0.54916 1.04910
 O145 O 0.79142 0.54862 1.05009
 O146 O 0.79206 0.45246 0.95338
 O147 O 0.79233 0.54969 0.95432
 O148 O 0.79137 0.45130 1.04915
 Cu149 Cu 0.70153 0.50080 1.00103
 Cu150 Cu 0.80008 0.50050 1.00182
 C151 C 0.75021 0.43595 1.06603
 C152 C 0.75150 0.56525 0.93673
 C153 C 0.75115 0.43609 0.93686
 C154 C 0.75031 0.56525 1.06595
 O155 O 0.45535 1.05091 0.71046
 O156 O 0.54873 0.95105 0.71076
 O157 O 0.45284 0.95322 0.70949
 O158 O 0.55059 1.04812 0.71079
 O159 O 0.54841 1.04909 0.79271
 O160 O 0.45322 0.95139 0.79142
 O161 O 0.55038 0.95309 0.79267
 O162 O 0.45077 1.04697 0.79212
 Cu163 Cu 0.50186 1.00079 0.70211
 Cu164 Cu 0.50066 1.00014 0.80051
 C165 C 0.43667 1.06554 0.75116
 C166 C 0.56592 0.93568 0.75181
 C167 C 0.43668 0.93592 0.75018
 C168 C 0.56584 1.06498 0.75195
 C169 C 0.24776 0.21200 0.28477
 C170 C 0.21086 0.24940 0.28465
 C171 C 0.21134 0.28658 0.24757
 C172 C 0.24865 0.28668 0.21053
 C173 C 0.28562 0.24913 0.21100
 C174 C 0.28540 0.21168 0.24804
 C175 C 0.74872 0.78759 0.28878
 C176 C 0.71161 0.78758 0.25164
 C177 C 0.71192 0.75048 0.21450
 C178 C 0.74920 0.71345 0.21447
 C179 C 0.78623 0.71354 0.25165
 C180 C 0.78605 0.75059 0.28880
 C181 C 0.75110 0.21332 0.71449
 C182 C 0.78816 0.25049 0.71414
 C183 C 0.78826 0.28766 0.75120
 C184 C 0.75136 0.28772 0.78853
 C185 C 0.71432 0.25054 0.78877
 C186 C 0.71419 0.21329 0.75182
 C187 C 0.25212 0.78667 0.71158
 C188 C 0.28930 0.78659 0.74864
 C189 C 0.28940 0.74924 0.78561
 C190 C 0.25238 0.71202 0.78563
 C191 C 0.21519 0.71224 0.74856
 C192 C 0.21504 0.74951 0.71153
 C193 C 0.21410 0.24919 0.71111
 C194 C 0.25147 0.21198 0.71048
 C195 C 0.28890 0.21185 0.74783
 C196 C 0.28836 0.24886 0.78528
 C197 C 0.25096 0.28577 0.78567
 C198 C 0.21379 0.28598 0.74857
 C199 C 0.78868 0.75059 0.71418
 C200 C 0.75146 0.78791 0.71415
 C201 C 0.71449 0.78760 0.75163
 C202 C 0.71448 0.75039 0.78890
 C203 C 0.75193 0.71330 0.78847
 C204 C 0.78913 0.71315 0.75123
 C205 C 0.21162 0.74906 0.28577
 C206 C 0.24861 0.78637 0.28583
 C207 C 0.28576 0.78635 0.24869
 C208 C 0.28603 0.74921 0.21155
 C209 C 0.24896 0.71193 0.21166
 C210 C 0.21153 0.71161 0.24873
 C211 C 0.78503 0.25005 0.28794
 C212 C 0.78512 0.28727 0.25086
 C213 C 0.74795 0.28719 0.21369
 C214 C 0.71054 0.25013 0.21340
 C215 C 0.71075 0.21301 0.25082
 C216 C 0.74792 0.21287 0.28801
 N217 N 0.21677 0.09855 0.35508
 C218 C 0.24594 0.10326 0.39580
 N219 N 0.27552 0.14372 0.40009
 N220 N 0.27563 0.17857 0.36505
 C221 C 0.24707 0.17353 0.32393
 N222 N 0.21765 0.13291 0.31952
 N223 N 0.71490 0.86005 0.39995
 C224 C 0.74890 0.89713 0.39901
 N225 N 0.78271 0.89831 0.36178
 N226 N 0.78226 0.86383 0.32643
 C227 C 0.74862 0.82642 0.32761
 N228 N 0.71509 0.82501 0.36513
 N229 N 0.71650 0.14063 0.60377
 C230 C 0.75013 0.10315 0.60489
 N231 N 0.78416 0.10191 0.64194
 N232 N 0.78418 0.13669 0.67702
 C233 C 0.75085 0.17446 0.67568
 N234 N 0.71717 0.17595 0.63830
 N235 N 0.28520 0.86063 0.60100
 C236 C 0.25084 0.89746 0.60229
 N237 N 0.21701 0.89795 0.63953
 N238 N 0.21782 0.86309 0.67456
 C239 C 0.25179 0.82590 0.67301
 N240 N 0.28536 0.82520 0.63550
 N241 N 0.40150 0.27710 0.14395
 C242 C 0.39625 0.24962 0.10216
 N243 N 0.35473 0.22186 0.09619
 N244 N 0.31932 0.22203 0.13062
 C245 C 0.32476 0.24915 0.17265
 N246 N 0.36656 0.27649 0.17886
 N247 N 0.40046 0.71578 0.85854
 C248 C 0.39891 0.74946 0.89588
 N249 N 0.36138 0.78304 0.89701
 N250 N 0.32631 0.78263 0.86222
 C251 C 0.32811 0.74931 0.82456
 N252 N 0.36593 0.71603 0.82321
 N253 N 0.64016 0.78395 0.10275
 C254 C 0.60306 0.74998 0.10359
 N255 N 0.60162 0.71628 0.14095
 N256 N 0.63588 0.71683 0.17654
 C257 C 0.67329 0.75047 0.17546
 N258 N 0.67498 0.78385 0.13780
 N259 N 0.60287 0.28449 0.86080
 C260 C 0.60383 0.25064 0.89805
 N261 N 0.64119 0.21688 0.89953
 N262 N 0.67666 0.21726 0.86515
 C263 C 0.67544 0.25075 0.82756
 N264 N 0.63779 0.28421 0.82586
 N265 N 0.09721 0.35662 0.21879
 C266 C 0.10176 0.39681 0.24870
 N267 N 0.14226 0.40076 0.27829
 N268 N 0.17739 0.36595 0.27754
 C269 C 0.17269 0.32556 0.24789
 N270 N 0.13184 0.32130 0.21879
 N271 N 0.89925 0.36065 0.78431
 C272 C 0.89791 0.39778 0.75032
 N273 N 0.86054 0.39877 0.71664
 N274 N 0.82540 0.36405 0.71726
 C275 C 0.82699 0.32659 0.75090
 N276 N 0.86466 0.32539 0.78427
 N277 N 0.14171 0.60169 0.71483
 C278 C 0.10458 0.60304 0.74877
 N279 N 0.10380 0.64024 0.78263
 N280 N 0.13869 0.67519 0.78225
 C281 C 0.17616 0.67358 0.74867
 N282 N 0.17715 0.63610 0.71510
 N283 N 0.89747 0.64114 0.21752
 C284 C 0.89647 0.60374 0.25122
 N285 N 0.85935 0.60248 0.28516
 N286 N 0.82409 0.63716 0.28503
 C287 C 0.82529 0.67483 0.25162
 N288 N 0.86275 0.67636 0.21805
 N289 N 0.14140 0.28327 0.59997
 C290 C 0.10316 0.25061 0.60208
 N291 N 0.10124 0.21771 0.64013
 N292 N 0.13619 0.21766 0.67506
 C293 C 0.17490 0.24972 0.67254
 N294 N 0.17689 0.28253 0.63437
 N295 N 0.90367 0.77847 0.64538
 C296 C 0.89800 0.75064 0.60386
 N297 N 0.85641 0.72285 0.59857
 N298 N 0.82138 0.72325 0.63341
 C299 C 0.82727 0.75066 0.67520
 N300 N 0.86912 0.77808 0.68071
 N301 N 0.09825 0.77988 0.35618
 C302 C 0.10272 0.75017 0.39659
 N303 N 0.14300 0.72019 0.40063
 N304 N 0.17787 0.72022 0.36562
 C305 C 0.17306 0.74937 0.32483
 N306 N 0.13261 0.77914 0.32067
 N307 N 0.89806 0.21811 0.35857
 C308 C 0.89551 0.25006 0.39735
 N309 N 0.85661 0.28195 0.40024
 N310 N 0.82120 0.28154 0.36578
 C311 C 0.82398 0.24995 0.32670
 N312 N 0.86317 0.21842 0.32357
 N313 N 0.28912 0.39289 0.86236
 C314 C 0.25204 0.39530 0.89631
 N315 N 0.21479 0.36157 0.89411
 N316 N 0.21472 0.32653 0.85930
 C317 C 0.25129 0.32458 0.82476
 N318 N 0.28854 0.35837 0.82701
 N319 N 0.71970 0.40193 0.14441
 C320 C 0.74978 0.39755 0.10432
 N321 N 0.77932 0.35695 0.10019
 N322 N 0.77835 0.32158 0.13472
 C323 C 0.74851 0.32610 0.17499
 N324 N 0.71949 0.36706 0.17945
 N325 N 0.77984 0.64490 0.90368
 C326 C 0.75184 0.60345 0.89827
 N327 N 0.72404 0.59800 0.85671
 N328 N 0.72456 0.63266 0.82147
 C329 C 0.75211 0.67441 0.82713
 N330 N 0.77957 0.68005 0.86892
 N331 N 0.22046 0.64220 0.09742
 C332 C 0.25080 0.60220 0.10168
 N333 N 0.28068 0.59833 0.14200
 N334 N 0.27975 0.63298 0.17721
 C335 C 0.24962 0.67316 0.17282
 N336 N 0.22029 0.67737 0.13212
 N337 N 0.37031 0.10931 0.79049
 C338 C 0.40036 0.10224 0.75072
 N339 N 0.39417 0.13158 0.71028
 N340 N 0.35951 0.16683 0.70980
 C341 C 0.32823 0.17285 0.74874
 N342 N 0.33452 0.14346 0.78920
 N343 N 0.35660 0.89928 0.21715
 C344 C 0.39516 0.89676 0.24940
 N345 N 0.39785 0.85790 0.28132
 N346 N 0.36339 0.82250 0.28067
 C347 C 0.32451 0.82527 0.24880
 N348 N 0.32160 0.86442 0.21721
 N349 N 0.59697 0.14323 0.28133
 C350 C 0.60097 0.10307 0.25125
 N351 N 0.64123 0.09884 0.22136
 N352 N 0.67647 0.13346 0.22174
 C353 C 0.67210 0.17405 0.25121
 N354 N 0.63171 0.17837 0.28096
 N355 N 0.64598 0.90291 0.77954
 C356 C 0.60427 0.89728 0.75196
 N357 N 0.59876 0.85560 0.72430
 N358 N 0.63358 0.82046 0.72462
 C359 C 0.67556 0.82633 0.75178
 N360 N 0.68128 0.86825 0.77906
 N361 N 0.79344 0.88499 0.62577
 C362 C 0.75039 0.89861 0.60344
 N363 N 0.70771 0.87589 0.61742
 N364 N 0.70819 0.84063 0.65205
 C365 C 0.75110 0.82720 0.67483
 N366 N 0.79366 0.85034 0.66102
 N367 N 0.20715 0.37503 0.11329
 C368 C 0.25017 0.39769 0.10032
 N369 N 0.29269 0.38398 0.12356
 N370 N 0.29207 0.34926 0.15872
 C371 C 0.24918 0.32615 0.17149
 N372 N 0.20681 0.33969 0.14782
 N373 N 0.28944 0.13039 0.60646
 C374 C 0.24835 0.10228 0.59929
 N375 N 0.20797 0.11065 0.62821
 N376 N 0.20926 0.14487 0.66385
 C377 C 0.25041 0.17299 0.67116
 N378 N 0.29000 0.16565 0.64101
 N379 N 0.28884 0.86853 0.38826
 C380 C 0.24783 0.89669 0.39607
 N381 N 0.20704 0.88866 0.36773
 N382 N 0.20743 0.85394 0.33258
 C383 C 0.24835 0.82553 0.32482
 N384 N 0.28894 0.83339 0.35355
 N385 N 0.70717 0.13079 0.39041
 C386 C 0.74826 0.10280 0.39858
 N387 N 0.78911 0.11078 0.37034
 N388 N 0.78881 0.14538 0.33505
 C389 C 0.74794 0.17378 0.32708
 N390 N 0.70715 0.16582 0.35553
 N391 N 0.62594 0.79285 0.88567
 C392 C 0.60340 0.74991 0.89920
 N393 N 0.61740 0.70710 0.87666
 N394 N 0.65222 0.70737 0.84161
 C395 C 0.67517 0.75019 0.82822
 N396 N 0.66137 0.79285 0.85124
 N397 N 0.12911 0.29116 0.38673
 C398 C 0.10138 0.25011 0.39549
 N399 N 0.10938 0.20891 0.36774
 N400 N 0.14375 0.20888 0.33229
 C401 C 0.17183 0.24977 0.32367
 N402 N 0.16392 0.29085 0.35170
 N403 N 0.61361 0.29303 0.12522
 C404 C 0.60046 0.25026 0.10216
 N405 N 0.62337 0.20745 0.11567
 N406 N 0.65840 0.20755 0.15051
 C407 C 0.67138 0.25017 0.17400
 N408 N 0.64802 0.29284 0.16068
 N409 N 0.39831 0.28418 0.85916
 C410 C 0.39739 0.25019 0.89631
 N411 N 0.36057 0.21592 0.89709
 N412 N 0.32570 0.21581 0.86210
 C413 C 0.32706 0.24921 0.82442
 N414 N 0.36398 0.28343 0.82360
 N415 N 0.38876 0.70820 0.12990
 C416 C 0.39695 0.74919 0.10183
 N417 N 0.36869 0.79014 0.10969
 N418 N 0.33333 0.78998 0.14419
 C419 C 0.32530 0.74918 0.17263
 N420 N 0.35381 0.70833 0.16483
 N421 N 0.87695 0.61609 0.70768
 C422 C 0.89990 0.60228 0.75031
 N423 N 0.88648 0.62481 0.79327
 N424 N 0.85181 0.66010 0.79345
 C425 C 0.82845 0.67376 0.75094
 N426 N 0.84168 0.65077 0.70812
 N427 N 0.37384 0.11474 0.20606
 C428 C 0.39622 0.10122 0.24908
 N429 N 0.38217 0.12387 0.29175
 N430 N 0.34742 0.15902 0.29128
 C431 C 0.32459 0.17236 0.24841
 N432 N 0.33846 0.14927 0.20586
 N433 N 0.12394 0.61439 0.29179
 C434 C 0.10086 0.60104 0.24913
 N435 N 0.11422 0.62387 0.20629
 N436 N 0.14892 0.65903 0.20628
 C437 C 0.17238 0.67224 0.24882
 N438 N 0.15925 0.64892 0.29150
 N439 N 0.86764 0.38940 0.29134
 C440 C 0.89564 0.39735 0.25030
 N441 N 0.88738 0.36919 0.20945
 N442 N 0.85262 0.33410 0.20978
 C443 C 0.82434 0.32623 0.25070
 N444 N 0.83244 0.35474 0.29138
 N445 N 0.10777 0.36448 0.78698
 C446 C 0.10362 0.39647 0.74833
 N447 N 0.13540 0.39197 0.70957
 N448 N 0.17054 0.35713 0.70982
 C449 C 0.17475 0.32506 0.74846
 N450 N 0.14238 0.32914 0.78679
 N451 N 0.89091 0.79022 0.36766
 C452 C 0.89664 0.75063 0.39824
 N453 N 0.86602 0.71108 0.39297
 N454 N 0.83062 0.71130 0.35854
 C455 C 0.82505 0.75069 0.32764
 N456 N 0.85599 0.79004 0.33274
 N457 N 0.89193 0.21074 0.63375
 C458 C 0.89736 0.25043 0.60328
 N459 N 0.86696 0.29014 0.60918
 N460 N 0.83207 0.28997 0.64413
 C461 C 0.82682 0.25048 0.67494
 N462 N 0.85753 0.21095 0.66918
 N463 N 0.10980 0.78939 0.63310
 C464 C 0.10419 0.74999 0.60235
 N465 N 0.13498 0.71045 0.60740
 N466 N 0.17043 0.71051 0.64177
 C467 C 0.17590 0.74973 0.67283
 N468 N 0.14477 0.78905 0.66797
 N469 N 0.71034 0.60892 0.13477
 C470 C 0.75002 0.60358 0.10431
 N471 N 0.78942 0.63432 0.10997
 N472 N 0.78895 0.66944 0.14467
 C473 C 0.74948 0.67459 0.17548
 N474 N 0.71027 0.64354 0.16997
 N475 N 0.29208 0.60765 0.86563
 C476 C 0.25228 0.60190 0.89587
 N477 N 0.21257 0.63230 0.88995
 N478 N 0.21281 0.66746 0.85523
 C479 C 0.25238 0.67303 0.82463
 N480 N 0.29195 0.64235 0.83043
 N481 N 0.79100 0.36735 0.89279
 C482 C 0.75130 0.39781 0.89845
 N483 N 0.71169 0.39221 0.86797
 N484 N 0.71193 0.35756 0.83281
 C485 C 0.75142 0.32676 0.82733
 N486 N 0.79087 0.33221 0.85810
 N487 N 0.63164 0.89171 0.21151
 C488 C 0.60113 0.89747 0.25108
 N489 N 0.60692 0.86721 0.29089
 N490 N 0.64177 0.83212 0.29090
 C491 C 0.67257 0.82651 0.25150
 N492 N 0.66695 0.85711 0.21190
 N493 N 0.63454 0.10902 0.79179
 C494 C 0.60404 0.10344 0.75220
 N495 N 0.60965 0.13392 0.71256
 N496 N 0.64434 0.16904 0.71267
 C497 C 0.67521 0.17443 0.75202
 N498 N 0.66974 0.14366 0.79150
 N499 N 0.36794 0.89128 0.78913
 C500 C 0.39844 0.89747 0.74962
 N501 N 0.39311 0.86730 0.70975
 N502 N 0.35871 0.83187 0.70960
 C503 C 0.32791 0.82582 0.74895
 N504 N 0.33305 0.85635 0.78860
   
