data_POSCAR
  _audit_creation_date              2014-09-24
  _audit_creation_method            'ToBaCCo'
  _symmetry_space_group_name_H-M    'P1'
  _symmetry_Int_Tables_number       1
  _symmetry_cell_setting            triclinic
  loop_
  _symmetry_equiv_pos_as_xyz
 x,y,z
_cell_length_a 44.9697
_cell_length_b 44.1750
_cell_length_c 8.8682
_cell_angle_alpha 90.360500
_cell_angle_beta 89.992000
_cell_angle_gamma 90.070400
loop_
  _atom_site_label
  _atom_site_type_symbol
  _atom_site_fract_x
  _atom_site_fract_y
  _atom_site_fract_z
O1 O 0.22611 0.27855 0.09768
 O2 O 0.28277 0.21984 0.15921
 O3 O 0.22609 0.21965 0.09839
 O4 O 0.28277 0.27869 0.15857
 O5 O 0.27276 0.27910 0.40275
 O6 O 0.21609 0.22007 0.34253
 O7 O 0.27276 0.22022 0.40339
 O8 O 0.21610 0.27893 0.34185
 Cu9 Cu 0.25547 0.24914 0.10397
 Cu10 Cu 0.24339 0.24962 0.39712
 C11 C 0.21150 0.28861 0.20958
 C12 C 0.28738 0.21017 0.29148
 C13 C 0.21147 0.20994 0.21047
 C14 C 0.28738 0.28882 0.29064
 O15 O 0.78281 0.27901 0.33852
 O16 O 0.72619 0.22016 0.40075
 O17 O 0.78284 0.22016 0.33921
 O18 O 0.72618 0.27904 0.40002
 O19 O 0.71607 0.27860 0.15597
 O20 O 0.77273 0.21971 0.09515
 O21 O 0.71608 0.21973 0.15673
 O22 O 0.77271 0.27859 0.09447
 Cu23 Cu 0.75555 0.24963 0.39411
 Cu24 Cu 0.74334 0.24911 0.10109
 C25 C 0.78737 0.28869 0.20619
 C26 C 0.71152 0.21006 0.28907
 C27 C 0.78740 0.21005 0.20708
 C28 C 0.71152 0.28872 0.28809
 O29 O 0.72740 0.77982 0.59778
 O30 O 0.78386 0.72094 0.65995
 O31 O 0.72721 0.72093 0.59893
 O32 O 0.78407 0.77980 0.65888
 O33 O 0.77403 0.78032 0.90298
 O34 O 0.71716 0.72145 0.84306
 O35 O 0.77382 0.72143 0.90409
 O36 O 0.71736 0.78031 0.84192
 Cu37 Cu 0.75668 0.75032 0.60440
 Cu38 Cu 0.74455 0.75093 0.89751
 C39 C 0.71280 0.78995 0.70954
 C40 C 0.78841 0.71128 0.79230
 C41 C 0.71254 0.71130 0.71105
 C42 C 0.78870 0.78995 0.79088
 O43 O 0.22637 0.72143 0.90485
 O44 O 0.28298 0.78028 0.84202
 O45 O 0.22634 0.78032 0.90381
 O46 O 0.28300 0.72143 0.84316
 O47 O 0.27286 0.72092 0.59914
 O48 O 0.21619 0.77981 0.65982
 O49 O 0.27283 0.77980 0.59801
 O50 O 0.21623 0.72095 0.66083
 Cu51 Cu 0.25572 0.75092 0.89795
 Cu52 Cu 0.24347 0.75032 0.60497
 C53 C 0.21170 0.71130 0.79324
 C54 C 0.28752 0.78992 0.70959
 C55 C 0.21165 0.78996 0.79190
 C56 C 0.28754 0.71128 0.71108
 O57 O 1.02926 -0.03424 0.09077
 O58 O 0.97134 0.02332 0.15255
 O59 O 0.97138 -0.03429 0.08986
 O60 O 1.02925 0.02338 0.15366
 O61 O 1.02940 0.03360 -0.09015
 O62 O 0.97153 -0.02408 -0.15395
 O63 O 0.97152 0.03353 -0.09127
 O64 O 1.02944 -0.02402 -0.15304
 Cu65 Cu 1.00029 -0.00652 0.14617
 Cu66 Cu 1.00050 0.00582 -0.14656
 C67 C 1.03914 -0.03884 -0.04133
 C68 C 0.96163 0.03812 0.04081
 C69 C 0.96167 -0.03890 -0.04255
 C70 C 1.03910 0.03822 0.04228
 O71 O 0.52866 0.46628 0.59065
 O72 O 0.47087 0.52392 0.65377
 O73 O 0.47079 0.46632 0.59065
 O74 O 0.52878 0.52389 0.65389
 O75 O 0.52880 0.53418 0.41016
 O76 O 0.47081 0.47660 0.34690
 O77 O 0.47092 0.53420 0.41002
 O78 O 0.52871 0.47657 0.34691
 Cu79 Cu 0.49977 0.49404 0.64670
 Cu80 Cu 0.49981 0.50646 0.35404
 C81 C 0.53844 0.46170 0.45835
 C82 C 0.46112 0.53878 0.54230
 C83 C 0.46101 0.46174 0.45834
 C84 C 0.53858 0.53874 0.54247
 O85 O -0.02915 0.53380 0.09243
 O86 O 0.02862 0.47624 0.15388
 O87 O 0.02871 0.53380 0.09316
 O88 O -0.02928 0.47623 0.15290
 O89 O -0.02913 0.46576 -0.09130
 O90 O 0.02885 0.52332 -0.15103
 O91 O 0.02874 0.46576 -0.09031
 O92 O -0.02904 0.52333 -0.15176
 Cu93 Cu -0.00029 0.50610 0.14762
 Cu94 Cu -0.00013 0.49345 -0.14562
 C95 C -0.03885 0.53828 -0.03982
 C96 C 0.03844 0.46128 0.04194
 C97 C 0.03857 0.53828 -0.03882
 C98 C -0.03900 0.46129 0.04066
 O99 O 0.52935 0.97693 0.65187
 O100 O 0.47142 1.03434 0.59038
 O101 O 0.47144 0.97683 0.65179
 O102 O 0.52931 1.03445 0.59030
 O103 O 0.52933 1.02382 0.34628
 O104 O 0.47147 0.96620 0.40776
 O105 O 0.47142 1.02370 0.34635
 O106 O 0.52935 0.96629 0.40785
 Cu107 Cu 0.50038 1.00674 0.64560
 Cu108 Cu 0.50040 0.99390 0.35254
 C109 C 0.53914 0.96193 0.54004
 C110 C 0.46162 1.03869 0.45822
 C111 C 0.46167 0.96181 0.53992
 C112 C 0.53910 1.03885 0.45811
 C113 C 1.10366 0.10224 0.10731
 C114 C 1.09580 0.13321 0.11843
 C115 C 1.11828 0.15549 0.13906
 C116 C 1.14849 0.14666 0.14865
 C117 C 1.15635 0.11569 0.13768
 C118 C 1.13386 0.09341 0.11682
 C119 C 1.14226 0.06260 0.10585
 C120 C 1.17201 0.05404 0.11537
 C121 C 1.19399 0.07582 0.13600
 C122 C 1.18638 0.10633 0.14707
 C123 C 1.10989 0.18632 0.14966
 C124 C 1.08013 0.19488 0.14022
 C125 C 1.05814 0.17308 0.12016
 C126 C 1.06575 0.14257 0.10931
 C127 C 1.17142 0.16942 0.17028
 C128 C 1.19035 0.18843 0.18880
 C129 C 1.08072 0.07950 0.08525
 C130 C 1.06169 0.06064 0.06619
 H131 H 1.12597 0.04482 0.08986
 H132 H 1.17804 0.03037 0.10671
 H133 H 1.21708 0.06906 0.14344
 H134 H 1.20427 0.12243 0.16300
 H135 H 1.12618 0.20411 0.16529
 H136 H 1.07411 0.21855 0.14854
 H137 H 1.03506 0.17984 0.11295
 H138 H 1.04785 0.12646 0.09374
 C139 C 0.60328 0.60264 0.60710
 C140 C 0.59544 0.63358 0.62050
 C141 C 0.61798 0.65581 0.64109
 C142 C 0.64820 0.64696 0.64835
 C143 C 0.65603 0.61602 0.63510
 C144 C 0.63350 0.59379 0.61428
 C145 C 0.64187 0.56300 0.60100
 C146 C 0.67164 0.55441 0.60823
 C147 C 0.69367 0.57615 0.62882
 C148 C 0.68609 0.60663 0.64215
 C149 C 0.60961 0.68661 0.65399
 C150 C 0.57984 0.69519 0.64681
 C151 C 0.55780 0.67345 0.62678
 C152 C 0.56538 0.64296 0.61370
 C153 C 0.67119 0.66967 0.66988
 C154 C 0.69017 0.68862 0.68827
 C155 C 0.58028 0.57995 0.58514
 C156 C 0.56121 0.56112 0.56619
 H157 H 0.62554 0.54526 0.58494
 H158 H 0.67764 0.53076 0.59781
 H159 H 0.71676 0.56936 0.63447
 H160 H 0.70402 0.62269 0.65796
 H161 H 0.62594 0.70436 0.66970
 H162 H 0.57384 0.71885 0.65687
 H163 H 0.53470 0.68022 0.62133
 H164 H 0.54744 0.62689 0.59825
 C165 C -0.10363 0.39735 0.10191
 C166 C -0.09571 0.36650 0.11699
 C167 C -0.11820 0.34425 0.13709
 C168 C -0.14847 0.35301 0.14217
 C169 C -0.15640 0.38385 0.12695
 C170 C -0.13391 0.40609 0.10663
 C171 C -0.14237 0.43678 0.09142
 C172 C -0.17219 0.44526 0.09628
 C173 C -0.19418 0.42352 0.11638
 C174 C -0.18651 0.39313 0.13158
 C175 C -0.10974 0.31355 0.15178
 C176 C -0.07991 0.30507 0.14679
 C177 C -0.05792 0.32682 0.12723
 C178 C -0.06559 0.35722 0.11244
 C179 C -0.17141 0.33030 0.16387
 C180 C -0.19034 0.31136 0.18265
 C181 C -0.08067 0.42005 0.08101
 C182 C -0.06162 0.43890 0.06308
 H183 H -0.12607 0.45453 0.07564
 H184 H -0.17826 0.46884 0.08441
 H185 H -0.21732 0.43022 0.12018
 H186 H -0.20441 0.37705 0.14689
 H187 H -0.12604 0.29579 0.16718
 H188 H -0.07385 0.28148 0.15818
 H189 H -0.03478 0.32013 0.12347
 H190 H -0.04768 0.37330 0.09742
 C191 C 0.39688 0.89811 0.60301
 C192 C 0.40466 0.86721 0.61750
 C193 C 0.38208 0.84508 0.63815
 C194 C 0.35186 0.85400 0.64440
 C195 C 0.34408 0.88489 0.62980
 C196 C 0.36665 0.90702 0.60892
 C197 C 0.35833 0.93776 0.59434
 C198 C 0.32856 0.94640 0.60034
 C199 C 0.30649 0.92477 0.62099
 C200 C 0.31402 0.89434 0.63559
 C201 C 0.39040 0.81432 0.65219
 C202 C 0.42017 0.80568 0.64605
 C203 C 0.44225 0.82733 0.62597
 C204 C 0.43472 0.85777 0.61178
 C205 C 0.32883 0.83141 0.66660
 C206 C 0.30986 0.81253 0.68573
 C207 C 0.41993 0.92070 0.58147
 C208 C 0.43903 0.93947 0.56298
 H209 H 0.37470 0.95543 0.57817
 H210 H 0.32260 0.97002 0.58893
 H211 H 0.28339 0.93159 0.62568
 H212 H 0.29606 0.87835 0.65137
 H213 H 0.37403 0.79665 0.66796
 H214 H 0.42613 0.78206 0.65695
 H215 H 0.46535 0.82051 0.62132
 H216 H 0.45269 0.87376 0.59632
 C217 C -0.10314 0.60234 -0.10283
 C218 C -0.09507 0.63321 -0.11623
 C219 C -0.11744 0.65552 -0.13664
 C220 C -0.14773 0.64681 -0.14369
 C221 C -0.15580 0.61595 -0.13031
 C222 C -0.13343 0.59364 -0.10969
 C223 C -0.14203 0.56293 -0.09634
 C224 C -0.17187 0.55450 -0.10330
 C225 C -0.19374 0.57630 -0.12368
 C226 C -0.18593 0.60671 -0.13708
 C227 C -0.10884 0.68623 -0.14961
 C228 C -0.07899 0.69467 -0.14268
 C229 C -0.05712 0.67285 -0.12282
 C230 C -0.06493 0.64244 -0.10967
 C231 C -0.17055 0.66958 -0.16544
 C232 C -0.18938 0.68857 -0.18421
 C233 C -0.08031 0.57958 -0.08136
 C234 C -0.06136 0.56070 -0.06290
 H235 H -0.12583 0.54514 -0.08042
 H236 H -0.17805 0.53091 -0.09283
 H237 H -0.21689 0.56963 -0.12913
 H238 H -0.20374 0.62283 -0.15271
 H239 H -0.12503 0.70404 -0.16517
 H240 H -0.07282 0.71826 -0.15280
 H241 H -0.03396 0.67951 -0.11756
 H242 H -0.04712 0.62631 -0.09437
 C243 C 0.39680 1.10220 0.39538
 C244 C 0.40455 1.13316 0.38278
 C245 C 0.38196 1.15524 0.36259
 C246 C 0.35176 1.14621 0.35490
 C247 C 0.34401 1.11525 0.36744
 C248 C 0.36660 1.09317 0.38787
 C249 C 0.35831 1.06236 0.40038
 C250 C 0.32857 1.05360 0.39279
 C251 C 0.30648 1.07519 0.37259
 C252 C 0.31398 1.10569 0.36002
 C253 C 0.39024 1.18606 0.35046
 C254 C 0.41999 1.19482 0.35798
 C255 C 0.44208 1.17322 0.37761
 C256 C 0.43458 1.14272 0.38994
 C257 C 0.32872 1.16876 0.33336
 C258 C 0.30973 1.18760 0.31477
 C259 C 0.41985 1.07966 0.41675
 C260 C 0.43896 1.06095 0.43517
 H261 H 0.37469 1.04473 0.41610
 H262 H 0.32263 1.02994 0.40261
 H263 H 0.28340 1.06828 0.36665
 H264 H 0.29601 1.12164 0.34451
 H265 H 0.37386 1.20371 0.33511
 H266 H 0.42592 1.21849 0.34851
 H267 H 0.46516 1.18013 0.38332
 H268 H 0.45256 1.12676 0.40510
 C269 C 1.10377 -0.10270 -0.10463
 C270 C 1.09589 -0.13365 -0.11792
 C271 C 1.11840 -0.15586 -0.13842
 C272 C 1.14863 -0.14697 -0.14572
 C273 C 1.15651 -0.11602 -0.13239
 C274 C 1.13400 -0.09382 -0.11166
 C275 C 1.14241 -0.06302 -0.09833
 C276 C 1.17220 -0.05440 -0.10542
 C277 C 1.19420 -0.07612 -0.12592
 C278 C 1.18658 -0.10660 -0.13930
 C279 C 1.10999 -0.18667 -0.15123
 C280 C 1.08021 -0.19528 -0.14405
 C281 C 1.05820 -0.17356 -0.12411
 C282 C 1.06582 -0.14307 -0.11112
 C283 C 1.17159 -0.16965 -0.16752
 C284 C 1.19052 -0.18859 -0.18622
 C285 C 1.08080 -0.08003 -0.08306
 C286 C 1.06175 -0.06121 -0.06451
 H287 H 1.12611 -0.04529 -0.08233
 H288 H 1.17823 -0.03075 -0.09496
 H289 H 1.21731 -0.06931 -0.13145
 H290 H 1.20449 -0.12265 -0.15502
 H291 H 1.12630 -0.20441 -0.16684
 H292 H 1.07418 -0.21894 -0.15402
 H293 H 1.03508 -0.18036 -0.11865
 H294 H 1.04790 -0.12701 -0.09574
 C295 C 0.60281 0.39763 0.39355
 C296 C 0.59479 0.36674 0.37873
 C297 C 0.61720 0.34445 0.35785
 C298 C 0.64749 0.35319 0.35175
 C299 C 0.65550 0.38408 0.36649
 C300 C 0.63309 0.40637 0.38759
 C301 C 0.64164 0.43710 0.40237
 C302 C 0.67148 0.44557 0.39632
 C303 C 0.69339 0.42378 0.37545
 C304 C 0.68563 0.39335 0.36066
 C305 C 0.60865 0.31370 0.34349
 C306 C 0.57881 0.30524 0.34953
 C307 C 0.55690 0.32704 0.36985
 C308 C 0.56466 0.35747 0.38436
 C309 C 0.67035 0.33042 0.32988
 C310 C 0.68924 0.31143 0.31120
 C311 C 0.57994 0.42038 0.41563
 C312 C 0.56096 0.43927 0.43463
 H313 H 0.62541 0.45488 0.41871
 H314 H 0.67762 0.46918 0.40788
 H315 H 0.71654 0.43047 0.37071
 H316 H 0.70347 0.37723 0.34469
 H317 H 0.62488 0.29591 0.32750
 H318 H 0.57267 0.28162 0.33836
 H319 H 0.53374 0.32036 0.37443
 H320 H 0.54681 0.37360 0.39999
 C321 C 0.89691 -0.10274 -0.10698
 C322 C 0.90467 -0.13373 -0.11859
 C323 C 0.88210 -0.15593 -0.13890
 C324 C 0.85191 -0.14700 -0.14769
 C325 C 0.84416 -0.11601 -0.13619
 C326 C 0.86673 -0.09381 -0.11565
 C327 C 0.85844 -0.06297 -0.10414
 C328 C 0.82870 -0.05431 -0.11280
 C329 C 0.80664 -0.07602 -0.13312
 C330 C 0.81414 -0.10654 -0.14472
 C331 C 0.89038 -0.18678 -0.14997
 C332 C 0.92012 -0.19544 -0.14130
 C333 C 0.94220 -0.17372 -0.12157
 C334 C 0.93469 -0.14319 -0.11026
 C335 C 0.82889 -0.16967 -0.16914
 C336 C 0.80989 -0.18861 -0.18754
 C337 C 0.91995 -0.08009 -0.08523
 C338 C 0.93904 -0.06127 -0.06635
 H339 H 0.87480 -0.04525 -0.08837
 H340 H 0.82276 -0.03063 -0.10373
 H341 H 0.78357 -0.06918 -0.13989
 H342 H 0.79619 -0.12258 -0.16037
 H343 H 0.87402 -0.20451 -0.16536
 H344 H 0.92606 -0.21913 -0.14997
 H345 H 0.96527 -0.18056 -0.11496
 H346 H 0.95266 -0.12715 -0.09497
 C347 C 0.39641 0.39775 0.39401
 C348 C 0.40430 0.36681 0.38127
 C349 C 0.38181 0.34452 0.36093
 C350 C 0.35157 0.35332 0.35325
 C351 C 0.34368 0.38426 0.36585
 C352 C 0.36617 0.40654 0.38642
 C353 C 0.35775 0.43732 0.39902
 C354 C 0.32797 0.44585 0.39139
 C355 C 0.30598 0.42407 0.37106
 C356 C 0.31362 0.39359 0.35839
 C357 C 0.39023 0.31373 0.34870
 C358 C 0.42001 0.30520 0.35626
 C359 C 0.44201 0.32700 0.37602
 C360 C 0.43437 0.35748 0.38847
 C361 C 0.32863 0.33055 0.33185
 C362 C 0.30970 0.31156 0.31349
 C363 C 0.41936 0.42048 0.41579
 C364 C 0.43840 0.43935 0.43465
 H365 H 0.37405 0.45511 0.41485
 H366 H 0.32193 0.46950 0.40128
 H367 H 0.28287 0.43080 0.36509
 H368 H 0.29572 0.37748 0.34277
 H369 H 0.37393 0.29593 0.33324
 H370 H 0.42605 0.28155 0.34671
 H371 H 0.46512 0.32027 0.38176
 H372 H 0.45228 0.37360 0.40372
 C373 C 0.10303 0.60237 -0.10087
 C374 C 0.13328 0.59365 -0.10910
 C375 C 0.15569 0.61595 -0.12983
 C376 C 0.14771 0.64684 -0.14196
 C377 C 0.11746 0.65557 -0.13346
 C378 C 0.09505 0.63326 -0.11294
 C379 C 0.06495 0.64252 -0.10497
 C380 C 0.05722 0.67296 -0.11685
 C381 C 0.07914 0.69478 -0.13680
 C382 C 0.10895 0.68632 -0.14511
 C383 C 0.18578 0.60669 -0.13801
 C384 C 0.19351 0.57626 -0.12588
 C385 C 0.17159 0.55445 -0.10538
 C386 C 0.14179 0.56291 -0.09704
 C387 C 0.17057 0.66961 -0.16399
 C388 C 0.18944 0.68860 -0.18299
 C389 C 0.08014 0.57960 -0.07956
 C390 C 0.06115 0.56071 -0.06136
 H391 H 0.04710 0.62639 -0.08952
 H392 H 0.03410 0.67963 -0.11051
 H393 H 0.07303 0.71839 -0.14591
 H394 H 0.12519 0.70413 -0.16069
 H395 H 0.20362 0.62282 -0.15379
 H396 H 0.21663 0.56957 -0.13240
 H397 H 0.17771 0.53084 -0.09590
 H398 H 0.12556 0.54512 -0.08109
 C399 C 0.60369 1.10273 0.39451
 C400 C 0.59580 1.13360 0.38002
 C401 C 0.61829 1.15581 0.35916
 C402 C 0.64854 1.14701 0.35274
 C403 C 0.65644 1.11614 0.36726
 C404 C 0.63394 1.09393 0.38834
 C405 C 0.64237 1.06322 0.40283
 C406 C 0.67218 1.05469 0.39655
 C407 C 0.69417 1.07640 0.37572
 C408 C 0.68652 1.10680 0.36120
 C409 C 0.60986 1.18654 0.34512
 C410 C 0.58006 1.19507 0.35143
 C411 C 0.55806 1.17335 0.37172
 C412 C 0.56571 1.14294 0.38592
 C413 C 0.67149 1.16968 0.33054
 C414 C 0.69041 1.18862 0.31145
 C415 C 0.58073 1.08006 0.41631
 C416 C 0.56169 1.06124 0.43496
 H417 H 0.62608 1.04550 0.41913
 H418 H 0.67822 1.03109 0.40789
 H419 H 0.71729 1.06966 0.37081
 H420 H 0.70443 1.12286 0.34526
 H421 H 0.62616 1.20427 0.32918
 H422 H 0.57402 1.21867 0.34050
 H423 H 0.53494 1.18009 0.37650
 H424 H 0.54780 1.12688 0.40153
 C425 C 0.10281 0.39731 0.10513
 C426 C 0.13310 0.40606 0.11132
 C427 C 0.15550 0.38380 0.13194
 C428 C 0.14749 0.35294 0.14600
 C429 C 0.11720 0.34419 0.13964
 C430 C 0.09479 0.36645 0.11924
 C431 C 0.06466 0.35717 0.11340
 C432 C 0.05690 0.32676 0.12723
 C433 C 0.07881 0.30499 0.14705
 C434 C 0.10865 0.31347 0.15329
 C435 C 0.18563 0.39309 0.13802
 C436 C 0.19339 0.42349 0.12396
 C437 C 0.17148 0.44525 0.10358
 C438 C 0.14165 0.43677 0.09729
 C439 C 0.17035 0.33021 0.16767
 C440 C 0.18923 0.31126 0.18632
 C441 C 0.07994 0.42003 0.08358
 C442 C 0.06096 0.43889 0.06505
 H443 H 0.04681 0.37327 0.09814
 H444 H 0.03375 0.32007 0.12250
 H445 H 0.07267 0.28139 0.15769
 H446 H 0.12488 0.29569 0.16887
 H447 H 0.20347 0.37699 0.15362
 H448 H 0.21654 0.43019 0.12887
 H449 H 0.17762 0.46884 0.09260
 H450 H 0.12542 0.45453 0.08136
 C451 C 0.60379 0.89826 0.60356
 C452 C 0.63402 0.90717 0.61058
 C453 C 0.65653 0.88502 0.63151
 C454 C 0.64866 0.85411 0.64504
 C455 C 0.61842 0.84520 0.63782
 C456 C 0.59592 0.86735 0.61712
 C457 C 0.56584 0.85791 0.61042
 C458 C 0.55822 0.82745 0.62371
 C459 C 0.58023 0.80579 0.64385
 C460 C 0.61002 0.81442 0.65093
 C461 C 0.68659 0.89446 0.63844
 C462 C 0.69421 0.92491 0.62489
 C463 C 0.67221 0.94657 0.60419
 C464 C 0.64243 0.93793 0.59707
 C465 C 0.67161 0.83149 0.66704
 C466 C 0.69053 0.81259 0.68596
 C467 C 0.58081 0.92087 0.58181
 C468 C 0.56176 0.93963 0.56319
 H469 H 0.54792 0.87392 0.59488
 H470 H 0.53511 0.82064 0.61833
 H471 H 0.57420 0.78215 0.65407
 H472 H 0.62632 0.79673 0.66672
 H473 H 0.70450 0.87846 0.65431
 H474 H 0.71732 0.93174 0.63045
 H475 H 0.67824 0.97019 0.59360
 H476 H 0.62612 0.95561 0.58092
 C477 C 0.89682 0.10180 0.10346
 C478 C 0.86659 0.09284 0.10919
 C479 C 0.84401 0.11497 0.12957
 C480 C 0.85178 0.14593 0.14386
 C481 C 0.88201 0.15490 0.13782
 C482 C 0.90459 0.13276 0.11767
 C483 C 0.93465 0.14227 0.11213
 C484 C 0.94218 0.17277 0.12601
 C485 C 0.92009 0.19442 0.14560
 C486 C 0.89032 0.18572 0.15156
 C487 C 0.81395 0.10547 0.13516
 C488 C 0.80642 0.07497 0.12083
 C489 C 0.82850 0.05333 0.10068
 C490 C 0.85828 0.06203 0.09489
 C491 C 0.82875 0.16853 0.16541
 C492 C 0.80976 0.18741 0.18396
 C493 C 0.91987 0.07921 0.08222
 C494 C 0.93898 0.06045 0.06388
 H495 H 0.95263 0.12627 0.09706
 H496 H 0.96528 0.17963 0.12150
 H497 H 0.92605 0.21809 0.15626
 H498 H 0.87394 0.20340 0.16694
 H499 H 0.79598 0.12146 0.15056
 H500 H 0.78332 0.06810 0.12536
 H501 H 0.82254 0.02967 0.08947
 H502 H 0.87465 0.04436 0.07910
 C503 C 0.39657 0.60267 0.60656
 C504 C 0.40448 0.63359 0.62095
 C505 C 0.38198 0.65582 0.64150
 C506 C 0.35173 0.64697 0.64773
 C507 C 0.34382 0.61604 0.63338
 C508 C 0.36631 0.59383 0.61260
 C509 C 0.35787 0.56305 0.59822
 C510 C 0.32806 0.55448 0.60432
 C511 C 0.30608 0.57620 0.62487
 C512 C 0.31373 0.60666 0.63928
 C513 C 0.39042 0.68660 0.65541
 C514 C 0.42023 0.69518 0.64924
 C515 C 0.44223 0.67344 0.62926
 C516 C 0.43457 0.64297 0.61520
 C517 C 0.32878 0.66966 0.66943
 C518 C 0.30985 0.68860 0.68802
 C519 C 0.41952 0.57999 0.58475
 C520 C 0.43855 0.56116 0.56593
 H521 H 0.37417 0.54532 0.58214
 H522 H 0.32201 0.53084 0.59307
 H523 H 0.28295 0.56943 0.62964
 H524 H 0.29583 0.62272 0.65499
 H525 H 0.37413 0.70434 0.67111
 H526 H 0.42628 0.71882 0.66006
 H527 H 0.46535 0.68021 0.62459
 H528 H 0.45248 0.62691 0.59982
   
