data_POSCAR
  _audit_creation_date              2014-09-24
  _audit_creation_method            'ToBaCCo'
  _symmetry_space_group_name_H-M    'P1'
  _symmetry_Int_Tables_number       1
  _symmetry_cell_setting            triclinic
  loop_
  _symmetry_equiv_pos_as_xyz
 x,y,z
_cell_length_a 51.2513
_cell_length_b 51.2260
_cell_length_c 42.0676
_cell_angle_alpha 89.968500
_cell_angle_beta 89.968400
_cell_angle_gamma 90.045900
loop_
  _atom_site_label
  _atom_site_type_symbol
  _atom_site_fract_x
  _atom_site_fract_y
  _atom_site_fract_z
O1 O -0.02522 0.30691 0.03053
 O2 O 0.02584 0.30685 -0.03139
 O3 O -0.02516 0.30675 -0.03139
 O4 O 0.02580 0.30710 0.03052
 O5 O 0.02578 0.26392 0.03065
 O6 O -0.02498 0.26358 -0.03103
 O7 O 0.02581 0.26368 -0.03102
 O8 O -0.02503 0.26374 0.03065
 Cu9 Cu 0.00030 0.31128 -0.00045
 Cu10 Cu 0.00040 0.25939 -0.00016
 C11 C -0.03381 0.28528 0.04091
 C12 C 0.03452 0.28520 -0.04153
 C13 C -0.03373 0.28506 -0.04153
 C14 C 0.03447 0.28552 0.04089
 O15 O 0.47461 0.80661 0.53108
 O16 O 0.52564 0.80652 0.46921
 O17 O 0.47463 0.80655 0.46917
 O18 O 0.52563 0.80643 0.53111
 O19 O 0.52540 0.76326 0.53100
 O20 O 0.47462 0.76338 0.46930
 O21 O 0.52543 0.76335 0.46932
 O22 O 0.47458 0.76343 0.53099
 Cu23 Cu 0.50014 0.81090 0.50014
 Cu24 Cu 0.49999 0.75902 0.50016
 C25 C 0.46590 0.78499 0.54134
 C26 C 0.53422 0.78488 0.45895
 C27 C 0.46595 0.78493 0.45891
 C28 C 0.53420 0.78477 0.54137
 O29 O 0.97458 0.69419 -0.03228
 O30 O 1.02550 0.69394 0.02974
 O31 O 0.97450 0.69393 0.02962
 O32 O 1.02559 0.69408 -0.03217
 O33 O 1.02558 0.73725 -0.03190
 O34 O 0.97466 0.73710 0.02970
 O35 O 1.02547 0.73711 0.02980
 O36 O 0.97476 0.73736 -0.03199
 Cu37 Cu 1.00004 0.68966 -0.00129
 Cu38 Cu 1.00013 0.74154 -0.00109
 C39 C 0.96599 0.71587 -0.04247
 C40 C 1.03415 0.71554 0.04011
 C41 C 0.96588 0.71554 0.03996
 C42 C 1.03430 0.71573 -0.04233
 O43 O 0.52523 0.19273 0.53145
 O44 O 0.47431 0.19241 0.46952
 O45 O 0.52532 0.19269 0.46954
 O46 O 0.47424 0.19257 0.53143
 O47 O 0.47420 0.23574 0.53117
 O48 O 0.52505 0.23587 0.46952
 O49 O 0.47425 0.23558 0.46949
 O50 O 0.52499 0.23591 0.53121
 Cu51 Cu 0.49979 0.18823 0.50049
 Cu52 Cu 0.49961 0.24011 0.50033
 C53 C 0.53377 0.21442 0.54166
 C54 C 0.46561 0.21399 0.45919
 C55 C 0.53388 0.21436 0.45921
 C56 C 0.46553 0.21419 0.54162
 O57 O 0.69244 -0.02515 0.03031
 O58 O 0.69241 0.02596 -0.03157
 O59 O 0.69246 -0.02509 -0.03160
 O60 O 0.69230 0.02588 0.03032
 O61 O 0.73545 0.02590 0.03025
 O62 O 0.73561 -0.02487 -0.03145
 O63 O 0.73556 0.02597 -0.03142
 O64 O 0.73559 -0.02492 0.03023
 Cu65 Cu 0.68803 0.00039 -0.00064
 Cu66 Cu 0.73989 0.00053 -0.00060
 C67 C 0.71408 -0.03373 0.04059
 C68 C 0.71403 0.03468 -0.04179
 C69 C 0.71411 -0.03367 -0.04183
 C70 C 0.71389 0.03456 0.04060
 O71 O 0.19286 0.47438 0.53105
 O72 O 0.19282 0.52543 0.46916
 O73 O 0.19302 0.47439 0.46915
 O74 O 0.19281 0.52542 0.53108
 O75 O 0.23596 0.52545 0.53102
 O76 O 0.23617 0.47465 0.46932
 O77 O 0.23597 0.52548 0.46933
 O78 O 0.23601 0.47461 0.53101
 Cu79 Cu 0.18851 0.49989 0.50011
 Cu80 Cu 0.24037 0.50006 0.50018
 C81 C 0.21449 0.46580 0.54134
 C82 C 0.21443 0.53414 0.45893
 C83 C 0.21469 0.46583 0.45892
 C84 C 0.21440 0.53412 0.54137
 O85 O 0.30650 1.02642 0.03107
 O86 O 0.30652 0.97549 -0.03098
 O87 O 0.30646 1.02652 -0.03084
 O88 O 0.30668 0.97538 0.03093
 O89 O 0.26353 0.97534 0.03096
 O90 O 0.26332 1.02630 -0.03060
 O91 O 0.26337 0.97546 -0.03073
 O92 O 0.26335 1.02617 0.03108
 Cu93 Cu 0.31091 1.00097 0.00003
 Cu94 Cu 0.25906 1.00080 0.00019
 C95 C 0.28487 1.03497 0.04142
 C96 C 0.28489 0.96680 -0.04119
 C97 C 0.28481 1.03512 -0.04102
 C98 C 0.28510 0.96665 0.04123
 O99 O 0.80821 0.52554 0.53091
 O100 O 0.80800 0.47456 0.46901
 O101 O 0.80801 0.52559 0.46899
 O102 O 0.80806 0.47450 0.53090
 O103 O 0.76491 0.47464 0.53095
 O104 O 0.76486 0.52551 0.46928
 O105 O 0.76484 0.47469 0.46929
 O106 O 0.76506 0.52548 0.53097
 Cu107 Cu 0.81244 0.50005 0.49994
 Cu108 Cu 0.76058 0.50009 0.50015
 C109 C 0.78662 0.53420 0.54125
 C110 C 0.78634 0.46594 0.45884
 C111 C 0.78637 0.53423 0.45881
 C112 C 0.78644 0.46586 0.54122
 C113 C 0.27584 0.29390 0.32970
 C114 C 0.29393 0.27423 0.33055
 C115 C 0.28823 0.25765 0.30541
 N116 N 0.26722 0.26661 0.28937
 C117 C 0.25956 0.28875 0.30412
 C118 C 0.30297 0.23527 0.29735
 C119 C 0.29792 0.21873 0.27108
 C120 C 0.31462 0.19915 0.26084
 C121 C 0.30329 0.18792 0.23459
 C122 C 0.27992 0.20089 0.22937
 N123 N 0.27661 0.21934 0.25208
 C124 C 0.26267 0.19534 0.20396
 C125 C 0.24080 0.21068 0.19550
 C126 C 0.22455 0.20556 0.16988
 C127 C 0.20646 0.22523 0.16905
 C128 C 0.21213 0.24177 0.19423
 N129 N 0.23312 0.23280 0.21028
 C130 C 0.19736 0.26413 0.20232
 C131 C 0.20240 0.28065 0.22861
 C132 C 0.18567 0.30019 0.23889
 C133 C 0.19701 0.31142 0.26513
 C134 C 0.22041 0.29849 0.27030
 N135 N 0.22374 0.28007 0.24757
 C136 C 0.23768 0.30408 0.29568
 H137 H 0.27476 0.31006 0.34621
 H138 H 0.30960 0.27247 0.34766
 H139 H 0.24040 0.26910 0.24383
 H140 H 0.33326 0.19370 0.27094
 H141 H 0.31156 0.17220 0.22068
 H142 H 0.22566 0.18942 0.15334
 H143 H 0.19081 0.22701 0.15191
 H144 H 0.18872 0.32712 0.27907
 H145 H 0.25997 0.23035 0.25578
 H146 H 0.16702 0.30561 0.22882
 C147 C 0.70655 0.72509 0.33029
 C148 C 0.72480 0.70557 0.32938
 C149 C 0.74102 0.71089 0.30376
 N150 N 0.73316 0.73298 0.28905
 C151 C 0.71209 0.74174 0.30515
 C152 C 0.76302 0.69575 0.29525
 C153 C 0.78023 0.70150 0.26982
 C154 C 0.80371 0.68874 0.26456
 C155 C 0.81494 0.70010 0.23831
 C156 C 0.79808 0.71955 0.22811
 N157 N 0.77676 0.71995 0.24714
 C158 C 0.80299 0.73617 0.20185
 C159 C 0.78807 0.75846 0.19387
 C160 C 0.79361 0.77512 0.16873
 C161 C 0.77538 0.79465 0.16966
 C162 C 0.75916 0.78933 0.19529
 N163 N 0.76701 0.76723 0.20998
 C164 C 0.73718 0.80448 0.20381
 C165 C 0.71995 0.79872 0.22922
 C166 C 0.69647 0.81148 0.23448
 C167 C 0.68523 0.80011 0.26070
 C168 C 0.70208 0.78064 0.27090
 N169 N 0.72341 0.78026 0.25189
 C170 C 0.69716 0.76401 0.29715
 H171 H 0.69089 0.72669 0.34745
 H172 H 0.72604 0.68939 0.34588
 H173 H 0.74015 0.76938 0.25555
 H174 H 0.81211 0.67306 0.27845
 H175 H 0.83362 0.69482 0.22818
 H176 H 0.80927 0.77351 0.15157
 H177 H 0.77416 0.81084 0.15318
 H178 H 0.66654 0.80538 0.27083
 H179 H 0.76002 0.73082 0.24348
 H180 H 0.68808 0.82717 0.22059
 C181 C 0.70570 0.27570 0.32986
 C182 C 0.72534 0.29384 0.33070
 C183 C 0.74191 0.28819 0.30552
 N184 N 0.73297 0.26717 0.28947
 C185 C 0.71085 0.25944 0.30424
 C186 C 0.76427 0.30299 0.29744
 C187 C 0.78082 0.29797 0.27117
 C188 C 0.80038 0.31472 0.26090
 C189 C 0.81164 0.30339 0.23468
 C190 C 0.79870 0.27998 0.22948
 N191 N 0.78025 0.27663 0.25219
 C192 C 0.80429 0.26271 0.20410
 C193 C 0.78897 0.24081 0.19563
 C194 C 0.79412 0.22455 0.17002
 C195 C 0.77445 0.20644 0.16915
 C196 C 0.75788 0.21209 0.19431
 N197 N 0.76683 0.23310 0.21037
 C198 C 0.73550 0.19731 0.20236
 C199 C 0.71896 0.20232 0.22865
 C200 C 0.69940 0.18556 0.23891
 C201 C 0.68817 0.19686 0.26517
 C202 C 0.70112 0.22028 0.27037
 N203 N 0.71955 0.22364 0.24765
 C204 C 0.69554 0.23752 0.29579
 H205 H 0.68954 0.27456 0.34639
 H206 H 0.72710 0.30950 0.34783
 H207 H 0.73054 0.24033 0.24394
 H208 H 0.80581 0.33338 0.27099
 H209 H 0.82736 0.31170 0.22075
 H210 H 0.81029 0.22567 0.15350
 H211 H 0.77270 0.19078 0.15201
 H212 H 0.67246 0.18855 0.27910
 H213 H 0.76926 0.25994 0.25592
 H214 H 0.69397 0.16690 0.22881
 C215 C 0.29424 0.72436 0.32942
 C216 C 0.27461 0.70620 0.33026
 C217 C 0.25801 0.71191 0.30516
 N218 N 0.26691 0.73300 0.28917
 C219 C 0.28904 0.74070 0.30389
 C220 C 0.23565 0.69711 0.29711
 C221 C 0.21908 0.70218 0.27088
 C222 C 0.19953 0.68544 0.26062
 C223 C 0.18825 0.69681 0.23443
 C224 C 0.20117 0.72026 0.22927
 N225 N 0.21962 0.72357 0.25195
 C226 C 0.19554 0.73758 0.20392
 C227 C 0.21081 0.75956 0.19552
 C228 C 0.20562 0.77589 0.16998
 C229 C 0.22523 0.79407 0.16917
 C230 C 0.24182 0.78838 0.19429
 N231 N 0.23292 0.76728 0.21028
 C232 C 0.26415 0.80320 0.20238
 C233 C 0.28072 0.79812 0.22860
 C234 C 0.30025 0.81488 0.23890
 C235 C 0.31154 0.80349 0.26506
 C236 C 0.29866 0.78002 0.27018
 N237 N 0.28021 0.77671 0.24749
 C238 C 0.30431 0.76267 0.29549
 H239 H 0.31041 0.72545 0.34591
 H240 H 0.27290 0.69047 0.34733
 H241 H 0.26926 0.76002 0.24372
 H242 H 0.19413 0.66674 0.27067
 H243 H 0.17254 0.68853 0.22051
 H244 H 0.18947 0.77477 0.15347
 H245 H 0.22695 0.80979 0.15209
 H246 H 0.32725 0.81178 0.27899
 H247 H 0.23059 0.74025 0.25569
 H248 H 0.30562 0.83360 0.22888
 C249 C 0.77481 0.20580 0.83075
 C250 C 0.79448 0.22391 0.82972
 C251 C 0.78922 0.24020 0.80415
 N252 N 0.76701 0.23251 0.78959
 C253 C 0.75812 0.21149 0.80572
 C254 C 0.80450 0.26212 0.79559
 C255 C 0.79883 0.27942 0.77024
 C256 C 0.81178 0.30284 0.76498
 C257 C 0.80046 0.31420 0.73882
 C258 C 0.78085 0.29748 0.72867
 N259 N 0.78031 0.27612 0.74764
 C260 C 0.76422 0.30256 0.70250
 C261 C 0.74180 0.28780 0.69462
 C262 C 0.72514 0.29347 0.66957
 C263 C 0.70547 0.27535 0.67059
 C264 C 0.71071 0.25908 0.69619
 N265 N 0.73290 0.26678 0.71077
 C266 C 0.69542 0.23717 0.70477
 C267 C 0.70107 0.21988 0.73013
 C268 C 0.68810 0.19649 0.73542
 C269 C 0.69941 0.18512 0.76158
 C270 C 0.71905 0.20182 0.77171
 N271 N 0.71960 0.22318 0.75272
 C272 C 0.73569 0.19673 0.79786
 H273 H 0.77312 0.19013 0.84790
 H274 H 0.81071 0.22502 0.84612
 H275 H 0.73063 0.23984 0.75633
 H276 H 0.82755 0.31111 0.77882
 H277 H 0.80587 0.33288 0.72871
 H278 H 0.72684 0.30913 0.65241
 H279 H 0.68925 0.27424 0.65418
 H280 H 0.69399 0.16646 0.77171
 H281 H 0.76931 0.25944 0.74400
 H282 H 0.67231 0.18822 0.72160
 C283 C 0.27519 0.70583 0.67059
 C284 C 0.29342 0.72539 0.66971
 C285 C 0.28776 0.74208 0.69475
 N286 N 0.26663 0.73330 0.71075
 C287 C 0.25885 0.71116 0.69609
 C288 C 0.30263 0.76441 0.70275
 C289 C 0.29759 0.78108 0.72890
 C290 C 0.31439 0.80060 0.73912
 C291 C 0.30303 0.81200 0.76523
 C292 C 0.27953 0.79920 0.77039
 N293 N 0.27618 0.78068 0.74777
 C294 C 0.26219 0.80497 0.79566
 C295 C 0.24017 0.78979 0.80409
 C296 C 0.22383 0.79512 0.82959
 C297 C 0.20561 0.77556 0.83047
 C298 C 0.21128 0.75886 0.80544
 N299 N 0.23240 0.76764 0.78944
 C300 C 0.19641 0.73652 0.79746
 C301 C 0.20145 0.71985 0.77131
 C302 C 0.18465 0.70032 0.76109
 C303 C 0.19602 0.68893 0.73498
 C304 C 0.21950 0.70174 0.72980
 N305 N 0.22285 0.72026 0.75242
 C306 C 0.23683 0.69598 0.70452
 H307 H 0.27404 0.68962 0.65416
 H308 H 0.30916 0.72701 0.65265
 H309 H 0.23956 0.73119 0.75614
 H310 H 0.33312 0.80589 0.72910
 H311 H 0.31135 0.82773 0.77910
 H312 H 0.22498 0.81134 0.84601
 H313 H 0.18987 0.77394 0.84753
 H314 H 0.18769 0.67320 0.72111
 H315 H 0.25946 0.76977 0.74404
 H316 H 0.16593 0.69502 0.77113
 C317 C 0.29400 0.27526 0.67087
 C318 C 0.27444 0.29347 0.66994
 C319 C 0.25780 0.28788 0.69508
 N320 N 0.26661 0.26683 0.71119
 C321 C 0.28872 0.25902 0.69649
 C322 C 0.23551 0.30277 0.70307
 C323 C 0.21889 0.29780 0.72931
 C324 C 0.19939 0.31462 0.73951
 C325 C 0.18803 0.30333 0.76572
 C326 C 0.20084 0.27987 0.77097
 N327 N 0.21931 0.27645 0.74831
 C328 C 0.19511 0.26261 0.79637
 C329 C 0.21030 0.24065 0.80489
 C330 C 0.20501 0.22440 0.83051
 C331 C 0.22458 0.20621 0.83145
 C332 C 0.24123 0.21181 0.80633
 N333 N 0.23242 0.23286 0.79022
 C334 C 0.26355 0.19695 0.79837
 C335 C 0.28017 0.20191 0.77213
 C336 C 0.29968 0.18510 0.76195
 C337 C 0.31102 0.19637 0.73572
 C338 C 0.29819 0.21982 0.73044
 N339 N 0.27972 0.22324 0.75310
 C340 C 0.30390 0.23705 0.70501
 H341 H 0.31017 0.27406 0.65438
 H342 H 0.27280 0.30913 0.65279
 H343 H 0.26880 0.23995 0.75674
 H344 H 0.19408 0.33331 0.72939
 H345 H 0.17234 0.31169 0.77960
 H346 H 0.18882 0.22559 0.84698
 H347 H 0.22622 0.19055 0.84861
 H348 H 0.32672 0.18801 0.72185
 H349 H 0.23021 0.25973 0.74464
 H350 H 0.30501 0.16643 0.77210
 C351 C 0.70647 0.72418 0.67026
 C352 C 0.72617 0.70613 0.66942
 C353 C 0.74278 0.71194 0.69449
 N354 N 0.73380 0.73297 0.71047
 C355 C 0.71162 0.74055 0.69577
 C356 C 0.76520 0.69726 0.70253
 C357 C 0.78178 0.70244 0.72871
 C358 C 0.80141 0.68580 0.73898
 C359 C 0.81268 0.69725 0.76512
 C360 C 0.79969 0.72064 0.77025
 N361 N 0.78120 0.72384 0.74759
 C362 C 0.80530 0.73801 0.79553
 C363 C 0.78995 0.75990 0.80392
 C364 C 0.79512 0.77628 0.82941
 C365 C 0.77542 0.79433 0.83025
 C366 C 0.75881 0.78851 0.80519
 N367 N 0.76777 0.76747 0.78923
 C368 C 0.73638 0.80318 0.79715
 C369 C 0.71979 0.79800 0.77098
 C370 C 0.70015 0.81462 0.76073
 C371 C 0.68887 0.80317 0.73460
 C372 C 0.70187 0.77979 0.72946
 N373 N 0.72038 0.77660 0.75211
 C374 C 0.69627 0.76242 0.70417
 H375 H 0.69027 0.72518 0.65380
 H376 H 0.72793 0.69042 0.65236
 H377 H 0.73142 0.75998 0.75585
 H378 H 0.80685 0.66712 0.72897
 H379 H 0.82844 0.68906 0.77902
 H380 H 0.81132 0.77528 0.84587
 H381 H 0.77366 0.81006 0.84730
 H382 H 0.67310 0.81135 0.72071
 H383 H 0.77017 0.74047 0.74383
 H384 H 0.69469 0.83330 0.77075
 C385 C 0.27536 0.10345 0.15505
 C386 C 0.25725 0.09785 0.12638
 C387 C 0.28143 0.09318 0.10554
 C388 C 0.29962 0.09842 0.13386
 C389 C 0.27612 0.13237 0.14541
 C390 C 0.30032 0.12773 0.12459
 C391 C 0.25797 0.12707 0.11708
 C392 C 0.28218 0.12211 0.09594
 C393 C 0.28359 0.07163 0.08280
 C394 C 0.28457 0.05422 0.06357
 C395 C 0.27233 0.15446 0.16699
 C396 C 0.26837 0.17290 0.18411
 H397 H 0.27252 0.09603 0.17961
 H398 H 0.23955 0.08534 0.12687
 H399 H 0.31678 0.08638 0.14049
 H400 H 0.31799 0.14028 0.12413
 H401 H 0.24081 0.13909 0.11041
 H402 H 0.28501 0.12957 0.07140
 C403 C 0.75909 0.62688 0.61853
 C404 C 0.78238 0.62263 0.59571
 C405 C 0.78346 0.59388 0.60604
 C406 C 0.76019 0.59783 0.62857
 C407 C 0.77839 0.63350 0.64528
 C408 C 0.77945 0.60477 0.65566
 C409 C 0.80166 0.62958 0.62276
 C410 C 0.80280 0.60045 0.63276
 C411 C 0.78551 0.57214 0.58359
 C412 C 0.78642 0.55461 0.56455
 C413 C 0.77471 0.65586 0.66645
 C414 C 0.77082 0.67453 0.68319
 H415 H 0.74108 0.63799 0.61292
 H416 H 0.78360 0.62975 0.57083
 H417 H 0.74316 0.58455 0.63071
 H418 H 0.77822 0.59770 0.68056
 H419 H 0.81868 0.64290 0.62064
 H420 H 0.82080 0.58932 0.63835
 C421 C 0.69899 0.87221 0.12494
 C422 C 0.69973 0.90150 0.13426
 C423 C 0.71776 0.90681 0.10579
 C424 C 0.71697 0.87790 0.09613
 C425 C 0.72331 0.86754 0.14551
 C426 C 0.74130 0.87291 0.11702
 C427 C 0.72411 0.89643 0.15521
 C428 C 0.74206 0.90210 0.12637
 C429 C 0.71548 0.92842 0.08312
 C430 C 0.71441 0.94588 0.06396
 C431 C 0.72724 0.84540 0.16701
 C432 C 0.73133 0.82694 0.18405
 H433 H 0.68133 0.85966 0.12462
 H434 H 0.68261 0.91351 0.14109
 H435 H 0.71401 0.87051 0.07159
 H436 H 0.75843 0.86091 0.11016
 H437 H 0.72709 0.90379 0.17976
 H438 H 0.75975 0.91462 0.12673
 C439 C 0.24202 0.37304 0.61874
 C440 C 0.21874 0.37733 0.59594
 C441 C 0.21774 0.40610 0.60620
 C442 C 0.24100 0.40210 0.62870
 C443 C 0.22271 0.36649 0.64553
 C444 C 0.22172 0.39524 0.65584
 C445 C 0.19944 0.37045 0.62303
 C446 C 0.19839 0.39960 0.63296
 C447 C 0.21572 0.42784 0.58371
 C448 C 0.21478 0.44537 0.56465
 C449 C 0.22628 0.34415 0.66678
 C450 C 0.23006 0.32548 0.68360
 H451 H 0.26000 0.36187 0.61314
 H452 H 0.21751 0.37020 0.57107
 H453 H 0.25807 0.41534 0.63079
 H454 H 0.22297 0.40232 0.68072
 H455 H 0.18239 0.35719 0.62096
 H456 H 0.18042 0.41078 0.63854
 C457 C 0.89627 0.27536 0.15547
 C458 C 0.90185 0.25740 0.12664
 C459 C 0.90670 0.28171 0.10605
 C460 C 0.90147 0.29975 0.13452
 C461 C 0.86739 0.27628 0.14574
 C462 C 0.87220 0.30060 0.12517
 C463 C 0.87268 0.25828 0.11726
 C464 C 0.87782 0.28262 0.09637
 C465 C 0.92832 0.28395 0.08341
 C466 C 0.94579 0.28499 0.06427
 C467 C 0.84524 0.27242 0.16724
 C468 C 0.82676 0.26842 0.18429
 H469 H 0.90359 0.27233 0.18002
 H470 H 0.91427 0.23966 0.12701
 H471 H 0.91356 0.31683 0.14135
 H472 H 0.85975 0.31832 0.12484
 H473 H 0.86060 0.24119 0.11040
 H474 H 0.87046 0.28563 0.07182
 C475 C 0.39524 0.77795 0.65578
 C476 C 0.40202 0.75865 0.62866
 C477 C 0.40617 0.78192 0.60616
 C478 C 0.39976 0.80129 0.63291
 C479 C 0.36651 0.77709 0.64542
 C480 C 0.37064 0.80037 0.62294
 C481 C 0.37298 0.75776 0.61865
 C482 C 0.37743 0.78105 0.59585
 C483 C 0.42793 0.78388 0.58369
 C484 C 0.44547 0.78476 0.56464
 C485 C 0.34413 0.77357 0.66663
 C486 C 0.32542 0.76983 0.68338
 H487 H 0.40229 0.77664 0.68068
 H488 H 0.41515 0.74152 0.63077
 H489 H 0.41103 0.81922 0.63851
 H490 H 0.35748 0.81748 0.62084
 H491 H 0.36172 0.73982 0.61303
 H492 H 0.37033 0.78234 0.57098
 C493 C 0.10372 0.72715 0.15452
 C494 C 0.09943 0.74388 0.12428
 C495 C 0.09342 0.71887 0.10551
 C496 C 0.09736 0.70206 0.13539
 C497 C 0.13259 0.72414 0.14539
 C498 C 0.12662 0.69911 0.12664
 C499 C 0.12859 0.74090 0.11549
 C500 C 0.12230 0.71586 0.09641
 C501 C 0.07188 0.71672 0.08276
 C502 C 0.05447 0.71576 0.06354
 C503 C 0.15467 0.72791 0.16698
 C504 C 0.17311 0.73187 0.18409
 H505 H 0.09633 0.73183 0.17866
 H506 H 0.08803 0.76227 0.12308
 H507 H 0.08426 0.68606 0.14330
 H508 H 0.13805 0.68074 0.12787
 H509 H 0.14168 0.75692 0.10755
 H510 H 0.12972 0.71120 0.07228
 C511 C 0.62754 0.19930 0.62606
 C512 C 0.59826 0.20014 0.63539
 C513 C 0.59306 0.21818 0.60690
 C514 C 0.62196 0.21728 0.59724
 C515 C 0.63230 0.22362 0.64661
 C516 C 0.62706 0.24162 0.61811
 C517 C 0.60342 0.22453 0.65632
 C518 C 0.59787 0.24249 0.62747
 C519 C 0.57151 0.21593 0.58424
 C520 C 0.55409 0.21484 0.56506
 C521 C 0.65443 0.22747 0.66808
 C522 C 0.67292 0.23146 0.68508
 H523 H 0.63999 0.18158 0.62576
 H524 H 0.58616 0.18305 0.64223
 H525 H 0.62936 0.21428 0.57270
 H526 H 0.63914 0.25872 0.61124
 H527 H 0.59607 0.22754 0.68087
 H528 H 0.58545 0.26023 0.62780
 C529 C 0.72130 0.10429 0.84504
 C530 C 0.74059 0.09728 0.87208
 C531 C 0.71735 0.09338 0.89468
 C532 C 0.69799 0.10004 0.86801
 C533 C 0.72253 0.13302 0.85540
 C534 C 0.69929 0.12916 0.87799
 C535 C 0.74186 0.12631 0.88209
 C536 C 0.71859 0.12213 0.90499
 C537 C 0.71524 0.07161 0.91715
 C538 C 0.71430 0.05406 0.93620
 C539 C 0.72624 0.15537 0.83416
 C540 C 0.73013 0.17403 0.81735
 H541 H 0.72245 0.09723 0.82014
 H542 H 0.75756 0.08394 0.86988
 H543 H 0.67992 0.08897 0.86249
 H544 H 0.68234 0.14252 0.88017
 H545 H 0.75993 0.13736 0.88764
 H546 H 0.71746 0.12923 0.92987
 C547 C 0.22165 0.60461 0.34432
 C548 C 0.24091 0.59781 0.37147
 C549 C 0.21763 0.59379 0.39398
 C550 C 0.19830 0.60022 0.36720
 C551 C 0.22262 0.63337 0.35458
 C552 C 0.19933 0.62938 0.37708
 C553 C 0.24191 0.62688 0.38139
 C554 C 0.21860 0.62257 0.40419
 C555 C 0.21561 0.57207 0.41651
 C556 C 0.21469 0.55456 0.43560
 C557 C 0.22624 0.65570 0.33332
 C558 C 0.23008 0.67437 0.31651
 H559 H 0.22294 0.59749 0.31945
 H560 H 0.25799 0.58461 0.36941
 H561 H 0.18034 0.58900 0.36163
 H562 H 0.18227 0.64261 0.37912
 H563 H 0.25987 0.63809 0.38698
 H564 H 0.21733 0.62973 0.42904
 C565 C 0.25778 0.87346 0.88231
 C566 C 0.28205 0.87849 0.90329
 C567 C 0.28130 0.90740 0.89358
 C568 C 0.25705 0.90265 0.87290
 C569 C 0.27585 0.86810 0.85390
 C570 C 0.27508 0.89700 0.84415
 C571 C 0.30010 0.87281 0.87457
 C572 C 0.29941 0.90210 0.86519
 C573 C 0.28354 0.92900 0.91624
 C574 C 0.28458 0.94645 0.93541
 C575 C 0.27198 0.84595 0.83242
 C576 C 0.26796 0.82746 0.81540
 H577 H 0.24062 0.86144 0.88910
 H578 H 0.28494 0.87110 0.92785
 H579 H 0.23937 0.91515 0.87245
 H580 H 0.27218 0.90435 0.81958
 H581 H 0.31776 0.86028 0.87499
 H582 H 0.31655 0.91413 0.85842
 C583 C 0.77858 0.39542 0.34446
 C584 C 0.75942 0.40232 0.37169
 C585 C 0.78278 0.40627 0.39406
 C586 C 0.80201 0.39973 0.36720
 C587 C 0.77753 0.36667 0.35483
 C588 C 0.80089 0.37060 0.37718
 C589 C 0.75833 0.37327 0.38170
 C590 C 0.78172 0.37752 0.40437
 C591 C 0.78495 0.42801 0.41651
 C592 C 0.78597 0.44553 0.43555
 C593 C 0.77379 0.34434 0.33363
 C594 C 0.76987 0.32569 0.31686
 H595 H 0.77726 0.40250 0.31957
 H596 H 0.74239 0.41559 0.36968
 H597 H 0.82000 0.41088 0.36151
 H598 H 0.81790 0.35729 0.37917
 H599 H 0.74034 0.36213 0.38743
 H600 H 0.78302 0.37039 0.42924
 C601 C 0.12672 0.25822 0.88311
 C602 C 0.12171 0.28250 0.90410
 C603 C 0.09281 0.28170 0.89446
 C604 C 0.09754 0.25745 0.87377
 C605 C 0.13206 0.27630 0.85469
 C606 C 0.10317 0.27549 0.84500
 C607 C 0.12737 0.30057 0.87535
 C608 C 0.09809 0.29982 0.86605
 C609 C 0.07124 0.28390 0.91716
 C610 C 0.05380 0.28489 0.93635
 C611 C 0.15418 0.27244 0.83317
 C612 C 0.17265 0.26841 0.81612
 H613 H 0.13874 0.24108 0.88989
 H614 H 0.12911 0.28541 0.92864
 H615 H 0.08505 0.23974 0.87336
 H616 H 0.09581 0.27257 0.82045
 H617 H 0.13989 0.31825 0.87574
 H618 H 0.08606 0.31695 0.85930
 C619 C 0.62696 0.75739 0.38152
 C620 C 0.62264 0.78069 0.40431
 C621 C 0.59389 0.78163 0.39407
 C622 C 0.59791 0.75836 0.37158
 C623 C 0.63346 0.77671 0.35472
 C624 C 0.60473 0.77765 0.34443
 C625 C 0.62947 0.79999 0.37720
 C626 C 0.60034 0.80099 0.36729
 C627 C 0.57216 0.78364 0.41657
 C628 C 0.55464 0.78458 0.43564
 C629 C 0.65579 0.77317 0.33345
 C630 C 0.67445 0.76942 0.31662
 H631 H 0.63816 0.73942 0.38714
 H632 H 0.62978 0.78195 0.42917
 H633 H 0.58470 0.74125 0.36952
 H634 H 0.59763 0.77637 0.31955
 H635 H 0.64270 0.81707 0.37924
 H636 H 0.58913 0.81895 0.36170
 C637 C 0.87101 0.70248 0.87814
 C638 C 0.90000 0.69916 0.86835
 C639 C 0.90770 0.71944 0.89357
 C640 C 0.87907 0.72269 0.90369
 C641 C 0.86841 0.72475 0.85388
 C642 C 0.87615 0.74498 0.87912
 C643 C 0.89702 0.72150 0.84370
 C644 C 0.90506 0.74171 0.86930
 C645 C 0.92929 0.71726 0.91624
 C646 C 0.94672 0.71624 0.93542
 C647 C 0.84626 0.72851 0.83238
 C648 C 0.82778 0.73242 0.81532
 H649 H 0.85676 0.68638 0.88152
 H650 H 0.91007 0.68029 0.86419
 H651 H 0.87191 0.72316 0.92859
 H652 H 0.86610 0.76386 0.88331
 H653 H 0.90413 0.72105 0.81878
 H654 H 0.91929 0.75782 0.86590
 C655 C 0.36924 0.20003 0.37940
 C656 C 0.39816 0.19656 0.36937
 C657 C 0.40606 0.21705 0.39425
 C658 C 0.37751 0.22046 0.40459
 C659 C 0.36654 0.22209 0.35487
 C660 C 0.37449 0.24253 0.37976
 C661 C 0.39507 0.21869 0.34446
 C662 C 0.40333 0.23910 0.36971
 C663 C 0.42774 0.21503 0.41676
 C664 C 0.44523 0.21415 0.43586
 C665 C 0.34425 0.22576 0.33360
 C666 C 0.32564 0.22964 0.31679
 H667 H 0.35497 0.18401 0.38312
 H668 H 0.40816 0.17764 0.36537
 H669 H 0.37051 0.22117 0.42956
 H670 H 0.36450 0.26147 0.38380
 H671 H 0.40202 0.21800 0.31948
 H672 H 0.41757 0.25515 0.36597
 C673 C 0.72173 0.89565 0.84389
 C674 C 0.69838 0.89985 0.86680
 C675 C 0.71769 0.90661 0.89348
 C676 C 0.74097 0.90277 0.87093
 C677 C 0.72301 0.86695 0.85434
 C678 C 0.74228 0.87376 0.88104
 C679 C 0.69973 0.87074 0.87688
 C680 C 0.71898 0.87788 0.90388
 C681 C 0.71550 0.92837 0.91588
 C682 C 0.71446 0.94591 0.93489
 C683 C 0.72679 0.84458 0.83321
 C684 C 0.73074 0.82590 0.81650
 H685 H 0.72289 0.90269 0.81896
 H686 H 0.68029 0.91084 0.86121
 H687 H 0.75791 0.91618 0.86873
 H688 H 0.76037 0.86278 0.88666
 H689 H 0.68281 0.85731 0.87906
 H690 H 0.71783 0.87080 0.92879
 C691 C 0.19977 0.37175 0.37472
 C692 C 0.21777 0.37747 0.40348
 C693 C 0.21852 0.40638 0.39378
 C694 C 0.20048 0.40105 0.36536
 C695 C 0.22407 0.36711 0.35409
 C696 C 0.22484 0.39600 0.34435
 C697 C 0.24208 0.37249 0.38253
 C698 C 0.24281 0.40169 0.37313
 C699 C 0.21621 0.42798 0.41642
 C700 C 0.21509 0.44545 0.43556
 C701 C 0.22797 0.34498 0.33259
 C702 C 0.23198 0.32652 0.31552
 H703 H 0.18212 0.35919 0.37511
 H704 H 0.21483 0.37007 0.42803
 H705 H 0.18333 0.41304 0.35856
 H706 H 0.22779 0.40337 0.31979
 H707 H 0.25923 0.36051 0.38935
 H708 H 0.26049 0.41422 0.37271
 C709 C 0.27977 0.13593 0.89214
 C710 C 0.25941 0.11395 0.89690
 C711 C 0.28149 0.09371 0.89536
 C712 C 0.30191 0.11538 0.89092
 C713 C 0.27643 0.13329 0.85600
 C714 C 0.29853 0.11309 0.85438
 C715 C 0.25602 0.11161 0.86046
 C716 C 0.27814 0.09104 0.85922
 C717 C 0.28354 0.07200 0.91787
 C718 C 0.28448 0.05448 0.93696
 C719 C 0.27281 0.15561 0.83472
 C720 C 0.26902 0.17425 0.81787
 H721 H 0.28040 0.15463 0.90544
 H722 H 0.24335 0.11409 0.91460
 H723 H 0.32081 0.11668 0.90370
 H724 H 0.31456 0.11302 0.83663
 H725 H 0.23711 0.11032 0.84771
 H726 H 0.27749 0.07233 0.84594
 C727 C 0.77630 0.60389 0.34404
 C728 C 0.80067 0.59893 0.36504
 C729 C 0.78262 0.59360 0.39350
 C730 C 0.75833 0.59821 0.37285
 C731 C 0.77700 0.63280 0.35369
 C732 C 0.75899 0.62742 0.38215
 C733 C 0.80130 0.62824 0.37431
 C734 C 0.78331 0.62253 0.40310
 C735 C 0.78494 0.57203 0.41621
 C736 C 0.78603 0.55460 0.43540
 C737 C 0.77302 0.65490 0.33213
 C738 C 0.76890 0.67333 0.31505
 H739 H 0.77338 0.59649 0.31950
 H740 H 0.81784 0.58696 0.35828
 H741 H 0.74068 0.58563 0.37249
 H742 H 0.74181 0.63937 0.38895
 H743 H 0.81893 0.64084 0.37464
 H744 H 0.78622 0.62996 0.42763
 C745 C 0.12850 0.70052 0.87735
 C746 C 0.12167 0.71985 0.90440
 C747 C 0.09293 0.71890 0.89412
 C748 C 0.09938 0.69951 0.86739
 C749 C 0.13257 0.72378 0.85482
 C750 C 0.10384 0.72285 0.84448
 C751 C 0.12606 0.74313 0.88157
 C752 C 0.09702 0.74216 0.87158
 C753 C 0.07118 0.71692 0.91659
 C754 C 0.05365 0.71602 0.93566
 C755 C 0.15494 0.72733 0.83361
 C756 C 0.17364 0.73108 0.81684
 H757 H 0.14171 0.68344 0.87946
 H758 H 0.12878 0.71860 0.92928
 H759 H 0.08815 0.68156 0.86183
 H760 H 0.09678 0.72411 0.81959
 H761 H 0.13728 0.76109 0.88716
 H762 H 0.08385 0.75926 0.86944
 C763 C 0.62790 0.19945 0.37490
 C764 C 0.62221 0.21744 0.40367
 C765 C 0.59331 0.21817 0.39402
 C766 C 0.59862 0.20013 0.36558
 C767 C 0.63255 0.22378 0.35427
 C768 C 0.60367 0.22452 0.34458
 C769 C 0.62719 0.24178 0.38272
 C770 C 0.59800 0.24248 0.37338
 C771 C 0.57172 0.21584 0.41669
 C772 C 0.55426 0.21473 0.43585
 C773 C 0.65466 0.22771 0.33274
 C774 C 0.67311 0.23177 0.31564
 H775 H 0.64045 0.18180 0.37525
 H776 H 0.62961 0.21451 0.42821
 H777 H 0.58662 0.18297 0.35880
 H778 H 0.59631 0.22746 0.32003
 H779 H 0.63918 0.25895 0.38953
 H780 H 0.58548 0.26015 0.37299
 C781 C 0.87223 0.25853 0.88307
 C782 C 0.90140 0.25642 0.87393
 C783 C 0.90692 0.28123 0.89331
 C784 C 0.87804 0.28337 0.90275
 C785 C 0.86764 0.27572 0.85367
 C786 C 0.87312 0.30055 0.87303
 C787 C 0.89651 0.27358 0.84419
 C788 C 0.90239 0.29846 0.86393
 C789 C 0.92850 0.28352 0.91594
 C790 C 0.94593 0.28463 0.93509
 C791 C 0.84550 0.27184 0.83224
 C792 C 0.82700 0.26783 0.81527
 H793 H 0.85959 0.24206 0.89070
 H794 H 0.91325 0.23830 0.87454
 H795 H 0.87068 0.28742 0.92707
 H796 H 0.86124 0.31864 0.87239
 H797 H 0.90384 0.26951 0.81986
 H798 H 0.91505 0.31492 0.85633
 C799 C 0.37197 0.75874 0.38311
 C800 C 0.40115 0.75680 0.37399
 C801 C 0.40658 0.78148 0.39366
 C802 C 0.37768 0.78344 0.40309
 C803 C 0.36734 0.77614 0.35390
 C804 C 0.37273 0.80083 0.37355
 C805 C 0.39623 0.77416 0.34444
 C806 C 0.40201 0.79892 0.36447
 C807 C 0.42816 0.78366 0.41635
 C808 C 0.44559 0.78466 0.43552
 C809 C 0.34522 0.77234 0.33237
 C810 C 0.32677 0.76837 0.31529
 H811 H 0.35938 0.74217 0.39054
 H812 H 0.41306 0.73871 0.37441
 H813 H 0.37027 0.78728 0.42744
 H814 H 0.36078 0.81889 0.37310
 H815 H 0.40360 0.77031 0.32007
 H816 H 0.41462 0.81547 0.35707
 C817 C 0.30045 0.87128 0.12280
 C818 C 0.28125 0.87806 0.09560
 C819 C 0.28203 0.90681 0.10593
 C820 C 0.30128 0.90041 0.13281
 C821 C 0.27709 0.86711 0.14513
 C822 C 0.27786 0.89584 0.15552
 C823 C 0.25788 0.87356 0.11824
 C824 C 0.25868 0.90260 0.12828
 C825 C 0.28402 0.92861 0.08351
 C826 C 0.28490 0.94618 0.06449
 C827 C 0.27350 0.84470 0.16630
 C828 C 0.26968 0.82599 0.18304
 H829 H 0.31758 0.85814 0.12081
 H830 H 0.28266 0.87098 0.07072
 H831 H 0.31916 0.91172 0.13853
 H832 H 0.27643 0.90288 0.18041
 H833 H 0.23999 0.86227 0.11249
 H834 H 0.24152 0.91572 0.13029
 C835 C 0.80137 0.37076 0.62359
 C836 C 0.78278 0.37720 0.59564
 C837 C 0.78289 0.40599 0.60588
 C838 C 0.80154 0.39993 0.63349
 C839 C 0.77752 0.36630 0.64504
 C840 C 0.77761 0.39507 0.65533
 C841 C 0.75891 0.37242 0.61741
 C842 C 0.75904 0.40149 0.62735
 C843 C 0.78511 0.42779 0.58348
 C844 C 0.78614 0.44537 0.56448
 C845 C 0.77372 0.34393 0.66623
 C846 C 0.76980 0.32526 0.68302
 H847 H 0.81874 0.35787 0.62230
 H848 H 0.78493 0.37008 0.57086
 H849 H 0.81909 0.41150 0.63985
 H850 H 0.77545 0.40215 0.68012
 H851 H 0.74134 0.36086 0.61103
 H852 H 0.74165 0.41436 0.62866
 C853 C 0.72121 0.10494 0.15515
 C854 C 0.69783 0.10065 0.13231
 C855 C 0.71714 0.09416 0.10551
 C856 C 0.74044 0.09809 0.12798
 C857 C 0.72228 0.13370 0.14486
 C858 C 0.74154 0.12715 0.11804
 C859 C 0.69897 0.12980 0.12240
 C860 C 0.71822 0.12293 0.09527
 C861 C 0.71506 0.07245 0.08301
 C862 C 0.71412 0.05495 0.06393
 C863 C 0.72598 0.15600 0.16611
 C864 C 0.72988 0.17463 0.18292
 H865 H 0.72247 0.09782 0.18003
 H866 H 0.67984 0.08949 0.13791
 H867 H 0.75746 0.08481 0.13003
 H868 H 0.75955 0.13830 0.11240
 H869 H 0.68197 0.14310 0.12037
 H870 H 0.71697 0.13010 0.07041
 C871 C 0.24128 0.62755 0.61783
 C872 C 0.24207 0.59836 0.62723
 C873 C 0.21783 0.59356 0.60656
 C874 C 0.21700 0.62247 0.59687
 C875 C 0.22321 0.63286 0.64626
 C876 C 0.19895 0.62810 0.62561
 C877 C 0.22405 0.60396 0.65599
 C878 C 0.19973 0.59881 0.63497
 C879 C 0.21564 0.57195 0.58390
 C880 C 0.21464 0.55450 0.56475
 C881 C 0.22705 0.65501 0.66775
 C882 C 0.23107 0.67349 0.68478
 H883 H 0.25840 0.63961 0.61102
 H884 H 0.25979 0.58591 0.62766
 H885 H 0.21409 0.62986 0.57231
 H886 H 0.18126 0.64059 0.62521
 H887 H 0.22698 0.59661 0.68056
 H888 H 0.18261 0.58674 0.64175
 C889 C 0.89537 0.72230 0.15451
 C890 C 0.89963 0.69909 0.13141
 C891 C 0.90621 0.71861 0.10483
 C892 C 0.90231 0.74174 0.12757
 C893 C 0.86665 0.72348 0.14422
 C894 C 0.87328 0.74296 0.11763
 C895 C 0.87051 0.70034 0.12150
 C896 C 0.87746 0.71980 0.09459
 C897 C 0.92793 0.71664 0.08232
 C898 C 0.94545 0.71576 0.06325
 C899 C 0.84433 0.72701 0.16551
 C900 C 0.82569 0.73076 0.18236
 H901 H 0.90247 0.72336 0.17941
 H902 H 0.91073 0.68103 0.13681
 H903 H 0.91562 0.75875 0.12983
 H904 H 0.86219 0.76103 0.11220
 H905 H 0.85717 0.68335 0.11926
 H906 H 0.87032 0.71876 0.06972
 C907 C 0.39579 0.22392 0.65634
 C908 C 0.40076 0.19960 0.63523
 C909 C 0.40613 0.21776 0.60687
 C910 C 0.40151 0.24199 0.62763
 C911 C 0.36690 0.22326 0.64664
 C912 C 0.37233 0.24137 0.61827
 C913 C 0.37148 0.19901 0.62591
 C914 C 0.37723 0.21710 0.59722
 C915 C 0.42771 0.21550 0.58418
 C916 C 0.44516 0.21447 0.56501
 C917 C 0.34479 0.22716 0.66817
 C918 C 0.32634 0.23123 0.68523
 H919 H 0.40316 0.22675 0.68091
 H920 H 0.41272 0.18240 0.64193
 H921 H 0.41408 0.25964 0.62810
 H922 H 0.36039 0.25858 0.61154
 H923 H 0.35888 0.18138 0.62547
 H924 H 0.36983 0.21428 0.57266
 C925 C 0.12710 0.25803 0.11817
 C926 C 0.09807 0.25912 0.12818
 C927 C 0.09412 0.28241 0.10568
 C928 C 0.12287 0.28135 0.09537
 C929 C 0.13371 0.27732 0.14494
 C930 C 0.12980 0.30062 0.12245
 C931 C 0.10498 0.27837 0.15530
 C932 C 0.10067 0.30174 0.13243
 C933 C 0.07240 0.28446 0.08323
 C934 C 0.05488 0.28536 0.06418
 C935 C 0.15603 0.27363 0.16614
 C936 C 0.17468 0.26974 0.18291
 H937 H 0.13822 0.24002 0.11254
 H938 H 0.08479 0.24207 0.13030
 H939 H 0.12999 0.28259 0.07049
 H940 H 0.14310 0.31765 0.12035
 H941 H 0.09791 0.27712 0.18020
 H942 H 0.08954 0.31975 0.13802
 C943 C 0.62769 0.75765 0.61757
 C944 C 0.59852 0.75684 0.62706
 C945 C 0.59372 0.78110 0.60639
 C946 C 0.62259 0.78194 0.59660
 C947 C 0.63307 0.77571 0.64596
 C948 C 0.62831 0.79999 0.62532
 C949 C 0.60421 0.77486 0.65580
 C950 C 0.59905 0.79920 0.63477
 C951 C 0.57207 0.78334 0.58381
 C952 C 0.55459 0.78441 0.56470
 C953 C 0.65526 0.77192 0.66740
 C954 C 0.67376 0.76800 0.68441
 H955 H 0.63970 0.74052 0.61073
 H956 H 0.58605 0.73911 0.62755
 H957 H 0.62993 0.78487 0.57202
 H958 H 0.64081 0.81769 0.62486
 H959 H 0.59692 0.77191 0.68039
 H960 H 0.58702 0.81632 0.64158
   
