data_POSCAR
  _audit_creation_date              2014-09-24
  _audit_creation_method            'ToBaCCo'
  _symmetry_space_group_name_H-M    'P1'
  _symmetry_Int_Tables_number       1
  _symmetry_cell_setting            triclinic
  loop_
  _symmetry_equiv_pos_as_xyz
 x,y,z
_cell_length_a 40.3307
_cell_length_b 41.2803
_cell_length_c 37.6806
_cell_angle_alpha 90.728900
_cell_angle_beta 88.819400
_cell_angle_gamma 89.053700
loop_
  _atom_site_label
  _atom_site_type_symbol
  _atom_site_fract_x
  _atom_site_fract_y
  _atom_site_fract_z
C1 C 0.29890 0.29005 0.22910
 H2 H 0.30279 0.28677 0.25713
 C3 C 0.32088 0.30885 0.20936
 H4 H 0.34153 0.31986 0.22255
 C5 C 0.26842 0.27810 0.17768
 H6 H 0.24825 0.26592 0.16516
 C7 C 0.28958 0.29691 0.15701
 H8 H 0.28476 0.29939 0.12902
 N9 N 0.27310 0.27530 0.21317
 C10 C 0.18193 0.27324 0.26865
 H11 H 0.17164 0.25373 0.25331
 C12 C 0.16062 0.29392 0.28831
 H13 H 0.13412 0.29024 0.28761
 C14 C 0.22875 0.30100 0.28957
 H15 H 0.25532 0.30358 0.29014
 C16 C 0.20836 0.32201 0.30994
 H17 H 0.21946 0.34091 0.32569
 Zn18 Zn 0.24439 0.24979 0.24165
 N19 N 0.21534 0.27738 0.26915
 C20 C 0.26077 0.22137 0.30694
 N21 N 0.27060 0.22485 0.27249
 C22 C 0.29864 0.20999 0.25928
 C23 C 0.31798 0.19049 0.28101
 C24 C 0.27929 0.20196 0.32956
 C25 C 0.19660 0.23380 0.19024
 C26 C 0.17793 0.21324 0.16912
 C27 C 0.20680 0.16744 0.19408
 C28 C 0.22472 0.18885 0.21494
 N29 N 0.21952 0.22141 0.21261
 H30 H 0.23828 0.23327 0.31678
 H31 H 0.30573 0.21302 0.23169
 H32 H 0.33990 0.17838 0.26987
 H33 H 0.27113 0.19948 0.35693
 H34 H 0.19264 0.25974 0.18903
 H35 H 0.15993 0.22355 0.15136
 H36 H 0.21110 0.14162 0.19656
 H37 H 0.24271 0.17933 0.23307
 C38 C 0.17380 0.31875 0.30920
 C39 C 0.31630 0.31263 0.17277
 C40 C 0.18300 0.17958 0.17085
 C41 C 0.30825 0.18611 0.31661
 C42 C 0.80166 0.78881 0.23734
 H43 H 0.80559 0.78809 0.26564
 C44 C 0.82202 0.80762 0.21577
 H45 H 0.84198 0.82023 0.22836
 C46 C 0.77197 0.77083 0.18758
 H47 H 0.75250 0.75638 0.17663
 C48 C 0.79162 0.78939 0.16496
 H49 H 0.78549 0.78941 0.13719
 N50 N 0.77702 0.77119 0.22309
 C51 C 0.70247 0.76022 0.30737
 H52 H 0.70097 0.73411 0.30853
 C53 C 0.68182 0.77964 0.32928
 H54 H 0.66438 0.76831 0.34727
 C55 C 0.72628 0.80668 0.28156
 H56 H 0.74331 0.81716 0.26263
 C57 C 0.70593 0.82699 0.30277
 H58 H 0.70799 0.85300 0.30038
 Zn59 Zn 0.75077 0.74629 0.25438
 N60 N 0.72440 0.77394 0.28439
 C61 C 0.77898 0.72138 0.31734
 N62 N 0.78009 0.72047 0.28124
 C63 C 0.80311 0.70193 0.26314
 C64 C 0.82580 0.68278 0.28140
 C65 C 0.80103 0.70245 0.33665
 C66 C 0.69661 0.73505 0.21107
 C67 C 0.67404 0.71703 0.19171
 C68 C 0.70288 0.66814 0.20900
 C69 C 0.72480 0.68710 0.22818
 N70 N 0.72156 0.71995 0.22849
 H71 H 0.76116 0.73690 0.33132
 H72 H 0.80377 0.70201 0.23442
 H73 H 0.84364 0.66782 0.26654
 H74 H 0.79986 0.70356 0.36538
 H75 H 0.69437 0.76120 0.21211
 H76 H 0.65469 0.72953 0.17752
 H77 H 0.70576 0.64202 0.20913
 H78 H 0.74429 0.67548 0.24284
 C79 C 0.68337 0.81351 0.32706
 C80 C 0.81727 0.80852 0.17871
 C81 C 0.67714 0.68311 0.19035
 C82 C 0.82479 0.68276 0.31866
 C83 C 0.80239 0.29108 0.73551
 H84 H 0.80496 0.28959 0.76397
 C85 C 0.82361 0.31059 0.71573
 H86 H 0.84270 0.32378 0.72925
 C87 C 0.77516 0.27443 0.68341
 H88 H 0.75652 0.26005 0.67083
 C89 C 0.79562 0.29388 0.66265
 H90 H 0.79186 0.29469 0.63431
 N91 N 0.77868 0.27360 0.71920
 C92 C 0.69989 0.25734 0.79773
 H93 H 0.69896 0.23116 0.79743
 C94 C 0.67803 0.27537 0.81974
 H95 H 0.66022 0.26292 0.83632
 C96 C 0.72384 0.30539 0.77590
 H97 H 0.74160 0.31703 0.75866
 C98 C 0.70226 0.32435 0.79722
 H99 H 0.70399 0.35049 0.79657
 Zn100 Zn 0.75193 0.24682 0.74800
 N101 N 0.72260 0.27251 0.77688
 C102 C 0.77617 0.21974 0.81187
 N103 N 0.78078 0.22184 0.77621
 C104 C 0.80671 0.20643 0.75940
 C105 C 0.82893 0.18742 0.77837
 C106 C 0.79741 0.20059 0.83191
 C107 C 0.70160 0.23251 0.70006
 C108 C 0.68188 0.21291 0.67893
 C109 C 0.71244 0.16607 0.69917
 C110 C 0.73154 0.18654 0.71989
 N111 N 0.72612 0.21914 0.71965
 H112 H 0.75609 0.23300 0.82504
 H113 H 0.80987 0.20859 0.73095
 H114 H 0.84799 0.17452 0.76309
 H115 H 0.79307 0.20084 0.86030
 H116 H 0.69752 0.25848 0.70073
 H117 H 0.66291 0.22406 0.66300
 H118 H 0.71699 0.14017 0.69995
 H119 H 0.75058 0.17626 0.73626
 C120 C 0.67917 0.30934 0.81973
 C121 C 0.82037 0.31226 0.67873
 C122 C 0.68731 0.17920 0.67818
 C123 C 0.82458 0.18358 0.81551
 C124 C 0.30401 0.79875 0.73406
 H125 H 0.30584 0.80008 0.76264
 C126 C 0.32350 0.81865 0.71274
 H127 H 0.34049 0.83516 0.72514
 C128 C 0.28030 0.77482 0.68324
 H129 H 0.26373 0.75747 0.67180
 C130 C 0.29940 0.79418 0.66093
 H131 H 0.29680 0.79190 0.63247
 N132 N 0.28267 0.77765 0.71910
 C133 C 0.20733 0.76103 0.80145
 H134 H 0.20815 0.73485 0.80251
 C135 C 0.18533 0.77863 0.82369
 H136 H 0.16914 0.76584 0.84179
 C137 C 0.22700 0.80945 0.77597
 H138 H 0.24301 0.82139 0.75711
 C139 C 0.20516 0.82797 0.79748
 H140 H 0.20504 0.85411 0.79538
 Zn141 Zn 0.25747 0.75108 0.74971
 N142 N 0.22804 0.77662 0.77869
 C143 C 0.28555 0.72914 0.81404
 N144 N 0.28771 0.72763 0.77797
 C145 C 0.31202 0.70980 0.76100
 C146 C 0.33466 0.69159 0.78040
 C147 C 0.30753 0.71117 0.83445
 C148 C 0.20656 0.73548 0.70352
 C149 C 0.18646 0.71565 0.68312
 C150 C 0.21731 0.66905 0.70350
 C151 C 0.23671 0.68976 0.72366
 N152 N 0.23137 0.72236 0.72290
 H153 H 0.26681 0.74421 0.82715
 H154 H 0.31352 0.70943 0.73230
 H155 H 0.35334 0.67692 0.76641
 H156 H 0.30533 0.71255 0.86312
 H157 H 0.20261 0.76147 0.70373
 H158 H 0.16725 0.72659 0.66733
 H159 H 0.22189 0.64316 0.70446
 H160 H 0.25595 0.67968 0.73990
 C161 C 0.18417 0.81257 0.82194
 C162 C 0.32130 0.81654 0.67563
 C163 C 0.19190 0.68197 0.68274
 C164 C 0.33231 0.69185 0.81763
 Si165 Si -0.00667 -0.00220 0.00157
 Si166 Si 0.00144 0.50421 0.50919
 Si167 Si 0.49520 0.00889 0.49738
 Si168 Si 0.50063 0.50222 0.00374
 C169 C 0.15800 -0.17560 -0.11824
 C170 C 0.13704 -0.15694 -0.09582
 C171 C 0.11883 -0.13083 -0.10918
 C172 C 0.12182 -0.12350 -0.14543
 C173 C 0.14298 -0.14195 -0.16781
 C174 C 0.16132 -0.16817 -0.15444
 N175 N 0.09798 -0.11185 -0.08541
 N176 N 0.07885 -0.08951 -0.09648
 C177 C 0.05844 -0.06988 -0.07295
 C178 C 0.03605 -0.04771 -0.08745
 C179 C 0.01624 -0.02763 -0.06536
 C180 C 0.01900 -0.02911 -0.02837
 C181 C 0.04100 -0.05170 -0.01375
 C182 C 0.06067 -0.07196 -0.03586
 H183 H 0.17210 -0.19546 -0.10717
 H184 H 0.13504 -0.16276 -0.06792
 H185 H 0.10803 -0.10340 -0.15640
 H186 H 0.14482 -0.13589 -0.19566
 H187 H 0.03396 -0.04603 -0.11597
 H188 H -0.00110 -0.01109 -0.07739
 H189 H 0.04313 -0.05348 0.01477
 H190 H 0.07776 -0.08897 -0.02401
 C191 C 0.12304 0.35446 0.31492
 C192 C 0.10224 0.37571 0.33457
 C193 C 0.10937 0.38362 0.36977
 C194 C 0.13785 0.37020 0.38516
 C195 C 0.15887 0.34923 0.36542
 C196 C 0.15161 0.34108 0.33013
 N197 N 0.08751 0.40540 0.38920
 N198 N 0.09059 0.41079 0.42229
 C199 C 0.06914 0.43285 0.44183
 C200 C 0.07161 0.43463 0.47877
 C201 C 0.05117 0.45595 0.49867
 C202 C 0.02843 0.47632 0.48177
 C203 C 0.02563 0.47437 0.44477
 C204 C 0.04587 0.45277 0.42487
 H205 H 0.11706 0.34885 0.28766
 H206 H 0.08044 0.38597 0.32238
 H207 H 0.14394 0.37601 0.41233
 H208 H 0.18057 0.33905 0.37787
 H209 H 0.08932 0.41931 0.49217
 H210 H 0.05326 0.45673 0.52728
 H211 H 0.00775 0.48926 0.43118
 H212 H 0.04341 0.45174 0.39633
 C213 C 0.65599 -0.17218 0.38574
 C214 C 0.63551 -0.15198 0.40704
 C215 C 0.61984 -0.12480 0.39266
 C216 C 0.62496 -0.11792 0.35654
 C217 C 0.64562 -0.13796 0.33528
 C218 C 0.66136 -0.16531 0.34965
 N219 N 0.59914 -0.10451 0.41525
 N220 N 0.58253 -0.08069 0.40330
 C221 C 0.56211 -0.06008 0.42581
 C222 C 0.54264 -0.03591 0.41038
 C223 C 0.52251 -0.01527 0.43155
 C224 C 0.52195 -0.01831 0.46859
 C225 C 0.54132 -0.04266 0.48408
 C226 C 0.56127 -0.06343 0.46289
 H227 H 0.66806 -0.19290 0.39761
 H228 H 0.63183 -0.15749 0.43486
 H229 H 0.61313 -0.09704 0.34478
 H230 H 0.64899 -0.13228 0.30747
 H231 H 0.54297 -0.03316 0.38183
 H232 H 0.50749 0.00291 0.41880
 H233 H 0.54091 -0.04563 0.51260
 H234 H 0.57606 -0.08197 0.47547
 C235 C 0.65143 0.32038 -0.12109
 C236 C 0.63120 0.33965 -0.09852
 C237 C 0.61566 0.36764 -0.11116
 C238 C 0.62046 0.37618 -0.14687
 C239 C 0.64090 0.35709 -0.16939
 C240 C 0.65669 0.32906 -0.15669
 N241 N 0.59589 0.38736 -0.08708
 N242 N 0.57915 0.41174 -0.09747
 C243 C 0.56012 0.43209 -0.07336
 C244 C 0.54007 0.45673 -0.08704
 C245 C 0.52187 0.47760 -0.06425
 C246 C 0.52395 0.47437 -0.02735
 C247 C 0.54361 0.44937 -0.01359
 C248 C 0.56162 0.42834 -0.03639
 H249 H 0.66356 0.29910 -0.11051
 H250 H 0.62780 0.33290 -0.07102
 H251 H 0.60874 0.39774 -0.15727
 H252 H 0.64427 0.36416 -0.19679
 H253 H 0.53859 0.45976 -0.11547
 H254 H 0.50638 0.49618 -0.07564
 H255 H 0.54522 0.44629 0.01483
 H256 H 0.57693 0.40945 -0.02515
 C257 C -0.12208 0.15585 -0.17814
 C258 C -0.10101 0.13592 -0.15872
 C259 C -0.11157 0.12319 -0.12640
 C260 C -0.14341 0.13110 -0.11315
 C261 C -0.16444 0.15144 -0.13210
 C262 C -0.15452 0.16423 -0.16540
 N263 N -0.08952 0.10237 -0.10756
 N264 N -0.09929 0.08597 -0.08107
 C265 C -0.07719 0.06542 -0.06197
 C266 C -0.09040 0.04401 -0.03711
 C267 C -0.06951 0.02341 -0.01827
 C268 C -0.03507 0.02417 -0.02397
 C269 C -0.02174 0.04620 -0.04819
 C270 C -0.04264 0.06647 -0.06739
 H271 H -0.11174 0.16576 -0.20227
 H272 H -0.07627 0.13031 -0.16899
 H273 H -0.15218 0.12142 -0.08815
 H274 H -0.18914 0.15527 -0.12104
 H275 H -0.11696 0.04320 -0.03249
 H276 H -0.08038 0.00721 0.00088
 H277 H 0.00485 0.04757 -0.05237
 H278 H -0.03182 0.08310 -0.08617
 C279 C -0.11799 0.66010 0.32849
 C280 C -0.09588 0.64097 0.34764
 C281 C -0.10706 0.62354 0.37704
 C282 C -0.14077 0.62557 0.38725
 C283 C -0.16283 0.64486 0.36831
 C284 C -0.15169 0.66231 0.33871
 N285 N -0.08383 0.60416 0.39616
 N286 N -0.09310 0.58606 0.42146
 C287 C -0.07034 0.56677 0.44123
 C288 C -0.08300 0.54589 0.46690
 C289 C -0.06166 0.52687 0.48698
 C290 C -0.02722 0.52851 0.48162
 C291 C -0.01440 0.54971 0.45620
 C292 C -0.03580 0.56861 0.43590
 H293 H -0.10865 0.67355 0.30602
 H294 H -0.06996 0.63970 0.33956
 H295 H -0.15006 0.61234 0.40990
 H296 H -0.18872 0.64582 0.37655
 H297 H -0.10954 0.54444 0.47142
 H298 H -0.07223 0.51125 0.50690
 H299 H 0.01215 0.55162 0.45207
 H300 H -0.02541 0.58477 0.41637
 C301 C 0.31181 0.14333 0.36317
 C302 C 0.33026 0.12268 0.38460
 C303 C 0.36494 0.12305 0.38332
 C304 C 0.38112 0.14445 0.36027
 C305 C 0.36271 0.16502 0.33870
 C306 C 0.32784 0.16466 0.33989
 N307 N 0.38305 0.10129 0.40536
 N308 N 0.41457 0.10119 0.40641
 C309 C 0.43277 0.07924 0.42813
 C310 C 0.46730 0.08166 0.42920
 C311 C 0.48583 0.06053 0.44997
 C312 C 0.47002 0.03651 0.46974
 C313 C 0.43542 0.03403 0.46881
 C314 C 0.41686 0.05527 0.44814
 H315 H 0.28501 0.14220 0.36434
 H316 H 0.31751 0.10623 0.40217
 H317 H 0.40793 0.14521 0.35883
 H318 H 0.37573 0.18143 0.32131
 H319 H 0.47984 0.10001 0.41393
 H320 H 0.51252 0.06287 0.45055
 H321 H 0.42270 0.01570 0.48389
 H322 H 0.39018 0.05289 0.44771
 C323 C 0.38915 0.66943 -0.16997
 C324 C 0.41043 0.65001 -0.15013
 C325 C 0.39810 0.63234 -0.12143
 C326 C 0.36412 0.63458 -0.11247
 C327 C 0.34288 0.65413 -0.13211
 C328 C 0.35513 0.67167 -0.16117
 N329 N 0.42036 0.61206 -0.10212
 N330 N 0.41006 0.59357 -0.07762
 C331 C 0.43190 0.57298 -0.05821
 C332 C 0.41819 0.55117 -0.03412
 C333 C 0.43861 0.53005 -0.01541
 C334 C 0.47313 0.53052 -0.02058
 C335 C 0.48700 0.55300 -0.04394
 C336 C 0.46654 0.57396 -0.06291
 H337 H 0.39932 0.68291 -0.19200
 H338 H 0.43656 0.64854 -0.15727
 H339 H 0.35396 0.62115 -0.09041
 H340 H 0.31674 0.65509 -0.12495
 H341 H 0.39155 0.55036 -0.03008
 H342 H 0.42727 0.51344 0.00298
 H343 H 0.51365 0.55404 -0.04782
 H344 H 0.47774 0.59081 -0.08117
 C345 C -0.15893 -0.17889 0.11939
 C346 C -0.13952 -0.15948 0.09737
 C347 C -0.12303 -0.13287 0.11124
 C348 C -0.12614 -0.12572 0.14764
 C349 C -0.14565 -0.14492 0.16977
 C350 C -0.16260 -0.17202 0.15620
 N351 N -0.10367 -0.11330 0.08782
 N352 N -0.08626 -0.09008 0.09918
 C353 C -0.06731 -0.07009 0.07583
 C354 C -0.04693 -0.04652 0.09047
 C355 C -0.02847 -0.02626 0.06847
 C356 C -0.03054 -0.02911 0.03147
 C357 C -0.05067 -0.05292 0.01673
 C358 C -0.06898 -0.07332 0.03872
 H359 H -0.16992 -0.19988 0.10728
 H360 H -0.13710 -0.16540 0.06934
 H361 H -0.11391 -0.10498 0.15896
 H362 H -0.14827 -0.13729 0.19723
 H363 H -0.04535 -0.04388 0.11901
 H364 H -0.01274 -0.00845 0.08053
 H365 H -0.05236 -0.05560 -0.01181
 H366 H -0.08456 -0.09137 0.02676
 C367 C -0.14663 0.32276 0.62277
 C368 C -0.12603 0.34229 0.60221
 C369 C -0.11528 0.37199 0.61554
 C370 C -0.12551 0.38216 0.64981
 C371 C -0.14642 0.36282 0.67029
 C372 C -0.15727 0.33285 0.65703
 N373 N -0.09461 0.39157 0.59347
 N374 N -0.08067 0.41690 0.60509
 C375 C -0.06079 0.43675 0.58246
 C376 C -0.04257 0.46183 0.59750
 C377 C -0.02342 0.48194 0.57596
 C378 C -0.02280 0.47749 0.53900
 C379 C -0.04081 0.45223 0.52393
 C380 C -0.05964 0.43193 0.54545
 H381 H -0.15394 0.29961 0.61191
 H382 H -0.11826 0.33418 0.57584
 H383 H -0.11774 0.40520 0.66056
 H384 H -0.15454 0.37164 0.69627
 H385 H -0.04318 0.46573 0.62598
 H386 H -0.00937 0.50093 0.58830
 H387 H -0.04049 0.44835 0.49544
 H388 H -0.07356 0.41277 0.53315
 C389 C 0.35680 -0.17536 0.62104
 C390 C 0.37618 -0.15578 0.59919
 C391 C 0.38093 -0.12323 0.60813
 C392 C 0.36604 -0.11033 0.63939
 C393 C 0.34671 -0.12991 0.66133
 C394 C 0.34186 -0.16265 0.65238
 N395 N 0.40112 -0.10395 0.58520
 N396 N 0.40606 -0.07405 0.59139
 C397 C 0.42652 -0.05494 0.56856
 C398 C 0.43077 -0.02217 0.57690
 C399 C 0.45104 -0.00301 0.55551
 C400 C 0.46758 -0.01646 0.52556
 C401 C 0.46283 -0.04918 0.51682
 C402 C 0.44255 -0.06834 0.53818
 H403 H 0.35390 -0.20058 0.61366
 H404 H 0.38764 -0.16602 0.57525
 H405 H 0.36932 -0.08520 0.64686
 H406 H 0.33521 -0.11932 0.68507
 H407 H 0.41841 -0.01150 0.60012
 H408 H 0.45378 0.02221 0.56261
 H409 H 0.47458 -0.06003 0.49340
 H410 H 0.43946 -0.09356 0.53098
 C411 C 0.34751 0.32384 0.11585
 C412 C 0.36818 0.34322 0.09519
 C413 C 0.38123 0.37163 0.10939
 C414 C 0.37339 0.38055 0.14471
 C415 C 0.35243 0.36136 0.16533
 C416 C 0.33914 0.33278 0.15113
 N417 N 0.40173 0.39123 0.08716
 N418 N 0.41743 0.41537 0.09916
 C419 C 0.43719 0.43529 0.07649
 C420 C 0.45750 0.45862 0.09174
 C421 C 0.47684 0.47861 0.07027
 C422 C 0.47557 0.47586 0.03319
 C423 C 0.45532 0.45247 0.01788
 C424 C 0.43630 0.43223 0.03932
 H425 H 0.33830 0.30172 0.10421
 H426 H 0.37412 0.33606 0.06803
 H427 H 0.38300 0.40257 0.15619
 H428 H 0.34613 0.36928 0.19216
 H429 H 0.45845 0.46117 0.12034
 H430 H 0.49256 0.49616 0.08277
 H431 H 0.45417 0.44990 -0.01071
 H432 H 0.42072 0.41446 0.02686
 C433 C 0.17872 0.13039 0.13156
 C434 C 0.16009 0.10900 0.11134
 C435 C 0.12585 0.11380 0.10836
 C436 C 0.11037 0.14062 0.12553
 C437 C 0.12901 0.16218 0.14552
 C438 C 0.16336 0.15718 0.14891
 N439 N 0.10740 0.09107 0.08799
 N440 N 0.07591 0.09256 0.08666
 C441 C 0.05732 0.06993 0.06632
 C442 C 0.02267 0.07158 0.06841
 C443 C 0.00377 0.04975 0.04911
 C444 C 0.01934 0.02596 0.02742
 C445 C 0.05406 0.02452 0.02485
 C446 C 0.07299 0.04625 0.04435
 H447 H 0.20520 0.12616 0.13340
 H448 H 0.17231 0.08849 0.09814
 H449 H 0.08392 0.14487 0.12358
 H450 H 0.11649 0.18244 0.15889
 H451 H 0.01030 0.08979 0.08513
 H452 H -0.02304 0.05144 0.05111
 H453 H 0.06667 0.00680 0.00782
 H454 H 0.09977 0.04465 0.04209
 C455 C 0.18621 0.63455 0.64119
 C456 C 0.16698 0.61424 0.62034
 C457 C 0.13267 0.61921 0.61869
 C458 C 0.11765 0.64502 0.63806
 C459 C 0.13689 0.66551 0.65879
 C460 C 0.17138 0.66041 0.66066
 N461 N 0.11379 0.59762 0.59733
 N462 N 0.08231 0.59943 0.59592
 C463 C 0.06388 0.57747 0.57451
 C464 C 0.02918 0.57884 0.57624
 C465 C 0.01061 0.55705 0.55640
 C466 C 0.02658 0.53352 0.53466
 C467 C 0.06132 0.53276 0.53208
 C468 C 0.07987 0.55441 0.55202
 H469 H 0.21276 0.63029 0.64173
 H470 H 0.17884 0.59448 0.60545
 H471 H 0.09113 0.64933 0.63722
 H472 H 0.12475 0.68504 0.67376
 H473 H 0.01653 0.59662 0.59326
 H474 H -0.01621 0.55834 0.55829
 H475 H 0.07431 0.51553 0.51479
 H476 H 0.10667 0.55308 0.54987
 C477 C 0.68163 0.13130 0.63717
 C478 C 0.66243 0.11092 0.61636
 C479 C 0.62830 0.11655 0.61369
 C480 C 0.61343 0.14303 0.63205
 C481 C 0.63261 0.16348 0.65288
 C482 C 0.66692 0.15778 0.65575
 N483 N 0.60940 0.09500 0.59230
 N484 N 0.57826 0.09865 0.58869
 C485 C 0.55944 0.07702 0.56732
 C486 C 0.52536 0.08277 0.56414
 C487 C 0.50633 0.06220 0.54337
 C488 C 0.52107 0.03533 0.52574
 C489 C 0.55533 0.02979 0.52852
 C490 C 0.57438 0.05037 0.54929
 H491 H 0.70806 0.12653 0.63843
 H492 H 0.67419 0.09065 0.60223
 H493 H 0.58704 0.14785 0.63046
 H494 H 0.62049 0.18342 0.66719
 H495 H 0.51360 0.10339 0.57759
 H496 H 0.48017 0.06766 0.54064
 H497 H 0.56760 0.00979 0.51465
 H498 H 0.60075 0.04554 0.55111
 C499 C 0.61962 0.67101 0.17021
 C500 C 0.59768 0.65249 0.15046
 C501 C 0.60943 0.62632 0.12956
 C502 C 0.64354 0.61869 0.12874
 C503 C 0.66547 0.63707 0.14861
 C504 C 0.65377 0.66347 0.16951
 N505 N 0.58632 0.60787 0.10957
 N506 N 0.59575 0.58489 0.08871
 C507 C 0.57294 0.56607 0.06879
 C508 C 0.58551 0.54218 0.04528
 C509 C 0.56405 0.52312 0.02562
 C510 C 0.52961 0.52748 0.02955
 C511 C 0.51693 0.55169 0.05275
 C512 C 0.53842 0.57086 0.07234
 H513 H 0.60984 0.69097 0.18637
 H514 H 0.57145 0.65855 0.15142
 H515 H 0.65325 0.59858 0.11278
 H516 H 0.69168 0.63091 0.14723
 H517 H 0.61205 0.53839 0.04216
 H518 H 0.57455 0.50507 0.00745
 H519 H 0.49041 0.55565 0.05580
 H520 H 0.52809 0.58926 0.09028
   
