data_POSCAR
  _audit_creation_date              2014-09-24
  _audit_creation_method            'ToBaCCo'
  _symmetry_space_group_name_H-M    'P1'
  _symmetry_Int_Tables_number       1
  _symmetry_cell_setting            triclinic
  loop_
  _symmetry_equiv_pos_as_xyz
 x,y,z
_cell_length_a 26.0850
_cell_length_b 26.1729
_cell_length_c 30.0339
_cell_angle_alpha 89.998700
_cell_angle_beta 90.195600
_cell_angle_gamma 120.113800
loop_
  _atom_site_label
  _atom_site_type_symbol
  _atom_site_fract_x
  _atom_site_fract_y
  _atom_site_fract_z
O1 O 0.34572 0.57717 0.28700
 O2 O 0.24821 0.57950 0.30016
 C3 C 0.22172 0.60772 0.30856
 O4 O 0.22975 0.65273 0.28680
 O5 O 0.32984 0.75010 0.30033
 C6 C 0.38476 0.77664 0.30888
 O7 O 0.42188 0.76862 0.28723
 O8 O 0.41935 0.66898 0.30053
 C9 C 0.39100 0.61425 0.30886
 O10 O 0.32964 0.57961 0.19829
 O11 O 0.22959 0.57692 0.21145
 C12 C 0.22144 0.61383 0.18963
 O13 O 0.24807 0.66856 0.19814
 O14 O 0.34565 0.76841 0.21168
 C15 C 0.39089 0.77659 0.19005
 O16 O 0.41926 0.75023 0.19853
 O17 O 0.42173 0.65308 0.21185
 C18 C 0.38455 0.60795 0.19001
 Cr19 Cr 0.28995 0.58161 0.24923
 Cr20 Cr 0.28998 0.70830 0.24924
 Cr21 Cr 0.41724 0.70857 0.24953
 O22 O 0.33240 0.66616 0.24934
 O23 O 0.58013 0.33067 0.69908
 O24 O 0.57768 0.23106 0.71238
 C25 C 0.61481 0.22306 0.69075
 O26 O 0.66973 0.24963 0.69930
 O27 O 0.76978 0.34703 0.71281
 C28 C 0.77780 0.39206 0.69108
 O29 O 0.75130 0.42026 0.69949
 O30 O 0.65373 0.42250 0.71260
 C31 C 0.60847 0.38540 0.69074
 O32 O 0.57770 0.34653 0.78777
 O33 O 0.58026 0.24942 0.80107
 C34 C 0.60867 0.22310 0.80957
 O35 O 0.65394 0.23133 0.78796
 O36 O 0.75151 0.33121 0.80148
 C37 C 0.77802 0.38593 0.80997
 O38 O 0.76985 0.42286 0.78822
 O39 O 0.66976 0.42008 0.80132
 C40 C 0.61485 0.39170 0.80960
 Cr41 Cr 0.58226 0.29108 0.75008
 Cr42 Cr 0.70958 0.29145 0.75039
 Cr43 Cr 0.70951 0.41812 0.75040
 O44 O 0.66712 0.33355 0.75029
 C45 C 0.40641 -0.18134 0.34466
 C46 C 0.42459 -0.14609 0.37479
 C47 C 0.44628 -0.10406 0.41079
 C48 C 0.45330 -0.12149 0.45336
 C49 C 0.47433 -0.08071 0.48838
 C50 C 0.48867 -0.02186 0.48124
 C51 C 0.48147 -0.00478 0.43830
 C52 C 0.46039 -0.04565 0.40334
 C53 C 0.51104 0.02151 0.51841
 C54 C 0.55726 0.07979 0.51140
 C55 C 0.57827 0.12057 0.54642
 C56 C 0.55341 0.10372 0.58885
 C57 C 0.50742 0.04589 0.59618
 C58 C 0.48636 0.00502 0.56122
 C59 C 0.57505 0.14576 0.62485
 C60 C 0.59319 0.18103 0.65497
 H61 H 0.44266 -0.16656 0.45946
 H62 H 0.48012 -0.09502 0.52089
 H63 H 0.49138 0.03997 0.43188
 H64 H 0.45496 -0.03174 0.37054
 H65 H 0.57768 0.09363 0.47900
 H66 H 0.61400 0.16519 0.54042
 H67 H 0.48774 0.03243 0.62887
 H68 H 0.45024 -0.03926 0.56754
 C69 C 1.17981 0.58733 0.34432
 C70 C 1.14471 0.57030 0.37448
 C71 C 1.10294 0.55005 0.41056
 C72 C 1.04424 0.50550 0.40330
 C73 C 1.00364 0.48580 0.43835
 C74 C 1.02130 0.51043 0.48119
 C75 C 1.08045 0.55520 0.48812
 C76 C 1.12095 0.57485 0.45302
 C77 C 0.97823 0.48953 0.51845
 C78 C 0.99527 0.48180 0.56130
 C79 C 0.95468 0.46209 0.59635
 C80 C 0.89659 0.44990 0.58908
 C81 C 0.87919 0.45746 0.54662
 C82 C 0.91969 0.47712 0.51151
 C83 C 0.85481 0.42957 0.62516
 C84 C 0.81972 0.41248 0.65532
 H85 H 1.02987 0.48588 0.37059
 H86 H 0.95865 0.45076 0.43208
 H87 H 1.09521 0.57557 0.52055
 H88 H 1.16626 0.60948 0.45897
 H89 H 1.03976 0.49022 0.56758
 H90 H 0.96856 0.45621 0.62907
 H91 H 0.83437 0.44830 0.54066
 H92 H 0.90544 0.48337 0.47907
 C93 C 0.41156 0.59278 0.34463
 C94 C 0.42878 0.57473 0.37475
 C95 C 0.44927 0.55319 0.41074
 C96 C 0.45747 0.57808 0.45325
 C97 C 0.47729 0.55713 0.48826
 C98 C 0.48924 0.51096 0.48118
 C99 C 0.48088 0.48626 0.43830
 C100 C 0.46100 0.50725 0.40335
 C101 C 0.51031 0.48867 0.51835
 C102 C 0.55485 0.47423 0.51129
 C103 C 0.57467 0.45328 0.54631
 C104 C 0.55025 0.44644 0.58880
 C105 C 0.50592 0.46065 0.59619
 C106 C 0.48606 0.48164 0.56123
 C107 C 0.57071 0.42489 0.62482
 C108 C 0.58791 0.40684 0.65495
 H109 H 0.44867 0.61377 0.45930
 H110 H 0.48403 0.57758 0.52072
 H111 H 0.48893 0.45017 0.43193
 H112 H 0.45464 0.48754 0.37060
 H113 H 0.57493 0.47988 0.47883
 H114 H 0.60914 0.44257 0.54026
 H115 H 0.48660 0.45536 0.62894
 H116 H 0.45118 0.49164 0.56760
 C117 C 0.41140 -0.18141 1.15437
 C118 C 0.42860 -0.14616 1.12435
 C119 C 0.44910 -0.10412 1.08848
 C120 C 0.49383 -0.04573 1.09606
 C121 C 0.51376 -0.00484 1.06124
 C122 C 0.48917 -0.02188 1.01830
 C123 C 0.44422 -0.08073 1.01103
 C124 C 0.42433 -0.12152 1.04591
 C125 C 0.51032 0.02151 0.98127
 C126 C 0.51818 0.00503 0.93835
 C127 C 0.53812 0.04592 0.90353
 C128 C 0.55041 0.10375 0.91110
 C129 C 0.54271 0.12059 0.95365
 C130 C 0.52282 0.07979 0.98853
 C131 C 0.57093 0.14581 0.87524
 C132 C 0.58815 0.18108 0.84523
 H133 H 0.51343 -0.03183 1.12886
 H134 H 0.54895 0.03990 1.06776
 H135 H 0.42387 -0.09501 0.97852
 H136 H 0.38955 -0.16659 1.03971
 H137 H 0.50968 -0.03925 0.93183
 H138 H 0.54409 0.03248 0.87074
 H139 H 0.55194 0.16521 0.95985
 H140 H 0.51648 0.09361 1.02104
 C141 C 1.18317 0.59421 1.15707
 C142 C 1.14781 0.57608 1.12687
 C143 C 1.10570 0.55446 1.09077
 C144 C 1.12260 0.57940 1.04835
 C145 C 1.08176 0.55840 1.01323
 C146 C 1.02336 0.51212 1.02011
 C147 C 1.00681 0.48737 1.06290
 C148 C 1.04775 0.50842 1.09796
 C149 C 0.97993 0.48977 0.98282
 C150 C 0.92078 0.47517 0.98978
 C151 C 0.87994 0.45415 0.95465
 C152 C 0.89760 0.44741 0.91216
 C153 C 0.95630 0.46178 0.90488
 C154 C 0.99723 0.48285 0.93994
 C155 C 0.85549 0.42573 0.87604
 C156 C 0.82016 0.40756 0.84584
 H157 H 1.16732 0.61518 1.04245
 H158 H 1.09564 0.57888 0.98084
 H159 H 0.96245 0.45121 1.06912
 H160 H 1.03425 0.48868 1.13064
 H161 H 0.90628 0.48074 1.02223
 H162 H 0.83463 0.44331 0.96062
 H163 H 0.97040 0.45656 0.87213
 H164 H 1.04222 0.49296 0.93366
 C165 C 0.40611 0.58752 1.15433
 C166 C 0.42426 0.57041 1.12431
 C167 C 0.44595 0.55005 1.08845
 C168 C 0.45080 0.57284 1.04554
 C169 C 0.47188 0.55312 1.01067
 C170 C 0.48844 0.51029 1.01829
 C171 C 0.48340 0.48767 1.06158
 C172 C 0.46227 0.50743 1.09639
 C173 C 0.51087 0.48932 0.98128
 C174 C 0.55864 0.47951 0.98817
 C175 C 0.57973 0.45979 0.95330
 C176 C 0.55338 0.44957 0.91112
 C177 C 0.50585 0.45917 0.90391
 C178 C 0.48471 0.47893 0.93872
 C179 C 0.57508 0.42920 0.87527
 C180 C 0.59325 0.41210 0.84526
 H181 H 0.43845 0.60598 1.03906
 H182 H 0.47597 0.57194 0.97787
 H183 H 0.49505 0.45412 1.06839
 H184 H 0.45853 0.48937 1.12946
 H185 H 0.58021 0.48783 1.02037
 H186 H 0.61666 0.45265 0.95921
 H187 H 0.48501 0.45122 0.87142
 H188 H 0.44740 0.48532 0.93251
   
