data_POSCAR
  _audit_creation_date              2014-09-24
  _audit_creation_method            'ToBaCCo'
  _symmetry_space_group_name_H-M    'P1'
  _symmetry_Int_Tables_number       1
  _symmetry_cell_setting            triclinic
  loop_
  _symmetry_equiv_pos_as_xyz
 x,y,z
_cell_length_a 45.7893
_cell_length_b 47.8347
_cell_length_c 6.9209
_cell_angle_alpha 90.116900
_cell_angle_beta 90.088900
_cell_angle_gamma 90.060300
loop_
  _atom_site_label
  _atom_site_type_symbol
  _atom_site_fract_x
  _atom_site_fract_y
  _atom_site_fract_z
O1 O 0.23185 0.27680 0.02934
 O2 O 0.28422 0.22224 0.17233
 O3 O 0.23167 0.22178 0.03117
 O4 O 0.28424 0.27662 0.17105
 O5 O 0.26707 0.27715 0.46920
 O6 O 0.21456 0.22235 0.32937
 O7 O 0.26701 0.22215 0.47020
 O8 O 0.21465 0.27669 0.32726
 Cu9 Cu 0.25987 0.24932 0.07194
 Cu10 Cu 0.23894 0.24961 0.42809
 C11 C 0.21442 0.28609 0.15645
 C12 C 0.28447 0.21288 0.34323
 C13 C 0.21424 0.21269 0.15898
 C14 C 0.28450 0.28628 0.34156
 O15 O 0.78447 0.27668 0.32573
 O16 O 0.73193 0.22203 0.46521
 O17 O 0.78454 0.22237 0.32648
 O18 O 0.73192 0.27704 0.46455
 O19 O 0.71485 0.27656 0.16589
 O20 O 0.76751 0.22192 0.02765
 O21 O 0.71490 0.22218 0.16645
 O22 O 0.76739 0.27686 0.02700
 Cu23 Cu 0.76006 0.24954 0.42470
 Cu24 Cu 0.73928 0.24935 0.06755
 C25 C 0.78481 0.28609 0.15494
 C26 C 0.71453 0.21277 0.33724
 C27 C 0.78494 0.21284 0.15571
 C28 C 0.71454 0.28617 0.33643
 O29 O 0.73298 0.77793 0.52856
 O30 O 0.78512 0.72319 0.67120
 O31 O 0.73270 0.72293 0.52979
 O32 O 0.78543 0.77754 0.66954
 O33 O 0.76833 0.77818 0.96779
 O34 O 0.71558 0.72351 0.82803
 O35 O 0.76800 0.72319 0.96949
 O36 O 0.71580 0.77792 0.82661
 Cu37 Cu 0.76093 0.75037 0.57078
 Cu38 Cu 0.74004 0.75075 0.92715
 C39 C 0.71558 0.78728 0.65567
 C40 C 0.78536 0.71383 0.84218
 C41 C 0.71526 0.71386 0.65753
 C42 C 0.78581 0.78720 0.84001
 O43 O 0.28430 0.77785 0.83365
 O44 O 0.23182 0.72321 0.97399
 O45 O 0.28436 0.72348 0.83490
 O46 O 0.23169 0.77815 0.97217
 O47 O 0.21467 0.77756 0.67334
 O48 O 0.26732 0.72287 0.53615
 O49 O 0.21478 0.72321 0.67508
 O50 O 0.26729 0.77783 0.53470
 Cu51 Cu 0.25992 0.75071 0.93295
 Cu52 Cu 0.23915 0.75035 0.57567
 C53 C 0.28468 0.78715 0.66251
 C54 C 0.21444 0.71389 0.84614
 C55 C 0.28472 0.71383 0.66448
 C56 C 0.21427 0.78718 0.84387
 C57 C 1.01504 0.08742 0.04499
 C58 C 0.98514 0.08741 0.03366
 C59 C 0.97655 0.05972 0.01383
 N60 N 1.00027 0.04294 0.01288
 C61 C 1.02385 0.05974 0.03164
 C62 C 0.94719 0.05060 0.00308
 C63 C 0.93812 0.02228 -0.00540
 C64 C 0.90933 0.01358 0.01200
 C65 C 0.90943 -0.01509 0.00344
 C66 C 0.93827 -0.02334 -0.01930
 N67 N 0.95553 -0.00036 -0.02818
 C68 C 0.94749 -0.05156 -0.03132
 C69 C 0.97692 -0.06053 -0.03136
 C70 C 0.98574 -0.08819 -0.04509
 C71 C 1.01563 -0.08818 -0.03355
 C72 C 1.02422 -0.06051 -0.01315
 N73 N 1.00050 -0.04373 -0.01204
 C74 C 1.05359 -0.05141 -0.00198
 C75 C 1.06266 -0.02308 0.00669
 C76 C 1.09145 -0.01438 -0.01026
 C77 C 1.09136 0.01430 -0.00192
 C78 C 1.06251 0.02254 0.02018
 N79 N 1.04524 -0.00043 0.02907
 C80 C 1.05328 0.05076 0.03177
 H81 H 1.02870 0.10576 0.06174
 H82 H 0.97130 0.10571 0.04147
 H83 H 1.02322 -0.00067 0.06172
 H84 H 0.89018 0.02651 0.03181
 H85 H 0.89037 -0.02836 0.01481
 H86 H 0.97209 -0.10652 -0.06231
 H87 H 1.02947 -0.10648 -0.04158
 H88 H 1.11044 0.02757 -0.01319
 H89 H 0.97754 -0.00008 -0.06131
 H90 H 1.11060 -0.02730 -0.02972
 C91 C 0.48490 0.58787 0.54906
 C92 C 0.51480 0.58799 0.53806
 C93 C 0.52346 0.56034 0.51782
 N94 N 0.49979 0.54347 0.51603
 C95 C 0.47617 0.56016 0.53491
 C96 C 0.55284 0.55136 0.50687
 C97 C 0.56201 0.52309 0.49671
 C98 C 0.59087 0.51452 0.51240
 C99 C 0.59086 0.48585 0.50198
 C100 C 0.56200 0.47750 0.47985
 N101 N 0.54465 0.50040 0.47301
 C102 C 0.55282 0.44925 0.46618
 C103 C 0.52343 0.44013 0.46570
 C104 C 0.51469 0.41241 0.45169
 C105 C 0.48479 0.41230 0.46260
 C106 C 0.47613 0.43994 0.48262
 N107 N 0.49981 0.45682 0.48441
 C108 C 0.44676 0.44895 0.49352
 C109 C 0.43759 0.47720 0.50361
 C110 C 0.40873 0.48578 0.48799
 C111 C 0.40875 0.51444 0.49850
 C112 C 0.43761 0.52279 0.52064
 N113 N 0.45495 0.49990 0.52745
 C114 C 0.44677 0.55105 0.53451
 H115 H 0.47118 0.60615 0.56529
 H116 H 0.52858 0.60635 0.54647
 H117 H 0.47701 0.49967 0.55922
 H118 H 0.61000 0.52754 0.53204
 H119 H 0.61000 0.47266 0.51132
 H120 H 0.52841 0.39413 0.43561
 H121 H 0.47100 0.39393 0.45428
 H122 H 0.38962 0.52763 0.48919
 H123 H 0.52259 0.50060 0.44120
 H124 H 0.38958 0.47275 0.46833
 C125 C 0.01443 0.41214 0.04674
 C126 C -0.01546 0.41208 0.03519
 C127 C -0.02405 0.43974 0.01556
 N128 N -0.00034 0.45657 0.01484
 C129 C 0.02323 0.43984 0.03360
 C130 C -0.05339 0.44879 0.00440
 C131 C -0.06249 0.47706 -0.00533
 C132 C -0.09131 0.48570 0.01096
 C133 C -0.09122 0.51437 0.00162
 C134 C -0.06236 0.52264 -0.02064
 N135 N -0.04508 0.49971 -0.02857
 C136 C -0.05313 0.55086 -0.03286
 C137 C -0.02371 0.55990 -0.03334
 C138 C -0.01491 0.58759 -0.04699
 C139 C 0.01498 0.58765 -0.03545
 C140 C 0.02357 0.56000 -0.01511
 N141 N -0.00014 0.54317 -0.01402
 C142 C 0.05292 0.55097 -0.00340
 C143 C 0.06201 0.52270 0.00642
 C144 C 0.09083 0.51405 -0.00960
 C145 C 0.09075 0.48539 -0.00025
 C146 C 0.06188 0.47711 0.02152
 N147 N 0.04460 0.50004 0.02946
 C148 C 0.05264 0.44888 0.03344
 H149 H 0.02810 0.39384 0.06299
 H150 H -0.02929 0.39375 0.04258
 H151 H 0.02256 0.50029 0.06164
 H152 H -0.11046 0.47275 0.03078
 H153 H -0.11030 0.52761 0.01174
 H154 H -0.02857 0.60588 -0.06371
 H155 H 0.02881 0.60598 -0.04297
 H156 H 0.10984 0.47215 -0.01040
 H157 H -0.02305 0.49943 -0.06106
 H158 H 0.10998 0.52701 -0.02912
 C159 C 0.51528 1.08817 0.45919
 C160 C 0.48537 1.08822 0.46927
 C161 C 0.47670 1.06055 0.48791
 N162 N 0.50037 1.04373 0.48938
 C163 C 0.52400 1.06047 0.47202
 C164 C 0.44733 1.05150 0.49786
 C165 C 0.43814 1.02322 0.50510
 C166 C 0.40929 1.01461 0.48843
 C167 C 0.40929 0.98594 0.49631
 C168 C 0.43814 0.97761 0.51780
 N169 N 0.45548 1.00051 0.52682
 C170 C 0.44728 0.94935 0.52918
 C171 C 0.47667 0.94030 0.52946
 C172 C 0.48540 0.91260 0.54256
 C173 C 0.51530 0.91254 0.53214
 C174 C 0.52397 0.94021 0.51298
 N175 N 0.50030 0.95703 0.51166
 C176 C 0.55334 0.94925 0.50229
 C177 C 0.56253 0.97753 0.49507
 C178 C 0.59140 0.98612 0.51112
 C179 C 0.59139 1.01480 0.50359
 C180 C 0.56254 1.02315 0.48296
 N181 N 0.54518 1.00025 0.47430
 C182 C 0.55339 1.05141 0.47218
 H183 H 0.52900 1.10648 0.44378
 H184 H 0.47160 1.10656 0.46132
 H185 H 0.52312 1.00005 0.44272
 H186 H 0.39016 1.02763 0.47015
 H187 H 0.39015 0.97274 0.48566
 H188 H 0.47168 0.89430 0.55829
 H189 H 0.52908 0.89421 0.53999
 H190 H 0.61054 1.02800 0.51387
 H191 H 0.47753 1.00072 0.55910
 H192 H 0.61054 0.97310 0.52861
 C193 C 1.15546 0.15132 0.07432
 C194 C 1.12585 0.15953 0.16125
 C195 C 1.10536 0.13895 0.14985
 C196 C 1.11645 0.11214 0.05271
 C197 C 1.14364 0.10379 0.16892
 C198 C 1.16415 0.12439 0.18028
 C199 C 1.14865 0.14213 -0.13363
 C200 C 1.12811 0.12150 -0.14508
 C201 C 1.17736 0.17360 0.09101
 C202 C 1.19495 0.19202 0.11650
 C203 C 1.09422 0.09010 0.04250
 C204 C 1.07571 0.07218 0.03687
 H205 H 1.12139 0.17973 0.22669
 H206 H 1.08339 0.14148 0.20611
 H207 H 1.14642 0.08359 0.23791
 H208 H 1.18453 0.12181 0.25867
 H209 H 1.15913 0.15091 -0.26036
 H210 H 1.12100 0.11261 -0.28185
 C211 C 0.65531 0.65146 0.56733
 C212 C 0.64681 0.64446 0.35804
 C213 C 0.62619 0.62397 0.34356
 C214 C 0.61615 0.61249 0.53982
 C215 C 0.60589 0.63816 0.65433
 C216 C 0.62645 0.65864 0.66865
 C217 C 0.66483 0.62352 0.65641
 C218 C 0.64423 0.60303 0.64186
 C219 C 0.67726 0.67365 0.58644
 C220 C 0.69486 0.69204 0.61243
 C221 C 0.59387 0.59055 0.52546
 C222 C 0.57533 0.57268 0.51622
 H223 H 0.65616 0.65466 0.23249
 H224 H 0.61787 0.61662 0.20549
 H225 H 0.58444 0.63999 0.71982
 H226 H 0.62259 0.67805 0.74609
 H227 H 0.68579 0.62020 0.72631
 H228 H 0.64750 0.58220 0.70012
 C229 C -0.15528 0.34833 0.06454
 C230 C -0.12690 0.34207 0.17461
 C231 C -0.10650 0.36268 0.15993
 C232 C -0.11648 0.38755 0.03683
 C233 C -0.14518 0.39728 0.12932
 C234 C -0.16559 0.37664 0.14396
 C235 C -0.14578 0.35420 -0.14410
 C236 C -0.12536 0.37484 -0.15865
 C237 C -0.17712 0.32609 0.08358
 C238 C -0.19474 0.30777 0.10960
 C239 C -0.09438 0.40962 0.02237
 C240 C -0.07590 0.42752 0.01316
 H241 H -0.12324 0.32321 0.25841
 H242 H -0.08541 0.36152 0.23148
 H243 H -0.14900 0.41840 0.18106
 H244 H -0.18695 0.38011 0.20763
 H245 H -0.15437 0.34320 -0.26933
 H246 H -0.11647 0.38154 -0.29641
 C247 C 0.34491 0.84912 0.57335
 C248 C 0.34823 0.86121 0.36926
 C249 C 0.36887 0.88173 0.35704
 C250 C 0.38406 0.88811 0.55032
 C251 C 0.39624 0.85994 0.61876
 C252 C 0.37567 0.83945 0.63084
 C253 C 0.33868 0.87443 0.70369
 C254 C 0.35924 0.89493 0.69137
 C255 C 0.32290 0.82700 0.59065
 C256 C 0.30517 0.80877 0.61652
 C257 C 0.40630 0.91009 0.53968
 C258 C 0.42481 0.92800 0.53375
 H259 H 0.33551 0.85430 0.24555
 H260 H 0.37389 0.89237 0.22267
 H261 H 0.41896 0.85647 0.65667
 H262 H 0.38079 0.81840 0.67856
 H263 H 0.31981 0.87606 0.79786
 H264 H 0.35803 0.91408 0.77550
 C265 C -0.15510 0.65129 -0.07123
 C266 C -0.15896 0.62832 -0.22455
 C267 C -0.13852 0.60774 -0.21389
 C268 C -0.11617 0.61214 -0.05122
 C269 C -0.13442 0.61526 0.13378
 C270 C -0.15493 0.63588 0.12317
 C271 C -0.12370 0.66183 -0.09805
 C272 C -0.10324 0.64126 -0.08771
 C273 C -0.17692 0.67356 -0.08712
 C274 C -0.19442 0.69199 -0.11201
 C275 C -0.09401 0.59013 -0.04226
 C276 C -0.07554 0.57222 -0.03742
 H277 H -0.17605 0.62840 -0.33356
 H278 H -0.13805 0.59025 -0.31423
 H279 H -0.13147 0.60245 0.26171
 H280 H -0.16956 0.64073 0.24192
 H281 H -0.11804 0.68356 -0.12348
 H282 H -0.08006 0.64534 -0.10486
 C283 C 0.34459 1.15099 0.43676
 C284 C 0.35303 1.14426 0.64628
 C285 C 0.37376 1.12392 0.66152
 C286 C 0.38394 1.11234 0.46559
 C287 C 0.39411 1.13797 0.35097
 C288 C 0.37344 1.15828 0.33596
 C289 C 0.33524 1.12290 0.34823
 C290 C 0.35595 1.10258 0.36332
 C291 C 0.32254 1.17299 0.41665
 C292 C 0.30488 1.19122 0.38974
 C293 C 0.40629 1.09056 0.48028
 C294 C 0.42485 1.07277 0.48937
 H295 H 0.34354 1.15450 0.77136
 H296 H 0.38204 1.11674 0.79990
 H297 H 0.41558 1.13990 0.28583
 H298 H 0.37724 1.17764 0.25826
 H299 H 0.31433 1.11937 0.27804
 H300 H 0.35281 1.08167 0.30552
 C301 C 1.15549 -0.15172 -0.06637
 C302 C 1.14735 -0.14473 0.14331
 C303 C 1.12693 -0.12411 0.15890
 C304 C 1.11671 -0.11255 -0.03674
 C305 C 1.10605 -0.13814 -0.15085
 C306 C 1.12644 -0.15872 -0.16652
 C307 C 1.16511 -0.12381 -0.15537
 C308 C 1.14471 -0.10321 -0.13976
 C309 C 1.17731 -0.17396 -0.08666
 C310 C 1.19490 -0.19229 -0.11357
 C311 C 1.09461 -0.09053 -0.02146
 C312 C 1.07613 -0.07266 -0.01145
 H313 H 1.15681 -0.15500 0.26821
 H314 H 1.11890 -0.11671 0.29732
 H315 H 1.08453 -0.13980 -0.21608
 H316 H 1.12235 -0.17801 -0.24493
 H317 H 1.18598 -0.12060 -0.22621
 H318 H 1.14810 -0.08235 -0.19742
 C319 C 0.65483 0.34872 0.42229
 C320 C 0.66353 0.37561 0.31593
 C321 C 0.64307 0.39621 0.32716
 C322 C 0.61591 0.38793 0.44350
 C323 C 0.62765 0.37860 0.64137
 C324 C 0.64814 0.35796 0.63019
 C325 C 0.62516 0.34050 0.33544
 C326 C 0.60472 0.36108 0.34679
 C327 C 0.67666 0.32643 0.40593
 C328 C 0.69420 0.30800 0.38109
 C329 C 0.59376 0.41000 0.45365
 C330 C 0.57529 0.42792 0.45994
 H331 H 0.68390 0.37820 0.23777
 H332 H 0.64590 0.41641 0.25844
 H333 H 0.62055 0.38744 0.77806
 H334 H 0.65861 0.34917 0.75707
 H335 H 0.62065 0.32032 0.26975
 H336 H 0.58274 0.35855 0.29028
 C337 C 0.84492 -0.15174 -0.07524
 C338 C 0.85028 -0.14120 0.13147
 C339 C 0.87094 -0.12068 0.14292
 C340 C 0.88415 -0.11278 -0.05357
 C341 C 0.85796 -0.10502 -0.18131
 C342 C 0.83734 -0.12550 -0.19259
 C343 C 0.87506 -0.16078 -0.14933
 C344 C 0.89567 -0.14031 -0.13805
 C345 C 0.82289 -0.17390 -0.09210
 C346 C 0.80520 -0.19223 -0.11739
 C347 C 0.90647 -0.09085 -0.04318
 C348 C 0.92503 -0.07297 -0.03722
 H349 H 0.83885 -0.14912 0.25726
 H350 H 0.87725 -0.11099 0.27875
 H351 H 0.85592 -0.08528 -0.25760
 H352 H 0.81760 -0.12330 -0.27832
 H353 H 0.87976 -0.18143 -0.20680
 H354 H 0.91799 -0.14337 -0.18648
 C355 C 0.34429 0.34883 0.43235
 C356 C 0.37323 0.34164 0.33218
 C357 C 0.39375 0.36215 0.34671
 C358 C 0.38338 0.38786 0.46027
 C359 C 0.37319 0.37647 0.65645
 C360 C 0.35261 0.35594 0.64178
 C361 C 0.33479 0.37672 0.34246
 C362 C 0.35535 0.39724 0.35714
 C363 C 0.32239 0.32659 0.41287
 C364 C 0.30484 0.30815 0.38680
 C365 C 0.40567 0.40981 0.47482
 C366 C 0.42424 0.42764 0.48413
 H367 H 0.37720 0.32219 0.25542
 H368 H 0.41526 0.36030 0.28216
 H369 H 0.38129 0.38399 0.79462
 H370 H 0.34309 0.34586 0.76730
 H371 H 0.31390 0.37996 0.27139
 H372 H 0.35211 0.41802 0.29812
 C373 C 0.15465 0.65158 -0.06289
 C374 C 0.14589 0.64502 0.14614
 C375 C 0.12550 0.62434 0.16060
 C376 C 0.11592 0.61229 -0.03546
 C377 C 0.14427 0.60285 -0.13386
 C378 C 0.16465 0.62352 -0.14831
 C379 C 0.12589 0.65822 -0.16737
 C380 C 0.10554 0.63757 -0.15296
 C381 C 0.17644 0.67385 -0.08196
 C382 C 0.19403 0.69220 -0.10809
 C383 C 0.09387 0.59019 -0.02122
 C384 C 0.07542 0.57226 -0.01207
 H385 H 0.15492 0.65563 0.27161
 H386 H 0.11709 0.61721 0.29866
 H387 H 0.14791 0.58189 -0.18926
 H388 H 0.18578 0.62025 -0.21553
 H389 H 0.12197 0.67734 -0.24766
 H390 H 0.08421 0.63897 -0.22115
 C391 C 0.65561 1.15176 0.42499
 C392 C 0.66415 1.12467 0.32001
 C393 C 0.64363 1.10412 0.33291
 C394 C 0.61657 1.11268 0.44934
 C395 C 0.60541 1.13938 0.35142
 C396 C 0.62592 1.15991 0.33855
 C397 C 0.64899 1.14291 0.63349
 C398 C 0.62843 1.12233 0.64641
 C399 C 0.67755 1.17394 0.40694
 C400 C 0.69518 1.19224 0.38038
 C401 C 0.59437 1.09067 0.46069
 C402 C 0.57587 1.07276 0.46686
 H403 H 0.68448 1.12191 0.24173
 H404 H 0.64635 1.08377 0.26548
 H405 H 0.58338 1.14186 0.29564
 H406 H 0.62144 1.18001 0.27209
 H407 H 0.65952 1.15196 0.75962
 H408 H 0.62134 1.11376 0.78385
 C409 C 0.15475 0.34853 0.07018
 C410 C 0.14789 0.35778 -0.13728
 C411 C 0.12734 0.37837 -0.14746
 C412 C 0.11575 0.38763 0.05099
 C413 C 0.14298 0.39599 0.16713
 C414 C 0.16349 0.37543 0.17720
 C415 C 0.12517 0.34022 0.15702
 C416 C 0.10469 0.36076 0.14700
 C417 C 0.17661 0.32629 0.08586
 C418 C 0.19415 0.30788 0.11070
 C419 C 0.09355 0.40963 0.04225
 C420 C 0.07506 0.42753 0.03763
 H421 H 0.15833 0.34906 -0.26457
 H422 H 0.12017 0.38727 -0.28376
 H423 H 0.14581 0.41618 0.23670
 H424 H 0.18394 0.37806 0.25489
 H425 H 0.12072 0.31996 0.22123
 H426 H 0.08274 0.35816 0.20335
 C427 C 0.65581 0.84948 0.56217
 C428 C 0.64746 0.85631 0.35265
 C429 C 0.62682 0.87673 0.33735
 C430 C 0.61662 0.88828 0.53326
 C431 C 0.64462 0.89790 0.63608
 C432 C 0.66523 0.87750 0.65126
 C433 C 0.62689 0.84226 0.66242
 C434 C 0.60630 0.86265 0.64729
 C435 C 0.67775 0.82737 0.58223
 C436 C 0.69530 0.80904 0.60922
 C437 C 0.59434 0.91013 0.51871
 C438 C 0.57581 0.92796 0.51009
 H439 H 0.65698 0.84609 0.22762
 H440 H 0.61865 0.88400 0.19893
 H441 H 0.64784 0.91880 0.69382
 H442 H 0.68615 0.88095 0.72156
 H443 H 0.62298 0.82289 0.73967
 H444 H 0.58479 0.86077 0.71190
 C445 C 0.84503 0.15076 0.06458
 C446 C 0.85339 0.14383 -0.14484
 C447 C 0.87388 0.12327 -0.15978
 C448 C 0.88395 0.11168 0.03614
 C449 C 0.85586 0.10226 0.13784
 C450 C 0.83540 0.12281 0.15286
 C451 C 0.87397 0.15780 0.16597
 C452 C 0.89442 0.13727 0.15103
 C453 C 0.82313 0.17293 0.08427
 C454 C 0.80546 0.19120 0.11049
 C455 C 0.90613 0.08970 0.02148
 C456 C 0.92464 0.07185 0.01207
 H457 H 0.84401 0.15411 -0.27009
 H458 H 0.88205 0.11591 -0.29795
 H459 H 0.85249 0.08141 0.19549
 H460 H 0.81448 0.11954 0.22307
 H461 H 0.87795 0.17711 0.24454
 H462 H 0.91589 0.13898 0.21686
 C463 C 0.34463 0.65142 0.57943
 C464 C 0.33614 0.62463 0.68778
 C465 C 0.35663 0.60406 0.67649
 C466 C 0.38361 0.61229 0.55812
 C467 C 0.39487 0.63926 0.65267
 C468 C 0.37440 0.65982 0.66405
 C469 C 0.35107 0.64195 0.37170
 C470 C 0.37158 0.62135 0.36046
 C471 C 0.32274 0.67367 0.59557
 C472 C 0.30514 0.69204 0.62017
 C473 C 0.40580 0.59026 0.54775
 C474 C 0.42429 0.57236 0.54118
 H475 H 0.31591 0.62211 0.76757
 H476 H 0.35397 0.58396 0.74684
 H477 H 0.41692 0.64191 0.70772
 H478 H 0.37894 0.68009 0.72827
 H479 H 0.34040 0.65056 0.24491
 H480 H 0.37850 0.61235 0.22382
   
