data_POSCAR
  _audit_creation_date              2014-09-24
  _audit_creation_method            'ToBaCCo'
  _symmetry_space_group_name_H-M    'P1'
  _symmetry_Int_Tables_number       1
  _symmetry_cell_setting            triclinic
  loop_
  _symmetry_equiv_pos_as_xyz
 x,y,z
_cell_length_a 21.1816
_cell_length_b 20.8642
_cell_length_c 21.0789
_cell_angle_alpha 91.503900
_cell_angle_beta 89.866900
_cell_angle_gamma 90.068200
loop_
  _atom_site_label
  _atom_site_type_symbol
  _atom_site_fract_x
  _atom_site_fract_y
  _atom_site_fract_z
N1 N 0.22186 0.24329 0.25281
 N2 N -0.24122 0.75888 0.21536
 N3 N -0.24498 0.24119 -0.21858
 N4 N 0.23555 0.76860 -0.25699
 N5 N 0.24536 1.23030 0.76004
 N6 N 0.77430 0.76462 0.77091
 N7 N 0.23702 0.76683 1.24454
 N8 N 0.77630 1.22476 1.22455
 O9 O 0.55374 0.91958 0.91327
 O10 O 0.45317 0.92891 1.11905
 O11 O 0.57689 0.91555 1.03055
 O12 O 0.36785 0.92959 0.96453
 O13 O 0.56344 0.95630 1.12156
 O14 O 0.43625 0.93940 0.88796
 O15 O 0.36593 0.96214 1.07903
 O16 O 0.64078 0.96715 0.95309
 C17 C 0.61450 0.92315 0.91527
 C18 C 0.39570 0.92127 1.10918
 C19 C 0.58549 0.91206 1.08819
 C20 C 0.38677 0.91575 0.90963
 O21 O 0.46005 1.06321 0.88486
 O22 O 0.53665 1.08098 1.11012
 O23 O 0.58374 1.08221 0.97693
 O24 O 0.37611 1.08385 1.04715
 O25 O 0.42408 1.05344 1.13101
 O26 O 0.57096 1.04038 0.88932
 O27 O 0.37203 1.04958 0.93551
 O28 O 0.61820 1.03494 1.06757
 Co29 Co 0.50276 0.99134 0.90610
 Co30 Co 0.49355 1.00530 1.11032
 Co31 Co 0.57575 0.99800 1.00053
 Co32 Co 0.38120 1.00597 1.00695
 O33 O 0.48413 1.00312 1.00924
 C34 C 0.40369 1.07697 0.89469
 C35 C 0.59527 1.07966 1.10158
 C36 C 0.59199 1.08607 0.91991
 C37 C 0.38609 1.09004 1.10484
 O38 O 0.05478 0.45335 0.12410
 O39 O 0.05888 0.56249 -0.13667
 O40 O 0.04748 0.36808 -0.06076
 O41 O 0.10071 0.58596 0.05410
 O42 O 0.08150 0.44602 -0.11916
 O43 O 0.03547 0.57038 0.12741
 O44 O 0.10899 0.59373 -0.05502
 O45 O 0.09055 0.40557 0.04138
 C46 C 0.09435 0.41644 0.09917
 C47 C 0.10295 0.59291 -0.11293
 C48 C 0.08487 0.38906 -0.10218
 C49 C 0.08754 0.59236 0.11039
 O50 O -0.07890 0.54823 0.07737
 O51 O -0.04027 0.42676 -0.11939
 O52 O -0.01243 0.34364 0.05453
 O53 O -0.01620 0.62888 -0.06480
 O54 O -0.05761 0.54816 -0.12188
 O55 O -0.06445 0.43161 0.08527
 O56 O -0.02260 0.62990 0.05106
 O57 O -0.06871 0.40245 -0.02575
 Co58 Co -0.01003 0.50121 0.09330
 Co59 Co 0.01120 0.49589 -0.11259
 Co60 Co 0.01164 0.41051 0.00819
 Co61 Co 0.04065 0.60169 -0.00338
 O62 O 0.01651 0.50508 -0.00776
 C63 C -0.07337 0.60710 0.07205
 C64 C -0.07751 0.39926 -0.08372
 C65 C -0.05540 0.37130 0.09137
 C66 C -0.05732 0.60630 -0.10366
 O67 O 1.07572 0.08767 0.46334
 O68 O 0.86069 0.04838 0.57061
 O69 O 0.92741 0.02664 0.37428
 O70 O 1.05718 0.08475 0.58222
 O71 O 0.86919 0.06847 0.45233
 O72 O 1.14429 0.04031 0.54561
 O73 O 0.94526 0.09863 0.59099
 O74 O 1.04190 0.03906 0.37797
 C75 C 1.06888 0.08692 0.40436
 C76 C 0.88762 0.09438 0.59728
 C77 C 0.88850 0.06828 0.39595
 C78 C 1.11662 0.07836 0.58690
 O79 O 1.09092 -0.06879 0.53510
 O80 O 0.85782 -0.05081 0.43026
 O81 O 1.04908 -0.08660 0.41901
 O82 O 0.93030 -0.02769 0.62566
 O83 O 0.87388 -0.07208 0.54760
 O84 O 1.12419 -0.02291 0.43368
 O85 O 1.04541 -0.03806 0.62051
 O86 O 0.94253 -0.09933 0.41224
 Co87 Co 1.07798 0.00960 0.50129
 Co88 Co 0.87731 -0.00160 0.50006
 Co89 Co 0.98973 -0.02778 0.40310
 Co90 Co 0.99341 0.02669 0.59587
 O91 O 0.98182 -0.00052 0.49753
 C92 C 1.08264 -0.07543 0.59269
 C93 C 0.88540 -0.09616 0.40408
 C94 C 1.10495 -0.07402 0.40921
 C95 C 0.89294 -0.07105 0.60409
 C96 C 1.16366 0.11072 0.32873
 C97 C 1.14158 0.14461 0.26823
 C98 C 1.17678 0.20535 0.29119
 C99 C 1.19913 0.17196 0.35138
 C100 C 1.11744 0.23016 0.32656
 C101 C 1.08155 0.16837 0.30418
 C102 C 1.10397 0.13443 0.36420
 C103 C 1.13924 0.19540 0.38706
 H104 H 1.18333 0.06154 0.33018
 H105 H 1.14208 0.12302 0.21958
 H106 H 1.24763 0.17371 0.37117
 H107 H 1.09710 0.27907 0.32636
 H108 H 1.03302 0.16810 0.28477
 H109 H 1.13813 0.21622 0.43606
 C110 C 0.82287 -0.10778 0.29627
 C111 C 0.85197 -0.16251 0.25463
 C112 C 0.79187 -0.20226 0.26513
 C113 C 0.76224 -0.14803 0.30624
 C114 C 0.82046 -0.23218 0.32460
 C115 C 0.88128 -0.19185 0.31467
 C116 C 0.85211 -0.13744 0.35556
 C117 C 0.79191 -0.17704 0.36609
 H118 H 0.82403 -0.05608 0.28504
 H119 H 0.87672 -0.15565 0.20888
 H120 H 0.71353 -0.12888 0.30444
 H121 H 0.81828 -0.28356 0.33679
 H122 H 0.93035 -0.20991 0.31873
 H123 H 0.76781 -0.18290 0.41240
 C124 C 0.79030 0.17177 0.63312
 C125 C 0.76241 0.14410 0.69467
 C126 C 0.78963 0.20158 0.73305
 C127 C 0.81641 0.23008 0.67185
 C128 C 0.85168 0.16544 0.74448
 C129 C 0.82499 0.10752 0.70559
 C130 C 0.85244 0.13584 0.64462
 C131 C 0.87916 0.19345 0.68280
 H132 H 0.76560 0.17431 0.58687
 H133 H 0.71473 0.12253 0.69805
 H134 H 0.81168 0.28055 0.65722
 H135 H 0.87742 0.16148 0.78994
 H136 H 0.82877 0.05663 0.71921
 H137 H 0.92724 0.21386 0.67745
 C138 C 1.15451 -0.09640 0.69175
 C139 C 1.13291 -0.15764 0.72583
 C140 C 1.19433 -0.19066 0.70374
 C141 C 1.21636 -0.12998 0.67007
 C142 C 1.16217 -0.21568 0.64239
 C143 C 1.09997 -0.18183 0.66397
 C144 C 1.12168 -0.12099 0.63047
 C145 C 1.18321 -0.15408 0.60851
 H146 H 1.15139 -0.04679 0.71194
 H147 H 1.11165 -0.15844 0.77393
 H148 H 1.26364 -0.10722 0.67176
 H149 H 1.16629 -0.26490 0.62157
 H150 H 1.05203 -0.20322 0.66092
 H151 H 1.20339 -0.15275 0.55992
 C152 C 0.36021 1.16200 1.21047
 C153 C 0.32928 1.22558 1.19051
 C154 C 0.26505 1.20142 1.21468
 C155 C 0.29576 1.13855 1.23584
 C156 C 0.24954 1.17156 1.14900
 C157 C 0.31415 1.19536 1.12411
 C158 C 0.34457 1.13257 1.14473
 C159 C 0.28072 1.10835 1.16957
 H160 H 0.40625 1.15796 1.23509
 H161 H 0.34989 1.27373 1.20039
 H162 H 0.29015 1.11299 1.28088
 H163 H 0.20425 1.17374 1.12292
 H164 H 0.32230 1.21862 1.07803
 H165 H 0.26120 1.05952 1.16073
 C166 C 0.31507 0.90085 0.80753
 C167 C 0.33672 0.84134 0.76773
 C168 C 0.27603 0.80674 0.78751
 C169 C 0.25384 0.86574 0.82665
 C170 C 0.31023 0.77971 0.84593
 C171 C 0.37090 0.81563 0.82691
 C172 C 0.34818 0.87411 0.86629
 C173 C 0.28786 0.83915 0.88552
 H174 H 0.31878 0.95028 0.79028
 H175 H 0.35682 0.84198 0.71909
 H176 H 0.20629 0.88785 0.82751
 H177 H 0.31291 0.73091 0.86492
 H178 H 0.41933 0.79541 0.82764
 H179 H 0.26803 0.83785 0.93426
 C180 C 0.65956 0.88408 1.18270
 C181 C 0.64889 0.81416 1.20265
 C182 C 0.71505 0.79753 1.17725
 C183 C 0.72618 0.86697 1.15756
 C184 C 0.68734 0.77962 1.11143
 C185 C 0.62052 0.79749 1.13653
 C186 C 0.63157 0.86695 1.11684
 C187 C 0.69778 0.85016 1.09148
 H188 H 0.64799 0.92726 1.21239
 H189 H 0.62926 0.79927 1.24886
 H190 H 0.76938 0.89616 1.16546
 H191 H 0.69740 0.73728 1.08026
 H192 H 0.57681 0.76933 1.12757
 H193 H 0.71800 0.86612 1.04597
 C194 C 0.70082 1.15493 0.91209
 C195 C 0.72982 1.13552 0.84674
 C196 C 0.71394 1.20227 0.82236
 C197 C 0.68553 1.22280 0.88736
 C198 C 0.64891 1.17937 0.79907
 C199 C 0.66434 1.11214 0.82378
 C200 C 0.63574 1.13196 0.88890
 C201 C 0.61995 1.19865 0.86438
 H202 H 0.72256 1.14418 0.95840
 H203 H 0.77472 1.10889 0.84001
 H204 H 0.69243 1.26748 0.91600
 H205 H 0.62797 1.18947 0.75217
 H206 H 0.65556 1.06628 0.79731
 H207 H 0.57457 1.22428 0.87208
 C208 C 0.19126 0.39012 0.18226
 C209 C 0.16027 0.35325 0.23737
 C210 C 0.19016 0.29046 0.21208
 C211 C 0.22249 0.32692 0.15790
 C212 C 0.13244 0.27566 0.17033
 C213 C 0.10210 0.33893 0.19488
 C214 C 0.13384 0.37490 0.14017
 C215 C 0.16419 0.31214 0.11561
 H216 H 0.21518 0.43738 0.18671
 H217 H 0.15878 0.36997 0.28776
 H218 H 0.27169 0.32492 0.14025
 H219 H 0.10728 0.22915 0.16534
 H220 H 0.05263 0.34582 0.21071
 H221 H 0.16639 0.29542 0.06522
 C222 C -0.16678 0.37924 -0.16916
 C223 C -0.14581 0.31922 -0.20793
 C224 C -0.20171 0.28198 -0.18033
 C225 C -0.22357 0.34192 -0.14228
 C226 C -0.16170 0.25990 -0.12422
 C227 C -0.10522 0.29752 -0.15160
 C228 C -0.12642 0.35743 -0.11325
 C229 C -0.18242 0.32068 -0.08543
 H230 H -0.16871 0.42885 -0.18688
 H231 H -0.12811 0.32127 -0.25726
 H232 H -0.27261 0.36050 -0.13972
 H233 H -0.15943 0.21060 -0.10585
 H234 H -0.05595 0.27957 -0.15510
 H235 H -0.19726 0.32233 -0.03489
 C236 C 0.10871 0.69668 -0.17967
 C237 C 0.16627 0.73644 -0.15706
 C238 C 0.19836 0.72155 -0.22131
 C239 C 0.14097 0.68232 -0.24463
 C240 C 0.22914 0.66080 -0.19538
 C241 C 0.19690 0.67552 -0.13038
 C242 C 0.13970 0.63656 -0.15287
 C243 C 0.17101 0.62120 -0.21730
 H244 H 0.05878 0.71110 -0.17227
 H245 H 0.16215 0.78336 -0.13153
 H246 H 0.11628 0.68379 -0.29082
 H247 H 0.27883 0.64566 -0.20327
 H248 H 0.21965 0.67193 -0.08321
 H249 H 0.17270 0.57310 -0.24102
 C250 C -0.17908 0.68356 0.07950
 C251 C -0.21696 0.66050 0.13794
 C252 C -0.19670 0.72147 0.17508
 C253 C -0.15993 0.74554 0.11741
 C254 C -0.13791 0.68730 0.20028
 C255 C -0.15751 0.62630 0.16252
 C256 C -0.12017 0.64985 0.10485
 C257 C -0.10045 0.71085 0.14227
 H258 H -0.19589 0.68117 0.02968
 H259 H -0.26527 0.63983 0.13713
 H260 H -0.16097 0.79497 0.09926
 H261 H -0.11805 0.68600 0.24872
 H262 H -0.15674 0.57692 0.18089
 H263 H -0.05234 0.73183 0.14353
 C264 C 1.18363 0.18642 0.61468
 C265 C 1.15435 0.21630 0.67606
 C266 C 1.21268 0.19481 0.71371
 C267 C 1.24284 0.16665 0.65250
 C268 C 1.18129 0.13015 0.72800
 C269 C 1.12288 0.15116 0.69025
 C270 C 1.15287 0.12186 0.62980
 C271 C 1.21120 0.10118 0.66670
 H272 H 1.18408 0.20855 0.56736
 H273 H 1.12853 0.26241 0.67657
 H274 H 1.29172 0.17488 0.63546
 H275 H 1.17848 0.10546 0.77384
 H276 H 1.07328 0.14605 0.70618
 H277 H 1.23421 0.05348 0.66223
 C278 C 0.89823 -0.14645 0.70567
 C279 C 0.83890 -0.12897 0.74549
 C280 C 0.81013 -0.19464 0.72707
 C281 C 0.86922 -0.21304 0.68780
 C282 C 0.77865 -0.16712 0.66813
 C283 C 0.80726 -0.10086 0.68641
 C284 C 0.86621 -0.11825 0.64757
 C285 C 0.83810 -0.18395 0.62867
 H286 H 0.94789 -0.13761 0.72020
 H287 H 0.84131 -0.10457 0.79271
 H288 H 0.89570 -0.25881 0.68656
 H289 H 0.72983 -0.17705 0.65156
 H290 H 0.78187 -0.05438 0.68521
 H291 H 0.83838 -0.20572 0.58005
 C292 C 1.20388 -0.15441 0.38604
 C293 C 1.17738 -0.21563 0.35193
 C294 C 1.20604 -0.19356 0.28903
 C295 C 1.23401 -0.13320 0.32307
 C296 C 1.14548 -0.15692 0.27275
 C297 C 1.11624 -0.17837 0.33596
 C298 C 1.14383 -0.11782 0.36894
 C299 C 1.17299 -0.09641 0.30660
 H300 H 1.22729 -0.15256 0.43311
 H301 H 1.18035 -0.26434 0.37161
 H302 H 1.28120 -0.11053 0.32337
 H303 H 1.12022 -0.15718 0.22672
 H304 H 1.06736 -0.19664 0.34178
 H305 H 1.17115 -0.04725 0.28790
 C306 C 0.79745 0.10010 0.31977
 C307 C 0.77764 0.17081 0.33299
 C308 C 0.80754 0.18829 0.26917
 C309 C 0.82740 0.11819 0.25574
 C310 C 0.87129 0.20295 0.30225
 C311 C 0.84164 0.18386 0.36627
 C312 C 0.86076 0.11403 0.35211
 C313 C 0.89090 0.13219 0.28907
 H314 H 0.76760 0.05725 0.32772
 H315 H 0.73156 0.18803 0.35190
 H316 H 0.82391 0.08910 0.21117
 H317 H 0.90467 0.24358 0.29955
 H318 H 0.84812 0.20983 0.41243
 H319 H 0.93728 0.11497 0.27115
 C320 C 0.16178 0.28509 -0.11008
 C321 C 0.14412 0.24849 -0.17253
 C322 C 0.20714 0.27001 -0.20198
 C323 C 0.22569 0.30595 -0.13982
 C324 C 0.17645 0.33094 -0.22730
 C325 C 0.11284 0.30984 -0.19771
 C326 C 0.13053 0.34549 -0.13567
 C327 C 0.19363 0.36710 -0.16469
 H328 H 0.15542 0.26673 -0.06153
 H329 H 0.12260 0.20002 -0.17454
 H330 H 0.27119 0.30651 -0.11405
 H331 H 0.18342 0.35063 -0.27523
 H332 H 0.06600 0.31180 -0.22111
 H333 H 0.21342 0.41635 -0.16097
 C334 C -0.13974 0.27466 0.09574
 C335 C -0.12386 0.23525 0.15493
 C336 C -0.18402 0.26140 0.18740
 C337 C -0.20104 0.30002 0.12850
 C338 C -0.14773 0.31896 0.21623
 C339 C -0.08682 0.29311 0.18359
 C340 C -0.10280 0.33166 0.12500
 C341 C -0.16334 0.35777 0.15684
 H342 H -0.13571 0.25682 0.04582
 H343 H -0.10749 0.18474 0.15363
 H344 H -0.24680 0.30430 0.10368
 H345 H -0.15191 0.33781 0.26580
 H346 H -0.03989 0.28955 0.20623
 H347 H -0.17891 0.40857 0.15741
 C348 C -0.08839 0.68588 -0.19320
 C349 C -0.15296 0.66475 -0.22083
 C350 C -0.18259 0.72561 -0.19109
 C351 C -0.11858 0.74733 -0.16368
 C352 C -0.19881 0.68985 -0.13018
 C353 C -0.16801 0.62864 -0.15958
 C354 C -0.10386 0.65017 -0.13235
 C355 C -0.13379 0.71079 -0.10228
 H356 H -0.04291 0.68343 -0.21937
 H357 H -0.16150 0.64602 -0.26983
 H358 H -0.09775 0.79608 -0.16457
 H359 H -0.24362 0.69051 -0.10295
 H360 H -0.18776 0.57941 -0.15758
 H361 H -0.12518 0.72928 -0.05320
 C362 C 0.18531 0.67158 0.12313
 C363 C 0.16091 0.73533 0.15319
 C364 C 0.19879 0.72140 0.21337
 C365 C 0.22375 0.65810 0.18389
 C366 C 0.14188 0.68573 0.24225
 C367 C 0.10366 0.69932 0.18131
 C368 C 0.12800 0.63611 0.15129
 C369 C 0.16598 0.62195 0.21140
 H370 H 0.20347 0.66559 0.07387
 H371 H 0.15849 0.78153 0.12844
 H372 H 0.27328 0.64092 0.18531
 H373 H 0.12084 0.68855 0.29034
 H374 H 0.05405 0.71615 0.18083
 H375 H 0.16772 0.57508 0.23506
 C376 C 0.33146 1.18121 0.88527
 C377 C 0.34902 1.22178 0.82679
 C378 C 0.29002 1.19496 0.79264
 C379 C 0.27209 1.15560 0.85050
 C380 C 0.32918 1.13877 0.76389
 C381 C 0.38834 1.16423 0.79934
 C382 C 0.36953 1.12459 0.85671
 C383 C 0.31070 1.09935 0.82193
 H384 H 0.33327 1.19830 0.93556
 H385 H 0.36487 1.27251 0.82798
 H386 H 0.22477 1.15095 0.87256
 H387 H 0.33319 1.11674 0.71579
 H388 H 0.43662 1.16742 0.77908
 H389 H 0.29318 1.04940 0.82049
 C390 C 0.29810 0.84039 1.11446
 C391 C 0.31505 0.77596 1.14597
 C392 C 0.27956 0.79947 1.20628
 C393 C 0.26213 0.86279 1.17479
 C394 C 0.34099 0.82875 1.23326
 C395 C 0.37688 0.80726 1.17232
 C396 C 0.35875 0.87092 1.14185
 C397 C 0.32332 0.89269 1.20205
 H398 H 0.28105 0.84521 1.06505
 H399 H 0.31282 0.72851 1.12120
 H400 H 0.21565 0.88707 1.17371
 H401 H 0.35973 0.82278 1.28188
 H402 H 0.42450 0.78510 1.17078
 H403 H 0.32706 0.94102 1.22513
 C404 C 0.68204 1.17541 1.10187
 C405 C 0.67098 1.22287 1.15916
 C406 C 0.72753 1.19253 1.19294
 C407 C 0.73933 1.14630 1.13626
 C408 C 0.68309 1.14388 1.22459
 C409 C 0.62635 1.17284 1.18962
 C410 C 0.63873 1.12618 1.13349
 C411 C 0.69526 1.09728 1.16789
 H412 H 0.67985 1.18915 1.05152
 H413 H 0.66027 1.27478 1.15666
 H414 H 0.78543 1.13515 1.11347
 H415 H 0.67833 1.12789 1.27397
 H416 H 0.57940 1.18340 1.21091
 H417 H 0.70523 1.04528 1.17185
 C418 C 0.69411 0.82109 0.90597
 C419 C 0.67429 0.77841 0.84771
 C420 C 0.73133 0.80418 0.81102
 C421 C 0.75190 0.84572 0.86857
 C422 C 0.69080 0.85907 0.78526
 C423 C 0.63373 0.83432 0.82295
 C424 C 0.65457 0.87631 0.87997
 C425 C 0.71145 0.90113 0.84289
 H426 H 0.69406 0.80450 0.95546
 H427 H 0.65898 0.72756 0.84882
 H428 H 0.80029 0.85036 0.88820
 H429 H 0.68524 0.87772 0.73698
 H430 H 0.58468 0.83000 0.80487
 H431 H 0.72643 0.95207 0.84087
   
