data_POSCAR
  _audit_creation_date              2014-09-24
  _audit_creation_method            'ToBaCCo'
  _symmetry_space_group_name_H-M    'P1'
  _symmetry_Int_Tables_number       1
  _symmetry_cell_setting            triclinic
  loop_
  _symmetry_equiv_pos_as_xyz
 x,y,z
_cell_length_a 64.3176
_cell_length_b 63.9957
_cell_length_c 23.5904
_cell_angle_alpha 89.855100
_cell_angle_beta 89.946600
_cell_angle_gamma 119.545900
loop_
  _atom_site_label
  _atom_site_type_symbol
  _atom_site_fract_x
  _atom_site_fract_y
  _atom_site_fract_z
C1 C 0.19771 0.48180 0.45164
 C2 C 0.18980 0.48490 0.50475
 C3 C 0.19790 0.48024 0.55586
 C4 C 0.21633 0.47411 0.55396
 C5 C 0.22520 0.47146 0.50075
 C6 C 0.21568 0.47500 0.44941
 C7 C 0.22595 0.47381 0.39760
 C8 C 0.24443 0.46853 0.39578
 C9 C 0.25432 0.46535 0.44573
 C10 C 0.24463 0.46666 0.49888
 C11 C 0.22786 0.47312 0.60366
 C12 C 0.24690 0.46868 0.60177
 C13 C 0.25532 0.46474 0.55009
 C14 C 0.27563 0.46142 0.54750
 C15 C 0.28441 0.45972 0.49424
 C16 C 0.27423 0.46169 0.44385
 H17 H 0.22052 0.47783 0.35762
 H18 H 0.25142 0.46772 0.35458
 H19 H 0.22315 0.47705 0.64471
 H20 H 0.25550 0.46944 0.64158
 H21 H 0.17534 0.48903 0.50612
 H22 H 0.29988 0.45719 0.49175
 C23 C 0.54405 -0.18499 0.55557
 C24 C 0.54921 -0.17187 0.50504
 C25 C 0.54845 -0.18237 0.45266
 C26 C 0.54359 -0.20648 0.45075
 C27 C 0.53890 -0.21994 0.50172
 C28 C 0.53902 -0.20917 0.55429
 C29 C 0.53365 -0.22294 0.60407
 C30 C 0.52747 -0.24703 0.60227
 C31 C 0.52738 -0.25823 0.55086
 C32 C 0.53306 -0.24451 0.49985
 C33 C 0.54288 -0.21757 0.39904
 C34 C 0.53660 -0.24164 0.39693
 C35 C 0.53186 -0.25549 0.44669
 C36 C 0.52405 -0.28045 0.44447
 C37 C 0.51732 -0.29383 0.49496
 C38 C 0.51982 -0.28319 0.54834
 H39 H 0.53374 -0.21532 0.64503
 H40 H 0.52197 -0.25690 0.64172
 H41 H 0.54673 -0.20784 0.35934
 H42 H 0.53479 -0.24936 0.35533
 H43 H 0.55215 -0.15366 0.50612
 H44 H 0.51220 -0.31271 0.49298
 C45 C 1.29260 0.79788 0.45281
 C46 C 1.30106 0.80912 0.50522
 C47 C 1.28812 0.80037 0.55582
 C48 C 1.26541 0.77914 0.55391
 C49 C 1.25629 0.76741 0.50114
 C50 C 1.26986 0.77678 0.45044
 C51 C 1.26097 0.76389 0.39966
 C52 C 1.23881 0.74320 0.39767
 C53 C 1.22496 0.73385 0.44680
 C54 C 1.23367 0.74595 0.49918
 C55 C 1.25108 0.76984 0.60262
 C56 C 1.22946 0.74848 0.60100
 C57 C 1.22010 0.73627 0.54974
 C58 C 1.19833 0.71397 0.54769
 C59 C 1.19020 0.70261 0.49515
 C60 C 1.20279 0.71241 0.44504
 H61 H 1.27120 0.76926 0.36080
 H62 H 1.23286 0.73426 0.35722
 H63 H 1.25633 0.77886 0.64298
 H64 H 1.22040 0.74170 0.64095
 H65 H 1.31851 0.82517 0.50667
 H66 H 1.17335 0.68588 0.49287
 C67 C 0.81056 0.53287 0.44322
 C68 C 0.81977 0.52815 0.49202
 C69 C 0.80867 0.52479 0.54510
 C70 C 0.78694 0.52557 0.54867
 C71 C 0.77736 0.53034 0.49907
 C72 C 0.78935 0.53419 0.44630
 C73 C 0.77970 0.53896 0.39781
 C74 C 0.75810 0.53898 0.40040
 C75 C 0.74524 0.53400 0.45145
 C76 C 0.75519 0.53023 0.50166
 C77 C 0.77339 0.51953 0.59895
 C78 C 0.75187 0.51964 0.60163
 C79 C 0.74264 0.52553 0.55400
 C80 C 0.72015 0.52464 0.55589
 C81 C 0.71046 0.52769 0.50538
 C82 C 0.72261 0.53257 0.45373
 H83 H 0.78870 0.54251 0.35720
 H84 H 0.75147 0.54272 0.36175
 H85 H 0.77867 0.51366 0.63651
 H86 H 0.74207 0.51401 0.64113
 H87 H 0.83629 0.52752 0.48847
 H88 H 0.69322 0.52692 0.50636
 C89 C 0.45830 0.27307 0.45013
 C90 C 0.45748 0.28316 0.50197
 C91 C 0.45812 0.27267 0.55351
 C92 C 0.45918 0.25111 0.55363
 C93 C 0.45983 0.24050 0.50138
 C94 C 0.45933 0.25149 0.44941
 C95 C 0.45920 0.24031 0.39814
 C96 C 0.45982 0.21891 0.39775
 C97 C 0.46055 0.20782 0.44861
 C98 C 0.46058 0.21867 0.50104
 C99 C 0.45879 0.23948 0.60447
 C100 C 0.45941 0.21803 0.60417
 C101 C 0.46096 0.20754 0.55304
 C102 C 0.46113 0.18537 0.55213
 C103 C 0.46015 0.17466 0.49957
 C104 C 0.46052 0.18577 0.44834
 H105 H 0.45821 0.24777 0.35769
 H106 H 0.45927 0.21088 0.35705
 H107 H 0.45750 0.24660 0.64507
 H108 H 0.45795 0.20945 0.64464
 H109 H 0.45693 0.29984 0.50221
 H110 H 0.46095 0.15812 0.49806
 C111 C 0.70544 0.21232 0.55561
 C112 C 0.69333 0.20421 0.50427
 C113 C 0.70498 0.21259 0.45226
 C114 C 0.72945 0.23027 0.45119
 C115 C 0.74185 0.23929 0.50305
 C116 C 0.72986 0.23007 0.55542
 C117 C 0.74258 0.23879 0.60616
 C118 C 0.76652 0.25643 0.60566
 C119 C 0.77860 0.26675 0.55449
 C120 C 0.76634 0.25739 0.50255
 C121 C 0.74179 0.23929 0.39984
 C122 C 0.76591 0.25660 0.39932
 C123 C 0.77848 0.26600 0.45013
 C124 C 0.80300 0.28347 0.44996
 C125 C 0.81493 0.29228 0.50137
 C126 C 0.80299 0.28516 0.55377
 H127 H 0.73414 0.23203 0.64690
 H128 H 0.77555 0.26157 0.64607
 H129 H 0.73290 0.23299 0.35949
 H130 H 0.77463 0.26249 0.35854
 H131 H 0.67469 0.19028 0.50478
 H132 H 0.83340 0.30658 0.49987
 N133 N 0.97792 0.46697 0.10742
 N134 N 0.96068 0.45648 0.14523
 N135 N 1.02690 0.47602 0.06057
 N136 N 1.04395 0.47051 0.06893
 N137 N 1.02805 0.49143 0.09877
 N138 N 1.04595 0.49696 0.13380
 N139 N 0.97673 0.45139 0.06962
 N140 N 0.95860 0.42980 0.08090
 C141 C 0.94876 0.43328 0.12831
 C142 C 1.05584 0.48392 0.11456
 N143 N 1.02136 0.48747 -0.10092
 N144 N 1.03794 0.49338 -0.13999
 N145 N 0.97294 0.44886 -0.05234
 N146 N 0.95627 0.42630 -0.06060
 N147 N 0.97136 0.46292 -0.09063
 N148 N 0.95356 0.45041 -0.12568
 N149 N 1.02315 0.47377 -0.06196
 N150 N 1.04110 0.46989 -0.07389
 Mn151 Mn 0.99998 0.46224 0.00402
 C152 C 1.05017 0.48236 -0.12289
 C153 C 0.94414 0.42762 -0.10620
 N154 N 1.02857 0.53654 0.09698
 N155 N 1.04696 0.54863 0.13081
 N156 N 0.97759 0.52647 0.06664
 N157 N 0.95983 0.53075 0.07667
 N158 N 0.97837 0.51222 0.10569
 N159 N 0.96115 0.50638 0.14325
 N160 N 1.02775 0.55067 0.05767
 N161 N 1.04555 0.57288 0.06407
 Mn162 Mn 1.00322 0.50179 0.10281
 C163 C 1.05749 0.57125 0.10976
 C164 C 0.94973 0.51808 0.12467
 N165 N 0.97182 0.50805 -0.09232
 N166 N 0.95395 0.50263 -0.12731
 N167 N 1.02371 0.54817 -0.06484
 N168 N 1.04084 0.56990 -0.07949
 N169 N 1.02173 0.53230 -0.10269
 N170 N 1.03740 0.54264 -0.14374
 N171 N 0.97354 0.52403 -0.05511
 N172 N 0.95678 0.52994 -0.06398
 Mn173 Mn 0.99649 0.49764 -0.09701
 Mn174 Mn 1.00071 0.53766 0.00114
 Cl175 Cl 1.00011 0.49983 0.00276
 C176 C 0.94456 0.51622 -0.10900
 C177 C 1.04931 0.56605 -0.12882
 N178 N 0.47631 0.44903 0.06086
 N179 N 0.47156 0.42668 0.06939
 N180 N 0.46626 0.48892 0.10355
 N181 N 0.45493 0.49480 0.14139
 N182 N 0.45135 0.47478 0.06480
 N183 N 0.42943 0.47056 0.07544
 N184 N 0.49144 0.46337 0.09900
 N185 N 0.49751 0.45128 0.13418
 C186 C 0.48508 0.42844 0.11514
 C187 C 0.43197 0.48328 0.12332
 N188 N 0.52514 0.54835 0.06454
 N189 N 0.52899 0.57030 0.07497
 N190 N 0.53607 0.50794 0.09896
 N191 N 0.54838 0.50283 0.13572
 N192 N 0.55023 0.52259 0.05957
 N193 N 0.57252 0.52764 0.06816
 N194 N 0.51081 0.53323 0.10302
 N195 N 0.50445 0.54428 0.14025
 Mn196 Mn 0.50115 0.49834 0.10167
 C197 C 0.51583 0.56736 0.12243
 C198 C 0.57106 0.51506 0.11568
 N199 N 0.45028 0.47557 -0.05794
 N200 N 0.42784 0.46890 -0.07109
 N201 N 0.48974 0.46488 -0.10020
 N202 N 0.49538 0.45333 -0.13797
 N203 N 0.47537 0.44997 -0.06148
 N204 N 0.47074 0.42782 -0.07206
 N205 N 0.46490 0.49068 -0.09603
 N206 N 0.45296 0.49479 -0.13554
 Mn207 Mn 0.46304 0.46208 0.00163
 C208 C 0.42991 0.48141 -0.11935
 C209 C 0.48347 0.43023 -0.11986
 N210 N 0.54927 0.52356 -0.06261
 N211 N 0.57102 0.52724 -0.07366
 N212 N 0.50932 0.53511 -0.09650
 N213 N 0.50400 0.54741 -0.13297
 N214 N 0.52430 0.54942 -0.05810
 N215 N 0.52965 0.57190 -0.06763
 N216 N 0.53407 0.50925 -0.10061
 N217 N 0.54486 0.50276 -0.13821
 Mn218 Mn 0.53753 0.53628 0.00088
 Mn219 Mn 0.49951 0.50000 -0.09874
 Cl220 Cl 0.50030 0.49919 0.00137
 C221 C 0.56786 0.51398 -0.12106
 C222 C 0.51667 0.57032 -0.11432
 N223 N 0.45273 -0.02927 0.06046
 N224 N 0.43133 -0.04799 0.06893
 N225 N 0.48759 0.02278 0.10102
 N226 N 0.49069 0.03972 0.13732
 N227 N 0.47258 0.02086 0.06100
 N228 N 0.46498 0.03639 0.06913
 N229 N 0.46741 -0.02751 0.10118
 N230 N 0.45641 -0.04507 0.13830
 C231 C 0.43394 -0.05780 0.11747
 C232 C 0.47656 0.04814 0.11677
 N233 N 0.55058 0.02976 0.06776
 N234 N 0.57156 0.04886 0.07726
 N235 N 0.51441 -0.02216 0.10542
 N236 N 0.50968 -0.03949 0.14211
 N237 N 0.53028 -0.02052 0.06802
 N238 N 0.53697 -0.03665 0.07874
 N239 N 0.53481 0.02815 0.10541
 N240 N 0.54468 0.04612 0.14168
 Mn241 Mn 0.50107 0.00036 0.10389
 C242 C 0.56761 0.05896 0.12343
 C243 C 0.52381 -0.04844 0.12503
 N244 N 0.47442 0.02142 -0.06077
 N245 N 0.46697 0.03693 -0.07075
 N246 N 0.47058 -0.02643 -0.09962
 N247 N 0.46082 -0.04304 -0.13901
 N248 N 0.45457 -0.02878 -0.06184
 N249 N 0.43340 -0.04711 -0.07470
 N250 N 0.49058 0.02383 -0.09817
 N251 N 0.49465 0.04117 -0.13456
 Mn252 Mn 0.46331 -0.00402 -0.00031
 C253 C 0.47984 0.04925 -0.11670
 C254 C 0.43767 -0.05598 -0.12278
 N255 N 0.53214 -0.01988 -0.05471
 N256 N 0.53958 -0.03552 -0.06345
 N257 N 0.53768 0.02905 -0.09400
 N258 N 0.54839 0.04718 -0.12974
 N259 N 0.55246 0.03039 -0.05402
 N260 N 0.57370 0.04954 -0.06155
 N261 N 0.51756 -0.02117 -0.09518
 N262 N 0.51453 -0.03782 -0.13228
 Mn263 Mn 0.54163 0.00492 0.00680
 Mn264 Mn 0.50413 0.00136 -0.09733
 Cl265 Cl 0.50253 0.00063 0.00327
 C266 C 0.52829 -0.04670 -0.11188
 C267 C 0.57083 0.05989 -0.10893
 C268 C 1.18395 0.50578 0.39972
 C269 C 1.17161 0.50873 0.35473
 C270 C 1.16130 0.49121 0.31250
 C271 C 1.16446 0.47096 0.31497
 C272 C 1.17705 0.46808 0.35992
 C273 C 1.18694 0.48544 0.40309
 C274 C 1.14674 0.49460 0.26862
 C275 C 1.12932 0.47667 0.23890
 C276 C 1.11205 0.48010 0.20403
 C277 C 1.10039 0.46444 0.15877
 C278 C 1.08258 0.46608 0.12820
 C279 C 1.07589 0.48319 0.14308
 C280 C 1.08772 0.49899 0.18791
 C281 C 1.10553 0.49745 0.21816
 H282 H 1.19135 0.51958 0.43196
 H283 H 1.16953 0.52453 0.35386
 H284 H 1.15711 0.45720 0.28280
 H285 H 1.17818 0.45176 0.36211
 H286 H 1.14937 0.51258 0.26394
 H287 H 1.12669 0.45866 0.24184
 H288 H 1.10487 0.45074 0.14751
 H289 H 1.07365 0.45359 0.09396
 H290 H 1.08284 0.51227 0.20056
 H291 H 1.11339 0.50927 0.25401
 C292 C 0.54322 0.71542 0.35807
 C293 C 0.54301 0.70147 0.31219
 C294 C 0.52288 0.67904 0.30147
 C295 C 0.50240 0.67152 0.33547
 C296 C 0.50273 0.68519 0.38167
 C297 C 0.52316 0.70726 0.39398
 C298 C 0.52403 0.66345 0.25647
 C299 C 0.51124 0.63941 0.26011
 C300 C 0.51226 0.62212 0.21998
 C301 C 0.49634 0.59767 0.22965
 C302 C 0.49727 0.58015 0.19679
 C303 C 0.51416 0.58656 0.15310
 C304 C 0.52967 0.61099 0.14166
 C305 C 0.52881 0.62871 0.17495
 H306 H 0.55953 0.73196 0.36724
 H307 H 0.55897 0.70774 0.28649
 H308 H 0.48609 0.65494 0.32703
 H309 H 0.48684 0.67855 0.40782
 H310 H 0.53666 0.67200 0.22231
 H311 H 0.49969 0.63148 0.29649
 H312 H 0.48332 0.59199 0.26366
 H313 H 0.48490 0.56147 0.20634
 H314 H 0.54285 0.61636 0.10813
 H315 H 0.54145 0.64730 0.16591
 C316 C 0.33196 -0.18537 0.40883
 C317 C 0.34779 -0.17294 0.36490
 C318 C 0.34006 -0.16589 0.31675
 C319 C 0.31571 -0.17265 0.31207
 C320 C 0.29971 -0.18539 0.35599
 C321 C 0.30770 -0.19174 0.40526
 C322 C 0.35833 -0.15067 0.27435
 C323 C 0.35624 -0.13510 0.23997
 C324 C 0.37657 -0.11674 0.20637
 C325 C 0.37196 -0.10735 0.15718
 C326 C 0.39068 -0.08863 0.12718
 C327 C 0.41433 -0.07871 0.14645
 C328 C 0.41899 -0.08822 0.19533
 C329 C 0.40034 -0.10699 0.22509
 H330 H 0.33874 -0.19008 0.44592
 H331 H 0.36640 -0.16808 0.36950
 H332 H 0.30896 -0.16794 0.27509
 H333 H 0.28134 -0.18931 0.35250
 H334 H 0.37502 -0.15094 0.27511
 H335 H 0.33958 -0.13483 0.23788
 H336 H 0.35380 -0.11435 0.14230
 H337 H 0.38657 -0.08156 0.08970
 H338 H 0.43704 -0.08081 0.21133
 H339 H 0.40459 -0.11309 0.26391
 C340 C 0.84512 0.55582 0.37818
 C341 C 0.85931 0.55633 0.33271
 C342 C 0.85215 0.53589 0.29889
 C343 C 0.82964 0.51555 0.30854
 C344 C 0.81535 0.51516 0.35366
 C345 C 0.82331 0.53506 0.38952
 C346 C 0.86913 0.53584 0.25657
 C347 C 0.87087 0.51615 0.24639
 C348 C 0.89044 0.51652 0.21255
 C349 C 0.89814 0.50008 0.22623
 C350 C 0.91734 0.50054 0.19744
 C351 C 0.92896 0.51720 0.15363
 C352 C 0.92076 0.53312 0.13846
 C353 C 0.90170 0.53285 0.16777
 H354 H 0.85154 0.57124 0.40587
 H355 H 0.87650 0.57224 0.32584
 H356 H 0.82334 0.49976 0.28221
 H357 H 0.79857 0.49898 0.36217
 H358 H 0.88238 0.55298 0.23917
 H359 H 0.85913 0.49965 0.26875
 H360 H 0.88964 0.48720 0.26025
 H361 H 0.92314 0.48790 0.20965
 H362 H 0.92929 0.54601 0.10449
 H363 H 0.89577 0.54534 0.15514
 C364 C 0.43917 0.28926 0.38454
 C365 C 0.44026 0.30327 0.33791
 C366 C 0.46101 0.31468 0.30447
 C367 C 0.48025 0.31078 0.31680
 C368 C 0.47911 0.29670 0.36336
 C369 C 0.45867 0.28607 0.39785
 C370 C 0.46227 0.33124 0.25888
 C371 C 0.48284 0.35058 0.24340
 C372 C 0.48386 0.36973 0.20625
 C373 C 0.50220 0.39336 0.21508
 C374 C 0.50281 0.41233 0.18448
 C375 C 0.48531 0.40800 0.14361
 C376 C 0.46760 0.38424 0.13253
 C377 C 0.46680 0.36522 0.16375
 H378 H 0.42328 0.28122 0.41087
 H379 H 0.42517 0.30589 0.32912
 H380 H 0.49625 0.31871 0.29097
 H381 H 0.49433 0.29444 0.37320
 H382 H 0.44554 0.32899 0.24271
 H383 H 0.49931 0.35412 0.26391
 H384 H 0.51567 0.39726 0.24717
 H385 H 0.51682 0.43045 0.19348
 H386 H 0.45400 0.38044 0.10090
 H387 H 0.45282 0.34711 0.15478
 C388 C 0.67046 0.20257 0.38832
 C389 C 0.65465 0.18814 0.34626
 C390 C 0.65894 0.17177 0.31596
 C391 C 0.68003 0.17088 0.32718
 C392 C 0.69588 0.18542 0.36913
 C393 C 0.69096 0.20101 0.40067
 C394 C 0.63984 0.15439 0.27800
 C395 C 0.64282 0.14028 0.24071
 C396 C 0.62281 0.12065 0.20911
 C397 C 0.62795 0.11190 0.15966
 C398 C 0.60991 0.09219 0.13112
 C399 C 0.58635 0.08065 0.15179
 C400 C 0.58107 0.08952 0.20084
 C401 C 0.59910 0.10925 0.22939
 H402 H 0.66621 0.21426 0.41290
 H403 H 0.63853 0.18913 0.33890
 H404 H 0.68386 0.15818 0.30617
 H405 H 0.71135 0.18359 0.37909
 H406 H 0.62243 0.15298 0.28198
 H407 H 0.66053 0.14298 0.23253
 H408 H 0.64606 0.12017 0.14342
 H409 H 0.61451 0.08572 0.09339
 H410 H 0.56308 0.08088 0.21790
 H411 H 0.59446 0.11487 0.26832
 C412 C 0.48212 0.18674 -0.35968
 C413 C 0.48666 0.17463 -0.31614
 C414 C 0.47256 0.14965 -0.31016
 C415 C 0.45374 0.13695 -0.34835
 C416 C 0.44948 0.14892 -0.39236
 C417 C 0.46361 0.17399 -0.39890
 C418 C 0.47905 0.13683 -0.26763
 C419 C 0.46267 0.11643 -0.24289
 C420 C 0.46886 0.10133 -0.20699
 C421 C 0.45269 0.08686 -0.16498
 C422 C 0.45674 0.07052 -0.13425
 C423 C 0.47676 0.06794 -0.14599
 C424 C 0.49315 0.08263 -0.18751
 C425 C 0.48932 0.09928 -0.21761
 H426 H 0.49404 0.20587 -0.36471
 H427 H 0.50154 0.18472 -0.28781
 H428 H 0.44294 0.11759 -0.34594
 H429 H 0.43514 0.13847 -0.42177
 H430 H 0.49776 0.14430 -0.25699
 H431 H 0.44386 0.11034 -0.24931
 H432 H 0.43670 0.08796 -0.15650
 H433 H 0.44377 0.05936 -0.10257
 H434 H 0.50872 0.08096 -0.19737
 H435 H 0.50181 0.10976 -0.25075
 C436 C 0.71668 0.53525 -0.34564
 C437 C 0.70213 0.53363 -0.29964
 C438 C 0.67743 0.51754 -0.30101
 C439 C 0.66789 0.50186 -0.34740
 C440 C 0.68221 0.50385 -0.39363
 C441 C 0.70672 0.52080 -0.39394
 C442 C 0.66180 0.51796 -0.25514
 C443 C 0.63890 0.51156 -0.26513
 C444 C 0.62180 0.51124 -0.22283
 C445 C 0.59746 0.49650 -0.23434
 C446 C 0.58019 0.49695 -0.19982
 C447 C 0.58678 0.51240 -0.15301
 C448 C 0.61114 0.52671 -0.13995
 C449 C 0.62862 0.52615 -0.17470
 H450 H 0.73541 0.54882 -0.34488
 H451 H 0.70997 0.54568 -0.26410
 H452 H 0.64926 0.48817 -0.34878
 H453 H 0.67407 0.49201 -0.42945
 H454 H 0.66947 0.52436 -0.21369
 H455 H 0.63179 0.50600 -0.30736
 H456 H 0.59173 0.48482 -0.27102
 H457 H 0.56157 0.48554 -0.21081
 H458 H 0.61667 0.53879 -0.10409
 H459 H 0.64727 0.53802 -0.16513
 C460 C 0.80466 0.30730 -0.35986
 C461 C 0.81765 0.32231 -0.31508
 C462 C 0.84153 0.32845 -0.30617
 C463 C 0.85225 0.31927 -0.34301
 C464 C 0.83938 0.30452 -0.38826
 C465 C 0.81531 0.29818 -0.39732
 C466 C 0.85545 0.34638 -0.26219
 C467 C 0.87466 0.34763 -0.23678
 C468 C 0.89051 0.36777 -0.19936
 C469 C 0.90382 0.36411 -0.15730
 C470 C 0.92060 0.38339 -0.12502
 C471 C 0.92469 0.40675 -0.13525
 C472 C 0.91110 0.41034 -0.17664
 C473 C 0.89416 0.39108 -0.20831
 H474 H 0.78662 0.30392 -0.36692
 H475 H 0.80917 0.32961 -0.28806
 H476 H 0.87086 0.32423 -0.33847
 H477 H 0.84828 0.29799 -0.41621
 H478 H 0.84965 0.35908 -0.25071
 H479 H 0.87913 0.33358 -0.24377
 H480 H 0.90149 0.34635 -0.15004
 H481 H 0.93096 0.38017 -0.09356
 H482 H 0.91395 0.42819 -0.18551
 H483 H 0.88473 0.39472 -0.24143
 C484 C 0.51850 -0.18245 -0.36811
 C485 C 0.51481 -0.16973 -0.32495
 C486 C 0.53368 -0.14784 -0.30561
 C487 C 0.55659 -0.13922 -0.32944
 C488 C 0.56024 -0.15196 -0.37273
 C489 C 0.54118 -0.17353 -0.39274
 C490 C 0.52816 -0.13342 -0.26555
 C491 C 0.54460 -0.11542 -0.23414
 C492 C 0.53904 -0.09919 -0.20076
 C493 C 0.55297 -0.08745 -0.15314
 C494 C 0.54911 -0.07082 -0.12314
 C495 C 0.53151 -0.06532 -0.14093
 C496 C 0.51752 -0.07713 -0.18838
 C497 C 0.52123 -0.09385 -0.21804
 H498 H 0.50345 -0.19879 -0.38391
 H499 H 0.49696 -0.17663 -0.30787
 H500 H 0.57145 -0.12210 -0.31702
 H501 H 0.57775 -0.14457 -0.39210
 H502 H 0.50965 -0.13777 -0.26250
 H503 H 0.56270 -0.11237 -0.23240
 H504 H 0.56696 -0.09105 -0.13939
 H505 H 0.56023 -0.06188 -0.08683
 H506 H 0.50391 -0.07315 -0.20324
 H507 H 0.51067 -0.10191 -0.25560
 C508 C 0.27857 0.44665 -0.35747
 C509 C 0.29279 0.44687 -0.31210
 C510 C 0.31765 0.46215 -0.31329
 C511 C 0.32788 0.47793 -0.35946
 C512 C 0.31388 0.47752 -0.40471
 C513 C 0.28903 0.46196 -0.40453
 C514 C 0.33284 0.46184 -0.26633
 C515 C 0.35547 0.46717 -0.27606
 C516 C 0.37331 0.47121 -0.23197
 C517 C 0.39729 0.48683 -0.24562
 C518 C 0.41534 0.49066 -0.20779
 C519 C 0.40995 0.47859 -0.15549
 C520 C 0.38589 0.46318 -0.14088
 C521 C 0.36759 0.45958 -0.17887
 H522 H 0.25957 0.43400 -0.35663
 H523 H 0.28447 0.43470 -0.27675
 H524 H 0.34677 0.49089 -0.36076
 H525 H 0.32249 0.48990 -0.43959
 H526 H 0.32552 0.45779 -0.22382
 H527 H 0.36207 0.47033 -0.31926
 H528 H 0.40214 0.49607 -0.28614
 H529 H 0.43366 0.50270 -0.22038
 H530 H 0.38129 0.45361 -0.10086
 H531 H 0.34923 0.44719 -0.16750
 C532 C 1.17575 0.71230 -0.36609
 C533 C 1.16038 0.69877 -0.32178
 C534 C 1.15351 0.67440 -0.31508
 C535 C 1.16331 0.66416 -0.35159
 C536 C 1.17832 0.67747 -0.39592
 C537 C 1.18477 0.70171 -0.40400
 C538 C 1.13586 0.65970 -0.27083
 C539 C 1.12061 0.63627 -0.27920
 C540 C 1.10310 0.61938 -0.23754
 C541 C 1.09219 0.59484 -0.25033
 C542 C 1.07512 0.57776 -0.21433
 C543 C 1.06831 0.58472 -0.16447
 C544 C 1.07929 0.60924 -0.15083
 C545 C 1.09660 0.62651 -0.18711
 H546 H 1.17969 0.73068 -0.37222
 H547 H 1.15317 0.70709 -0.29401
 H548 H 1.15935 0.64576 -0.34624
 H549 H 1.18516 0.66883 -0.42385
 H550 H 1.13530 0.66845 -0.23219
 H551 H 1.12101 0.62856 -0.31972
 H552 H 1.09685 0.58877 -0.28867
 H553 H 1.06709 0.55901 -0.22603
 H554 H 1.07429 0.61506 -0.11264
 H555 H 1.10440 0.64525 -0.17590
 C556 C 0.82715 0.50307 -0.41278
 C557 C 0.83865 0.49882 -0.36791
 C558 C 0.84360 0.51206 -0.31770
 C559 C 0.83616 0.52927 -0.31242
 C560 C 0.82417 0.53324 -0.35713
 C561 C 0.81948 0.52014 -0.40798
 C562 C 0.85688 0.50742 -0.27287
 C563 C 0.87249 0.52439 -0.23786
 C564 C 0.88936 0.52069 -0.20188
 C565 C 0.90009 0.53568 -0.15493
 C566 C 0.91759 0.53388 -0.12324
 C567 C 0.92480 0.51720 -0.13845
 C568 C 0.91384 0.50203 -0.18481
 C569 C 0.89649 0.50382 -0.21635
 H570 H 0.82378 0.49256 -0.45106
 H571 H 0.84419 0.48545 -0.37296
 H572 H 0.83949 0.53959 -0.27393
 H573 H 0.81923 0.54707 -0.35261
 H574 H 0.85510 0.48971 -0.27247
 H575 H 0.87404 0.54202 -0.23762
 H576 H 0.89517 0.54903 -0.14328
 H577 H 0.92584 0.54588 -0.08781
 H578 H 0.91913 0.48910 -0.19785
 H579 H 0.88955 0.49256 -0.25337
 C580 C 0.43830 0.28759 -0.37961
 C581 C 0.43940 0.30213 -0.33432
 C582 C 0.46065 0.31513 -0.30354
 C583 C 0.48038 0.31212 -0.31666
 C584 C 0.47918 0.29737 -0.36166
 C585 C 0.45828 0.28538 -0.39402
 C586 C 0.46186 0.33231 -0.25990
 C587 C 0.48197 0.35298 -0.24932
 C588 C 0.48262 0.37219 -0.21314
 C589 C 0.49956 0.39612 -0.22542
 C590 C 0.49997 0.41492 -0.19464
 C591 C 0.48368 0.41017 -0.15019
 C592 C 0.46731 0.38620 -0.13627
 C593 C 0.46672 0.36734 -0.16755
 H594 H 0.42208 0.27854 -0.40441
 H595 H 0.42393 0.30403 -0.32482
 H596 H 0.49681 0.32136 -0.29276
 H597 H 0.49479 0.29590 -0.37244
 H598 H 0.44519 0.32913 -0.24105
 H599 H 0.49808 0.35719 -0.27272
 H600 H 0.51213 0.40032 -0.25998
 H601 H 0.51294 0.43322 -0.20597
 H602 H 0.45469 0.38203 -0.10188
 H603 H 0.45388 0.34907 -0.15589
 C604 C 0.67207 0.20270 -0.37665
 C605 C 0.65718 0.18881 -0.33241
 C606 C 0.66181 0.17244 -0.30292
 C607 C 0.68231 0.17094 -0.31743
 C608 C 0.69725 0.18494 -0.36158
 C609 C 0.69201 0.20061 -0.39200
 C610 C 0.64348 0.15563 -0.26236
 C611 C 0.64661 0.14103 -0.22672
 C612 C 0.62668 0.12155 -0.19426
 C613 C 0.63177 0.11234 -0.14534
 C614 C 0.61356 0.09265 -0.11651
 C615 C 0.58997 0.08163 -0.13659
 C616 C 0.58482 0.09097 -0.18511
 C617 C 0.60294 0.11062 -0.21378
 H618 H 0.66761 0.21450 -0.40023
 H619 H 0.64147 0.19024 -0.32256
 H620 H 0.68635 0.15823 -0.29708
 H621 H 0.71233 0.18277 -0.37373
 H622 H 0.62629 0.15487 -0.26334
 H623 H 0.66417 0.14300 -0.22118
 H624 H 0.64993 0.12024 -0.12981
 H625 H 0.61803 0.08576 -0.07927
 H626 H 0.56682 0.08276 -0.20176
 H627 H 0.59833 0.11654 -0.25237
 C628 C 1.17762 0.46229 -0.35361
 C629 C 1.16339 0.46189 -0.30808
 C630 C 1.15771 0.48030 -0.30151
 C631 C 1.16796 0.49998 -0.33903
 C632 C 1.18180 0.50023 -0.38476
 C633 C 1.18658 0.48125 -0.39344
 C634 C 1.14042 0.47824 -0.25697
 C635 C 1.12611 0.48776 -0.26446
 C636 C 1.10779 0.48640 -0.22402
 C637 C 1.09727 0.50055 -0.23627
 C638 C 1.07899 0.49940 -0.20254
 C639 C 1.07058 0.48398 -0.15543
 C640 C 1.08132 0.47008 -0.14189
 C641 C 1.09980 0.47123 -0.17600
 H642 H 1.18036 0.44704 -0.35954
 H643 H 1.15591 0.44663 -0.27947
 H644 H 1.16510 0.51516 -0.33375
 H645 H 1.18888 0.51543 -0.41357
 H646 H 1.13880 0.46782 -0.21942
 H647 H 1.12747 0.49707 -0.30386
 H648 H 1.10303 0.51246 -0.27270
 H649 H 1.07125 0.51050 -0.21399
 H650 H 1.07514 0.45803 -0.10578
 H651 H 1.10727 0.45987 -0.16523
 C652 C 0.49542 0.67869 -0.40184
 C653 C 0.49229 0.66277 -0.35790
 C654 C 0.50927 0.66931 -0.31458
 C655 C 0.52900 0.69276 -0.31467
 C656 C 0.53206 0.70886 -0.35857
 C657 C 0.51542 0.70197 -0.40325
 C658 C 0.50587 0.65067 -0.27215
 C659 C 0.52343 0.65117 -0.24041
 C660 C 0.52019 0.63033 -0.20581
 C661 C 0.53514 0.63418 -0.15901
 C662 C 0.53363 0.61475 -0.12810
 C663 C 0.51737 0.59106 -0.14404
 C664 C 0.50233 0.58719 -0.19059
 C665 C 0.50373 0.60655 -0.22121
 H666 H 0.48208 0.67272 -0.43503
 H667 H 0.47683 0.64492 -0.35881
 H668 H 0.54231 0.69873 -0.28158
 H669 H 0.54812 0.72626 -0.35901
 H670 H 0.48823 0.63502 -0.26994
 H671 H 0.54105 0.66683 -0.24087
 H672 H 0.54817 0.65228 -0.14666
 H673 H 0.54554 0.61825 -0.09255
 H674 H 0.48972 0.56914 -0.20413
 H675 H 0.49249 0.60270 -0.25815
 C676 C 0.30173 -0.19812 -0.34553
 C677 C 0.31562 -0.18453 -0.29961
 C678 C 0.32751 -0.15936 -0.30183
 C679 C 0.32400 -0.14800 -0.34884
 C680 C 0.31009 -0.16145 -0.39429
 C681 C 0.29902 -0.18672 -0.39399
 C682 C 0.34450 -0.14498 -0.25668
 C683 C 0.36548 -0.12570 -0.27000
 C684 C 0.38365 -0.11006 -0.22841
 C685 C 0.40751 -0.09717 -0.24642
 C686 C 0.42509 -0.08029 -0.21108
 C687 C 0.41914 -0.07558 -0.15716
 C688 C 0.39534 -0.08884 -0.13833
 C689 C 0.37770 -0.10605 -0.17363
 H690 H 0.29438 -0.21742 -0.34446
 H691 H 0.31813 -0.19364 -0.26370
 H692 H 0.33241 -0.12860 -0.35096
 H693 H 0.30815 -0.15200 -0.43029
 H694 H 0.34043 -0.15113 -0.21318
 H695 H 0.37008 -0.12148 -0.31438
 H696 H 0.41251 -0.09988 -0.28850
 H697 H 0.44326 -0.07040 -0.22681
 H698 H 0.39028 -0.08552 -0.09694
 H699 H 0.35936 -0.11540 -0.15894
 C700 C 0.56984 -0.14586 0.39073
 C701 C 0.56975 -0.13146 0.34608
 C702 C 0.54946 -0.13918 0.31169
 C703 C 0.52976 -0.16224 0.32074
 C704 C 0.52986 -0.17659 0.36534
 C705 C 0.54978 -0.16843 0.40106
 C706 C 0.54898 -0.12244 0.26874
 C707 C 0.52868 -0.12273 0.25421
 C708 C 0.52778 -0.10416 0.21832
 C709 C 0.50870 -0.09972 0.22636
 C710 C 0.50740 -0.08180 0.19548
 C711 C 0.52496 -0.06814 0.15503
 C712 C 0.54367 -0.07306 0.14529
 C713 C 0.54515 -0.09088 0.17685
 H714 H 0.58530 -0.13918 0.41814
 H715 H 0.58520 -0.11385 0.33979
 H716 H 0.51410 -0.16914 0.29403
 H717 H 0.51410 -0.19384 0.37298
 H718 H 0.56594 -0.10805 0.25360
 H719 H 0.51206 -0.13573 0.27399
 H720 H 0.49499 -0.10981 0.25763
 H721 H 0.49265 -0.07856 0.20356
 H722 H 0.55735 -0.06285 0.11408
 H723 H 0.55976 -0.09427 0.16851
 C724 C 0.28662 0.44090 0.37317
 C725 C 0.30129 0.44180 0.32836
 C726 C 0.31646 0.46367 0.30110
 C727 C 0.31545 0.48436 0.31695
 C728 C 0.30064 0.48339 0.36152
 C729 C 0.28649 0.46176 0.39059
 C730 C 0.33379 0.46443 0.25845
 C731 C 0.35544 0.48380 0.25113
 C732 C 0.37451 0.48381 0.21565
 C733 C 0.39842 0.49975 0.22959
 C734 C 0.41704 0.49970 0.19922
 C735 C 0.41215 0.48391 0.15360
 C736 C 0.38826 0.46850 0.13821
 C737 C 0.36957 0.46840 0.16899
 H738 H 0.27596 0.42411 0.39555
 H739 H 0.30162 0.42560 0.31671
 H740 H 0.32637 0.50136 0.29574
 H741 H 0.30086 0.49970 0.37476
 H742 H 0.32960 0.44778 0.23752
 H743 H 0.36038 0.49964 0.27653
 H744 H 0.40272 0.51195 0.26499
 H745 H 0.43528 0.51193 0.21174
 H746 H 0.38400 0.45628 0.10289
 H747 H 0.35138 0.45636 0.15596
 C748 C 1.19934 0.68440 0.36722
 C749 C 1.18648 0.66930 0.32231
 C750 C 1.16587 0.66899 0.30131
 C751 C 1.15878 0.68465 0.32529
 C752 C 1.17162 0.69966 0.37022
 C753 C 1.19176 0.69940 0.39193
 C754 C 1.15082 0.65029 0.25952
 C755 C 1.13402 0.65122 0.22756
 C756 C 1.11621 0.63055 0.19390
 C757 C 1.10451 0.63471 0.14863
 C758 C 1.08592 0.61547 0.11976
 C759 C 1.07844 0.59171 0.13629
 C760 C 1.09041 0.58753 0.18085
 C761 C 1.10904 0.60669 0.20941
 H762 H 1.21464 0.68371 0.38416
 H763 H 1.19219 0.65726 0.30514
 H764 H 1.14266 0.68451 0.31177
 H765 H 1.16531 0.71084 0.38963
 H766 H 1.15343 0.63487 0.25622
 H767 H 1.13286 0.66751 0.22637
 H768 H 1.10950 0.65290 0.13623
 H769 H 1.07695 0.61921 0.08567
 H770 H 1.08500 0.56940 0.19465
 H771 H 1.11701 0.60265 0.24511
 C772 C 0.48405 0.18524 0.36475
 C773 C 0.48770 0.17283 0.32071
 C774 C 0.46998 0.14941 0.30675
 C775 C 0.44821 0.13885 0.33685
 C776 C 0.44466 0.15123 0.38113
 C777 C 0.46266 0.17436 0.39582
 C778 C 0.47583 0.13560 0.26566
 C779 C 0.45929 0.11644 0.23746
 C780 C 0.46523 0.10060 0.20376
 C781 C 0.45039 0.08749 0.15855
 C782 C 0.45448 0.07093 0.12897
 C783 C 0.47321 0.06684 0.14494
 C784 C 0.48818 0.08008 0.18985
 C785 C 0.48427 0.09681 0.21894
 H786 H 0.49831 0.20292 0.37626
 H787 H 0.50471 0.18123 0.29866
 H788 H 0.43441 0.12059 0.32857
 H789 H 0.42822 0.14242 0.40542
 H790 H 0.49457 0.14131 0.25927
 H791 H 0.44074 0.11202 0.23909
 H792 H 0.43545 0.08990 0.14649
 H793 H 0.44260 0.06087 0.09463
 H794 H 0.50270 0.07723 0.20316
 H795 H 0.49564 0.10604 0.25466
 C796 C 0.70306 0.55287 0.40484
 C797 C 0.68707 0.55262 0.36456
 C798 C 0.67822 0.53517 0.32183
 C799 C 0.68648 0.51852 0.31865
 C800 C 0.70231 0.51860 0.35955
 C801 C 0.71032 0.53549 0.40363
 C802 C 0.65832 0.53309 0.28638
 C803 C 0.65342 0.52369 0.23420
 C804 C 0.63210 0.52061 0.20326
 C805 C 0.63371 0.52639 0.14545
 C806 C 0.61383 0.52452 0.11663
 C807 C 0.59187 0.51616 0.14490
 C808 C 0.59007 0.50946 0.20216
 C809 C 0.61003 0.51183 0.23118
 H810 H 0.70882 0.56588 0.43886
 H811 H 0.68087 0.56553 0.36808
 H812 H 0.67958 0.50450 0.28699
 H813 H 0.70726 0.50470 0.35865
 H814 H 0.64720 0.53979 0.30425
 H815 H 0.66554 0.51906 0.21304
 H816 H 0.65051 0.53297 0.12304
 H817 H 0.61561 0.52964 0.07234
 H818 H 0.57336 0.50288 0.22492
 H819 H 0.60818 0.50672 0.27549
 C820 C 0.83696 0.29303 0.38375
 C821 C 0.85188 0.30654 0.33905
 C822 C 0.84701 0.32236 0.30800
 C823 C 0.82598 0.32322 0.32007
 C824 C 0.81101 0.30961 0.36459
 C825 C 0.81662 0.29474 0.39734
 C826 C 0.86472 0.33848 0.26549
 C827 C 0.86845 0.36068 0.25501
 C828 C 0.88850 0.37864 0.21998
 C829 C 0.89731 0.40306 0.23157
 C830 C 0.91677 0.42071 0.20149
 C831 C 0.92767 0.41436 0.15842
 C832 C 0.91845 0.38996 0.14537
 C833 C 0.89905 0.37221 0.17598
 H834 H 0.84165 0.28178 0.40890
 H835 H 0.86786 0.30543 0.33036
 H836 H 0.82128 0.33467 0.29590
 H837 H 0.79548 0.31129 0.37479
 H838 H 0.87671 0.33291 0.24754
 H839 H 0.85791 0.36696 0.27758
 H840 H 0.88940 0.40851 0.26489
 H841 H 0.92334 0.43939 0.21215
 H842 H 0.92641 0.38460 0.11203
 H843 H 0.89231 0.35358 0.16483
   
