data_POSCAR
  _audit_creation_date              2014-09-24
  _audit_creation_method            'ToBaCCo'
  _symmetry_space_group_name_H-M    'P1'
  _symmetry_Int_Tables_number       1
  _symmetry_cell_setting            triclinic
  loop_
  _symmetry_equiv_pos_as_xyz
 x,y,z
_cell_length_a 29.3937
_cell_length_b 28.5605
_cell_length_c 29.9970
_cell_angle_alpha 89.849400
_cell_angle_beta 89.966600
_cell_angle_gamma 89.856300
loop_
  _atom_site_label
  _atom_site_type_symbol
  _atom_site_fract_x
  _atom_site_fract_y
  _atom_site_fract_z
C1 C 0.16161 0.16230 0.22728
 N2 N 0.20120 0.14401 0.21165
 C3 C 0.22091 0.16152 0.17438
 N4 N 0.20074 0.19766 0.15252
 C5 C 0.16135 0.21637 0.16779
 N6 N 0.14180 0.19867 0.20529
 C7 C -0.17104 0.83151 0.23069
 N8 N -0.20813 0.85146 0.21109
 C9 C -0.22622 0.83288 0.17330
 N10 N -0.20680 0.79421 0.15517
 C11 C -0.16979 0.77410 0.17428
 N12 N -0.15209 0.79273 0.21202
 C13 C -0.17197 0.17047 -0.23665
 N14 N -0.15517 0.20851 -0.21529
 C15 C -0.17611 0.22551 -0.17821
 N16 N -0.21425 0.20398 -0.16256
 C17 C -0.23127 0.16575 -0.18392
 N18 N -0.20996 0.14943 -0.22073
 C19 C 0.17833 0.83408 -0.22863
 N20 N 0.21519 0.85550 -0.20983
 C21 C 0.23322 0.83840 -0.17098
 N22 N 0.21409 0.80009 -0.15156
 C23 C 0.17762 0.77867 -0.17012
 N24 N 0.16002 0.79587 -0.20858
 C25 C 0.16770 1.16780 0.76496
 N26 N 0.20582 1.14716 0.78106
 C27 C 0.22681 1.16395 0.81766
 N28 N 0.20951 1.20227 0.83871
 C29 C 0.17117 1.22349 0.82289
 N30 N 0.15045 1.20595 0.78595
 C31 C 0.82536 0.83291 0.76870
 N32 N 0.78797 0.85368 0.78700
 C33 C 0.76909 0.83621 0.82511
 N34 N 0.78794 0.79764 0.84482
 C35 C 0.82530 0.77675 0.82665
 N36 N 0.84355 0.79467 0.78880
 C37 C 0.17066 0.82908 1.23017
 N38 N 0.20816 0.84898 1.21142
 C39 C 0.22613 0.83155 1.17311
 N40 N 0.20629 0.79416 1.15347
 C41 C 0.16902 0.77394 1.17167
 N42 N 0.15121 0.79135 1.21011
 C43 C 0.83292 1.17291 1.23387
 N44 N 0.79328 1.15470 1.21859
 C45 C 0.77269 1.17302 1.18220
 N46 N 0.79174 1.20996 1.16086
 C47 C 0.83121 1.22871 1.17567
 N48 N 0.85186 1.21005 1.21231
 N49 N 0.54974 0.92043 1.05277
 N50 N 0.58525 0.89204 1.05679
 N51 N 0.45383 0.94919 1.08670
 N52 N 0.41998 0.94149 1.11443
 N53 N 0.45295 0.91964 1.05324
 N54 N 0.41774 0.89104 1.05731
 N55 N 0.54856 0.94996 1.08624
 N56 N 0.58251 0.94249 1.11390
 C57 C 0.60518 0.90648 1.09528
 C58 C 0.39771 0.90532 1.09586
 N59 N 0.45221 1.08421 1.06721
 N60 N 0.41597 1.11061 1.07331
 N61 N 0.54802 1.04955 1.09473
 N62 N 0.58338 1.05232 1.12163
 N63 N 0.54745 1.08486 1.06676
 N64 N 0.58227 1.11279 1.07374
 N65 N 0.45244 1.04886 1.09516
 N66 N 0.41628 1.05018 1.12121
 Mn67 Mn 0.50071 0.99932 1.09107
 C68 C 0.39407 1.08904 1.10723
 C69 C 0.60424 1.09204 1.10812
 N70 N 0.45272 0.92884 0.95673
 N71 N 0.41918 0.89953 0.94811
 N72 N 0.54815 0.96513 0.92814
 N73 N 0.58231 0.96197 0.89960
 N74 N 0.54885 0.92967 0.95621
 N75 N 0.58349 0.90153 0.94741
 N76 N 0.45184 0.96437 0.92874
 N77 N 0.41757 0.96002 0.90038
 Mn78 Mn 0.50110 0.92389 1.00465
 C79 C 0.39745 0.91932 0.91297
 C80 C 0.60410 0.92213 0.91197
 N81 N 0.54678 1.09494 0.97210
 N82 N 0.58021 1.12540 0.96979
 N83 N 0.45111 1.06574 0.93858
 N84 N 0.41622 1.07587 0.91237
 N85 N 0.45197 1.09441 0.97271
 N86 N 0.41820 1.12466 0.97082
 N87 N 0.54750 1.06637 0.93787
 N88 N 0.58197 1.07678 0.91121
 Mn89 Mn 0.49962 1.08993 1.01972
 Mn90 Mn 0.49961 1.01545 0.93260
 Cl91 Cl 0.50026 1.00695 1.01180
 C92 C 0.60191 1.11378 0.93183
 C93 C 0.39617 1.11277 0.93321
 N94 N -0.04976 0.45183 -0.08262
 N95 N -0.05647 0.41637 -0.11010
 N96 N -0.07974 0.55110 -0.05099
 N97 N -0.10759 0.58703 -0.05657
 N98 N -0.04821 0.55073 -0.08207
 N99 N -0.05378 0.58645 -0.10959
 N100 N -0.08131 0.45255 -0.05157
 N101 N -0.11023 0.41776 -0.05704
 C102 C -0.09440 0.39550 -0.09364
 C103 C -0.09092 0.60877 -0.09328
 N104 N -0.04745 0.54871 0.07586
 N105 N -0.05202 0.58375 0.10396
 N106 N -0.08084 0.45140 0.04451
 N107 N -0.10912 0.41602 0.05030
 N108 N -0.04895 0.45071 0.07510
 N109 N -0.05452 0.41505 0.10250
 N110 N -0.07928 0.55004 0.04522
 N111 N -0.10659 0.58619 0.05171
 Mn112 Mn -0.08089 0.50132 -0.00323
 C113 C -0.08897 0.60675 0.08854
 C114 C -0.09216 0.39375 0.08663
 N115 N 0.05035 0.54911 -0.08213
 N116 N 0.05705 0.58515 -0.10914
 N117 N 0.08040 0.44963 -0.05165
 N118 N 0.10841 0.41396 -0.05719
 N119 N 0.04892 0.45006 -0.08271
 N120 N 0.05475 0.41449 -0.11029
 N121 N 0.08174 0.54796 -0.05098
 N122 N 0.11056 0.58291 -0.05592
 Mn123 Mn 0.00031 0.50041 -0.08305
 C124 C 0.09483 0.60582 -0.09227
 C125 C 0.09207 0.39234 -0.09384
 N126 N 0.04831 0.44879 0.07492
 N127 N 0.05272 0.41249 0.10181
 N128 N 0.08152 0.54702 0.04505
 N129 N 0.11025 0.58178 0.05157
 N130 N 0.04979 0.54701 0.07583
 N131 N 0.05586 0.58174 0.10406
 N132 N 0.08010 0.44853 0.04421
 N133 N 0.10721 0.41202 0.04942
 Mn134 Mn 0.00042 0.49879 0.07583
 Mn135 Mn 0.08146 0.49830 -0.00338
 Cl136 Cl 0.00031 0.49972 -0.00359
 C137 C 0.08963 0.38995 0.08548
 C138 C 0.09370 0.60308 0.08848
 N139 N 1.04958 -0.08588 0.45235
 N140 N 1.05517 -0.11385 0.41763
 N141 N 1.08137 -0.05285 0.54643
 N142 N 1.10918 -0.05744 0.58072
 N143 N 1.05000 -0.08556 0.54700
 N144 N 1.05578 -0.11332 0.58195
 N145 N 1.08107 -0.05331 0.45266
 N146 N 1.10885 -0.05823 0.41844
 C147 C 1.09246 -0.09610 0.39691
 C148 C 1.09294 -0.09537 0.60260
 N149 N 1.04923 0.08037 0.54535
 N150 N 1.05422 0.10931 0.57907
 N151 N 1.08056 0.04741 0.45191
 N152 N 1.10751 0.05258 0.41704
 N153 N 1.04908 0.08007 0.45225
 N154 N 1.05376 0.10849 0.41789
 N155 N 1.08080 0.04783 0.54582
 N156 N 1.10819 0.05361 0.58019
 Mn157 Mn 1.08149 -0.00276 0.49921
 C158 C 1.09105 0.09220 0.60043
 C159 C 1.09029 0.09094 0.39632
 N160 N 0.95109 -0.08513 0.54713
 N161 N 0.94538 -0.11324 0.58178
 N162 N 0.91944 -0.05241 0.45322
 N163 N 0.89145 -0.05688 0.41919
 N164 N 0.95080 -0.08529 0.45264
 N165 N 0.94489 -0.11303 0.41783
 N166 N 0.91975 -0.05223 0.54691
 N167 N 0.89202 -0.05703 0.58126
 Mn168 Mn 1.00036 -0.08626 0.49977
 C169 C 0.90834 -0.09530 0.60269
 C170 C 0.90755 -0.09478 0.39743
 N171 N 0.95186 0.08062 0.45263
 N172 N 0.94673 0.10980 0.41893
 N173 N 0.92036 0.04854 0.54636
 N174 N 0.89271 0.05475 0.58051
 N175 N 0.95203 0.08081 0.54587
 N176 N 0.94687 0.10995 0.57950
 N177 N 0.92014 0.04839 0.45240
 N178 N 0.89247 0.05470 0.41820
 Mn179 Mn 1.00056 0.08088 0.49903
 Mn180 Mn 0.91938 -0.00197 0.49973
 Cl181 Cl 1.00044 -0.00272 0.49944
 C182 C 0.90966 0.09323 0.39777
 C183 C 0.90978 0.09325 0.60076
 C184 C 1.14157 0.14482 0.26600
 C185 C 1.16018 0.10965 0.28975
 C186 C 1.14110 0.09068 0.33159
 C187 C 1.10786 0.11123 0.35491
 H188 H 1.19110 0.09289 0.27819
 H189 H 1.15624 0.05860 0.34405
 H190 H 1.11000 0.16088 0.27642
 H191 H 1.09259 0.14374 0.34409
 C192 C 0.84678 -0.14906 0.26983
 C193 C 0.88312 -0.16722 0.29128
 C194 C 0.90328 -0.14845 0.33301
 C195 C 0.88640 -0.11237 0.35623
 H196 H 0.89991 -0.19789 0.27782
 H197 H 0.93366 -0.16586 0.34513
 H198 H 0.82989 -0.11824 0.28255
 H199 H 0.85608 -0.09430 0.34532
 C200 C 0.84979 0.15351 0.72531
 C201 C 0.83434 0.11600 0.70293
 C202 C 0.85527 0.09632 0.66233
 C203 C 0.89108 0.11470 0.64113
 H204 H 0.80433 0.09776 0.71465
 H205 H 0.83964 0.06492 0.64922
 H206 H 0.87990 0.17185 0.71437
 H207 H 0.90756 0.14604 0.65289
 C208 C 1.15692 -0.14938 0.72951
 C209 C 1.17061 -0.11179 0.70633
 C210 C 1.14890 -0.09496 0.66428
 C211 C 1.11257 -0.11450 0.64427
 H212 H 1.19932 -0.09185 0.71846
 H213 H 1.16413 -0.06424 0.64922
 H214 H 1.12840 -0.16977 0.71799
 H215 H 1.09613 -0.14498 0.65815
 C216 C 0.26202 1.14274 1.15989
 C217 C 0.28412 1.15915 1.12398
 C218 C 0.32840 1.14141 1.10818
 C219 C 0.35034 1.10440 1.12536
 H220 H 0.26986 1.18797 1.10497
 H221 H 0.34330 1.16014 1.08034
 H222 H 0.27609 1.11446 1.17952
 H223 H 0.33645 1.08407 1.15249
 C224 C 0.27116 0.85861 0.84999
 C225 C 0.29411 0.89607 0.83459
 C226 C 0.33466 0.91712 0.85704
 C227 C 0.35714 0.89780 0.89163
 H228 H 0.28270 0.91308 0.80425
 H229 H 0.34684 0.94999 0.84354
 H230 H 0.28179 0.84222 0.88076
 H231 H 0.34663 0.86455 0.90529
 C232 C 0.73521 0.85329 1.15398
 C233 C 0.71503 0.83593 1.11715
 C234 C 0.67331 0.85546 1.09625
 C235 C 0.64622 0.88678 1.11605
 H236 H 0.72970 0.80582 1.10054
 H237 H 0.66428 0.84250 1.06353
 H238 H 0.72186 0.88422 1.17004
 H239 H 0.65383 0.89953 1.14905
 C240 C 0.72981 1.14239 0.83068
 C241 C 0.70590 1.15474 0.86661
 C242 C 0.66533 1.12779 0.87981
 C243 C 0.64226 1.13931 0.91635
 H244 H 0.71622 1.18451 0.88654
 H245 H 0.65447 1.09830 0.85979
 H246 H 0.71867 1.11233 0.81154
 H247 H 0.65351 1.16867 0.93632
 C248 C 0.14172 0.25654 0.14392
 C249 C 0.10690 0.28167 0.15999
 C250 C 0.08861 0.32433 0.13837
 C251 C 0.10870 0.34678 0.10434
 H252 H 0.09084 0.27105 0.19090
 H253 H 0.05759 0.33855 0.15248
 H254 H 0.15782 0.26582 0.11278
 H255 H 0.14010 0.33439 0.08986
 C256 C -0.15792 0.26712 -0.15501
 C257 C -0.12042 0.28954 -0.16934
 C258 C -0.09999 0.33160 -0.14845
 C259 C -0.11640 0.35361 -0.11245
 H260 H -0.10290 0.27661 -0.19862
 H261 H -0.06950 0.34505 -0.16420
 H262 H -0.17615 0.27901 -0.12588
 H263 H -0.14670 0.34127 -0.09583
 C264 C 0.15786 0.73686 -0.14840
 C265 C 0.12209 0.71379 -0.16554
 C266 C 0.10083 0.67140 -0.14576
 C267 C 0.11697 0.64807 -0.11030
 H268 H 0.10671 0.72654 -0.19605
 H269 H 0.07045 0.65861 -0.16208
 H270 H 0.17355 0.72548 -0.11767
 H271 H 0.14748 0.65942 -0.09352
 C272 C -0.14878 0.73217 0.15478
 C273 C -0.16400 0.71298 0.11680
 C274 C -0.14447 0.67070 0.09574
 C275 C -0.10686 0.64892 0.11002
 H276 H -0.19291 0.72852 0.09991
 H277 H -0.16216 0.65726 0.06682
 H278 H -0.12045 0.71729 0.17281
 H279 H -0.08788 0.66156 0.13829
 C280 C 1.14654 0.15044 0.72693
 C281 C 1.16295 0.11308 0.70481
 C282 C 1.14308 0.09345 0.66385
 C283 C 1.10912 0.11328 0.64102
 H284 H 1.19291 0.09497 0.71702
 H285 H 1.15805 0.06117 0.65176
 H286 H 1.11621 0.16835 0.71576
 H287 H 1.09356 0.14565 0.65164
 C288 C 0.84594 -0.15059 0.72957
 C289 C 0.83121 -0.11329 0.70628
 C290 C 0.85276 -0.09560 0.66458
 C291 C 0.88890 -0.11501 0.64407
 H292 H 0.80172 -0.09407 0.71797
 H293 H 0.83744 -0.06457 0.65010
 H294 H 0.87542 -0.16982 0.71825
 H295 H 0.90525 -0.14597 0.65719
 C296 C 1.15305 -0.15214 0.26975
 C297 C 1.11623 -0.16951 0.29083
 C298 C 1.09648 -0.15057 0.33285
 C299 C 1.11323 -0.11409 0.35557
 H300 H 1.09885 -0.19949 0.27688
 H301 H 1.06637 -0.16797 0.34544
 H302 H 1.17069 -0.12221 0.28317
 H303 H 1.14314 -0.09584 0.34410
 C304 C 0.85405 0.15416 0.27158
 C305 C 0.83643 0.11771 0.29431
 C306 C 0.85649 0.09676 0.33489
 C307 C 0.89131 0.11516 0.35740
 H308 H 0.80537 0.10135 0.28282
 H309 H 0.84084 0.06490 0.34708
 H310 H 0.88556 0.17015 0.28195
 H311 H 0.90733 0.14726 0.34673
 C312 C 0.15384 0.26315 -0.15546
 C313 C 0.11630 0.28594 -0.16963
 C314 C 0.09648 0.32844 -0.14876
 C315 C 0.11316 0.34993 -0.11268
 H316 H 0.09835 0.27332 -0.19874
 H317 H 0.06630 0.34266 -0.16456
 H318 H 0.17214 0.27524 -0.12649
 H319 H 0.14307 0.33679 -0.09591
 C320 C -0.15095 0.26714 0.15296
 C321 C -0.11252 0.28889 0.16503
 C322 C -0.09383 0.33065 0.14219
 C323 C -0.11241 0.35163 0.10641
 H324 H -0.09351 0.27626 0.19359
 H325 H -0.06296 0.34493 0.15636
 H326 H -0.17019 0.27940 0.12458
 H327 H -0.14295 0.33863 0.09090
 C328 C -0.15426 0.73701 -0.15459
 C329 C -0.16889 0.71562 -0.11730
 C330 C -0.14750 0.67297 -0.09763
 C331 C -0.11029 0.65136 -0.11376
 H332 H -0.19837 0.72939 -0.09999
 H333 H -0.16377 0.65878 -0.06815
 H334 H -0.12504 0.72345 -0.17219
 H335 H -0.09281 0.66438 -0.14286
 C336 C 0.14921 0.73333 0.14895
 C337 C 0.11542 0.70769 0.16619
 C338 C 0.09597 0.66598 0.14413
 C339 C 0.11460 0.64443 0.10880
 H340 H 0.10061 0.71769 0.19785
 H341 H 0.06506 0.65202 0.15862
 H342 H 0.16379 0.72475 0.11695
 H343 H 0.14602 0.65641 0.09410
 C344 C 0.26805 1.13971 0.83298
 C345 C 0.29154 1.15246 0.86879
 C346 C 0.33244 1.12603 0.88188
 C347 C 0.35545 1.13794 0.91821
 H348 H 0.28058 1.18219 0.88851
 H349 H 0.34366 1.09659 0.86189
 H350 H 0.27946 1.10977 0.81374
 H351 H 0.34393 1.16725 0.93820
 C352 C 0.26726 0.85286 1.15357
 C353 C 0.28786 0.83518 1.11714
 C354 C 0.32982 0.85433 1.09657
 C355 C 0.35666 0.88563 1.11648
 H356 H 0.27316 0.80512 1.10066
 H357 H 0.33916 0.84124 1.06395
 H358 H 0.28026 0.88365 1.16997
 H359 H 0.34869 0.89850 1.14939
 C360 C 0.72995 1.15256 1.16662
 C361 C 0.70866 1.16829 1.13008
 C362 C 0.66584 1.14885 1.11275
 C363 C 0.64639 1.10948 1.12770
 H364 H 0.72278 1.19750 1.11163
 H365 H 0.65024 1.16792 1.08546
 H366 H 0.71622 1.12420 1.18628
 H367 H 0.66131 1.08876 1.15406
 C368 C 0.72826 0.85935 0.84431
 C369 C 0.70764 0.84371 0.88152
 C370 C 0.66634 0.86454 0.90245
 C371 C 0.64519 0.90392 0.88912
 H372 H 0.72127 0.81299 0.89806
 H373 H 0.65296 0.84588 0.93106
 H374 H 0.71514 0.88961 0.82681
 H375 H 0.65781 0.92383 0.86107
   
