data_POSCAR
  _audit_creation_date              2014-09-24
  _audit_creation_method            'ToBaCCo'
  _symmetry_space_group_name_H-M    'P1'
  _symmetry_Int_Tables_number       1
  _symmetry_cell_setting            triclinic
  loop_
  _symmetry_equiv_pos_as_xyz
 x,y,z
_cell_length_a 54.7099
_cell_length_b 54.4674
_cell_length_c 54.5872
_cell_angle_alpha 89.928500
_cell_angle_beta 89.991700
_cell_angle_gamma 90.082200
loop_
  _atom_site_label
  _atom_site_type_symbol
  _atom_site_fract_x
  _atom_site_fract_y
  _atom_site_fract_z
N1 N 0.59684 0.66504 0.61657
 N2 N 0.58517 0.65282 0.63379
 C3 C 0.56460 0.66505 0.63969
 C4 C 0.56363 0.68619 0.62570
 C5 C 0.58438 0.68568 0.61130
 H6 H 0.55157 0.65941 0.65349
 H7 H 0.58973 0.69909 0.59768
 Cu8 Cu 0.59931 0.62313 0.64772
 Cu9 Cu 0.62642 0.65247 0.60103
 Cu10 Cu 0.65094 0.59896 0.62542
 N11 N 0.61350 0.59369 0.66213
 N12 N 0.63452 0.58522 0.65406
 C13 C 0.64151 0.56617 0.66811
 C14 C 0.62373 0.56222 0.68568
 C15 C 0.60612 0.57992 0.68130
 H16 H 0.65817 0.55580 0.66558
 H17 H 0.58962 0.58295 0.69176
 N18 N 0.66474 0.61567 0.59646
 N19 N 0.65600 0.63654 0.58779
 C20 C 0.66962 0.64355 0.56842
 C21 C 0.68747 0.62610 0.56457
 C22 C 0.68386 0.60866 0.58257
 H23 H 0.66648 0.65981 0.55748
 H24 H 0.69452 0.59219 0.58536
 H25 H 0.62091 0.61577 0.60950
 H26 H 0.63930 0.63436 0.63154
 N27 N 0.90520 0.33593 0.11457
 N28 N 0.91425 0.34538 0.13478
 C29 C 0.93357 0.33186 0.14202
 C30 C 0.93700 0.31326 0.12513
 C31 C 0.91874 0.31644 0.10790
 H32 H 0.94453 0.33541 0.15811
 H33 H 0.91528 0.30511 0.09202
 Cu34 Cu 0.90002 0.37476 0.14911
 Cu35 Cu 0.87575 0.34874 0.09902
 Cu36 Cu 0.84971 0.40056 0.12527
 N37 N 0.88578 0.40413 0.16345
 N38 N 0.86550 0.41351 0.15456
 C39 C 0.85878 0.43283 0.16836
 C40 C 0.87599 0.43591 0.18660
 C41 C 0.89293 0.41749 0.18296
 H42 H 0.84277 0.44401 0.16519
 H43 H 0.90896 0.41390 0.19396
 N44 N 0.83656 0.38470 0.09559
 N45 N 0.84597 0.36451 0.08610
 C46 C 0.83240 0.35768 0.06666
 C47 C 0.81390 0.37460 0.06357
 C48 C 0.81709 0.39152 0.08210
 H49 H 0.83587 0.34182 0.05530
 H50 H 0.80581 0.40741 0.08561
 H51 H 0.88045 0.38461 0.11022
 H52 H 0.86100 0.36464 0.13003
 N53 N 0.40421 0.16398 -0.11468
 N54 N 0.41334 0.15452 -0.13486
 C55 C 0.43281 0.16796 -0.14191
 C56 C 0.43619 0.18653 -0.12503
 C57 C 0.41783 0.18345 -0.10795
 H58 H 0.44393 0.16440 -0.15789
 H59 H 0.41441 0.19476 -0.09206
 Cu60 Cu 0.39925 0.12512 -0.14936
 Cu61 Cu 0.37487 0.15102 -0.09912
 Cu62 Cu 0.34895 0.09908 -0.12515
 N63 N 0.38482 0.09571 -0.16352
 N64 N 0.36463 0.08618 -0.15446
 C65 C 0.35798 0.06674 -0.16814
 C66 C 0.37510 0.06374 -0.18647
 C67 C 0.39194 0.08233 -0.18299
 H68 H 0.34209 0.05539 -0.16481
 H69 H 0.40793 0.08597 -0.19408
 N70 N 0.33582 0.11490 -0.09548
 N71 N 0.34518 0.13517 -0.08609
 C72 C 0.33160 0.14202 -0.06668
 C73 C 0.31314 0.12503 -0.06352
 C74 C 0.31635 0.10804 -0.08197
 H75 H 0.33503 0.15796 -0.05541
 H76 H 0.30508 0.09210 -0.08543
 H77 H 0.37979 0.11515 -0.11034
 H78 H 0.36019 0.13498 -0.13012
 N79 N 0.09642 0.83432 0.38345
 N80 N 0.08418 0.84712 0.36709
 C81 C 0.06345 0.83501 0.36136
 C82 C 0.06299 0.81327 0.37451
 C83 C 0.08425 0.81337 0.38824
 H84 H 0.05003 0.84117 0.34819
 H85 H 0.09006 0.79956 0.40123
 Cu86 Cu 0.09819 0.87716 0.35380
 Cu87 Cu 0.12624 0.84672 0.39892
 Cu88 Cu 0.15025 0.90095 0.37520
 N89 N 0.11243 0.90630 0.33885
 N90 N 0.13348 0.91483 0.34684
 C91 C 0.14051 0.93379 0.33266
 C92 C 0.12279 0.93750 0.31504
 C93 C 0.10518 0.91981 0.31947
 H94 H 0.15720 0.94417 0.33502
 H95 H 0.08873 0.91669 0.30894
 N96 N 0.16435 0.88389 0.40378
 N97 N 0.15589 0.86273 0.41212
 C98 C 0.16962 0.85565 0.43137
 C99 C 0.18725 0.87333 0.43546
 C100 C 0.18339 0.89099 0.41774
 H101 H 0.16663 0.83924 0.44212
 H102 H 0.19377 0.90771 0.41524
 H103 H 0.12073 0.88357 0.39160
 H104 H 0.13852 0.86564 0.36864
 N105 N 0.09478 0.16421 0.11455
 N106 N 0.08574 0.15473 0.13480
 C107 C 0.06641 0.16822 0.14201
 C108 C 0.06298 0.18679 0.12511
 C109 C 0.08119 0.18368 0.10789
 H110 H 0.05541 0.16468 0.15809
 H111 H 0.08458 0.19506 0.09199
 Cu112 Cu 0.09996 0.12533 0.14915
 Cu113 Cu 0.12418 0.15138 0.09899
 Cu114 Cu 0.15019 0.09951 0.12527
 N115 N 0.11418 0.09595 0.16352
 N116 N 0.13445 0.08656 0.15460
 C117 C 0.14115 0.06721 0.16839
 C118 C 0.12396 0.06411 0.18666
 C119 C 0.10704 0.08257 0.18303
 H120 H 0.15713 0.05600 0.16519
 H121 H 0.09101 0.08613 0.19404
 N122 N 0.16331 0.11538 0.09556
 N123 N 0.15393 0.13559 0.08606
 C124 C 0.16750 0.14242 0.06659
 C125 C 0.18596 0.12547 0.06353
 C126 C 0.18277 0.10854 0.08207
 H127 H 0.16405 0.15830 0.05521
 H128 H 0.19403 0.09264 0.08561
 H129 H 0.11946 0.11550 0.11025
 H130 H 0.13896 0.13543 0.13001
 N131 N 0.40322 0.83456 0.61642
 N132 N 0.41483 0.84669 0.63370
 C133 C 0.43543 0.83448 0.63959
 C134 C 0.43646 0.81343 0.62552
 C135 C 0.41574 0.81399 0.61108
 H136 H 0.44845 0.84010 0.65340
 H137 H 0.41051 0.80072 0.59732
 Cu138 Cu 0.40068 0.87630 0.64767
 Cu139 Cu 0.37369 0.84723 0.60081
 Cu140 Cu 0.34940 0.90093 0.62490
 N141 N 0.38650 0.90574 0.66197
 N142 N 0.36579 0.91460 0.65352
 C143 C 0.35894 0.93382 0.66736
 C144 C 0.37643 0.93735 0.68524
 C145 C 0.39373 0.91932 0.68130
 H146 H 0.34257 0.94456 0.66454
 H147 H 0.40998 0.91604 0.69210
 N148 N 0.33556 0.88421 0.59603
 N149 N 0.34417 0.86325 0.58750
 C150 C 0.33048 0.85621 0.56822
 C151 C 0.31271 0.87373 0.56428
 C152 C 0.31644 0.89124 0.58214
 H153 H 0.33350 0.83987 0.55741
 H154 H 0.30586 0.90777 0.58486
 H155 H 0.37946 0.88388 0.60923
 H156 H 0.36075 0.86545 0.63116
 N157 N 0.90354 0.66545 0.38349
 N158 N 0.91517 0.65329 0.36626
 C159 C 0.93576 0.66556 0.36032
 C160 C 0.93676 0.68667 0.37429
 C161 C 0.91602 0.68611 0.38871
 H162 H 0.94876 0.65996 0.34650
 H163 H 0.91073 0.69947 0.40235
 Cu164 Cu 0.90101 0.62363 0.35234
 Cu165 Cu 0.87397 0.65278 0.39908
 Cu166 Cu 0.84968 0.59896 0.37508
 N167 N 0.88682 0.59416 0.33804
 N168 N 0.86611 0.58525 0.34651
 C169 C 0.85927 0.56599 0.33268
 C170 C 0.87677 0.56247 0.31481
 C171 C 0.89405 0.58058 0.31873
 H172 H 0.84285 0.55526 0.33546
 H173 H 0.91029 0.58392 0.30791
 N174 N 0.83581 0.61571 0.40391
 N175 N 0.84442 0.63671 0.41241
 C176 C 0.83070 0.64376 0.43166
 C177 C 0.81290 0.62620 0.43561
 C178 C 0.81667 0.60866 0.41779
 H179 H 0.83372 0.66013 0.44243
 H180 H 0.80609 0.59210 0.41510
 H181 H 0.87963 0.61617 0.39070
 H182 H 0.86099 0.63450 0.36868
 N183 N 0.59601 0.33593 -0.11512
 N184 N 0.58719 0.34519 -0.13555
 C185 C 0.56773 0.33176 -0.14264
 C186 C 0.56405 0.31341 -0.12553
 C187 C 0.58223 0.31662 -0.10828
 H188 H 0.55676 0.33526 -0.15874
 H189 H 0.58533 0.30553 -0.09214
 Cu190 Cu 0.60148 0.37461 -0.14989
 Cu191 Cu 0.62521 0.34903 -0.09933
 Cu192 Cu 0.65120 0.40108 -0.12547
 N193 N 0.61567 0.40409 -0.16422
 N194 N 0.63565 0.41385 -0.15500
 C195 C 0.64214 0.43345 -0.16859
 C196 C 0.62509 0.43633 -0.18702
 C197 C 0.60848 0.41749 -0.18369
 H198 H 0.65781 0.44504 -0.16506
 H199 H 0.59257 0.41373 -0.19483
 N200 N 0.66417 0.38532 -0.09561
 N201 N 0.65479 0.36504 -0.08619
 C202 C 0.66832 0.35819 -0.06673
 C203 C 0.68678 0.37518 -0.06357
 C204 C 0.68360 0.39218 -0.08207
 H205 H 0.66491 0.34222 -0.05546
 H206 H 0.69491 0.40809 -0.08557
 H207 H 0.62029 0.38490 -0.11073
 H208 H 0.64026 0.36511 -0.13010
 C209 C -0.01002 0.25991 0.12555
 N210 N -0.02489 0.26277 0.10587
 N211 N -0.04221 0.27994 0.10585
 C212 C -0.04503 0.29515 0.12534
 N213 N -0.03000 0.29239 0.14496
 N214 N -0.01294 0.27495 0.14514
 C215 C 0.00897 0.24094 0.12552
 N216 N 0.01674 0.23071 0.14683
 N217 N 0.03382 0.21328 0.14670
 C218 C 0.04400 0.20578 0.12530
 N219 N 0.03636 0.21615 0.10403
 N220 N 0.01900 0.23328 0.10412
 C221 C 0.50956 0.74034 0.62628
 N222 N 0.50395 0.71670 0.63192
 N223 N 0.52124 0.69948 0.63201
 C224 C 0.54465 0.70521 0.62603
 N225 N 0.55022 0.72880 0.62021
 N226 N 0.53302 0.74610 0.62054
 C227 C 0.49056 0.75931 0.62624
 N228 N 0.49614 0.78294 0.63186
 N229 N 0.47886 0.80016 0.63186
 C230 C 0.45547 0.79444 0.62582
 N231 N 0.44993 0.77086 0.62001
 N232 N 0.46712 0.75356 0.62042
 C233 C 1.00988 0.75988 0.37364
 N234 N 1.00584 0.78200 0.36293
 N235 N 1.02317 0.79923 0.36294
 C236 C 1.04497 0.79515 0.37414
 N237 N 1.04887 0.77307 0.38505
 N238 N 1.03174 0.75566 0.38459
 C239 C 0.99087 0.74090 0.37359
 N240 N 0.99664 0.71712 0.36899
 N241 N 0.97934 0.69986 0.36891
 C242 C 0.95576 0.70572 0.37392
 N243 N 0.95003 0.72947 0.37873
 N244 N 0.96725 0.74680 0.37833
 C245 C 0.49046 0.24061 -0.12535
 N246 N 0.48437 0.22870 -0.14632
 N247 N 0.46718 0.21134 -0.14619
 C248 C 0.45525 0.20552 -0.12516
 N249 N 0.46122 0.21756 -0.10423
 N250 N 0.47864 0.23468 -0.10430
 C251 C 0.50955 0.25955 -0.12543
 N252 N 0.52116 0.26580 -0.10437
 N253 N 0.53862 0.28288 -0.10444
 C254 C 0.54486 0.29455 -0.12552
 N255 N 0.53313 0.28843 -0.14657
 N256 N 0.51589 0.27112 -0.14655
 C257 C 0.12321 -0.00894 0.26014
 N258 N 0.10202 -0.02009 0.26681
 N259 N 0.10189 -0.03734 0.28414
 C260 C 0.12292 -0.04383 0.29562
 N261 N 0.14410 -0.03261 0.28903
 N262 N 0.14427 -0.01558 0.27149
 C263 C 0.12339 0.01004 0.24105
 N264 N 0.14443 0.01591 0.22922
 N265 N 0.14458 0.03306 0.21180
 C266 C 0.12375 0.04518 0.20581
 N267 N 0.10274 0.03944 0.21776
 N268 N 0.10253 0.02207 0.23496
 C269 C 0.62399 0.50950 -0.26042
 N270 N 0.64411 0.51343 -0.27442
 N271 N 0.64394 0.53040 -0.29202
 C272 C 0.62377 0.54437 -0.29600
 N273 N 0.60372 0.54058 -0.28179
 N274 N 0.60375 0.52332 -0.26446
 C275 C 0.62418 0.49060 -0.24124
 N276 N 0.60318 0.47921 -0.23435
 N277 N 0.60348 0.46178 -0.21720
 C278 C 0.62474 0.45539 -0.20606
 N279 N 0.64569 0.46693 -0.21281
 N280 N 0.64545 0.48408 -0.23023
 C281 C 0.37581 1.00974 0.75920
 N282 N 0.39665 1.02180 0.76534
 N283 N 0.39640 1.03913 0.78255
 C284 C 0.37536 1.04479 0.79444
 N285 N 0.35455 1.03262 0.78841
 N286 N 0.35474 1.01552 0.77098
 C287 C 0.37601 0.99085 0.74006
 N288 N 0.35502 0.98444 0.72845
 N289 N 0.35521 0.96748 0.71089
 C290 C 0.37633 0.95609 0.70454
 N291 N 0.39729 0.96237 0.71627
 N292 N 0.39717 0.97957 0.73362
 C293 C 0.87645 0.48979 0.24109
 N294 N 0.85539 0.48380 0.22936
 N295 N 0.85529 0.46672 0.21191
 C296 C 0.87616 0.45478 0.20579
 N297 N 0.89720 0.46063 0.21763
 N298 N 0.89737 0.47794 0.23486
 C299 C 0.87657 0.50872 0.26020
 N300 N 0.89767 0.52020 0.26659
 N301 N 0.89772 0.53748 0.28385
 C302 C 0.87672 0.54367 0.29555
 N303 N 0.85565 0.53210 0.28925
 N304 N 0.85555 0.51505 0.27177
 C305 C 0.25898 0.12517 -0.00954
 N306 N 0.26504 0.10405 -0.02124
 N307 N 0.28218 0.10404 -0.03857
 C308 C 0.29411 0.12507 -0.04458
 N309 N 0.28817 0.14615 -0.03278
 N310 N 0.27079 0.14623 -0.01567
 C311 C 0.24000 0.12524 0.00943
 N312 N 0.22829 0.14635 0.01540
 N313 N 0.21094 0.14640 0.03254
 C314 C 0.20494 0.12539 0.04453
 N315 N 0.21677 0.10431 0.03868
 N316 N 0.23389 0.10420 0.02131
 C317 C 0.74068 0.62585 0.50958
 N318 N 0.73451 0.60474 0.52132
 N319 N 0.71764 0.60483 0.53893
 C320 C 0.70613 0.62597 0.54522
 N321 N 0.71216 0.64703 0.53335
 N322 N 0.72924 0.64700 0.51595
 C323 C 0.75947 0.62588 0.49039
 N324 N 0.77089 0.64706 0.48394
 N325 N 0.78803 0.64713 0.46660
 C326 C 0.79415 0.62606 0.45486
 N327 N 0.78264 0.60489 0.46122
 N328 N 0.76571 0.60477 0.47877
 C329 C 0.75994 0.37484 0.00938
 N330 N 0.76602 0.39586 0.02126
 N331 N 0.78310 0.39575 0.03865
 C332 C 0.79494 0.37467 0.04456
 N333 N 0.78898 0.35368 0.03257
 N334 N 0.77167 0.35373 0.01541
 C335 C 0.74097 0.37492 -0.00961
 N336 N 0.72916 0.35387 -0.01573
 N337 N 0.71177 0.35399 -0.03282
 C338 C 0.70582 0.37510 -0.04464
 N339 N 0.71776 0.39611 -0.03864
 N340 N 0.73491 0.39606 -0.02132
 C341 C 0.24044 0.87382 0.49042
 N342 N 0.23414 0.89492 0.47877
 N343 N 0.21726 0.89475 0.46117
 C344 C 0.20588 0.87353 0.45481
 N345 N 0.21203 0.85248 0.46660
 N346 N 0.22912 0.85259 0.48398
 C347 C 0.25927 0.87388 0.50956
 N348 N 0.27074 0.85274 0.51595
 N349 N 0.28790 0.85275 0.53327
 C350 C 0.29397 0.87383 0.54503
 N351 N 0.28243 0.89495 0.53871
 N352 N 0.26548 0.89501 0.52118
   
