data_POSCAR
  _audit_creation_date              2014-09-24
  _audit_creation_method            'ToBaCCo'
  _symmetry_space_group_name_H-M    'P1'
  _symmetry_Int_Tables_number       1
  _symmetry_cell_setting            triclinic
  loop_
  _symmetry_equiv_pos_as_xyz
 x,y,z
_cell_length_a 51.7081
_cell_length_b 51.5682
_cell_length_c 51.0244
_cell_angle_alpha 89.969700
_cell_angle_beta 89.960600
_cell_angle_gamma 90.872600
loop_
  _atom_site_label
  _atom_site_type_symbol
  _atom_site_fract_x
  _atom_site_fract_y
  _atom_site_fract_z
O1 O 0.03175 0.27121 -0.02325
 O2 O -0.01763 0.26986 0.02876
 O3 O 0.03286 0.27088 0.02774
 O4 O -0.01848 0.27022 -0.02217
 O5 O -0.01828 0.22746 -0.02251
 O6 O 0.03306 0.22812 0.02747
 O7 O -0.01734 0.22714 0.02857
 O8 O 0.03189 0.22844 -0.02363
 Cu9 Cu 0.00712 0.27482 0.00286
 Cu10 Cu 0.00736 0.22350 0.00250
 C11 C 0.04016 0.25006 -0.03247
 C12 C -0.02607 0.24827 0.03757
 C13 C 0.04181 0.24962 0.03611
 C14 C -0.02709 0.24874 -0.03098
 O15 O 0.46937 0.77069 0.52578
 O16 O 0.51941 0.76922 0.47448
 O17 O 0.46910 0.77067 0.47473
 O18 O 0.51972 0.76933 0.52543
 O19 O 0.51781 0.72658 0.52561
 O20 O 0.46731 0.72791 0.47474
 O21 O 0.51755 0.72646 0.47454
 O22 O 0.46752 0.72793 0.52590
 Cu23 Cu 0.49456 0.77426 0.50011
 Cu24 Cu 0.49234 0.72294 0.50022
 C25 C 0.45990 0.74957 0.53467
 C26 C 0.52704 0.74759 0.46570
 C27 C 0.45961 0.74953 0.46596
 C28 C 0.52745 0.74773 0.53420
 O29 O 1.02094 0.72865 0.02435
 O30 O 0.96902 0.72632 -0.02491
 O31 O 1.01911 0.72897 -0.02657
 O32 O 0.97053 0.72647 0.02616
 O33 O 0.96971 0.76921 0.02681
 O34 O 1.01725 0.77162 -0.02693
 O35 O 0.96684 0.76902 -0.02399
 O36 O 1.01994 0.77134 0.02422
 Cu37 Cu 0.99504 0.72333 -0.00021
 Cu38 Cu 0.99335 0.77458 0.00002
 C39 C 1.02948 0.75036 0.03272
 C40 C 0.95896 0.74724 -0.03278
 C41 C 1.02642 0.75071 -0.03598
 C42 C 0.96183 0.74742 0.03556
 O43 O 0.53140 0.22651 0.52763
 O44 O 0.48073 0.22827 0.47699
 O45 O 0.53103 0.22579 0.47651
 O46 O 0.48114 0.22885 0.52780
 O47 O 0.48310 0.27159 0.52662
 O48 O 0.53486 0.26847 0.47708
 O49 O 0.48450 0.27093 0.47538
 O50 O 0.53321 0.26927 0.52786
 Cu51 Cu 0.50583 0.22306 0.50227
 Cu52 Cu 0.50913 0.27436 0.50163
 C53 C 0.54081 0.24762 0.53659
 C54 C 0.47408 0.24990 0.46741
 C55 C 0.54170 0.24659 0.46826
 C56 C 0.47345 0.25071 0.53590
 O57 O 0.72722 0.01992 -0.02449
 O58 O 0.72510 -0.03020 0.02686
 O59 O 0.72724 0.02029 0.02650
 O60 O 0.72554 -0.03036 -0.02432
 O61 O 0.76819 -0.02991 -0.02548
 O62 O 0.76974 0.01749 0.02834
 O63 O 0.76756 -0.03294 0.02527
 O64 O 0.76988 0.02055 -0.02264
 Cu65 Cu 0.72199 -0.00501 0.00116
 Cu66 Cu 0.77313 -0.00628 0.00141
 C67 C 0.74891 0.02904 -0.03210
 C68 C 0.74592 -0.04053 0.03460
 C69 C 0.74879 0.02729 0.03635
 C70 C 0.74660 -0.03851 -0.03390
 O71 O 0.22201 0.52833 0.47067
 O72 O 0.22430 0.47889 0.52266
 O73 O 0.22161 0.52906 0.52190
 O74 O 0.22497 0.47795 0.47156
 O75 O 0.26752 0.48172 0.47126
 O76 O 0.26425 0.53187 0.52241
 O77 O 0.26697 0.48117 0.52224
 O78 O 0.26458 0.53213 0.47177
 Cu79 Cu 0.21895 0.50325 0.49664
 Cu80 Cu 0.27010 0.50698 0.49699
 C81 C 0.24289 0.53887 0.46255
 C82 C 0.24603 0.47145 0.53119
 C83 C 0.24239 0.53920 0.53074
 C84 C 0.24683 0.47116 0.46271
 O85 O 0.27563 0.97964 -0.03059
 O86 O 0.27995 1.02997 0.02051
 O87 O 0.27806 0.97910 0.02043
 O88 O 0.27740 1.02975 -0.03048
 O89 O 0.23492 1.03110 -0.02773
 O90 O 0.23549 0.98043 0.02304
 O91 O 0.23734 1.03039 0.02317
 O92 O 0.23311 0.98003 -0.02787
 Cu93 Cu 0.28203 1.00452 -0.00519
 Cu94 Cu 0.23094 1.00558 -0.00229
 C95 C 0.25364 0.97110 -0.03798
 C96 C 0.25938 1.03873 0.03062
 C97 C 0.25688 0.97118 0.03049
 C98 C 0.25604 1.03923 -0.03780
 O99 O 0.77062 0.52098 0.52635
 O100 O 0.77232 0.47131 0.47468
 O101 O 0.77016 0.52177 0.47561
 O102 O 0.77287 0.47039 0.52565
 O103 O 0.73021 0.46840 0.52663
 O104 O 0.72753 0.51868 0.47549
 O105 O 0.72972 0.46840 0.47545
 O106 O 0.72797 0.51852 0.52672
 Cu107 Cu 0.77578 0.49633 0.50054
 Cu108 Cu 0.72457 0.49324 0.50109
 C109 C 0.74900 0.52827 0.53532
 C110 C 0.75132 0.46135 0.46620
 C111 C 0.74838 0.52891 0.46691
 C112 C 0.75199 0.46078 0.53485
 C113 C 0.26340 0.23445 0.22804
 C114 C 0.24346 0.25291 0.22784
 C115 C 0.24291 0.27200 0.24743
 C116 C 0.26166 0.27296 0.26729
 C117 C 0.28147 0.25434 0.26748
 C118 C 0.28215 0.23538 0.24784
 H119 H 0.29735 0.22111 0.24805
 H120 H 0.22764 0.28618 0.24728
 C121 C 0.74207 0.76116 0.22803
 C122 C 0.76141 0.74192 0.22853
 C123 C 0.76037 0.72254 0.24783
 C124 C 0.74118 0.72238 0.26720
 C125 C 0.72219 0.74179 0.26713
 C126 C 0.72283 0.76085 0.24751
 H127 H 0.70781 0.77529 0.24712
 H128 H 0.77525 0.70794 0.24840
 C129 C 0.77757 0.24236 0.23333
 C130 C 0.75909 0.22192 0.23463
 C131 C 0.74077 0.22147 0.25487
 C132 C 0.73990 0.24137 0.27359
 C133 C 0.75794 0.26230 0.27184
 C134 C 0.77668 0.26234 0.25193
 H135 H 0.79069 0.27817 0.25084
 H136 H 0.72687 0.20553 0.25586
 C137 C 0.22774 0.75550 0.22636
 C138 C 0.24743 0.77480 0.22726
 C139 C 0.26584 0.77435 0.24738
 C140 C 0.26532 0.75488 0.26659
 C141 C 0.24529 0.73577 0.26610
 C142 C 0.22696 0.73623 0.24580
 H143 H 0.21144 0.72186 0.24551
 H144 H 0.28121 0.78890 0.24760
 C145 C 0.73726 0.24680 0.73353
 C146 C 0.75644 0.26661 0.73388
 C147 C 0.77538 0.26665 0.75347
 C148 C 0.77592 0.24712 0.77261
 C149 C 0.75652 0.22736 0.77253
 C150 C 0.73759 0.22740 0.75279
 H151 H 0.72247 0.21260 0.75284
 H152 H 0.79031 0.28166 0.75334
 C153 C 0.25989 0.75518 0.72805
 C154 C 0.23922 0.73687 0.72653
 C155 C 0.21934 0.73778 0.74522
 C156 C 0.21928 0.75654 0.76514
 C157 C 0.23984 0.77502 0.76654
 C158 C 0.25975 0.77407 0.74783
 H159 H 0.27582 0.78777 0.74914
 H160 H 0.20334 0.72399 0.74394
 C161 C 0.25360 0.27529 0.72847
 C162 C 0.27359 0.25682 0.72957
 C163 C 0.27315 0.23796 0.74941
 C164 C 0.25342 0.23698 0.76831
 C165 C 0.23337 0.25539 0.76714
 C166 C 0.23389 0.27436 0.74742
 H167 H 0.21830 0.28815 0.74636
 H168 H 0.28875 0.22418 0.75047
 C169 C 0.74136 0.72272 0.73363
 C170 C 0.72316 0.74283 0.73218
 C171 C 0.72399 0.76270 0.75091
 C172 C 0.74248 0.76294 0.77105
 C173 C 0.76039 0.74244 0.77283
 C174 C 0.75949 0.72257 0.75402
 H175 H 0.77322 0.70692 0.75507
 H176 H 0.71015 0.77825 0.74974
 C177 C 0.26348 0.09717 0.09062
 C178 C 0.28372 0.09468 0.07244
 C179 C 0.28261 0.07542 0.05313
 C180 C 0.26096 0.05874 0.05128
 C181 C 0.24064 0.06140 0.06931
 C182 C 0.24201 0.08023 0.08895
 C183 C 0.26458 0.11736 0.11118
 N184 N 0.25126 0.11418 0.13393
 N185 N 0.25199 0.13242 0.15239
 C186 C 0.26587 0.15469 0.14877
 N187 N 0.27916 0.15792 0.12599
 N188 N 0.27863 0.13956 0.10761
 C189 C 0.26619 0.17509 0.16913
 C190 C 0.27083 0.20120 0.16240
 C191 C 0.27006 0.22055 0.18157
 C192 C 0.26511 0.21403 0.20781
 C193 C 0.26113 0.18796 0.21470
 C194 C 0.26137 0.16867 0.19548
 H195 H 0.30054 0.10741 0.07334
 H196 H 0.29850 0.07383 0.03941
 H197 H 0.22377 0.04872 0.06839
 H198 H 0.22607 0.08178 0.10261
 H199 H 0.27448 0.20671 0.14224
 H200 H 0.27319 0.24062 0.17598
 H201 H 0.25724 0.18264 0.23488
 H202 H 0.25787 0.14871 0.20125
 C203 C 0.74711 0.58651 0.59546
 C204 C 0.76858 0.58470 0.57870
 C205 C 0.76930 0.56560 0.55932
 C206 C 0.74834 0.54828 0.55598
 C207 C 0.72676 0.55023 0.57255
 C208 C 0.72627 0.56900 0.59229
 C209 C 0.74646 0.60659 0.61608
 N210 N 0.73151 0.60327 0.63776
 N211 N 0.73099 0.62136 0.65637
 C212 C 0.74522 0.64359 0.65393
 N213 N 0.76008 0.64695 0.63220
 N214 N 0.76078 0.62876 0.61371
 C215 C 0.74447 0.66378 0.67443
 C216 C 0.75051 0.68974 0.66827
 C217 C 0.74943 0.70891 0.68754
 C218 C 0.74270 0.70236 0.71335
 C219 C 0.73709 0.67644 0.71972
 C220 C 0.73767 0.65732 0.70034
 H221 H 0.78496 0.59787 0.58078
 H222 H 0.78613 0.56456 0.54674
 H223 H 0.71039 0.53705 0.57045
 H224 H 0.70943 0.57002 0.60486
 H225 H 0.75570 0.69529 0.64845
 H226 H 0.75388 0.72886 0.68238
 H227 H 0.73186 0.67113 0.73959
 H228 H 0.73306 0.63745 0.70566
 C229 C 0.74318 0.89967 0.09148
 C230 C 0.76637 0.90570 0.07839
 C231 C 0.76739 0.92570 0.05989
 C232 C 0.74501 0.93962 0.05349
 C233 C 0.72169 0.93316 0.06643
 C234 C 0.72091 0.91368 0.08549
 C235 C 0.74228 0.87891 0.11139
 N236 N 0.72656 0.88080 0.13262
 N237 N 0.72602 0.86224 0.15080
 C238 C 0.74091 0.84091 0.14825
 N239 N 0.75647 0.83893 0.12692
 N240 N 0.75726 0.85765 0.10892
 C241 C 0.74048 0.82045 0.16847
 C242 C 0.74394 0.79441 0.16150
 C243 C 0.74375 0.77506 0.18070
 C244 C 0.74113 0.78151 0.20734
 C245 C 0.73742 0.80758 0.21421
 C246 C 0.73684 0.82683 0.19494
 H247 H 0.78384 0.89524 0.08280
 H248 H 0.78571 0.92996 0.05038
 H249 H 0.70404 0.94340 0.06217
 H250 H 0.70277 0.90928 0.09527
 H251 H 0.74643 0.78897 0.14117
 H252 H 0.74580 0.75505 0.17473
 H253 H 0.73533 0.81312 0.23457
 H254 H 0.73420 0.84680 0.20079
 C255 C 0.24817 0.41231 0.59046
 C256 C 0.26890 0.41559 0.57290
 C257 C 0.26841 0.43511 0.55387
 C258 C 0.24689 0.45126 0.55166
 C259 C 0.22606 0.44781 0.56905
 C260 C 0.22683 0.42872 0.58848
 C261 C 0.24876 0.39189 0.61076
 N262 N 0.23559 0.39471 0.63359
 N263 N 0.23618 0.37637 0.65195
 C264 C 0.24973 0.35434 0.64810
 N265 N 0.26279 0.35144 0.62521
 N266 N 0.26242 0.36991 0.60695
 C267 C 0.25038 0.33403 0.66850
 C268 C 0.25411 0.30797 0.66168
 C269 C 0.25463 0.28878 0.68103
 C270 C 0.25233 0.29541 0.70763
 C271 C 0.24843 0.32146 0.71440
 C272 C 0.24726 0.34055 0.69502
 H273 H 0.28564 0.40328 0.57409
 H274 H 0.28466 0.43731 0.54062
 H275 H 0.20928 0.46007 0.56781
 H276 H 0.21054 0.42654 0.60170
 H277 H 0.25621 0.30237 0.64134
 H278 H 0.25689 0.26876 0.67521
 H279 H 0.24655 0.32708 0.73476
 H280 H 0.24442 0.36050 0.70083
 C281 C 0.91598 0.24672 0.09644
 C282 C 0.92661 0.22357 0.08711
 C283 C 0.94571 0.22405 0.06771
 C284 C 0.95484 0.24776 0.05722
 C285 C 0.94427 0.27095 0.06677
 C286 C 0.92504 0.27041 0.08603
 C287 C 0.89553 0.24617 0.11683
 N288 N 0.88258 0.26801 0.12320
 N289 N 0.86413 0.26747 0.14144
 C290 C 0.85790 0.24508 0.15416
 N291 N 0.87088 0.22325 0.14782
 N292 N 0.88926 0.22377 0.12952
 C293 C 0.83740 0.24446 0.17450
 C294 C 0.83363 0.22235 0.19026
 C295 C 0.81437 0.22175 0.20947
 C296 C 0.79820 0.24308 0.21307
 C297 C 0.80202 0.26526 0.19751
 C298 C 0.82143 0.26597 0.17843
 H299 H 0.92005 0.20497 0.09465
 H300 H 0.95329 0.20575 0.06097
 H301 H 0.95071 0.28962 0.05928
 H302 H 0.91734 0.28862 0.09283
 H303 H 0.84571 0.20553 0.18794
 H304 H 0.81218 0.20466 0.22164
 H305 H 0.78979 0.28195 0.19998
 H306 H 0.82379 0.28330 0.16663
 C307 C 0.40161 0.75146 0.59503
 C308 C 0.41180 0.72774 0.58663
 C309 C 0.43067 0.72711 0.56701
 C310 C 0.43987 0.75020 0.55542
 C311 C 0.42978 0.77392 0.56388
 C312 C 0.41084 0.77454 0.58341
 C313 C 0.38138 0.75215 0.61563
 N314 N 0.36975 0.77474 0.62195
 N315 N 0.35137 0.77535 0.64022
 C316 C 0.34385 0.75340 0.65302
 N317 N 0.35554 0.73081 0.64678
 N318 N 0.37389 0.73019 0.62846
 C319 C 0.32302 0.75404 0.67300
 C320 C 0.31669 0.73182 0.68783
 C321 C 0.29656 0.73229 0.70611
 C322 C 0.28213 0.75486 0.70967
 C323 C 0.28876 0.77721 0.69533
 C324 C 0.30898 0.77682 0.67718
 H325 H 0.40512 0.70958 0.59511
 H326 H 0.43808 0.70852 0.56097
 H327 H 0.43645 0.79205 0.55535
 H328 H 0.40347 0.79316 0.58941
 H329 H 0.32722 0.71401 0.68527
 H330 H 0.29202 0.71495 0.71729
 H331 H 0.27790 0.79484 0.69782
 H332 H 0.31333 0.79429 0.66615
 C333 C 0.08945 0.75246 0.08942
 C334 C 0.07842 0.77553 0.08036
 C335 C 0.05874 0.77489 0.06156
 C336 C 0.04945 0.75111 0.05143
 C337 C 0.06058 0.72803 0.06056
 C338 C 0.08034 0.72872 0.07923
 C339 C 0.11024 0.75309 0.10946
 N340 N 0.12288 0.73113 0.11608
 N341 N 0.14142 0.73162 0.13419
 C342 C 0.14809 0.75408 0.14653
 N343 N 0.13546 0.77604 0.13991
 N344 N 0.11696 0.77557 0.12174
 C345 C 0.16857 0.75454 0.16689
 C346 C 0.17319 0.77694 0.18200
 C347 C 0.19229 0.77724 0.20137
 C348 C 0.20742 0.75530 0.20581
 C349 C 0.20280 0.73288 0.19085
 C350 C 0.18358 0.73249 0.17159
 H351 H 0.08501 0.79417 0.08773
 H352 H 0.05077 0.79312 0.05509
 H353 H 0.05407 0.70929 0.05332
 H354 H 0.08835 0.71056 0.08579
 H355 H 0.16187 0.79419 0.17906
 H356 H 0.19511 0.79457 0.21307
 H357 H 0.21421 0.71572 0.19399
 H358 H 0.18058 0.71491 0.16033
 C359 C 0.59908 0.24630 0.59683
 C360 C 0.58816 0.26982 0.58884
 C361 C 0.56930 0.27020 0.56929
 C362 C 0.56078 0.24707 0.55733
 C363 C 0.57158 0.22352 0.56536
 C364 C 0.59059 0.22315 0.58484
 C365 C 0.61924 0.24602 0.61746
 N366 N 0.63212 0.22396 0.62317
 N367 N 0.65036 0.22385 0.64160
 C368 C 0.65644 0.24577 0.65514
 N369 N 0.64352 0.26780 0.64947
 N370 N 0.62534 0.26793 0.63101
 C371 C 0.67683 0.24579 0.67554
 C372 C 0.68097 0.26772 0.69146
 C373 C 0.70036 0.26791 0.71048
 C374 C 0.71626 0.24635 0.71376
 C375 C 0.71198 0.22429 0.69820
 C376 C 0.69246 0.22399 0.67925
 H377 H 0.59427 0.28802 0.59760
 H378 H 0.56134 0.28867 0.56358
 H379 H 0.56545 0.20537 0.55651
 H380 H 0.59855 0.20469 0.59055
 H381 H 0.66916 0.28475 0.68932
 H382 H 0.70293 0.28492 0.72270
 H383 H 0.72400 0.20741 0.70050
 H384 H 0.68979 0.20677 0.66736
 C385 C 0.75091 0.08894 0.90932
 C386 C 0.73004 0.07122 0.91056
 C387 C 0.72929 0.05195 0.92981
 C388 C 0.74967 0.04962 0.94779
 C389 C 0.77071 0.06712 0.94637
 C390 C 0.77117 0.08681 0.92750
 C391 C 0.75150 0.10950 0.88914
 N392 N 0.76439 0.13224 0.89344
 N393 N 0.76473 0.15083 0.87530
 C394 C 0.75242 0.14731 0.85203
 N395 N 0.73965 0.12452 0.84768
 N396 N 0.73908 0.10604 0.86593
 C397 C 0.75301 0.16782 0.83181
 C398 C 0.75076 0.16139 0.80515
 C399 C 0.75195 0.18073 0.78597
 C400 C 0.75502 0.20691 0.79308
 C401 C 0.75640 0.21338 0.81981
 C402 C 0.75585 0.19400 0.83895
 H403 H 0.71412 0.07249 0.89686
 H404 H 0.71290 0.03862 0.93042
 H405 H 0.78662 0.06579 0.96007
 H406 H 0.78754 0.10015 0.92690
 H407 H 0.74860 0.14135 0.79910
 H408 H 0.75080 0.17521 0.76552
 H409 H 0.75800 0.23346 0.82587
 H410 H 0.75727 0.19952 0.85939
 C411 C 0.24042 0.59855 0.40385
 C412 C 0.22059 0.57967 0.40537
 C413 C 0.22122 0.56040 0.42465
 C414 C 0.24199 0.55930 0.44231
 C415 C 0.26195 0.57800 0.44058
 C416 C 0.26102 0.59761 0.42173
 C417 C 0.23973 0.61911 0.38369
 N418 N 0.25185 0.64229 0.38781
 N419 N 0.25150 0.66077 0.36957
 C420 C 0.23922 0.65671 0.34638
 N421 N 0.22714 0.63350 0.34223
 N422 N 0.22727 0.61511 0.36058
 C423 C 0.23952 0.67699 0.32592
 C424 C 0.23751 0.67028 0.29932
 C425 C 0.23921 0.68939 0.27993
 C426 C 0.24259 0.71560 0.28680
 C427 C 0.24347 0.72239 0.31345
 C428 C 0.24239 0.70324 0.33281
 H429 H 0.20444 0.58002 0.39189
 H430 H 0.20563 0.54616 0.42554
 H431 H 0.27813 0.57765 0.45405
 H432 H 0.27663 0.61183 0.42090
 H433 H 0.23533 0.65018 0.29347
 H434 H 0.23839 0.68367 0.25952
 H435 H 0.24531 0.74251 0.31930
 H436 H 0.24363 0.70899 0.35319
 C437 C 0.24925 0.91243 0.90403
 C438 C 0.27291 0.92482 0.90974
 C439 C 0.27442 0.94395 0.92909
 C440 C 0.25209 0.95170 0.94269
 C441 C 0.22829 0.93947 0.93656
 C442 C 0.22699 0.91978 0.91772
 C443 C 0.24787 0.89199 0.88382
 N444 N 0.23117 0.87155 0.88634
 N445 N 0.23019 0.85297 0.86820
 C446 C 0.24565 0.85430 0.84668
 N447 N 0.26222 0.87482 0.84409
 N448 N 0.26344 0.89321 0.86239
 C449 C 0.24437 0.83394 0.82639
 C450 C 0.24845 0.84030 0.79994
 C451 C 0.24678 0.82117 0.78061
 C452 C 0.24150 0.79519 0.78737
 C453 C 0.23830 0.78873 0.81397
 C454 C 0.23919 0.80800 0.83324
 H455 H 0.29038 0.91941 0.89951
 H456 H 0.29310 0.95286 0.93311
 H457 H 0.21067 0.94477 0.94658
 H458 H 0.20848 0.91057 0.91355
 H459 H 0.25243 0.86017 0.79416
 H460 H 0.24938 0.82669 0.76029
 H461 H 0.23505 0.76878 0.81986
 H462 H 0.23635 0.80257 0.85356
 C463 C 0.75353 0.40345 0.40547
 C464 C 0.72979 0.41319 0.41422
 C465 C 0.72906 0.43192 0.43398
 C466 C 0.75205 0.44143 0.44536
 C467 C 0.77579 0.43178 0.43655
 C468 C 0.77652 0.41297 0.41689
 C469 C 0.75434 0.38338 0.38473
 N470 N 0.77697 0.37201 0.37820
 N471 N 0.77768 0.35374 0.35980
 C472 C 0.75581 0.34608 0.34707
 N473 N 0.73318 0.35752 0.35351
 N474 N 0.73246 0.37576 0.37196
 C475 C 0.75656 0.32536 0.32699
 C476 C 0.73445 0.31904 0.31212
 C477 C 0.73502 0.29894 0.29378
 C478 C 0.75756 0.28454 0.29023
 C479 C 0.77981 0.29117 0.30459
 C480 C 0.77933 0.31136 0.32280
 H481 H 0.71171 0.40627 0.40590
 H482 H 0.71045 0.43900 0.44030
 H483 H 0.79386 0.43870 0.44492
 H484 H 0.79515 0.40594 0.41061
 H485 H 0.71666 0.32955 0.31470
 H486 H 0.71775 0.29439 0.28258
 H487 H 0.79742 0.28031 0.30210
 H488 H 0.79672 0.31571 0.33387
 C489 C 0.09637 0.25190 0.90513
 C490 C 0.08558 0.22820 0.91378
 C491 C 0.06746 0.22758 0.93413
 C492 C 0.05962 0.25065 0.94622
 C493 C 0.07037 0.27434 0.93756
 C494 C 0.08857 0.27495 0.91731
 C495 C 0.11572 0.25259 0.88367
 N496 N 0.12791 0.27515 0.87697
 N497 N 0.14551 0.27578 0.85791
 C498 C 0.15164 0.25388 0.84465
 N499 N 0.13937 0.23132 0.85126
 N500 N 0.12180 0.23069 0.87037
 C501 C 0.17169 0.25452 0.82385
 C502 C 0.17664 0.23236 0.80868
 C503 C 0.19622 0.23277 0.78977
 C504 C 0.21146 0.25522 0.78593
 C505 C 0.20612 0.27754 0.80053
 C506 C 0.18645 0.27721 0.81931
 H507 H 0.09118 0.21007 0.90490
 H508 H 0.05951 0.20901 0.94030
 H509 H 0.06475 0.29247 0.94646
 H510 H 0.09644 0.29355 0.91115
 H511 H 0.16551 0.21462 0.81151
 H512 H 0.19978 0.21545 0.77841
 H513 H 0.21762 0.29508 0.79783
 H514 H 0.18315 0.29464 0.83057
 C515 C 0.58537 0.74595 0.40541
 C516 C 0.57304 0.72292 0.41380
 C517 C 0.55418 0.72344 0.43343
 C518 C 0.54712 0.74701 0.44501
 C519 C 0.55940 0.77005 0.43660
 C520 C 0.57835 0.76952 0.41707
 C521 C 0.60544 0.74541 0.38464
 N522 N 0.61911 0.76720 0.37822
 N523 N 0.63718 0.76670 0.35962
 C524 C 0.64232 0.74440 0.34659
 N525 N 0.62862 0.72261 0.35298
 N526 N 0.61059 0.72310 0.37162
 C527 C 0.66250 0.74383 0.32595
 C528 C 0.66607 0.72141 0.31076
 C529 C 0.68523 0.72082 0.29146
 C530 C 0.70141 0.74250 0.28715
 C531 C 0.69770 0.76501 0.30203
 C532 C 0.67845 0.76568 0.32124
 H533 H 0.57800 0.70442 0.40529
 H534 H 0.54506 0.70535 0.43944
 H535 H 0.55442 0.78853 0.44515
 H536 H 0.58741 0.78763 0.41106
 H537 H 0.65402 0.70430 0.31370
 H538 H 0.68739 0.70343 0.27983
 H539 H 0.70996 0.78197 0.29898
 H540 H 0.67624 0.78327 0.33254
 C541 C 0.89792 0.74400 0.91005
 C542 C 0.90020 0.76522 0.92720
 C543 C 0.92022 0.76644 0.94562
 C544 C 0.93796 0.74617 0.94762
 C545 C 0.93546 0.72480 0.93071
 C546 C 0.91582 0.72386 0.91192
 C547 C 0.87716 0.74294 0.89015
 N548 N 0.88024 0.72917 0.86771
 N549 N 0.86172 0.72846 0.84958
 C550 C 0.83926 0.74127 0.85327
 N551 N 0.83609 0.75491 0.87579
 N552 N 0.85472 0.75583 0.89381
 C553 C 0.81889 0.74078 0.83294
 C554 C 0.79287 0.74457 0.83965
 C555 C 0.77373 0.74440 0.82030
 C556 C 0.78035 0.74130 0.79377
 C557 C 0.80634 0.73719 0.78714
 C558 C 0.82538 0.73674 0.80654
 H559 H 0.88675 0.78108 0.92611
 H560 H 0.92165 0.78309 0.95849
 H561 H 0.94893 0.70895 0.93177
 H562 H 0.91446 0.70722 0.89902
 H563 H 0.78728 0.74740 0.85990
 H564 H 0.75376 0.74690 0.82603
 H565 H 0.81197 0.73476 0.76686
 H566 H 0.84530 0.73384 0.80079
 C567 C 0.41560 0.25182 0.40762
 C568 C 0.43359 0.27236 0.41016
 C569 C 0.45244 0.27188 0.42978
 C570 C 0.45400 0.25059 0.44686
 C571 C 0.43617 0.22995 0.44417
 C572 C 0.41699 0.23068 0.42491
 C573 C 0.39557 0.25238 0.38698
 N574 N 0.37320 0.23846 0.38964
 N575 N 0.35517 0.23892 0.37102
 C576 C 0.35888 0.25311 0.34887
 N577 N 0.38128 0.26697 0.34617
 N578 N 0.39921 0.26670 0.36490
 C579 C 0.33903 0.25336 0.32805
 C580 C 0.34595 0.25921 0.30204
 C581 C 0.32725 0.25913 0.28229
 C582 C 0.30126 0.25380 0.28833
 C583 C 0.29422 0.24808 0.31425
 C584 C 0.31299 0.24765 0.33394
 H585 H 0.43291 0.28895 0.39718
 H586 H 0.46600 0.28801 0.43138
 H587 H 0.43686 0.21335 0.45715
 H588 H 0.40345 0.21452 0.42333
 H589 H 0.36588 0.26353 0.29690
 H590 H 0.33295 0.26360 0.26234
 H591 H 0.27421 0.24388 0.31918
 H592 H 0.30709 0.24318 0.35383
 C593 C 0.74495 0.90405 0.90487
 C594 C 0.76852 0.91528 0.91311
 C595 C 0.76904 0.93391 0.93297
 C596 C 0.74601 0.94182 0.94499
 C597 C 0.72243 0.93073 0.93667
 C598 C 0.72191 0.91202 0.91687
 C599 C 0.74443 0.88397 0.88410
 N600 N 0.72201 0.87145 0.87774
 N601 N 0.72158 0.85313 0.85936
 C602 C 0.74354 0.84657 0.84650
 N603 N 0.76595 0.85917 0.85279
 N604 N 0.76638 0.87746 0.87121
 C605 C 0.74312 0.82580 0.82645
 C606 C 0.76543 0.82025 0.81180
 C607 C 0.76514 0.80015 0.79343
 C608 C 0.74267 0.78502 0.78962
 C609 C 0.72026 0.79084 0.80380
 C610 C 0.72047 0.81101 0.82204
 H611 H 0.78663 0.90958 0.90433
 H612 H 0.78753 0.94212 0.93891
 H613 H 0.70434 0.93640 0.94553
 H614 H 0.70341 0.90381 0.91100
 H615 H 0.78315 0.83136 0.81456
 H616 H 0.78253 0.79620 0.78238
 H617 H 0.70271 0.77941 0.80109
 H618 H 0.70294 0.81475 0.83294
 C619 C 0.25110 0.41168 0.40358
 C620 C 0.22724 0.41802 0.41498
 C621 C 0.22583 0.43737 0.43409
 C622 C 0.24825 0.45077 0.44234
 C623 C 0.27210 0.44443 0.43097
 C624 C 0.27350 0.42517 0.41179
 C625 C 0.25263 0.39115 0.38329
 N626 N 0.27524 0.38651 0.37068
 N627 N 0.27663 0.36808 0.35247
 C628 C 0.25550 0.35345 0.34611
 N629 N 0.23289 0.35807 0.35874
 N630 N 0.23148 0.37653 0.37692
 C631 C 0.25707 0.33290 0.32585
 C632 C 0.23582 0.31625 0.32095
 C633 C 0.23736 0.29684 0.30192
 C634 C 0.26015 0.29364 0.28743
 C635 C 0.28128 0.31043 0.29202
 C636 C 0.27983 0.32976 0.31113
 H637 H 0.20959 0.40807 0.40911
 H638 H 0.20715 0.44177 0.44247
 H639 H 0.28974 0.45439 0.43686
 H640 H 0.29220 0.42079 0.40347
 H641 H 0.21800 0.31810 0.33190
 H642 H 0.22081 0.28411 0.29867
 H643 H 0.29889 0.30867 0.28070
 H644 H 0.29650 0.34233 0.31423
 C645 C 0.25573 0.09847 0.90474
 C646 C 0.27852 0.08516 0.91034
 C647 C 0.27870 0.06581 0.92951
 C648 C 0.25586 0.05879 0.94302
 C649 C 0.23292 0.07196 0.93698
 C650 C 0.23298 0.09183 0.91832
 C651 C 0.25575 0.11916 0.88476
 N652 N 0.24021 0.14000 0.88737
 N653 N 0.24041 0.15876 0.86939
 C654 C 0.25591 0.15722 0.84797
 N655 N 0.27132 0.13630 0.84529
 N656 N 0.27137 0.11772 0.86342
 C657 C 0.25581 0.17773 0.82781
 C658 C 0.25975 0.17149 0.80136
 C659 C 0.25889 0.19075 0.78213
 C660 C 0.25458 0.21670 0.78903
 C661 C 0.25162 0.22305 0.81565
 C662 C 0.25171 0.20367 0.83481
 H663 H 0.29635 0.09002 0.90017
 H664 H 0.29675 0.05616 0.93347
 H665 H 0.21495 0.06723 0.94693
 H666 H 0.21512 0.10176 0.91422
 H667 H 0.26289 0.15161 0.79548
 H668 H 0.26127 0.18532 0.76177
 H669 H 0.24908 0.24299 0.82162
 H670 H 0.24898 0.20900 0.85514
 C671 C 0.74562 0.58786 0.40740
 C672 C 0.72508 0.56994 0.41034
 C673 C 0.72581 0.55100 0.42994
 C674 C 0.74734 0.54927 0.44658
 C675 C 0.76796 0.56706 0.44352
 C676 C 0.76699 0.58635 0.42430
 C677 C 0.74486 0.60791 0.38671
 N678 N 0.75874 0.63036 0.38917
 N679 N 0.75810 0.64840 0.37050
 C680 C 0.74376 0.64462 0.34850
 N681 N 0.72996 0.62214 0.34600
 N682 N 0.73040 0.60420 0.36478
 C683 C 0.74326 0.66453 0.32766
 C684 C 0.73744 0.65755 0.30167
 C685 C 0.73720 0.67634 0.28192
 C686 C 0.74217 0.70246 0.28797
 C687 C 0.74790 0.70953 0.31387
 C688 C 0.74866 0.69069 0.33354
 H689 H 0.70833 0.57072 0.39767
 H690 H 0.70969 0.53746 0.43182
 H691 H 0.78474 0.56622 0.45616
 H692 H 0.78314 0.59983 0.42241
 H693 H 0.73336 0.63753 0.29655
 H694 H 0.73274 0.67062 0.26199
 H695 H 0.75182 0.72964 0.31880
 H696 H 0.75310 0.69663 0.35341
 C697 C 0.08148 0.75300 0.90240
 C698 C 0.07340 0.72925 0.91343
 C699 C 0.05522 0.72851 0.93368
 C700 C 0.04465 0.75154 0.94356
 C701 C 0.05275 0.77534 0.93245
 C702 C 0.07089 0.77603 0.91210
 C703 C 0.10101 0.75363 0.88110
 N704 N 0.10757 0.77620 0.86885
 N705 N 0.12536 0.77667 0.84993
 C706 C 0.13737 0.75460 0.84249
 N707 N 0.13075 0.73206 0.85471
 N708 N 0.11295 0.73157 0.87357
 C709 C 0.15763 0.75507 0.82192
 C710 C 0.17210 0.73276 0.81678
 C711 C 0.19182 0.73329 0.79809
 C712 C 0.19752 0.75609 0.78411
 C713 C 0.18267 0.77822 0.78861
 C714 C 0.16302 0.77778 0.80748
 H715 H 0.08110 0.71112 0.90643
 H716 H 0.04955 0.70977 0.94160
 H717 H 0.04511 0.79352 0.93943
 H718 H 0.07671 0.79467 0.90408
 H719 H 0.16849 0.71494 0.82748
 H720 H 0.20302 0.71599 0.79491
 H721 H 0.18652 0.79591 0.77775
 H722 H 0.15214 0.79524 0.81080
 C723 C 0.60214 0.24265 0.41056
 C724 C 0.58351 0.22263 0.41263
 C725 C 0.56398 0.22381 0.43154
 C726 C 0.56237 0.24530 0.44833
 C727 C 0.58080 0.26546 0.44606
 C728 C 0.60067 0.26401 0.42754
 C729 C 0.62290 0.24133 0.39070
 N730 N 0.64572 0.25422 0.39430
 N731 N 0.66437 0.25316 0.37631
 C732 C 0.66085 0.23935 0.35390
 N733 N 0.63801 0.22651 0.35028
 N734 N 0.61946 0.22736 0.36838
 C735 C 0.68124 0.23881 0.33361
 C736 C 0.67475 0.23451 0.30723
 C737 C 0.69384 0.23518 0.28785
 C738 C 0.71987 0.23979 0.29449
 C739 C 0.72649 0.24306 0.32101
 C740 C 0.70731 0.24300 0.34033
 H741 H 0.58423 0.20590 0.39985
 H742 H 0.54996 0.20803 0.43283
 H743 H 0.58007 0.28219 0.45884
 H744 H 0.61469 0.27978 0.42629
 H745 H 0.65480 0.23130 0.30147
 H746 H 0.68823 0.23258 0.26756
 H747 H 0.74648 0.24596 0.32673
 H748 H 0.71290 0.24604 0.36056
 C749 C 0.91423 0.24832 0.90915
 C750 C 0.92214 0.27166 0.92114
 C751 C 0.94113 0.27178 0.94060
 C752 C 0.95257 0.24854 0.94862
 C753 C 0.94457 0.22518 0.93676
 C754 C 0.92566 0.22507 0.91720
 C755 C 0.89419 0.24825 0.88838
 N756 N 0.88822 0.22622 0.87497
 N757 N 0.87019 0.22619 0.85634
 C758 C 0.85733 0.24818 0.85035
 N759 N 0.86330 0.27021 0.86377
 N760 N 0.88137 0.27026 0.88235
 C761 C 0.83701 0.24810 0.82988
 C762 C 0.82174 0.27009 0.82586
 C763 C 0.80212 0.26981 0.80705
 C764 C 0.79736 0.24756 0.79190
 C765 C 0.81297 0.22580 0.79538
 C766 C 0.83249 0.22599 0.81431
 H767 H 0.91377 0.28993 0.91541
 H768 H 0.94685 0.29011 0.94936
 H769 H 0.95304 0.20695 0.94248
 H770 H 0.91999 0.20673 0.90844
 H771 H 0.82469 0.28745 0.83747
 H772 H 0.79032 0.28682 0.80464
 H773 H 0.80988 0.20857 0.78359
 H774 H 0.84401 0.20880 0.81673
 C775 C 0.40163 0.75128 0.40534
 C776 C 0.41046 0.77435 0.41724
 C777 C 0.42923 0.77377 0.43693
 C778 C 0.43953 0.75010 0.44528
 C779 C 0.43062 0.72701 0.43350
 C780 C 0.41194 0.72760 0.41371
 C781 C 0.38183 0.75192 0.38433
 N782 N 0.37509 0.73005 0.37099
 N783 N 0.35730 0.73065 0.35213
 C784 C 0.34544 0.75313 0.34583
 N785 N 0.35216 0.77500 0.35918
 N786 N 0.36999 0.77441 0.37799
 C787 C 0.32541 0.75376 0.32504
 C788 C 0.31109 0.77632 0.32063
 C789 C 0.29180 0.77672 0.30147
 C790 C 0.28640 0.75459 0.28633
 C791 C 0.30107 0.73223 0.29023
 C792 C 0.32026 0.73175 0.30951
 H793 H 0.40297 0.79294 0.41128
 H794 H 0.43566 0.79191 0.44561
 H795 H 0.43819 0.70845 0.43945
 H796 H 0.40556 0.70945 0.40504
 H797 H 0.31454 0.79363 0.33220
 H798 H 0.28074 0.79419 0.29876
 H799 H 0.29752 0.71506 0.27847
 H800 H 0.33103 0.71411 0.31221
 C801 C 0.25649 0.91248 0.09032
 C802 C 0.27717 0.91442 0.07250
 C803 C 0.27754 0.93376 0.05325
 C804 C 0.25696 0.95109 0.05111
 C805 C 0.23621 0.94900 0.06880
 C806 C 0.23611 0.93006 0.08837
 C807 C 0.25601 0.89219 0.11079
 N808 N 0.24214 0.89548 0.13312
 N809 N 0.24142 0.87715 0.15150
 C810 C 0.25435 0.85466 0.14820
 N811 N 0.26818 0.85132 0.12584
 N812 N 0.26909 0.86977 0.10755
 C813 C 0.25316 0.83420 0.16848
 C814 C 0.25731 0.80813 0.16187
 C815 C 0.25540 0.78876 0.18098
 C816 C 0.24975 0.79522 0.20703
 C817 C 0.24612 0.82124 0.21380
 C818 C 0.24751 0.84056 0.19463
 H819 H 0.29319 0.90118 0.07363
 H820 H 0.29373 0.93491 0.03979
 H821 H 0.22014 0.96218 0.06766
 H822 H 0.21986 0.92895 0.10175
 H823 H 0.26157 0.80267 0.14186
 H824 H 0.25833 0.76872 0.17550
 H825 H 0.24176 0.82650 0.23386
 H826 H 0.24437 0.86049 0.20031
 C827 C 0.75496 0.40244 0.59494
 C828 C 0.77573 0.40591 0.57746
 C829 C 0.77489 0.42505 0.55806
 C830 C 0.75302 0.44065 0.55540
 C831 C 0.73212 0.43695 0.57267
 C832 C 0.73320 0.41823 0.59243
 C833 C 0.75593 0.38248 0.61571
 N834 N 0.74195 0.38509 0.63807
 N835 N 0.74276 0.36711 0.65679
 C836 C 0.75739 0.34567 0.65380
 N837 N 0.77130 0.34300 0.63139
 N838 N 0.77069 0.36111 0.61278
 C839 C 0.75791 0.32553 0.67441
 C840 C 0.76342 0.29968 0.66803
 C841 C 0.76304 0.28051 0.68741
 C842 C 0.75762 0.28697 0.71351
 C843 C 0.75274 0.31283 0.72007
 C844 C 0.75257 0.33192 0.70062
 H845 H 0.79278 0.39408 0.57903
 H846 H 0.79124 0.42745 0.54494
 H847 H 0.71507 0.44880 0.57112
 H848 H 0.71685 0.41589 0.60555
 H849 H 0.76748 0.29420 0.64798
 H850 H 0.76686 0.26060 0.68207
 H851 H 0.74850 0.31808 0.74015
 H852 H 0.74842 0.35171 0.70611
 C853 C 0.75112 0.08517 0.09688
 C854 C 0.77137 0.06752 0.09420
 C855 C 0.77070 0.04882 0.07439
 C856 C 0.74951 0.04707 0.05725
 C857 C 0.72909 0.06448 0.06015
 C858 C 0.73001 0.08353 0.07961
 C859 C 0.75208 0.10530 0.11747
 N860 N 0.73861 0.12755 0.11477
 N861 N 0.73968 0.14582 0.13319
 C862 C 0.75407 0.14248 0.15516
 N863 N 0.76743 0.12018 0.15793
 N864 N 0.76654 0.10200 0.13940
 C865 C 0.75523 0.16277 0.17558
 C866 C 0.76148 0.15641 0.20159
 C867 C 0.76237 0.17561 0.22090
 C868 C 0.75764 0.20151 0.21437
 C869 C 0.75151 0.20796 0.18844
 C870 C 0.75011 0.18871 0.16922
 H871 H 0.78793 0.06841 0.10717
 H872 H 0.78666 0.03556 0.07264
 H873 H 0.71256 0.06362 0.04713
 H874 H 0.71407 0.09681 0.08131
 H875 H 0.76537 0.13656 0.20706
 H876 H 0.76712 0.17037 0.24087
 H877 H 0.74772 0.22788 0.18314
 H878 H 0.74537 0.19419 0.14932
 C879 C 0.23886 0.59944 0.58882
 C880 C 0.26025 0.59777 0.57195
 C881 C 0.26152 0.57798 0.55331
 C882 C 0.24116 0.55982 0.55077
 C883 C 0.21962 0.56165 0.56741
 C884 C 0.21862 0.58110 0.58648
 C885 C 0.23778 0.62013 0.60883
 N886 N 0.22385 0.61668 0.63118
 N887 N 0.22329 0.63515 0.64942
 C888 C 0.23641 0.65791 0.64592
 N889 N 0.25017 0.66144 0.62349
 N890 N 0.25094 0.64287 0.60537
 C891 C 0.23617 0.67825 0.66634
 C892 C 0.24051 0.70440 0.65969
 C893 C 0.24080 0.72354 0.67908
 C894 C 0.23762 0.71682 0.70560
 C895 C 0.23289 0.69072 0.71218
 C896 C 0.23198 0.67165 0.69273
 H897 H 0.27619 0.61156 0.57341
 H898 H 0.27830 0.57709 0.54063
 H899 H 0.20369 0.54785 0.56590
 H900 H 0.20185 0.58199 0.59916
 H901 H 0.24346 0.71008 0.63946
 H902 H 0.24375 0.74360 0.67338
 H903 H 0.23032 0.68502 0.73246
 H904 H 0.22866 0.65164 0.69843
 C905 C 0.90415 0.74493 0.09651
 C906 C 0.91241 0.72195 0.08451
 C907 C 0.93130 0.72272 0.06489
 C908 C 0.94226 0.74650 0.05675
 C909 C 0.93411 0.76945 0.06884
 C910 C 0.91533 0.76867 0.08854
 C911 C 0.88376 0.74419 0.11696
 N912 N 0.87731 0.76603 0.13016
 N913 N 0.85871 0.76547 0.14824
 C914 C 0.84572 0.74305 0.15386
 N915 N 0.85222 0.72120 0.14070
 N916 N 0.87086 0.72175 0.12266
 C917 C 0.82464 0.74255 0.17357
 C918 C 0.80921 0.72011 0.17710
 C919 C 0.78886 0.71989 0.19512
 C920 C 0.78349 0.74206 0.20995
 C921 C 0.79924 0.76428 0.20697
 C922 C 0.81950 0.76459 0.18883
 H923 H 0.90427 0.70332 0.09020
 H924 H 0.93715 0.70469 0.05596
 H925 H 0.94221 0.78808 0.06306
 H926 H 0.90942 0.78674 0.09733
 H927 H 0.81263 0.70279 0.16570
 H928 H 0.77698 0.70252 0.19718
 H929 H 0.79570 0.78146 0.21855
 H930 H 0.83110 0.78213 0.18678
 C931 C 0.41435 0.25344 0.59539
 C932 C 0.42183 0.22966 0.58449
 C933 C 0.44100 0.22883 0.56524
 C934 C 0.45311 0.25176 0.55631
 C935 C 0.44565 0.27556 0.56713
 C936 C 0.42651 0.27639 0.58651
 C937 C 0.39393 0.25417 0.61579
 N938 N 0.38791 0.27670 0.62800
 N939 N 0.36947 0.27724 0.64626
 C940 C 0.35625 0.25526 0.65304
 N941 N 0.36230 0.23276 0.64083
 N942 N 0.38075 0.23222 0.62263
 C943 C 0.33550 0.25574 0.67310
 C944 C 0.32025 0.23343 0.67793
 C945 C 0.30036 0.23385 0.69642
 C946 C 0.29524 0.25657 0.71049
 C947 C 0.31072 0.27876 0.70614
 C948 C 0.33057 0.27841 0.68749
 H949 H 0.41292 0.21160 0.59087
 H950 H 0.44628 0.21017 0.55730
 H951 H 0.45464 0.29357 0.56070
 H952 H 0.42121 0.29504 0.59444
 H953 H 0.32347 0.21564 0.66724
 H954 H 0.28865 0.21652 0.69948
 H955 H 0.30733 0.29639 0.71706
 H956 H 0.34203 0.29588 0.68439
 C957 C 0.10260 0.25049 0.09383
 C958 C 0.09399 0.27373 0.08263
 C959 C 0.07420 0.27345 0.06399
 C960 C 0.06263 0.24991 0.05602
 C961 C 0.07124 0.22667 0.06718
 C962 C 0.09095 0.22696 0.08592
 C963 C 0.12359 0.25081 0.11362
 N964 N 0.13020 0.22877 0.12641
 N965 N 0.14901 0.22907 0.14424
 C966 C 0.16207 0.25140 0.15000
 N967 N 0.15548 0.27343 0.13717
 N968 N 0.13664 0.27314 0.11939
 C969 C 0.18295 0.25175 0.16989
 C970 C 0.19819 0.27423 0.17392
 C971 C 0.21784 0.27455 0.19271
 C972 C 0.22268 0.25242 0.20782
 C973 C 0.20732 0.23005 0.20408
 C974 C 0.18777 0.22965 0.18520
 H975 H 0.10248 0.29221 0.08829
 H976 H 0.06803 0.29170 0.05575
 H977 H 0.06271 0.20821 0.06148
 H978 H 0.09711 0.20869 0.09410
 H979 H 0.19502 0.29159 0.16249
 H980 H 0.22944 0.29202 0.19535
 H981 H 0.21034 0.21294 0.21593
 H982 H 0.17630 0.21208 0.18277
 C983 C 0.58670 0.74625 0.59355
 C984 C 0.57970 0.76975 0.58171
 C985 C 0.56044 0.77023 0.56251
 C986 C 0.54783 0.74721 0.55458
 C987 C 0.55488 0.72370 0.56633
 C988 C 0.57403 0.72323 0.58563
 C989 C 0.60702 0.74575 0.61404
 N990 N 0.61191 0.72361 0.62748
 N991 N 0.63008 0.72319 0.64596
 C992 C 0.64420 0.74486 0.65176
 N993 N 0.63935 0.76698 0.63829
 N994 N 0.62114 0.76743 0.61985
 C995 C 0.66440 0.74437 0.67238
 C996 C 0.68088 0.76595 0.67646
 C997 C 0.69993 0.76543 0.69588
 C998 C 0.70290 0.74334 0.71160
 C999 C 0.68627 0.72191 0.70781
 C1000 C 0.66733 0.72234 0.68831
 H1001 H 0.58900 0.78785 0.58735
 H1002 H 0.55549 0.78866 0.55381
 H1003 H 0.54552 0.70563 0.56068
 H1004 H 0.57896 0.70478 0.59429
 H1005 H 0.67918 0.78323 0.66457
 H1006 H 0.71254 0.78219 0.69849
 H1007 H 0.68784 0.70487 0.72008
 H1008 H 0.65486 0.70545 0.68587
   
