data_POSCAR
  _audit_creation_date              2014-09-24
  _audit_creation_method            'ToBaCCo'
  _symmetry_space_group_name_H-M    'P1'
  _symmetry_Int_Tables_number       1
  _symmetry_cell_setting            triclinic
  loop_
  _symmetry_equiv_pos_as_xyz
 x,y,z
_cell_length_a 53.5627
_cell_length_b 51.0125
_cell_length_c 56.1775
_cell_angle_alpha 89.358600
_cell_angle_beta 89.431500
_cell_angle_gamma 90.385900
loop_
  _atom_site_label
  _atom_site_type_symbol
  _atom_site_fract_x
  _atom_site_fract_y
  _atom_site_fract_z
C1 C 0.20325 0.51551 1.02937
 H2 H 0.20316 0.53104 1.01609
 C3 C 0.18615 0.51583 1.04822
 H4 H 0.17274 0.53156 1.04847
 C5 C 0.22001 0.47546 1.04325
 H6 H 0.23310 0.45963 1.04112
 C7 C 0.20316 0.47489 1.06240
 H8 H 0.20460 0.45888 1.07507
 N9 N 0.21990 0.49571 1.02735
 C10 C 0.27943 0.53090 0.98391
 H11 H 0.28009 0.51737 0.96924
 C12 C 0.29585 0.55227 0.98433
 H13 H 0.30924 0.55500 0.96993
 C14 C 0.26176 0.54317 1.02096
 H15 H 0.24873 0.53935 1.03539
 C16 C 0.27796 0.56466 1.02218
 H17 H 0.27690 0.57746 1.03739
 Zn18 Zn 0.24154 0.49705 1.00056
 N19 N 0.26264 0.52692 1.00193
 C20 C 0.22213 0.51889 0.95760
 N21 N 0.22097 0.49852 0.97341
 C22 C 0.20399 0.47882 0.97103
 C23 C 0.18758 0.47882 0.95191
 C24 C 0.20603 0.51969 0.93819
 C25 C 0.27840 0.46319 1.01769
 C26 C 0.29484 0.44206 1.01729
 C27 C 0.27809 0.42971 0.97921
 C28 C 0.26188 0.45098 0.98041
 N29 N 0.26224 0.46714 0.99950
 H30 H 0.23532 0.53469 0.96008
 H31 H 0.20316 0.46314 0.98415
 H32 H 0.17401 0.46310 0.95053
 H33 H 0.20740 0.53590 0.92563
 H34 H 0.27865 0.47666 1.03243
 H35 H 0.30782 0.43945 1.03176
 H36 H 0.27752 0.41703 0.96389
 H37 H 0.24934 0.45476 0.96586
 C38 C 0.29528 0.56943 1.00369
 C39 C 0.18573 0.49533 1.06536
 C40 C 0.29491 0.42508 0.99778
 C41 C 0.18847 0.49944 0.93515
 C42 C 0.79524 0.52611 -0.02739
 H43 H 0.79632 0.54080 -0.01370
 C44 C 0.81225 0.52666 -0.04640
 H45 H 0.82648 0.54182 -0.04715
 C46 C 0.77606 0.48775 -0.04234
 H47 H 0.76222 0.47236 -0.04050
 C48 C 0.79270 0.48753 -0.06161
 H49 H 0.79111 0.47220 -0.07469
 N50 N 0.77758 0.50688 -0.02574
 C51 C 0.71735 0.53576 0.01922
 H52 H 0.71644 0.51997 0.03223
 C53 C 0.69944 0.55547 0.01957
 H54 H 0.68495 0.55493 0.03315
 C55 C 0.73697 0.55511 -0.01472
 H56 H 0.75121 0.55448 -0.02845
 C57 C 0.71949 0.57535 -0.01493
 H58 H 0.72046 0.59019 -0.02885
 Zn59 Zn 0.75647 0.50606 0.00144
 N60 N 0.73551 0.53578 0.00214
 C61 C 0.77527 0.52326 0.04584
 N62 N 0.77711 0.50492 0.02854
 C63 C 0.79464 0.48580 0.02952
 C64 C 0.81110 0.48444 0.04859
 C65 C 0.79133 0.52260 0.06527
 C66 C 0.71729 0.47635 -0.01623
 C67 C 0.69954 0.45626 -0.01689
 C68 C 0.71905 0.43614 0.01727
 C69 C 0.73638 0.45676 0.01738
 N70 N 0.73516 0.47634 0.00078
 H71 H 0.76150 0.53856 0.04454
 H72 H 0.79596 0.47174 0.01529
 H73 H 0.82519 0.46933 0.04880
 H74 H 0.78938 0.53719 0.07900
 H75 H 0.71660 0.49230 -0.02905
 H76 H 0.68535 0.45671 -0.03050
 H77 H 0.71989 0.42102 0.03091
 H78 H 0.75040 0.45737 0.03105
 C79 C 0.70016 0.57540 0.00214
 C80 C 0.81121 0.50707 -0.06375
 C81 C 0.70012 0.43596 0.00016
 C82 C 0.80960 0.50303 0.06681
 C83 C -0.02441 0.28997 0.47451
 H84 H -0.03878 0.29117 0.48812
 C85 C -0.02509 0.30665 0.45466
 H86 H -0.03995 0.32085 0.45387
 C87 C 0.01312 0.27101 0.46071
 H88 H 0.02811 0.25723 0.46320
 C89 C 0.01332 0.28739 0.44064
 H90 H 0.02817 0.28482 0.42773
 N91 N -0.00562 0.27247 0.47708
 C92 C -0.03470 0.21140 0.52481
 H93 H -0.02015 0.21126 0.53803
 C94 C -0.05446 0.19352 0.52663
 H95 H -0.05513 0.17987 0.54151
 C96 C -0.05130 0.22940 0.48932
 H97 H -0.04973 0.24304 0.47454
 C98 C -0.07141 0.21181 0.49042
 H99 H -0.08509 0.21208 0.47637
 Zn100 Zn -0.00526 0.25141 0.50500
 N101 N -0.03353 0.22895 0.50645
 C102 C -0.02311 0.27260 0.54854
 N103 N -0.00511 0.27424 0.53133
 C104 C 0.01309 0.29292 0.53200
 C105 C 0.01400 0.31056 0.55080
 C106 C -0.02288 0.28981 0.56769
 C107 C 0.02470 0.21076 0.48846
 C108 C 0.04509 0.19388 0.48770
 C109 C 0.06234 0.21626 0.52151
 C110 C 0.04156 0.23267 0.52168
 N111 N 0.02339 0.22983 0.50514
 H112 H -0.03776 0.25804 0.54747
 H113 H 0.02690 0.29411 0.51783
 H114 H 0.02851 0.32544 0.55086
 H115 H -0.03712 0.28786 0.58142
 H116 H 0.00979 0.20866 0.47576
 H117 H 0.04557 0.17864 0.47445
 H118 H 0.07680 0.21917 0.53457
 H119 H 0.04000 0.24760 0.53507
 C120 C -0.07308 0.19344 0.50919
 C121 C -0.00595 0.30579 0.43718
 C122 C 0.06433 0.19654 0.50433
 C123 C -0.00412 0.30909 0.56903
 C124 C 0.98948 0.70308 0.52343
 H125 H 0.97575 0.70140 0.50952
 C126 C 0.98916 0.68534 0.54252
 H127 H 0.97520 0.66989 0.54306
 C128 C 1.02475 0.72490 0.53914
 H129 H 1.03880 0.74011 0.53764
 C130 C 1.02510 0.70759 0.55857
 H131 H 1.03915 0.71011 0.57209
 N132 N 1.00679 0.72268 0.52231
 C133 C 0.97255 0.78496 0.48063
 H134 H 0.98736 0.78877 0.46779
 C135 C 0.95074 0.79973 0.47996
 H136 H 0.94911 0.81518 0.46671
 C137 C 0.95721 0.76062 0.51389
 H138 H 0.95985 0.74552 0.52722
 C139 C 0.93501 0.77481 0.51378
 H140 H 0.92062 0.77006 0.52683
 Zn141 Zn 1.00517 0.74612 0.49601
 N142 N 0.97525 0.76560 0.49720
 C143 C 0.98658 0.72632 0.45268
 N144 N 1.00594 0.72565 0.46815
 C145 C 1.02535 0.70897 0.46499
 C146 C 1.02574 0.69196 0.44567
 C147 C 0.98623 0.70971 0.43313
 C148 C 1.03381 0.78670 0.51506
 C149 C 1.05296 0.80533 0.51602
 C150 C 1.06756 0.79094 0.47754
 C151 C 1.04833 0.77228 0.47750
 N152 N 1.03207 0.77038 0.49618
 H153 H 0.97108 0.73933 0.45569
 H154 H 1.04030 0.70853 0.47780
 H155 H 1.04104 0.67836 0.44380
 H156 H 0.97065 0.71059 0.42101
 H157 H 1.02034 0.78508 0.52949
 H158 H 1.05432 0.81752 0.53160
 H159 H 1.07993 0.79245 0.46223
 H160 H 1.04620 0.75965 0.46234
 C161 C 0.93146 0.79456 0.49653
 C162 C 1.00698 0.68763 0.56056
 C163 C 1.07017 0.80775 0.49705
 C164 C 1.00584 0.69201 0.42956
 C165 C 0.47610 -0.01675 0.29036
 H166 H 0.49034 -0.03169 0.29056
 C167 C 0.45744 -0.01686 0.30787
 H168 H 0.45762 -0.03191 0.32160
 C169 C 0.45957 0.02176 0.27281
 H170 H 0.46073 0.03702 0.25935
 C171 C 0.44048 0.02234 0.28994
 H172 H 0.42679 0.03784 0.28914
 N173 N 0.47686 0.00237 0.27332
 C174 C 0.52165 -0.03119 0.21631
 H175 H 0.53673 -0.01699 0.21541
 C176 C 0.52136 -0.05218 0.20061
 H177 H 0.53625 -0.05321 0.18753
 C178 C 0.48330 -0.04514 0.23359
 H179 H 0.46840 -0.04217 0.24637
 C180 C 0.48197 -0.06620 0.21793
 H181 H 0.46629 -0.07955 0.21975
 Zn182 Zn 0.50428 0.00192 0.25186
 N183 N 0.50295 -0.02819 0.23252
 C184 C 0.54921 -0.01912 0.27013
 N185 N 0.53354 0.00175 0.27052
 C186 C 0.53718 0.02190 0.28578
 C187 C 0.55727 0.02157 0.30145
 C188 C 0.56946 -0.02029 0.28554
 C189 C 0.48463 0.03176 0.21511
 C190 C 0.48391 0.05106 0.19737
 C191 C 0.52211 0.06942 0.21277
 C192 C 0.52221 0.04958 0.23016
 N193 N 0.50366 0.03121 0.23093
 H194 H 0.54567 -0.03532 0.25841
 H195 H 0.52409 0.03795 0.28613
 H196 H 0.55950 0.03747 0.31388
 H197 H 0.58162 -0.03715 0.28507
 H198 H 0.47030 0.01672 0.21596
 H199 H 0.46875 0.05098 0.18476
 H200 H 0.53733 0.08350 0.21195
 H201 H 0.53749 0.04846 0.24252
 C202 C 0.50118 -0.07015 0.20094
 C203 C 0.43933 0.00294 0.30791
 C204 C 0.50299 0.07001 0.19585
 C205 C 0.57353 0.00010 0.30165
 C206 C 0.53140 -0.01904 0.70904
 H207 H 0.51427 -0.02991 0.70634
 C208 C 0.55121 -0.02153 0.69296
 H209 H 0.54875 -0.03407 0.67775
 C210 C 0.55428 0.01182 0.73139
 H211 H 0.55530 0.02513 0.74614
 C212 C 0.57483 0.00944 0.71604
 H213 H 0.59159 0.02060 0.71968
 N214 N 0.53313 -0.00239 0.72767
 C215 C 0.48287 -0.02639 0.78519
 H216 H 0.47022 -0.00995 0.78533
 C217 C 0.48121 -0.04555 0.80306
 H218 H 0.46695 -0.04393 0.81676
 C219 C 0.51727 -0.04801 0.76746
 H220 H 0.53165 -0.04851 0.75384
 C221 C 0.51619 -0.06771 0.78496
 H222 H 0.52985 -0.08325 0.78468
 Zn223 Zn 0.50404 0.00107 0.74679
 N224 N 0.50086 -0.02778 0.76803
 C225 C 0.45712 -0.01466 0.72790
 N226 N 0.47648 0.00264 0.72595
 C227 C 0.47760 0.02072 0.70800
 C228 C 0.45876 0.02191 0.69105
 C229 C 0.43780 -0.01410 0.71136
 C230 C 0.52281 0.03264 0.78314
 C231 C 0.52332 0.05368 0.79882
 C232 C 0.48796 0.07218 0.77840
 C233 C 0.48826 0.05090 0.76297
 N234 N 0.50551 0.03165 0.76560
 H235 H 0.45675 -0.02913 0.74209
 H236 H 0.49344 0.03394 0.70665
 H237 H 0.46038 0.03605 0.67660
 H238 H 0.42246 -0.02791 0.71330
 H239 H 0.53583 0.01670 0.78531
 H240 H 0.53687 0.05384 0.81299
 H241 H 0.47396 0.08720 0.77620
 H242 H 0.47429 0.04949 0.74931
 C243 C 0.49826 -0.06634 0.80331
 C244 C 0.57341 -0.00718 0.69625
 C245 C 0.50553 0.07363 0.79671
 C246 C 0.43853 0.00426 0.69251
 C247 C 0.26137 0.00686 0.50155
 C248 C 0.74284 -0.01208 0.49754
 C249 C 0.49982 0.24727 0.99523
 C250 C 0.49556 0.75593 0.00404
 C251 C 0.99698 0.49605 0.24794
 C252 C 0.00120 0.50113 0.75390
 C253 C 0.12715 0.14394 0.50303
 C254 C 0.11699 0.15239 0.52478
 C255 C 0.09672 0.16950 0.52521
 C256 C 0.08617 0.17869 0.50389
 C257 C 0.09651 0.17046 0.48214
 C258 C 0.11671 0.15326 0.48171
 C259 C 0.14821 0.12520 0.50258
 N260 N 0.15607 0.11453 0.48179
 N261 N 0.17458 0.09722 0.48146
 C262 C 0.18608 0.08987 0.50190
 N263 N 0.17831 0.10067 0.52267
 N264 N 0.15977 0.11793 0.52301
 C265 C 0.20617 0.06999 0.50164
 C266 C 0.21925 0.06384 0.52248
 C267 C 0.23744 0.04433 0.52252
 C268 C 0.24360 0.03069 0.50153
 C269 C 0.22983 0.03659 0.48086
 C270 C 0.21175 0.05619 0.48080
 H271 H 0.12447 0.14551 0.54155
 H272 H 0.08900 0.17513 0.54227
 H273 H 0.08912 0.17750 0.46540
 H274 H 0.12415 0.14729 0.46464
 H275 H 0.21510 0.07373 0.53899
 H276 H 0.24590 0.03944 0.53936
 H277 H 0.23291 0.02567 0.46469
 H278 H 0.20172 0.06004 0.46451
 C279 C 0.64089 0.63201 -0.00154
 C280 C 0.66592 0.64010 -0.00441
 C281 C 0.68526 0.62177 -0.00329
 C282 C 0.67995 0.59510 0.00100
 C283 C 0.65497 0.58710 0.00391
 C284 C 0.63570 0.60528 0.00258
 C285 C 0.62013 0.65106 -0.00277
 N286 N 0.59617 0.64238 -0.00373
 N287 N 0.57730 0.65917 -0.00432
 C288 C 0.58150 0.68544 -0.00394
 N289 N 0.60549 0.69422 -0.00306
 N290 N 0.62444 0.67736 -0.00254
 C291 C 0.56011 0.70377 -0.00365
 C292 C 0.56347 0.73073 0.00016
 C293 C 0.54281 0.74731 0.00208
 C294 C 0.51817 0.73729 0.00108
 C295 C 0.51526 0.71059 -0.00484
 C296 C 0.53580 0.69412 -0.00675
 H297 H 0.67055 0.66053 -0.00765
 H298 H 0.70438 0.62847 -0.00551
 H299 H 0.65028 0.56663 0.00688
 H300 H 0.61668 0.59832 0.00490
 H301 H 0.58201 0.73898 0.00205
 H302 H 0.54600 0.76798 0.00511
 H303 H 0.49718 0.70202 -0.00825
 H304 H 0.53250 0.67365 -0.01063
 C305 C 0.86432 -0.15929 0.49432
 C306 C 0.87411 -0.16764 0.51623
 C307 C 0.89572 -0.18284 0.51698
 C308 C 0.90791 -0.19020 0.49583
 C309 C 0.89765 -0.18250 0.47392
 C310 C 0.87618 -0.16715 0.47318
 C311 C 0.84274 -0.14132 0.49348
 N312 N 0.83726 -0.12818 0.47306
 N313 N 0.81910 -0.11050 0.47262
 C314 C 0.80552 -0.10533 0.49254
 N315 N 0.81066 -0.11882 0.51287
 N316 N 0.82893 -0.13643 0.51334
 C317 C 0.78717 -0.08378 0.49259
 C318 C 0.76974 -0.08127 0.51124
 C319 C 0.75441 -0.05922 0.51258
 C320 C 0.75688 -0.03852 0.49576
 C321 C 0.77309 -0.04233 0.47612
 C322 C 0.78802 -0.06451 0.47460
 H323 H 0.86551 -0.16180 0.53286
 H324 H 0.90325 -0.18818 0.53416
 H325 H 0.90623 -0.18832 0.45729
 H326 H 0.86901 -0.16126 0.45599
 H327 H 0.76815 -0.09624 0.52500
 H328 H 0.74106 -0.05855 0.52706
 H329 H 0.77506 -0.02733 0.46242
 H330 H 0.80104 -0.06594 0.45981
 C331 C 0.34931 0.36335 0.99400
 C332 C 0.33621 0.36800 1.01534
 C333 C 0.31836 0.38784 1.01654
 C334 C 0.31308 0.40331 0.99638
 C335 C 0.32579 0.39831 0.97493
 C336 C 0.34373 0.37861 0.97377
 C337 C 0.36938 0.34350 0.99300
 N338 N 0.38477 0.34221 0.97371
 N339 N 0.40363 0.32536 0.97320
 C340 C 0.40787 0.30896 0.99191
 N341 N 0.39228 0.30999 1.01111
 N342 N 0.37345 0.32693 1.01166
 C343 C 0.42990 0.29154 0.99190
 C344 C 0.43269 0.27195 1.00942
 C345 C 0.45445 0.25695 1.01038
 C346 C 0.47449 0.26184 0.99436
 C347 C 0.47064 0.28027 0.97582
 C348 C 0.44884 0.29499 0.97472
 H349 H 0.34004 0.35662 1.03126
 H350 H 0.30866 0.39109 1.03324
 H351 H 0.32233 0.41009 0.95917
 H352 H 0.35343 0.37557 0.95703
 H353 H 0.41806 0.26823 1.02249
 H354 H 0.45524 0.24163 1.02376
 H355 H 0.48509 0.28393 0.96255
 H356 H 0.44720 0.30962 0.96071
 C357 C 0.86841 0.13491 0.51071
 C358 C 0.86308 0.16096 0.50420
 C359 C 0.88198 0.18007 0.50384
 C360 C 0.90656 0.17354 0.51006
 C361 C 0.91177 0.14756 0.51675
 C362 C 0.89297 0.12852 0.51710
 C363 C 0.84888 0.11417 0.51033
 N364 N 0.85492 0.08895 0.51541
 N365 N 0.83788 0.06996 0.51438
 C366 C 0.81397 0.07526 0.50827
 N367 N 0.80776 0.10054 0.50338
 N368 N 0.82489 0.11961 0.50438
 C369 C 0.79560 0.05354 0.50620
 C370 C 0.77007 0.05820 0.50268
 C371 C 0.75331 0.03719 0.50016
 C372 C 0.76173 0.01098 0.50004
 C373 C 0.78723 0.00673 0.50501
 C374 C 0.80379 0.02756 0.50774
 H375 H 0.84437 0.16656 0.49920
 H376 H 0.87734 0.20000 0.49883
 H377 H 0.93057 0.14177 0.52126
 H378 H 0.89784 0.10868 0.52215
 H379 H 0.76302 0.07803 0.50197
 H380 H 0.73368 0.04138 0.49786
 H381 H 0.79481 -0.01267 0.50737
 H382 H 0.82320 0.02312 0.51106
 C383 C 0.34845 0.63305 0.00698
 C384 C 0.34284 0.61770 0.02730
 C385 C 0.32532 0.59734 0.02630
 C386 C 0.31312 0.59173 0.00491
 C387 C 0.31847 0.60724 -0.01535
 C388 C 0.33587 0.62776 -0.01431
 C389 C 0.36796 0.65376 0.00781
 N390 N 0.37168 0.67063 -0.01081
 N391 N 0.39000 0.68842 -0.01042
 C392 C 0.40541 0.69006 0.00859
 N393 N 0.40154 0.67335 0.02727
 N394 N 0.38318 0.65564 0.02692
 C395 C 0.42691 0.70850 0.00838
 C396 C 0.44593 0.70576 0.02520
 C397 C 0.46729 0.72149 0.02381
 C398 C 0.47063 0.74024 0.00533
 C399 C 0.45046 0.74439 -0.01026
 C400 C 0.42914 0.72838 -0.00902
 H401 H 0.35215 0.62123 0.04400
 H402 H 0.32176 0.58555 0.04214
 H403 H 0.30915 0.60353 -0.03200
 H404 H 0.33974 0.63918 -0.03030
 H405 H 0.44469 0.69093 0.03910
 H406 H 0.48184 0.71837 0.03677
 H407 H 0.45080 0.75986 -0.02352
 H408 H 0.41442 0.73156 -0.02178
 C409 C 0.12915 -0.13409 0.49873
 C410 C 0.13304 -0.15826 0.48761
 C411 C 0.11402 -0.17716 0.48719
 C412 C 0.09052 -0.17217 0.49754
 C413 C 0.08663 -0.14780 0.50843
 C414 C 0.10576 -0.12910 0.50919
 C415 C 0.14930 -0.11412 0.49940
 N416 N 0.14875 -0.09476 0.51579
 N417 N 0.16678 -0.07668 0.51635
 C418 C 0.18602 -0.07709 0.50043
 N419 N 0.18656 -0.09644 0.48402
 N420 N 0.16862 -0.11465 0.48357
 C421 C 0.20575 -0.05666 0.50078
 C422 C 0.22036 -0.05131 0.48042
 C423 C 0.23835 -0.03133 0.48045
 C424 C 0.24309 -0.01681 0.50123
 C425 C 0.22785 -0.02206 0.52142
 C426 C 0.20960 -0.04172 0.52125
 H427 H 0.15094 -0.16275 0.47956
 H428 H 0.11791 -0.19584 0.47903
 H429 H 0.06866 -0.14295 0.51612
 H430 H 0.10210 -0.11053 0.51766
 H431 H 0.21733 -0.06201 0.46415
 H432 H 0.24788 -0.02694 0.46383
 H433 H 0.22999 -0.01065 0.53742
 H434 H 0.19845 -0.04516 0.53717
 C435 C 0.64202 0.37709 1.00199
 C436 C 0.63635 0.40371 0.99844
 C437 C 0.65525 0.42265 0.99775
 C438 C 0.68029 0.41551 1.00073
 C439 C 0.68606 0.38895 1.00445
 C440 C 0.66711 0.36988 1.00494
 C441 C 0.62167 0.35722 1.00255
 N442 N 0.62660 0.33111 1.00204
 N443 N 0.60805 0.31351 1.00208
 C444 C 0.58384 0.32133 1.00277
 N445 N 0.57901 0.34740 1.00340
 N446 N 0.59749 0.36493 1.00328
 C447 C 0.56292 0.30215 1.00219
 C448 C 0.53833 0.31078 1.00542
 C449 C 0.51825 0.29347 1.00360
 C450 C 0.52191 0.26690 0.99764
 C451 C 0.54680 0.25796 0.99630
 C452 C 0.56701 0.27539 0.99816
 H453 H 0.61726 0.41001 0.99609
 H454 H 0.65020 0.44301 0.99521
 H455 H 0.70525 0.38291 1.00669
 H456 H 0.67210 0.34955 1.00774
 H457 H 0.53446 0.33108 1.00943
 H458 H 0.49993 0.30126 1.00722
 H459 H 0.55056 0.23744 0.99320
 H460 H 0.58578 0.26794 0.99614
 C461 C 0.50518 0.12526 1.13726
 C462 C 0.49971 0.09864 1.13355
 C463 C 0.49885 0.08089 1.15261
 C464 C 0.50363 0.08925 1.17586
 C465 C 0.50927 0.11581 1.17966
 C466 C 0.50987 0.13370 1.16056
 C467 C 0.50597 0.14386 1.11679
 N468 N 0.50613 0.17023 1.12006
 N469 N 0.50637 0.18672 1.10145
 C470 C 0.50660 0.17750 1.07884
 N471 N 0.50658 0.15116 1.07565
 N472 N 0.50624 0.13472 1.09419
 C473 C 0.50626 0.19552 1.05795
 C474 C 0.51046 0.18572 1.03503
 C475 C 0.50889 0.20204 1.01504
 C476 C 0.50212 0.22866 1.01714
 C477 C 0.49972 0.23873 1.04038
 C478 C 0.50144 0.22237 1.06047
 H479 H 0.49597 0.09144 1.11587
 H480 H 0.49480 0.06047 1.14911
 H481 H 0.51293 0.12276 1.19744
 H482 H 0.51419 0.15406 1.16401
 H483 H 0.51512 0.16532 1.03246
 H484 H 0.51331 0.19344 0.99805
 H485 H 0.49589 0.25933 1.04294
 H486 H 0.49860 0.23069 1.07792
 C487 C 0.00548 0.63482 0.62105
 C488 C -0.01682 0.64443 0.61140
 C489 C -0.01630 0.66155 0.59183
 C490 C 0.00653 0.66944 0.58138
 C491 C 0.02884 0.65990 0.59104
 C492 C 0.02833 0.64280 0.61066
 C493 C 0.00487 0.61640 0.64164
 N494 N 0.02635 0.60802 0.65179
 N495 N 0.02577 0.59115 0.67006
 C496 C 0.00369 0.58192 0.67895
 N497 N -0.01778 0.59038 0.66886
 N498 N -0.01720 0.60727 0.65062
 C499 C 0.00304 0.56257 0.69884
 C500 C -0.01966 0.55121 0.70643
 C501 C -0.02018 0.53217 0.72447
 C502 C 0.00185 0.52448 0.73613
 C503 C 0.02465 0.53550 0.72790
 C504 C 0.02518 0.55449 0.70979
 H505 H -0.03475 0.63881 0.61900
 H506 H -0.03380 0.66889 0.58505
 H507 H 0.04672 0.66534 0.58322
 H508 H 0.04587 0.63570 0.61756
 H509 H -0.03705 0.55655 0.69806
 H510 H -0.03793 0.52309 0.72907
 H511 H 0.04230 0.52897 0.73492
 H512 H 0.04308 0.56243 0.70406
 C513 C 0.49916 0.87849 -0.13796
 C514 C 0.50195 0.86972 -0.16149
 C515 C 0.50161 0.88755 -0.18063
 C516 C 0.49821 0.91445 -0.17664
 C517 C 0.49526 0.92314 -0.15315
 C518 C 0.49579 0.90542 -0.13407
 C519 C 0.49985 0.85991 -0.11747
 N520 N 0.50077 0.86906 -0.09489
 N521 N 0.50121 0.85262 -0.07635
 C522 C 0.50071 0.82628 -0.07952
 N523 N 0.49980 0.81706 -0.10211
 N524 N 0.49943 0.83354 -0.12070
 C525 C 0.50062 0.80822 -0.05862
 C526 C 0.49644 0.78120 -0.06112
 C527 C 0.49516 0.76468 -0.04107
 C528 C 0.49732 0.77475 -0.01783
 C529 C 0.50337 0.80164 -0.01577
 C530 C 0.50455 0.81810 -0.03574
 H531 H 0.50460 0.84912 -0.16511
 H532 H 0.50380 0.88029 -0.19856
 H533 H 0.49299 0.94379 -0.14948
 H534 H 0.49356 0.91291 -0.11622
 H535 H 0.49384 0.77281 -0.07855
 H536 H 0.49187 0.74394 -0.04363
 H537 H 0.50755 0.81035 0.00118
 H538 H 0.50869 0.83867 -0.03318
 C539 C 0.99443 0.35837 0.37751
 C540 C 0.97193 0.35135 0.38898
 C541 C 0.97175 0.33407 0.40847
 C542 C 0.99411 0.32305 0.41709
 C543 C 1.01660 0.33002 0.40515
 C544 C 1.01672 0.34742 0.38578
 C545 C 0.99472 0.37733 0.35730
 N546 N 1.01666 0.38614 0.34778
 N547 N 1.01698 0.40363 0.33001
 C548 C 0.99535 0.41305 0.32094
 N549 N 0.97340 0.40412 0.33036
 N550 N 0.97308 0.38666 0.34817
 C551 C 0.99575 0.43307 0.30161
 C552 C 0.97346 0.44155 0.29116
 C553 C 0.97378 0.46109 0.27353
 C554 C 0.99649 0.47230 0.26527
 C555 C 1.01866 0.46426 0.27651
 C556 C 1.01835 0.44465 0.29404
 H557 H 0.95435 0.35926 0.38297
 H558 H 0.95377 0.32881 0.41610
 H559 H 1.03450 0.32315 0.41126
 H560 H 1.03444 0.35250 0.37744
 H561 H 0.95564 0.43345 0.29691
 H562 H 0.95604 0.46785 0.26688
 H563 H 1.03635 0.47347 0.27192
 H564 H 1.03585 0.43904 0.30206
 C565 C 0.49764 0.86971 0.14895
 C566 C 0.47572 0.87960 0.15925
 C567 C 0.47684 0.89877 0.17681
 C568 C 0.50000 0.90909 0.18430
 C569 C 0.52194 0.89854 0.17414
 C570 C 0.52075 0.87906 0.15690
 C571 C 0.49643 0.85056 0.12935
 N572 N 0.51684 0.83650 0.12300
 N573 N 0.51607 0.82023 0.10462
 C574 C 0.49491 0.81749 0.09173
 N575 N 0.47445 0.83143 0.09818
 N576 N 0.47517 0.84756 0.11665
 C577 C 0.49451 0.80067 0.07042
 C578 C 0.47615 0.80412 0.05306
 C579 C 0.47672 0.78954 0.03220
 C580 C 0.49584 0.77120 0.02779
 C581 C 0.51313 0.76653 0.04618
 C582 C 0.51277 0.78145 0.06692
 H583 H 0.45759 0.87275 0.15352
 H584 H 0.45933 0.90641 0.18338
 H585 H 0.54027 0.90473 0.17983
 H586 H 0.53802 0.87171 0.14943
 H587 H 0.46161 0.81855 0.05531
 H588 H 0.46244 0.79300 0.01904
 H589 H 0.52692 0.75127 0.04499
 H590 H 0.52672 0.77776 0.08035
 C591 C -0.00250 0.36326 0.62743
 C592 C 0.01977 0.35289 0.61815
 C593 C 0.01924 0.33528 0.59928
 C594 C -0.00356 0.32766 0.58920
 C595 C -0.02583 0.33798 0.59852
 C596 C -0.02531 0.35553 0.61743
 C597 C -0.00193 0.38226 0.64721
 N598 N -0.02344 0.39113 0.65715
 N599 N -0.02294 0.40856 0.67462
 C600 C -0.00089 0.41787 0.68290
 N601 N 0.02063 0.40891 0.67303
 N602 N 0.02012 0.39146 0.65558
 C603 C -0.00033 0.43786 0.70186
 C604 C 0.02232 0.44947 0.70857
 C605 C 0.02275 0.46912 0.72567
 C606 C 0.00065 0.47719 0.73728
 C607 C -0.02210 0.46588 0.72991
 C608 C -0.02253 0.44630 0.71274
 H609 H 0.03767 0.35831 0.62548
 H610 H 0.03670 0.32739 0.59276
 H611 H -0.04368 0.33281 0.59094
 H612 H -0.04282 0.36322 0.62404
 H613 H 0.03975 0.44387 0.70021
 H614 H 0.04046 0.47837 0.72957
 H615 H -0.03979 0.47264 0.73687
 H616 H -0.04040 0.43816 0.70765
 C617 C 0.50242 0.13343 0.85018
 C618 C 0.52537 0.12658 0.83967
 C619 C 0.52639 0.10743 0.82205
 C620 C 0.50446 0.09500 0.81438
 C621 C 0.48147 0.10235 0.82442
 C622 C 0.48047 0.12125 0.84219
 C623 C 0.50140 0.15231 0.87003
 N624 N 0.48060 0.15400 0.88393
 N625 N 0.47995 0.17003 0.90246
 C626 C 0.50001 0.18519 0.90782
 N627 N 0.52074 0.18374 0.89376
 N628 N 0.52145 0.16758 0.87529
 C629 C 0.49961 0.20201 0.92915
 C630 C 0.51750 0.22190 0.93213
 C631 C 0.51764 0.23697 0.95280
 C632 C 0.50046 0.23183 0.97157
 C633 C 0.48176 0.21272 0.96771
 C634 C 0.48143 0.19797 0.94697
 H635 H 0.54262 0.13556 0.84543
 H636 H 0.54433 0.10227 0.81447
 H637 H 0.46430 0.09289 0.81903
 H638 H 0.46248 0.12612 0.84985
 H639 H 0.53132 0.22601 0.91836
 H640 H 0.53114 0.25272 0.95363
 H641 H 0.46760 0.20881 0.98121
 H642 H 0.46715 0.18302 0.94515
 C643 C 1.00335 0.63619 0.37250
 C644 C 0.98159 0.64261 0.38529
 C645 C 0.98243 0.66079 0.40366
 C646 C 1.00503 0.67307 0.40968
 C647 C 1.02679 0.66677 0.39684
 C648 C 1.02596 0.64854 0.37845
 C649 C 1.00243 0.61647 0.35333
 N650 N 1.02352 0.60925 0.34155
 N651 N 1.02268 0.59121 0.32461
 C652 C 1.00071 0.57961 0.31871
 N653 N 0.97963 0.58691 0.33043
 N654 N 0.98047 0.60494 0.34737
 C655 C 0.99979 0.55916 0.30019
 C656 C 0.97703 0.54726 0.29419
 C657 C 0.97621 0.52756 0.27716
 C658 C 0.99801 0.51964 0.26497
 C659 C 1.02093 0.53099 0.27182
 C660 C 1.02174 0.55072 0.28885
 H661 H 0.96386 0.63342 0.38128
 H662 H 0.96541 0.66487 0.41346
 H663 H 1.04444 0.67611 0.40089
 H664 H 1.04307 0.64412 0.36893
 H665 H 0.95978 0.55287 0.30290
 H666 H 0.95842 0.51828 0.27364
 H667 H 1.03846 0.52429 0.26447
 H668 H 1.03970 0.55899 0.29344
 C669 C 1.13229 0.49507 0.12227
 C670 C 1.14300 0.47158 0.11456
 C671 C 1.16070 0.47161 0.09610
 C672 C 1.16825 0.49522 0.08462
 C673 C 1.15756 0.51877 0.09282
 C674 C 1.13993 0.51866 0.11128
 C675 C 1.11302 0.49505 0.14141
 N676 N 1.10234 0.51780 0.14843
 N677 N 1.08473 0.51782 0.16532
 C678 C 1.07701 0.49509 0.17594
 N679 N 1.08774 0.47233 0.16898
 N680 N 1.10536 0.47230 0.15207
 C681 C 1.05716 0.49519 0.19452
 C682 C 1.04902 0.47173 0.20548
 C683 C 1.03011 0.47187 0.22279
 C684 C 1.01927 0.49560 0.23027
 C685 C 1.02677 0.51886 0.21831
 C686 C 1.04568 0.51873 0.20105
 H687 H 1.13745 0.45300 0.12255
 H688 H 1.16744 0.45279 0.09030
 H689 H 1.16326 0.53767 0.08568
 H690 H 1.13231 0.53721 0.11696
 H691 H 1.05701 0.45313 0.20045
 H692 H 1.02372 0.45321 0.22995
 H693 H 1.01789 0.53731 0.22231
 H694 H 1.05104 0.53713 0.19261
 C695 C 0.63139 -0.01078 0.64243
 C696 C 0.61636 -0.03277 0.64757
 C697 C 0.59836 -0.03197 0.66569
 C698 C 0.59440 -0.00885 0.67864
 C699 C 0.60998 0.01298 0.67375
 C700 C 0.62848 0.01189 0.65604
 C701 C 0.64882 -0.01103 0.62195
 N702 N 0.67091 0.00220 0.62244
 N703 N 0.68613 0.00250 0.60349
 C704 C 0.67959 -0.01007 0.58327
 N705 N 0.65750 -0.02323 0.58282
 N706 N 0.64248 -0.02384 0.60183
 C707 C 0.69570 -0.00907 0.56187
 C708 C 0.68489 -0.00664 0.53940
 C709 C 0.69968 -0.00662 0.51884
 C710 C 0.72576 -0.01063 0.52001
 C711 C 0.73652 -0.01165 0.54292
 C712 C 0.72170 -0.01083 0.56355
 H713 H 0.61849 -0.05060 0.63748
 H714 H 0.58740 -0.04947 0.66933
 H715 H 0.60737 0.03129 0.68295
 H716 H 0.63973 0.02919 0.65224
 H717 H 0.66489 -0.00433 0.53774
 H718 H 0.69024 -0.00330 0.50222
 H719 H 0.75652 -0.01368 0.54480
 H720 H 0.73049 -0.01237 0.58079
 C721 C -0.13424 0.50549 0.87929
 C722 C -0.14214 0.48217 0.89072
 C723 C -0.15992 0.48271 0.90906
 C724 C -0.17025 0.50657 0.91643
 C725 C -0.16246 0.52988 0.90496
 C726 C -0.14468 0.52935 0.88658
 C727 C -0.11503 0.50488 0.86011
 N728 N -0.10721 0.52732 0.84903
 N729 N -0.08969 0.52676 0.83204
 C730 C -0.07924 0.50374 0.82540
 N731 N -0.08713 0.48130 0.83643
 N732 N -0.10463 0.48186 0.85341
 C733 C -0.05946 0.50312 0.80676
 C734 C -0.04814 0.47937 0.80056
 C735 C -0.02915 0.47883 0.78337
 C736 C -0.02140 0.50187 0.77120
 C737 C -0.03219 0.52578 0.77826
 C738 C -0.05117 0.52633 0.79547
 H739 H -0.13447 0.46344 0.88564
 H740 H -0.16525 0.46445 0.91777
 H741 H -0.17029 0.54854 0.91006
 H742 H -0.13909 0.54768 0.87814
 H743 H -0.05365 0.46115 0.80925
 H744 H -0.02032 0.46027 0.77969
 H745 H -0.02566 0.54429 0.77087
 H746 H -0.05905 0.54507 0.80021
 C747 C 0.38437 0.00492 0.36463
 C748 C 0.39177 -0.01905 0.35478
 C749 C 0.40924 -0.01965 0.33614
 C750 C 0.41987 0.00369 0.32699
 C751 C 0.41225 0.02768 0.33667
 C752 C 0.39466 0.02830 0.35522
 C753 C 0.36629 0.00548 0.38480
 N754 N 0.35666 0.02850 0.39248
 N755 N 0.34057 0.02897 0.41071
 C756 C 0.33351 0.00646 0.42212
 N757 N 0.34316 -0.01655 0.41445
 N758 N 0.35918 -0.01703 0.39618
 C759 C 0.31555 0.00692 0.44239
 C760 C 0.31102 -0.01573 0.45623
 C761 C 0.29384 -0.01543 0.47507
 C762 C 0.27981 0.00721 0.48014
 C763 C 0.28557 0.03029 0.46701
 C764 C 0.30291 0.03003 0.44825
 H765 H 0.38407 -0.03742 0.36144
 H766 H 0.41435 -0.03844 0.32884
 H767 H 0.42031 0.04600 0.33031
 H768 H 0.38946 0.04710 0.36244
 H769 H 0.32089 -0.03373 0.45263
 H770 H 0.29117 -0.03315 0.48561
 H771 H 0.27706 0.04881 0.47131
 H772 H 0.30643 0.04804 0.43836
 C773 C 0.13594 0.50071 0.87749
 C774 C 0.14239 0.52395 0.88924
 C775 C 0.15963 0.52360 0.90775
 C776 C 0.17083 0.50001 0.91493
 C777 C 0.16466 0.47684 0.90297
 C778 C 0.14742 0.47718 0.88447
 C779 C 0.11703 0.50090 0.85840
 N780 N 0.10999 0.47830 0.84773
 N781 N 0.09259 0.47837 0.83096
 C782 C 0.08147 0.50105 0.82412
 N783 N 0.08859 0.52368 0.83471
 N784 N 0.10598 0.52360 0.85149
 C785 C 0.06173 0.50105 0.80580
 C786 C 0.05033 0.52454 0.79872
 C787 C 0.03137 0.52446 0.78184
 C788 C 0.02372 0.50101 0.77089
 C789 C 0.03457 0.47739 0.77887
 C790 C 0.05355 0.47747 0.79574
 H791 H 0.13389 0.54242 0.88437
 H792 H 0.16377 0.54172 0.91680
 H793 H 0.17325 0.45842 0.90786
 H794 H 0.14301 0.45893 0.87575
 H795 H 0.05578 0.54303 0.80645
 H796 H 0.02250 0.54286 0.77743
 H797 H 0.02811 0.45863 0.77248
 H798 H 0.06148 0.45891 0.80120
 C799 C 0.63063 -0.00510 0.35500
 C800 C 0.62656 0.01864 0.34272
 C801 C 0.60824 0.02032 0.32519
 C802 C 0.59375 -0.00175 0.31945
 C803 C 0.59815 -0.02557 0.33142
 C804 C 0.61632 -0.02722 0.34900
 C805 C 0.64902 -0.00671 0.37451
 N806 N 0.65020 -0.02851 0.38853
 N807 N 0.66597 -0.02973 0.40666
 C808 C 0.68133 -0.00924 0.41153
 N809 N 0.68035 0.01250 0.39737
 N810 N 0.66450 0.01375 0.37926
 C811 C 0.69799 -0.01028 0.43243
 C812 C 0.71628 0.00910 0.43593
 C813 C 0.73113 0.00868 0.45628
 C814 C 0.72746 -0.01063 0.47425
 C815 C 0.71005 -0.03088 0.46972
 C816 C 0.69543 -0.03058 0.44934
 H817 H 0.63725 0.03606 0.34689
 H818 H 0.60540 0.03888 0.31610
 H819 H 0.58706 -0.04283 0.32763
 H820 H 0.61894 -0.04583 0.35806
 H821 H 0.71926 0.02458 0.42284
 H822 H 0.74555 0.02345 0.45744
 H823 H 0.70733 -0.04673 0.48249
 H824 H 0.68180 -0.04609 0.44708
 C825 C 0.86215 0.50087 0.12452
 C826 C 0.85449 0.52493 0.11467
 C827 C 0.83732 0.52563 0.09611
 C828 C 0.82733 0.50230 0.08699
 C829 C 0.83476 0.47825 0.09702
 C830 C 0.85198 0.47754 0.11554
 C831 C 0.88095 0.50010 0.14372
 N832 N 0.89000 0.47689 0.15185
 N833 N 0.90730 0.47623 0.16872
 C834 C 0.91627 0.49874 0.17821
 N835 N 0.90712 0.52194 0.17017
 N836 N 0.88985 0.52260 0.15328
 C837 C 0.93595 0.49804 0.19658
 C838 C 0.94443 0.52126 0.20709
 C839 C 0.96346 0.52071 0.22391
 C840 C 0.97417 0.49679 0.23131
 C841 C 0.96617 0.47370 0.21996
 C842 C 0.94709 0.47425 0.20321
 H843 H 0.86200 0.54327 0.12107
 H844 H 0.83227 0.54446 0.08856
 H845 H 0.82713 0.45995 0.09065
 H846 H 0.85734 0.45866 0.12278
 H847 H 0.93666 0.54004 0.20203
 H848 H 0.97012 0.53923 0.23064
 H849 H 0.97492 0.45511 0.22391
 H850 H 0.94143 0.45602 0.19511
 C851 C 0.38265 0.00510 0.63761
 C852 C 0.39268 0.02867 0.64621
 C853 C 0.41048 0.02841 0.66424
 C854 C 0.41878 0.00458 0.67407
 C855 C 0.40853 -0.01898 0.66567
 C856 C 0.39065 -0.01872 0.64770
 C857 C 0.36428 0.00534 0.61800
 N858 N 0.35305 -0.01718 0.61092
 N859 N 0.33685 -0.01701 0.59308
 C860 C 0.33123 0.00567 0.58149
 N861 N 0.34243 0.02820 0.58859
 N862 N 0.35859 0.02804 0.60647
 C863 C 0.31337 0.00583 0.56145
 C864 C 0.30965 0.02870 0.54784
 C865 C 0.29296 0.02879 0.52890
 C866 C 0.27873 0.00630 0.52341
 C867 C 0.28340 -0.01690 0.53656
 C868 C 0.30020 -0.01702 0.55543
 H869 H 0.38682 0.04738 0.63899
 H870 H 0.41768 0.04693 0.67056
 H871 H 0.41476 -0.03769 0.67258
 H872 H 0.38340 -0.03726 0.64147
 H873 H 0.31986 0.04654 0.55162
 H874 H 0.29098 0.04663 0.51848
 H875 H 0.27454 -0.03527 0.53210
 H876 H 0.30302 -0.03517 0.56519
   
