data_POSCAR
  _audit_creation_date              2014-09-24
  _audit_creation_method            'ToBaCCo'
  _symmetry_space_group_name_H-M    'P1'
  _symmetry_Int_Tables_number       1
  _symmetry_cell_setting            triclinic
  loop_
  _symmetry_equiv_pos_as_xyz
 x,y,z
_cell_length_a 33.8099
_cell_length_b 36.8785
_cell_length_c 34.1129
_cell_angle_alpha 89.982000
_cell_angle_beta 89.873000
_cell_angle_gamma 90.049300
loop_
  _atom_site_label
  _atom_site_type_symbol
  _atom_site_fract_x
  _atom_site_fract_y
  _atom_site_fract_z
Si1 Si 1.24797 0.25007 0.25241
 Si2 Si 0.75060 -0.24987 0.24962
 Si3 Si 0.75023 0.24919 -0.24939
 Si4 Si 1.24946 -0.25138 -0.25120
 Si5 Si 0.24974 0.25126 0.74791
 Si6 Si 0.75032 0.75047 0.75048
 Si7 Si 0.75150 0.24972 0.24949
 Si8 Si 0.24921 0.75039 0.25157
 N9 N 1.07260 0.03749 0.04221
 N10 N 1.09969 0.06224 0.04992
 N11 N 1.04528 -0.03910 0.06897
 N12 N 1.05359 -0.06333 0.09626
 N13 N 1.07302 -0.03861 0.04193
 N14 N 1.10102 -0.06237 0.05028
 N15 N 1.04511 0.03726 0.06947
 N16 N 1.05262 0.06205 0.09636
 C17 C 1.08655 0.07757 0.08353
 C18 C 1.08820 -0.07790 0.08398
 N19 N 0.93206 -0.03842 0.04217
 N20 N 0.90444 -0.06269 0.05001
 N21 N 0.95984 0.03713 0.06992
 N22 N 0.95197 0.06130 0.09738
 N23 N 0.93258 0.03777 0.04255
 N24 N 0.90553 0.06252 0.05059
 N25 N 0.95979 -0.03905 0.06908
 N26 N 0.95184 -0.06388 0.09587
 Mn27 Mn 1.00251 -0.00098 0.06972
 C28 C 0.91745 -0.07861 0.08330
 C29 C 0.91829 0.07718 0.08467
 N30 N 1.07261 -0.03810 -0.04276
 N31 N 1.09989 -0.06261 -0.05067
 N32 N 1.04498 0.03780 -0.06971
 N33 N 1.05271 0.06228 -0.09688
 N34 N 1.07237 0.03812 -0.04246
 N35 N 1.09941 0.06299 -0.05034
 N36 N 1.04485 -0.03837 -0.06965
 N37 N 1.05242 -0.06320 -0.09649
 Mn38 Mn 1.07301 -0.00025 -0.00029
 C39 C 1.08663 -0.07828 -0.08400
 C40 C 1.08646 0.07804 -0.08417
 N41 N 0.93239 0.03820 -0.04210
 N42 N 0.90513 0.06282 -0.04988
 N43 N 0.95946 -0.03817 -0.06965
 N44 N 0.95133 -0.06236 -0.09698
 N45 N 0.93200 -0.03821 -0.04236
 N46 N 0.90457 -0.06265 -0.05028
 N47 N 0.95965 0.03792 -0.06959
 N48 N 0.95155 0.06217 -0.09689
 Mn49 Mn 0.93189 -0.00013 0.00007
 Mn50 Mn 1.00226 -0.00024 -0.06998
 Cl51 Cl 1.00241 -0.00041 -0.00011
 C52 C 0.91775 0.07778 -0.08394
 C53 C 0.91730 -0.07771 -0.08424
 N54 N 1.06804 0.53944 0.54209
 N55 N 1.09435 0.56491 0.54971
 N56 N 1.04186 0.46210 0.56825
 N57 N 1.04970 0.43684 0.59452
 N58 N 1.06971 0.46333 0.54139
 N59 N 1.09735 0.43902 0.54873
 N60 N 1.04088 0.53823 0.56965
 N61 N 1.04805 0.56276 0.59687
 C62 C 1.08121 0.57939 0.58375
 C63 C 1.08419 0.42248 0.58170
 N64 N 0.92880 0.46168 0.54160
 N65 N 0.90139 0.43717 0.54938
 N66 N 0.95578 0.53727 0.56980
 N67 N 0.94806 0.56157 0.59711
 N68 N 0.92854 0.53786 0.54242
 N69 N 0.90156 0.56268 0.55033
 N70 N 0.95658 0.46112 0.56844
 N71 N 0.94891 0.43611 0.59511
 Mn72 Mn 0.99878 0.49961 0.56941
 C73 C 0.91463 0.42118 0.58256
 C74 C 0.91441 0.57743 0.58434
 N75 N 1.06973 0.46416 0.45708
 N76 N 1.09677 0.43925 0.44997
 N77 N 1.04123 0.53972 0.43014
 N78 N 1.04908 0.56404 0.40279
 N79 N 1.06845 0.54031 0.45754
 N80 N 1.09552 0.56511 0.44957
 N81 N 1.04208 0.46352 0.43013
 N82 N 1.04946 0.43806 0.40395
 Mn83 Mn 1.06937 0.50188 0.49953
 C84 C 1.08349 0.42304 0.41697
 C85 C 1.08275 0.57994 0.41556
 N86 N 0.92873 0.53866 0.45777
 N87 N 0.90173 0.56359 0.45036
 N88 N 0.95679 0.46275 0.43000
 N89 N 0.94937 0.43823 0.40284
 N90 N 0.92919 0.46237 0.45714
 N91 N 0.90236 0.43737 0.44932
 N92 N 0.95615 0.53871 0.43043
 N93 N 0.94855 0.56351 0.40367
 Mn94 Mn 0.92839 0.50020 0.49972
 Mn95 Mn 0.99906 0.50112 0.42981
 Cl96 Cl 0.99888 0.50071 0.49962
 C97 C 0.91480 0.57903 0.41672
 C98 C 0.91562 0.42237 0.41556
 N99 N 0.56952 0.03767 0.54244
 N100 N 0.59677 0.06210 0.55092
 N101 N 0.54238 -0.03943 0.56831
 N102 N 0.55045 -0.06410 0.59517
 N103 N 0.57027 -0.03852 0.54146
 N104 N 0.59816 -0.06243 0.54946
 N105 N 0.54217 0.03674 0.56984
 N106 N 0.55021 0.06038 0.59778
 C107 C 0.58406 0.07629 0.58531
 C108 C 0.58508 -0.07845 0.58275
 N109 N 0.42948 -0.03909 0.54107
 N110 N 0.40191 -0.06345 0.54876
 N111 N 0.45681 0.03639 0.56956
 N112 N 0.44878 0.06039 0.59714
 N113 N 0.42965 0.03709 0.54208
 N114 N 0.40250 0.06172 0.55018
 N115 N 0.45714 -0.03975 0.56803
 N116 N 0.44927 -0.06472 0.59466
 Mn117 Mn 0.49961 -0.00155 0.56927
 C118 C 0.41497 -0.07948 0.58197
 C119 C 0.41509 0.07623 0.58441
 N120 N 0.57049 -0.03758 0.45692
 N121 N 0.59808 -0.06175 0.44887
 N122 N 0.54257 0.03848 0.43048
 N123 N 0.55067 0.06302 0.40343
 N124 N 0.56995 0.03840 0.45774
 N125 N 0.59756 0.06266 0.44980
 N126 N 0.54290 -0.03782 0.42986
 N127 N 0.55087 -0.06231 0.40278
 Mn128 Mn 0.57040 0.00003 0.49964
 C129 C 0.58516 -0.07721 0.41529
 C130 C 0.58482 0.07810 0.41615
 N131 N 0.42995 0.03796 0.45741
 N132 N 0.40254 0.06235 0.44951
 N133 N 0.45744 -0.03811 0.42931
 N134 N 0.44935 -0.06199 0.40159
 N135 N 0.42981 -0.03838 0.45644
 N136 N 0.40231 -0.06261 0.44800
 N137 N 0.45738 0.03794 0.43008
 N138 N 0.44929 0.06216 0.40279
 Mn139 Mn 0.42935 -0.00057 0.49926
 Mn140 Mn 0.50010 0.00009 0.42959
 Cl141 Cl 0.49985 -0.00049 0.49944
 C142 C 0.41530 0.07745 0.41559
 C143 C 0.41514 -0.07737 0.41392
 N144 N 0.45560 0.56356 -0.03997
 N145 N 0.44730 0.58909 -0.06571
 N146 N 0.42855 0.53981 0.04337
 N147 N 0.40032 0.54923 0.06828
 N148 N 0.45635 0.56472 0.04231
 N149 N 0.44772 0.59165 0.06630
 N150 N 0.42742 0.53903 -0.03897
 N151 N 0.39896 0.54748 -0.06383
 C152 C 0.41219 0.57847 -0.08068
 C153 C 0.41308 0.58140 0.08277
 N154 N 0.45634 0.43635 0.04370
 N155 N 0.44835 0.41063 0.06939
 N156 N 0.42727 0.46047 -0.03830
 N157 N 0.39905 0.45191 -0.06343
 N158 N 0.45530 0.43581 -0.03873
 N159 N 0.44714 0.41011 -0.06433
 N160 N 0.42847 0.46116 0.04388
 N161 N 0.40056 0.45270 0.06946
 Mn162 Mn 0.42755 0.50010 0.00252
 C163 C 0.41378 0.42143 0.08555
 C164 C 0.41225 0.42069 -0.07981
 N165 N 0.54158 0.56418 0.04119
 N166 N 0.55021 0.59028 0.06617
 N167 N 0.56864 0.53880 -0.04115
 N168 N 0.59711 0.54778 -0.06593
 N169 N 0.54065 0.56349 -0.04119
 N170 N 0.54915 0.58964 -0.06622
 N171 N 0.56949 0.53940 0.04094
 N172 N 0.59806 0.54826 0.06551
 Mn173 Mn 0.49856 0.56418 0.00058
 C174 C 0.58522 0.57975 0.08143
 C175 C 0.58411 0.57923 -0.08181
 N176 N 0.54043 0.43550 -0.04005
 N177 N 0.54871 0.40911 -0.06487
 N178 N 0.56943 0.46079 0.04165
 N179 N 0.59829 0.45183 0.06586
 N180 N 0.54136 0.43614 0.04238
 N181 N 0.55014 0.41006 0.06733
 N182 N 0.56847 0.46020 -0.04050
 N183 N 0.59672 0.45101 -0.06542
 Mn184 Mn 0.49833 0.43573 0.00181
 Mn185 Mn 0.56934 0.49980 0.00024
 Cl186 Cl 0.49844 0.49996 0.00131
 C187 C 0.58359 0.41939 -0.08085
 C188 C 0.58542 0.42044 0.08212
 C189 C 1.17407 0.17832 0.17248
 N190 N 1.15727 0.19540 0.20355
 N191 N 1.17876 0.21692 0.22649
 C192 C 1.21781 0.22204 0.21925
 N193 N 1.23470 0.20498 0.18826
 N194 N 1.21317 0.18357 0.16517
 C195 C 1.15067 0.15347 0.14823
 N196 N 1.16637 0.13846 0.11537
 N197 N 1.14559 0.11478 0.09428
 C198 C 1.10846 0.10518 0.10541
 N199 N 1.09268 0.12030 0.13813
 N200 N 1.11338 0.14411 0.15911
 C201 C 1.17002 0.67871 0.67271
 N202 N 1.16381 0.68111 0.71194
 N203 N 1.18701 0.70181 0.73410
 C204 C 1.21702 0.72096 0.71774
 N205 N 1.22319 0.71878 0.67854
 N206 N 1.20014 0.69788 0.65638
 C207 C 1.14560 0.65459 0.64876
 N208 N 1.15593 0.64700 0.61118
 N209 N 1.13493 0.62348 0.59014
 C210 C 1.10273 0.60696 0.60588
 N211 N 1.09210 0.61487 0.64327
 N212 N 1.11324 0.63822 0.66438
 C213 C 0.67374 0.17459 0.67592
 N214 N 0.66741 0.17741 0.71514
 N215 N 0.68976 0.19923 0.73700
 C216 C 0.71904 0.21917 0.72036
 N217 N 0.72537 0.21646 0.68119
 N218 N 0.70319 0.19447 0.65937
 C219 C 0.64966 0.14993 0.65193
 N220 N 0.65996 0.14263 0.61425
 N221 N 0.63879 0.11946 0.59284
 C222 C 0.60638 0.10299 0.60825
 N223 N 0.59588 0.11050 0.64581
 N224 N 0.61719 0.13348 0.66729
 C225 C 0.67664 0.67244 0.17645
 N226 N 0.65925 0.70024 0.19603
 N227 N 0.68089 0.72316 0.21719
 C228 C 0.72069 0.71930 0.21923
 N229 N 0.73817 0.69167 0.19953
 N230 N 0.71652 0.66858 0.17853
 C231 C 0.65267 0.64741 0.15300
 N232 N 0.66889 0.61710 0.13709
 N233 N 0.64717 0.59494 0.11500
 C234 C 0.60853 0.60241 0.10798
 N235 N 0.59230 0.63261 0.12401
 N236 N 0.61393 0.65462 0.14627
 C237 C 0.82705 -0.17772 0.17219
 N238 N 0.78771 -0.18128 0.16524
 N239 N 0.76543 -0.20260 0.18782
 C240 C 0.78176 -0.22124 0.21795
 N241 N 0.82108 -0.21787 0.22486
 N242 N 0.84334 -0.19639 0.20243
 C243 C 0.85126 -0.15323 0.14813
 N244 N 0.88895 -0.14509 0.15866
 N245 N 0.91031 -0.12168 0.13768
 C246 C 0.89483 -0.10579 0.10527
 N247 N 0.85731 -0.11419 0.09451
 N248 N 0.83588 -0.13743 0.11561
 C249 C 0.82567 0.32133 0.67199
 N250 N 0.78608 0.31839 0.66616
 N251 N 0.76415 0.29705 0.68903
 C252 C 0.78106 0.27772 0.71834
 N253 N 0.82062 0.28048 0.72415
 N254 N 0.84254 0.30200 0.70143
 C255 C 0.84950 0.34594 0.64768
 N256 N 0.88739 0.35393 0.65759
 N257 N 0.90840 0.37753 0.63648
 C258 C 0.89235 0.39375 0.60454
 N259 N 0.85462 0.38549 0.59438
 N260 N 0.83354 0.36208 0.61562
 C261 C 0.32523 -0.17830 0.67161
 N262 N 0.28555 -0.18062 0.66615
 N263 N 0.26356 -0.20205 0.68885
 C264 C 0.28049 -0.22207 0.71760
 N265 N 0.32013 -0.21986 0.72306
 N266 N 0.34212 -0.19824 0.70054
 C267 C 0.34920 -0.15390 0.64730
 N268 N 0.38726 -0.14643 0.65700
 N269 N 0.40848 -0.12309 0.63579
 C270 C 0.39247 -0.10666 0.60396
 N271 N 0.35457 -0.11441 0.59401
 N272 N 0.33327 -0.13756 0.61536
 C273 C 0.32314 0.32935 0.18239
 N274 N 0.28323 0.33309 0.18402
 N275 N 0.26128 0.30968 0.20436
 C276 C 0.27850 0.28183 0.22385
 N277 N 0.31836 0.27812 0.22243
 N278 N 0.34031 0.30139 0.20188
 C279 C 0.34721 0.35446 0.15900
 N280 N 0.38587 0.34713 0.15176
 N281 N 0.40730 0.36898 0.12899
 C282 C 0.39094 0.39910 0.11295
 N283 N 0.35242 0.40671 0.12056
 N284 N 0.33091 0.38472 0.14314
 C285 C 0.82786 0.17702 -0.17315
 N286 N 0.79835 0.19694 -0.15676
 N287 N 0.77591 0.21851 -0.17885
 C288 C 0.78206 0.22070 -0.21810
 N289 N 0.81142 0.20077 -0.23450
 N290 N 0.83403 0.17943 -0.21241
 C291 C 0.85211 0.15245 -0.14919
 N292 N 0.88461 0.13629 -0.16477
 N293 N 0.90592 0.11305 -0.14367
 C294 C 0.89540 0.10492 -0.10627
 N295 N 0.86298 0.12114 -0.09059
 N296 N 0.84179 0.14459 -0.11162
 C297 C 0.82707 0.67880 0.32718
 N298 N 0.79643 0.69773 0.34282
 N299 N 0.77429 0.71908 0.32027
 C300 C 0.78192 0.72201 0.28135
 N301 N 0.81242 0.70307 0.26569
 N302 N 0.83471 0.68193 0.28825
 C303 C 0.85081 0.65437 0.35147
 N304 N 0.88395 0.63884 0.33657
 N305 N 0.90475 0.61540 0.35782
 C306 C 0.89305 0.60650 0.39464
 N307 N 0.86002 0.62213 0.40969
 N308 N 0.83931 0.64578 0.38850
 C309 C 0.32494 0.17563 0.32621
 N310 N 0.29483 0.19454 0.34281
 N311 N 0.27246 0.21644 0.32117
 C312 C 0.27926 0.22001 0.28218
 N313 N 0.30919 0.20104 0.26547
 N314 N 0.33175 0.17929 0.28716
 C315 C 0.34921 0.15111 0.34996
 N316 N 0.38216 0.13557 0.33463
 N317 N 0.40365 0.11260 0.35588
 C318 C 0.39284 0.10424 0.39314
 N319 N 0.35997 0.11983 0.40854
 N320 N 0.33861 0.14298 0.38737
 C321 C 0.32235 0.67031 -0.17790
 N322 N 0.28236 0.66722 -0.17945
 N323 N 0.26106 0.69045 -0.20058
 C324 C 0.27901 0.71745 -0.22095
 N325 N 0.31892 0.72053 -0.21948
 N326 N 0.34022 0.69746 -0.19818
 C327 C 0.34591 0.64531 -0.15406
 N328 N 0.38483 0.65202 -0.14773
 N329 N 0.40607 0.63021 -0.12492
 C330 C 0.38926 0.60070 -0.10793
 N331 N 0.35044 0.59369 -0.11457
 N332 N 0.32910 0.61567 -0.13722
 C333 C 1.17499 -0.17828 -0.17327
 N334 N 1.15813 -0.19681 -0.20330
 N335 N 1.17985 -0.21855 -0.22589
 C336 C 1.21917 -0.22230 -0.21936
 N337 N 1.23610 -0.20380 -0.18944
 N338 N 1.21435 -0.18223 -0.16670
 C339 C 1.15135 -0.15355 -0.14907
 N340 N 1.16719 -0.13789 -0.11670
 N341 N 1.14622 -0.11442 -0.09549
 C342 C 1.10874 -0.10566 -0.10602
 N343 N 1.09282 -0.12141 -0.13829
 N344 N 1.11372 -0.14504 -0.15938
 C345 C 1.17162 0.32085 0.33097
 N346 N 1.15524 0.30256 0.30054
 N347 N 1.17738 0.28116 0.27800
 C348 C 1.21661 0.27744 0.28505
 N349 N 1.23302 0.29574 0.31539
 N350 N 1.21087 0.31698 0.33808
 C351 C 1.14779 0.34577 0.35460
 N352 N 1.16338 0.36176 0.38689
 N353 N 1.14247 0.38585 0.40728
 C354 C 1.10533 0.39491 0.39596
 N355 N 1.08960 0.37878 0.36383
 N356 N 1.11045 0.35454 0.34355
 C357 C 0.67499 -0.17574 0.32559
 N358 N 0.65820 -0.19540 0.29638
 N359 N 0.68017 -0.21728 0.27418
 C360 C 0.71967 -0.22005 0.28026
 N361 N 0.73650 -0.20029 0.30929
 N362 N 0.71453 -0.17860 0.33166
 C363 C 0.65103 -0.15123 0.34972
 N364 N 0.66675 -0.13528 0.38199
 N365 N 0.64542 -0.11220 0.40333
 C366 C 0.60770 -0.10413 0.39305
 N367 N 0.59191 -0.12014 0.36087
 N368 N 0.61316 -0.14341 0.33966
 C369 C 0.67478 0.32640 -0.17661
 N370 N 0.65774 0.29839 -0.19619
 N371 N 0.67971 0.27562 -0.21736
 C372 C 0.71951 0.27987 -0.21937
 N373 N 0.73660 0.30773 -0.19973
 N374 N 0.71462 0.33063 -0.17877
 C375 C 0.65064 0.35139 -0.15301
 N376 N 0.66681 0.38194 -0.13756
 N377 N 0.64521 0.40410 -0.11529
 C378 C 0.60670 0.39644 -0.10755
 N379 N 0.59049 0.36599 -0.12310
 N380 N 0.61201 0.34396 -0.14556
 C381 C 1.17392 0.17849 -0.17449
 N382 N 1.20345 0.19870 -0.15865
 N383 N 1.22530 0.22050 -0.18117
 C384 C 1.21852 0.22265 -0.22028
 N385 N 1.18913 0.20243 -0.23613
 N386 N 1.16711 0.18085 -0.21362
 C387 C 1.15036 0.15363 -0.15014
 N388 N 1.11778 0.13725 -0.16516
 N389 N 1.09707 0.11369 -0.14378
 C390 C 1.10829 0.10547 -0.10666
 N391 N 1.14079 0.12191 -0.09152
 N392 N 1.16139 0.14569 -0.11284
 C393 C 1.17193 0.67987 0.32603
 N394 N 1.20423 0.69636 0.34151
 N395 N 1.22679 0.71797 0.31954
 C396 C 1.21790 0.72397 0.28132
 N397 N 1.18578 0.70728 0.26574
 N398 N 1.16310 0.68576 0.28773
 C399 C 1.14780 0.65507 0.34996
 N400 N 1.11423 0.64015 0.33527
 N401 N 1.09312 0.61671 0.35648
 C402 C 1.10486 0.60725 0.39312
 N403 N 1.13832 0.62228 0.40790
 N404 N 1.15934 0.64583 0.38675
 C405 C 0.67550 0.17630 0.32634
 N406 N 0.71498 0.17945 0.33273
 N407 N 0.73709 0.20097 0.31021
 C408 C 0.72047 0.22026 0.28069
 N409 N 0.68104 0.21720 0.27431
 N410 N 0.65894 0.19551 0.29666
 C411 C 0.65133 0.15189 0.35054
 N412 N 0.61354 0.14394 0.34023
 N413 N 0.59209 0.12078 0.36145
 C414 C 0.60758 0.10499 0.39391
 N415 N 0.64522 0.11319 0.40443
 N416 N 0.66675 0.13617 0.38308
 C417 C 0.67576 0.67309 -0.17596
 N418 N 0.71565 0.66925 -0.17802
 N419 N 0.73741 0.69236 -0.19898
 C420 C 0.72006 0.72004 -0.21867
 N421 N 0.68025 0.72393 -0.21663
 N422 N 0.65849 0.70097 -0.19548
 C423 C 0.65169 0.64780 -0.15273
 N424 N 0.61287 0.65481 -0.14598
 N425 N 0.59120 0.63250 -0.12397
 C426 C 0.60745 0.60219 -0.10824
 N427 N 0.64617 0.59493 -0.11528
 N428 N 0.66792 0.61738 -0.13711
 C429 C 0.82763 -0.17671 -0.17386
 N430 N 0.79758 -0.19604 -0.15759
 N431 N 0.77522 -0.21771 -0.17962
 C432 C 0.78198 -0.22060 -0.21870
 N433 N 0.81194 -0.20130 -0.23502
 N434 N 0.83446 -0.17983 -0.21297
 C435 C 0.85176 -0.15211 -0.14987
 N436 N 0.88463 -0.13629 -0.16514
 N437 N 0.90588 -0.11309 -0.14390
 C438 C 0.89494 -0.10472 -0.10669
 N439 N 0.86214 -0.12059 -0.09134
 N440 N 0.84101 -0.14398 -0.11251
 C441 C 0.82801 0.32227 0.32591
 N442 N 0.79724 0.30361 0.34175
 N443 N 0.77508 0.28199 0.31950
 C444 C 0.78279 0.27850 0.28066
 N445 N 0.81346 0.29713 0.26479
 N446 N 0.83577 0.31857 0.28706
 C447 C 0.85174 0.34695 0.35002
 N448 N 0.88479 0.36270 0.33506
 N449 N 0.90558 0.38620 0.35633
 C450 C 0.89397 0.39492 0.39323
 N451 N 0.86103 0.37908 0.40830
 N452 N 0.84035 0.35540 0.38710
 C453 C 0.32548 -0.17682 0.32426
 N454 N 0.29314 -0.19314 0.34000
 N455 N 0.27080 -0.21523 0.31846
 C456 C 0.27992 -0.22190 0.28039
 N457 N 0.31209 -0.20539 0.26450
 N458 N 0.33456 -0.18337 0.28608
 C459 C 0.34957 -0.15181 0.34797
 N460 N 0.38339 -0.13716 0.33333
 N461 N 0.40460 -0.11387 0.35457
 C462 C 0.39273 -0.10429 0.39119
 N463 N 0.35900 -0.11900 0.40588
 N464 N 0.33788 -0.14239 0.38471
 C465 C 0.32336 0.32931 -0.17893
 N466 N 0.28347 0.33289 -0.18108
 N467 N 0.26207 0.30983 -0.20234
 C468 C 0.27979 0.28247 -0.22228
 N469 N 0.31965 0.27890 -0.22032
 N470 N 0.34105 0.30184 -0.19886
 C471 C 0.34685 0.35415 -0.15465
 N472 N 0.38552 0.34709 -0.14734
 N473 N 0.40647 0.36876 -0.12403
 C474 C 0.38964 0.39845 -0.10746
 N475 N 0.35108 0.40578 -0.11508
 N476 N 0.33004 0.38397 -0.13822
 C477 C 1.17752 -0.17659 0.17495
 N478 N 1.21682 -0.18127 0.16821
 N479 N 1.23819 -0.20316 0.19096
 C480 C 1.22101 -0.22136 0.22112
 N481 N 1.18176 -0.21673 0.22784
 N482 N 1.16043 -0.19472 0.20524
 C483 C 1.15396 -0.15177 0.15048
 N484 N 1.11618 -0.14341 0.16060
 N485 N 1.09512 -0.12021 0.13915
 C486 C 1.11094 -0.10467 0.10661
 N487 N 1.14861 -0.11321 0.09629
 N488 N 1.16976 -0.13628 0.11787
 C489 C 1.17363 0.32239 0.66951
 N490 N 1.21324 0.31985 0.66352
 N491 N 1.23537 0.29872 0.68629
 C492 C 1.21861 0.27921 0.71565
 N493 N 1.17903 0.28154 0.72159
 N494 N 1.15691 0.30286 0.69897
 C495 C 1.14964 0.34694 0.64549
 N496 N 1.11169 0.35453 0.65563
 N497 N 1.09057 0.37821 0.63490
 C498 C 1.10658 0.39493 0.60316
 N499 N 1.14437 0.38706 0.59276
 N500 N 1.16556 0.36355 0.61362
 C501 C 0.67517 -0.17629 0.67307
 N502 N 0.71481 -0.17895 0.66732
 N503 N 0.73667 -0.20039 0.69004
 C504 C 0.71963 -0.22007 0.71912
 N505 N 0.68004 -0.21750 0.72484
 N506 N 0.65819 -0.19590 0.70230
 C507 C 0.65124 -0.15197 0.64867
 N508 N 0.61310 -0.14465 0.65835
 N509 N 0.59181 -0.12159 0.63700
 C510 C 0.60780 -0.10525 0.60502
 N511 N 0.64580 -0.11281 0.59510
 N512 N 0.66717 -0.13570 0.61659
 C513 C 0.67733 0.32694 0.17585
 N514 N 0.71724 0.33070 0.17764
 N515 N 0.73892 0.30764 0.19863
 C516 C 0.72145 0.28011 0.21858
 N517 N 0.68162 0.27632 0.21680
 N518 N 0.65994 0.29923 0.19565
 C519 C 0.65329 0.35214 0.15263
 N520 N 0.61438 0.34522 0.14643
 N521 N 0.59265 0.36744 0.12453
 C522 C 0.60893 0.39758 0.10833
 N523 N 0.64776 0.40476 0.11480
 N524 N 0.66957 0.38239 0.13655
 C525 C 0.82914 0.17678 0.17415
 N526 N 0.83548 0.17969 0.21332
 N527 N 0.81287 0.20121 0.23528
 C528 C 0.78331 0.22076 0.21880
 N529 N 0.77703 0.21808 0.17966
 N530 N 0.79948 0.19637 0.15771
 C531 C 0.85325 0.15207 0.15024
 N532 N 0.84284 0.14425 0.11275
 N533 N 0.86387 0.12072 0.09162
 C534 C 0.89621 0.10439 0.10714
 N535 N 0.90684 0.11245 0.14448
 N536 N 0.88568 0.13580 0.16568
 C537 C 0.82675 0.67763 0.67406
 N538 N 0.83436 0.68132 0.71292
 N539 N 0.81212 0.70288 0.73518
 C540 C 0.78166 0.72165 0.71930
 N541 N 0.77410 0.71818 0.68046
 N542 N 0.79620 0.69645 0.65822
 C543 C 0.85043 0.65284 0.64996
 N544 N 0.83921 0.64449 0.61284
 N545 N 0.85989 0.62078 0.59163
 C546 C 0.89263 0.60480 0.60673
 N547 N 0.90405 0.61341 0.64368
 N548 N 0.88327 0.63694 0.66495
 C549 C 0.32633 0.17631 0.67369
 N550 N 0.33280 0.17964 0.71281
 N551 N 0.31051 0.20169 0.73451
 C552 C 0.28118 0.22135 0.71780
 N553 N 0.27473 0.21816 0.67872
 N554 N 0.29685 0.19595 0.65706
 C555 C 0.35019 0.15125 0.64997
 N556 N 0.33975 0.14340 0.61249
 N557 N 0.36068 0.11978 0.59139
 C558 C 0.39296 0.10337 0.60693
 N559 N 0.40360 0.11143 0.64427
 N560 N 0.38254 0.13488 0.66544
 C561 C 0.32211 0.67482 0.17877
 N562 N 0.33017 0.71092 0.17942
 N563 N 0.30832 0.73350 0.20096
 C564 C 0.27779 0.72077 0.22288
 N565 N 0.26974 0.68470 0.22230
 N566 N 0.29140 0.66214 0.20055
 C567 C 0.34613 0.65000 0.15468
 N568 N 0.33464 0.61510 0.14873
 N569 N 0.35607 0.59299 0.12617
 C570 C 0.38997 0.60491 0.10904
 N571 N 0.40158 0.63968 0.11525
 N572 N 0.38005 0.66183 0.13756
   
