data_POSCAR
  _audit_creation_date              2014-09-24
  _audit_creation_method            'ToBaCCo'
  _symmetry_space_group_name_H-M    'P1'
  _symmetry_Int_Tables_number       1
  _symmetry_cell_setting            triclinic
  loop_
  _symmetry_equiv_pos_as_xyz
 x,y,z
_cell_length_a 45.3926
_cell_length_b 45.4064
_cell_length_c 45.3456
_cell_angle_alpha 89.893400
_cell_angle_beta 89.884900
_cell_angle_gamma 90.038300
loop_
  _atom_site_label
  _atom_site_type_symbol
  _atom_site_fract_x
  _atom_site_fract_y
  _atom_site_fract_z
C1 C 0.16957 0.16837 0.20713
 C2 C 0.19497 0.15600 0.19419
 C3 C 0.20796 0.16849 0.16882
 C4 C 0.19500 0.19381 0.15639
 C5 C 0.16969 0.20655 0.16885
 C6 C 0.15718 0.19368 0.19413
 H7 H 0.20472 0.13654 0.20398
 H8 H 0.20464 0.20377 0.13691
 H9 H 0.13768 0.20353 0.20373
 C10 C -0.16931 0.83061 0.20872
 C11 C -0.19461 0.84304 0.19573
 C12 C -0.20742 0.83058 0.17046
 C13 C -0.19462 0.80531 0.15804
 C14 C -0.16939 0.79245 0.17050
 C15 C -0.15692 0.80525 0.19578
 H16 H -0.20450 0.86251 0.20531
 H17 H -0.20436 0.79558 0.13858
 H18 H -0.13749 0.79533 0.20540
 C19 C -0.16926 0.16911 -0.20821
 C20 C -0.19462 0.15666 -0.19520
 C21 C -0.20759 0.16906 -0.16983
 C22 C -0.19464 0.19438 -0.15746
 C23 C -0.16936 0.20722 -0.16998
 C24 C -0.15687 0.19443 -0.19528
 H25 H -0.20437 0.13719 -0.20493
 H26 H -0.20426 0.20426 -0.13798
 H27 H -0.13740 0.20435 -0.20492
 C28 C 0.17029 0.83159 -0.20690
 C29 C 0.15783 0.80633 -0.19401
 C30 C 0.17027 0.79346 -0.16874
 C31 C 0.19556 0.80625 -0.15632
 C32 C 0.20855 0.83160 -0.16879
 C33 C 0.19559 0.84404 -0.19414
 H34 H 0.13836 0.79659 -0.20372
 H35 H 0.20516 0.79631 -0.13685
 H36 H 0.20521 0.86351 -0.20410
 C37 C 0.16935 1.16935 0.79235
 C38 C 0.19463 1.15691 0.80515
 C39 C 0.20747 1.16937 0.83041
 C40 C 0.19463 1.19462 0.84288
 C41 C 0.16935 1.20743 0.83045
 C42 C 0.15689 1.19460 0.80519
 H43 H 0.20439 1.13748 0.79539
 H44 H 0.20438 1.20437 0.86233
 H45 H 0.13743 1.20434 0.79546
 C46 C 0.83177 0.83048 0.79280
 C47 C 0.84416 0.80512 0.80574
 C48 C 0.83170 0.79216 0.83115
 C49 C 0.80638 0.80512 0.84359
 C50 C 0.79362 0.83040 0.83111
 C51 C 0.80646 0.84288 0.80580
 H52 H 0.86362 0.79536 0.79595
 H53 H 0.79644 0.79551 0.86309
 H54 H 0.79659 0.86235 0.79620
 C55 C 0.16819 0.83103 1.20777
 C56 C 0.19355 0.84345 1.19476
 C57 C 0.20641 0.83098 1.16948
 C58 C 0.19361 0.80572 1.15708
 C59 C 0.16832 0.79288 1.16957
 C60 C 0.15580 0.80569 1.19485
 H61 H 0.20344 0.86292 1.20434
 H62 H 0.20340 0.79597 1.13762
 H63 H 0.13632 0.79578 1.20449
 C64 C 0.83125 1.16909 1.20774
 C65 C 0.80595 1.15669 1.19478
 C66 C 0.79317 1.16919 1.16950
 C67 C 0.80599 1.19447 1.15702
 C68 C 0.83129 1.20743 1.16941
 C69 C 0.84369 1.19446 1.19478
 H70 H 0.79603 1.13721 1.20439
 H71 H 0.79611 1.20409 1.13754
 H72 H 0.86314 1.20422 1.20453
 N73 N 0.53147 1.05231 0.96816
 N74 N 0.55393 1.07045 0.96447
 N75 N 0.46951 1.03190 0.94763
 N76 N 0.44711 1.03554 0.92946
 N77 N 0.46947 1.05235 0.96807
 N78 N 0.44705 1.07048 0.96438
 N79 N 0.53151 1.03185 0.94772
 N80 N 0.55399 1.03550 0.92956
 C81 C 0.56772 1.05967 0.94030
 C82 C 0.43336 1.05970 0.94020
 N83 N 0.46929 0.94802 0.96827
 N84 N 0.44683 0.92991 0.96462
 N85 N 0.53140 0.96841 0.94785
 N86 N 0.55391 0.96474 0.92974
 N87 N 0.53129 0.94797 0.96837
 N88 N 0.55371 0.92981 0.96480
 N89 N 0.46939 0.96847 0.94775
 N90 N 0.44701 0.96484 0.92957
 Mn91 Mn 0.50046 1.00016 0.94738
 C92 C 0.43319 0.94069 0.94039
 C93 C 0.56756 0.94057 0.94061
 N94 N 0.46922 1.05236 1.03159
 N95 N 0.44678 1.07050 1.03519
 N96 N 0.53112 1.03186 1.05220
 N97 N 0.55351 1.03547 1.07037
 N98 N 0.53123 1.05231 1.03168
 N99 N 0.55369 1.07041 1.03532
 N100 N 0.46912 1.03190 1.05210
 N101 N 0.44663 1.03555 1.07023
 Mn102 Mn 0.50035 1.05269 0.99987
 C103 C 0.43295 1.05972 1.05938
 C104 C 0.56733 1.05961 1.05955
 N105 N 0.53109 0.94797 1.03188
 N106 N 0.55349 0.92982 1.03561
 N107 N 0.46904 0.96847 1.05222
 N108 N 0.44653 0.96485 1.07034
 N109 N 0.46909 0.94802 1.03178
 N110 N 0.44661 0.92991 1.03542
 N111 N 0.53105 0.96843 1.05232
 N112 N 0.55341 0.96476 1.07052
 Mn113 Mn 0.50019 0.94764 1.00007
 Mn114 Mn 0.50008 1.00016 1.05257
 Cl115 Cl 0.50027 1.00016 0.99997
 C116 C 0.56715 0.94059 1.05981
 C117 C 0.43280 0.94070 1.05956
 N118 N 0.03137 0.46867 0.05224
 N119 N 0.03503 0.44615 0.07033
 N120 N 0.05182 0.53078 0.03193
 N121 N 0.06991 0.55324 0.03560
 N122 N 0.03133 0.53066 0.05242
 N123 N 0.03491 0.55304 0.07061
 N124 N 0.05185 0.46880 0.03174
 N125 N 0.07001 0.44640 0.03531
 C126 C 0.05923 0.43252 0.05947
 C127 C 0.05907 0.56686 0.05982
 N128 N 0.03150 0.53118 -0.05205
 N129 N 0.03521 0.55370 -0.07015
 N130 N 0.05194 0.46912 -0.03176
 N131 N 0.07007 0.44671 -0.03545
 N132 N 0.03152 0.46919 -0.05223
 N133 N 0.03519 0.44682 -0.07042
 N134 N 0.05192 0.53109 -0.03157
 N135 N 0.07008 0.55353 -0.03516
 Mn136 Mn 0.05223 0.49995 0.00009
 C137 C 0.05937 0.56737 -0.05931
 C138 C 0.05933 0.43306 -0.05966
 N139 N -0.03211 0.53060 0.05246
 N140 N -0.03577 0.55295 0.07068
 N141 N -0.05252 0.46869 0.03182
 N142 N -0.07066 0.44622 0.03545
 N143 N -0.03208 0.46863 0.05228
 N144 N -0.03573 0.44612 0.07039
 N145 N -0.05255 0.53069 0.03200
 N146 N -0.07067 0.55311 0.03573
 Mn147 Mn -0.00038 0.49963 0.05271
 C148 C -0.05992 0.56673 0.05995
 C149 C -0.05988 0.43240 0.05960
 N150 N -0.03194 0.46911 -0.05220
 N151 N -0.03554 0.44676 -0.07042
 N152 N -0.05245 0.53099 -0.03154
 N153 N -0.07058 0.55343 -0.03514
 N154 N -0.03196 0.53109 -0.05202
 N155 N -0.03556 0.55360 -0.07012
 N156 N -0.05243 0.46899 -0.03172
 N157 N -0.07055 0.44655 -0.03543
 Mn158 Mn -0.00022 0.50014 -0.05248
 Mn159 Mn -0.05285 0.49984 0.00014
 Cl160 Cl -0.00031 0.49989 0.00011
 C161 C -0.05972 0.43294 -0.05967
 C162 C -0.05975 0.56727 -0.05931
 N163 N 1.03137 -0.05220 0.46887
 N164 N 1.03497 -0.07037 0.44646
 N165 N 1.05195 -0.03159 0.53076
 N166 N 1.07016 -0.03515 0.55314
 N167 N 1.03151 -0.05206 0.53094
 N168 N 1.03523 -0.07014 0.55346
 N169 N 1.05182 -0.03173 0.46870
 N170 N 1.06991 -0.03540 0.44618
 C171 C 1.05910 -0.05959 0.43257
 C172 C 1.05944 -0.05929 0.56705
 N173 N 1.03149 0.05226 0.53051
 N174 N 1.03516 0.07041 0.55291
 N175 N 1.05182 0.03169 0.46845
 N176 N 1.06997 0.03530 0.44595
 N177 N 1.03138 0.05214 0.46843
 N178 N 1.03505 0.07024 0.44590
 N179 N 1.05194 0.03182 0.53050
 N180 N 1.07010 0.03549 0.55289
 Mn181 Mn 1.05224 0.00005 0.49960
 C182 C 1.05934 0.05966 0.56661
 C183 C 1.05921 0.05944 0.43213
 N184 N 0.96806 -0.05212 0.53116
 N185 N 0.96448 -0.07024 0.55368
 N186 N 0.94746 -0.03182 0.46910
 N187 N 0.92929 -0.03553 0.44671
 N188 N 0.96792 -0.05225 0.46910
 N189 N 0.96425 -0.07043 0.44673
 N190 N 0.94758 -0.03170 0.53118
 N191 N 0.92949 -0.03536 0.55373
 Mn192 Mn 0.99971 -0.05251 0.50002
 C193 C 0.94033 -0.05950 0.56750
 C194 C 0.94005 -0.05971 0.43301
 N195 N 0.96792 0.05209 0.46871
 N196 N 0.96425 0.07019 0.44620
 N197 N 0.94757 0.03175 0.53094
 N198 N 0.92946 0.03544 0.55344
 N199 N 0.96803 0.05222 0.53078
 N200 N 0.96440 0.07041 0.55317
 N201 N 0.94745 0.03164 0.46886
 N202 N 0.92928 0.03525 0.44644
 Mn203 Mn 0.99970 0.05253 0.49960
 Mn204 Mn 0.94715 -0.00003 0.50002
 Cl205 Cl 0.99970 0.00001 0.49981
 C206 C 0.94006 0.05939 0.43257
 C207 C 0.94025 0.05965 0.56706
 N208 N 1.12038 0.15585 0.26927
 C209 C 1.13240 0.13157 0.28178
 N210 N 1.15676 0.11948 0.26945
 N211 N 1.16873 0.13133 0.24534
 C212 C 1.15684 0.15574 0.23260
 N213 N 1.13237 0.16769 0.24517
 C214 C 1.11957 0.11891 0.30783
 C215 C 1.10880 0.10834 0.32975
 C216 C 1.09604 0.09578 0.35589
 N217 N 1.10814 0.07156 0.36850
 N218 N 1.09637 0.05996 0.39284
 C219 C 1.07212 0.07221 0.40535
 N220 N 1.06002 0.09646 0.39267
 N221 N 1.07180 0.10806 0.36833
 N222 N 0.87957 -0.15686 0.27087
 C223 C 0.86750 -0.13254 0.28323
 N224 N 0.84323 -0.12045 0.27080
 N225 N 0.83138 -0.13233 0.24674
 C226 C 0.84331 -0.15677 0.23415
 N227 N 0.86770 -0.16873 0.24681
 C228 C 0.88021 -0.11980 0.30921
 C229 C 0.89085 -0.10913 0.33106
 C230 C 0.90347 -0.09644 0.35711
 N231 N 0.89126 -0.07221 0.36957
 N232 N 0.90293 -0.06048 0.39380
 C233 C 0.92720 -0.07261 0.40636
 N234 N 0.93940 -0.09686 0.39384
 N235 N 0.92772 -0.10859 0.36961
 N236 N 0.87978 0.15668 0.72955
 C237 C 0.86772 0.13237 0.71717
 N238 N 0.84340 0.12026 0.72961
 N239 N 0.83150 0.13210 0.75370
 C240 C 0.84342 0.15652 0.76632
 N241 N 0.86786 0.16850 0.75365
 C242 C 0.88048 0.11969 0.69114
 C243 C 0.89114 0.10903 0.66925
 C244 C 0.90376 0.09636 0.64315
 N245 N 0.89155 0.07209 0.63077
 N246 N 0.90321 0.06037 0.60649
 C247 C 0.92744 0.07254 0.59378
 N248 N 0.93963 0.09683 0.60622
 N249 N 0.92797 0.10855 0.63050
 N250 N 1.12059 -0.15539 0.72975
 C251 C 1.13265 -0.13110 0.71720
 N252 N 1.15698 -0.11896 0.72947
 N253 N 1.16891 -0.13077 0.75357
 C254 C 1.15695 -0.15515 0.76629
 N255 N 1.13253 -0.16719 0.75385
 C256 C 1.11986 -0.11847 0.69117
 C257 C 1.10911 -0.10794 0.66927
 C258 C 1.09635 -0.09546 0.64317
 N259 N 1.10845 -0.07125 0.63044
 N260 N 1.09666 -0.05971 0.60614
 C261 C 1.07238 -0.07200 0.59378
 N262 N 1.06029 -0.09623 0.60657
 N263 N 1.07209 -0.10777 0.63087
 N264 N 0.27024 1.15624 1.11981
 C265 C 0.28267 1.13195 1.13189
 N266 N 0.27025 1.11978 1.15622
 N267 N 0.24613 1.13155 1.16811
 C268 C 0.23346 1.15597 1.15617
 N269 N 0.24611 1.16800 1.13171
 C270 C 0.30873 1.11934 1.11915
 C271 C 0.33065 1.10877 1.10850
 C272 C 0.35678 1.09619 1.09588
 N273 N 0.36925 1.07196 1.10812
 N274 N 0.39356 1.06032 1.09646
 C275 C 0.40620 1.07254 1.07219
 N276 N 0.39367 1.09679 1.05996
 N277 N 0.36936 1.10843 1.07162
 N278 N 0.27076 0.88048 0.84360
 C279 C 0.28315 0.86836 0.86791
 N280 N 0.27073 0.84405 0.88005
 N281 N 0.24663 0.83221 0.86822
 C282 C 0.23401 0.84420 0.84378
 N283 N 0.24667 0.86863 0.83178
 C284 C 0.30917 0.88104 0.88058
 C285 C 0.33106 0.89166 0.89120
 C286 C 0.35715 0.90425 0.90382
 N287 N 0.36957 0.89204 0.92811
 N288 N 0.39384 0.90367 0.93979
 C289 C 0.40649 0.92789 0.92754
 N290 N 0.39401 0.94009 0.90323
 N291 N 0.36974 0.92845 0.89156
 N292 N 0.72921 0.88015 1.15713
 C293 C 0.71685 0.86805 1.13281
 N294 N 0.72926 0.84373 1.12078
 N295 N 0.75330 0.83188 1.13271
 C296 C 0.76583 0.84388 1.15711
 N297 N 0.75325 0.86828 1.16904
 C298 C 0.69089 0.88076 1.12004
 C299 C 0.66906 0.89140 1.10933
 C300 C 0.64303 0.90402 1.09661
 N301 N 0.63060 0.89182 1.07236
 N302 N 0.60638 0.90349 1.06061
 C303 C 0.59379 0.92774 1.07273
 N304 N 0.60628 0.93993 1.09700
 N305 N 0.63050 0.92825 1.10875
 N306 N 0.73021 1.12014 0.84296
 C307 C 0.71783 1.13223 0.86729
 N308 N 0.73025 1.15652 0.87932
 N309 N 0.75433 1.16838 0.86735
 C310 C 0.76696 1.15643 0.84289
 N311 N 0.75430 1.13201 0.83101
 C312 C 0.69181 1.11952 0.88011
 C313 C 0.66992 1.10888 0.89083
 C314 C 0.64382 1.09624 0.90354
 N315 N 0.63129 1.10845 0.92778
 N316 N 0.60701 1.09677 0.93953
 C317 C 0.59445 1.07251 0.92740
 N318 N 0.60704 1.06032 0.90314
 N319 N 0.63133 1.07200 0.89140
 N320 N 0.12002 0.26989 0.15575
 C321 C 0.13214 0.28241 0.13144
 N322 N 0.15650 0.27012 0.11931
 N323 N 0.16839 0.24604 0.13115
 C324 C 0.15638 0.23334 0.15556
 N325 N 0.13192 0.24581 0.16758
 C326 C 0.11939 0.30843 0.11879
 C327 C 0.10869 0.33032 0.10823
 C328 C 0.09598 0.35642 0.09571
 N329 N 0.10815 0.36909 0.07148
 N330 N 0.09641 0.39338 0.05991
 C331 C 0.07212 0.40580 0.07220
 N332 N 0.05997 0.39306 0.09646
 N333 N 0.07171 0.36876 0.10802
 N334 N -0.11982 0.27070 -0.15688
 C335 C -0.13195 0.28306 -0.13253
 N336 N -0.15627 0.27061 -0.12041
 N337 N -0.16810 0.24654 -0.13227
 C338 C -0.15608 0.23401 -0.15670
 N339 N -0.13167 0.24663 -0.16873
 C340 C -0.11927 0.30905 -0.11982
 C341 C -0.10867 0.33092 -0.10914
 C342 C -0.09611 0.35698 -0.09644
 N343 N -0.10837 0.36935 -0.07216
 N344 N -0.09676 0.39360 -0.06041
 C345 C -0.07250 0.40627 -0.07258
 N346 N -0.06025 0.39383 -0.09689
 N347 N -0.07187 0.36959 -0.10863
 N348 N 0.15689 0.72987 -0.11922
 C349 C 0.13256 0.71757 -0.13133
 N350 N 0.12052 0.73009 -0.15562
 N351 N 0.13248 0.75418 -0.16745
 C352 C 0.15690 0.76666 -0.15545
 N353 N 0.16883 0.75397 -0.13106
 C354 C 0.11975 0.69154 -0.11868
 C355 C 0.10900 0.66963 -0.10811
 C356 C 0.09624 0.64352 -0.09558
 N357 N 0.07202 0.63114 -0.10788
 N358 N 0.06023 0.60684 -0.09631
 C359 C 0.07230 0.59412 -0.07206
 N360 N 0.09654 0.60657 -0.05978
 N361 N 0.10832 0.63087 -0.07136
 N362 N -0.11999 0.72893 0.15726
 C363 C -0.13211 0.71660 0.13295
 N364 N -0.15638 0.72907 0.12088
 N365 N -0.16818 0.75315 0.13278
 C366 C -0.15616 0.76566 0.15719
 N367 N -0.13180 0.75301 0.16916
 C368 C -0.11947 0.69060 0.12018
 C369 C -0.10889 0.66873 0.10948
 C370 C -0.09633 0.64267 0.09677
 N371 N -0.10855 0.63029 0.07250
 N372 N -0.09693 0.60604 0.06074
 C373 C -0.07272 0.59339 0.07288
 N374 N -0.06051 0.60584 0.09716
 N375 N -0.07214 0.63008 0.10892
 N376 N 1.11980 0.15626 0.72896
 C377 C 1.13190 0.13199 0.71653
 N378 N 1.15621 0.11989 0.72890
 N379 N 1.16807 0.13173 0.75298
 C380 C 1.15607 0.15609 0.76558
 N381 N 1.13167 0.16809 0.75304
 C382 C 1.11920 0.11933 0.69053
 C383 C 1.10855 0.10872 0.66866
 C384 C 1.09592 0.09614 0.64259
 N385 N 1.10812 0.07193 0.63007
 N386 N 1.09643 0.06028 0.60581
 C387 C 1.07219 0.07248 0.59328
 N388 N 1.06001 0.09671 0.60586
 N389 N 1.07170 0.10835 0.63012
 N390 N 0.88059 -0.15679 0.73039
 C391 C 0.86846 -0.13247 0.71805
 N392 N 0.84419 -0.12044 0.73057
 N393 N 0.83239 -0.13239 0.75471
 C394 C 0.84437 -0.15683 0.76729
 N395 N 0.86877 -0.16872 0.75453
 C396 C 0.88108 -0.11968 0.69196
 C397 C 0.89161 -0.10895 0.67001
 C398 C 0.90412 -0.09623 0.64384
 N399 N 0.89180 -0.07203 0.63138
 N400 N 0.90336 -0.06029 0.60701
 C401 C 0.92760 -0.07237 0.59431
 N402 N 0.93990 -0.09659 0.60684
 N403 N 0.92834 -0.10833 0.63120
 N404 N 1.15562 -0.12008 0.26990
 C405 C 1.13131 -0.13218 0.28236
 N406 N 1.11921 -0.15647 0.27000
 N407 N 1.13110 -0.16832 0.24590
 C408 C 1.15554 -0.15636 0.23321
 N409 N 1.16749 -0.13194 0.24580
 C410 C 1.11861 -0.11949 0.30839
 C411 C 1.10800 -0.10885 0.33029
 C412 C 1.09544 -0.09620 0.35641
 N413 N 1.07125 -0.10841 0.36908
 N414 N 1.05964 -0.09672 0.39339
 C415 C 1.07186 -0.07245 0.40583
 N416 N 1.09607 -0.06026 0.39310
 N417 N 1.10768 -0.07195 0.36878
 N418 N 0.84357 0.12000 0.26992
 C419 C 0.86784 0.13205 0.28237
 N420 N 0.87999 0.15638 0.27000
 N421 N 0.86820 0.16831 0.24589
 C422 C 0.84380 0.15640 0.23321
 N423 N 0.83179 0.13194 0.24582
 C424 C 0.88045 0.11927 0.30841
 C425 C 0.89102 0.10858 0.33032
 C426 C 0.90359 0.09593 0.35643
 N427 N 0.92784 0.10810 0.36888
 N428 N 0.93948 0.09643 0.39318
 C429 C 0.92724 0.07220 0.40584
 N430 N 0.90297 0.06005 0.39333
 N431 N 0.89133 0.07173 0.36902
 N432 N 0.15618 0.27084 -0.12005
 C433 C 0.13187 0.28321 -0.13214
 N434 N 0.11978 0.27080 -0.15642
 N435 N 0.13165 0.24673 -0.16826
 C436 C 0.15605 0.23419 -0.15628
 N437 N 0.16804 0.24677 -0.13190
 C438 C 0.11916 0.30920 -0.11946
 C439 C 0.10851 0.33106 -0.10884
 C440 C 0.09589 0.35712 -0.09623
 N441 N 0.07170 0.36964 -0.10846
 N442 N 0.06002 0.39389 -0.09679
 C443 C 0.07217 0.40641 -0.07251
 N444 N 0.09637 0.39382 -0.06030
 N445 N 0.10805 0.36957 -0.07198
 N446 N -0.15630 0.26963 0.12034
 C447 C -0.13203 0.28210 0.13238
 N448 N -0.11991 0.26972 0.15670
 N449 N -0.13173 0.24561 0.16863
 C450 C -0.15612 0.23291 0.15672
 N451 N -0.16810 0.24552 0.13228
 C452 C -0.11940 0.30814 0.11960
 C453 C -0.10883 0.33007 0.10890
 C454 C -0.09627 0.35620 0.09622
 N455 N -0.07206 0.36873 0.10838
 N456 N -0.06044 0.39305 0.09667
 C457 C -0.07267 0.40564 0.07244
 N458 N -0.09691 0.39305 0.06030
 N459 N -0.10852 0.36872 0.07200
 N460 N -0.11959 0.72989 -0.15624
 C461 C -0.13176 0.71751 -0.13189
 N462 N -0.15604 0.72997 -0.11979
 N463 N -0.16780 0.75407 -0.13171
 C464 C -0.15577 0.76669 -0.15619
 N465 N -0.13136 0.75400 -0.16814
 C466 C -0.11917 0.69147 -0.11913
 C467 C -0.10863 0.66956 -0.10846
 C468 C -0.09609 0.64344 -0.09582
 N469 N -0.10839 0.63087 -0.07160
 N470 N -0.09680 0.60656 -0.05993
 C471 C -0.07252 0.59401 -0.07211
 N472 N -0.06024 0.60665 -0.09636
 N473 N -0.07184 0.63096 -0.10802
 N474 N 0.15538 0.72942 0.12009
 C475 C 0.13106 0.71698 0.13222
 N476 N 0.11888 0.72936 0.15652
 N477 N 0.13069 0.75346 0.16834
 C478 C 0.15509 0.76608 0.15632
 N479 N 0.16717 0.75353 0.13192
 C480 C 0.11844 0.69095 0.11956
 C481 C 0.10787 0.66904 0.10896
 C482 C 0.09535 0.64294 0.09635
 N483 N 0.07115 0.63034 0.10860
 N484 N 0.05956 0.60604 0.09694
 C485 C 0.07182 0.59356 0.07266
 N486 N 0.09604 0.60623 0.06043
 N487 N 0.10762 0.63053 0.07209
 N488 N 0.27094 1.11990 0.84347
 C489 C 0.28335 1.13200 0.86776
 N490 N 0.27094 1.15627 0.87987
 N491 N 0.24684 1.16810 0.86804
 C492 C 0.23426 1.15611 0.84366
 N493 N 0.24684 1.13174 0.83165
 C494 C 0.30936 1.11933 0.88043
 C495 C 0.33125 1.10872 0.89104
 C496 C 0.35734 1.09614 0.90365
 N497 N 0.36981 1.10836 0.92787
 N498 N 0.39409 1.09672 0.93954
 C499 C 0.40668 1.07250 0.92736
 N500 N 0.39414 1.06030 0.90312
 N501 N 0.36987 1.07194 0.89145
 N502 N 0.26994 0.88048 1.15623
 C503 C 0.28240 0.86836 1.13194
 N504 N 0.26999 0.84406 1.11987
 N505 N 0.24586 0.83223 1.13177
 C506 C 0.23324 0.84425 1.15615
 N507 N 0.24581 0.86864 1.16811
 C508 C 0.30846 0.88103 1.11923
 C509 C 0.33040 0.89164 1.10860
 C510 C 0.35654 0.90424 1.09601
 N511 N 0.36903 0.92844 1.10823
 N512 N 0.39338 0.94009 1.09659
 C513 C 0.40603 0.92790 1.07236
 N514 N 0.39348 0.90368 1.06017
 N515 N 0.36913 0.89203 1.07181
 N516 N 0.72971 1.11965 1.15638
 C517 C 0.71734 1.13179 1.13206
 N518 N 0.72977 1.15611 1.11994
 N519 N 0.75385 1.16794 1.13180
 C520 C 0.76639 1.15591 1.15621
 N521 N 0.75379 1.13149 1.16823
 C522 C 0.69134 1.11913 1.11938
 C523 C 0.66945 1.10853 1.10874
 C524 C 0.64337 1.09597 1.09611
 N525 N 0.63097 1.10821 1.07183
 N526 N 0.60669 1.09660 1.06015
 C527 C 0.59402 1.07238 1.07239
 N528 N 0.60649 1.06016 1.09669
 N529 N 0.63077 1.07178 1.10837
 N530 N 0.73008 0.84356 0.88071
 C531 C 0.71774 0.86788 0.86857
 N532 N 0.73022 0.87999 0.84423
 N533 N 0.75432 0.86811 0.83239
 C534 C 0.76683 0.84370 0.84442
 N535 N 0.75417 0.83169 0.86885
 C536 C 0.69172 0.88059 0.88123
 C537 C 0.66981 0.89125 0.89181
 C538 C 0.64370 0.90392 0.90434
 N539 N 0.63131 0.92815 0.89202
 N540 N 0.60700 0.93986 0.90360
 C541 C 0.59429 0.92771 0.92787
 N542 N 0.60676 0.90346 0.94018
 N543 N 0.63107 0.89175 0.92859
   
