data_POSCAR
  _audit_creation_date              2014-09-24
  _audit_creation_method            'ToBaCCo'
  _symmetry_space_group_name_H-M    'P1'
  _symmetry_Int_Tables_number       1
  _symmetry_cell_setting            triclinic
  loop_
  _symmetry_equiv_pos_as_xyz
 x,y,z
_cell_length_a 27.4162
_cell_length_b 27.4857
_cell_length_c 48.8200
_cell_angle_alpha 91.290200
_cell_angle_beta 91.896900
_cell_angle_gamma 93.720300
loop_
  _atom_site_label
  _atom_site_type_symbol
  _atom_site_fract_x
  _atom_site_fract_y
  _atom_site_fract_z
C1 C -0.00834 0.63084 0.99939
 C2 C -0.00264 0.60702 1.02414
 C3 C -0.00014 0.55625 1.02417
 C4 C -0.00610 0.52811 0.99950
 C5 C -0.01327 0.55305 0.97477
 C6 C -0.01294 0.60405 0.97470
 C7 C -0.00460 0.47342 0.99954
 C8 C 0.00550 0.44676 0.97543
 C9 C 0.00580 0.39584 0.97542
 C10 C -0.00127 0.37088 0.99966
 C11 C -0.00996 0.39634 1.02384
 C12 C -0.01300 0.44699 1.02370
 H13 H -0.00907 0.67031 0.99934
 H14 H 0.00684 0.53938 1.04357
 H15 H -0.01931 0.53342 0.95540
 H16 H 0.01359 0.46487 0.95655
 H17 H 0.00014 0.33151 0.99972
 H18 H -0.02208 0.46503 1.04257
 C19 C 0.37245 0.01154 0.50310
 C20 C 0.40118 0.01549 0.52725
 C21 C 0.45216 0.01547 0.52621
 C22 C 0.47514 0.00869 0.50097
 C23 C 0.44498 0.00341 0.47683
 C24 C 0.39425 0.00619 0.47790
 C25 C 0.52986 0.00704 0.49985
 C26 C 0.55437 0.01579 0.47518
 C27 C 0.60509 0.01275 0.47401
 C28 C 0.63255 0.00374 0.49773
 C29 C 0.60946 -0.00366 0.52249
 C30 C 0.55845 -0.00341 0.52343
 H31 H 0.33302 0.01257 0.50392
 H32 H 0.47318 0.02100 0.54526
 H33 H 0.46011 -0.00319 0.45705
 H34 H 0.53467 0.02523 0.45671
 H35 H 0.67200 0.00242 0.49691
 H36 H 0.54168 -0.01175 0.54264
 C37 C 0.08391 0.01365 0.26507
 H38 H 0.08869 0.01128 0.24318
 C39 C 0.12474 0.01606 0.28309
 H40 H 0.16097 0.01587 0.27493
 C41 C 0.03083 0.01723 0.30227
 H42 H -0.00569 0.01812 0.30976
 C43 C 0.07054 0.01998 0.32097
 H44 H 0.06385 0.02184 0.34269
 N45 N 0.03802 0.01298 0.27491
 C46 C -0.05394 -0.06464 0.21115
 H47 H -0.08304 -0.04007 0.20905
 C48 C -0.05376 -0.10584 0.19390
 H49 H -0.08272 -0.11241 0.17838
 C50 C 0.02025 -0.08438 0.23315
 H51 H 0.04887 -0.07622 0.24858
 C52 C 0.02187 -0.12600 0.21634
 H53 H 0.05187 -0.14938 0.21906
 Zn54 Zn -0.01633 0.00616 0.24970
 N55 N -0.01645 -0.05383 0.22967
 C56 C -0.00739 0.05015 0.19803
 N57 N -0.01127 0.05901 0.22537
 C58 C -0.01087 0.10542 0.23574
 C59 C -0.00889 0.14502 0.21824
 C60 C -0.00504 0.08857 0.17986
 C61 C -0.08477 -0.03084 0.28631
 C62 C -0.12510 -0.03076 0.30302
 C63 C -0.14734 0.04403 0.28232
 C64 C -0.10656 0.04249 0.26598
 N65 N -0.07539 0.00624 0.26888
 H66 H -0.00620 0.01328 0.19015
 H67 H -0.01284 0.11158 0.25764
 H68 H -0.00911 0.18169 0.22680
 H69 H -0.00323 0.08054 0.15811
 H70 H -0.05971 -0.05955 0.28796
 H71 H -0.13049 -0.05940 0.31770
 H72 H -0.17121 0.07368 0.28013
 H73 H -0.09950 0.07081 0.25141
 C74 C -0.01488 -0.13658 0.19596
 C75 C 0.11824 0.01876 0.31148
 C76 C -0.15643 0.00763 0.30158
 C77 C -0.00627 0.13674 0.18985
 C78 C 0.01458 0.08788 0.76444
 H79 H 0.01500 0.09238 0.74249
 C80 C 0.01566 0.12885 0.78202
 H81 H 0.01729 0.16490 0.77346
 C82 C 0.01276 0.03539 0.80227
 H83 H 0.01081 -0.00098 0.81019
 C84 C 0.01391 0.07521 0.82053
 H85 H 0.01284 0.06885 0.84232
 N86 N 0.01435 0.04232 0.77481
 C87 C 0.08406 -0.04672 0.71415
 H88 H 0.05780 -0.07785 0.71231
 C89 C 0.12493 -0.04448 0.69779
 H90 H 0.12953 -0.07391 0.68319
 C91 C 0.10844 0.03039 0.73458
 H92 H 0.10213 0.05941 0.74903
 C93 C 0.14982 0.03413 0.71864
 H94 H 0.17493 0.06613 0.72105
 Zn95 Zn 0.01626 -0.01207 0.75030
 N96 N 0.07575 -0.00891 0.73144
 C97 C -0.02972 -0.00990 0.69750
 N98 N -0.03754 -0.01096 0.72486
 C99 C -0.08357 -0.01101 0.73447
 C100 C -0.12411 -0.01235 0.71625
 C101 C -0.06909 -0.01131 0.67861
 C102 C 0.05030 -0.07842 0.78798
 C103 C 0.04782 -0.11862 0.80497
 C104 C -0.03072 -0.14411 0.78365
 C105 C -0.02674 -0.10339 0.76707
 N106 N 0.01265 -0.07073 0.77010
 H107 H 0.00701 -0.00809 0.69016
 H108 H -0.08878 -0.01097 0.75634
 H109 H -0.16053 -0.01376 0.72424
 H110 H -0.06201 -0.01057 0.65693
 H111 H 0.08149 -0.05220 0.78974
 H112 H 0.07715 -0.12275 0.81997
 H113 H -0.06277 -0.16922 0.78130
 H114 H -0.05563 -0.09758 0.75219
 C115 C 0.15791 -0.00312 0.69949
 C116 C 0.01616 0.12273 0.81051
 C117 C 0.00639 -0.15157 0.80334
 C118 C -0.11708 -0.01327 0.68788
 C119 C 0.03697 -0.22313 0.14453
 C120 C -0.00524 -0.25040 0.13492
 C121 C -0.05032 -0.24221 0.14624
 C122 C -0.05338 -0.20613 0.16667
 C123 C -0.00075 -0.36652 0.04815
 C124 C 0.03401 -0.18707 0.16494
 C125 C -0.00281 -0.28444 0.11224
 C126 C -0.00128 -0.31162 0.09260
 C127 C -0.00039 -0.34192 0.06893
 C128 C -0.01133 -0.17769 0.17599
 H129 H 0.07199 -0.22889 0.13575
 H130 H -0.08326 -0.26305 0.13891
 H131 H -0.08870 -0.20017 0.17498
 H132 H 0.06694 -0.16536 0.17135
 C133 C 0.02330 0.21442 0.12868
 C134 C -0.00882 0.25157 0.13166
 C135 C -0.03859 0.25254 0.15439
 C136 C -0.03689 0.21589 0.17380
 C137 C -0.01364 0.36995 0.04891
 C138 C 0.02497 0.17778 0.14797
 C139 C -0.01225 0.28713 0.11060
 C140 C -0.01410 0.31514 0.09201
 C141 C -0.01474 0.34576 0.06920
 C142 C -0.00556 0.17772 0.17056
 H143 H 0.04657 0.21336 0.11119
 H144 H -0.06372 0.28104 0.15685
 H145 H -0.06115 0.21653 0.19085
 H146 H 0.04995 0.14929 0.14513
 C147 C 0.24531 0.05184 0.64821
 C148 C 0.27002 0.01120 0.64017
 C149 C 0.26011 -0.03356 0.65264
 C150 C 0.22472 -0.03800 0.67258
 C151 C 0.37758 0.01767 0.55313
 C152 C 0.20995 0.04751 0.66814
 C153 C 0.30256 0.01449 0.61765
 C154 C 0.32806 0.01657 0.59801
 C155 C 0.35580 0.01786 0.57417
 C156 C 0.19869 0.00234 0.68026
 H157 H 0.25235 0.08655 0.63851
 H158 H 0.27890 -0.06532 0.64650
 H159 H 0.21730 -0.07309 0.68175
 H160 H 0.19008 0.07906 0.67327
 C161 C -0.19670 -0.04771 0.62456
 C162 C -0.23667 -0.01948 0.62844
 C163 C -0.23851 0.00957 0.65227
 C164 C -0.20010 0.01096 0.67195
 C165 C -0.36279 -0.00964 0.54570
 C166 C -0.15829 -0.04629 0.64413
 C167 C -0.27403 -0.01826 0.60709
 C168 C -0.30372 -0.01657 0.58842
 C169 C -0.33653 -0.01351 0.56573
 C170 C -0.15924 -0.01647 0.66789
 H171 H -0.19484 -0.07025 0.60617
 H172 H -0.26914 0.03184 0.65539
 H173 H -0.20167 0.03455 0.68992
 H174 H -0.12772 -0.06842 0.64064
 C175 C 0.03660 -0.25254 0.85168
 C176 C -0.00842 -0.26233 0.86383
 C177 C -0.04912 -0.23780 0.85517
 C178 C -0.04461 -0.20282 0.83491
 C179 C -0.01511 -0.37189 0.95062
 C180 C 0.04121 -0.21753 0.83142
 C181 C -0.01198 -0.29490 0.88646
 C182 C -0.01415 -0.32070 0.90608
 C183 C -0.01543 -0.34914 0.92979
 C184 C 0.00080 -0.19176 0.82307
 H185 H 0.06838 -0.27122 0.85828
 H186 H -0.08403 -0.24479 0.86459
 H187 H -0.07624 -0.18315 0.82925
 H188 H 0.07648 -0.21025 0.82248
 C189 C 0.05061 0.20381 0.87287
 C190 C 0.02230 0.24353 0.86823
 C191 C -0.00674 0.24479 0.84414
 C192 C -0.00807 0.20599 0.82498
 C193 C 0.01209 0.36831 0.95049
 C194 C 0.04924 0.16503 0.85384
 C195 C 0.02082 0.28108 0.88916
 C196 C 0.01900 0.31065 0.90765
 C197 C 0.01590 0.34292 0.93032
 C198 C 0.01939 0.16535 0.82986
 H199 H 0.07313 0.20239 0.89147
 H200 H -0.02910 0.27521 0.84044
 H201 H -0.03166 0.20708 0.80681
 H202 H 0.07140 0.13462 0.85795
 C203 C -0.23996 0.05889 0.35387
 C204 C -0.26617 0.01659 0.36200
 C205 C -0.25863 -0.02828 0.34922
 C206 C -0.22407 -0.03107 0.32891
 C207 C -0.37203 0.01680 0.44972
 C208 C -0.20542 0.05620 0.33354
 C209 C -0.29790 0.01852 0.38485
 C210 C -0.32288 0.01925 0.40470
 C211 C -0.35027 0.01874 0.42868
 C212 C -0.19650 0.01104 0.32115
 H213 H -0.24520 0.09374 0.36378
 H214 H -0.27862 -0.06129 0.35541
 H215 H -0.21845 -0.06625 0.31953
 H216 H -0.18433 0.08916 0.32832
 C217 C 0.23655 -0.01439 0.34686
 C218 C 0.23721 0.01478 0.37076
 C219 C 0.20027 0.04680 0.37466
 C220 C 0.16223 0.04898 0.35507
 C221 C 0.36411 0.00511 0.45314
 C222 C 0.19852 -0.01220 0.32717
 C223 C 0.27441 0.01074 0.39195
 C224 C 0.30415 0.00796 0.41049
 C225 C 0.33729 0.00575 0.43310
 C226 C 0.16058 0.01906 0.33126
 H227 H 0.26487 -0.03944 0.34369
 H228 H 0.20046 0.06961 0.39307
 H229 H 0.13393 0.07387 0.35862
 H230 H 0.19795 -0.03606 0.30919
   
