data_POSCAR
  _audit_creation_date              2014-09-24
  _audit_creation_method            'ToBaCCo'
  _symmetry_space_group_name_H-M    'P1'
  _symmetry_Int_Tables_number       1
  _symmetry_cell_setting            triclinic
  loop_
  _symmetry_equiv_pos_as_xyz
 x,y,z
_cell_length_a 18.3444
_cell_length_b 18.1209
_cell_length_c 37.0790
_cell_angle_alpha 79.492300
_cell_angle_beta 90.008600
_cell_angle_gamma 121.678600
loop_
  _atom_site_label
  _atom_site_type_symbol
  _atom_site_fract_x
  _atom_site_fract_y
  _atom_site_fract_z
C1 C -0.09568 0.01553 0.56467
 H2 H -0.09167 -0.04256 0.57107
 C3 C -0.09541 0.05570 0.59324
 H4 H -0.09234 0.02757 0.62117
 C5 C -0.09786 0.12723 0.52094
 H6 H -0.09569 0.15652 0.49249
 C7 C -0.09670 0.17040 0.54897
 H8 H -0.09466 0.23217 0.54206
 N9 N -0.09558 0.05197 0.52914
 C10 C -0.00691 -0.10301 0.52019
 H11 H 0.05450 -0.04697 0.50646
 C12 C -0.01036 -0.17343 0.54501
 H13 H 0.04859 -0.17149 0.55031
 C14 C -0.15803 -0.17054 0.53293
 H15 H -0.21476 -0.16718 0.52909
 C16 C -0.16399 -0.24083 0.55828
 H17 H -0.22546 -0.29203 0.57389
 Zn18 Zn -0.07905 0.00020 0.49176
 N19 N -0.07994 -0.10177 0.51570
 C20 C 0.07648 0.16817 0.46847
 N21 N 0.02696 0.08478 0.46195
 C22 C 0.04667 0.06363 0.43158
 C23 C 0.11322 0.12926 0.40468
 C24 C 0.14374 0.23597 0.44217
 C25 C -0.22629 -0.01143 0.45920
 C26 C -0.29180 -0.04297 0.43611
 C27 C -0.23922 -0.12919 0.41732
 C28 C -0.17507 -0.09631 0.44069
 N29 N -0.16914 -0.03802 0.46087
 H30 H 0.06165 0.18353 0.49318
 H31 H 0.00806 -0.00310 0.42719
 H32 H 0.12509 0.11296 0.37952
 H33 H 0.17931 0.30306 0.44666
 H34 H -0.22183 0.03342 0.47590
 H35 H -0.33770 -0.02239 0.43519
 H36 H -0.24389 -0.17647 0.40180
 H37 H -0.13111 -0.11915 0.44341
 C38 C -0.08951 -0.24138 0.56527
 C39 C -0.09385 0.13468 0.58549
 C40 C -0.29807 -0.10231 0.41496
 C41 C 0.16010 0.21681 0.40926
 C42 C 1.24622 0.12698 0.11684
 H43 H 1.25181 0.19057 0.11094
 C44 C 1.30334 0.11556 0.09783
 H45 H 1.35233 0.17000 0.07689
 C46 C 1.17056 -0.02367 0.14896
 H47 H 1.11714 -0.07788 0.16826
 C48 C 1.22738 -0.03792 0.13039
 H49 H 1.21671 -0.10375 0.13482
 N50 N 1.17973 0.05738 0.14088
 C51 C 0.96857 0.09928 0.12613
 H52 H 0.95668 0.11085 0.15250
 C53 C 0.90691 0.07943 0.10103
 H54 H 0.84855 0.07749 0.10801
 C55 C 1.05411 0.07802 0.08649
 H56 H 1.10878 0.07270 0.08131
 C57 C 0.99476 0.05854 0.06073
 H58 H 1.00522 0.04005 0.03595
 Zn59 Zn 1.10368 0.08723 0.15829
 N60 N 1.03924 0.09548 0.11900
 C61 C 1.15879 0.25979 0.17398
 N62 N 1.17474 0.19417 0.17454
 C63 C 1.23928 0.19391 0.19250
 C64 C 1.28770 0.25806 0.21248
 C65 C 1.20663 0.32623 0.19386
 C66 C 0.94924 -0.07090 0.19249
 C67 C 0.87764 -0.12018 0.21943
 C68 C 0.96001 -0.02303 0.26008
 C69 C 1.02962 0.02462 0.23244
 N70 N 1.02237 0.00186 0.19898
 H71 H 1.10593 0.25754 0.16018
 H72 H 1.24908 0.13976 0.19365
 H73 H 1.33456 0.25314 0.22880
 H74 H 1.18987 0.37459 0.19569
 H75 H 0.94421 -0.08661 0.16547
 H76 H 0.81826 -0.17473 0.21313
 H77 H 0.96506 -0.00141 0.28584
 H78 H 1.08731 0.08318 0.23712
 C79 C 0.91895 0.05590 0.06843
 C80 C 1.29296 0.03232 0.10375
 C81 C 0.88215 -0.09398 0.25323
 C82 C 1.26994 0.32316 0.21427
 C83 C 0.07222 0.84293 0.89948
 H84 H 0.00903 0.78521 0.89905
 C85 C 0.12669 0.83669 0.92416
 H86 H 0.10533 0.77443 0.94327
 C87 C 0.17557 0.99600 0.87632
 H88 H 0.19324 1.05793 0.85789
 C89 C 0.23354 0.99190 0.89998
 H90 H 0.29557 1.05124 0.90035
 N91 N 0.09611 0.92220 0.87715
 C92 C -0.16273 0.86501 0.86458
 H93 H -0.16387 0.87075 0.83506
 C94 C -0.23463 0.84616 0.88665
 H95 H -0.29194 0.83541 0.87418
 C96 C -0.08545 0.87710 0.91673
 H97 H -0.02626 0.89251 0.92827
 C98 C -0.15598 0.85828 0.93980
 H99 H -0.15140 0.85698 0.96901
 Zn100 Zn 0.01066 0.91826 0.84811
 N101 N -0.09000 0.87978 0.87984
 C102 C -0.08609 0.76698 0.81323
 N103 N -0.00792 0.83739 0.81749
 C104 C 0.06592 0.85498 0.79953
 C105 C 0.06287 0.80700 0.77366
 C106 C -0.09183 0.71518 0.78812
 C107 C 0.00409 1.07234 0.82596
 C108 C 0.00927 1.14187 0.79994
 C109 C 0.10415 1.13154 0.75900
 C110 C 0.09785 1.06288 0.78583
 N111 N 0.04477 1.03140 0.81785
 H112 H -0.14401 0.75179 0.82861
 H113 H 0.12769 0.90757 0.80492
 H114 H 0.12194 0.82469 0.75823
 H115 H -0.15424 0.66153 0.78369
 H116 H -0.03679 1.04775 0.85171
 H117 H -0.02853 1.16920 0.80573
 H118 H 0.14109 1.15124 0.73247
 H119 H 0.13095 1.03137 0.77972
 C120 C -0.23098 0.84333 0.92454
 C121 C 0.20775 0.91154 0.92466
 C122 C 0.05681 1.16907 0.76537
 C123 C -0.01637 0.73720 0.76745
 C124 C 0.34642 -0.05110 0.01652
 C125 C 0.38030 -0.05208 -0.01690
 C126 C 0.45404 -0.05622 -0.01820
 C127 C 0.49183 -0.06372 0.01436
 C128 C 0.45663 -0.06273 0.04804
 C129 C 0.38499 -0.05427 0.04881
 C130 C 0.56764 -0.07258 0.01256
 C131 C 0.63849 -0.02596 0.03176
 C132 C 0.71195 -0.03053 0.02784
 C133 C 0.71493 -0.08164 0.00401
 C134 C 0.64323 -0.13056 -0.01438
 C135 C 0.57001 -0.12667 -0.00951
 H136 H 0.29030 -0.04582 0.01732
 H137 H 0.48089 -0.05509 -0.04446
 H138 H 0.48536 -0.06691 0.07324
 H139 H 0.63738 0.01501 0.04941
 H140 H 0.77094 -0.08632 0.00095
 H141 H 0.51486 -0.16553 -0.02353
 C142 C -0.06056 0.64079 0.66895
 C143 C -0.06953 0.58772 0.70319
 C144 C -0.06846 0.51050 0.70464
 C145 C -0.05114 0.48982 0.67190
 C146 C -0.03803 0.54725 0.63772
 C147 C -0.04616 0.62023 0.63620
 C148 C -0.04518 0.41004 0.67319
 C149 C -0.06561 0.36722 0.64304
 C150 C -0.05758 0.29450 0.64345
 C151 C -0.02954 0.26342 0.67437
 C152 C -0.01051 0.30328 0.70490
 C153 C -0.01834 0.37630 0.70428
 H154 H -0.06314 0.69955 0.66781
 H155 H -0.07874 0.46867 0.73138
 H156 H -0.02238 0.53554 0.61207
 H157 H -0.08924 0.38887 0.61929
 H158 H -0.02397 0.20661 0.67508
 H159 H -0.00142 0.40735 0.72781
 C160 C 0.65833 0.81664 0.32720
 C161 C 0.65758 0.77349 0.29907
 C162 C 0.58041 0.69824 0.29416
 C163 C 0.50376 0.66570 0.31677
 C164 C 0.50471 0.71186 0.34353
 C165 C 0.58150 0.78609 0.34928
 C166 C 0.42484 0.57989 0.31454
 C167 C 0.37714 0.51684 0.34734
 C168 C 0.30863 0.43182 0.34592
 C169 C 0.28642 0.41035 0.31156
 C170 C 0.33194 0.47214 0.27872
 C171 C 0.40058 0.55737 0.28010
 H172 H 0.71756 0.87493 0.33129
 H173 H 0.58104 0.66377 0.27328
 H174 H 0.44598 0.68860 0.36082
 H175 H 0.39548 0.53223 0.37405
 H176 H 0.23322 0.34474 0.31011
 H177 H 0.43667 0.60447 0.25460
 N178 N -0.08129 0.17962 0.61499
 N179 N -0.07662 0.25305 0.61226
 N180 N 0.80739 0.86845 0.27928
 N181 N 0.73325 0.80631 0.27429
 N182 N 0.25680 -0.09312 -0.04620
 N183 N 0.33875 -0.04911 -0.04927
 N184 N -0.09442 0.69707 0.59683
 N185 N -0.03976 0.67421 0.60151
 N186 N 0.30268 0.36997 0.24323
 N187 N 0.31132 0.44372 0.24457
 N188 N 0.70539 -0.17168 -0.05559
 N189 N 0.64098 -0.18731 -0.03725
 N190 N 0.33708 0.01816 0.07683
 N191 N 0.35291 -0.04311 0.08122
 N192 N 0.64070 0.86413 0.39586
 N193 N 0.57945 0.82873 0.37788
 N194 N 0.04588 0.22129 0.73454
 N195 N 0.01112 0.26542 0.73734
 N196 N 0.85227 0.01958 0.04487
 N197 N 0.78028 0.01295 0.04993
 N198 N 0.21584 0.28514 0.37842
 N199 N 0.26153 0.36717 0.37925
 N200 N -0.01808 0.69717 0.73739
 N201 N -0.07273 0.61674 0.73625
   
