data_POSCAR
  _audit_creation_date              2014-09-24
  _audit_creation_method            'ToBaCCo'
  _symmetry_space_group_name_H-M    'P1'
  _symmetry_Int_Tables_number       1
  _symmetry_cell_setting            triclinic
  loop_
  _symmetry_equiv_pos_as_xyz
 x,y,z
_cell_length_a 35.9824
_cell_length_b 39.3217
_cell_length_c 36.4704
_cell_angle_alpha 89.983500
_cell_angle_beta 90.097500
_cell_angle_gamma 89.899800
loop_
  _atom_site_label
  _atom_site_type_symbol
  _atom_site_fract_x
  _atom_site_fract_y
  _atom_site_fract_z
Si1 Si 1.24916 0.25018 0.24873
 Si2 Si 0.75041 -0.24963 0.24893
 Si3 Si 0.75043 0.25024 -0.24989
 Si4 Si 1.24948 -0.24939 -0.24976
 Si5 Si 0.24962 0.24935 0.75112
 Si6 Si 0.75047 0.74974 0.75112
 Si7 Si 0.75077 0.24973 0.24989
 Si8 Si 0.24953 0.74965 0.24980
 N9 N 1.06652 0.03459 0.04037
 N10 N 1.09158 0.05826 0.04711
 N11 N 1.04048 -0.03685 0.06561
 N12 N 1.04775 -0.06001 0.09087
 N13 N 1.06632 -0.03691 0.04020
 N14 N 1.09188 -0.06011 0.04751
 N15 N 1.04069 0.03462 0.06578
 N16 N 1.04743 0.05831 0.09051
 C17 C 1.07894 0.07299 0.07816
 C18 C 1.07956 -0.07455 0.07887
 N19 N 0.93451 -0.03604 0.03985
 N20 N 0.90927 -0.05955 0.04649
 N21 N 0.96067 0.03510 0.06569
 N22 N 0.95380 0.05846 0.09079
 N23 N 0.93484 0.03541 0.04020
 N24 N 0.90967 0.05897 0.04725
 N25 N 0.96038 -0.03633 0.06530
 N26 N 0.95347 -0.06003 0.08997
 Mn27 Mn 1.00055 -0.00087 0.06596
 C28 C 0.92184 -0.07447 0.07752
 C29 C 0.92223 0.07333 0.07856
 N30 N 1.06608 -0.03652 -0.03888
 N31 N 1.09109 -0.06023 -0.04579
 N32 N 1.04062 0.03521 -0.06408
 N33 N 1.04769 0.05871 -0.08894
 N34 N 1.06651 0.03493 -0.03864
 N35 N 1.09193 0.05825 -0.04551
 N36 N 1.04023 -0.03621 -0.06436
 N37 N 1.04692 -0.05971 -0.08931
 Mn38 Mn 1.06674 -0.00098 0.00076
 C39 C 1.07839 -0.07467 -0.07701
 C40 C 1.07945 0.07307 -0.07665
 N41 N 0.93470 0.03578 -0.03887
 N42 N 0.90929 0.05914 -0.04601
 N43 N 0.96021 -0.03575 -0.06455
 N44 N 0.95317 -0.05912 -0.08957
 N45 N 0.93438 -0.03571 -0.03915
 N46 N 0.90903 -0.05906 -0.04619
 N47 N 0.96054 0.03572 -0.06427
 N48 N 0.95343 0.05904 -0.08939
 Mn49 Mn 0.93423 -0.00013 0.00052
 Mn50 Mn 1.00041 -0.00025 -0.06467
 Cl51 Cl 1.00048 -0.00056 0.00064
 C52 C 0.92172 0.07367 -0.07727
 C53 C 0.92149 -0.07364 -0.07741
 N54 N 1.06651 0.53627 0.53918
 N55 N 1.09183 0.55961 0.54635
 N56 N 1.04112 0.46461 0.56440
 N57 N 1.04856 0.44139 0.58953
 N58 N 1.06693 0.46480 0.53895
 N59 N 1.09264 0.44171 0.54611
 N60 N 1.04074 0.53607 0.56467
 N61 N 1.04783 0.55928 0.58987
 C62 C 1.07943 0.57396 0.57771
 C63 C 1.08044 0.42709 0.57741
 N64 N 0.93503 0.46439 0.53906
 N65 N 0.90936 0.44142 0.54641
 N66 N 0.96058 0.53587 0.56479
 N67 N 0.95319 0.55884 0.59017
 N68 N 0.93471 0.53590 0.53934
 N69 N 0.90900 0.55890 0.54671
 N70 N 0.96090 0.46436 0.56452
 N71 N 0.95353 0.44135 0.58987
 Mn72 Mn 1.00085 0.50022 0.56493
 C73 C 0.92164 0.42700 0.57784
 C74 C 0.92126 0.57324 0.57816
 N75 N 1.06677 0.46515 0.45985
 N76 N 1.09225 0.44189 0.45272
 N77 N 1.04066 0.53671 0.43457
 N78 N 1.04816 0.55957 0.40909
 N79 N 1.06655 0.53666 0.46002
 N80 N 1.09234 0.55950 0.45252
 N81 N 1.04089 0.46519 0.43439
 N82 N 1.04805 0.44196 0.40924
 Mn83 Mn 1.06704 0.50073 0.49951
 C84 C 1.07984 0.42743 0.42140
 C85 C 1.08014 0.57386 0.42101
 N86 N 0.93464 0.53623 0.46025
 N87 N 0.90900 0.55940 0.45323
 N88 N 0.96073 0.46496 0.43441
 N89 N 0.95348 0.44189 0.40910
 N90 N 0.93497 0.46476 0.45991
 N91 N 0.90953 0.44156 0.45264
 N92 N 0.96042 0.53643 0.43478
 N93 N 0.95304 0.55975 0.40975
 Mn94 Mn 0.93449 0.50032 0.49963
 Mn95 Mn 1.00067 0.50083 0.43420
 Cl96 Cl 1.00076 0.50053 0.49957
 C97 C 0.92123 0.57408 0.42200
 C98 C 0.92181 0.42728 0.42119
 N99 N 0.45941 0.05959 0.46042
 N100 N 0.45162 0.08373 0.43648
 N101 N 0.43299 0.03622 0.53721
 N102 N 0.40656 0.04386 0.56095
 N103 N 0.45895 0.05969 0.53739
 N104 N 0.45092 0.08382 0.56123
 N105 N 0.43349 0.03609 0.46019
 N106 N 0.40733 0.04369 0.43608
 C107 C 0.41950 0.07310 0.42113
 C108 C 0.41859 0.07326 0.57609
 N109 N 0.45934 -0.06070 0.53748
 N110 N 0.45157 -0.08472 0.56152
 N111 N 0.43353 -0.03751 0.46024
 N112 N 0.40695 -0.04570 0.43679
 N113 N 0.45965 -0.06092 0.46048
 N114 N 0.45154 -0.08555 0.43721
 N115 N 0.43326 -0.03727 0.53729
 N116 N 0.40700 -0.04478 0.56120
 Mn117 Mn 0.43298 -0.00061 0.49872
 C118 C 0.41927 -0.07407 0.57645
 C119 C 0.41903 -0.07535 0.42220
 N120 N 0.53906 0.05990 0.53802
 N121 N 0.54701 0.08437 0.56151
 N122 N 0.56556 0.03639 0.46122
 N123 N 0.59209 0.04419 0.43769
 N124 N 0.53946 0.05980 0.46102
 N125 N 0.54750 0.08408 0.43735
 N126 N 0.56515 0.03647 0.53827
 N127 N 0.59157 0.04447 0.56194
 Mn128 Mn 0.49920 0.05997 0.49921
 C129 C 0.57941 0.07404 0.57664
 C130 C 0.57998 0.07362 0.42262
 N131 N 0.53977 -0.06059 0.46110
 N132 N 0.54772 -0.08461 0.43711
 N133 N 0.56531 -0.03711 0.53830
 N134 N 0.59161 -0.04484 0.56224
 N135 N 0.53939 -0.06061 0.53807
 N136 N 0.54733 -0.08487 0.56184
 N137 N 0.56570 -0.03710 0.46129
 N138 N 0.59203 -0.04458 0.43740
 Mn139 Mn 0.49955 -0.06094 0.49928
 Mn140 Mn 0.56576 -0.00035 0.49978
 Cl141 Cl 0.49937 -0.00048 0.49925
 C142 C 0.57997 -0.07391 0.42219
 C143 C 0.57954 -0.07433 0.57710
 N144 N 0.56540 0.53585 0.03999
 N145 N 0.59098 0.55898 0.04703
 N146 N 0.53918 0.46471 0.06581
 N147 N 0.54635 0.44168 0.09121
 N148 N 0.56500 0.46439 0.04038
 N149 N 0.59044 0.44114 0.04780
 N150 N 0.53954 0.53615 0.06538
 N151 N 0.54680 0.55948 0.09038
 C152 C 0.57863 0.57372 0.07820
 C153 C 0.57806 0.42695 0.07925
 N154 N 0.43321 0.46533 0.04021
 N155 N 0.40773 0.44214 0.04732
 N156 N 0.45936 0.53675 0.06546
 N157 N 0.45185 0.55959 0.09096
 N158 N 0.43350 0.53683 0.03999
 N159 N 0.40769 0.55973 0.04750
 N160 N 0.45907 0.46527 0.06569
 N161 N 0.45191 0.44205 0.09082
 Mn162 Mn 0.49930 0.50073 0.06592
 C163 C 0.42014 0.42763 0.07865
 C164 C 0.41989 0.57400 0.07904
 N165 N 0.56509 0.46402 -0.03877
 N166 N 0.59078 0.44099 -0.04616
 N167 N 0.53962 0.53557 -0.06457
 N168 N 0.54699 0.55856 -0.08991
 N169 N 0.56547 0.53552 -0.03910
 N170 N 0.59116 0.55847 -0.04642
 N171 N 0.53922 0.46409 -0.06424
 N172 N 0.54660 0.44112 -0.08962
 Mn173 Mn 0.56559 0.49994 0.00064
 C174 C 0.57849 0.42666 -0.07761
 C175 C 0.57888 0.57286 -0.07787
 N176 N 0.43368 0.53642 -0.03919
 N177 N 0.40838 0.55982 -0.04651
 N178 N 0.45907 0.46466 -0.06425
 N179 N 0.45173 0.44142 -0.08935
 N180 N 0.43319 0.46496 -0.03889
 N181 N 0.40752 0.44192 -0.04606
 N182 N 0.45953 0.53609 -0.06459
 N183 N 0.45253 0.55926 -0.08988
 Mn184 Mn 0.43303 0.50089 0.00052
 Mn185 Mn 0.49935 0.50010 -0.06474
 Cl186 Cl 0.49932 0.50042 0.00058
 C187 C 0.42090 0.57406 -0.07787
 C188 C 0.41983 0.42723 -0.07729
 C189 C 1.13628 0.14491 0.17924
 C190 C 1.17926 0.14599 0.18020
 C191 C 1.17755 0.18493 0.17752
 C192 C 1.13488 0.18423 0.17691
 C193 C 1.13776 0.14327 0.13719
 C194 C 1.13599 0.18221 0.13446
 C195 C 1.18043 0.14401 0.13784
 C196 C 1.17906 0.18333 0.13547
 C197 C 1.20023 0.20730 0.20037
 C198 C 1.21942 0.22494 0.21952
 C199 C 1.11615 0.11921 0.11533
 C200 C 1.09889 0.09855 0.09799
 H201 H 1.11844 0.12884 0.19697
 H202 H 1.19730 0.13136 0.19926
 H203 H 1.11646 0.20104 0.19326
 H204 H 1.11794 0.19679 0.11537
 H205 H 1.19890 0.12721 0.12152
 H206 H 1.19693 0.19941 0.11779
 C207 C 1.14180 0.68136 0.63224
 C208 C 1.13751 0.68625 0.67421
 C209 C 1.17993 0.68384 0.67833
 C210 C 1.18461 0.67934 0.63676
 C211 C 1.13962 0.64269 0.63779
 C212 C 1.18204 0.64031 0.64194
 C213 C 1.13497 0.64722 0.67937
 C214 C 1.17771 0.64517 0.68383
 C215 C 1.20256 0.70622 0.70132
 C216 C 1.22128 0.72419 0.72060
 C217 C 1.11755 0.61908 0.61571
 C218 C 1.09986 0.59890 0.59806
 H219 H 1.12677 0.69596 0.61078
 H220 H 1.11948 0.70541 0.68776
 H221 H 1.20529 0.69281 0.61953
 H222 H 1.20010 0.62116 0.62841
 H223 H 1.11431 0.63376 0.69663
 H224 H 1.19273 0.63054 0.70529
 C225 C 0.64361 0.17492 0.63625
 C226 C 0.63864 0.18121 0.67788
 C227 C 0.68100 0.17900 0.68272
 C228 C 0.68629 0.17306 0.64142
 C229 C 0.64128 0.13643 0.64318
 C230 C 0.68364 0.13422 0.64803
 C231 C 0.63597 0.14235 0.68448
 C232 C 0.67870 0.14050 0.68968
 C233 C 0.70331 0.20271 0.70457
 C234 C 0.72189 0.22198 0.72258
 C235 C 0.61919 0.11319 0.62050
 C236 C 0.60104 0.09482 0.60101
 H237 H 0.62894 0.18885 0.61403
 H238 H 0.62038 0.20081 0.69036
 H239 H 0.70719 0.18595 0.62393
 H240 H 0.70192 0.11463 0.63555
 H241 H 0.61506 0.12945 0.70196
 H242 H 0.69339 0.12661 0.71191
 C243 C 0.63738 0.64366 0.18045
 C244 C 0.68039 0.64423 0.18158
 C245 C 0.67924 0.68321 0.17910
 C246 C 0.63656 0.68300 0.17832
 C247 C 0.63898 0.64219 0.13839
 C248 C 0.63780 0.68117 0.13587
 C249 C 0.68167 0.64242 0.13920
 C250 C 0.68086 0.68176 0.13705
 C251 C 0.70201 0.70557 0.20193
 C252 C 0.72109 0.72363 0.22075
 C253 C 0.61696 0.61868 0.11617
 C254 C 0.59924 0.59857 0.09847
 H255 H 0.61924 0.62773 0.19803
 H256 H 0.69814 0.62931 0.20064
 H257 H 0.61830 0.69995 0.19469
 H258 H 0.62003 0.69606 0.11680
 H259 H 0.69996 0.62548 0.12285
 H260 H 0.69903 0.69769 0.11949
 C261 C 0.82348 -0.15692 0.12627
 C262 C 0.83528 -0.19316 0.13838
 C263 C 0.82215 -0.18495 0.17745
 C264 C 0.81002 -0.14911 0.16568
 C265 C 0.86228 -0.14391 0.13681
 C266 C 0.84911 -0.13577 0.17588
 C267 C 0.87448 -0.17975 0.14855
 C268 C 0.86094 -0.17194 0.18799
 C269 C 0.79935 -0.20702 0.20045
 C270 C 0.78011 -0.22448 0.21968
 C271 C 0.88412 -0.12019 0.11480
 C272 C 0.90160 -0.09978 0.09738
 H273 H 0.80837 -0.15047 0.10063
 H274 H 0.82929 -0.21704 0.12328
 H275 H 0.78326 -0.13677 0.17300
 H276 H 0.85505 -0.11190 0.19104
 H277 H 0.90124 -0.19204 0.14121
 H278 H 0.87604 -0.17839 0.21364
 C279 C 0.82100 0.34759 0.62880
 C280 C 0.83152 0.31045 0.63871
 C281 C 0.82040 0.31746 0.67867
 C282 C 0.80954 0.35422 0.66909
 C283 C 0.86082 0.35868 0.63823
 C284 C 0.84967 0.36564 0.67820
 C285 C 0.87171 0.32192 0.64779
 C286 C 0.86021 0.32855 0.68810
 C287 C 0.79768 0.29495 0.70155
 C288 C 0.77889 0.27685 0.72069
 C289 C 0.88303 0.38226 0.61611
 C290 C 0.90089 0.40230 0.59838
 H291 H 0.80510 0.35565 0.60417
 H292 H 0.82380 0.28751 0.62271
 H293 H 0.78375 0.36728 0.67809
 H294 H 0.85736 0.38857 0.69424
 H295 H 0.89751 0.30888 0.63879
 H296 H 0.87610 0.32049 0.71274
 C297 C 0.35762 -0.13607 0.68597
 C298 C 0.31466 -0.13892 0.68506
 C299 C 0.31834 -0.17783 0.68350
 C300 C 0.36092 -0.17537 0.68478
 C301 C 0.35785 -0.13542 0.64386
 C302 C 0.36150 -0.17433 0.64234
 C303 C 0.31527 -0.13790 0.64260
 C304 C 0.31860 -0.17715 0.64141
 C305 C 0.29618 -0.20152 0.70527
 C306 C 0.27772 -0.22088 0.72312
 C307 C 0.37980 -0.11242 0.62101
 C308 C 0.39783 -0.09435 0.60125
 H309 H 0.37390 -0.11890 0.70400
 H310 H 0.29511 -0.12467 0.70289
 H311 H 0.37941 -0.19108 0.70236
 H312 H 0.38103 -0.18862 0.62451
 H313 H 0.29676 -0.12219 0.62503
 H314 H 0.30234 -0.19431 0.62335
 C315 C 0.35996 0.35882 0.18081
 C316 C 0.31702 0.35654 0.17999
 C317 C 0.32009 0.31759 0.17914
 C318 C 0.36271 0.31950 0.18029
 C319 C 0.36019 0.35887 0.13868
 C320 C 0.36330 0.31992 0.13779
 C321 C 0.31756 0.35693 0.13756
 C322 C 0.32030 0.31761 0.13702
 C323 C 0.29740 0.29509 0.20183
 C324 C 0.27838 0.27695 0.22058
 C325 C 0.38210 0.38252 0.11659
 C326 C 0.39970 0.40271 0.09893
 H327 H 0.37652 0.37602 0.19855
 H328 H 0.29774 0.37133 0.19761
 H329 H 0.38098 0.30384 0.19815
 H330 H 0.38259 0.30515 0.12016
 H331 H 0.29926 0.37258 0.11972
 H332 H 0.30371 0.30040 0.11930
 C333 C 0.86222 0.14325 -0.17972
 C334 C 0.81925 0.14527 -0.17964
 C335 C 0.82185 0.18425 -0.17840
 C336 C 0.86451 0.18258 -0.17883
 C337 C 0.86186 0.14286 -0.13759
 C338 C 0.86451 0.18183 -0.13631
 C339 C 0.81920 0.14454 -0.13720
 C340 C 0.82146 0.18388 -0.13628
 C341 C 0.79913 0.20665 -0.20146
 C342 C 0.78001 0.22446 -0.22066
 C343 C 0.88373 0.11907 -0.11535
 C344 C 0.90130 0.09876 -0.09762
 H345 H 0.87921 0.12629 -0.19735
 H346 H 0.80040 0.13047 -0.19770
 H347 H 0.88287 0.19848 -0.19621
 H348 H 0.88337 0.19660 -0.11823
 H349 H 0.80080 0.12866 -0.11984
 H350 H 0.80444 0.20085 -0.11868
 C351 C 0.81920 0.65065 0.36884
 C352 C 0.82738 0.68887 0.36235
 C353 C 0.82000 0.68370 0.32123
 C354 C 0.81148 0.64586 0.32738
 C355 C 0.86042 0.64266 0.36199
 C356 C 0.85300 0.63753 0.32086
 C357 C 0.86898 0.68049 0.35587
 C358 C 0.86121 0.67571 0.31437
 C359 C 0.79735 0.70603 0.29811
 C360 C 0.77862 0.72397 0.27872
 C361 C 0.88261 0.61911 0.38414
 C362 C 0.90048 0.59897 0.40176
 H363 H 0.80219 0.64009 0.39149
 H364 H 0.81656 0.71024 0.37912
 H365 H 0.78759 0.63188 0.31540
 H366 H 0.86379 0.61618 0.30404
 H367 H 0.89288 0.69445 0.36785
 H368 H 0.87821 0.68626 0.29171
 C369 C 0.31610 0.14126 0.35915
 C370 C 0.32298 0.18006 0.35679
 C371 C 0.31838 0.17810 0.31498
 C372 C 0.31115 0.13965 0.31698
 C373 C 0.35796 0.13515 0.35417
 C374 C 0.35339 0.13316 0.31236
 C375 C 0.36517 0.17361 0.35215
 C376 C 0.36024 0.17201 0.30998
 C377 C 0.29616 0.20206 0.29344
 C378 C 0.27761 0.22158 0.27574
 C379 C 0.37994 0.11186 0.37680
 C380 C 0.39801 0.09357 0.39644
 H381 H 0.29819 0.12831 0.37959
 H382 H 0.31026 0.19961 0.37480
 H383 H 0.28864 0.12600 0.30226
 H384 H 0.36612 0.11360 0.29437
 H385 H 0.38766 0.18730 0.36685
 H386 H 0.37812 0.18498 0.28954
 C387 C 0.31913 0.64845 -0.13393
 C388 C 0.32560 0.68720 -0.13809
 C389 C 0.32084 0.68352 -0.17977
 C390 C 0.31403 0.64514 -0.17593
 C391 C 0.36104 0.64255 -0.13878
 C392 C 0.35625 0.63890 -0.18046
 C393 C 0.36790 0.68093 -0.14258
 C394 C 0.36275 0.67763 -0.18465
 C395 C 0.29805 0.70586 -0.20270
 C396 C 0.27892 0.72390 -0.22157
 C397 C 0.38297 0.61905 -0.11637
 C398 C 0.40054 0.59894 -0.09845
 H399 H 0.30146 0.63620 -0.11280
 H400 H 0.31270 0.70733 -0.12096
 H401 H 0.29163 0.63069 -0.18991
 H402 H 0.36912 0.61877 -0.19762
 H403 H 0.39030 0.69535 -0.12859
 H404 H 0.38039 0.68989 -0.20579
 C405 C 1.16747 -0.16827 -0.12223
 C406 C 1.15174 -0.19672 -0.14724
 C407 C 1.17770 -0.18480 -0.17804
 C408 C 1.19377 -0.15675 -0.15341
 C409 C 1.13760 -0.14392 -0.13707
 C410 C 1.16358 -0.13208 -0.16789
 C411 C 1.12148 -0.17196 -0.16169
 C412 C 1.14783 -0.16044 -0.19285
 C413 C 1.20051 -0.20679 -0.20118
 C414 C 1.21976 -0.22422 -0.22047
 C415 C 1.11582 -0.12029 -0.11484
 C416 C 1.09844 -0.09993 -0.09718
 H417 H 1.17525 -0.17120 -0.09293
 H418 H 1.14718 -0.22358 -0.13907
 H419 H 1.22375 -0.15076 -0.15031
 H420 H 1.16821 -0.10523 -0.17612
 H421 H 1.09150 -0.17792 -0.16478
 H422 H 1.14005 -0.15749 -0.22215
 C423 C 1.14002 0.35844 0.31930
 C424 C 1.18296 0.35606 0.31998
 C425 C 1.17995 0.31711 0.32083
 C426 C 1.13732 0.31913 0.31982
 C427 C 1.13992 0.35847 0.36142
 C428 C 1.13686 0.31952 0.36232
 C429 C 1.18255 0.35643 0.36242
 C430 C 1.17987 0.31710 0.36296
 C431 C 1.20242 0.29463 0.29781
 C432 C 1.22104 0.27660 0.27847
 C433 C 1.11796 0.38219 0.38351
 C434 C 1.10031 0.40244 0.40112
 H435 H 1.12338 0.37568 0.30159
 H436 H 1.20216 0.37083 0.30231
 H437 H 1.11899 0.30353 0.30202
 H438 H 1.11764 0.30478 0.38000
 H439 H 1.20090 0.37202 0.38020
 H440 H 1.19654 0.29984 0.38062
 C441 C 0.64045 -0.13728 0.31291
 C442 C 0.68350 -0.13895 0.31237
 C443 C 0.68132 -0.17787 0.31544
 C444 C 0.63866 -0.17658 0.31560
 C445 C 0.64170 -0.13532 0.35495
 C446 C 0.63956 -0.17425 0.35798
 C447 C 0.68437 -0.13662 0.35478
 C448 C 0.68254 -0.17589 0.35747
 C449 C 0.70354 -0.20163 0.29374
 C450 C 0.72205 -0.22105 0.27595
 C451 C 0.61968 -0.11227 0.37773
 C452 C 0.60155 -0.09418 0.39745
 H453 H 0.62292 -0.12111 0.29486
 H454 H 0.70186 -0.12474 0.29335
 H455 H 0.62015 -0.19332 0.29926
 H456 H 0.62122 -0.18850 0.37699
 H457 H 0.70290 -0.11990 0.37111
 H458 H 0.70007 -0.19204 0.37554
 C459 C 0.64725 0.36436 -0.17956
 C460 C 0.68851 0.35519 -0.17250
 C461 C 0.67934 0.31762 -0.17963
 C462 C 0.63839 0.32645 -0.18702
 C463 C 0.63911 0.35863 -0.13867
 C464 C 0.62989 0.32106 -0.14577
 C465 C 0.68006 0.34978 -0.13129
 C466 C 0.67121 0.31185 -0.13874
 C467 C 0.70208 0.29518 -0.20259
 C468 C 0.72112 0.27707 -0.22150
 C469 C 0.61703 0.38208 -0.11623
 C470 C 0.59924 0.40203 -0.09828
 H471 H 0.63717 0.38621 -0.19613
 H472 H 0.71284 0.36900 -0.18374
 H473 H 0.62151 0.31662 -0.21020
 H474 H 0.60555 0.30727 -0.13452
 H475 H 0.69696 0.35961 -0.10813
 H476 H 0.68133 0.29000 -0.12221
 C477 C 1.13006 0.15111 -0.17664
 C478 C 1.13722 0.18916 -0.16817
 C479 C 1.17847 0.18384 -0.17732
 C480 C 1.17163 0.14617 -0.18613
 C481 C 1.13887 0.14246 -0.13647
 C482 C 1.18013 0.13720 -0.14566
 C483 C 1.14567 0.18013 -0.12760
 C484 C 1.18730 0.17521 -0.13715
 C485 C 1.20100 0.20617 -0.20041
 C486 C 1.22004 0.22387 -0.21966
 C487 C 1.11722 0.11865 -0.11428
 C488 C 1.09978 0.09826 -0.09670
 H489 H 1.10627 0.14093 -0.19263
 H490 H 1.11985 0.21078 -0.17772
 H491 H 1.18255 0.13246 -0.21045
 H492 H 1.19754 0.11559 -0.13615
 H493 H 1.13474 0.19381 -0.10326
 H494 H 1.21111 0.18539 -0.12119
 C495 C 1.18368 0.64332 0.36043
 C496 C 1.18329 0.64455 0.31799
 C497 C 1.18119 0.68356 0.31972
 C498 C 1.18191 0.68268 0.36186
 C499 C 1.14098 0.64216 0.36028
 C500 C 1.13884 0.68117 0.36204
 C501 C 1.14029 0.64306 0.31814
 C502 C 1.13849 0.68241 0.31955
 C503 C 1.20381 0.70619 0.29678
 C504 C 1.22256 0.72436 0.27762
 C505 C 1.11884 0.61852 0.38251
 C506 C 1.10097 0.59850 0.40034
 H507 H 1.20209 0.62702 0.37747
 H508 H 1.20179 0.62968 0.29965
 H509 H 1.19926 0.69921 0.37962
 H510 H 1.12034 0.69602 0.38039
 H511 H 1.12295 0.62654 0.30035
 H512 H 1.12011 0.69872 0.30249
 C513 C 0.68464 0.13748 0.35688
 C514 C 0.68464 0.13932 0.31444
 C515 C 0.68171 0.17825 0.31689
 C516 C 0.68205 0.17676 0.35897
 C517 C 0.64200 0.13565 0.35620
 C518 C 0.63909 0.17459 0.35862
 C519 C 0.64163 0.13712 0.31412
 C520 C 0.63907 0.17643 0.31620
 C521 C 0.70397 0.20201 0.29518
 C522 C 0.72247 0.22134 0.27728
 C523 C 0.61989 0.11247 0.37879
 C524 C 0.60169 0.09420 0.39825
 H525 H 0.70314 0.12119 0.37382
 H526 H 0.70365 0.12511 0.29602
 H527 H 0.69888 0.19332 0.37718
 H528 H 0.62009 0.18884 0.37704
 H529 H 0.62479 0.12055 0.29592
 H530 H 0.62059 0.19274 0.29926
 C531 C 0.68199 0.64231 -0.13810
 C532 C 0.68172 0.64330 -0.18054
 C533 C 0.67951 0.68229 -0.17902
 C534 C 0.68011 0.68166 -0.13690
 C535 C 0.63931 0.64112 -0.13841
 C536 C 0.63706 0.68012 -0.13686
 C537 C 0.63873 0.64177 -0.18054
 C538 C 0.63683 0.68112 -0.17936
 C539 C 0.70223 0.70478 -0.20180
 C540 C 0.72125 0.72292 -0.22060
 C541 C 0.61728 0.61759 -0.11618
 C542 C 0.59954 0.59756 -0.09838
 H543 H 0.70033 0.62611 -0.12087
 H544 H 0.70032 0.62840 -0.19874
 H545 H 0.69740 0.69832 -0.11922
 H546 H 0.61845 0.69499 -0.11864
 H547 H 0.62146 0.62511 -0.19824
 H548 H 0.61853 0.69733 -0.19660
 C549 C 0.87492 -0.15862 -0.17360
 C550 C 0.85990 -0.19364 -0.16096
 C551 C 0.82193 -0.18456 -0.17765
 C552 C 0.83661 -0.14994 -0.19063
 C553 C 0.86192 -0.14310 -0.13715
 C554 C 0.82394 -0.13409 -0.15387
 C555 C 0.84726 -0.17771 -0.12411
 C556 C 0.80893 -0.16903 -0.14120
 C557 C 0.79921 -0.20694 -0.20055
 C558 C 0.78007 -0.22468 -0.21969
 C559 C 0.88373 -0.11924 -0.11511
 C560 C 0.90121 -0.09883 -0.09756
 H561 H 0.90232 -0.15408 -0.18666
 H562 H 0.87440 -0.21839 -0.16416
 H563 H 0.83198 -0.13877 -0.21822
 H564 H 0.80939 -0.10935 -0.15072
 H565 H 0.85190 -0.18885 -0.09651
 H566 H 0.78153 -0.17357 -0.12815
 C567 C 0.81929 0.36250 0.35473
 C568 C 0.82546 0.35521 0.31348
 C569 C 0.82077 0.31703 0.32112
 C570 C 0.81426 0.32398 0.36207
 C571 C 0.86127 0.35847 0.36124
 C572 C 0.85662 0.32030 0.36893
 C573 C 0.86776 0.35151 0.32029
 C574 C 0.86275 0.31297 0.32760
 C575 C 0.79802 0.29445 0.29839
 C576 C 0.77919 0.27632 0.27931
 C577 C 0.88347 0.38219 0.38317
 C578 C 0.90125 0.40238 0.40077
 H579 H 0.80165 0.38312 0.36613
 H580 H 0.81240 0.36933 0.29044
 H581 H 0.79200 0.31241 0.37899
 H582 H 0.86969 0.30620 0.39198
 H583 H 0.89000 0.36307 0.30334
 H584 H 0.88036 0.29234 0.31618
 C585 C 0.36030 -0.17709 0.35795
 C586 C 0.31735 -0.17960 0.35831
 C587 C 0.31748 -0.18081 0.31620
 C588 C 0.36012 -0.17865 0.31550
 C589 C 0.35707 -0.13814 0.35587
 C590 C 0.35722 -0.13934 0.31375
 C591 C 0.31443 -0.14032 0.35655
 C592 C 0.31423 -0.14187 0.31409
 C593 C 0.29521 -0.20454 0.29421
 C594 C 0.27661 -0.22375 0.27607
 C595 C 0.37913 -0.11480 0.37857
 C596 C 0.39729 -0.09630 0.39798
 H597 H 0.37949 -0.19137 0.37622
 H598 H 0.30076 -0.19640 0.37644
 H599 H 0.37869 -0.19468 0.29843
 H600 H 0.37381 -0.12253 0.29563
 H601 H 0.29583 -0.12430 0.37362
 H602 H 0.29503 -0.12762 0.29582
 C603 C 0.35912 0.35903 -0.17988
 C604 C 0.36279 0.31977 -0.18011
 C605 C 0.32023 0.31698 -0.17866
 C606 C 0.31626 0.35589 -0.17878
 C607 C 0.35988 0.35844 -0.13776
 C608 C 0.31732 0.35564 -0.13633
 C609 C 0.36389 0.31953 -0.13761
 C610 C 0.32096 0.31637 -0.13654
 C611 C 0.29776 0.29437 -0.20161
 C612 C 0.27887 0.27617 -0.22053
 C613 C 0.38164 0.38215 -0.11542
 C614 C 0.39923 0.40234 -0.09764
 H615 H 0.37506 0.37683 -0.19747
 H616 H 0.38122 0.30477 -0.19838
 H617 H 0.29644 0.37060 -0.19596
 H618 H 0.29886 0.37062 -0.11808
 H619 H 0.38372 0.30485 -0.12041
 H620 H 0.30500 0.29856 -0.11898
 C621 C 1.18237 -0.14428 0.14034
 C622 C 1.18097 -0.14630 0.18271
 C623 C 1.17967 -0.18528 0.18007
 C624 C 1.18140 -0.18361 0.13801
 C625 C 1.13967 -0.14369 0.13938
 C626 C 1.13833 -0.18267 0.13670
 C627 C 1.13797 -0.14538 0.18144
 C628 C 1.13698 -0.18472 0.17914
 C629 C 1.20240 -0.20784 0.20306
 C630 C 1.22152 -0.22576 0.22221
 C631 C 1.11775 -0.11984 0.11713
 C632 C 1.10012 -0.09955 0.09935
 H633 H 1.20083 -0.12742 0.12415
 H634 H 1.19873 -0.13156 0.20187
 H635 H 1.19951 -0.19958 0.12039
 H636 H 1.12056 -0.19739 0.11753
 H637 H 1.11988 -0.12942 0.19910
 H638 H 1.11855 -0.20160 0.19536
 C639 C 1.14344 0.36028 0.67982
 C640 C 1.13817 0.32124 0.68193
 C641 C 1.18047 0.31672 0.67882
 C642 C 1.18604 0.35541 0.67704
 C643 C 1.14075 0.35821 0.63782
 C644 C 1.18305 0.35368 0.63472
 C645 C 1.13513 0.31952 0.63957
 C646 C 1.17781 0.31461 0.63682
 C647 C 1.20281 0.29411 0.70203
 C648 C 1.22136 0.27597 0.72143
 C649 C 1.11887 0.38196 0.61550
 C650 C 1.10116 0.40217 0.59776
 H651 H 1.12907 0.37931 0.69727
 H652 H 1.11996 0.30766 0.70162
 H653 H 1.20720 0.36994 0.69269
 H654 H 1.20128 0.36726 0.61505
 H655 H 1.11396 0.30502 0.62390
 H656 H 1.19221 0.29557 0.61941
 C657 C 0.63870 -0.17522 0.64172
 C658 C 0.68168 -0.17727 0.64184
 C659 C 0.68101 -0.17884 0.68392
 C660 C 0.63836 -0.17714 0.68414
 C661 C 0.64131 -0.13628 0.64424
 C662 C 0.64062 -0.13783 0.68632
 C663 C 0.68397 -0.13800 0.64403
 C664 C 0.68365 -0.13991 0.68647
 C665 C 0.70332 -0.20258 0.70578
 C666 C 0.72191 -0.22190 0.72374
 C667 C 0.61925 -0.11313 0.62142
 C668 C 0.60112 -0.09488 0.60174
 H669 H 0.61996 -0.18950 0.62307
 H670 H 0.69877 -0.19376 0.62379
 H671 H 0.61986 -0.19353 0.70084
 H672 H 0.62352 -0.12133 0.70435
 H673 H 0.70249 -0.12163 0.62733
 H674 H 0.70241 -0.12567 0.70513
 C675 C 0.63883 0.35825 0.18199
 C676 C 0.63641 0.31892 0.18139
 C677 C 0.67905 0.31715 0.18027
 C678 C 0.68179 0.35612 0.18121
 C679 C 0.63847 0.35840 0.13986
 C680 C 0.68111 0.35660 0.13877
 C681 C 0.63569 0.31942 0.13888
 C682 C 0.67871 0.31727 0.13814
 C683 C 0.70202 0.29464 0.20294
 C684 C 0.72125 0.27650 0.22167
 C685 C 0.61631 0.38200 0.11768
 C686 C 0.59857 0.40212 0.09987
 H687 H 0.62218 0.37535 0.19978
 H688 H 0.61830 0.30317 0.19919
 H689 H 0.70099 0.37097 0.19886
 H690 H 0.69926 0.37234 0.12099
 H691 H 0.61648 0.30460 0.12122
 H692 H 0.69538 0.30016 0.12038
 C693 C 0.86458 0.18176 0.13629
 C694 C 0.82150 0.18312 0.13665
 C695 C 0.82245 0.18416 0.17874
 C696 C 0.86513 0.18318 0.17879
 C697 C 0.86267 0.14278 0.13836
 C698 C 0.86359 0.14384 0.18046
 C699 C 0.81999 0.14378 0.13835
 C700 C 0.82060 0.14518 0.18076
 C701 C 0.79961 0.20648 0.20159
 C702 C 0.78040 0.22419 0.22069
 C703 C 0.88457 0.11895 0.11635
 C704 C 0.90205 0.09855 0.09879
 H705 H 0.88292 0.19650 0.11774
 H706 H 0.80392 0.19954 0.11891
 H707 H 0.88341 0.19965 0.19569
 H708 H 0.88115 0.12743 0.19823
 H709 H 0.80167 0.12732 0.12147
 H710 H 0.80228 0.13039 0.19929
 C711 C 0.86310 0.68054 0.63755
 C712 C 0.82006 0.68251 0.63718
 C713 C 0.82023 0.68272 0.67931
 C714 C 0.86289 0.68112 0.68006
 C715 C 0.86054 0.64155 0.63865
 C716 C 0.86069 0.64179 0.68079
 C717 C 0.81788 0.64316 0.63792
 C718 C 0.81771 0.64373 0.68037
 C719 C 0.79759 0.70517 0.70232
 C720 C 0.77884 0.72321 0.72157
 C721 C 0.88270 0.61800 0.61645
 C722 C 0.90053 0.59795 0.59869
 H723 H 0.88201 0.69542 0.61969
 H724 H 0.80308 0.69951 0.61950
 H725 H 0.88115 0.69698 0.69765
 H726 H 0.87764 0.62480 0.69850
 H727 H 0.79959 0.62731 0.62035
 H728 H 0.79881 0.62883 0.69822
 C729 C 0.35839 0.13641 0.68573
 C730 C 0.36092 0.17572 0.68366
 C731 C 0.31828 0.17768 0.68370
 C732 C 0.31538 0.13876 0.68614
 C733 C 0.35729 0.13501 0.64365
 C734 C 0.31465 0.13699 0.64370
 C735 C 0.36016 0.17394 0.64124
 C736 C 0.31721 0.17625 0.64162
 C737 C 0.29634 0.20150 0.70573
 C738 C 0.27799 0.22089 0.72377
 C739 C 0.37904 0.11184 0.62063
 C740 C 0.39702 0.09365 0.60083
 H741 H 0.37554 0.11975 0.70361
 H742 H 0.37970 0.19193 0.70031
 H743 H 0.29670 0.12457 0.70486
 H744 H 0.29585 0.12078 0.62705
 H745 H 0.37883 0.18816 0.62252
 H746 H 0.30007 0.19291 0.62372
 C747 C 0.36026 0.68114 0.13769
 C748 C 0.31719 0.68187 0.13897
 C749 C 0.31900 0.68340 0.18105
 C750 C 0.36171 0.68303 0.18014
 C751 C 0.35915 0.64213 0.14020
 C752 C 0.36095 0.64368 0.18228
 C753 C 0.31645 0.64252 0.14114
 C754 C 0.31793 0.64440 0.18353
 C755 C 0.29628 0.70599 0.20397
 C756 C 0.27725 0.72420 0.22287
 C757 C 0.38123 0.61857 0.11777
 C758 C 0.39905 0.59859 0.09980
 H759 H 0.37788 0.69602 0.11860
 H760 H 0.29895 0.69782 0.12138
 H761 H 0.38010 0.69992 0.19643
 H762 H 0.37917 0.62774 0.19990
 H763 H 0.29802 0.62565 0.12487
 H764 H 0.30031 0.62950 0.20261
   
