data_POSCAR
  _audit_creation_date              2014-09-24
  _audit_creation_method            'ToBaCCo'
  _symmetry_space_group_name_H-M    'P1'
  _symmetry_Int_Tables_number       1
  _symmetry_cell_setting            triclinic
  loop_
  _symmetry_equiv_pos_as_xyz
 x,y,z
_cell_length_a 44.0758
_cell_length_b 45.3031
_cell_length_c 8.0560
_cell_angle_alpha 89.872300
_cell_angle_beta 90.283700
_cell_angle_gamma 90.103600
loop_
  _atom_site_label
  _atom_site_type_symbol
  _atom_site_fract_x
  _atom_site_fract_y
  _atom_site_fract_z
C1 C 0.16929 0.25051 0.20699
 C2 C 0.18448 0.22457 0.25090
 C3 C 0.21607 0.22476 0.27046
 C4 C 0.23299 0.25070 0.24016
 C5 C 0.21725 0.27659 0.19378
 C6 C 0.18558 0.27653 0.17992
 C7 C 0.26680 0.25071 0.25665
 C8 C 0.28257 0.27652 0.30423
 C9 C 0.31424 0.27648 0.31855
 C10 C 0.33047 0.25052 0.29107
 C11 C 0.31524 0.22461 0.24671
 C12 C 0.28366 0.22480 0.22650
 H13 H 0.14479 0.25044 0.19239
 H14 H 0.22726 0.20464 0.30977
 H15 H 0.22943 0.29679 0.16662
 H16 H 0.27043 0.29665 0.33222
 H17 H 0.35498 0.25049 0.30511
 H18 H 0.27243 0.20471 0.18706
 C19 C 0.83021 0.25094 0.21082
 C20 C 0.81402 0.27698 0.18392
 C21 C 0.78234 0.27705 0.19708
 C22 C 0.76654 0.25113 0.24280
 C23 C 0.78342 0.22515 0.27223
 C24 C 0.81496 0.22499 0.25328
 C25 C 0.73271 0.25110 0.25803
 C26 C 0.71576 0.22514 0.22778
 C27 C 0.68418 0.22493 0.24644
 C28 C 0.66901 0.25085 0.28922
 C29 C 0.68530 0.27689 0.31602
 C30 C 0.71697 0.27697 0.30334
 H31 H 0.85471 0.25082 0.19788
 H32 H 0.77025 0.29725 0.16939
 H33 H 0.77229 0.20492 0.31005
 H34 H 0.72691 0.20503 0.18913
 H35 H 0.64452 0.25077 0.30312
 H36 H 0.72912 0.29717 0.33076
 C37 C 0.66986 0.75204 0.71061
 C38 C 0.68512 0.72618 0.75458
 C39 C 0.71669 0.72642 0.77352
 C40 C 0.73356 0.75238 0.74261
 C41 C 0.71776 0.77821 0.69594
 C42 C 0.68606 0.77808 0.68262
 C43 C 0.76738 0.75238 0.75787
 C44 C 0.78323 0.77816 0.80536
 C45 C 0.81495 0.77804 0.81899
 C46 C 0.83108 0.75202 0.79050
 C47 C 0.81573 0.72622 0.74584
 C48 C 0.78417 0.72648 0.72657
 H49 H 0.64536 0.75184 0.69685
 H50 H 0.72788 0.70630 0.81255
 H51 H 0.72990 0.79839 0.66772
 H52 H 0.77106 0.79825 0.83406
 H53 H 0.85559 0.75173 0.80421
 H54 H 0.77293 0.70642 0.68702
 C55 C 0.33021 0.75096 0.71117
 C56 C 0.31400 0.77697 0.68338
 C57 C 0.28232 0.77700 0.69591
 C58 C 0.26652 0.75109 0.74173
 C59 C 0.28342 0.72515 0.77239
 C60 C 0.31499 0.72503 0.75420
 C61 C 0.23269 0.75103 0.75637
 C62 C 0.21578 0.72507 0.72577
 C63 C 0.18419 0.72481 0.74440
 C64 C 0.16900 0.75070 0.78756
 C65 C 0.18525 0.77673 0.81520
 C66 C 0.21693 0.77685 0.80235
 H67 H 0.35471 0.75086 0.69820
 H68 H 0.27019 0.79717 0.66781
 H69 H 0.27228 0.70497 0.81071
 H70 H 0.22698 0.70498 0.68724
 H71 H 0.14450 0.75059 0.80119
 H72 H 0.22908 0.79702 0.83050
 O73 O 1.02994 -0.03578 0.23086
 O74 O 0.97114 0.01943 0.32602
 O75 O 0.97091 -0.03585 0.23340
 O76 O 1.03016 0.01945 0.32472
 O77 O 1.02958 0.03252 0.06010
 O78 O 0.97051 -0.02259 -0.03092
 O79 O 0.97084 0.03249 0.06136
 O80 O 1.02944 -0.02251 -0.03343
 Cu81 Cu 1.00060 -0.00969 0.30486
 Cu82 Cu 1.00005 0.00645 -0.01192
 C83 C 1.03946 -0.03863 0.08348
 C84 C 0.96125 0.03550 0.20838
 C85 C 0.96085 -0.03870 0.08656
 C86 C 1.03967 0.03554 0.20670
 O87 O 0.52998 0.46423 0.73091
 O88 O 0.47107 0.51933 0.82649
 O89 O 0.47093 0.46408 0.73289
 O90 O 0.53010 0.51941 0.82578
 O91 O 0.52952 0.53268 0.56151
 O92 O 0.47054 0.47754 0.46892
 O93 O 0.47078 0.53257 0.56217
 O94 O 0.52949 0.47772 0.46698
 Cu95 Cu 0.50057 0.49024 0.80526
 Cu96 Cu 0.50004 0.50659 0.48906
 C97 C 0.53954 0.46153 0.58347
 C98 C 0.46118 0.53547 0.70921
 C99 C 0.46088 0.46133 0.58594
 C100 C 0.53959 0.53562 0.70817
 O101 O 0.02936 0.51973 -0.32618
 O102 O -0.02961 0.46448 -0.22913
 O103 O -0.02968 0.51970 -0.32517
 O104 O 0.02943 0.46446 -0.23169
 O105 O 0.02986 0.47782 0.03210
 O106 O -0.02906 0.53288 -0.06112
 O107 O -0.02909 0.47788 0.03461
 O108 O 0.02969 0.53288 -0.06204
 Cu109 Cu -0.00018 0.49058 -0.30421
 Cu110 Cu 0.00040 0.50683 0.01172
 C111 C 0.03929 0.53586 -0.20913
 C112 C -0.03916 0.46170 -0.08164
 C113 C -0.03913 0.53585 -0.20782
 C114 C 0.03948 0.46166 -0.08472
 O115 O 0.52873 1.02037 0.17431
 O116 O 0.46992 0.96490 0.26970
 O117 O 0.46971 1.02013 0.17447
 O118 O 0.52897 0.96510 0.26816
 O119 O 0.52927 0.97836 0.53215
 O120 O 0.47019 1.03321 0.43875
 O121 O 0.47030 0.97818 0.53364
 O122 O 0.52892 1.03344 0.43865
 Cu123 Cu 0.49929 0.99111 0.19557
 Cu124 Cu 0.49970 1.00726 0.51205
 C125 C 0.53857 1.03648 0.29165
 C126 C 0.46033 0.96203 0.41704
 C127 C 0.46016 1.03619 0.29196
 C128 C 0.53900 0.96231 0.41514
 C129 C 1.13421 0.15032 0.27163
 C130 C 1.14902 0.12331 0.19087
 C131 C 1.13066 0.09907 0.18638
 C132 C 1.09932 0.10423 0.26325
 C133 C 1.08633 0.13096 0.16981
 C134 C 1.10463 0.15513 0.17422
 C135 C 1.12419 0.13970 0.44410
 C136 C 1.10581 0.11543 0.43971
 C137 C 1.15350 0.17671 0.27281
 C138 C 1.16846 0.19898 0.26617
 C139 C 1.07911 0.07853 0.25442
 C140 C 1.06155 0.05832 0.23780
 H141 H 1.17192 0.12322 0.14181
 H142 H 1.13782 0.07822 0.13331
 H143 H 1.06463 0.13089 0.10543
 H144 H 1.09857 0.17577 0.11393
 H145 H 1.13099 0.15026 0.55925
 H146 H 1.09685 0.10518 0.55115
 C147 C 0.63396 0.65049 0.77671
 C148 C 0.62575 0.63842 0.94915
 C149 C 0.60739 0.61413 0.94403
 C150 C 0.59912 0.60437 0.76696
 C151 C 0.62963 0.59999 0.67933
 C152 C 0.64795 0.62424 0.68450
 C153 C 0.60344 0.65597 0.68989
 C154 C 0.58516 0.63178 0.68478
 C155 C 0.65326 0.67689 0.77824
 C156 C 0.66824 0.69914 0.77154
 C157 C 0.57894 0.57865 0.75712
 C158 C 0.56143 0.55842 0.73982
 H159 H 0.63371 0.64804 1.06477
 H160 H 0.59961 0.60293 1.05527
 H161 H 0.63628 0.57962 0.61894
 H162 H 0.67031 0.62464 0.62856
 H163 H 0.59673 0.67705 0.63699
 H164 H 0.56282 0.63216 0.62737
 C165 C -0.13504 0.35061 0.07856
 C166 C -0.14880 0.37337 -0.04146
 C167 C -0.13004 0.39667 -0.07350
 C168 C -0.09941 0.39486 0.01767
 C169 C -0.08609 0.36491 -0.03213
 C170 C -0.10480 0.34168 -0.00020
 C171 C -0.12621 0.36828 0.23394
 C172 C -0.10749 0.39156 0.20183
 C173 C -0.15468 0.32520 0.11359
 C174 C -0.16964 0.30359 0.14425
 C175 C -0.07883 0.41959 -0.01663
 C176 C -0.06111 0.43922 -0.04552
 H177 H -0.17124 0.37135 -0.09655
 H178 H -0.13643 0.41463 -0.15583
 H179 H -0.06388 0.36218 -0.08767
 H180 H -0.09862 0.31906 -0.02858
 H181 H -0.13405 0.36304 0.35814
 H182 H -0.09928 0.40626 0.29835
 C183 C 0.36476 0.85065 0.57639
 C184 C 0.37427 0.86781 0.73235
 C185 C 0.39293 0.89113 0.70039
 C186 C 0.40024 0.89502 0.51558
 C187 C 0.36925 0.89718 0.42840
 C188 C 0.35056 0.87382 0.46048
 C189 C 0.39463 0.84191 0.49295
 C190 C 0.41327 0.86520 0.46103
 C191 C 0.34520 0.82519 0.61176
 C192 C 0.33031 0.80356 0.64301
 C193 C 0.42075 0.91981 0.48139
 C194 C 0.43843 0.93948 0.45267
 H195 H 0.36691 0.86220 0.85688
 H196 H 0.40155 0.90551 0.79746
 H197 H 0.36259 0.91539 0.34848
 H198 H 0.32789 0.87203 0.40817
 H199 H 0.40062 0.81937 0.46150
 H200 H 0.43521 0.86261 0.40219
 C201 C -0.13331 0.65061 -0.27686
 C202 C -0.14911 0.62287 -0.20937
 C203 C -0.13082 0.59864 -0.20414
 C204 C -0.09854 0.60454 -0.26698
 C205 C -0.08685 0.63040 -0.16182
 C206 C -0.10508 0.65456 -0.16699
 C207 C -0.12103 0.64160 -0.44751
 C208 C -0.10272 0.61734 -0.44226
 C209 C -0.15255 0.67698 -0.27845
 C210 C -0.16748 0.69921 -0.27157
 C211 C -0.07841 0.57885 -0.25720
 C212 C -0.06093 0.55863 -0.23982
 H213 H -0.17260 0.62230 -0.16943
 H214 H -0.13863 0.57731 -0.15974
 H215 H -0.06602 0.62979 -0.08934
 H216 H -0.09986 0.67461 -0.09893
 H217 H -0.12629 0.65320 -0.56213
 H218 H -0.09228 0.60815 -0.55232
 C219 C 0.36554 1.15058 0.22509
 C220 C 0.37491 1.13960 0.05255
 C221 C 0.39332 1.11541 0.05738
 C222 C 0.40048 1.10465 0.23411
 C223 C 0.36943 1.09955 0.31495
 C224 C 0.35105 1.12371 0.31019
 C225 C 0.39547 1.15573 0.31867
 C226 C 0.41380 1.13164 0.32335
 C227 C 0.34620 1.17689 0.22385
 C228 C 0.33123 1.19908 0.23090
 C229 C 0.42071 1.07904 0.24323
 C230 C 0.43828 1.05889 0.26015
 H231 H 0.36769 1.14986 -0.06291
 H232 H 0.40191 1.10493 -0.05385
 H233 H 0.36248 1.07879 0.37067
 H234 H 0.32836 1.12366 0.36203
 H235 H 0.40173 1.17651 0.37647
 H236 H 0.43575 1.13181 0.38510
 C237 C 1.13468 -0.14979 -0.07656
 C238 C 1.13012 -0.12905 -0.22559
 C239 C 1.11153 -0.10577 -0.19328
 C240 C 1.09935 -0.10551 -0.01505
 C241 C 1.12768 -0.10658 0.09661
 C242 C 1.14628 -0.12990 0.06423
 C243 C 1.10255 -0.15892 -0.02448
 C244 C 1.08400 -0.13567 0.00779
 C245 C 1.15416 -0.17520 -0.11213
 C246 C 1.16900 -0.19677 -0.14378
 C247 C 1.07893 -0.08077 0.01953
 C248 C 1.06132 -0.06113 0.04821
 H249 H 1.14054 -0.13236 -0.34591
 H250 H 1.10606 -0.08913 -0.28577
 H251 H 1.13269 -0.09048 0.19253
 H252 H 1.16722 -0.13376 0.13230
 H253 H 1.09505 -0.18168 -0.01351
 H254 H 1.06060 -0.13853 0.04634
 C255 C 0.63482 0.35046 0.42290
 C256 C 0.62979 0.37084 0.27281
 C257 C 0.61122 0.39415 0.30489
 C258 C 0.59952 0.39478 0.48401
 C259 C 0.62815 0.39404 0.59349
 C260 C 0.64674 0.37072 0.56120
 C261 C 0.60288 0.34137 0.47828
 C262 C 0.58435 0.36463 0.51039
 C263 C 0.65427 0.32504 0.38744
 C264 C 0.66908 0.30344 0.35618
 C265 C 0.57909 0.41951 0.51849
 C266 C 0.56145 0.43911 0.54752
 H267 H 0.64003 0.36735 0.15222
 H268 H 0.60553 0.41060 0.21168
 H269 H 0.63332 0.41034 0.68816
 H270 H 0.66788 0.36707 0.62779
 H271 H 0.59544 0.31861 0.49084
 H272 H 0.56104 0.36179 0.55058
 C273 C 0.86489 -0.14989 -0.07205
 C274 C 0.86914 -0.14377 0.11399
 C275 C 0.88784 -0.12046 0.14651
 C276 C 0.90044 -0.10557 -0.01020
 C277 C 0.87237 -0.09729 -0.11380
 C278 C 0.85366 -0.12061 -0.14635
 C279 C 0.89713 -0.15373 -0.13972
 C280 C 0.91579 -0.13048 -0.10722
 C281 C 0.84532 -0.17530 -0.10832
 C282 C 0.83045 -0.19690 -0.14102
 C283 C 0.92101 -0.08083 0.02432
 C284 C 0.93878 -0.06120 0.05245
 H285 H 0.85838 -0.15656 0.21154
 H286 H 0.89309 -0.11329 0.27192
 H287 H 0.86757 -0.07507 -0.15722
 H288 H 0.83282 -0.11839 -0.21767
 H289 H 0.90466 -0.17307 -0.20735
 H290 H 0.93928 -0.12990 -0.14698
 C291 C 0.36491 0.35014 0.42736
 C292 C 0.35029 0.37392 0.53627
 C293 C 0.36899 0.39728 0.56857
 C294 C 0.40044 0.39449 0.48876
 C295 C 0.39411 0.38984 0.30314
 C296 C 0.37544 0.36653 0.27085
 C297 C 0.39422 0.34155 0.51877
 C298 C 0.41288 0.36483 0.55098
 C299 C 0.34537 0.32469 0.39158
 C300 C 0.33051 0.30305 0.35979
 C301 C 0.42102 0.41924 0.52305
 C302 C 0.43881 0.43886 0.55128
 H303 H 0.32733 0.37253 0.58386
 H304 H 0.36204 0.41592 0.64371
 H305 H 0.40340 0.40371 0.20570
 H306 H 0.36874 0.36043 0.14565
 H307 H 0.39982 0.31912 0.55533
 H308 H 0.43446 0.36233 0.61497
 C309 C 0.13386 0.65055 -0.27722
 C310 C 0.14742 0.62455 -0.17963
 C311 C 0.12905 0.60033 -0.17502
 C312 C 0.09891 0.60449 -0.26847
 C313 C 0.10792 0.61375 -0.44505
 C314 C 0.12633 0.63802 -0.44967
 C315 C 0.10299 0.65630 -0.19649
 C316 C 0.08466 0.63214 -0.19191
 C317 C 0.15320 0.67694 -0.27819
 C318 C 0.16818 0.69920 -0.27119
 C319 C 0.07867 0.57881 -0.25909
 C320 C 0.06112 0.55861 -0.24173
 H321 H 0.16953 0.62509 -0.11966
 H322 H 0.13542 0.58013 -0.11111
 H323 H 0.10056 0.60225 -0.55631
 H324 H 0.13473 0.64733 -0.56496
 H325 H 0.09612 0.67752 -0.14702
 H326 H 0.06210 0.63270 -0.13851
 C327 C 0.63360 1.15085 0.22582
 C328 C 0.62767 1.13721 0.05427
 C329 C 0.60912 1.11305 0.05856
 C330 C 0.59839 1.10499 0.23399
 C331 C 0.58355 1.13316 0.30065
 C332 C 0.60202 1.15722 0.29635
 C333 C 0.64609 1.12547 0.33246
 C334 C 0.62758 1.10136 0.33679
 C335 C 0.65307 1.17714 0.22459
 C336 C 0.66812 1.19935 0.23118
 C337 C 0.57802 1.07940 0.24271
 C338 C 0.56041 1.05924 0.25952
 H339 H 0.63726 1.14571 -0.06014
 H340 H 0.60278 1.10086 -0.05218
 H341 H 0.56050 1.13413 0.34733
 H342 H 0.59479 1.17878 0.33926
 H343 H 0.66761 1.12635 0.39849
 H344 H 0.63323 1.08157 0.40659
 C345 C 0.13507 0.35030 0.07242
 C346 C 0.14694 0.37961 0.14292
 C347 C 0.12833 0.40301 0.11120
 C348 C 0.09970 0.39474 0.01216
 C349 C 0.08456 0.37010 0.11322
 C350 C 0.10313 0.34677 0.14485
 C351 C 0.13002 0.35616 -0.11341
 C352 C 0.11142 0.37953 -0.14512
 C353 C 0.15454 0.32479 0.10754
 C354 C 0.16935 0.30313 0.13900
 C355 C 0.07921 0.41955 -0.02164
 C356 C 0.06149 0.43919 -0.04980
 H357 H 0.16809 0.38180 0.21147
 H358 H 0.13353 0.42525 0.15252
 H359 H 0.06128 0.37090 0.15628
 H360 H 0.09573 0.32760 0.21507
 H361 H 0.14023 0.34317 -0.21138
 H362 H 0.10570 0.38656 -0.27036
 C363 C 0.63519 0.85152 0.57336
 C364 C 0.64776 0.87306 0.44319
 C365 C 0.62901 0.89634 0.41107
 C366 C 0.59957 0.89574 0.51240
 C367 C 0.60992 0.89384 0.69432
 C368 C 0.62864 0.87059 0.72635
 C369 C 0.60387 0.84239 0.50704
 C370 C 0.58517 0.86561 0.47504
 C371 C 0.65481 0.82615 0.60902
 C372 C 0.66973 0.80459 0.64104
 C373 C 0.57895 0.92041 0.47816
 C374 C 0.56113 0.93995 0.44988
 H375 H 0.66945 0.87028 0.38190
 H376 H 0.63462 0.91351 0.32212
 H377 H 0.60319 0.90941 0.78957
 H378 H 0.63796 0.86624 0.84902
 H379 H 0.59699 0.81966 0.48649
 H380 H 0.56229 0.86275 0.42712
 C381 C 0.86635 0.14959 0.27450
 C382 C 0.87509 0.13781 0.44717
 C383 C 0.89360 0.11370 0.44251
 C384 C 0.90150 0.10382 0.26571
 C385 C 0.91506 0.13127 0.18219
 C386 C 0.89662 0.15527 0.18676
 C387 C 0.85231 0.12310 0.18350
 C388 C 0.87080 0.09903 0.17886
 C389 C 0.84692 0.17582 0.27593
 C390 C 0.83186 0.19798 0.26955
 C391 C 0.92183 0.07829 0.25678
 C392 C 0.93942 0.05818 0.24012
 H393 H 0.86738 0.14749 0.56265
 H394 H 0.90176 0.10272 0.55396
 H395 H 0.93726 0.13181 0.12437
 H396 H 0.90302 0.17635 0.13278
 H397 H 0.82984 0.12324 0.12770
 H398 H 0.86415 0.07852 0.11927
 C399 C 0.36643 0.64965 0.77679
 C400 C 0.37730 0.63942 0.94897
 C401 C 0.39579 0.61529 0.94433
 C402 C 0.40152 0.60383 0.76799
 C403 C 0.41394 0.63050 0.67208
 C404 C 0.39553 0.65453 0.67667
 C405 C 0.35139 0.62238 0.69871
 C406 C 0.36985 0.59828 0.69405
 C407 C 0.34700 0.67590 0.77801
 C408 C 0.33192 0.69805 0.77123
 C409 C 0.42181 0.57827 0.75877
 C410 C 0.43937 0.55815 0.74155
 H411 H 0.37102 0.65014 1.06410
 H412 H 0.40536 0.60534 1.05549
 H413 H 0.43536 0.63051 0.60604
 H414 H 0.40121 0.67511 0.61469
 H415 H 0.32828 0.62202 0.65161
 H416 H 0.36255 0.57728 0.64290
   
