data_POSCAR
  _audit_creation_date              2014-09-24
  _audit_creation_method            'ToBaCCo'
  _symmetry_space_group_name_H-M    'P1'
  _symmetry_Int_Tables_number       1
  _symmetry_cell_setting            triclinic
  loop_
  _symmetry_equiv_pos_as_xyz
 x,y,z
_cell_length_a 29.0830
_cell_length_b 28.7193
_cell_length_c 23.2745
_cell_angle_alpha 89.483700
_cell_angle_beta 89.983600
_cell_angle_gamma 88.968800
loop_
  _atom_site_label
  _atom_site_type_symbol
  _atom_site_fract_x
  _atom_site_fract_y
  _atom_site_fract_z
C1 C 1.28640 0.20142 0.26546
 C2 C 1.25006 0.22466 0.23764
 C3 C 1.21414 0.19941 0.21447
 C4 C 1.21268 0.15087 0.22141
 C5 C 1.24978 0.12753 0.24939
 C6 C 1.28735 0.15263 0.27123
 C7 C 1.24790 0.27578 0.23799
 C8 C 1.28361 0.30155 0.21443
 C9 C 1.28580 0.35010 0.22215
 C10 C 1.24971 0.37250 0.25324
 C11 C 1.21410 0.34614 0.27816
 C12 C 1.21275 0.29822 0.26824
 H13 H 1.31419 0.22177 0.28269
 H14 H 1.18695 0.21793 0.19147
 H15 H 1.30956 0.28332 0.18937
 H16 H 1.18573 0.27777 0.28759
 H17 H 1.24857 0.09016 0.25585
 H18 H 1.25075 0.40956 0.26125
 C19 C 0.77815 -0.30065 0.25957
 C20 C 0.74299 -0.27951 0.22725
 C21 C 0.70839 -0.30648 0.20407
 C22 C 0.70884 -0.35484 0.21273
 C23 C 0.74392 -0.37601 0.24653
 C24 C 0.77770 -0.34846 0.27313
 C25 C 0.73994 -0.22847 0.22555
 C26 C 0.77583 -0.20306 0.20189
 C27 C 0.78077 -0.15572 0.21461
 C28 C 0.74790 -0.13363 0.25036
 C29 C 0.71106 -0.15908 0.27351
 C30 C 0.70643 -0.20597 0.25864
 H31 H 0.80510 -0.27901 0.27642
 H32 H 0.68104 -0.28981 0.17930
 H33 H 0.80113 -0.22089 0.17540
 H34 H 0.67885 -0.22609 0.27723
 H35 H 0.74307 -0.41319 0.25459
 H36 H 0.75183 -0.09741 0.26167
 C37 C 0.78475 0.19442 -0.22906
 C38 C 0.74703 0.21744 -0.25384
 C39 C 0.71326 0.19222 -0.28118
 C40 C 0.71875 0.14418 -0.28916
 C41 C 0.75544 0.12025 -0.26111
 C42 C 0.78863 0.14561 -0.23021
 C43 C 0.74449 0.26833 -0.25609
 C44 C 0.77435 0.29246 -0.29222
 C45 C 0.77157 0.34140 -0.29793
 C46 C 0.73737 0.36500 -0.26496
 C47 C 0.70470 0.34036 -0.23244
 C48 C 0.70965 0.29206 -0.22681
 H49 H 0.81083 0.21460 -0.20785
 H50 H 0.68436 0.21078 -0.30073
 H51 H 0.79815 0.27206 -0.31791
 H52 H 0.68604 0.27275 -0.20000
 H53 H 0.75851 0.08271 -0.26404
 H54 H 0.73590 0.40264 -0.26390
 C55 C 1.27789 -0.30256 -0.22795
 C56 C 1.24941 -0.27923 -0.26674
 C57 C 1.21862 -0.30373 -0.30016
 C58 C 1.20984 -0.35076 -0.28816
 C59 C 1.23961 -0.37481 -0.24901
 C60 C 1.27398 -0.35062 -0.21856
 C61 C 1.24673 -0.22848 -0.26530
 C62 C 1.27751 -0.20207 -0.29658
 C63 C 1.27791 -0.15368 -0.29027
 C64 C 1.24216 -0.13147 -0.25904
 C65 C 1.20945 -0.15816 -0.22839
 C66 C 1.21518 -0.20684 -0.22851
 H67 H 1.30329 -0.28274 -0.20495
 H68 H 1.19933 -0.28494 -0.33300
 H69 H 1.30294 -0.21946 -0.32335
 H70 H 1.19481 -0.22846 -0.20030
 H71 H 1.23465 -0.41141 -0.23990
 H72 H 1.24073 -0.09381 -0.25761
 C73 C 0.19696 0.27766 0.71152
 C74 C 0.22361 0.25062 0.74873
 C75 C 0.20313 0.22082 0.78844
 C76 C 0.15572 0.21208 0.78624
 C77 C 0.12859 0.24290 0.75140
 C78 C 0.14913 0.27574 0.71406
 C79 C 0.27344 0.25268 0.74568
 C80 C 0.29630 0.28492 0.77833
 C81 C 0.34440 0.28662 0.77777
 C82 C 0.36917 0.24958 0.75074
 C83 C 0.34570 0.21558 0.71844
 C84 C 0.29787 0.22081 0.71241
 H85 H 0.21361 0.30079 0.68123
 H86 H 0.22491 0.20401 0.82045
 H87 H 0.27617 0.30871 0.80462
 H88 H 0.27894 0.19842 0.68403
 H89 H 0.09160 0.24065 0.75090
 H90 H 0.40631 0.24799 0.75322
 C91 C 0.70249 0.78853 0.72932
 C92 C 0.72624 0.75197 0.75654
 C93 C 0.70208 0.71794 0.78608
 C94 C 0.65387 0.72057 0.79031
 C95 C 0.62984 0.75582 0.75913
 C96 C 0.65405 0.79108 0.72948
 C97 C 0.77671 0.75024 0.75492
 C98 C 0.80158 0.78589 0.77984
 C99 C 0.84953 0.78738 0.77423
 C100 C 0.87260 0.75170 0.74366
 C101 C 0.84785 0.71434 0.72045
 C102 C 0.79982 0.71408 0.72668
 H103 H 0.72227 0.81547 0.70837
 H104 H 0.72112 0.68978 0.80711
 H105 H 0.78335 0.81257 0.80394
 H106 H 0.78013 0.68620 0.70827
 H107 H 0.59258 0.75635 0.75905
 H108 H 0.90954 0.75301 0.73810
 C109 C 0.70032 0.27590 0.21378
 C110 C 0.72300 0.24088 0.24483
 C111 C 0.69829 0.20625 0.27186
 C112 C 0.65015 0.20911 0.27398
 C113 C 0.62749 0.24856 0.24950
 C114 C 0.65252 0.28199 0.21776
 C115 C 0.77292 0.24142 0.24860
 C116 C 0.79413 0.27556 0.28108
 C117 C 0.84026 0.28695 0.27099
 C118 C 0.86642 0.25711 0.23470
 C119 C 0.84611 0.21807 0.20945
 C120 C 0.79893 0.21174 0.21465
 H121 H 0.72060 0.29860 0.18685
 H122 H 0.71689 0.17737 0.29192
 H123 H 0.77367 0.29413 0.31255
 H124 H 0.78231 0.18397 0.19167
 H125 H 0.59060 0.25265 0.25426
 H126 H 0.90237 0.26349 0.22629
 C127 C 0.19826 0.78146 0.23414
 C128 C 0.22136 0.74404 0.26008
 C129 C 0.19713 0.70652 0.28182
 C130 C 0.14907 0.70492 0.27657
 C131 C 0.12574 0.74349 0.25046
 C132 C 0.15020 0.78202 0.22896
 C133 C 0.27149 0.74300 0.26084
 C134 C 0.29532 0.77564 0.29267
 C135 C 0.34312 0.77898 0.28742
 C136 C 0.36709 0.74580 0.25409
 C137 C 0.34302 0.71351 0.22037
 C138 C 0.29507 0.71241 0.22461
 H139 H 0.21813 0.81037 0.21791
 H140 H 0.21615 0.67927 0.30450
 H141 H 0.27633 0.79965 0.31988
 H142 H 0.27566 0.68900 0.19801
 H143 H 0.08892 0.74233 0.24370
 H144 H 0.40426 0.74670 0.25214
 O145 O 1.07560 0.01880 0.07912
 O146 O 0.91813 -0.02421 0.06955
 O147 O 0.97358 0.07502 0.07167
 O148 O 1.02266 -0.08302 0.07630
 O149 O 0.91100 0.05393 0.03501
 O150 O 1.08682 -0.05899 0.04667
 O151 O 0.94536 -0.08985 0.04333
 O152 O 1.05145 0.08437 0.04782
 C153 C 1.07384 0.06132 0.08475
 C154 C 0.92083 -0.06668 0.07748
 C155 C 0.93156 0.07511 0.07364
 C156 C 1.06440 -0.08075 0.08357
 O157 O 1.08196 -0.02758 -0.06349
 O158 O 0.92598 0.02168 -0.07403
 O159 O 1.02705 0.07524 -0.06680
 O160 O 0.97708 -0.08273 -0.06755
 O161 O 0.91262 -0.05594 -0.04013
 O162 O 1.08922 0.05110 -0.03000
 O163 O 1.05446 -0.09189 -0.03455
 O164 O 0.94890 0.08625 -0.04260
 Co165 Co 1.07503 -0.00403 0.00753
 Co166 Co 0.92537 -0.00125 -0.00197
 Co167 Co 1.00023 0.07206 0.00256
 Co168 Co 0.99992 -0.07876 0.00431
 O169 O 1.00013 -0.00309 0.00305
 C170 C 1.07872 -0.07003 -0.07001
 C171 C 0.92805 0.06405 -0.08041
 C172 C 1.06922 0.07409 -0.06870
 C173 C 0.93526 -0.07981 -0.07516
 O174 O 1.07100 0.51674 0.56859
 O175 O 0.91245 0.47687 0.55971
 O176 O 0.97306 0.57545 0.56632
 O177 O 1.00759 0.41286 0.56445
 O178 O 0.90844 0.55532 0.53368
 O179 O 1.07428 0.43703 0.54224
 O180 O 0.93124 0.41089 0.52782
 O181 O 1.05108 0.58181 0.53332
 C182 C 1.07140 0.55934 0.57219
 C183 C 0.90810 0.43470 0.56303
 C184 C 0.93106 0.57527 0.57187
 C185 C 1.04921 0.41182 0.57358
 O186 O 1.07279 0.46568 0.42818
 O187 O 0.92065 0.52890 0.41944
 O188 O 1.01977 0.57490 0.42448
 O189 O 0.96920 0.42159 0.41883
 O190 O 0.90593 0.45066 0.44640
 O191 O 1.08289 0.54396 0.45405
 O192 O 1.04374 0.40314 0.45797
 O193 O 0.94332 0.59053 0.45618
 Co194 Co 1.06753 0.49145 0.49802
 Co195 Co 0.91962 0.50243 0.48985
 Co196 Co 0.99631 0.57206 0.49515
 Co197 Co 0.98820 0.42086 0.49193
 O198 O 0.99308 0.49662 0.49434
 C199 C 1.07077 0.42330 0.42455
 C200 C 0.91992 0.57161 0.41836
 C201 C 1.06153 0.56945 0.41814
 C202 C 0.92787 0.42679 0.41052
 O203 O 0.57588 0.02382 0.56589
 O204 O 0.41874 -0.02365 0.56722
 O205 O 0.47682 0.07965 0.56366
 O206 O 0.52155 -0.08010 0.57445
 O207 O 0.41245 0.05480 0.53517
 O208 O 0.58515 -0.05565 0.54237
 O209 O 0.44374 -0.08973 0.54072
 O210 O 0.55344 0.08707 0.52855
 C211 C 0.57724 0.06650 0.56583
 C212 C 0.41953 -0.06613 0.57433
 C213 C 0.43490 0.07791 0.57078
 C214 C 0.56341 -0.07664 0.58076
 O215 O 0.57686 -0.03227 0.42837
 O216 O 0.42174 0.02298 0.42336
 O217 O 0.52067 0.07305 0.41996
 O218 O 0.47526 -0.08556 0.43136
 O219 O 0.41143 -0.05480 0.45703
 O220 O 0.58475 0.04708 0.45098
 O221 O 0.55242 -0.09461 0.46510
 O222 O 0.44464 0.08738 0.45370
 Co223 Co 0.57270 -0.00399 0.49697
 Co224 Co 0.42403 -0.00024 0.49559
 Co225 Co 0.49888 0.07309 0.49204
 Co226 Co 0.49832 -0.07881 0.50247
 O227 O 0.49841 -0.00265 0.49684
 C228 C 0.57656 -0.07508 0.42791
 C229 C 0.42334 0.06534 0.41651
 C230 C 0.56242 0.06911 0.41328
 C231 C 0.43339 -0.08132 0.42397
 O232 O 0.57615 0.51366 0.06230
 O233 O 0.41770 0.47996 0.07035
 O234 O 0.47629 0.58159 0.05829
 O235 O 0.52240 0.41980 0.06405
 O236 O 0.41067 0.55880 0.03357
 O237 O 0.58447 0.43642 0.02390
 O238 O 0.44329 0.41361 0.04333
 O239 O 0.55252 0.58107 0.03487
 C240 C 0.57453 0.55596 0.07053
 C241 C 0.42032 0.43757 0.07878
 C242 C 0.43478 0.58345 0.06553
 C243 C 0.56439 0.41653 0.06410
 O244 O 0.57033 0.47331 -0.08236
 O245 O 0.41349 0.52402 -0.07411
 O246 O 0.52665 0.57176 -0.08185
 O247 O 0.46609 0.41988 -0.07223
 O248 O 0.40397 0.44590 -0.03697
 O249 O 0.58808 0.54836 -0.04455
 O250 O 0.54376 0.40861 -0.05320
 O251 O 0.44797 0.58670 -0.05358
 Co252 Co 0.57058 0.49339 -0.00992
 Co253 Co 0.42010 0.50163 -0.00229
 Co254 Co 0.50060 0.57243 -0.01130
 Co255 Co 0.49426 0.42314 -0.00445
 O256 O 0.49596 0.49767 -0.00667
 C257 C 0.56700 0.43109 -0.08945
 C258 C 0.41780 0.56617 -0.08199
 C259 C 0.56870 0.57408 -0.08066
 C260 C 0.42407 0.42153 -0.07400
 C261 C 1.12699 0.14093 0.19864
 C262 C 1.17366 0.12496 0.19572
 C263 C 1.18427 0.08618 0.16196
 C264 C 1.15079 0.06536 0.12878
 C265 C 1.10565 0.08343 0.12599
 C266 C 1.09325 0.12136 0.16170
 C267 C 1.11286 0.17535 0.23820
 C268 C 1.06765 0.19233 0.23874
 C269 C 1.03550 0.17500 0.20062
 C270 C 1.04792 0.13957 0.16281
 H271 H 1.13637 0.18891 0.26965
 H272 H 1.05748 0.21902 0.26898
 H273 H 1.00053 0.18853 0.20102
 H274 H 1.02158 0.12636 0.13516
 H275 H 1.21932 0.07295 0.15913
 H276 H 1.16113 0.03597 0.10278
 C277 C 1.12670 0.64935 0.67123
 C278 C 1.16981 0.62606 0.68319
 C279 C 1.17605 0.58027 0.66373
 C280 C 1.14268 0.55865 0.63085
 C281 C 1.10185 0.58209 0.61471
 C282 C 1.09315 0.62742 0.63610
 C283 C 1.11567 0.69405 0.69299
 C284 C 1.07682 0.71880 0.67382
 C285 C 1.04421 0.69716 0.64072
 C286 C 1.05139 0.65142 0.62398
 H287 H 1.13667 0.71063 0.72470
 H288 H 1.07127 0.75476 0.68539
 H289 H 1.01282 0.71563 0.62875
 H290 H 1.02363 0.63557 0.60170
 H291 H 1.20807 0.56149 0.67161
 H292 H 1.15014 0.52390 0.61525
 C293 C 0.67791 0.14179 0.61483
 C294 C 0.68675 0.12164 0.66989
 C295 C 0.65976 0.08478 0.68880
 C296 C 0.62386 0.06861 0.65492
 C297 C 0.61205 0.09010 0.60217
 C298 C 0.63853 0.12853 0.58266
 C299 C 0.70789 0.17515 0.59109
 C300 C 0.69713 0.19843 0.54009
 C301 C 0.65672 0.18869 0.51136
 C302 C 0.62795 0.15395 0.53178
 H303 H 0.74001 0.18348 0.61172
 H304 H 0.72002 0.22449 0.52312
 H305 H 0.64787 0.20773 0.47245
 H306 H 0.59752 0.14848 0.50687
 H307 H 0.66589 0.06898 0.73060
 H308 H 0.60457 0.03914 0.67055
 C309 C 0.62494 0.62549 0.19537
 C310 C 0.67257 0.61756 0.18477
 C311 C 0.68597 0.58677 0.14149
 C312 C 0.65338 0.56645 0.10634
 C313 C 0.60623 0.57594 0.11335
 C314 C 0.59156 0.60398 0.15983
 C315 C 0.60974 0.65376 0.24117
 C316 C 0.56290 0.66052 0.25181
 C317 C 0.53045 0.63859 0.21797
 C318 C 0.54458 0.61016 0.17279
 H319 H 0.63384 0.67021 0.26963
 H320 H 0.55173 0.68229 0.28708
 H321 H 0.49416 0.64328 0.22708
 H322 H 0.51857 0.59236 0.14895
 H323 H 0.72212 0.58036 0.13275
 H324 H 0.66538 0.54458 0.07159
 C325 C 0.86591 -0.14907 0.18927
 C326 C 0.82033 -0.13018 0.18941
 C327 C 0.81109 -0.08904 0.15867
 C328 C 0.84486 -0.06850 0.12503
 C329 C 0.88885 -0.08905 0.11910
 C330 C 0.89982 -0.12973 0.15199
 C331 C 0.87863 -0.18656 0.22602
 C332 C 0.92257 -0.20656 0.22361
 C333 C 0.95477 -0.18945 0.18508
 C334 C 0.94375 -0.15132 0.14991
 H335 H 0.85496 -0.20030 0.25750
 H336 H 0.93169 -0.23544 0.25183
 H337 H 0.98887 -0.20515 0.18329
 H338 H 0.97038 -0.13880 0.12214
 H339 H 0.77675 -0.07376 0.15847
 H340 H 0.83555 -0.03731 0.10090
 C341 C 0.79261 0.40912 0.63808
 C342 C 0.80312 0.36550 0.66539
 C343 C 0.84781 0.34660 0.65688
 C344 C 0.88048 0.36933 0.62368
 C345 C 0.87239 0.41416 0.60185
 C346 C 0.82865 0.43595 0.61323
 C347 C 0.74679 0.42572 0.63124
 C348 C 0.73745 0.47097 0.61221
 C349 C 0.77340 0.50025 0.59884
 C350 C 0.81850 0.48306 0.59915
 H351 H 0.71773 0.40375 0.63973
 H352 H 0.70225 0.48362 0.60896
 H353 H 0.76631 0.53617 0.58680
 H354 H 0.84461 0.50789 0.58989
 H355 H 0.85885 0.31424 0.67705
 H356 H 0.91320 0.35207 0.61686
 C357 C 0.36306 -0.14243 0.69019
 C358 C 0.31637 -0.12766 0.68318
 C359 C 0.30589 -0.09154 0.64454
 C360 C 0.34016 -0.07170 0.61107
 C361 C 0.38597 -0.08791 0.61390
 C362 C 0.39767 -0.12406 0.65342
 C363 C 0.37614 -0.17509 0.73327
 C364 C 0.42133 -0.19173 0.73729
 C365 C 0.45442 -0.17593 0.69907
 C366 C 0.44293 -0.14215 0.65789
 H367 H 0.35171 -0.18772 0.76453
 H368 H 0.43069 -0.21708 0.77014
 H369 H 0.48941 -0.18926 0.70202
 H370 H 0.46991 -0.13043 0.63002
 H371 H 0.27058 -0.07988 0.63839
 H372 H 0.33019 -0.04476 0.58059
 C373 C 0.36900 0.35687 0.19552
 C374 C 0.32287 0.37501 0.19711
 C375 C 0.31338 0.41699 0.16772
 C376 C 0.34603 0.43699 0.13159
 C377 C 0.38974 0.41629 0.12331
 C378 C 0.40209 0.37687 0.15747
 C379 C 0.38384 0.32114 0.23390
 C380 C 0.42860 0.30323 0.23198
 C381 C 0.46004 0.32140 0.19328
 C382 C 0.44722 0.35821 0.15691
 H383 H 0.36138 0.30756 0.26684
 H384 H 0.43916 0.27561 0.26134
 H385 H 0.49488 0.30769 0.19266
 H386 H 0.47333 0.37283 0.12992
 H387 H 0.27923 0.43267 0.16867
 H388 H 0.33596 0.46796 0.10751
 C389 C 0.85985 0.09164 -0.21834
 C390 C 0.82628 0.12301 -0.19565
 C391 C 0.83018 0.13673 -0.13809
 C392 C 0.86542 0.11971 -0.10302
 C393 C 0.89765 0.08724 -0.12340
 C394 C 0.89536 0.07313 -0.18163
 C395 C 0.85967 0.07887 -0.27673
 C396 C 0.89242 0.04741 -0.29801
 C397 C 0.92643 0.02879 -0.26205
 C398 C 0.92830 0.04176 -0.20453
 H399 H 0.83468 0.09326 -0.30661
 H400 H 0.89162 0.03767 -0.34281
 H401 H 0.95185 0.00459 -0.27899
 H402 H 0.95598 0.02741 -0.17842
 H403 H 0.80527 0.16086 -0.11975
 H404 H 0.86618 0.13047 -0.05862
 C405 C 0.82444 0.65635 0.36333
 C406 C 0.81074 0.63254 0.31246
 C407 C 0.83309 0.59030 0.29934
 C408 C 0.86958 0.57319 0.33261
 C409 C 0.88574 0.59714 0.38083
 C410 C 0.86360 0.64019 0.39576
 C411 C 0.79789 0.69413 0.38520
 C412 C 0.81240 0.71907 0.43259
 C413 C 0.85260 0.70611 0.46079
 C414 C 0.87768 0.66704 0.44328
 H415 H 0.76511 0.70432 0.36670
 H416 H 0.79238 0.74863 0.44760
 H417 H 0.86395 0.72586 0.49741
 H418 H 0.90798 0.65939 0.46803
 H419 H 0.82369 0.57100 0.26145
 H420 H 0.88550 0.54038 0.32025
 C421 C 0.34867 0.09048 0.28281
 C422 C 0.32385 0.13065 0.30235
 C423 C 0.33715 0.15063 0.35472
 C424 C 0.37097 0.13019 0.38924
 C425 C 0.39359 0.08907 0.37296
 C426 C 0.38401 0.06992 0.31824
 C427 C 0.34186 0.07231 0.22723
 C428 C 0.36768 0.03422 0.20787
 C429 C 0.40168 0.01416 0.24249
 C430 C 0.41021 0.03199 0.29683
 H431 H 0.31770 0.08805 0.19732
 H432 H 0.36184 0.02073 0.16526
 H433 H 0.42204 -0.01500 0.22685
 H434 H 0.43817 0.01627 0.32116
 H435 H 0.31935 0.18122 0.37109
 H436 H 0.37791 0.14565 0.43058
 C437 C 0.31710 0.64706 -0.12613
 C438 C 0.30508 0.62703 -0.17990
 C439 C 0.32961 0.58745 -0.19834
 C440 C 0.36739 0.57013 -0.16742
 C441 C 0.38228 0.59146 -0.11681
 C442 C 0.35677 0.63046 -0.09550
 C443 C 0.28849 0.68143 -0.10034
 C444 C 0.30036 0.70161 -0.04840
 C445 C 0.34038 0.68751 -0.02030
 C446 C 0.36811 0.65222 -0.04311
 H447 H 0.25612 0.69234 -0.11953
 H448 H 0.27825 0.72815 -0.02972
 H449 H 0.34960 0.70339 0.02002
 H450 H 0.39808 0.64271 -0.01854
 H451 H 0.32119 0.57114 -0.23872
 H452 H 0.38547 0.53957 -0.18341
 C453 C 1.12751 -0.15502 -0.18384
 C454 C 1.17223 -0.13577 -0.19222
 C455 C 1.18335 -0.09588 -0.16121
 C456 C 1.15235 -0.07543 -0.12312
 C457 C 1.10893 -0.09420 -0.11274
 C458 C 1.09665 -0.13515 -0.14231
 C459 C 1.11224 -0.19357 -0.21559
 C460 C 1.07178 -0.21613 -0.20072
 C461 C 1.04285 -0.19771 -0.15942
 C462 C 1.05421 -0.15683 -0.13207
 H463 H 1.13120 -0.20687 -0.25188
 H464 H 1.06226 -0.24811 -0.22097
 H465 H 1.01106 -0.21494 -0.14916
 H466 H 1.02938 -0.14345 -0.10245
 H467 H 1.21714 -0.08091 -0.16469
 H468 H 1.16353 -0.04554 -0.09945
 C469 C 1.17506 0.34996 0.37594
 C470 C 1.17950 0.36658 0.31841
 C471 C 1.14756 0.39946 0.29736
 C472 C 1.11139 0.41556 0.33175
 C473 C 1.10517 0.39866 0.38802
 C474 C 1.13721 0.36529 0.41058
 C475 C 1.20838 0.31925 0.40036
 C476 C 1.20391 0.30284 0.45657
 C477 C 1.16662 0.31696 0.48988
 C478 C 1.13377 0.34801 0.46748
 H479 H 1.23863 0.30824 0.37672
 H480 H 1.22968 0.27925 0.47449
 H481 H 1.16335 0.30418 0.53358
 H482 H 1.10599 0.35799 0.49557
 H483 H 1.15038 0.41247 0.25369
 H484 H 1.08807 0.44195 0.31436
 C485 C 0.67040 -0.15944 0.37063
 C486 C 0.67851 -0.13834 0.31607
 C487 C 0.65289 -0.09869 0.30007
 C488 C 0.61931 -0.08010 0.33637
 C489 C 0.60917 -0.10092 0.38967
 C490 C 0.63448 -0.14178 0.40690
 C491 C 0.69822 -0.19715 0.39060
 C492 C 0.68918 -0.21907 0.44284
 C493 C 0.65325 -0.20327 0.47707
 C494 C 0.62645 -0.16499 0.45983
 H495 H 0.72764 -0.20977 0.36658
 H496 H 0.71018 -0.24844 0.45699
 H497 H 0.64642 -0.22042 0.51773
 H498 H 0.59978 -0.15469 0.48917
 H499 H 0.65861 -0.08216 0.25871
 H500 H 0.60087 -0.04885 0.32248
 C501 C 0.61966 0.35133 -0.20565
 C502 C 0.66647 0.36490 -0.20176
 C503 C 0.67777 0.40130 -0.16529
 C504 C 0.64455 0.42269 -0.13120
 C505 C 0.59875 0.40794 -0.13086
 C506 C 0.58577 0.37243 -0.16912
 C507 C 0.60545 0.31823 -0.24619
 C508 C 0.55961 0.30507 -0.24938
 C509 C 0.52691 0.32506 -0.21311
 C510 C 0.53966 0.35865 -0.17357
 H511 H 0.62928 0.30292 -0.27661
 H512 H 0.54931 0.27960 -0.28064
 H513 H 0.49134 0.31502 -0.21635
 H514 H 0.51305 0.37437 -0.14754
 H515 H 0.71303 0.41250 -0.16178
 H516 H 0.65541 0.45028 -0.10335
 C517 C 1.16022 0.13184 -0.16624
 C518 C 1.13600 0.17459 -0.18121
 C519 C 1.09049 0.17984 -0.16119
 C520 C 1.06988 0.14627 -0.12707
 C521 C 1.09376 0.10603 -0.10880
 C522 C 1.13961 0.09877 -0.12795
 C523 C 1.20342 0.11928 -0.19036
 C524 C 1.22917 0.08158 -0.16895
 C525 C 1.20996 0.05111 -0.12993
 C526 C 1.16509 0.05843 -0.11163
 H527 H 1.21772 0.13762 -0.22654
 H528 H 1.26392 0.07504 -0.18352
 H529 H 1.22935 0.02071 -0.11533
 H530 H 1.15114 0.03168 -0.08509
 H531 H 1.07056 0.21139 -0.16882
 H532 H 1.03501 0.15317 -0.11265
 C533 C 1.14264 0.62035 0.30346
 C534 C 1.12503 0.66728 0.30172
 C535 C 1.08449 0.67754 0.33197
 C536 C 1.06489 0.64484 0.36802
 C537 C 1.08464 0.60026 0.37594
 C538 C 1.12332 0.58718 0.34240
 C539 C 1.17705 0.60480 0.26476
 C540 C 1.19474 0.55942 0.26772
 C541 C 1.17777 0.52811 0.30801
 C542 C 1.14205 0.54153 0.34455
 H543 H 1.18984 0.62722 0.23100
 H544 H 1.22146 0.54835 0.23818
 H545 H 1.19162 0.49290 0.31003
 H546 H 1.12889 0.51546 0.37337
 H547 H 1.06947 0.71233 0.33187
 H548 H 1.03470 0.65559 0.39208
 C549 C 0.58695 0.14788 0.28313
 C550 C 0.62548 0.17167 0.30543
 C551 C 0.64428 0.15687 0.35817
 C552 C 0.62583 0.12032 0.38895
 C553 C 0.58566 0.09910 0.37079
 C554 C 0.56630 0.11191 0.31675
 C555 C 0.56927 0.15770 0.22773
 C556 C 0.53103 0.13450 0.20711
 C557 C 0.51038 0.10025 0.24035
 C558 C 0.52806 0.08852 0.29431
 H559 H 0.58510 0.18255 0.19922
 H560 H 0.51774 0.14268 0.16469
 H561 H 0.48111 0.08196 0.22366
 H562 H 0.51234 0.06009 0.31729
 H563 H 0.67385 0.17389 0.37618
 H564 H 0.64199 0.11018 0.42912
 C565 C 0.64679 0.67758 -0.11731
 C566 C 0.63101 0.68824 -0.17398
 C567 C 0.59370 0.66371 -0.19584
 C568 C 0.57511 0.62650 -0.16529
 C569 C 0.59278 0.61232 -0.11164
 C570 C 0.62873 0.63872 -0.08655
 C571 C 0.67794 0.70710 -0.08898
 C572 C 0.69375 0.69688 -0.03388
 C573 C 0.67820 0.65783 -0.00505
 C574 C 0.64589 0.62939 -0.03055
 H575 H 0.68946 0.73918 -0.10839
 H576 H 0.71780 0.71969 -0.01321
 H577 H 0.69046 0.65008 0.03795
 H578 H 0.63473 0.60087 -0.00468
 H579 H 0.58033 0.67161 -0.23834
 H580 H 0.54687 0.60798 -0.18434
 C581 C 0.86103 -0.12774 -0.19807
 C582 C 0.87484 -0.17547 -0.19532
 C583 C 0.90896 -0.18928 -0.15609
 C584 C 0.92787 -0.15748 -0.11844
 C585 C 0.91310 -0.11069 -0.11773
 C586 C 0.87886 -0.09554 -0.15759
 C587 C 0.82995 -0.11125 -0.24057
 C588 C 0.81451 -0.06504 -0.24109
 C589 C 0.82993 -0.03435 -0.19979
 C590 C 0.86205 -0.04921 -0.15879
 H591 H 0.81762 -0.13380 -0.27398
 H592 H 0.79032 -0.05303 -0.27356
 H593 H 0.81727 0.00131 -0.19988
 H594 H 0.87320 -0.02407 -0.12821
 H595 H 0.91964 -0.22554 -0.15268
 H596 H 0.95307 -0.17020 -0.08765
 C597 C 0.83765 0.37057 0.31397
 C598 C 0.86161 0.32782 0.30051
 C599 C 0.90732 0.32244 0.31885
 C600 C 0.92865 0.35639 0.35071
 C601 C 0.90508 0.39710 0.36751
 C602 C 0.85959 0.40507 0.34788
 C603 C 0.79245 0.38045 0.29488
 C604 C 0.76746 0.41869 0.31577
 C605 C 0.78923 0.45248 0.34712
 C606 C 0.83539 0.44686 0.36071
 H607 H 0.77606 0.35931 0.26333
 H608 H 0.73143 0.42346 0.30565
 H609 H 0.77059 0.48374 0.35970
 H610 H 0.85140 0.47590 0.38088
 H611 H 0.92660 0.29054 0.31112
 H612 H 0.96348 0.34913 0.36515
 C613 C 0.35128 -0.13526 0.31375
 C614 C 0.36742 -0.18238 0.31633
 C615 C 0.40604 -0.19345 0.34985
 C616 C 0.42733 -0.15966 0.38237
 C617 C 0.40989 -0.11377 0.38459
 C618 C 0.37113 -0.10127 0.35024
 C619 C 0.31646 -0.12086 0.27471
 C620 C 0.29897 -0.07539 0.27486
 C621 C 0.31619 -0.04317 0.31306
 C622 C 0.35221 -0.05567 0.34988
 H623 H 0.30292 -0.14424 0.24304
 H624 H 0.27200 -0.06508 0.24507
 H625 H 0.30239 -0.00790 0.31314
 H626 H 0.36517 -0.02892 0.37711
 H627 H 0.41922 -0.22894 0.35221
 H628 H 0.45684 -0.17018 0.40805
 C629 C 0.34749 0.36971 -0.19090
 C630 C 0.36592 0.32303 -0.19201
 C631 C 0.40365 0.31202 -0.15681
 C632 C 0.42055 0.34429 -0.11849
 C633 C 0.40059 0.38896 -0.11302
 C634 C 0.36336 0.40193 -0.14919
 C635 C 0.31549 0.38606 -0.23265
 C636 C 0.29593 0.43059 -0.22945
 C637 C 0.30872 0.46040 -0.18583
 C638 C 0.34266 0.44668 -0.14665
 H639 H 0.30581 0.36489 -0.26873
 H640 H 0.27082 0.44207 -0.26110
 H641 H 0.29297 0.49473 -0.18313
 H642 H 0.35239 0.47159 -0.11478
 H643 H 0.41880 0.27730 -0.15607
 H644 H 0.44943 0.33363 -0.09189
 C645 C 1.08827 -0.15661 0.21737
 C646 C 1.12839 -0.18111 0.19797
 C647 C 1.14845 -0.16733 0.14558
 C648 C 1.12834 -0.13319 0.11098
 C649 C 1.08748 -0.11073 0.12723
 C650 C 1.06812 -0.12073 0.18190
 C651 C 1.06967 -0.16420 0.27276
 C652 C 1.03162 -0.13850 0.29188
 C653 C 1.01215 -0.10371 0.25730
 C654 C 1.03043 -0.09440 0.20316
 H655 H 1.08499 -0.18889 0.30268
 H656 H 1.01776 -0.14496 0.33431
 H657 H 0.98308 -0.08337 0.27280
 H658 H 1.01526 -0.06580 0.17882
 H659 H 1.17890 -0.18506 0.12924
 H660 H 1.14388 -0.12590 0.06960
 C661 C 1.08252 0.29527 0.64631
 C662 C 1.12147 0.30893 0.67788
 C663 C 1.13427 0.35593 0.67611
 C664 C 1.10999 0.38867 0.64304
 C665 C 1.06961 0.37678 0.61449
 C666 C 1.05377 0.32993 0.61981
 C667 C 1.07190 0.24778 0.63936
 C668 C 1.03062 0.23489 0.61445
 C669 C 0.99935 0.26892 0.59622
 C670 C 1.01071 0.31578 0.59894
 H671 H 1.09543 0.22017 0.65260
 H672 H 1.02246 0.19843 0.61052
 H673 H 0.96628 0.25903 0.57932
 H674 H 0.98443 0.34021 0.58673
 H675 H 1.16397 0.36742 0.69982
 H676 H 1.12265 0.42388 0.64024
 C677 C 0.59256 -0.14643 0.71835
 C678 C 0.63144 -0.17261 0.69788
 C679 C 0.64945 -0.16090 0.64354
 C680 C 0.62855 -0.12750 0.60856
 C681 C 0.58792 -0.10482 0.62521
 C682 C 0.57068 -0.11248 0.68146
 C683 C 0.57716 -0.15012 0.77584
 C684 C 0.54003 -0.12329 0.79546
 C685 C 0.51838 -0.09107 0.75916
 C686 C 0.53381 -0.08516 0.70296
 H687 H 0.59449 -0.17227 0.80700
 H688 H 0.52861 -0.12684 0.83953
 H689 H 0.48998 -0.06992 0.77494
 H690 H 0.51722 -0.05826 0.67712
 H691 H 0.67895 -0.17950 0.62606
 H692 H 0.64333 -0.12103 0.56662
 C693 C 0.64877 0.36544 0.17529
 C694 C 0.62914 0.32059 0.18437
 C695 C 0.58894 0.30988 0.15445
 C696 C 0.56861 0.34162 0.11643
 C697 C 0.58830 0.38488 0.10513
 C698 C 0.62948 0.39656 0.13330
 C699 C 0.68729 0.38038 0.20652
 C700 C 0.71046 0.42061 0.19024
 C701 C 0.69274 0.44968 0.14789
 C702 C 0.65192 0.43868 0.12108
 H703 H 0.69987 0.36092 0.24324
 H704 H 0.74244 0.42987 0.20992
 H705 H 0.71044 0.48124 0.13630
 H706 H 0.63926 0.46326 0.09003
 H707 H 0.57376 0.27587 0.15872
 H708 H 0.53801 0.33132 0.09376
 C709 C 0.90274 0.15037 0.20317
 C710 C 0.87251 0.18319 0.17636
 C711 C 0.86028 0.17752 0.11870
 C712 C 0.87756 0.14035 0.08726
 C713 C 0.90807 0.10794 0.11221
 C714 C 0.92066 0.11233 0.17073
 C715 C 0.91466 0.15373 0.26178
 C716 C 0.94403 0.12077 0.28751
 C717 C 0.96142 0.08353 0.25584
 C718 C 0.94967 0.07899 0.19812
 H719 H 0.90152 0.18169 0.28826
 H720 H 0.95309 0.12395 0.33239
 H721 H 0.98388 0.05785 0.27620
 H722 H 0.96308 0.04894 0.17547
 H723 H 0.83633 0.20175 0.09815
 H724 H 0.86809 0.13772 0.04248
 C725 C 0.90837 0.64904 0.70646
 C726 C 0.87060 0.67670 0.68618
 C727 C 0.85186 0.66703 0.63208
 C728 C 0.87012 0.63196 0.59773
 C729 C 0.90875 0.60581 0.61520
 C730 C 0.92778 0.61358 0.67054
 C731 C 0.92655 0.65479 0.76217
 C732 C 0.96391 0.62780 0.78126
 C733 C 0.98303 0.59363 0.74619
 C734 C 0.96483 0.58595 0.69179
 H735 H 0.91185 0.67953 0.79195
 H736 H 0.97767 0.63295 0.82390
 H737 H 1.01161 0.57234 0.76163
 H738 H 0.97959 0.55757 0.66737
 H739 H 0.82294 0.68742 0.61568
 H740 H 0.85499 0.62665 0.55582
 C741 C 0.35072 0.13090 0.68190
 C742 C 0.37020 0.17603 0.68830
 C743 C 0.41185 0.18502 0.66029
 C744 C 0.43275 0.15200 0.62480
 C745 C 0.41221 0.10907 0.61376
 C746 C 0.37068 0.09828 0.64256
 C747 C 0.31170 0.11709 0.71362
 C748 C 0.28915 0.07600 0.70087
 C749 C 0.30764 0.04529 0.66141
 C750 C 0.34864 0.05549 0.63397
 H751 H 0.29806 0.13788 0.74827
 H752 H 0.25717 0.06745 0.72149
 H753 H 0.29046 0.01300 0.65276
 H754 H 0.36216 0.02936 0.60603
 H755 H 0.42765 0.21871 0.66370
 H756 H 0.46441 0.16126 0.60336
 C757 C 0.40386 0.69720 0.14404
 C758 C 0.36710 0.68199 0.17895
 C759 C 0.35339 0.63538 0.17499
 C760 C 0.37526 0.60448 0.13753
 C761 C 0.41449 0.61751 0.10696
 C762 C 0.43110 0.66383 0.11382
 C763 C 0.41396 0.74498 0.13777
 C764 C 0.45406 0.75898 0.11059
 C765 C 0.48477 0.72574 0.08966
 C766 C 0.47357 0.67879 0.09142
 H767 H 0.39093 0.77198 0.15340
 H768 H 0.46197 0.79559 0.10734
 H769 H 0.51730 0.73634 0.07161
 H770 H 0.50001 0.65493 0.07833
 H771 H 0.32516 0.62270 0.20074
 H772 H 0.36227 0.56950 0.13383
   
