data_POSCAR
  _audit_creation_date              2014-09-24
  _audit_creation_method            'ToBaCCo'
  _symmetry_space_group_name_H-M    'P1'
  _symmetry_Int_Tables_number       1
  _symmetry_cell_setting            triclinic
  loop_
  _symmetry_equiv_pos_as_xyz
 x,y,z
_cell_length_a 29.6991
_cell_length_b 29.2920
_cell_length_c 35.5386
_cell_angle_alpha 88.814800
_cell_angle_beta 90.293400
_cell_angle_gamma 91.102400
loop_
  _atom_site_label
  _atom_site_type_symbol
  _atom_site_fract_x
  _atom_site_fract_y
  _atom_site_fract_z
Si1 Si 1.23835 0.24191 0.25156
 Si2 Si 0.73680 -0.25089 0.25485
 Si3 Si 0.74654 0.26219 -0.24730
 Si4 Si 1.24336 -0.24476 -0.24606
 Si5 Si 0.25577 0.24714 0.74709
 Si6 Si 0.75418 0.73801 0.74914
 Si7 Si 0.76117 0.24793 0.24555
 Si8 Si 0.26107 0.75771 0.24720
 O9 O 1.06583 0.02014 0.04637
 O10 O 0.90729 -0.06092 0.02332
 O11 O 0.95149 0.08286 0.01880
 O12 O 1.04201 -0.06460 0.04765
 O13 O 0.91146 0.02289 0.03856
 O14 O 1.09722 -0.04705 0.01419
 O15 O 0.96672 -0.07410 0.05355
 O16 O 1.03274 0.08129 0.03024
 C17 C 1.05636 0.05997 0.05352
 C18 C 0.92540 -0.07465 0.05267
 C19 C 0.92319 0.06415 0.04165
 C20 C 1.08269 -0.06879 0.04207
 O21 O 1.06451 -0.02101 -0.04938
 O22 O 0.90826 0.04242 -0.03162
 O23 O 1.04802 0.06209 -0.04339
 O24 O 0.95742 -0.09717 -0.02203
 O25 O 0.91741 -0.04139 -0.04679
 O26 O 1.10895 0.03820 -0.01530
 O27 O 1.03901 -0.08645 -0.02802
 O28 O 0.97011 0.06400 -0.05620
 Co29 Co 1.06190 0.00101 -0.00184
 Co30 Co 0.91904 -0.00897 -0.00379
 Co31 Co 1.00001 0.06595 -0.01143
 Co32 Co 1.00087 -0.07521 0.01163
 O33 O 0.99321 -0.00629 -0.00037
 C34 C 1.05881 -0.06308 -0.05357
 C35 C 0.92871 0.06278 -0.05741
 C36 C 1.09023 0.06704 -0.03861
 C37 C 0.93151 -0.08149 -0.04770
 O38 O 1.09211 0.55559 0.52195
 O39 O 0.91886 0.44766 0.52169
 O40 O 0.95504 0.58749 0.52418
 O41 O 1.05536 0.41553 0.52409
 O42 O 0.92899 0.52336 0.54411
 O43 O 1.08280 0.47797 0.54401
 O44 O 0.97972 0.42411 0.54485
 O45 O 1.03051 0.58020 0.54243
 C46 C 1.07129 0.57561 0.54698
 C47 C 0.93894 0.42946 0.54865
 C48 C 0.93472 0.56464 0.54914
 C49 C 1.07629 0.43653 0.54908
 O50 O 1.08995 0.44989 0.47154
 O51 O 0.91917 0.55547 0.47310
 O52 O 1.05699 0.58949 0.46924
 O53 O 0.95208 0.41621 0.47067
 O54 O 0.92783 0.47967 0.44984
 O55 O 1.08309 0.52721 0.44985
 O56 O 1.02710 0.42476 0.45148
 O57 O 0.98031 0.58015 0.44957
 Co58 Co 1.07895 0.50257 0.49690
 Co59 Co 0.93169 0.50156 0.49709
 Co60 Co 1.00557 0.57637 0.49623
 Co61 Co 1.00360 0.42798 0.49787
 O62 O 1.00507 0.50215 0.49700
 C63 C 1.06787 0.42999 0.44657
 C64 C 0.93903 0.57660 0.44728
 C65 C 1.07801 0.56862 0.44476
 C66 C 0.93311 0.43844 0.44495
 O67 O 0.58054 0.02765 0.55085
 O68 O 0.42617 -0.02276 0.54674
 O69 O 0.48197 0.08024 0.54626
 O70 O 0.52609 -0.07716 0.55107
 O71 O 0.41987 0.05346 0.52549
 O72 O 0.58939 -0.04946 0.53294
 O73 O 0.45102 -0.08598 0.52840
 O74 O 0.55781 0.08974 0.52667
 C75 C 0.57606 0.06922 0.55358
 C76 C 0.43001 -0.06417 0.55224
 C77 C 0.44106 0.07448 0.55036
 C78 C 0.56685 -0.07184 0.55676
 O79 O 0.58428 -0.02211 0.45888
 O80 O 0.43119 0.02529 0.45251
 O81 O 0.53104 0.07893 0.45357
 O82 O 0.48230 -0.07729 0.45601
 O83 O 0.42046 -0.05151 0.47469
 O84 O 0.59204 0.05474 0.47719
 O85 O 0.55731 -0.08463 0.48030
 O86 O 0.45460 0.08835 0.47374
 Co87 Co 0.57874 0.00257 0.50476
 Co88 Co 0.43227 0.00129 0.49994
 Co89 Co 0.50629 0.07612 0.50018
 Co90 Co 0.50418 -0.07322 0.50368
 O91 O 0.50536 0.00161 0.50236
 C92 C 0.57690 -0.06316 0.45441
 C93 C 0.43454 0.06702 0.44857
 C94 C 0.57203 0.07366 0.45029
 C95 C 0.44194 -0.07103 0.44986
 O96 O 0.57330 0.51944 0.04975
 O97 O 0.41800 0.47290 0.04872
 O98 O 0.47078 0.57347 0.04959
 O99 O 0.52229 0.42011 0.04851
 O100 O 0.40929 0.55008 0.02614
 O101 O 0.58299 0.44475 0.02447
 O102 O 0.44571 0.41081 0.02994
 O103 O 0.54666 0.58315 0.03148
 C104 C 0.56613 0.55991 0.05631
 C105 C 0.42405 0.43165 0.05406
 C106 C 0.42960 0.56944 0.05224
 C107 C 0.56359 0.42363 0.05053
 O108 O 0.57256 0.47958 -0.04561
 O109 O 0.41835 0.52185 -0.04536
 O110 O 0.52075 0.57847 -0.04306
 O111 O 0.47098 0.42140 -0.04393
 O112 O 0.40940 0.44394 -0.02243
 O113 O 0.58189 0.55482 -0.02067
 O114 O 0.54628 0.41487 -0.02692
 O115 O 0.44527 0.58457 -0.02486
 Co116 Co 0.56964 0.49958 0.00203
 Co117 Co 0.42196 0.49730 0.00177
 Co118 Co 0.49596 0.57230 0.00323
 Co119 Co 0.49631 0.42453 0.00210
 O120 O 0.49592 0.49842 0.00223
 C121 C 0.56608 0.43857 -0.05169
 C122 C 0.42432 0.56351 -0.04997
 C123 C 0.56144 0.57349 -0.04717
 C124 C 0.43016 0.42536 -0.04808
 C125 C 1.14612 0.15692 0.17187
 C126 C 1.14382 0.20476 0.17185
 C127 C 1.17120 0.22939 0.19672
 C128 C 1.20004 0.20656 0.22192
 C129 C 1.20066 0.15854 0.22283
 C130 C 1.17433 0.13349 0.19722
 C131 C 1.11970 0.13108 0.14391
 C132 C 1.12404 0.08348 0.14227
 C133 C 1.10148 0.05956 0.11366
 C134 C 1.07465 0.08310 0.08708
 C135 C 1.06902 0.13051 0.09044
 C136 C 1.09201 0.15475 0.11836
 C137 C 1.17650 0.08565 0.19566
 C138 C 1.15204 0.06111 0.16849
 C139 C 1.11499 0.22710 0.14635
 C140 C 1.08929 0.20247 0.12019
 H141 H 1.19808 0.06711 0.21505
 H142 H 1.15556 0.02439 0.16768
 H143 H 1.11272 0.26398 0.14628
 H144 H 1.06795 0.22106 0.10064
 H145 H 1.17053 0.26640 0.19617
 H146 H 1.22210 0.14068 0.24263
 H147 H 1.10599 0.02308 0.11131
 H148 H 1.04853 0.14900 0.07015
 C149 C 1.16422 0.66890 0.66626
 C150 C 1.21094 0.66417 0.67035
 C151 C 1.23389 0.68958 0.69763
 C152 C 1.21046 0.71934 0.72070
 C153 C 1.16366 0.72369 0.71646
 C154 C 1.14027 0.69838 0.68922
 C155 C 1.14013 0.64343 0.63670
 C156 C 1.09357 0.64892 0.63206
 C157 C 1.07107 0.62572 0.60319
 C158 C 1.09490 0.59762 0.57876
 C159 C 1.14147 0.59192 0.58424
 C160 C 1.16429 0.61486 0.61314
 C161 C 1.09359 0.70252 0.68399
 C162 C 1.07062 0.67815 0.65593
 C163 C 1.23385 0.63472 0.64666
 C164 C 1.21091 0.61045 0.61855
 H165 H 1.07470 0.72506 0.70153
 H166 H 1.03466 0.68262 0.65262
 H167 H 1.26989 0.63073 0.64964
 H168 H 1.22991 0.58844 0.60065
 H169 H 1.27008 0.68671 0.70061
 H170 H 1.14564 0.74742 0.73349
 H171 H 1.03520 0.63029 0.59928
 H172 H 1.16002 0.57021 0.56572
 C173 C 0.66311 0.17242 0.66991
 C174 C 0.65214 0.21840 0.67431
 C175 C 0.67646 0.24463 0.70028
 C176 C 0.71183 0.22533 0.72126
 C177 C 0.72139 0.17884 0.71746
 C178 C 0.69736 0.15226 0.69156
 C179 C 0.63900 0.14516 0.64152
 C180 C 0.65076 0.09950 0.63651
 C181 C 0.62911 0.07432 0.60835
 C182 C 0.59621 0.09461 0.58515
 C183 C 0.58416 0.14018 0.59109
 C184 C 0.60552 0.16566 0.61922
 C185 C 0.70754 0.10619 0.68626
 C186 C 0.68467 0.08027 0.65915
 C187 C 0.61770 0.23742 0.65212
 C188 C 0.59479 0.21149 0.62501
 H189 H 0.73384 0.09022 0.70284
 H190 H 0.69400 0.04506 0.65557
 H191 H 0.60881 0.27282 0.65536
 H192 H 0.56886 0.22762 0.60811
 H193 H 0.66800 0.28003 0.70395
 H194 H 0.74790 0.16334 0.73391
 H195 H 0.63900 0.03957 0.60364
 H196 H 0.55868 0.15596 0.57346
 C197 C 0.65091 0.65664 0.17669
 C198 C 0.63659 0.70085 0.18448
 C199 C 0.66156 0.72739 0.20967
 C200 C 0.70086 0.71030 0.22645
 C201 C 0.71403 0.66547 0.21944
 C202 C 0.68918 0.63843 0.19436
 C203 C 0.62656 0.62976 0.14825
 C204 C 0.64182 0.58618 0.13937
 C205 C 0.62036 0.56207 0.11044
 C206 C 0.58477 0.58195 0.09000
 C207 C 0.56886 0.62488 0.10023
 C208 C 0.58971 0.64901 0.12927
 C209 C 0.70263 0.59417 0.18560
 C210 C 0.67928 0.56844 0.15860
 C211 C 0.59853 0.71823 0.16596
 C212 C 0.57548 0.69273 0.13874
 H213 H 0.73196 0.57965 0.19918
 H214 H 0.69127 0.53481 0.15211
 H215 H 0.58709 0.75222 0.17191
 H216 H 0.54688 0.70775 0.12443
 H217 H 0.65113 0.76182 0.21534
 H218 H 0.74413 0.65204 0.23243
 H219 H 0.63268 0.52897 0.10269
 H220 H 0.54108 0.64005 0.08486
 C221 C 0.82112 -0.16375 0.16910
 C222 C 0.77416 -0.16725 0.16493
 C223 C 0.74917 -0.19259 0.19158
 C224 C 0.77087 -0.21470 0.22183
 C225 C 0.81768 -0.20941 0.22654
 C226 C 0.84314 -0.18438 0.19991
 C227 C 0.84779 -0.13879 0.14029
 C228 C 0.89488 -0.13627 0.14393
 C229 C 0.92022 -0.11417 0.11558
 C230 C 0.89868 -0.09497 0.08377
 C231 C 0.85138 -0.09678 0.08108
 C232 C 0.82576 -0.11887 0.10919
 C233 C 0.89021 -0.18025 0.20306
 C234 C 0.91568 -0.15668 0.17547
 C235 C 0.75323 -0.14610 0.13383
 C236 C 0.77863 -0.12227 0.10639
 H237 H 0.90756 -0.19594 0.22675
 H238 H 0.95198 -0.15484 0.17863
 H239 H 0.71699 -0.14848 0.13042
 H240 H 0.76129 -0.10690 0.08256
 H241 H 0.71300 -0.19559 0.18839
 H242 H 0.83443 -0.22476 0.25059
 H243 H 0.95664 -0.11276 0.11789
 H244 H 0.83455 -0.08188 0.05677
 C245 C 0.83552 0.34903 0.66979
 C246 C 0.78850 0.35323 0.66906
 C247 C 0.76246 0.32863 0.69548
 C248 C 0.78301 0.29985 0.72228
 C249 C 0.83030 0.29825 0.72422
 C250 C 0.85677 0.32207 0.69745
 C251 C 0.86282 0.37212 0.64032
 C252 C 0.90968 0.36629 0.63994
 C253 C 0.93510 0.38608 0.61039
 C254 C 0.91367 0.41130 0.58151
 C255 C 0.86690 0.41811 0.58323
 C256 C 0.84128 0.39830 0.61233
 C257 C 0.90390 0.31832 0.69699
 C258 C 0.92989 0.33989 0.66861
 C259 C 0.76834 0.38080 0.64120
 C260 C 0.79434 0.40310 0.61334
 H261 H 0.92072 0.29769 0.71824
 H262 H 0.96601 0.33532 0.66880
 H263 H 0.73212 0.38451 0.64052
 H264 H 0.77745 0.42346 0.59195
 H265 H 0.72621 0.33127 0.69464
 H266 H 0.84667 0.27787 0.74573
 H267 H 0.97114 0.38100 0.60939
 H268 H 0.85016 0.43786 0.56135
 C269 C 0.33075 -0.15920 0.66903
 C270 C 0.28687 -0.14544 0.67712
 C271 C 0.26111 -0.17103 0.70321
 C272 C 0.27972 -0.20861 0.72245
 C273 C 0.32390 -0.22173 0.71444
 C274 C 0.34945 -0.19741 0.68730
 C275 C 0.35706 -0.13395 0.64001
 C276 C 0.39986 -0.14935 0.63018
 C277 C 0.42385 -0.12636 0.60132
 C278 C 0.40568 -0.08762 0.58327
 C279 C 0.36329 -0.07194 0.59417
 C280 C 0.33845 -0.09548 0.62207
 C281 C 0.39285 -0.21110 0.67739
 C282 C 0.41750 -0.18767 0.64913
 C283 C 0.26941 -0.10681 0.65855
 C284 C 0.29496 -0.08195 0.63177
 H285 H 0.40761 -0.24058 0.69120
 H286 H 0.45056 -0.19975 0.64196
 H287 H 0.23570 -0.09573 0.66474
 H288 H 0.28025 -0.05235 0.61807
 H289 H 0.22650 -0.16195 0.70831
 H290 H 0.33775 -0.25170 0.72820
 H291 H 0.45662 -0.13829 0.59305
 H292 H 0.34900 -0.04245 0.57996
 C293 C 0.32592 0.32853 0.16696
 C294 C 0.28936 0.34856 0.18470
 C295 C 0.26318 0.32219 0.20990
 C296 C 0.27399 0.27651 0.21817
 C297 C 0.31044 0.25676 0.19991
 C298 C 0.33662 0.28267 0.17421
 C299 C 0.35278 0.35578 0.13957
 C300 C 0.38837 0.33530 0.12079
 C301 C 0.41256 0.36081 0.09359
 C302 C 0.40136 0.40645 0.08521
 C303 C 0.36641 0.42684 0.10511
 C304 C 0.34167 0.40148 0.13203
 C305 C 0.37298 0.26360 0.15534
 C306 C 0.39837 0.28945 0.12902
 C307 C 0.27943 0.39445 0.17664
 C308 C 0.30528 0.42053 0.15086
 H309 H 0.38163 0.22828 0.16070
 H310 H 0.42581 0.27330 0.11477
 H311 H 0.25134 0.41028 0.19027
 H312 H 0.29635 0.45573 0.14526
 H313 H 0.23404 0.33726 0.22247
 H314 H 0.31827 0.22135 0.20533
 H315 H 0.43956 0.34495 0.07849
 H316 H 0.35744 0.46187 0.09873
 C317 C 0.82939 0.17254 -0.16301
 C318 C 0.79370 0.19846 -0.14981
 C319 C 0.76971 0.22592 -0.17522
 C320 C 0.78015 0.22647 -0.21375
 C321 C 0.81545 0.19959 -0.22670
 C322 C 0.84081 0.17317 -0.20129
 C323 C 0.85518 0.14417 -0.13621
 C324 C 0.89195 0.11939 -0.14905
 C325 C 0.91681 0.09303 -0.12312
 C326 C 0.90377 0.09033 -0.08514
 C327 C 0.86650 0.11481 -0.07294
 C328 C 0.84252 0.14238 -0.09820
 C329 C 0.87739 0.14747 -0.21325
 C330 C 0.90280 0.12137 -0.18751
 C331 C 0.78251 0.19628 -0.11147
 C332 C 0.80629 0.16838 -0.08613
 H333 H 0.88666 0.14780 -0.24270
 H334 H 0.93093 0.10232 -0.19784
 H335 H 0.75492 0.21604 -0.10102
 H336 H 0.79642 0.16736 -0.05680
 H337 H 0.74274 0.24632 -0.16477
 H338 H 0.82331 0.19954 -0.25644
 H339 H 0.94551 0.07401 -0.13246
 H340 H 0.85685 0.11314 -0.04353
 C341 C 0.82876 0.67137 0.34001
 C342 C 0.83845 0.66983 0.30145
 C343 C 0.80988 0.69199 0.27566
 C344 C 0.77297 0.71665 0.28850
 C345 C 0.76394 0.71788 0.32720
 C346 C 0.79136 0.69489 0.35305
 C347 C 0.85826 0.64799 0.36732
 C348 C 0.84747 0.64848 0.40571
 C349 C 0.87469 0.62519 0.43146
 C350 C 0.91302 0.60246 0.41929
 C351 C 0.92438 0.60312 0.38093
 C352 C 0.89646 0.62536 0.35457
 C353 C 0.78210 0.69513 0.39173
 C354 C 0.80955 0.67199 0.41764
 C355 C 0.87671 0.64658 0.28964
 C356 C 0.90539 0.62497 0.31578
 H357 H 0.75326 0.71313 0.40204
 H358 H 0.80110 0.67262 0.44725
 H359 H 0.88467 0.64529 0.25996
 H360 H 0.93459 0.60754 0.30551
 H361 H 0.81692 0.69106 0.24579
 H362 H 0.73572 0.73659 0.33753
 H363 H 0.86621 0.62484 0.46113
 H364 H 0.95380 0.58518 0.37166
 C365 C 0.32763 0.16189 0.33840
 C366 C 0.32655 0.14779 0.30088
 C367 C 0.30010 0.17187 0.27447
 C368 C 0.27373 0.20857 0.28587
 C369 C 0.27438 0.22097 0.32391
 C370 C 0.30192 0.19861 0.35002
 C371 C 0.35590 0.13763 0.36620
 C372 C 0.35789 0.15300 0.40335
 C373 C 0.38504 0.13030 0.42961
 C374 C 0.40869 0.09142 0.41942
 C375 C 0.40592 0.07570 0.38228
 C376 C 0.38008 0.09939 0.35523
 C377 C 0.30429 0.21253 0.38757
 C378 C 0.33221 0.19039 0.41372
 C379 C 0.35180 0.10985 0.29074
 C380 C 0.37775 0.08579 0.31753
 H381 H 0.28466 0.24102 0.39674
 H382 H 0.33335 0.20234 0.44237
 H383 H 0.35120 0.09841 0.26194
 H384 H 0.39632 0.05647 0.30860
 H385 H 0.29952 0.16154 0.24542
 H386 H 0.25389 0.24819 0.33373
 H387 H 0.38667 0.14195 0.45837
 H388 H 0.42421 0.04567 0.37451
 C389 C 0.32946 0.66712 -0.16345
 C390 C 0.33703 0.71457 -0.16623
 C391 C 0.31112 0.74051 -0.19153
 C392 C 0.27822 0.71927 -0.21404
 C393 C 0.27103 0.67173 -0.21112
 C394 C 0.29665 0.64539 -0.18576
 C395 C 0.35564 0.63985 -0.13599
 C396 C 0.34731 0.59258 -0.13244
 C397 C 0.37105 0.56714 -0.10516
 C398 C 0.40252 0.58891 -0.08134
 C399 C 0.41123 0.63616 -0.08607
 C400 C 0.38774 0.66181 -0.11318
 C401 C 0.28974 0.59792 -0.18184
 C402 C 0.31462 0.57197 -0.15564
 C403 C 0.36997 0.73515 -0.14333
 C404 C 0.39495 0.70921 -0.11728
 H405 H 0.26459 0.58072 -0.19893
 H406 H 0.30787 0.53554 -0.15325
 H407 H 0.37623 0.77168 -0.14531
 H408 H 0.41971 0.72649 -0.09988
 H409 H 0.31635 0.77721 -0.19364
 H410 H 0.24512 0.65533 -0.22791
 H411 H 0.36410 0.53083 -0.10174
 H412 H 0.43554 0.65321 -0.06805
 C413 C 1.15428 -0.16047 -0.16605
 C414 C 1.14605 -0.20757 -0.16969
 C415 C 1.17289 -0.23237 -0.19408
 C416 C 1.20724 -0.21030 -0.21502
 C417 C 1.21551 -0.16324 -0.21067
 C418 C 1.18889 -0.13804 -0.18637
 C419 C 1.12711 -0.13445 -0.13953
 C420 C 1.13627 -0.08765 -0.13500
 C421 C 1.11190 -0.06360 -0.10831
 C422 C 1.07916 -0.08632 -0.08580
 C423 C 1.06951 -0.13297 -0.09163
 C424 C 1.09354 -0.15725 -0.11830
 C425 C 1.19659 -0.09102 -0.18151
 C426 C 1.17070 -0.06625 -0.15631
 C427 C 1.11154 -0.22896 -0.14850
 C428 C 1.08572 -0.20422 -0.12326
 H429 H 1.22313 -0.07328 -0.19707
 H430 H 1.17814 -0.03017 -0.15309
 H431 H 1.10475 -0.26523 -0.15114
 H432 H 1.05985 -0.22218 -0.10709
 H433 H 1.16721 -0.26884 -0.19671
 H434 H 1.24314 -0.14633 -0.22537
 H435 H 1.11984 -0.02782 -0.10388
 H436 H 1.04437 -0.15077 -0.07452
 C437 C 1.15742 0.33612 0.32909
 C438 C 1.13458 0.30042 0.31072
 C439 C 1.15832 0.27332 0.28581
 C440 C 1.20434 0.28197 0.27937
 C441 C 1.22628 0.31888 0.29692
 C442 C 1.20311 0.34583 0.32213
 C443 C 1.13363 0.36244 0.35746
 C444 C 1.15716 0.39648 0.37728
 C445 C 1.13517 0.41941 0.40591
 C446 C 1.09003 0.40848 0.41461
 C447 C 1.06649 0.37540 0.39354
 C448 C 1.08830 0.35187 0.36523
 C449 C 1.22513 0.38113 0.34158
 C450 C 1.20255 0.40601 0.36875
 C451 C 1.08891 0.29158 0.31866
 C452 C 1.06609 0.31701 0.34536
 H453 H 1.26038 0.38895 0.33631
 H454 H 1.22096 0.43238 0.38366
 H455 H 1.07086 0.26431 0.30456
 H456 H 1.03104 0.30868 0.35107
 H457 H 1.14143 0.24460 0.27274
 H458 H 1.26196 0.32511 0.29233
 H459 H 1.15331 0.44513 0.42180
 H460 H 1.03172 0.36680 0.40006
 C461 C 0.65354 -0.16080 0.33294
 C462 C 0.63952 -0.20618 0.32701
 C463 C 0.66279 -0.23220 0.30114
 C464 C 0.70020 -0.21327 0.28203
 C465 C 0.71290 -0.16739 0.28715
 C466 C 0.68966 -0.14089 0.31272
 C467 C 0.63164 -0.13447 0.36231
 C468 C 0.64678 -0.08966 0.36921
 C469 C 0.62760 -0.06571 0.39864
 C470 C 0.59443 -0.08682 0.42159
 C471 C 0.57888 -0.13131 0.41371
 C472 C 0.59734 -0.15531 0.38404
 C473 C 0.70301 -0.09556 0.31966
 C474 C 0.68179 -0.07029 0.34737
 C475 C 0.60388 -0.22523 0.34830
 C476 C 0.58314 -0.20020 0.37639
 H477 H 0.73067 -0.07980 0.30409
 H478 H 0.69361 -0.03570 0.35234
 H479 H 0.59267 -0.26013 0.34385
 H480 H 0.55642 -0.21644 0.39278
 H481 H 0.65345 -0.26777 0.29738
 H482 H 0.74203 -0.15292 0.27270
 H483 H 0.63959 -0.03138 0.40453
 H484 H 0.55296 -0.14750 0.43105
 C485 C 0.65536 0.34706 -0.17066
 C486 C 0.64369 0.30134 -0.17782
 C487 C 0.66983 0.27690 -0.20287
 C488 C 0.70777 0.29766 -0.21994
 C489 C 0.71836 0.34379 -0.21342
 C490 C 0.69217 0.36876 -0.18870
 C491 C 0.62993 0.37196 -0.14236
 C492 C 0.64254 0.41718 -0.13425
 C493 C 0.62001 0.43975 -0.10568
 C494 C 0.58599 0.41694 -0.08471
 C495 C 0.57296 0.37205 -0.09394
 C496 C 0.59479 0.34939 -0.12278
 C497 C 0.70300 0.41443 -0.18058
 C498 C 0.67849 0.43830 -0.15390
 C499 C 0.60722 0.28050 -0.15869
 C500 C 0.58322 0.30411 -0.13156
 H501 H 0.73116 0.43161 -0.19446
 H502 H 0.68842 0.47322 -0.14799
 H503 H 0.59782 0.24531 -0.16409
 H504 H 0.55593 0.28649 -0.11684
 H505 H 0.66198 0.24121 -0.20777
 H506 H 0.74784 0.35971 -0.22630
 H507 H 0.63029 0.47424 -0.09872
 H508 H 0.54664 0.35436 -0.07805
 C509 C 1.18152 0.16339 -0.15928
 C510 C 1.22717 0.15552 -0.16614
 C511 C 1.24847 0.17885 -0.19621
 C512 C 1.22432 0.20959 -0.21916
 C513 C 1.17845 0.21644 -0.21248
 C514 C 1.15683 0.19346 -0.18244
 C515 C 1.15932 0.14035 -0.12686
 C516 C 1.11383 0.14867 -0.11992
 C517 C 1.09256 0.12611 -0.08967
 C518 C 1.11610 0.09495 -0.06647
 C519 C 1.16209 0.08771 -0.07317
 C520 C 1.18388 0.11034 -0.10355
 C521 C 1.11133 0.20083 -0.17447
 C522 C 1.09017 0.17876 -0.14376
 C523 C 1.25075 0.12538 -0.14225
 C524 C 1.22945 0.10307 -0.11157
 H525 H 1.09196 0.22396 -0.19204
 H526 H 1.05496 0.18528 -0.13864
 H527 H 1.28602 0.11906 -0.14725
 H528 H 1.24883 0.07999 -0.09397
 H529 H 1.28411 0.17432 -0.20102
 H530 H 1.16011 0.24099 -0.22949
 H531 H 1.05713 0.13189 -0.08487
 H532 H 1.18035 0.06350 -0.05574
 C533 C 1.17500 0.67135 0.33019
 C534 C 1.20832 0.65011 0.30928
 C535 C 1.23404 0.67633 0.28334
 C536 C 1.22671 0.72356 0.27832
 C537 C 1.19246 0.74385 0.29922
 C538 C 1.16672 0.71806 0.32523
 C539 C 1.14862 0.64429 0.35817
 C540 C 1.11587 0.66587 0.37951
 C541 C 1.09206 0.64050 0.40704
 C542 C 1.10080 0.59385 0.41344
 C543 C 1.13297 0.57242 0.39106
 C544 C 1.15721 0.59762 0.36352
 C545 C 1.13308 0.73823 0.34662
 C546 C 1.10816 0.71261 0.37335
 C547 C 1.21558 0.60318 0.31508
 C548 C 1.19046 0.57739 0.34171
 H549 H 1.12628 0.77427 0.34297
 H550 H 1.08289 0.72962 0.38956
 H551 H 1.24113 0.58628 0.29910
 H552 H 1.19744 0.54140 0.34549
 H553 H 1.25993 0.65973 0.26765
 H554 H 1.18494 0.77952 0.29497
 H555 H 1.06723 0.65728 0.42392
 H556 H 1.14000 0.53655 0.39574
 C557 C 0.67486 0.16067 0.33101
 C558 C 0.72206 0.15910 0.33241
 C559 C 0.74738 0.18413 0.30563
 C560 C 0.72593 0.21088 0.27785
 C561 C 0.67856 0.21031 0.27569
 C562 C 0.65280 0.18582 0.30263
 C563 C 0.64809 0.13632 0.36029
 C564 C 0.60091 0.13904 0.35965
 C565 C 0.57577 0.11759 0.38866
 C566 C 0.59767 0.09364 0.41808
 C567 C 0.64496 0.09018 0.41750
 C568 C 0.67032 0.11172 0.38888
 C569 C 0.60547 0.18676 0.30232
 C570 C 0.57999 0.16391 0.33041
 C571 C 0.74301 0.13335 0.36106
 C572 C 0.71757 0.10999 0.38878
 H573 H 0.58800 0.20595 0.28054
 H574 H 0.54363 0.16615 0.32943
 H575 H 0.77940 0.13172 0.36235
 H576 H 0.73509 0.09098 0.41066
 H577 H 0.78374 0.18326 0.30686
 H578 H 0.66155 0.22916 0.25359
 H579 H 0.53941 0.12022 0.38872
 H580 H 0.66218 0.07164 0.43983
 C581 C 0.66086 0.65200 -0.17125
 C582 C 0.70491 0.63747 -0.17771
 C583 C 0.73154 0.66109 -0.20435
 C584 C 0.71482 0.69968 -0.22357
 C585 C 0.67019 0.71295 -0.21766
 C586 C 0.64293 0.68907 -0.19159
 C587 C 0.63404 0.62981 -0.14105
 C588 C 0.59049 0.64527 -0.13377
 C589 C 0.56602 0.62559 -0.10373
 C590 C 0.58556 0.59188 -0.08043
 C591 C 0.62898 0.57641 -0.08841
 C592 C 0.65327 0.59501 -0.11887
 C593 C 0.59886 0.70285 -0.18415
 C594 C 0.57295 0.68110 -0.15588
 C595 C 0.72225 0.60122 -0.15597
 C596 C 0.69689 0.58042 -0.12694
 H597 H 0.58458 0.73124 -0.19983
 H598 H 0.53937 0.69324 -0.15062
 H599 H 0.75614 0.58966 -0.16077
 H600 H 0.71186 0.55329 -0.11021
 H601 H 0.76629 0.65158 -0.20814
 H602 H 0.65734 0.74318 -0.23169
 H603 H 0.53259 0.63765 -0.09764
 H604 H 0.64407 0.55032 -0.07062
 C605 C 0.84280 -0.18559 -0.16156
 C606 C 0.84411 -0.17031 -0.19927
 C607 C 0.81842 -0.19372 -0.22637
 C608 C 0.79010 -0.23080 -0.21559
 C609 C 0.78904 -0.24502 -0.17748
 C610 C 0.81579 -0.22320 -0.15055
 C611 C 0.86912 -0.16099 -0.13281
 C612 C 0.86785 -0.17663 -0.09513
 C613 C 0.89142 -0.15208 -0.06763
 C614 C 0.91430 -0.11122 -0.07744
 C615 C 0.91575 -0.09614 -0.11529
 C616 C 0.89365 -0.12135 -0.14328
 C617 C 0.81561 -0.23805 -0.11268
 C618 C 0.84153 -0.21539 -0.08549
 C619 C 0.87042 -0.13143 -0.20888
 C620 C 0.89440 -0.10710 -0.18131
 H621 H 0.79505 -0.26731 -0.10396
 H622 H 0.84015 -0.22770 -0.05655
 H623 H 0.87176 -0.11917 -0.23784
 H624 H 0.91340 -0.07669 -0.18978
 H625 H 0.81973 -0.18227 -0.25547
 H626 H 0.76751 -0.27297 -0.16817
 H627 H 0.88970 -0.16310 -0.03834
 H628 H 0.93328 -0.06442 -0.12268
 C629 C 0.84660 0.33873 0.32618
 C630 C 0.85859 0.29325 0.32052
 C631 C 0.83395 0.26708 0.29474
 C632 C 0.79708 0.28575 0.27532
 C633 C 0.78636 0.33180 0.28030
 C634 C 0.81097 0.35848 0.30591
 C635 C 0.87087 0.36567 0.35476
 C636 C 0.85825 0.41084 0.36112
 C637 C 0.88000 0.43552 0.38969
 C638 C 0.91333 0.41478 0.41225
 C639 C 0.92621 0.36983 0.40479
 C640 C 0.90521 0.34517 0.37605
 C641 C 0.79996 0.40410 0.31244
 C642 C 0.82325 0.42986 0.33952
 C643 C 0.89417 0.27447 0.34151
 C644 C 0.91703 0.29997 0.36888
 H645 H 0.77267 0.41983 0.29689
 H646 H 0.81324 0.46468 0.34404
 H647 H 0.90385 0.23948 0.33726
 H648 H 0.94372 0.28394 0.38496
 H649 H 0.84300 0.23196 0.29031
 H650 H 0.75834 0.34661 0.26519
 H651 H 0.86987 0.47009 0.39527
 H652 H 0.95194 0.35368 0.42190
 C653 C 0.34563 -0.15506 0.32772
 C654 C 0.36813 -0.18367 0.30315
 C655 C 0.34308 -0.20801 0.27618
 C656 C 0.29564 -0.20569 0.27517
 C657 C 0.27441 -0.17411 0.29823
 C658 C 0.29898 -0.14931 0.32487
 C659 C 0.37120 -0.13131 0.35744
 C660 C 0.34830 -0.10333 0.38226
 C661 C 0.37214 -0.08273 0.41166
 C662 C 0.41850 -0.09028 0.41673
 C663 C 0.44135 -0.11734 0.39086
 C664 C 0.41772 -0.13807 0.36114
 C665 C 0.27752 -0.11991 0.34951
 C666 C 0.30177 -0.09731 0.37776
 C667 C 0.41501 -0.18836 0.30687
 C668 C 0.43934 -0.16615 0.33547
 H669 H 0.24151 -0.11504 0.34744
 H670 H 0.28381 -0.07558 0.39663
 H671 H 0.43291 -0.21022 0.28805
 H672 H 0.47526 -0.17149 0.33782
 H673 H 0.36088 -0.22864 0.25666
 H674 H 0.23860 -0.16895 0.29602
 H675 H 0.35431 -0.06162 0.43112
 H676 H 0.47708 -0.12307 0.39433
 C677 C 0.33637 0.33408 -0.16720
 C678 C 0.35980 0.30376 -0.18976
 C679 C 0.33597 0.27829 -0.21650
 C680 C 0.28934 0.28361 -0.22088
 C681 C 0.26635 0.31398 -0.19810
 C682 C 0.28973 0.33949 -0.17123
 C683 C 0.36084 0.35939 -0.13790
 C684 C 0.33710 0.38849 -0.11448
 C685 C 0.36019 0.41094 -0.08558
 C686 C 0.40655 0.40424 -0.08002
 C687 C 0.43005 0.37588 -0.10438
 C688 C 0.40727 0.35305 -0.13318
 C689 C 0.26727 0.36957 -0.14781
 C690 C 0.29060 0.39371 -0.11989
 C691 C 0.40638 0.29880 -0.18453
 C692 C 0.42977 0.32315 -0.15676
 H693 H 0.23129 0.37408 -0.15079
 H694 H 0.27198 0.41617 -0.10208
 H695 H 0.42482 0.27559 -0.20181
 H696 H 0.46562 0.31805 -0.15337
 H697 H 0.35351 0.25348 -0.23277
 H698 H 0.23016 0.31715 -0.20093
 H699 H 0.34200 0.43298 -0.06708
 H700 H 0.46579 0.37063 -0.10031
 C701 C 1.18164 -0.15967 0.16028
 C702 C 1.22765 -0.15003 0.16558
 C703 C 1.25095 -0.17307 0.19453
 C704 C 1.22860 -0.20600 0.21760
 C705 C 1.18228 -0.21465 0.21217
 C706 C 1.15862 -0.19140 0.18373
 C707 C 1.15733 -0.13712 0.12892
 C708 C 1.11143 -0.14715 0.12371
 C709 C 1.08826 -0.12543 0.09437
 C710 C 1.11041 -0.09399 0.06989
 C711 C 1.15676 -0.08479 0.07487
 C712 C 1.18040 -0.10620 0.10469
 C713 C 1.11263 -0.20043 0.17749
 C714 C 1.08936 -0.17848 0.14811
 C715 C 1.24961 -0.11863 0.14105
 C716 C 1.22641 -0.09712 0.11116
 H717 H 1.09449 -0.22482 0.19538
 H718 H 1.05384 -0.18633 0.14430
 H719 H 1.28516 -0.11092 0.14479
 H720 H 1.24470 -0.07328 0.09291
 H721 H 1.28686 -0.16696 0.19790
 H722 H 1.16489 -0.24111 0.22842
 H723 H 1.05256 -0.13264 0.09089
 H724 H 1.17386 -0.06021 0.05646
 C725 C 1.16809 0.33430 0.66510
 C726 C 1.20096 0.35618 0.68723
 C727 C 1.22642 0.33010 0.71279
 C728 C 1.21902 0.28263 0.71625
 C729 C 1.18590 0.26121 0.69407
 C730 C 1.16017 0.28693 0.66844
 C731 C 1.14256 0.36123 0.63700
 C732 C 1.11068 0.33907 0.61412
 C733 C 1.08801 0.36437 0.58628
 C734 C 1.09733 0.41143 0.58094
 C735 C 1.12853 0.43340 0.60485
 C736 C 1.15148 0.40834 0.63280
 C737 C 1.12734 0.26617 0.64554
 C738 C 1.10296 0.29181 0.61886
 C739 C 1.20837 0.40352 0.68271
 C740 C 1.18402 0.42916 0.65599
 H741 H 1.12080 0.22971 0.64793
 H742 H 1.07834 0.27437 0.60142
 H743 H 1.23358 0.42081 0.69968
 H744 H 1.19119 0.46547 0.65309
 H745 H 1.25276 0.34664 0.72901
 H746 H 1.18074 0.22451 0.69638
 H747 H 1.06386 0.34719 0.56819
 H748 H 1.13591 0.46959 0.60098
 C749 C 0.66595 -0.17415 0.66768
 C750 C 0.69728 -0.15165 0.69095
 C751 C 0.72308 -0.17744 0.71661
 C752 C 0.71916 -0.22536 0.71752
 C753 C 0.68808 -0.24731 0.69364
 C754 C 0.66067 -0.22185 0.66923
 C755 C 0.63865 -0.14735 0.64073
 C756 C 0.60650 -0.16982 0.61821
 C757 C 0.58118 -0.14428 0.59217
 C758 C 0.58945 -0.09709 0.58742
 C759 C 0.62182 -0.07508 0.61005
 C760 C 0.64596 -0.09994 0.63737
 C761 C 0.62824 -0.24314 0.64623
 C762 C 0.60127 -0.21750 0.62143
 C763 C 0.70254 -0.10394 0.68765
 C764 C 0.67773 -0.07860 0.66099
 H765 H 0.62367 -0.27993 0.64741
 H766 H 0.57670 -0.23524 0.60415
 H767 H 0.72663 -0.08612 0.70533
 H768 H 0.68346 -0.04201 0.65884
 H769 H 0.74624 -0.16016 0.73529
 H770 H 0.68486 -0.28426 0.69446
 H771 H 0.55666 -0.16133 0.57434
 H772 H 0.62816 -0.03881 0.60625
 C773 C 0.67228 0.32883 0.15941
 C774 C 0.70919 0.30429 0.14679
 C775 C 0.73556 0.28047 0.17294
 C776 C 0.72612 0.28185 0.21163
 C777 C 0.68992 0.30791 0.22405
 C778 C 0.66221 0.33076 0.19789
 C779 C 0.64360 0.35276 0.13171
 C780 C 0.60563 0.37608 0.14401
 C781 C 0.57818 0.39834 0.11726
 C782 C 0.58980 0.39842 0.07893
 C783 C 0.62814 0.37531 0.06725
 C784 C 0.65479 0.35184 0.09340
 C785 C 0.62435 0.35499 0.20925
 C786 C 0.59634 0.37696 0.18275
 C787 C 0.71895 0.30376 0.10819
 C788 C 0.69240 0.32748 0.08195
 H789 H 0.61606 0.35664 0.23884
 H790 H 0.56733 0.39498 0.19268
 H791 H 0.74747 0.28501 0.09820
 H792 H 0.70120 0.32649 0.05242
 H793 H 0.76330 0.26097 0.16277
 H794 H 0.68273 0.30943 0.25385
 H795 H 0.54881 0.41658 0.12620
 H796 H 0.63687 0.37523 0.03764
 C797 C 0.84245 0.16170 0.16255
 C798 C 0.85873 0.20541 0.17174
 C799 C 0.83644 0.22993 0.19940
 C800 C 0.79786 0.21112 0.21714
 C801 C 0.78285 0.16683 0.20847
 C802 C 0.80501 0.14192 0.18115
 C803 C 0.86385 0.13689 0.13186
 C804 C 0.84675 0.09371 0.12224
 C805 C 0.86640 0.07061 0.09265
 C806 C 0.90281 0.09032 0.07230
 C807 C 0.91971 0.13373 0.08233
 C808 C 0.90029 0.15718 0.11223
 C809 C 0.78938 0.09832 0.17101
 C810 C 0.80999 0.07455 0.14212
 C811 C 0.89580 0.22430 0.15200
 C812 C 0.91624 0.20059 0.12279
 H813 H 0.76060 0.08268 0.18519
 H814 H 0.79665 0.04113 0.13496
 H815 H 0.90872 0.25798 0.15881
 H816 H 0.94444 0.21661 0.10810
 H817 H 0.84743 0.26448 0.20559
 H818 H 0.75270 0.15262 0.22157
 H819 H 0.85301 0.03724 0.08534
 H820 H 0.94794 0.14902 0.06714
 C821 C 0.84100 0.65726 0.66526
 C822 C 0.85080 0.70361 0.67134
 C823 C 0.82501 0.72724 0.69722
 C824 C 0.78988 0.70484 0.71697
 C825 C 0.78020 0.65849 0.71031
 C826 C 0.80592 0.63439 0.68466
 C827 C 0.86696 0.63264 0.63711
 C828 C 0.85646 0.58656 0.63039
 C829 C 0.88006 0.56382 0.60255
 C830 C 0.91325 0.58719 0.58101
 C831 C 0.92397 0.63312 0.58867
 C832 C 0.90090 0.65604 0.61670
 C833 C 0.79678 0.58811 0.67751
 C834 C 0.82173 0.56454 0.65093
 C835 C 0.88565 0.72559 0.65094
 C836 C 0.91029 0.70220 0.62407
 H837 H 0.76988 0.57004 0.69239
 H838 H 0.81332 0.52899 0.64601
 H839 H 0.89361 0.76132 0.65548
 H840 H 0.93652 0.72055 0.60861
 H841 H 0.83180 0.76317 0.70130
 H842 H 0.75206 0.64136 0.72411
 H843 H 0.87152 0.52848 0.59678
 H844 H 0.94964 0.65125 0.57236
 C845 C 0.34215 0.16690 0.66318
 C846 C 0.30544 0.14463 0.68093
 C847 C 0.28030 0.16834 0.70730
 C848 C 0.29112 0.21414 0.71493
 C849 C 0.32699 0.23636 0.69605
 C850 C 0.35344 0.21255 0.67085
 C851 C 0.36864 0.14234 0.63536
 C852 C 0.40584 0.16442 0.61819
 C853 C 0.43064 0.14112 0.59148
 C854 C 0.41721 0.09692 0.58081
 C855 C 0.37976 0.07528 0.59807
 C856 C 0.35572 0.09762 0.62591
 C857 C 0.39074 0.23354 0.65299
 C858 C 0.41682 0.20970 0.62740
 C859 C 0.29426 0.09944 0.67146
 C860 C 0.31874 0.07646 0.64418
 H861 H 0.39990 0.26866 0.65889
 H862 H 0.44536 0.22710 0.61425
 H863 H 0.26598 0.08191 0.68487
 H864 H 0.30861 0.04187 0.63729
 H865 H 0.25177 0.15164 0.72104
 H866 H 0.33442 0.27209 0.70113
 H867 H 0.45923 0.15796 0.57787
 H868 H 0.36957 0.04116 0.58989
 C869 C 0.33391 0.66718 0.16397
 C870 C 0.29334 0.68776 0.15369
 C871 C 0.27156 0.71474 0.17962
 C872 C 0.28969 0.72137 0.21593
 C873 C 0.32856 0.69735 0.22676
 C874 C 0.35182 0.67164 0.20037
 C875 C 0.35804 0.64056 0.13597
 C876 C 0.39979 0.62167 0.14549
 C877 C 0.42355 0.59823 0.11799
 C878 C 0.40480 0.59252 0.08186
 C879 C 0.36229 0.61038 0.07331
 C880 C 0.33913 0.63514 0.10000
 C881 C 0.39296 0.65092 0.20930
 C882 C 0.41683 0.62688 0.18218
 C883 C 0.27542 0.68143 0.11749
 C884 C 0.29780 0.65526 0.09115
 H885 H 0.40729 0.65411 0.23724
 H886 H 0.44885 0.61223 0.19002
 H887 H 0.24393 0.69701 0.10938
 H888 H 0.28297 0.65132 0.06346
 H889 H 0.24024 0.73018 0.17108
 H890 H 0.34087 0.69865 0.25545
 H891 H 0.45625 0.58424 0.12464
 H892 H 0.34797 0.60636 0.04541
   
