data_POSCAR
  _audit_creation_date              2014-09-24
  _audit_creation_method            'ToBaCCo'
  _symmetry_space_group_name_H-M    'P1'
  _symmetry_Int_Tables_number       1
  _symmetry_cell_setting            triclinic
  loop_
  _symmetry_equiv_pos_as_xyz
 x,y,z
_cell_length_a 25.2217
_cell_length_b 25.5134
_cell_length_c 24.2820
_cell_angle_alpha 90.198300
_cell_angle_beta 89.916700
_cell_angle_gamma 89.994700
loop_
  _atom_site_label
  _atom_site_type_symbol
  _atom_site_fract_x
  _atom_site_fract_y
  _atom_site_fract_z
C1 C 1.25140 0.24933 0.24896
 C2 C 0.75032 -0.25075 0.25060
 C3 C 0.74711 0.24963 -0.24906
 C4 C 1.25082 -0.24980 -0.25073
 C5 C 0.25054 0.25074 0.75077
 C6 C 0.74843 0.75106 0.74944
 C7 C 0.74907 0.25011 0.24966
 C8 C 0.24871 0.74945 0.25028
 N9 N 1.05421 -0.09497 0.05622
 N10 N 1.08708 -0.13355 0.06826
 N11 N 0.94315 -0.05660 0.09511
 N12 N 0.91115 -0.07009 0.13583
 N13 N 0.94336 -0.09306 0.05671
 N14 N 0.91192 -0.13220 0.07055
 N15 N 1.05466 -0.05913 0.09522
 N16 N 1.08820 -0.07234 0.13453
 C17 C 1.10866 -0.11858 0.11686
 C18 C 0.89137 -0.11701 0.11950
 N19 N 0.94863 0.09456 0.05858
 N20 N 0.91737 0.13410 0.07210
 N21 N 1.05728 0.05425 0.09667
 N22 N 1.09067 0.06583 0.13673
 N23 N 1.05981 0.08962 0.05758
 N24 N 1.09561 0.12557 0.06949
 N25 N 0.94619 0.05752 0.09602
 N26 N 0.91294 0.07095 0.13574
 Mn27 Mn 1.00016 -0.00098 0.09619
 C28 C 0.89475 0.11856 0.11991
 C29 C 1.11501 0.10978 0.11853
 N30 N 0.94211 -0.09112 -0.06182
 N31 N 0.90572 -0.12680 -0.07296
 N32 N 1.05380 -0.05736 -0.10144
 N33 N 1.08833 -0.06884 -0.14054
 N34 N 1.05418 -0.09336 -0.06290
 N35 N 1.08953 -0.12999 -0.07446
 N36 N 0.94289 -0.05489 -0.10013
 N37 N 0.90786 -0.06562 -0.13892
 Mn38 Mn 0.99855 -0.09349 -0.00309
 C39 C 0.88427 -0.11003 -0.12083
 C40 C 1.11104 -0.11359 -0.12250
 N41 N 1.05972 0.09044 -0.06067
 N42 N 1.09633 0.12588 -0.07164
 N43 N 0.94583 0.05868 -0.09868
 N44 N 0.91195 0.07203 -0.13758
 N45 N 0.94833 0.09532 -0.06061
 N46 N 0.91645 0.13465 -0.07290
 N47 N 1.05701 0.05552 -0.10039
 N48 N 1.09116 0.06678 -0.13989
 Mn49 Mn 1.00418 0.09283 -0.00128
 Mn50 Mn 0.99973 0.00047 -0.10058
 Cl51 Cl 1.00050 -0.00030 -0.00208
 C52 C 1.11607 0.11020 -0.12083
 C53 C 0.89344 0.11924 -0.12063
 N54 N 0.94510 0.55639 0.40476
 N55 N 0.91267 0.56975 0.36448
 N56 N 1.05775 0.59168 0.44366
 N57 N 1.09237 0.62882 0.43170
 N58 N 1.05632 0.55623 0.40429
 N59 N 1.08928 0.56888 0.36416
 N60 N 0.94639 0.59329 0.44264
 N61 N 0.91516 0.63264 0.42894
 C62 C 0.89373 0.61713 0.38054
 C63 C 1.11229 0.61364 0.38238
 N64 N 1.05482 0.55635 0.60154
 N65 N 1.08979 0.56728 0.64032
 N66 N 0.94452 0.59279 0.56144
 N67 N 0.90961 0.62994 0.57273
 N68 N 0.94382 0.55663 0.59986
 N69 N 0.90914 0.56871 0.63866
 N70 N 1.05660 0.59162 0.56235
 N71 N 1.09339 0.62702 0.57296
 Mn72 Mn 1.00140 0.59274 0.50263
 C73 C 1.11412 0.61098 0.62143
 C74 C 0.88724 0.61381 0.62046
 N75 N 1.05655 0.44275 0.40487
 N76 N 1.09026 0.43001 0.36535
 N77 N 0.94611 0.40560 0.44289
 N78 N 0.91440 0.36646 0.42933
 N79 N 0.94505 0.44223 0.40495
 N80 N 0.91222 0.42894 0.36488
 N81 N 1.05689 0.40707 0.44374
 N82 N 1.09046 0.36917 0.43159
 Mn83 Mn 1.00060 0.49937 0.40428
 C84 C 1.11159 0.38429 0.38303
 C85 C 0.89285 0.38187 0.38101
 N86 N 0.94371 0.44290 0.59983
 N87 N 0.91045 0.42970 0.63953
 N88 N 1.05683 0.40790 0.56239
 N89 N 1.09246 0.37169 0.57408
 N90 N 1.05489 0.44345 0.60160
 N91 N 1.08859 0.43199 0.64132
 N92 N 0.94545 0.40607 0.56190
 N93 N 0.91374 0.36692 0.57498
 Mn94 Mn 0.99914 0.49987 0.60112
 Mn95 Mn 1.00139 0.40639 0.50276
 Cl96 Cl 1.00046 0.49961 0.50259
 C97 C 0.89153 0.38248 0.62304
 C98 C 1.11251 0.38782 0.62293
 N99 N 0.59231 0.05675 0.55708
 N100 N 0.62891 0.09218 0.56850
 N101 N 0.55682 -0.05385 0.59607
 N102 N 0.57011 -0.08635 0.63598
 N103 N 0.59348 -0.05351 0.55759
 N104 N 0.63222 -0.08610 0.57000
 N105 N 0.55607 0.05577 0.59597
 N106 N 0.56734 0.08994 0.63510
 C107 C 0.61238 0.11295 0.61701
 C108 C 0.61688 -0.10679 0.61868
 N109 N 0.40459 -0.05313 0.55778
 N110 N 0.36514 -0.08455 0.57116
 N111 N 0.44178 0.05576 0.59604
 N112 N 0.42837 0.08809 0.63628
 N113 N 0.40587 0.05644 0.55695
 N114 N 0.36730 0.08926 0.56948
 N115 N 0.44162 -0.05397 0.59580
 N116 N 0.42818 -0.08607 0.63598
 Mn117 Mn 0.49910 0.00077 0.59640
 C118 C 0.38070 -0.10538 0.61964
 C119 C 0.38218 0.10926 0.61870
 N120 N 0.59315 -0.05532 0.43924
 N121 N 0.62988 -0.09089 0.42870
 N122 N 0.55653 0.05365 0.39903
 N123 N 0.56763 0.08796 0.36011
 N124 N 0.59236 0.05539 0.43816
 N125 N 0.62841 0.09142 0.42727
 N126 N 0.55649 -0.05598 0.40089
 N127 N 0.56775 -0.09124 0.36277
 Mn128 Mn 0.59334 0.00093 0.49797
 C129 C 0.61315 -0.11330 0.38114
 C130 C 0.61215 0.11176 0.37872
 N131 N 0.40663 0.05568 0.43854
 N132 N 0.37049 0.09147 0.42742
 N133 N 0.44174 -0.05610 0.40116
 N134 N 0.42915 -0.09060 0.36266
 N135 N 0.40489 -0.05449 0.43939
 N136 N 0.36646 -0.08783 0.42800
 N137 N 0.44242 0.05360 0.39928
 N138 N 0.43117 0.08728 0.35994
 Mn139 Mn 0.40516 0.00122 0.49809
 Mn140 Mn 0.49931 -0.00135 0.39961
 Cl141 Cl 0.49926 0.00030 0.49809
 C142 C 0.38681 0.11121 0.37864
 C143 C 0.38237 -0.11060 0.38039
 N144 N 0.59458 0.55354 0.06088
 N145 N 0.63143 0.58889 0.07164
 N146 N 0.55549 0.44410 0.09875
 N147 N 0.56665 0.40981 0.13765
 N148 N 0.59169 0.44287 0.05987
 N149 N 0.62794 0.40706 0.07083
 N150 N 0.55818 0.55366 0.09966
 N151 N 0.56965 0.58843 0.13814
 C152 C 0.61501 0.61061 0.11973
 C153 C 0.61145 0.38635 0.11916
 N154 N 0.40443 0.44874 0.06018
 N155 N 0.36661 0.41452 0.07067
 N156 N 0.44354 0.55665 0.10041
 N157 N 0.43128 0.58945 0.14069
 N158 N 0.40787 0.55886 0.06114
 N159 N 0.37113 0.59393 0.07306
 N160 N 0.44125 0.44698 0.09828
 N161 N 0.42952 0.41148 0.13569
 Mn162 Mn 0.49963 0.50034 0.09975
 C163 C 0.38310 0.39117 0.11757
 C164 C 0.38665 0.61316 0.12238
 N165 N 0.59137 0.44330 -0.05852
 N166 N 0.62687 0.40680 -0.06980
 N167 N 0.55819 0.55492 -0.09621
 N168 N 0.57172 0.58727 -0.13610
 N169 N 0.59532 0.55331 -0.05835
 N170 N 0.63514 0.58440 -0.07177
 N171 N 0.55512 0.44518 -0.09724
 N172 N 0.56547 0.41056 -0.13632
 Mn173 Mn 0.59375 0.49829 0.00103
 C174 C 0.60985 0.38634 -0.11814
 C175 C 0.61951 0.60589 -0.12000
 N176 N 0.40740 0.55916 -0.05690
 N177 N 0.36900 0.59202 -0.06941
 N178 N 0.44062 0.44842 -0.09669
 N179 N 0.42710 0.41590 -0.13664
 N180 N 0.40383 0.44959 -0.05837
 N181 N 0.36429 0.41805 -0.07138
 N182 N 0.44346 0.55810 -0.09597
 N183 N 0.43011 0.59005 -0.13633
 Mn184 Mn 0.40556 0.50410 0.00159
 Mn185 Mn 0.49939 0.50169 -0.09695
 Cl186 Cl 0.49963 0.50118 0.00129
 C187 C 0.38398 0.61156 -0.11864
 C188 C 0.37967 0.39677 -0.11995
 C189 C 1.17195 0.18515 0.23788
 C190 C 1.21535 0.21200 0.21388
 C191 C 1.22808 0.19819 0.15867
 C192 C 1.19539 0.16535 0.12759
 C193 C 1.15129 0.14169 0.15175
 C194 C 1.14062 0.15061 0.20738
 H195 H 1.16140 0.18957 0.28035
 H196 H 1.26400 0.21164 0.13904
 H197 H 1.20524 0.15746 0.08492
 H198 H 1.10701 0.13190 0.22702
 C199 C 1.17935 0.68004 0.74048
 C200 C 1.21822 0.71103 0.71409
 C201 C 1.22686 0.70238 0.65725
 C202 C 1.19315 0.66962 0.62701
 C203 C 1.15258 0.64184 0.65343
 C204 C 1.14714 0.64586 0.71061
 H205 H 1.17282 0.68359 0.78441
 H206 H 1.25918 0.72090 0.63556
 H207 H 1.19896 0.66569 0.58298
 H208 H 1.11640 0.62428 0.73195
 C209 C 0.70754 0.22133 0.65563
 C210 C 0.71000 0.21643 0.71363
 C211 C 0.67466 0.18081 0.73883
 C212 C 0.64180 0.14849 0.70744
 C213 C 0.64341 0.15057 0.64985
 C214 C 0.67591 0.18765 0.62418
 H215 H 0.72962 0.25090 0.63377
 H216 H 0.67366 0.17709 0.78324
 H217 H 0.61650 0.12052 0.72824
 H218 H 0.67638 0.19096 0.57971
 C219 C 0.67739 0.68078 0.23994
 C220 C 0.71270 0.71593 0.21394
 C221 C 0.71007 0.71986 0.15588
 C222 C 0.67841 0.68557 0.12518
 C223 C 0.64605 0.64889 0.15168
 C224 C 0.64450 0.64789 0.20928
 H225 H 0.67657 0.67776 0.28441
 H226 H 0.73208 0.74904 0.13340
 H227 H 0.67878 0.68806 0.08065
 H228 H 0.61928 0.62027 0.23070
 C229 C 0.79273 -0.16010 0.22769
 C230 C 0.78767 -0.21451 0.21689
 C231 C 0.82188 -0.23643 0.17689
 C232 C 0.85462 -0.20471 0.14461
 C233 C 0.85663 -0.15040 0.15356
 C234 C 0.82642 -0.12862 0.19624
 H235 H 0.77144 -0.14119 0.26087
 H236 H 0.82196 -0.27832 0.16948
 H237 H 0.87892 -0.22284 0.11305
 H238 H 0.82853 -0.08703 0.20510
 C239 C 0.81951 0.26373 0.67827
 C240 C 0.78483 0.28584 0.71772
 C241 C 0.78998 0.34019 0.72867
 C242 C 0.82457 0.37144 0.69801
 C243 C 0.85557 0.34943 0.65605
 C244 C 0.85320 0.29520 0.64684
 H245 H 0.81937 0.22187 0.67074
 H246 H 0.76819 0.35917 0.76145
 H247 H 0.82686 0.41298 0.70702
 H248 H 0.87798 0.27691 0.61579
 C249 C 0.33729 -0.19769 0.73202
 C250 C 0.28539 -0.21154 0.71535
 C251 C 0.26358 -0.18421 0.67031
 C252 C 0.29471 -0.15049 0.63864
 C253 C 0.34765 -0.14077 0.65304
 C254 C 0.36821 -0.16363 0.70075
 H255 H 0.35443 -0.21281 0.76953
 H256 H 0.22256 -0.18997 0.65874
 H257 H 0.27716 -0.13170 0.60315
 H258 H 0.40828 -0.15515 0.71405
 C259 C 0.34048 0.29645 0.22786
 C260 C 0.28796 0.28380 0.21204
 C261 C 0.26820 0.30767 0.16366
 C262 C 0.29962 0.34098 0.13206
 C263 C 0.35146 0.35274 0.14842
 C264 C 0.37169 0.33004 0.19634
 H265 H 0.35789 0.28160 0.26526
 H266 H 0.22741 0.30192 0.15121
 H267 H 0.28264 0.35881 0.09572
 H268 H 0.41147 0.33904 0.21021
 C269 C 0.81828 0.23677 -0.17479
 C270 C 0.78476 0.21412 -0.21494
 C271 C 0.79121 0.15994 -0.22594
 C272 C 0.82618 0.12938 -0.19513
 C273 C 0.85642 0.15185 -0.15289
 C274 C 0.85248 0.20592 -0.14323
 H275 H 0.81707 0.27858 -0.16707
 H276 H 0.77033 0.14059 -0.25905
 H277 H 0.82956 0.08797 -0.20447
 H278 H 0.87655 0.22459 -0.11191
 C279 C 0.82202 0.73577 0.32421
 C280 C 0.78809 0.71347 0.28427
 C281 C 0.79397 0.65917 0.27329
 C282 C 0.82822 0.62811 0.30443
 C283 C 0.85830 0.65020 0.34694
 C284 C 0.85542 0.70444 0.35614
 H285 H 0.82146 0.77762 0.33176
 H286 H 0.77295 0.64003 0.24014
 H287 H 0.83093 0.58659 0.29537
 H288 H 0.87953 0.72283 0.38761
 C289 C 0.30232 0.22656 0.33910
 C290 C 0.28759 0.21362 0.28442
 C291 C 0.31241 0.16952 0.26009
 C292 C 0.34586 0.13722 0.29044
 C293 C 0.35546 0.14790 0.34597
 C294 C 0.33401 0.19292 0.37012
 H295 H 0.29007 0.26292 0.35818
 H296 H 0.30637 0.15973 0.21728
 H297 H 0.36314 0.10303 0.27085
 H298 H 0.34280 0.20265 0.41260
 C299 C 0.27257 0.70209 -0.15944
 C300 C 0.28534 0.71393 -0.21463
 C301 C 0.32864 0.68720 -0.23880
 C302 C 0.36154 0.65513 -0.20742
 C303 C 0.35044 0.64664 -0.15166
 C304 C 0.30515 0.66955 -0.12823
 H305 H 0.23706 0.71715 -0.14012
 H306 H 0.33770 0.69226 -0.28207
 H307 H 0.39521 0.63642 -0.22702
 H308 H 0.29461 0.66205 -0.08573
 C309 C 1.16188 -0.20167 -0.23499
 C310 C 1.21394 -0.21317 -0.21711
 C311 C 1.23329 -0.18550 -0.17077
 C312 C 1.19974 -0.15354 -0.13932
 C313 C 1.14730 -0.14545 -0.15585
 C314 C 1.12903 -0.16842 -0.20456
 H315 H 1.14620 -0.21812 -0.27270
 H316 H 1.27413 -0.18989 -0.15792
 H317 H 1.21481 -0.13475 -0.10247
 H318 H 1.08889 -0.16135 -0.21856
 C319 C 1.19144 0.26791 0.33420
 C320 C 1.21551 0.28624 0.28511
 C321 C 1.20486 0.33915 0.27071
 C322 C 1.17167 0.37088 0.30257
 C323 C 1.14824 0.35153 0.35046
 C324 C 1.15881 0.29992 0.36630
 H325 H 1.19853 0.22863 0.34905
 H326 H 1.22154 0.35765 0.23505
 H327 H 1.16438 0.41081 0.28958
 H328 H 1.14136 0.28386 0.40337
 C329 C 0.67633 -0.18334 0.26111
 C330 C 0.71212 -0.21790 0.28719
 C331 C 0.70945 -0.22169 0.34525
 C332 C 0.67722 -0.18775 0.37587
 C333 C 0.64437 -0.15160 0.34928
 C334 C 0.64289 -0.15083 0.29168
 H335 H 0.67557 -0.18043 0.21663
 H336 H 0.73192 -0.25044 0.36781
 H337 H 0.67763 -0.19002 0.42041
 H338 H 0.61736 -0.12358 0.27020
 C339 C 0.70484 0.27734 -0.15485
 C340 C 0.70848 0.28218 -0.21274
 C341 C 0.67315 0.31724 -0.23878
 C342 C 0.63948 0.34952 -0.20812
 C343 C 0.64025 0.34781 -0.15052
 C344 C 0.67237 0.31090 -0.12415
 H345 H 0.72686 0.24810 -0.13249
 H346 H 0.67303 0.32081 -0.28321
 H347 H 0.61451 0.37737 -0.22944
 H348 H 0.67223 0.30790 -0.07965
 C349 C 1.17772 0.18189 -0.24002
 C350 C 1.21771 0.21190 -0.21411
 C351 C 1.22802 0.20189 -0.15791
 C352 C 1.19510 0.16861 -0.12753
 C353 C 1.15360 0.14161 -0.15333
 C354 C 1.14624 0.14715 -0.21009
 H355 H 1.16995 0.18637 -0.28358
 H356 H 1.26118 0.21970 -0.13687
 H357 H 1.20229 0.16360 -0.08389
 H358 H 1.11470 0.12624 -0.23096
 C359 C 1.22664 0.70044 0.33997
 C360 C 1.21370 0.71482 0.28471
 C361 C 1.16888 0.68845 0.26213
 C362 C 1.13705 0.65505 0.29351
 C363 C 1.14817 0.64618 0.34892
 C364 C 1.19335 0.66884 0.37193
 H365 H 1.26339 0.71242 0.35905
 H366 H 1.15734 0.69197 0.21994
 H367 H 1.10284 0.63681 0.27448
 H368 H 1.20390 0.66071 0.41428
 C369 C 0.70730 0.22111 0.34361
 C370 C 0.71096 0.21676 0.28564
 C371 C 0.67599 0.18147 0.25912
 C372 C 0.64247 0.14882 0.28929
 C373 C 0.64300 0.15025 0.34691
 C374 C 0.67497 0.18715 0.37382
 H375 H 0.72906 0.25037 0.36640
 H376 H 0.67591 0.17818 0.21464
 H377 H 0.61765 0.12099 0.26754
 H378 H 0.67469 0.18995 0.41834
 C379 C 0.73643 0.68471 -0.17201
 C380 C 0.71410 0.71252 -0.21652
 C381 C 0.66184 0.69918 -0.23228
 C382 C 0.63126 0.66498 -0.20071
 C383 C 0.65241 0.64151 -0.15353
 C384 C 0.70562 0.65087 -0.14002
 H385 H 0.77764 0.69025 -0.16104
 H386 H 0.64416 0.71475 -0.26930
 H387 H 0.59092 0.65688 -0.21339
 H388 H 0.72361 0.63171 -0.10499
 C389 C 0.82000 -0.17877 -0.24088
 C390 C 0.78105 -0.21002 -0.21497
 C391 C 0.77217 -0.20177 -0.15808
 C392 C 0.80562 -0.16910 -0.12740
 C393 C 0.84619 -0.14096 -0.15335
 C394 C 0.85196 -0.14464 -0.21055
 H395 H 0.82673 -0.18198 -0.28480
 H396 H 0.73980 -0.22050 -0.13667
 H397 H 0.79956 -0.16548 -0.08337
 H398 H 0.88271 -0.12279 -0.23155
 C399 C 0.82013 0.26356 0.32410
 C400 C 0.78646 0.28592 0.28410
 C401 C 0.79238 0.34023 0.27369
 C402 C 0.82676 0.37117 0.30512
 C403 C 0.85687 0.34897 0.34745
 C404 C 0.85364 0.29476 0.35632
 H405 H 0.81945 0.22171 0.33133
 H406 H 0.77137 0.35941 0.24069
 H407 H 0.82965 0.41267 0.29635
 H408 H 0.87767 0.27627 0.38766
 C409 C 0.33682 -0.20356 0.26847
 C410 C 0.28422 -0.21689 0.28489
 C411 C 0.26561 -0.19237 0.33403
 C412 C 0.29780 -0.15942 0.36552
 C413 C 0.34960 -0.14799 0.34871
 C414 C 0.36872 -0.17029 0.29996
 H415 H 0.35430 -0.21790 0.23079
 H416 H 0.22497 -0.19743 0.34746
 H417 H 0.28144 -0.14173 0.40242
 H418 H 0.40837 -0.16143 0.28554
 C419 C 0.33643 0.30374 -0.23241
 C420 C 0.28499 0.28907 -0.21509
 C421 C 0.26335 0.31579 -0.16926
 C422 C 0.29427 0.35000 -0.13778
 C423 C 0.34680 0.36074 -0.15301
 C424 C 0.36716 0.33824 -0.20127
 H425 H 0.35331 0.28892 -0.27034
 H426 H 0.22259 0.30933 -0.15705
 H427 H 0.27686 0.36840 -0.10179
 H428 H 0.40690 0.34741 -0.21517
 C429 C 1.19046 -0.23409 0.16554
 C430 C 1.21428 -0.21570 0.21529
 C431 C 1.20191 -0.16274 0.22959
 C432 C 1.16841 -0.13165 0.19758
 C433 C 1.14565 -0.15122 0.14937
 C434 C 1.15735 -0.20262 0.13340
 H435 H 1.19770 -0.27337 0.15037
 H436 H 1.21742 -0.14330 0.26532
 H437 H 1.16028 -0.09186 0.21087
 H438 H 1.14038 -0.21898 0.09618
 C439 C 1.16280 0.30088 0.73603
 C440 C 1.21412 0.28746 0.71715
 C441 C 1.23343 0.31358 0.66994
 C442 C 1.20029 0.34586 0.63874
 C443 C 1.14850 0.35603 0.65639
 C444 C 1.13046 0.33463 0.70590
 H445 H 1.14736 0.28546 0.77426
 H446 H 1.27389 0.30783 0.65629
 H447 H 1.21522 0.36332 0.60119
 H448 H 1.09080 0.34314 0.72066
 C449 C 0.67066 -0.18554 0.73778
 C450 C 0.71387 -0.21233 0.71351
 C451 C 0.72698 -0.19976 0.65854
 C452 C 0.69507 -0.16611 0.62773
 C453 C 0.64998 -0.14289 0.65126
 C454 C 0.63837 -0.15243 0.70676
 H455 H 0.66130 -0.19111 0.78090
 H456 H 0.76238 -0.21498 0.63913
 H457 H 0.70596 -0.15801 0.58545
 H458 H 0.60482 -0.13366 0.72651
 C459 C 0.70807 0.27861 0.15530
 C460 C 0.71120 0.28322 0.21328
 C461 C 0.67564 0.31824 0.23943
 C462 C 0.64185 0.35027 0.20893
 C463 C 0.64271 0.34850 0.15132
 C464 C 0.67546 0.31196 0.12476
 H465 H 0.73038 0.24952 0.13276
 H466 H 0.67517 0.32171 0.28390
 H467 H 0.61649 0.37786 0.23043
 H468 H 0.67552 0.30894 0.08024
 C469 C 0.82106 0.23684 0.17589
 C470 C 0.78704 0.21443 0.21564
 C471 C 0.79313 0.16018 0.22628
 C472 C 0.82794 0.12930 0.19523
 C473 C 0.85842 0.15151 0.15311
 C474 C 0.85508 0.20569 0.14407
 H475 H 0.82026 0.27868 0.16854
 H476 H 0.77191 0.14099 0.25919
 H477 H 0.83087 0.08784 0.20415
 H478 H 0.87937 0.22420 0.11289
 C479 C 0.83745 0.70306 0.73280
 C480 C 0.78525 0.71463 0.71537
 C481 C 0.76564 0.68709 0.66904
 C482 C 0.79889 0.65483 0.63748
 C483 C 0.85138 0.64641 0.65372
 C484 C 0.87002 0.66958 0.70222
 H485 H 0.85341 0.71950 0.77038
 H486 H 0.72476 0.69166 0.65641
 H487 H 0.78350 0.63599 0.60080
 H488 H 0.91019 0.66235 0.71602
 C489 C 0.27107 0.20050 0.66009
 C490 C 0.28496 0.21406 0.71463
 C491 C 0.32885 0.18819 0.73831
 C492 C 0.36116 0.15525 0.70690
 C493 C 0.34893 0.14503 0.65167
 C494 C 0.30311 0.16714 0.62884
 H495 H 0.23510 0.21495 0.64135
 H496 H 0.33875 0.19440 0.78122
 H497 H 0.39529 0.13724 0.72612
 H498 H 0.29172 0.15838 0.58682
 C499 C 0.30001 0.72754 0.16214
 C500 C 0.28315 0.71438 0.21643
 C501 C 0.30790 0.66976 0.24026
 C502 C 0.34263 0.63798 0.21023
 C503 C 0.35416 0.64933 0.15532
 C504 C 0.33293 0.69439 0.13152
 H505 H 0.28893 0.76419 0.14315
 H506 H 0.30128 0.65909 0.28263
 H507 H 0.35958 0.60369 0.22965
 H508 H 0.34303 0.70473 0.08956
   
