data_POSCAR
  _audit_creation_date              2014-09-24
  _audit_creation_method            'ToBaCCo'
  _symmetry_space_group_name_H-M    'P1'
  _symmetry_Int_Tables_number       1
  _symmetry_cell_setting            triclinic
  loop_
  _symmetry_equiv_pos_as_xyz
 x,y,z
_cell_length_a 24.6408
_cell_length_b 24.7265
_cell_length_c 28.1675
_cell_angle_alpha 90.004600
_cell_angle_beta 90.184200
_cell_angle_gamma 120.104500
loop_
  _atom_site_label
  _atom_site_type_symbol
  _atom_site_fract_x
  _atom_site_fract_y
  _atom_site_fract_z
O1 O 0.32777 0.57199 0.30409
 O2 O 0.22188 0.56909 0.28904
 C3 C 0.21368 0.60820 0.31271
 O4 O 0.24233 0.66623 0.30390
 O5 O 0.34542 0.77186 0.28919
 C6 C 0.39297 0.78025 0.31301
 O7 O 0.42252 0.75173 0.30432
 O8 O 0.42527 0.64903 0.28957
 C9 C 0.38603 0.60157 0.31309
 O10 O 0.34525 0.56923 0.20969
 O11 O 0.24217 0.57186 0.19461
 C12 C 0.21323 0.60104 0.18560
 O13 O 0.22175 0.64844 0.20944
 O14 O 0.32770 0.75133 0.19473
 C15 C 0.38595 0.78002 0.18607
 O16 O 0.42522 0.77186 0.20986
 O17 O 0.42247 0.66641 0.19510
 C18 C 0.39285 0.60836 0.18619
 Cr19 Cr 0.28598 0.57398 0.24936
 Cr20 Cr 0.28602 0.70775 0.24932
 Cr21 Cr 0.42043 0.70804 0.24970
 O22 O 0.33082 0.66326 0.24948
 O23 O 0.57097 0.34471 0.71029
 O24 O 0.57373 0.24201 0.69556
 C25 C 0.60332 0.21355 0.68681
 O26 O 0.65092 0.22197 0.71058
 O27 O 0.75406 0.32760 0.69602
 C28 C 0.78264 0.38562 0.68717
 O29 O 0.77435 0.42472 0.71078
 O30 O 0.66845 0.42177 0.69578
 C31 C 0.61020 0.39218 0.68678
 O32 O 0.57378 0.32736 0.80476
 O33 O 0.57101 0.22189 0.79001
 C34 C 0.61024 0.21364 0.81375
 O35 O 0.66849 0.24227 0.80507
 O36 O 0.77443 0.34516 0.79053
 C37 C 0.78282 0.39260 0.81416
 O38 O 0.75420 0.42202 0.80521
 O39 O 0.65103 0.42455 0.79020
 C40 C 0.60342 0.38541 0.81369
 Cr41 Cr 0.57582 0.28572 0.75017
 Cr42 Cr 0.71025 0.28597 0.75054
 Cr43 Cr 0.71029 0.41983 0.75049
 O44 O 0.66545 0.33051 0.75041
 C45 C 0.45587 -0.09030 0.42446
 N46 N 0.48592 -0.12216 0.41392
 N47 N 0.46593 -0.16336 0.37839
 C48 C 0.41516 -0.17419 0.35208
 N49 N 0.38511 -0.14233 0.36262
 N50 N 0.40510 -0.10114 0.39816
 C51 C 0.47786 -0.04494 0.46365
 N52 N 0.44776 -0.01314 0.47421
 N53 N 0.46770 0.02800 0.50979
 C54 C 0.51845 0.03882 0.53610
 N55 N 0.54855 0.00702 0.52554
 N56 N 0.52862 -0.03411 0.48997
 C57 C 0.54044 0.08418 0.57531
 N58 N 0.59123 0.09502 0.60159
 N59 N 0.61122 0.13620 0.63713
 C60 C 0.58114 0.16802 0.64771
 N61 N 0.53035 0.15717 0.62142
 N62 N 0.51036 0.11600 0.58588
 C63 C 1.08483 0.54175 0.42430
 N64 N 1.09535 0.50184 0.39812
 N65 N 1.13633 0.52299 0.36252
 C66 C 1.16826 0.58484 0.35179
 N67 N 1.15772 0.62476 0.37797
 N68 N 1.11674 0.60359 0.41357
 C69 C 1.03976 0.51844 0.46361
 N70 N 1.02926 0.55835 0.48982
 N71 N 0.98842 0.53721 0.52551
 C72 C 0.95658 0.47538 0.53629
 N73 N 0.96708 0.43547 0.51007
 N74 N 1.00792 0.45661 0.47439
 C75 C 0.91151 0.45207 0.57559
 N76 N 0.87963 0.39024 0.58635
 N77 N 0.83865 0.36907 0.62194
 C78 C 0.82807 0.40898 0.64810
 N79 N 0.85996 0.47082 0.63734
 N80 N 0.90094 0.49198 0.60175
 C81 C 0.45290 0.53899 0.42455
 N82 N 0.39080 0.50895 0.41371
 N83 N 0.36949 0.52885 0.37818
 C84 C 0.40951 0.57952 0.35218
 N85 N 0.47161 0.60956 0.36304
 N86 N 0.49292 0.58966 0.39857
 C87 C 0.47639 0.51708 0.46374
 N88 N 0.53849 0.54715 0.47458
 N89 N 0.55981 0.52729 0.51013
 C90 C 0.51980 0.47664 0.53614
 N91 N 0.45770 0.44657 0.52529
 N92 N 0.43638 0.46643 0.48974
 C93 C 0.54330 0.45473 0.57532
 N94 N 0.50329 0.40406 0.60130
 N95 N 0.52460 0.38416 0.63683
 C96 C 0.58671 0.41422 0.64769
 N97 N 0.62672 0.46490 0.62169
 N98 N 0.60540 0.48479 0.58616
 C99 C 0.45283 -0.09059 1.07497
 N100 N 0.39072 -0.12266 1.08543
 N101 N 0.36940 -0.16386 1.12083
 C102 C 0.40943 -0.17449 1.14709
 N103 N 0.47154 -0.14242 1.13661
 N104 N 0.49285 -0.10122 1.10121
 C105 C 0.47634 -0.04517 1.03593
 N106 N 0.53846 -0.01313 1.02547
 N107 N 0.55979 0.02807 0.99006
 C108 C 0.51980 0.03873 0.96382
 N109 N 0.45769 0.00669 0.97428
 N110 N 0.43635 -0.03451 1.00969
 C111 C 0.54332 0.08416 0.92480
 N112 N 0.50332 0.09485 0.89858
 N113 N 0.52464 0.13607 0.86319
 C114 C 0.58675 0.16811 0.85271
 N115 N 0.62675 0.15743 0.87893
 N116 N 0.60542 0.11620 0.91432
 C117 C 1.08741 0.54007 1.07718
 N118 N 1.09808 0.59057 1.10338
 N119 N 1.13936 0.61056 1.13901
 C120 C 1.17160 0.58083 1.14985
 N121 N 1.16078 0.53024 1.12352
 N122 N 1.11950 0.51027 1.08790
 C123 C 1.04195 0.51808 1.03787
 N124 N 1.03126 0.46756 1.01166
 N125 N 0.99004 0.44763 0.97599
 C126 C 0.95801 0.47750 0.96522
 N127 N 0.96871 0.52802 0.99142
 N128 N 1.00993 0.54795 1.02710
 C129 C 0.91255 0.45550 0.92591
 N130 N 0.88053 0.48537 0.91512
 N131 N 0.83925 0.46538 0.87949
 C132 C 0.82848 0.41479 0.85333
 N133 N 0.86051 0.38492 0.86413
 N134 N 0.90179 0.40492 0.89976
 C135 C 0.45576 0.54183 1.07508
 N136 N 0.40493 0.50192 1.10104
 N137 N 0.38492 0.52311 1.13645
 C138 C 0.41502 0.58500 1.14722
 N139 N 0.46585 0.62492 1.12125
 N140 N 0.48586 0.60372 1.08584
 C141 C 0.47779 0.51846 1.03602
 N142 N 0.52861 0.55837 1.01005
 N143 N 0.54858 0.53717 0.97461
 C144 C 0.51846 0.47529 0.96385
 N145 N 0.46765 0.43538 0.98982
 N146 N 0.44767 0.45658 1.02526
 C147 C 0.54049 0.45192 0.92479
 N148 N 0.51040 0.39004 0.91403
 N149 N 0.53041 0.36884 0.87862
 C150 C 0.58124 0.40876 0.85265
 N151 N 0.61134 0.47065 0.86343
 N152 N 0.59133 0.49184 0.89884
   
