data_POSCAR
  _audit_creation_date              2014-09-24
  _audit_creation_method            'ToBaCCo'
  _symmetry_space_group_name_H-M    'P1'
  _symmetry_Int_Tables_number       1
  _symmetry_cell_setting            triclinic
  loop_
  _symmetry_equiv_pos_as_xyz
 x,y,z
_cell_length_a 47.3920
_cell_length_b 47.5880
_cell_length_c 20.8061
_cell_angle_alpha 89.815700
_cell_angle_beta 90.073100
_cell_angle_gamma 120.645500
loop_
  _atom_site_label
  _atom_site_type_symbol
  _atom_site_fract_x
  _atom_site_fract_y
  _atom_site_fract_z
C1 C 0.13690 0.45562 0.49839
 C2 C 0.13780 0.45169 0.43332
 C3 C 0.16122 0.44291 0.42244
 N4 N 0.17425 0.44097 0.47892
 C5 C 0.15972 0.44909 0.52529
 C6 C 0.16925 0.43578 0.36143
 C7 C 0.19578 0.43073 0.35006
 C8 C 0.20140 0.41945 0.29280
 C9 C 0.23116 0.42116 0.29895
 C10 C 0.24289 0.43332 0.35982
 N11 N 0.22121 0.43913 0.39048
 C12 C 0.27401 0.44112 0.38351
 C13 C 0.28313 0.44764 0.44884
 C14 C 0.31417 0.45758 0.47258
 C15 C 0.31252 0.46005 0.53796
 C16 C 0.28051 0.45163 0.55215
 N17 N 0.26256 0.44369 0.49762
 C18 C 0.26815 0.45005 0.61478
 C19 C 0.23666 0.44512 0.62795
 C20 C 0.22222 0.43870 0.68841
 C21 C 0.19333 0.43870 0.68194
 C22 C 0.19079 0.44497 0.61772
 N23 N 0.21731 0.44894 0.58529
 C24 C 0.16573 0.44935 0.59180
 H25 H 0.12115 0.46239 0.52306
 H26 H 0.12288 0.45492 0.39804
 H27 H 0.22393 0.45803 0.53893
 H28 H 0.18600 0.41151 0.25045
 H29 H 0.24306 0.41469 0.26236
 H30 H 0.33572 0.46239 0.44570
 H31 H 0.33260 0.46721 0.57127
 H32 H 0.17636 0.43498 0.72033
 H33 H 0.22557 0.45213 0.43282
 H34 H 0.23186 0.43509 0.73286
 C35 C 0.53700 -0.14461 0.52634
 C36 C 0.54127 -0.14098 0.46101
 C37 C 0.55149 -0.16220 0.44142
 N38 N 0.55410 -0.17824 0.49274
 C39 C 0.54491 -0.16784 0.54470
 C40 C 0.55911 -0.16568 0.37739
 C41 C 0.56522 -0.19041 0.35700
 C42 C 0.57658 -0.19197 0.29646
 C43 C 0.57596 -0.22118 0.29340
 C44 C 0.56438 -0.23663 0.35229
 N45 N 0.55788 -0.21771 0.39059
 C46 C 0.55747 -0.26853 0.36732
 C47 C 0.55224 -0.28136 0.43051
 C48 C 0.54369 -0.31314 0.44614
 C49 C 0.54214 -0.31535 0.51192
 C50 C 0.54960 -0.28494 0.53444
 N51 N 0.55621 -0.26412 0.48468
 C52 C 0.55119 -0.27665 0.59997
 C53 C 0.55441 -0.24707 0.62182
 C54 C 0.56046 -0.23644 0.68505
 C55 C 0.55854 -0.20857 0.68769
 C56 C 0.55149 -0.20283 0.62590
 N57 N 0.54896 -0.22645 0.58621
 C58 C 0.54502 -0.17787 0.60874
 H59 H 0.52917 -0.13148 0.55690
 H60 H 0.53721 -0.12463 0.43135
 H61 H 0.53967 -0.23062 0.53985
 H62 H 0.58381 -0.17429 0.25791
 H63 H 0.58269 -0.23029 0.25213
 H64 H 0.53919 -0.33268 0.41355
 H65 H 0.53609 -0.33692 0.53991
 H66 H 0.56148 -0.19443 0.73044
 H67 H 0.54499 -0.22512 0.43349
 H68 H 0.56505 -0.24795 0.72542
 C69 C 1.31830 0.86286 0.53847
 C70 C 1.31859 0.85798 0.47358
 C71 C 1.28686 0.83431 0.45667
 N72 N 1.26722 0.82496 0.50903
 C73 C 1.28641 0.84207 0.55929
 C74 C 1.27631 0.82290 0.39339
 C75 C 1.24474 0.79652 0.37797
 C76 C 1.23190 0.78844 0.31623
 C77 C 1.20220 0.75980 0.32102
 C78 C 1.19763 0.75114 0.38549
 N79 N 1.22368 0.77360 0.41975
 C80 C 1.17117 0.72183 0.41022
 C81 C 1.16370 0.71605 0.47629
 C82 C 1.14006 0.68648 0.50237
 C83 C 1.13978 0.69133 0.56721
 C84 C 1.16325 0.72379 0.57873
 N85 N 1.17752 0.73890 0.52288
 C86 C 1.17018 0.73909 0.63961
 C87 C 1.19613 0.77126 0.65144
 C88 C 1.20012 0.78858 0.70761
 C89 C 1.22989 0.81715 0.70299
 C90 C 1.24335 0.81656 0.64412
 N91 N 1.22255 0.78853 0.61310
 C92 C 1.27529 0.84003 0.62321
 H93 H 1.33917 0.87986 0.56703
 H94 H 1.33974 0.87050 0.44237
 H95 H 1.22807 0.77961 0.57261
 H96 H 1.24308 0.80151 0.27211
 H97 H 1.18608 0.74658 0.28138
 H98 H 1.12461 0.66377 0.47732
 H99 H 1.12400 0.67304 0.60190
 H100 H 1.24076 0.83588 0.73948
 H101 H 1.22882 0.77117 0.46722
 H102 H 1.18362 0.78103 0.74833
 C103 C 0.85593 0.53818 0.53373
 C104 C 0.85953 0.54216 0.46831
 C105 C 0.83854 0.55269 0.44818
 N106 N 0.82266 0.55573 0.49925
 C107 C 0.83291 0.54653 0.55158
 C108 C 0.83511 0.56021 0.38392
 C109 C 0.81073 0.56698 0.36339
 C110 C 0.80934 0.57843 0.30275
 C111 C 0.78040 0.57857 0.29967
 C112 C 0.76496 0.56734 0.35862
 N113 N 0.78358 0.56033 0.39702
 C114 C 0.73318 0.56104 0.37339
 C115 C 0.72006 0.55563 0.43619
 C116 C 0.68815 0.54726 0.45089
 C117 C 0.68552 0.54526 0.51660
 C118 C 0.71587 0.55232 0.54000
 N119 N 0.73702 0.55909 0.49076
 C120 C 0.72390 0.55348 0.60579
 C121 C 0.75366 0.55667 0.62787
 C122 C 0.76452 0.56287 0.69108
 C123 C 0.79248 0.56094 0.69386
 C124 C 0.79807 0.55371 0.63224
 N125 N 0.77428 0.55113 0.59247
 C126 C 0.82298 0.54702 0.61549
 H127 H 0.86892 0.53023 0.56468
 H128 H 0.87571 0.53775 0.43896
 H129 H 0.76999 0.54173 0.54626
 H130 H 0.82696 0.58522 0.26415
 H131 H 0.77143 0.58553 0.25832
 H132 H 0.66878 0.54315 0.41778
 H133 H 0.66373 0.53921 0.54401
 H134 H 0.80677 0.56395 0.73665
 H135 H 0.77595 0.54752 0.43998
 H136 H 0.75308 0.56758 0.73132
 C137 C 0.45979 0.14072 0.50097
 C138 C 0.45562 0.14197 0.43601
 C139 C 0.44680 0.16533 0.42600
 N140 N 0.44503 0.17803 0.48281
 C141 C 0.45332 0.16332 0.52869
 C142 C 0.43944 0.17355 0.36540
 C143 C 0.43436 0.19994 0.35432
 C144 C 0.42298 0.20565 0.29714
 C145 C 0.42469 0.23528 0.30346
 C146 C 0.43699 0.24681 0.36437
 N147 N 0.44287 0.22515 0.39487
 C148 C 0.44477 0.27769 0.38834
 C149 C 0.45140 0.28649 0.45376
 C150 C 0.46130 0.31725 0.47796
 C151 C 0.46386 0.31529 0.54329
 C152 C 0.45552 0.28337 0.55700
 N153 N 0.44756 0.26578 0.50221
 C154 C 0.45391 0.27074 0.61944
 C155 C 0.44912 0.23937 0.63228
 C156 C 0.44257 0.22472 0.69255
 C157 C 0.44271 0.19605 0.68588
 C158 C 0.44921 0.19383 0.62167
 N159 N 0.45318 0.22038 0.58951
 C160 C 0.45365 0.16895 0.59543
 H161 H 0.46664 0.12488 0.52506
 H162 H 0.45873 0.12729 0.40027
 H163 H 0.46237 0.22724 0.54328
 H164 H 0.41495 0.19040 0.25474
 H165 H 0.41814 0.24721 0.26697
 H166 H 0.46601 0.33882 0.45140
 H167 H 0.47099 0.33511 0.57690
 H168 H 0.43890 0.17899 0.72412
 H169 H 0.45598 0.22933 0.43718
 H170 H 0.43874 0.23406 0.73702
 C171 C 0.69164 0.13442 0.57310
 C172 C 0.68643 0.13500 0.50839
 C173 C 0.71563 0.15954 0.48250
 N174 N 0.73862 0.17360 0.52907
 C175 C 0.72395 0.15861 0.58476
 C176 C 0.72094 0.16776 0.41660
 C177 C 0.74981 0.19497 0.39225
 C178 C 0.75825 0.20049 0.32772
 C179 C 0.78644 0.23060 0.32358
 C180 C 0.79445 0.24269 0.38570
 N181 N 0.77195 0.22086 0.42713
 C182 C 0.82038 0.27422 0.40184
 C183 C 0.83189 0.28447 0.46504
 C184 C 0.85516 0.31614 0.48227
 C185 C 0.86033 0.31563 0.54706
 C186 C 0.84008 0.28365 0.56733
 N187 N 0.82304 0.26463 0.51696
 C188 C 0.83849 0.27238 0.63089
 C189 C 0.81568 0.24030 0.65147
 C190 C 0.81682 0.22704 0.71019
 C191 C 0.78882 0.19677 0.71433
 C192 C 0.77129 0.19232 0.65798
 N193 N 0.78789 0.21896 0.62006
 C194 C 0.73943 0.16570 0.64569
 H195 H 0.67367 0.11800 0.60762
 H196 H 0.66373 0.11920 0.48333
 H197 H 0.77854 0.22409 0.57957
 H198 H 0.74517 0.18470 0.28766
 H199 H 0.79924 0.24249 0.27966
 H200 H 0.86723 0.33742 0.45138
 H201 H 0.87714 0.33642 0.57586
 H202 H 0.78175 0.18021 0.75488
 H203 H 0.76947 0.22530 0.47494
 H204 H 0.83552 0.23830 0.74686
 O205 O 0.96474 0.52152 -0.07460
 O206 O 1.03260 0.52434 0.13483
 O207 O 0.95017 0.50867 0.04265
 O208 O 1.06569 0.56155 -0.05888
 O209 O 0.97410 0.50618 0.12812
 O210 O 1.02003 0.55732 -0.08499
 O211 O 1.06155 0.56071 0.06128
 O212 O 0.92735 0.47392 -0.05725
 C213 C 0.93600 0.50012 -0.08448
 C214 C 1.05289 0.55343 0.11846
 C215 C 0.95683 0.51542 0.10028
 C216 C 1.05016 0.57369 -0.08214
 O217 O 1.03070 0.50966 -0.13010
 O218 O 0.96149 0.44642 0.08726
 O219 O 0.95404 0.44115 -0.02917
 O220 O 1.06461 0.50745 0.06348
 O221 O 1.01845 0.46510 0.08792
 O222 O 0.97174 0.46988 -0.11736
 O223 O 1.06237 0.50576 -0.05766
 O224 O 0.91850 0.44695 0.05424
 Co225 Co 0.99708 0.51351 -0.09379
 Co226 Co 0.99718 0.48717 0.10038
 Co227 Co 0.95407 0.47576 0.00854
 Co228 Co 1.05778 0.53100 0.00229
 O229 O 1.00371 0.50394 0.00178
 C230 C 1.05240 0.50288 -0.11438
 C231 C 0.93141 0.43652 0.09558
 C232 C 0.95860 0.44254 -0.08870
 C233 C 1.04868 0.47905 0.08495
 O234 O 0.47272 0.44270 -0.10159
 O235 O 0.47290 0.50299 0.12107
 O236 O 0.49200 0.44203 0.04387
 O237 O 0.44489 0.51581 -0.06350
 O238 O 0.50284 0.47439 0.12211
 O239 O 0.44211 0.47222 -0.10249
 O240 O 0.44058 0.49151 0.04203
 O241 O 0.51674 0.44644 -0.06107
 C242 C 0.49130 0.43144 -0.09438
 C243 C 0.44429 0.48964 0.10009
 C244 C 0.48999 0.44585 0.10178
 C245 C 0.43031 0.49036 -0.09648
 O246 O 0.49626 0.52790 -0.13821
 O247 O 0.55508 0.52459 0.06541
 O248 O 0.55859 0.50623 -0.05065
 O249 O 0.47595 0.55493 0.04786
 O250 O 0.52284 0.55552 0.06447
 O251 O 0.52814 0.49708 -0.13730
 O252 O 0.50466 0.55827 -0.05217
 O253 O 0.55559 0.47837 0.05035
 Co254 Co 0.48570 0.48591 -0.11136
 Co255 Co 0.51224 0.51317 0.08422
 Co256 Co 0.52393 0.47652 0.00017
 Co257 Co 0.47503 0.52362 -0.00139
 O258 O 0.49604 0.49658 -0.01291
 C259 C 0.50604 0.55560 -0.11236
 C260 C 0.56794 0.50700 0.07787
 C261 C 0.55598 0.50733 -0.11098
 C262 C 0.50462 0.56777 0.07609
 O263 O 0.55614 0.01760 -0.08065
 O264 O 0.50329 -0.02817 0.12326
 O265 O 0.56058 0.06246 0.06263
 O266 O 0.47131 -0.08110 -0.04842
 O267 O 0.52442 0.03095 0.13538
 O268 O 0.51621 -0.03874 -0.08060
 O269 O 0.51354 -0.04621 0.03531
 O270 O 0.56131 0.06399 -0.05861
 C271 C 0.57336 0.04766 -0.07831
 C272 C 0.51680 -0.04179 0.09484
 C273 C 0.55330 0.05275 0.11959
 C274 C 0.49514 -0.06854 -0.08927
 O275 O 0.46993 -0.02507 -0.12281
 O276 O 0.46599 0.02116 0.09080
 O277 O 0.50484 0.06156 -0.05774
 O278 O 0.45355 -0.07190 0.06269
 O279 O 0.44469 -0.03417 0.08043
 O280 O 0.51218 0.03277 -0.13010
 O281 O 0.44258 -0.04855 -0.03747
 O282 O 0.50826 0.06626 0.06208
 Co283 Co 0.51248 -0.00279 -0.09446
 Co284 Co 0.48598 -0.00232 0.09940
 Co285 Co 0.53071 0.05783 0.00189
 Co286 Co 0.47923 -0.04545 -0.00297
 O287 O 0.50224 0.00403 0.00364
 C288 C 0.44290 -0.04174 -0.09518
 C289 C 0.48051 0.05117 0.08654
 C290 C 0.50334 0.05278 -0.11462
 C291 C 0.43647 -0.06294 0.09017
 C292 C 1.15093 0.43530 0.31002
 C293 C 1.13463 0.43656 0.26692
 C294 C 1.11546 0.44043 0.21993
 C295 C 1.09925 0.44591 0.18309
 C296 C 1.08077 0.45492 0.14426
 C297 C 1.06563 0.46480 0.11496
 C298 C 0.55439 0.71126 0.31768
 C299 C 0.55011 0.69221 0.27547
 C300 C 0.54326 0.66838 0.22833
 C301 C 0.53601 0.64681 0.19010
 C302 C 0.52613 0.62032 0.14785
 C303 C 0.51672 0.59676 0.11391
 C304 C 0.29808 -0.16185 0.34408
 C305 C 0.31769 -0.14840 0.30144
 C306 C 0.34129 -0.13229 0.25279
 C307 C 0.36209 -0.11793 0.21260
 C308 C 0.38722 -0.10013 0.16744
 C309 C 0.40936 -0.08385 0.13086
 C310 C 0.85696 0.55954 0.33579
 C311 C 0.87456 0.55770 0.29617
 C312 C 0.89443 0.55379 0.25061
 C313 C 0.91060 0.54865 0.21285
 C314 C 0.92839 0.54017 0.17049
 C315 C 0.94229 0.53045 0.13666
 C316 C 0.44687 0.30200 0.34302
 C317 C 0.44987 0.32284 0.30566
 C318 C 0.45488 0.34791 0.26218
 C319 C 0.46049 0.36978 0.22524
 C320 C 0.46877 0.39592 0.18209
 C321 C 0.47746 0.41857 0.14535
 C322 C 0.69503 0.14760 0.37145
 C323 C 0.67320 0.13133 0.33410
 C324 C 0.64744 0.11292 0.29025
 C325 C 0.62546 0.09784 0.25245
 C326 C 0.59986 0.08102 0.20739
 C327 C 0.57834 0.06755 0.16798
 C328 C 0.45883 0.14948 -0.36307
 C329 C 0.46412 0.13285 -0.32672
 C330 C 0.47114 0.11403 -0.28396
 C331 C 0.47773 0.09864 -0.24692
 C332 C 0.48611 0.08150 -0.20247
 C333 C 0.49374 0.06779 -0.16326
 C334 C 0.70120 0.55039 -0.34938
 C335 C 0.68070 0.54679 -0.31052
 C336 C 0.65593 0.54138 -0.26587
 C337 C 0.63413 0.53565 -0.22859
 C338 C 0.60777 0.52750 -0.18606
 C339 C 0.58455 0.51915 -0.15097
 C340 C 0.86066 0.29550 -0.32176
 C341 C 0.87841 0.31563 -0.28296
 C342 C 0.89828 0.34031 -0.23846
 C343 C 0.91427 0.36232 -0.20151
 C344 C 0.93162 0.38922 -0.15979
 C345 C 0.94495 0.41311 -0.12601
 C346 C 0.53816 -0.16273 -0.34304
 C347 C 0.53144 -0.14958 -0.30141
 C348 C 0.52307 -0.13406 -0.25388
 C349 C 0.51586 -0.12037 -0.21432
 C350 C 0.50775 -0.10355 -0.16931
 C351 C 0.50146 -0.08821 -0.13204
 C352 C 0.28823 0.45407 -0.33434
 C353 C 0.30686 0.45827 -0.29107
 C354 C 0.33007 0.46395 -0.24293
 C355 C 0.35118 0.46938 -0.20436
 C356 C 0.37737 0.47631 -0.16269
 C357 C 0.40095 0.48259 -0.13043
 C358 C 1.15154 0.72083 -0.30941
 C359 C 1.13526 0.70293 -0.26640
 C360 C 1.11638 0.67957 -0.21924
 C361 C 1.10051 0.65767 -0.18209
 C362 C 1.08239 0.63001 -0.14277
 C363 C 1.06738 0.60493 -0.11294
 C364 C 0.83821 0.54035 -0.33586
 C365 C 0.85143 0.53388 -0.29369
 C366 C 0.86711 0.52590 -0.24554
 C367 C 0.88112 0.51909 -0.20572
 C368 C 0.89862 0.51151 -0.16100
 C369 C 0.91485 0.50574 -0.12475
 C370 C 0.45763 0.29040 -0.32947
 C371 C 0.46150 0.30873 -0.28615
 C372 C 0.46676 0.33168 -0.23817
 C373 C 0.47180 0.35264 -0.19994
 C374 C 0.47824 0.37870 -0.15889
 C375 C 0.48408 0.40220 -0.12734
 C376 C 0.72144 0.14676 -0.30342
 C377 C 0.70370 0.13034 -0.26035
 C378 C 0.68039 0.11151 -0.21306
 C379 C 0.65839 0.09586 -0.17592
 C380 C 0.63046 0.07823 -0.13692
 C381 C 0.60505 0.06385 -0.10775
 C382 C 1.14548 0.45501 -0.36396
 C383 C 1.12930 0.46064 -0.32720
 C384 C 1.11114 0.46818 -0.28393
 C385 C 1.09636 0.47530 -0.24652
 C386 C 1.07996 0.48434 -0.20182
 C387 C 1.06685 0.49257 -0.16262
 C388 C 0.54818 0.69962 -0.35236
 C389 C 0.54474 0.67929 -0.31332
 C390 C 0.53951 0.65474 -0.26842
 C391 C 0.53391 0.63311 -0.23092
 C392 C 0.52591 0.60696 -0.18811
 C393 C 0.51769 0.58392 -0.15275
 C394 C 0.29708 -0.13897 -0.33191
 C395 C 0.31687 -0.12130 -0.29247
 C396 C 0.34103 -0.10165 -0.24680
 C397 C 0.36264 -0.08586 -0.20879
 C398 C 0.38925 -0.06871 -0.16604
 C399 C 0.41312 -0.05546 -0.13189
 C400 C 0.55918 -0.14345 0.32934
 C401 C 0.55784 -0.12540 0.29015
 C402 C 0.55438 -0.10496 0.24535
 C403 C 0.54951 -0.08836 0.20822
 C404 C 0.54124 -0.07020 0.16633
 C405 C 0.53165 -0.05619 0.13239
 C406 C 0.29835 0.44348 0.33796
 C407 C 0.31938 0.44682 0.30074
 C408 C 0.34482 0.45232 0.25776
 C409 C 0.36707 0.45843 0.22141
 C410 C 0.39367 0.46733 0.17905
 C411 C 0.41668 0.47655 0.14298
 C412 C 1.15085 0.69599 0.36534
 C413 C 1.13425 0.67407 0.32862
 C414 C 1.11529 0.64811 0.28584
 C415 C 1.09967 0.62592 0.24904
 C416 C 1.08221 0.60010 0.20509
 C417 C 1.06821 0.57845 0.16641
 C418 C 0.43873 0.15443 0.31087
 C419 C 0.43998 0.13829 0.26782
 C420 C 0.44379 0.11924 0.22095
 C421 C 0.44914 0.10302 0.18427
 C422 C 0.45782 0.08436 0.14570
 C423 C 0.46720 0.06887 0.11656
 C424 C 0.71199 0.55826 0.32065
 C425 C 0.69294 0.55410 0.27827
 C426 C 0.66906 0.54722 0.23088
 C427 C 0.64741 0.53981 0.19244
 C428 C 0.62079 0.52956 0.14997
 C429 C 0.59710 0.51972 0.11587
 C430 C 0.83605 0.29769 0.35038
 C431 C 0.84923 0.31776 0.30853
 C432 C 0.86503 0.34189 0.26081
 C433 C 0.87906 0.36301 0.22114
 C434 C 0.89626 0.38823 0.17603
 C435 C 0.91179 0.41014 0.13863
   
