data_POSCAR
  _audit_creation_date              2014-09-24
  _audit_creation_method            'ToBaCCo'
  _symmetry_space_group_name_H-M    'P1'
  _symmetry_Int_Tables_number       1
  _symmetry_cell_setting            triclinic
  loop_
  _symmetry_equiv_pos_as_xyz
 x,y,z
_cell_length_a 26.3645
_cell_length_b 27.4429
_cell_length_c 32.3299
_cell_angle_alpha 89.994100
_cell_angle_beta 87.489300
_cell_angle_gamma 92.531900
loop_
  _atom_site_label
  _atom_site_type_symbol
  _atom_site_fract_x
  _atom_site_fract_y
  _atom_site_fract_z
C1 C 1.21387 0.28092 0.33186
 H2 H 1.23959 0.25640 0.34518
 C3 C 1.19301 0.31754 0.35635
 H4 H 1.20234 0.32073 0.38856
 C5 C 1.17243 0.30913 0.27329
 H6 H 1.16530 0.30596 0.24069
 C7 C 1.15216 0.34703 0.29624
 H8 H 1.12893 0.37287 0.28137
 N9 N 1.20365 0.27785 0.29102
 C10 C 1.20961 0.15747 0.20443
 H11 H 1.24900 0.16076 0.19353
 C12 C 1.17663 0.12286 0.18709
 H13 H 1.19076 0.09963 0.16248
 C14 C 1.14301 0.18508 0.24894
 H15 H 1.13016 0.20970 0.27288
 C16 C 1.10883 0.15063 0.23280
 H17 H 1.06958 0.14989 0.24408
 Zn18 Zn 1.23731 0.23692 0.25337
 N19 N 1.19197 0.18854 0.23386
 C20 C 1.33933 0.21427 0.26411
 N21 N 1.29038 0.20612 0.27811
 C22 C 1.27819 0.17599 0.31066
 C23 C 1.31634 0.15611 0.33292
 C24 C 1.37879 0.19537 0.28544
 C25 C 1.24140 0.27600 0.17241
 C26 C 1.25488 0.31113 0.14232
 C27 C 1.31226 0.35014 0.18975
 C28 C 1.29658 0.31504 0.21938
 N29 N 1.26228 0.27858 0.21008
 H30 H 1.34808 0.23621 0.23682
 H31 H 1.23871 0.16889 0.32022
 H32 H 1.30537 0.13373 0.35973
 H33 H 1.41721 0.20394 0.27385
 H34 H 1.21285 0.24784 0.16615
 H35 H 1.23767 0.30886 0.11254
 H36 H 1.33966 0.37894 0.19740
 H37 H 1.31111 0.31727 0.25013
 C38 C 1.12537 0.11972 0.20079
 C39 C 1.16326 0.35187 0.33801
 C40 C 1.29053 0.34879 0.15106
 C41 C 1.36774 0.16725 0.32150
 C42 C 0.68506 -0.20899 0.29390
 H43 H 0.65998 -0.23037 0.27471
 C44 C 0.66559 -0.17171 0.31896
 H45 H 0.62551 -0.16465 0.31891
 C46 C 0.76774 -0.19163 0.31741
 H47 H 0.80765 -0.19942 0.31645
 C48 C 0.75015 -0.15404 0.34234
 H49 H 0.77691 -0.13400 0.36107
 N50 N 0.73564 -0.21742 0.29301
 C51 C 0.73085 -0.34793 0.21967
 H52 H 0.75637 -0.36590 0.23928
 C53 C 0.70939 -0.37412 0.18732
 H54 H 0.71809 -0.41202 0.18279
 C55 C 0.69436 -0.27550 0.19752
 H56 H 0.69130 -0.23644 0.20011
 C57 C 0.67163 -0.30060 0.16490
 H58 H 0.65086 -0.28078 0.14267
 Zn59 Zn 0.76914 -0.26221 0.25734
 N60 N 0.72420 -0.29920 0.22361
 C61 C 0.77236 -0.33366 0.31684
 N62 N 0.80367 -0.30530 0.29140
 C63 C 0.85507 -0.30906 0.29101
 C64 C 0.87653 -0.34384 0.31611
 C65 C 0.79193 -0.36946 0.34132
 C66 C 0.80678 -0.17755 0.21593
 C67 C 0.82555 -0.15186 0.18098
 C68 C 0.86136 -0.22566 0.15441
 C69 C 0.84130 -0.25032 0.18991
 N70 N 0.81322 -0.22630 0.21914
 H71 H 0.73174 -0.32946 0.31694
 H72 H 0.87932 -0.28561 0.27099
 H73 H 0.91731 -0.34735 0.31516
 H74 H 0.76616 -0.39271 0.36039
 H75 H 0.78312 -0.15916 0.23849
 H76 H 0.81684 -0.11389 0.17755
 H77 H 0.88041 -0.24576 0.12992
 H78 H 0.84463 -0.28935 0.19249
 C79 C 0.68064 -0.35009 0.15891
 C80 C 0.69864 -0.14290 0.34278
 C81 C 0.85132 -0.17639 0.14902
 C82 C 0.84449 -0.37526 0.34078
 C83 C 0.66969 0.22285 -0.17622
 H84 H 0.66373 0.18619 -0.18789
 C85 C 0.63904 0.23894 -0.14333
 H86 H 0.60943 0.21435 -0.13019
 C87 C 0.71497 0.29934 -0.18036
 H88 H 0.74454 0.32272 -0.19502
 C89 C 0.68481 0.31715 -0.14751
 H90 H 0.69165 0.35418 -0.13689
 N91 N 0.70755 0.25253 -0.19339
 C92 C 0.70860 0.14746 -0.28699
 H93 H 0.74280 0.12893 -0.28070
 C94 C 0.67034 0.12377 -0.30923
 H95 H 0.67537 0.08708 -0.32055
 C96 C 0.65950 0.21755 -0.27936
 H97 H 0.65546 0.25400 -0.26730
 C98 C 0.61988 0.19475 -0.30014
 H99 H 0.58568 0.21418 -0.30469
 Zn100 Zn 0.74770 0.22467 -0.23647
 N101 N 0.70225 0.19341 -0.27243
 C102 C 0.83704 0.17350 -0.23315
 N103 N 0.79136 0.18005 -0.21315
 C104 C 0.78134 0.16295 -0.17401
 C105 C 0.81903 0.14115 -0.15252
 C106 C 0.87619 0.15265 -0.21248
 C107 C 0.78531 0.28189 -0.30567
 C108 C 0.82179 0.31182 -0.32725
 C109 C 0.86661 0.32235 -0.26402
 C110 C 0.82895 0.29285 -0.24368
 N111 N 0.78989 0.27259 -0.26475
 H112 H 0.84423 0.18752 -0.26422
 H113 H 0.74519 0.16857 -0.15832
 H114 H 0.81100 0.12998 -0.12068
 H115 H 0.91302 0.14995 -0.22823
 H116 H 0.75424 0.26486 -0.32192
 H117 H 0.81751 0.31785 -0.36001
 H118 H 0.89738 0.33671 -0.24598
 H119 H 0.83200 0.28428 -0.21124
 C120 C 0.62489 0.14713 -0.31491
 C121 C 0.64695 0.28641 -0.12811
 C122 C 0.86414 0.33172 -0.30681
 C123 C 0.86779 0.13796 -0.17106
 C124 C 1.21780 -0.22383 -0.18651
 H125 H 1.21312 -0.26190 -0.17807
 C126 C 1.19693 -0.18852 -0.16047
 H127 H 1.17702 -0.19963 -0.13176
 C128 C 1.24828 -0.16295 -0.23442
 H129 H 1.26724 -0.15293 -0.26362
 C130 C 1.22923 -0.12641 -0.20877
 H131 H 1.23423 -0.08867 -0.21846
 N132 N 1.24261 -0.21070 -0.22294
 C133 C 1.16407 -0.29002 -0.26415
 H134 H 1.15703 -0.25738 -0.24659
 C135 C 1.12330 -0.31591 -0.28099
 H136 H 1.08536 -0.30307 -0.27551
 C137 C 1.22218 -0.34364 -0.29581
 H138 H 1.26108 -0.35315 -0.30245
 C139 C 1.18248 -0.36982 -0.31428
 H140 H 1.19085 -0.40006 -0.33462
 Zn141 Zn 1.26752 -0.26046 -0.25895
 N142 N 1.21246 -0.30351 -0.27251
 C143 C 1.36694 -0.28896 -0.23891
 N144 N 1.31611 -0.29648 -0.23082
 C145 C 1.29830 -0.32747 -0.20004
 C146 C 1.33191 -0.34967 -0.17429
 C147 C 1.40177 -0.30959 -0.21344
 C148 C 1.26710 -0.24040 -0.34406
 C149 C 1.27999 -0.21719 -0.38153
 C150 C 1.35025 -0.17524 -0.34947
 C151 C 1.33566 -0.19915 -0.31211
 N152 N 1.29445 -0.23111 -0.30995
 H153 H 1.38076 -0.26546 -0.26401
 H154 H 1.25779 -0.33375 -0.19457
 H155 H 1.31699 -0.37226 -0.14870
 H156 H 1.44200 -0.30119 -0.21909
 H157 H 1.23363 -0.26437 -0.34226
 H158 H 1.25694 -0.22508 -0.40781
 H159 H 1.38221 -0.14902 -0.35047
 H160 H 1.35594 -0.19046 -0.28453
 C161 C 1.13247 -0.35535 -0.30748
 C162 C 1.20298 -0.13911 -0.17137
 C163 C 1.32139 -0.18343 -0.38446
 C164 C 1.38424 -0.33917 -0.17988
 C165 C 0.24117 0.16574 0.70052
 H166 H 0.20206 0.16840 0.71154
 C167 C 0.25387 0.13046 0.67134
 H168 H 0.22424 0.10591 0.66021
 C169 C 0.32671 0.19631 0.70034
 H170 H 0.35461 0.22276 0.71131
 C171 C 0.34093 0.16214 0.67035
 H172 H 0.38009 0.16186 0.65876
 N173 N 0.27756 0.19712 0.71497
 C174 C 0.17992 0.25098 0.81437
 H175 H 0.18116 0.28904 0.80551
 C176 C 0.15308 0.23580 0.85055
 H177 H 0.13270 0.26293 0.86785
 C178 C 0.20832 0.17127 0.80308
 H179 H 0.23222 0.14685 0.78570
 C180 C 0.18175 0.15434 0.83910
 H181 H 0.18446 0.11657 0.84814
 Zn182 Zn 0.25536 0.24588 0.75182
 N183 N 0.20717 0.21896 0.79161
 C184 C 0.17852 0.29851 0.71202
 N185 N 0.22899 0.29520 0.71852
 C186 C 0.26442 0.32397 0.69731
 C187 C 0.24981 0.35874 0.66928
 C188 C 0.16217 0.33253 0.68354
 C189 C 0.33820 0.23849 0.80186
 C190 C 0.37030 0.25286 0.83328
 C191 C 0.34257 0.33507 0.82685
 C192 C 0.31099 0.31912 0.79539
 N193 N 0.30893 0.27137 0.78391
 H194 H 0.15106 0.27408 0.72814
 H195 H 0.30434 0.31943 0.70187
 H196 H 0.27901 0.38085 0.65270
 H197 H 0.12200 0.33480 0.67853
 H198 H 0.33468 0.20046 0.79318
 H199 H 0.39223 0.22553 0.84745
 H200 H 0.34217 0.37278 0.83668
 H201 H 0.28590 0.34429 0.78196
 C202 C 0.15483 0.18704 0.86426
 C203 C 0.30428 0.12847 0.65585
 C204 C 0.37158 0.30146 0.84716
 C205 C 0.19810 0.36347 0.66202
 C206 C 0.72643 0.73129 0.66484
 H207 H 0.68889 0.74557 0.66486
 C208 C 0.74143 0.70016 0.63318
 H209 H 0.71544 0.69104 0.60905
 C210 C 0.80538 0.72517 0.69641
 H211 H 0.82982 0.73433 0.72144
 C212 C 0.82238 0.69449 0.66469
 H213 H 0.85991 0.68008 0.66555
 N214 N 0.75766 0.74211 0.69633
 C215 C 0.69467 0.73442 0.81850
 H216 H 0.71998 0.76028 0.83344
 C217 C 0.66379 0.70130 0.84235
 H218 H 0.66635 0.70148 0.87570
 C219 C 0.66008 0.70310 0.75706
 H220 H 0.65769 0.70448 0.72393
 C221 C 0.62870 0.66995 0.77935
 H222 H 0.60354 0.64638 0.76208
 Zn223 Zn 0.72931 0.77841 0.74078
 N224 N 0.69228 0.73444 0.77657
 C225 C 0.63247 0.81341 0.72774
 N226 N 0.68298 0.81922 0.71736
 C227 C 0.70025 0.84620 0.68402
 C228 C 0.66602 0.86530 0.65760
 C229 C 0.59685 0.83039 0.70127
 C230 C 0.81441 0.79247 0.79053
 C231 C 0.85356 0.81959 0.80880
 C232 C 0.82167 0.89266 0.77957
 C233 C 0.78263 0.86444 0.76278
 N234 N 0.78016 0.81520 0.76779
 H235 H 0.61960 0.79237 0.75472
 H236 H 0.74055 0.84928 0.67605
 H237 H 0.68025 0.88412 0.62971
 H238 H 0.55671 0.82257 0.70801
 H239 H 0.81125 0.75330 0.79451
 H240 H 0.88043 0.80130 0.82714
 H241 H 0.82264 0.93183 0.77538
 H242 H 0.75448 0.88214 0.74565
 C243 C 0.63039 0.66812 0.82270
 C244 C 0.78950 0.68067 0.63337
 C245 C 0.85786 0.87018 0.80268
 C246 C 0.61394 0.85490 0.66501
 C247 C 0.80156 0.20370 0.17306
 H248 H 0.78734 0.23518 0.15816
 C249 C 0.81976 0.16574 0.14866
 H250 H 0.81966 0.16865 0.11525
 C251 C 0.81804 0.16083 0.23425
 H252 H 0.81676 0.15869 0.26765
 C253 C 0.83529 0.12140 0.21098
 H254 H 0.84801 0.08966 0.22675
 N255 N 0.80071 0.20067 0.21512
 C256 C 0.70520 0.26062 0.31330
 H257 H 0.71587 0.29859 0.30762
 C258 C 0.67534 0.24764 0.34832
 H259 H 0.66380 0.27636 0.36905
 C260 C 0.70991 0.17782 0.29339
 H261 H 0.72364 0.15075 0.27194
 C262 C 0.67994 0.16305 0.32844
 H263 H 0.67077 0.12462 0.33365
 Zn264 Zn 0.77095 0.25154 0.24694
 N265 N 0.72280 0.22595 0.28714
 C266 C 0.68615 0.29612 0.21207
 N267 N 0.73782 0.29471 0.21158
 C268 C 0.76760 0.32515 0.18675
 C269 C 0.74588 0.35997 0.16253
 C270 C 0.66268 0.33017 0.18774
 C271 C 0.84955 0.26375 0.30431
 C272 C 0.87137 0.28810 0.33774
 C273 C 0.83404 0.36198 0.31586
 C274 C 0.81349 0.33656 0.28272
 N275 N 0.81956 0.28775 0.27849
 H276 H 0.66305 0.27119 0.23164
 H277 H 0.80849 0.32307 0.18657
 H278 H 0.77063 0.38394 0.14332
 H279 H 0.62165 0.33144 0.18887
 H280 H 0.85287 0.22485 0.30142
 H281 H 0.89130 0.26766 0.36012
 H282 H 0.82477 0.39964 0.32097
 H283 H 0.78801 0.35492 0.26336
 C284 C 0.66289 0.19822 0.35673
 C285 C 0.83587 0.12358 0.16761
 C286 C 0.86140 0.33717 0.34478
 C287 C 0.69277 0.36340 0.16333
 C288 C 0.24819 0.65989 0.20942
 H289 H 0.20878 0.65935 0.22030
 C290 C 0.26410 0.62574 0.18030
 H291 H 0.23667 0.59818 0.17045
 C292 C 0.33034 0.69863 0.20771
 H293 H 0.35537 0.72841 0.21730
 C294 C 0.34778 0.66539 0.17794
 H295 H 0.38640 0.66958 0.16522
 N296 N 0.28088 0.69603 0.22185
 C297 C 0.19332 0.76628 0.32182
 H298 H 0.19991 0.80348 0.31113
 C299 C 0.16263 0.75658 0.35738
 H300 H 0.14616 0.78690 0.37357
 C301 C 0.20677 0.68218 0.31258
 H302 H 0.22422 0.65331 0.29514
 C303 C 0.17608 0.67077 0.34807
 H304 H 0.17009 0.63299 0.35745
 Zn305 Zn 0.25113 0.74871 0.25018
 N306 N 0.21391 0.72932 0.29974
 C307 C 0.15490 0.77367 0.22205
 N308 N 0.20582 0.77480 0.21277
 C309 C 0.22521 0.79165 0.17549
 C310 C 0.19343 0.81094 0.14683
 C311 C 0.12156 0.79096 0.19362
 C312 C 0.33033 0.78720 0.29707
 C313 C 0.36281 0.82360 0.31286
 C314 C 0.33780 0.87804 0.25948
 C315 C 0.30473 0.84114 0.24568
 N316 N 0.30122 0.79683 0.26464
 H317 H 0.13985 0.75844 0.25108
 H318 H 0.26553 0.79021 0.16808
 H319 H 0.20938 0.82465 0.11742
 H320 H 0.08108 0.78942 0.20113
 H321 H 0.32660 0.75177 0.31184
 H322 H 0.38401 0.81528 0.33976
 H323 H 0.33825 0.91278 0.24373
 H324 H 0.28069 0.84897 0.22068
 C325 C 0.15304 0.70818 0.37077
 C326 C 0.31386 0.62952 0.16267
 C327 C 0.36622 0.87043 0.29469
 C328 C 0.14100 0.81029 0.15577
 O329 O 1.08376 0.03361 0.05949
 O330 O 0.91244 -0.07687 -0.00710
 O331 O 0.93212 0.06658 0.03170
 O332 O 1.06490 -0.10590 0.00877
 O333 O 0.90748 -0.00679 0.03522
 O334 O 1.08227 -0.05128 0.05268
 O335 O 0.97272 -0.11016 0.02093
 O336 O 1.00517 0.04965 0.07051
 C337 C 1.04743 0.04325 0.08428
 C338 C 0.92686 -0.10282 0.02125
 C339 C 0.90738 0.03389 0.05098
 C340 C 1.07457 -0.09488 0.04485
 O341 O 1.11511 -0.04386 -0.02894
 O342 O 0.92269 0.04987 -0.03649
 O343 O 1.06483 0.08937 0.01065
 O344 O 0.96586 -0.09249 -0.06279
 O345 O 0.94548 -0.01978 -0.07266
 O346 O 1.10547 0.04243 -0.02729
 O347 O 1.05604 -0.07345 -0.06713
 O348 O 0.99505 0.08617 -0.03569
 Co349 Co 1.08859 -0.00493 0.01225
 Co350 Co 0.92946 -0.01296 -0.01847
 Co351 Co 0.99986 0.06524 0.01692
 Co352 Co 1.01367 -0.08741 -0.02270
 O353 O 1.00812 -0.01025 -0.00306
 C354 C 1.10129 -0.06042 -0.06307
 C355 C 0.95562 0.07768 -0.05392
 C356 C 1.09320 0.08451 -0.02028
 C357 C 0.95318 -0.06032 -0.08703
 O358 O 1.07353 0.56740 0.55109
 O359 O 0.93362 0.45989 0.57703
 O360 O 0.92810 0.60667 0.52497
 O361 O 1.06604 0.41915 0.55213
 O362 O 0.90928 0.53887 0.55649
 O363 O 1.11038 0.48717 0.53706
 O364 O 0.97307 0.39733 0.55259
 O365 O 0.99326 0.56969 0.56929
 C366 C 1.03873 0.57563 0.57824
 C367 C 0.95036 0.41863 0.58214
 C368 C 0.89453 0.57985 0.54557
 C369 C 1.10428 0.44741 0.55671
 O370 O 1.09387 0.49627 0.45705
 O371 O 0.90262 0.50745 0.47684
 O372 O 1.02073 0.61720 0.50457
 O373 O 0.97850 0.40491 0.46740
 O374 O 0.91388 0.42399 0.50410
 O375 O 1.05902 0.57097 0.46501
 O376 O 1.07100 0.42093 0.47110
 O377 O 0.96096 0.56325 0.46149
 Co378 Co 1.07739 0.52828 0.50370
 Co379 Co 0.92247 0.48404 0.52667
 Co380 Co 0.97735 0.56408 0.51543
 Co381 Co 1.01983 0.41816 0.51098
 O382 O 1.00332 0.49570 0.51281
 C383 C 1.09414 0.45226 0.44851
 C384 C 0.92228 0.53873 0.45167
 C385 C 1.05139 0.61337 0.47496
 C386 C 0.93170 0.40712 0.47122
 O387 O 0.56958 0.05641 0.55117
 O388 O 0.39715 -0.05705 0.47729
 O389 O 0.41832 0.08516 0.52257
 O390 O 0.54533 -0.08680 0.50728
 O391 O 0.39062 0.01202 0.52041
 O392 O 0.56230 -0.02847 0.54859
 O393 O 0.45415 -0.08945 0.51031
 O394 O 0.49081 0.06943 0.56163
 C395 C 0.53365 0.06761 0.57547
 C396 C 0.40856 -0.08468 0.50562
 C397 C 0.39029 0.05166 0.53796
 C398 C 0.55311 -0.07229 0.54302
 O399 O 0.60204 -0.02929 0.47055
 O400 O 0.41044 0.07075 0.45250
 O401 O 0.55137 0.10839 0.49990
 O402 O 0.45766 -0.07165 0.42587
 O403 O 0.43615 0.00088 0.41451
 O404 O 0.59364 0.05810 0.46567
 O405 O 0.54711 -0.05549 0.42822
 O406 O 0.48300 0.10522 0.45528
 Co407 Co 0.57352 0.01404 0.50666
 Co408 Co 0.41654 0.00715 0.46826
 Co409 Co 0.48630 0.08438 0.50763
 Co410 Co 0.50011 -0.06774 0.46997
 O411 O 0.49419 0.00930 0.48810
 C412 C 0.59202 -0.04607 0.43579
 C413 C 0.44424 0.09835 0.43626
 C414 C 0.58158 0.10075 0.47045
 C415 C 0.44444 -0.04015 0.40102
 O416 O 0.60819 0.54940 0.01074
 O417 O 0.39081 0.46075 0.01844
 O418 O 0.45819 0.56903 0.05331
 O419 O 0.53780 0.43480 0.07534
 O420 O 0.40231 0.54796 0.00968
 O421 O 0.60124 0.46361 0.03420
 O422 O 0.43911 0.44525 0.06896
 O423 O 0.54984 0.56888 0.05333
 C424 C 0.59568 0.56773 0.04456
 C425 C 0.39582 0.44881 0.05551
 C426 C 0.41269 0.56189 0.04536
 C427 C 0.58441 0.44563 0.06845
 O428 O 0.58142 0.43572 -0.04230
 O429 O 0.45078 0.53349 -0.06536
 O430 O 0.55455 0.59078 -0.03137
 O431 O 0.44659 0.39675 -0.00318
 O432 O 0.43497 0.44477 -0.05510
 O433 O 0.57469 0.52317 -0.06173
 O434 O 0.53870 0.39151 0.00418
 O435 O 0.46338 0.59564 -0.02711
 Co436 Co 0.58302 0.49369 -0.01319
 Co437 Co 0.42670 0.49739 -0.02099
 Co438 Co 0.50650 0.57440 0.01124
 Co439 Co 0.49101 0.42526 0.03347
 O440 O 0.50187 0.49716 0.00249
 C441 C 0.56691 0.39507 -0.02802
 C442 C 0.45449 0.57856 -0.06192
 C443 C 0.56686 0.56731 -0.06378
 C444 C 0.43752 0.40266 -0.04087
 C445 C 1.08907 0.08827 0.17832
 C446 C 1.03938 0.07651 0.19139
 C447 C 1.01766 0.05489 0.15819
 C448 C 1.05578 0.05462 0.12764
 O449 O 1.09904 0.07452 0.13974
 H450 H 1.02039 0.08472 0.22072
 H451 H 0.97818 0.04307 0.15577
 C452 C 1.09074 0.62183 0.66929
 C453 C 1.04031 0.61980 0.68287
 C454 C 1.01433 0.60113 0.65064
 C455 C 1.05072 0.59326 0.61971
 O456 O 1.09721 0.60546 0.63094
 H457 H 1.02425 0.63138 0.71245
 H458 H 0.97358 0.59492 0.64945
 C459 C 0.58293 0.12253 0.66346
 C460 C 0.53209 0.12702 0.67423
 C461 C 0.50642 0.10368 0.64383
 C462 C 0.54354 0.08690 0.61673
 O463 O 0.58999 0.09801 0.62866
 H464 H 0.51580 0.14650 0.70035
 H465 H 0.46569 0.10152 0.64055
 C466 C 0.67048 0.62629 0.11907
 C467 C 0.70883 0.61647 0.09041
 C468 C 0.68537 0.59418 0.05852
 C469 C 0.63438 0.59134 0.07028
 O470 O 0.62494 0.61127 0.10706
 H471 H 0.74915 0.62462 0.09272
 H472 H 0.70334 0.58065 0.03031
 C473 C 0.85808 -0.15289 0.10803
 C474 C 0.81859 -0.13196 0.08905
 C475 C 0.83919 -0.11279 0.05317
 C476 C 0.88993 -0.12308 0.05282
 O477 O 0.90175 -0.14775 0.08613
 H478 H 0.77949 -0.13038 0.10048
 H479 H 0.81992 -0.09210 0.03059
 C480 C 0.90117 0.35821 0.67171
 C481 C 0.94593 0.37776 0.68743
 C482 C 0.97125 0.40131 0.65508
 C483 C 0.94070 0.39442 0.62209
 O484 O 0.89829 0.36874 0.63184
 H485 H 0.95919 0.37581 0.71851
 H486 H 1.00711 0.42205 0.65565
 C487 C 0.33175 -0.15490 0.57695
 C488 C 0.29468 -0.14351 0.55004
 C489 C 0.31893 -0.11591 0.51975
 C490 C 0.36907 -0.11264 0.53005
 O491 O 0.37714 -0.13592 0.56493
 H492 H 0.25442 -0.15308 0.55267
 H493 H 0.30207 -0.09972 0.49339
 C494 C 0.30510 0.38637 0.11986
 C495 C 0.27234 0.40421 0.09205
 C496 C 0.30195 0.43333 0.06599
 C497 C 0.35055 0.43129 0.07994
 O498 O 0.35259 0.40291 0.11279
 H499 H 0.23211 0.39541 0.09000
 H500 H 0.29010 0.45125 0.03845
 C501 C 0.90982 0.12364 -0.14554
 C502 C 0.96062 0.13645 -0.15348
 C503 C 0.98482 0.12141 -0.11964
 C504 C 0.94707 0.10042 -0.09379
 O505 O 0.90169 0.10161 -0.10932
 H506 H 0.97785 0.15606 -0.17991
 H507 H 1.02505 0.12526 -0.11439
 C508 C 0.86434 0.58441 0.36473
 C509 C 0.84335 0.53752 0.36401
 C510 C 0.86517 0.51346 0.39486
 C511 C 0.89803 0.54721 0.41228
 O512 O 0.89779 0.59052 0.39399
 H513 H 0.81367 0.52337 0.34463
 H514 H 0.85612 0.47651 0.40492
 C515 C 0.40450 0.15269 0.34588
 C516 C 0.45622 0.16409 0.34031
 C517 C 0.47783 0.14522 0.37385
 C518 C 0.43821 0.12340 0.39713
 O519 O 0.39397 0.12745 0.38037
 H520 H 0.47639 0.18462 0.31573
 H521 H 0.51771 0.14714 0.38057
 C522 C 0.41945 0.64674 -0.14793
 C523 C 0.45787 0.67788 -0.13463
 C524 C 0.47577 0.65596 -0.10092
 C525 C 0.44830 0.61222 -0.09669
 O526 O 0.41333 0.60667 -0.12480
 H527 H 0.46936 0.71372 -0.14655
 H528 H 0.50506 0.67037 -0.08129
 C529 C 1.18300 -0.10120 -0.14330
 C530 C 1.20632 -0.05571 -0.13795
 C531 C 1.17827 -0.03417 -0.10722
 C532 C 1.13941 -0.06765 -0.09667
 O533 O 1.14222 -0.10850 -0.11825
 H534 H 1.24075 -0.04078 -0.15348
 H535 H 1.18542 0.00148 -0.09380
 C536 C 1.14686 0.39448 0.36148
 C537 C 1.14990 0.44139 0.34601
 C538 C 1.13223 0.46965 0.37750
 C539 C 1.11926 0.43768 0.40957
 O540 O 1.12831 0.39198 0.40009
 H541 H 1.16372 0.45344 0.31552
 H542 H 1.12799 0.50870 0.37688
 C543 C 0.68013 -0.10156 0.36811
 C544 C 0.71105 -0.06298 0.38100
 C545 C 0.68107 -0.03601 0.40648
 C546 C 0.63381 -0.05944 0.40702
 O547 O 0.63283 -0.09919 0.38364
 H548 H 0.75107 -0.05574 0.37355
 H549 H 0.69258 -0.00385 0.42369
 C550 C 0.61638 0.30370 -0.09203
 C551 C 0.58962 0.27365 -0.06363
 C552 C 0.56794 0.30414 -0.03555
 C553 C 0.58282 0.35048 -0.04885
 O554 O 0.61240 0.35045 -0.08295
 H555 H 0.58677 0.23423 -0.06287
 H556 H 0.54414 0.29386 -0.00856
 C557 C 1.13232 0.17169 -0.09719
 C558 C 1.10911 0.20218 -0.06867
 C559 C 1.09371 0.17338 -0.03608
 C560 C 1.10818 0.12722 -0.04646
 O561 O 1.13171 0.12581 -0.08353
 H562 H 1.10376 0.24090 -0.07058
 H563 H 1.07329 0.18460 -0.00816
 C564 C 1.11867 0.69627 0.40749
 C565 C 1.09540 0.72996 0.43304
 C566 C 1.06687 0.70326 0.46182
 C567 C 1.07467 0.65536 0.45191
 O568 O 1.10600 0.65088 0.41913
 H569 H 1.09847 0.76931 0.43129
 H570 H 1.04325 0.71702 0.48704
 C571 C 0.63339 0.18376 0.39518
 C572 C 0.60793 0.21605 0.42053
 C573 C 0.58695 0.18886 0.45226
 C574 C 0.60070 0.14184 0.44426
 O575 O 0.62875 0.13830 0.40949
 H576 H 0.60398 0.25476 0.41645
 H577 H 0.56332 0.20164 0.47787
 C578 C 0.60082 0.63306 -0.15428
 C579 C 0.57045 0.59623 -0.17118
 C580 C 0.55315 0.56805 -0.13883
 C581 C 0.57276 0.59001 -0.10448
 O582 O 0.60183 0.62932 -0.11340
 H583 H 0.56290 0.58878 -0.20317
 H584 H 0.52955 0.53482 -0.14003
 C585 C 0.89740 -0.10001 -0.17718
 C586 C 0.91667 -0.05530 -0.19172
 C587 C 0.94399 -0.03610 -0.16048
 C588 C 0.93986 -0.07073 -0.12951
 O589 O 0.91183 -0.10963 -0.13951
 H590 H 0.90926 -0.03759 -0.22061
 H591 H 0.96198 0.00008 -0.15925
 C592 C 0.86703 0.35859 0.38621
 C593 C 0.82550 0.37059 0.41081
 C594 C 0.84476 0.38875 0.44610
 C595 C 0.89683 0.38708 0.44046
 O596 O 0.91077 0.36826 0.40406
 H597 H 0.78581 0.36650 0.40365
 H598 H 0.82341 0.40278 0.47252
 C599 C 0.39315 -0.09272 0.31264
 C600 C 0.39892 -0.04492 0.29837
 C601 C 0.42231 -0.01943 0.32879
 C602 C 0.42982 -0.05315 0.35915
 O603 O 0.41288 -0.09751 0.34939
 H604 H 0.38605 -0.02926 0.27022
 H605 H 0.43047 0.01956 0.32973
 C606 C 0.39932 0.31644 -0.11547
 C607 C 0.41859 0.28456 -0.08757
 C608 C 0.43576 0.31287 -0.05610
 C609 C 0.42624 0.35997 -0.06698
 O610 O 0.40411 0.36239 -0.10289
 H611 H 0.41855 0.24520 -0.08883
 H612 H 0.45237 0.30059 -0.02814
 C613 C 1.10682 -0.17273 0.12461
 C614 C 1.06372 -0.19857 0.11301
 C615 C 1.04624 -0.17285 0.08097
 C616 C 1.07940 -0.13280 0.07611
 O617 O 1.11644 -0.13265 0.10234
 H618 H 1.04807 -0.23290 0.12549
 H619 H 1.01324 -0.18212 0.06335
 C620 C 1.18244 0.40046 0.63209
 C621 C 1.21060 0.44296 0.62264
 C622 C 1.18469 0.46583 0.59348
 C623 C 1.14246 0.43586 0.58693
 O624 O 1.14065 0.39615 0.61056
 H625 H 1.24578 0.45605 0.63563
 H626 H 1.19537 0.50034 0.57861
 C627 C 0.57931 -0.13491 0.63230
 C628 C 0.54040 -0.16633 0.62010
 C629 C 0.52530 -0.14744 0.58381
 C630 C 0.55590 -0.10593 0.57732
 O631 O 0.58850 -0.09822 0.60648
 H632 H 0.52670 -0.20021 0.63465
 H633 H 0.49581 -0.16204 0.56447
 C634 C 0.66973 0.40211 0.13925
 C635 C 0.69498 0.44584 0.12903
 C636 C 0.66444 0.46849 0.10325
 C637 C 0.62205 0.43787 0.09995
 O638 O 0.62495 0.39721 0.12186
 H639 H 0.73220 0.45899 0.13799
 H640 H 0.67337 0.50216 0.08689
 C641 C 0.85228 0.08226 0.14176
 C642 C 0.84671 0.03364 0.15290
 C643 C 0.86504 0.00846 0.11946
 C644 C 0.88074 0.04362 0.09067
 O645 O 0.87302 0.08830 0.10402
 H646 H 0.83069 0.01836 0.18170
 H647 H 0.86783 -0.03065 0.11675
 C648 C 0.80440 0.64428 0.60232
 C649 C 0.77124 0.61032 0.58518
 C650 C 0.80103 0.58142 0.56110
 C651 C 0.84968 0.60050 0.56500
 O652 O 0.85213 0.63833 0.59008
 H653 H 0.73052 0.60603 0.59075
 H654 H 0.78888 0.55016 0.54307
 C655 C 0.31827 0.09211 0.62417
 C656 C 0.29388 0.04688 0.62013
 C657 C 0.31811 0.02555 0.58730
 C658 C 0.35516 0.05945 0.57352
 O659 O 0.35568 0.09978 0.59592
 H660 H 0.26254 0.03109 0.63911
 H661 H 0.30970 -0.01033 0.57474
 C662 C 0.32839 0.59992 0.12583
 C663 C 0.29357 0.57604 0.10126
 C664 C 0.32108 0.55876 0.06850
 C665 C 0.37083 0.57255 0.07523
 O666 O 0.37565 0.59788 0.10990
 H667 H 0.25263 0.57339 0.10528
 H668 H 0.30644 0.53942 0.04210
   
