data_POSCAR
  _audit_creation_date              2014-09-24
  _audit_creation_method            'ToBaCCo'
  _symmetry_space_group_name_H-M    'P1'
  _symmetry_Int_Tables_number       1
  _symmetry_cell_setting            triclinic
  loop_
  _symmetry_equiv_pos_as_xyz
 x,y,z
_cell_length_a 42.0072
_cell_length_b 42.0298
_cell_length_c 42.0527
_cell_angle_alpha 90.008900
_cell_angle_beta 90.029400
_cell_angle_gamma 89.981200
loop_
  _atom_site_label
  _atom_site_type_symbol
  _atom_site_fract_x
  _atom_site_fract_y
  _atom_site_fract_z
C1 C 0.28443 0.32572 0.01549
 C2 C 0.28445 0.32579 -0.01805
 C3 C 0.30477 0.30514 -0.03460
 C4 C 0.32533 0.28470 -0.01808
 C5 C 0.32525 0.28464 0.01546
 C6 C 0.30468 0.30500 0.03197
 H7 H 0.30491 0.30522 0.05777
 H8 H 0.30506 0.30546 -0.06043
 C9 C 0.71496 0.67499 0.01594
 C10 C 0.71499 0.67512 -0.01754
 C11 C 0.69462 0.69574 -0.03403
 C12 C 0.67392 0.71599 -0.01745
 C13 C 0.67393 0.71585 0.01610
 C14 C 0.69459 0.69549 0.03254
 H15 H 0.69432 0.69510 0.05833
 H16 H 0.69444 0.69550 -0.05984
 C17 C 0.71555 0.32594 0.98318
 C18 C 0.71559 0.32595 1.01673
 C19 C 0.69523 0.30533 1.03325
 C20 C 0.67461 0.28502 1.01671
 C21 C 0.67458 0.28504 0.98322
 C22 C 0.69518 0.30534 0.96669
 H23 H 0.69487 0.30560 0.94089
 H24 H 0.69492 0.30552 1.05906
 C25 C 0.28400 0.67513 0.98503
 C26 C 0.28396 0.67509 1.01857
 C27 C 0.30426 0.69573 1.03516
 C28 C 0.32487 0.71611 1.01868
 C29 C 0.32487 0.71614 0.98514
 C30 C 0.30430 0.69580 0.96858
 H31 H 0.30460 0.69555 0.94278
 H32 H 0.30450 0.69544 1.06099
 C33 C 0.01716 0.28375 0.32455
 C34 C -0.01637 0.28359 0.32436
 C35 C -0.03293 0.30382 0.30368
 C36 C -0.01640 0.32449 0.28345
 C37 C 0.01713 0.32463 0.28362
 C38 C 0.03370 0.30413 0.30402
 H39 H 0.05952 0.30453 0.30444
 H40 H -0.05876 0.30399 0.30384
 C41 C 0.01625 0.71559 0.67465
 C42 C -0.01733 0.71549 0.67448
 C43 C -0.03390 0.69510 0.69502
 C44 C -0.01737 0.67454 0.71544
 C45 C 0.01621 0.67468 0.71560
 C46 C 0.03275 0.69534 0.69535
 H47 H 0.05857 0.69516 0.69522
 H48 H -0.05975 0.69475 0.69463
 C49 C 0.98395 0.71471 0.32518
 C50 C 1.01747 0.71474 0.32519
 C51 C 1.03406 0.69447 0.30459
 C52 C 1.01755 0.67387 0.28420
 C53 C 0.98397 0.67388 0.28417
 C54 C 0.96743 0.69443 0.30453
 H55 H 0.94160 0.69416 0.30479
 H56 H 1.05990 0.69430 0.30495
 C57 C 0.98396 0.28424 0.67385
 C58 C 1.01755 0.28425 0.67391
 C59 C 1.03404 0.30463 0.69455
 C60 C 1.01742 0.32522 0.71480
 C61 C 0.98390 0.32521 0.71473
 C62 C 0.96740 0.30459 0.69440
 H63 H 0.94157 0.30486 0.69410
 H64 H 1.05988 0.30498 0.69441
 C65 C 0.32557 0.01559 0.28512
 C66 C 0.32563 -0.01796 0.28519
 C67 C 0.30509 -0.03449 0.30563
 C68 C 0.28478 -0.01792 0.32626
 C69 C 0.28476 0.01564 0.32618
 C70 C 0.30500 0.03213 0.30547
 H71 H 0.30522 0.05794 0.30568
 H72 H 0.30538 -0.06033 0.30593
 C73 C 0.67464 0.01670 0.71579
 C74 C 0.67473 -0.01681 0.71595
 C75 C 0.69538 -0.03342 0.69573
 C76 C 0.71566 -0.01694 0.67507
 C77 C 0.71557 0.01657 0.67491
 C78 C 0.69520 0.03318 0.69541
 H79 H 0.69486 0.05899 0.69500
 H80 H 0.69516 -0.05923 0.69558
 C81 C 0.32514 0.98471 0.71616
 C82 C 0.32517 1.01826 0.71608
 C83 C 0.30459 1.03477 0.69564
 C84 C 0.28428 1.01818 0.67501
 C85 C 0.28429 0.98463 0.67511
 C86 C 0.30456 0.96816 0.69582
 H87 H 0.30482 0.94234 0.69562
 H88 H 0.30486 1.06061 0.69532
 C89 C 0.67497 0.98326 0.28470
 C90 C 0.67500 1.01676 0.28467
 C91 C 0.69564 1.03332 0.30494
 C92 C 0.71601 1.01679 0.32556
 C93 C 0.71598 0.98323 0.32556
 C94 C 0.69560 0.96672 0.30499
 H95 H 0.69529 0.94091 0.30527
 H96 H 0.69531 1.05915 0.30512
 O97 O 0.89309 0.84780 0.46950
 O98 O 0.84914 0.89178 0.53137
 O99 O 0.89300 0.84777 0.53143
 O100 O 0.84921 0.89177 0.46945
 O101 O 0.81210 0.85465 0.46944
 O102 O 0.85575 0.81081 0.53128
 O103 O 0.81204 0.85466 0.53124
 O104 O 0.85584 0.81083 0.46948
 Cu105 Cu 0.87485 0.87350 0.50044
 Cu106 Cu 0.83022 0.82904 0.50035
 C107 C 0.88199 0.82173 0.45894
 C108 C 0.82300 0.88076 0.54183
 C109 C 0.88188 0.82169 0.54191
 C110 C 0.82309 0.88075 0.45890
 O111 O 0.10782 0.15133 0.46971
 O112 O 0.15178 0.10767 0.53186
 O113 O 0.10779 0.15156 0.53164
 O114 O 0.15172 0.10739 0.46994
 O115 O 0.18877 0.14455 0.46986
 O116 O 0.14497 0.18860 0.53144
 O117 O 0.18881 0.14486 0.53165
 O118 O 0.14502 0.18835 0.46963
 Cu119 Cu 0.12604 0.12576 0.50081
 Cu120 Cu 0.17060 0.17029 0.50064
 C121 C 0.11890 0.17737 0.45908
 C122 C 0.17789 0.11878 0.54233
 C123 C 0.11885 0.17771 0.54205
 C124 C 0.17783 0.11840 0.45938
 O125 O 0.10789 0.84874 0.53087
 O126 O 0.15204 0.89248 0.46897
 O127 O 0.10810 0.84857 0.46895
 O128 O 0.15173 0.89274 0.53090
 O129 O 0.18883 0.85560 0.53114
 O130 O 0.14534 0.81156 0.46930
 O131 O 0.18913 0.85533 0.46933
 O132 O 0.14514 0.81175 0.53109
 Cu133 Cu 0.12621 0.87436 0.49989
 Cu134 Cu 0.17083 0.82986 0.50024
 C135 C 0.11896 0.82268 0.54152
 C136 C 0.17822 0.88140 0.45861
 C137 C 0.11923 0.82243 0.45858
 C138 C 0.17781 0.88174 0.54157
 O139 O 0.84850 0.10669 0.46841
 O140 O 0.89256 0.15067 0.53023
 O141 O 0.84860 0.10681 0.53034
 O142 O 0.89252 0.15050 0.46832
 O143 O 0.85536 0.18759 0.46832
 O144 O 0.81160 0.14406 0.53023
 O145 O 0.85541 0.18776 0.53010
 O146 O 0.81150 0.14393 0.46843
 Cu147 Cu 0.87427 0.12493 0.49933
 Cu148 Cu 0.82976 0.16955 0.49926
 C149 C 0.82239 0.11778 0.45789
 C150 C 0.88154 0.17682 0.54069
 C151 C 0.82252 0.11795 0.54086
 C152 C 0.88147 0.17659 0.45776
 O153 O 0.46881 0.89293 0.84960
 O154 O 0.53080 0.84873 0.89331
 O155 O 0.53079 0.89270 0.84950
 O156 O 0.46881 0.84905 0.89354
 O157 O 0.46859 0.81202 0.85637
 O158 O 0.53047 0.85553 0.81247
 O159 O 0.53046 0.81172 0.85613
 O160 O 0.46861 0.85575 0.81259
 Cu161 Cu 0.49982 0.87458 0.87522
 Cu162 Cu 0.49950 0.83005 0.83069
 C163 C 0.45817 0.88191 0.82353
 C164 C 0.54119 0.82260 0.88220
 C165 C 0.54118 0.88160 0.82338
 C166 C 0.45815 0.82300 0.88251
 O167 O 0.53067 0.15135 0.10744
 O168 O 0.46878 0.10728 0.15131
 O169 O 0.46869 0.15114 0.10733
 O170 O 0.53076 0.10743 0.15131
 O171 O 0.53057 0.14463 0.18830
 O172 O 0.46861 0.18820 0.14446
 O173 O 0.46871 0.14450 0.18829
 O174 O 0.53047 0.18840 0.14458
 Cu175 Cu 0.49973 0.12557 0.12562
 Cu176 Cu 0.49957 0.17014 0.17011
 C177 C 0.54111 0.17749 0.11850
 C178 C 0.45822 0.11833 0.17740
 C179 C 0.45810 0.17723 0.11834
 C180 C 0.54124 0.11854 0.17740
 O181 O 0.53016 0.10797 0.84849
 O182 O 0.46820 0.15208 0.89225
 O183 O 0.46816 0.10813 0.84839
 O184 O 0.53019 0.15194 0.89233
 O185 O 0.53024 0.18892 0.85513
 O186 O 0.46834 0.14526 0.81135
 O187 O 0.46838 0.18907 0.85505
 O188 O 0.53021 0.14511 0.81145
 Cu189 Cu 0.49917 0.12630 0.87410
 Cu190 Cu 0.49930 0.17079 0.82954
 C191 C 0.54074 0.11898 0.82242
 C192 C 0.45774 0.17819 0.88115
 C193 C 0.45768 0.11919 0.82229
 C194 C 0.54078 0.17800 0.88126
 O195 O 0.46794 0.84849 0.10837
 O196 O 0.53009 0.89243 0.15205
 O197 O 0.52993 0.84861 0.10807
 O198 O 0.46810 0.89234 0.15233
 O199 O 0.46844 0.85510 0.18928
 O200 O 0.53014 0.81150 0.14515
 O201 O 0.53030 0.85518 0.18898
 O202 O 0.46827 0.81140 0.14547
 Cu203 Cu 0.49899 0.87420 0.12649
 Cu204 Cu 0.49931 0.82959 0.17092
 C205 C 0.45752 0.82236 0.11944
 C206 C 0.54079 0.88133 0.17806
 C207 C 0.54056 0.82250 0.11903
 C208 C 0.45774 0.88121 0.17845
 O209 O 0.84892 0.46958 0.89157
 O210 O 0.89277 0.53150 0.84758
 O211 O 0.84884 0.53152 0.89147
 O212 O 0.89284 0.46953 0.84767
 O213 O 0.85561 0.46949 0.81067
 O214 O 0.81178 0.53137 0.85430
 O215 O 0.85556 0.53134 0.81056
 O216 O 0.81184 0.46955 0.85442
 Cu217 Cu 0.87458 0.50054 0.87330
 Cu218 Cu 0.82999 0.50043 0.82878
 C219 C 0.82280 0.45903 0.88055
 C220 C 0.88168 0.54197 0.82148
 C221 C 0.82271 0.54200 0.88039
 C222 C 0.88176 0.45895 0.82161
 O223 O 0.10768 0.53151 0.15148
 O224 O 0.15159 0.46980 0.10724
 O225 O 0.10774 0.46956 0.15117
 O226 O 0.15163 0.53176 0.10764
 O227 O 0.18869 0.53148 0.14481
 O228 O 0.14498 0.46941 0.18815
 O229 O 0.18868 0.46965 0.14437
 O230 O 0.14489 0.53124 0.18849
 Cu231 Cu 0.12592 0.50068 0.12565
 Cu232 Cu 0.17052 0.50043 0.17016
 C233 C 0.11875 0.54188 0.17763
 C234 C 0.17771 0.45921 0.11822
 C235 C 0.11885 0.45889 0.17718
 C236 C 0.17774 0.54222 0.11877
 O237 O 0.84836 0.53063 0.10656
 O238 O 0.89233 0.46858 0.15032
 O239 O 0.84827 0.46867 0.10654
 O240 O 0.89235 0.53053 0.15044
 O241 O 0.85521 0.53047 0.18750
 O242 O 0.81129 0.46875 0.14375
 O243 O 0.85520 0.46865 0.18738
 O244 O 0.81138 0.53058 0.14377
 Cu245 Cu 0.87405 0.49960 0.12473
 Cu246 Cu 0.82957 0.49962 0.16931
 C247 C 0.82228 0.54117 0.11766
 C248 C 0.88131 0.45805 0.17641
 C249 C 0.82217 0.45817 0.11763
 C250 C 0.88134 0.54102 0.17657
 O251 O 0.10795 0.46900 0.84868
 O252 O 0.15158 0.53088 0.89296
 O253 O 0.10778 0.53094 0.84892
 O254 O 0.15187 0.46892 0.89260
 O255 O 0.18897 0.46929 0.85551
 O256 O 0.14505 0.53117 0.81200
 O257 O 0.18870 0.53113 0.85589
 O258 O 0.14520 0.46935 0.81174
 Cu259 Cu 0.12606 0.49991 0.87451
 Cu260 Cu 0.17070 0.50027 0.83009
 C261 C 0.11908 0.45865 0.82257
 C262 C 0.17767 0.54155 0.88202
 C263 C 0.11886 0.54161 0.82290
 C264 C 0.17804 0.45854 0.88153
 C265 C 0.23061 0.38897 0.06612
 C266 C 0.24162 0.39968 0.09564
 C267 C 0.22430 0.42237 0.11268
 C268 C 0.26490 0.34760 0.03344
 C269 C 0.18466 0.42361 0.07077
 C270 C 0.20207 0.40091 0.05375
 C271 C 0.24902 0.36627 0.04832
 C272 C 0.19567 0.43469 0.10039
 H273 H 0.26372 0.39064 0.10540
 H274 H 0.23344 0.43037 0.13539
 H275 H 0.16274 0.43263 0.06064
 H276 H 0.19337 0.39282 0.03088
 C277 C 0.76913 0.61160 0.06603
 C278 C 0.79759 0.59967 0.05347
 C279 C 0.81509 0.57693 0.07035
 C280 C 0.73461 0.65306 0.03365
 C281 C 0.77571 0.57810 0.11247
 C282 C 0.75830 0.60084 0.09557
 C283 C 0.75060 0.63435 0.04838
 C284 C 0.80426 0.56579 0.10000
 H285 H 0.80614 0.60780 0.03057
 H286 H 0.83694 0.56791 0.06008
 H287 H 0.76671 0.57005 0.13521
 H288 H 0.73627 0.60987 0.10547
 C289 C 0.76967 0.38893 0.93256
 C290 C 0.79824 0.40077 0.94497
 C291 C 0.81573 0.42340 0.92796
 C292 C 0.73517 0.34773 0.96524
 C293 C 0.77615 0.42227 0.88600
 C294 C 0.75874 0.39965 0.90303
 C295 C 0.75115 0.36632 0.95037
 C296 C 0.80480 0.43451 0.89832
 H297 H 0.80688 0.39267 0.96785
 H298 H 0.83766 0.43236 0.93812
 H299 H 0.76706 0.43030 0.86327
 H300 H 0.73662 0.39069 0.89324
 C301 C 0.23031 0.61188 0.93425
 C302 C 0.24138 0.60122 0.90474
 C303 C 0.22413 0.57851 0.88765
 C304 C 0.26451 0.65326 0.96704
 C305 C 0.18447 0.57715 0.92949
 C306 C 0.20180 0.59987 0.94656
 C307 C 0.24867 0.63459 0.95211
 C308 C 0.19553 0.56612 0.89988
 H309 H 0.26346 0.61032 0.89503
 H310 H 0.23331 0.57054 0.86494
 H311 H 0.16257 0.56808 0.93958
 H312 H 0.19307 0.60792 0.96943
 C313 C 0.06729 0.23005 0.38828
 C314 C 0.09684 0.24097 0.39907
 C315 C 0.11371 0.22372 0.42194
 C316 C 0.03493 0.26427 0.34657
 C317 C 0.07158 0.18433 0.42321
 C318 C 0.05472 0.20168 0.40033
 C319 C 0.04966 0.24842 0.36539
 C320 C 0.10123 0.19524 0.43437
 H321 H 0.10676 0.26294 0.38995
 H322 H 0.13646 0.23278 0.42999
 H323 H 0.06130 0.16254 0.43231
 H324 H 0.03182 0.19306 0.39219
 C325 C 0.06692 0.76969 0.61169
 C326 C 0.05446 0.79818 0.59975
 C327 C 0.07147 0.81563 0.57709
 C328 C 0.03422 0.73522 0.65289
 C329 C 0.11354 0.77616 0.57839
 C330 C 0.09651 0.75879 0.60104
 C331 C 0.04911 0.75119 0.63431
 C332 C 0.10116 0.80473 0.56606
 H333 H 0.03152 0.80679 0.60779
 H334 H 0.06126 0.83750 0.56806
 H335 H 0.13632 0.76709 0.57043
 H336 H 0.10634 0.73673 0.61008
 C337 C 0.93371 0.76868 0.38855
 C338 C 0.90414 0.75782 0.39930
 C339 C 0.88722 0.77520 0.42204
 C340 C 0.96615 0.73427 0.34709
 C341 C 0.92937 0.81458 0.42324
 C342 C 0.94626 0.79712 0.40050
 C343 C 0.95138 0.75020 0.36580
 C344 C 0.89969 0.80373 0.43436
 H345 H 0.89423 0.73581 0.39025
 H346 H 0.86446 0.76618 0.43007
 H347 H 0.93964 0.83641 0.43227
 H348 H 0.96918 0.80569 0.39239
 C349 C 0.93347 0.23004 0.61081
 C350 C 0.90392 0.24094 0.60000
 C351 C 0.88693 0.22351 0.57737
 C352 C 0.96607 0.26459 0.65205
 C353 C 0.92895 0.18396 0.57638
 C354 C 0.94593 0.20148 0.59903
 C355 C 0.95123 0.24859 0.63344
 C356 C 0.89930 0.19486 0.56520
 H357 H 0.89410 0.26305 0.60892
 H358 H 0.86419 0.23257 0.56928
 H359 H 0.93914 0.16203 0.56747
 H360 H 0.96883 0.19287 0.60719
 C361 C 0.38830 0.06623 0.23070
 C362 C 0.39896 0.09585 0.24152
 C363 C 0.42151 0.11290 0.22404
 C364 C 0.34727 0.03352 0.26538
 C365 C 0.42269 0.07082 0.18462
 C366 C 0.40013 0.05378 0.20218
 C367 C 0.36578 0.04840 0.24932
 C368 C 0.43374 0.10053 0.19544
 H369 H 0.39001 0.10567 0.26360
 H370 H 0.42949 0.13568 0.23304
 H371 H 0.43165 0.06062 0.16273
 H372 H 0.39208 0.03084 0.19364
 C373 C 0.61118 0.06706 0.76958
 C374 C 0.59918 0.05458 0.79801
 C375 C 0.57642 0.07154 0.81540
 C376 C 0.65269 0.03452 0.73530
 C377 C 0.57771 0.11360 0.77597
 C378 C 0.60046 0.09662 0.75867
 C379 C 0.63395 0.04933 0.75118
 C380 C 0.56534 0.10121 0.80450
 H381 H 0.60727 0.03167 0.80663
 H382 H 0.56736 0.06133 0.83724
 H383 H 0.56970 0.13635 0.76691
 H384 H 0.60954 0.10646 0.73666
 C385 C 0.38806 0.93408 0.77044
 C386 C 0.40001 0.94652 0.79892
 C387 C 0.42264 0.92946 0.81642
 C388 C 0.34690 0.96679 0.73587
 C389 C 0.42128 0.88738 0.77700
 C390 C 0.39867 0.90445 0.75959
 C391 C 0.36547 0.95191 0.75189
 C392 C 0.43364 0.89974 0.80556
 H393 H 0.39201 0.96947 0.80749
 H394 H 0.43169 0.93966 0.83827
 H395 H 0.42922 0.86459 0.76798
 H396 H 0.38961 0.89463 0.73755
 C397 C 0.61143 0.93305 0.23084
 C398 C 0.59933 0.94562 0.20248
 C399 C 0.57651 0.92872 0.18509
 C400 C 0.65301 0.96549 0.26515
 C401 C 0.57794 0.88655 0.22441
 C402 C 0.60075 0.90347 0.24170
 C403 C 0.63424 0.95073 0.24925
 C404 C 0.56546 0.89903 0.19595
 H405 H 0.60739 0.96855 0.19391
 H406 H 0.56737 0.93900 0.16332
 H407 H 0.56997 0.86378 0.23343
 H408 H 0.60991 0.89356 0.26366
 C409 C 0.38738 0.23149 0.93271
 C410 C 0.39920 0.20299 0.94526
 C411 C 0.42193 0.18544 0.92840
 C412 C 0.34603 0.26611 0.96511
 C413 C 0.42095 0.22486 0.88632
 C414 C 0.39823 0.24232 0.90319
 C415 C 0.36469 0.25007 0.95035
 C416 C 0.43315 0.19627 0.89878
 H417 H 0.39101 0.19444 0.96813
 H418 H 0.43086 0.16356 0.93866
 H419 H 0.42906 0.23386 0.86360
 H420 H 0.38929 0.26438 0.89330
 C421 C 0.61170 0.76923 0.93354
 C422 C 0.59997 0.79776 0.94613
 C423 C 0.57719 0.81532 0.92935
 C424 C 0.65317 0.73459 0.96579
 C425 C 0.57793 0.77588 0.88728
 C426 C 0.60070 0.75840 0.90407
 C427 C 0.63446 0.75063 0.95110
 C428 C 0.56582 0.80450 0.89977
 H429 H 0.60828 0.80631 0.96897
 H430 H 0.56833 0.83722 0.93963
 H431 H 0.56970 0.76688 0.86459
 H432 H 0.60957 0.73632 0.89415
 C433 C 0.38698 0.76923 0.06794
 C434 C 0.39874 0.79776 0.05544
 C435 C 0.42152 0.81526 0.07228
 C436 C 0.34558 0.73468 0.03553
 C437 C 0.42072 0.77573 0.11425
 C438 C 0.39794 0.75832 0.09740
 C439 C 0.36425 0.75068 0.05030
 C440 C 0.43286 0.80435 0.10183
 H441 H 0.39046 0.80637 0.03260
 H442 H 0.43040 0.83716 0.06204
 H443 H 0.42892 0.76667 0.13693
 H444 H 0.38905 0.73623 0.10725
 C445 C 0.61137 0.23078 0.06685
 C446 C 0.60053 0.24162 0.09637
 C447 C 0.57785 0.22417 0.11327
 C448 C 0.65274 0.26537 0.03446
 C449 C 0.57688 0.18472 0.07120
 C450 C 0.59957 0.20227 0.05432
 C451 C 0.63407 0.24936 0.04920
 C452 C 0.56567 0.19556 0.10083
 H453 H 0.60946 0.26370 0.10625
 H454 H 0.56974 0.23318 0.13599
 H455 H 0.56797 0.16283 0.06096
 H456 H 0.60776 0.19371 0.03144
 C457 C 0.23113 0.06730 0.61280
 C458 C 0.24198 0.09681 0.60190
 C459 C 0.22454 0.11365 0.57916
 C460 C 0.26571 0.03496 0.65424
 C461 C 0.18508 0.07157 0.57824
 C462 C 0.20262 0.05474 0.60099
 C463 C 0.24970 0.04969 0.63554
 C464 C 0.19593 0.10118 0.56697
 H465 H 0.26406 0.10671 0.61084
 H466 H 0.23356 0.13636 0.57101
 H467 H 0.16319 0.06130 0.56932
 H468 H 0.19405 0.03187 0.60922
 C469 C 0.76918 0.06607 0.38759
 C470 C 0.79767 0.05352 0.39947
 C471 C 0.81519 0.07042 0.42218
 C472 C 0.73460 0.03362 0.34625
 C473 C 0.77576 0.11254 0.42107
 C474 C 0.75833 0.09563 0.39837
 C475 C 0.75062 0.04839 0.36491
 C476 C 0.80434 0.10008 0.43334
 H477 H 0.80623 0.03061 0.39133
 H478 H 0.83706 0.06016 0.43116
 H479 H 0.76674 0.13530 0.42913
 H480 H 0.73627 0.10552 0.38938
 C481 C 0.76985 0.93265 0.61201
 C482 C 0.79837 0.94511 0.60018
 C483 C 0.81588 0.92815 0.57752
 C484 C 0.73531 0.96522 0.65328
 C485 C 0.77636 0.88613 0.57859
 C486 C 0.75895 0.90311 0.60124
 C487 C 0.75131 0.95040 0.63466
 C488 C 0.80498 0.89850 0.56637
 H489 H 0.80698 0.96801 0.60831
 H490 H 0.83778 0.93835 0.56857
 H491 H 0.76731 0.86339 0.57053
 H492 H 0.73686 0.89328 0.61020
 C493 C 0.23161 0.93294 0.38837
 C494 C 0.20303 0.94547 0.40005
 C495 C 0.18546 0.92862 0.42274
 C496 C 0.26623 0.96529 0.34700
 C497 C 0.22499 0.88659 0.42201
 C498 C 0.24248 0.90345 0.39933
 C499 C 0.25020 0.95056 0.36568
 C500 C 0.19632 0.89903 0.43407
 H501 H 0.19444 0.96832 0.39177
 H502 H 0.16351 0.93887 0.43155
 H503 H 0.23403 0.86390 0.43021
 H504 H 0.26460 0.89357 0.39050
 C505 C 0.06752 0.38844 0.76911
 C506 C 0.05496 0.40015 0.79762
 C507 C 0.07182 0.42282 0.81522
 C508 C 0.03516 0.34709 0.73447
 C509 C 0.11393 0.42202 0.77582
 C510 C 0.09705 0.39935 0.75831
 C511 C 0.04989 0.36576 0.75050
 C512 C 0.10146 0.43411 0.80443
 H513 H 0.03208 0.39190 0.80615
 H514 H 0.06155 0.43166 0.83712
 H515 H 0.13666 0.43019 0.76684
 H516 H 0.10695 0.39049 0.73622
 C517 C 0.06695 0.61198 0.23100
 C518 C 0.05445 0.60025 0.20245
 C519 C 0.07139 0.57761 0.18489
 C520 C 0.03442 0.65322 0.26561
 C521 C 0.11344 0.57848 0.22438
 C522 C 0.09650 0.60111 0.24186
 C523 C 0.04924 0.63461 0.24959
 C524 C 0.10104 0.56637 0.19574
 H525 H 0.03156 0.60846 0.19388
 H526 H 0.06116 0.56876 0.16296
 H527 H 0.13619 0.57035 0.23340
 H528 H 0.10635 0.60999 0.26397
 C529 C 0.93322 0.38768 0.22936
 C530 C 0.90366 0.39843 0.24026
 C531 C 0.88667 0.42115 0.22291
 C532 C 0.96579 0.34632 0.26381
 C533 C 0.92871 0.42231 0.18345
 C534 C 0.94568 0.39959 0.20089
 C535 C 0.95097 0.36498 0.24784
 C536 C 0.89905 0.43345 0.19436
 H537 H 0.89383 0.38942 0.26231
 H538 H 0.86393 0.42920 0.23197
 H539 H 0.93892 0.43131 0.16159
 H540 H 0.96859 0.39146 0.19228
 C541 C 0.93335 0.61235 0.76838
 C542 C 0.90384 0.60146 0.75746
 C543 C 0.88693 0.57873 0.77485
 C544 C 0.96579 0.65378 0.73393
 C545 C 0.92897 0.57782 0.81437
 C546 C 0.94585 0.60055 0.79689
 C547 C 0.95101 0.63508 0.74988
 C548 C 0.89935 0.56655 0.80346
 H549 H 0.89398 0.61038 0.73538
 H550 H 0.86422 0.57059 0.76578
 H551 H 0.93920 0.56891 0.83627
 H552 H 0.96872 0.60878 0.80551
 C553 C 0.76938 0.61217 0.93213
 C554 C 0.75856 0.60141 0.90257
 C555 C 0.77604 0.57877 0.88563
 C556 C 0.73470 0.65337 0.96464
 C557 C 0.81547 0.57769 0.92773
 C558 C 0.79790 0.60034 0.94466
 C559 C 0.75076 0.63478 0.94984
 C560 C 0.80464 0.56655 0.89807
 H561 H 0.73647 0.61037 0.89269
 H562 H 0.76703 0.57072 0.86288
 H563 H 0.83736 0.56874 0.93799
 H564 H 0.80644 0.60847 0.96757
 C565 C 0.23132 0.38803 0.93289
 C566 C 0.24220 0.39904 0.90345
 C567 C 0.22475 0.42180 0.88665
 C568 C 0.26590 0.34656 0.96516
 C569 C 0.18522 0.42253 0.92864
 C570 C 0.20277 0.39975 0.94542
 C571 C 0.24989 0.36527 0.95046
 C572 C 0.19610 0.43391 0.89910
 H573 H 0.26431 0.39017 0.89357
 H574 H 0.23379 0.43004 0.86399
 H575 H 0.16330 0.43138 0.93889
 H576 H 0.19417 0.39143 0.96824
 C577 C 0.23084 0.61286 0.06754
 C578 C 0.24172 0.60190 0.09701
 C579 C 0.22432 0.57910 0.11377
 C580 C 0.26540 0.65434 0.03532
 C581 C 0.18486 0.57825 0.07168
 C582 C 0.20235 0.60107 0.05493
 C583 C 0.24939 0.63563 0.05000
 C584 C 0.19574 0.56691 0.10125
 H585 H 0.26379 0.61083 0.10694
 H586 H 0.23336 0.57089 0.13646
 H587 H 0.16298 0.56933 0.06138
 H588 H 0.19377 0.60935 0.03209
 C589 C 0.76885 0.38792 0.06597
 C590 C 0.75805 0.39870 0.09553
 C591 C 0.77552 0.42139 0.11243
 C592 C 0.73420 0.34662 0.03355
 C593 C 0.81489 0.42245 0.07030
 C594 C 0.79733 0.39976 0.05342
 C595 C 0.75025 0.36525 0.04831
 C596 C 0.80409 0.43362 0.09996
 H597 H 0.73600 0.38974 0.10542
 H598 H 0.76654 0.42945 0.13517
 H599 H 0.83676 0.43140 0.06003
 H600 H 0.80586 0.39161 0.03051
 C601 C 0.93347 0.76853 0.61231
 C602 C 0.90393 0.75768 0.60144
 C603 C 0.88705 0.77509 0.57870
 C604 C 0.96586 0.73402 0.65373
 C605 C 0.92916 0.81452 0.57776
 C606 C 0.94602 0.79702 0.60050
 C607 C 0.95111 0.75000 0.63504
 C608 C 0.89952 0.80367 0.56651
 H609 H 0.89404 0.73562 0.61038
 H610 H 0.86432 0.76607 0.57057
 H611 H 0.93943 0.83640 0.56883
 H612 H 0.96891 0.80559 0.60872
 C613 C 0.93330 0.22950 0.38745
 C614 C 0.94581 0.20103 0.39939
 C615 C 0.92886 0.18360 0.42209
 C616 C 0.96584 0.26395 0.34616
 C617 C 0.88676 0.22306 0.42084
 C618 C 0.90373 0.24040 0.39815
 C619 C 0.95104 0.24798 0.36479
 C620 C 0.89918 0.19451 0.43317
 H621 H 0.96874 0.19243 0.39131
 H622 H 0.93909 0.16175 0.43113
 H623 H 0.86400 0.23212 0.42885
 H624 H 0.89387 0.26245 0.38910
 C625 C 0.06700 0.23105 0.61210
 C626 C 0.05452 0.20251 0.60034
 C627 C 0.07147 0.18494 0.57771
 C628 C 0.03444 0.26567 0.65328
 C629 C 0.11351 0.22444 0.57867
 C630 C 0.09655 0.24192 0.60129
 C631 C 0.04927 0.24964 0.63469
 C632 C 0.10112 0.19580 0.56653
 H633 H 0.03162 0.19393 0.60850
 H634 H 0.06126 0.16302 0.56883
 H635 H 0.13626 0.23347 0.57059
 H636 H 0.10639 0.26402 0.61019
 C637 C 0.06763 0.76902 0.38838
 C638 C 0.09717 0.75819 0.39928
 C639 C 0.11406 0.77569 0.42194
 C640 C 0.03523 0.73440 0.34706
 C641 C 0.07196 0.81515 0.42275
 C642 C 0.05508 0.79756 0.40008
 C643 C 0.04998 0.75042 0.36571
 C644 C 0.10160 0.80432 0.43403
 H645 H 0.10707 0.73609 0.39042
 H646 H 0.13680 0.76669 0.43011
 H647 H 0.06169 0.83706 0.43160
 H648 H 0.03219 0.80611 0.39184
 C649 C 0.61154 0.93311 0.77018
 C650 C 0.60066 0.90360 0.75933
 C651 C 0.57794 0.88673 0.77676
 C652 C 0.65289 0.96547 0.73562
 C653 C 0.57704 0.92882 0.81619
 C654 C 0.59976 0.94567 0.79867
 C655 C 0.63423 0.95074 0.75163
 C656 C 0.56578 0.89921 0.80534
 H657 H 0.60957 0.89370 0.73727
 H658 H 0.56979 0.86401 0.76775
 H659 H 0.56814 0.93909 0.83807
 H660 H 0.60799 0.96855 0.80723
 C661 C 0.38753 0.93278 0.23190
 C662 C 0.39847 0.90326 0.24270
 C663 C 0.42113 0.88638 0.22519
 C664 C 0.34628 0.96520 0.26658
 C665 C 0.42189 0.92847 0.18577
 C666 C 0.39922 0.94532 0.20337
 C667 C 0.36489 0.95043 0.25052
 C668 C 0.43320 0.89885 0.19658
 H669 H 0.38962 0.89337 0.26479
 H670 H 0.42932 0.86366 0.23418
 H671 H 0.43072 0.93873 0.16387
 H672 H 0.39095 0.96820 0.19484
 C673 C 0.61169 0.06694 0.23054
 C674 C 0.60083 0.09647 0.24140
 C675 C 0.57808 0.11336 0.22399
 C676 C 0.65311 0.03453 0.26505
 C677 C 0.57710 0.07127 0.18456
 C678 C 0.59985 0.05440 0.20206
 C679 C 0.63442 0.04929 0.24907
 C680 C 0.56586 0.10090 0.19542
 H681 H 0.60979 0.10635 0.26346
 H682 H 0.56996 0.13608 0.23301
 H683 H 0.56816 0.06102 0.16269
 H684 H 0.60806 0.03152 0.19349
 C685 C 0.38723 0.06757 0.76918
 C686 C 0.39906 0.05506 0.79767
 C687 C 0.42181 0.07193 0.81516
 C688 C 0.34586 0.03511 0.73464
 C689 C 0.42084 0.11397 0.77569
 C690 C 0.39810 0.09707 0.75829
 C691 C 0.36453 0.04990 0.75064
 C692 C 0.43306 0.10154 0.80428
 H693 H 0.39086 0.03219 0.80626
 H694 H 0.43076 0.06170 0.83705
 H695 H 0.42897 0.13668 0.76665
 H696 H 0.38914 0.10694 0.73622
 C697 C 0.61077 0.76966 0.06684
 C698 C 0.60012 0.75866 0.09636
 C699 C 0.57745 0.77597 0.11344
 C700 C 0.65208 0.73536 0.03408
 C701 C 0.57613 0.81558 0.07155
 C702 C 0.59881 0.79818 0.05449
 C703 C 0.63344 0.75124 0.04900
 C704 C 0.56510 0.80458 0.10118
 H705 H 0.60918 0.73657 0.10610
 H706 H 0.56948 0.76684 0.13616
 H707 H 0.56708 0.83748 0.06144
 H708 H 0.60686 0.80686 0.03162
 C709 C 0.38804 0.23033 0.06619
 C710 C 0.39992 0.20180 0.05380
 C711 C 0.42252 0.18429 0.07087
 C712 C 0.34697 0.26492 0.03340
 C713 C 0.42126 0.22381 0.11286
 C714 C 0.39867 0.24123 0.09577
 C715 C 0.36550 0.24890 0.04832
 C716 C 0.43356 0.19520 0.10054
 H717 H 0.39189 0.19320 0.03087
 H718 H 0.43153 0.16239 0.06071
 H719 H 0.42923 0.23287 0.13561
 H720 H 0.38966 0.26332 0.10554
 C721 C 0.61123 0.23099 0.93301
 C722 C 0.59925 0.20258 0.94556
 C723 C 0.57649 0.18512 0.92864
 C724 C 0.65268 0.26543 0.96546
 C725 C 0.57776 0.22448 0.88651
 C726 C 0.60051 0.24184 0.90344
 C727 C 0.63397 0.24948 0.95069
 C728 C 0.56540 0.19597 0.89897
 H729 H 0.60734 0.19402 0.96848
 H730 H 0.56743 0.16330 0.93890
 H731 H 0.56975 0.23349 0.86375
 H732 H 0.60958 0.26384 0.89355
 C733 C 0.38792 0.77015 0.93456
 C734 C 0.39991 0.79862 0.94699
 C735 C 0.42258 0.81604 0.92997
 C736 C 0.34668 0.73576 0.96725
 C737 C 0.42119 0.77654 0.88795
 C738 C 0.39853 0.75922 0.90500
 C739 C 0.36529 0.75170 0.95238
 C740 C 0.43358 0.80510 0.90030
 H741 H 0.39189 0.80725 0.96991
 H742 H 0.43167 0.83790 0.94014
 H743 H 0.42913 0.76746 0.86520
 H744 H 0.38944 0.73717 0.89520
 C745 C 0.77008 0.93266 0.38862
 C746 C 0.79862 0.94508 0.40048
 C747 C 0.81609 0.92810 0.42317
 C748 C 0.73560 0.96530 0.34736
 C749 C 0.77649 0.88615 0.42207
 C750 C 0.75912 0.90315 0.39938
 C751 C 0.75157 0.95043 0.36597
 C752 C 0.80513 0.89849 0.43432
 H753 H 0.80727 0.96795 0.39234
 H754 H 0.83800 0.93827 0.43214
 H755 H 0.76739 0.86344 0.43013
 H756 H 0.73701 0.89336 0.39040
 C757 C 0.23051 0.93387 0.61192
 C758 C 0.20201 0.94625 0.59991
 C759 C 0.18465 0.92921 0.57719
 C760 C 0.26477 0.96664 0.65326
 C761 C 0.22428 0.88727 0.57856
 C762 C 0.24154 0.90433 0.60127
 C763 C 0.24890 0.95172 0.63461
 C764 C 0.19568 0.89956 0.56616
 H765 H 0.19330 0.96915 0.60795
 H766 H 0.16276 0.93934 0.56810
 H767 H 0.23343 0.86454 0.57060
 H768 H 0.26362 0.89457 0.61037
 C769 C 0.23082 0.06632 0.38925
 C770 C 0.20230 0.05392 0.40114
 C771 C 0.18485 0.07094 0.42380
 C772 C 0.26520 0.03361 0.34799
 C773 C 0.22443 0.11289 0.42262
 C774 C 0.24179 0.09585 0.39997
 C775 C 0.24929 0.04851 0.36661
 C776 C 0.19581 0.10058 0.43489
 H777 H 0.19364 0.03102 0.39305
 H778 H 0.16294 0.06079 0.43278
 H779 H 0.23353 0.13563 0.43063
 H780 H 0.26388 0.10563 0.39096
 C781 C 0.76954 0.06654 0.61143
 C782 C 0.79797 0.05392 0.59951
 C783 C 0.81542 0.07072 0.57671
 C784 C 0.73514 0.03427 0.65297
 C785 C 0.77603 0.11289 0.57780
 C786 C 0.75867 0.09607 0.60060
 C787 C 0.75108 0.04896 0.63422
 C788 C 0.80455 0.10036 0.56550
 H789 H 0.80655 0.03102 0.60769
 H790 H 0.83725 0.06041 0.56770
 H791 H 0.76701 0.13563 0.56971
 H792 H 0.73666 0.10601 0.60963
 C793 C 0.93338 0.61103 0.22984
 C794 C 0.94582 0.59922 0.20130
 C795 C 0.92880 0.57663 0.18375
 C796 C 0.96605 0.65214 0.26447
 C797 C 0.88676 0.57772 0.22322
 C798 C 0.90380 0.60030 0.24068
 C799 C 0.95118 0.63359 0.24843
 C800 C 0.89912 0.56552 0.19461
 H801 H 0.96874 0.60732 0.19274
 H802 H 0.93899 0.56769 0.16185
 H803 H 0.86400 0.56969 0.23224
 H804 H 0.89398 0.60924 0.26277
 C805 C 0.93357 0.38853 0.76868
 C806 C 0.94611 0.40050 0.79710
 C807 C 0.92918 0.42325 0.81454
 C808 C 0.96608 0.34710 0.73429
 C809 C 0.88702 0.42199 0.77515
 C810 C 0.90397 0.39925 0.75781
 C811 C 0.95128 0.36579 0.75022
 C812 C 0.89948 0.43434 0.80367
 H813 H 0.96905 0.39241 0.80568
 H814 H 0.93944 0.43230 0.83636
 H815 H 0.86425 0.43000 0.76612
 H816 H 0.89408 0.39018 0.73580
 C817 C 0.06684 0.61181 0.76986
 C818 C 0.05433 0.59984 0.79829
 C819 C 0.07135 0.57718 0.81577
 C820 C 0.03415 0.65295 0.73530
 C821 C 0.11351 0.57855 0.77644
 C822 C 0.09648 0.60119 0.75905
 C823 C 0.04903 0.63439 0.75132
 C824 C 0.10108 0.56618 0.80495
 H825 H 0.03136 0.60786 0.80683
 H826 H 0.06111 0.56812 0.83759
 H827 H 0.13631 0.57060 0.76745
 H828 H 0.10634 0.61026 0.73704
 C829 C 0.06725 0.38817 0.22983
 C830 C 0.05463 0.40027 0.20149
 C831 C 0.07150 0.42311 0.18414
 C832 C 0.03488 0.34659 0.26410
 C833 C 0.11372 0.42170 0.22345
 C834 C 0.09685 0.39887 0.24070
 C835 C 0.04962 0.36535 0.24822
 C836 C 0.10119 0.43418 0.19502
 H837 H 0.03169 0.39219 0.19292
 H838 H 0.06118 0.43226 0.16238
 H839 H 0.13650 0.42969 0.23248
 H840 H 0.10679 0.38971 0.26265
   
