data_POSCAR
  _audit_creation_date              2014-09-24
  _audit_creation_method            'ToBaCCo'
  _symmetry_space_group_name_H-M    'P1'
  _symmetry_Int_Tables_number       1
  _symmetry_cell_setting            triclinic
  loop_
  _symmetry_equiv_pos_as_xyz
 x,y,z
_cell_length_a 57.4001
_cell_length_b 57.4333
_cell_length_c 57.4157
_cell_angle_alpha 90.002200
_cell_angle_beta 89.962900
_cell_angle_gamma 90.066000
loop_
  _atom_site_label
  _atom_site_type_symbol
  _atom_site_fract_x
  _atom_site_fract_y
  _atom_site_fract_z
C1 C 0.38408 0.28197 0.01098
 C2 C 0.38405 0.28206 -0.01290
 C3 C 0.36426 0.29412 -0.01977
 N4 N 0.35218 0.30121 -0.00085
 C5 C 0.36434 0.29399 0.01797
 C6 C 0.35698 0.29713 -0.04311
 C7 C 0.33787 0.31116 -0.04981
 C8 C 0.32783 0.31122 -0.07181
 C9 C 0.31097 0.32821 -0.07170
 C10 C 0.31112 0.33812 -0.04963
 N11 N 0.32765 0.32769 -0.03649
 C12 C 0.29728 0.35729 -0.04271
 C13 C 0.29446 0.36441 -0.01930
 C14 C 0.28257 0.38422 -0.01218
 C15 C 0.28263 0.38406 0.01170
 C16 C 0.29456 0.36420 0.01844
 N17 N 0.30158 0.35214 -0.00052
 C18 C 0.29753 0.35687 0.04173
 C19 C 0.31145 0.33776 0.04845
 C20 C 0.31155 0.32787 0.07050
 C21 C 0.32844 0.31089 0.07039
 C22 C 0.33821 0.31087 0.04828
 N23 N 0.32785 0.32739 0.03509
 C24 C 0.35720 0.29687 0.04133
 H25 H 0.39705 0.27381 0.02194
 H26 H 0.39700 0.27395 -0.02395
 H27 H 0.33352 0.33313 0.01893
 H28 H 0.33237 0.30033 -0.08651
 H29 H 0.30002 0.33293 -0.08629
 H30 H 0.27449 0.39730 -0.02307
 H31 H 0.27463 0.39701 0.02282
 H32 H 0.33318 0.29998 0.08501
 H33 H 0.33353 0.33341 -0.02039
 H34 H 0.30075 0.33257 0.08522
 C35 C 0.73265 0.62998 -0.01160
 C36 C 0.73255 0.62996 0.01228
 C37 C 0.71296 0.64231 0.01914
 N38 N 0.70106 0.64973 0.00024
 C39 C 0.71310 0.64234 -0.01861
 C40 C 0.70552 0.64498 0.04243
 C41 C 0.68661 0.65914 0.04931
 C42 C 0.67644 0.65884 0.07124
 C43 C 0.65948 0.67575 0.07126
 C44 C 0.65975 0.68593 0.04935
 N45 N 0.67649 0.67586 0.03618
 C46 C 0.64552 0.70479 0.04250
 C47 C 0.64285 0.71220 0.01921
 C48 C 0.63040 0.73169 0.01232
 C49 C 0.63050 0.73177 -0.01157
 C50 C 0.64301 0.71232 -0.01851
 N51 N 0.65042 0.70034 0.00033
 C52 C 0.64582 0.70503 -0.04183
 C53 C 0.66003 0.68617 -0.04874
 C54 C 0.65977 0.67609 -0.07070
 C55 C 0.67668 0.65915 -0.07076
 C56 C 0.68686 0.65931 -0.04882
 N57 N 0.67673 0.67600 -0.03561
 C58 C 0.70578 0.64507 -0.04197
 H59 H 0.74546 0.62155 -0.02257
 H60 H 0.74527 0.62152 0.02333
 H61 H 0.68255 0.68179 -0.01952
 H62 H 0.68084 0.64767 0.08577
 H63 H 0.64831 0.68012 0.08581
 H64 H 0.62184 0.74436 0.02334
 H65 H 0.62202 0.74451 -0.02257
 H66 H 0.68107 0.64805 -0.08535
 H67 H 0.68236 0.68171 0.02011
 H68 H 0.64862 0.68055 -0.08523
 C69 C 0.73333 0.36906 1.01189
 C70 C 0.73320 0.36906 0.98800
 C71 C 0.71356 0.35673 0.98121
 N72 N 0.70166 0.34933 1.00015
 C73 C 0.71375 0.35672 1.01895
 C74 C 0.70606 0.35407 0.95795
 C75 C 0.68708 0.33994 0.95113
 C76 C 0.67685 0.34027 0.92925
 C77 C 0.65982 0.32339 0.92929
 C78 C 0.66011 0.31320 0.95120
 N79 N 0.67693 0.32324 0.96430
 C80 C 0.64581 0.29437 0.95810
 C81 C 0.64315 0.28697 0.98140
 C82 C 0.63060 0.26753 0.98834
 C83 C 0.63073 0.26747 1.01223
 C84 C 0.64335 0.28689 1.01911
 N85 N 0.65080 0.29884 1.00024
 C86 C 0.64622 0.29420 1.04241
 C87 C 0.66053 0.31304 1.04926
 C88 C 0.66033 0.32315 1.07120
 C89 C 0.67731 0.34006 1.07120
 C90 C 0.68748 0.33984 1.04924
 N91 N 0.67727 0.32315 1.03608
 C92 C 0.70644 0.35403 1.04233
 H93 H 0.74619 0.37748 1.02281
 H94 H 0.74593 0.37748 0.97691
 H95 H 0.68305 0.31731 1.01998
 H96 H 0.68125 0.35143 0.91471
 H97 H 0.64859 0.31905 0.91479
 H98 H 0.62196 0.25488 0.97734
 H99 H 0.62220 0.25478 1.02326
 H100 H 0.68176 0.35117 1.08576
 H101 H 0.68281 0.31736 0.98035
 H102 H 0.64918 0.31875 1.08576
 C103 C 0.26685 0.63103 1.01283
 C104 C 0.26685 0.63111 0.98895
 C105 C 0.28638 0.64358 0.98207
 N106 N 0.29834 0.65099 1.00095
 C107 C 0.28640 0.64346 1.01981
 C108 C 0.29376 0.64634 0.95878
 C109 C 0.31261 0.66062 0.95191
 C110 C 0.32280 0.66039 0.92999
 C111 C 0.33968 0.67742 0.92999
 C112 C 0.33935 0.68759 0.95191
 N113 N 0.32265 0.67739 0.96506
 C114 C 0.35345 0.70655 0.95876
 C115 C 0.35606 0.71398 0.98205
 C116 C 0.36829 0.73364 0.98892
 C117 C 0.36830 0.73367 1.01281
 C118 C 0.35608 0.71399 1.01979
 N119 N 0.34874 0.70196 1.00093
 C120 C 0.35352 0.70651 1.04311
 C121 C 0.33949 0.68741 1.04995
 C122 C 0.33997 0.67704 1.07180
 C123 C 0.32315 0.65999 1.07180
 C124 C 0.31278 0.66034 1.04996
 N125 N 0.32272 0.67725 1.03685
 C126 C 0.29386 0.64607 1.04313
 H127 H 0.25411 0.62248 1.02381
 H128 H 0.25412 0.62265 0.97791
 H129 H 0.31672 0.68317 1.02087
 H130 H 0.31845 0.64921 0.91545
 H131 H 0.35083 0.68187 0.91545
 H132 H 0.37665 0.74646 0.97789
 H133 H 0.37668 0.74650 1.02379
 H134 H 0.31893 0.64870 1.08630
 H135 H 0.31676 0.68321 0.98114
 H136 H 0.35121 0.68141 1.08629
 C137 C -0.01184 0.38409 0.28246
 C138 C 0.01205 0.38405 0.28261
 C139 C 0.01882 0.36425 0.29464
 N140 N -0.00014 0.35213 0.30165
 C141 C -0.01894 0.36429 0.29441
 C142 C 0.04213 0.35703 0.29771
 C143 C 0.04885 0.33794 0.31168
 C144 C 0.07091 0.32810 0.31184
 C145 C 0.07077 0.31109 0.32871
 C146 C 0.04863 0.31100 0.33842
 N147 N 0.03545 0.32751 0.32803
 C148 C 0.04164 0.29695 0.35737
 C149 C 0.01827 0.29405 0.36451
 C150 C 0.01128 0.28202 0.38426
 C151 C -0.01261 0.28208 0.38424
 C152 C -0.01949 0.29415 0.36445
 N153 N -0.00056 0.30126 0.35235
 C154 C -0.04283 0.29713 0.35717
 C155 C -0.04952 0.31110 0.33800
 C156 C -0.07150 0.31110 0.32792
 C157 C -0.07136 0.32802 0.31098
 C158 C -0.04929 0.33796 0.31111
 N159 N -0.03617 0.32761 0.32772
 C160 C -0.04235 0.35708 0.29718
 H161 H -0.02275 0.39709 0.27428
 H162 H 0.02315 0.39701 0.27458
 H163 H -0.02007 0.33337 0.33358
 H164 H 0.08566 0.33285 0.30108
 H165 H 0.08540 0.30021 0.33348
 H166 H 0.02223 0.27386 0.39723
 H167 H -0.02366 0.27397 0.39719
 H168 H -0.08594 0.33267 0.29998
 H169 H 0.01925 0.33320 0.33365
 H170 H -0.08621 0.30020 0.33249
 C171 C -0.01180 0.71751 0.61602
 C172 C 0.01209 0.71748 0.61607
 C173 C 0.01892 0.70551 0.63589
 N174 N -0.00000 0.69844 0.64803
 C175 C -0.01883 0.70557 0.63584
 C176 C 0.04224 0.70255 0.64311
 C177 C 0.04905 0.68858 0.66218
 C178 C 0.07114 0.68846 0.67196
 C179 C 0.07110 0.67154 0.68893
 C180 C 0.04898 0.66178 0.68905
 N181 N 0.03572 0.67217 0.67260
 C182 C 0.04208 0.64278 0.70308
 C183 C 0.01872 0.63564 0.70608
 C184 C 0.01178 0.61590 0.71815
 C185 C -0.01211 0.61593 0.71820
 C186 C -0.01903 0.63571 0.70616
 N187 N -0.00013 0.64779 0.69896
 C188 C -0.04239 0.64298 0.70327
 C189 C -0.04915 0.66208 0.68925
 C190 C -0.07115 0.67211 0.68928
 C191 C -0.07111 0.68896 0.67227
 C192 C -0.04908 0.68884 0.66227
 N193 N -0.03589 0.67232 0.67265
 C194 C -0.04223 0.70270 0.64306
 H195 H -0.02274 0.72560 0.60299
 H196 H 0.02316 0.72552 0.60308
 H197 H -0.01980 0.66647 0.66687
 H198 H 0.08586 0.69926 0.66719
 H199 H 0.08577 0.66679 0.69976
 H200 H 0.02277 0.60293 0.72626
 H201 H -0.02312 0.60298 0.72637
 H202 H -0.08573 0.69990 0.66761
 H203 H 0.01952 0.66651 0.66694
 H204 H -0.08581 0.66755 0.70024
 C205 C 1.01260 0.61575 0.28270
 C206 C 0.98871 0.61559 0.28266
 C207 C 0.98165 0.63524 0.29478
 N208 N 1.00043 0.64747 0.30203
 C209 C 1.01938 0.63550 0.29485
 C210 C 0.95826 0.64224 0.29775
 C211 C 0.95129 0.66122 0.31176
 C212 C 0.92915 0.67088 0.31183
 C213 C 0.92905 0.68786 0.32874
 C214 C 0.95113 0.68812 0.33855
 N215 N 0.96450 0.67173 0.32820
 C216 C 0.95789 0.70219 0.35757
 C217 C 0.98119 0.70532 0.36482
 C218 C 0.98794 0.71743 0.38460
 C219 C 1.01183 0.71758 0.38471
 C220 C 1.01895 0.70555 0.36498
 N221 N 1.00016 0.69826 0.35278
 C222 C 1.04237 0.70270 0.35787
 C223 C 1.04931 0.68872 0.33879
 C224 C 1.07140 0.68875 0.32892
 C225 C 1.07146 0.67182 0.31197
 C226 C 1.04942 0.66189 0.31191
 N227 N 1.03611 0.67219 0.32839
 C228 C 1.04268 0.64283 0.29788
 H229 H 1.02370 0.60290 0.27453
 H230 H 0.97779 0.60259 0.27445
 H231 H 1.01996 0.66639 0.33408
 H232 H 0.91450 0.66604 0.30099
 H233 H 0.91431 0.69861 0.33345
 H234 H 0.97682 0.72550 0.39750
 H235 H 1.02272 0.72579 0.39773
 H236 H 1.08616 0.66719 0.30110
 H237 H 0.98071 0.66618 0.33391
 H238 H 1.08605 0.69967 0.33362
 C239 C 0.98784 0.28270 0.61507
 C240 C 1.01173 0.28249 0.61499
 C241 C 1.01885 0.29456 0.63469
 N242 N 1.00007 0.30194 0.64683
 C243 C 0.98109 0.29490 0.63479
 C244 C 1.04228 0.29736 0.64182
 C245 C 1.04923 0.31138 0.66087
 C246 C 1.07131 0.31133 0.67077
 C247 C 1.07141 0.32830 0.68768
 C248 C 1.04941 0.33827 0.68770
 N249 N 1.03609 0.32797 0.67122
 C250 C 1.04271 0.35737 0.70170
 C251 C 1.01944 0.36475 0.70469
 C252 C 1.01272 0.38451 0.71685
 C253 C 0.98882 0.38471 0.71688
 C254 C 0.98171 0.36508 0.70474
 N255 N 1.00045 0.35282 0.69750
 C256 C 0.95829 0.35812 0.70177
 C257 C 0.95126 0.33916 0.68774
 C258 C 0.92907 0.32956 0.68765
 C259 C 0.92893 0.31256 0.67075
 C260 C 0.95104 0.31223 0.66097
 N261 N 0.96446 0.32860 0.67132
 C262 C 0.95778 0.29809 0.64200
 H263 H 0.97672 0.27462 0.60217
 H264 H 1.02261 0.27420 0.60202
 H265 H 0.98071 0.33410 0.66564
 H266 H 1.08591 0.30037 0.66611
 H267 H 1.08610 0.33292 0.69856
 H268 H 1.02386 0.39733 0.72503
 H269 H 0.97794 0.39773 0.72508
 H270 H 0.91415 0.30183 0.66604
 H271 H 1.01997 0.33378 0.66551
 H272 H 0.91442 0.33444 0.69847
 C273 C 0.26675 0.01062 0.36903
 C274 C 0.26680 -0.01326 0.36895
 C275 C 0.28644 -0.02010 0.35659
 N276 N 0.29838 -0.00117 0.34926
 C277 C 0.28633 0.01763 0.35672
 C278 C 0.29396 -0.04338 0.35389
 C279 C 0.31300 -0.05009 0.33972
 C280 C 0.32340 -0.07190 0.34004
 C281 C 0.34035 -0.07177 0.32311
 C282 C 0.33990 -0.04988 0.31285
 N283 N 0.32303 -0.03688 0.32296
 C284 C 0.35405 -0.04292 0.29388
 C285 C 0.35658 -0.01956 0.28652
 C286 C 0.36888 -0.01244 0.26694
 C287 C 0.36875 0.01143 0.26706
 C288 C 0.35637 0.01817 0.28668
 N289 N 0.34908 -0.00079 0.29859
 C290 C 0.35360 0.04141 0.29417
 C291 C 0.33939 0.04814 0.31311
 C292 C 0.33960 0.07002 0.32335
 C293 C 0.32265 0.06989 0.34031
 C294 C 0.31255 0.04794 0.33996
 N295 N 0.32271 0.03489 0.32318
 C296 C 0.29367 0.04095 0.35414
 H297 H 0.25395 0.02156 0.37749
 H298 H 0.25404 -0.02432 0.37735
 H299 H 0.31691 0.01882 0.31728
 H300 H 0.31913 -0.08647 0.35123
 H301 H 0.35164 -0.08622 0.31876
 H302 H 0.37738 -0.02333 0.25411
 H303 H 0.37712 0.02256 0.25433
 H304 H 0.31820 0.08437 0.35152
 H305 H 0.31704 -0.02089 0.31707
 H306 H 0.35071 0.08462 0.31899
 C307 C 0.61586 -0.01175 0.71870
 C308 C 0.61594 0.01212 0.71852
 C309 C 0.63571 0.01891 0.70640
 N310 N 0.64780 -0.00003 0.69937
 C311 C 0.63562 -0.01883 0.70668
 C312 C 0.64293 0.04222 0.70323
 C313 C 0.66193 0.04900 0.68912
 C314 C 0.67168 0.07111 0.68881
 C315 C 0.68859 0.07103 0.67181
 C316 C 0.68872 0.04886 0.66220
 N317 N 0.67231 0.03562 0.67275
 C318 C 0.70274 0.04189 0.64321
 C319 C 0.70578 0.01851 0.63626
 C320 C 0.71793 0.01144 0.61662
 C321 C 0.71795 -0.01244 0.61684
 C322 C 0.70582 -0.01920 0.63661
 N323 N 0.69859 -0.00025 0.64854
 C324 C 0.70284 -0.04247 0.64400
 C325 C 0.68882 -0.04920 0.66308
 C326 C 0.68879 -0.07120 0.67305
 C327 C 0.67182 -0.07116 0.68998
 C328 C 0.66190 -0.04911 0.68991
 N329 N 0.67229 -0.03593 0.67336
 C330 C 0.64278 -0.04222 0.70386
 H331 H 0.60286 -0.02266 0.72693
 H332 H 0.60300 0.02321 0.72658
 H333 H 0.66657 -0.01983 0.66753
 H334 H 0.66694 0.08586 0.69953
 H335 H 0.69939 0.08570 0.66692
 H336 H 0.72611 0.02234 0.60358
 H337 H 0.72616 -0.02355 0.60400
 H338 H 0.66714 -0.08578 0.70093
 H339 H 0.66665 0.01939 0.66724
 H340 H 0.69970 -0.08586 0.66844
 C341 C 0.28304 0.98835 0.61534
 C342 C 0.28288 1.01223 0.61531
 C343 C 0.29485 1.01929 0.63510
 N344 N 0.30212 1.00049 0.64724
 C345 C 0.29510 0.98156 0.63511
 C346 C 0.29762 1.04268 0.64233
 C347 C 0.31160 1.04960 0.66142
 C348 C 0.31148 1.07163 0.67138
 C349 C 0.32846 1.07176 0.68826
 C350 C 0.33854 1.04979 0.68822
 N351 N 0.32823 1.03648 0.67172
 C352 C 0.35773 1.04309 0.70216
 C353 C 0.36500 1.01975 0.70513
 C354 C 0.38480 1.01287 0.71717
 C355 C 0.38480 0.98899 0.71724
 C356 C 0.36504 0.98202 0.70523
 N357 N 0.35289 1.00084 0.69803
 C358 C 0.35789 0.95866 0.70235
 C359 C 0.33891 0.95170 0.68831
 C360 C 0.32919 0.92957 0.68823
 C361 C 0.31230 0.92945 0.67123
 C362 C 0.31216 0.95151 0.66139
 N363 N 0.32853 0.96489 0.67180
 C364 C 0.29817 0.95826 0.64232
 H365 H 0.27500 0.97728 0.60237
 H366 H 0.27468 1.02314 0.60232
 H367 H 0.33416 0.98108 0.66611
 H368 H 0.30047 1.08621 0.66676
 H369 H 0.33305 1.08644 0.69916
 H370 H 0.39777 1.02390 0.72528
 H371 H 0.39778 0.97803 0.72539
 H372 H 0.30153 0.91471 0.66649
 H373 H 0.33408 1.02040 0.66595
 H374 H 0.33395 0.91494 0.69911
 C375 C 0.61578 1.01136 0.28304
 C376 C 0.61578 0.98748 0.28307
 C377 C 0.63548 0.98060 0.29522
 N378 N 0.64758 0.99948 0.30241
 C379 C 0.63549 1.01831 0.29516
 C380 C 0.64264 0.95729 0.29826
 C381 C 0.66162 0.95047 0.31233
 C382 C 0.67138 0.92838 0.31252
 C383 C 0.68831 0.92842 0.32948
 C384 C 0.68845 0.95054 0.33919
 N385 N 0.67203 0.96379 0.32875
 C386 C 0.70248 0.95745 0.35819
 C387 C 0.70552 0.98080 0.36529
 C388 C 0.71763 0.98772 0.38501
 C389 C 0.71770 1.01160 0.38496
 C390 C 0.70563 1.01853 0.36520
 N391 N 0.69840 0.99965 0.35313
 C392 C 0.70271 1.04189 0.35794
 C393 C 0.68866 1.04866 0.33886
 C394 C 0.68857 1.07070 0.32889
 C395 C 0.67158 1.07062 0.31200
 C396 C 0.66174 1.04855 0.31206
 N397 N 0.67214 1.03536 0.32857
 C398 C 0.64268 1.04165 0.29810
 H399 H 0.60286 1.02234 0.27483
 H400 H 0.60285 0.97645 0.27490
 H401 H 0.66642 1.01922 0.33435
 H402 H 0.66662 0.91367 0.30173
 H403 H 0.69912 0.91375 0.33427
 H404 H 0.72574 0.97673 0.39798
 H405 H 0.72589 1.02260 0.39789
 H406 H 0.66686 1.08523 0.30108
 H407 H 0.66639 0.97999 0.33437
 H408 H 0.69945 1.08540 0.33349
 O409 O 0.84891 0.81618 0.47829
 O410 O 0.81707 0.84818 0.52373
 O411 O 0.84916 0.81612 0.52350
 O412 O 0.81686 0.84828 0.47852
 O413 O 0.78954 0.82109 0.47857
 O414 O 0.82193 0.78884 0.52366
 O415 O 0.78976 0.82099 0.52389
 O416 O 0.82167 0.78891 0.47834
 Cu417 Cu 0.83574 0.83493 0.50100
 Cu418 Cu 0.80297 0.80220 0.50113
 C419 C 0.84075 0.79709 0.47073
 C420 C 0.79798 0.84008 0.53138
 C421 C 0.84109 0.79700 0.53108
 C422 C 0.79770 0.84021 0.47104
 O423 O 0.18224 0.14994 0.52324
 O424 O 0.15003 0.18181 0.47796
 O425 O 0.18196 0.14957 0.47801
 O426 O 0.15019 0.18209 0.52316
 O427 O 0.17749 0.20929 0.52287
 O428 O 0.20936 0.17666 0.47760
 O429 O 0.17736 0.20899 0.47757
 O430 O 0.20963 0.17705 0.52294
 Cu431 Cu 0.16336 0.16312 0.50063
 Cu432 Cu 0.19623 0.19574 0.50022
 C433 C 0.20143 0.15802 0.53063
 C434 C 0.15817 0.20084 0.47021
 C435 C 0.20106 0.15754 0.47025
 C436 C 0.15836 0.20125 0.53053
 O437 O 0.18307 0.84895 0.47694
 O438 O 0.15132 0.81689 0.52246
 O439 O 0.18344 0.84901 0.52217
 O440 O 0.15096 0.81683 0.47726
 O441 O 0.17816 0.78959 0.47700
 O442 O 0.21072 0.82185 0.52202
 O443 O 0.17851 0.78964 0.52231
 O444 O 0.21035 0.82179 0.47668
 Cu445 Cu 0.16446 0.83566 0.49973
 Cu446 Cu 0.19719 0.80297 0.49949
 C447 C 0.20212 0.84087 0.46920
 C448 C 0.15945 0.79779 0.52997
 C449 C 0.20261 0.84095 0.52959
 C450 C 0.15898 0.79772 0.46964
 O451 O 0.84870 0.18334 0.52190
 O452 O 0.81674 0.15099 0.47676
 O453 O 0.84872 0.18326 0.47668
 O454 O 0.81676 0.15105 0.52197
 O455 O 0.78934 0.17808 0.52200
 O456 O 0.82140 0.21038 0.47661
 O457 O 0.78933 0.17802 0.47668
 O458 O 0.82137 0.21045 0.52193
 Cu459 Cu 0.83548 0.16444 0.49933
 Cu460 Cu 0.80259 0.19697 0.49930
 C461 C 0.84052 0.20241 0.52945
 C462 C 0.79758 0.15895 0.46920
 C463 C 0.84056 0.20232 0.46910
 C464 C 0.79760 0.15903 0.52954
 O465 O 0.52278 0.81790 0.85019
 O466 O 0.47771 0.85003 0.81797
 O467 O 0.47753 0.81811 0.85024
 O468 O 0.52292 0.84988 0.81799
 O469 O 0.52285 0.82259 0.79082
 O470 O 0.47734 0.79071 0.82317
 O471 O 0.47754 0.82272 0.79082
 O472 O 0.52270 0.79051 0.82311
 Cu473 Cu 0.50025 0.83672 0.83683
 Cu474 Cu 0.50010 0.80386 0.80425
 C475 C 0.53028 0.79874 0.84217
 C476 C 0.47012 0.84189 0.79889
 C477 C 0.46984 0.79901 0.84224
 C478 C 0.53045 0.84171 0.79890
 O479 O 0.47720 0.15014 0.18260
 O480 O 0.52270 0.18214 0.15075
 O481 O 0.52243 0.15012 0.18291
 O482 O 0.47748 0.18219 0.15048
 O483 O 0.47728 0.20950 0.17764
 O484 O 0.52234 0.17736 0.21015
 O485 O 0.52262 0.20946 0.17790
 O486 O 0.47700 0.17736 0.20985
 Cu487 Cu 0.49997 0.16340 0.16395
 Cu488 Cu 0.49980 0.19618 0.19664
 C489 C 0.46950 0.15825 0.20165
 C490 C 0.53026 0.20125 0.15886
 C491 C 0.52989 0.15824 0.20205
 C492 C 0.46988 0.20131 0.15849
 O493 O 0.52191 0.15136 0.81686
 O494 O 0.47652 0.18344 0.84869
 O495 O 0.47669 0.15145 0.81649
 O496 O 0.52175 0.18327 0.84911
 O497 O 0.52218 0.21066 0.82204
 O498 O 0.47700 0.17874 0.78931
 O499 O 0.47683 0.21082 0.82160
 O500 O 0.52233 0.17866 0.78970
 Cu501 Cu 0.49917 0.16463 0.83552
 Cu502 Cu 0.49962 0.19749 0.80292
 C503 C 0.52970 0.15951 0.79786
 C504 C 0.46910 0.20260 0.84061
 C505 C 0.46934 0.15962 0.79734
 C506 C 0.52950 0.20238 0.84117
 O507 O 0.47690 0.81754 0.15044
 O508 O 0.52228 0.84914 0.18284
 O509 O 0.52215 0.81718 0.15061
 O510 O 0.47705 0.84958 0.18257
 O511 O 0.47657 0.82233 0.20979
 O512 O 0.52178 0.78983 0.17772
 O513 O 0.52191 0.82188 0.21004
 O514 O 0.47643 0.79021 0.17757
 Cu515 Cu 0.49964 0.83610 0.16388
 Cu516 Cu 0.49913 0.80330 0.19652
 C517 C 0.46907 0.79850 0.15846
 C518 C 0.52966 0.84094 0.20197
 C519 C 0.52950 0.79799 0.15867
 C520 C 0.46927 0.84152 0.20162
 O521 O 0.81787 0.47799 0.84963
 O522 O 0.84961 0.52351 0.81756
 O523 O 0.81771 0.52321 0.84990
 O524 O 0.84980 0.47832 0.81733
 O525 O 0.82243 0.47828 0.79024
 O526 O 0.79025 0.52328 0.82289
 O527 O 0.82224 0.52358 0.79047
 O528 O 0.79041 0.47795 0.82263
 Cu529 Cu 0.83650 0.50076 0.83633
 Cu530 Cu 0.80356 0.50077 0.80383
 C531 C 0.79874 0.47036 0.84163
 C532 C 0.84139 0.53113 0.79853
 C533 C 0.79852 0.53075 0.84198
 C534 C 0.84163 0.47082 0.79823
 O535 O 0.18356 0.47731 0.15117
 O536 O 0.15158 0.52255 0.18330
 O537 O 0.18348 0.52252 0.15100
 O538 O 0.15157 0.47735 0.18341
 O539 O 0.17890 0.47743 0.21054
 O540 O 0.21091 0.52272 0.17803
 O541 O 0.17893 0.52274 0.21042
 O542 O 0.21098 0.47740 0.17821
 Cu543 Cu 0.16480 0.49991 0.16449
 Cu544 Cu 0.19770 0.50008 0.19704
 C545 C 0.20271 0.46980 0.15918
 C546 C 0.15977 0.53019 0.20234
 C547 C 0.20261 0.53018 0.15896
 C548 C 0.15975 0.46987 0.20250
 O549 O 0.84991 0.47641 0.18259
 O550 O 0.81790 0.52162 0.15046
 O551 O 0.84984 0.52160 0.18271
 O552 O 0.81801 0.47640 0.15030
 O553 O 0.79056 0.47618 0.17734
 O554 O 0.82248 0.52149 0.20985
 O555 O 0.79046 0.52150 0.17751
 O556 O 0.82254 0.47619 0.20972
 Cu557 Cu 0.83667 0.49902 0.16378
 Cu558 Cu 0.80373 0.49882 0.19634
 C559 C 0.84173 0.46877 0.20165
 C560 C 0.79873 0.52912 0.15848
 C561 C 0.84163 0.52908 0.20181
 C562 C 0.79887 0.46874 0.15826
 O563 O 0.18294 0.52228 0.84964
 O564 O 0.15147 0.47695 0.81708
 O565 O 0.18335 0.47707 0.84939
 O566 O 0.15109 0.52214 0.81733
 O567 O 0.17849 0.52261 0.79024
 O568 O 0.21084 0.47744 0.82238
 O569 O 0.17887 0.47732 0.78998
 O570 O 0.21043 0.52276 0.82263
 Cu571 Cu 0.16446 0.49956 0.83609
 Cu572 Cu 0.19744 0.50007 0.80357
 C573 C 0.20204 0.53010 0.84172
 C574 C 0.15976 0.46958 0.79797
 C575 C 0.20259 0.46973 0.84139
 C576 C 0.15925 0.52990 0.79832
 C577 C 0.26252 0.39465 0.09084
 N578 N 0.23897 0.39335 0.09227
 N579 N 0.22730 0.40727 0.10671
 C580 C 0.23882 0.42290 0.12016
 N581 N 0.26238 0.42416 0.11878
 N582 N 0.27406 0.41024 0.10433
 C583 C 0.27493 0.38076 0.07421
 C584 C 0.28525 0.36962 0.05972
 C585 C 0.22616 0.43889 0.13457
 C586 C 0.21547 0.45277 0.14612
 C587 C 0.73954 0.60530 0.09073
 N588 N 0.72792 0.58887 0.10312
 N589 N 0.73940 0.57462 0.11738
 C590 C 0.76286 0.57638 0.11967
 N591 N 0.77447 0.59284 0.10732
 N592 N 0.76298 0.60709 0.09307
 C593 C 0.72738 0.61973 0.07438
 C594 C 0.71735 0.63143 0.06013
 C595 C 0.77539 0.56018 0.13397
 C596 C 0.78601 0.54620 0.14546
 C597 C 0.73997 0.39378 0.90950
 N598 N 0.72823 0.40988 0.89684
 N599 N 0.73964 0.42418 0.88254
 C600 C 0.76314 0.42281 0.88047
 N601 N 0.77487 0.40668 0.89309
 N602 N 0.76346 0.39238 0.90739
 C603 C 0.72787 0.37933 0.92591
 C604 C 0.71788 0.36762 0.94021
 C605 C 0.77557 0.43910 0.86614
 C606 C 0.78611 0.45317 0.85464
 C607 C 0.26010 0.60654 0.91028
 N608 N 0.23658 0.60763 0.90833
 N609 N 0.22530 0.59334 0.89392
 C610 C 0.23721 0.57754 0.88102
 N611 N 0.26073 0.57648 0.88293
 N612 N 0.27201 0.59077 0.89735
 C613 C 0.27207 0.62100 0.92675
 C614 C 0.28199 0.63274 0.94106
 C615 C 0.22494 0.56129 0.86653
 C616 C 0.21453 0.54725 0.85490
 C617 C 0.09019 0.26122 0.39519
 N618 N 0.09069 0.23762 0.39447
 N619 N 0.10499 0.22576 0.40837
 C620 C 0.11923 0.23715 0.42340
 N621 N 0.11877 0.26075 0.42407
 N622 N 0.10447 0.27261 0.41017
 C623 C 0.07376 0.27389 0.38130
 C624 C 0.05944 0.28442 0.37015
 C625 C 0.13357 0.22435 0.43935
 C626 C 0.14509 0.21360 0.45320
 C627 C 0.09127 0.73769 0.60521
 N628 N 0.09280 0.76121 0.60665
 N629 N 0.10724 0.77293 0.59273
 C630 C 0.12058 0.76148 0.57696
 N631 N 0.11910 0.73795 0.57556
 N632 N 0.10466 0.72623 0.58948
 C633 C 0.07466 0.72523 0.61912
 C634 C 0.06019 0.71487 0.63029
 C635 C 0.13498 0.77421 0.56096
 C636 C 0.14648 0.78496 0.54706
 C637 C 0.90879 0.73723 0.39534
 N638 N 0.90748 0.76077 0.39411
 N639 N 0.89307 0.77245 0.40806
 C640 C 0.87954 0.76094 0.42365
 N641 N 0.88080 0.73739 0.42483
 N642 N 0.89521 0.72571 0.41088
 C643 C 0.92540 0.72481 0.38144
 C644 C 0.93990 0.71448 0.37031
 C645 C 0.86518 0.77362 0.43969
 C646 C 0.85371 0.78432 0.45362
 C647 C 0.90867 0.26288 0.60434
 N648 N 0.90708 0.23937 0.60594
 N649 N 0.89266 0.22759 0.59208
 C650 C 0.87941 0.23895 0.57618
 N651 N 0.88096 0.26247 0.57462
 N652 N 0.89538 0.27425 0.58848
 C653 C 0.92528 0.27539 0.61819
 C654 C 0.93978 0.28577 0.62929
 C655 C 0.86503 0.22614 0.56026
 C656 C 0.85352 0.21532 0.54642
 C657 C 0.39313 0.09010 0.26039
 N658 N 0.39149 0.09248 0.23695
 N659 N 0.40574 0.10687 0.22557
 C660 C 0.42205 0.11932 0.23729
 N661 N 0.42365 0.11698 0.26074
 N662 N 0.40941 0.10259 0.27212
 C663 C 0.37874 0.07359 0.27243
 C664 C 0.36709 0.05922 0.28238
 C665 C 0.43829 0.13371 0.22487
 C666 C 0.45233 0.14524 0.21432
 C667 C 0.60507 0.09127 0.73820
 N668 N 0.60619 0.09257 0.76176
 N669 N 0.59223 0.10700 0.77341
 C670 C 0.57674 0.12055 0.76186
 N671 N 0.57566 0.11930 0.73829
 N672 N 0.58962 0.10487 0.72664
 C673 C 0.61899 0.07466 0.72581
 C674 C 0.63015 0.06019 0.71550
 C675 C 0.56071 0.13495 0.77449
 C676 C 0.54678 0.14648 0.78515
 C677 C 0.39557 0.91004 0.73811
 N678 N 0.41088 0.89607 0.72678
 N679 N 0.42468 0.88172 0.73868
 C680 C 0.42359 0.88090 0.76227
 N681 N 0.40825 0.89482 0.77359
 N682 N 0.39444 0.90918 0.76169
 C683 C 0.38175 0.92652 0.72542
 C684 C 0.37065 0.94086 0.71488
 C685 C 0.43944 0.86651 0.77514
 C686 C 0.45321 0.85497 0.78599
 C687 C 0.60484 0.90848 0.26277
 N688 N 0.58904 0.89504 0.27408
 N689 N 0.57512 0.88074 0.26221
 C690 C 0.57659 0.87946 0.23867
 N691 N 0.59244 0.89286 0.22736
 N692 N 0.60636 0.90716 0.23923
 C693 C 0.61874 0.92498 0.27538
 C694 C 0.62988 0.93938 0.28584
 C695 C 0.56060 0.86521 0.22579
 C696 C 0.54671 0.85382 0.21492
 C697 C 0.39391 0.26266 0.90869
 N698 N 0.40950 0.27413 0.89513
 N699 N 0.42340 0.26241 0.88070
 C700 C 0.42212 0.23886 0.87941
 N701 N 0.40649 0.22740 0.89293
 N702 N 0.39260 0.23912 0.90736
 C703 C 0.38008 0.27512 0.92534
 C704 C 0.36901 0.28548 0.93987
 C705 C 0.43812 0.22614 0.86505
 C706 C 0.45203 0.21541 0.85357
 C707 C 0.60628 0.73926 0.90990
 N708 N 0.58989 0.72771 0.89741
 N709 N 0.57567 0.73926 0.88317
 C710 C 0.57742 0.76272 0.88100
 N711 N 0.59385 0.77426 0.89345
 N712 N 0.60806 0.76271 0.90769
 C713 C 0.62067 0.72703 0.92624
 C714 C 0.63232 0.71694 0.94048
 C715 C 0.56126 0.77531 0.86670
 C716 C 0.54731 0.78597 0.85522
 C717 C 0.39246 0.73992 0.09052
 N718 N 0.40811 0.72812 0.10368
 N719 N 0.42242 0.73953 0.11796
 C720 C 0.42152 0.76307 0.11950
 N721 N 0.40584 0.77486 0.10638
 N722 N 0.39153 0.76346 0.09210
 C723 C 0.37802 0.72779 0.07413
 C724 C 0.36633 0.71776 0.05985
 C725 C 0.43782 0.77546 0.13384
 C726 C 0.45189 0.78594 0.14537
 C727 C 0.60661 0.26028 0.09093
 N728 N 0.59021 0.27193 0.10332
 N729 N 0.57597 0.26050 0.11767
 C730 C 0.57770 0.23707 0.12007
 N731 N 0.59413 0.22543 0.10773
 N732 N 0.60837 0.23686 0.09338
 C733 C 0.62102 0.27237 0.07448
 C734 C 0.63269 0.28237 0.06016
 C735 C 0.56146 0.22459 0.13442
 C736 C 0.54743 0.21398 0.14590
 C737 C 0.26237 0.09031 0.60544
 N738 N 0.23877 0.09091 0.60641
 N739 N 0.22682 0.10520 0.59258
 C740 C 0.23811 0.11931 0.57735
 N741 N 0.26171 0.11875 0.57642
 N742 N 0.27366 0.10447 0.59025
 C743 C 0.27512 0.07387 0.61923
 C744 C 0.28571 0.05951 0.63030
 C745 C 0.22519 0.13359 0.56145
 C746 C 0.21433 0.14505 0.54762
 C747 C 0.73745 0.09006 0.39471
 N748 N 0.76104 0.09099 0.39375
 N749 N 0.77281 0.10553 0.40751
 C750 C 0.76133 0.11957 0.42265
 N751 N 0.73774 0.11868 0.42356
 N752 N 0.72597 0.10414 0.40980
 C753 C 0.72491 0.07338 0.38098
 C754 C 0.71447 0.05886 0.36995
 C755 C 0.77406 0.13411 0.43848
 C756 C 0.78479 0.14577 0.45226
 C757 C 0.73812 0.90844 0.60648
 N758 N 0.72659 0.89442 0.59136
 N759 N 0.73830 0.87996 0.57749
 C760 C 0.76190 0.87908 0.57833
 N761 N 0.77342 0.89306 0.59349
 N762 N 0.76171 0.90752 0.60736
 C763 C 0.72564 0.92507 0.62029
 C764 C 0.71523 0.93956 0.63134
 C765 C 0.77457 0.86466 0.56235
 C766 C 0.78525 0.85312 0.54846
 C767 C 0.26080 0.90890 0.39271
 N768 N 0.23733 0.90663 0.39120
 N769 N 0.22594 0.89228 0.40547
 C770 C 0.23769 0.87976 0.42168
 N771 N 0.26117 0.88198 0.42315
 N772 N 0.27255 0.89634 0.40888
 C773 C 0.27285 0.92540 0.37831
 C774 C 0.28280 0.93978 0.36667
 C775 C 0.22528 0.86539 0.43794
 C776 C 0.21475 0.85388 0.45201
 C777 C 0.09185 0.39481 0.73710
 N778 N 0.09346 0.39305 0.76060
 N779 N 0.10788 0.40685 0.77245
 C780 C 0.12112 0.42285 0.76116
 N781 N 0.11955 0.42458 0.73766
 N782 N 0.10514 0.41076 0.72580
 C783 C 0.07522 0.38104 0.72454
 C784 C 0.06072 0.37001 0.71410
 C785 C 0.13545 0.43875 0.77406
 C786 C 0.14689 0.45258 0.78495
 C787 C 0.09172 0.60526 0.26256
 N788 N 0.09285 0.60641 0.23900
 N789 N 0.10725 0.59252 0.22723
 C790 C 0.12093 0.57707 0.23867
 N791 N 0.11984 0.57595 0.26224
 N792 N 0.10544 0.58984 0.27401
 C793 C 0.07512 0.61909 0.27508
 C794 C 0.06065 0.63016 0.28550
 C795 C 0.13529 0.56110 0.22592
 C796 C 0.14678 0.54722 0.21516
 C797 C 0.90988 0.39408 0.26221
 N798 N 0.90894 0.39295 0.23863
 N799 N 0.89456 0.40677 0.22678
 C800 C 0.88069 0.42213 0.23815
 N801 N 0.88159 0.42322 0.26173
 N802 N 0.89597 0.40940 0.27358
 C803 C 0.92641 0.38027 0.27484
 C804 C 0.94080 0.36917 0.28534
 C805 C 0.86630 0.43801 0.22532
 C806 C 0.85477 0.45181 0.21451
 C807 C 0.90952 0.60612 0.73810
 N808 N 0.89563 0.59079 0.72669
 N809 N 0.88120 0.57694 0.73851
 C810 C 0.88023 0.57802 0.76209
 N811 N 0.89407 0.59340 0.77349
 N812 N 0.90850 0.60724 0.76167
 C813 C 0.92614 0.61991 0.72551
 C814 C 0.94064 0.63096 0.71505
 C815 C 0.86584 0.56207 0.77489
 C816 C 0.85435 0.54819 0.78568
 C817 C 0.73930 0.60639 0.91047
 N818 N 0.76279 0.60795 0.90839
 N819 N 0.77428 0.59381 0.89401
 C820 C 0.76263 0.57767 0.88128
 N821 N 0.73913 0.57615 0.88331
 N822 N 0.72764 0.59029 0.89769
 C823 C 0.72711 0.62071 0.92693
 C824 C 0.71705 0.63232 0.94125
 C825 C 0.77515 0.56159 0.86681
 C826 C 0.78577 0.54771 0.85518
 C827 C 0.26276 0.39468 0.90950
 N828 N 0.27422 0.41044 0.89613
 N829 N 0.26249 0.42437 0.88175
 C830 C 0.23895 0.42296 0.88032
 N831 N 0.22750 0.40716 0.89365
 N832 N 0.23923 0.39323 0.90803
 C833 C 0.27523 0.38072 0.92603
 C834 C 0.28560 0.36951 0.94043
 C835 C 0.22621 0.43892 0.86594
 C836 C 0.21545 0.45276 0.85442
 C837 C 0.26096 0.60675 0.09065
 N838 N 0.23752 0.60834 0.09321
 N839 N 0.22624 0.59400 0.10757
 C840 C 0.23805 0.57763 0.11982
 N841 N 0.26150 0.57607 0.11729
 N842 N 0.27278 0.59041 0.10293
 C843 C 0.27290 0.62129 0.07419
 C844 C 0.28278 0.63309 0.05988
 C845 C 0.22573 0.56135 0.13425
 C846 C 0.21525 0.54730 0.14583
 C847 C 0.73998 0.39277 0.08983
 N848 N 0.72823 0.40853 0.10292
 N849 N 0.73968 0.42271 0.11730
 C850 C 0.76321 0.42156 0.11903
 N851 N 0.77495 0.40576 0.10598
 N852 N 0.76351 0.39158 0.09160
 C853 C 0.72782 0.37843 0.07337
 C854 C 0.71775 0.36680 0.05906
 C855 C 0.77566 0.43771 0.13350
 C856 C 0.78621 0.45167 0.14511
 C857 C 0.90975 0.73710 0.60586
 N858 N 0.90833 0.76063 0.60718
 N859 N 0.89385 0.77230 0.59332
 C860 C 0.88035 0.76079 0.57771
 N861 N 0.88172 0.73726 0.57643
 N862 N 0.89621 0.72558 0.59030
 C863 C 0.92638 0.72468 0.61974
 C864 C 0.94085 0.71435 0.63090
 C865 C 0.86585 0.77347 0.56181
 C866 C 0.85423 0.78418 0.54801
 C867 C 0.90893 0.26260 0.39415
 N868 N 0.90747 0.23908 0.39272
 N869 N 0.89301 0.22732 0.40658
 C870 C 0.87956 0.23874 0.42229
 N871 N 0.88098 0.26227 0.42368
 N872 N 0.89544 0.27403 0.40982
 C873 C 0.92559 0.27509 0.38031
 C874 C 0.94013 0.28546 0.36922
 C875 C 0.86513 0.22597 0.43823
 C876 C 0.85359 0.21519 0.45208
 C877 C 0.09010 0.26228 0.60488
 N878 N 0.09134 0.23875 0.60641
 N879 N 0.10577 0.22685 0.59266
 C880 C 0.11939 0.23811 0.57697
 N881 N 0.11819 0.26165 0.57549
 N882 N 0.10377 0.27355 0.58924
 C883 C 0.07354 0.27495 0.61866
 C884 C 0.05913 0.28549 0.62973
 C885 C 0.13382 0.22518 0.56117
 C886 C 0.14536 0.21427 0.54743
 C887 C 0.09026 0.73746 0.39505
 N888 N 0.09144 0.76101 0.39386
 N889 N 0.10590 0.77278 0.40769
 C890 C 0.11962 0.76135 0.42313
 N891 N 0.11848 0.73779 0.42429
 N892 N 0.10401 0.72602 0.41046
 C893 C 0.07368 0.72491 0.38118
 C894 C 0.05925 0.71447 0.37003
 C895 C 0.13413 0.77411 0.43899
 C896 C 0.14578 0.78488 0.45275
 C897 C 0.60555 0.90988 0.73857
 N898 N 0.59001 0.89624 0.72714
 N899 N 0.57612 0.88182 0.73890
 C900 C 0.57734 0.88060 0.76246
 N901 N 0.59291 0.89420 0.77389
 N902 N 0.60681 0.90863 0.76213
 C903 C 0.61945 0.92646 0.72605
 C904 C 0.63061 0.94090 0.71563
 C905 C 0.56137 0.86620 0.77522
 C906 C 0.54749 0.85468 0.78601
 C907 C 0.39314 0.90979 0.26047
 N908 N 0.40905 0.89690 0.27222
 N909 N 0.42330 0.88256 0.26081
 C910 C 0.42207 0.88068 0.23729
 N911 N 0.40613 0.89354 0.22554
 N912 N 0.39188 0.90787 0.23696
 C913 C 0.37869 0.92617 0.27259
 C914 C 0.36696 0.94042 0.28262
 C915 C 0.43826 0.86625 0.22487
 C916 C 0.45222 0.85466 0.21431
 C917 C 0.60480 0.09034 0.26265
 N918 N 0.60628 0.09171 0.23911
 N919 N 0.59238 0.10603 0.22729
 C920 C 0.57657 0.11941 0.23864
 N921 N 0.57513 0.11808 0.26219
 N922 N 0.58903 0.10376 0.27401
 C923 C 0.61872 0.07386 0.27522
 C924 C 0.62988 0.05950 0.28567
 C925 C 0.56064 0.13373 0.22581
 C926 C 0.54683 0.14522 0.21498
 C927 C 0.39472 0.09130 0.73666
 N928 N 0.41088 0.10431 0.72534
 N929 N 0.42470 0.11878 0.73712
 C930 C 0.42277 0.12067 0.76059
 N931 N 0.40657 0.10770 0.77191
 N932 N 0.39275 0.09323 0.76012
 C933 C 0.38089 0.07464 0.72418
 C934 C 0.36980 0.06011 0.71382
 C935 C 0.43864 0.13510 0.77344
 C936 C 0.45242 0.14663 0.78432
 C937 C 0.60564 0.73861 0.09087
 N938 N 0.58865 0.72710 0.10260
 N939 N 0.57439 0.73857 0.11689
 C940 C 0.57669 0.76188 0.11988
 N941 N 0.59371 0.77338 0.10818
 N942 N 0.60797 0.76192 0.09389
 C943 C 0.62013 0.72652 0.07448
 C944 C 0.63188 0.71655 0.06021
 C945 C 0.56050 0.77444 0.13420
 C946 C 0.54654 0.78513 0.14569
 C947 C 0.39508 0.26142 0.09004
 N948 N 0.39415 0.23784 0.09091
 N949 N 0.40802 0.22608 0.10531
 C950 C 0.42325 0.23755 0.11927
 N951 N 0.42414 0.26113 0.11844
 N952 N 0.41026 0.27289 0.10403
 C953 C 0.38118 0.27397 0.07352
 C954 C 0.37001 0.28442 0.05915
 C955 C 0.43915 0.22483 0.13372
 C956 C 0.45295 0.21410 0.14533
 C957 C 0.60577 0.26078 0.90972
 N958 N 0.58939 0.27255 0.89744
 N959 N 0.57510 0.26125 0.88305
 C960 C 0.57675 0.23783 0.88051
 N961 N 0.59316 0.22606 0.89275
 N962 N 0.60745 0.23737 0.90713
 C963 C 0.62030 0.27274 0.92615
 C964 C 0.63210 0.28264 0.94043
 C965 C 0.56054 0.22549 0.86602
 C966 C 0.54656 0.21500 0.85438
 C967 C 0.39327 0.74046 0.91038
 N968 N 0.39202 0.76395 0.90837
 N969 N 0.40634 0.77531 0.89404
 C970 C 0.42233 0.76352 0.88127
 N971 N 0.42355 0.74002 0.88323
 N972 N 0.40923 0.72866 0.89757
 C973 C 0.37878 0.72839 0.92679
 C974 C 0.36704 0.71840 0.94107
 C975 C 0.43861 0.77589 0.86687
 C976 C 0.45267 0.78639 0.85531
 C977 C 0.73759 0.90859 0.39618
 N978 N 0.72612 0.89528 0.41199
 N979 N 0.73782 0.88085 0.42588
 C980 C 0.76135 0.87930 0.42438
 N981 N 0.77281 0.89256 0.40854
 N982 N 0.76111 0.90699 0.39465
 C983 C 0.72515 0.92516 0.38225
 C984 C 0.71480 0.93957 0.37105
 C985 C 0.77407 0.86486 0.44030
 C986 C 0.78483 0.85329 0.45411
 C987 C 0.26307 0.90923 0.60442
 N988 N 0.23959 0.90733 0.60627
 N989 N 0.22782 0.89292 0.59238
 C990 C 0.23918 0.87998 0.57621
 N991 N 0.26267 0.88184 0.57440
 N992 N 0.27444 0.89625 0.58829
 C993 C 0.27554 0.92582 0.61834
 C994 C 0.28589 0.94028 0.62951
 C995 C 0.22637 0.86557 0.56030
 C996 C 0.21555 0.85402 0.54650
 C997 C 0.25966 0.08915 0.39403
 N998 N 0.23613 0.09098 0.39288
 N999 N 0.22476 0.10533 0.40714
 C1000 C 0.23656 0.11828 0.42299
 N1001 N 0.26009 0.11648 0.42412
 N1002 N 0.27147 0.10213 0.40985
 C1003 C 0.27176 0.07278 0.37955
 C1004 C 0.28178 0.05856 0.36778
 C1005 C 0.22418 0.13274 0.43920
 C1006 C 0.21368 0.14436 0.45318
 C1007 C 0.73784 0.09062 0.60488
 N1008 N 0.76142 0.09188 0.60594
 N1009 N 0.77308 0.10629 0.59195
 C1010 C 0.76152 0.11988 0.57649
 N1011 N 0.73795 0.11866 0.57547
 N1012 N 0.72628 0.10425 0.58946
 C1013 C 0.72542 0.07409 0.61893
 C1014 C 0.71507 0.05971 0.63022
 C1015 C 0.77417 0.13433 0.56047
 C1016 C 0.78484 0.14592 0.54657
 C1017 C 0.90959 0.60414 0.26237
 N1018 N 0.89623 0.58830 0.27374
 N1019 N 0.88188 0.57437 0.26194
 C1020 C 0.88044 0.57588 0.23840
 N1021 N 0.89376 0.59176 0.22704
 N1022 N 0.90811 0.60568 0.23884
 C1023 C 0.92609 0.61811 0.27491
 C1024 C 0.94045 0.62934 0.28534
 C1025 C 0.86609 0.55992 0.22558
 C1026 C 0.85461 0.54607 0.21475
 C1027 C 0.90973 0.39621 0.73731
 N1028 N 0.89647 0.41215 0.72603
 N1029 N 0.88213 0.42601 0.73790
 C1030 C 0.88061 0.42435 0.76142
 N1031 N 0.89384 0.40837 0.77270
 N1032 N 0.90818 0.39451 0.76083
 C1033 C 0.92619 0.38226 0.72470
 C1034 C 0.94051 0.37104 0.71422
 C1035 C 0.86623 0.44021 0.77432
 C1036 C 0.85469 0.45395 0.78522
 C1037 C 0.09091 0.60486 0.73830
 N1038 N 0.09211 0.60602 0.76186
 N1039 N 0.10652 0.59212 0.77359
 C1040 C 0.12015 0.57663 0.76210
 N1041 N 0.11899 0.57551 0.73853
 N1042 N 0.10459 0.58941 0.72681
 C1043 C 0.07436 0.61878 0.72582
 C1044 C 0.05995 0.62995 0.71544
 C1045 C 0.13458 0.56069 0.77481
 C1046 C 0.14615 0.54686 0.78553
 C1047 C 0.09132 0.39494 0.26277
 N1048 N 0.10426 0.41109 0.27418
 N1049 N 0.11874 0.42497 0.26247
 C1050 C 0.12072 0.42313 0.23900
 N1051 N 0.10782 0.40695 0.22760
 N1052 N 0.09334 0.39307 0.23931
 C1053 C 0.07465 0.38103 0.27517
 C1054 C 0.06014 0.36985 0.28547
 C1055 C 0.13517 0.43906 0.22624
 C1056 C 0.14673 0.45289 0.21544
   
