data_POSCAR
  _audit_creation_date              2014-09-24
  _audit_creation_method            'ToBaCCo'
  _symmetry_space_group_name_H-M    'P1'
  _symmetry_Int_Tables_number       1
  _symmetry_cell_setting            triclinic
  loop_
  _symmetry_equiv_pos_as_xyz
 x,y,z
_cell_length_a 15.0291
_cell_length_b 14.7699
_cell_length_c 14.8268
_cell_angle_alpha 89.944100
_cell_angle_beta 90.213000
_cell_angle_gamma 90.205000
loop_
  _atom_site_label
  _atom_site_type_symbol
  _atom_site_fract_x
  _atom_site_fract_y
  _atom_site_fract_z
C1 C 0.27881 0.39127 0.39390
 N2 N 0.31341 0.31061 0.42057
 C3 C 0.38789 0.27795 0.38090
 N4 N 0.42459 0.32325 0.31135
 C5 C 0.39041 0.40342 0.28290
 N6 N 0.31864 0.43889 0.32598
 C7 C 0.21677 0.61422 0.89230
 N8 N 0.17034 0.68283 0.93077
 C9 C 0.09900 0.71915 0.88676
 N10 N 0.07137 0.68264 0.80728
 C11 C 0.11608 0.61194 0.77036
 N12 N 0.19026 0.58060 0.81130
 C13 C 0.72503 0.88127 0.11576
 N14 N 0.69081 0.92320 0.18924
 C15 C 0.60982 0.89818 0.22174
 N16 N 0.56338 0.83003 0.18055
 C17 C 0.59989 0.78519 0.10961
 N18 N 0.68046 0.81170 0.07774
 C19 C 0.77349 0.12247 0.61651
 N20 N 0.81868 0.19450 0.58251
 C21 C 0.89609 0.22244 0.62154
 N22 N 0.92914 0.17683 0.69384
 C23 C 0.88341 0.10550 0.72939
 N24 N 0.80495 0.07944 0.69125
 C25 C 0.70500 0.59392 0.57911
 N26 N 0.66571 0.66923 0.54527
 C27 C 0.59027 0.70228 0.58343
 N28 N 0.55476 0.65946 0.65636
 C29 C 0.59491 0.58499 0.69155
 N30 N 0.67075 0.55384 0.65385
 C31 C 0.80105 0.40465 0.08429
 N32 N 0.83755 0.32750 0.05230
 C33 C 0.91381 0.29442 0.08871
 N34 N 0.95141 0.33723 0.16038
 C35 C 0.91387 0.41322 0.19497
 N36 N 0.83844 0.44681 0.15668
 C37 C 0.29287 0.08520 0.91645
 N38 N 0.33391 0.15985 0.95147
 C39 C 0.40764 0.19452 0.91093
 N40 N 0.43923 0.15531 0.83544
 C41 C 0.40062 0.07974 0.80133
 N42 N 0.32656 0.04561 0.84096
 C43 C 0.20388 0.90868 0.41877
 N44 N 0.16839 0.94908 0.34447
 C45 C 0.09219 0.91705 0.30710
 N46 N 0.05243 0.84263 0.34290
 C47 C 0.08763 0.80105 0.41624
 N48 N 0.16340 0.83459 0.45421
 Zn49 Zn 0.04820 0.97869 -0.10057
 Zn50 Zn -0.01410 0.89170 0.05721
 Zn51 Zn 0.07139 1.07186 0.07463
 Zn52 Zn -0.10387 1.04591 -0.01539
 O53 O 0.00235 0.99905 0.00685
 O54 O 0.03412 0.85989 -0.13379
 O55 O 0.01840 0.89240 0.17116
 O56 O 0.17701 1.09343 0.01906
 O57 O 0.05525 0.80889 0.00446
 O58 O 0.16452 1.00317 -0.10045
 O59 O 0.09326 1.02172 0.18439
 O60 O -0.10515 1.16325 0.00995
 O61 O -0.13008 0.85786 0.05680
 O62 O 0.01693 1.17890 0.09384
 O63 O -0.18457 0.99678 0.05776
 O64 O -0.13750 1.03379 -0.13320
 O65 O -0.00091 1.05508 -0.18179
 C66 C 0.05989 0.79757 -0.08011
 C67 C 0.06514 0.94707 0.21708
 C68 C 0.20920 1.05861 -0.05254
 C69 C -0.05580 1.20990 0.06202
 C70 C -0.19227 0.91318 0.07516
 C71 C -0.08429 1.06233 -0.19355
 Zn72 Zn 0.44590 0.01502 0.39649
 Zn73 Zn 0.42921 -0.07718 0.57192
 Zn74 Zn 0.60341 -0.04621 0.47975
 Zn75 Zn 0.51095 0.10622 0.55397
 O76 O 0.49622 -0.00187 0.50364
 O77 O 0.33165 -0.01149 0.39859
 O78 O 0.48605 -0.18328 0.58995
 O79 O 0.63156 -0.03449 0.36081
 O80 O 0.32276 -0.10105 0.51841
 O81 O 0.49443 -0.05904 0.31389
 O82 O 0.60780 -0.16414 0.50694
 O83 O 0.62632 0.14270 0.56042
 O84 O 0.40572 -0.02801 0.68140
 O85 O 0.68719 0.00698 0.54892
 O86 O 0.47288 0.10528 0.66563
 O87 O 0.44388 0.18885 0.49870
 O88 O 0.45074 0.13200 0.36093
 C89 C 0.28845 -0.06621 0.44767
 C90 C 0.55902 -0.21277 0.55778
 C91 C 0.57764 -0.06290 0.30059
 C92 C 0.69184 0.08957 0.57231
 C93 C 0.42878 0.04910 0.71222
 C94 C 0.42971 0.19554 0.41469
 Zn95 Zn 0.95164 0.48781 0.60155
 Zn96 Zn 0.93306 0.57423 0.42314
 Zn97 Zn 1.10575 0.55229 0.51600
 Zn98 Zn 1.02221 0.39490 0.44836
 O99 O 1.00006 0.50318 0.49449
 O100 O 0.83826 0.51681 0.60077
 O101 O 0.98723 0.68248 0.40479
 O102 O 1.13842 0.53987 0.63362
 O103 O 0.82516 0.59599 0.47395
 O104 O 1.00165 0.56500 0.67986
 O105 O 1.10486 0.67002 0.49504
 O106 O 1.14008 0.36611 0.45616
 O107 O 0.91487 0.52069 0.31467
 O108 O 1.18744 0.50648 0.44049
 O109 O 0.98988 0.39189 0.33218
 O110 O 0.95630 0.30986 0.50332
 O111 O 0.95696 0.37055 0.63978
 C112 C 0.79328 0.56640 0.54802
 C113 C 1.05733 0.71565 0.44092
 C114 C 1.08486 0.57085 0.69234
 C115 C 1.20007 0.42216 0.43195
 C116 C 0.94280 0.44517 0.28436
 C117 C 0.94046 0.30423 0.58717
 Zn118 Zn 0.44466 0.46861 0.89215
 Zn119 Zn 0.60402 0.55718 0.96650
 Zn120 Zn 0.43012 0.57215 1.06729
 Zn121 Zn 0.53020 0.39618 1.05607
 O122 O 0.50174 0.49908 0.99589
 O123 O 0.49922 0.50580 0.79084
 O124 O 0.60880 0.66404 1.01719
 O125 O 0.32871 0.60588 1.00808
 O126 O 0.61700 0.57564 0.84800
 O127 O 0.34112 0.52200 0.88481
 O128 O 0.48767 0.67583 1.10124
 O129 O 0.48209 0.39406 1.16308
 O130 O 0.70310 0.50313 1.00742
 O131 O 0.39569 0.51493 1.17102
 O132 O 0.64689 0.38174 1.07394
 O133 O 0.48702 0.29487 1.00572
 O134 O 0.42223 0.35006 0.88324
 C135 C 0.56930 0.55263 0.78109
 C136 C 0.56243 0.70643 1.07431
 C137 C 0.29934 0.57902 0.93188
 C138 C 0.42435 0.44068 1.20378
 C139 C 0.71270 0.43115 1.05283
 C140 C 0.44082 0.28428 0.93495
   
