data_POSCAR
  _audit_creation_date              2014-09-24
  _audit_creation_method            'ToBaCCo'
  _symmetry_space_group_name_H-M    'P1'
  _symmetry_Int_Tables_number       1
  _symmetry_cell_setting            triclinic
  loop_
  _symmetry_equiv_pos_as_xyz
 x,y,z
_cell_length_a 32.8225
_cell_length_b 32.3664
_cell_length_c 67.9561
_cell_angle_alpha 91.115900
_cell_angle_beta 89.790400
_cell_angle_gamma 121.369100
loop_
  _atom_site_label
  _atom_site_type_symbol
  _atom_site_fract_x
  _atom_site_fract_y
  _atom_site_fract_z
C1 C 0.00509 0.03955 0.54102
 H2 H 0.01463 0.01527 0.54724
 C3 C 0.00061 0.07181 0.55340
 H4 H 0.00613 0.07154 0.56909
 C5 C -0.01031 0.07198 0.51301
 H6 H -0.01285 0.07284 0.49717
 C7 C -0.01542 0.10474 0.52489
 H8 H -0.02175 0.13073 0.51798
 N9 N -0.00007 0.04038 0.52120
 C10 C 0.07341 -0.03041 0.52007
 H11 H 0.10189 -0.00257 0.51146
 C12 C 0.08194 -0.06070 0.53147
 H13 H 0.11720 -0.05581 0.53164
 C14 C -0.00744 -0.07158 0.53004
 H15 H -0.04235 -0.07586 0.52917
 C16 C -0.00050 -0.10252 0.54161
 H17 H -0.03079 -0.13107 0.54923
 Zn18 Zn 0.01464 0.00258 0.50445
 N19 N 0.02932 -0.03612 0.51975
 C20 C 0.10568 0.08288 0.49891
 N21 N 0.06744 0.04628 0.48916
 C22 C 0.06571 0.04369 0.46916
 C23 C 0.10359 0.07877 0.45815
 C24 C 0.14405 0.11909 0.48852
 C25 C -0.07978 -0.04161 0.48853
 C26 C -0.11828 -0.07566 0.47696
 C27 C -0.06950 -0.10636 0.46490
 C28 C -0.03211 -0.07182 0.47672
 N29 N -0.03769 -0.04022 0.48814
 H30 H 0.10577 0.08454 0.51483
 H31 H 0.03445 0.01515 0.46165
 H32 H 0.10003 0.07594 0.44231
 H33 H 0.17376 0.14832 0.49665
 H34 H -0.08385 -0.01684 0.49802
 H35 H -0.15155 -0.07619 0.47759
 H36 H -0.06277 -0.13009 0.45599
 H37 H 0.00163 -0.07026 0.47691
 C38 C 0.04490 -0.09688 0.54263
 C39 C -0.00939 0.10516 0.54538
 C40 C -0.11383 -0.10908 0.46499
 C41 C 0.14354 0.11759 0.46783
 C42 C 1.06926 0.02706 0.13333
 H43 H 1.07393 0.06270 0.13410
 C44 C 1.10000 0.01907 0.12192
 H45 H 1.12867 0.04928 0.11429
 C46 C 1.02755 -0.05444 0.14348
 H47 H 0.99984 -0.08274 0.15219
 C48 C 1.05756 -0.06405 0.13225
 H49 H 1.05237 -0.09996 0.13226
 N50 N 1.03353 -0.00958 0.14360
 C51 C 0.92889 0.03358 0.15093
 H52 H 0.92650 0.03395 0.16681
 C53 C 0.89926 0.04259 0.13944
 H54 H 0.87495 0.05095 0.14669
 C55 C 0.96384 0.02225 0.12235
 H56 H 0.98819 0.01318 0.11571
 C57 C 0.93502 0.03122 0.11031
 H58 H 0.93784 0.02943 0.09446
 Zn59 Zn 0.99500 0.00623 0.15884
 N60 N 0.96018 0.02343 0.14228
 C61 C 1.04053 0.10230 0.17489
 N62 N 1.03662 0.05846 0.17573
 C63 C 1.06482 0.05112 0.18795
 C64 C 1.09808 0.08841 0.20028
 C65 C 1.07358 0.14081 0.18688
 C66 C 0.91679 -0.08760 0.16358
 C67 C 0.88104 -0.12719 0.17363
 C68 C 0.91328 -0.08269 0.20425
 C69 C 0.94858 -0.04407 0.19358
 N70 N 0.94981 -0.04721 0.17363
 H71 H 1.01864 0.10776 0.16471
 H72 H 1.06167 0.01614 0.18796
 H73 H 1.12017 0.08086 0.20942
 H74 H 1.07626 0.17552 0.18587
 H75 H 0.91805 -0.08884 0.14768
 H76 H 0.85513 -0.15894 0.16525
 H77 H 0.91422 -0.07866 0.22007
 H78 H 0.97453 -0.01131 0.20130
 C79 C 0.90155 0.04053 0.11881
 C80 C 1.09396 -0.02725 0.12108
 C81 C 0.87836 -0.12511 0.19425
 C82 C 1.10292 0.13433 0.19992
 C83 C 0.04169 0.98072 0.86350
 H84 H 0.00804 0.94656 0.86324
 C85 C 0.07956 0.98630 0.87491
 H86 H 0.07439 0.95622 0.88351
 C87 C 0.08916 1.06077 0.85201
 H88 H 0.09314 1.08925 0.84267
 C89 C 0.12800 1.06793 0.86325
 H90 H 0.16153 1.10221 0.86268
 N91 N 0.04705 1.01765 0.85236
 C92 C -0.09944 0.97809 0.84056
 H93 H -0.09916 0.97676 0.82464
 C94 C -0.14014 0.97031 0.85038
 H95 H -0.17107 0.96261 0.84171
 C96 C -0.05841 0.99151 0.87080
 H97 H -0.02601 1.00096 0.87864
 C98 C -0.09824 0.98440 0.88129
 H99 H -0.09492 0.98826 0.89711
 Zn100 Zn -0.00492 1.00417 0.83587
 N101 N -0.05969 0.98844 0.85081
 C102 C -0.05775 0.90823 0.81973
 N103 N -0.01621 0.95174 0.81916
 C104 C 0.02033 0.95840 0.80749
 C105 C 0.01590 0.92060 0.79559
 C106 C -0.06374 0.86930 0.80813
 C107 C 0.01787 1.09925 0.83120
 C108 C 0.02388 1.13939 0.82129
 C109 C 0.01055 1.09534 0.79053
 C110 C 0.00517 1.05615 0.80107
 N111 N 0.00878 1.05874 0.82103
 H112 H -0.08597 0.90325 0.82947
 H113 H 0.05327 0.99323 0.80757
 H114 H 0.04603 0.92806 0.78660
 H115 H -0.09708 0.83489 0.80898
 H116 H 0.01954 1.09997 0.84711
 H117 H 0.03063 1.17102 0.82982
 H118 H 0.00645 1.09110 0.77474
 H119 H -0.00342 1.02313 0.79328
 C120 C -0.14011 0.97406 0.87107
 C121 C 0.12356 1.03034 0.87472
 C122 C 0.01964 1.13784 0.80067
 C123 C -0.02662 0.87479 0.79589
 C124 C 0.49134 -0.00399 0.00933
 C125 C 0.49242 -0.00941 -0.01058
 C126 C 0.45642 -0.00903 -0.02366
 C127 C 0.52895 -0.01677 -0.02018
 C128 C 0.52939 0.00019 0.02252
 C129 C 0.45181 -0.00190 0.01903
 C130 C 0.42847 -0.04865 -0.03632
 C131 C 0.39223 -0.05028 -0.04767
 C132 C 0.38360 -0.01210 -0.04677
 C133 C 0.41258 0.02827 -0.03444
 C134 C 0.44890 0.02989 -0.02313
 C135 C 0.53530 -0.05462 -0.01463
 C136 C 0.57043 -0.06055 -0.02355
 C137 C 0.59944 -0.02922 -0.03835
 C138 C 0.59275 0.00855 -0.04393
 C139 C 0.55755 0.01436 -0.03504
 C140 C 0.57766 0.03497 0.01940
 C141 C 0.61286 0.03928 0.03229
 C142 C 0.60025 0.00903 0.04865
 C143 C 0.55188 -0.02498 0.05192
 C144 C 0.51683 -0.02944 0.03898
 C145 C 0.46206 0.03821 0.03099
 C146 C 0.42529 0.04078 0.04015
 C147 C 0.37765 0.00295 0.03781
 C148 C 0.36740 -0.03741 0.02586
 C149 C 0.40425 -0.03990 0.01666
 H150 H 0.43379 -0.07899 -0.03698
 H151 H 0.37041 -0.08183 -0.05699
 H152 H 0.40666 0.05804 -0.03297
 H153 H 0.47051 0.06107 -0.01361
 H154 H 0.51315 -0.07945 -0.00336
 H155 H 0.57489 -0.08980 -0.01891
 H156 H 0.55328 0.04388 -0.03945
 H157 H 0.58801 0.05924 0.00713
 H158 H 0.64952 0.06709 0.02963
 H159 H 0.54117 -0.04840 0.06449
 H160 H 0.47977 -0.05616 0.04179
 H161 H 0.49857 0.06780 0.03303
 H162 H 0.43411 0.07234 0.04919
 H163 H 0.33108 -0.06672 0.02330
 H164 H 0.39571 -0.07137 0.00762
 H165 H 0.61517 0.03446 -0.05480
 C166 C -0.00092 0.49917 0.67849
 C167 C -0.00690 0.49791 0.65861
 C168 C -0.01548 0.45565 0.64634
 C169 C -0.00532 0.53855 0.64814
 C170 C 0.00054 0.53790 0.69118
 C171 C 0.00516 0.46217 0.68839
 C172 C 0.01457 0.46225 0.63045
 C173 C 0.00678 0.42275 0.61879
 C174 C -0.03155 0.37593 0.62273
 C175 C -0.06237 0.36962 0.63830
 C176 C -0.05429 0.40911 0.65008
 C177 C 0.03424 0.58586 0.65009
 C178 C 0.03521 0.62388 0.64024
 C179 C -0.00328 0.61505 0.62810
 C180 C -0.04265 0.56766 0.62615
 C181 C -0.04349 0.52968 0.63592
 C182 C -0.03560 0.54877 0.69003
 C183 C -0.03293 0.58653 0.70143
 C184 C 0.00555 0.61357 0.71456
 C185 C 0.04102 0.60179 0.71597
 C186 C 0.03846 0.56424 0.70448
 C187 C -0.02494 0.43569 0.70388
 C188 C -0.01980 0.40044 0.71312
 C189 C 0.01626 0.39163 0.70723
 C190 C 0.04648 0.41845 0.69177
 C191 C 0.04121 0.45359 0.68252
 H192 H 0.04429 0.49801 0.62719
 H193 H 0.03032 0.42909 0.60652
 H194 H -0.09245 0.33399 0.64146
 H195 H -0.07841 0.40349 0.66205
 H196 H 0.06427 0.59332 0.65932
 H197 H 0.06566 0.66006 0.64249
 H198 H -0.07428 0.49342 0.63419
 H199 H -0.06563 0.52835 0.68010
 H200 H -0.06063 0.59472 0.69952
 H201 H 0.07110 0.62201 0.72590
 H202 H 0.06662 0.55635 0.70567
 H203 H -0.05305 0.44173 0.70856
 H204 H -0.04478 0.37971 0.72454
 H205 H 0.07441 0.41235 0.68689
 H206 H 0.06529 0.47416 0.67078
 H207 H -0.07283 0.55996 0.61697
 C208 C 0.51196 0.49131 0.34337
 C209 C 0.50640 0.49369 0.32365
 C210 C 0.54100 0.53616 0.31207
 C211 C 0.46594 0.45302 0.31265
 C212 C 0.47556 0.45013 0.35491
 C213 C 0.55468 0.52905 0.35433
 C214 C 0.55214 0.58286 0.31756
 C215 C 0.58621 0.62336 0.30748
 C216 C 0.61242 0.61936 0.29017
 C217 C 0.59686 0.56769 0.28486
 C218 C 0.56262 0.52897 0.29567
 C219 C 0.43355 0.46066 0.30239
 C220 C 0.39475 0.42230 0.29235
 C221 C 0.38819 0.37567 0.29216
 C222 C 0.42103 0.36839 0.30235
 C223 C 0.45969 0.40671 0.31239
 C224 C 0.48737 0.41918 0.36399
 C225 C 0.45281 0.37910 0.37423
 C226 C 0.40629 0.37010 0.37601
 C227 C 0.39467 0.40160 0.36713
 C228 C 0.42908 0.44129 0.35663
 C229 C 0.60075 0.54126 0.34867
 C230 C 0.64064 0.57690 0.35914
 C231 C 0.63523 0.60097 0.37542
 C232 C 0.58893 0.58778 0.38135
 C233 C 0.54908 0.55210 0.37090
 H234 H 0.53448 0.58807 0.33002
 H235 H 0.59429 0.65886 0.31244
 H236 H 0.61309 0.56020 0.27252
 H237 H 0.55358 0.49272 0.29141
 H238 H 0.43782 0.49618 0.30249
 H239 H 0.36974 0.42936 0.28517
 H240 H 0.48474 0.40027 0.32001
 H241 H 0.52309 0.42551 0.36276
 H242 H 0.46247 0.35517 0.38087
 H243 H 0.35883 0.39503 0.36787
 H244 H 0.41947 0.46494 0.34971
 H245 H 0.60576 0.52309 0.33619
 H246 H 0.67586 0.58586 0.35445
 H247 H 0.58317 0.60421 0.39423
 H248 H 0.51377 0.54264 0.37566
 H249 H 0.41684 0.33291 0.30249
 C250 C -0.00880 0.14234 0.55857
 C251 C -0.03033 0.16849 0.55399
 C252 C -0.02401 0.20923 0.56658
 C253 C -0.06032 0.21986 0.56746
 C254 C -0.05463 0.25877 0.57905
 C255 C -0.01209 0.28814 0.58974
 C256 C 0.02460 0.27817 0.58846
 C257 C 0.01869 0.23899 0.57710
 C258 C -0.00395 0.33053 0.60164
 C259 C -0.04069 0.33347 0.61061
 H260 H -0.05376 0.15792 0.54130
 H261 H -0.09319 0.19791 0.55921
 H262 H -0.08307 0.26637 0.57926
 H263 H 0.05797 0.30075 0.59631
 H264 H 0.04802 0.23278 0.57622
 H265 H 0.03266 0.35895 0.60454
 H266 H 0.00910 0.14905 0.57267
 H267 H -0.07674 0.30244 0.60996
 C268 C 0.84113 0.83469 0.20387
 C269 C 0.83070 0.83344 0.22395
 C270 C 0.79121 0.79003 0.23335
 C271 C 0.77025 0.79594 0.25036
 C272 C 0.73324 0.75578 0.25975
 C273 C 0.71681 0.70872 0.25238
 C274 C 0.73815 0.70277 0.23551
 C275 C 0.77503 0.74293 0.22609
 C276 C 0.67833 0.66532 0.26210
 C277 C 0.65473 0.66841 0.27856
 H278 H 0.84947 0.86580 0.23307
 H279 H 0.78236 0.83181 0.25635
 H280 H 0.71778 0.76166 0.27281
 H281 H 0.72648 0.66688 0.22966
 H282 H 0.79134 0.73679 0.21340
 H283 H 0.66869 0.63002 0.25620
 H284 H 0.81768 0.80303 0.19489
 H285 H 0.63360 0.64268 0.28399
 C286 C 0.16571 0.03795 -0.11428
 C287 C 0.16625 -0.00231 -0.10208
 C288 C 0.21170 0.00407 -0.09107
 C289 C 0.20873 -0.03467 -0.08087
 C290 C 0.24884 -0.02954 -0.07138
 C291 C 0.29291 0.01448 -0.07201
 C292 C 0.29558 0.05346 -0.08193
 C293 C 0.25540 0.04824 -0.09147
 C294 C 0.33600 0.02129 -0.06192
 C295 C 0.34257 -0.01712 -0.05802
 H296 H 0.13391 -0.04419 -0.09907
 H297 H 0.17531 -0.06897 -0.08019
 H298 H 0.24487 -0.05988 -0.06330
 H299 H 0.32895 0.08790 -0.08245
 H300 H 0.25846 0.07866 -0.09919
 H301 H 0.36409 0.05796 -0.05832
 H302 H 0.16435 0.01503 -0.10782
 H303 H 0.31696 -0.05276 -0.06389
 C304 C 0.05396 0.87067 0.55443
 C305 C 0.02638 0.84615 0.57074
 C306 C 0.03079 0.80953 0.58173
 C307 C -0.00704 0.77820 0.59391
 C308 C -0.00553 0.74211 0.60419
 C309 C 0.03407 0.73655 0.60253
 C310 C 0.07269 0.76890 0.59091
 C311 C 0.07111 0.80497 0.58053
 C312 C 0.03637 0.69811 0.61298
 C313 C -0.00448 0.65429 0.61782
 H314 H -0.00143 0.85259 0.57539
 H315 H -0.03821 0.78136 0.59535
 H316 H -0.03520 0.71905 0.61358
 H317 H 0.10396 0.76587 0.58968
 H318 H 0.10169 0.82919 0.57182
 H319 H 0.07121 0.70324 0.61565
 H320 H 0.08314 0.86627 0.54996
 H321 H -0.03894 0.64700 0.61283
 C322 C 0.13666 0.17415 0.21149
 C323 C 0.16512 0.17182 0.22622
 C324 C 0.20312 0.21502 0.23695
 C325 C 0.21767 0.20913 0.25554
 C326 C 0.25485 0.24855 0.26578
 C327 C 0.27889 0.29475 0.25745
 C328 C 0.26394 0.30076 0.23897
 C329 C 0.22666 0.26133 0.22874
 C330 C 0.31914 0.33735 0.26763
 C331 C 0.34727 0.33355 0.28204
 H332 H 0.15856 0.13721 0.23093
 H333 H 0.20007 0.17385 0.26220
 H334 H 0.26415 0.24260 0.28026
 H335 H 0.28180 0.33596 0.23224
 H336 H 0.21738 0.26713 0.21422
 H337 H 0.32861 0.37269 0.26255
 H338 H 0.14014 0.20882 0.20905
 H339 H 0.34085 0.29813 0.28542
 C340 C 0.82066 -0.03072 -0.12006
 C341 C 0.81513 -0.02674 -0.09974
 C342 C 0.77374 -0.02602 -0.09127
 C343 C 0.76251 -0.03724 -0.07138
 C344 C 0.72495 -0.03506 -0.06267
 C345 C 0.69770 -0.02154 -0.07374
 C346 C 0.70935 -0.00977 -0.09356
 C347 C 0.74694 -0.01178 -0.10223
 C348 C 0.65856 -0.01697 -0.06514
 C349 C 0.63711 -0.03604 -0.04707
 H350 H 0.84097 -0.02471 -0.08937
 H351 H 0.78312 -0.04742 -0.06249
 H352 H 0.71835 -0.04297 -0.04721
 H353 H 0.68957 0.00160 -0.10236
 H354 H 0.75552 -0.00081 -0.11735
 H355 H 0.64508 0.00094 -0.07392
 H356 H 0.79100 -0.03782 -0.12944
 H357 H 0.64662 -0.05860 -0.03922
 C358 C 0.12602 -0.03776 0.10953
 C359 C 0.15258 -0.01016 0.09355
 C360 C 0.18777 -0.01740 0.08273
 C361 C 0.22138 0.02019 0.07097
 C362 C 0.25613 0.01584 0.06086
 C363 C 0.25799 -0.02641 0.06229
 C364 C 0.22341 -0.06472 0.07346
 C365 C 0.18868 -0.06034 0.08365
 C366 C 0.29486 -0.03188 0.05206
 C367 C 0.33983 0.00759 0.04759
 H368 H 0.14882 0.01954 0.08901
 H369 H 0.22103 0.05333 0.06972
 H370 H 0.28104 0.04543 0.05178
 H371 H 0.22359 -0.09799 0.07450
 H372 H 0.16261 -0.09087 0.09197
 H373 H 0.28746 -0.06822 0.04935
 H374 H 0.12837 -0.06837 0.11392
 H375 H 0.34905 0.04341 0.05261
 C376 C 0.84628 0.85633 0.45384
 C377 C 0.84458 0.81907 0.44228
 C378 C 0.80179 0.78271 0.43098
 C379 C 0.79774 0.73863 0.42558
 C380 C 0.75826 0.70332 0.41482
 C381 C 0.72213 0.71166 0.40899
 C382 C 0.72611 0.75571 0.41438
 C383 C 0.76566 0.79108 0.42512
 C384 C 0.67936 0.67492 0.39784
 C385 C 0.67832 0.63821 0.38625
 H386 H 0.87446 0.81384 0.44211
 H387 H 0.82500 0.73120 0.42991
 H388 H 0.75590 0.66934 0.41146
 H389 H 0.69875 0.76300 0.41007
 H390 H 0.76796 0.82503 0.42845
 H391 H 0.64848 0.67869 0.39798
 H392 H 0.81419 0.85789 0.45484
 H393 H 0.71093 0.63808 0.38409
 C394 C 0.02286 0.17795 0.79134
 C395 C 0.01774 0.18134 0.77106
 C396 C 0.01594 0.22190 0.76217
 C397 C 0.02438 0.22980 0.74193
 C398 C 0.02126 0.26643 0.73281
 C399 C 0.00962 0.29615 0.74381
 C400 C 0.00054 0.28779 0.76398
 C401 C 0.00351 0.25109 0.77308
 C402 C 0.00454 0.33464 0.73479
 C403 C 0.02262 0.35404 0.71634
 H404 H 0.01547 0.15403 0.76097
 H405 H 0.03311 0.20727 0.73309
 H406 H 0.02696 0.27038 0.71712
 H407 H -0.00934 0.30952 0.77275
 H408 H -0.00523 0.24514 0.78852
 H409 H -0.01254 0.34954 0.74355
 H410 H 0.02931 0.20827 0.80068
 H411 H 0.04432 0.34313 0.70849
 C412 C 0.86920 0.04688 0.10580
 C413 C 0.82370 0.03555 0.11161
 C414 C 0.78869 0.03592 0.09806
 C415 C 0.73995 0.00612 0.10210
 C416 C 0.70554 0.00434 0.08949
 C417 C 0.71925 0.03319 0.07266
 C418 C 0.76810 0.06341 0.06875
 C419 C 0.80253 0.06500 0.08133
 C420 C 0.68405 0.03176 0.05858
 C421 C 0.63590 0.01263 0.06298
 H422 H 0.81129 0.02121 0.12612
 H423 H 0.72837 -0.01671 0.11488
 H424 H 0.66850 -0.02056 0.09289
 H425 H 0.77969 0.08605 0.05592
 H426 H 0.83980 0.08937 0.07801
 H427 H 0.69692 0.04625 0.04414
 H428 H 0.87963 0.05577 0.09062
 H429 H 0.62281 -0.00181 0.07739
 C430 C 0.18171 0.15584 0.45778
 C431 C 0.18848 0.15677 0.43740
 C432 C 0.22643 0.20011 0.42748
 C433 C 0.24707 0.19437 0.41034
 C434 C 0.28219 0.23480 0.40041
 C435 C 0.29669 0.28176 0.40731
 C436 C 0.27521 0.28748 0.42417
 C437 C 0.24065 0.24708 0.43428
 C438 C 0.33263 0.32517 0.39680
 C439 C 0.37031 0.32678 0.38655
 H440 H 0.16753 0.12451 0.42840
 H441 H 0.23606 0.15852 0.40466
 H442 H 0.29710 0.22920 0.38711
 H443 H 0.28534 0.32332 0.42958
 H444 H 0.22431 0.25267 0.44710
 H445 H 0.33115 0.35775 0.39830
 H446 H 0.20823 0.18661 0.46645
 H447 H 0.37548 0.29641 0.38731
 C448 C -0.03353 0.83426 0.78482
 C449 C 0.00057 0.83376 0.77247
 C450 C -0.00710 0.79011 0.76150
 C451 C 0.03293 0.79001 0.75422
 C452 C 0.02781 0.74996 0.74377
 C453 C -0.01771 0.70874 0.74041
 C454 C -0.05785 0.70924 0.74727
 C455 C -0.05275 0.74941 0.75767
 C456 C -0.02485 0.66556 0.72925
 C457 C 0.01123 0.65524 0.72644
 H458 H 0.03558 0.86573 0.77122
 H459 H 0.06846 0.82115 0.75663
 H460 H 0.05963 0.75207 0.73810
 H461 H -0.09339 0.67838 0.74455
 H462 H -0.08475 0.74843 0.76231
 H463 H -0.06047 0.64022 0.72385
 H464 H -0.06733 0.80081 0.78649
 H465 H 0.04526 0.67793 0.73374
   
