data_POSCAR
  _audit_creation_date              2014-09-24
  _audit_creation_method            'ToBaCCo'
  _symmetry_space_group_name_H-M    'P1'
  _symmetry_Int_Tables_number       1
  _symmetry_cell_setting            triclinic
  loop_
  _symmetry_equiv_pos_as_xyz
 x,y,z
_cell_length_a 42.9680
_cell_length_b 42.7484
_cell_length_c 42.9022
_cell_angle_alpha 89.997200
_cell_angle_beta 90.067200
_cell_angle_gamma 89.897700
loop_
  _atom_site_label
  _atom_site_type_symbol
  _atom_site_fract_x
  _atom_site_fract_y
  _atom_site_fract_z
C1 C 0.15889 0.18314 0.20295
 C2 C 0.15886 0.20456 0.17815
 C3 C 0.17923 0.20054 0.15348
 C4 C 0.20041 0.17553 0.15364
 C5 C 0.20082 0.15486 0.17834
 C6 C 0.17941 0.15825 0.20278
 C7 C 0.14053 0.18007 0.22905
 N8 N 0.14877 0.15337 0.24442
 C9 C 0.17282 0.14013 0.22839
 C10 C 0.22444 0.13381 0.17294
 N11 N 0.23843 0.14094 0.14532
 C12 C 0.22338 0.16633 0.13325
 C13 C 0.17325 0.22398 0.13230
 N14 N 0.14991 0.24218 0.14360
 C15 C 0.14100 0.23053 0.17166
 H16 H 0.12131 0.19529 0.23508
 H17 H 0.18495 0.11885 0.23472
 H18 H 0.23050 0.11444 0.18803
 H19 H 0.22958 0.17846 0.11202
 H20 H 0.18501 0.22755 0.11029
 H21 H 0.12240 0.23986 0.18592
 C22 C -0.16005 0.81613 0.20897
 C23 C -0.16157 0.79257 0.18632
 C24 C -0.18423 0.79371 0.16337
 C25 C -0.20558 0.81860 0.16278
 C26 C -0.20421 0.84165 0.18529
 C27 C -0.18094 0.84067 0.20828
 C28 C -0.13994 0.82139 0.23334
 N29 N -0.14763 0.84896 0.24735
 C30 C -0.17278 0.86086 0.23191
 C31 C -0.22774 0.86261 0.17906
 N32 N -0.24329 0.85322 0.15294
 C33 C -0.22950 0.82629 0.14283
 C34 C -0.17918 0.76866 0.14378
 N35 N -0.15397 0.75269 0.15432
 C36 C -0.14292 0.76713 0.18017
 H37 H -0.12027 0.80672 0.23928
 H38 H -0.18486 0.88232 0.23763
 H39 H -0.23229 0.88370 0.19222
 H40 H -0.23678 0.81246 0.12301
 H41 H -0.19198 0.76316 0.12274
 H42 H -0.12226 0.76015 0.19288
 C43 C -0.15565 0.17340 -0.19871
 C44 C -0.15691 0.19706 -0.17610
 C45 C -0.18031 0.19695 -0.15398
 C46 C -0.20241 0.17284 -0.15388
 C47 C -0.20115 0.14955 -0.17615
 C48 C -0.17735 0.14961 -0.19855
 C49 C -0.13609 0.16817 -0.22348
 N50 N -0.14495 0.14142 -0.23835
 C51 C -0.17017 0.12987 -0.22289
 C52 C -0.22591 0.12988 -0.17082
 N53 N -0.24202 0.14029 -0.14545
 C54 C -0.22747 0.16663 -0.13501
 C55 C -0.17606 0.22285 -0.13537
 N56 N -0.15041 0.23831 -0.14545
 C57 C -0.13847 0.22271 -0.17027
 H58 H -0.11632 0.18258 -0.22951
 H59 H -0.18331 0.10932 -0.22945
 H60 H -0.23100 0.10900 -0.18410
 H61 H -0.23499 0.18114 -0.11577
 H62 H -0.19020 0.22970 -0.11564
 H63 H -0.11794 0.22963 -0.18314
 C64 C 0.15302 0.82568 -0.19944
 C65 C 0.15239 0.80297 -0.17585
 C66 C 0.17593 0.80199 -0.15382
 C67 C 0.19996 0.82411 -0.15470
 C68 C 0.20060 0.84633 -0.17801
 C69 C 0.17687 0.84719 -0.20049
 C70 C 0.13378 0.83168 -0.22435
 N71 N 0.14513 0.85656 -0.24075
 C72 C 0.17162 0.86610 -0.22590
 C73 C 0.22662 0.86441 -0.17324
 N74 N 0.24170 0.85413 -0.14716
 C75 C 0.22530 0.82932 -0.13582
 C76 C 0.17011 0.77690 -0.13461
 N77 N 0.14346 0.76295 -0.14429
 C78 C 0.13232 0.77876 -0.16937
 H79 H 0.11271 0.81887 -0.22940
 H80 H 0.18689 0.88474 -0.23325
 H81 H 0.23311 0.88439 -0.18725
 H82 H 0.23148 0.81534 -0.11572
 H83 H 0.18422 0.76920 -0.11513
 H84 H 0.11159 0.77256 -0.18233
 C85 C 0.17502 1.15311 0.80286
 C86 C 0.19842 1.15310 0.82580
 C87 C 0.20081 1.17807 0.84623
 C88 C 0.17953 1.20288 0.84459
 C89 C 0.15638 1.20264 0.82236
 C90 C 0.15460 1.17803 0.80089
 C91 C 0.16753 1.13277 0.77907
 N92 N 0.14363 1.14526 0.76215
 C93 C 0.13564 1.17296 0.77566
 C94 C 0.13814 1.22861 0.82723
 N95 N 0.14966 1.24489 0.85201
 C96 C 0.17541 1.22932 0.86237
 C97 C 0.22597 1.17254 0.86521
 N98 N 0.23894 1.14480 0.85694
 C99 C 0.22219 1.13260 0.83296
 H100 H 0.17978 1.11133 0.77363
 H101 H 0.11705 1.18831 0.76813
 H102 H 0.11806 1.23504 0.81341
 H103 H 0.18920 1.23548 0.88256
 H104 H 0.23431 1.18760 0.88371
 H105 H 0.22741 1.11084 0.82116
 C106 C 0.82452 0.84792 0.79727
 C107 C 0.80056 0.84837 0.81945
 C108 C 0.80052 0.82671 0.84344
 C109 C 0.82402 0.80401 0.84520
 C110 C 0.84772 0.80383 0.82359
 C111 C 0.84802 0.82601 0.79952
 C112 C 0.83085 0.86624 0.77169
 N113 N 0.85788 0.85618 0.75828
 C114 C 0.86834 0.83142 0.77546
 C115 C 0.86716 0.77935 0.83095
 N116 N 0.85560 0.76409 0.85636
 C117 C 0.82912 0.77938 0.86515
 C118 C 0.77532 0.83322 0.86206
 N119 N 0.75998 0.85812 0.84981
 C120 C 0.77506 0.86747 0.82364
 H121 H 0.81705 0.88609 0.76434
 H122 H 0.88882 0.81750 0.77071
 H123 H 0.88740 0.77250 0.81761
 H124 H 0.81464 0.77360 0.88492
 H125 H 0.76866 0.82089 0.88305
 H126 H 0.76840 0.88718 0.80924
 C127 C 0.17702 0.84455 1.20037
 C128 C 0.20121 0.84204 1.17861
 C129 C 0.19942 0.82012 1.15499
 C130 C 0.17384 0.79995 1.15328
 C131 C 0.14975 0.80264 1.17453
 C132 C 0.15125 0.82540 1.19809
 C133 C 0.17267 0.86363 1.22575
 N134 N 0.14461 0.85698 1.23898
 C135 C 0.13138 0.83356 1.22192
 C136 C 0.12867 0.77931 1.16781
 N137 N 0.13978 0.76240 1.14342
 C138 C 0.16726 0.77498 1.13428
 C139 C 0.22528 0.82382 1.13649
 N140 N 0.24276 0.84729 1.14853
 C141 C 0.22843 0.85845 1.17442
 H142 H 0.18859 0.88173 1.23320
 H143 H 0.10939 0.82233 1.22690
 H144 H 0.10759 0.77409 1.18057
 H145 H 0.18175 0.76608 1.11564
 H146 H 0.23076 0.81085 1.11552
 H147 H 0.23666 0.87785 1.18839
 C148 C 0.81889 1.15777 1.20411
 C149 C 0.79597 1.15718 1.18083
 C150 C 0.79834 1.17679 1.15525
 C151 C 0.82327 1.19783 1.15306
 C152 C 0.84567 1.19855 1.17624
 C153 C 0.84378 1.17794 1.20158
 C154 C 0.82311 1.14065 1.23094
 N155 N 0.85047 1.14938 1.24453
 C156 C 0.86307 1.17240 1.22656
 C157 C 0.86598 1.22230 1.16913
 N158 N 0.85648 1.23595 1.14217
 C159 C 0.83057 1.22097 1.13196
 C160 C 0.77342 1.17048 1.13607
 N161 N 0.75601 1.14771 1.14953
 C162 C 0.76953 1.13951 1.17695
 H163 H 0.80801 1.12206 1.23886
 H164 H 0.88453 1.18472 1.23129
 H165 H 0.88574 1.22972 1.18294
 H166 H 0.81720 1.22748 1.11155
 H167 H 0.76831 1.18156 1.11395
 H168 H 0.76111 1.12149 1.19252
 O169 O 0.45740 0.94135 0.94484
 O170 O 0.42246 0.96853 0.97503
 C171 C 0.42931 0.94829 0.95361
 O172 O 0.54443 0.94391 1.05874
 O173 O 0.57797 0.97246 1.02836
 C174 C 0.57215 0.95241 1.05023
 O175 O 0.45715 0.93840 1.05513
 O176 O 0.42242 0.96755 1.02666
 C177 C 0.42902 0.94601 1.04691
 O178 O 0.54476 0.94626 0.94292
 O179 O 0.57801 0.97331 0.97491
 C180 C 0.57246 0.95428 0.95207
 Zr181 Zr 0.50064 0.95866 0.96129
 O182 O 0.50530 0.90934 0.96172
 O183 O 0.49755 0.95835 0.91206
 Zr184 Zr 0.50047 0.95672 1.04010
 O185 O 0.50539 0.90752 1.03703
 O186 O 0.49695 0.95346 1.08917
 O187 O 0.47293 0.95083 1.00043
 O188 O 0.52778 0.95264 1.00070
 O189 O 0.54200 1.05288 0.94517
 O190 O 0.57673 1.02578 0.97572
 C191 C 0.57005 1.04554 0.95382
 O192 O 0.45397 1.05123 1.05758
 O193 O 0.42077 1.02206 1.02728
 C194 C 0.42633 1.04291 1.04848
 O195 O 0.54176 1.05115 1.06025
 O196 O 0.57648 1.02502 1.02906
 C197 C 0.56989 1.04435 1.05137
 O198 O 0.45444 1.05506 0.94924
 O199 O 0.42114 1.02281 0.97585
 C200 C 0.42673 1.04550 0.95665
 Zr201 Zr 0.49859 1.03776 0.96325
 O202 O 0.50144 1.08717 0.96494
 O203 O 0.49452 1.03957 0.91411
 Zr204 Zr 0.49835 1.03578 1.04213
 O205 O 0.50021 1.08527 1.04269
 O206 O 0.49492 1.03484 1.09135
 Zr207 Zr 0.45331 0.99604 1.00144
 Zr208 Zr 0.54571 0.99840 1.00189
 O209 O 0.52531 1.04319 1.00290
 O210 O 0.47058 1.04217 1.00272
 O211 O 0.52730 0.99904 0.95629
 O212 O 0.47241 0.99544 1.04665
 O213 O 0.47266 0.99773 0.95644
 O214 O 0.52711 0.99683 1.04734
 H215 H 0.54254 0.93480 1.00043
 H216 H 0.45838 0.99469 1.06494
 H217 H 0.53899 1.06182 1.00321
 H218 H 0.45869 0.99800 0.93805
 H219 H 0.51071 0.96968 1.09806
 H220 H 0.51277 1.02258 1.09935
 H221 H 0.48182 1.09309 1.03118
 H222 H 0.48380 1.09474 0.97769
 H223 H 0.51132 1.02642 0.90533
 H224 H 0.51289 0.97361 0.90414
 H225 H 0.48654 0.90067 0.97188
 H226 H 0.48673 0.89933 1.02627
 O227 O -0.05929 0.45504 0.05136
 O228 O -0.02907 0.42138 0.02265
 C229 C -0.05074 0.42714 0.04285
 O230 O -0.05798 0.54437 -0.05841
 O231 O -0.02963 0.57839 -0.02821
 C232 C -0.04984 0.57229 -0.04979
 O233 O -0.06005 0.45631 -0.05645
 O234 O -0.02921 0.42205 -0.02917
 C235 C -0.05128 0.42819 -0.04884
 O236 O -0.05817 0.54325 0.05449
 O237 O -0.02950 0.57771 0.02540
 C238 C -0.05000 0.57146 0.04661
 Zr239 Zr -0.04272 0.49940 0.03674
 O240 O -0.09192 0.50225 0.03577
 O241 O -0.04326 0.49565 0.08593
 Zr242 Zr -0.04199 0.50032 -0.04219
 O243 O -0.09108 0.50328 -0.04447
 O244 O -0.03965 0.49746 -0.09141
 O245 O -0.04825 0.47199 -0.00310
 O246 O -0.04819 0.52689 -0.00242
 O247 O 0.05055 0.54366 0.05551
 O248 O 0.02181 0.57814 0.02615
 C249 C 0.04202 0.57178 0.04773
 O250 O 0.05599 0.45750 -0.05514
 O251 O 0.02433 0.42262 -0.02976
 C252 C 0.04700 0.42933 -0.04846
 O253 O 0.05207 0.54524 -0.05736
 O254 O 0.02240 0.57883 -0.02815
 C255 C 0.04333 0.57315 -0.04913
 O256 O 0.05351 0.45548 0.05199
 O257 O 0.02483 0.42165 0.02196
 C258 C 0.04604 0.42754 0.04264
 Zr259 Zr 0.03593 0.49975 0.03770
 O260 O 0.08506 0.50329 0.03873
 O261 O 0.03480 0.49577 0.08688
 Zr262 Zr 0.03676 0.50095 -0.04126
 O263 O 0.08582 0.50477 -0.04257
 O264 O 0.03548 0.49797 -0.09051
 Zr265 Zr -0.00264 0.45371 -0.00299
 Zr266 Zr -0.00327 0.54652 -0.00171
 O267 O 0.04190 0.52745 -0.00133
 O268 O 0.04267 0.47260 -0.00211
 O269 O -0.00364 0.52742 0.04362
 O270 O -0.00234 0.47352 -0.04786
 O271 O -0.00321 0.47232 0.04244
 O272 O -0.00278 0.52866 -0.04750
 H273 H -0.06666 0.54079 -0.00228
 H274 H -0.00213 0.45935 -0.06614
 H275 H 0.06009 0.54165 -0.00092
 H276 H -0.00307 0.45790 0.06052
 H277 H -0.02960 0.51682 -0.09900
 H278 H 0.02472 0.51689 -0.09833
 H279 H 0.09420 0.49041 -0.02656
 H280 H 0.09352 0.48593 0.02606
 H281 H 0.02276 0.51376 0.09498
 H282 H -0.03062 0.51303 0.09434
 H283 H -0.09971 0.48371 0.02441
 H284 H -0.09940 0.48884 -0.02855
 O285 O 1.06144 -0.05078 0.54139
 O286 O 1.03151 -0.02357 0.57655
 C287 C 1.05327 -0.04336 0.56955
 O288 O 1.05188 0.06396 0.45634
 O289 O 1.02579 0.03218 0.42202
 C290 C 1.04450 0.05506 0.42834
 O291 O 1.05618 0.05956 0.54388
 O292 O 1.02863 0.02860 0.57772
 C293 C 1.04891 0.05014 0.57174
 O294 O 1.05821 -0.05048 0.45377
 O295 O 1.02694 -0.02216 0.42065
 C296 C 1.04858 -0.04258 0.42614
 Zr297 Zr 1.04311 -0.03498 0.49823
 O298 O 1.09216 -0.03223 0.49456
 O299 O 1.04540 -0.08443 0.50009
 Zr300 Zr 1.03954 0.04399 0.49989
 O301 O 1.08864 0.04444 0.49569
 O302 O 1.03901 0.09329 0.50411
 O303 O 1.04792 0.00421 0.52683
 O304 O 1.04649 0.00530 0.47187
 O305 O 0.95084 -0.05681 0.45569
 O306 O 0.97559 -0.02372 0.42167
 C307 C 0.95742 -0.04708 0.42779
 O308 O 0.94416 0.05442 0.54546
 O309 O 0.97489 0.02548 0.57861
 C310 C 0.95291 0.04555 0.57309
 O311 O 0.94406 0.05772 0.45769
 O312 O 0.97418 0.03071 0.42254
 C313 C 0.95270 0.05085 0.42949
 O314 O 0.94770 -0.05410 0.54342
 O315 O 0.97835 -0.02635 0.57744
 C316 C 0.95693 -0.04666 0.57128
 Zr317 Zr 0.96424 -0.03830 0.49952
 O318 O 0.91509 -0.03950 0.49604
 O319 O 0.96537 -0.08769 0.50263
 Zr320 Zr 0.96080 0.04056 0.50099
 O321 O 0.91165 0.03793 0.49879
 O322 O 0.95854 0.08989 0.50488
 Zr323 Zr 1.00280 0.00182 0.54589
 Zr324 Zr 1.00114 0.00368 0.45337
 O325 O 0.95642 0.00136 0.47319
 O326 O 0.95700 0.00035 0.52820
 O327 O 1.00348 -0.04227 0.47109
 O328 O 1.00036 0.04743 0.52751
 O329 O 1.00438 -0.04299 0.52565
 O330 O 0.99942 0.04895 0.47282
 H331 H 1.06441 0.00643 0.45740
 H332 H 0.99972 0.06559 0.54185
 H333 H 0.93805 0.00070 0.45922
 H334 H 1.00528 -0.06168 0.53927
 H335 H 1.02269 0.10121 0.48988
 H336 H 0.96985 0.09882 0.48689
 H337 H 0.90458 0.02553 0.51692
 H338 H 0.90659 -0.02805 0.51417
 H339 H 0.98045 -0.09522 0.48694
 H340 H 1.03321 -0.09263 0.48232
 H341 H 1.09975 -0.01993 0.51255
 H342 H 1.09736 0.03423 0.51447
 C343 C 1.10388 0.11564 0.32329
 C344 C 1.12045 0.09605 0.30255
 C345 C 1.13625 0.10895 0.27699
 C346 C 1.13441 0.14118 0.27026
 C347 C 1.11663 0.16027 0.29028
 C348 C 1.10195 0.14782 0.31655
 C349 C 1.08832 0.10100 0.35096
 C350 C 1.07470 0.11863 0.37520
 C351 C 1.06065 0.10373 0.40056
 C352 C 1.05921 0.07105 0.40187
 C353 C 1.07281 0.05328 0.37807
 C354 C 1.08810 0.06795 0.35320
 C355 C 1.12037 0.06356 0.30682
 C356 C 1.10389 0.04977 0.33114
 H357 H 1.13272 0.04847 0.29071
 H358 H 1.10407 0.02448 0.33309
 H359 H 1.14849 0.09333 0.26137
 H360 H 1.11471 0.18518 0.28631
 H361 H 1.05053 0.11773 0.41901
 H362 H 1.07238 0.02794 0.37953
 H363 H 1.08878 0.16367 0.33102
 H364 H 1.07520 0.14386 0.37526
 C365 C 0.89869 -0.11011 0.32377
 C366 C 0.88156 -0.09131 0.30272
 C367 C 0.86547 -0.10518 0.27777
 C368 C 0.86753 -0.13761 0.27212
 C369 C 0.88605 -0.15581 0.29233
 C370 C 0.90107 -0.14239 0.31788
 C371 C 0.91422 -0.09464 0.35099
 C372 C 0.92814 -0.11162 0.37552
 C373 C 0.94201 -0.09607 0.40056
 C374 C 0.94293 -0.06336 0.40134
 C375 C 0.92910 -0.04618 0.37720
 C376 C 0.91396 -0.06155 0.35257
 C377 C 0.88128 -0.05871 0.30621
 C378 C 0.89778 -0.04411 0.33014
 H379 H 0.86855 -0.04419 0.28985
 H380 H 0.89723 -0.01880 0.33153
 H381 H 0.85262 -0.09027 0.26192
 H382 H 0.88819 -0.18082 0.28923
 H383 H 0.95236 -0.10963 0.41924
 H384 H 0.92914 -0.02082 0.37824
 H385 H 0.91475 -0.15766 0.33253
 H386 H 0.92797 -0.13684 0.37614
 C387 C 0.89652 0.10339 0.68110
 C388 C 0.87999 0.08390 0.70188
 C389 C 0.86540 0.09683 0.72826
 C390 C 0.86872 0.12884 0.73561
 C391 C 0.88679 0.14756 0.71559
 C392 C 0.90014 0.13518 0.68866
 C393 C 0.91045 0.08909 0.65245
 C394 C 0.92326 0.10717 0.62819
 C395 C 0.93638 0.09278 0.60214
 C396 C 0.93760 0.06016 0.59998
 C397 C 0.92440 0.04183 0.62359
 C398 C 0.90997 0.05612 0.64934
 C399 C 0.87901 0.05151 0.69672
 C400 C 0.89445 0.03783 0.67151
 H401 H 0.86678 0.03640 0.71285
 H402 H 0.89364 0.01261 0.66896
 H403 H 0.85280 0.08149 0.74384
 H404 H 0.88984 0.17228 0.71992
 H405 H 0.94623 0.10718 0.58386
 H406 H 0.92472 0.01654 0.62148
 H407 H 0.91362 0.15082 0.67430
 H408 H 0.92297 0.13239 0.62869
 C409 C 1.10632 -0.10466 0.67728
 C410 C 1.12979 -0.08850 0.69380
 C411 C 1.14273 -0.10155 0.72097
 C412 C 1.13248 -0.13067 0.73264
 C413 C 1.10878 -0.14628 0.71604
 C414 C 1.09602 -0.13360 0.68893
 C415 C 1.09314 -0.08998 0.64837
 C416 C 1.07023 -0.10460 0.62985
 C417 C 1.05806 -0.08954 0.60369
 C418 C 1.06838 -0.05972 0.59542
 C419 C 1.09160 -0.04514 0.61300
 C420 C 1.10414 -0.06008 0.63936
 C421 C 1.14004 -0.05921 0.68333
 C422 C 1.12741 -0.04527 0.65678
 H423 H 1.15798 -0.04674 0.69600
 H424 H 1.13601 -0.02250 0.64978
 H425 H 1.16022 -0.08825 0.73328
 H426 H 1.10023 -0.16886 0.72328
 H427 H 1.04006 -0.10096 0.59015
 H428 H 1.09977 -0.02216 0.60620
 H429 H 1.07805 -0.14693 0.67751
 H430 H 1.06122 -0.12749 0.63520
 C431 C 0.31804 1.09797 1.10710
 C432 C 0.29654 1.11359 1.08757
 C433 C 0.27029 1.12833 1.10049
 C434 C 0.26383 1.12621 1.13265
 C435 C 0.28435 1.10870 1.15148
 C436 C 0.31118 1.09516 1.13903
 C437 C 0.34673 1.08423 1.09272
 C438 C 0.37173 1.07251 1.11057
 C439 C 0.39790 1.05973 1.09605
 C440 C 0.39940 1.05775 1.06353
 C441 C 0.37498 1.06982 1.04547
 C442 C 0.34915 1.08392 1.05982
 C443 C 0.30096 1.11371 1.05520
 C444 C 0.32623 1.09840 1.04156
 H445 H 0.28426 1.12524 1.04010
 H446 H 0.32825 1.09857 1.01638
 H447 H 0.25421 1.14030 1.08511
 H448 H 0.28061 1.10645 1.17629
 H449 H 0.41676 1.05075 1.11026
 H450 H 0.37654 1.06896 1.02024
 H451 H 0.32611 1.08231 1.15473
 H452 H 0.37171 1.07346 1.13571
 C453 C 0.32298 0.89311 0.89197
 C454 C 0.30275 0.87478 0.91040
 C455 C 0.27614 0.86124 0.89704
 C456 C 0.26819 0.86674 0.86560
 C457 C 0.28795 0.88601 0.84781
 C458 C 0.31498 0.89873 0.86065
 C459 C 0.35152 0.90656 0.90694
 C460 C 0.37469 0.92254 0.88999
 C461 C 0.40042 0.93536 0.90521
 C462 C 0.40339 0.93288 0.93758
 C463 C 0.38110 0.91631 0.95460
 C464 C 0.35552 0.90266 0.93948
 C465 C 0.30872 0.87076 0.94228
 C466 C 0.33421 0.88490 0.95662
 H467 H 0.29309 0.85697 0.95653
 H468 H 0.33749 0.88154 0.98145
 H469 H 0.26091 0.84765 0.91183
 H470 H 0.28325 0.89069 0.82350
 H471 H 0.41771 0.94790 0.89178
 H472 H 0.38404 0.91360 0.97952
 H473 H 0.32907 0.91324 0.84573
 H474 H 0.37345 0.92527 0.86502
 C475 C 0.67867 0.89729 1.11229
 C476 C 0.69793 0.87746 1.09429
 C477 C 0.72361 0.86244 1.10809
 C478 C 0.73164 0.86795 1.13950
 C479 C 0.71322 0.88912 1.15667
 C480 C 0.68705 0.90329 1.14343
 C481 C 0.65060 0.91162 1.09712
 C482 C 0.62782 0.92843 1.11389
 C483 C 0.60207 0.94132 1.09861
 C484 C 0.59881 0.93822 1.06632
 C485 C 0.62096 0.92121 1.04943
 C486 C 0.64638 0.90727 1.06466
 C487 C 0.69187 0.87327 1.06245
 C488 C 0.66707 0.88842 1.04782
 H489 H 0.70684 0.85842 1.04850
 H490 H 0.66364 0.88476 1.02305
 H491 H 0.73802 0.84748 1.09374
 H492 H 0.71814 0.89404 1.18089
 H493 H 0.58486 0.95413 1.11194
 H494 H 0.61783 0.91808 1.02455
 H495 H 0.67383 0.91908 1.15791
 H496 H 0.62922 0.93147 1.13881
 C497 C 0.67722 1.09988 0.89310
 C498 C 0.69649 1.11941 0.91137
 C499 C 0.72300 1.13329 0.89821
 C500 C 0.73187 1.12689 0.86721
 C501 C 0.71328 1.10617 0.84972
 C502 C 0.68629 1.09314 0.86231
 C503 C 0.64853 1.08644 0.90773
 C504 C 0.62593 1.06969 0.89068
 C505 C 0.59991 1.05711 0.90562
 C506 C 0.59618 1.06056 0.93781
 C507 C 0.61797 1.07778 0.95490
 C508 C 0.64369 1.09132 0.94001
 C509 C 0.68969 1.12435 0.94294
 C510 C 0.66425 1.11005 0.95711
 H511 H 0.70464 1.13902 0.95708
 H512 H 0.66031 1.11415 0.98172
 H513 H 0.73741 1.14795 0.91282
 H514 H 0.71881 1.10065 0.82577
 H515 H 0.58302 1.04403 0.89215
 H516 H 0.61451 1.08109 0.97969
 H517 H 0.67303 1.07757 0.84765
 H518 H 0.62781 1.06627 0.86584
 C519 C 0.10818 0.32010 0.09743
 C520 C 0.11465 0.32141 0.12978
 C521 C 0.12809 0.29554 0.14490
 C522 C 0.13625 0.26865 0.12805
 C523 C 0.13096 0.26785 0.09584
 C524 C 0.11696 0.29312 0.08068
 C525 C 0.09255 0.34767 0.08244
 C526 C 0.08231 0.34746 0.05122
 C527 C 0.06734 0.37348 0.03848
 C528 C 0.06257 0.40053 0.05632
 C529 C 0.07277 0.40113 0.08737
 C530 C 0.08705 0.37471 0.10073
 C531 C 0.10805 0.34864 0.14672
 C532 C 0.09507 0.37490 0.13239
 H533 H 0.11330 0.34978 0.17141
 H534 H 0.09068 0.39548 0.14648
 H535 H 0.13278 0.29646 0.16971
 H536 H 0.13717 0.24731 0.08245
 H537 H 0.05961 0.37251 0.01444
 H538 H 0.06863 0.42180 0.10145
 H539 H 0.11343 0.29112 0.05588
 H540 H 0.08513 0.32730 0.03639
 C541 C -0.11191 0.32061 -0.10487
 C542 C -0.09315 0.29378 -0.10985
 C543 C -0.10589 0.26706 -0.12391
 C544 C -0.13752 0.26599 -0.13168
 C545 C -0.15646 0.29192 -0.12547
 C546 C -0.14382 0.31909 -0.11251
 C547 C -0.09706 0.34909 -0.09090
 C548 C -0.11249 0.37813 -0.08831
 C549 C -0.09753 0.40394 -0.07503
 C550 C -0.06709 0.40126 -0.06354
 C551 C -0.05151 0.37251 -0.06621
 C552 C -0.06587 0.34681 -0.08050
 C553 C -0.06205 0.29349 -0.10007
 C554 C -0.04894 0.31916 -0.08501
 H555 H -0.04779 0.27285 -0.10355
 H556 H -0.02495 0.31754 -0.07731
 H557 H -0.09147 0.24665 -0.12805
 H558 H -0.18101 0.29123 -0.13112
 H559 H -0.10998 0.42594 -0.07335
 H560 H -0.02785 0.37028 -0.05771
 H561 H -0.15941 0.33842 -0.10823
 H562 H -0.13591 0.38148 -0.09679
 C563 C 0.10363 0.68076 -0.10515
 C564 C 0.08566 0.70842 -0.10817
 C565 C 0.09873 0.73520 -0.12185
 C566 C 0.13000 0.73537 -0.13099
 C567 C 0.14819 0.70854 -0.12666
 C568 C 0.13516 0.68140 -0.11417
 C569 C 0.08850 0.65232 -0.09154
 C570 C 0.10299 0.62272 -0.09107
 C571 C 0.08805 0.59700 -0.07777
 C572 C 0.05857 0.60022 -0.06416
 C573 C 0.04383 0.62955 -0.06481
 C574 C 0.05812 0.65528 -0.07918
 C575 C 0.05515 0.70941 -0.09673
 C576 C 0.04198 0.68367 -0.08179
 H577 H 0.04150 0.73067 -0.09868
 H578 H 0.01856 0.68585 -0.07266
 H579 H 0.08494 0.75629 -0.12458
 H580 H 0.17247 0.70854 -0.13340
 H581 H 0.09989 0.57461 -0.07768
 H582 H 0.02097 0.63229 -0.05452
 H583 H 0.15025 0.66141 -0.11128
 H584 H 0.12564 0.61887 -0.10119
 C585 C -0.10826 0.67787 0.10777
 C586 C -0.13551 0.67215 0.12541
 C587 C -0.15094 0.69708 0.14022
 C588 C -0.13891 0.72743 0.13851
 C589 C -0.11150 0.73297 0.12197
 C590 C -0.09634 0.70858 0.10661
 C591 C -0.09296 0.65086 0.09160
 C592 C -0.06758 0.65464 0.07126
 C593 C -0.05407 0.62888 0.05670
 C594 C -0.06502 0.59847 0.06231
 C595 C -0.09066 0.59445 0.08221
 C596 C -0.10498 0.62043 0.09641
 C597 C -0.14678 0.64158 0.12860
 C598 C -0.13154 0.61622 0.11486
 H599 H -0.16747 0.63713 0.14232
 H600 H -0.14098 0.59299 0.11836
 H601 H -0.17192 0.69295 0.15360
 H602 H -0.10193 0.75636 0.12094
 H603 H -0.03494 0.63296 0.04084
 H604 H -0.09984 0.57120 0.08623
 H605 H -0.07518 0.71421 0.09439
 H606 H -0.05809 0.67732 0.06581
 C607 C 1.10456 0.10793 0.68024
 C608 C 1.11739 0.08787 0.70312
 C609 C 1.13140 0.10049 0.72993
 C610 C 1.13068 0.13293 0.73568
 C611 C 1.11597 0.15245 0.71364
 C612 C 1.10356 0.14025 0.68618
 C613 C 1.09125 0.09375 0.65127
 C614 C 1.08252 0.11167 0.62508
 C615 C 1.06952 0.09734 0.59886
 C616 C 1.06432 0.06503 0.59852
 C617 C 1.07354 0.04690 0.62417
 C618 C 1.08795 0.06087 0.65000
 C619 C 1.11502 0.05535 0.69965
 C620 C 1.09964 0.04218 0.67417
 H621 H 1.12431 0.03987 0.71739
 H622 H 1.09745 0.01696 0.67304
 H623 H 1.14127 0.08479 0.74713
 H624 H 1.11505 0.17752 0.71684
 H625 H 1.06278 0.11164 0.57912
 H626 H 1.06998 0.02183 0.62373
 H627 H 1.09277 0.15642 0.67014
 H628 H 1.08592 0.13666 0.62428
 C629 C 0.90198 -0.10524 0.67932
 C630 C 0.87042 -0.09836 0.68565
 C631 C 0.85595 -0.11087 0.71222
 C632 C 0.87210 -0.13129 0.73247
 C633 C 0.90329 -0.13864 0.72527
 C634 C 0.91797 -0.12580 0.69930
 C635 C 0.91683 -0.09074 0.65125
 C636 C 0.94887 -0.09362 0.64476
 C637 C 0.96165 -0.07937 0.61852
 C638 C 0.94276 -0.06257 0.59788
 C639 C 0.91093 -0.05936 0.60395
 C640 C 0.89798 -0.07272 0.63089
 C641 C 0.85329 -0.07952 0.66509
 C642 C 0.86663 -0.06744 0.63802
 H643 H 0.82904 -0.07436 0.66980
 H644 H 0.85230 -0.05331 0.62269
 H645 H 0.83168 -0.10542 0.71620
 H646 H 0.91708 -0.15372 0.74005
 H647 H 0.98641 -0.08148 0.61421
 H648 H 0.89657 -0.04553 0.58830
 H649 H 0.94183 -0.13251 0.69520
 H650 H 0.96455 -0.10619 0.65991
 C651 C 1.10686 -0.09989 0.31879
 C652 C 1.08711 -0.11429 0.29669
 C653 C 1.09986 -0.12936 0.27052
 C654 C 1.13219 -0.12883 0.26481
 C655 C 1.15139 -0.11294 0.28621
 C656 C 1.13903 -0.09900 0.31286
 C657 C 1.09254 -0.08537 0.34713
 C658 C 1.11036 -0.07428 0.37242
 C659 C 1.09591 -0.06081 0.39827
 C660 C 1.06352 -0.05753 0.39921
 C661 C 1.04546 -0.06884 0.37445
 C662 C 1.05968 -0.08352 0.34887
 C663 C 1.05473 -0.11280 0.30039
 C664 C 1.04130 -0.09704 0.32551
 H665 H 1.03949 -0.12342 0.28327
 H666 H 1.01614 -0.09601 0.32701
 H667 H 1.08427 -0.14016 0.25388
 H668 H 1.17634 -0.11208 0.28317
 H669 H 1.11012 -0.05243 0.41740
 H670 H 1.02030 -0.06699 0.37557
 H671 H 1.15504 -0.08731 0.32833
 H672 H 1.13538 -0.07624 0.37292
 C673 C 0.89045 0.10907 0.32478
 C674 C 0.90938 0.12389 0.30230
 C675 C 0.89578 0.13827 0.27619
 C676 C 0.86346 0.13652 0.27079
 C677 C 0.84501 0.12044 0.29266
 C678 C 0.85820 0.10727 0.31937
 C679 C 0.90579 0.09481 0.35277
 C680 C 0.88888 0.08310 0.37837
 C681 C 0.90429 0.06944 0.40361
 C682 C 0.93674 0.06660 0.40358
 C683 C 0.95389 0.07874 0.37863
 C684 C 0.93872 0.09360 0.35370
 C685 C 0.94186 0.12331 0.30539
 C686 C 0.95623 0.10777 0.33011
 H687 H 0.95644 0.13435 0.28799
 H688 H 0.98144 0.10731 0.33105
 H689 H 0.91084 0.14920 0.25919
 H690 H 0.82007 0.11871 0.28977
 H691 H 0.89078 0.06042 0.42292
 H692 H 0.97910 0.07722 0.37903
 H693 H 0.84280 0.09529 0.33522
 H694 H 0.86384 0.08461 0.37949
 C695 C 0.10983 0.32466 -0.10627
 C696 C 0.09143 0.30432 -0.12457
 C697 C 0.10510 0.27842 -0.13932
 C698 C 0.13680 0.27112 -0.13484
 C699 C 0.15463 0.29094 -0.11564
 C700 C 0.14149 0.31742 -0.10186
 C701 C 0.09450 0.35246 -0.09154
 C702 C 0.11128 0.37600 -0.07581
 C703 C 0.09579 0.40125 -0.06214
 C704 C 0.06333 0.40323 -0.06341
 C705 C 0.04641 0.38038 -0.07944
 C706 C 0.06177 0.35545 -0.09410
 C707 C 0.05929 0.30932 -0.12723
 C708 C 0.04468 0.33395 -0.11177
 H709 H 0.04509 0.29354 -0.14096
 H710 H 0.01968 0.33650 -0.11412
 H711 H 0.09036 0.26303 -0.15283
 H712 H 0.17914 0.28663 -0.11178
 H713 H 0.10913 0.41904 -0.05012
 H714 H 0.02134 0.38257 -0.08121
 H715 H 0.15642 0.33160 -0.08742
 H716 H 0.13633 0.37556 -0.07413
 C717 C -0.10559 0.31881 0.10235
 C718 C -0.11206 0.29255 0.08331
 C719 C -0.12508 0.26546 0.09647
 C720 C -0.13035 0.26362 0.12864
 C721 C -0.12273 0.28913 0.14762
 C722 C -0.11071 0.31649 0.13470
 C723 C -0.09264 0.34762 0.08734
 C724 C -0.08864 0.37600 0.10357
 C725 C -0.07569 0.40197 0.08879
 C726 C -0.06606 0.40017 0.05768
 C727 C -0.07071 0.37234 0.04100
 C728 C -0.08454 0.34633 0.05539
 C729 C -0.10481 0.29325 0.05148
 C730 C -0.09070 0.31932 0.03797
 H731 H -0.10949 0.27308 0.03692
 H732 H -0.08493 0.31846 0.01339
 H733 H -0.13040 0.24544 0.08191
 H734 H -0.12662 0.28802 0.17253
 H735 H -0.07254 0.42334 0.10198
 H736 H -0.06398 0.37110 0.01667
 H737 H -0.10520 0.33534 0.15047
 H738 H -0.09554 0.37871 0.12758
 C739 C -0.10757 0.68186 -0.10364
 C740 C -0.08852 0.70158 -0.12191
 C741 C -0.10098 0.72881 -0.13537
 C742 C -0.13217 0.73769 -0.13011
 C743 C -0.15046 0.71854 -0.11068
 C744 C -0.13848 0.69103 -0.09788
 C745 C -0.09368 0.65250 -0.09053
 C746 C -0.11138 0.62983 -0.07454
 C747 C -0.09712 0.60327 -0.06204
 C748 C -0.06502 0.59894 -0.06495
 C749 C -0.04729 0.62065 -0.08159
 C750 C -0.06143 0.64712 -0.09481
 C751 C -0.05698 0.69436 -0.12617
 C752 C -0.04360 0.66799 -0.11247
 H753 H -0.04226 0.70959 -0.13993
 H754 H -0.01901 0.66366 -0.11611
 H755 H -0.08578 0.74359 -0.14901
 H756 H -0.17459 0.72395 -0.10605
 H757 H -0.11106 0.58640 -0.04942
 H758 H -0.02259 0.61661 -0.08460
 H759 H -0.15381 0.67740 -0.08337
 H760 H -0.13620 0.63210 -0.07155
 C761 C 0.10039 0.67906 0.10594
 C762 C 0.08144 0.70567 0.11137
 C763 C 0.09438 0.73280 0.12453
 C764 C 0.12630 0.73434 0.13101
 C765 C 0.14518 0.70836 0.12474
 C766 C 0.13245 0.68097 0.11257
 C767 C 0.08567 0.65041 0.09231
 C768 C 0.10177 0.62187 0.08870
 C769 C 0.08729 0.59614 0.07489
 C770 C 0.05662 0.59835 0.06403
 C771 C 0.04009 0.62632 0.06836
 C772 C 0.05414 0.65209 0.08290
 C773 C 0.04997 0.70531 0.10282
 C774 C 0.03677 0.67931 0.08831
 H775 H 0.03550 0.72573 0.10673
 H776 H 0.01249 0.68042 0.08148
 H777 H 0.07991 0.75314 0.12882
 H778 H 0.16990 0.70921 0.12960
 H779 H 0.10039 0.57466 0.07202
 H780 H 0.01614 0.62790 0.06070
 H781 H 0.14818 0.66182 0.10804
 H782 H 0.12547 0.61887 0.09647
 C783 C 0.32019 1.10561 0.89878
 C784 C 0.29419 1.08645 0.89195
 C785 C 0.26777 1.09934 0.87744
 C786 C 0.26636 1.13138 0.87072
 C787 C 0.29172 1.15048 0.87833
 C788 C 0.31838 1.13782 0.89200
 C789 C 0.34823 1.09085 0.91354
 C790 C 0.37624 1.10721 0.91869
 C791 C 0.40173 1.09239 0.93253
 C792 C 0.39981 1.06108 0.94195
 C793 C 0.37214 1.04449 0.93675
 C794 C 0.34665 1.05892 0.92211
 C795 C 0.29446 1.05476 0.90024
 C796 C 0.31991 1.04142 0.91548
 H797 H 0.27448 1.04013 0.89529
 H798 H 0.31881 1.01689 0.92176
 H799 H 0.24789 1.08468 0.87217
 H800 H 0.29096 1.17530 0.87335
 H801 H 0.42293 1.10557 0.93618
 H802 H 0.37073 1.02005 0.94338
 H803 H 0.33708 1.15371 0.89741
 H804 H 0.37912 1.13131 0.91187
 C805 C 0.32412 0.88628 1.10766
 C806 C 0.29617 0.88395 1.09029
 C807 C 0.26980 0.87005 1.10364
 C808 C 0.27029 0.86000 1.13469
 C809 C 0.29744 0.86349 1.15235
 C810 C 0.32423 0.87616 1.13896
 C811 C 0.35198 0.90054 1.09226
 C812 C 0.38175 0.90073 1.10606
 C813 C 0.40684 0.91493 1.09101
 C814 C 0.40278 0.92970 1.06209
 C815 C 0.37330 0.92922 1.04797
 C816 C 0.34822 0.91403 1.06236
 C817 C 0.29439 0.89642 1.06015
 C818 C 0.31962 0.91187 1.04681
 H819 H 0.27290 0.89495 1.04698
 H820 H 0.31684 0.92185 1.02374
 H821 H 0.24843 0.86804 1.09034
 H822 H 0.29789 0.85612 1.17650
 H823 H 0.42937 0.91486 1.10236
 H824 H 0.36989 0.94041 1.02557
 H825 H 0.34451 0.87844 1.15362
 H826 H 0.38620 0.88979 1.12829
 C827 C 0.67501 1.10508 1.11108
 C828 C 0.70174 1.11004 1.09242
 C829 C 0.72798 1.12490 1.10505
 C830 C 0.72860 1.13371 1.13648
 C831 C 0.70264 1.12781 1.15526
 C832 C 0.67602 1.11390 1.14274
 C833 C 0.64718 1.08986 1.09646
 C834 C 0.61842 1.08656 1.11195
 C835 C 0.59324 1.07204 1.09726
 C836 C 0.59625 1.06003 1.06701
 C837 C 0.62470 1.06342 1.05135
 C838 C 0.64981 1.07879 1.06549
 C839 C 0.70243 1.09943 1.06155
 C840 C 0.67725 1.08358 1.04858
 H841 H 0.72299 1.10291 1.04737
 H842 H 0.67915 1.07531 1.02477
 H843 H 0.74840 1.12874 1.09074
 H844 H 0.70292 1.13428 1.17966
 H845 H 0.57145 1.06986 1.10975
 H846 H 0.62717 1.05459 1.02781
 H847 H 0.65675 1.10983 1.15829
 H848 H 0.61480 1.09537 1.13523
 C849 C 0.67933 0.90015 0.88951
 C850 C 0.70566 0.89345 0.90825
 C851 C 0.73193 0.87918 0.89504
 C852 C 0.73298 0.87270 0.86306
 C853 C 0.70759 0.88070 0.84420
 C854 C 0.68091 0.89404 0.85724
 C855 C 0.65120 0.91404 0.90483
 C856 C 0.62259 0.91811 0.88921
 C857 C 0.59699 0.93098 0.90464
 C858 C 0.59944 0.94059 0.93577
 C859 C 0.62778 0.93658 0.95153
 C860 C 0.65329 0.92263 0.93663
 C861 C 0.70586 0.90157 0.93988
 C862 C 0.68050 0.91652 0.95358
 H863 H 0.72615 0.89676 0.95414
 H864 H 0.68197 0.92281 0.97802
 H865 H 0.75196 0.87370 0.90944
 H866 H 0.70825 0.87606 0.81940
 H867 H 0.57528 0.93374 0.89206
 H868 H 0.62974 0.94359 0.97573
 H869 H 0.66198 0.89968 0.84168
 H870 H 0.61936 0.91102 0.86530
   
