data_POSCAR
  _audit_creation_date              2014-09-24
  _audit_creation_method            'ToBaCCo'
  _symmetry_space_group_name_H-M    'P1'
  _symmetry_Int_Tables_number       1
  _symmetry_cell_setting            triclinic
  loop_
  _symmetry_equiv_pos_as_xyz
 x,y,z
_cell_length_a 36.5672
_cell_length_b 36.9520
_cell_length_c 36.3282
_cell_angle_alpha 87.564800
_cell_angle_beta 86.835800
_cell_angle_gamma 89.138900
loop_
  _atom_site_label
  _atom_site_type_symbol
  _atom_site_fract_x
  _atom_site_fract_y
  _atom_site_fract_z
C1 C 0.29466 0.46025 0.99181
 C2 C 0.27419 0.49202 0.99789
 C3 C 0.29204 0.52444 1.00364
 C4 C 0.33038 0.52533 1.00337
 C5 C 0.35061 0.49332 0.99725
 C6 C 0.33296 0.46075 0.99155
 C7 C 0.23401 0.49145 0.99835
 C8 C 0.21334 0.49385 1.03182
 C9 C 0.17491 0.49405 1.03244
 C10 C 0.15750 0.49245 0.99904
 C11 C 0.17805 0.49039 0.96541
 C12 C 0.21638 0.48949 0.96525
 H13 H 0.28080 0.43516 0.98758
 H14 H 0.27604 0.54897 1.00814
 H15 H 0.22743 0.49555 1.05711
 H16 H 0.23261 0.48800 0.93951
 H17 H 0.38010 0.49366 0.99690
 H18 H 0.12784 0.49310 0.99912
 C19 C 0.71036 0.46422 0.00912
 C20 C 0.72636 0.49836 0.01033
 C21 C 0.70423 0.52965 0.01082
 C22 C 0.66613 0.52701 0.00970
 C23 C 0.65031 0.49272 0.00879
 C24 C 0.67225 0.46128 0.00848
 C25 C 0.76639 0.50152 0.00818
 C26 C 0.78567 0.49914 -0.02606
 C27 C 0.82388 0.50233 -0.02878
 C28 C 0.84261 0.50759 0.00323
 C29 C 0.82354 0.50990 0.03768
 C30 C 0.78530 0.50698 0.03998
 H31 H 0.72769 0.44023 0.00811
 H32 H 0.71672 0.55605 0.01097
 H33 H 0.77065 0.49495 -0.05036
 H34 H 0.77032 0.50866 0.06645
 H35 H 0.62096 0.49022 0.00769
 H36 H 0.87213 0.50967 0.00108
 C37 C 0.03150 0.21496 0.50440
 C38 C -0.00094 0.23459 0.49842
 C39 C -0.03293 0.21626 0.49112
 C40 C -0.03260 0.17842 0.48985
 C41 C 0.00000 0.15912 0.49570
 C42 C 0.03209 0.17712 0.50308
 C43 C -0.00166 0.27425 0.50068
 C44 C -0.00644 0.29641 0.46894
 C45 C -0.00719 0.33428 0.47096
 C46 C -0.00369 0.34961 0.50532
 C47 C 0.00072 0.32763 0.53720
 C48 C 0.00212 0.28992 0.53472
 H49 H 0.05620 0.22910 0.51004
 H50 H -0.05811 0.23137 0.48701
 H51 H -0.00920 0.28415 0.44266
 H52 H 0.00557 0.27267 0.55915
 H53 H 0.00036 0.13001 0.49475
 H54 H -0.00435 0.37869 0.50771
 C55 C 1.03676 0.79218 0.50022
 C56 C 1.00383 0.77363 0.49819
 C57 C 0.97077 0.79298 0.49572
 C58 C 0.97043 0.83093 0.49549
 C59 C 1.00352 0.84935 0.49730
 C60 C 1.03687 0.83020 0.49962
 C61 C 1.00390 0.73383 0.49982
 C62 C 1.00525 0.71494 0.53404
 C63 C 1.00558 0.67695 0.53592
 C64 C 1.00502 0.65814 0.50320
 C65 C 1.00381 0.67679 0.46883
 C66 C 1.00298 0.71476 0.46732
 H67 H 1.06201 0.77676 0.50240
 H68 H 0.94548 0.77836 0.49442
 H69 H 1.00591 0.72999 0.55891
 H70 H 1.00209 0.72943 0.44090
 H71 H 1.00323 0.87871 0.49709
 H72 H 1.00547 0.62885 0.50482
 C73 C 0.49497 0.02731 0.20510
 C74 C 0.49659 -0.00419 0.22785
 C75 C 0.49622 -0.03830 0.21244
 C76 C 0.49420 -0.04097 0.17425
 C77 C 0.49265 -0.00934 0.15164
 C78 C 0.49311 0.02490 0.16687
 C79 C 0.49931 -0.00143 0.26776
 C80 C 0.46748 0.00119 0.29086
 C81 C 0.46996 0.00381 0.32900
 C82 C 0.50460 0.00389 0.34379
 C83 C 0.53655 0.00137 0.32083
 C84 C 0.53381 -0.00134 0.28275
 H85 H 0.49544 0.05365 0.21710
 H86 H 0.49761 -0.06250 0.23021
 H87 H 0.44084 0.00113 0.27917
 H88 H 0.55826 -0.00334 0.26470
 H89 H 0.49123 -0.01168 0.12218
 H90 H 0.50702 0.00593 0.37316
 C91 C 0.51115 0.02624 0.78806
 C92 C 0.50515 -0.00629 0.77096
 C93 C 0.50034 -0.03852 0.79236
 C94 C 0.50149 -0.03842 0.83091
 C95 C 0.50764 -0.00565 0.84768
 C96 C 0.51227 0.02674 0.82648
 C97 C 0.50273 -0.00628 0.73073
 C98 C 0.53441 -0.00233 0.70745
 C99 C 0.53207 -0.00130 0.66905
 C100 C 0.49764 -0.00379 0.65414
 C101 C 0.46578 -0.00744 0.67724
 C102 C 0.46849 -0.00906 0.71559
 H103 H 0.51433 0.05122 0.77151
 H104 H 0.49558 -0.06357 0.77898
 H105 H 0.56085 -0.00006 0.71922
 H106 H 0.44410 -0.01165 0.73375
 H107 H 0.50858 -0.00518 0.87726
 H108 H 0.49528 -0.00262 0.62457
 C109 C 0.30546 0.03609 0.47233
 H110 H 0.30219 0.05567 0.49361
 C111 C 0.33479 0.03882 0.44622
 H112 H 0.35378 0.06083 0.44748
 C113 C 0.28589 -0.01786 0.44674
 H114 H 0.26756 -0.04060 0.44796
 C115 C 0.31509 -0.01626 0.42021
 H116 H 0.31890 -0.03759 0.40076
 N117 N 0.28200 0.00789 0.47240
 C118 C 0.19333 0.04348 0.54767
 H119 H 0.19455 0.02193 0.56870
 C120 C 0.16505 0.06917 0.54957
 H121 H 0.14476 0.06728 0.57235
 C122 C 0.21679 0.07005 0.49082
 H123 H 0.23607 0.06934 0.46722
 C124 C 0.18880 0.09622 0.49157
 H125 H 0.18685 0.11578 0.46867
 Zn126 Zn 0.24890 0.00280 0.51392
 N127 N 0.21807 0.04397 0.51832
 C128 C 0.28025 0.02205 0.58025
 N129 N 0.27849 -0.00367 0.55471
 C130 C 0.30237 -0.03222 0.55387
 C131 C 0.33034 -0.03498 0.57846
 C132 C 0.30786 0.02029 0.60543
 C133 C 0.19521 -0.03450 0.48094
 C134 C 0.16722 -0.05936 0.47857
 C135 C 0.18534 -0.08862 0.53558
 C136 C 0.21321 -0.06322 0.53681
 N137 N 0.21729 -0.03662 0.50989
 H138 H 0.26168 0.04507 0.57975
 H139 H 0.30085 -0.05180 0.53270
 H140 H 0.35019 -0.05696 0.57646
 H141 H 0.30990 0.04178 0.62449
 H142 H 0.19860 -0.01261 0.46035
 H143 H 0.14924 -0.05685 0.45585
 H144 H 0.18174 -0.10901 0.55768
 H145 H 0.23048 -0.06384 0.56004
 C146 C 0.16202 0.09524 0.52071
 C147 C 0.34027 0.01197 0.42032
 C148 C 0.16163 -0.08632 0.50648
 C149 C 0.33384 -0.00799 0.60390
 C150 C 0.69581 0.03932 0.52494
 H151 H 0.69847 0.06005 0.50305
 C152 C 0.66630 0.04051 0.55085
 H153 H 0.64662 0.06254 0.54888
 C154 C 0.71714 -0.01592 0.55224
 H155 H 0.73623 -0.03853 0.55174
 C156 C 0.68785 -0.01582 0.57870
 H157 H 0.68474 -0.03818 0.59884
 N158 N 0.72017 0.01118 0.52573
 C159 C 0.80714 0.05089 0.44851
 H160 H 0.80604 0.03072 0.42789
 C161 C 0.83490 0.07649 0.44572
 H162 H 0.85491 0.07590 0.42271
 C163 C 0.78408 0.07390 0.50529
 H164 H 0.76519 0.07176 0.52920
 C165 C 0.81159 0.09986 0.50368
 H166 H 0.81359 0.11782 0.52626
 Zn167 Zn 0.75306 0.00836 0.48400
 N168 N 0.78289 0.04963 0.47826
 C169 C 0.72049 0.03129 0.41722
 N170 N 0.72318 0.00439 0.44373
 C171 C 0.70025 -0.02433 0.44575
 C172 C 0.67243 -0.02622 0.42122
 C173 C 0.69295 0.03044 0.39205
 C174 C 0.80816 -0.03200 0.51677
 C175 C 0.83671 -0.05737 0.51873
 C176 C 0.81804 -0.08199 0.46225
 C177 C 0.78968 -0.05620 0.46140
 N178 N 0.78557 -0.03164 0.48825
 H179 H 0.73832 0.05438 0.41679
 H180 H 0.70252 -0.04488 0.46765
 H181 H 0.65341 -0.04848 0.42404
 H182 H 0.69013 0.05272 0.37208
 H183 H 0.80476 -0.01166 0.53728
 H184 H 0.85509 -0.05681 0.54107
 H185 H 0.82160 -0.10069 0.44018
 H186 H 0.77204 -0.05483 0.43846
 C187 C 0.83792 0.10060 0.47412
 C188 C 0.66161 0.01223 0.57754
 C189 C 0.84229 -0.08222 0.49085
 C190 C 0.66806 0.00182 0.39464
 C191 C 0.47066 0.18883 1.02500
 H192 H 0.45213 0.19261 1.00291
 C193 C 0.46603 0.15971 1.05041
 H194 H 0.44363 0.14139 1.04783
 C195 C 0.52398 0.20689 1.05332
 H196 H 0.54727 0.22454 1.05342
 C197 C 0.52049 0.17786 1.07920
 H198 H 0.54090 0.17352 1.09949
 N199 N 0.49944 0.21146 1.02663
 C200 C 0.46857 0.29936 0.95067
 H201 H 0.49123 0.29760 0.93036
 C202 C 0.44323 0.32781 0.94805
 H203 H 0.44647 0.34766 0.92541
 C204 C 0.43883 0.27712 1.00657
 H205 H 0.43821 0.25827 1.03016
 C206 C 0.41294 0.30527 1.00506
 H207 H 0.39221 0.30774 1.02732
 Zn208 Zn 0.50735 0.24438 0.98597
 N209 N 0.46636 0.27518 0.97994
 C210 C 0.49111 0.21199 0.91934
 N211 N 0.51646 0.21530 0.94499
 C212 C 0.54613 0.19277 0.94627
 C213 C 0.55040 0.16446 0.92216
 C214 C 0.49424 0.18383 0.89480
 C215 C 0.54299 0.29659 1.02235
 C216 C 0.56741 0.32456 1.02636
 C217 C 0.59983 0.30792 0.96968
 C218 C 0.57480 0.28006 0.96679
 N219 N 0.54678 0.27533 0.99271
 H220 H 0.46715 0.22948 0.91959
 H221 H 0.56529 0.19546 0.96761
 H222 H 0.57319 0.14575 0.92495
 H223 H 0.47284 0.18002 0.87592
 H224 H 0.51997 0.29272 1.04207
 H225 H 0.56338 0.34209 1.04943
 H226 H 0.62117 0.31225 0.94819
 H227 H 0.57668 0.26350 0.94292
 C228 C 0.41572 0.33154 0.97609
 C229 C 0.49162 0.15358 1.07738
 C230 C 0.59565 0.33096 0.99936
 C231 C 0.52354 0.15907 0.89696
 C232 C 0.45733 0.79904 -0.03223
 H233 H 0.43605 0.79623 -0.01043
 C234 C 0.45599 0.82792 -0.05811
 H235 H 0.43334 0.84699 -0.05617
 C236 C 0.51416 0.77889 -0.05920
 H237 H 0.53747 0.76060 -0.05853
 C238 C 0.51393 0.80752 -0.08563
 H239 H 0.53694 0.81094 -0.10549
 N240 N 0.48639 0.77567 -0.03280
 C241 C 0.44848 0.68971 0.04484
 H242 H 0.46848 0.69216 0.06543
 C243 C 0.42443 0.66068 0.04739
 H244 H 0.42589 0.64118 0.07032
 C245 C 0.42487 0.71053 -0.01189
 H246 H 0.42638 0.72902 -0.03577
 C247 C 0.40040 0.68174 -0.01047
 H248 H 0.38283 0.67842 -0.03310
 Zn249 Zn 0.48967 0.74396 0.00899
 N250 N 0.44883 0.71339 0.01516
 C251 C 0.46546 0.77673 0.07581
 N252 N 0.49300 0.77404 0.04927
 C253 C 0.52188 0.79690 0.04735
 C254 C 0.52333 0.82460 0.07207
 C255 C 0.46583 0.80417 0.10115
 C256 C 0.53081 0.69014 -0.02464
 C257 C 0.55574 0.66131 -0.02685
 C258 C 0.58034 0.67931 0.02988
 C259 C 0.55497 0.70801 0.03096
 N260 N 0.53051 0.71244 0.00418
 H261 H 0.44227 0.75891 0.07617
 H262 H 0.54295 0.79459 0.02544
 H263 H 0.54576 0.84350 0.06938
 H264 H 0.44307 0.80694 0.12119
 H265 H 0.51044 0.69379 -0.04501
 H266 H 0.55459 0.64322 -0.04936
 H267 H 0.59875 0.67500 0.05205
 H268 H 0.55353 0.72541 0.05418
 C269 C 0.40097 0.65584 0.01884
 C270 C 0.48508 0.83294 -0.08450
 C271 C 0.58023 0.65515 0.00115
 C272 C 0.49463 0.82893 0.09871
 C273 C 1.03052 0.47888 0.19461
 H274 H 1.00884 0.45925 0.19842
 C275 C 1.05682 0.47593 0.16554
 H276 H 1.05561 0.45374 0.14711
 C277 C 1.05740 0.53287 0.21275
 H278 H 1.05677 0.55568 0.23043
 C279 C 1.08418 0.53100 0.18389
 H280 H 1.10434 0.55213 0.18004
 N281 N 1.03115 0.50711 0.21737
 C282 C 0.95637 0.47201 0.30898
 H283 H 0.93618 0.49363 0.30708
 C284 C 0.95379 0.44654 0.33842
 H285 H 0.93128 0.44861 0.35883
 C286 C 1.01175 0.44500 0.28594
 H287 H 1.03504 0.44544 0.26628
 C288 C 1.01029 0.41902 0.31512
 H289 H 1.03228 0.39925 0.31756
 Zn290 Zn 0.99057 0.51225 0.25135
 N291 N 0.98529 0.47117 0.28384
 C292 C 0.92446 0.49234 0.22065
 N293 N 0.94952 0.51896 0.22247
 C294 C 0.94979 0.54844 0.19876
 C295 C 0.92517 0.55126 0.17075
 C296 C 0.89939 0.49405 0.19292
 C297 C 1.02672 0.54862 0.30275
 C298 C 1.03110 0.57238 0.33087
 C299 C 0.97422 0.60202 0.31569
 C300 C 0.97103 0.57776 0.28749
 N301 N 0.99690 0.55138 0.28204
 H302 H 0.92544 0.46863 0.23905
 H303 H 0.97062 0.56872 0.20030
 H304 H 0.92702 0.57407 0.15111
 H305 H 0.88084 0.47183 0.19040
 H306 H 1.04637 0.52683 0.29837
 H307 H 1.05443 0.56875 0.34772
 H308 H 0.95277 0.62196 0.32099
 H309 H 0.94702 0.57879 0.27139
 C310 C 0.98152 0.42028 0.34221
 C311 C 1.08362 0.50253 0.15962
 C312 C 1.00417 0.59888 0.33819
 C313 C 0.90043 0.52323 0.16696
 C314 C -0.03627 0.46579 0.81114
 H315 H -0.01558 0.44456 0.81047
 C316 C -0.06311 0.46601 0.83993
 H317 H -0.06327 0.44472 0.86137
 C318 C -0.05976 0.52086 0.78544
 H319 H -0.05749 0.54290 0.76498
 C320 C -0.08719 0.52204 0.81373
 H321 H -0.10610 0.54482 0.81447
 N322 N -0.03478 0.49319 0.78493
 C323 C 0.03777 0.45274 0.69648
 H324 H 0.05919 0.47264 0.69635
 C325 C 0.03808 0.42769 0.66881
 H326 H 0.05996 0.42814 0.64745
 C327 C -0.01842 0.42976 0.72281
 H328 H -0.04107 0.43163 0.74306
 C329 C -0.01912 0.40414 0.69562
 H330 H -0.04222 0.38622 0.69543
 Zn331 Zn 0.00722 0.49428 0.75232
 N332 N 0.00947 0.45377 0.72232
 C333 C 0.07148 0.46675 0.78517
 N334 N 0.04739 0.49506 0.78264
 C335 C 0.04789 0.52294 0.80584
 C336 C 0.07274 0.52266 0.83359
 C337 C 0.09677 0.46533 0.81273
 C338 C -0.02155 0.53692 0.69624
 C339 C -0.02229 0.56371 0.66812
 C340 C 0.03421 0.58708 0.68850
 C341 C 0.03380 0.55985 0.71649
 N342 N 0.00629 0.53532 0.71958
 H343 H 0.06994 0.44445 0.76703
 H344 H 0.02785 0.54466 0.80371
 H345 H 0.07214 0.54448 0.85261
 H346 H 0.11497 0.44212 0.81525
 H347 H -0.04264 0.51661 0.69888
 H348 H -0.04416 0.56417 0.64917
 H349 H 0.05674 0.60581 0.68566
 H350 H 0.05614 0.55753 0.73475
 C351 C 0.00895 0.40366 0.66773
 C352 C -0.08847 0.49472 0.84172
 C353 C 0.00615 0.58871 0.66367
 C354 C 0.09692 0.49322 0.83773
 C355 C 0.09526 0.11923 0.54653
 C356 C 0.09265 0.16094 0.54055
 C357 C 0.06688 0.15596 0.50909
 C358 C 0.06923 0.11447 0.51506
 C359 C 0.09974 0.15536 0.48079
 C360 C 0.12601 0.15995 0.51225
 C361 C 0.12811 0.11849 0.51816
 C362 C 0.10227 0.11372 0.48675
 H363 H 0.09277 0.10480 0.57395
 H364 H 0.08836 0.18058 0.56271
 H365 H 0.04658 0.09473 0.51665
 H366 H 0.10127 0.17032 0.45361
 H367 H 0.14969 0.17847 0.51122
 H368 H 0.10641 0.09411 0.46454
 C369 C 0.60559 0.59189 -0.02638
 C370 C 0.64769 0.58994 -0.02384
 C371 C 0.64291 0.56090 0.00762
 C372 C 0.60101 0.56261 0.00514
 C373 C 0.64110 0.59033 0.03642
 C374 C 0.64553 0.61980 0.00492
 C375 C 0.60367 0.62138 0.00240
 C376 C 0.59898 0.59236 0.03391
 H377 H 0.59150 0.59180 -0.05265
 H378 H 0.66796 0.58866 -0.04767
 H379 H 0.58180 0.53965 0.00531
 H380 H 0.65582 0.58934 0.06237
 H381 H 0.66368 0.64362 0.00471
 H382 H 0.57873 0.59361 0.05774
 C383 C 0.88773 -0.13442 0.46198
 C384 C 0.92727 -0.12003 0.46237
 C385 C 0.93515 -0.14777 0.49379
 C386 C 0.89597 -0.16248 0.49347
 C387 C 0.92265 -0.12035 0.52278
 C388 C 0.91448 -0.09240 0.49134
 C389 C 0.87528 -0.10699 0.49103
 C390 C 0.88314 -0.13474 0.52246
 H391 H 0.87363 -0.14053 0.43674
 H392 H 0.94574 -0.11410 0.43763
 H393 H 0.88784 -0.19132 0.49440
 H394 H 0.93728 -0.11470 0.54785
 H395 H 0.92191 -0.06334 0.49042
 H396 H 0.86468 -0.14063 0.54721
 C397 C 0.39371 0.39789 0.94994
 C398 C 0.35138 0.40088 0.95411
 C399 C 0.35483 0.42639 0.98611
 C400 C 0.39692 0.42368 0.98197
 C401 C 0.35364 0.39394 1.01412
 C402 C 0.35057 0.36796 0.98211
 C403 C 0.39263 0.36545 0.97801
 C404 C 0.39589 0.39103 1.00996
 H405 H 0.40981 0.40011 0.92317
 H406 H 0.33285 0.40528 0.93110
 H407 H 0.41705 0.44586 0.98166
 H408 H 0.33706 0.39263 1.04065
 H409 H 0.33168 0.34472 0.98206
 H410 H 0.41437 0.38677 1.03304
 C411 C 0.87340 0.16387 0.48255
 C412 C 0.90064 0.15559 0.51308
 C413 C 0.93275 0.15850 0.48395
 C414 C 0.90600 0.16716 0.45342
 C415 C 0.93070 0.11770 0.47725
 C416 C 0.89843 0.11466 0.50639
 C417 C 0.87161 0.12309 0.47591
 C418 C 0.90369 0.12613 0.44670
 H419 H 0.84950 0.18269 0.48463
 H420 H 0.89969 0.16779 0.54052
 H421 H 0.90947 0.18898 0.43159
 H422 H 0.95353 0.09771 0.47465
 H423 H 0.89514 0.09289 0.52829
 H424 H 0.90548 0.11445 0.41902
 C425 C 0.38034 0.58886 0.04511
 C426 C 0.33888 0.58411 0.04017
 C427 C 0.34838 0.55860 0.00851
 C428 C 0.38963 0.56303 0.01345
 C429 C 0.34847 0.59077 -0.01979
 C430 C 0.33934 0.61680 0.01186
 C431 C 0.38056 0.62106 0.01676
 C432 C 0.38987 0.59545 -0.01483
 H433 H 0.39302 0.58744 0.07219
 H434 H 0.31775 0.57915 0.06288
 H435 H 0.41139 0.54183 0.01447
 H436 H 0.33534 0.59128 -0.04665
 H437 H 0.31882 0.63923 0.01133
 H438 H 0.41101 0.60035 -0.03755
 C439 C 0.11659 -0.14031 0.53453
 C440 C 0.07685 -0.12531 0.53334
 C441 C 0.07005 -0.15034 0.50171
 C442 C 0.10944 -0.16568 0.50284
 C443 C 0.08264 -0.12072 0.47292
 C444 C 0.08973 -0.09548 0.50458
 C445 C 0.12912 -0.11066 0.50571
 C446 C 0.12235 -0.13570 0.47409
 H447 H 0.13032 -0.14868 0.56007
 H448 H 0.05787 -0.12112 0.55775
 H449 H 0.11835 -0.19448 0.50205
 H450 H 0.06848 -0.11274 0.44751
 H451 H 0.08182 -0.06639 0.50536
 H452 H 0.14137 -0.13981 0.44970
 C453 C 0.64140 0.37322 1.03374
 C454 C 0.67238 0.38720 1.00611
 C455 C 0.65441 0.42517 1.00611
 C456 C 0.62376 0.41156 1.03375
 C457 C 0.63160 0.41605 0.97348
 C458 C 0.64926 0.37771 0.97340
 C459 C 0.61856 0.36419 1.00109
 C460 C 0.60077 0.40222 1.00109
 H461 H 0.64527 0.35525 1.05852
 H462 H 0.70193 0.38070 1.00826
 H463 H 0.61338 0.42576 1.05862
 H464 H 0.62765 0.43399 0.94869
 H465 H 0.66006 0.36399 0.94840
 H466 H 0.57111 0.40823 0.99895
 C467 C 0.49172 0.11775 1.14402
 C468 C 0.46190 0.08826 1.14610
 C469 C 0.49203 0.05890 1.14270
 C470 C 0.52186 0.08796 1.14097
 C471 C 0.49072 0.06093 1.10037
 C472 C 0.46055 0.09058 1.10352
 C473 C 0.49041 0.11966 1.10172
 C474 C 0.52054 0.09028 1.09844
 H475 H 0.49207 0.14143 1.16180
 H476 H 0.43771 0.08710 1.16595
 H477 H 0.54717 0.08656 1.15651
 H478 H 0.49038 0.03809 1.08154
 H479 H 0.43489 0.09112 1.08857
 H480 H 0.54476 0.09137 1.07863
 C481 C -0.02347 0.64223 0.62206
 C482 C 0.00583 0.67081 0.60965
 C483 C 0.00630 0.65687 0.57025
 C484 C -0.02301 0.62869 0.58232
 C485 C 0.03705 0.62953 0.57908
 C486 C 0.03660 0.64305 0.61890
 C487 C 0.00724 0.61483 0.63082
 C488 C 0.00775 0.60114 0.59137
 H489 H -0.04839 0.64724 0.64007
 H490 H 0.00499 0.69946 0.61769
 H491 H -0.04760 0.62287 0.56708
 H492 H 0.06199 0.62441 0.56113
 H493 H 0.06129 0.64916 0.63384
 H494 H 0.00857 0.57227 0.58402
 C495 C 0.46002 0.89895 -0.10811
 C496 C 0.49185 0.92551 -0.10496
 C497 C 0.49645 0.92872 -0.14740
 C498 C 0.46463 0.90245 -0.15076
 C499 C 0.52415 0.89697 -0.14776
 C500 C 0.51953 0.89350 -0.10514
 C501 C 0.48776 0.86718 -0.10832
 C502 C 0.49232 0.87020 -0.15070
 H503 H 0.43328 0.90049 -0.09225
 H504 H 0.49128 0.94734 -0.08489
 H505 H 0.44196 0.90640 -0.16970
 H506 H 0.55068 0.89643 -0.16414
 H507 H 0.54219 0.88960 -0.08619
 H508 H 0.49239 0.84714 -0.16931
 C509 C 0.98587 0.35477 0.37871
 C510 C 1.01734 0.35724 0.40532
 C511 C 0.98903 0.35661 0.43831
 C512 C 0.95757 0.35374 0.41217
 C513 C 0.98594 0.39827 0.43615
 C514 C 1.01421 0.39908 0.40288
 C515 C 0.98279 0.39638 0.37669
 C516 C 0.95446 0.39564 0.40970
 H517 H 0.98575 0.33706 0.35480
 H518 H 1.04335 0.34136 0.40378
 H519 H 0.93419 0.33491 0.41626
 H520 H 0.98581 0.41735 0.45892
 H521 H 1.03761 0.41790 0.39882
 H522 H 0.92820 0.41101 0.41215
 C523 C 0.49211 0.90013 0.10299
 C524 C 0.46307 0.91140 0.13300
 C525 C 0.49400 0.92289 0.15686
 C526 C 0.52304 0.91184 0.12704
 C527 C 0.49550 0.88474 0.17558
 C528 C 0.46452 0.87286 0.15138
 C529 C 0.49363 0.86192 0.12150
 C530 C 0.52457 0.87333 0.14541
 H531 H 0.49068 0.90628 0.07292
 H532 H 0.43775 0.92738 0.12798
 H533 H 0.54714 0.92816 0.11712
 H534 H 0.49693 0.87812 0.20555
 H535 H 0.44029 0.85696 0.16169
 H536 H 0.54989 0.85733 0.15037
 C537 C 0.00252 0.39858 0.59609
 C538 C 0.03276 0.37290 0.58058
 C539 C 0.00324 0.34518 0.57352
 C540 C -0.02701 0.37068 0.58882
 C541 C 0.00715 0.32717 0.61216
 C542 C 0.03671 0.35524 0.61960
 C543 C 0.00643 0.38079 0.63478
 C544 C -0.02313 0.35301 0.62782
 H545 H 0.00056 0.42816 0.58966
 H546 H 0.05576 0.38096 0.56086
 H547 H -0.05328 0.37697 0.57586
 H548 H 0.00913 0.29769 0.61905
 H549 H 0.06297 0.34903 0.63261
 H550 H -0.04629 0.34449 0.64710
 C551 C 0.55185 0.09383 0.87710
 C552 C 0.52106 0.06618 0.88638
 C553 C 0.51682 0.06202 0.84483
 C554 C 0.54758 0.08939 0.83531
 C555 C 0.48794 0.09274 0.84424
 C556 C 0.49218 0.09709 0.88592
 C557 C 0.52290 0.12453 0.87662
 C558 C 0.51869 0.12059 0.83507
 H559 H 0.57854 0.09373 0.89020
 H560 H 0.52227 0.04459 0.90846
 H561 H 0.57043 0.08586 0.81430
 H562 H 0.46151 0.09197 0.83068
 H563 H 0.46927 0.10046 0.90690
 H564 H 0.51781 0.14329 0.81411
 C565 C 1.00251 0.66231 0.37398
 C566 C 0.97333 0.65801 0.40643
 C567 C 1.00401 0.65633 0.43384
 C568 C 1.03317 0.66101 0.40188
 C569 C 1.00664 0.61482 0.43170
 C570 C 0.97599 0.61631 0.40403
 C571 C 1.00519 0.62081 0.37208
 C572 C 1.03586 0.61932 0.39954
 H573 H 1.00089 0.68170 0.34992
 H574 H 0.94752 0.67404 0.40961
 H575 H 1.05679 0.67960 0.40127
 H576 H 1.00834 0.59417 0.45462
 H577 H 0.95235 0.59775 0.40472
 H578 H 1.06212 0.60393 0.39751
 C579 C 1.13648 0.46939 0.11859
 C580 C 1.12353 0.46885 0.07875
 C581 C 1.15331 0.49638 0.06617
 C582 C 1.16663 0.49688 0.10567
 C583 C 1.12667 0.52809 0.07396
 C584 C 1.09665 0.50060 0.08686
 C585 C 1.10983 0.50110 0.12636
 C586 C 1.13964 0.52865 0.11381
 H587 H 1.14031 0.44523 0.13727
 H588 H 1.11703 0.44417 0.06411
 H589 H 1.19528 0.49527 0.11424
 H590 H 1.12274 0.55227 0.05533
 H591 H 1.06764 0.50218 0.07935
 H592 H 1.14664 0.55347 0.12792
 C593 C 0.60050 -0.02152 0.60110
 C594 C 0.59836 -0.02468 0.64378
 C595 C 0.56629 0.00279 0.64437
 C596 C 0.56815 0.00591 0.60190
 C597 C 0.59312 0.03433 0.64576
 C598 C 0.62562 0.00689 0.64481
 C599 C 0.62735 0.01002 0.60238
 C600 C 0.59524 0.03751 0.60306
 H601 H 0.60378 -0.04458 0.58252
 H602 H 0.59931 -0.05039 0.66067
 H603 H 0.54507 0.00556 0.58335
 H604 H 0.58977 0.05735 0.66437
 H605 H 0.64955 0.00739 0.66228
 H606 H 0.59324 0.06346 0.58675
 C607 C -0.14005 0.46706 0.89036
 C608 C -0.12588 0.47153 0.92929
 C609 C -0.15590 0.50034 0.93668
 C610 C -0.17045 0.49588 0.89814
 C611 C -0.13016 0.53059 0.92137
 C612 C -0.09992 0.50176 0.91369
 C613 C -0.11427 0.49731 0.87513
 C614 C -0.14433 0.52614 0.88245
 H615 H -0.14392 0.44089 0.87727
 H616 H -0.11841 0.44904 0.94880
 H617 H -0.19941 0.49339 0.89106
 H618 H -0.12618 0.55680 0.93437
 H619 H -0.07068 0.50422 0.91985
 H620 H -0.15229 0.54877 0.86336
 C621 C 0.37611 0.00831 0.35320
 C622 C 0.40678 0.03697 0.34981
 C623 C 0.43565 0.00651 0.35355
 C624 C 0.40542 -0.02218 0.35657
 C625 C 0.43383 0.00945 0.39577
 C626 C 0.40469 0.03997 0.39228
 C627 C 0.37444 0.01127 0.39538
 C628 C 0.40331 -0.01921 0.39899
 H629 H 0.35207 0.00793 0.33587
 H630 H 0.40852 0.06013 0.32934
 H631 H 0.40606 -0.04785 0.34174
 H632 H 0.45699 0.00991 0.41422
 H633 H 0.40500 0.06595 0.40647
 H634 H 0.40164 -0.04240 0.41943
 C635 C 0.10373 0.49166 0.91012
 C636 C 0.13077 0.46125 0.92171
 C637 C 0.15857 0.49021 0.93009
 C638 C 0.13172 0.52060 0.91876
 C639 C 0.17548 0.48954 0.89032
 C640 C 0.14736 0.46056 0.88155
 C641 C 0.12049 0.49104 0.87033
 C642 C 0.14831 0.51997 0.87868
 H643 H 0.07398 0.49252 0.91808
 H644 H 0.12368 0.43708 0.93973
 H645 H 0.12540 0.54534 0.93434
 H646 H 0.20506 0.48869 0.88171
 H647 H 0.15405 0.43566 0.86640
 H648 H 0.15537 0.54416 0.86068
 C649 C 0.62305 -0.02861 0.34876
 C650 C 0.58411 -0.02653 0.36761
 C651 C 0.57310 0.00165 0.33771
 C652 C 0.61167 -0.00041 0.31853
 C653 C 0.58491 0.03270 0.36113
 C654 C 0.59613 0.00452 0.39120
 C655 C 0.63476 0.00245 0.37223
 C656 C 0.62386 0.03070 0.34228
 H657 H 0.63908 -0.05385 0.34382
 H658 H 0.56747 -0.05010 0.37792
 H659 H 0.61835 -0.00247 0.28852
 H660 H 0.56890 0.05795 0.36614
 H661 H 0.58993 0.00659 0.42130
 H662 H 0.64009 0.05438 0.33157
 C663 C 0.88622 0.49154 0.10566
 C664 C 0.84449 0.48610 0.10409
 C665 C 0.84384 0.51465 0.07203
 C666 C 0.88542 0.52007 0.07338
 C667 C 0.83622 0.54489 0.09939
 C668 C 0.83721 0.51635 0.13191
 C669 C 0.87877 0.52175 0.13308
 C670 C 0.87803 0.55035 0.10102
 H671 H 0.90696 0.46948 0.10844
 H672 H 0.83062 0.45953 0.10504
 H673 H 0.90620 0.52179 0.04997
 H674 H 0.81544 0.56689 0.09648
 H675 H 0.81752 0.51491 0.15629
 H676 H 0.89143 0.57716 0.09921
 C677 C 0.40578 -0.00438 0.60672
 C678 C 0.41579 0.02322 0.63519
 C679 C 0.42925 -0.00821 0.66030
 C680 C 0.41948 -0.03583 0.63201
 C681 C 0.39088 -0.01159 0.67978
 C682 C 0.37707 0.01990 0.65437
 C683 C 0.36736 -0.00774 0.62602
 C684 C 0.38070 -0.03922 0.65115
 H685 H 0.41173 -0.00135 0.57646
 H686 H 0.43052 0.04895 0.62867
 H687 H 0.43722 -0.05877 0.62292
 H688 H 0.38440 -0.01466 0.70994
 H689 H 0.35985 0.04300 0.66395
 H690 H 0.36592 -0.06493 0.65759
   
