data_POSCAR
  _audit_creation_date              2014-09-24
  _audit_creation_method            'ToBaCCo'
  _symmetry_space_group_name_H-M    'P1'
  _symmetry_Int_Tables_number       1
  _symmetry_cell_setting            triclinic
  loop_
  _symmetry_equiv_pos_as_xyz
 x,y,z
_cell_length_a 19.8384
_cell_length_b 19.8365
_cell_length_c 19.7695
_cell_angle_alpha 90.231100
_cell_angle_beta 90.211500
_cell_angle_gamma 90.025800
loop_
  _atom_site_label
  _atom_site_type_symbol
  _atom_site_fract_x
  _atom_site_fract_y
  _atom_site_fract_z
O1 O 0.59531 0.16914 0.00814
 O2 O 0.67028 0.08102 0.00515
 C3 C 0.65592 0.14468 0.00715
 O4 O 0.40491 -0.00656 0.17092
 O5 O 0.33055 -0.00122 0.08168
 C6 C 0.34448 -0.00464 0.14563
 O7 O 0.59323 0.00125 0.17388
 O8 O 0.66911 0.00125 0.08645
 C9 C 0.65419 0.00176 0.15037
 O10 O 0.40758 0.17006 -0.00063
 O11 O 0.33212 0.08220 -0.00125
 C12 C 0.34690 0.14591 -0.00194
 Zr13 Zr 0.50101 0.11961 0.00392
 O14 O 0.49368 0.19286 0.08180
 O15 O 0.50856 0.19649 -0.06964
 Zr16 Zr 0.49983 -0.00143 0.12258
 O17 O 0.49201 0.07382 0.19842
 O18 O 0.50653 -0.07721 0.19743
 O19 O 0.56092 0.06841 0.07347
 O20 O 0.44150 0.06790 0.07151
 O21 O 0.40737 0.00592 -0.16908
 O22 O 0.33193 0.00122 -0.08139
 C23 C 0.34662 0.00467 -0.14507
 O24 O 0.59485 -0.17031 -0.00409
 O25 O 0.66974 -0.08214 0.00095
 C26 C 0.65543 -0.14574 -0.00291
 O27 O 0.40676 -0.17040 0.00468
 O28 O 0.33172 -0.08235 0.00217
 C29 C 0.34612 -0.14604 0.00456
 O30 O 0.59597 -0.00284 -0.16726
 O31 O 0.67055 0.00035 -0.07805
 C32 C 0.65644 -0.00166 -0.14209
 Zr33 Zr 0.50132 0.00055 -0.11843
 O34 O 0.49402 -0.07512 -0.19399
 O35 O 0.50928 0.07575 -0.19367
 Zr36 Zr 0.50074 -0.12044 0.00045
 O37 O 0.49304 -0.19427 -0.07687
 O38 O 0.50836 -0.19675 0.07465
 Zr39 Zr 0.60189 -0.00035 0.00313
 Zr40 Zr 0.39959 -0.00022 0.00108
 O41 O 0.44210 -0.06863 -0.06837
 O42 O 0.56158 -0.06920 -0.06797
 O43 O 0.44098 0.06978 -0.06724
 O44 O 0.55909 -0.06981 0.07080
 O45 O 0.55972 0.06895 -0.06549
 O46 O 0.43991 -0.07038 0.07024
 H47 H 0.41106 0.09585 0.09967
 H48 H 0.58921 -0.09826 0.09879
 H49 H 0.41174 -0.09653 -0.09691
 H50 H 0.58968 0.09748 -0.09335
 H51 H 0.46881 -0.10901 0.18985
 H52 H 0.47178 -0.18927 0.10768
 H53 H 0.53139 -0.18765 -0.10798
 H54 H 0.53321 -0.10548 -0.18864
 H55 H 0.47255 0.10856 -0.18600
 H56 H 0.47257 0.18862 -0.10351
 H57 H 0.53326 0.18744 0.11187
 H58 H 0.53050 0.10499 0.19287
 O59 O 0.00081 0.59359 -0.17194
 O60 O -0.00052 0.66826 -0.08286
 C61 C -0.00069 0.65403 -0.14682
 O62 O -0.16886 0.40429 -0.00172
 O63 O -0.08040 0.32964 -0.00412
 C64 C -0.14405 0.34384 -0.00224
 O65 O -0.16965 0.59256 -0.00952
 O66 O -0.08196 0.66804 -0.00414
 C67 C -0.14553 0.65333 -0.00779
 O68 O 0.00879 0.40567 -0.17296
 O69 O 0.00453 0.33014 -0.08547
 C70 C 0.00779 0.34475 -0.14929
 Zr71 Zr 0.00345 0.49949 -0.12234
 O72 O -0.07033 0.49233 -0.19973
 O73 O 0.08078 0.50714 -0.19546
 Zr74 Zr -0.11950 0.49862 -0.00546
 O75 O -0.19162 0.49082 -0.08438
 O76 O -0.19761 0.50557 0.06690
 O77 O -0.06752 0.55949 -0.07320
 O78 O -0.06642 0.44017 -0.07341
 O79 O 0.17095 0.40592 -0.00145
 O80 O 0.08302 0.33054 -0.00309
 C81 C 0.14662 0.34525 -0.00301
 O82 O -0.00041 0.59270 0.16929
 O83 O -0.00034 0.66778 0.08118
 C84 C 0.00028 0.65330 0.14493
 O85 O -0.00782 0.40436 0.16767
 O86 O -0.00264 0.32961 0.07879
 C87 C -0.00670 0.34382 0.14271
 O88 O 0.16980 0.59424 0.00747
 O89 O 0.08133 0.66878 0.00280
 C90 C 0.14500 0.65474 0.00657
 Zr91 Zr 0.12052 0.49975 0.00150
 O92 O 0.19356 0.49268 0.07953
 O93 O 0.19740 0.50758 -0.07209
 Zr94 Zr -0.00240 0.49865 0.11845
 O95 O 0.07190 0.49128 0.19526
 O96 O -0.07931 0.50543 0.19215
 Zr97 Zr 0.00000 0.60032 -0.00124
 Zr98 Zr 0.00092 0.39789 -0.00284
 O99 O 0.06782 0.44027 0.06852
 O100 O 0.06795 0.55967 0.07012
 O101 O 0.07194 0.43928 -0.07013
 O102 O -0.07021 0.55730 0.06555
 O103 O 0.07069 0.55851 -0.06857
 O104 O -0.07033 0.43824 0.06521
 H105 H -0.09381 0.40982 -0.10245
 H106 H -0.09915 0.58717 0.09331
 H107 H 0.09525 0.40996 0.09729
 H108 H 0.09934 0.58894 -0.09580
 H109 H -0.18987 0.46984 0.10078
 H110 H -0.11103 0.46775 0.18408
 H111 H 0.10256 0.53030 0.19058
 H112 H 0.18597 0.53067 0.11115
 H113 H 0.19177 0.46954 -0.10411
 H114 H 0.11239 0.46933 -0.18801
 H115 H -0.10216 0.53020 -0.19354
 H116 H -0.18589 0.53040 -0.11410
 O117 O 0.16824 -0.00409 0.40549
 O118 O 0.07995 -0.00068 0.33006
 C119 C 0.14367 -0.00347 0.34462
 O120 O -0.00318 -0.16978 0.59325
 O121 O -0.00222 -0.08192 0.66926
 C122 C -0.00323 -0.14562 0.65420
 O123 O 0.00224 -0.16958 0.40556
 O124 O 0.00043 -0.08176 0.33019
 C125 C 0.00200 -0.14547 0.34479
 O126 O 0.16914 0.00583 0.59443
 O127 O 0.08146 0.00136 0.66991
 C128 C 0.14500 0.00434 0.65528
 Zr129 Zr 0.11903 0.00097 0.49996
 O130 O 0.19490 -0.07370 0.50745
 O131 O 0.19352 0.07701 0.49214
 Zr132 Zr -0.00074 -0.11940 0.49964
 O133 O 0.07509 -0.19424 0.50612
 O134 O -0.07645 -0.19442 0.49246
 O135 O 0.06831 -0.06870 0.43916
 O136 O 0.06834 -0.06807 0.55873
 O137 O 0.00418 0.17036 0.59531
 O138 O 0.00177 0.08221 0.67023
 C139 C 0.00435 0.14585 0.65604
 O140 O -0.17152 0.00269 0.40608
 O141 O -0.08374 0.00201 0.33057
 C142 C -0.14734 0.00316 0.34523
 O143 O -0.17012 -0.00402 0.59524
 O144 O -0.08160 -0.00054 0.67041
 C145 C -0.14536 -0.00291 0.65609
 O146 O -0.00679 0.17048 0.40632
 O147 O -0.00400 0.08239 0.33068
 C148 C -0.00674 0.14607 0.34533
 Zr149 Zr -0.00125 0.12060 0.50059
 O150 O -0.07679 0.19552 0.50888
 O151 O 0.07402 0.19587 0.49281
 Zr152 Zr -0.12109 0.00018 0.50046
 O153 O -0.19559 0.07626 0.50796
 O154 O -0.19663 -0.07498 0.49340
 Zr155 Zr -0.00151 0.00050 0.39854
 Zr156 Zr -0.00047 0.00038 0.60170
 O157 O -0.06957 0.06916 0.55962
 O158 O -0.07096 0.06972 0.43995
 O159 O 0.06858 0.07014 0.56094
 O160 O -0.06995 -0.06841 0.44098
 O161 O 0.06734 0.06957 0.44116
 O162 O -0.07003 -0.06918 0.56068
 H163 H 0.09677 -0.09613 0.58880
 H164 H -0.09816 -0.09674 0.41070
 H165 H -0.09739 0.09732 0.59019
 H166 H 0.09511 0.09769 0.41070
 H167 H -0.10734 -0.18817 0.53114
 H168 H -0.18896 -0.10724 0.53065
 H169 H -0.19064 0.10621 0.46840
 H170 H -0.10944 0.18801 0.47168
 H171 H 0.10618 0.18922 0.53054
 H172 H 0.18756 0.10829 0.53074
 H173 H 0.18736 -0.10650 0.47038
 H174 H 0.10620 -0.18761 0.46774
 C175 C -0.25364 0.28269 -0.04890
 C176 C -0.24154 0.20590 -0.05587
 C177 C -0.28759 0.19423 0.00543
 C178 C -0.30009 0.27051 0.01233
 C179 C -0.22696 0.19862 0.05389
 C180 C -0.18008 0.21130 -0.00738
 C181 C -0.19321 0.28738 -0.00030
 C182 C -0.23910 0.27545 0.06087
 H183 H -0.26401 0.31779 -0.09128
 H184 H -0.24308 0.17654 -0.10380
 H185 H -0.34969 0.29503 0.02062
 H186 H -0.21498 0.16345 0.09551
 H187 H -0.13005 0.18767 -0.01564
 H188 H -0.23748 0.30458 0.10891
 C189 C 0.24797 0.72070 0.06336
 C190 C 0.30227 0.72778 0.00801
 C191 C 0.28951 0.80429 0.00641
 C192 C 0.23566 0.79786 0.06184
 C193 C 0.23575 0.79525 -0.04911
 C194 C 0.24819 0.71828 -0.04753
 C195 C 0.19439 0.71142 0.00776
 C196 C 0.18102 0.78782 0.00623
 H197 H 0.25242 0.68954 0.10968
 H198 H 0.35237 0.70286 0.00870
 H199 H 0.23104 0.83126 0.10679
 H200 H 0.23103 0.82643 -0.09533
 H201 H 0.25288 0.68508 -0.09261
 H202 H 0.13051 0.81188 0.00558
 C203 C 0.24354 0.27489 0.05638
 C204 C 0.23136 0.19834 0.04659
 C205 C 0.29084 0.19595 -0.00304
 C206 C 0.30348 0.27194 0.00685
 C207 C 0.24351 0.21002 -0.06306
 C208 C 0.18308 0.21322 -0.01350
 C209 C 0.19623 0.28906 -0.00358
 C210 C 0.25565 0.28649 -0.05310
 H211 H 0.24296 0.30214 0.10554
 H212 H 0.22201 0.16150 0.08764
 H213 H 0.35327 0.29620 0.01527
 H214 H 0.24480 0.18418 -0.11281
 H215 H 0.13294 0.18973 -0.02201
 H216 H 0.26507 0.32329 -0.09416
 C217 C -0.20208 0.76584 -0.06096
 C218 C -0.27923 0.75356 -0.06296
 C219 C -0.28807 0.80480 -0.00516
 C220 C -0.21165 0.81812 -0.00310
 C221 C -0.28090 0.74877 0.04781
 C222 C -0.27183 0.69700 -0.00996
 C223 C -0.19532 0.70974 -0.00789
 C224 C -0.20389 0.76114 0.04991
 H225 H -0.16906 0.77223 -0.10571
 H226 H -0.31077 0.75103 -0.10941
 H227 H -0.18757 0.86858 -0.00021
 H228 H -0.31377 0.74225 0.09264
 H229 H -0.29674 0.64693 -0.01284
 H230 H -0.17227 0.76369 0.09632
 C231 C -0.04896 -0.19931 0.22992
 C232 C 0.00981 -0.21439 0.18047
 C233 C 0.00110 -0.29014 0.19450
 C234 C -0.05756 -0.27578 0.24293
 C235 C 0.05200 -0.28643 0.25308
 C236 C 0.06077 -0.21006 0.24008
 C237 C 0.00208 -0.19578 0.28857
 C238 C -0.00663 -0.27170 0.30205
 H239 H -0.09046 -0.16283 0.22099
 H240 H 0.01666 -0.19152 0.12980
 H241 H -0.10623 -0.30341 0.24350
 H242 H 0.09353 -0.32285 0.26209
 H243 H 0.11001 -0.18373 0.24010
 H244 H -0.01343 -0.29544 0.35233
 C245 C -0.04707 0.25161 0.71940
 C246 C -0.04715 0.24200 0.79693
 C247 C 0.00818 0.29102 0.80291
 C248 C 0.00972 0.30372 0.72961
 C249 C 0.06046 0.23868 0.79907
 C250 C 0.00496 0.18422 0.79006
 C251 C 0.00646 0.19558 0.71275
 C252 C 0.06333 0.24807 0.72141
 H253 H -0.09252 0.25855 0.68725
 H254 H -0.09217 0.24218 0.83022
 H255 H 0.01174 0.35445 0.70611
 H256 H 0.10432 0.23620 0.83409
 H257 H 0.00295 0.13516 0.81679
 H258 H 0.11005 0.25201 0.69094
 C259 C 0.04731 0.20345 0.23522
 C260 C -0.00739 0.21086 0.17945
 C261 C -0.00845 0.28741 0.19238
 C262 C 0.04619 0.28055 0.24724
 C263 C -0.06429 0.27923 0.24545
 C264 C -0.06323 0.20193 0.23357
 C265 C -0.00843 0.19551 0.28847
 C266 C -0.00958 0.27215 0.30081
 H267 H 0.09316 0.17176 0.23131
 H268 H -0.00652 0.18625 0.12893
 H269 H 0.09133 0.31329 0.25240
 H270 H -0.11028 0.31089 0.24905
 H271 H -0.10827 0.16900 0.22854
 H272 H -0.01048 0.29755 0.35094
 C273 C 0.01112 -0.27100 0.69712
 C274 C 0.05862 -0.27172 0.75917
 C275 C -0.00182 -0.28947 0.80406
 C276 C -0.04927 -0.28917 0.74252
 C277 C -0.01597 -0.21440 0.81758
 C278 C 0.04460 -0.19587 0.77170
 C279 C -0.00302 -0.19576 0.71014
 C280 C -0.06346 -0.21351 0.75504
 H281 H 0.02233 -0.29437 0.64728
 H282 H 0.10885 -0.29626 0.76151
 H283 H -0.08792 -0.32810 0.73104
 H284 H -0.02722 -0.19180 0.86775
 H285 H 0.08326 -0.15692 0.78304
 H286 H -0.11432 -0.19082 0.75182
 C287 C 0.18436 -0.01649 0.78556
 C288 C 0.25074 -0.05757 0.78243
 C289 C 0.29013 0.00545 0.80494
 C290 C 0.22455 0.04657 0.80903
 C291 C 0.30027 0.02658 0.73087
 C292 C 0.26047 -0.03643 0.70792
 C293 C 0.19494 0.00479 0.71165
 C294 C 0.23420 0.06777 0.73428
 H295 H 0.13606 -0.03415 0.80746
 H296 H 0.25834 -0.10920 0.80238
 H297 H 0.20928 0.07952 0.85166
 H298 H 0.34827 0.04438 0.70844
 H299 H 0.27481 -0.07071 0.66584
 H300 H 0.22669 0.11936 0.71405
 C301 C -0.25962 0.05006 0.28911
 C302 C -0.25067 0.06177 0.21246
 C303 C -0.29244 0.00216 0.19851
 C304 C -0.30445 -0.01081 0.27074
 C305 C -0.23406 -0.04340 0.19588
 C306 C -0.18682 0.01674 0.21269
 C307 C -0.19735 0.00348 0.28890
 C308 C -0.24256 -0.05776 0.27225
 H309 H -0.27183 0.08962 0.32701
 H310 H -0.25799 0.11088 0.18704
 H311 H -0.35446 -0.02229 0.29304
 H312 H -0.22641 -0.08166 0.15542
 H313 H -0.13862 0.02853 0.18695
 H314 H -0.24045 -0.10830 0.29608
 C315 C 0.26720 -0.02557 0.29988
 C316 C 0.26482 -0.06741 0.23380
 C317 C 0.28766 -0.00480 0.19460
 C318 C 0.29033 0.03706 0.26016
 C319 C 0.21404 0.01634 0.18234
 C320 C 0.19035 -0.04637 0.22252
 C321 C 0.19338 -0.00457 0.28815
 C322 C 0.21613 0.05807 0.24881
 H323 H 0.28912 -0.04294 0.34854
 H324 H 0.28535 -0.11904 0.22705
 H325 H 0.33195 0.07146 0.27527
 H326 H 0.19282 0.03357 0.13334
 H327 H 0.14824 -0.07953 0.20651
 H328 H 0.19605 0.10980 0.25571
 C329 C -0.27064 -0.01289 0.70088
 C330 C -0.27280 -0.06175 0.76148
 C331 C -0.28710 -0.00166 0.80848
 C332 C -0.28517 0.04728 0.74841
 C333 C -0.21127 0.00867 0.82129
 C334 C -0.19623 -0.05152 0.77331
 C335 C -0.19463 -0.00276 0.71307
 C336 C -0.20865 0.05748 0.76021
 H337 H -0.29526 -0.02184 0.65112
 H338 H -0.29958 -0.11089 0.76259
 H339 H -0.32225 0.08803 0.73869
 H340 H -0.18752 0.01757 0.87147
 H341 H -0.15868 -0.09119 0.78436
 H342 H -0.18165 0.10651 0.75917
   
