data_POSCAR
  _audit_creation_date              2014-09-24
  _audit_creation_method            'ToBaCCo'
  _symmetry_space_group_name_H-M    'P1'
  _symmetry_Int_Tables_number       1
  _symmetry_cell_setting            triclinic
  loop_
  _symmetry_equiv_pos_as_xyz
 x,y,z
_cell_length_a 63.8455
_cell_length_b 63.8379
_cell_length_c 63.9156
_cell_angle_alpha 90.017200
_cell_angle_beta 90.016000
_cell_angle_gamma 90.018300
loop_
  _atom_site_label
  _atom_site_type_symbol
  _atom_site_fract_x
  _atom_site_fract_y
  _atom_site_fract_z
C1 C 0.36151 0.33559 0.33599
 N2 N 0.35283 0.32692 0.35332
 C3 C 0.33552 0.33564 0.36203
 N4 N 0.32679 0.35294 0.35330
 C5 C 0.33547 0.36162 0.33597
 N6 N 0.35278 0.35289 0.32727
 C7 C 0.36208 0.83586 -0.16464
 N8 N 0.35343 0.82717 -0.14730
 C9 C 0.33609 0.83583 -0.13858
 N10 N 0.32731 0.85310 -0.14731
 C11 C 0.33594 0.86181 -0.16465
 N12 N 0.35328 0.85313 -0.17336
 C13 C 0.86140 0.33623 -0.16461
 N14 N 0.85270 0.32756 -0.14729
 C15 C 0.83541 0.33631 -0.13857
 N16 N 0.82672 0.35364 -0.14727
 C17 C 0.83542 0.36232 -0.16460
 N18 N 0.85271 0.35356 -0.17331
 C19 C 0.86230 0.83536 0.33575
 N20 N 0.85358 0.85267 0.32705
 C21 C 0.83630 0.86143 0.33577
 N22 N 0.82763 0.85276 0.35311
 C23 C 0.83633 0.83544 0.36183
 N24 N 0.85362 0.82670 0.35310
 C25 C 0.63825 0.66422 0.33594
 N26 N 0.64696 0.64691 0.32721
 C27 C 0.66427 0.63818 0.33591
 N28 N 0.67297 0.64686 0.35324
 C29 C 0.66426 0.66417 0.36197
 N30 N 0.64695 0.67290 0.35327
 C31 C 0.63797 0.16420 -0.16473
 N32 N 0.64677 0.14693 -0.17346
 C33 C 0.66413 0.13828 -0.16476
 N34 N 0.67278 0.14701 -0.14742
 C35 C 0.66399 0.16427 -0.13869
 N36 N 0.64663 0.17291 -0.14740
 C37 C 0.13872 0.66384 -0.16458
 N38 N 0.14739 0.64649 -0.17327
 C39 C 0.16468 0.63773 -0.16455
 N40 N 0.17339 0.64642 -0.14722
 C41 C 0.16472 0.66377 -0.13853
 N42 N 0.14744 0.67252 -0.14725
 C43 C 0.13824 0.16439 0.33519
 N44 N 0.14698 0.14710 0.32645
 C45 C 0.16425 0.13833 0.33519
 N46 N 0.17287 0.14694 0.35260
 C47 C 0.16413 0.16423 0.36135
 N48 N 0.14686 0.17299 0.35260
 C49 C 0.63825 0.33547 0.66414
 N50 N 0.64695 0.32679 0.64681
 C51 C 0.66425 0.33554 0.63810
 N52 N 0.67294 0.35287 0.64681
 C53 C 0.66425 0.36156 0.66414
 N54 N 0.64695 0.35280 0.67284
 C55 C 0.63763 0.83537 1.16448
 N56 N 0.64638 0.85268 1.17317
 C57 C 0.66370 0.86138 1.16444
 N58 N 0.67236 0.85266 1.14712
 C59 C 0.66361 0.83535 1.13842
 N60 N 0.64629 0.82666 1.14715
 C61 C 0.13827 0.33588 1.16464
 N62 N 0.14698 0.32720 1.14732
 C63 C 0.16427 0.33596 1.13859
 N64 N 0.17295 0.35331 1.14730
 C65 C 0.16425 0.36199 1.16462
 N66 N 0.14696 0.35323 1.17333
 C67 C 0.13815 0.83579 0.66459
 N68 N 0.14680 0.82715 0.64722
 C69 C 0.16412 0.83586 0.63852
 N70 N 0.17289 0.85312 0.64729
 C71 C 0.16426 0.86177 0.66466
 N72 N 0.14693 0.85305 0.67336
 C73 C 0.36158 0.66437 0.66417
 N74 N 0.35288 0.67304 0.64684
 C75 C 0.33558 0.66428 0.63813
 N76 N 0.32689 0.64695 0.64683
 C77 C 0.33559 0.63828 0.66416
 N78 N 0.35289 0.64704 0.67287
 C79 C 0.36193 0.16427 1.16479
 N80 N 0.35316 0.14698 1.17352
 C81 C 0.33582 0.13828 1.16482
 N82 N 0.32716 0.14697 1.14749
 C83 C 0.33592 0.16426 1.13875
 N84 N 0.35326 0.17295 1.14746
 C85 C 0.86134 0.66372 1.16437
 N86 N 0.85264 0.64639 1.17307
 C87 C 0.83533 0.63764 1.16437
 N88 N 0.82663 0.64632 1.14705
 C89 C 0.83532 0.66364 1.13834
 N90 N 0.85263 0.67239 1.14705
 C91 C 0.86190 0.16422 0.66458
 N92 N 0.85310 0.14695 0.67332
 C93 C 0.83577 0.13824 0.66461
 N94 N 0.82715 0.14690 0.64724
 C95 C 0.83593 0.16417 0.63849
 N96 N 0.85326 0.17287 0.64721
 C97 C 0.33566 0.36143 0.66464
 N98 N 0.32696 0.35271 0.64733
 C99 C 0.33566 0.33537 0.63864
 N100 N 0.35297 0.32666 0.64735
 C101 C 0.36168 0.33538 0.66466
 N102 N 0.35298 0.35271 0.67335
 C103 C 0.33581 0.86254 0.16411
 N104 N 0.32709 0.85384 0.14679
 C105 C 0.33578 0.83651 0.13808
 N106 N 0.35309 0.82778 0.14678
 C107 C 0.36182 0.83647 0.16409
 N108 N 0.35313 0.85380 0.17280
 C109 C 0.83639 0.36173 0.16392
 N110 N 0.82767 0.35300 0.14663
 C111 C 0.83637 0.33568 0.13793
 N112 N 0.85372 0.32699 0.14661
 C113 C 0.86244 0.33572 0.16391
 N114 N 0.85373 0.35304 0.17261
 C115 C 0.83608 0.86261 0.66434
 N116 N 0.85343 0.85393 0.67302
 C117 C 0.86214 0.83661 0.66433
 N118 N 0.85341 0.82786 0.64705
 C119 C 0.83606 0.83653 0.63836
 N120 N 0.82735 0.85386 0.64706
 C121 C 0.66414 0.63842 0.66460
 N122 N 0.64684 0.64713 0.67332
 C123 C 0.63813 0.66446 0.66463
 N124 N 0.64682 0.67317 0.64732
 C125 C 0.66413 0.66445 0.63860
 N126 N 0.67284 0.64713 0.64729
 C127 C 0.66413 0.13788 0.16391
 N128 N 0.64678 0.14657 0.17258
 C129 C 0.63804 0.16386 0.16385
 N130 N 0.64675 0.17257 0.14655
 C131 C 0.66410 0.16389 0.13788
 N132 N 0.67283 0.14660 0.14661
 C133 C 0.16383 0.63823 0.16385
 N134 N 0.14653 0.64697 0.17255
 C135 C 0.13787 0.66433 0.16388
 N136 N 0.14662 0.67305 0.14660
 C137 C 0.16392 0.66431 0.13789
 N138 N 0.17257 0.64695 0.14657
 C139 C 0.16389 0.13728 0.66433
 N140 N 0.14655 0.14598 0.67301
 C141 C 0.13783 0.16329 0.66430
 N142 N 0.14654 0.17199 0.64700
 C143 C 0.16388 0.16330 0.63831
 N144 N 0.17259 0.14599 0.64703
 C145 C 0.33547 0.63828 0.33552
 N146 N 0.35280 0.64699 0.32683
 C147 C 0.36152 0.66431 0.33553
 N148 N 0.35281 0.67302 0.35284
 C149 C 0.33549 0.66431 0.36154
 N150 N 0.32677 0.64699 0.35282
 C151 C 0.33578 0.13745 0.83624
 N152 N 0.32705 0.14618 0.85353
 C153 C 0.33576 0.16351 0.86223
 N154 N 0.35310 0.17220 0.85355
 C155 C 0.36183 0.16348 0.83627
 N156 N 0.35312 0.14615 0.82757
 C157 C 0.83627 0.63841 0.83583
 N158 N 0.85357 0.64714 0.82711
 C159 C 0.86227 0.66449 0.83578
 N160 N 0.85356 0.67321 0.85308
 C161 C 0.83626 0.66448 0.86181
 N162 N 0.82757 0.64713 0.85313
 C163 C 0.83654 0.13806 0.33562
 N164 N 0.85387 0.14677 0.32693
 C165 C 0.86260 0.16409 0.33564
 N166 N 0.85390 0.17279 0.35296
 C167 C 0.83657 0.16408 0.36165
 N168 N 0.82785 0.14677 0.35293
 C169 C 0.66433 0.36154 0.33552
 N170 N 0.64700 0.35283 0.32683
 C171 C 0.63828 0.33551 0.33553
 N172 N 0.64699 0.32681 0.35284
 C173 C 0.66433 0.33551 0.36153
 N174 N 0.67304 0.35283 0.35282
 C175 C 0.66425 0.86262 0.83602
 N176 N 0.64690 0.85393 0.82734
 C177 C 0.63818 0.83661 0.83603
 N178 N 0.64692 0.82787 0.85331
 C179 C 0.66427 0.83655 0.86199
 N180 N 0.67298 0.85388 0.85330
 C181 C 0.16383 0.36156 0.83606
 N182 N 0.14653 0.35283 0.82732
 C183 C 0.13783 0.33548 0.83597
 N184 N 0.14652 0.32677 0.85328
 C185 C 0.16382 0.33549 0.86203
 N186 N 0.17252 0.35284 0.85336
 C187 C 0.16397 0.86255 0.33571
 N188 N 0.14665 0.85382 0.32701
 C189 C 0.13795 0.83649 0.33570
 N190 N 0.14667 0.82779 0.35301
 C191 C 0.16398 0.83652 0.36171
 N192 N 0.17268 0.85385 0.35302
 O193 O 0.24774 1.02142 0.27658
 O194 O 0.27659 0.98055 0.24786
 O195 O 0.27663 1.02141 0.24789
 O196 O 0.24774 0.98055 0.27658
 O197 O 0.22330 0.98056 0.25205
 O198 O 0.25219 1.02142 0.22336
 O199 O 0.25215 0.98056 0.22333
 O200 O 0.22330 1.02142 0.25205
 Cu201 Cu 0.26464 1.00098 0.26470
 Cu202 Cu 0.23527 1.00099 0.23522
 C203 C 0.23069 1.02837 0.26912
 C204 C 0.26919 0.97359 0.23079
 C205 C 0.26925 1.02836 0.23083
 C206 C 0.23068 0.97360 0.26911
 O207 O 0.24764 0.52046 0.77687
 O208 O 0.27641 0.47955 0.74814
 O209 O 0.27642 0.52041 0.74807
 O210 O 0.24761 0.47960 0.77692
 O211 O 0.22310 0.47956 0.75246
 O212 O 0.25190 0.52036 0.72361
 O213 O 0.25190 0.47950 0.72369
 O214 O 0.22313 0.52042 0.75241
 Cu215 Cu 0.26449 0.50001 0.76497
 Cu216 Cu 0.23503 0.49996 0.73558
 C217 C 0.23058 0.52741 0.76944
 C218 C 0.26897 0.47256 0.73111
 C219 C 0.26898 0.52733 0.73101
 C220 C 0.23054 0.47263 0.76951
 O221 O 0.77690 0.02012 0.25199
 O222 O 0.74794 -0.02076 0.22337
 O223 O 0.74801 0.02009 0.22329
 O224 O 0.77684 -0.02074 0.25205
 O225 O 0.75243 -0.02066 0.27659
 O226 O 0.72359 0.02017 0.24783
 O227 O 0.72352 -0.02068 0.24790
 O228 O 0.75249 0.02019 0.27652
 Cu229 Cu 0.76489 -0.00033 0.23520
 Cu230 Cu 0.73555 -0.00024 0.26469
 C231 C 0.76954 0.02711 0.26905
 C232 C 0.73088 -0.02768 0.23085
 C233 C 0.73098 0.02708 0.23074
 C234 C 0.76946 -0.02765 0.26913
 O235 O 0.74800 0.47951 0.72351
 O236 O 0.77686 0.52034 0.75230
 O237 O 0.77682 0.47948 0.75228
 O238 O 0.74801 0.52037 0.72357
 O239 O 0.72354 0.52036 0.74806
 O240 O 0.75235 0.47947 0.77676
 O241 O 0.75240 0.52033 0.77679
 O242 O 0.72353 0.47950 0.74800
 Cu243 Cu 0.76489 0.49993 0.73544
 Cu244 Cu 0.73549 0.49991 0.76487
 C245 C 0.73094 0.47255 0.73094
 C246 C 0.76946 0.52729 0.76936
 C247 C 0.76941 0.47251 0.76932
 C248 C 0.73095 0.52733 0.73101
 O249 O 0.25163 0.47938 0.27643
 O250 O 0.22286 0.52017 0.24755
 O251 O 0.22284 0.47931 0.24763
 O252 O 0.25164 0.52024 0.27635
 O253 O 0.27615 0.52018 0.25191
 O254 O 0.24735 0.47925 0.22319
 O255 O 0.24737 0.52012 0.22311
 O256 O 0.27614 0.47933 0.25199
 Cu257 Cu 0.23477 0.49978 0.26446
 Cu258 Cu 0.26422 0.49971 0.23508
 C259 C 0.26870 0.47241 0.26905
 C260 C 0.23030 0.52710 0.23050
 C261 C 0.23028 0.47231 0.23060
 C262 C 0.26872 0.52718 0.26893
 O263 O 0.72344 0.98057 0.75222
 O264 O 0.75223 1.02143 0.72343
 O265 O 0.75226 0.98057 0.72347
 O266 O 0.72338 1.02143 0.75216
 O267 O 0.74785 1.02151 0.77665
 O268 O 0.77673 0.98064 0.74796
 O269 O 0.77670 1.02150 0.74792
 O270 O 0.74791 0.98065 0.77672
 Cu271 Cu 0.73536 1.00100 0.73535
 Cu272 Cu 0.76477 1.00108 0.76478
 C273 C 0.73086 0.97365 0.76929
 C274 C 0.76928 1.02842 0.73086
 C275 C 0.76932 0.97365 0.73092
 C276 C 0.73078 1.02842 0.76921
 O277 O 0.75235 0.52045 0.22314
 O278 O 0.72363 0.47953 0.25190
 O279 O 0.72358 0.52039 0.25194
 O280 O 0.75243 0.47959 0.22313
 O281 O 0.77694 0.47963 0.24759
 O282 O 0.74810 0.52042 0.27640
 O283 O 0.74814 0.47957 0.27636
 O284 O 0.77687 0.52049 0.24760
 Cu285 Cu 0.73553 0.49999 0.23506
 Cu286 Cu 0.76498 0.50003 0.26445
 C287 C 0.76941 0.52744 0.23056
 C288 C 0.73108 0.47258 0.26894
 C289 C 0.73101 0.52735 0.26899
 C290 C 0.76951 0.47266 0.23054
 O291 O 0.24781 -0.02140 0.72355
 O292 O 0.27659 0.01948 0.75236
 O293 O 0.27666 -0.02138 0.75229
 O294 O 0.24777 0.01946 0.72359
 O295 O 0.22330 0.01940 0.74808
 O296 O 0.25220 -0.02145 0.77678
 O297 O 0.25213 0.01941 0.77685
 O298 O 0.22334 -0.02146 0.74804
 Cu299 Cu 0.26468 -0.00096 0.73548
 Cu300 Cu 0.23528 -0.00103 0.76491
 C301 C 0.23075 -0.02839 0.73098
 C302 C 0.26918 0.02640 0.76942
 C303 C 0.26927 -0.02837 0.76934
 C304 C 0.23071 0.02638 0.73104
 O305 O 0.24774 0.27641 0.97984
 O306 O 0.27663 0.24773 1.02068
 O307 O 0.27654 0.24760 0.97987
 O308 O 0.24784 0.27654 1.02065
 O309 O 0.22334 0.25204 1.02077
 O310 O 0.25204 0.22310 0.97999
 O311 O 0.25213 0.22324 1.02080
 O312 O 0.22324 0.25191 0.97996
 Cu313 Cu 0.26466 0.26454 1.00025
 Cu314 Cu 0.23522 0.23510 1.00039
 C315 C 0.23066 0.26895 0.97295
 C316 C 0.26921 0.23069 1.02769
 C317 C 0.26910 0.23051 0.97299
 C318 C 0.23079 0.26913 1.02766
 O319 O 0.24764 0.77698 0.47953
 O320 O 0.27639 0.74805 0.52028
 O321 O 0.27638 0.74811 0.47947
 O322 O 0.24763 0.77689 0.52034
 O323 O 0.22309 0.75244 0.52028
 O324 O 0.25184 0.72365 0.47942
 O325 O 0.25184 0.72359 0.52023
 O326 O 0.22310 0.75252 0.47947
 Cu327 Cu 0.26448 0.76497 0.49991
 Cu328 Cu 0.23499 0.73558 0.49984
 C329 C 0.23056 0.76959 0.47256
 C330 C 0.26892 0.73098 0.52720
 C331 C 0.26892 0.73106 0.47249
 C332 C 0.23055 0.76948 0.52727
 O333 O 0.24804 0.72354 0.02029
 O334 O 0.27693 0.75226 -0.02051
 O335 O 0.27679 0.75242 0.02030
 O336 O 0.24818 0.72339 -0.02052
 O337 O 0.22364 0.74783 -0.02069
 O338 O 0.25224 0.77685 0.02013
 O339 O 0.25238 0.77670 -0.02068
 O340 O 0.22349 0.74798 0.02012
 Cu341 Cu 0.26496 0.73544 -0.00009
 Cu342 Cu 0.23547 0.76481 -0.00030
 C343 C 0.23093 0.73095 0.02715
 C344 C 0.26949 0.76929 -0.02754
 C345 C 0.26930 0.76949 0.02717
 C346 C 0.23113 0.73075 -0.02756
 O347 O 0.27637 0.25178 0.47984
 O348 O 0.24759 0.22284 0.52056
 O349 O 0.24758 0.22296 0.47974
 O350 O 0.27638 0.25167 0.52065
 O351 O 0.25188 0.27615 0.52072
 O352 O 0.22308 0.24743 0.47982
 O353 O 0.22309 0.24731 0.52063
 O354 O 0.25187 0.27626 0.47991
 Cu355 Cu 0.26445 0.23484 0.50019
 Cu356 Cu 0.23500 0.26426 0.50028
 C357 C 0.26893 0.26886 0.47294
 C358 C 0.23053 0.23023 0.52753
 C359 C 0.23052 0.23039 0.47281
 C360 C 0.26895 0.26872 0.52764
 O361 O 0.74780 0.77673 0.97979
 O362 O 0.77640 0.74769 1.02058
 O363 O 0.77661 0.74792 0.97977
 O364 O 0.74759 0.77649 1.02060
 O365 O 0.72310 0.75198 1.02032
 O366 O 0.75211 0.72342 0.97949
 O367 O 0.75190 0.72319 1.02030
 O368 O 0.72331 0.75222 0.97951
 Cu369 Cu 0.76457 0.76468 1.00021
 Cu370 Cu 0.73513 0.73523 0.99988
 C371 C 0.73077 0.76933 0.97271
 C372 C 0.76893 0.73058 1.02739
 C373 C 0.76921 0.73089 0.97268
 C374 C 0.73049 0.76901 1.02741
 O375 O 0.74816 0.27643 0.47945
 O376 O 0.77696 0.24770 0.52031
 O377 O 0.77704 0.24771 0.47950
 O378 O 0.74811 0.27644 0.52026
 O379 O 0.72367 0.25188 0.52021
 O380 O 0.75260 0.22315 0.47944
 O381 O 0.75252 0.22314 0.52026
 O382 O 0.72372 0.25187 0.47940
 Cu383 Cu 0.76503 0.26455 0.49988
 Cu384 Cu 0.73566 0.23503 0.49982
 C385 C 0.73112 0.26896 0.47247
 C386 C 0.76956 0.23062 0.52724
 C387 C 0.76966 0.23062 0.47253
 C388 C 0.73105 0.26897 0.52718
 O389 O 0.75216 0.27663 0.02022
 O390 O 0.72321 0.24796 -0.02062
 O391 O 0.72332 0.24784 0.02020
 O392 O 0.75200 0.27679 -0.02059
 O393 O 0.77649 0.25229 -0.02075
 O394 O 0.74781 0.22335 0.02004
 O395 O 0.74770 0.22346 -0.02077
 O396 O 0.77664 0.25214 0.02006
 Cu397 Cu 0.73520 0.26478 -0.00018
 Cu398 Cu 0.76463 0.23534 -0.00037
 C399 C 0.76924 0.26918 0.02709
 C400 C 0.73062 0.23091 -0.02765
 C401 C 0.73077 0.23075 0.02706
 C402 C 0.76904 0.26938 -0.02762
 O403 O 0.77688 0.75217 0.47993
 O404 O 0.74796 0.72353 0.52077
 O405 O 0.74801 0.72341 0.47995
 O406 O 0.77680 0.75232 0.52074
 O407 O 0.75234 0.77685 0.52062
 O408 O 0.72356 0.74794 0.47984
 O409 O 0.72351 0.74806 0.52065
 O410 O 0.75242 0.77670 0.47981
 Cu411 Cu 0.76488 0.73539 0.50036
 Cu412 Cu 0.73549 0.76486 0.50022
 C413 C 0.76949 0.76922 0.47291
 C414 C 0.73090 0.73100 0.52766
 C415 C 0.73097 0.73084 0.47295
 C416 C 0.76939 0.76942 0.52762
 O417 O 1.02138 0.27675 0.24769
 O418 O 0.98054 0.24787 0.27642
 O419 O 1.02140 0.24790 0.27643
 O420 O 0.98052 0.27668 0.24765
 O421 O 0.98055 0.25219 0.22317
 O422 O 1.02142 0.22342 0.25194
 O423 O 0.98056 0.22339 0.25193
 O424 O 1.02141 0.25226 0.22321
 Cu425 Cu 1.00096 0.26477 0.26452
 Cu426 Cu 1.00099 0.23535 0.23509
 C427 C 1.02834 0.26934 0.23064
 C428 C 0.97360 0.23080 0.26898
 C429 C 1.02836 0.23084 0.26900
 C430 C 0.97357 0.26925 0.23059
 O431 O 0.47965 0.25152 0.72374
 O432 O 0.52059 0.22271 0.75238
 O433 O 0.47973 0.22271 0.75250
 O434 O 0.52051 0.25152 0.72362
 O435 O 0.52059 0.27602 0.74809
 O436 O 0.47982 0.24721 0.77697
 O437 O 0.52068 0.24721 0.77686
 O438 O 0.47974 0.27602 0.74821
 Cu439 Cu 0.50011 0.23464 0.73559
 Cu440 Cu 0.50021 0.26408 0.76500
 C441 C 0.47273 0.26859 0.73118
 C442 C 0.52761 0.23014 0.76941
 C443 C 0.47283 0.23014 0.76957
 C444 C 0.52749 0.26859 0.73102
 O445 O -0.02084 0.27630 0.75188
 O446 O 0.01996 0.24728 0.72326
 O447 O -0.02090 0.24739 0.72319
 O448 O 0.02001 0.27616 0.75197
 O449 O 0.01989 0.25174 0.77650
 O450 O -0.02101 0.22297 0.74772
 O451 O 0.01985 0.22286 0.74779
 O452 O -0.02096 0.25187 0.77641
 Cu453 Cu -0.00043 0.26425 0.73510
 Cu454 Cu -0.00057 0.23489 0.76458
 C455 C -0.02785 0.26894 0.76893
 C456 C 0.02685 0.23022 0.73074
 C457 C -0.02792 0.23037 0.73065
 C458 C 0.02691 0.26877 0.76905
 O459 O 0.52017 0.25176 0.27643
 O460 O 0.47923 0.22295 0.24774
 O461 O 0.52009 0.22296 0.24763
 O462 O 0.47931 0.25175 0.27653
 O463 O 0.47925 0.27626 0.25208
 O464 O 0.52002 0.24747 0.22319
 O465 O 0.47917 0.24746 0.22329
 O466 O 0.52011 0.27626 0.25199
 Cu467 Cu 0.49971 0.23488 0.26455
 Cu468 Cu 0.49963 0.26433 0.23517
 C469 C 0.52711 0.26883 0.26901
 C470 C 0.47223 0.23039 0.23071
 C471 C 0.52700 0.23041 0.23058
 C472 C 0.47234 0.26882 0.26914
 O473 O 0.98012 0.75271 0.72323
 O474 O 1.02095 0.72371 0.75185
 O475 O 0.98010 0.72383 0.75192
 O476 O 1.02098 0.75261 0.72316
 O477 O 1.02110 0.77704 0.74770
 O478 O 0.98022 0.74826 0.77646
 O479 O 1.02107 0.74815 0.77639
 O480 O 0.98024 0.77714 0.74777
 Cu481 Cu 1.00053 0.73575 0.73506
 Cu482 Cu 1.00067 0.76511 0.76455
 C483 C 0.97323 0.76977 0.73071
 C484 C 1.02796 0.73108 0.76891
 C485 C 0.97320 0.73123 0.76901
 C486 C 1.02800 0.76964 0.73062
 O487 O 0.52052 0.77687 0.24774
 O488 O 0.47960 0.74812 0.27649
 O489 O 0.52045 0.74808 0.27653
 O490 O 0.47967 0.77694 0.24773
 O491 O 0.47963 0.75243 0.22326
 O492 O 0.52043 0.72358 0.25207
 O493 O 0.47958 0.72361 0.25202
 O494 O 0.52049 0.75236 0.22328
 Cu495 Cu 0.50006 0.76497 0.26459
 Cu496 Cu 0.50003 0.73553 0.23519
 C497 C 0.52747 0.76942 0.23070
 C498 C 0.47262 0.73105 0.26906
 C499 C 0.52739 0.73100 0.26912
 C500 C 0.47270 0.76951 0.23068
 O501 O -0.02089 0.77671 0.25228
 O502 O 0.01996 0.74804 0.22338
 O503 O -0.02089 0.74790 0.22350
 O504 O 0.01996 0.77685 0.25216
 O505 O 0.02012 0.75236 0.27662
 O506 O -0.02074 0.72340 0.24796
 O507 O 0.02011 0.72354 0.24784
 O508 O -0.02074 0.75221 0.27674
 Cu509 Cu -0.00048 0.76484 0.23536
 Cu510 Cu -0.00030 0.73541 0.26476
 C511 C -0.02777 0.76926 0.26935
 C512 C 0.02699 0.73099 0.23078
 C513 C -0.02777 0.73081 0.23093
 C514 C 0.02699 0.76945 0.26919
 O515 O 0.52012 0.75281 0.77690
 O516 O 0.47930 0.72394 0.74809
 O517 O 0.52016 0.72394 0.74818
 O518 O 0.47926 0.75278 0.77684
 O519 O 0.47929 0.77724 0.75234
 O520 O 0.52020 0.74840 0.72368
 O521 O 0.47934 0.74839 0.72359
 O522 O 0.52015 0.77726 0.75240
 Cu523 Cu 0.49970 0.73590 0.76498
 Cu524 Cu 0.49975 0.76529 0.73553
 C525 C 0.52708 0.76986 0.76947
 C526 C 0.47238 0.73133 0.73102
 C527 C 0.52714 0.73134 0.73113
 C528 C 0.47231 0.76984 0.76938
 C529 C 0.37940 0.32597 0.32638
 C530 C 0.39420 0.31769 0.31811
 C531 C 0.41128 0.30777 0.30819
 C532 C 0.42564 0.29912 0.29953
 C533 C 0.44219 0.28878 0.28916
 C534 C 0.45609 0.27976 0.28012
 C535 C 0.37903 0.82681 0.82627
 C536 C 0.39389 0.81859 0.81802
 C537 C 0.41103 0.80872 0.80815
 C538 C 0.42544 0.80011 0.79954
 C539 C 0.44205 0.78979 0.78924
 C540 C 0.45600 0.78079 0.78027
 C541 C -0.12073 0.32657 0.82578
 C542 C -0.10595 0.31824 0.81753
 C543 C -0.08888 0.30825 0.80766
 C544 C -0.07454 0.29952 0.79906
 C545 C -0.05799 0.28908 0.78877
 C546 C -0.04410 0.27998 0.77981
 C547 C -0.12080 0.82623 0.32664
 C548 C -0.10599 0.81796 0.31836
 C549 C -0.08890 0.80807 0.30843
 C550 C -0.07453 0.79944 0.29976
 C551 C -0.05796 0.78913 0.28938
 C552 C -0.04405 0.78016 0.28033
 C553 C 0.62036 0.67385 0.32633
 C554 C 0.60555 0.68213 0.31805
 C555 C 0.58847 0.69203 0.30813
 C556 C 0.57411 0.70068 0.29947
 C557 C 0.55755 0.71102 0.28910
 C558 C 0.54364 0.72004 0.28007
 C559 C 0.62100 0.17323 0.82619
 C560 C 0.60612 0.18144 0.81796
 C561 C 0.58896 0.19129 0.80811
 C562 C 0.57453 0.19990 0.79951
 C563 C 0.55790 0.21021 0.78924
 C564 C 0.54393 0.21920 0.78028
 C565 C 1.12086 0.67350 0.82581
 C566 C 1.10607 0.68183 0.81755
 C567 C 1.08901 0.69181 0.80766
 C568 C 1.07466 0.70053 0.79905
 C569 C 1.05811 0.71096 0.78875
 C570 C 1.04421 0.72005 0.77979
 C571 C 1.12135 0.17354 0.32607
 C572 C 1.10655 0.18185 0.31780
 C573 C 1.08948 0.19180 0.30790
 C574 C 1.07512 0.20049 0.29927
 C575 C 1.05856 0.21086 0.28894
 C576 C 1.04464 0.21989 0.27994
 C577 C 0.62038 0.32582 0.67375
 C578 C 0.60559 0.31752 0.68203
 C579 C 0.58852 0.30759 0.69196
 C580 C 0.57417 0.29892 0.70063
 C581 C 0.55763 0.28857 0.71100
 C582 C 0.54373 0.27954 0.72004
 C583 C 0.62069 0.82629 0.17359
 C584 C 0.60585 0.81807 0.18186
 C585 C 0.58872 0.80821 0.19178
 C586 C 0.57432 0.79961 0.20042
 C587 C 0.55772 0.78932 0.21077
 C588 C 0.54378 0.78034 0.21977
 C589 C 1.12137 0.32673 0.17373
 C590 C 1.10656 0.31842 0.18198
 C591 C 1.08947 0.30846 0.19185
 C592 C 1.07510 0.29977 0.20045
 C593 C 1.05853 0.28937 0.21075
 C594 C 1.04462 0.28032 0.21973
 C595 C 1.12121 0.82669 0.67367
 C596 C 1.10637 0.81843 0.68191
 C597 C 1.08924 0.80853 0.69178
 C598 C 1.07485 0.79990 0.70040
 C599 C 1.05825 0.78957 0.71071
 C600 C 1.04430 0.78057 0.71970
 C601 C 0.37946 0.67403 0.67379
 C602 C 0.39425 0.68233 0.68207
 C603 C 0.41132 0.69227 0.69200
 C604 C 0.42568 0.70095 0.70067
 C605 C 0.44222 0.71132 0.71103
 C606 C 0.45612 0.72036 0.72006
 C607 C 0.37890 0.17334 0.17387
 C608 C 0.39376 0.18159 0.18210
 C609 C 0.41090 0.19147 0.19196
 C610 C 0.42532 0.20011 0.20056
 C611 C 0.44195 0.21044 0.21085
 C612 C 0.45591 0.21944 0.21982
 C613 C -0.12078 0.67337 0.17397
 C614 C -0.10597 0.68168 0.18223
 C615 C -0.08889 0.69164 0.19212
 C616 C -0.07452 0.70033 0.20074
 C617 C -0.05796 0.71073 0.21105
 C618 C -0.04404 0.71980 0.22003
 C619 C -0.12116 0.17331 0.67367
 C620 C -0.10631 0.18156 0.68192
 C621 C -0.08918 0.19146 0.69179
 C622 C -0.07478 0.20010 0.70041
 C623 C -0.05817 0.21043 0.71072
 C624 C -0.04423 0.21943 0.71972
 C625 C 0.32584 0.37949 0.32635
 C626 C 0.31756 0.39429 0.31806
 C627 C 0.30764 0.41136 0.30812
 C628 C 0.29899 0.42571 0.29945
 C629 C 0.28865 0.44226 0.28907
 C630 C 0.27964 0.45616 0.28003
 C631 C 0.32677 -0.12131 0.82625
 C632 C 0.31844 -0.10651 0.81800
 C633 C 0.30846 -0.08944 0.80813
 C634 C 0.29974 -0.07509 0.79952
 C635 C 0.28933 -0.05854 0.78922
 C636 C 0.28026 -0.04463 0.78024
 C637 C 0.82635 0.37927 0.82631
 C638 C 0.81812 0.39412 0.81806
 C639 C 0.80826 0.41125 0.80817
 C640 C 0.79965 0.42566 0.79954
 C641 C 0.78934 0.44226 0.78922
 C642 C 0.78034 0.45621 0.78023
 C643 C 0.82668 -0.12068 0.32617
 C644 C 0.81840 -0.10587 0.31791
 C645 C 0.80848 -0.08878 0.30801
 C646 C 0.79982 -0.07441 0.29938
 C647 C 0.78945 -0.05784 0.28906
 C648 C 0.78042 -0.04393 0.28006
 C649 C 0.32600 0.62037 0.67377
 C650 C 0.31775 0.60555 0.68205
 C651 C 0.30786 0.58846 0.69198
 C652 C 0.29924 0.57408 0.70064
 C653 C 0.28892 0.55751 0.71101
 C654 C 0.27992 0.54360 0.72005
 C655 C 0.32667 1.12138 0.17393
 C656 C 0.31836 1.10658 0.18218
 C657 C 0.30840 1.08949 0.19205
 C658 C 0.29970 1.07512 0.20066
 C659 C 0.28930 1.05856 0.21095
 C660 C 0.28024 1.04464 0.21992
 C661 C 0.82626 0.62069 0.17346
 C662 C 0.81803 0.60584 0.18172
 C663 C 0.80818 0.58871 0.19163
 C664 C 0.79958 0.57430 0.20027
 C665 C 0.78929 0.55770 0.21061
 C666 C 0.78032 0.54375 0.21962
 C667 C 0.82661 1.12136 0.67373
 C668 C 0.81829 1.10657 0.68201
 C669 C 0.80833 1.08950 0.69191
 C670 C 0.79965 1.07515 0.70056
 C671 C 0.78927 1.05860 0.71090
 C672 C 0.78024 1.04469 0.71991
 C673 C 0.67389 0.62030 0.32627
 C674 C 0.68215 0.60550 0.31798
 C675 C 0.69205 0.58842 0.30803
 C676 C 0.70070 0.57406 0.29936
 C677 C 0.71104 0.55751 0.28898
 C678 C 0.72005 0.54361 0.27995
 C679 C 0.67331 1.12139 0.82614
 C680 C 0.68164 1.10660 0.81788
 C681 C 0.69162 1.08953 0.80801
 C682 C 0.70033 1.07517 0.79939
 C683 C 0.71073 1.05861 0.78909
 C684 C 0.71979 1.04470 0.78011
 C685 C 0.17373 0.62076 0.82638
 C686 C 0.18195 0.60589 0.81814
 C687 C 0.19179 0.58874 0.80827
 C688 C 0.20039 0.57432 0.79965
 C689 C 0.21068 0.55769 0.78934
 C690 C 0.21966 0.54373 0.78035
 C691 C 0.17338 1.12142 0.32607
 C692 C 0.18167 1.10661 0.31781
 C693 C 0.19162 1.08952 0.30793
 C694 C 0.20030 1.07515 0.29931
 C695 C 0.21068 1.05858 0.28901
 C696 C 0.21972 1.04466 0.28003
 C697 C 0.67384 0.37947 0.67375
 C698 C 0.68210 0.39429 0.68203
 C699 C 0.69199 0.41140 0.69195
 C700 C 0.70062 0.42578 0.70061
 C701 C 0.71096 0.44236 0.71097
 C702 C 0.71998 0.45628 0.71999
 C703 C 0.67336 -0.12073 0.17403
 C704 C 0.68168 -0.10592 0.18227
 C705 C 0.69166 -0.08883 0.19213
 C706 C 0.70037 -0.07446 0.20073
 C707 C 0.71079 -0.05789 0.21101
 C708 C 0.71987 -0.04396 0.21997
 C709 C 0.17332 0.37896 0.17370
 C710 C 0.18155 0.39383 0.18194
 C711 C 0.19142 0.41098 0.19181
 C712 C 0.20004 0.42540 0.20042
 C713 C 0.21035 0.44203 0.21072
 C714 C 0.21935 0.45599 0.21970
 C715 C 0.17342 -0.12134 0.67380
 C716 C 0.18173 -0.10655 0.68209
 C717 C 0.19169 -0.08948 0.69201
 C718 C 0.20038 -0.07513 0.70066
 C719 C 0.21076 -0.05857 0.71101
 C720 C 0.21980 -0.04466 0.72003
 C721 C 0.32593 0.32605 0.37994
 C722 C 0.31768 0.31779 0.39476
 C723 C 0.30780 0.30789 0.41186
 C724 C 0.29918 0.29924 0.42623
 C725 C 0.28886 0.28888 0.44279
 C726 C 0.27986 0.27985 0.45669
 C727 C 0.32655 0.82623 -0.12066
 C728 C 0.31832 0.81798 -0.10583
 C729 C 0.30845 0.80810 -0.08871
 C730 C 0.29982 0.79948 -0.07432
 C731 C 0.28948 0.78917 -0.05774
 C732 C 0.28046 0.78019 -0.04382
 C733 C 0.82582 0.32673 -0.12066
 C734 C 0.81759 0.31846 -0.10584
 C735 C 0.80774 0.30853 -0.08874
 C736 C 0.79915 0.29984 -0.07437
 C737 C 0.78888 0.28945 -0.05780
 C738 C 0.77993 0.28039 -0.04388
 C739 C 0.82675 0.82589 0.37975
 C740 C 0.81849 0.81768 0.39459
 C741 C 0.80857 0.80786 0.41171
 C742 C 0.79990 0.79929 0.42610
 C743 C 0.78952 0.78903 0.44269
 C744 C 0.78048 0.78009 0.45663
 C745 C 0.67385 0.32596 0.62020
 C746 C 0.68211 0.31771 0.60538
 C747 C 0.69202 0.30783 0.58828
 C748 C 0.70067 0.29920 0.57391
 C749 C 0.71103 0.28888 0.55734
 C750 C 0.72006 0.27989 0.54344
 C751 C 0.67317 0.82574 1.12051
 C752 C 0.68142 0.81750 1.10569
 C753 C 0.69134 0.80764 1.08858
 C754 C 0.70001 0.79906 1.07419
 C755 C 0.71040 0.78880 1.05761
 C756 C 0.71947 0.77986 1.04369
 C757 C 0.17387 0.32638 1.12069
 C758 C 0.18212 0.31811 1.10587
 C759 C 0.19199 0.30820 1.08878
 C760 C 0.20061 0.29954 1.07440
 C761 C 0.21091 0.28917 1.05783
 C762 C 0.21988 0.28012 1.04392
 C763 C 0.17366 0.82631 0.62056
 C764 C 0.18188 0.81810 0.60570
 C765 C 0.19174 0.80826 0.58855
 C766 C 0.20035 0.79967 0.57414
 C767 C 0.21065 0.78938 0.55752
 C768 C 0.21964 0.78040 0.54357
 C769 C 0.32597 0.67385 0.62022
 C770 C 0.31771 0.68210 0.60540
 C771 C 0.30781 0.69199 0.58830
 C772 C 0.29917 0.70062 0.57393
 C773 C 0.28884 0.71097 0.55736
 C774 C 0.27985 0.72000 0.54345
 C775 C 0.32635 0.17384 1.12084
 C776 C 0.31810 0.18208 1.10600
 C777 C 0.30821 0.19194 1.08889
 C778 C 0.29956 0.20054 1.07450
 C779 C 0.28921 0.21083 1.05791
 C780 C 0.28019 0.21980 1.04398
 C781 C 0.82572 0.67323 1.12043
 C782 C 0.81747 0.68149 1.10561
 C783 C 0.80761 0.69141 1.08852
 C784 C 0.79901 0.70009 1.07414
 C785 C 0.78874 0.71048 1.05757
 C786 C 0.77979 0.71955 1.04365
 C787 C 0.82640 0.17372 0.62053
 C788 C 0.81819 0.18195 0.60567
 C789 C 0.80836 0.19181 0.58853
 C790 C 0.79976 0.20042 0.57411
 C791 C 0.78947 0.21073 0.55749
 C792 C 0.78049 0.21971 0.54355
 C793 C 0.67387 0.67375 0.37988
 C794 C 0.68213 0.68200 0.39471
 C795 C 0.69204 0.69188 0.41181
 C796 C 0.70069 0.70051 0.42620
 C797 C 0.71103 0.71085 0.44277
 C798 C 0.72004 0.71987 0.45669
 C799 C 0.67354 0.17389 -0.12078
 C800 C 0.68177 0.18217 -0.10594
 C801 C 0.69164 0.19207 -0.08883
 C802 C 0.70027 0.20071 -0.07444
 C803 C 0.71060 0.21103 -0.05785
 C804 C 0.71963 0.22002 -0.04393
 C805 C 0.17433 0.67336 -0.12062
 C806 C 0.18258 0.68163 -0.10580
 C807 C 0.19244 0.69156 -0.08870
 C808 C 0.20104 0.70025 -0.07432
 C809 C 0.21131 0.71065 -0.05775
 C810 C 0.22026 0.71972 -0.04383
 C811 C 0.17365 0.17373 0.37934
 C812 C 0.18186 0.18192 0.39424
 C813 C 0.19170 0.19172 0.41142
 C814 C 0.20030 0.20029 0.42587
 C815 C 0.21060 0.21055 0.44251
 C816 C 0.21959 0.21950 0.45649
 C817 C 0.32606 0.37935 0.67422
 C818 C 0.31780 0.39418 0.68245
 C819 C 0.30789 0.41130 0.69232
 C820 C 0.29925 0.42570 0.70092
 C821 C 0.28891 0.44231 0.71122
 C822 C 0.27990 0.45625 0.72020
 C823 C 0.32623 0.88045 0.17372
 C824 C 0.31799 0.89528 0.18199
 C825 C 0.30811 0.91239 0.19190
 C826 C 0.29948 0.92678 0.20054
 C827 C 0.28916 0.94337 0.21088
 C828 C 0.28015 0.95730 0.21988
 C829 C 0.82677 0.37963 0.17352
 C830 C 0.81849 0.39445 0.18178
 C831 C 0.80856 0.41155 0.19166
 C832 C 0.79989 0.42592 0.20028
 C833 C 0.78951 0.44249 0.21060
 C834 C 0.78048 0.45640 0.21960
 C835 C 0.82647 0.88052 0.67393
 C836 C 0.81820 0.89534 0.68219
 C837 C 0.80830 0.91245 0.69208
 C838 C 0.79966 0.92684 0.70071
 C839 C 0.78931 0.94343 0.71102
 C840 C 0.78029 0.95736 0.72001
 C841 C 0.67375 0.62050 0.67418
 C842 C 0.68203 0.60567 0.68241
 C843 C 0.69195 0.58855 0.69226
 C844 C 0.70061 0.57416 0.70086
 C845 C 0.71097 0.55756 0.71114
 C846 C 0.72000 0.54362 0.72011
 C847 C 0.67376 0.12001 0.17354
 C848 C 0.68205 0.10522 0.18183
 C849 C 0.69197 0.08815 0.19176
 C850 C 0.70063 0.07380 0.20042
 C851 C 0.71099 0.05725 0.21078
 C852 C 0.72002 0.04335 0.21980
 C853 C 0.17339 0.62029 0.17342
 C854 C 0.18162 0.60544 0.18166
 C855 C 0.19148 0.58830 0.19155
 C856 C 0.20009 0.57390 0.20018
 C857 C 0.21039 0.55730 0.21052
 C858 C 0.21938 0.54337 0.21954
 C859 C 0.17350 0.11939 0.67394
 C860 C 0.18178 0.10458 0.68222
 C861 C 0.19169 0.08750 0.69214
 C862 C 0.20034 0.07313 0.70078
 C863 C 0.21070 0.05656 0.71112
 C864 C 0.21973 0.04265 0.72012
 C865 C 0.32586 0.62037 0.32592
 C866 C 0.31759 0.60554 0.31766
 C867 C 0.30767 0.58842 0.30777
 C868 C 0.29902 0.57403 0.29915
 C869 C 0.28868 0.55743 0.28883
 C870 C 0.27966 0.54349 0.27985
 C871 C 0.32618 0.11954 0.82663
 C872 C 0.31792 0.10471 0.81835
 C873 C 0.30804 0.08760 0.80843
 C874 C 0.29942 0.07321 0.79976
 C875 C 0.28910 0.05663 0.78940
 C876 C 0.28011 0.04270 0.78037
 C877 C 0.82667 0.62048 0.82626
 C878 C 0.81840 0.60563 0.81803
 C879 C 0.80848 0.58851 0.80817
 C880 C 0.79982 0.57411 0.79957
 C881 C 0.78945 0.55751 0.78927
 C882 C 0.78042 0.54358 0.78028
 C883 C 0.82691 0.12017 0.32600
 C884 C 0.81862 0.10536 0.31774
 C885 C 0.80868 0.08826 0.30784
 C886 C 0.80000 0.07389 0.29922
 C887 C 0.78961 0.05732 0.28891
 C888 C 0.78055 0.04340 0.27993
 C889 C 0.67395 0.37944 0.32592
 C890 C 0.68223 0.39426 0.31767
 C891 C 0.69215 0.41137 0.30779
 C892 C 0.70080 0.42576 0.29917
 C893 C 0.71114 0.44235 0.28886
 C894 C 0.72015 0.45628 0.27987
 C895 C 0.67385 0.88053 0.82642
 C896 C 0.68211 0.89536 0.81816
 C897 C 0.69199 0.91247 0.80825
 C898 C 0.70062 0.92685 0.79960
 C899 C 0.71093 0.94344 0.78925
 C900 C 0.71993 0.95737 0.78023
 C901 C 0.17343 0.37949 0.82650
 C902 C 0.18170 0.39433 0.81827
 C903 C 0.19160 0.41145 0.80840
 C904 C 0.20025 0.42584 0.79979
 C905 C 0.21059 0.44243 0.78947
 C906 C 0.21960 0.45636 0.78047
 C907 C 0.17356 0.88046 0.32611
 C908 C 0.18182 0.89529 0.31786
 C909 C 0.19171 0.91240 0.30796
 C910 C 0.20035 0.92679 0.29933
 C911 C 0.21069 0.94338 0.28901
 C912 C 0.21971 0.95731 0.28002
 C913 C 0.37958 0.32577 0.67427
 C914 C 0.39440 0.31750 0.68253
 C915 C 0.41151 0.30758 0.69241
 C916 C 0.42589 0.29893 0.70102
 C917 C 0.44248 0.28857 0.71132
 C918 C 0.45642 0.27955 0.72029
 C919 C 0.37971 0.82684 0.17368
 C920 C 0.39452 0.81854 0.18193
 C921 C 0.41161 0.80859 0.19180
 C922 C 0.42597 0.79991 0.20043
 C923 C 0.44253 0.78953 0.21074
 C924 C 0.45644 0.78049 0.21974
 C925 C 0.88037 0.32614 0.17350
 C926 C 0.89521 0.31791 0.18176
 C927 C 0.91233 0.30805 0.19166
 C928 C 0.92673 0.29945 0.20031
 C929 C 0.94333 0.28915 0.21065
 C930 C 0.95728 0.28017 0.21966
 C931 C 0.88007 0.82703 0.67391
 C932 C 0.89491 0.81877 0.68215
 C933 C 0.91203 0.80887 0.69201
 C934 C 0.92643 0.80021 0.70061
 C935 C 0.94302 0.78983 0.71089
 C936 C 0.95695 0.78078 0.71984
 C937 C 0.62035 0.32591 0.32595
 C938 C 0.60551 0.31765 0.31770
 C939 C 0.58839 0.30775 0.30782
 C940 C 0.57398 0.29912 0.29920
 C941 C 0.55737 0.28878 0.28890
 C942 C 0.54342 0.27977 0.27992
 C943 C 0.62025 0.82702 0.82645
 C944 C 0.60541 0.81876 0.81821
 C945 C 0.58828 0.80885 0.80834
 C946 C 0.57388 0.80020 0.79972
 C947 C 0.55729 0.78985 0.78940
 C948 C 0.54336 0.78083 0.78041
 C949 C 0.11994 0.32586 0.82633
 C950 C 0.10514 0.31758 0.81803
 C951 C 0.08806 0.30768 0.80808
 C952 C 0.07369 0.29904 0.79940
 C953 C 0.05712 0.28871 0.78903
 C954 C 0.04320 0.27970 0.78000
 C955 C 0.12005 0.82685 0.32610
 C956 C 0.10524 0.81856 0.31785
 C957 C 0.08814 0.80860 0.30797
 C958 C 0.07377 0.79992 0.29935
 C959 C 0.05719 0.78952 0.28905
 C960 C 0.04327 0.78045 0.28008
 C961 C 0.62023 0.67408 0.67424
 C962 C 0.60542 0.68236 0.68249
 C963 C 0.58832 0.69229 0.69237
 C964 C 0.57394 0.70096 0.70098
 C965 C 0.55736 0.71134 0.71127
 C966 C 0.54343 0.72037 0.72024
 C967 C 0.62011 0.17345 0.17343
 C968 C 0.60528 0.18169 0.18168
 C969 C 0.58816 0.19156 0.19158
 C970 C 0.57377 0.20018 0.20022
 C971 C 0.55719 0.21049 0.21058
 C972 C 0.54327 0.21948 0.21961
 C973 C 0.11999 0.67397 0.17349
 C974 C 0.10519 0.68225 0.18177
 C975 C 0.08811 0.69215 0.19170
 C976 C 0.07374 0.70079 0.20037
 C977 C 0.05718 0.71110 0.21074
 C978 C 0.04327 0.72009 0.21979
 C979 C 0.11992 0.17289 0.67388
 C980 C 0.10510 0.18116 0.68212
 C981 C 0.08799 0.19109 0.69200
 C982 C 0.07361 0.19976 0.70060
 C983 C 0.05704 0.21014 0.71090
 C984 C 0.04312 0.21920 0.71986
 C985 C 0.37943 0.67392 0.32595
 C986 C 0.39426 0.68220 0.31772
 C987 C 0.41138 0.69211 0.30785
 C988 C 0.42578 0.70077 0.29925
 C989 C 0.44237 0.71111 0.28895
 C990 C 0.45632 0.72012 0.27997
 C991 C 0.37975 0.17308 0.82669
 C992 C 0.39458 0.18134 0.81844
 C993 C 0.41169 0.19123 0.80855
 C994 C 0.42607 0.19987 0.79990
 C995 C 0.44265 0.21020 0.78956
 C996 C 0.45657 0.21920 0.78053
 C997 C 0.88015 0.67412 0.82616
 C998 C 0.89496 0.68239 0.81788
 C999 C 0.91205 0.69230 0.80796
 C1000 C 0.92642 0.70095 0.79931
 C1001 C 0.94299 0.71128 0.78896
 C1002 C 0.95691 0.72029 0.77994
 C1003 C 0.88050 0.17370 0.32605
 C1004 C 0.89533 0.18196 0.31779
 C1005 C 0.91243 0.19185 0.30788
 C1006 C 0.92682 0.20049 0.29924
 C1007 C 0.94340 0.21082 0.28891
 C1008 C 0.95732 0.21984 0.27990
 C1009 C 0.32606 0.32576 0.62074
 C1010 C 0.31779 0.31749 0.60593
 C1011 C 0.30789 0.30759 0.58883
 C1012 C 0.29925 0.29896 0.57445
 C1013 C 0.28891 0.28863 0.55787
 C1014 C 0.27990 0.27964 0.54394
 C1015 C 0.32616 0.82691 0.12019
 C1016 C 0.31790 0.81863 0.10538
 C1017 C 0.30802 0.80869 0.08829
 C1018 C 0.29941 0.80000 0.07392
 C1019 C 0.28913 0.78960 0.05735
 C1020 C 0.28017 0.78052 0.04344
 C1021 C 0.82674 0.32606 0.12005
 C1022 C 0.81843 0.31780 0.10526
 C1023 C 0.80846 0.30793 0.08818
 C1024 C 0.79975 0.29933 0.07382
 C1025 C 0.78933 0.28904 0.05726
 C1026 C 0.78026 0.28008 0.04336
 C1027 C 0.82644 0.82688 0.62050
 C1028 C 0.81817 0.81856 0.60572
 C1029 C 0.80827 0.80859 0.58865
 C1030 C 0.79964 0.79989 0.57430
 C1031 C 0.78932 0.78948 0.55776
 C1032 C 0.78032 0.78042 0.54387
 C1033 C 0.32589 0.67392 0.37943
 C1034 C 0.31764 0.68219 0.39424
 C1035 C 0.30776 0.69211 0.41133
 C1036 C 0.29914 0.70076 0.42571
 C1037 C 0.28883 0.71111 0.44229
 C1038 C 0.27984 0.72012 0.45621
 C1039 C 0.32613 0.17314 0.88010
 C1040 C 0.31786 0.18143 0.89488
 C1041 C 0.30796 0.19138 0.91195
 C1042 C 0.29932 0.20006 0.92630
 C1043 C 0.28900 0.21045 0.94284
 C1044 C 0.28001 0.21951 0.95674
 C1045 C 0.82665 0.67410 0.87969
 C1046 C 0.81836 0.68235 0.89449
 C1047 C 0.80842 0.69222 0.91158
 C1048 C 0.79973 0.70082 0.92594
 C1049 C 0.78932 0.71109 0.94250
 C1050 C 0.78024 0.72004 0.95641
 C1051 C 0.82697 0.17368 0.37954
 C1052 C 0.81869 0.18193 0.39435
 C1053 C 0.80876 0.19181 0.41144
 C1054 C 0.80009 0.20042 0.42581
 C1055 C 0.78970 0.21073 0.44237
 C1056 C 0.78065 0.21971 0.45627
 C1057 C 0.67394 0.32592 0.37942
 C1058 C 0.68221 0.31766 0.39423
 C1059 C 0.69213 0.30779 0.41132
 C1060 C 0.70079 0.29917 0.42570
 C1061 C 0.71114 0.28886 0.44227
 C1062 C 0.72017 0.27988 0.45619
 C1063 C 0.67390 0.82691 0.87985
 C1064 C 0.68216 0.81860 0.89463
 C1065 C 0.69205 0.80862 0.91168
 C1066 C 0.70066 0.79990 0.92603
 C1067 C 0.71094 0.78947 0.94257
 C1068 C 0.71990 0.78038 0.95646
 C1069 C 0.17342 0.32588 0.87992
 C1070 C 0.18169 0.31763 0.89473
 C1071 C 0.19160 0.30774 0.91182
 C1072 C 0.20027 0.29913 0.92619
 C1073 C 0.21064 0.28882 0.94276
 C1074 C 0.21968 0.27985 0.95667
 C1075 C 0.17359 0.82691 0.37960
 C1076 C 0.18185 0.81863 0.39440
 C1077 C 0.19173 0.80870 0.41149
 C1078 C 0.20035 0.80002 0.42585
 C1079 C 0.21066 0.78964 0.44240
 C1080 C 0.21964 0.78058 0.45630
 C1081 C 0.67372 0.67406 0.62071
 C1082 C 0.68198 0.68232 0.60590
 C1083 C 0.69188 0.69221 0.58880
 C1084 C 0.70053 0.70083 0.57443
 C1085 C 0.71088 0.71114 0.55786
 C1086 C 0.71991 0.72012 0.54394
 C1087 C 0.67372 0.17350 0.12000
 C1088 C 0.68199 0.18177 0.10520
 C1089 C 0.69190 0.19169 0.08813
 C1090 C 0.70054 0.20035 0.07377
 C1091 C 0.71087 0.21071 0.05722
 C1092 C 0.71986 0.21975 0.04332
 C1093 C 0.17356 0.67393 0.12003
 C1094 C 0.18187 0.68219 0.10525
 C1095 C 0.19182 0.69209 0.08819
 C1096 C 0.20050 0.70072 0.07384
 C1097 C 0.21089 0.71104 0.05730
 C1098 C 0.21994 0.72003 0.04340
 C1099 C 0.17349 0.17291 0.62043
 C1100 C 0.18175 0.18119 0.60563
 C1101 C 0.19164 0.19112 0.58856
 C1102 C 0.20027 0.19980 0.57420
 C1103 C 0.21060 0.21018 0.55766
 C1104 C 0.21960 0.21924 0.54377
   
