data_POSCAR
  _audit_creation_date              2014-09-24
  _audit_creation_method            'ToBaCCo'
  _symmetry_space_group_name_H-M    'P1'
  _symmetry_Int_Tables_number       1
  _symmetry_cell_setting            triclinic
  loop_
  _symmetry_equiv_pos_as_xyz
 x,y,z
_cell_length_a 60.4240
_cell_length_b 61.1322
_cell_length_c 59.3328
_cell_angle_alpha 90.004500
_cell_angle_beta 90.109200
_cell_angle_gamma 90.004600
loop_
  _atom_site_label
  _atom_site_type_symbol
  _atom_site_fract_x
  _atom_site_fract_y
  _atom_site_fract_z
O1 O 0.30257 0.33549 0.02673
 O2 O 0.33162 0.30442 -0.01699
 O3 O 0.30224 0.33550 -0.01676
 O4 O 0.33209 0.30454 0.02654
 O5 O 0.30576 0.27947 0.02683
 O6 O 0.27532 0.31107 -0.01662
 O7 O 0.30521 0.27944 -0.01690
 O8 O 0.27570 0.31098 0.02708
 Cu9 Cu 0.31977 0.32242 0.00486
 Cu10 Cu 0.28780 0.29273 0.00513
 C11 C 0.28402 0.32886 0.03402
 C12 C 0.32368 0.28648 -0.02410
 C13 C 0.28350 0.32895 -0.02374
 C14 C 0.32435 0.28657 0.03375
 O15 O 0.68542 0.65302 0.01469
 O16 O 0.65572 0.68291 -0.02942
 O17 O 0.68516 0.65219 -0.02896
 O18 O 0.65614 0.68384 0.01428
 O19 O 0.68258 0.70880 0.01383
 O20 O 0.71188 0.67682 -0.02986
 O21 O 0.68200 0.70803 -0.03017
 O22 O 0.71229 0.67752 0.01408
 Cu23 Cu 0.66796 0.66554 -0.00729
 Cu24 Cu 0.69988 0.69532 -0.00812
 C25 C 0.70392 0.66000 0.02182
 C26 C 0.66362 0.70057 -0.03723
 C27 C 0.70351 0.65892 -0.03670
 C28 C 0.66429 0.70168 0.02141
 O29 O 0.69226 0.33566 0.97394
 O30 O 0.66037 0.30831 1.01819
 O31 O 0.69243 0.33649 1.01736
 O32 O 0.66010 0.30756 0.97447
 O33 O 0.68415 0.28034 0.97477
 O34 O 0.71710 0.30983 1.01786
 O35 O 0.68451 0.28118 1.01884
 O36 O 0.71688 0.30893 0.97429
 Cu37 Cu 0.67383 0.32463 0.99594
 Cu38 Cu 0.70305 0.29225 0.99648
 C39 C 0.71019 0.32730 0.96691
 C40 C 0.66685 0.29008 1.02599
 C41 C 0.71048 0.32847 1.02458
 C42 C 0.66642 0.28900 0.96741
 O43 O 0.34028 0.69586 1.02676
 O44 O 0.31171 0.66356 0.98363
 O45 O 0.33983 0.69555 0.98327
 O46 O 0.31205 0.66387 1.02730
 O47 O 0.28438 0.68745 1.02753
 O48 O 0.31255 0.71962 0.98316
 O49 O 0.28399 0.68711 0.98350
 O50 O 0.31308 0.72001 1.02678
 Cu51 Cu 0.32867 0.67732 1.00526
 Cu52 Cu 0.29564 0.70590 1.00528
 C53 C 0.33189 0.71362 1.03377
 C54 C 0.29297 0.66966 0.97630
 C55 C 0.33122 0.71311 0.97596
 C56 C 0.29340 0.67002 1.03480
 O57 O 0.02087 0.31214 0.34230
 O58 O -0.02352 0.34201 0.31358
 O59 O -0.02189 0.31113 0.34330
 O60 O 0.01935 0.34346 0.31282
 O61 O 0.01962 0.31918 0.28525
 O62 O -0.02185 0.28629 0.31626
 O63 O -0.02355 0.31765 0.28608
 O64 O 0.02115 0.28738 0.31517
 Cu65 Cu -0.00128 0.32964 0.33069
 Cu66 Cu -0.00112 0.30016 0.29788
 C67 C 0.02837 0.29457 0.33389
 C68 C -0.03105 0.33505 0.29494
 C69 C -0.02876 0.29313 0.33524
 C70 C 0.02638 0.33705 0.29381
 O71 O 0.02095 0.69237 0.66557
 O72 O -0.02250 0.66406 0.69695
 O73 O -0.02181 0.69397 0.66570
 O74 O 0.02022 0.66346 0.69747
 O75 O 0.02114 0.68946 0.72332
 O76 O -0.02149 0.72005 0.69145
 O77 O -0.02172 0.68958 0.72330
 O78 O 0.02158 0.71884 0.69091
 Cu79 Cu -0.00091 0.67591 0.67886
 Cu80 Cu -0.00014 0.70716 0.70983
 C81 C 0.02851 0.71048 0.67260
 C82 C -0.02908 0.67152 0.71571
 C83 C -0.02855 0.71239 0.67285
 C84 C 0.02765 0.67107 0.71590
 O85 O 1.01644 0.66737 0.30111
 O86 O 0.97193 0.69370 0.33290
 O87 O 0.97383 0.66460 0.30121
 O88 O 1.01460 0.69716 0.33235
 O89 O 1.01264 0.72318 0.30662
 O90 O 0.97143 0.69034 0.27518
 O91 O 0.96966 0.71991 0.30738
 O92 O 1.01422 0.69283 0.27478
 Cu93 Cu 0.99446 0.67817 0.31948
 Cu94 Cu 0.99182 0.70924 0.28840
 C95 C 1.02254 0.67517 0.28232
 C96 C 0.96335 0.71134 0.32581
 C97 C 0.96591 0.67169 0.28278
 C98 C 1.02034 0.71586 0.32510
 O99 O 0.98637 0.30566 0.65893
 O100 O 1.02659 0.34137 0.68730
 O101 O 1.02890 0.31059 0.65763
 O102 O 0.98386 0.33760 0.68781
 O103 O 0.98708 0.31409 0.71589
 O104 O 1.03211 0.28608 0.68479
 O105 O 1.03004 0.31726 0.71483
 O106 O 0.98924 0.28158 0.68654
 Cu107 Cu 1.00603 0.32619 0.67019
 Cu108 Cu 1.00982 0.29729 0.70331
 C109 C 0.98119 0.28742 0.66769
 C110 C 1.03521 0.33541 0.70584
 C111 C 1.03817 0.29376 0.66585
 C112 C 0.97805 0.33085 0.70711
 O113 O 0.34488 0.01891 0.31593
 O114 O 0.31556 -0.02596 0.34396
 O115 O 0.34736 -0.02337 0.31485
 O116 O 0.31312 0.01638 0.34514
 O117 O 0.28845 0.01586 0.31761
 O118 O 0.32301 -0.02426 0.28704
 O119 O 0.29079 -0.02673 0.31654
 O120 O 0.32064 0.01828 0.28801
 Cu121 Cu 0.33265 -0.00343 0.33273
 Cu122 Cu 0.30323 -0.00427 0.29949
 C123 C 0.33797 0.02611 0.29713
 C124 C 0.29815 -0.03391 0.33521
 C125 C 0.34117 -0.03049 0.29577
 C126 C 0.29493 0.02280 0.33670
 O127 O 0.69125 -0.01829 0.66322
 O128 O 0.65915 0.02205 0.69514
 O129 O 0.68896 0.02416 0.66379
 O130 O 0.66146 -0.02002 0.69467
 O131 O 0.68739 -0.01892 0.72096
 O132 O 0.71542 0.02539 0.68949
 O133 O 0.68518 0.02330 0.72132
 O134 O 0.71766 -0.01737 0.68899
 Cu135 Cu 0.67267 0.00186 0.67656
 Cu136 Cu 0.70416 0.00319 0.70774
 C137 C 0.70992 -0.02464 0.67051
 C138 C 0.66638 0.02922 0.71383
 C139 C 0.70687 0.03226 0.67123
 C140 C 0.66935 -0.02664 0.71330
 O141 O 0.29643 1.01963 0.66393
 O142 O 0.33132 0.97901 0.69221
 O143 O 0.29927 0.97759 0.66325
 O144 O 0.32878 1.02137 0.69273
 O145 O 0.30507 1.01954 0.72096
 O146 O 0.27473 0.97570 0.69075
 O147 O 0.30733 0.97684 0.72017
 O148 O 0.27212 1.01791 0.69165
 Cu149 Cu 0.31639 0.99963 0.67532
 Cu150 Cu 0.28743 0.99735 0.70880
 C151 C 0.27815 1.02533 0.67262
 C152 C 0.32537 0.97101 0.71097
 C153 C 0.28181 0.96946 0.67163
 C154 C 0.32221 1.02778 0.71191
 O155 O 0.67401 0.97928 0.29881
 O156 O 0.70058 1.02244 0.33199
 O157 O 0.67088 1.02140 0.30032
 O158 O 0.70375 0.98039 0.33050
 O159 O 0.73026 0.98305 0.30506
 O160 O 0.69693 1.02441 0.27444
 O161 O 0.72714 1.02533 0.30665
 O162 O 0.69991 0.98208 0.27275
 Cu163 Cu 0.68470 1.00058 0.31793
 Cu164 Cu 0.71623 1.00397 0.28710
 C165 C 0.68205 0.97364 0.27996
 C166 C 0.71858 1.03095 0.32535
 C167 C 0.67804 1.02966 0.28213
 C168 C 0.72275 0.97506 0.32329
 C169 C 0.87724 0.79622 0.50078
 C170 C 0.86750 0.80315 0.48057
 C171 C 0.85327 0.82126 0.48087
 C172 C 0.84970 0.83341 0.50083
 C173 C 0.86022 0.82628 0.52086
 C174 C 0.87360 0.80746 0.52105
 C175 C 0.83528 0.85349 0.50056
 C176 C 0.82477 0.86106 0.52038
 C177 C 0.81157 0.88002 0.52015
 C178 C 0.80801 0.89087 0.49962
 C179 C 0.81755 0.88336 0.47957
 C180 C 0.83170 0.86519 0.48032
 H181 H 0.88797 0.78205 0.50066
 H182 H 0.84491 0.82560 0.46540
 H183 H 0.85846 0.83547 0.53631
 H184 H 0.82650 0.85217 0.53601
 H185 H 0.79725 0.90502 0.49912
 H186 H 0.83996 0.86044 0.46495
 C187 C 0.13455 0.21170 0.49953
 C188 C 0.13624 0.19989 0.47934
 C189 C 0.14597 0.17901 0.47969
 C190 C 0.15498 0.17032 0.49979
 C191 C 0.15324 0.18281 0.51975
 C192 C 0.14237 0.20305 0.51988
 C193 C 0.16591 0.14827 0.50007
 C194 C 0.16708 0.13596 0.52017
 C195 C 0.17847 0.11601 0.52102
 C196 C 0.18727 0.10733 0.50111
 C197 C 0.18606 0.11892 0.48074
 C198 C 0.17582 0.13957 0.48047
 H199 H 0.12619 0.22737 0.49957
 H200 H 0.14626 0.16959 0.46429
 H201 H 0.16033 0.17702 0.53537
 H202 H 0.15930 0.14177 0.53542
 H203 H 0.19605 0.09190 0.50171
 H204 H 0.17598 0.14890 0.46500
 C205 C 0.11160 0.79993 0.49665
 C206 C 0.12278 0.80407 0.51693
 C207 C 0.14114 0.81812 0.51675
 C208 C 0.14776 0.82898 0.49684
 C209 C 0.13601 0.82460 0.47672
 C210 C 0.11830 0.80973 0.47641
 C211 C 0.16684 0.84473 0.49718
 C212 C 0.17929 0.84901 0.47750
 C213 C 0.19706 0.86381 0.47787
 C214 C 0.20295 0.87379 0.49827
 C215 C 0.19109 0.86977 0.51810
 C216 C 0.17280 0.85565 0.51731
 H217 H 0.09778 0.78866 0.49652
 H218 H 0.15036 0.82030 0.53221
 H219 H 0.14028 0.83289 0.46124
 H220 H 0.17561 0.84065 0.46189
 H221 H 0.21681 0.88502 0.49863
 H222 H 0.16311 0.85356 0.53244
 C223 C 0.89041 0.19243 0.50321
 C224 C 0.88294 0.18331 0.52345
 C225 C 0.86412 0.16988 0.52324
 C226 C 0.85195 0.16640 0.50316
 C227 C 0.85929 0.17685 0.48325
 C228 C 0.87876 0.18937 0.48301
 C229 C 0.83169 0.15211 0.50291
 C230 C 0.82449 0.14205 0.48271
 C231 C 0.80518 0.12928 0.48207
 C232 C 0.79358 0.12557 0.50214
 C233 C 0.80078 0.13452 0.52262
 C234 C 0.81943 0.14821 0.52279
 H235 H 0.90499 0.20274 0.50336
 H236 H 0.85932 0.16206 0.53881
 H237 H 0.84985 0.17553 0.46783
 H238 H 0.83395 0.14380 0.46740
 H239 H 0.77907 0.11519 0.50194
 H240 H 0.82405 0.15590 0.53850
 C241 C 0.49915 0.88428 0.79882
 C242 C 0.47901 0.87388 0.80358
 C243 C 0.47887 0.85609 0.81854
 C244 C 0.49840 0.84926 0.82962
 C245 C 0.51834 0.86039 0.82477
 C246 C 0.51893 0.87746 0.80898
 C247 C 0.49802 0.83060 0.84606
 C248 C 0.51728 0.81811 0.85024
 C249 C 0.51724 0.80104 0.86603
 C250 C 0.49746 0.79573 0.87702
 C251 C 0.47794 0.80745 0.87289
 C252 C 0.47843 0.82510 0.85777
 H253 H 0.49949 0.89766 0.78687
 H254 H 0.46349 0.84746 0.82121
 H255 H 0.53350 0.85608 0.83337
 H256 H 0.53237 0.82129 0.84106
 H257 H 0.49727 0.78235 0.88897
 H258 H 0.46355 0.83468 0.85560
 C259 C 0.50308 0.11913 0.20395
 C260 C 0.48277 0.12932 0.19948
 C261 C 0.48192 0.14619 0.18345
 C262 C 0.50092 0.15229 0.17105
 C263 C 0.52105 0.14130 0.17565
 C264 C 0.52235 0.12514 0.19241
 C265 C 0.49977 0.17001 0.15347
 C266 C 0.51895 0.18170 0.14709
 C267 C 0.51817 0.19779 0.13021
 C268 C 0.49773 0.20307 0.12044
 C269 C 0.47826 0.19227 0.12683
 C270 C 0.47949 0.17543 0.14288
 H271 H 0.50391 0.10641 0.21661
 H272 H 0.46641 0.15467 0.18105
 H273 H 0.53579 0.14489 0.16607
 H274 H 0.53460 0.17866 0.15534
 H275 H 0.49694 0.21579 0.10778
 H276 H 0.46456 0.16646 0.14670
 C277 C 0.49313 0.11491 0.80135
 C278 C 0.51309 0.12114 0.81155
 C279 C 0.51283 0.13759 0.82806
 C280 C 0.49308 0.14880 0.83356
 C281 C 0.47336 0.14254 0.82240
 C282 C 0.47315 0.12527 0.80678
 C283 C 0.49309 0.16692 0.85074
 C284 C 0.47348 0.17286 0.86221
 C285 C 0.47331 0.19009 0.87786
 C286 C 0.49323 0.20074 0.88303
 C287 C 0.51307 0.19493 0.87240
 C288 C 0.51274 0.17849 0.85588
 H289 H 0.49320 0.10196 0.78890
 H290 H 0.52814 0.14130 0.83667
 H291 H 0.45808 0.15119 0.82547
 H292 H 0.45825 0.16402 0.85938
 H293 H 0.49327 0.21375 0.89541
 H294 H 0.52790 0.17509 0.84693
 C295 C 0.51148 0.88644 0.19673
 C296 C 0.53054 0.87978 0.18518
 C297 C 0.52892 0.86292 0.16921
 C298 C 0.50866 0.85191 0.16543
 C299 C 0.48996 0.85850 0.17798
 C300 C 0.49109 0.87607 0.19318
 C301 C 0.50701 0.83366 0.14856
 C302 C 0.48652 0.82840 0.13833
 C303 C 0.48474 0.81105 0.12296
 C304 C 0.50383 0.79946 0.11695
 C305 C 0.52446 0.80454 0.12639
 C306 C 0.52586 0.82130 0.14250
 H307 H 0.51263 0.89962 0.20886
 H308 H 0.54349 0.85875 0.15960
 H309 H 0.47444 0.84988 0.17626
 H310 H 0.47186 0.83790 0.14189
 H311 H 0.50258 0.78627 0.10483
 H312 H 0.54166 0.82430 0.15048
 C313 C 0.79635 0.49427 0.87509
 C314 C 0.80822 0.47506 0.87072
 C315 C 0.82665 0.47596 0.85638
 C316 C 0.83275 0.49567 0.84555
 C317 C 0.82005 0.51463 0.84992
 C318 C 0.80225 0.51416 0.86506
 C319 C 0.85223 0.49649 0.82984
 C320 C 0.86338 0.51639 0.82559
 C321 C 0.88104 0.51746 0.81030
 C322 C 0.88864 0.49811 0.80027
 C323 C 0.87832 0.47797 0.80453
 C324 C 0.85978 0.47743 0.81879
 H325 H 0.78239 0.49376 0.88648
 H326 H 0.83634 0.46127 0.85415
 H327 H 0.82360 0.52985 0.84141
 H328 H 0.85858 0.53121 0.83420
 H329 H 0.90248 0.49879 0.78873
 H330 H 0.85119 0.46208 0.82093
 C331 C 0.20446 0.50265 0.12393
 C332 C 0.19294 0.48330 0.12875
 C333 C 0.17443 0.48423 0.14301
 C334 C 0.16800 0.50405 0.15344
 C335 C 0.18036 0.52313 0.14863
 C336 C 0.19814 0.52267 0.13345
 C337 C 0.14850 0.50484 0.16914
 C338 C 0.13693 0.52460 0.17292
 C339 C 0.11909 0.52557 0.18801
 C340 C 0.11188 0.50628 0.19842
 C341 C 0.12271 0.48631 0.19476
 C342 C 0.14131 0.48585 0.18060
 H343 H 0.21840 0.50216 0.11251
 H344 H 0.16497 0.46946 0.14559
 H345 H 0.17648 0.53844 0.15679
 H346 H 0.14146 0.53937 0.16406
 H347 H 0.09793 0.50690 0.20983
 H348 H 0.15026 0.47065 0.17888
 C349 C 0.79645 0.49491 0.11402
 C350 C 0.80102 0.51492 0.12458
 C351 C 0.81651 0.51547 0.14222
 C352 C 0.82825 0.49649 0.14871
 C353 C 0.82349 0.47664 0.13746
 C354 C 0.80729 0.47566 0.12052
 C355 C 0.84532 0.49741 0.16712
 C356 C 0.85079 0.47853 0.17969
 C357 C 0.86711 0.47917 0.19654
 C358 C 0.87732 0.49915 0.20163
 C359 C 0.87190 0.51829 0.18987
 C360 C 0.85633 0.51720 0.17232
 H361 H 0.78415 0.49426 0.10075
 H362 H 0.81903 0.53075 0.15102
 H363 H 0.83252 0.46188 0.14146
 H364 H 0.84222 0.46328 0.17676
 H365 H 0.88962 0.49982 0.21491
 H366 H 0.85318 0.53183 0.16261
 C367 C 0.20396 0.50026 0.88589
 C368 C 0.19903 0.52028 0.87552
 C369 C 0.18349 0.52072 0.85790
 C370 C 0.17204 0.50160 0.85127
 C371 C 0.17709 0.48176 0.86241
 C372 C 0.19338 0.48087 0.87930
 C373 C 0.15492 0.50237 0.83288
 C374 C 0.14974 0.48345 0.82019
 C375 C 0.13335 0.48391 0.80341
 C376 C 0.12269 0.50370 0.79858
 C377 C 0.12778 0.52286 0.81045
 C378 C 0.14354 0.52201 0.82783
 H379 H 0.21628 0.49972 0.89915
 H380 H 0.18067 0.53601 0.84924
 H381 H 0.16823 0.46692 0.85833
 H382 H 0.15859 0.46833 0.82297
 H383 H 0.11029 0.50422 0.78539
 H384 H 0.14647 0.53666 0.83758
 N385 N 0.23849 0.35334 0.06674
 C386 C 0.24814 0.37196 0.07444
 N387 N 0.26976 0.37568 0.06983
 N388 N 0.28135 0.36144 0.05769
 C389 C 0.27176 0.34290 0.04974
 N390 N 0.25014 0.33901 0.05461
 C391 C 0.23542 0.38877 0.08528
 C392 C 0.22604 0.40427 0.09344
 C393 C 0.21661 0.42414 0.10205
 N394 N 0.22493 0.44355 0.09509
 N395 N 0.21711 0.46222 0.10336
 C396 C 0.20063 0.46228 0.11890
 N397 N 0.19220 0.44274 0.12575
 N398 N 0.20006 0.42397 0.11747
 N399 N 0.74804 0.63880 0.05888
 C400 C 0.73818 0.62075 0.06764
 N401 N 0.71698 0.61616 0.06191
 N402 N 0.70596 0.62909 0.04778
 C403 C 0.71576 0.64705 0.03881
 N404 N 0.73696 0.65180 0.04474
 C405 C 0.75050 0.60516 0.08064
 C406 C 0.75991 0.59056 0.09035
 C407 C 0.76996 0.57160 0.10024
 N408 N 0.76304 0.55153 0.09370
 N409 N 0.77269 0.53363 0.10179
 C410 C 0.78965 0.53506 0.11676
 N411 N 0.79646 0.55527 0.12346
 N412 N 0.78679 0.57325 0.11532
 N413 N 0.72824 0.37172 0.92974
 C414 C 0.74964 0.36643 0.92575
 N415 N 0.75786 0.34750 0.93429
 N416 N 0.74503 0.33439 0.94665
 C417 C 0.72364 0.33987 0.95092
 N418 N 0.71548 0.35869 0.94211
 C419 C 0.76367 0.38214 0.91490
 C420 C 0.77403 0.39703 0.90679
 C421 C 0.78438 0.41649 0.89836
 N422 N 0.79908 0.41592 0.88109
 N423 N 0.80722 0.43449 0.87262
 C424 C 0.80085 0.45421 0.88106
 N425 N 0.78631 0.45454 0.89848
 N426 N 0.77825 0.43607 0.90695
 N427 N 0.24953 0.64598 0.93999
 C428 C 0.25983 0.62782 0.93202
 N429 N 0.28111 0.62395 0.93803
 N430 N 0.29176 0.63767 0.95165
 C431 C 0.28152 0.65576 0.95981
 N432 N 0.26024 0.65977 0.95362
 C433 C 0.24796 0.61157 0.91941
 C434 C 0.23886 0.59662 0.90993
 C435 C 0.22906 0.57744 0.90016
 N436 N 0.23588 0.55748 0.90718
 N437 N 0.22654 0.53943 0.89904
 C438 C 0.21002 0.54059 0.88353
 N439 N 0.20331 0.56069 0.87639
 N440 N 0.21266 0.57882 0.88458
 N441 N 0.06520 0.25018 0.35308
 C442 C 0.07322 0.25867 0.37259
 N443 N 0.06712 0.27911 0.37879
 N444 N 0.05329 0.29069 0.36605
 C445 C 0.04507 0.28226 0.34662
 N446 N 0.05136 0.26182 0.34026
 C447 C 0.08654 0.24590 0.38768
 C448 C 0.09700 0.23647 0.40201
 C449 C 0.10845 0.22705 0.42083
 N450 N 0.11212 0.23949 0.43932
 N451 N 0.12126 0.23084 0.45767
 C452 C 0.12705 0.20938 0.45830
 N453 N 0.12355 0.19695 0.43960
 N454 N 0.11432 0.20562 0.42119
 N455 N 0.06336 0.75404 0.64843
 C456 C 0.07119 0.74408 0.62961
 N457 N 0.06580 0.72293 0.62564
 N458 N 0.05283 0.71208 0.63987
 C459 C 0.04475 0.72200 0.65860
 N460 N 0.05039 0.74315 0.66275
 C461 C 0.08272 0.75617 0.61256
 C462 C 0.09121 0.76539 0.59683
 C463 C 0.09977 0.77525 0.57672
 N464 N 0.09027 0.77045 0.55664
 N465 N 0.09775 0.77949 0.53774
 C466 C 0.11505 0.79367 0.53813
 N467 N 0.12459 0.79841 0.55835
 N468 N 0.11710 0.78935 0.57733
 N469 N 0.92569 0.75295 0.34936
 C470 C 0.91860 0.74284 0.36840
 N471 N 0.92554 0.72222 0.37282
 N472 N 0.93925 0.71203 0.35879
 C473 C 0.94654 0.72209 0.33982
 N474 N 0.93939 0.74270 0.33524
 C475 C 0.90603 0.75438 0.38512
 C476 C 0.89670 0.76321 0.40060
 C477 C 0.88723 0.77269 0.42051
 N478 N 0.89080 0.76296 0.44069
 N479 N 0.88390 0.77236 0.45963
 C480 C 0.87315 0.79187 0.45918
 N481 N 0.86933 0.80146 0.43884
 N482 N 0.87629 0.79206 0.41982
 N483 N 0.94540 0.26559 0.62296
 C484 C 0.94199 0.24474 0.62987
 N485 N 0.95078 0.23806 0.64978
 N486 N 0.96274 0.25185 0.66229
 C487 C 0.96634 0.27271 0.65524
 N488 N 0.95736 0.27932 0.63541
 C489 C 0.93096 0.22969 0.61506
 C490 C 0.92244 0.21819 0.60099
 C491 C 0.91324 0.20620 0.58241
 N492 N 0.92461 0.20529 0.56279
 N493 N 0.91528 0.19701 0.54435
 C494 C 0.89421 0.18930 0.54478
 N495 N 0.88299 0.18977 0.56464
 N496 N 0.89232 0.19816 0.58313
 N497 N 0.38169 0.06616 0.28527
 C498 C 0.37706 0.07214 0.26379
 N499 N 0.35899 0.06357 0.25342
 N500 N 0.34602 0.04938 0.26423
 C501 C 0.35080 0.04320 0.28570
 N502 N 0.36879 0.05197 0.29604
 C503 C 0.39267 0.08530 0.25163
 C504 C 0.40721 0.09518 0.24219
 C505 C 0.42610 0.10533 0.23195
 N506 N 0.42402 0.11915 0.21418
 N507 N 0.44198 0.12728 0.20412
 C508 C 0.46260 0.12179 0.21145
 N509 N 0.46446 0.10810 0.22938
 N510 N 0.44658 0.10003 0.23942
 N511 N 0.61833 0.06182 0.73108
 C512 C 0.62330 0.06686 0.75274
 N513 N 0.64303 0.06035 0.76143
 N514 N 0.65724 0.04899 0.74882
 C515 C 0.65214 0.04373 0.72716
 N516 N 0.63247 0.05045 0.71853
 C517 C 0.60685 0.07724 0.76651
 C518 C 0.59164 0.08513 0.77683
 C519 C 0.57208 0.09356 0.78744
 N520 N 0.55229 0.08417 0.78286
 N521 N 0.53370 0.09263 0.79106
 C522 C 0.53413 0.11082 0.80420
 N523 N 0.55408 0.12007 0.80901
 N524 N 0.57274 0.11161 0.80073
 N525 N 0.37313 0.93554 0.72224
 C526 C 0.36911 0.92858 0.74351
 N527 N 0.35027 0.93505 0.75400
 N528 N 0.33592 0.94815 0.74347
 C529 C 0.34005 0.95529 0.72220
 N530 N 0.35885 0.94863 0.71176
 C531 C 0.38582 0.91642 0.75528
 C532 C 0.40113 0.90732 0.76433
 C533 C 0.42072 0.89802 0.77408
 N534 N 0.41965 0.88184 0.78970
 N535 N 0.43814 0.87390 0.79892
 C536 C 0.45831 0.88187 0.79286
 N537 N 0.45915 0.89800 0.77714
 N538 N 0.44074 0.90591 0.76793
 N539 N 0.63826 0.93602 0.26187
 C540 C 0.64253 0.93365 0.23960
 N541 N 0.66070 0.94343 0.23074
 N542 N 0.67405 0.95540 0.24378
 C543 C 0.66956 0.95804 0.26607
 N544 N 0.65151 0.94800 0.27485
 C545 C 0.62630 0.92325 0.22553
 C546 C 0.61099 0.91543 0.21525
 C547 C 0.59106 0.90724 0.20511
 N548 N 0.59073 0.88808 0.19357
 N549 N 0.57157 0.87967 0.18642
 C550 C 0.55211 0.89007 0.19071
 N551 N 0.55267 0.90938 0.20201
 N552 N 0.57176 0.91779 0.20907
 N553 N 0.36945 0.26937 0.93941
 C554 C 0.36430 0.24824 0.93497
 N555 N 0.34507 0.23988 0.94304
 N556 N 0.33153 0.25230 0.95536
 C557 C 0.33685 0.27342 0.96006
 N558 N 0.35599 0.28173 0.95174
 C559 C 0.38032 0.23464 0.92390
 C560 C 0.39532 0.22450 0.91553
 C561 C 0.41478 0.21417 0.90666
 N562 N 0.41378 0.20014 0.88895
 N563 N 0.43231 0.19194 0.88011
 C564 C 0.45247 0.19756 0.88861
 N565 N 0.45324 0.21145 0.90647
 N566 N 0.43479 0.21958 0.91531
 N567 N 0.64344 0.74440 0.92528
 C568 C 0.62452 0.73537 0.91714
 N569 N 0.61901 0.71478 0.92341
 N570 N 0.63189 0.70356 0.93745
 C571 C 0.65074 0.71254 0.94580
 N572 N 0.65641 0.73312 0.93932
 C573 C 0.60893 0.74804 0.90440
 C574 C 0.59421 0.75774 0.89501
 C575 C 0.57500 0.76812 0.88566
 N576 N 0.55480 0.75964 0.89016
 N577 N 0.53655 0.76984 0.88334
 C578 C 0.53776 0.78895 0.87174
 N579 N 0.55810 0.79730 0.86697
 N580 N 0.57643 0.78708 0.87387
 N581 N 0.35307 0.76144 0.06487
 C582 C 0.37242 0.75350 0.07315
 N583 N 0.37766 0.73225 0.06954
 N584 N 0.36418 0.71936 0.05778
 C585 C 0.34494 0.72724 0.04922
 N586 N 0.33950 0.74848 0.05314
 C587 C 0.38866 0.76764 0.08314
 C588 C 0.40400 0.77807 0.09044
 C589 C 0.42401 0.78849 0.09782
 N590 N 0.44321 0.78354 0.08728
 N591 N 0.46235 0.79131 0.09493
 C592 C 0.46308 0.80435 0.11344
 N593 N 0.44372 0.80959 0.12382
 N594 N 0.42450 0.80173 0.11618
 N595 N 0.64396 0.24800 0.06392
 C596 C 0.62553 0.25815 0.07173
 N597 N 0.62121 0.27891 0.06508
 N598 N 0.63477 0.28920 0.05097
 C599 C 0.65314 0.27909 0.04297
 N600 N 0.65760 0.25833 0.04981
 C601 C 0.60943 0.24660 0.08493
 C602 C 0.59458 0.23769 0.09489
 C603 C 0.57545 0.22806 0.10522
 N604 N 0.55512 0.23571 0.09976
 N605 N 0.53705 0.22633 0.10811
 C606 C 0.53856 0.20893 0.12227
 N607 N 0.55904 0.20142 0.12789
 N608 N 0.57719 0.21080 0.11949
 N609 N 0.22821 0.05376 0.65226
 C610 C 0.23545 0.06203 0.63238
 N611 N 0.25691 0.05923 0.62649
 N612 N 0.27068 0.04827 0.63985
 C613 C 0.26350 0.03974 0.65964
 N614 N 0.24204 0.04280 0.66571
 C615 C 0.22050 0.07173 0.61648
 C616 C 0.20936 0.07924 0.60149
 C617 C 0.19809 0.08752 0.58200
 N618 N 0.18988 0.10816 0.58167
 N619 N 0.18250 0.11685 0.56246
 C620 C 0.18323 0.10527 0.54289
 N621 N 0.19111 0.08447 0.54347
 N622 N 0.19841 0.07577 0.56265
 N623 N 0.76045 0.06666 0.34886
 C624 C 0.75122 0.07177 0.36902
 N625 N 0.73082 0.06401 0.37400
 N626 N 0.72004 0.05131 0.35946
 C627 C 0.72926 0.04587 0.33937
 N628 N 0.74962 0.05395 0.33423
 C629 C 0.76325 0.08365 0.38593
 C630 C 0.77209 0.09266 0.40162
 C631 C 0.78092 0.10223 0.42181
 N632 N 0.77047 0.09865 0.44161
 N633 N 0.77831 0.10718 0.46064
 C634 C 0.79694 0.11961 0.46066
 N635 N 0.80743 0.12316 0.44070
 N636 N 0.79957 0.11460 0.42159
 N637 N 0.72577 0.93894 0.62402
 C638 C 0.74704 0.93401 0.62916
 N639 N 0.75602 0.94210 0.64843
 N640 N 0.74406 0.95480 0.66207
 C641 C 0.72277 0.95992 0.65678
 N642 N 0.71385 0.95164 0.63758
 C643 C 0.76027 0.92237 0.61303
 C644 C 0.77049 0.91369 0.59805
 C645 C 0.78152 0.90490 0.57863
 N646 N 0.79341 0.88608 0.57964
 N647 N 0.80305 0.87808 0.56115
 C648 C 0.80106 0.88859 0.54101
 N649 N 0.78916 0.90743 0.54025
 N650 N 0.77957 0.91540 0.55865
 N651 N 0.25474 0.92728 0.35284
 C652 C 0.26352 0.91918 0.37219
 N653 N 0.28383 0.92599 0.37885
 N654 N 0.29503 0.94050 0.36666
 C655 C 0.28630 0.94879 0.34739
 N656 N 0.26600 0.94180 0.34058
 C657 C 0.25077 0.90557 0.38700
 C658 C 0.24095 0.89532 0.40118
 C659 C 0.23047 0.88484 0.41998
 N660 N 0.24010 0.88624 0.44053
 N661 N 0.22974 0.87880 0.45873
 C662 C 0.20932 0.86965 0.45712
 N663 N 0.19982 0.86789 0.43638
 N664 N 0.21019 0.87543 0.41811
 N665 N 0.07046 0.38300 0.71775
 C666 C 0.07867 0.37813 0.73841
 N667 N 0.07294 0.35894 0.74829
 N668 N 0.05940 0.34505 0.73775
 C669 C 0.05105 0.34999 0.71708
 N670 N 0.05692 0.36916 0.70725
 C671 C 0.09157 0.39411 0.75029
 C672 C 0.10129 0.40873 0.75968
 C673 C 0.11124 0.42751 0.77004
 N674 N 0.10648 0.44763 0.76189
 N675 N 0.11405 0.46544 0.77221
 C676 C 0.12669 0.46384 0.79109
 N677 N 0.13170 0.44357 0.79908
 N678 N 0.12406 0.42569 0.78876
 N679 N 0.05388 0.65362 0.23391
 C680 C 0.06340 0.63557 0.24308
 N681 N 0.06053 0.63145 0.26531
 N682 N 0.04829 0.64471 0.27795
 C683 C 0.03850 0.66264 0.26886
 N684 N 0.04166 0.66699 0.24662
 C685 C 0.07411 0.61944 0.22930
 C686 C 0.08219 0.60435 0.21912
 C687 C 0.09075 0.58483 0.20887
 N688 N 0.11022 0.58484 0.19753
 N689 N 0.11891 0.56609 0.19012
 C690 C 0.10848 0.54671 0.19390
 N691 N 0.08886 0.54693 0.20503
 N692 N 0.08017 0.56560 0.21236
 N693 N 0.93095 0.35580 0.25123
 C694 C 0.92266 0.37391 0.26141
 N695 N 0.92902 0.37869 0.28274
 N696 N 0.94332 0.36589 0.29357
 C697 C 0.95180 0.34786 0.28343
 N698 N 0.94524 0.34292 0.26211
 C699 C 0.90950 0.38939 0.24915
 C700 C 0.89969 0.40387 0.23966
 C701 C 0.88973 0.42268 0.22938
 N702 N 0.89468 0.44279 0.23748
 N703 N 0.88700 0.46063 0.22732
 C704 C 0.87407 0.45908 0.20864
 N705 N 0.86891 0.43883 0.20069
 N706 N 0.87665 0.42091 0.21086
 N707 N 0.94096 0.64793 0.76399
 C708 C 0.93243 0.62948 0.75467
 N709 N 0.93540 0.62574 0.73239
 N710 N 0.94682 0.63978 0.71983
 C711 C 0.95564 0.65812 0.72908
 N712 N 0.95236 0.66206 0.75137
 C713 C 0.92261 0.61269 0.76830
 C714 C 0.91523 0.59718 0.77835
 C715 C 0.90740 0.57733 0.78851
 N716 N 0.91792 0.55827 0.78400
 N717 N 0.90988 0.53938 0.79153
 C718 C 0.89098 0.53878 0.80387
 N719 N 0.88060 0.55799 0.80861
 N720 N 0.88864 0.57694 0.80103
 N721 N 0.71645 0.61389 0.92646
 C722 C 0.73680 0.61949 0.91889
 N723 N 0.74589 0.63869 0.92569
 N724 N 0.73492 0.65185 0.93972
 C725 C 0.71459 0.64612 0.94754
 N726 N 0.70552 0.62697 0.94049
 C727 C 0.74917 0.60403 0.90579
 C728 C 0.75875 0.58960 0.89601
 C729 C 0.76913 0.57085 0.88606
 N730 N 0.78865 0.57247 0.87491
 N731 N 0.79891 0.55452 0.86754
 C732 C 0.79006 0.53436 0.87117
 N733 N 0.77040 0.53296 0.88211
 N734 N 0.76014 0.55084 0.88941
 N735 N 0.26860 0.37538 0.94214
 C736 C 0.24751 0.37054 0.93623
 N737 N 0.23866 0.35117 0.94284
 N738 N 0.25055 0.33719 0.95521
 C739 C 0.27162 0.34222 0.96147
 N740 N 0.28044 0.36149 0.95451
 C741 C 0.23443 0.38687 0.92501
 C742 C 0.22479 0.40209 0.91658
 C743 C 0.21509 0.42176 0.90774
 N744 N 0.20203 0.42155 0.88911
 N745 N 0.19456 0.44027 0.88034
 C746 C 0.19998 0.45982 0.88985
 N747 N 0.21289 0.45981 0.90861
 N748 N 0.22029 0.44116 0.91738
 N749 N 0.25131 0.64836 0.07191
 C750 C 0.26104 0.62954 0.07893
 N751 N 0.28175 0.62476 0.07178
 N752 N 0.29238 0.63823 0.05792
 C753 C 0.28268 0.65698 0.05061
 N754 N 0.26199 0.66191 0.05804
 C755 C 0.24905 0.61360 0.09180
 C756 C 0.23980 0.59885 0.10144
 C757 C 0.22982 0.57984 0.11133
 N758 N 0.23872 0.55992 0.10723
 N759 N 0.22892 0.54188 0.11480
 C760 C 0.20982 0.54303 0.12677
 N761 N 0.20105 0.56310 0.13108
 N762 N 0.21086 0.58120 0.12346
 N763 N 0.75684 0.34734 0.05803
 C764 C 0.74958 0.36744 0.06434
 N765 N 0.72901 0.37392 0.05820
 N766 N 0.71614 0.36090 0.04590
 C767 C 0.72336 0.34089 0.03924
 N768 N 0.74390 0.33424 0.04574
 C769 C 0.76385 0.38282 0.07543
 C770 C 0.77443 0.39750 0.08368
 C771 C 0.78508 0.41679 0.09221
 N772 N 0.78158 0.43608 0.08160
 N773 N 0.78932 0.45462 0.09027
 C774 C 0.80087 0.45463 0.10992
 N775 N 0.80468 0.43517 0.12038
 N776 N 0.79685 0.41655 0.11171
 N777 N 0.93823 0.75716 0.65158
 C778 C 0.93158 0.74898 0.63141
 N779 N 0.93752 0.72836 0.62566
 N780 N 0.94992 0.71633 0.63946
 C781 C 0.95688 0.72448 0.65955
 N782 N 0.95064 0.74508 0.66546
 C783 C 0.92007 0.76228 0.61523
 C784 C 0.91130 0.77217 0.60005
 C785 C 0.90200 0.78215 0.58026
 N786 N 0.90785 0.77437 0.55977
 N787 N 0.89903 0.78270 0.54112
 C788 C 0.88399 0.79919 0.54213
 N789 N 0.87825 0.80711 0.56276
 N790 N 0.88710 0.79872 0.58152
 N791 N 0.93712 0.24813 0.35417
 C792 C 0.93036 0.25567 0.37455
 N793 N 0.93666 0.27590 0.38127
 N794 N 0.94945 0.28819 0.36817
 C795 C 0.95650 0.28069 0.34787
 N796 N 0.94990 0.26049 0.34099
 C797 C 0.91890 0.24182 0.39015
 C798 C 0.91056 0.23110 0.40492
 C799 C 0.90240 0.21953 0.42422
 N800 N 0.88238 0.20945 0.42408
 N801 N 0.87484 0.19966 0.44266
 C802 C 0.88699 0.19974 0.46200
 N803 N 0.90703 0.20980 0.46188
 N804 N 0.91456 0.21952 0.44338
 N805 N 0.07975 0.25486 0.64795
 C806 C 0.08577 0.26350 0.62780
 N807 N 0.07623 0.28234 0.62077
 N808 N 0.06108 0.29224 0.63338
 C809 C 0.05484 0.28365 0.65349
 N810 N 0.06459 0.26484 0.66066
 C811 C 0.10032 0.25209 0.61278
 C812 C 0.11126 0.24334 0.59842
 C813 C 0.12244 0.23387 0.57949
 N814 N 0.12955 0.21283 0.57994
 N815 N 0.13698 0.20330 0.56120
 C816 C 0.13740 0.21443 0.54134
 N817 N 0.13061 0.23561 0.54116
 N818 N 0.12326 0.24513 0.55987
 N819 N 0.05185 0.76199 0.34594
 C820 C 0.05927 0.75402 0.36593
 N821 N 0.05438 0.73315 0.37168
 N822 N 0.04226 0.72065 0.35808
 C823 C 0.03455 0.72856 0.33818
 N824 N 0.03974 0.74944 0.33225
 C825 C 0.07046 0.76773 0.38195
 C826 C 0.07904 0.77793 0.39701
 C827 C 0.08822 0.78830 0.41662
 N828 N 0.07810 0.78552 0.43675
 N829 N 0.08737 0.79300 0.45558
 C830 C 0.10714 0.80356 0.45505
 N831 N 0.11712 0.80663 0.43475
 N832 N 0.10785 0.79906 0.41585
 N833 N 0.62460 0.93630 0.72999
 C834 C 0.62928 0.93253 0.75198
 N835 N 0.64797 0.94120 0.76103
 N836 N 0.66142 0.95345 0.74845
 C837 C 0.65654 0.95750 0.72647
 N838 N 0.63796 0.94857 0.71746
 C839 C 0.61313 0.92175 0.76575
 C840 C 0.59799 0.91367 0.77601
 C841 C 0.57838 0.90519 0.78642
 N842 N 0.57871 0.88645 0.79866
 N843 N 0.55990 0.87793 0.80651
 C844 C 0.54013 0.88780 0.80228
 N845 N 0.54003 0.90669 0.79023
 N846 N 0.55877 0.91521 0.78245
 N847 N 0.38889 0.93487 0.28197
 C848 C 0.38440 0.92880 0.26049
 N849 N 0.36528 0.93558 0.25070
 N850 N 0.35111 0.94812 0.26210
 C851 C 0.35570 0.95437 0.28359
 N852 N 0.37478 0.94741 0.29333
 C853 C 0.40082 0.91720 0.24782
 C854 C 0.41576 0.90848 0.23783
 C855 C 0.43477 0.89948 0.22675
 N856 N 0.43280 0.88334 0.21118
 N857 N 0.45068 0.87565 0.20067
 C858 C 0.47113 0.88383 0.20535
 N859 N 0.47290 0.89993 0.22104
 N860 N 0.45508 0.90760 0.23153
 N861 N 0.62969 0.06282 0.26680
 C862 C 0.63446 0.06898 0.24543
 N863 N 0.65414 0.06300 0.23630
 N864 N 0.66851 0.05107 0.24822
 C865 C 0.66360 0.04470 0.26959
 N866 N 0.64398 0.05089 0.27866
 C867 C 0.61781 0.07997 0.23235
 C868 C 0.60234 0.08827 0.22274
 C869 C 0.58236 0.09698 0.21316
 N870 N 0.58245 0.11523 0.20012
 N871 N 0.56344 0.12390 0.19289
 C872 C 0.54370 0.11468 0.19855
 N873 N 0.54384 0.09630 0.21140
 N874 N 0.56278 0.08763 0.21855
 N875 N 0.34535 0.06250 0.75703
 C876 C 0.36287 0.07176 0.74638
 N877 N 0.36630 0.06728 0.72431
 N878 N 0.35280 0.05384 0.71323
 C879 C 0.33539 0.04435 0.72382
 N880 N 0.33176 0.04905 0.74590
 C881 C 0.37931 0.08388 0.75862
 C882 C 0.39460 0.09289 0.76784
 C883 C 0.41432 0.10204 0.77753
 N884 N 0.43426 0.09482 0.77034
 N885 N 0.45283 0.10249 0.77944
 C886 C 0.45223 0.11772 0.79611
 N887 N 0.43215 0.12505 0.80321
 N888 N 0.41350 0.11734 0.79408
 N889 N 0.64613 0.74622 0.05903
 C890 C 0.62713 0.73777 0.06755
 N891 N 0.62080 0.71739 0.06134
 N892 N 0.63298 0.70580 0.04701
 C893 C 0.65192 0.71419 0.03832
 N894 N 0.65838 0.73457 0.04469
 C895 C 0.61251 0.75073 0.08108
 C896 C 0.59857 0.76068 0.09136
 C897 C 0.58019 0.77130 0.10198
 N898 N 0.55958 0.76329 0.09858
 N899 N 0.54203 0.77362 0.10685
 C900 C 0.54436 0.79238 0.11888
 N901 N 0.56513 0.80027 0.12252
 N902 N 0.58276 0.78992 0.11417
 N903 N 0.34696 0.23996 0.06585
 C904 C 0.36620 0.24852 0.07375
 N905 N 0.37094 0.26978 0.06949
 N906 N 0.35707 0.28206 0.05749
 C907 C 0.33792 0.27356 0.04934
 N908 N 0.33301 0.25230 0.05387
 C909 C 0.38271 0.23504 0.08429
 C910 C 0.39812 0.22505 0.09214
 C911 C 0.41807 0.21498 0.10026
 N912 N 0.43754 0.22009 0.09031
 N913 N 0.45650 0.21236 0.09846
 C914 C 0.45680 0.19919 0.11690
 N915 N 0.43718 0.19386 0.12671
 N916 N 0.41813 0.20166 0.11856
 N917 N 0.62016 0.27667 0.92932
 C918 C 0.62386 0.25545 0.92399
 N919 N 0.64215 0.24533 0.93227
 N920 N 0.65624 0.25616 0.94557
 C921 C 0.65238 0.27739 0.95111
 N922 N 0.63416 0.28745 0.94262
 C923 C 0.60717 0.24350 0.91192
 C924 C 0.59177 0.23444 0.90295
 C925 C 0.57201 0.22482 0.89387
 N926 N 0.57275 0.20721 0.87996
 N927 N 0.55406 0.19793 0.87268
 C928 C 0.53400 0.20592 0.87909
 N929 N 0.53348 0.22365 0.89288
 N930 N 0.55209 0.23291 0.90011
 N931 N 0.35072 0.75966 0.94183
 C932 C 0.36998 0.75161 0.93350
 N933 N 0.37579 0.73073 0.93828
 N934 N 0.36294 0.71829 0.95117
 C935 C 0.34378 0.72627 0.95974
 N936 N 0.33778 0.74715 0.95471
 C937 C 0.38544 0.76531 0.92181
 C938 C 0.40020 0.77536 0.91292
 C939 C 0.41961 0.78529 0.90352
 N940 N 0.43967 0.77944 0.91168
 N941 N 0.45809 0.78699 0.90225
 C942 C 0.45720 0.80070 0.88427
 N943 N 0.43700 0.80680 0.87627
 N944 N 0.41849 0.79917 0.88570
 N945 N 0.74035 0.94003 0.37020
 C946 C 0.76224 0.93743 0.36610
 N947 N 0.77104 0.94627 0.34714
 N948 N 0.75831 0.95754 0.33285
 C949 C 0.73640 0.96038 0.33713
 N950 N 0.72767 0.95130 0.35599
 C951 C 0.77594 0.92739 0.38298
 C952 C 0.78610 0.91967 0.39859
 C953 C 0.79644 0.91132 0.41864
 N954 N 0.80735 0.89193 0.41861
 N955 N 0.81483 0.88338 0.43786
 C956 C 0.81157 0.89386 0.45782
 N957 N 0.80086 0.91340 0.45762
 N958 N 0.79345 0.92195 0.43842
 N959 N 0.26643 0.93310 0.62507
 C960 C 0.24537 0.92756 0.63033
 N961 N 0.23650 0.93492 0.64992
 N962 N 0.24837 0.94762 0.66371
 C963 C 0.26941 0.95341 0.65825
 N964 N 0.27823 0.94580 0.63876
 C965 C 0.23231 0.91606 0.61397
 C966 C 0.22281 0.90738 0.59848
 C967 C 0.21352 0.89827 0.57830
 N968 N 0.19779 0.88243 0.57890
 N969 N 0.19025 0.87360 0.55978
 C970 C 0.19824 0.88026 0.53947
 N971 N 0.21386 0.89622 0.53911
 N972 N 0.22134 0.90505 0.55813
 N973 N 0.24751 0.05591 0.35573
 C974 C 0.25503 0.06354 0.37581
 N975 N 0.27579 0.05831 0.38257
 N976 N 0.28863 0.04578 0.36975
 C977 C 0.28116 0.03797 0.34973
 N978 N 0.26040 0.04338 0.34284
 C979 C 0.24073 0.07507 0.39098
 C980 C 0.22948 0.08372 0.40517
 C981 C 0.21709 0.09263 0.42360
 N982 N 0.21393 0.08031 0.44227
 N983 N 0.20379 0.08864 0.46020
 C984 C 0.19645 0.10964 0.46021
 N985 N 0.19949 0.12192 0.44133
 N986 N 0.20970 0.11358 0.42335
 N987 N 0.71841 0.07149 0.62590
 C988 C 0.73902 0.07856 0.63120
 N989 N 0.74893 0.07092 0.65018
 N990 N 0.73850 0.05659 0.66341
 C991 C 0.71790 0.04935 0.65796
 N992 N 0.70803 0.05717 0.63905
 C993 C 0.75078 0.09207 0.61547
 C994 C 0.75982 0.10231 0.60075
 C995 C 0.76952 0.11290 0.58157
 N996 N 0.78981 0.12236 0.58273
 N997 N 0.79947 0.13008 0.56414
 C998 C 0.78922 0.12847 0.54376
 N999 N 0.76879 0.11925 0.54286
 N1000 N 0.75914 0.11162 0.56138
 N1001 N 0.93273 0.62399 0.26652
 C1002 C 0.92696 0.62883 0.24503
 N1003 N 0.93318 0.64832 0.23612
 N1004 N 0.94498 0.66246 0.24838
 C1005 C 0.95097 0.65749 0.26987
 N1006 N 0.94453 0.63805 0.27872
 C1007 C 0.91623 0.61243 0.23161
 C1008 C 0.90816 0.59716 0.22172
 C1009 C 0.89967 0.57744 0.21186
 N1010 N 0.88192 0.57762 0.19781
 N1011 N 0.87340 0.55885 0.19023
 C1012 C 0.88227 0.53932 0.19653
 N1013 N 0.90016 0.53937 0.21041
 N1014 N 0.90869 0.55805 0.21791
 N1015 N 0.93772 0.37369 0.72065
 C1016 C 0.93423 0.37045 0.74293
 N1017 N 0.94433 0.35336 0.75335
 N1018 N 0.95764 0.34004 0.74180
 C1019 C 0.96137 0.34349 0.71950
 N1020 N 0.95104 0.36045 0.70914
 C1021 C 0.92229 0.38663 0.75553
 C1022 C 0.91331 0.40160 0.76508
 C1023 C 0.90401 0.42080 0.77527
 N1024 N 0.88625 0.41963 0.78918
 N1025 N 0.87794 0.43776 0.79840
 C1026 C 0.88704 0.45768 0.79399
 N1027 N 0.90478 0.45864 0.78000
 N1028 N 0.91308 0.44057 0.77081
 N1029 N 0.06139 0.64997 0.76297
 C1030 C 0.06869 0.63072 0.75435
 N1031 N 0.06326 0.62531 0.73290
 N1032 N 0.05076 0.63858 0.72047
 C1033 C 0.04325 0.65777 0.72904
 N1034 N 0.04890 0.66331 0.75048
 C1035 C 0.08016 0.61505 0.76807
 C1036 C 0.08886 0.60031 0.77828
 C1037 C 0.09801 0.58106 0.78851
 N1038 N 0.08885 0.56140 0.78370
 N1039 N 0.09801 0.54306 0.79130
 C1040 C 0.11671 0.54360 0.80402
 N1041 N 0.12572 0.56340 0.80913
 N1042 N 0.11655 0.58184 0.80145
 N1043 N 0.06064 0.36060 0.24848
 C1044 C 0.06815 0.37919 0.25841
 N1045 N 0.06252 0.38341 0.28006
 N1046 N 0.04970 0.36960 0.29143
 C1047 C 0.04200 0.35106 0.28156
 N1048 N 0.04781 0.34671 0.25990
 C1049 C 0.07998 0.39543 0.24579
 C1050 C 0.08886 0.41036 0.23607
 C1051 C 0.09799 0.42946 0.22553
 N1052 N 0.11558 0.42819 0.21142
 N1053 N 0.12363 0.44622 0.20173
 C1054 C 0.11438 0.46612 0.20585
 N1055 N 0.09681 0.46718 0.22006
 N1056 N 0.08879 0.44923 0.22972
   
