data_POSCAR
  _audit_creation_date              2014-09-24
  _audit_creation_method            'ToBaCCo'
  _symmetry_space_group_name_H-M    'P1'
  _symmetry_Int_Tables_number       1
  _symmetry_cell_setting            triclinic
  loop_
  _symmetry_equiv_pos_as_xyz
 x,y,z
_cell_length_a 58.9611
_cell_length_b 33.9685
_cell_length_c 20.2387
_cell_angle_alpha 89.966800
_cell_angle_beta 89.877100
_cell_angle_gamma 90.180200
loop_
  _atom_site_label
  _atom_site_type_symbol
  _atom_site_fract_x
  _atom_site_fract_y
  _atom_site_fract_z
C1 C 0.74884 0.24676 0.47008
 C2 C 0.74889 0.24768 0.53746
 C3 C 0.72956 0.26398 0.57584
 C4 C 0.76833 0.23230 0.57611
 C5 C 0.76705 0.22663 0.43223
 C6 C 0.73072 0.26605 0.43094
 C7 C 0.73349 0.29337 0.62324
 C8 C 0.71544 0.30945 0.65893
 C9 C 0.69324 0.29607 0.64800
 C10 C 0.68927 0.26618 0.60163
 C11 C 0.70734 0.25008 0.56600
 C12 C 0.79045 0.24640 0.56499
 C13 C 0.80873 0.23045 0.59965
 C14 C 0.80504 0.20061 0.64624
 C15 C 0.78297 0.18721 0.65880
 C16 C 0.76468 0.20309 0.62412
 C17 C 0.77222 0.18686 0.44402
 C18 C 0.79000 0.16874 0.40993
 C19 C 0.80261 0.19003 0.36325
 C20 C 0.79716 0.22934 0.35010
 C21 C 0.77941 0.24751 0.38421
 C22 C 0.71868 0.24427 0.38354
 C23 C 0.70127 0.26186 0.34735
 C24 C 0.69586 0.30148 0.35779
 C25 C 0.70810 0.32359 0.40402
 C26 C 0.72553 0.30604 0.44020
 H27 H 0.75051 0.30429 0.63183
 H28 H 0.71884 0.33247 0.69468
 H29 H 0.67223 0.25532 0.59273
 H30 H 0.70402 0.22688 0.53061
 H31 H 0.79355 0.26941 0.52900
 H32 H 0.82573 0.24115 0.58975
 H33 H 0.74774 0.19202 0.63363
 H34 H 0.76262 0.17005 0.48000
 H35 H 0.79399 0.13825 0.42026
 H36 H 0.80677 0.24606 0.31397
 H37 H 0.77560 0.27811 0.37417
 H38 H 0.72252 0.21349 0.37540
 H39 H 0.69194 0.24452 0.31161
 H40 H 0.70412 0.35431 0.41227
 H41 H 0.73492 0.32354 0.47559
 H42 H 0.77993 0.16418 0.69485
 C43 C 0.24956 0.74733 0.46566
 C44 C 0.24943 0.74669 0.53305
 C45 C 0.23130 0.76626 0.57197
 C46 C 0.26755 0.72658 0.57111
 C47 C 0.26896 0.73152 0.42715
 C48 C 0.23034 0.76370 0.42709
 C49 C 0.22622 0.80625 0.56221
 C50 C 0.20875 0.82403 0.59806
 C51 C 0.19636 0.80216 0.64448
 C52 C 0.20168 0.76256 0.65546
 C53 C 0.21912 0.74474 0.61960
 C54 C 0.27996 0.74760 0.61864
 C55 C 0.29768 0.72947 0.65276
 C56 C 0.30304 0.69006 0.64012
 C57 C 0.29036 0.66863 0.59399
 C58 C 0.27261 0.68671 0.55989
 C59 C 0.26523 0.70215 0.37959
 C60 C 0.28346 0.68594 0.34491
 C61 C 0.30557 0.69918 0.35704
 C62 C 0.30936 0.72916 0.40321
 C63 C 0.29113 0.74543 0.43787
 C64 C 0.20806 0.75007 0.43706
 C65 C 0.19012 0.76619 0.40106
 C66 C 0.19430 0.79575 0.35430
 C67 C 0.21652 0.80888 0.34324
 C68 C 0.23446 0.79283 0.37924
 H69 H 0.23571 0.82356 0.52663
 H70 H 0.20484 0.85474 0.58940
 H71 H 0.19223 0.74540 0.69136
 H72 H 0.22288 0.71396 0.62813
 H73 H 0.27624 0.77828 0.62822
 H74 H 0.30735 0.74630 0.68846
 H75 H 0.26297 0.66980 0.52429
 H76 H 0.24825 0.69122 0.37040
 H77 H 0.28035 0.66282 0.30919
 H78 H 0.32639 0.73974 0.41276
 H79 H 0.29429 0.76857 0.47350
 H80 H 0.20458 0.72707 0.47279
 H81 H 0.17300 0.75569 0.40981
 H82 H 0.21995 0.83168 0.30710
 H83 H 0.25152 0.80355 0.37052
 H84 H 0.29428 0.63806 0.58405
 C85 C 0.24895 0.25355 -0.53559
 C86 C 0.24866 0.25401 -0.46820
 C87 C 0.23025 0.23477 -0.42954
 C88 C 0.26688 0.27366 -0.42973
 C89 C 0.26850 0.26947 -0.57373
 C90 C 0.22975 0.23730 -0.57449
 C91 C 0.21831 0.25649 -0.38189
 C92 C 0.20079 0.23895 -0.34564
 C93 C 0.19513 0.19937 -0.35626
 C94 C 0.20725 0.17732 -0.40293
 C95 C 0.22480 0.19487 -0.43915
 C96 C 0.27224 0.31353 -0.44026
 C97 C 0.29005 0.33119 -0.40562
 C98 C 0.30249 0.30931 -0.35967
 C99 C 0.29684 0.26988 -0.34775
 C100 C 0.27906 0.25217 -0.38240
 C101 C 0.29060 0.25554 -0.56281
 C102 C 0.30897 0.27200 -0.59694
 C103 C 0.30540 0.30224 -0.64286
 C104 C 0.28333 0.31549 -0.65520
 C105 C 0.26497 0.29907 -0.62102
 C106 C 0.23380 0.20793 -0.62180
 C107 C 0.21583 0.19165 -0.65756
 C108 C 0.19363 0.20481 -0.64679
 C109 C 0.18954 0.23473 -0.60067
 C110 C 0.20753 0.25106 -0.56495
 H111 H 0.22236 0.28720 -0.37346
 H112 H 0.19161 0.25635 -0.30962
 H113 H 0.20313 0.14662 -0.41147
 H114 H 0.23411 0.17739 -0.47472
 H115 H 0.26277 0.33077 -0.47572
 H116 H 0.29422 0.36177 -0.41499
 H117 H 0.27509 0.22148 -0.37336
 H118 H 0.29362 0.23224 -0.52739
 H119 H 0.32593 0.26131 -0.58710
 H120 H 0.28029 0.33878 -0.69069
 H121 H 0.24805 0.31003 -0.63036
 H122 H 0.25083 0.19712 -0.63014
 H123 H 0.21925 0.16858 -0.69316
 H124 H 0.17247 0.24534 -0.59201
 H125 H 0.20412 0.27423 -0.52960
 H126 H 0.30632 0.25272 -0.31218
 C127 C -0.25085 0.75280 -0.46913
 C128 C -0.25061 0.75193 -0.53651
 C129 C -0.23117 0.76786 -0.57499
 C130 C -0.26975 0.73522 -0.57520
 C131 C -0.26915 0.73344 -0.43026
 C132 C -0.23269 0.77296 -0.43106
 C133 C -0.23488 0.79709 -0.62277
 C134 C -0.21664 0.81336 -0.65762
 C135 C -0.19452 0.80031 -0.64542
 C136 C -0.19077 0.77045 -0.59893
 C137 C -0.20903 0.75414 -0.56413
 C138 C -0.29203 0.74876 -0.56603
 C139 C -0.30988 0.73244 -0.60234
 C140 C -0.30560 0.70270 -0.64867
 C141 C -0.28336 0.68962 -0.65884
 C142 C -0.26553 0.70590 -0.62251
 C143 C -0.27438 0.69343 -0.43951
 C144 C -0.29207 0.67588 -0.40393
 C145 C -0.30456 0.69803 -0.35826
 C146 C -0.29906 0.73769 -0.34776
 C147 C -0.28139 0.75525 -0.38337
 C148 C -0.22036 0.75196 -0.38344
 C149 C -0.20253 0.77008 -0.34951
 C150 C -0.19698 0.80945 -0.36243
 C151 C -0.20959 0.83086 -0.40860
 C152 C -0.22745 0.81279 -0.44251
 H153 H -0.25185 0.80785 -0.63206
 H154 H -0.21979 0.83637 -0.69355
 H155 H -0.17377 0.75994 -0.58920
 H156 H -0.20589 0.73111 -0.52832
 H157 H -0.29558 0.77190 -0.53073
 H158 H -0.32699 0.74298 -0.59413
 H159 H -0.24845 0.69526 -0.63059
 H160 H -0.26485 0.67591 -0.47452
 H161 H -0.29605 0.64511 -0.41234
 H162 H -0.30852 0.75517 -0.31246
 H163 H -0.27751 0.78606 -0.37527
 H164 H -0.22422 0.72131 -0.37368
 H165 H -0.19293 0.75327 -0.31376
 H166 H -0.20552 0.86140 -0.41875
 H167 H -0.23702 0.82969 -0.47821
 H168 H -0.27978 0.66670 -0.69459
 O169 O -0.03148 0.93063 0.11958
 O170 O -0.05625 0.96638 0.05663
 C171 C -0.05184 0.94075 0.10229
 O172 O 0.03197 1.07127 0.11780
 O173 O 0.05701 1.03425 0.05739
 C174 C 0.05242 1.06125 0.10067
 O175 O -0.03194 1.06680 0.12343
 O176 O -0.05662 1.03184 0.05839
 C177 C -0.05230 1.05652 0.10558
 O178 O 0.03200 0.92721 0.11288
 O179 O 0.05701 0.96597 0.05506
 C180 C 0.05244 0.93795 0.09662
 Zr181 Zr 0.00026 0.94965 0.08200
 O182 O 0.00235 0.94618 0.18622
 O183 O -0.00087 0.88772 0.07260
 Zr184 Zr 0.00014 1.04921 0.08590
 O185 O 0.00255 1.04775 0.19024
 O186 O -0.00249 1.11133 0.08816
 O187 O -0.02002 0.99913 0.09670
 O188 O 0.01985 0.99939 0.09642
 O189 O 0.03248 0.92987 -0.11540
 O190 O 0.05722 0.96750 -0.05477
 C191 C 0.05286 0.94039 -0.09808
 O192 O -0.03097 1.07035 -0.11878
 O193 O -0.05599 1.03421 -0.05657
 C194 C -0.05140 1.06001 -0.10193
 O195 O 0.03256 1.07377 -0.11175
 O196 O 0.05721 1.03566 -0.05237
 C197 C 0.05290 1.06328 -0.09472
 O198 O -0.03144 0.93371 -0.12282
 O199 O -0.05636 0.96866 -0.05862
 C200 C -0.05187 0.94390 -0.10554
 Zr201 Zr 0.00049 0.95176 -0.08458
 O202 O 0.00328 0.95312 -0.18887
 O203 O -0.00170 0.88958 -0.08634
 Zr204 Zr 0.00063 1.05132 -0.08104
 O205 O 0.00338 1.05301 -0.18531
 O206 O -0.00187 1.11346 -0.07757
 Zr207 Zr -0.03340 1.00036 0.00019
 Zr208 Zr 0.03407 1.00071 0.00107
 O209 O 0.02027 1.00174 -0.09470
 O210 O -0.01963 1.00166 -0.09605
 O211 O 0.02063 0.94323 -0.00127
 O212 O -0.01934 1.05737 0.00240
 O213 O -0.01945 0.94346 -0.00166
 O214 O 0.02061 1.05812 0.00298
 H215 H 0.03004 0.99890 0.13530
 H216 H -0.02965 1.08035 0.00315
 H217 H 0.03063 1.00221 -0.13331
 H218 H -0.02979 0.92041 -0.00258
 H219 H 0.01008 1.12210 0.06117
 H220 H 0.01122 1.12342 -0.05198
 H221 H -0.00883 1.03618 -0.20339
 H222 H -0.00946 0.96903 -0.20586
 H223 H 0.00898 0.87957 -0.05269
 H224 H -0.00082 0.87711 0.11822
 H225 H -0.00872 0.96513 0.20440
 H226 H -0.01038 1.03202 0.20699
 O227 O 0.46892 0.43215 0.12237
 O228 O 0.44405 0.46735 0.05884
 C229 C 0.44852 0.44228 0.10531
 O230 O 0.53301 0.57234 0.11090
 O231 O 0.55774 0.53389 0.05190
 C232 C 0.55337 0.56172 0.09392
 O233 O 0.46925 0.56844 0.11947
 O234 O 0.44419 0.53249 0.05726
 C235 C 0.44879 0.55811 0.10282
 O236 O 0.53251 0.42838 0.11554
 O237 O 0.55730 0.46570 0.05453
 C238 C 0.55289 0.43870 0.09801
 Zr239 Zr 0.50075 0.45035 0.08382
 O240 O 0.50346 0.45118 0.18810
 O241 O 0.49807 0.38818 0.08463
 Zr242 Zr 0.50102 0.55001 0.08118
 O243 O 0.50354 0.55303 0.18535
 O244 O 0.49996 0.61199 0.07283
 O245 O 0.48076 0.50031 0.09613
 O246 O 0.52058 0.50027 0.09417
 O247 O 0.53223 0.42660 -0.11454
 O248 O 0.55734 0.46473 -0.05620
 C249 C 0.55270 0.43702 -0.09819
 O250 O 0.46855 0.56659 -0.12244
 O251 O 0.44388 0.53133 -0.05755
 C252 C 0.44820 0.55625 -0.10449
 O253 O 0.53223 0.57101 -0.11788
 O254 O 0.55714 0.53321 -0.05883
 C255 C 0.55264 0.56051 -0.10158
 O256 O 0.46832 0.43073 -0.11965
 O257 O 0.44375 0.46663 -0.05581
 C258 C 0.44800 0.44123 -0.10196
 Zr259 Zr 0.50043 0.44891 -0.08308
 O260 O 0.50280 0.44749 -0.18742
 O261 O 0.49763 0.38677 -0.08052
 Zr262 Zr 0.50055 0.54854 -0.08537
 O263 O 0.50286 0.54767 -0.18977
 O264 O 0.49844 0.61072 -0.08601
 Zr265 Zr 0.46705 0.49944 0.00009
 Zr266 Zr 0.53448 0.49936 -0.00166
 O267 O 0.52016 0.49863 -0.09685
 O268 O 0.48030 0.49862 -0.09672
 O269 O 0.52084 0.44190 0.00009
 O270 O 0.48100 0.55646 -0.00167
 O271 O 0.48086 0.44243 0.00101
 O272 O 0.52110 0.55679 -0.00276
 H273 H 0.53086 0.50069 0.13283
 H274 H 0.47067 0.57941 -0.00200
 H275 H 0.53034 0.49834 -0.13587
 H276 H 0.47044 0.41948 0.00171
 H277 H 0.50013 0.62227 0.11864
 H278 H 0.50931 0.62060 -0.05268
 H279 H 0.49012 0.53149 -0.20641
 H280 H 0.49058 0.46435 -0.20501
 H281 H 0.51067 0.37665 -0.05507
 H282 H 0.51082 0.37771 0.05817
 H283 H 0.49084 0.46734 0.20534
 H284 H 0.49229 0.53434 0.20372
 C285 C 0.41454 0.37716 0.22178
 C286 C 0.39229 0.38741 0.20527
 C287 C 0.38841 0.41590 0.15667
 C288 C 0.40668 0.43395 0.12441
 C289 C 0.32335 0.31922 0.32542
 C290 C 0.43285 0.39516 0.18963
 C291 C 0.37346 0.36859 0.23802
 C292 C 0.35768 0.35286 0.26544
 C293 C 0.33918 0.33458 0.29766
 C294 C 0.42914 0.42370 0.14037
 H295 H 0.41774 0.35516 0.25938
 H296 H 0.37126 0.42410 0.14355
 H297 H 0.40318 0.45581 0.08686
 H298 H 0.44988 0.38655 0.20318
 C299 C -0.08584 0.87425 0.21628
 C300 C -0.10806 0.88495 0.20045
 C301 C -0.11195 0.91400 0.15279
 C302 C -0.09367 0.93224 0.12090
 C303 C -0.17670 0.81712 0.32215
 C304 C -0.06753 0.89245 0.18451
 C305 C -0.12686 0.86619 0.23329
 C306 C -0.14258 0.85052 0.26103
 C307 C -0.16097 0.83236 0.29381
 C308 C -0.07123 0.92163 0.13634
 H309 H -0.08265 0.85182 0.25317
 H310 H -0.12910 0.92254 0.14026
 H311 H -0.09715 0.95462 0.08419
 H312 H -0.05050 0.88355 0.19761
 C313 C 0.61346 0.59031 0.14156
 C314 C 0.60947 0.61984 0.18834
 C315 C 0.58720 0.63088 0.20325
 C316 C 0.56897 0.61229 0.17203
 C317 C 0.67699 0.68623 0.31674
 C318 C 0.59525 0.57164 0.11021
 C319 C 0.62813 0.63828 0.22221
 C320 C 0.64360 0.65361 0.25142
 C321 C 0.66162 0.67134 0.28640
 C322 C 0.57276 0.58227 0.12538
 H323 H 0.63064 0.58151 0.12970
 H324 H 0.58392 0.65368 0.23942
 H325 H 0.55192 0.62126 0.18492
 H326 H 0.59879 0.54869 0.07456
 C327 C 0.08591 1.12960 0.21234
 C328 C 0.10823 1.11992 0.19550
 C329 C 0.11234 1.09132 0.14724
 C330 C 0.09421 1.07232 0.11610
 C331 C 0.17606 1.18807 0.31972
 C332 C 0.06775 1.11067 0.18131
 C333 C 0.12686 1.13894 0.22852
 C334 C 0.14240 1.15470 0.25677
 C335 C 0.16055 1.17287 0.29047
 C336 C 0.07168 1.08169 0.13294
 H337 H 0.08254 1.15167 0.24969
 H338 H 0.12957 1.08357 0.13388
 H339 H 0.09787 1.05022 0.07906
 H340 H 0.05065 1.11866 0.19548
 C341 C 0.58609 0.36790 -0.20866
 C342 C 0.60843 0.37842 -0.19333
 C343 C 0.61259 0.40764 -0.14613
 C344 C 0.59449 0.42650 -0.11470
 C345 C 0.67632 0.31176 -0.31960
 C346 C 0.56796 0.38669 -0.17733
 C347 C 0.62704 0.35972 -0.22697
 C348 C 0.64258 0.34430 -0.25574
 C349 C 0.66076 0.32658 -0.28998
 C350 C 0.57193 0.41638 -0.13018
 H351 H 0.58268 0.34534 -0.24517
 H352 H 0.62982 0.41604 -0.13392
 H353 H 0.59818 0.44916 -0.07864
 H354 H 0.55085 0.37813 -0.19046
 C355 C 0.08721 0.87411 -0.21090
 C356 C 0.10940 0.88479 -0.19407
 C357 C 0.11312 0.91313 -0.14512
 C358 C 0.09475 0.93097 -0.11343
 C359 C 0.17797 0.82014 -0.31985
 C360 C 0.06879 0.89189 -0.17931
 C361 C 0.12831 0.86706 -0.22770
 C362 C 0.14407 0.85230 -0.25633
 C363 C 0.16242 0.83501 -0.29037
 C364 C 0.07234 0.92069 -0.13038
 H365 H 0.08414 0.85220 -0.24876
 H366 H 0.13023 0.92162 -0.13171
 H367 H 0.09813 0.95298 -0.07599
 H368 H 0.05181 0.88326 -0.19359
 C369 C 0.38783 0.57956 -0.15564
 C370 C 0.39138 0.60768 -0.20514
 C371 C 0.41350 0.61896 -0.22198
 C372 C 0.43203 0.60225 -0.18938
 C373 C 0.32180 0.67188 -0.32633
 C374 C 0.40630 0.56282 -0.12296
 C375 C 0.37231 0.62506 -0.23840
 C376 C 0.35633 0.63967 -0.26610
 C377 C 0.33765 0.65693 -0.29852
 C378 C 0.42865 0.57401 -0.13937
 H379 H 0.37078 0.57059 -0.14223
 H380 H 0.41644 0.64072 -0.26024
 H381 H 0.44896 0.61153 -0.20331
 H382 H 0.40304 0.54112 -0.08486
 C383 C -0.08511 1.12653 -0.21568
 C384 C -0.10738 1.11573 -0.19979
 C385 C -0.11137 1.08658 -0.15227
 C386 C -0.09318 1.06835 -0.12055
 C387 C -0.17608 1.18312 -0.31990
 C388 C -0.06687 1.10835 -0.18406
 C389 C -0.12613 1.13448 -0.23234
 C390 C -0.14186 1.15006 -0.25971
 C391 C -0.16030 1.16806 -0.29199
 C392 C -0.07069 1.07907 -0.13600
 H393 H -0.08183 1.14904 -0.25247
 H394 H -0.12856 1.07796 -0.13969
 H395 H -0.09676 1.04591 -0.08392
 H396 H -0.04980 1.11732 -0.19718
 C397 C 0.61280 0.58830 -0.14999
 C398 C 0.60899 0.61665 -0.19883
 C399 C 0.58677 0.62718 -0.21520
 C400 C 0.56840 0.60923 -0.18322
 C401 C 0.67784 0.68124 -0.32475
 C402 C 0.59449 0.57030 -0.11794
 C403 C 0.62787 0.63453 -0.23276
 C404 C 0.64368 0.64930 -0.26147
 C405 C 0.66214 0.66650 -0.29542
 C406 C 0.57204 0.58041 -0.13439
 H407 H 0.62993 0.57993 -0.13693
 H408 H 0.58363 0.64910 -0.25298
 H409 H 0.55138 0.61773 -0.19712
 H410 H 0.59794 0.54830 -0.08057
 C411 C 0.08727 1.13031 -0.20705
 C412 C 0.10944 1.11909 -0.19160
 C413 C 0.11318 1.09040 -0.14323
 C414 C 0.09481 1.07264 -0.11096
 C415 C 0.17776 1.18255 -0.32168
 C416 C 0.06886 1.11262 -0.17488
 C417 C 0.12832 1.13649 -0.22632
 C418 C 0.14402 1.15095 -0.25599
 C419 C 0.16228 1.16792 -0.29125
 C420 C 0.07241 1.08335 -0.12675
 H421 H 0.08418 1.15250 -0.24443
 H422 H 0.13028 1.08148 -0.13087
 H423 H 0.09819 1.05026 -0.07418
 H424 H 0.05188 1.12159 -0.18829
 C425 C 0.41312 0.37813 -0.21872
 C426 C 0.39105 0.38975 -0.20244
 C427 C 0.38759 0.41803 -0.15329
 C428 C 0.40610 0.43469 -0.12049
 C429 C 0.32130 0.32703 -0.32556
 C430 C 0.43169 0.39476 -0.18601
 C431 C 0.37195 0.37269 -0.23613
 C432 C 0.35593 0.35841 -0.26427
 C433 C 0.33720 0.34159 -0.29724
 C434 C 0.42840 0.42325 -0.13647
 H435 H 0.41598 0.35625 -0.25674
 H436 H 0.37058 0.42725 -0.14033
 H437 H 0.40292 0.45659 -0.08275
 H438 H 0.44859 0.38530 -0.19959
 C439 C -0.11208 0.92020 -0.15841
 C440 C -0.10842 0.89211 -0.20778
 C441 C -0.08626 0.88103 -0.22409
 C442 C -0.06781 0.89789 -0.19106
 C443 C -0.17811 0.82761 -0.32910
 C444 C -0.09369 0.93708 -0.12530
 C445 C -0.12744 0.87456 -0.24132
 C446 C -0.14344 0.85986 -0.26908
 C447 C -0.16217 0.84256 -0.30142
 C448 C -0.07131 0.92607 -0.14112
 H449 H -0.12916 0.92901 -0.14539
 H450 H -0.08324 0.85931 -0.26225
 H451 H -0.05084 0.88875 -0.20452
 H452 H -0.09705 0.95872 -0.08728
 C453 C 0.41518 0.62431 0.21757
 C454 C 0.39290 0.61358 0.20202
 C455 C 0.38886 0.58453 0.15447
 C456 C 0.40703 0.56635 0.12235
 C457 C 0.32439 0.68144 0.32305
 C458 C 0.43339 0.60618 0.18556
 C459 C 0.37418 0.63237 0.23487
 C460 C 0.35849 0.64804 0.26246
 C461 C 0.34012 0.66620 0.29498
 C462 C 0.42953 0.57702 0.13743
 H463 H 0.41848 0.64675 0.25438
 H464 H 0.37167 0.57596 0.14214
 H465 H 0.40342 0.54399 0.08567
 H466 H 0.45046 0.61513 0.19839
 C467 C -0.11266 1.07976 0.15759
 C468 C -0.10910 1.10762 0.20740
 C469 C -0.08697 1.11872 0.22419
 C470 C -0.06846 1.10211 0.19124
 C471 C -0.17864 1.17179 0.32957
 C472 C -0.09420 1.06311 0.12455
 C473 C -0.12816 1.12495 0.24097
 C474 C -0.14413 1.13955 0.26892
 C475 C -0.16279 1.15682 0.30159
 C476 C -0.07185 1.07413 0.14089
 H477 H -0.12972 1.07093 0.14421
 H478 H -0.08403 1.14028 0.26269
 H479 H -0.05152 1.11126 0.20512
 H480 H -0.09747 1.04161 0.08620
 C481 C 0.58703 0.37260 0.21135
 C482 C 0.60924 0.38327 0.19456
 C483 C 0.61306 0.41151 0.14540
 C484 C 0.59475 0.42927 0.11349
 C485 C 0.67754 0.31923 0.32172
 C486 C 0.56867 0.39030 0.17954
 C487 C 0.62809 0.36568 0.22851
 C488 C 0.64379 0.35105 0.25746
 C489 C 0.66206 0.33394 0.29190
 C490 C 0.57231 0.41901 0.13043
 H491 H 0.58389 0.35077 0.24937
 H492 H 0.63020 0.41999 0.13202
 H493 H 0.59819 0.45121 0.07591
 H494 H 0.55165 0.38169 0.19381
 C495 C 0.08589 0.86865 0.20628
 C496 C 0.10822 0.87949 0.19116
 C497 C 0.11236 0.90895 0.14425
 C498 C 0.09424 0.92774 0.11294
 C499 C 0.17581 0.81300 0.31821
 C500 C 0.06775 0.88738 0.17509
 C501 C 0.12682 0.86091 0.22485
 C502 C 0.14230 0.84554 0.25377
 C503 C 0.16037 0.82783 0.28829
 C504 C 0.07170 0.91732 0.12828
 H505 H 0.08249 0.84591 0.24257
 H506 H 0.12958 0.91759 0.13220
 H507 H 0.09792 0.95061 0.07713
 H508 H 0.05065 0.87857 0.18810
   
