data_POSCAR
  _audit_creation_date              2014-09-24
  _audit_creation_method            'ToBaCCo'
  _symmetry_space_group_name_H-M    'P1'
  _symmetry_Int_Tables_number       1
  _symmetry_cell_setting            triclinic
  loop_
  _symmetry_equiv_pos_as_xyz
 x,y,z
_cell_length_a 20.7243
_cell_length_b 21.4382
_cell_length_c 18.6242
_cell_angle_alpha 90.648200
_cell_angle_beta 92.411900
_cell_angle_gamma 87.953100
loop_
  _atom_site_label
  _atom_site_type_symbol
  _atom_site_fract_x
  _atom_site_fract_y
  _atom_site_fract_z
N1 N 0.15520 1.28662 0.09246
 N2 N 0.09618 1.28253 0.11510
 C3 C 0.06291 1.33666 0.10227
 C4 C 0.10339 1.37563 0.06888
 C5 C 0.16167 1.34341 0.06408
 H6 H 0.01493 1.34810 0.12031
 H7 H 0.20630 1.36118 0.04586
 Cu8 Cu 0.07125 1.21044 0.16789
 Cu9 Cu 0.22068 1.22013 0.10717
 Cu10 Cu 0.18312 1.10061 0.22000
 N11 N 0.05614 1.15323 0.24469
 N12 N 0.09997 1.11042 0.26558
 C13 C 0.07811 1.07931 0.32174
 C14 C 0.01780 1.10458 0.33554
 C15 C 0.00486 1.15124 0.28656
 H16 H 0.10450 1.04249 0.35087
 H17 H -0.03745 1.18225 0.28266
 N18 N 0.26486 1.10132 0.16888
 N19 N 0.27993 1.14825 0.12803
 C20 C 0.33663 1.13440 0.09783
 C21 C 0.35777 1.07597 0.12067
 C22 C 0.31134 1.05584 0.16506
 H23 H 0.35831 1.16232 0.05795
 H24 H 0.30978 1.01038 0.18937
 H25 H 0.16101 1.14614 0.12420
 H26 H 0.18416 1.19521 0.20438
 N27 N 0.84678 0.68537 0.13206
 N28 N 0.87856 0.67768 0.19420
 C29 C 0.92443 0.63222 0.18781
 C30 C 0.92131 0.61093 0.11791
 C31 C 0.87174 0.64525 0.08345
 H32 H 0.96114 0.62003 0.22875
 H33 H 0.85771 0.64394 0.02687
 Cu34 Cu 0.86856 0.73737 0.27179
 Cu35 Cu 0.77939 0.75066 0.11814
 Cu36 Cu 0.76364 0.85886 0.25709
 N37 N 0.88061 0.81271 0.32842
 N38 N 0.84077 0.86166 0.32098
 C39 C 0.86545 0.91016 0.35843
 C40 C 0.92318 0.88938 0.39087
 C41 C 0.93200 0.82795 0.37069
 H42 H 0.84515 0.95737 0.35805
 H43 H 0.97460 0.79820 0.38089
 N44 N 0.70572 0.85916 0.17043
 N45 N 0.71340 0.81950 0.11625
 C46 C 0.67076 0.83516 0.06232
 C47 C 0.63449 0.88625 0.08437
 C48 C 0.65758 0.90082 0.15284
 H49 H 0.66757 0.81246 0.01023
 H50 H 0.64319 0.94057 0.18547
 H51 H 0.82252 0.81369 0.18774
 H52 H 0.75903 0.76502 0.22430
 N53 N 0.87946 1.28070 -0.07536
 N54 N 0.91057 1.28566 -0.13518
 C55 C 0.94841 1.33568 -0.12969
 C56 C 0.94011 1.36226 -0.06251
 C57 C 0.89680 1.32641 -0.02932
 H58 H 0.97912 1.35129 -0.17095
 H59 H 0.87816 1.33372 0.02362
 Cu60 Cu 0.89800 1.22494 -0.21310
 Cu61 Cu 0.81633 1.21720 -0.06209
 Cu62 Cu 0.75572 1.15535 -0.22200
 N63 N 0.88053 1.15831 -0.28307
 N64 N 0.82330 1.13332 -0.28816
 C65 C 0.82365 1.08759 -0.33824
 C66 C 0.88428 1.08397 -0.36529
 C67 C 0.91994 1.12859 -0.32926
 H68 H 0.78422 1.05690 -0.35035
 H69 H 0.97075 1.13701 -0.33391
 N70 N 0.70901 1.15416 -0.13251
 N71 N 0.73383 1.17458 -0.07047
 C72 C 0.69502 1.15961 -0.01754
 C73 C 0.64382 1.12825 -0.04827
 C74 C 0.65380 1.12533 -0.12104
 H75 H 0.70500 1.16804 0.03914
 H76 H 0.62595 1.10020 -0.16159
 H77 H 0.82993 1.15604 -0.14857
 H78 H 0.78978 1.23411 -0.16537
 N79 N 0.16676 0.71815 -0.15848
 N80 N 0.12304 0.72762 -0.21092
 C81 C 0.07947 0.68226 -0.20981
 C82 C 0.09812 0.64225 -0.15443
 C83 C 0.15344 0.66636 -0.12294
 H84 H 0.03550 0.68097 -0.24310
 H85 H 0.17843 0.65088 -0.07381
 Cu86 Cu 0.12428 0.80268 -0.26934
 Cu87 Cu 0.22861 0.78044 -0.12910
 Cu88 Cu 0.25710 0.88784 -0.25998
 N89 N 0.12636 0.88355 -0.31645
 N90 N 0.17932 0.91595 -0.31395
 C91 C 0.16897 0.96881 -0.35178
 C92 C 0.10609 0.96920 -0.37812
 C93 C 0.07989 0.91493 -0.35567
 H94 H 0.20422 1.00406 -0.35863
 H95 H 0.03135 0.89946 -0.36697
 N96 N 0.31589 0.87316 -0.17570
 N97 N 0.30308 0.83468 -0.12368
 C98 C 0.34482 0.84364 -0.06741
 C99 C 0.38561 0.88966 -0.08546
 C100 C 0.36642 0.90752 -0.15429
 H101 H 0.34270 0.82174 -0.01559
 H102 H 0.38331 0.94673 -0.18339
 H103 H 0.19572 0.85900 -0.18666
 H104 H 0.23989 0.79452 -0.23421
 Si105 Si 0.50563 1.01325 0.00455
 Si106 Si 0.03638 0.51714 0.98385
 Si107 Si 0.98324 0.02031 0.49501
 N108 N 0.09453 0.43588 1.06230
 N109 N 0.08743 0.49233 1.05814
 N110 N -0.03030 0.57217 1.08590
 N111 N -0.02901 0.56333 1.01844
 N112 N -0.03162 0.41654 0.96850
 N113 N 0.00510 0.45141 0.93520
 N114 N 0.05912 0.59735 0.87764
 N115 N 0.08295 0.56599 0.93048
 N116 N 0.98129 0.09000 0.38790
 N117 N 0.94641 0.07707 0.43621
 N118 N 1.07712 0.01231 0.58192
 N119 N 1.04976 0.05198 0.54422
 N120 N 0.96829 -0.07588 0.41904
 N121 N 1.01190 -0.04499 0.44462
 N122 N 0.90646 0.03890 0.59377
 N123 N 0.92600 -0.00406 0.55621
 N124 N 0.40803 1.03813 0.09040
 N125 N 0.44912 1.06206 0.05113
 N126 N 0.59831 1.09425 -0.01040
 N127 N 0.55832 1.05979 -0.04396
 N128 N 0.42604 0.92343 -0.03614
 N129 N 0.46119 0.96598 -0.05809
 N130 N 0.59057 0.92274 0.03969
 N131 N 0.55401 0.96549 0.06532
   
