data_POSCAR
  _audit_creation_date              2014-09-24
  _audit_creation_method            'ToBaCCo'
  _symmetry_space_group_name_H-M    'P1'
  _symmetry_Int_Tables_number       1
  _symmetry_cell_setting            triclinic
  loop_
  _symmetry_equiv_pos_as_xyz
 x,y,z
_cell_length_a 26.2844
_cell_length_b 26.5235
_cell_length_c 26.6398
_cell_angle_alpha 87.933300
_cell_angle_beta 89.459800
_cell_angle_gamma 89.105300
loop_
  _atom_site_label
  _atom_site_type_symbol
  _atom_site_fract_x
  _atom_site_fract_y
  _atom_site_fract_z
C1 C -0.05802 0.51785 0.28309
 C2 C -0.01358 0.52523 0.25422
 C3 C -0.00168 0.57376 0.23499
 C4 C -0.03324 0.61536 0.24614
 C5 C -0.07499 0.60771 0.27842
 C6 C -0.08911 0.55931 0.29551
 C7 C 0.02173 0.48239 0.24641
 C8 C 0.00623 0.44035 0.22038
 C9 C 0.03870 0.39816 0.21577
 C10 C 0.08730 0.39882 0.23771
 C11 C 0.10313 0.44057 0.26419
 C12 C 0.07003 0.48239 0.26814
 H13 H -0.06664 0.48010 0.29695
 H14 H 0.03215 0.57836 0.21197
 H15 H -0.03142 0.44040 0.20409
 H16 H 0.08040 0.51422 0.28999
 H17 H -0.09910 0.63977 0.28763
 H18 H 0.11353 0.36736 0.23406
 C19 C -0.07260 0.48495 0.72306
 C20 C -0.02728 0.48049 0.75023
 C21 C -0.01232 0.43364 0.77189
 C22 C -0.04243 0.39084 0.76611
 C23 C -0.08701 0.39582 0.73772
 C24 C -0.10258 0.44244 0.71649
 C25 C 0.00616 0.52426 0.75314
 C26 C -0.01186 0.56908 0.77369
 C27 C 0.01961 0.61130 0.77581
 C28 C 0.06964 0.60767 0.75639
 C29 C 0.08754 0.56338 0.73469
 C30 C 0.05584 0.52139 0.73404
 H31 H -0.08277 0.52098 0.70527
 H32 H 0.02326 0.43115 0.79193
 H33 H -0.05046 0.57072 0.78840
 H34 H 0.06931 0.48629 0.71883
 H35 H -0.11026 0.36304 0.73227
 H36 H 0.09570 0.63859 0.75825
 C37 C 0.26180 -0.06324 0.50112
 C38 C 0.24053 -0.01455 0.50295
 C39 C 0.21166 -0.00080 0.54485
 C40 C 0.20407 -0.03521 0.58532
 C41 C 0.22612 -0.08388 0.58339
 C42 C 0.25522 -0.09847 0.54150
 C43 C 0.25019 0.02245 0.46142
 C44 C 0.23294 0.01337 0.41287
 C45 C 0.24455 0.04702 0.37234
 C46 C 0.27468 0.08899 0.38146
 C47 C 0.29140 0.09890 0.42983
 C48 C 0.27874 0.06554 0.46994
 H49 H 0.28514 -0.07200 0.46888
 H50 H 0.19515 0.03687 0.54589
 H51 H 0.21091 -0.02005 0.40768
 H52 H 0.29274 0.07157 0.50731
 H53 H 0.21976 -0.11108 0.61400
 H54 H 0.28460 0.11503 0.35069
 C55 C 0.73593 -0.07394 0.49308
 C56 C 0.76048 -0.02733 0.48921
 C57 C 0.79306 -0.01666 0.44845
 C58 C 0.80163 -0.05193 0.41136
 C59 C 0.77700 -0.09866 0.41568
 C60 C 0.74346 -0.10997 0.45591
 C61 C 0.75209 0.01082 0.52757
 C62 C 0.76214 -0.00113 0.57809
 C63 C 0.75843 0.03581 0.61464
 C64 C 0.74135 0.08497 0.59966
 C65 C 0.72993 0.09695 0.54892
 C66 C 0.73647 0.05984 0.51323
 H67 H 0.71000 -0.08052 0.52424
 H68 H 0.81198 0.01939 0.44578
 H69 H 0.77520 -0.03907 0.58842
 H70 H 0.72871 0.06892 0.47400
 H71 H 0.78407 -0.12694 0.38814
 H72 H 0.73810 0.11434 0.62645
 C73 C 0.48369 0.26182 1.08543
 C74 C 0.47427 0.24246 1.03806
 C75 C 0.42654 0.22171 1.02820
 C76 C 0.38815 0.21965 1.06558
 C77 C 0.39872 0.23893 1.11270
 C78 C 0.44550 0.26096 1.12282
 C79 C 0.51201 0.24919 0.99679
 C80 C 0.56129 0.22763 1.00005
 C81 C 0.59658 0.23452 0.95998
 C82 C 0.58128 0.26354 0.91722
 C83 C 0.53244 0.28539 0.91395
 C84 C 0.49821 0.27826 0.95392
 H85 H 0.51963 0.27978 1.09164
 H86 H 0.41997 0.20832 0.99104
 H87 H 0.57103 0.20551 1.03353
 H88 H 0.46060 0.29555 0.95177
 H89 H 0.36931 0.23856 1.14158
 H90 H 0.60803 0.27017 0.88656
 C91 C 0.52842 0.69712 1.05079
 C92 C 0.52751 0.73188 1.01010
 C93 C 0.56592 0.76766 1.00457
 C94 C 0.60588 0.76921 1.03936
 C95 C 0.60541 0.73464 1.08122
 C96 C 0.56656 0.69875 1.08705
 C97 C 0.48354 0.73400 0.97617
 C98 C 0.44158 0.76461 0.98808
 C99 C 0.39792 0.76630 0.95801
 C100 C 0.39779 0.73722 0.91467
 C101 C 0.43984 0.70679 0.90187
 C102 C 0.48270 0.70498 0.93323
 H103 H 0.49807 0.67005 1.05530
 H104 H 0.56430 0.79455 0.97294
 H105 H 0.44290 0.78660 1.02160
 H106 H 0.51499 0.68070 0.92513
 H107 H 0.63453 0.73505 1.10950
 H108 H 0.36576 0.73837 0.88959
 B109 B 1.00337 1.04859 0.03426
 B110 B 0.99902 1.05906 -0.02888
 B111 B 1.05224 1.03195 -0.00458
 B112 B 1.03520 0.99288 0.04413
 B113 B 0.97091 0.99585 0.04985
 B114 B 0.94818 1.03672 0.00466
 B115 B 0.99403 0.95715 -0.04147
 B116 B 0.99947 0.94690 0.02137
 B117 B 0.94555 0.97338 -0.00308
 B118 B 0.96275 1.01265 -0.05194
 B119 B 1.02714 1.00948 -0.05742
 B120 B 1.04915 0.96905 -0.01240
 B121 B 0.55164 0.49454 0.47229
 B122 B 0.54386 0.49768 0.53767
 B123 B 0.52919 0.55139 0.50031
 B124 B 0.49899 0.52804 0.44627
 B125 B 0.49795 0.46356 0.45186
 B126 B 0.52553 0.44510 0.50803
 B127 B 0.43725 0.50056 0.53028
 B128 B 0.44472 0.49804 0.46486
 B129 B 0.46171 0.44687 0.50247
 B130 B 0.48979 0.46807 0.55521
 B131 B 0.49099 0.53228 0.55144
 B132 B 0.46156 0.55351 0.49452
 C133 C 1.02075 1.35479 0.18724
 C134 C 1.04243 1.30629 0.19118
 C135 C 1.02616 1.26357 0.16104
 C136 C 1.06087 1.22379 0.15352
 C137 C 1.04758 1.18272 0.12532
 C138 C 0.99860 1.17993 0.10472
 C139 C 0.96377 1.21964 0.11233
 C140 C 0.97721 1.26097 0.14039
 C141 C 0.98376 1.13772 0.07313
 C142 C 1.00983 1.09151 0.07374
 H143 H 1.07396 1.29901 0.21627
 H144 H 1.09888 1.22491 0.16881
 H145 H 1.07634 1.15404 0.11894
 H146 H 0.92593 1.21858 0.09666
 H147 H 0.94891 1.29022 0.14632
 H148 H 0.95165 1.14386 0.04860
 H149 H 0.98901 1.36173 0.16225
 H150 H 1.03699 1.08396 0.10306
 C151 C 0.97244 0.66411 0.22474
 C152 C 1.00406 0.67762 0.18423
 C153 C 0.99622 0.72669 0.15696
 C154 C 1.03781 0.75225 0.13568
 C155 C 1.03075 0.79920 0.11087
 C156 C 0.98158 0.82082 0.10604
 C157 C 0.94005 0.79484 0.12683
 C158 C 0.94712 0.74809 0.15154
 C159 C 0.97219 0.87066 0.08094
 C160 C 1.00592 0.89222 0.04628
 H161 H 1.03370 0.65246 0.17122
 H162 H 1.07590 0.73642 0.13927
 H163 H 1.06404 0.81868 0.09671
 H164 H 0.90189 0.81058 0.12369
 H165 H 0.91389 0.72857 0.16594
 H166 H 0.93670 0.88993 0.08879
 H167 H 0.94688 0.69331 0.23806
 H168 H 1.03934 0.87104 0.03520
 C169 C 0.97022 1.34285 -0.21361
 C170 C 1.00919 1.33182 -0.17948
 C171 C 1.01656 1.27968 -0.15979
 C172 C 1.02552 1.27043 -0.10850
 C173 C 1.02617 1.22100 -0.08846
 C174 C 1.01822 1.18030 -0.11979
 C175 C 1.01275 1.18955 -0.17155
 C176 C 1.01179 1.23881 -0.19143
 C177 C 1.01591 1.12785 -0.10017
 C178 C 0.99964 1.11501 -0.05164
 H179 H 1.03022 1.36138 -0.16252
 H180 H 1.03011 1.30150 -0.08370
 H181 H 1.03268 1.21485 -0.04864
 H182 H 1.00775 1.15865 -0.19648
 H183 H 1.00643 1.24499 -0.23145
 H184 H 1.02351 1.09887 -0.12647
 H185 H 0.94627 1.31184 -0.22350
 H186 H 0.98696 1.14471 -0.02787
 C187 C 1.00059 0.65472 -0.20119
 C188 C 1.02576 0.70082 -0.20130
 C189 C 1.01035 0.74292 -0.16937
 C190 C 1.02990 0.79092 -0.18077
 C191 C 1.02035 0.83076 -0.14908
 C192 C 0.99071 0.82334 -0.10528
 C193 C 0.97086 0.77547 -0.09401
 C194 C 0.98054 0.73555 -0.12565
 C195 C 0.98367 0.86317 -0.06852
 C196 C 0.98968 0.91415 -0.08092
 H197 H 1.05792 0.70746 -0.22606
 H198 H 1.05374 0.79735 -0.21372
 H199 H 1.03802 0.86655 -0.15815
 H200 H 0.94873 0.76865 -0.05998
 H201 H 0.96623 0.69878 -0.11454
 H202 H 0.97389 0.85119 -0.03068
 H203 H 0.96387 0.65232 -0.18255
 H204 H 0.99258 0.92555 -0.11999
 C205 C 1.22694 1.04165 0.32311
 C206 C 1.19329 1.00497 0.30754
 C207 C 1.17157 1.00665 0.25630
 C208 C 1.15359 0.96220 0.23599
 C209 C 1.13242 0.96308 0.18789
 C210 C 1.12868 1.00869 0.15948
 C211 C 1.14637 1.05301 0.17988
 C212 C 1.16693 1.05224 0.22789
 C213 C 1.10627 1.01245 0.10892
 C214 C 1.06887 0.98043 0.09244
 H215 H 1.18229 0.97402 0.33257
 H216 H 1.15631 0.92668 0.25725
 H217 H 1.11977 0.92806 0.17295
 H218 H 1.14331 1.08872 0.15896
 H219 H 1.17799 1.08780 0.24276
 H220 H 1.11535 1.04574 0.08649
 H221 H 1.23988 1.06913 0.29500
 H222 H 1.05817 0.94805 0.11574
 C223 C 1.17151 0.98030 -0.37196
 C224 C 1.17509 0.95828 -0.32364
 C225 C 1.14143 0.97235 -0.28124
 C226 C 1.15769 0.96130 -0.23200
 C227 C 1.12651 0.97233 -0.19095
 C228 C 1.07811 0.99463 -0.19832
 C229 C 1.06140 1.00491 -0.24753
 C230 C 1.09274 0.99410 -0.28866
 C231 C 1.04319 1.00400 -0.15565
 C232 C 1.06073 1.01242 -0.10747
 H233 H 1.20541 0.93120 -0.31560
 H234 H 1.19458 0.94370 -0.22524
 H235 H 1.13989 0.96191 -0.15365
 H236 H 1.02384 1.02107 -0.25415
 H237 H 1.07809 1.00161 -0.32602
 H238 H 1.00282 1.00330 -0.16262
 H239 H 1.14556 1.01188 -0.37849
 H240 H 1.10105 1.01766 -0.10251
 C241 C 0.83672 0.96156 0.36917
 C242 C 0.83851 0.93636 0.32399
 C243 C 0.87120 0.95102 0.28037
 C244 C 0.86225 0.92833 0.23462
 C245 C 0.89071 0.94140 0.19186
 C246 C 0.92872 0.97805 0.19368
 C247 C 0.93917 0.99943 0.23976
 C248 C 0.91073 0.98615 0.28279
 C249 C 0.95862 0.99338 0.14850
 C250 C 0.93963 0.98843 0.10037
 H251 H 0.81241 0.90604 0.31853
 H252 H 0.83285 0.90042 0.23178
 H253 H 0.88294 0.92218 0.15773
 H254 H 0.96906 1.02686 0.24234
 H255 H 0.92028 1.00343 0.31748
 H256 H 0.99545 1.00992 0.15354
 H257 H 0.85965 0.99459 0.37322
 H258 H 0.90045 0.97782 0.09620
 C259 C 0.77422 1.02197 -0.33622
 C260 C 0.77782 1.05449 -0.29614
 C261 C 0.80299 1.03904 -0.24824
 C262 C 0.82611 1.07612 -0.22040
 C263 C 0.85360 1.06287 -0.17717
 C264 C 0.85852 1.01200 -0.16065
 C265 C 0.83302 0.97521 -0.18685
 C266 C 0.80552 0.98847 -0.23022
 C267 C 0.88952 0.99636 -0.11638
 C268 C 0.92918 1.02550 -0.09970
 H269 H 0.76727 1.09384 -0.30099
 H270 H 0.82393 1.11544 -0.23281
 H271 H 0.87078 1.09275 -0.15696
 H272 H 0.83516 0.93594 -0.17426
 H273 H 0.78637 0.95900 -0.24930
 H274 H 0.88266 0.95986 -0.09846
 H275 H 0.78784 0.98357 -0.32992
 H276 H 0.93909 1.05945 -0.12080
 C277 C 1.33881 1.20127 0.05797
 C278 C 1.32051 1.18201 0.01343
 C279 C 1.26717 1.16521 0.00883
 C280 C 1.25623 1.12715 -0.02447
 C281 C 1.20675 1.10907 -0.02819
 C282 C 1.16702 1.12895 0.00129
 C283 C 1.17739 1.16880 0.03262
 C284 C 1.22691 1.18675 0.03648
 C285 C 1.11489 1.10853 0.00071
 C286 C 1.10605 1.05802 -0.00850
 H287 H 1.34574 1.17618 -0.01812
 H288 H 1.28626 1.11071 -0.04704
 H289 H 1.19983 1.07970 -0.05432
 H290 H 1.14728 1.18543 0.05494
 H291 H 1.23336 1.21768 0.06091
 H292 H 1.08359 1.13257 0.01218
 H293 H 1.31263 1.20199 0.08959
 H294 H 1.13798 1.03372 -0.01717
 C295 C 0.64648 1.21393 -0.04018
 C296 C 0.66918 1.18399 -0.00181
 C297 C 0.72165 1.16245 -0.00677
 C298 C 0.74972 1.14968 0.03663
 C299 C 0.79931 1.12966 0.03303
 C300 C 0.82172 1.12163 -0.01428
 C301 C 0.79355 1.13406 -0.05753
 C302 C 0.74403 1.15361 -0.05396
 C303 C 0.87384 1.10027 -0.02053
 C304 C 0.89775 1.06867 0.01537
 H305 H 0.64956 1.17740 0.03358
 H306 H 0.73345 1.15580 0.07346
 H307 H 0.82006 1.12141 0.06728
 H308 H 0.80960 1.12782 -0.09441
 H309 H 0.72333 1.16078 -0.08842
 H310 H 0.89215 1.10655 -0.05663
 H311 H 0.66967 1.22271 -0.07302
 H312 H 0.87948 1.06182 0.05139
 C313 C 1.35654 0.79720 -0.02756
 C314 C 1.30889 0.79905 -0.05077
 C315 C 1.26659 0.83272 -0.03513
 C316 C 1.21669 0.81997 -0.04722
 C317 C 1.17568 0.85120 -0.03453
 C318 C 1.18386 0.89644 -0.01009
 C319 C 1.23363 0.90901 0.00257
 C320 C 1.27474 0.87773 -0.01015
 C321 C 1.14136 0.93082 0.00295
 C322 C 1.09656 0.93376 -0.02455
 H323 H 1.30021 0.77311 -0.07966
 H324 H 1.20934 0.78548 -0.06633
 H325 H 1.13770 0.83938 -0.04343
 H326 H 1.24081 0.94367 0.02145
 H327 H 1.31269 0.88963 -0.00136
 H328 H 1.14701 0.95633 0.03298
 H329 H 1.36148 0.81987 0.00498
 H330 H 1.09326 0.91139 -0.05746
 C331 C 0.64393 0.80567 0.03067
 C332 C 0.68871 0.80952 0.05834
 C333 C 0.72833 0.84732 0.04546
 C334 C 0.77915 0.83570 0.05726
 C335 C 0.81770 0.86990 0.04527
 C336 C 0.80629 0.91695 0.02154
 C337 C 0.75526 0.92938 0.01124
 C338 C 0.71662 0.89485 0.02277
 C339 C 0.84669 0.95410 0.00949
 C340 C 0.89658 0.93883 -0.00099
 H341 H 0.69783 0.78173 0.08763
 H342 H 0.78919 0.79978 0.07548
 H343 H 0.85627 0.85961 0.05546
 H344 H 0.74534 0.96577 -0.00604
 H345 H 0.67767 0.90586 0.01467
 H346 H 0.83647 0.99365 0.00855
 H347 H 0.63923 0.83146 -0.00147
 H348 H 0.90392 0.89905 -0.00511
 C349 C 0.86503 0.55538 0.32257
 C350 C 0.83927 0.51092 0.33496
 C351 C 0.78664 0.51334 0.35492
 C352 C 0.76928 0.47571 0.38891
 C353 C 0.72048 0.47937 0.41003
 C354 C 0.68845 0.52077 0.39713
 C355 C 0.70511 0.55728 0.36185
 C356 C 0.75340 0.55330 0.34039
 C357 C 0.63807 0.52758 0.42035
 C358 C 0.61254 0.48774 0.44312
 H359 H 0.85680 0.47426 0.33022
 H360 H 0.79394 0.44425 0.40007
 H361 H 0.70834 0.45058 0.43722
 H362 H 0.68062 0.58891 0.35073
 H363 H 0.76449 0.58166 0.31236
 H364 H 0.61984 0.56452 0.41790
 H365 H 0.84633 0.59043 0.33238
 H366 H 0.58189 0.49460 0.45653
 C367 C 0.15273 0.43769 0.29033
 C368 C 0.17839 0.48002 0.30607
 C369 C 0.22421 0.47677 0.33808
 C370 C 0.25644 0.51841 0.33909
 C371 C 0.29872 0.51766 0.37060
 C372 C 0.30945 0.47514 0.40203
 C373 C 0.27682 0.43381 0.40157
 C374 C 0.23470 0.43446 0.36990
 C375 C 0.35294 0.47311 0.43694
 C376 C 0.39687 0.50117 0.42915
 H377 H 0.16524 0.51725 0.29370
 H378 H 0.24866 0.55182 0.31566
 H379 H 0.32194 0.55093 0.37107
 H380 H 0.28388 0.40090 0.42594
 H381 H 0.20984 0.40233 0.37156
 H382 H 0.35053 0.44707 0.46883
 H383 H 0.16973 0.40065 0.29696
 H384 H 0.39956 0.52685 0.39686
 C385 C 0.85110 0.44399 0.68567
 C386 C 0.82327 0.48778 0.67347
 C387 C 0.77652 0.48598 0.64348
 C388 C 0.73710 0.52095 0.65166
 C389 C 0.69138 0.51810 0.62568
 C390 C 0.68456 0.48007 0.59089
 C391 C 0.72488 0.44649 0.58134
 C392 C 0.77047 0.44947 0.60714
 C393 C 0.63718 0.47462 0.56252
 C394 C 0.59170 0.49984 0.57279
 H395 H 0.83312 0.52315 0.68963
 H396 H 0.74136 0.54995 0.67887
 H397 H 0.66208 0.54593 0.63301
 H398 H 0.72104 0.41759 0.55393
 H399 H 0.80093 0.42323 0.59834
 H400 H 0.63863 0.44917 0.53190
 H401 H 0.83664 0.40814 0.67440
 H402 H 0.58897 0.52475 0.60383
 C403 C 0.13962 0.56258 0.71336
 C404 C 0.15478 0.53114 0.67491
 C405 C 0.20541 0.53408 0.65066
 C406 C 0.22556 0.49125 0.62784
 C407 C 0.27305 0.49287 0.60399
 C408 C 0.30092 0.53773 0.60210
 C409 C 0.28042 0.58079 0.62411
 C410 C 0.23306 0.57912 0.64812
 C411 C 0.35108 0.54088 0.57733
 C412 C 0.37615 0.49867 0.55982
 H413 H 0.12899 0.50326 0.66168
 H414 H 0.20464 0.45635 0.62879
 H415 H 0.28771 0.45911 0.58692
 H416 H 0.30104 0.61588 0.62261
 H417 H 0.21792 0.61344 0.66359
 H418 H 0.36952 0.57711 0.57425
 H419 H 0.16604 0.58980 0.72680
 H420 H 0.40691 0.50397 0.54583
 C421 C 0.56425 0.66260 0.13068
 C422 C 0.57500 0.67625 0.17957
 C423 C 0.56487 0.64250 0.22408
 C424 C 0.55084 0.66378 0.26975
 C425 C 0.53994 0.63302 0.31217
 C426 C 0.54369 0.58017 0.30998
 C427 C 0.55916 0.55892 0.26470
 C428 C 0.56925 0.58968 0.22202
 C429 C 0.53479 0.54658 0.35479
 C430 C 0.50266 0.55943 0.39451
 H431 H 0.58584 0.71474 0.18586
 H432 H 0.54778 0.70437 0.27249
 H433 H 0.52959 0.65086 0.34672
 H434 H 0.56322 0.51836 0.26229
 H435 H 0.58128 0.57208 0.18777
 H436 H 0.55440 0.51042 0.35627
 H437 H 0.54708 0.62641 0.12506
 H438 H 0.48008 0.59380 0.39145
 C439 C 0.43632 0.67673 0.85615
 C440 C 0.47830 0.65855 0.82936
 C441 C 0.47320 0.63179 0.78169
 C442 C 0.51401 0.63210 0.74736
 C443 C 0.51029 0.60811 0.70166
 C444 C 0.46546 0.58315 0.68933
 C445 C 0.42523 0.58154 0.72427
 C446 C 0.42894 0.60554 0.76996
 C447 C 0.46038 0.55607 0.64200
 C448 C 0.49059 0.56570 0.59954
 H449 H 0.51621 0.66771 0.84122
 H450 H 0.54886 0.65122 0.75581
 H451 H 0.54303 0.60846 0.67677
 H452 H 0.39074 0.56161 0.71618
 H453 H 0.39736 0.60266 0.79615
 H454 H 0.43277 0.52633 0.64140
 H455 H 0.39875 0.67225 0.84083
 H456 H 0.51673 0.59672 0.59901
 C457 C 0.44978 0.28682 0.17102
 C458 C 0.49299 0.31064 0.18810
 C459 C 0.48984 0.34321 0.23206
 C460 C 0.53109 0.34569 0.26488
 C461 C 0.52793 0.37588 0.30694
 C462 C 0.48358 0.40461 0.31631
 C463 C 0.44319 0.40341 0.28247
 C464 C 0.44613 0.37296 0.24091
 C465 C 0.47841 0.43759 0.35965
 C466 C 0.50399 0.42885 0.40477
 H467 H 0.52961 0.30481 0.17024
 H468 H 0.56550 0.32383 0.25826
 H469 H 0.56050 0.37729 0.33135
 H470 H 0.40902 0.42589 0.28841
 H471 H 0.41436 0.37335 0.21533
 H472 H 0.45231 0.46919 0.35573
 H473 H 0.41560 0.28901 0.19396
 H474 H 0.52951 0.39676 0.40844
 C475 C 0.51749 0.31802 0.87021
 C476 C 0.53467 0.30908 0.82156
 C477 C 0.52423 0.34413 0.77836
 C478 C 0.52201 0.32514 0.72996
 C479 C 0.51545 0.35779 0.68805
 C480 C 0.51199 0.41017 0.69389
 C481 C 0.51453 0.42924 0.74219
 C482 C 0.52009 0.39653 0.78417
 C483 C 0.51032 0.44566 0.65006
 C484 C 0.48453 0.43551 0.60620
 H485 H 0.55544 0.27440 0.81455
 H486 H 0.52589 0.28497 0.72454
 H487 H 0.51512 0.34219 0.65105
 H488 H 0.51273 0.46958 0.74733
 H489 H 0.52306 0.41245 0.82086
 H490 H 0.52995 0.48080 0.65311
 H491 H 0.49078 0.34877 0.87627
 H492 H 0.46203 0.40174 0.60535
 C493 C 0.71747 0.84398 0.45584
 C494 C 0.68542 0.82529 0.49419
 C495 C 0.65512 0.77940 0.48803
 C496 C 0.64498 0.74730 0.52982
 C497 C 0.61648 0.70369 0.52459
 C498 C 0.59682 0.69208 0.47752
 C499 C 0.60590 0.72487 0.43607
 C500 C 0.63488 0.76802 0.44116
 C501 C 0.56665 0.64650 0.47040
 C502 C 0.56544 0.60685 0.50566
 H503 H 0.68391 0.84245 0.53036
 H504 H 0.65967 0.75567 0.56640
 H505 H 0.60959 0.67935 0.55739
 H506 H 0.59077 0.71692 0.39954
 H507 H 0.64066 0.79285 0.40853
 H508 H 0.54648 0.64321 0.43550
 H509 H 0.72269 0.82087 0.42338
 H510 H 0.54812 0.57938 0.49592
 C511 C 0.71289 0.14799 0.53093
 C512 C 0.68613 0.18189 0.56071
 C513 C 0.66466 0.23110 0.54162
 C514 C 0.64680 0.26561 0.57667
 C515 C 0.62409 0.31136 0.56086
 C516 C 0.61812 0.32349 0.50938
 C517 C 0.63708 0.28983 0.47419
 C518 C 0.65971 0.24389 0.48999
 C519 C 0.59237 0.37088 0.49186
 C520 C 0.55328 0.39246 0.51991
 H521 H 0.67932 0.17168 0.59986
 H522 H 0.65030 0.25709 0.61659
 H523 H 0.61152 0.33727 0.58908
 H524 H 0.63313 0.29851 0.43435
 H525 H 0.67190 0.21841 0.46140
 H526 H 0.60356 0.38787 0.45607
 H527 H 0.71965 0.15761 0.49172
 H528 H 0.53993 0.37169 0.55297
 C529 C 0.27832 0.85316 0.54261
 C530 C 0.30332 0.83139 0.50182
 C531 C 0.33327 0.78378 0.50704
 C532 C 0.33858 0.75262 0.46574
 C533 C 0.36844 0.70848 0.46915
 C534 C 0.39435 0.69535 0.51377
 C535 C 0.38947 0.72678 0.55483
 C536 C 0.35913 0.77046 0.55164
 C537 C 0.42705 0.64973 0.51875
 C538 C 0.42541 0.61066 0.48553
 H539 H 0.29964 0.84803 0.46438
 H540 H 0.31949 0.76244 0.43079
 H541 H 0.37180 0.68513 0.43673
 H542 H 0.40929 0.71755 0.58952
 H543 H 0.35712 0.79438 0.58369
 H544 H 0.45140 0.64587 0.55116
 H545 H 0.27625 0.83086 0.57745
 H546 H 0.44479 0.58283 0.49227
 C547 C 0.32381 0.14329 0.43597
 C548 C 0.32804 0.16878 0.48064
 C549 C 0.35906 0.21469 0.48347
 C550 C 0.34463 0.25242 0.51657
 C551 C 0.37200 0.29722 0.51798
 C552 C 0.41470 0.30480 0.48640
 C553 C 0.43013 0.26610 0.45482
 C554 C 0.40277 0.22156 0.45336
 C555 C 0.44471 0.35163 0.48501
 C556 C 0.42931 0.39675 0.50630
 H557 H 0.30477 0.15769 0.51280
 H558 H 0.31153 0.24762 0.54070
 H559 H 0.35951 0.32530 0.54395
 H560 H 0.46333 0.27051 0.43072
 H561 H 0.41617 0.19250 0.42876
 H562 H 0.48035 0.35042 0.46472
 H563 H 0.34223 0.15884 0.40247
 H564 H 0.39423 0.39859 0.52751
   
