data_POSCAR
  _audit_creation_date              2014-09-24
  _audit_creation_method            'ToBaCCo'
  _symmetry_space_group_name_H-M    'P1'
  _symmetry_Int_Tables_number       1
  _symmetry_cell_setting            triclinic
  loop_
  _symmetry_equiv_pos_as_xyz
 x,y,z
_cell_length_a 34.1334
_cell_length_b 34.0433
_cell_length_c 34.1383
_cell_angle_alpha 89.990400
_cell_angle_beta 90.001400
_cell_angle_gamma 90.003500
loop_
  _atom_site_label
  _atom_site_type_symbol
  _atom_site_fract_x
  _atom_site_fract_y
  _atom_site_fract_z
C1 C 0.60812 0.65828 0.60959
 C2 C 0.64167 0.64151 0.59281
 C3 C 0.65823 0.60823 0.60931
 C4 C 0.64141 0.59130 0.64276
 C5 C 0.60823 0.60787 0.65933
 C6 C 0.59151 0.64156 0.64267
 C7 C 0.58585 0.69057 0.59988
 N8 N 0.55641 0.69361 0.62631
 C9 C 0.55941 0.66395 0.65256
 C10 C 0.59831 0.58538 0.69137
 N11 N 0.62467 0.55580 0.69432
 C12 C 0.65118 0.55897 0.66496
 C13 C 0.69041 0.59846 0.58702
 N14 N 0.69351 0.62501 0.55765
 C15 C 0.66404 0.65145 0.56073
 H16 H 0.59060 0.71035 0.57550
 H17 H 0.53971 0.65910 0.67694
 H18 H 0.57384 0.59012 0.71101
 H19 H 0.67564 0.53929 0.66018
 H20 H 0.71009 0.57397 0.59175
 H21 H 0.65930 0.67598 0.54111
 C22 C 0.89289 0.34077 0.10892
 C23 C 0.85946 0.35772 0.09205
 C24 C 0.84304 0.39108 0.10852
 C25 C 0.85989 0.40792 0.14200
 C26 C 0.89293 0.39118 0.15865
 C27 C 0.90951 0.35740 0.14205
 C28 C 0.91503 0.30836 0.09927
 N29 N 0.94438 0.30521 0.12579
 C30 C 0.94149 0.33487 0.15206
 C31 C 0.90288 0.41362 0.19070
 N32 N 0.87667 0.44333 0.19362
 C33 C 0.85025 0.44027 0.16419
 C34 C 0.81096 0.40103 0.08615
 N35 N 0.80780 0.37451 0.05676
 C36 C 0.83712 0.34791 0.05992
 H37 H 0.91023 0.28860 0.07487
 H38 H 0.96114 0.33967 0.17651
 H39 H 0.92726 0.40875 0.21041
 H40 H 0.82592 0.46010 0.15939
 H41 H 0.79140 0.42562 0.09083
 H42 H 0.84177 0.32337 0.04030
 C43 C 0.39172 0.15794 -0.10931
 C44 C 0.35824 0.14107 -0.09247
 C45 C 0.34169 0.10780 -0.10901
 C46 C 0.35845 0.09098 -0.14254
 C47 C 0.39156 0.10765 -0.15916
 C48 C 0.40826 0.14133 -0.14246
 C49 C 0.41398 0.19025 -0.09961
 N50 N 0.44333 0.19339 -0.12612
 C51 C 0.44030 0.16378 -0.15241
 C52 C 0.40144 0.08526 -0.19126
 N53 N 0.37512 0.05564 -0.19422
 C54 C 0.34868 0.05869 -0.16480
 C55 C 0.30959 0.09792 -0.08665
 N56 N 0.30654 0.12438 -0.05720
 C57 C 0.33596 0.15088 -0.06031
 H58 H 0.40926 0.20997 -0.07518
 H59 H 0.45994 0.15901 -0.17685
 H60 H 0.42585 0.09010 -0.21095
 H61 H 0.32426 0.03895 -0.16000
 H62 H 0.28994 0.07341 -0.09137
 H63 H 0.34071 0.17538 -0.04066
 C64 C 0.10714 0.84187 0.39069
 C65 C 0.14060 0.85880 0.40750
 C66 C 0.15709 0.89210 0.39095
 C67 C 0.14026 0.90892 0.35745
 C68 C 0.10716 0.89220 0.34085
 C69 C 0.09053 0.85847 0.35754
 C70 C 0.08495 0.80953 0.40046
 N71 N 0.05558 0.80637 0.37398
 C72 C 0.05850 0.83597 0.34763
 C73 C 0.09721 0.91461 0.30877
 N74 N 0.12348 0.94427 0.30580
 C75 C 0.14996 0.94124 0.33520
 C76 C 0.18919 0.90201 0.41329
 N77 N 0.19230 0.87553 0.44273
 C78 C 0.16291 0.84900 0.43964
 H79 H 0.08976 0.78984 0.42493
 H80 H 0.03882 0.84073 0.32321
 H81 H 0.07280 0.90974 0.28908
 H82 H 0.17437 0.96100 0.33997
 H83 H 0.20881 0.92655 0.40856
 H84 H 0.15820 0.82449 0.45931
 N85 N 0.07792 0.18731 0.10918
 N86 N 0.06258 0.17125 0.14072
 C87 C 0.03082 0.19209 0.15159
 C88 C 0.02635 0.22264 0.12547
 C89 C 0.05655 0.21893 0.09897
 H90 H 0.01229 0.18561 0.17647
 H91 H 0.06259 0.23788 0.07427
 Cu92 Cu 0.08576 0.12457 0.16394
 Cu93 Cu 0.12444 0.16618 0.08366
 Cu94 Cu 0.16589 0.08262 0.12521
 N95 N 0.10884 0.07784 0.18714
 N96 N 0.14023 0.06157 0.17171
 C97 C 0.15027 0.02987 0.19305
 C98 C 0.12371 0.02623 0.22321
 C99 C 0.09778 0.05695 0.21880
 H100 H 0.17509 0.01102 0.18720
 H101 H 0.07284 0.06344 0.23724
 N102 N 0.18727 0.10853 0.07816
 N103 N 0.17151 0.14027 0.06237
 C104 C 0.19267 0.15072 0.03072
 C105 C 0.22295 0.12435 0.02664
 C106 C 0.21887 0.09800 0.05695
 H107 H 0.18662 0.17560 0.01198
 H108 H 0.23754 0.07307 0.06300
 H109 H 0.11665 0.10872 0.10166
 H110 H 0.14840 0.14031 0.13314
 N111 N 0.42090 0.81257 0.60935
 N112 N 0.43620 0.82877 0.64083
 C113 C 0.46791 0.80793 0.65188
 C114 C 0.47244 0.77730 0.62589
 C115 C 0.44231 0.78093 0.59930
 H116 H 0.48631 0.81446 0.67683
 H117 H 0.43647 0.76201 0.57453
 Cu118 Cu 0.41299 0.87541 0.66398
 Cu119 Cu 0.37440 0.83365 0.58370
 Cu120 Cu 0.33279 0.91723 0.62523
 N121 N 0.38979 0.92206 0.68715
 N122 N 0.35834 0.93826 0.67179
 C123 C 0.34822 0.96988 0.69321
 C124 C 0.37475 0.97348 0.72340
 C125 C 0.40075 0.94286 0.71891
 H126 H 0.32348 0.98882 0.68729
 H127 H 0.42564 0.93631 0.73738
 N128 N 0.31153 0.89133 0.57811
 N129 N 0.32733 0.85959 0.56233
 C130 C 0.30620 0.84915 0.53065
 C131 C 0.27592 0.87553 0.52653
 C132 C 0.27994 0.90185 0.55687
 H133 H 0.31230 0.82428 0.51192
 H134 H 0.26124 0.92675 0.56290
 H135 H 0.38204 0.89125 0.60138
 H136 H 0.35044 0.85968 0.63287
 N137 N 0.92195 0.68860 0.39100
 N138 N 0.93741 0.67236 0.35963
 C139 C 0.96895 0.69342 0.34848
 C140 C 0.97325 0.72416 0.37438
 C141 C 0.94317 0.72039 0.40100
 H142 H 0.98736 0.68701 0.32350
 H143 H 0.93729 0.73920 0.42584
 Cu144 Cu 0.91438 0.62557 0.33652
 Cu145 Cu 0.87558 0.66737 0.41674
 Cu146 Cu 0.83429 0.58365 0.37537
 N147 N 0.89130 0.57878 0.31345
 N148 N 0.85983 0.56262 0.32880
 C149 C 0.84972 0.53096 0.30746
 C150 C 0.87620 0.52735 0.27723
 C151 C 0.90221 0.55800 0.28165
 H152 H 0.82512 0.51190 0.31355
 H153 H 0.92702 0.56460 0.26309
 N154 N 0.81297 0.60947 0.42247
 N155 N 0.82867 0.64127 0.43820
 C156 C 0.80749 0.65171 0.46985
 C157 C 0.77729 0.62524 0.47399
 C158 C 0.78140 0.59889 0.44370
 H159 H 0.81348 0.67666 0.48851
 H160 H 0.76276 0.57393 0.43769
 H161 H 0.88373 0.60972 0.39926
 H162 H 0.85203 0.64120 0.36759
 N163 N 0.57924 0.31200 -0.10999
 N164 N 0.56360 0.32849 -0.14116
 C165 C 0.53167 0.30786 -0.15195
 C166 C 0.52737 0.27703 -0.12614
 C167 C 0.55783 0.28037 -0.09989
 H168 H 0.51297 0.31463 -0.17662
 H169 H 0.56391 0.26124 -0.07534
 Cu170 Cu 0.58675 0.37525 -0.16422
 Cu171 Cu 0.62592 0.33290 -0.08454
 Cu172 Cu 0.66707 0.41700 -0.12546
 N173 N 0.60991 0.42199 -0.18728
 N174 N 0.64135 0.43819 -0.17187
 C175 C 0.65151 0.46980 -0.19328
 C176 C 0.62500 0.47344 -0.22348
 C177 C 0.59898 0.44283 -0.21903
 H178 H 0.67634 0.48864 -0.18743
 H179 H 0.57413 0.43627 -0.23757
 N180 N 0.68853 0.39080 -0.07857
 N181 N 0.67302 0.35874 -0.06316
 C182 C 0.69423 0.34813 -0.03158
 C183 C 0.72430 0.37470 -0.02719
 C184 C 0.72002 0.40135 -0.05721
 H185 H 0.68828 0.32306 -0.01305
 H186 H 0.73850 0.42650 -0.06296
 H187 H 0.61798 0.39074 -0.10164
 H188 H 0.64958 0.35966 -0.13360
 C189 C -0.02830 0.27754 0.12588
 C190 C -0.00343 0.25241 0.12582
 C191 C 0.52740 0.72271 0.62637
 C192 C 0.50238 0.74768 0.62630
 C193 C 1.02813 0.77883 0.37397
 C194 C 1.00312 0.75384 0.37403
 C195 C 0.47233 0.22251 -0.12629
 C196 C 0.49737 0.24747 -0.12636
 C197 C 0.12342 -0.02824 0.27829
 C198 C 0.12343 -0.00332 0.25321
 C199 C 0.62463 0.52817 -0.27832
 C200 C 0.62468 0.50311 -0.25337
 C201 C 0.37515 1.02808 0.77834
 C202 C 0.37509 1.00309 0.75333
 C203 C 0.87673 0.47252 0.22253
 C204 C 0.87662 0.49761 0.24743
 C205 C 0.27757 0.12434 -0.02813
 C206 C 0.25265 0.12433 -0.00313
 C207 C 0.72257 0.62509 0.52867
 C208 C 0.74755 0.62517 0.50373
 C209 C 0.77885 0.37460 0.02767
 C210 C 0.75395 0.37466 0.00264
 C211 C 0.22129 0.87556 0.47177
 C212 C 0.24623 0.87556 0.49676
   
