data_POSCAR
  _audit_creation_date              2014-09-24
  _audit_creation_method            'ToBaCCo'
  _symmetry_space_group_name_H-M    'P1'
  _symmetry_Int_Tables_number       1
  _symmetry_cell_setting            triclinic
  loop_
  _symmetry_equiv_pos_as_xyz
 x,y,z
_cell_length_a 57.5556
_cell_length_b 57.3359
_cell_length_c 57.5411
_cell_angle_alpha 89.916200
_cell_angle_beta 90.000800
_cell_angle_gamma 90.067500
loop_
  _atom_site_label
  _atom_site_type_symbol
  _atom_site_fract_x
  _atom_site_fract_y
  _atom_site_fract_z
N1 N 0.59734 0.66206 0.61579
 N2 N 0.58824 0.65250 0.63450
 C3 C 0.56938 0.66484 0.64092
 C4 C 0.56670 0.68297 0.62538
 C5 C 0.58463 0.68079 0.60967
 H6 H 0.55839 0.66099 0.65568
 H7 H 0.58816 0.69199 0.59494
 Cu8 Cu 0.60203 0.62478 0.64835
 Cu9 Cu 0.62494 0.64953 0.60067
 Cu10 Cu 0.64954 0.60005 0.62535
 N11 N 0.61583 0.59705 0.66219
 N12 N 0.63446 0.58745 0.65303
 C13 C 0.64048 0.56862 0.66568
 C14 C 0.62476 0.56642 0.68361
 C15 C 0.60932 0.58461 0.68102
 H16 H 0.65517 0.55742 0.66213
 H17 H 0.59453 0.58841 0.69198
 N18 N 0.66222 0.61540 0.59738
 N19 N 0.65286 0.63423 0.58799
 C20 C 0.66542 0.64048 0.56921
 C21 C 0.68340 0.62485 0.56679
 C22 C 0.68098 0.60920 0.58480
 H23 H 0.66180 0.65525 0.55809
 H24 H 0.69207 0.59443 0.58842
 H25 H 0.62026 0.61543 0.61124
 H26 H 0.63905 0.63418 0.62986
 N27 N 0.90313 0.33731 0.11558
 N28 N 0.91223 0.34686 0.13427
 C29 C 0.93110 0.33453 0.14073
 C30 C 0.93373 0.31643 0.12522
 C31 C 0.91582 0.31858 0.10949
 H32 H 0.94208 0.33839 0.15549
 H33 H 0.91227 0.30740 0.09478
 Cu34 Cu 0.89846 0.37455 0.14806
 Cu35 Cu 0.87553 0.34985 0.10046
 Cu36 Cu 0.85095 0.39930 0.12506
 N37 N 0.88469 0.40225 0.16183
 N38 N 0.86606 0.41185 0.15267
 C39 C 0.86006 0.43065 0.16530
 C40 C 0.87578 0.43285 0.18322
 C41 C 0.89120 0.41466 0.18063
 H42 H 0.84538 0.44186 0.16174
 H43 H 0.90600 0.41085 0.19158
 N44 N 0.83824 0.38398 0.09715
 N45 N 0.84760 0.36516 0.08779
 C46 C 0.83502 0.35892 0.06905
 C47 C 0.81703 0.37455 0.06663
 C48 C 0.81947 0.39018 0.08460
 H49 H 0.83861 0.34415 0.05796
 H50 H 0.80837 0.40494 0.08821
 H51 H 0.88021 0.38395 0.11097
 H52 H 0.86144 0.36516 0.12966
 N53 N 0.40267 0.16226 -0.11552
 N54 N 0.41214 0.15232 -0.13381
 C55 C 0.43095 0.16472 -0.14034
 C56 C 0.43325 0.18322 -0.12525
 C57 C 0.41514 0.18125 -0.10973
 H58 H 0.44211 0.16069 -0.15491
 H59 H 0.41134 0.19275 -0.09535
 Cu60 Cu 0.39841 0.12441 -0.14715
 Cu61 Cu 0.37490 0.14991 -0.10047
 Cu62 Cu 0.35019 0.10041 -0.12510
 N63 N 0.38453 0.09700 -0.16134
 N64 N 0.36549 0.08776 -0.15259
 C65 C 0.35921 0.06925 -0.16551
 C66 C 0.37514 0.06689 -0.18321
 C67 C 0.39098 0.08468 -0.18020
 H68 H 0.34421 0.05833 -0.16229
 H69 H 0.40596 0.08834 -0.19095
 N70 N 0.33744 0.11585 -0.09727
 N71 N 0.34684 0.13467 -0.08791
 C72 C 0.33430 0.14089 -0.06915
 C73 C 0.31629 0.12526 -0.06673
 C74 C 0.31867 0.10962 -0.08470
 H75 H 0.33796 0.15563 -0.05803
 H76 H 0.30758 0.09482 -0.08827
 H77 H 0.37914 0.11570 -0.11044
 H78 H 0.36113 0.13446 -0.12981
 N79 N 0.09692 0.83755 0.38436
 N80 N 0.08776 0.84718 0.36572
 C81 C 0.06897 0.83473 0.35919
 C82 C 0.06638 0.81650 0.37463
 C83 C 0.08430 0.81869 0.39038
 H84 H 0.05802 0.83856 0.34439
 H85 H 0.08785 0.80745 0.40507
 Cu86 Cu 0.10155 0.87497 0.35194
 Cu87 Cu 0.12457 0.85019 0.39945
 Cu88 Cu 0.14917 0.89976 0.37486
 N89 N 0.11533 0.90275 0.33819
 N90 N 0.13402 0.91232 0.34729
 C91 C 0.14008 0.93111 0.33460
 C92 C 0.12437 0.93330 0.31669
 C93 C 0.10889 0.91514 0.31933
 H94 H 0.15478 0.94233 0.33813
 H95 H 0.09413 0.91130 0.30835
 N96 N 0.16186 0.88442 0.40278
 N97 N 0.15250 0.86556 0.41215
 C98 C 0.16509 0.85934 0.43092
 C99 C 0.18306 0.87502 0.43332
 C100 C 0.18062 0.89067 0.41533
 H101 H 0.16150 0.84454 0.44203
 H102 H 0.19170 0.90548 0.41170
 H103 H 0.12001 0.88440 0.38892
 H104 H 0.13868 0.86571 0.37014
 N105 N 0.09682 0.16281 0.11549
 N106 N 0.08768 0.15318 0.13413
 C107 C 0.06887 0.16555 0.14063
 C108 C 0.06627 0.18376 0.12518
 C109 C 0.08417 0.18160 0.10945
 H110 H 0.05796 0.16173 0.15544
 H111 H 0.08769 0.19282 0.09474
 Cu112 Cu 0.10147 0.12558 0.14810
 Cu113 Cu 0.12443 0.15030 0.10041
 Cu114 Cu 0.14901 0.10084 0.12506
 N115 N 0.11521 0.09778 0.16173
 N116 N 0.13390 0.08824 0.15265
 C117 C 0.13996 0.06948 0.16536
 C118 C 0.12425 0.06729 0.18328
 C119 C 0.10876 0.08540 0.18060
 H120 H 0.15464 0.05827 0.16183
 H121 H 0.09403 0.08926 0.19159
 N122 N 0.16170 0.11618 0.09715
 N123 N 0.15234 0.13501 0.08775
 C124 C 0.16490 0.14123 0.06897
 C125 C 0.18286 0.12559 0.06658
 C126 C 0.18044 0.10995 0.08459
 H127 H 0.16130 0.15600 0.05784
 H128 H 0.19152 0.09517 0.08821
 H129 H 0.11975 0.11618 0.11101
 H130 H 0.13851 0.13495 0.12971
 N131 N 0.40265 0.83769 0.61582
 N132 N 0.41142 0.84693 0.63483
 C133 C 0.43029 0.83460 0.64129
 C134 C 0.43331 0.81681 0.62548
 C135 C 0.41558 0.81918 0.60957
 H136 H 0.44105 0.83826 0.65626
 H137 H 0.41234 0.80828 0.59459
 Cu138 Cu 0.39720 0.87434 0.64869
 Cu139 Cu 0.37513 0.85033 0.60051
 Cu140 Cu 0.35048 0.89980 0.62516
 N141 N 0.38386 0.90227 0.66236
 N142 N 0.36554 0.91219 0.65290
 C143 C 0.35974 0.93117 0.66535
 C144 C 0.37528 0.93317 0.68345
 C145 C 0.39039 0.91468 0.68115
 H146 H 0.34534 0.94266 0.66153
 H147 H 0.40498 0.91066 0.69230
 N148 N 0.33789 0.88456 0.59712
 N149 N 0.34727 0.86576 0.58774
 C150 C 0.33470 0.85955 0.56898
 C151 C 0.31670 0.87517 0.56658
 C152 C 0.31912 0.89078 0.58457
 H153 H 0.33828 0.84477 0.55791
 H154 H 0.30798 0.90550 0.58822
 H155 H 0.37982 0.88437 0.61137
 H156 H 0.36050 0.86558 0.62943
 N157 N 0.90299 0.66234 0.38425
 N158 N 0.91209 0.65281 0.36556
 C159 C 0.93096 0.66519 0.35913
 C160 C 0.93364 0.68335 0.37460
 C161 C 0.91569 0.68112 0.39030
 H162 H 0.94195 0.66131 0.34440
 H163 H 0.91211 0.69233 0.40498
 Cu164 Cu 0.89836 0.62501 0.35182
 Cu165 Cu 0.87537 0.64970 0.39935
 Cu166 Cu 0.85076 0.60018 0.37481
 N167 N 0.88453 0.59728 0.33806
 N168 N 0.86590 0.58763 0.34723
 C169 C 0.85990 0.56879 0.33463
 C170 C 0.87565 0.56658 0.31674
 C171 C 0.89106 0.58482 0.31931
 H172 H 0.84519 0.55757 0.33816
 H173 H 0.90588 0.58864 0.30840
 N174 N 0.83804 0.61551 0.40270
 N175 N 0.84741 0.63435 0.41206
 C176 C 0.83481 0.64058 0.43079
 C177 C 0.81680 0.62493 0.43320
 C178 C 0.81925 0.60928 0.41525
 H179 H 0.83840 0.65536 0.44187
 H180 H 0.80816 0.59449 0.41165
 H181 H 0.87999 0.61554 0.38886
 H182 H 0.86126 0.63426 0.37013
 N183 N 0.59749 0.33774 -0.11579
 N184 N 0.58870 0.34701 -0.13479
 C185 C 0.56980 0.33470 -0.14120
 C186 C 0.56681 0.31688 -0.12537
 C187 C 0.58455 0.31921 -0.10949
 H188 H 0.55901 0.33837 -0.15614
 H189 H 0.58780 0.30827 -0.09451
 Cu190 Cu 0.60292 0.37446 -0.14868
 Cu191 Cu 0.62502 0.35030 -0.10052
 Cu192 Cu 0.64971 0.39984 -0.12523
 N193 N 0.61629 0.40243 -0.16241
 N194 N 0.63464 0.41234 -0.15298
 C195 C 0.64043 0.43137 -0.16544
 C196 C 0.62485 0.43342 -0.18353
 C197 C 0.60973 0.41489 -0.18118
 H198 H 0.65486 0.44284 -0.16165
 H199 H 0.59511 0.41086 -0.19229
 N200 N 0.66232 0.38453 -0.09721
 N201 N 0.65291 0.36569 -0.08781
 C202 C 0.66549 0.35940 -0.06908
 C203 C 0.68353 0.37500 -0.06669
 C204 C 0.68113 0.39068 -0.08467
 H205 H 0.66189 0.34457 -0.05801
 H206 H 0.69230 0.40542 -0.08832
 H207 H 0.62033 0.38428 -0.11135
 H208 H 0.63958 0.36555 -0.12944
 C209 C -0.01708 0.26724 0.12563
 N210 N 0.00573 0.27318 0.12564
 N211 N 0.02207 0.25673 0.12564
 C212 C 0.01609 0.23385 0.12563
 N213 N -0.00672 0.22790 0.12563
 N214 N -0.02306 0.24435 0.12562
 C215 C -0.03468 0.28493 0.12554
 C216 C -0.04950 0.29976 0.12542
 C217 C 0.03369 0.21616 0.12553
 C218 C 0.04853 0.20135 0.12540
 C219 C 0.51662 0.73322 0.62563
 N220 N 0.49379 0.72734 0.62563
 N221 N 0.47749 0.74383 0.62564
 C222 C 0.48353 0.76671 0.62565
 N223 N 0.50636 0.77259 0.62564
 N224 N 0.52266 0.75609 0.62563
 C225 C 0.53418 0.71546 0.62560
 C226 C 0.54898 0.70060 0.62554
 C227 C 0.46595 0.78445 0.62565
 C228 C 0.45111 0.79927 0.62561
 C229 C 1.01710 0.76717 0.37421
 N230 N 1.02304 0.74429 0.37421
 N231 N 1.00668 0.72781 0.37420
 C232 C 0.98386 0.73371 0.37419
 N233 N 0.97792 0.75660 0.37420
 N234 N 0.99428 0.77308 0.37421
 C235 C 1.03474 0.78492 0.37429
 C236 C 1.04959 0.79979 0.37442
 C237 C 0.96623 0.71594 0.37426
 C238 C 0.95140 0.70104 0.37437
 C239 C 0.48336 0.23341 -0.12550
 N240 N 0.50464 0.22904 -0.13461
 N241 N 0.52100 0.24551 -0.13459
 C242 C 0.51655 0.26683 -0.12546
 N243 N 0.49528 0.27119 -0.11632
 N244 N 0.47893 0.25473 -0.11634
 C245 C 0.46576 0.21571 -0.12553
 C246 C 0.45094 0.20086 -0.12548
 C247 C 0.53415 0.28454 -0.12546
 C248 C 0.54900 0.29935 -0.12545
 C249 C 0.12400 -0.01641 0.26660
 N250 N 0.14073 -0.01603 0.25001
 N251 N 0.14072 0.00049 0.23369
 C252 C 0.12399 0.01712 0.23348
 N253 N 0.10727 0.01675 0.25008
 N254 N 0.10728 0.00024 0.26640
 C255 C 0.12405 -0.03415 0.28418
 C256 C 0.12415 -0.04903 0.29899
 C257 C 0.12397 0.03484 0.21588
 C258 C 0.12405 0.04968 0.20103
 C259 C 0.62446 0.51720 -0.26700
 N260 N 0.61010 0.49850 -0.26872
 N261 N 0.61010 0.48205 -0.25233
 C262 C 0.62445 0.48378 -0.23372
 N263 N 0.63882 0.50248 -0.23200
 N264 N 0.63882 0.51894 -0.24839
 C265 C 0.62450 0.53489 -0.28468
 C266 C 0.62458 0.54973 -0.29957
 C267 C 0.62449 0.46603 -0.21607
 C268 C 0.62459 0.45114 -0.20124
 C269 C 0.37538 1.01687 0.76656
 N270 N 0.36105 0.99816 0.76833
 N271 N 0.36113 0.98167 0.75203
 C272 C 0.37555 0.98341 0.73347
 N273 N 0.38987 1.00212 0.73168
 N274 N 0.38979 1.01861 0.74799
 C275 C 0.37533 1.03456 0.78415
 C276 C 0.37527 1.04937 0.79900
 C277 C 0.37559 0.96569 0.71589
 C278 C 0.37552 0.95083 0.70110
 C279 C 0.87603 0.48298 0.23341
 N280 N 0.89276 0.48331 0.25002
 N281 N 0.89274 0.49977 0.26635
 C282 C 0.87601 0.51641 0.26657
 N283 N 0.85927 0.51607 0.24998
 N284 N 0.85929 0.49961 0.23365
 C285 C 0.87605 0.46529 0.21580
 C286 C 0.87598 0.45047 0.20095
 C287 C 0.87597 0.53411 0.28419
 C288 C 0.87588 0.54894 0.29903
 C289 C 0.26625 0.12534 -0.01665
 N290 N 0.26979 0.11420 0.00386
 N291 N 0.25340 0.11426 0.02021
 C292 C 0.23298 0.12547 0.01656
 N293 N 0.22944 0.13662 -0.00394
 N294 N 0.24584 0.13655 -0.02030
 C295 C 0.28388 0.12528 -0.03426
 C296 C 0.29868 0.12525 -0.04907
 C297 C 0.21533 0.12553 0.03416
 C298 C 0.20051 0.12557 0.04895
 C299 C 0.73342 0.62488 0.51658
 N300 N 0.72848 0.61737 0.49479
 N301 N 0.74486 0.61738 0.47840
 C302 C 0.76667 0.62488 0.48331
 N303 N 0.77160 0.63239 0.50511
 N304 N 0.75523 0.63239 0.52149
 C305 C 0.71580 0.62486 0.53424
 C306 C 0.70101 0.62485 0.54909
 C307 C 0.78431 0.62487 0.46567
 C308 C 0.79914 0.62489 0.45086
 C309 C 0.76694 0.37461 0.01655
 N310 N 0.77049 0.36347 -0.00392
 N311 N 0.75411 0.36353 -0.02029
 C312 C 0.73368 0.37472 -0.01668
 N313 N 0.73013 0.38586 0.00379
 N314 N 0.74651 0.38581 0.02016
 C315 C 0.78458 0.37457 0.03417
 C316 C 0.79939 0.37455 0.04898
 C317 C 0.71605 0.37481 -0.03430
 C318 C 0.70122 0.37489 -0.04909
 C319 C 0.23325 0.87512 0.48333
 N320 N 0.22835 0.86763 0.50516
 N321 N 0.24474 0.86765 0.52152
 C322 C 0.26653 0.87516 0.51655
 N323 N 0.27144 0.88267 0.49473
 N324 N 0.25505 0.88265 0.47836
 C325 C 0.21559 0.87509 0.46572
 C326 C 0.20075 0.87505 0.45094
 C327 C 0.28419 0.87516 0.53417
 C328 C 0.29902 0.87516 0.54896
   
