data_POSCAR
  _audit_creation_date              2014-09-24
  _audit_creation_method            'ToBaCCo'
  _symmetry_space_group_name_H-M    'P1'
  _symmetry_Int_Tables_number       1
  _symmetry_cell_setting            triclinic
  loop_
  _symmetry_equiv_pos_as_xyz
 x,y,z
_cell_length_a 38.2243
_cell_length_b 38.2244
_cell_length_c 38.2243
_cell_angle_alpha 90.001500
_cell_angle_beta 89.999500
_cell_angle_gamma 90.000700
loop_
  _atom_site_label
  _atom_site_type_symbol
  _atom_site_fract_x
  _atom_site_fract_y
  _atom_site_fract_z
N1 N 0.20797 0.20797 0.20798
 N2 N 0.70797 0.70797 0.70797
 N3 N 0.29200 0.79199 0.70800
 N4 N 0.79200 0.29199 0.20801
 N5 N 0.79201 0.70800 0.29200
 N6 N 0.29201 0.20800 -0.20800
 N7 N 0.70800 0.29202 -0.20798
 N8 N 0.20800 0.79202 0.29202
 N9 N 0.45800 0.45801 0.45800
 N10 N -0.04199 -0.04199 0.95800
 N11 N 1.04202 0.54203 0.95798
 N12 N 0.54202 0.04203 0.45798
 N13 N -0.04201 0.04199 0.54202
 N14 N 0.45799 0.54199 0.04202
 N15 N 0.54201 -0.04202 0.04200
 N16 N 1.04201 0.45798 0.54200
 C17 C 0.42672 0.01717 0.20132
 H18 H 0.42656 0.04179 0.21527
 C19 C 0.44957 0.01227 0.17326
 H20 H 0.46687 0.03341 0.16575
 C21 C 0.40464 -0.04038 0.19480
 H22 H 0.38755 -0.06106 0.20365
 C23 C 0.42726 -0.04650 0.16675
 H24 H 0.42686 -0.07180 0.15402
 N25 N 0.40450 -0.00879 0.21119
 C26 C 0.32328 0.04868 0.26715
 H27 H 0.32345 0.03472 0.29178
 C28 C 0.30043 0.07674 0.26226
 H29 H 0.28313 0.08424 0.28340
 C30 C 0.34536 0.05520 0.20961
 H31 H 0.36245 0.04635 0.18893
 C32 C 0.32274 0.08324 0.20349
 H33 H 0.32314 0.09597 0.17819
 Zn34 Zn 0.37501 0.00001 0.25000
 N35 N 0.34551 0.03881 0.24120
 C36 C 0.40465 0.04040 0.30519
 N37 N 0.40450 0.00881 0.28880
 C38 C 0.42673 -0.01714 0.29866
 C39 C 0.44958 -0.01225 0.32672
 C40 C 0.42726 0.04652 0.33323
 C41 C 0.32329 -0.04866 0.23284
 C42 C 0.30044 -0.07672 0.23773
 C43 C 0.32276 -0.08323 0.29651
 C44 C 0.34537 -0.05518 0.29038
 N45 N 0.34551 -0.03880 0.25880
 H46 H 0.38755 0.06108 0.29634
 H47 H 0.42657 -0.04177 0.28471
 H48 H 0.46689 -0.03338 0.33422
 H49 H 0.42687 0.07182 0.34597
 H50 H 0.32345 -0.03471 0.20822
 H51 H 0.28313 -0.08423 0.21660
 H52 H 0.32316 -0.09597 0.32180
 H53 H 0.36247 -0.04633 0.31106
 C54 C 0.29998 0.09447 0.23008
 C55 C 0.45002 -0.01991 0.15552
 C56 C 0.29999 -0.09446 0.26992
 C57 C 0.45003 0.01993 0.34446
 C58 C 0.07328 -0.01716 0.70134
 H59 H 0.07345 -0.04179 0.71530
 C60 C 0.05043 -0.01227 0.67328
 H61 H 0.03313 -0.03341 0.66578
 C62 C 0.09537 0.04038 0.69480
 H63 H 0.11246 0.06106 0.70365
 C64 C 0.07275 0.04650 0.66676
 H65 H 0.07314 0.07179 0.65402
 N66 N 0.09551 0.00880 0.71119
 C67 C 0.17673 -0.04866 0.76716
 H68 H 0.17657 -0.03470 0.79178
 C69 C 0.19958 -0.07673 0.76227
 H70 H 0.21688 -0.08423 0.78340
 C71 C 0.15464 -0.05520 0.70962
 H72 H 0.13755 -0.04635 0.68894
 C73 C 0.17725 -0.08325 0.70350
 H74 H 0.17686 -0.09599 0.67821
 Zn75 Zn 0.12501 0.00000 0.75000
 N76 N 0.15450 -0.03881 0.74120
 C77 C 0.09537 -0.04038 0.80520
 N78 N 0.09551 -0.00879 0.78881
 C79 C 0.07329 0.01716 0.79867
 C80 C 0.05044 0.01228 0.82673
 C81 C 0.07276 -0.04649 0.83325
 C82 C 0.17673 0.04867 0.73284
 C83 C 0.19958 0.07673 0.73772
 C84 C 0.17726 0.08325 0.79650
 C85 C 0.15465 0.05520 0.79038
 N86 N 0.15450 0.03881 0.75879
 H87 H 0.11247 -0.06105 0.79635
 H88 H 0.07345 0.04179 0.78471
 H89 H 0.03314 0.03341 0.83423
 H90 H 0.07316 -0.07179 0.84599
 H91 H 0.17656 0.03471 0.70821
 H92 H 0.21688 0.08424 0.71659
 H93 H 0.17687 0.09599 0.82179
 H94 H 0.13755 0.04635 0.81106
 C95 C 0.20002 -0.09447 0.73009
 C96 C 0.04998 0.01991 0.65554
 C97 C 0.20003 0.09448 0.76991
 C98 C 0.04999 -0.01990 0.84448
 C99 C 0.57328 0.48284 0.20134
 H100 H 0.57345 0.45821 0.21530
 C101 C 0.55043 0.48773 0.17328
 H102 H 0.53312 0.46659 0.16578
 C103 C 0.59537 0.54038 0.19480
 H104 H 0.61246 0.56106 0.20365
 C105 C 0.57275 0.54650 0.16676
 H106 H 0.57315 0.57179 0.15402
 N107 N 0.59551 0.50879 0.21119
 C108 C 0.67673 0.45133 0.26716
 H109 H 0.67657 0.46529 0.29178
 C110 C 0.69958 0.42327 0.26227
 H111 H 0.71688 0.41577 0.28340
 C112 C 0.65464 0.44480 0.20962
 H113 H 0.63755 0.45364 0.18894
 C114 C 0.67725 0.41675 0.20350
 H115 H 0.67685 0.40401 0.17821
 Zn116 Zn 0.62501 0.50000 0.25000
 N117 N 0.65450 0.46119 0.24120
 C118 C 0.59537 0.45962 0.30520
 N119 N 0.59551 0.49121 0.28881
 C120 C 0.57329 0.51716 0.29867
 C121 C 0.55044 0.51228 0.32673
 C122 C 0.57276 0.45351 0.33325
 C123 C 0.67673 0.54867 0.23284
 C124 C 0.69958 0.57673 0.23773
 C125 C 0.67726 0.58325 0.29650
 C126 C 0.65465 0.55520 0.29038
 N127 N 0.65450 0.53881 0.25879
 H128 H 0.61246 0.43894 0.29635
 H129 H 0.57345 0.54179 0.28471
 H130 H 0.53314 0.53341 0.33423
 H131 H 0.57315 0.42821 0.34599
 H132 H 0.67656 0.53471 0.20821
 H133 H 0.71688 0.58423 0.21659
 H134 H 0.67687 0.59598 0.32179
 H135 H 0.63755 0.54635 0.31106
 C136 C 0.70002 0.40552 0.23009
 C137 C 0.54998 0.51991 0.15553
 C138 C 0.70003 0.59447 0.26991
 C139 C 0.54999 0.48010 0.34448
 C140 C 0.92672 0.51717 0.70132
 H141 H 0.92656 0.54179 0.71527
 C142 C 0.94957 0.51227 0.67325
 H143 H 0.96687 0.53341 0.66575
 C144 C 0.90465 0.45962 0.69480
 H145 H 0.88756 0.43894 0.70366
 C146 C 0.92726 0.45350 0.66675
 H147 H 0.92687 0.42820 0.65402
 N148 N 0.90450 0.49121 0.71119
 C149 C 0.82328 0.54868 0.76715
 H150 H 0.82345 0.53472 0.79178
 C151 C 0.80043 0.57673 0.76226
 H152 H 0.78313 0.58424 0.78340
 C153 C 0.84536 0.55520 0.70961
 H154 H 0.86245 0.54635 0.68893
 C155 C 0.82274 0.58324 0.70349
 H156 H 0.82313 0.59597 0.67819
 Zn157 Zn 0.87501 0.50001 0.74999
 N158 N 0.84551 0.53881 0.74120
 C159 C 0.90465 0.54040 0.80519
 N160 N 0.90450 0.50881 0.78880
 C161 C 0.92673 0.48286 0.79866
 C162 C 0.94958 0.48775 0.82672
 C163 C 0.92726 0.54652 0.83323
 C164 C 0.82329 0.45133 0.73284
 C165 C 0.80044 0.42327 0.73773
 C166 C 0.82276 0.41676 0.79650
 C167 C 0.84537 0.44481 0.79038
 N168 N 0.84552 0.46120 0.75880
 H169 H 0.88755 0.56107 0.79634
 H170 H 0.92657 0.45823 0.78471
 H171 H 0.96688 0.46662 0.83422
 H172 H 0.92687 0.57182 0.84597
 H173 H 0.82345 0.46529 0.70821
 H174 H 0.78314 0.41577 0.71660
 H175 H 0.82316 0.40403 0.82180
 H176 H 0.86247 0.45367 0.81106
 C177 C 0.79998 0.59447 0.73008
 C178 C 0.95002 0.48009 0.65552
 C179 C 0.79999 0.40554 0.76992
 C180 C 0.95003 0.51993 0.84446
 C181 C 0.20131 0.42672 0.01716
 H182 H 0.21527 0.42655 0.04179
 C183 C 0.17326 0.44957 0.01227
 H184 H 0.16575 0.46687 0.03341
 C185 C 0.19479 0.40464 -0.04038
 H186 H 0.20364 0.38755 -0.06106
 C187 C 0.16675 0.42726 -0.04650
 H188 H 0.15402 0.42687 -0.07180
 N189 N 0.21118 0.40449 -0.00879
 C190 C 0.26714 0.32327 0.04866
 H191 H 0.29176 0.32344 0.03471
 C192 C 0.26225 0.30042 0.07672
 H193 H 0.28338 0.28311 0.08422
 C194 C 0.20960 0.34535 0.05519
 H195 H 0.18892 0.36245 0.04635
 C196 C 0.20348 0.32274 0.08324
 H197 H 0.17818 0.32313 0.09597
 Zn198 Zn 0.24998 0.37500 0.00000
 N199 N 0.24118 0.34550 0.03881
 C200 C 0.30518 0.40463 0.04039
 N201 N 0.28879 0.40449 0.00880
 C202 C 0.29865 0.42672 -0.01715
 C203 C 0.32672 0.44957 -0.01226
 C204 C 0.33323 0.42724 0.04651
 C205 C 0.23283 0.32328 -0.04868
 C206 C 0.23772 0.30043 -0.07674
 C207 C 0.29649 0.32275 -0.08325
 C208 C 0.29037 0.34536 -0.05519
 N209 N 0.25878 0.34551 -0.03881
 H210 H 0.29633 0.38754 0.06106
 H211 H 0.28470 0.42656 -0.04177
 H212 H 0.33422 0.46687 -0.03339
 H213 H 0.34597 0.42684 0.07181
 H214 H 0.20820 0.32345 -0.03472
 H215 H 0.21659 0.28313 -0.08425
 H216 H 0.32179 0.32315 -0.09598
 H217 H 0.31105 0.36246 -0.04634
 C218 C 0.23007 0.29997 0.09446
 C219 C 0.15552 0.45003 -0.01991
 C220 C 0.26990 0.29999 -0.09448
 C221 C 0.34446 0.45001 0.01992
 C222 C 0.70133 0.07327 -0.01717
 H223 H 0.71528 0.07344 -0.04179
 C224 C 0.67327 0.05042 -0.01228
 H225 H 0.66577 0.03312 -0.03341
 C226 C 0.69480 0.09535 0.04038
 H227 H 0.70365 0.11245 0.06106
 C228 C 0.66675 0.07274 0.04650
 H229 H 0.65402 0.07313 0.07179
 N230 N 0.71119 0.09550 0.00879
 C231 C 0.76716 0.17672 -0.04867
 H232 H 0.79178 0.17656 -0.03471
 C233 C 0.76227 0.19958 -0.07672
 H234 H 0.78340 0.21688 -0.08422
 C235 C 0.70962 0.15464 -0.05520
 H236 H 0.68894 0.13754 -0.04635
 C237 C 0.70350 0.17725 -0.08325
 H238 H 0.67820 0.17686 -0.09598
 Zn239 Zn 0.75000 0.12500 -0.00000
 N240 N 0.74120 0.15449 -0.03881
 C241 C 0.80520 0.09536 -0.04039
 N242 N 0.78881 0.09550 -0.00880
 C243 C 0.79867 0.07328 0.01716
 C244 C 0.82673 0.05043 0.01227
 C245 C 0.83325 0.07275 -0.04650
 C246 C 0.73283 0.17671 0.04867
 C247 C 0.73772 0.19956 0.07674
 C248 C 0.79649 0.17724 0.08325
 C249 C 0.79038 0.15463 0.05520
 N250 N 0.75879 0.15449 0.03881
 H251 H 0.79635 0.11246 -0.06106
 H252 H 0.78471 0.07344 0.04178
 H253 H 0.83423 0.03312 0.03340
 H254 H 0.84599 0.07315 -0.07180
 H255 H 0.70821 0.17655 0.03471
 H256 H 0.71659 0.21686 0.08424
 H257 H 0.82179 0.17685 0.09599
 H258 H 0.81105 0.13754 0.04635
 C259 C 0.73009 0.20002 -0.09447
 C260 C 0.65553 0.04997 0.01990
 C261 C 0.76990 0.20001 0.09448
 C262 C 0.84447 0.04998 -0.01991
 C263 C 0.20133 0.57328 0.48283
 H264 H 0.21529 0.57344 0.45821
 C265 C 0.17327 0.55042 0.48772
 H266 H 0.16577 0.53312 0.46659
 C267 C 0.19480 0.59536 0.54038
 H268 H 0.20365 0.61245 0.56105
 C269 C 0.16675 0.57274 0.54649
 H270 H 0.15402 0.57314 0.57179
 N271 N 0.21119 0.59550 0.50879
 C272 C 0.26716 0.67672 0.45133
 H273 H 0.29178 0.67656 0.46529
 C274 C 0.26227 0.69958 0.42328
 H275 H 0.28340 0.71688 0.41578
 C276 C 0.20962 0.65464 0.44480
 H277 H 0.18894 0.63754 0.45364
 C278 C 0.20350 0.67725 0.41675
 H279 H 0.17820 0.67686 0.40402
 Zn280 Zn 0.25000 0.62500 0.50000
 N281 N 0.24120 0.65450 0.46119
 C282 C 0.30520 0.59537 0.45961
 N283 N 0.28881 0.59551 0.49120
 C284 C 0.29866 0.57328 0.51715
 C285 C 0.32673 0.55043 0.51227
 C286 C 0.33325 0.57275 0.45350
 C287 C 0.23284 0.67672 0.54867
 C288 C 0.23772 0.69957 0.57673
 C289 C 0.29650 0.67724 0.58325
 C290 C 0.29038 0.65463 0.55520
 N291 N 0.25879 0.65449 0.53881
 H292 H 0.29635 0.61246 0.43894
 H293 H 0.28470 0.57344 0.54178
 H294 H 0.33423 0.53312 0.53340
 H295 H 0.34599 0.57315 0.42820
 H296 H 0.20821 0.67655 0.53471
 H297 H 0.21659 0.71687 0.58424
 H298 H 0.32179 0.67685 0.59599
 H299 H 0.31105 0.63754 0.54635
 C300 C 0.23009 0.70002 0.40553
 C301 C 0.15553 0.54997 0.51990
 C302 C 0.26990 0.70001 0.59447
 C303 C 0.34447 0.54999 0.48009
 C304 C 0.70131 0.92672 0.51716
 H305 H 0.71527 0.92655 0.54179
 C306 C 0.67326 0.94957 0.51227
 H307 H 0.66575 0.96687 0.53341
 C308 C 0.69479 0.90464 0.45962
 H309 H 0.70364 0.88755 0.43894
 C310 C 0.66675 0.92726 0.45350
 H311 H 0.65402 0.92687 0.42820
 N312 N 0.71118 0.90449 0.49121
 C313 C 0.76714 0.82327 0.54866
 H314 H 0.79176 0.82343 0.53471
 C315 C 0.76225 0.80041 0.57672
 H316 H 0.78338 0.78311 0.58422
 C317 C 0.70960 0.84535 0.55519
 H318 H 0.68892 0.86245 0.54635
 C319 C 0.70348 0.82274 0.58324
 H320 H 0.67818 0.82313 0.59597
 Zn321 Zn 0.74998 0.87500 0.50000
 N322 N 0.74118 0.84550 0.53880
 C323 C 0.80518 0.90463 0.54039
 N324 N 0.78879 0.90449 0.50880
 C325 C 0.79865 0.92672 0.48285
 C326 C 0.82672 0.94957 0.48774
 C327 C 0.83323 0.92724 0.54651
 C328 C 0.73283 0.82328 0.45132
 C329 C 0.73772 0.80043 0.42326
 C330 C 0.79649 0.82275 0.41675
 C331 C 0.79037 0.84536 0.44480
 N332 N 0.75878 0.84551 0.46119
 H333 H 0.79633 0.88753 0.56106
 H334 H 0.78470 0.92656 0.45823
 H335 H 0.83422 0.96687 0.46661
 H336 H 0.84597 0.92684 0.57181
 H337 H 0.70820 0.82344 0.46528
 H338 H 0.71659 0.78313 0.41575
 H339 H 0.82179 0.82315 0.40402
 H340 H 0.81105 0.86246 0.45366
 C341 C 0.73007 0.79997 0.59446
 C342 C 0.65552 0.95003 0.48009
 C343 C 0.76990 0.79999 0.40552
 C344 C 0.84446 0.95001 0.51992
 C345 C 0.01715 0.20131 0.42672
 H346 H 0.04178 0.21526 0.42656
 C347 C 0.01226 0.17325 0.44958
 H348 H 0.03340 0.16574 0.46687
 C349 C -0.04039 0.19478 0.40465
 H350 H -0.06107 0.20363 0.38756
 C351 C -0.04651 0.16674 0.42726
 H352 H -0.07181 0.15400 0.42687
 N353 N -0.00880 0.21117 0.40450
 C354 C 0.04865 0.26713 0.32328
 H355 H 0.03470 0.29176 0.32344
 C356 C 0.07671 0.26224 0.30042
 H357 H 0.08421 0.28338 0.28312
 C358 C 0.05518 0.20959 0.34536
 H359 H 0.04634 0.18892 0.36245
 C360 C 0.08323 0.20347 0.32274
 H361 H 0.09597 0.17818 0.32313
 Zn362 Zn -0.00001 0.24998 0.37500
 N363 N 0.03879 0.24118 0.34550
 C364 C 0.04038 0.30517 0.40464
 N365 N 0.00879 0.28878 0.40450
 C366 C -0.01716 0.29865 0.42673
 C367 C -0.01227 0.32671 0.44958
 C368 C 0.04650 0.33322 0.42725
 C369 C -0.04868 0.23282 0.32329
 C370 C -0.07675 0.23771 0.30044
 C371 C -0.08326 0.29648 0.32276
 C372 C -0.05521 0.29036 0.34537
 N373 N -0.03882 0.25877 0.34551
 H374 H 0.06105 0.29633 0.38754
 H375 H -0.04179 0.28469 0.42657
 H376 H -0.03340 0.33421 0.46688
 H377 H 0.07179 0.34596 0.42685
 H378 H -0.03473 0.20819 0.32345
 H379 H -0.08425 0.21657 0.28314
 H380 H -0.09599 0.32178 0.32316
 H381 H -0.04636 0.31104 0.36247
 C382 C 0.09445 0.23006 0.29997
 C383 C -0.01992 0.15551 0.45003
 C384 C -0.09449 0.26989 0.29999
 C385 C 0.01991 0.34445 0.45002
 C386 C -0.01715 0.70135 0.07328
 H387 H -0.04177 0.71531 0.07344
 C388 C -0.01226 0.67329 0.05042
 H389 H -0.03339 0.66579 0.03312
 C390 C 0.04040 0.69482 0.09536
 H391 H 0.06107 0.70367 0.11246
 C392 C 0.04651 0.66678 0.07274
 H393 H 0.07181 0.65404 0.07314
 N394 N 0.00881 0.71121 0.09551
 C395 C -0.04866 0.76717 0.17673
 H396 H -0.03470 0.79180 0.17656
 C397 C -0.07672 0.76228 0.19957
 H398 H -0.08422 0.78341 0.21688
 C399 C -0.05519 0.70963 0.15464
 H400 H -0.04634 0.68896 0.13754
 C401 C -0.08324 0.70351 0.17725
 H402 H -0.09597 0.67822 0.17685
 Zn403 Zn 0.00001 0.75002 0.12500
 N404 N -0.03880 0.74122 0.15450
 C405 C -0.04037 0.80521 0.09537
 N406 N -0.00878 0.78883 0.09551
 C407 C 0.01717 0.79869 0.07329
 C408 C 0.01228 0.82675 0.05044
 C409 C -0.04649 0.83326 0.07276
 C410 C 0.04868 0.73286 0.17672
 C411 C 0.07674 0.73774 0.19958
 C412 C 0.08325 0.79652 0.17726
 C413 C 0.05521 0.79040 0.15465
 N414 N 0.03882 0.75881 0.15450
 H415 H -0.06105 0.79637 0.11246
 H416 H 0.04180 0.78473 0.07345
 H417 H 0.03342 0.83425 0.03314
 H418 H -0.07179 0.84600 0.07315
 H419 H 0.03472 0.70823 0.17656
 H420 H 0.08424 0.71661 0.21688
 H421 H 0.09599 0.82182 0.17687
 H422 H 0.04636 0.81108 0.13756
 C423 C -0.09446 0.73010 0.20002
 C424 C 0.01993 0.65555 0.04998
 C425 C 0.09448 0.76993 0.20003
 C426 C -0.01990 0.84449 0.04999
 C427 C 0.48285 0.20135 0.57328
 H428 H 0.45823 0.21531 0.57344
 C429 C 0.48774 0.17329 0.55042
 H430 H 0.46661 0.16579 0.53312
 C431 C 0.54040 0.19482 0.59536
 H432 H 0.56107 0.20367 0.61246
 C433 C 0.54652 0.16678 0.57274
 H434 H 0.57181 0.15404 0.57314
 N435 N 0.50881 0.21121 0.59551
 C436 C 0.45134 0.26717 0.67673
 H437 H 0.46530 0.29180 0.67656
 C438 C 0.42328 0.26228 0.69957
 H439 H 0.41578 0.28342 0.71688
 C440 C 0.44481 0.20963 0.65464
 H441 H 0.45366 0.18896 0.63754
 C442 C 0.41676 0.20351 0.67725
 H443 H 0.40403 0.17822 0.67685
 Zn444 Zn 0.50001 0.25002 0.62500
 N445 N 0.46120 0.24122 0.65450
 C446 C 0.45963 0.30521 0.59537
 N447 N 0.49122 0.28883 0.59551
 C448 C 0.51717 0.29869 0.57329
 C449 C 0.51229 0.32675 0.55044
 C450 C 0.45351 0.33326 0.57276
 C451 C 0.54868 0.23286 0.67672
 C452 C 0.57674 0.23774 0.69958
 C453 C 0.58326 0.29652 0.67726
 C454 C 0.55521 0.29040 0.65465
 N455 N 0.53882 0.25881 0.65450
 H456 H 0.43895 0.29636 0.61246
 H457 H 0.54180 0.28474 0.57345
 H458 H 0.53342 0.33426 0.53314
 H459 H 0.42821 0.34600 0.57315
 H460 H 0.53472 0.20823 0.67656
 H461 H 0.58424 0.21661 0.71688
 H462 H 0.59599 0.32181 0.67687
 H463 H 0.54636 0.31108 0.63756
 C464 C 0.40554 0.23010 0.70002
 C465 C 0.51993 0.15555 0.54998
 C466 C 0.59448 0.26993 0.70003
 C467 C 0.48010 0.34449 0.54999
 C468 C 0.51715 0.70131 0.92672
 H469 H 0.54178 0.71526 0.92656
 C470 C 0.51227 0.67325 0.94957
 H471 H 0.53340 0.66574 0.96687
 C472 C 0.45961 0.69478 0.90465
 H473 H 0.43893 0.70363 0.88755
 C474 C 0.45349 0.66674 0.92726
 H475 H 0.42819 0.65400 0.92687
 N476 N 0.49120 0.71117 0.90450
 C477 C 0.54865 0.76713 0.82328
 H478 H 0.53470 0.79176 0.82344
 C479 C 0.57671 0.76224 0.80042
 H480 H 0.58421 0.78338 0.78312
 C481 C 0.55519 0.70959 0.84536
 H482 H 0.54634 0.68892 0.86245
 C483 C 0.58323 0.70347 0.82274
 H484 H 0.59597 0.67818 0.82313
 Zn485 Zn 0.49999 0.74998 0.87500
 N486 N 0.53880 0.74118 0.84550
 C487 C 0.54038 0.80517 0.90464
 N488 N 0.50879 0.78878 0.90450
 C489 C 0.48284 0.79865 0.92673
 C490 C 0.48773 0.82671 0.94958
 C491 C 0.54650 0.83322 0.92725
 C492 C 0.45132 0.73282 0.82329
 C493 C 0.42325 0.73771 0.80044
 C494 C 0.41674 0.79648 0.82276
 C495 C 0.44479 0.79036 0.84537
 N496 N 0.46118 0.75877 0.84551
 H497 H 0.56105 0.79633 0.88754
 H498 H 0.45821 0.78469 0.92657
 H499 H 0.46660 0.83421 0.96688
 H500 H 0.57179 0.84596 0.92685
 H501 H 0.46527 0.70819 0.82345
 H502 H 0.41575 0.71658 0.78314
 H503 H 0.40401 0.82178 0.82316
 H504 H 0.45364 0.81104 0.86246
 C505 C 0.59445 0.73006 0.79997
 C506 C 0.48008 0.65551 0.95002
 C507 C 0.40552 0.76989 0.79999
 C508 C 0.51991 0.84445 0.95002
 N509 N 0.16522 0.18670 0.25025
 C510 C 0.17892 0.21361 0.23149
 N511 N 0.16469 0.24594 0.23538
 N512 N 0.13789 0.25114 0.25704
 C513 C 0.12423 0.22424 0.27583
 N514 N 0.13849 0.19192 0.27199
 N515 N 0.66469 0.74594 0.73538
 C516 C 0.67892 0.71361 0.73149
 N517 N 0.66522 0.68670 0.75025
 N518 N 0.63849 0.69192 0.77199
 C519 C 0.62423 0.72424 0.77583
 N520 N 0.63789 0.75113 0.75703
 N521 N 0.33475 0.81326 0.75028
 C522 C 0.32105 0.78636 0.73152
 N523 N 0.33528 0.75402 0.73540
 N524 N 0.36207 0.74882 0.75706
 C525 C 0.37573 0.77571 0.77585
 N526 N 0.36148 0.80804 0.77202
 N527 N -0.16473 0.25401 0.23541
 C528 C -0.17895 0.28635 0.23152
 N529 N -0.16525 0.31326 0.25028
 N530 N -0.13852 0.30804 0.27202
 C531 C -0.12427 0.27571 0.27586
 N532 N -0.13793 0.24882 0.25706
 N533 N -0.16471 0.74598 0.26460
 C534 C -0.17894 0.71364 0.26849
 N535 N -0.16523 0.68673 0.24973
 N536 N -0.13850 0.69195 0.22799
 C537 C -0.12425 0.72428 0.22415
 N538 N -0.13791 0.75117 0.24295
 N539 N 0.33529 0.24598 0.76460
 C540 C 0.32107 0.21364 0.76849
 N541 N 0.33477 0.18673 0.74973
 N542 N 0.36150 0.19195 0.72799
 C543 C 0.37575 0.22428 0.72416
 N544 N 0.36209 0.25117 0.74295
 N545 N 0.66472 0.25404 0.76461
 C546 C 0.67895 0.28638 0.76851
 N547 N 0.66525 0.31329 0.74975
 N548 N 0.63852 0.30807 0.72801
 C549 C 0.62426 0.27575 0.72417
 N550 N 0.63792 0.24885 0.74296
 N551 N 0.16472 0.75405 0.26462
 C552 C 0.17895 0.78639 0.26851
 N553 N 0.16524 0.81329 0.24975
 N554 N 0.13851 0.80807 0.22801
 C555 C 0.12426 0.77575 0.22417
 N556 N 0.13792 0.74886 0.24296
 N557 N 0.25025 0.16522 0.18671
 C558 C 0.23149 0.17892 0.21361
 N559 N 0.23538 0.16470 0.24595
 N560 N 0.25704 0.13791 0.25115
 C561 C 0.27583 0.12425 0.22426
 N562 N 0.27199 0.13850 0.19193
 N563 N 0.75025 0.66522 0.68670
 C564 C 0.73149 0.67892 0.71361
 N565 N 0.73538 0.66470 0.74595
 N566 N 0.75704 0.63790 0.75115
 C567 C 0.77583 0.62424 0.72425
 N568 N 0.77199 0.63849 0.69193
 N569 N 0.75028 0.33477 0.81329
 C570 C 0.73152 0.32107 0.78638
 N571 N 0.73540 0.33529 0.75404
 N572 N 0.75706 0.36209 0.74885
 C573 C 0.77585 0.37575 0.77574
 N574 N 0.77202 0.36150 0.80807
 N575 N 0.23540 -0.16470 0.25404
 C576 C 0.23151 -0.17893 0.28638
 N577 N 0.25028 -0.16523 0.31329
 N578 N 0.27202 -0.13850 0.30807
 C579 C 0.27585 -0.12424 0.27574
 N580 N 0.25706 -0.13790 0.24885
 N581 N 0.24973 -0.16525 0.68673
 C582 C 0.26849 -0.17895 0.71364
 N583 N 0.26460 -0.16472 0.74597
 N584 N 0.24295 -0.13792 0.75117
 C585 C 0.22416 -0.12426 0.72427
 N586 N 0.22799 -0.13852 0.69195
 N587 N 0.76460 0.33528 0.24598
 C588 C 0.76849 0.32105 0.21364
 N589 N 0.74973 0.33475 0.18673
 N590 N 0.72799 0.36148 0.19195
 C591 C 0.72416 0.37574 0.22427
 N592 N 0.74295 0.36208 0.25117
 N593 N 0.74974 0.66524 0.31327
 C594 C 0.76850 0.67895 0.28636
 N595 N 0.76461 0.66472 0.25403
 N596 N 0.74296 0.63792 0.24883
 C597 C 0.72417 0.62426 0.27573
 N598 N 0.72800 0.63851 0.30805
 N599 N 0.26461 0.16472 0.75403
 C600 C 0.26850 0.17895 0.78636
 N601 N 0.24974 0.16525 0.81327
 N602 N 0.22800 0.13851 0.80805
 C603 C 0.22417 0.12426 0.77573
 N604 N 0.24296 0.13792 0.74883
 N605 N 0.18670 0.25025 0.16522
 C606 C 0.21361 0.23149 0.17892
 N607 N 0.24594 0.23538 0.16470
 N608 N 0.25114 0.25704 0.13790
 C609 C 0.22425 0.27583 0.12424
 N610 N 0.19192 0.27199 0.13850
 N611 N 0.68670 0.75025 0.66522
 C612 C 0.71360 0.73148 0.67892
 N613 N 0.74594 0.73537 0.66469
 N614 N 0.75114 0.75703 0.63790
 C615 C 0.72425 0.77582 0.62424
 N616 N 0.69192 0.77199 0.63849
 N617 N 0.81328 0.75027 0.33476
 C618 C 0.78637 0.73151 0.32105
 N619 N 0.75403 0.73540 0.33528
 N620 N 0.74884 0.75706 0.36208
 C621 C 0.77573 0.77585 0.37574
 N622 N 0.80805 0.77201 0.36149
 N623 N 0.31328 0.25028 -0.16524
 C624 C 0.28637 0.23152 -0.17895
 N625 N 0.25403 0.23540 -0.16472
 N626 N 0.24884 0.25706 -0.13792
 C627 C 0.27573 0.27585 -0.12426
 N628 N 0.30805 0.27202 -0.13851
 N629 N 0.74597 0.26462 -0.16470
 C630 C 0.71363 0.26850 -0.17893
 N631 N 0.68673 0.24974 -0.16523
 N632 N 0.69195 0.22800 -0.13850
 C633 C 0.72427 0.22417 -0.12425
 N634 N 0.75116 0.24296 -0.13790
 N635 N 0.24597 0.76462 0.33530
 C636 C 0.21363 0.76851 0.32107
 N637 N 0.18673 0.74975 0.33477
 N638 N 0.19195 0.72800 0.36150
 C639 C 0.22427 0.72417 0.37575
 N640 N 0.25116 0.74296 0.36210
 N641 N 0.31327 0.74972 0.66525
 C642 C 0.28636 0.76848 0.67895
 N643 N 0.25403 0.76460 0.66472
 N644 N 0.24883 0.74294 0.63792
 C645 C 0.27572 0.72415 0.62426
 N646 N 0.30805 0.72798 0.63852
 N647 N 0.81327 0.24972 0.16525
 C648 C 0.78636 0.26848 0.17895
 N649 N 0.75402 0.26459 0.16472
 N650 N 0.74883 0.24294 0.13792
 C651 C 0.77572 0.22415 0.12426
 N652 N 0.80805 0.22798 0.13852
 N653 N 0.49598 0.41473 0.48540
 C654 C 0.46364 0.42896 0.48151
 N655 N 0.43673 0.41525 0.50027
 N656 N 0.44196 0.38853 0.52201
 C657 C 0.47428 0.37427 0.52585
 N658 N 0.50117 0.38793 0.50706
 N659 N -0.06327 0.91525 0.00027
 C660 C -0.03636 0.92896 -0.01849
 N661 N -0.00402 0.91473 -0.01460
 N662 N 0.00117 0.88793 0.00706
 C663 C -0.02572 0.87427 0.02585
 N664 N -0.05805 0.88852 0.02201
 N665 N 0.06329 0.58478 0.00026
 C666 C 0.03638 0.57109 -0.01851
 N667 N 0.00405 0.58532 -0.01462
 N668 N -0.00115 0.61212 0.00704
 C669 C 0.02575 0.62577 0.02583
 N670 N 0.05807 0.61151 0.02200
 N671 N 0.50405 0.08532 0.48538
 C672 C 0.53638 0.07109 0.48149
 N673 N 0.56329 0.08478 0.50026
 N674 N 0.55807 0.11151 0.52200
 C675 C 0.52575 0.12577 0.52583
 N676 N 0.49885 0.11211 0.50704
 N677 N -0.06329 0.08475 0.49975
 C678 C -0.03638 0.07105 0.51851
 N679 N -0.00404 0.08527 0.51461
 N680 N 0.00115 0.11207 0.49296
 C681 C -0.02574 0.12573 0.47417
 N682 N -0.05807 0.11148 0.47801
 N683 N 0.49596 0.58527 1.01461
 C684 C 0.46362 0.57105 1.01851
 N685 N 0.43671 0.58475 0.99975
 N686 N 0.44193 0.61148 0.97801
 C687 C 0.47426 0.62573 0.97417
 N688 N 0.50115 0.61207 0.99296
 N689 N 0.50404 0.91469 1.01461
 C690 C 0.53637 0.92892 1.01849
 N691 N 0.56328 0.91522 0.99973
 N692 N 0.55806 0.88849 0.97799
 C693 C 0.52573 0.87423 0.97416
 N694 N 0.49884 0.88789 0.99295
 N695 N 0.00404 0.41469 0.51460
 C696 C 0.03637 0.42893 0.51849
 N697 N 0.06328 0.41522 0.49972
 N698 N 0.05806 0.38849 0.47799
 C699 C 0.02573 0.37424 0.47416
 N700 N -0.00116 0.38789 0.49295
 N701 N 0.41472 0.48540 0.49597
 C702 C 0.42895 0.48152 0.46363
 N703 N 0.41525 0.50028 0.43673
 N704 N 0.38852 0.52202 0.44194
 C705 C 0.37426 0.52585 0.47427
 N706 N 0.38792 0.50706 0.50116
 N707 N 0.91525 0.00028 -0.06327
 C708 C 0.92895 -0.01848 -0.03637
 N709 N 0.91472 -0.01460 -0.00403
 N710 N 0.88792 0.00706 0.00116
 C711 C 0.87426 0.02585 -0.02573
 N712 N 0.88852 0.02201 -0.05806
 N713 N 0.58529 -0.01462 0.00403
 C714 C 0.57106 -0.01851 0.03636
 N715 N 0.58476 0.00025 0.06327
 N716 N 0.61149 0.02199 0.05805
 C717 C 0.62575 0.02583 0.02572
 N718 N 0.61209 0.00704 -0.00117
 N719 N 0.08529 0.48538 0.50402
 C720 C 0.07106 0.48149 0.53636
 N721 N 0.08476 0.50026 0.56327
 N722 N 0.11149 0.52200 0.55805
 C723 C 0.12575 0.52583 0.52572
 N724 N 0.11209 0.50704 0.49883
 N725 N 0.08529 0.51462 -0.00404
 C726 C 0.07107 0.51852 -0.03638
 N727 N 0.08477 0.49975 -0.06329
 N728 N 0.11150 0.47801 -0.05806
 C729 C 0.12574 0.47417 -0.02574
 N730 N 0.11208 0.49296 0.00115
 N731 N 0.58529 1.01463 0.49596
 C732 C 0.57107 1.01852 0.46362
 N733 N 0.58477 0.99975 0.43671
 N734 N 0.61150 0.97801 0.44194
 C735 C 0.62574 0.97417 0.47426
 N736 N 0.61208 0.99296 0.50115
 N737 N 0.91523 0.99972 0.56329
 C738 C 0.92893 1.01848 0.53638
 N739 N 0.91470 1.01460 0.50405
 N740 N 0.88790 0.99294 0.49885
 C741 C 0.87424 0.97415 0.52574
 N742 N 0.88850 0.97798 0.55807
 N743 N 0.41523 0.49972 0.06329
 C744 C 0.42893 0.51848 0.03638
 N745 N 0.41470 0.51460 0.00405
 N746 N 0.38790 0.49294 -0.00115
 C747 C 0.37424 0.47415 0.02574
 N748 N 0.38850 0.47798 0.05807
 N749 N 0.48540 0.49598 0.41472
 C750 C 0.48152 0.46364 0.42895
 N751 N 0.50028 0.43673 0.41525
 N752 N 0.52202 0.44195 0.38852
 C753 C 0.52585 0.47428 0.37426
 N754 N 0.50706 0.50117 0.38792
 N755 N -0.01460 -0.00402 0.91472
 C756 C -0.01848 -0.03636 0.92895
 N757 N 0.00028 -0.06327 0.91525
 N758 N 0.02202 -0.05805 0.88852
 C759 C 0.02585 -0.02572 0.87426
 N760 N 0.00706 0.00117 0.88792
 N761 N 0.00026 0.06327 0.58477
 C762 C -0.01850 0.03636 0.57107
 N763 N -0.01462 0.00402 0.58530
 N764 N 0.00704 -0.00117 0.61210
 C765 C 0.02584 0.02572 0.62576
 N766 N 0.02200 0.05805 0.61150
 N767 N 0.50026 0.56327 0.08477
 C768 C 0.48150 0.53636 0.07107
 N769 N 0.48538 0.50402 0.08530
 N770 N 0.50704 0.49883 0.11210
 C771 C 0.52584 0.52572 0.12576
 N772 N 0.52200 0.55805 0.11150
 N773 N 0.51461 -0.00404 0.08528
 C774 C 0.51850 -0.03638 0.07105
 N775 N 0.49974 -0.06329 0.08476
 N776 N 0.47800 -0.05806 0.11149
 C777 C 0.47416 -0.02574 0.12574
 N778 N 0.49295 0.00115 0.11207
 N779 N 0.99974 0.43671 0.58476
 C780 C 1.01850 0.46362 0.57105
 N781 N 1.01461 0.49596 0.58528
 N782 N 0.99295 0.50115 0.61207
 C783 C 0.97416 0.47426 0.62574
 N784 N 0.97800 0.44194 0.61149
 N785 N 0.99975 0.56330 0.91523
 C786 C 1.01851 0.53640 0.92893
 N787 N 1.01462 0.50406 0.91470
 N788 N 0.99296 0.49886 0.88790
 C789 C 0.97417 0.52575 0.87424
 N790 N 0.97801 0.55808 0.88850
 N791 N 0.51462 0.00406 0.41470
 C792 C 0.51851 0.03640 0.42893
 N793 N 0.49975 0.06330 0.41523
 N794 N 0.47801 0.05808 0.38850
 C795 C 0.47417 0.02575 0.37424
 N796 N 0.49296 -0.00114 0.38790
   
