data_POSCAR
  _audit_creation_date              2014-09-24
  _audit_creation_method            'ToBaCCo'
  _symmetry_space_group_name_H-M    'P1'
  _symmetry_Int_Tables_number       1
  _symmetry_cell_setting            triclinic
  loop_
  _symmetry_equiv_pos_as_xyz
 x,y,z
_cell_length_a 29.7095
_cell_length_b 29.6635
_cell_length_c 33.2741
_cell_angle_alpha 89.917700
_cell_angle_beta 86.196400
_cell_angle_gamma 89.875100
loop_
  _atom_site_label
  _atom_site_type_symbol
  _atom_site_fract_x
  _atom_site_fract_y
  _atom_site_fract_z
C1 C 0.00466 0.54498 1.02168
 C2 C -0.00491 0.54501 0.98063
 C3 C -0.00989 0.50402 0.96054
 C4 C -0.00525 0.46306 0.98083
 C5 C 0.00491 0.46299 1.02164
 C6 C 0.00959 0.50395 1.04188
 H7 H 0.01703 0.50389 1.07340
 H8 H -0.01732 0.50391 0.92903
 C9 C 0.45849 -0.00959 0.52011
 C10 C 0.46146 -0.00907 0.47769
 C11 C 0.50381 -0.00946 0.45653
 C12 C 0.54328 -0.00967 0.47740
 C13 C 0.54026 -0.00899 0.51990
 C14 C 0.49788 -0.00932 0.54100
 H15 H 0.49555 -0.00913 0.57367
 H16 H 0.50597 -0.00938 0.42384
 C17 C 0.10960 0.00794 0.26017
 H18 H 0.11219 0.01083 0.22768
 C19 C 0.14856 0.00740 0.28137
 H20 H 0.18135 0.00983 0.26521
 C21 C 0.06370 0.00111 0.32098
 H22 H 0.03057 -0.00096 0.33630
 C23 C 0.10190 0.00048 0.34338
 H24 H 0.09813 -0.00240 0.37589
 N25 N 0.06828 0.00409 0.28007
 C26 C -0.01606 -0.05599 0.19210
 H27 H -0.04282 -0.03128 0.19130
 C28 C -0.01788 -0.09555 0.16948
 H29 H -0.04602 -0.10134 0.15104
 C30 C 0.05256 -0.07962 0.21818
 H31 H 0.07941 -0.07394 0.23788
 C32 C 0.05203 -0.11953 0.19608
 H33 H 0.07870 -0.14415 0.19856
 Zn34 Zn 0.01791 0.00384 0.24807
 N35 N 0.01894 -0.04868 0.21569
 C36 C 0.02088 0.05529 0.17515
 N37 N 0.02130 0.05665 0.21603
 C38 C 0.02445 0.09643 0.23595
 C39 C 0.02571 0.13711 0.21483
 C40 C 0.02209 0.09530 0.15282
 C41 C -0.04654 -0.03317 0.30439
 C42 C -0.08774 -0.03592 0.32713
 C43 C -0.10864 0.03624 0.30010
 C44 C -0.06714 0.03767 0.27790
 N45 N -0.03695 0.00336 0.28055
 H46 H 0.01927 0.02333 0.15981
 H47 H 0.02526 0.09646 0.26841
 H48 H 0.02744 0.16866 0.23102
 H49 H 0.02108 0.09411 0.12035
 H50 H -0.02234 -0.06040 0.30531
 H51 H -0.09531 -0.06524 0.34580
 H52 H -0.13264 0.06348 0.29749
 H53 H -0.05959 0.06580 0.25800
 C54 C 0.01646 -0.12762 0.17162
 C55 C 0.14468 0.00333 0.32330
 C56 C -0.11907 -0.00090 0.32484
 C57 C 0.02416 0.13655 0.17294
 C58 C -0.02463 0.09584 0.76418
 H59 H -0.02533 0.09607 0.73171
 C60 C -0.02602 0.13639 0.78540
 H61 H -0.02775 0.16805 0.76928
 C62 C -0.02116 0.05432 0.82490
 H63 H -0.01955 0.02227 0.84017
 C64 C -0.02251 0.09420 0.84732
 H65 H -0.02159 0.09281 0.87979
 N66 N -0.02145 0.05594 0.78401
 C67 C 0.04674 -0.03359 0.69559
 H68 H 0.02264 -0.06081 0.69468
 C69 C 0.08786 -0.03623 0.67271
 H70 H 0.09550 -0.06545 0.65398
 C71 C 0.06709 0.03715 0.72208
 H72 H 0.05947 0.06520 0.74202
 C73 C 0.10853 0.03583 0.69976
 H74 H 0.13240 0.06307 0.70232
 Zn75 Zn -0.01785 0.00327 0.75190
 N76 N 0.03704 0.00285 0.71947
 C77 C -0.06339 0.00100 0.67890
 N78 N -0.06813 0.00371 0.71981
 C79 C -0.10954 0.00744 0.73961
 C80 C -0.14841 0.00703 0.71828
 C81 C -0.10149 0.00051 0.65638
 C82 C 0.01622 -0.05675 0.80791
 C83 C 0.01806 -0.09628 0.83068
 C84 C -0.05176 -0.12011 0.80405
 C85 C -0.05231 -0.08022 0.78181
 N86 N -0.01875 -0.04936 0.78426
 H87 H -0.03021 -0.00096 0.66366
 H88 H -0.11226 0.01014 0.77210
 H89 H -0.18127 0.00936 0.73435
 H90 H -0.09758 -0.00217 0.62387
 H91 H 0.04293 -0.03210 0.80869
 H92 H 0.04615 -0.10211 0.84920
 H93 H -0.07840 -0.14465 0.80163
 H94 H -0.07913 -0.07448 0.76205
 C95 C 0.11902 -0.00119 0.67494
 C96 C -0.02458 0.13557 0.82729
 C97 C -0.01624 -0.12825 0.82861
 C98 C -0.14435 0.00323 0.67634
 C99 C 0.01242 -0.24950 0.11439
 C100 C 0.03031 -0.25510 0.07420
 C101 C 0.03141 -0.29863 0.05636
 C102 C 0.01323 -0.33603 0.07836
 C103 C -0.00502 -0.33038 0.11840
 C104 C -0.00529 -0.28702 0.13654
 C105 C -0.02361 -0.28225 0.17668
 C106 C -0.04120 -0.31923 0.19825
 C107 C -0.04098 -0.36160 0.18048
 C108 C -0.02315 -0.36732 0.14102
 C109 C 0.05045 -0.30358 0.01647
 C110 C 0.06665 -0.26639 -0.00561
 C111 C 0.06480 -0.22370 0.01159
 C112 C 0.04714 -0.21796 0.05112
 C113 C 0.01127 -0.37976 0.05909
 C114 C 0.00863 -0.41548 0.04220
 C115 C 0.01334 -0.20555 0.13348
 C116 C 0.01450 -0.16964 0.15030
 H117 H -0.02465 -0.24996 0.19180
 H118 H -0.05510 -0.31496 0.22892
 H119 H -0.05468 -0.39023 0.19737
 H120 H -0.02361 -0.40097 0.12854
 H121 H 0.05249 -0.33608 0.00175
 H122 H 0.08045 -0.27071 -0.03630
 H123 H 0.07725 -0.19489 -0.00574
 H124 H 0.04658 -0.18413 0.06326
 C125 C 0.02111 0.25819 0.11492
 C126 C 0.00494 0.29593 0.13764
 C127 C 0.00331 0.33904 0.11912
 C128 C 0.01819 0.34424 0.07810
 C129 C 0.03519 0.30670 0.05558
 C130 C 0.03593 0.26339 0.07386
 C131 C 0.05142 0.22607 0.05034
 C132 C 0.06606 0.23144 0.00995
 C133 C 0.06615 0.27393 -0.00772
 C134 C 0.05120 0.31129 0.01476
 C135 C -0.01333 0.37619 0.14232
 C136 C -0.02788 0.37091 0.18272
 C137 C -0.02622 0.32877 0.20088
 C138 C -0.01005 0.29160 0.17876
 C139 C 0.01420 0.38773 0.05861
 C140 C 0.01009 0.42338 0.04180
 C141 C 0.02273 0.21426 0.13408
 C142 C 0.02368 0.17842 0.15114
 H143 H 0.05218 0.19240 0.06284
 H144 H 0.07754 0.20250 -0.00769
 H145 H 0.07763 0.27795 -0.03908
 H146 H 0.05178 0.34363 -0.00034
 H147 H -0.01515 0.40967 0.12956
 H148 H -0.04047 0.39968 0.20004
 H149 H -0.03755 0.32484 0.23228
 H150 H -0.00949 0.25953 0.19425
 C151 C 0.24465 -0.00668 0.61662
 C152 C 0.28079 0.01348 0.63568
 C153 C 0.32520 0.01171 0.61705
 C154 C 0.33327 -0.01047 0.57964
 C155 C 0.29723 -0.03110 0.56081
 C156 C 0.25267 -0.02857 0.57904
 C157 C 0.21695 -0.04799 0.55895
 C158 C 0.22508 -0.06954 0.52197
 C159 C 0.26877 -0.07274 0.50449
 C160 C 0.30460 -0.05409 0.52370
 C161 C 0.36074 0.03235 0.63652
 C162 C 0.35264 0.05409 0.67339
 C163 C 0.30923 0.05578 0.69165
 C164 C 0.27359 0.03578 0.67316
 C165 C 0.37824 -0.01056 0.55976
 C166 C 0.41514 -0.01018 0.54239
 C167 C 0.19946 -0.00531 0.63609
 C168 C 0.16245 -0.00375 0.65324
 H169 H 0.18243 -0.04655 0.57148
 H170 H 0.19734 -0.08397 0.50688
 H171 H 0.27495 -0.08958 0.47580
 H172 H 0.33797 -0.05737 0.50888
 H173 H 0.39512 0.03183 0.62354
 H174 H 0.38021 0.06967 0.68788
 H175 H 0.30310 0.07271 0.72030
 H176 H 0.24041 0.03810 0.68853
 C177 C -0.26037 -0.00213 0.61666
 C178 C -0.29846 -0.02360 0.63603
 C179 C -0.33997 -0.02452 0.61714
 C180 C -0.34326 -0.00366 0.57918
 C181 C -0.30525 0.01807 0.55993
 C182 C -0.26348 0.01815 0.57840
 C183 C -0.22556 0.03866 0.55793
 C184 C -0.22890 0.05878 0.52036
 C185 C -0.26996 0.05950 0.50265
 C186 C -0.30788 0.03973 0.52221
 C187 C -0.37751 -0.04638 0.63696
 C188 C -0.37417 -0.06670 0.67443
 C189 C -0.33361 -0.06573 0.69295
 C190 C -0.29609 -0.04447 0.67412
 C191 C -0.38529 -0.00557 0.55939
 C192 C -0.41963 -0.00727 0.54211
 C193 C -0.21843 -0.00008 0.63664
 C194 C -0.18426 0.00156 0.65419
 H195 H -0.19295 0.03914 0.57062
 H196 H -0.19950 0.07407 0.50500
 H197 H -0.27244 0.07527 0.47352
 H198 H -0.33906 0.04110 0.50721
 H199 H -0.40982 -0.04793 0.62379
 H200 H -0.40322 -0.08325 0.68918
 H201 H -0.33118 -0.08155 0.72207
 H202 H -0.26526 -0.04471 0.68972
 C203 C -0.01234 -0.24983 0.88667
 C204 C 0.00525 -0.28758 0.86478
 C205 C 0.00494 -0.33082 0.88323
 C206 C -0.01324 -0.33613 0.92334
 C207 C -0.03130 -0.29850 0.94509
 C208 C -0.03016 -0.25508 0.92693
 C209 C -0.04687 -0.21771 0.94976
 C210 C -0.06446 -0.22312 0.98935
 C211 C -0.06635 -0.26569 1.00687
 C212 C -0.05028 -0.30311 0.98504
 C213 C 0.02295 -0.36800 0.86085
 C214 C 0.04072 -0.36262 0.82133
 C215 C 0.04098 -0.32036 0.80325
 C216 C 0.02350 -0.28315 0.82457
 C217 C -0.01137 -0.37978 0.94290
 C218 C -0.00880 -0.41545 0.95997
 C219 C -0.01321 -0.20600 0.86727
 C220 C -0.01434 -0.17018 0.85019
 H221 H -0.04627 -0.18396 0.93737
 H222 H -0.07683 -0.19413 1.00649
 H223 H -0.08010 -0.26975 1.03761
 H224 H -0.05234 -0.33551 1.00000
 H225 H 0.02337 -0.40158 0.87358
 H226 H 0.05433 -0.39143 0.80464
 H227 H 0.05483 -0.31635 0.77254
 H228 H 0.02458 -0.25095 0.80922
 C229 C -0.02176 0.25676 0.88573
 C230 C -0.03583 0.26151 0.92700
 C231 C -0.03508 0.30465 0.94549
 C232 C -0.01886 0.34247 0.92294
 C233 C -0.00475 0.33772 0.88171
 C234 C -0.00638 0.29478 0.86299
 C235 C 0.00782 0.29090 0.82167
 C236 C 0.02324 0.32835 0.79952
 C237 C 0.02489 0.37032 0.81786
 C238 C 0.01111 0.37515 0.85847
 C239 C -0.05034 0.30878 0.98653
 C240 C -0.06455 0.27115 1.00902
 C241 C -0.06445 0.22884 0.99113
 C242 C -0.05054 0.22391 0.95053
 C243 C -0.01490 0.38580 0.94256
 C244 C -0.01080 0.42133 0.95942
 C245 C -0.02332 0.21300 0.86639
 C246 C -0.02420 0.17729 0.84921
 H247 H 0.00723 0.25897 0.80603
 H248 H 0.03397 0.32476 0.76795
 H249 H 0.03689 0.39931 0.80053
 H250 H 0.01289 0.40852 0.87137
 H251 H -0.05090 0.34098 1.00180
 H252 H -0.07544 0.27484 1.04054
 H253 H -0.07535 0.19968 1.00876
 H254 H -0.05128 0.19036 0.93787
 C255 C -0.24499 -0.00681 0.38251
 C256 C -0.28107 0.01367 0.36344
 C257 C -0.32556 0.01183 0.38188
 C258 C -0.33378 -0.01074 0.41912
 C259 C -0.29782 -0.03176 0.43793
 C260 C -0.25318 -0.02914 0.41990
 C261 C -0.21755 -0.04893 0.44001
 C262 C -0.22583 -0.07090 0.47681
 C263 C -0.26960 -0.07418 0.49409
 C264 C -0.30534 -0.05518 0.47486
 C265 C -0.36102 0.03281 0.36240
 C266 C -0.35277 0.05495 0.32570
 C267 C -0.30928 0.05672 0.30762
 C268 C -0.27371 0.03639 0.32613
 C269 C -0.37880 -0.01076 0.43891
 C270 C -0.41569 -0.01030 0.45631
 C271 C -0.19970 -0.00529 0.36327
 C272 C -0.16260 -0.00361 0.34632
 H273 H -0.18297 -0.04743 0.42764
 H274 H -0.19816 -0.08560 0.49192
 H275 H -0.27589 -0.09135 0.52263
 H276 H -0.33877 -0.05854 0.48951
 H277 H -0.39546 0.03224 0.37523
 H278 H -0.38029 0.07079 0.31120
 H279 H -0.30304 0.07396 0.27911
 H280 H -0.24047 0.03878 0.31090
 C281 C 0.26114 -0.00232 0.38239
 C282 C 0.26469 0.01847 0.42031
 C283 C 0.30667 0.01838 0.43845
 C284 C 0.34444 -0.00386 0.41922
 C285 C 0.34071 -0.02526 0.38161
 C286 C 0.29899 -0.02432 0.36304
 C287 C 0.29617 -0.04573 0.32529
 C288 C 0.33346 -0.06750 0.30648
 C289 C 0.37422 -0.06848 0.32469
 C290 C 0.37801 -0.04765 0.36182
 C291 C 0.30973 0.04053 0.47582
 C292 C 0.27204 0.06081 0.49539
 C293 C 0.23078 0.06011 0.47802
 C294 C 0.22701 0.03949 0.44078
 C295 C 0.38669 -0.00576 0.43869
 C296 C 0.42121 -0.00742 0.45573
 C297 C 0.21902 -0.00018 0.36267
 C298 C 0.18471 0.00155 0.34530
 H299 H 0.26518 -0.04599 0.30995
 H300 H 0.33069 -0.08372 0.27764
 H301 H 0.40309 -0.08543 0.30996
 H302 H 0.41045 -0.04922 0.37475
 H303 H 0.34107 0.04190 0.49056
 H304 H 0.27485 0.07696 0.52427
 H305 H 0.20156 0.07578 0.49340
 H306 H 0.19426 0.03999 0.42836
   
