data_POSCAR
  _audit_creation_date              2014-09-24
  _audit_creation_method            'ToBaCCo'
  _symmetry_space_group_name_H-M    'P1'
  _symmetry_Int_Tables_number       1
  _symmetry_cell_setting            triclinic
  loop_
  _symmetry_equiv_pos_as_xyz
 x,y,z
_cell_length_a 44.8316
_cell_length_b 25.7237
_cell_length_c 18.4231
_cell_angle_alpha 90.053400
_cell_angle_beta 89.872400
_cell_angle_gamma 90.056200
loop_
  _atom_site_label
  _atom_site_type_symbol
  _atom_site_fract_x
  _atom_site_fract_y
  _atom_site_fract_z
O1 O 0.73555 0.30840 0.56832
 O2 O 0.78691 0.26039 0.42722
 O3 O 0.73555 0.30832 0.42708
 O4 O 0.78684 0.26043 0.56790
 O5 O 0.76349 0.18465 0.56797
 O6 O 0.71221 0.23255 0.42713
 O7 O 0.76358 0.18461 0.42726
 O8 O 0.71219 0.23264 0.56840
 Cu9 Cu 0.76352 0.29207 0.49760
 Cu10 Cu 0.73547 0.20101 0.49767
 C11 C 0.71512 0.27872 0.59196
 C12 C 0.78414 0.21419 0.40404
 C13 C 0.71512 0.27862 0.40362
 C14 C 0.78401 0.21428 0.59116
 O15 O 0.28605 0.76081 0.43075
 O16 O 0.23470 0.80948 0.57160
 O17 O 0.28594 0.76121 0.57140
 O18 O 0.23488 0.80919 0.43032
 O19 O 0.21134 0.73360 0.43055
 O20 O 0.26243 0.68559 0.57166
 O21 O 0.21118 0.73389 0.57185
 O22 O 0.26252 0.68520 0.43099
 Cu23 Cu 0.26272 0.79285 0.50101
 Cu24 Cu 0.23444 0.70199 0.50131
 C25 C 0.28315 0.71460 0.40768
 C26 C 0.21418 0.78000 0.59526
 C27 C 0.28303 0.71510 0.59471
 C28 C 0.21442 0.77958 0.40683
 O29 O 0.26295 0.31534 -0.57445
 O30 O 0.21165 0.26745 -0.43305
 O31 O 0.26297 0.31550 -0.43380
 O32 O 0.21156 0.26720 -0.57438
 O33 O 0.23488 0.19150 -0.57444
 O34 O 0.28628 0.23976 -0.43389
 O35 O 0.23498 0.19174 -0.43315
 O36 O 0.28626 0.23961 -0.57451
 Cu37 Cu 0.23488 0.29896 -0.50397
 Cu38 Cu 0.26290 0.20797 -0.50406
 C39 C 0.28351 0.28578 -0.59765
 C40 C 0.21460 0.22145 -0.40939
 C41 C 0.28349 0.28595 -0.41067
 C42 C 0.21443 0.22109 -0.59786
 O43 O -0.23751 0.81522 -0.56867
 O44 O -0.28898 0.76668 -0.42800
 O45 O -0.23766 0.81489 -0.42805
 O46 O -0.28878 0.76685 -0.56934
 O47 O -0.26535 0.69124 -0.56961
 O48 O -0.21426 0.73923 -0.42837
 O49 O -0.26557 0.69106 -0.42831
 O50 O -0.21409 0.73958 -0.56896
 Cu51 Cu -0.26565 0.79849 -0.49848
 Cu52 Cu -0.23752 0.70759 -0.49884
 C53 C -0.21689 0.78579 -0.59192
 C54 C -0.28605 0.72059 -0.40462
 C55 C -0.21711 0.78537 -0.40502
 C56 C -0.28576 0.72085 -0.59310
 O57 O -0.04096 0.91171 0.13517
 O58 O -0.07403 0.95709 0.06440
 C59 C -0.06773 0.92484 0.11609
 O60 O 0.04246 1.09462 0.12736
 O61 O 0.07542 1.04529 0.06099
 C62 C 0.06921 1.08071 0.10874
 O63 O -0.04104 1.09049 0.13375
 O64 O -0.07405 1.04390 0.06407
 C65 C -0.06779 1.07681 0.11504
 O66 O 0.04234 0.90644 0.12701
 O67 O 0.07538 0.95578 0.06077
 C68 C 0.06911 0.92038 0.10846
 Zr69 Zr 0.00057 0.93437 0.09031
 O70 O 0.00161 0.92611 0.20444
 O71 O -0.00061 0.85279 0.07718
 Zr72 Zr 0.00063 1.06612 0.09137
 O73 O 0.00345 1.06712 0.20606
 O74 O -0.00255 1.14824 0.08882
 O75 O -0.02585 1.00023 0.10541
 O76 O 0.02638 1.00026 0.10440
 O77 O 0.04247 0.90606 -0.12752
 O78 O 0.07543 0.95592 -0.06203
 C79 C 0.06922 0.92026 -0.10942
 O80 O -0.04094 1.09033 -0.13399
 O81 O -0.07400 1.04391 -0.06404
 C82 C -0.06770 1.07672 -0.11513
 O83 O 0.04240 1.09509 -0.12754
 O84 O 0.07530 1.04575 -0.06164
 C85 C 0.06912 1.08120 -0.10917
 O86 O -0.04102 0.91047 -0.13413
 O87 O -0.07404 0.95699 -0.06415
 C88 C -0.06777 0.92411 -0.11521
 Zr89 Zr 0.00062 0.93475 -0.09178
 O90 O 0.00390 0.93343 -0.20642
 O91 O -0.00234 0.85262 -0.08897
 Zr92 Zr 0.00066 1.06640 -0.09127
 O93 O 0.00397 1.06855 -0.20585
 O94 O -0.00273 1.14848 -0.08719
 Zr95 Zr -0.04412 1.00044 -0.00009
 Zr96 Zr 0.04515 1.00055 -0.00036
 O97 O 0.02645 1.00062 -0.10508
 O98 O -0.02590 1.00057 -0.10581
 O99 O 0.02746 0.92459 -0.00076
 O100 O -0.02552 1.07561 0.00016
 O101 O -0.02574 0.92519 -0.00050
 O102 O 0.02744 1.07646 -0.00000
 H103 H 0.03966 1.00030 0.14731
 H104 H -0.03911 1.10597 0.00021
 H105 H 0.03970 1.00066 -0.14817
 H106 H -0.03945 0.89494 -0.00031
 H107 H 0.01520 1.16162 0.06284
 H108 H 0.01524 1.16186 -0.06231
 H109 H -0.01114 1.04427 -0.22533
 H110 H -0.01182 0.95653 -0.22563
 H111 H 0.01413 0.83984 -0.05808
 H112 H -0.00108 0.83807 0.12684
 H113 H 0.00458 0.96122 0.22485
 H114 H -0.01253 1.04424 0.22497
 O115 O 0.45871 0.41023 0.13356
 O116 O 0.42566 0.45584 0.06299
 C117 C 0.43194 0.42340 0.11445
 O118 O 0.54205 0.59338 0.12717
 O119 O 0.57505 0.54430 0.06059
 C120 C 0.56881 0.57958 0.10850
 O121 O 0.45858 0.58905 0.13351
 O122 O 0.42561 0.54266 0.06346
 C123 C 0.43184 0.57541 0.11468
 O124 O 0.54203 0.40514 0.12583
 O125 O 0.57505 0.45473 0.05992
 C126 C 0.56880 0.41919 0.10742
 Zr127 Zr 0.50027 0.43312 0.08909
 O128 O 0.50116 0.42449 0.20319
 O129 O 0.49916 0.35159 0.07538
 Zr130 Zr 0.50026 0.56489 0.09101
 O131 O 0.50304 0.56540 0.20571
 O132 O 0.49703 0.64701 0.08915
 O133 O 0.47381 0.49891 0.10453
 O134 O 0.52604 0.49902 0.10367
 O135 O 0.54226 0.40559 -0.12868
 O136 O 0.57517 0.45530 -0.06280
 C137 C 0.56900 0.41974 -0.11035
 O138 O 0.45879 0.58995 -0.13411
 O139 O 0.42572 0.54321 -0.06457
 C140 C 0.43203 0.57626 -0.11532
 O141 O 0.54222 0.59452 -0.12756
 O142 O 0.57510 0.54493 -0.06192
 C143 C 0.56895 0.58054 -0.10925
 O144 O 0.45880 0.41009 -0.13586
 O145 O 0.42572 0.45628 -0.06563
 C146 C 0.43203 0.42365 -0.11700
 Zr147 Zr 0.50039 0.43415 -0.09301
 O148 O 0.50376 0.43309 -0.20763
 O149 O 0.49740 0.35201 -0.09066
 Zr150 Zr 0.50039 0.56580 -0.09166
 O151 O 0.50373 0.56830 -0.20622
 O152 O 0.49703 0.64787 -0.08715
 Zr153 Zr 0.45559 0.49947 -0.00102
 Zr154 Zr 0.54483 0.49970 -0.00105
 O155 O 0.52619 0.50008 -0.10583
 O156 O 0.47386 0.50000 -0.10669
 O157 O 0.52719 0.42371 -0.00197
 O158 O 0.47417 0.57467 -0.00021
 O159 O 0.47399 0.42424 -0.00187
 O160 O 0.52711 0.57559 -0.00024
 H161 H 0.53932 0.49897 0.14657
 H162 H 0.46058 0.60502 0.00008
 H163 H 0.53948 0.50025 -0.14887
 H164 H 0.46028 0.39399 -0.00200
 H165 H 0.51469 0.66051 0.06293
 H166 H 0.51501 0.66117 -0.06222
 H167 H 0.48849 0.54435 -0.22588
 H168 H 0.48823 0.45661 -0.22676
 H169 H 0.51389 0.33912 -0.05992
 H170 H 0.49864 0.33669 0.12493
 H171 H 0.50464 0.45939 0.22383
 H172 H 0.48712 0.54228 0.22437
 C173 C 0.30360 0.30452 0.35377
 C174 C 0.32208 0.32168 0.31264
 C175 C 0.34439 0.34235 0.26686
 C176 C 0.36393 0.36041 0.22959
 C177 C 0.38729 0.38198 0.18789
 C178 C 0.40755 0.40073 0.15369
 C179 C -0.19570 0.80577 0.35674
 C180 C -0.17725 0.82309 0.31565
 C181 C -0.15501 0.84390 0.26973
 C182 C -0.13555 0.86203 0.23224
 C183 C -0.11230 0.88363 0.19018
 C184 C -0.09210 0.90232 0.15566
 C185 C 0.69367 0.70143 0.35383
 C186 C 0.67589 0.68447 0.31090
 C187 C 0.65449 0.66384 0.26273
 C188 C 0.63568 0.64557 0.22362
 C189 C 0.61302 0.62339 0.18045
 C190 C 0.59312 0.60377 0.14608
 C191 C 0.19478 1.20259 0.35242
 C192 C 0.17685 1.18558 0.30983
 C193 C 0.15527 1.16495 0.26206
 C194 C 0.13633 1.14669 0.22327
 C195 C 0.11354 1.12453 0.18040
 C196 C 0.09357 1.10492 0.14621
 C197 C 0.69444 0.29812 -0.35508
 C198 C 0.67656 0.31506 -0.31224
 C199 C 0.65503 0.33564 -0.26419
 C200 C 0.63612 0.35387 -0.22520
 C201 C 0.61335 0.37600 -0.18215
 C202 C 0.59338 0.39558 -0.14787
 C203 C 0.19458 0.79858 -0.35478
 C204 C 0.17671 0.81561 -0.31192
 C205 C 0.15519 0.83622 -0.26381
 C206 C 0.13629 0.85443 -0.22472
 C207 C 0.11354 0.87653 -0.18152
 C208 C 0.09358 0.89609 -0.14709
 C209 C 0.30411 0.69533 -0.35384
 C210 C 0.32250 0.67819 -0.31274
 C211 C 0.34471 0.65756 -0.26695
 C212 C 0.36417 0.63951 -0.22971
 C213 C 0.38745 0.61792 -0.18810
 C214 C 0.40766 0.59910 -0.15411
 C215 C -0.19495 1.19465 -0.35712
 C216 C -0.17667 1.17764 -0.31561
 C217 C -0.15461 1.15717 -0.26917
 C218 C -0.13530 1.13929 -0.23129
 C219 C -0.11217 1.11790 -0.18892
 C220 C -0.09204 1.09929 -0.15437
 C221 C 0.69435 0.70210 -0.35462
 C222 C 0.67648 0.68515 -0.31170
 C223 C 0.65496 0.66462 -0.26350
 C224 C 0.63606 0.64645 -0.22436
 C225 C 0.61330 0.62438 -0.18113
 C226 C 0.59333 0.60479 -0.14675
 C227 C 0.19403 1.20219 -0.35607
 C228 C 0.17627 1.18540 -0.31283
 C229 C 0.15487 1.16501 -0.26427
 C230 C 0.13606 1.14692 -0.22484
 C231 C 0.11339 1.12492 -0.18135
 C232 C 0.09347 1.10539 -0.14680
 C233 C 0.30457 0.30570 -0.35907
 C234 C 0.32290 0.32278 -0.31764
 C235 C 0.34501 0.34329 -0.27128
 C236 C 0.36437 0.36118 -0.23344
 C237 C 0.38754 0.38255 -0.19106
 C238 C 0.40768 0.40113 -0.15643
 C239 C -0.19600 0.80515 -0.35358
 C240 C -0.17756 0.82230 -0.31252
 C241 C -0.15528 0.84293 -0.26680
 C242 C -0.13577 0.86096 -0.22961
 C243 C -0.11243 0.88253 -0.18806
 C244 C -0.09217 0.90131 -0.15407
 C245 C 0.30423 0.69464 0.35606
 C246 C 0.32258 0.67733 0.31467
 C247 C 0.34469 0.65655 0.26840
 C248 C 0.36406 0.63842 0.23066
 C249 C 0.38726 0.61680 0.18843
 C250 C 0.40744 0.59805 0.15394
 C251 C -0.19582 1.19550 0.35530
 C252 C -0.17742 1.17841 0.31394
 C253 C -0.15519 1.15785 0.26784
 C254 C -0.13571 1.13986 0.23031
 C255 C -0.11242 1.11834 0.18838
 C256 C -0.09219 1.09959 0.15412
 C257 C 0.69439 0.29802 0.35096
 C258 C 0.67645 0.31491 0.30842
 C259 C 0.65485 0.33541 0.26071
 C260 C 0.63590 0.35355 0.22196
 C261 C 0.61310 0.37557 0.17912
 C262 C 0.59314 0.39507 0.14493
 C263 C 0.19387 0.79897 0.35380
 C264 C 0.17611 0.81589 0.31088
 C265 C 0.15473 0.83645 0.26272
 C266 C 0.13594 0.85465 0.22361
 C267 C 0.11329 0.87675 0.18043
 C268 C 0.09341 0.89629 0.14605
   
