data_POSCAR
  _audit_creation_date              2014-09-24
  _audit_creation_method            'ToBaCCo'
  _symmetry_space_group_name_H-M    'P1'
  _symmetry_Int_Tables_number       1
  _symmetry_cell_setting            triclinic
  loop_
  _symmetry_equiv_pos_as_xyz
 x,y,z
_cell_length_a 35.1717
_cell_length_b 35.1405
_cell_length_c 35.1772
_cell_angle_alpha 90.039600
_cell_angle_beta 90.063000
_cell_angle_gamma 89.980300
loop_
  _atom_site_label
  _atom_site_type_symbol
  _atom_site_fract_x
  _atom_site_fract_y
  _atom_site_fract_z
O1 O 0.22000 1.03797 0.03658
 O2 O 0.21861 0.96599 -0.03958
 O3 O 0.21677 0.96393 0.03548
 O4 O 0.21939 1.04023 -0.03597
 O5 O 0.28220 1.03777 -0.03594
 O6 O 0.27946 0.95983 0.03411
 O7 O 0.28138 0.96402 -0.03894
 O8 O 0.28269 1.03395 0.03882
 Cu9 Cu 0.21231 1.00186 -0.00093
 Cu10 Cu 0.28776 0.99886 -0.00033
 C11 C 0.25167 1.04822 0.05052
 C12 C 0.24980 0.95293 -0.05244
 C13 C 0.24755 0.94886 0.04685
 C14 C 0.25124 1.05219 -0.04782
 O15 O 0.72077 0.53792 0.53629
 O16 O 0.71793 0.46510 0.46090
 O17 O 0.71672 0.46374 0.53678
 O18 O 0.72008 0.53910 0.46416
 O19 O 0.78280 0.53493 0.46324
 O20 O 0.77939 0.45937 0.53582
 O21 O 0.78061 0.46089 0.46255
 O22 O 0.78346 0.53342 0.53783
 Cu23 Cu 0.71242 0.50117 0.49955
 Cu24 Cu 0.78786 0.49694 0.49992
 C25 C 0.75271 0.54831 0.54948
 C26 C 0.74886 0.45086 0.44874
 C27 C 0.74741 0.44895 0.54883
 C28 C 0.75205 0.55007 0.45169
 O29 O 0.78056 0.96130 1.03873
 O30 O 0.78141 1.03354 0.96283
 O31 O 0.78218 1.03543 1.03797
 O32 O 0.78132 0.95944 0.96590
 O33 O 0.71866 0.96334 0.96282
 O34 O 0.71943 1.03480 1.03953
 O35 O 0.71879 1.03753 0.96584
 O36 O 0.71778 0.96080 1.03707
 Cu37 Cu 0.78773 0.99771 1.00136
 Cu38 Cu 0.71236 0.99921 1.00127
 C39 C 0.74896 0.94813 1.05024
 C40 C 0.75023 1.04803 0.95168
 C41 C 0.75100 1.04749 1.05168
 C42 C 0.74984 0.94863 0.95200
 O43 O 0.27815 0.46033 0.53528
 O44 O 0.28204 0.53764 0.46481
 O45 O 0.28190 0.53431 0.53996
 O46 O 0.28033 0.46365 0.46275
 O47 O 0.21764 0.46762 0.46042
 O48 O 0.21922 0.53834 0.53789
 O49 O 0.21930 0.54159 0.46515
 O50 O 0.21542 0.46430 0.53540
 Cu51 Cu 0.28699 0.49906 0.50086
 Cu52 Cu 0.21153 0.50295 0.49964
 C53 C 0.24601 0.44916 0.54719
 C54 C 0.25134 0.55269 0.45304
 C55 C 0.25090 0.54838 0.55198
 C56 C 0.24875 0.45352 0.44860
 O57 O 1.03424 0.27989 0.03808
 O58 O 0.96178 0.28218 -0.03742
 O59 O 0.96133 0.27981 0.03684
 O60 O 1.03643 0.28085 -0.03602
 O61 O 1.03277 0.21825 -0.04074
 O62 O 0.96130 0.21690 0.03554
 O63 O 0.95938 0.21937 -0.03733
 O64 O 1.03626 0.21716 0.03382
 Cu65 Cu 0.99853 0.28704 0.00029
 Cu66 Cu 0.99766 0.21154 -0.00218
 C67 C 1.04769 0.24813 0.04861
 C68 C 0.94761 0.25123 -0.04965
 C69 C 0.94875 0.24811 0.04867
 C70 C 1.04691 0.24975 -0.05116
 O71 O 0.53960 0.78085 0.53734
 O72 O 0.46368 0.78464 0.46555
 O73 O 0.46583 0.78181 0.53964
 O74 O 0.53848 0.78171 0.46402
 O75 O 0.53766 0.71882 0.46353
 O76 O 0.46037 0.71940 0.53416
 O77 O 0.46480 0.72191 0.46080
 O78 O 0.53481 0.71816 0.53877
 Cu79 Cu 0.50198 0.78859 0.50169
 Cu80 Cu 0.49947 0.71318 0.49940
 C81 C 0.54955 0.74893 0.55082
 C82 C 0.45186 0.75400 0.45050
 C83 C 0.45026 0.75064 0.54918
 C84 C 0.55060 0.75017 0.45116
 O85 O 0.04022 0.78014 -0.03536
 O86 O -0.03586 0.77959 0.03657
 O87 O 0.03703 0.77935 0.03834
 O88 O -0.03432 0.78154 -0.03841
 O89 O -0.03623 0.71875 -0.03866
 O90 O 0.03838 0.71655 0.03495
 O91 O -0.03646 0.71672 0.03518
 O92 O 0.03754 0.71745 -0.03887
 Cu93 Cu 0.00162 0.78651 0.00017
 Cu94 Cu 0.00068 0.71106 -0.00189
 C95 C 0.05186 0.74889 -0.04939
 C96 C -0.04862 0.74801 0.04853
 C97 C 0.05011 0.74757 0.04934
 C98 C -0.04764 0.75055 -0.05149
 O99 O 0.53672 0.28086 0.46319
 O100 O 0.46561 0.28094 0.53996
 O101 O 0.53914 0.27995 0.53571
 O102 O 0.46178 0.28388 0.46523
 O103 O 0.46283 0.22119 0.46029
 O104 O 0.53426 0.21724 0.53700
 O105 O 0.45987 0.21858 0.53432
 O106 O 0.53571 0.21794 0.46257
 Cu107 Cu 0.50060 0.28782 0.50101
 Cu108 Cu 0.49792 0.21238 0.49858
 C109 C 0.54885 0.24928 0.45047
 C110 C 0.45043 0.24973 0.54991
 C111 C 0.54956 0.24791 0.54859
 C112 C 0.44993 0.25331 0.45001
 O113 O 1.03985 0.03396 0.22101
 O114 O 0.95973 -0.03384 0.22045
 O115 O 0.96616 0.04017 0.21979
 O116 O 1.03351 -0.03990 0.21939
 O117 O 1.03876 -0.03518 0.28182
 O118 O 0.96091 0.03499 0.28218
 O119 O 0.96451 -0.03894 0.28283
 O120 O 1.03458 0.03888 0.28342
 Cu121 Cu 0.99979 0.00010 0.21378
 Cu122 Cu 0.99972 -0.00020 0.28895
 C123 C 1.04990 0.04888 0.25236
 C124 C 0.94920 -0.04880 0.25162
 C125 C 0.95124 0.05040 0.25099
 C126 C 1.04857 -0.05023 0.25049
 O127 O 0.54154 0.53241 0.72218
 O128 O 0.45842 0.46825 0.72145
 O129 O 0.46787 0.54194 0.72105
 O130 O 0.53191 0.45879 0.72028
 O131 O 0.53735 0.46311 0.78272
 O132 O 0.46243 0.53654 0.78338
 O133 O 0.46344 0.46248 0.78380
 O134 O 0.53651 0.53719 0.78461
 Cu135 Cu 0.49993 0.50045 0.71486
 Cu136 Cu 0.49994 0.49981 0.79001
 C137 C 0.55233 0.54660 0.75362
 C138 C 0.44772 0.45347 0.75260
 C139 C 0.45321 0.55247 0.75229
 C140 C 0.54648 0.44765 0.75137
 O141 O 0.96607 1.04128 0.77992
 O142 O 1.03198 0.95948 0.77899
 O143 O 1.04009 1.03326 0.78101
 O144 O 0.95839 0.96770 0.78032
 O145 O 0.96285 0.96344 0.71780
 O146 O 1.03558 1.03883 0.71860
 O147 O 1.03690 0.96496 0.71661
 O148 O 0.96173 1.03777 0.71740
 Cu149 Cu 0.99917 1.00042 0.78642
 Cu150 Cu 0.99919 1.00129 0.71123
 C151 C 0.95179 1.05273 0.74872
 C152 C 1.04648 0.94912 0.74757
 C153 C 1.05097 1.04803 0.74996
 C154 C 0.94758 0.95349 0.74896
 O155 O 0.46487 0.53676 0.28091
 O156 O 0.53549 0.45952 0.27713
 O157 O 0.54021 0.53360 0.28139
 O158 O 0.46311 0.46287 0.27925
 O159 O 0.46109 0.46690 0.21656
 O160 O 0.53845 0.53778 0.21873
 O161 O 0.53595 0.46366 0.21442
 O162 O 0.46555 0.54079 0.21820
 Cu163 Cu 0.50111 0.49832 0.28607
 Cu164 Cu 0.50026 0.50235 0.21063
 C165 C 0.45314 0.55175 0.25018
 C166 C 0.54746 0.44835 0.24500
 C167 C 0.55239 0.54775 0.25051
 C168 C 0.44917 0.45272 0.24759
 O169 O 0.25375 0.15206 0.19805
 O170 O 0.29288 0.14223 0.25278
 O171 O 0.15191 0.19715 0.25474
 O172 O 0.13655 0.24807 0.28878
 O173 O 0.19562 0.24749 0.15077
 O174 O 0.24702 0.29161 0.13908
 O175 O 0.25142 0.30647 0.34593
 O176 O 0.20702 0.25482 0.35734
 O177 O 0.34801 0.25239 0.30070
 O178 O 0.35987 0.21138 0.24583
 O179 O 0.29993 0.35068 0.24580
 O180 O 0.24518 0.36106 0.20507
 O181 O 0.24787 0.35117 0.29929
 O182 O 0.20458 0.36007 0.24435
 O183 O 0.34618 0.30566 0.25105
 O184 O 0.35857 0.25191 0.20596
 O185 O 0.30300 0.25861 0.34663
 O186 O 0.25856 0.21344 0.36029
 O187 O 0.24869 0.19670 0.15144
 O188 O 0.29067 0.24961 0.13960
 O189 O 0.15044 0.24968 0.19706
 O190 O 0.14140 0.29423 0.25067
 O191 O 0.19789 0.15193 0.24859
 O192 O 0.25097 0.14233 0.29321
 Zr193 Zr 0.24901 0.18321 0.24910
 O194 O 0.28427 0.21717 0.28364
 Zr195 Zr 0.18121 0.24905 0.24863
 O196 O 0.21359 0.28591 0.28314
 Zr197 Zr 0.24719 0.24855 0.18103
 O198 O 0.28239 0.28539 0.21247
 Zr199 Zr 0.25142 0.25434 0.31679
 O200 O 0.21549 0.21675 0.28600
 Zr201 Zr 0.31698 0.25348 0.24944
 O202 O 0.28497 0.21620 0.21451
 Zr203 Zr 0.24886 0.31944 0.24840
 O204 O 0.21319 0.28554 0.21356
 O205 O 0.21277 0.21347 0.21364
 O206 O 0.28574 0.28989 0.28428
 C207 C 0.25208 0.16225 0.16301
 C208 C 0.16312 0.16240 0.25252
 C209 C 0.16094 0.24877 0.16206
 C210 C 0.24954 0.34102 0.33433
 C211 C 0.33762 0.25592 0.33551
 C212 C 0.33486 0.34028 0.24823
 H213 H 0.30007 0.20047 0.29987
 H214 H 0.29760 0.30095 0.19473
 H215 H 0.19668 0.19661 0.19784
 H216 H 0.19634 0.30139 0.29906
 H217 H 0.19097 0.23225 0.35212
 H218 H 0.14693 0.25851 0.31273
 H219 H 0.35354 0.27322 0.18831
 H220 H 0.31122 0.23290 0.14917
 H221 H 0.24522 0.19029 0.35167
 H222 H 0.22823 0.14629 0.30929
 H223 H 0.26315 0.35374 0.18473
 H224 H 0.22782 0.31061 0.14706
 H225 H 0.31319 0.15064 0.23523
 H226 H 0.35458 0.19212 0.26563
 H227 H 0.14776 0.31176 0.22959
 H228 H 0.18658 0.35525 0.26538
 O229 O 0.74744 0.84669 0.19487
 O230 O 0.70650 0.85824 0.24766
 O231 O 0.84823 0.80548 0.25435
 O232 O 0.86484 0.75598 0.28928
 O233 O 0.80497 0.74478 0.15256
 O234 O 0.75212 0.70466 0.14191
 O235 O 0.74803 0.70021 0.35021
 O236 O 0.79360 0.75042 0.35963
 O237 O 0.65329 0.74443 0.30253
 O238 O 0.64043 0.78865 0.24801
 O239 O 0.70167 0.65053 0.25746
 O240 O 0.75543 0.63858 0.21232
 O241 O 0.75627 0.65361 0.30606
 O242 O 0.79660 0.64123 0.25123
 O243 O 0.65509 0.69461 0.24888
 O244 O 0.64185 0.74873 0.20784
 O245 O 0.69809 0.75340 0.34836
 O246 O 0.74987 0.79510 0.35966
 O247 O 0.75175 0.79977 0.15031
 O248 O 0.70969 0.74604 0.14108
 O249 O 0.85025 0.75340 0.19805
 O250 O 0.85955 0.70800 0.25161
 O251 O 0.80176 0.84998 0.24670
 O252 O 0.74909 0.86056 0.28956
 Zr253 Zr 0.75112 0.81794 0.24714
 O254 O 0.71606 0.78555 0.28318
 Zr255 Zr 0.81965 0.75312 0.24964
 O256 O 0.78778 0.71806 0.28635
 Zr257 Zr 0.75332 0.74912 0.18238
 O258 O 0.71870 0.71355 0.21577
 Zr259 Zr 0.74973 0.75103 0.31847
 O260 O 0.78523 0.78682 0.28545
 Zr261 Zr 0.68381 0.74693 0.25095
 O262 O 0.71540 0.78275 0.21427
 Zr263 Zr 0.75256 0.68220 0.25381
 O264 O 0.78770 0.71436 0.21693
 O265 O 0.78753 0.78640 0.21295
 O266 O 0.71550 0.71326 0.28811
 C267 C 0.74869 0.83480 0.16038
 C268 C 0.83661 0.83998 0.25116
 C269 C 0.83966 0.74830 0.16343
 C270 C 0.75248 0.66526 0.34039
 C271 C 0.66359 0.74897 0.33731
 C272 C 0.66670 0.66029 0.25322
 H273 H 0.69970 0.80293 0.29801
 H274 H 0.70370 0.69692 0.19877
 H275 H 0.80346 0.80271 0.19647
 H276 H 0.80526 0.70360 0.30299
 H277 H 0.81291 0.76908 0.35117
 H278 H 0.85625 0.74311 0.31273
 H279 H 0.64932 0.73022 0.18801
 H280 H 0.69030 0.76513 0.14836
 H281 H 0.73324 0.81574 0.35028
 H282 H 0.76853 0.85376 0.30877
 H283 H 0.73321 0.64126 0.19527
 H284 H 0.76721 0.68357 0.15288
 H285 H 0.68573 0.84724 0.23217
 H286 H 0.64369 0.80625 0.26973
 H287 H 0.85367 0.69078 0.23010
 H288 H 0.81648 0.64904 0.26955
 O289 O 0.75444 0.14970 0.80232
 O290 O 0.71220 0.13733 0.74968
 O291 O 0.85028 0.20079 0.75242
 O292 O 0.86246 0.25026 0.71402
 O293 O 0.79913 0.24895 0.85058
 O294 O 0.74523 0.29003 0.86025
 O295 O 0.75121 0.30173 0.65226
 O296 O 0.79384 0.25226 0.64195
 O297 O 0.65228 0.24278 0.69558
 O298 O 0.63965 0.20373 0.74928
 O299 O 0.69282 0.34486 0.75247
 O300 O 0.74668 0.35938 0.79188
 O301 O 0.74134 0.34668 0.69777
 O302 O 0.78699 0.35996 0.75201
 O303 O 0.64917 0.29782 0.74436
 O304 O 0.63944 0.24283 0.79064
 O305 O 0.69835 0.25221 0.65125
 O306 O 0.75191 0.20683 0.64057
 O307 O 0.74560 0.19484 0.84794
 O308 O 0.70403 0.24754 0.85871
 O309 O 0.84579 0.25432 0.80602
 O310 O 0.85403 0.29840 0.75299
 O311 O 0.80657 0.15313 0.74803
 O312 O 0.75377 0.13998 0.70705
 Zr313 Zr 0.75365 0.18088 0.75112
 O314 O 0.71730 0.21210 0.71522
 Zr315 Zr 0.81719 0.25074 0.75358
 O316 O 0.78396 0.28472 0.71703
 Zr317 Zr 0.74859 0.24689 0.81845
 O318 O 0.71264 0.28139 0.78525
 Zr319 Zr 0.74949 0.25029 0.68246
 O320 O 0.78652 0.21598 0.71542
 Zr321 Zr 0.68131 0.24709 0.74763
 O322 O 0.71427 0.21198 0.78392
 Zr323 Zr 0.74526 0.31657 0.74960
 O324 O 0.78137 0.28554 0.78661
 O325 O 0.78648 0.21363 0.78768
 O326 O 0.71165 0.28433 0.71292
 C327 C 0.74955 0.16018 0.83699
 C328 C 0.84086 0.16558 0.74949
 C329 C 0.83403 0.25265 0.84051
 C330 C 0.74598 0.33622 0.66304
 C331 C 0.66359 0.24715 0.66121
 C332 C 0.65861 0.33292 0.74856
 H333 H 0.70261 0.19415 0.69936
 H334 H 0.69607 0.29628 0.80238
 H335 H 0.80310 0.19785 0.80403
 H336 H 0.80077 0.30104 0.70156
 H337 H 0.81406 0.23491 0.65113
 H338 H 0.85389 0.26453 0.69136
 H339 H 0.64046 0.26627 0.80620
 H340 H 0.68388 0.23071 0.84853
 H341 H 0.72956 0.19005 0.64360
 H342 H 0.76965 0.15063 0.68642
 H343 H 0.73003 0.35089 0.81286
 H344 H 0.76364 0.30998 0.85281
 H345 H 0.69243 0.14445 0.76840
 H346 H 0.64955 0.18206 0.73433
 H347 H 0.84420 0.31664 0.77206
 H348 H 0.80336 0.35760 0.72928
 O349 O 0.24596 0.85191 0.79949
 O350 O 0.28780 0.86247 0.74656
 O351 O 0.14943 0.79990 0.75215
 O352 O 0.13733 0.74994 0.71357
 O353 O 0.20014 0.75407 0.85065
 O354 O 0.25404 0.71334 0.86162
 O355 O 0.24790 0.69549 0.65411
 O356 O 0.20598 0.74482 0.64196
 O357 O 0.34729 0.75534 0.69604
 O358 O 0.35970 0.79612 0.74923
 O359 O 0.30637 0.65507 0.75513
 O360 O 0.25237 0.64214 0.79543
 O361 O 0.25734 0.65176 0.70084
 O362 O 0.21224 0.64016 0.75533
 O363 O 0.35011 0.70178 0.74590
 O364 O 0.36023 0.75754 0.79092
 O365 O 0.30137 0.74456 0.65176
 O366 O 0.24794 0.79006 0.63971
 O367 O 0.25272 0.80801 0.84668
 O368 O 0.29549 0.75615 0.85868
 O369 O 0.15361 0.74714 0.80609
 O370 O 0.14490 0.70251 0.75396
 O371 O 0.19335 0.84691 0.74460
 O372 O 0.24646 0.85890 0.70419
 Zr373 Zr 0.24617 0.81916 0.74927
 O374 O 0.28245 0.78677 0.71446
 Zr375 Zr 0.18225 0.74977 0.75364
 O376 O 0.21541 0.71458 0.71821
 Zr377 Zr 0.25070 0.75519 0.81858
 O378 O 0.28663 0.71957 0.78652
 Zr379 Zr 0.25012 0.74776 0.68273
 O380 O 0.21314 0.78317 0.71454
 Zr381 Zr 0.31816 0.75262 0.74807
 O382 O 0.28525 0.78890 0.78320
 Zr383 Zr 0.25395 0.68347 0.75176
 O384 O 0.21784 0.71573 0.78771
 O385 O 0.21312 0.78773 0.78670
 O386 O 0.28773 0.71448 0.71431
 C387 C 0.24980 0.84234 0.83453
 C388 C 0.15898 0.83488 0.74741
 C389 C 0.16528 0.74983 0.84058
 C390 C 0.25269 0.66129 0.66586
 C391 C 0.33611 0.74997 0.66174
 C392 C 0.34060 0.66681 0.75075
 H393 H 0.29724 0.80417 0.69814
 H394 H 0.30314 0.70509 0.80407
 H395 H 0.19654 0.80399 0.80260
 H396 H 0.19849 0.69789 0.70318
 H397 H 0.18571 0.76239 0.65059
 H398 H 0.14564 0.73447 0.69160
 H399 H 0.35872 0.73475 0.80733
 H400 H 0.31531 0.77309 0.84809
 H401 H 0.27065 0.80647 0.64200
 H402 H 0.23097 0.84760 0.68357
 H403 H 0.26963 0.65088 0.81586
 H404 H 0.23580 0.69307 0.85458
 H405 H 0.30772 0.85570 0.76527
 H406 H 0.35054 0.81686 0.73259
 H407 H 0.15486 0.68436 0.77303
 H408 H 0.19538 0.64236 0.73291
 O409 O 0.24180 0.34651 0.69325
 O410 O 0.20328 0.35927 0.74696
 O411 O 0.34432 0.30760 0.75653
 O412 O 0.36238 0.25750 0.78939
 O413 O 0.30396 0.24510 0.65303
 O414 O 0.25134 0.20486 0.64164
 O415 O 0.24493 0.20190 0.84996
 O416 O 0.28986 0.25311 0.85931
 O417 O 0.15025 0.24457 0.80062
 O418 O 0.13804 0.28882 0.74520
 O419 O 0.20012 0.15109 0.75693
 O420 O 0.25457 0.13921 0.71272
 O421 O 0.25423 0.15508 0.80626
 O422 O 0.29528 0.14271 0.75198
 O423 O 0.15325 0.19460 0.74713
 O424 O 0.13951 0.24765 0.70621
 O425 O 0.19431 0.25458 0.84694
 O426 O 0.24478 0.29652 0.85899
 O427 O 0.25124 0.29986 0.64930
 O428 O 0.20891 0.24618 0.63984
 O429 O 0.34836 0.25578 0.69891
 O430 O 0.35728 0.21014 0.75285
 O431 O 0.29813 0.35138 0.74463
 O432 O 0.24560 0.36197 0.78782
 Zr433 Zr 0.24778 0.31884 0.74592
 O434 O 0.21268 0.28636 0.78182
 Zr435 Zr 0.31698 0.25486 0.75000
 O436 O 0.28512 0.21969 0.78652
 Zr437 Zr 0.25184 0.24957 0.68184
 O438 O 0.21713 0.21391 0.71499
 Zr439 Zr 0.24628 0.25248 0.81781
 O440 O 0.28170 0.28847 0.78501
 Zr441 Zr 0.18137 0.24714 0.74943
 O442 O 0.21298 0.28298 0.71285
 Zr443 Zr 0.25076 0.18319 0.75375
 O444 O 0.28608 0.21544 0.71711
 O445 O 0.28513 0.28757 0.71253
 O446 O 0.21289 0.21409 0.78730
 C447 C 0.24539 0.33466 0.65891
 C448 C 0.33277 0.34187 0.75136
 C449 C 0.33838 0.24973 0.66427
 C450 C 0.25000 0.16695 0.84047
 C451 C 0.16005 0.24962 0.83547
 C452 C 0.16514 0.16046 0.75197
 H453 H 0.19592 0.30367 0.79628
 H454 H 0.20255 0.19702 0.69788
 H455 H 0.30102 0.30399 0.69612
 H456 H 0.30259 0.20562 0.80348
 H457 H 0.30862 0.27243 0.85109
 H458 H 0.35296 0.24682 0.81361
 H459 H 0.14836 0.23046 0.68577
 H460 H 0.18949 0.26545 0.64655
 H461 H 0.22978 0.31774 0.84825
 H462 H 0.26525 0.35564 0.80699
 H463 H 0.23261 0.14157 0.69529
 H464 H 0.26632 0.18388 0.65296
 H465 H 0.18191 0.34780 0.73267
 H466 H 0.13959 0.30545 0.76784
 H467 H 0.35229 0.19307 0.73100
 H468 H 0.31490 0.15097 0.77038
 O469 O 0.75840 0.65167 0.69590
 O470 O 0.79774 0.64031 0.74952
 O471 O 0.65643 0.69168 0.75842
 O472 O 0.63870 0.74218 0.79097
 O473 O 0.69609 0.75216 0.65397
 O474 O 0.74850 0.79221 0.64145
 O475 O 0.75602 0.79965 0.84968
 O476 O 0.71175 0.74841 0.86036
 O477 O 0.85109 0.75503 0.80055
 O478 O 0.86281 0.71110 0.74537
 O479 O 0.79998 0.84875 0.75548
 O480 O 0.74507 0.85926 0.71116
 O481 O 0.74666 0.84562 0.80516
 O482 O 0.70489 0.85664 0.75109
 O483 O 0.84717 0.80532 0.74686
 O484 O 0.86067 0.75178 0.70605
 O485 O 0.80711 0.74865 0.84752
 O486 O 0.75709 0.70506 0.86030
 O487 O 0.74876 0.69748 0.65116
 O488 O 0.79107 0.75102 0.64045
 O489 O 0.65189 0.74236 0.70014
 O490 O 0.64318 0.78897 0.75336
 O491 O 0.70283 0.64781 0.74766
 O492 O 0.75576 0.63855 0.79097
 Zr493 Zr 0.75310 0.68055 0.74804
 O494 O 0.78839 0.71397 0.78304
 Zr495 Zr 0.68363 0.74436 0.75112
 O496 O 0.71563 0.78040 0.78683
 Zr497 Zr 0.74837 0.74846 0.68264
 O498 O 0.78311 0.78499 0.71488
 Zr499 Zr 0.75490 0.74848 0.81853
 O500 O 0.71933 0.71168 0.78663
 Zr501 Zr 0.81932 0.75259 0.74968
 O502 O 0.78754 0.71582 0.71407
 Zr503 Zr 0.74956 0.81634 0.75318
 O504 O 0.71417 0.78319 0.71734
 O505 O 0.71541 0.71102 0.71422
 O506 O 0.78789 0.78629 0.78704
 C507 C 0.75449 0.66285 0.66137
 C508 C 0.66811 0.65735 0.75394
 C509 C 0.66173 0.74772 0.66536
 C510 C 0.75109 0.83442 0.83956
 C511 C 0.84137 0.75209 0.83562
 C512 C 0.83502 0.83949 0.75092
 H513 H 0.80538 0.69710 0.79775
 H514 H 0.79747 0.80165 0.69742
 H515 H 0.69943 0.69424 0.69821
 H516 H 0.69825 0.79476 0.80363
 H517 H 0.69301 0.72884 0.85263
 H518 H 0.64826 0.75355 0.81485
 H519 H 0.85168 0.76890 0.68563
 H520 H 0.81057 0.73195 0.64748
 H521 H 0.77346 0.68442 0.85049
 H522 H 0.73646 0.64552 0.81024
 H523 H 0.76714 0.85691 0.69391
 H524 H 0.73358 0.81343 0.65239
 H525 H 0.81871 0.65125 0.73431
 H526 H 0.86082 0.69396 0.76757
 H527 H 0.64800 0.80567 0.73122
 H528 H 0.68547 0.84867 0.76978
 O529 O 0.25335 0.65425 0.30582
 O530 O 0.21023 0.64141 0.25391
 O531 O 0.34996 0.69982 0.24670
 O532 O 0.36440 0.75007 0.21160
 O533 O 0.30402 0.75690 0.34823
 O534 O 0.24986 0.79688 0.35827
 O535 O 0.25003 0.80010 0.14982
 O536 O 0.29471 0.74910 0.14193
 O537 O 0.15290 0.75067 0.19729
 O538 O 0.14169 0.70781 0.25250
 O539 O 0.19733 0.84870 0.24926
 O540 O 0.25270 0.86317 0.28712
 O541 O 0.24457 0.84701 0.19413
 O542 O 0.29229 0.86064 0.24648
 O543 O 0.15226 0.80242 0.24613
 O544 O 0.14128 0.74950 0.29194
 O545 O 0.19837 0.74675 0.15147
 O546 O 0.24962 0.70629 0.13990
 O547 O 0.25044 0.70144 0.35017
 O548 O 0.20886 0.75447 0.35950
 O549 O 0.34956 0.75228 0.30245
 O550 O 0.35656 0.79799 0.24874
 O551 O 0.30539 0.65349 0.25446
 O552 O 0.25317 0.64026 0.21140
 Zr553 Zr 0.25349 0.68316 0.25358
 O554 O 0.21735 0.71388 0.21707
 Zr555 Zr 0.31903 0.75092 0.25100
 O556 O 0.28583 0.78455 0.21414
 Zr557 Zr 0.25236 0.75212 0.31815
 O558 O 0.21638 0.78605 0.28446
 Zr559 Zr 0.24979 0.74958 0.18189
 O560 O 0.28642 0.71537 0.21530
 Zr561 Zr 0.18324 0.75125 0.24886
 O562 O 0.21608 0.71690 0.28601
 Zr563 Zr 0.24900 0.81875 0.24665
 O564 O 0.28536 0.78819 0.28373
 O565 O 0.28827 0.71647 0.28774
 O566 O 0.21381 0.78601 0.21192
 C567 C 0.25160 0.66624 0.34025
 C568 C 0.33981 0.66488 0.25030
 C569 C 0.33882 0.75565 0.33717
 C570 C 0.24678 0.83515 0.15968
 C571 C 0.16363 0.74828 0.16250
 C572 C 0.16270 0.83738 0.24773
 H573 H 0.20183 0.69583 0.20213
 H574 H 0.20066 0.80206 0.30139
 H575 H 0.30481 0.70090 0.30437
 H576 H 0.30257 0.79978 0.19753
 H577 H 0.31340 0.72993 0.15074
 H578 H 0.35496 0.76171 0.18781
 H579 H 0.14581 0.77119 0.30929
 H580 H 0.18849 0.73717 0.35062
 H581 H 0.23631 0.68399 0.15059
 H582 H 0.27251 0.64759 0.19233
 H583 H 0.23513 0.85687 0.30813
 H584 H 0.26748 0.81686 0.34920
 H585 H 0.19021 0.65085 0.27128
 H586 H 0.14708 0.68889 0.23239
 H587 H 0.34907 0.81558 0.26941
 H588 H 0.30803 0.85685 0.22350
 O589 O 0.74326 0.34918 0.29837
 O590 O 0.78682 0.35951 0.24621
 O591 O 0.64802 0.29774 0.24957
 O592 O 0.63560 0.24793 0.21137
 O593 O 0.69752 0.25304 0.34865
 O594 O 0.75014 0.21046 0.36008
 O595 O 0.74892 0.19280 0.15244
 O596 O 0.70486 0.24136 0.14055
 O597 O 0.84599 0.25219 0.19565
 O598 O 0.85837 0.29248 0.24861
 O599 O 0.80363 0.15194 0.25356
 O600 O 0.75020 0.13915 0.29387
 O601 O 0.75353 0.14877 0.19967
 O602 O 0.70906 0.13818 0.25470
 O603 O 0.84772 0.19850 0.24507
 O604 O 0.85772 0.25417 0.29080
 O605 O 0.80043 0.24206 0.15085
 O606 O 0.74717 0.28730 0.13821
 O607 O 0.75232 0.30518 0.34501
 O608 O 0.79228 0.25193 0.35811
 O609 O 0.65156 0.24441 0.30381
 O610 O 0.64269 0.20049 0.25103
 O611 O 0.69228 0.34440 0.24181
 O612 O 0.74627 0.35665 0.20324
 Zr613 Zr 0.74479 0.31653 0.24794
 O614 O 0.78115 0.28392 0.21338
 Zr615 Zr 0.68044 0.24745 0.25151
 O616 O 0.71364 0.21206 0.21632
 Zr617 Zr 0.74832 0.25246 0.31710
 O618 O 0.78422 0.21659 0.28538
 Zr619 Zr 0.74898 0.24505 0.18129
 O620 O 0.71196 0.28070 0.21278
 Zr621 Zr 0.81628 0.24953 0.24730
 O622 O 0.78340 0.28601 0.28217
 Zr623 Zr 0.75146 0.18074 0.25043
 O624 O 0.71536 0.21324 0.28603
 O625 O 0.71116 0.28526 0.28494
 O626 O 0.78589 0.21154 0.21336
 C627 C 0.74834 0.33954 0.33328
 C628 C 0.65785 0.33258 0.24441
 C629 C 0.66282 0.24810 0.33836
 C630 C 0.75148 0.15848 0.16452
 C631 C 0.83509 0.24705 0.16124
 C632 C 0.83793 0.16358 0.24951
 H633 H 0.79621 0.30127 0.19724
 H634 H 0.80052 0.20199 0.30302
 H635 H 0.69452 0.30170 0.30060
 H636 H 0.69683 0.19550 0.20102
 H637 H 0.68500 0.25977 0.14834
 H638 H 0.64416 0.23303 0.18911
 H639 H 0.85677 0.23074 0.30635
 H640 H 0.81307 0.26775 0.34768
 H641 H 0.76971 0.30391 0.14092
 H642 H 0.73156 0.34539 0.18204
 H643 H 0.76644 0.14850 0.31486
 H644 H 0.73134 0.19074 0.35291
 H645 H 0.80602 0.35283 0.26570
 H646 H 0.84890 0.31386 0.23298
 H647 H 0.65178 0.18246 0.27064
 H648 H 0.69211 0.14047 0.23236
 N649 N 0.22787 0.10748 0.07765
 C650 C 0.25216 0.07759 0.07994
 N651 N 0.27667 0.07556 0.10972
 N652 N 0.27654 0.10238 0.13656
 C653 C 0.25247 0.13249 0.13399
 N654 N 0.22827 0.13464 0.10402
 N655 N 0.72942 0.60809 0.57616
 C656 C 0.75391 0.57832 0.57821
 N657 N 0.77917 0.57678 0.60736
 N658 N 0.77949 0.60384 0.63391
 C659 C 0.75516 0.63376 0.63169
 N660 N 0.73024 0.63552 0.60228
 N661 N 0.71534 0.90540 0.09108
 C662 C 0.74867 0.91945 0.07748
 N663 N 0.78185 0.90491 0.09095
 N664 N 0.78173 0.87748 0.11704
 C665 C 0.74846 0.86357 0.13057
 N666 N 0.71524 0.87804 0.11730
 N667 N 0.26944 0.38908 0.57327
 C668 C 0.24448 0.41848 0.57516
 N669 N 0.21912 0.41970 0.60417
 N670 N 0.21916 0.39272 0.63077
 C671 C 0.24401 0.36321 0.62876
 N672 N 0.26898 0.36171 0.59944
 N673 N 0.72519 0.10652 0.92327
 C674 C 0.75031 0.07722 0.92195
 N675 N 0.77494 0.07505 0.89234
 N676 N 0.77428 0.10118 0.86487
 C677 C 0.74939 0.13069 0.86641
 N678 N 0.72504 0.13304 0.89622
 N679 N 0.22803 0.61282 0.42680
 C680 C 0.25259 0.58307 0.42471
 N681 N 0.27706 0.58105 0.39500
 N682 N 0.27664 0.60765 0.36805
 C683 C 0.25223 0.63751 0.37025
 N684 N 0.22813 0.63984 0.40024
 N685 N 0.21662 0.91482 0.90191
 C686 C 0.24966 0.92597 0.91858
 N687 N 0.28277 0.90993 0.90675
 N688 N 0.28286 0.88350 0.87961
 C689 C 0.24987 0.87253 0.86297
 N690 N 0.21675 0.88860 0.87450
 N691 N 0.72297 0.42422 0.38947
 C692 C 0.74834 0.42217 0.41853
 N693 N 0.77411 0.39344 0.41887
 N694 N 0.77413 0.36727 0.39150
 C695 C 0.74904 0.36943 0.36227
 N696 N 0.72347 0.39840 0.36165
 N697 N 0.07401 0.27139 0.10867
 C698 C 0.07672 0.24751 0.07844
 N699 N 0.10714 0.22389 0.07590
 N700 N 0.13414 0.22447 0.10251
 C701 C 0.13126 0.24817 0.13289
 N702 N 0.10061 0.27143 0.13566
 N703 N 0.60783 0.77325 0.57971
 C704 C 0.57867 0.74802 0.58056
 N705 N 0.57651 0.72291 0.60981
 N706 N 0.60260 0.72321 0.63735
 C707 C 0.63198 0.74825 0.63624
 N708 N 0.63428 0.77305 0.60680
 N709 N 0.09869 0.78191 0.91412
 C710 C 0.08062 0.74905 0.92346
 N711 N 0.09112 0.71631 0.90575
 N712 N 0.11835 0.71649 0.87944
 C713 C 0.13646 0.74930 0.87036
 N714 N 0.12622 0.78200 0.88812
 N715 N 0.57757 0.22296 0.39292
 C716 C 0.57852 0.24892 0.42147
 N717 N 0.60756 0.27429 0.42288
 N718 N 0.63490 0.27356 0.39671
 C719 C 0.63373 0.24785 0.36793
 N720 N 0.60449 0.22272 0.36633
 N721 N 0.92424 0.77322 0.10748
 C722 C 0.92247 0.74777 0.07848
 N723 N 0.89362 0.72214 0.07777
 N724 N 0.86713 0.72233 0.10484
 C725 C 0.86910 0.74757 0.13402
 N726 N 0.89819 0.77291 0.13495
 N727 N 0.42396 0.27408 0.60959
 C728 C 0.42158 0.24956 0.57985
 N729 N 0.39210 0.22472 0.57832
 N730 N 0.36558 0.22476 0.60532
 C731 C 0.36810 0.24906 0.63522
 N732 N 0.39782 0.27363 0.63698
 N733 N 0.90709 0.28533 0.90759
 C734 C 0.91883 0.25197 0.92323
 N735 N 0.90193 0.21911 0.91191
 N736 N 0.87437 0.21954 0.88595
 C737 C 0.86282 0.25281 0.87029
 N738 N 0.87971 0.28572 0.88135
 N739 N 0.42534 0.73184 0.39028
 C740 C 0.42294 0.75543 0.42071
 N741 N 0.39287 0.77951 0.42348
 N742 N 0.36586 0.77964 0.39686
 C743 C 0.36848 0.75624 0.36626
 N744 N 0.39877 0.73251 0.36332
 N745 N 0.10976 0.07564 0.22895
 C746 C 0.07950 0.07815 0.25271
 N747 N 0.07699 0.10831 0.27672
 N748 N 0.10360 0.13530 0.27664
 C749 C 0.13405 0.13260 0.25313
 N750 N 0.13675 0.10224 0.22940
 N751 N 0.61241 0.57234 0.72924
 C752 C 0.58315 0.57457 0.75429
 N753 N 0.58259 0.60347 0.77988
 N754 N 0.60996 0.62964 0.78001
 C755 C 0.63934 0.62731 0.75515
 N756 N 0.64020 0.59813 0.72985
 N757 N 0.91549 0.10001 0.78154
 C758 C 0.92482 0.08175 0.74879
 N759 N 0.90690 0.09197 0.71609
 N760 N 0.88038 0.11905 0.71621
 C761 C 0.87124 0.13729 0.74893
 N762 N 0.88924 0.12737 0.78159
 N763 N 0.42626 0.61135 0.22641
 C764 C 0.42453 0.58188 0.25128
 N765 N 0.39493 0.57990 0.27589
 N766 N 0.36778 0.60633 0.27537
 C767 C 0.36963 0.63593 0.25065
 N768 N 0.39950 0.63819 0.22640
 N769 N 0.07274 0.88894 0.77131
 C770 C 0.07503 0.91880 0.74695
 N771 N 0.10452 0.92044 0.72217
 N772 N 0.13117 0.89349 0.72215
 C773 C 0.12876 0.86350 0.74630
 N774 N 0.09901 0.86159 0.77078
 N775 N 0.57264 0.38781 0.26815
 C776 C 0.57508 0.41735 0.24345
 N777 N 0.60421 0.41830 0.21823
 N778 N 0.63044 0.39094 0.21820
 C779 C 0.62789 0.36130 0.24279
 N780 N 0.59843 0.36006 0.26762
 N781 N 0.91193 0.90450 0.28396
 C782 C 0.92066 0.92374 0.25162
 N783 N 0.90112 0.91555 0.21929
 N784 N 0.87383 0.88925 0.21934
 C785 C 0.86541 0.86991 0.25161
 N786 N 0.88501 0.87781 0.28387
 N787 N 0.41794 0.39607 0.77797
 C788 C 0.41719 0.42519 0.75269
 N789 N 0.38805 0.42736 0.72744
 N790 N 0.36050 0.40130 0.72760
 C791 C 0.36154 0.37190 0.75261
 N792 N 0.39081 0.36965 0.77766
 N793 N 0.10518 0.27516 0.92056
 C794 C 0.07587 0.25013 0.91899
 N795 N 0.07410 0.22510 0.88960
 N796 N 0.10059 0.22531 0.86254
 C797 C 0.13015 0.25006 0.86437
 N798 N 0.13206 0.27487 0.89391
 N799 N 0.57853 0.72403 0.39283
 C800 C 0.57986 0.74991 0.42149
 N801 N 0.60869 0.77557 0.42221
 N802 N 0.63549 0.77506 0.39546
 C803 C 0.63397 0.74942 0.36660
 N804 N 0.60492 0.72401 0.36565
 N805 N 0.91355 0.78455 0.90397
 C806 C 0.92500 0.75119 0.91985
 N807 N 0.90915 0.71823 0.90728
 N808 N 0.88271 0.71860 0.88015
 C809 C 0.87145 0.75189 0.86427
 N810 N 0.88727 0.78489 0.87660
 N811 N 0.42344 0.23096 0.38966
 C812 C 0.42117 0.25485 0.41990
 N813 N 0.39158 0.27957 0.42205
 N814 N 0.36488 0.27995 0.39511
 C815 C 0.36732 0.25622 0.36472
 N816 N 0.39718 0.23188 0.36236
 N817 N 0.07694 0.77130 0.10897
 C818 C 0.07920 0.74696 0.07909
 N819 N 0.10931 0.72290 0.07676
 N820 N 0.13644 0.72345 0.10325
 C821 C 0.13398 0.74758 0.13331
 N822 N 0.10365 0.77131 0.13584
 N823 N 0.60937 0.27135 0.57526
 C824 C 0.57976 0.24666 0.57719
 N825 N 0.57809 0.22174 0.60658
 N826 N 0.60488 0.22189 0.63340
 C827 C 0.63463 0.24643 0.63132
 N828 N 0.63655 0.27099 0.60166
 N829 N 0.91985 0.27348 0.10656
 C830 C 0.91927 0.24764 0.07791
 N831 N 0.89077 0.22163 0.07662
 N832 N 0.86356 0.22168 0.10295
 C833 C 0.86437 0.24731 0.13182
 N834 N 0.89308 0.27306 0.13330
 N835 N 0.42175 0.77543 0.60767
 C836 C 0.42028 0.75070 0.57808
 N837 N 0.39078 0.72586 0.57586
 N838 N 0.36353 0.72596 0.60219
 C839 C 0.36526 0.75044 0.63202
 N840 N 0.39492 0.77504 0.63437
 N841 N 0.22602 0.11150 0.92567
 C842 C 0.25202 0.08295 0.92417
 N843 N 0.27781 0.08263 0.89554
 N844 N 0.27722 0.10963 0.86897
 C845 C 0.25136 0.13828 0.87057
 N846 N 0.22592 0.13892 0.89952
 N847 N 0.72814 0.61005 0.42562
 C848 C 0.75320 0.58072 0.42358
 N849 N 0.77852 0.57974 0.39454
 N850 N 0.77836 0.60689 0.36812
 C851 C 0.75344 0.63634 0.37027
 N852 N 0.72847 0.63760 0.39961
 N853 N 0.71813 0.08853 0.09467
 C854 C 0.75130 0.07487 0.08033
 N855 N 0.78463 0.08846 0.09446
 N856 N 0.78474 0.11477 0.12178
 C857 C 0.75155 0.12834 0.13597
 N858 N 0.71826 0.11490 0.12190
 N859 N 0.22597 0.60619 0.58136
 C860 C 0.25143 0.57720 0.58204
 N861 N 0.27722 0.57560 0.61078
 N862 N 0.27730 0.60201 0.63805
 C863 C 0.25205 0.63124 0.63705
 N864 N 0.22654 0.63294 0.60815
 N865 N 0.72473 0.91985 0.89372
 C866 C 0.74965 0.91864 0.92316
 N867 N 0.77479 0.88938 0.92525
 N868 N 0.77484 0.86209 0.89894
 C869 C 0.75022 0.86355 0.86926
 N870 N 0.72528 0.89296 0.86701
 N871 N 0.22435 0.42691 0.38871
 C872 C 0.24860 0.42455 0.41868
 N873 N 0.27330 0.39494 0.42048
 N874 N 0.27345 0.36830 0.39356
 C875 C 0.24950 0.37079 0.36342
 N876 N 0.22502 0.40063 0.36134
 N877 N 0.22158 0.92051 0.10485
 C878 C 0.24638 0.91860 0.07538
 N879 N 0.27084 0.88879 0.07338
 N880 N 0.27036 0.86166 0.09983
 C881 C 0.24592 0.86384 0.12957
 N882 N 0.22162 0.89379 0.13171
 N883 N 0.77114 0.38992 0.57708
 C884 C 0.74624 0.41939 0.57820
 N885 N 0.72115 0.42155 0.60746
 N886 N 0.72122 0.39527 0.63481
 C887 C 0.74595 0.36560 0.63346
 N888 N 0.77071 0.36328 0.60399
 N889 N 0.11028 0.07453 0.77568
 C890 C 0.08127 0.07655 0.75022
 N891 N 0.08041 0.10582 0.72514
 N892 N 0.10730 0.13245 0.72579
 C893 C 0.13643 0.13036 0.75102
 N894 N 0.13762 0.10083 0.77585
 N895 N 0.61129 0.57462 0.27706
 C896 C 0.58252 0.57653 0.25132
 N897 N 0.58189 0.60574 0.22615
 N898 N 0.60877 0.63240 0.22696
 C899 C 0.63770 0.63038 0.25242
 N900 N 0.63864 0.60093 0.27738
 N901 N 0.07515 0.89019 0.22608
 C902 C 0.07792 0.92031 0.25009
 N903 N 0.10866 0.92307 0.27325
 N904 N 0.13591 0.89675 0.27219
 C905 C 0.13298 0.86644 0.24844
 N906 N 0.10203 0.86346 0.22556
 N907 N 0.57255 0.38807 0.72559
 C908 C 0.57480 0.41705 0.75109
 N909 N 0.60425 0.41777 0.77600
 N910 N 0.63082 0.39080 0.77511
 C911 C 0.62850 0.36170 0.74983
 N912 N 0.59878 0.36064 0.72519
 N913 N 0.92447 0.10981 0.22628
 C914 C 0.92226 0.08021 0.25096
 N915 N 0.89249 0.07839 0.27536
 N916 N 0.86555 0.10502 0.27477
 C917 C 0.86788 0.13477 0.25031
 N918 N 0.89790 0.13685 0.22620
 N919 N 0.42690 0.61229 0.72744
 C920 C 0.42474 0.58294 0.75246
 N921 N 0.39520 0.58169 0.77719
 N922 N 0.36847 0.60854 0.77660
 C923 C 0.37072 0.63802 0.75179
 N924 N 0.40053 0.63957 0.72734
 N925 N 0.91905 0.89517 0.72398
 C926 C 0.91755 0.92469 0.74880
 N927 N 0.88845 0.92644 0.77408
 N928 N 0.86159 0.89967 0.77434
 C929 C 0.86340 0.86989 0.74982
 N930 N 0.89263 0.86805 0.72474
 N931 N 0.42120 0.39400 0.27187
 C932 C 0.41936 0.42365 0.24725
 N933 N 0.38938 0.42604 0.22302
 N934 N 0.36203 0.39975 0.22364
 C935 C 0.36413 0.36988 0.24805
 N936 N 0.39430 0.36735 0.27197
   
