data_POSCAR
  _audit_creation_date              2014-09-24
  _audit_creation_method            'ToBaCCo'
  _symmetry_space_group_name_H-M    'P1'
  _symmetry_Int_Tables_number       1
  _symmetry_cell_setting            triclinic
  loop_
  _symmetry_equiv_pos_as_xyz
 x,y,z
_cell_length_a 10.8292
_cell_length_b 9.4973
_cell_length_c 9.8436
_cell_angle_alpha 90.603900
_cell_angle_beta 90.369700
_cell_angle_gamma 89.994300
loop_
  _atom_site_label
  _atom_site_type_symbol
  _atom_site_fract_x
  _atom_site_fract_y
  _atom_site_fract_z
C1 C 0.38333 1.00520 -0.58235
 C2 C 0.38302 0.99049 -0.43436
 C3 C 0.50118 0.97931 -0.37044
 C4 C 0.62006 0.99627 -0.43088
 C5 C 0.62117 1.00681 -0.58010
 C6 C 0.50223 1.01992 -0.64343
 H7 H 0.50209 1.04757 -0.74913
 H8 H 0.50032 0.95241 -0.26457
 C9 C -0.61732 1.42693 0.01917
 C10 C -0.61780 1.57822 0.01463
 C11 C -0.50142 1.64391 0.03351
 C12 C -0.38583 1.57722 0.01731
 C13 C -0.38607 1.42677 0.01682
 C14 C -0.50129 1.36132 0.03727
 H15 H -0.50042 1.25201 0.06596
 H16 H -0.50064 1.75398 0.06175
 C17 C 0.04376 0.43847 0.37962
 C18 C -0.03561 0.55696 0.37618
 C19 C -0.09667 0.59712 0.49161
 C20 C -0.04129 0.56137 0.61173
 C21 C 0.03280 0.44034 0.61513
 C22 C 0.09622 0.40110 0.50131
 H23 H 0.15826 0.31106 0.50583
 H24 H -0.15892 0.68706 0.48888
 O25 O -0.30793 1.00376 -0.20067
 O26 O 0.30686 0.99390 -0.20011
 O27 O 0.00164 1.19907 -0.34142
 O28 O -0.01687 0.79908 -0.34472
 O29 O 0.00329 0.63385 -0.17756
 O30 O -0.00294 1.36543 -0.17004
 O31 O 0.16045 0.99189 -0.37025
 O32 O -0.16437 1.00298 -0.37140
 Zr33 Zr -0.00222 0.99890 -0.24801
 O34 O 0.11187 0.87053 -0.13287
 O35 O -0.11406 1.12818 -0.12996
 C36 C -0.27812 1.00153 -0.33140
 C37 C 0.27503 0.99123 -0.33017
 C38 C 0.00608 1.32784 -0.29349
 C39 C -0.01638 0.67005 -0.29959
 H40 H 0.16438 1.18307 -0.18188
 O41 O 0.10952 1.12370 -0.12676
 H42 H -0.16851 0.81543 -0.18145
 O43 O -0.11184 0.87527 -0.12717
 O44 O 0.30881 1.00443 0.18937
 O45 O -0.30608 0.99956 0.19146
 O46 O 0.16362 1.36452 0.00679
 O47 O 0.16676 0.63287 -0.00146
 O48 O -0.16562 0.63615 0.00172
 O49 O -0.16629 1.36552 0.00323
 O50 O 0.02781 1.20046 0.33219
 O51 O -0.01164 0.79911 0.33035
 O52 O 0.00390 1.36673 0.16711
 O53 O -0.00462 0.63222 0.15988
 O54 O 0.31011 1.19103 -0.00045
 O55 O -0.31255 1.19252 -0.00690
 O56 O -0.31122 0.81089 0.00008
 O57 O 0.31155 0.80685 -0.00916
 O58 O 0.16641 0.99609 0.36120
 O59 O -0.16087 1.00599 0.36262
 Zr60 Zr 0.21483 0.99800 -0.00550
 Zr61 Zr -0.21499 1.00210 -0.00401
 Zr62 Zr -0.00121 1.24359 -0.00217
 Zr63 Zr 0.00105 0.75527 -0.00639
 Zr64 Zr 0.00220 0.99999 0.23938
 O65 O -0.11020 0.87499 0.11858
 O66 O 0.11211 1.12471 0.11973
 C67 C 0.28005 1.00277 0.32004
 C68 C -0.27565 1.00384 0.32220
 C69 C 0.27722 1.32300 0.00777
 C70 C 0.28064 0.67466 -0.00067
 C71 C -0.27912 0.67895 0.00576
 C72 C -0.28008 1.32415 0.00200
 C73 C 0.02586 1.33000 0.28827
 C74 C -0.01567 0.67005 0.28286
 H75 H -0.16058 1.18843 0.18190
 O76 O -0.11001 1.12674 0.12285
 H77 H 0.16432 0.81285 0.17735
 O78 O 0.11211 0.87338 0.11948
   
