data_POSCAR
  _audit_creation_date              2014-09-24
  _audit_creation_method            'ToBaCCo'
  _symmetry_space_group_name_H-M    'P1'
  _symmetry_Int_Tables_number       1
  _symmetry_cell_setting            triclinic
  loop_
  _symmetry_equiv_pos_as_xyz
 x,y,z
_cell_length_a 53.8524
_cell_length_b 11.8483
_cell_length_c 25.5460
_cell_angle_alpha 89.970200
_cell_angle_beta 90.637700
_cell_angle_gamma 89.980400
loop_
  _atom_site_label
  _atom_site_type_symbol
  _atom_site_fract_x
  _atom_site_fract_y
  _atom_site_fract_z
C1 C 0.68121 0.21566 0.50119
 C2 C 0.69473 0.22720 0.54807
 C3 C 0.72059 0.21505 0.54599
 C4 C 0.73257 0.17734 0.50023
 C5 C 0.71790 0.15597 0.45501
 C6 C 0.69224 0.17806 0.45495
 C7 C 0.76033 0.16483 0.50048
 C8 C 0.77426 0.17837 0.45444
 C9 C 0.80061 0.17988 0.45572
 C10 C 0.81232 0.17849 0.50566
 C11 C 0.79889 0.16210 0.55168
 C12 C 0.77321 0.14769 0.54807
 H13 H 0.66183 0.23979 0.50017
 H14 H 0.73134 0.23152 0.58083
 H15 H 0.72617 0.12254 0.41991
 H16 H 0.76430 0.18708 0.41801
 H17 H 0.83200 0.19301 0.50986
 H18 H 0.76323 0.12866 0.58338
 C19 C 0.18371 0.73457 0.49391
 C20 C 0.19643 0.75303 0.54149
 C21 C 0.22258 0.75735 0.54031
 C22 C 0.23594 0.73181 0.49431
 C23 C 0.22239 0.71070 0.44769
 C24 C 0.19632 0.71424 0.44706
 C25 C 0.26387 0.72567 0.49577
 C26 C 0.27816 0.74964 0.45089
 C27 C 0.30428 0.74950 0.45361
 C28 C 0.31596 0.72916 0.50197
 C29 C 0.30247 0.71061 0.54788
 C30 C 0.27650 0.70069 0.54329
 H31 H 0.16367 0.74146 0.49248
 H32 H 0.23260 0.77584 0.57599
 H33 H 0.23188 0.68904 0.41198
 H34 H 0.26919 0.77204 0.41425
 H35 H 0.33603 0.72418 0.50342
 H36 H 0.26597 0.67904 0.57748
 C37 C 0.31534 0.26208 -0.51880
 C38 C 0.30047 0.26187 -0.56391
 C39 C 0.27465 0.25743 -0.55926
 C40 C 0.26312 0.26042 -0.50979
 C41 C 0.27872 0.26243 -0.46473
 C42 C 0.30476 0.25844 -0.46898
 C43 C 0.23515 0.25890 -0.50586
 C44 C 0.22302 0.23285 -0.45830
 C45 C 0.19689 0.23576 -0.45473
 C46 C 0.18298 0.24983 -0.50113
 C47 C 0.19429 0.27456 -0.54872
 C48 C 0.22014 0.28457 -0.55013
 H49 H 0.33534 0.26534 -0.52268
 H50 H 0.26400 0.24795 -0.59500
 H51 H 0.27101 0.26541 -0.42606
 H52 H 0.23368 0.21490 -0.42342
 H53 H 0.16304 0.23827 -0.50054
 H54 H 0.22813 0.31393 -0.58619
 C55 C -0.18508 0.84620 -0.48777
 C56 C -0.19694 0.87495 -0.53581
 C57 C -0.22330 0.88304 -0.53475
 C58 C -0.23700 0.84734 -0.49074
 C59 C -0.22405 0.80770 -0.44621
 C60 C -0.19821 0.80906 -0.44404
 C61 C -0.26482 0.84380 -0.49148
 C62 C -0.27796 0.85358 -0.44403
 C63 C -0.30358 0.83547 -0.44271
 C64 C -0.31626 0.81002 -0.48908
 C65 C -0.30442 0.81220 -0.53761
 C66 C -0.27845 0.82518 -0.53852
 H67 H -0.16534 0.85152 -0.48236
 H68 H -0.23356 0.91721 -0.56749
 H69 H -0.23395 0.77271 -0.41335
 H70 H -0.26844 0.87617 -0.40799
 H71 H -0.33595 0.79178 -0.48730
 H72 H -0.26907 0.82014 -0.57563
 O73 O -0.02954 0.82934 0.10487
 O74 O -0.05964 0.92307 0.05794
 C75 C -0.05237 0.86239 0.09750
 O76 O 0.04007 1.20485 0.08329
 O77 O 0.06513 1.09776 0.03116
 C78 C 0.06176 1.17100 0.06820
 O79 O -0.02773 1.18642 0.10535
 O80 O -0.05880 1.09981 0.05826
 C81 C -0.05077 1.15776 0.09819
 O82 O 0.03907 0.80461 0.08441
 O83 O 0.06461 0.90782 0.03148
 C84 C 0.06094 0.83610 0.06904
 Zr85 Zr 0.00330 0.86280 0.06242
 O86 O 0.00928 0.83929 0.14365
 O87 O 0.00045 0.68606 0.05339
 Zr88 Zr 0.00412 1.15043 0.06142
 O89 O 0.01004 1.17613 0.14246
 O90 O 0.00068 1.32763 0.05283
 O91 O -0.01706 1.00794 0.07652
 O92 O 0.02529 1.00530 0.06803
 O93 O 0.02980 0.80418 -0.10283
 O94 O 0.06000 0.90748 -0.06085
 C95 C 0.05278 0.83489 -0.09597
 O96 O -0.03773 1.19750 -0.09440
 O97 O -0.06355 1.09982 -0.03988
 C98 C -0.05961 1.16747 -0.07902
 O99 O 0.03109 1.20448 -0.10233
 O100 O 0.06065 1.09770 -0.06010
 C101 C 0.05389 1.17198 -0.09480
 O102 O -0.03899 0.81818 -0.09308
 O103 O -0.06407 0.91659 -0.03736
 C104 C -0.06069 0.84832 -0.07640
 Zr105 Zr -0.00304 0.86163 -0.06661
 O106 O -0.00574 0.83822 -0.14844
 O107 O -0.00534 0.68455 -0.05678
 Zr108 Zr -0.00224 1.14921 -0.06761
 O109 O -0.00399 1.16270 -0.15015
 O110 O -0.00421 1.32729 -0.06102
 Zr111 Zr -0.03672 1.00865 0.00454
 Zr112 Zr 0.03778 1.00387 -0.00984
 O113 O 0.01791 1.00415 -0.08142
 O114 O -0.02478 1.00662 -0.07381
 O115 O 0.02279 0.83931 -0.00645
 O116 O -0.02133 1.17160 0.00133
 O117 O -0.02221 0.84378 0.00246
 O118 O 0.02368 1.17006 -0.00752
 H119 H 0.03713 1.00448 0.09795
 H120 H -0.03310 1.23570 0.00391
 H121 H 0.02662 1.00370 -0.11535
 H122 H -0.03426 0.78103 0.00555
 H123 H 0.01710 1.35755 0.04273
 H124 H 0.01265 1.35544 -0.05241
 H125 H -0.01409 1.09854 -0.16300
 H126 H -0.00886 0.91342 -0.16381
 H127 H 0.01154 0.65654 -0.04819
 H128 H 0.00128 0.65445 0.08927
 H129 H 0.00487 0.91120 0.16079
 H130 H 0.01211 1.10057 0.15835
 O131 O 0.46567 0.29527 0.09009
 O132 O 0.43868 0.40691 0.04315
 C133 C 0.44354 0.33151 0.07873
 O134 O 0.53856 0.67354 0.09684
 O135 O 0.56488 0.56953 0.04596
 C136 C 0.56063 0.63900 0.08395
 O137 O 0.46860 0.67200 0.10299
 O138 O 0.44030 0.59111 0.04690
 C139 C 0.44592 0.64946 0.08828
 O140 O 0.53495 0.27640 0.08741
 O141 O 0.56301 0.38175 0.04155
 C142 C 0.55754 0.30644 0.07626
 Zr143 Zr 0.50048 0.34303 0.06057
 O144 O 0.50212 0.32259 0.14288
 O145 O 0.49810 0.16704 0.04873
 Zr146 Zr 0.50277 0.62981 0.06710
 O147 O 0.50502 0.64476 0.14938
 O148 O 0.50133 0.80827 0.06246
 O149 O 0.47986 0.48888 0.07410
 O150 O 0.52280 0.48143 0.07409
 O151 O 0.53364 0.29330 -0.09799
 O152 O 0.56239 0.39107 -0.04922
 C153 C 0.55631 0.32052 -0.08601
 O154 O 0.46886 0.69484 -0.09732
 O155 O 0.44014 0.59946 -0.04865
 C156 C 0.44617 0.66765 -0.08625
 O157 O 0.53829 0.69414 -0.08982
 O158 O 0.56467 0.58118 -0.04227
 C159 C 0.56037 0.65770 -0.07735
 O160 O 0.46480 0.31977 -0.10329
 O161 O 0.43820 0.41927 -0.05123
 C162 C 0.44275 0.35414 -0.09081
 Zr163 Zr 0.49992 0.35694 -0.06985
 O164 O 0.50194 0.35809 -0.15253
 O165 O 0.49570 0.17923 -0.06955
 Zr166 Zr 0.50278 0.64353 -0.06303
 O167 O 0.50472 0.67420 -0.14440
 O168 O 0.50152 0.82033 -0.05101
 Zr169 Zr 0.46427 0.49985 -0.00185
 Zr170 Zr 0.53852 0.48582 -0.00104
 O171 O 0.52252 0.49698 -0.07635
 O172 O 0.47965 0.50542 -0.07731
 O173 O 0.52258 0.32379 -0.00491
 O174 O 0.48070 0.66066 0.00206
 O175 O 0.47793 0.33375 -0.00522
 O176 O 0.52558 0.65392 0.00284
 H177 H 0.53334 0.47543 0.10599
 H178 H 0.46925 0.72607 0.00324
 H179 H 0.53297 0.49801 -0.10800
 H180 H 0.46578 0.27093 -0.00707
 H181 H 0.51844 0.83565 0.05657
 H182 H 0.51841 0.84534 -0.04067
 H183 H 0.50251 0.60054 -0.16186
 H184 H 0.49113 0.42008 -0.16533
 H185 H 0.51046 0.14713 -0.05154
 H186 H 0.49812 0.13271 0.08411
 H187 H 0.49173 0.38268 0.15826
 H188 H 0.50372 0.56738 0.16350
 C189 C 0.31692 0.34686 0.29796
 C190 C 0.33730 0.27513 0.28701
 C191 C 0.34418 0.19452 0.32563
 C192 C 0.33161 0.18877 0.37328
 C193 C 0.31214 0.26288 0.38399
 C194 C 0.30455 0.34026 0.34566
 C195 C 0.36404 0.12194 0.31737
 C196 C 0.37816 0.13027 0.27261
 C197 C 0.37299 0.21265 0.23403
 C198 C 0.35169 0.28350 0.24034
 C199 C 0.34593 0.36213 0.20045
 C200 C 0.36157 0.37814 0.15822
 C201 C 0.38346 0.31639 0.15384
 C202 C 0.38900 0.22960 0.19046
 C203 C 0.41096 0.16641 0.18305
 C204 C 0.42770 0.19553 0.14431
 C205 C 0.42314 0.28730 0.11104
 C206 C 0.40034 0.34373 0.11419
 H207 H 0.31043 0.41087 0.27122
 H208 H 0.33724 0.12726 0.40263
 H209 H 0.28944 0.39808 0.35328
 H210 H 0.36929 0.06033 0.34673
 H211 H 0.39341 0.07196 0.27027
 H212 H 0.32957 0.41431 0.20104
 H213 H 0.35672 0.44140 0.12926
 H214 H 0.41638 0.09648 0.20752
 H215 H 0.44490 0.14844 0.14196
 H216 H 0.39635 0.41320 0.08786
 C217 C -0.18039 0.91484 0.32103
 C218 C -0.15467 0.89088 0.32082
 C219 C -0.14317 0.86850 0.36966
 C220 C -0.15688 0.86791 0.41596
 C221 C -0.18283 0.88797 0.41668
 C222 C -0.19407 0.91307 0.36759
 C223 C -0.11779 0.84591 0.37273
 C224 C -0.10366 0.83945 0.32803
 C225 C -0.11433 0.85554 0.27803
 C226 C -0.13992 0.88744 0.27422
 C227 C -0.14956 0.91651 0.22435
 C228 C -0.13470 0.91415 0.17987
 C229 C -0.10998 0.87834 0.18295
 C230 C -0.09985 0.84440 0.23181
 C231 C -0.07558 0.79907 0.23268
 C232 C -0.06116 0.79764 0.18792
 C233 C -0.07019 0.84126 0.14046
 C234 C -0.09503 0.87839 0.13778
 H235 H -0.19066 0.93361 0.28562
 H236 H -0.14640 0.84760 0.45068
 H237 H -0.21360 0.93080 0.36350
 H238 H -0.10867 0.83189 0.41022
 H239 H -0.08412 0.82440 0.33423
 H240 H -0.16834 0.94599 0.21870
 H241 H -0.14265 0.94114 0.14277
 H242 H -0.06716 0.76322 0.26732
 H243 H -0.04234 0.76610 0.19141
 H244 H -0.10252 0.91051 0.10115
 C245 C 0.64017 0.85174 0.37280
 C246 C 0.64680 0.79585 0.32635
 C247 C 0.67054 0.74396 0.32466
 C248 C 0.68696 0.75057 0.36822
 C249 C 0.67984 0.80757 0.41398
 C250 C 0.65645 0.85900 0.41486
 C251 C 0.67738 0.68399 0.27999
 C252 C 0.66101 0.67254 0.23754
 C253 C 0.63712 0.72232 0.23776
 C254 C 0.63031 0.78785 0.28235
 C255 C 0.60703 0.84263 0.28189
 C256 C 0.59054 0.83134 0.24054
 C257 C 0.59614 0.76270 0.19828
 C258 C 0.61950 0.70753 0.19565
 C259 C 0.62372 0.63744 0.15170
 C260 C 0.60512 0.61988 0.11378
 C261 C 0.58185 0.67249 0.11795
 C262 C 0.57791 0.74635 0.15961
 H263 H 0.62237 0.89017 0.37883
 H264 H 0.70488 0.70917 0.36694
 H265 H 0.65041 0.90604 0.44873
 H266 H 0.69537 0.64311 0.27824
 H267 H 0.66765 0.62383 0.20494
 H268 H 0.60066 0.89512 0.31317
 H269 H 0.57282 0.87458 0.24247
 H270 H 0.64087 0.59236 0.14633
 H271 H 0.60869 0.56141 0.08217
 H272 H 0.56005 0.78786 0.16347
 C273 C 0.13971 1.34685 0.36310
 C274 C 0.14659 1.30079 0.31426
 C275 C 0.17030 1.24937 0.31087
 C276 C 0.18619 1.24459 0.35495
 C277 C 0.17877 1.28916 0.40323
 C278 C 0.15558 1.34186 0.40633
 C279 C 0.17773 1.20018 0.26394
 C280 C 0.16185 1.19730 0.22063
 C281 C 0.13784 1.24496 0.22236
 C282 C 0.13047 1.30103 0.26939
 C283 C 0.10707 1.35431 0.27030
 C284 C 0.09110 1.35100 0.22762
 C285 C 0.09726 1.29077 0.18290
 C286 C 0.12067 1.23690 0.17915
 C287 C 0.12530 1.17331 0.13320
 C288 C 0.10685 1.15903 0.09461
 C289 C 0.08338 1.20859 0.10017
 C290 C 0.07932 1.27889 0.14330
 H291 H 0.12194 1.38518 0.36999
 H292 H 0.20393 1.20178 0.35219
 H293 H 0.14944 1.37855 0.44279
 H294 H 0.19594 1.16193 0.26087
 H295 H 0.16903 1.15760 0.18602
 H296 H 0.10033 1.39983 0.30361
 H297 H 0.07328 1.39317 0.23044
 H298 H 0.14243 1.12830 0.12720
 H299 H 0.11055 1.10369 0.06188
 H300 H 0.06129 1.31769 0.14846
 C301 C 0.68102 0.31271 -0.31352
 C302 C 0.65654 0.27200 -0.30747
 C303 C 0.64537 0.21630 -0.35070
 C304 C 0.65795 0.20450 -0.39781
 C305 C 0.68223 0.24556 -0.40401
 C306 C 0.69362 0.29922 -0.36074
 C307 C 0.62156 0.17188 -0.34709
 C308 C 0.60885 0.17649 -0.30056
 C309 C 0.61920 0.22943 -0.25603
 C310 C 0.64276 0.28375 -0.26021
 C311 C 0.65115 0.35094 -0.21785
 C312 C 0.63670 0.36577 -0.17343
 C313 C 0.61403 0.30969 -0.16843
 C314 C 0.60583 0.23556 -0.20847
 C315 C 0.58425 0.17109 -0.19972
 C316 C 0.56945 0.19168 -0.15672
 C317 C 0.57575 0.27625 -0.12071
 C318 C 0.59885 0.33040 -0.12496
 H319 H 0.69112 0.35367 -0.28220
 H320 H 0.64893 0.15719 -0.42888
 H321 H 0.71201 0.33521 -0.36330
 H322 H 0.61271 0.13158 -0.38052
 H323 H 0.59035 0.14170 -0.30143
 H324 H 0.66830 0.39775 -0.21897
 H325 H 0.64332 0.42161 -0.14274
 H326 H 0.57810 0.10556 -0.22601
 H327 H 0.55210 0.14619 -0.15364
 H328 H 0.60422 0.39417 -0.09664
 C329 C 0.17883 0.83665 -0.32176
 C330 C 0.15578 0.78099 -0.31530
 C331 C 0.14675 0.71605 -0.35795
 C332 C 0.16019 0.70787 -0.40454
 C333 C 0.18310 0.76345 -0.41084
 C334 C 0.19223 0.82711 -0.36825
 C335 C 0.12423 0.65907 -0.35427
 C336 C 0.11000 0.66667 -0.30957
 C337 C 0.11773 0.73211 -0.26619
 C338 C 0.14125 0.78843 -0.26859
 C339 C 0.14942 0.84946 -0.22416
 C340 C 0.13463 0.86019 -0.18013
 C341 C 0.11096 0.81270 -0.17869
 C342 C 0.10246 0.74486 -0.22091
 C343 C 0.07869 0.69499 -0.21655
 C344 C 0.06342 0.71884 -0.17426
 C345 C 0.07117 0.79232 -0.13430
 C346 C 0.09543 0.83555 -0.13586
 H347 H 0.18689 0.88997 -0.29199
 H348 H 0.15297 0.65366 -0.43528
 H349 H 0.20925 0.87504 -0.37122
 H350 H 0.11729 0.60893 -0.38677
 H351 H 0.09287 0.62002 -0.31065
 H352 H 0.16729 0.89002 -0.22204
 H353 H 0.14172 0.90738 -0.14694
 H354 H 0.07087 0.64000 -0.24587
 H355 H 0.04491 0.68313 -0.17431
 H356 H 0.10182 0.89196 -0.10518
 C357 C 0.31860 0.64514 -0.31171
 C358 C 0.34115 0.70498 -0.30446
 C359 C 0.34990 0.76880 -0.34732
 C360 C 0.33692 0.77042 -0.39506
 C361 C 0.31496 0.70775 -0.40275
 C362 C 0.30584 0.64644 -0.35982
 C363 C 0.37176 0.83080 -0.34285
 C364 C 0.38582 0.82812 -0.29727
 C365 C 0.37848 0.76350 -0.25368
 C366 C 0.35558 0.70226 -0.25689
 C367 C 0.34826 0.63868 -0.21290
 C368 C 0.36363 0.62782 -0.16906
 C369 C 0.38665 0.68153 -0.16673
 C370 C 0.39385 0.75453 -0.20785
 C371 C 0.41661 0.81301 -0.20199
 C372 C 0.43265 0.79003 -0.16031
 C373 C 0.42655 0.70981 -0.12233
 C374 C 0.40292 0.65997 -0.12431
 H375 H 0.31040 0.59542 -0.28119
 H376 H 0.34380 0.82457 -0.42588
 H377 H 0.28937 0.59470 -0.36347
 H378 H 0.37840 0.88050 -0.37550
 H379 H 0.40277 0.87594 -0.29824
 H380 H 0.33089 0.59398 -0.21150
 H381 H 0.35759 0.57533 -0.13690
 H382 H 0.42301 0.87519 -0.22944
 H383 H 0.45047 0.83236 -0.15916
 H384 H 0.39771 0.59964 -0.09451
 C385 C -0.18392 1.09897 -0.30641
 C386 C -0.16434 1.17580 -0.29611
 C387 C -0.15770 1.25078 -0.33691
 C388 C -0.16980 1.24614 -0.38588
 C389 C -0.18846 1.16630 -0.39608
 C390 C -0.19553 1.09382 -0.35556
 C391 C -0.13883 1.32950 -0.32895
 C392 C -0.12536 1.33178 -0.28236
 C393 C -0.13025 1.25485 -0.24145
 C394 C -0.15067 1.17844 -0.24762
 C395 C -0.15626 1.10549 -0.20558
 C396 C -0.14117 1.09996 -0.16116
 C397 C -0.11989 1.16624 -0.15672
 C398 C -0.11477 1.24847 -0.19555
 C399 C -0.09361 1.31729 -0.18784
 C400 C -0.07694 1.29652 -0.14692
 C401 C -0.08074 1.20758 -0.11174
 C402 C -0.10304 1.14690 -0.11501
 H403 H -0.19064 1.04105 -0.27751
 H404 H -0.16471 1.30567 -0.41613
 H405 H -0.21006 1.03215 -0.36194
 H406 H -0.13396 1.38850 -0.35963
 H407 H -0.11087 1.39412 -0.28020
 H408 H -0.17201 1.04967 -0.20605
 H409 H -0.14588 1.04093 -0.13050
 H410 H -0.08870 1.38498 -0.21383
 H411 H -0.06019 1.34701 -0.14457
 H412 H -0.10640 1.07890 -0.08761
 C413 C 0.64313 0.90149 -0.35453
 C414 C 0.64861 0.83856 -0.30882
 C415 C 0.67201 0.78364 -0.30571
 C416 C 0.68852 0.78780 -0.34816
 C417 C 0.68194 0.84611 -0.39404
 C418 C 0.65956 0.90569 -0.39587
 C419 C 0.67839 0.72199 -0.26101
 C420 C 0.66178 0.71030 -0.21999
 C421 C 0.63786 0.75946 -0.22219
 C422 C 0.63137 0.82606 -0.26707
 C423 C 0.60761 0.87646 -0.26930
 C424 C 0.59049 0.86034 -0.23015
 C425 C 0.59608 0.79255 -0.18725
 C426 C 0.61993 0.74264 -0.18177
 C427 C 0.62440 0.67531 -0.13680
 C428 C 0.60551 0.65328 -0.10107
 C429 C 0.58162 0.69819 -0.10861
 C430 C 0.57738 0.77059 -0.15100
 H431 H 0.62594 0.94524 -0.36087
 H432 H 0.70580 0.74074 -0.34664
 H433 H 0.65423 0.95211 -0.43079
 H434 H 0.69639 0.68140 -0.25790
 H435 H 0.66823 0.66120 -0.18711
 H436 H 0.60124 0.92831 -0.30126
 H437 H 0.57239 0.89991 -0.23413
 H438 H 0.64202 0.63562 -0.12877
 H439 H 0.60937 0.59646 -0.06875
 H440 H 0.55894 0.80459 -0.15784
 C441 C 0.18083 1.16385 -0.31579
 C442 C 0.15824 1.22370 -0.30918
 C443 C 0.14930 1.28768 -0.35220
 C444 C 0.16223 1.29047 -0.39931
 C445 C 0.18447 1.23007 -0.40603
 C446 C 0.19380 1.16823 -0.36306
 C447 C 0.12729 1.34862 -0.34857
 C448 C 0.11315 1.34418 -0.30377
 C449 C 0.12057 1.27848 -0.26024
 C450 C 0.14389 1.22029 -0.26222
 C451 C 0.15181 1.15968 -0.21746
 C452 C 0.13666 1.14851 -0.17403
 C453 C 0.11299 1.19609 -0.17353
 C454 C 0.10503 1.26599 -0.21552
 C455 C 0.08148 1.31815 -0.21152
 C456 C 0.06570 1.29305 -0.17034
 C457 C 0.07276 1.21588 -0.13136
 C458 C 0.09693 1.17164 -0.13193
 H459 H 0.18883 1.11172 -0.28545
 H460 H 0.15520 1.34450 -0.43039
 H461 H 0.21061 1.11881 -0.36627
 H462 H 0.12049 1.39803 -0.38144
 H463 H 0.09616 1.39171 -0.30522
 H464 H 0.16964 1.11879 -0.21486
 H465 H 0.14341 1.10067 -0.14066
 H466 H 0.07421 1.37614 -0.24024
 H467 H 0.04736 1.33055 -0.17056
 H468 H 0.10284 1.11319 -0.10156
 C469 C 0.35917 0.17261 -0.38253
 C470 C 0.35497 0.23322 -0.33580
 C471 C 0.33235 0.29359 -0.33164
 C472 C 0.31595 0.30185 -0.37474
 C473 C 0.32123 0.24700 -0.42202
 C474 C 0.34258 0.17943 -0.42459
 C475 C 0.32633 0.34609 -0.28464
 C476 C 0.34259 0.34311 -0.24202
 C477 C 0.36610 0.29098 -0.24542
 C478 C 0.37249 0.23636 -0.29340
 C479 C 0.39662 0.19140 -0.29844
 C480 C 0.41412 0.20155 -0.25861
 C481 C 0.40817 0.25394 -0.21164
 C482 C 0.38389 0.29597 -0.20339
 C483 C 0.37874 0.34308 -0.15370
 C484 C 0.39751 0.35659 -0.11594
 C485 C 0.42190 0.32268 -0.12619
 C486 C 0.42679 0.26752 -0.17347
 H487 H 0.37489 0.11753 -0.38765
 H488 H 0.29941 0.35339 -0.37171
 H489 H 0.34655 0.13111 -0.45949
 H490 H 0.30877 0.38976 -0.28070
 H491 H 0.33652 0.38636 -0.20740
 H492 H 0.40306 0.15230 -0.33382
 H493 H 0.43269 0.16950 -0.26501
 H494 H 0.36047 0.37102 -0.14291
 H495 H 0.39300 0.39657 -0.07912
 H496 H 0.44547 0.23918 -0.18179
 C497 C -0.14705 0.67992 -0.36136
 C498 C -0.15244 0.71938 -0.31049
 C499 C -0.17560 0.77365 -0.30296
 C500 C -0.19142 0.79669 -0.34601
 C501 C -0.18429 0.76800 -0.39701
 C502 C -0.16267 0.70418 -0.40360
 C503 C -0.18232 0.80870 -0.25295
 C504 C -0.16562 0.80139 -0.21108
 C505 C -0.14141 0.75822 -0.21775
 C506 C -0.13516 0.71180 -0.26768
 C507 C -0.11127 0.66520 -0.27412
 C508 C -0.09335 0.67282 -0.23512
 C509 C -0.09847 0.72617 -0.18799
 C510 C -0.12275 0.76522 -0.17731
 C511 C -0.12676 0.81498 -0.12763
 C512 C -0.10688 0.83709 -0.09324
 C513 C -0.08258 0.80713 -0.10659
 C514 C -0.07889 0.74580 -0.15271
 H515 H -0.13059 0.63275 -0.37053
 H516 H -0.20860 0.84211 -0.34000
 H517 H -0.15738 0.67522 -0.44213
 H518 H -0.20036 0.84641 -0.24645
 H519 H -0.17195 0.83447 -0.17429
 H520 H -0.10535 0.62557 -0.30970
 H521 H -0.07492 0.64056 -0.24288
 H522 H -0.14485 0.84150 -0.11496
 H523 H -0.11044 0.88172 -0.05709
 H524 H -0.06032 0.71932 -0.16320
 C525 C 0.35984 0.83530 0.37358
 C526 C 0.35549 0.78157 0.32493
 C527 C 0.33220 0.72757 0.31734
 C528 C 0.31477 0.72278 0.35814
 C529 C 0.32012 0.77113 0.40709
 C530 C 0.34237 0.83135 0.41327
 C531 C 0.32684 0.67438 0.26984
 C532 C 0.34415 0.67190 0.22986
 C533 C 0.36780 0.72232 0.23584
 C534 C 0.37365 0.77709 0.28437
 C535 C 0.39774 0.82246 0.29133
 C536 C 0.41582 0.81036 0.25349
 C537 C 0.41056 0.75595 0.20639
 C538 C 0.38621 0.71579 0.19578
 C539 C 0.38148 0.66970 0.14557
 C540 C 0.40061 0.65486 0.10972
 C541 C 0.42515 0.68478 0.12247
 C542 C 0.42975 0.73935 0.17027
 H543 H 0.37676 0.87947 0.38294
 H544 H 0.29759 0.67644 0.35263
 H545 H 0.34678 0.87301 0.44996
 H546 H 0.30915 0.63252 0.26376
 H547 H 0.33871 0.62619 0.19514
 H548 H 0.40359 0.86573 0.32635
 H549 H 0.43421 0.84402 0.26132
 H550 H 0.36322 0.64392 0.13279
 H551 H 0.39620 0.61653 0.07228
 H552 H 0.44849 0.76555 0.18033
 C553 C -0.18079 1.21724 0.31451
 C554 C -0.15524 1.19065 0.31612
 C555 C -0.14469 1.16276 0.36538
 C556 C -0.15947 1.15516 0.41000
 C557 C -0.18492 1.18427 0.40895
 C558 C -0.19515 1.21571 0.35986
 C559 C -0.11933 1.14125 0.37016
 C560 C -0.10399 1.14974 0.32727
 C561 C -0.11360 1.17578 0.27706
 C562 C -0.13977 1.19113 0.27086
 C563 C -0.14958 1.20245 0.21955
 C564 C -0.13431 1.19826 0.17592
 C565 C -0.10860 1.18831 0.18166
 C566 C -0.09790 1.18222 0.23260
 C567 C -0.07178 1.18316 0.23711
 C568 C -0.05702 1.18167 0.19301
 C569 C -0.06753 1.17855 0.14258
 C570 C -0.09345 1.18291 0.13699
 H571 H -0.19009 1.24320 0.27893
 H572 H -0.15078 1.12157 0.44501
 H573 H -0.21414 1.24320 0.35539
 H574 H -0.11116 1.11881 0.40775
 H575 H -0.08468 1.13085 0.33446
 H576 H -0.16923 1.20890 0.21174
 H577 H -0.14273 1.20307 0.13725
 H578 H -0.06210 1.18659 0.27423
 H579 H -0.03707 1.17830 0.19880
 H580 H -0.10178 1.18128 0.09816
 C581 C 0.63496 0.12701 0.37177
 C582 C 0.64231 0.15987 0.32116
 C583 C 0.66734 0.19397 0.31447
 C584 C 0.68412 0.19451 0.35735
 C585 C 0.67619 0.16344 0.40752
 C586 C 0.65158 0.12801 0.41359
 C587 C 0.67524 0.23005 0.26538
 C588 C 0.65869 0.23668 0.22319
 C589 C 0.63343 0.20646 0.22835
 C590 C 0.62539 0.16331 0.27765
 C591 C 0.60052 0.12723 0.28228
 C592 C 0.58383 0.13603 0.24100
 C593 C 0.59086 0.18439 0.19387
 C594 C 0.61571 0.22022 0.18642
 C595 C 0.62134 0.27310 0.13826
 C596 C 0.60277 0.29432 0.10076
 C597 C 0.57809 0.26201 0.10949
 C598 C 0.57259 0.20302 0.15534
 H599 H 0.61638 0.10167 0.38119
 H600 H 0.70298 0.22404 0.35205
 H601 H 0.64483 0.10178 0.45145
 H602 H 0.69437 0.25513 0.25964
 H603 H 0.66630 0.26560 0.18676
 H604 H 0.59306 0.09222 0.31760
 H605 H 0.56484 0.10896 0.24695
 H606 H 0.63960 0.30401 0.12931
 H607 H 0.60761 0.34069 0.06582
 H608 H 0.55356 0.17867 0.16315
 C609 C 0.14342 0.63188 0.35687
 C610 C 0.14883 0.68959 0.30988
 C611 C 0.17192 0.74673 0.30705
 C612 C 0.18806 0.75069 0.35093
 C613 C 0.18160 0.69757 0.39803
 C614 C 0.15954 0.63553 0.39969
 C615 C 0.17843 0.80206 0.26095
 C616 C 0.16225 0.80501 0.21804
 C617 C 0.13857 0.75389 0.21974
 C618 C 0.13190 0.69427 0.26634
 C619 C 0.10815 0.64439 0.26866
 C620 C 0.09140 0.65231 0.22746
 C621 C 0.09719 0.71296 0.18263
 C622 C 0.12089 0.76359 0.17741
 C623 C 0.12531 0.82556 0.13087
 C624 C 0.10640 0.84258 0.09348
 C625 C 0.08261 0.79738 0.10078
 C626 C 0.07865 0.72856 0.14446
 H627 H 0.12673 0.58392 0.36246
 H628 H 0.20507 0.79949 0.34918
 H629 H 0.15433 0.59144 0.43508
 H630 H 0.19617 0.84467 0.25815
 H631 H 0.16874 0.84984 0.18419
 H632 H 0.10144 0.60057 0.30250
 H633 H 0.07329 0.61343 0.23156
 H634 H 0.14282 0.86597 0.12314
 H635 H 0.11015 0.89598 0.06006
 H636 H 0.06041 0.69279 0.15082
   
