data_POSCAR
  _audit_creation_date              2014-09-24
  _audit_creation_method            'ToBaCCo'
  _symmetry_space_group_name_H-M    'P1'
  _symmetry_Int_Tables_number       1
  _symmetry_cell_setting            triclinic
  loop_
  _symmetry_equiv_pos_as_xyz
 x,y,z
_cell_length_a 29.1132
_cell_length_b 29.1732
_cell_length_c 24.3861
_cell_angle_alpha 90.092400
_cell_angle_beta 89.890200
_cell_angle_gamma 89.836000
loop_
  _atom_site_label
  _atom_site_type_symbol
  _atom_site_fract_x
  _atom_site_fract_y
  _atom_site_fract_z
C1 C 0.36318 0.02013 0.31039
 C2 C 0.33890 0.06092 0.28468
 C3 C 0.31358 0.05057 0.23958
 C4 C 0.31414 -0.00074 0.22491
 C5 C 0.32521 -0.01445 0.32274
 C6 C 0.29991 -0.02569 0.27801
 C7 C 0.39096 -0.00163 0.26384
 C8 C 0.36541 -0.01264 0.21926
 H9 H 0.34117 0.09508 0.30186
 H10 H 0.29334 -0.00979 0.18832
 H11 H 0.32145 -0.03199 0.36157
 H12 H 0.42779 -0.00694 0.26557
 C13 C 0.13043 -0.01847 0.79686
 C14 C 0.16131 -0.05664 0.77626
 C15 C 0.18758 -0.04500 0.73254
 C16 C 0.18158 0.00527 0.71461
 C17 C 0.16298 0.02109 0.81018
 C18 C 0.18971 0.03324 0.76729
 C19 C 0.10421 -0.00358 0.74945
 C20 C 0.13232 0.01032 0.70419
 H21 H 0.16196 -0.09044 0.79473
 H22 H 0.20421 0.01519 0.67986
 H23 H 0.16502 0.03839 0.84935
 H24 H 0.06708 -0.00112 0.74948
 C25 C 0.63869 0.47846 0.30061
 C26 C 0.66523 0.44098 0.27203
 C27 C 0.69070 0.45544 0.22881
 C28 C 0.68757 0.50768 0.21853
 C29 C 0.67489 0.51358 0.31695
 C30 C 0.69956 0.52978 0.27411
 C31 C 0.61018 0.50138 0.25541
 C32 C 0.63572 0.51685 0.21233
 H33 H 0.66578 0.40599 0.28699
 H34 H 0.70890 0.51986 0.18368
 H35 H 0.67738 0.52836 0.35759
 H36 H 0.57310 0.50421 0.25710
 C37 C 0.86324 0.51892 0.81369
 C38 C 0.83361 0.55745 0.79139
 C39 C 0.80854 0.54590 0.74649
 C40 C 0.81418 0.49532 0.72932
 C41 C 0.83004 0.47969 0.82566
 C42 C 0.80460 0.46728 0.78170
 C43 C 0.89183 0.50262 0.76472
 C44 C 0.86636 0.49003 0.72066
 H45 H 0.83441 0.59168 0.80850
 H46 H 0.79321 0.48525 0.69326
 H47 H 0.82780 0.46192 0.86447
 H48 H 0.92904 0.50138 0.76499
 C49 C 0.29366 0.45358 1.00805
 C50 C 0.27479 0.42472 1.05532
 C51 C 0.24367 0.39255 1.03906
 C52 C 0.23613 0.39101 0.97674
 C53 C 0.31343 0.41916 0.96696
 C54 C 0.28407 0.38645 0.95090
 C55 C 0.25045 0.47322 0.98005
 C56 C 0.22041 0.43996 0.96373
 H57 H 0.28256 0.43194 1.09784
 H58 H 0.21167 0.36403 0.96356
 H59 H 0.34772 0.42181 0.94985
 H60 H 0.24195 0.50936 0.97935
 C61 C 0.78601 0.04651 0.97849
 C62 C 0.76318 0.07437 0.93308
 C63 C 0.73146 0.10509 0.95145
 C64 C 0.72396 0.10373 1.01402
 C65 C 0.80463 0.08263 1.01769
 C66 C 0.77291 0.11156 1.03807
 C67 C 0.74890 0.02441 1.00783
 C68 C 0.71348 0.05566 1.02532
 H69 H 0.77374 0.07271 0.89048
 H70 H 0.69775 0.12845 1.02920
 H71 H 0.84018 0.08373 1.03078
 H72 H 0.74492 -0.01250 1.00875
 C73 C 0.28884 0.55093 0.47243
 C74 C 0.26766 0.58040 0.42761
 C75 C 0.23618 0.61140 0.44589
 C76 C 0.22749 0.60887 0.50835
 C77 C 0.30711 0.58525 0.51428
 C78 C 0.27558 0.61441 0.53471
 C79 C 0.24799 0.52785 0.50032
 C80 C 0.21522 0.55813 0.51789
 H81 H 0.27704 0.57674 0.38491
 H82 H 0.20128 0.63350 0.52370
 H83 H 0.34208 0.58457 0.52939
 H84 H 0.24325 0.49104 0.50091
 C85 C 0.79072 0.95181 0.51090
 C86 C 0.77316 0.92090 0.55697
 C87 C 0.74250 0.88868 0.53966
 C88 C 0.73423 0.88911 0.47745
 C89 C 0.81065 0.91935 0.46772
 C90 C 0.78184 0.88666 0.45036
 C91 C 0.74669 0.97149 0.48476
 C92 C 0.71718 0.93813 0.46732
 H93 H 0.78105 0.92710 0.59968
 H94 H 0.71026 0.86201 0.46345
 H95 H 0.84469 0.92324 0.45039
 H96 H 0.73745 1.00745 0.48594
 C97 C -0.01205 0.29543 0.41966
 C98 C 0.02511 0.30428 0.37587
 C99 C 0.03287 0.26811 0.34141
 C100 C 0.00247 0.22562 0.35449
 C101 C -0.05230 0.28069 0.38965
 C102 C -0.04521 0.24260 0.35331
 C103 C 0.00527 0.25245 0.44932
 C104 C 0.01339 0.21567 0.41602
 H105 H 0.04415 0.33603 0.37308
 H106 H 0.00903 0.19591 0.32699
 H107 H -0.08472 0.29864 0.39343
 H108 H 0.01215 0.25175 0.49295
 C109 C 0.01719 0.78828 0.08695
 C110 C -0.02377 0.79343 0.12558
 C111 C -0.03201 0.75610 0.15694
 C112 C 0.00167 0.71553 0.14610
 C113 C 0.05732 0.77442 0.12291
 C114 C 0.05011 0.73625 0.15358
 C115 C 0.00625 0.74581 0.05304
 C116 C -0.00173 0.70735 0.08327
 H117 H -0.04526 0.82377 0.12740
 H118 H -0.00499 0.68462 0.17137
 H119 H 0.08911 0.79362 0.12358
 H120 H 0.00541 0.74620 0.00863
 C121 C 0.51814 0.28546 0.58713
 C122 C 0.47767 0.29159 0.62630
 C123 C 0.46911 0.25469 0.65820
 C124 C 0.50186 0.21345 0.64739
 C125 C 0.55844 0.27107 0.62274
 C126 C 0.55070 0.23335 0.65415
 C127 C 0.50607 0.24282 0.55391
 C128 C 0.49767 0.20476 0.58472
 H129 H 0.45670 0.32228 0.62810
 H130 H 0.49481 0.18290 0.67314
 H131 H 0.59049 0.28984 0.62310
 H132 H 0.50454 0.24285 0.50952
 C133 C 0.48729 0.79376 0.92019
 C134 C 0.52462 0.80076 0.87607
 C135 C 0.53340 0.76282 0.84497
 C136 C 0.50370 0.72051 0.86134
 C137 C 0.44561 0.77630 0.88828
 C138 C 0.45335 0.73837 0.85672
 C139 C 0.50348 0.75513 0.95176
 C140 C 0.51295 0.71467 0.92045
 H141 H 0.54281 0.83258 0.86970
 H142 H 0.51085 0.68954 0.83615
 H143 H 0.41283 0.79392 0.88955
 H144 H 0.50923 0.75722 0.99561
 C145 C -0.22896 0.61449 0.94148
 C146 C -0.18798 0.59138 0.96820
 C147 C -0.19819 0.56701 1.01394
 C148 C -0.24973 0.56719 1.02824
 C149 C -0.26298 0.57595 0.92996
 C150 C -0.27434 0.55161 0.97541
 C151 C -0.25146 0.64298 0.98689
 C152 C -0.26247 0.61827 1.03216
 H153 H -0.15385 0.59318 0.95068
 H154 H -0.25874 0.54706 1.06536
 H155 H -0.28066 0.57170 0.89126
 H156 H -0.25746 0.67956 0.98379
 C157 C -0.26915 0.38185 0.45244
 C158 C -0.30702 0.41289 0.47343
 C159 C -0.29511 0.43825 0.51776
 C160 C -0.24495 0.43144 0.53575
 C161 C -0.22903 0.41400 0.43998
 C162 C -0.21669 0.43984 0.48346
 C163 C -0.25478 0.35483 0.49947
 C164 C -0.24061 0.38217 0.54527
 H165 H -0.34096 0.41391 0.45520
 H166 H -0.23486 0.45349 0.57093
 H167 H -0.21153 0.41648 0.40094
 H168 H -0.25290 0.31774 0.49887
 C169 C 0.22860 -0.11465 -0.04905
 C170 C 0.19065 -0.08662 -0.02322
 C171 C 0.20449 -0.06053 0.01984
 C172 C 0.25654 -0.06453 0.03227
 C173 C 0.26479 -0.07933 -0.06538
 C174 C 0.28005 -0.05378 -0.02289
 C175 C 0.24847 -0.14107 -0.00445
 C176 C 0.26418 -0.11357 0.04043
 H177 H 0.15589 -0.08628 -0.03915
 H178 H 0.26805 -0.04230 0.06663
 H179 H 0.28005 -0.07706 -0.10577
 H180 H 0.25099 -0.17812 -0.00518
 C181 C 0.26847 1.11497 0.43764
 C182 C 0.30782 1.08672 0.46048
 C183 C 0.29674 1.06163 0.50543
 C184 C 0.24590 1.06561 0.52203
 C185 C 0.23035 1.08050 0.42548
 C186 C 0.21857 1.05476 0.46949
 C187 C 0.25088 1.14322 0.48630
 C188 C 0.23884 1.11749 0.53043
 H189 H 0.34203 1.08790 0.44307
 H190 H 0.23633 1.04444 0.55811
 H191 H 0.21285 1.07770 0.38651
 H192 H 0.24874 1.18031 0.48591
 C193 C 0.20003 0.54410 0.23860
 C194 C 0.17252 0.52254 0.19175
 C195 C 0.14181 0.49000 0.20869
 C196 C 0.14063 0.48334 0.27106
 C197 C 0.16429 0.56258 0.27858
 C198 C 0.13331 0.53165 0.29558
 C199 C 0.22176 0.50318 0.26847
 C200 C 0.19051 0.47098 0.28430
 H201 H 0.17914 0.53045 0.14914
 H202 H 0.11538 0.45747 0.28529
 H203 H 0.16527 0.59710 0.29511
 H204 H 0.25842 0.49671 0.26893
 C205 C -0.20402 1.03767 0.27531
 C206 C -0.17722 1.01431 0.32118
 C207 C -0.14664 0.98212 0.30353
 C208 C -0.14790 0.97422 0.24082
 C209 C -0.16712 1.05504 0.23621
 C210 C -0.13890 1.02255 0.21610
 C211 C -0.22690 1.00093 0.24615
 C212 C -0.19628 0.96467 0.22926
 H213 H -0.18119 1.02379 0.36382
 H214 H -0.12366 0.94746 0.22596
 H215 H -0.16538 1.09034 0.22254
 H216 H -0.26396 0.99790 0.24486
 C217 C 0.30055 0.53786 -0.22394
 C218 C 0.32982 0.51660 -0.17900
 C219 C 0.36079 0.48502 -0.19705
 C220 C 0.35796 0.47579 -0.25935
 C221 C 0.33515 0.55541 -0.26594
 C222 C 0.36390 0.52348 -0.28617
 C223 C 0.27693 0.49721 -0.25140
 C224 C 0.30694 0.46405 -0.26868
 H225 H 0.32635 0.52635 -0.13641
 H226 H 0.38238 0.44931 -0.27447
 H227 H 0.33506 0.59026 -0.28125
 H228 H 0.24000 0.49289 -0.25186
 C229 C 0.69557 0.04009 -0.26553
 C230 C 0.66758 0.01593 -0.31009
 C231 C 0.63750 -0.01600 -0.29041
 C232 C 0.63821 -0.02044 -0.22764
 C233 C 0.65973 0.05972 -0.22644
 C234 C 0.63064 0.02872 -0.20528
 C235 C 0.71886 0.00100 -0.23409
 C236 C 0.68876 -0.03155 -0.21596
 H237 H 0.67279 0.02248 -0.35326
 H238 H 0.61386 -0.04621 -0.21111
 H239 H 0.65908 0.09542 -0.21401
 H240 H 0.75563 -0.00469 -0.23536
 C241 C 0.04341 0.23457 0.83295
 C242 C 0.04951 0.27178 0.87725
 C243 C 0.01087 0.28031 0.90758
 C244 C -0.03111 0.25067 0.89012
 C245 C 0.02541 0.19286 0.86450
 C246 C -0.01320 0.20068 0.89512
 C247 C 0.00504 0.25075 0.80057
 C248 C -0.03615 0.25960 0.83092
 H249 H 0.08113 0.29042 0.88365
 H250 H -0.06255 0.25767 0.91464
 H251 H 0.04323 0.16021 0.86417
 H252 H 0.00753 0.25609 0.75669
 C253 C 0.53986 0.26909 0.15891
 C254 C 0.54504 0.22926 0.11867
 C255 C 0.50727 0.22117 0.08788
 C256 C 0.46647 0.25419 0.10034
 C257 C 0.52501 0.30989 0.12463
 C258 C 0.48659 0.30304 0.09413
 C259 C 0.49774 0.25670 0.19306
 C260 C 0.45897 0.24898 0.16313
 H261 H 0.57515 0.20746 0.11650
 H262 H 0.43530 0.24775 0.07535
 H263 H 0.54403 0.34176 0.12459
 H264 H 0.49868 0.25440 0.23739
 C265 C 0.03792 0.76755 0.66077
 C266 C 0.04436 0.72850 0.61975
 C267 C 0.00722 0.72028 0.58797
 C268 C -0.03440 0.75223 0.60048
 C269 C 0.02273 0.80867 0.62712
 C270 C -0.01515 0.80151 0.59565
 C271 C -0.00440 0.75384 0.69380
 C272 C -0.04261 0.74588 0.66299
 H273 H 0.07499 0.70743 0.61756
 H274 H -0.06511 0.74554 0.57477
 H275 H 0.04128 0.84080 0.62795
 H276 H -0.00404 0.75078 0.73807
 C277 C 0.54202 0.73489 0.33266
 C278 C 0.54863 0.77063 0.37855
 C279 C 0.51047 0.77818 0.40983
 C280 C 0.46838 0.74959 0.39205
 C281 C 0.52391 0.69240 0.36209
 C282 C 0.48592 0.69942 0.39385
 C283 C 0.50125 0.75328 0.29998
 C284 C 0.46272 0.76165 0.33027
 H285 H 0.58005 0.78955 0.38502
 H286 H 0.43721 0.75599 0.41727
 H287 H 0.54148 0.65968 0.35968
 H288 H 0.50349 0.76083 0.25657
 B289 B -0.03686 0.01902 1.04916
 B290 B -0.05278 0.00319 0.98594
 B291 B -0.01997 0.05001 0.99437
 B292 B 0.01692 0.04031 1.04690
 B293 B 0.00658 -0.01442 1.07016
 B294 B -0.03788 -0.03693 1.03205
 B295 B 0.03303 -0.01997 0.96337
 B296 B 0.04953 -0.00391 1.02614
 B297 B 0.01631 -0.05014 1.01701
 B298 B -0.02063 -0.04056 0.96536
 B299 B -0.00960 0.01367 0.94200
 B300 B 0.03455 0.03592 0.97994
 B301 B 0.46294 0.51634 0.54497
 B302 B 0.44807 0.50080 0.48125
 B303 B 0.48103 0.54720 0.49084
 B304 B 0.51679 0.53716 0.54428
 B305 B 0.50555 0.48243 0.56704
 B306 B 0.46164 0.46037 0.52762
 B307 B 0.53422 0.47704 0.46100
 B308 B 0.54936 0.49276 0.52432
 B309 B 0.51607 0.44672 0.51404
 B310 B 0.48031 0.45674 0.46125
 B311 B 0.49224 0.51100 0.43851
 B312 B 0.53569 0.53287 0.47790
 B313 B 0.53205 0.96089 0.55868
 B314 B 0.54908 0.97027 0.49395
 B315 B 0.50844 0.93109 0.50707
 B316 B 0.47503 0.94996 0.55939
 B317 B 0.49566 1.00292 0.57830
 B318 B 0.54254 1.01521 0.53744
 B319 B 0.46816 1.00736 0.47151
 B320 B 0.45046 0.99805 0.53563
 B321 B 0.49109 1.03725 0.52315
 B322 B 0.52471 1.01848 0.47088
 B323 B 0.50368 0.96582 0.45196
 B324 B 0.45717 0.95343 0.49249
 B325 B 0.03815 0.46432 1.05573
 B326 B 0.05289 0.47296 0.99015
 B327 B 0.01286 0.43364 1.00566
 B328 B -0.01880 0.45307 1.05940
 B329 B 0.00218 0.50633 1.07641
 B330 B 0.04748 0.51842 1.03307
 B331 B -0.02894 0.50956 0.97116
 B332 B -0.04441 0.50086 1.03618
 B333 B -0.00443 0.53999 1.02104
 B334 B 0.02749 0.52080 0.96746
 B335 B 0.00609 0.46787 0.95039
 B336 B -0.03898 0.45581 0.99340
 B337 B 0.02546 0.52802 0.45647
 B338 B 0.04648 0.51859 0.51919
 B339 B 0.00893 0.56138 0.50897
 B340 B -0.02975 0.54490 0.46156
 B341 B -0.01594 0.49017 0.44229
 B342 B 0.03240 0.47387 0.47847
 B343 B -0.03608 0.49007 0.55171
 B344 B -0.05697 0.50055 0.48950
 B345 B -0.01970 0.45717 0.49871
 B346 B 0.01895 0.47328 0.54682
 B347 B 0.00525 0.52843 0.56607
 B348 B -0.04256 0.54461 0.53038
 B349 B 0.52702 0.02730 -0.03986
 B350 B 0.54591 0.01866 0.02402
 B351 B 0.50773 0.06066 0.01139
 B352 B 0.47125 0.04292 -0.03790
 B353 B 0.48704 -0.01148 -0.05568
 B354 B 0.53416 -0.02634 -0.01703
 B355 B 0.46265 -0.01156 0.05246
 B356 B 0.44394 -0.00216 -0.01100
 B357 B 0.48181 -0.04421 0.00046
 B358 B 0.51819 -0.02708 0.05042
 B359 B 0.50247 0.02789 0.06862
 B360 B 0.45541 0.04275 0.02993
 B361 B 0.47617 0.48555 -0.04720
 B362 B 0.45402 0.50620 0.01167
 B363 B 0.48540 0.45792 0.01138
 B364 B 0.52836 0.46285 -0.03499
 B365 B 0.52288 0.51616 -0.06440
 B366 B 0.47568 0.54248 -0.03522
 B367 B 0.53818 0.52709 0.04571
 B368 B 0.56017 0.50688 -0.01263
 B369 B 0.52839 0.55518 -0.01345
 B370 B 0.48604 0.55003 0.03369
 B371 B 0.49130 0.49666 0.06270
 B372 B 0.53809 0.47020 0.03369
 B373 B -0.02967 0.98276 0.45124
 B374 B -0.04968 1.00382 0.51096
 B375 B -0.01840 0.95540 0.50946
 B376 B 0.02289 0.96002 0.46088
 B377 B 0.01640 1.01321 0.43147
 B378 B -0.02959 1.03979 0.46283
 B379 B 0.03559 1.02449 0.54075
 B380 B 0.05550 1.00410 0.48116
 B381 B 0.02387 1.05243 0.48186
 B382 B -0.01676 1.04771 0.53111
 B383 B -0.01071 0.99435 0.56007
 B384 B 0.03506 0.96766 0.52889
 B385 B 0.77226 0.21511 0.20273
 B386 B 0.75538 0.19999 0.26582
 B387 B 0.80225 0.23308 0.25815
 B388 B 0.79320 0.26897 0.20440
 B389 B 0.73879 0.25794 0.17996
 B390 B 0.71586 0.21399 0.21847
 B391 B 0.73093 0.28583 0.28585
 B392 B 0.74816 0.30153 0.22322
 B393 B 0.70185 0.26812 0.23185
 B394 B 0.71076 0.23206 0.28454
 B395 B 0.76442 0.24384 0.30909
 B396 B 0.78734 0.28752 0.27076
 B397 B 0.71658 0.78468 0.69303
 B398 B 0.72782 0.80114 0.75752
 B399 B 0.68570 0.76317 0.74533
 B400 B 0.70209 0.72844 0.69274
 B401 B 0.75596 0.74563 0.67268
 B402 B 0.77168 0.79151 0.71317
 B403 B 0.76015 0.71813 0.77937
 B404 B 0.74898 0.70090 0.71565
 B405 B 0.79077 0.73906 0.72696
 B406 B 0.77481 0.77338 0.77944
 B407 B 0.72093 0.75628 0.79976
 B408 B 0.70526 0.71059 0.75963
 B409 B 0.27916 0.27498 0.79415
 B410 B 0.26805 0.29562 0.73162
 B411 B 0.31131 0.25838 0.74066
 B412 B 0.29610 0.21987 0.78884
 B413 B 0.24170 0.23353 0.80990
 B414 B 0.22442 0.28161 0.77396
 B415 B 0.23907 0.21305 0.70054
 B416 B 0.25111 0.19239 0.76255
 B417 B 0.20727 0.22945 0.75473
 B418 B 0.22204 0.26785 0.70579
 B419 B 0.27696 0.25441 0.68474
 B420 B 0.29421 0.20688 0.72010
 B421 B 0.23197 0.72559 0.29555
 B422 B 0.25231 0.70485 0.23583
 B423 B 0.20410 0.73620 0.23754
 B424 B 0.20917 0.77797 0.28515
 B425 B 0.26266 0.77173 0.31398
 B426 B 0.28886 0.72530 0.28310
 B427 B 0.27331 0.78963 0.20439
 B428 B 0.25317 0.81017 0.26367
 B429 B 0.30151 0.77843 0.26305
 B430 B 0.29628 0.73728 0.21457
 B431 B 0.24267 0.74326 0.18607
 B432 B 0.21628 0.78930 0.21672
 B433 B 0.27003 0.71368 0.70377
 B434 B 0.25435 0.69808 0.76723
 B435 B 0.30061 0.73164 0.75846
 B436 B 0.29020 0.76780 0.70542
 B437 B 0.23560 0.75611 0.68217
 B438 B 0.21390 0.71161 0.72080
 B439 B 0.22921 0.78339 0.78858
 B440 B 0.24508 0.79954 0.72566
 B441 B 0.19941 0.76550 0.73505
 B442 B 0.20971 0.72942 0.78733
 B443 B 0.26381 0.74181 0.81065
 B444 B 0.28529 0.78591 0.77210
 B445 B 0.21806 0.28915 0.19299
 B446 B 0.22845 0.30435 0.25808
 B447 B 0.18672 0.26650 0.24418
 B448 B 0.20393 0.23284 0.19088
 B449 B 0.25796 0.25081 0.17225
 B450 B 0.27286 0.29599 0.21427
 B451 B 0.26107 0.22123 0.27815
 B452 B 0.25085 0.20523 0.21380
 B453 B 0.29214 0.24345 0.22698
 B454 B 0.27531 0.27657 0.28009
 B455 B 0.22133 0.25868 0.29896
 B456 B 0.20642 0.21370 0.25726
 B457 B 0.77696 0.77789 0.29084
 B458 B 0.76663 0.79719 0.22759
 B459 B 0.80928 0.75929 0.23837
 B460 B 0.79296 0.72244 0.28792
 B461 B 0.73868 0.73758 0.30765
 B462 B 0.72251 0.78472 0.26998
 B463 B 0.73652 0.71402 0.19922
 B464 B 0.74743 0.69493 0.26223
 B465 B 0.70472 0.73239 0.25239
 B466 B 0.72048 0.76934 0.20237
 B467 B 0.77525 0.75426 0.18225
 B468 B 0.79140 0.70710 0.21999
 B469 B 0.73343 0.21828 0.79859
 B470 B 0.75093 0.19922 0.73667
 B471 B 0.70364 0.23137 0.74236
 B472 B 0.71134 0.27130 0.79197
 B473 B 0.76595 0.26310 0.81731
 B474 B 0.79004 0.21708 0.78262
 B475 B 0.77252 0.28458 0.70841
 B476 B 0.75519 0.30348 0.76967
 B477 B 0.80287 0.27086 0.76467
 B478 B 0.79480 0.23147 0.71456
 B479 B 0.74043 0.23989 0.68974
 B480 B 0.71609 0.28498 0.72394
 N481 N 0.45000 1.06460 0.39803
 N482 N 0.42296 1.06868 0.35486
 C483 C 0.39277 1.03383 0.35737
 C484 C 0.40215 1.00838 0.40331
 N485 N 0.43785 1.02882 0.42798
 H486 H 0.38755 0.97568 0.41475
 N487 N -0.05018 0.56657 0.89866
 N488 N -0.07821 0.56980 0.85631
 C489 C -0.10734 0.53415 0.85997
 C490 C -0.09664 0.50938 0.90597
 N491 N -0.06085 0.53067 0.92920
 H492 H -0.11000 0.47636 0.91809
 N493 N 0.05397 -0.07448 0.88898
 N494 N 0.07672 -0.07333 0.84212
 C495 C 0.10211 -0.03488 0.84346
 C496 C 0.09543 -0.01343 0.89282
 N497 N 0.06489 -0.03890 0.92011
 H498 H 0.10746 0.02000 0.90541
 N499 N 0.55980 0.42161 0.38893
 N500 N 0.58595 0.42170 0.34457
 C501 C 0.61091 0.46043 0.34689
 C502 C 0.59968 0.48369 0.39383
 N503 N 0.56779 0.45843 0.41924
 H504 H 0.60977 0.51807 0.40525
 N505 N 0.60996 0.56517 0.08177
 N506 N 0.63766 0.56141 0.12469
 C507 C 0.61494 0.53676 0.16264
 C508 C 0.57239 0.52614 0.14181
 N509 N 0.57044 0.54402 0.09094
 H510 H 0.54769 0.50263 0.15934
 N511 N 0.11206 1.05280 0.57264
 N512 N 0.13995 1.04509 0.61440
 C513 C 0.11440 1.02752 0.65510
 C514 C 0.06956 1.02547 0.63702
 N515 N 0.06945 1.04066 0.58465
 H516 H 0.04114 1.00866 0.65733
 N517 N -0.10403 0.44676 0.58873
 N518 N -0.13174 0.44769 0.63182
 C519 C -0.11231 0.47560 0.66890
 C520 C -0.07173 0.49162 0.64742
 N521 N -0.06777 0.47312 0.59707
 H522 H -0.04945 0.51748 0.66483
 N523 N 0.43772 -0.06870 0.12406
 N524 N 0.41135 -0.07042 0.16838
 C525 C 0.38694 -0.03109 0.16972
 C526 C 0.39983 -0.00494 0.12563
 N527 N 0.43143 -0.02951 0.09779
 H528 H 0.39075 0.03051 0.11805
 N529 N 0.37584 0.54292 0.00861
 N530 N 0.33200 0.53082 0.00855
 C531 C 0.33065 0.48660 0.02422
 C532 C 0.37503 0.47261 0.03519
 N533 N 0.40242 0.50791 0.02277
 H534 H 0.38614 0.43786 0.04283
 N535 N -0.12758 1.04095 0.51064
 N536 N -0.17143 1.02901 0.51186
 C537 C -0.17267 0.98489 0.52792
 C538 C -0.12812 0.97085 0.53800
 N539 N -0.10086 1.00595 0.52442
 H540 H -0.11694 0.93603 0.54504
 N541 N -0.11218 0.01404 0.91305
 N542 N -0.15677 0.02159 0.90855
 C543 C -0.17526 0.01656 0.95902
 C544 C -0.14039 0.00324 0.99386
 N545 N -0.10152 0.00489 0.96455
 H546 H -0.14231 0.00101 1.03804
 N547 N 0.39006 0.51450 0.40752
 N548 N 0.34607 0.52495 0.40272
 C549 C 0.32698 0.52034 0.45291
 C550 C 0.36061 0.50453 0.48788
 N551 N 0.39970 0.50382 0.45890
 H552 H 0.35818 0.50191 0.53200
 N553 N 0.11914 0.49602 0.56655
 N554 N 0.16355 0.50529 0.56772
 C555 C 0.16982 0.54235 0.53589
 C556 C 0.12770 0.55540 0.51470
 N557 N 0.09686 0.52532 0.53467
 H558 H 0.12092 0.58176 0.48461
 N559 N 0.61946 -0.01076 0.06165
 N560 N 0.66408 -0.00294 0.06154
 C561 C 0.67019 0.03914 0.04042
 C562 C 0.62714 0.05712 0.02751
 N563 N 0.59634 0.02432 0.04083
 H564 H 0.61957 0.08819 0.00500
 N565 N 0.60085 0.92241 0.43491
 N566 N 0.64470 0.91487 0.42421
 C567 C 0.66876 0.94546 0.45375
 C568 C 0.63799 0.97203 0.48310
 N569 N 0.59586 0.95575 0.47127
 H570 H 0.64594 0.99872 0.51223
 N571 N 0.10424 0.42667 0.92837
 N572 N 0.14815 0.41886 0.91800
 C573 C 0.17229 0.44812 0.94937
 C574 C 0.14158 0.47386 0.97971
 N575 N 0.09937 0.45880 0.96629
 H576 H 0.14963 0.49881 1.01091
 N577 N -0.03240 0.37573 0.53150
 N578 N -0.02812 0.33321 0.51252
 C579 C -0.02201 0.33596 0.45770
 C580 C -0.02394 0.38188 0.44394
 N581 N -0.03027 0.40587 0.49099
 H582 H -0.01754 0.39649 0.40388
 N583 N 0.44171 -0.12144 0.01564
 N584 N 0.44300 -0.16379 -0.00464
 C585 C 0.47539 -0.16467 -0.04453
 C586 C 0.49355 -0.12130 -0.04782
 N587 N 0.47199 -0.09521 -0.00982
 H588 H 0.51987 -0.10938 -0.07566
 N589 N 0.04910 -0.12652 0.98814
 N590 N 0.04793 -0.16983 1.00427
 C591 C 0.02794 -0.16984 1.05413
 C592 C 0.01852 -0.12535 1.06878
 N593 N 0.03167 -0.09925 1.02640
 H594 H 0.00109 -0.11321 1.10530
 N595 N 0.54723 0.36949 0.48548
 N596 N 0.54681 0.32645 0.50266
 C597 C 0.52879 0.32713 0.55357
 C598 C 0.51950 0.37194 0.56749
 N599 N 0.53104 0.39740 0.52385
 H600 H 0.50316 0.38463 0.60445
 N601 N 0.46950 1.11604 0.49008
 N602 N 0.47062 1.15955 0.50502
 C603 C 0.48579 1.16100 0.55715
 C604 C 0.49385 1.11620 0.57373
 N605 N 0.48310 1.08904 0.53043
 H606 H 0.50885 1.10478 0.61194
 N607 N -0.02451 0.61866 0.98675
 N608 N -0.02452 0.66212 1.00187
 C609 C -0.01172 0.66357 1.05489
 C610 C -0.00393 0.61885 1.07187
 N611 N -0.01245 0.59174 1.02786
 H612 H 0.00928 0.60747 1.11102
 N613 N 0.55519 0.63336 0.01373
 N614 N 0.54802 0.67630 -0.00165
 C615 C 0.53159 0.67551 -0.05337
 C616 C 0.53047 0.62994 -0.06961
 N617 N 0.54455 0.60434 -0.02601
 H618 H 0.51427 0.61655 -0.10620
 N619 N 0.06207 1.12842 0.50163
 N620 N 0.05880 1.17177 0.48573
 C621 C 0.03368 1.17277 0.43920
 C622 C 0.02227 1.12797 0.42695
 N623 N 0.04031 1.10107 0.46706
 H624 H -0.00168 1.11685 0.39577
 N625 N 0.81853 0.69653 0.84997
 N626 N 0.82220 0.66991 0.89348
 C627 C 0.78492 0.64268 0.89357
 C628 C 0.75829 0.65352 0.84910
 N629 N 0.78064 0.68694 0.82244
 H630 H 0.72404 0.64142 0.83995
 N631 N 0.31802 0.19891 0.35015
 N632 N 0.32051 0.17173 0.39331
 C633 C 0.28352 0.14418 0.39109
 C634 C 0.25855 0.15504 0.34531
 N635 N 0.28122 0.18924 0.32058
 H636 H 0.22483 0.14271 0.33410
 N637 N 0.67471 0.30744 0.35820
 N638 N 0.67542 0.32978 0.40533
 C639 C 0.71430 0.35460 0.40507
 C640 C 0.73637 0.34813 0.35609
 N641 N 0.71100 0.31809 0.32796
 H642 H 0.77030 0.35964 0.34450
 N643 N 0.17344 0.80589 0.86174
 N644 N 0.17333 0.83094 0.90695
 C645 C 0.21135 0.85704 0.90468
 C646 C 0.23413 0.84788 0.85672
 N647 N 0.20958 0.81579 0.83090
 H648 H 0.26799 0.85931 0.84466
 N649 N 0.30646 0.86442 0.17170
 N650 N 0.30172 0.89233 0.12924
 C651 C 0.28179 0.86782 0.08899
 C652 C 0.27556 0.82370 0.10795
 N653 N 0.29044 0.82300 0.16033
 H654 H 0.25607 0.79676 0.08829
 N655 N 0.80160 0.36070 0.67653
 N656 N 0.79469 0.38873 0.63477
 C657 C 0.77616 0.36373 0.59420
 C658 C 0.77263 0.31912 0.61228
 N659 N 0.78803 0.31862 0.66452
 H660 H 0.75500 0.29123 0.59199
 N661 N 0.19880 0.14302 0.66489
 N662 N 0.19991 0.11599 0.62130
 C663 C 0.22406 0.13801 0.58257
 C664 C 0.23769 0.17954 0.60370
 N665 N 0.22153 0.18142 0.65545
 H666 H 0.26111 0.20378 0.58513
 N667 N 0.68072 0.69220 0.12487
 N668 N 0.67981 0.66675 0.07983
 C669 C 0.71780 0.64024 0.08070
 C670 C 0.74224 0.65068 0.12703
 N671 N 0.71808 0.68319 0.15386
 H672 H 0.77682 0.63961 0.13671
 N673 N 0.28916 0.62690 0.23469
 N674 N 0.27705 0.58316 0.23460
 C675 C 0.23206 0.58191 0.22187
 C676 C 0.21757 0.62633 0.21276
 N677 N 0.25351 0.65357 0.22326
 H678 H 0.18249 0.63740 0.20736
 N679 N 0.73811 0.13801 0.66625
 N680 N 0.72481 0.09475 0.66328
 C681 C 0.72654 0.07774 0.71458
 C682 C 0.74290 0.11188 0.74852
 N683 N 0.74786 0.14948 0.71750
 H684 H 0.74372 0.11074 0.79257
 N685 N 0.76675 0.14118 0.33935
 N686 N 0.77336 0.09656 0.34443
 C687 C 0.76724 0.07754 0.29442
 C688 C 0.75443 0.11234 0.25922
 N689 N 0.75717 0.15147 0.28788
 H690 H 0.75152 0.10992 0.21515
 N691 N 0.26726 0.63978 0.84071
 N692 N 0.27586 0.59550 0.84560
 C693 C 0.27065 0.57657 0.79543
 C694 C 0.25624 0.61074 0.76036
 N695 N 0.25725 0.64975 0.78925
 H696 H 0.25341 0.60845 0.71623
 N697 N 0.24315 0.36811 0.68595
 N698 N 0.25214 0.41249 0.68446
 C699 C 0.29064 0.41879 0.71386
 C700 C 0.30494 0.37672 0.73376
 N701 N 0.27405 0.34589 0.71568
 H702 H 0.33279 0.36998 0.76191
 N703 N 0.73577 0.87140 0.19357
 N704 N 0.74357 0.91596 0.19481
 C705 C 0.78644 0.92168 0.21401
 C706 C 0.80495 0.87842 0.22431
 N707 N 0.77168 0.84787 0.21168
 H708 H 0.83703 0.87040 0.24451
 N709 N 0.74988 0.86729 0.81697
 N710 N 0.74087 0.91113 0.82573
 C711 C 0.70436 0.92148 0.79448
 C712 C 0.69145 0.88255 0.76573
 N713 N 0.72104 0.84940 0.78078
 H714 H 0.66558 0.87965 0.73410
 N715 N 0.24808 0.36897 0.32090
 N716 N 0.23932 0.41287 0.32955
 C717 C 0.20465 0.42394 0.29579
 C718 C 0.19257 0.38558 0.26575
 N719 N 0.22081 0.35192 0.28247
 H720 H 0.16843 0.38344 0.23216
 N721 N 0.12795 0.19679 0.73199
 N722 N 0.08519 0.19843 0.75124
 C723 C 0.08580 0.22302 0.79833
 C724 C 0.13086 0.23548 0.80745
 N725 N 0.15626 0.21862 0.76540
 H726 H 0.14397 0.25594 0.84096
 N727 N 0.62699 0.69428 0.23425
 N728 N 0.58444 0.69503 0.25421
 C729 C 0.58397 0.72426 0.29734
 C730 C 0.62795 0.74090 0.30312
 N731 N 0.65386 0.72165 0.26320
 H732 H 0.64024 0.76498 0.33346
 N733 N 0.62544 0.30421 0.25619
 N734 N 0.58225 0.30342 0.23921
 C735 C 0.58201 0.27958 0.19182
 C736 C 0.62646 0.26724 0.17950
 N737 N 0.65260 0.28287 0.22070
 H738 H 0.63866 0.24708 0.14512
 N739 N 0.12174 0.79653 0.76296
 N740 N 0.07873 0.79624 0.74535
 C741 C 0.07960 0.77772 0.69470
 C742 C 0.12453 0.76797 0.68137
 N743 N 0.14984 0.77983 0.72505
 H744 H 0.13747 0.75146 0.64466
 N745 N 0.86954 0.71346 0.75706
 N746 N 0.91299 0.71483 0.74142
 C747 C 0.91396 0.73223 0.69029
 C748 C 0.86900 0.74130 0.67504
 N749 N 0.84214 0.72894 0.71804
 H750 H 0.85736 0.75852 0.63829
 N751 N 0.37104 0.22029 0.25901
 N752 N 0.41454 0.22148 0.24352
 C753 C 0.41554 0.23675 0.19141
 C754 C 0.37056 0.24469 0.17539
 N755 N 0.34367 0.23384 0.21893
 H756 H 0.35886 0.26002 0.13749
 N757 N 0.37924 0.81118 0.24015
 N758 N 0.42243 0.80531 0.25597
 C759 C 0.42163 0.78340 0.30469
 C760 C 0.37616 0.77717 0.31862
 N761 N 0.35042 0.79442 0.27702
 H762 H 0.36340 0.75639 0.35208
 N763 N 0.88132 0.29665 0.73577
 N764 N 0.92452 0.29109 0.75143
 C765 C 0.92410 0.27588 0.80370
 C766 C 0.87845 0.27354 0.81985
 N767 N 0.85258 0.28609 0.77589
 H768 H 0.86534 0.25811 0.85706
 N769 N 0.54805 0.91976 0.64701
 N770 N 0.57457 0.92761 0.69027
 C771 C 0.60807 0.95608 0.67341
 C772 C 0.60208 0.96362 0.61854
 N773 N 0.56367 0.94161 0.60311
 H774 H 0.61898 0.98992 0.59524
 N775 N 0.05813 0.42117 1.14143
 N776 N 0.08379 0.42960 1.18527
 C777 C 0.11431 0.46197 1.17053
 C778 C 0.10760 0.47149 1.11633
 N779 N 0.07151 0.44641 1.09915
 H780 H 0.12203 0.50049 1.09514
 N781 N -0.07628 0.07755 1.10877
 N782 N -0.10056 0.07902 1.15466
 C783 C -0.10872 0.03523 1.16999
 C784 C -0.08939 0.00697 1.13160
 N785 N -0.06978 0.03453 1.09371
 H786 H -0.08935 -0.03014 1.13136
 N787 N 0.42292 0.57613 0.60213
 N788 N 0.39939 0.57874 0.64851
 C789 C 0.39212 0.53535 0.66582
 C790 C 0.41108 0.50616 0.62816
 N791 N 0.42972 0.53275 0.58871
 H792 H 0.41196 0.46907 0.62970
 N793 N 0.45884 0.43664 -0.13082
 N794 N 0.42919 0.43620 -0.17223
 C795 C 0.39637 0.46722 -0.15978
 C796 C 0.40687 0.48617 -0.10979
 N797 N 0.44581 0.46649 -0.09271
 H798 H 0.39071 0.51540 -0.09062
 N799 N -0.04964 0.93236 0.37001
 N800 N -0.07975 0.93181 0.32912
 C801 C -0.11159 0.96391 0.34112
 C802 C -0.10003 0.98374 0.39032
 N803 N -0.06141 0.96339 0.40734
 H804 H -0.11523 1.01382 0.40882
 N805 N 0.06218 0.58690 0.39478
 N806 N 0.08958 0.58854 0.35146
 C807 C 0.09980 0.54476 0.33781
 C808 C 0.07829 0.51637 0.37413
 N809 N 0.05541 0.54383 0.40933
 H810 H 0.08010 0.47932 0.37578
 N811 N 0.56535 0.08565 -0.10120
 N812 N 0.59112 0.08664 -0.14601
 C813 C 0.59967 0.04265 -0.16044
 C814 C 0.57899 0.01482 -0.12280
 N815 N 0.55807 0.04275 -0.08629
 H816 H 0.57932 -0.02229 -0.12180
 N817 N 0.63749 0.47210 0.00321
 N818 N 0.68162 0.48269 0.00197
 C819 C 0.68439 0.52343 -0.02329
 C820 C 0.64069 0.53775 -0.03725
 N821 N 0.61219 0.50473 -0.01973
 H822 H 0.63053 0.57074 -0.05353
 N823 N 0.13384 0.97059 0.49331
 N824 N 0.17748 0.98310 0.49276
 C825 C 0.17873 1.02441 0.46859
 C826 C 0.13462 1.03680 0.45401
 N827 N 0.10728 1.00249 0.47091
 H828 H 0.12332 1.06972 0.43872
 N829 N 0.12827 0.02916 1.04068
 N830 N 0.17159 0.01505 1.04198
 C831 C 0.17070 -0.03090 1.04706
 C832 C 0.12524 -0.04393 1.05045
 N833 N 0.09974 -0.00605 1.04417
 H834 H 0.11281 -0.07864 1.04757
 N835 N 0.62713 0.52594 0.54397
 N836 N 0.67060 0.51229 0.54456
 C837 C 0.67002 0.46616 0.54522
 C838 C 0.62487 0.45237 0.54645
 N839 N 0.59904 0.49025 0.54369
 H840 H 0.61296 0.41784 0.53978
 N841 N -0.13709 0.53004 0.49061
 N842 N -0.17994 0.51536 0.49198
 C843 C -0.17776 0.47042 0.48072
 C844 C -0.13278 0.45779 0.47183
 N845 N -0.10816 0.49609 0.47908
 H846 H -0.11926 0.42356 0.46591
 N847 N 0.37519 0.00929 -0.07097
 N848 N 0.33107 -0.00109 -0.07369
 C849 C 0.32178 -0.02695 -0.02937
 C850 C 0.36166 -0.03350 -0.00054
 N851 N 0.39438 -0.01025 -0.02768
 H852 H 0.36656 -0.05540 0.03466
 N853 N 0.37035 0.98064 0.56891
 N854 N 0.32802 0.99615 0.56028
 C855 C 0.33258 1.03755 0.53665
 C856 C 0.37858 1.04732 0.53302
 N857 N 0.40141 1.01081 0.55221
 H858 H 0.39373 1.07577 0.51152
 N859 N -0.12388 0.48416 1.07248
 N860 N -0.16617 0.50065 1.06654
 C861 C -0.16180 0.54252 1.04402
 C862 C -0.11570 0.55141 1.03814
 N863 N -0.09287 0.51404 1.05498
 H864 H -0.10079 0.57990 1.01645
 N865 N 0.00219 0.64222 0.47536
 N866 N -0.00352 0.68402 0.49586
 C867 C 0.00791 0.68151 0.54909
 C868 C 0.02209 0.63713 0.56001
 N869 N 0.01779 0.61316 0.51294
 H870 H 0.03064 0.62290 0.59970
 N871 N 0.49988 0.14132 -0.02279
 N872 N 0.49474 0.18343 -0.00304
 C873 C 0.50658 0.18157 0.05011
 C874 C 0.52034 0.13714 0.06178
 N875 N 0.51553 0.11264 0.01517
 H876 H 0.52944 0.12336 0.10152
 N877 N -0.07661 0.11439 0.96895
 N878 N -0.07581 0.15412 0.94188
 C879 C -0.03127 0.16479 0.93322
 C880 C -0.00530 0.13065 0.95696
 N881 N -0.03431 0.09946 0.97876
 H882 H 0.03167 0.12720 0.95435
 N883 N 0.42465 0.61329 0.47069
 N884 N 0.42488 0.65346 0.44455
 C885 C 0.46899 0.66255 0.43122
 C886 C 0.49534 0.62704 0.45109
 N887 N 0.46695 0.59666 0.47530
 H888 H 0.53192 0.62249 0.44509
 N889 N 0.49937 0.84714 0.53098
 N890 N 0.49664 0.80673 0.50591
 C891 C 0.50970 0.81343 0.45353
 C892 C 0.52065 0.85901 0.44758
 N893 N 0.51427 0.87929 0.49691
 H894 H 0.52847 0.87624 0.40944
 N895 N 0.00080 0.34993 1.02877
 N896 N -0.00359 0.30981 1.00334
 C897 C 0.01038 0.31598 0.95121
 C898 C 0.02392 0.36109 0.94602
 N899 N 0.01784 0.38156 0.99542
 H900 H 0.03308 0.37806 0.90817
 N901 N 0.45294 0.37936 -0.01271
 N902 N 0.45286 0.33730 0.00839
 C903 C 0.46772 0.34103 0.06056
 C904 C 0.47584 0.38684 0.07062
 N905 N 0.46691 0.40981 0.02409
 H906 H 0.49200 0.40138 0.10662
 N907 N -0.05132 0.87643 0.48825
 N908 N -0.05061 0.83467 0.51018
 C909 C -0.03405 0.83915 0.56152
 C910 C -0.02578 0.88508 0.57033
 N911 N -0.03633 0.90741 0.52381
 H912 H -0.00877 0.90021 0.60540
 N913 N 0.17575 0.30872 0.10699
 N914 N 0.18430 0.33410 0.06308
 C915 C 0.21655 0.36474 0.07778
 C916 C 0.22579 0.35857 0.13240
 N917 N 0.20075 0.32240 0.14933
 H918 H 0.25346 0.37430 0.15520
 N919 N 0.67561 0.80288 0.60570
 N920 N 0.68451 0.82835 0.56196
 C921 C 0.71559 0.85986 0.57756
 C922 C 0.72362 0.85416 0.63254
 N923 N 0.69918 0.81738 0.64882
 H924 H 0.75020 0.87077 0.65629
 N925 N 0.32967 0.67398 0.64533
 N926 N 0.33177 0.65025 0.59904
 C927 C 0.28812 0.64284 0.58243
 C928 C 0.25931 0.66196 0.62046
 N929 N 0.28635 0.68082 0.65942
 H930 H 0.22214 0.66267 0.61953
 N931 N 0.83048 0.17600 0.14181
 N932 N 0.83104 0.15132 0.09620
 C933 C 0.78686 0.14215 0.08304
 C934 C 0.75947 0.16105 0.12240
 N935 N 0.78774 0.18157 0.15884
 H936 H 0.72231 0.16027 0.12407
 N937 N 0.67378 0.18323 0.86304
 N938 N 0.67231 0.15503 0.90582
 C939 C 0.71597 0.14171 0.91494
 C940 C 0.74374 0.16231 0.87713
 N941 N 0.71643 0.18706 0.84441
 H942 H 0.78058 0.15829 0.87287
 N943 N 0.18467 0.70775 0.38002
 N944 N 0.18580 0.67860 0.42183
 C945 C 0.21665 0.64592 0.40844
 C946 C 0.23368 0.65579 0.35720
 N947 N 0.21327 0.69453 0.34060
 H948 H 0.26242 0.63960 0.33686
 N949 N 0.83663 0.82293 0.34355
 N950 N 0.83871 0.85135 0.38590
 C951 C 0.79557 0.85536 0.40600
 C952 C 0.76717 0.82884 0.37479
 N953 N 0.79384 0.80926 0.33611
 H954 H 0.73031 0.82515 0.37866
 N955 N 0.33924 0.31580 0.85095
 N956 N 0.34134 0.34491 0.89263
 C957 C 0.29767 0.35285 0.90901
 C958 C 0.26893 0.32807 0.87624
 N959 N 0.29595 0.30560 0.84025
 H960 H 0.23175 0.32766 0.87713
 N961 N 0.72036 0.38154 0.76409
 N962 N 0.73230 0.42525 0.76441
 C963 C 0.77566 0.42651 0.78288
 C964 C 0.78997 0.38235 0.79430
 N965 N 0.75449 0.35497 0.78130
 H966 H 0.82425 0.37117 0.80503
 N967 N 0.21840 0.88782 0.25137
 N968 N 0.22954 0.93171 0.25326
 C969 C 0.27079 0.93369 0.27763
 C970 C 0.28479 0.88974 0.29051
 N971 N 0.25119 0.86187 0.27299
 H972 H 0.31808 0.87905 0.30552
 N973 N 0.27687 0.87807 0.70657
 N974 N 0.26248 0.92127 0.70627
 C975 C 0.21627 0.91998 0.70625
 C976 C 0.20318 0.87469 0.70539
 N977 N 0.24158 0.84943 0.70729
 H978 H 0.16881 0.86227 0.71217
 N979 N 0.78106 0.38015 0.20836
 N980 N 0.76669 0.42330 0.20686
 C981 C 0.72072 0.42223 0.20102
 C982 C 0.70802 0.37676 0.19708
 N983 N 0.74602 0.35145 0.20418
 H984 H 0.67330 0.36418 0.19923
 N985 N 0.76099 0.62627 0.32158
 N986 N 0.75160 0.58200 0.32429
 C987 C 0.72512 0.57235 0.28060
 C988 C 0.71716 0.61220 0.25219
 N989 N 0.74028 0.64523 0.27890
 H990 H 0.69460 0.61682 0.21751
 N991 N 0.28038 0.11238 0.75865
 N992 N 0.26540 0.06973 0.75677
 C993 C 0.22092 0.07173 0.77088
 C994 C 0.20898 0.11650 0.78214
 N995 N 0.24709 0.14117 0.77316
 H996 H 0.17503 0.12995 0.79046
 N997 N 0.23066 0.12539 0.18160
 N998 N 0.24619 0.08292 0.18872
 C999 C 0.28888 0.08673 0.20938
 C1000 C 0.29917 0.13252 0.21294
 N1001 N 0.26196 0.15594 0.19649
 H1002 H 0.32870 0.14698 0.23301
 N1003 N 0.72677 0.62084 0.68645
 N1004 N 0.74129 0.57822 0.69516
 C1005 C 0.78426 0.58159 0.71503
 C1006 C 0.79573 0.62720 0.71646
 N1007 N 0.75896 0.65106 0.69958
 H1008 H 0.82579 0.64145 0.73557
 N1009 N 0.89069 0.75251 0.27050
 N1010 N 0.93232 0.74633 0.24949
 C1011 C 0.92921 0.75651 0.19593
 C1012 C 0.88463 0.77051 0.18531
 N1013 N 0.86119 0.76732 0.23292
 H1014 H 0.86998 0.77857 0.14569
 N1015 N 0.39279 0.25314 0.77264
 N1016 N 0.43429 0.24670 0.75140
 C1017 C 0.43078 0.25608 0.69768
 C1018 C 0.38619 0.26992 0.68717
 N1019 N 0.36302 0.26734 0.73503
 H1020 H 0.37127 0.27714 0.64746
 N1021 N 0.36791 0.67636 0.77873
 N1022 N 0.40815 0.67710 0.80497
 C1023 C 0.41669 0.72116 0.81870
 C1024 C 0.38052 0.74697 0.79895
 N1025 N 0.35048 0.71830 0.77440
 H1026 H 0.37531 0.78335 0.80521
 N1027 N 0.88179 0.19252 0.25297
 N1028 N 0.92266 0.19507 0.27773
 C1029 C 0.91890 0.22616 0.31880
 C1030 C 0.87397 0.24155 0.31837
 N1031 N 0.85166 0.22031 0.27691
 H1032 H 0.85888 0.26723 0.34494
 N1033 N 0.10323 0.25572 0.22140
 N1034 N 0.06293 0.25262 0.24667
 C1035 C 0.06857 0.26946 0.29760
 C1036 C 0.11395 0.28353 0.30222
 N1037 N 0.13481 0.27426 0.25368
 H1038 H 0.13107 0.29494 0.33916
 N1039 N 0.60231 0.75102 0.72379
 N1040 N 0.56256 0.74660 0.75000
 C1041 C 0.56868 0.76343 0.80082
 C1042 C 0.61354 0.77915 0.80429
 N1043 N 0.63385 0.77060 0.75529
 H1044 H 0.63083 0.79133 0.84076
 N1045 N 0.62355 0.20111 0.76482
 N1046 N 0.58202 0.20126 0.74215
 C1047 C 0.58747 0.21497 0.68978
 C1048 C 0.63364 0.22215 0.68122
 N1049 N 0.65526 0.21378 0.72885
 H1050 H 0.64931 0.23729 0.64526
 N1051 N 0.12531 0.70456 0.26189
 N1052 N 0.08335 0.70403 0.24037
 C1053 C 0.08763 0.71768 0.18781
 C1054 C 0.13353 0.72557 0.17791
 N1055 N 0.15605 0.71774 0.22495
 H1056 H 0.14838 0.74097 0.14161
   
