data_POSCAR
  _audit_creation_date              2014-09-24
  _audit_creation_method            'ToBaCCo'
  _symmetry_space_group_name_H-M    'P1'
  _symmetry_Int_Tables_number       1
  _symmetry_cell_setting            triclinic
  loop_
  _symmetry_equiv_pos_as_xyz
 x,y,z
_cell_length_a 13.1081
_cell_length_b 29.4615
_cell_length_c 21.6513
_cell_angle_alpha 90.000000
_cell_angle_beta 90.000000
_cell_angle_gamma 90.000000
loop_
  _atom_site_label
  _atom_site_type_symbol
  _atom_site_fract_x
  _atom_site_fract_y
  _atom_site_fract_z
B1 B -0.07362 -0.03769 0.02545
 B2 B 0.05140 -0.03795 0.03962
 B3 B 0.00868 -0.04787 -0.03160
 B4 B -0.09444 -0.01529 -0.04475
 B5 B -0.11412 0.01593 0.02092
 B6 B -0.02286 0.00098 0.07340
 B7 B 0.07362 0.03770 -0.02544
 B8 B -0.05140 0.03796 -0.03962
 B9 B -0.00868 0.04788 0.03160
 B10 B 0.09444 0.01530 0.04475
 B11 B 0.11412 -0.01592 -0.02091
 B12 B 0.02286 -0.00097 -0.07340
 B13 B 0.54384 0.47817 0.56060
 B14 B 0.41922 0.47742 0.54452
 B15 B 0.47733 0.52655 0.56246
 B16 B 0.59651 0.52578 0.53237
 B17 B 0.61091 0.47521 0.49453
 B18 B 0.50004 0.44547 0.50292
 B19 B 0.45616 0.52184 0.43940
 B20 B 0.58078 0.52259 0.45548
 B21 B 0.52267 0.47346 0.43754
 B22 B 0.40349 0.47423 0.46763
 B23 B 0.38909 0.52480 0.50547
 B24 B 0.49996 0.55454 0.49709
 B25 B 0.57362 0.03770 0.52545
 B26 B 0.44860 0.03797 0.53962
 B27 B 0.49132 0.04788 0.46840
 B28 B 0.59444 0.01530 0.45525
 B29 B 0.61412 -0.01592 0.52092
 B30 B 0.52286 -0.00097 0.57340
 B31 B 0.42638 -0.03769 0.47456
 B32 B 0.55140 -0.03795 0.46038
 B33 B 0.50868 -0.04787 0.53160
 B34 B 0.40556 -0.01529 0.54475
 B35 B 0.38588 0.01593 0.47909
 B36 B 0.47714 0.00098 0.42660
 B37 B -0.04384 0.52184 0.06060
 B38 B 0.08078 0.52259 0.04452
 B39 B 0.02267 0.47346 0.06246
 B40 B -0.09651 0.47423 0.03237
 B41 B -0.11091 0.52480 -0.00547
 B42 B -0.00004 0.55454 0.00292
 B43 B 0.04384 0.47817 -0.06060
 B44 B -0.08078 0.47742 -0.04452
 B45 B -0.02267 0.52655 -0.06246
 B46 B 0.09651 0.52578 -0.03237
 B47 B 0.11091 0.47521 0.00547
 B48 B 0.00004 0.44547 -0.00291
 B49 B 0.07362 0.46231 0.47456
 B50 B -0.05140 0.46205 0.46038
 B51 B -0.00868 0.45213 0.53160
 B52 B 0.09444 0.48471 0.54475
 B53 B 0.11412 0.51593 0.47909
 B54 B 0.02286 0.50098 0.42660
 B55 B -0.07362 0.53770 0.52545
 B56 B 0.05140 0.53797 0.53962
 B57 B 0.00868 0.54788 0.46840
 B58 B -0.09444 0.51530 0.45525
 B59 B -0.11412 0.48408 0.52092
 B60 B -0.02286 0.49903 0.57340
 B61 B 0.45616 -0.02183 -0.06060
 B62 B 0.58078 -0.02258 -0.04452
 B63 B 0.52267 0.02655 -0.06246
 B64 B 0.40349 0.02578 -0.03237
 B65 B 0.38909 -0.02479 0.00547
 B66 B 0.49996 -0.05453 -0.00291
 B67 B 0.54384 0.02184 0.06060
 B68 B 0.41922 0.02259 0.04452
 B69 B 0.47733 -0.02654 0.06246
 B70 B 0.59651 -0.02577 0.03237
 B71 B 0.61091 0.02480 -0.00547
 B72 B 0.50004 0.05454 0.00292
 B73 B 0.42638 0.53770 -0.02544
 B74 B 0.55140 0.53796 -0.03962
 B75 B 0.50868 0.54788 0.03160
 B76 B 0.40556 0.51530 0.04475
 B77 B 0.38588 0.48408 -0.02091
 B78 B 0.47714 0.49903 -0.07340
 B79 B 0.57362 0.46231 0.02545
 B80 B 0.44860 0.46205 0.03962
 B81 B 0.49132 0.45213 -0.03160
 B82 B 0.59444 0.48471 -0.04475
 B83 B 0.61412 0.51593 0.02092
 B84 B 0.52286 0.50098 0.07340
 B85 B 0.04384 0.02184 0.43940
 B86 B -0.08078 0.02259 0.45548
 B87 B -0.02267 -0.02654 0.43754
 B88 B 0.09651 -0.02577 0.46763
 B89 B 0.11091 0.02480 0.50547
 B90 B 0.00004 0.05454 0.49709
 B91 B -0.04384 -0.02183 0.56060
 B92 B 0.08078 -0.02258 0.54452
 B93 B 0.02267 0.02655 0.56246
 B94 B -0.09651 0.02578 0.53237
 B95 B -0.11091 -0.02479 0.49453
 B96 B -0.00004 -0.05453 0.50292
 B97 B 0.75184 0.20203 0.28873
 B98 B 0.81097 0.20997 0.22116
 B99 B 0.68458 0.20354 0.22413
 B100 B 0.63809 0.22956 0.28755
 B101 B 0.74117 0.25226 0.32462
 B102 B 0.84927 0.23915 0.28350
 B103 B 0.72712 0.29139 0.21052
 B104 B 0.66760 0.28491 0.27788
 B105 B 0.79402 0.28995 0.27588
 B106 B 0.83979 0.26457 0.21248
 B107 B 0.73655 0.24145 0.17529
 B108 B 0.62881 0.25456 0.21616
 B109 B 0.74816 0.79798 0.78873
 B110 B 0.68903 0.79004 0.72116
 B111 B 0.81542 0.79648 0.72413
 B112 B 0.86191 0.77045 0.78755
 B113 B 0.75883 0.74776 0.82462
 B114 B 0.65073 0.76086 0.78350
 B115 B 0.77288 0.70863 0.71052
 B116 B 0.83240 0.71510 0.77788
 B117 B 0.70598 0.71007 0.77588
 B118 B 0.66021 0.73544 0.71248
 B119 B 0.76345 0.75856 0.67529
 B120 B 0.87119 0.74545 0.71616
 B121 B 0.29402 0.21007 0.72412
 B122 B 0.16760 0.21510 0.72212
 B123 B 0.22712 0.20863 0.78948
 B124 B 0.33979 0.23544 0.78753
 B125 B 0.34927 0.26086 0.71650
 B126 B 0.24117 0.24776 0.67539
 B127 B 0.18458 0.29648 0.77587
 B128 B 0.31097 0.29004 0.77884
 B129 B 0.25184 0.29798 0.71127
 B130 B 0.13809 0.27045 0.71245
 B131 B 0.12881 0.24545 0.78385
 B132 B 0.23655 0.25856 0.82471
 B133 B 0.24816 0.70203 0.21127
 B134 B 0.18903 0.70997 0.27884
 B135 B 0.31542 0.70354 0.27587
 B136 B 0.36191 0.72956 0.21245
 B137 B 0.25883 0.75226 0.17539
 B138 B 0.15073 0.73915 0.21650
 B139 B 0.27288 0.79139 0.28948
 B140 B 0.33240 0.78491 0.22212
 B141 B 0.20598 0.78995 0.22412
 B142 B 0.16021 0.76457 0.28753
 B143 B 0.26345 0.74145 0.32471
 B144 B 0.37119 0.75456 0.28385
 B145 B 0.31542 0.79648 0.77587
 B146 B 0.18903 0.79004 0.77884
 B147 B 0.24816 0.79798 0.71127
 B148 B 0.36191 0.77045 0.71245
 B149 B 0.37119 0.74545 0.78385
 B150 B 0.26345 0.75856 0.82471
 B151 B 0.20598 0.71007 0.72412
 B152 B 0.33240 0.71510 0.72212
 B153 B 0.27288 0.70863 0.78948
 B154 B 0.16021 0.73544 0.78753
 B155 B 0.15073 0.76086 0.71650
 B156 B 0.25883 0.74776 0.67539
 B157 B 0.22712 0.29139 0.28948
 B158 B 0.16760 0.28491 0.22212
 B159 B 0.29402 0.28995 0.22412
 B160 B 0.33979 0.26457 0.28753
 B161 B 0.23655 0.24145 0.32471
 B162 B 0.12881 0.25456 0.28385
 B163 B 0.25184 0.20203 0.21127
 B164 B 0.31097 0.20997 0.27884
 B165 B 0.18458 0.20354 0.27587
 B166 B 0.13809 0.22956 0.21245
 B167 B 0.24117 0.25226 0.17539
 B168 B 0.34927 0.23915 0.21650
 B169 B 0.81542 0.70354 0.22413
 B170 B 0.68903 0.70997 0.22116
 B171 B 0.74816 0.70203 0.28873
 B172 B 0.86191 0.72956 0.28755
 B173 B 0.87119 0.75456 0.21616
 B174 B 0.76345 0.74145 0.17529
 B175 B 0.70598 0.78995 0.27588
 B176 B 0.83240 0.78491 0.27788
 B177 B 0.77288 0.79139 0.21052
 B178 B 0.66021 0.76457 0.21248
 B179 B 0.65073 0.73915 0.28350
 B180 B 0.75883 0.75226 0.32462
 B181 B 0.72712 0.20863 0.71052
 B182 B 0.66760 0.21510 0.77788
 B183 B 0.79402 0.21007 0.77588
 B184 B 0.83979 0.23544 0.71248
 B185 B 0.73655 0.25856 0.67529
 B186 B 0.62881 0.24545 0.71616
 B187 B 0.75184 0.29798 0.78873
 B188 B 0.81097 0.29004 0.72116
 B189 B 0.68458 0.29648 0.72413
 B190 B 0.63809 0.27045 0.78755
 B191 B 0.74117 0.24776 0.82462
 B192 B 0.84927 0.26086 0.78350
 C193 C 0.07983 0.45022 0.88434
 C194 C 0.09956 0.41902 0.85082
 C195 C 0.11969 0.37782 0.82073
 C196 C 0.14139 0.34135 0.79980
 C197 C 0.42017 0.54979 0.38434
 C198 C 0.40044 0.58100 0.35082
 C199 C 0.38031 0.62219 0.32073
 C200 C 0.35861 0.65866 0.29980
 C201 C 0.92017 0.95022 0.61566
 C202 C 0.90044 0.91902 0.64919
 C203 C 0.88031 0.87782 0.67928
 C204 C 0.85861 0.84135 0.70020
 C205 C 0.57983 0.04979 0.11566
 C206 C 0.59956 0.08100 0.14919
 C207 C 0.61969 0.12219 0.17928
 C208 C 0.64139 0.15866 0.20020
 C209 C 0.84995 0.05145 0.41319
 C210 C 0.81268 0.08188 0.38331
 C211 C 0.78300 0.12158 0.35100
 C212 C 0.76588 0.15680 0.32426
 C213 C 0.34995 0.44856 0.58681
 C214 C 0.31268 0.41813 0.61669
 C215 C 0.28300 0.37843 0.64900
 C216 C 0.26588 0.34321 0.67575
 C217 C 0.65005 0.94856 0.91319
 C218 C 0.68732 0.91813 0.88331
 C219 C 0.71700 0.87843 0.85100
 C220 C 0.73412 0.84321 0.82426
 C221 C 0.15005 0.55145 0.08681
 C222 C 0.18732 0.58188 0.11669
 C223 C 0.21700 0.62158 0.14900
 C224 C 0.23412 0.65680 0.17575
 C225 C 0.45733 0.93962 0.11619
 C226 C 0.44156 0.90582 0.14690
 C227 C 0.41878 0.86324 0.17519
 C228 C 0.39043 0.82712 0.19617
 C229 C 0.54267 0.43962 0.38381
 C230 C 0.55844 0.40582 0.35311
 C231 C 0.58122 0.36324 0.32481
 C232 C 0.60957 0.32712 0.30383
 C233 C 0.95733 0.56039 0.88381
 C234 C 0.94156 0.59419 0.85311
 C235 C 0.91878 0.63677 0.82481
 C236 C 0.89043 0.67289 0.80383
 C237 C 0.04267 0.06039 0.61619
 C238 C 0.05844 0.09419 0.64690
 C239 C 0.08122 0.13677 0.67519
 C240 C 0.10957 0.17289 0.69617
 C241 C 0.13764 0.42549 0.44335
 C242 C 0.17277 0.39680 0.41018
 C243 C 0.20036 0.36313 0.36739
 C244 C 0.21564 0.33309 0.33101
 C245 C 0.36236 0.57453 0.94335
 C246 C 0.32723 0.60321 0.91018
 C247 C 0.29964 0.63688 0.86739
 C248 C 0.28436 0.66692 0.83101
 C249 C 0.63764 0.07453 0.55666
 C250 C 0.67277 0.10321 0.58983
 C251 C 0.70036 0.13688 0.63262
 C252 C 0.71564 0.16692 0.66900
 C253 C 0.86236 0.92549 0.05666
 C254 C 0.82723 0.89680 0.08983
 C255 C 0.79964 0.86313 0.13262
 C256 C 0.78436 0.83309 0.16900
 C257 C 0.90734 0.07470 0.91821
 C258 C 0.88577 0.10340 0.88147
 C259 C 0.86392 0.13761 0.83896
 C260 C 0.84006 0.16854 0.80634
 C261 C 0.09266 0.57470 0.58179
 C262 C 0.11423 0.60340 0.61853
 C263 C 0.13608 0.63761 0.66104
 C264 C 0.15994 0.66854 0.69367
 C265 C 0.59266 0.92531 0.41821
 C266 C 0.61423 0.89661 0.38147
 C267 C 0.63608 0.86240 0.33896
 C268 C 0.65994 0.83147 0.30634
 C269 C 0.40734 0.42531 0.08179
 C270 C 0.38577 0.39661 0.11853
 C271 C 0.36392 0.36240 0.16104
 C272 C 0.34006 0.33147 0.19367
 C273 C 0.52216 0.59152 0.06875
 C274 C 0.54432 0.62033 0.10567
 C275 C 0.58150 0.65038 0.15078
 C276 C 0.62298 0.67559 0.18645
 C277 C 0.02216 0.90849 0.93125
 C278 C 0.04432 0.87968 0.89434
 C279 C 0.08150 0.84963 0.84923
 C280 C 0.12298 0.82442 0.81355
 C281 C 0.47784 0.09152 0.43125
 C282 C 0.45568 0.12033 0.39434
 C283 C 0.41850 0.15038 0.34923
 C284 C 0.37702 0.17559 0.31355
 C285 C 0.97784 0.40849 0.56875
 C286 C 0.95568 0.37968 0.60567
 C287 C 0.91850 0.34963 0.65078
 C288 C 0.87702 0.32442 0.68645
 C289 C 0.92017 0.54979 0.11566
 C290 C 0.90044 0.58100 0.14919
 C291 C 0.88031 0.62219 0.17928
 C292 C 0.85861 0.65866 0.20020
 C293 C 0.57983 0.45022 0.61566
 C294 C 0.59956 0.41902 0.64919
 C295 C 0.61969 0.37782 0.67928
 C296 C 0.64139 0.34135 0.70020
 C297 C 0.07983 0.04979 0.38434
 C298 C 0.09956 0.08100 0.35082
 C299 C 0.11969 0.12219 0.32073
 C300 C 0.14139 0.15866 0.29980
 C301 C 0.42017 0.95022 0.88434
 C302 C 0.40044 0.91902 0.85082
 C303 C 0.38031 0.87782 0.82073
 C304 C 0.35861 0.84135 0.79980
 C305 C 0.15005 0.94856 0.58681
 C306 C 0.18732 0.91813 0.61669
 C307 C 0.21700 0.87843 0.64900
 C308 C 0.23412 0.84321 0.67575
 C309 C 0.65005 0.55145 0.41319
 C310 C 0.68732 0.58188 0.38331
 C311 C 0.71700 0.62158 0.35100
 C312 C 0.73412 0.65680 0.32426
 C313 C 0.34995 0.05145 0.08681
 C314 C 0.31268 0.08188 0.11669
 C315 C 0.28300 0.12158 0.14900
 C316 C 0.26588 0.15680 0.17575
 C317 C 0.84995 0.44856 0.91319
 C318 C 0.81268 0.41813 0.88331
 C319 C 0.78300 0.37843 0.85100
 C320 C 0.76588 0.34321 0.82426
 C321 C 0.54267 0.06039 0.88381
 C322 C 0.55844 0.09419 0.85311
 C323 C 0.58122 0.13677 0.82481
 C324 C 0.60957 0.17289 0.80383
 C325 C 0.45733 0.56039 0.61619
 C326 C 0.44156 0.59419 0.64690
 C327 C 0.41878 0.63677 0.67519
 C328 C 0.39043 0.67289 0.69617
 C329 C 0.04267 0.43962 0.11619
 C330 C 0.05844 0.40582 0.14690
 C331 C 0.08122 0.36324 0.17519
 C332 C 0.10957 0.32712 0.19617
 C333 C 0.95733 0.93962 0.38381
 C334 C 0.94156 0.90582 0.35311
 C335 C 0.91878 0.86324 0.32481
 C336 C 0.89043 0.82712 0.30383
 C337 C 0.86236 0.57453 0.55666
 C338 C 0.82723 0.60321 0.58983
 C339 C 0.79964 0.63688 0.63262
 C340 C 0.78436 0.66692 0.66900
 C341 C 0.63764 0.42549 0.05666
 C342 C 0.67277 0.39680 0.08983
 C343 C 0.70036 0.36313 0.13262
 C344 C 0.71564 0.33309 0.16900
 C345 C 0.36236 0.92549 0.44335
 C346 C 0.32723 0.89680 0.41018
 C347 C 0.29964 0.86313 0.36739
 C348 C 0.28436 0.83309 0.33101
 C349 C 0.13764 0.07453 0.94335
 C350 C 0.17277 0.10321 0.91018
 C351 C 0.20036 0.13688 0.86739
 C352 C 0.21564 0.16692 0.83101
 C353 C 0.09266 0.92531 0.08179
 C354 C 0.11423 0.89661 0.11853
 C355 C 0.13608 0.86240 0.16104
 C356 C 0.15994 0.83147 0.19367
 C357 C 0.90734 0.42531 0.41821
 C358 C 0.88577 0.39661 0.38147
 C359 C 0.86392 0.36240 0.33896
 C360 C 0.84006 0.33147 0.30634
 C361 C 0.40734 0.07470 0.58179
 C362 C 0.38577 0.10340 0.61853
 C363 C 0.36392 0.13761 0.66104
 C364 C 0.34006 0.16854 0.69367
 C365 C 0.59266 0.57470 0.91821
 C366 C 0.61423 0.60340 0.88147
 C367 C 0.63608 0.63761 0.83896
 C368 C 0.65994 0.66854 0.80634
 C369 C 0.47784 0.40849 0.93125
 C370 C 0.45568 0.37968 0.89434
 C371 C 0.41850 0.34963 0.84923
 C372 C 0.37702 0.32442 0.81355
 C373 C 0.97784 0.09152 0.06875
 C374 C 0.95568 0.12033 0.10567
 C375 C 0.91850 0.15038 0.15078
 C376 C 0.87702 0.17559 0.18645
 C377 C 0.52216 0.90849 0.56875
 C378 C 0.54432 0.87968 0.60567
 C379 C 0.58150 0.84963 0.65078
 C380 C 0.62298 0.82442 0.68645
 C381 C 0.02216 0.59152 0.43125
 C382 C 0.04432 0.62033 0.39434
 C383 C 0.08150 0.65038 0.34923
 C384 C 0.12298 0.67559 0.31355
   
