data_POSCAR
  _audit_creation_date              2014-09-24
  _audit_creation_method            'ToBaCCo'
  _symmetry_space_group_name_H-M    'P1'
  _symmetry_Int_Tables_number       1
  _symmetry_cell_setting            triclinic
  loop_
  _symmetry_equiv_pos_as_xyz
 x,y,z
_cell_length_a 28.1757
_cell_length_b 28.7417
_cell_length_c 65.8683
_cell_angle_alpha 85.493600
_cell_angle_beta 91.820200
_cell_angle_gamma 119.543700
loop_
  _atom_site_label
  _atom_site_type_symbol
  _atom_site_fract_x
  _atom_site_fract_y
  _atom_site_fract_z
C1 C 0.00710 0.09343 0.52676
 H2 H 0.04565 0.09383 0.52635
 C3 C 0.00129 0.12828 0.53869
 H4 H 0.03539 0.15552 0.54758
 C5 C -0.08419 0.05801 0.51535
 H6 H -0.11701 0.03104 0.50599
 C7 C -0.09174 0.09239 0.52712
 H8 H -0.13058 0.09162 0.52695
 N9 N -0.03534 0.05905 0.51551
 C10 C 0.00229 -0.06787 0.50672
 H11 H 0.00549 -0.06511 0.49029
 C12 C 0.00446 -0.10970 0.51827
 H13 H 0.00987 -0.13900 0.51077
 C14 C -0.01226 -0.03522 0.53655
 H15 H -0.02073 -0.00738 0.54358
 C16 C -0.01025 -0.07632 0.54864
 H17 H -0.01642 -0.07947 0.56496
 Zn18 Zn -0.02001 0.01671 0.49926
 N19 N -0.00644 -0.03199 0.51596
 C20 C 0.08877 0.06345 0.48334
 N21 N 0.04125 0.06505 0.48307
 C22 C 0.03613 0.10400 0.47176
 C23 C 0.07964 0.14317 0.45991
 C24 C 0.13348 0.10205 0.47165
 C25 C -0.12598 -0.06481 0.49169
 C26 C -0.16761 -0.10268 0.48014
 C27 C -0.11304 -0.05775 0.44982
 C28 C -0.07248 -0.02088 0.46194
 N29 N -0.07934 -0.02537 0.48250
 H30 H 0.09224 0.03274 0.49274
 H31 H -0.00190 0.10466 0.47208
 H32 H 0.07513 0.17404 0.45097
 H33 H 0.17130 0.10080 0.47192
 H34 H -0.12977 -0.06818 0.50811
 H35 H -0.20380 -0.13495 0.48771
 H36 H -0.10627 -0.05471 0.43353
 H37 H -0.03460 0.00970 0.45497
 C38 C -0.00261 -0.11429 0.53939
 C39 C -0.04847 0.12786 0.53885
 C40 C -0.16064 -0.09960 0.45902
 C41 C 0.12874 0.14226 0.45987
 C42 C 1.13250 0.06172 0.14216
 H43 H 1.13287 0.09950 0.14236
 C44 C 1.17039 0.05804 0.13027
 H45 H 1.19998 0.09301 0.12119
 C46 C 1.09389 -0.02990 0.15400
 H47 H 1.06441 -0.06377 0.16349
 C48 C 1.13122 -0.03533 0.14228
 H49 H 1.13020 -0.07355 0.14260
 N50 N 1.09503 0.01807 0.15359
 C51 C 0.96196 0.05113 0.16148
 H52 H 0.96115 0.05155 0.17787
 C53 C 0.92112 0.05393 0.14974
 H54 H 0.88901 0.05703 0.15707
 C55 C 1.00248 0.04272 0.13196
 H56 H 1.03294 0.03631 0.12514
 C57 C 0.96250 0.04545 0.11968
 H58 H 0.96280 0.04184 0.10344
 Zn59 Zn 1.04777 0.02967 0.16952
 N60 N 1.00120 0.04504 0.15249
 C61 C 1.09019 0.13325 0.18500
 N62 N 1.09281 0.08712 0.18549
 C63 C 1.13037 0.08069 0.19701
 C64 C 1.16682 0.12125 0.20893
 C65 C 1.12608 0.17500 0.19673
 C66 C 0.96392 -0.07618 0.17751
 C67 C 0.92338 -0.11954 0.18922
 C68 C 0.96186 -0.07123 0.21930
 C69 C 1.00161 -0.02879 0.20705
 N70 N 1.00163 -0.03176 0.18653
 H71 H 1.06068 0.13786 0.17543
 H72 H 1.13193 0.04385 0.19687
 H73 H 1.19649 0.11565 0.21808
 H74 H 1.12393 0.21167 0.19633
 H75 H 0.96407 -0.07694 0.16111
 H76 H 0.89251 -0.15408 0.18187
 H77 H 0.96111 -0.06785 0.23554
 H78 H 1.03081 0.00734 0.21389
 C79 C 0.92099 0.05023 0.12869
 C80 C 1.16974 0.00912 0.13031
 C81 C 0.92193 -0.11661 0.21027
 C82 C 1.16467 0.16879 0.20880
 C83 C 0.04080 0.92739 0.85876
 H84 H 0.00333 0.88952 0.85826
 C85 C 0.08386 0.93085 0.87079
 H86 H 0.07958 0.89562 0.87968
 C87 C 0.09247 1.01944 0.84748
 H88 H 0.09577 1.05355 0.83814
 C89 C 0.13671 1.02465 0.85935
 H90 H 0.17396 1.06295 0.85929
 N91 N 0.04563 0.97133 0.84753
 C92 C -0.12203 0.93696 0.83855
 H93 H -0.12481 0.93728 0.82212
 C94 C -0.16476 0.93330 0.85005
 H95 H -0.20078 0.93023 0.84245
 C96 C -0.07014 0.94436 0.86841
 H97 H -0.03250 0.95071 0.87547
 C98 C -0.11185 0.94075 0.88047
 H99 H -0.10627 0.94360 0.89677
 Zn100 Zn -0.01498 0.95988 0.83119
 N101 N -0.07566 0.94304 0.84783
 C102 C -0.07681 0.85702 0.81487
 N103 N -0.02831 0.90355 0.81488
 C104 C 0.01502 0.91124 0.80367
 C105 C 0.01047 0.87158 0.79159
 C106 C -0.08311 0.81611 0.80295
 C107 C 0.00586 1.06566 0.82378
 C108 C 0.00818 1.10966 0.81222
 C109 C -0.00358 1.06326 0.78182
 C110 C -0.00578 1.02013 0.79392
 N111 N -0.00146 1.02190 0.81452
 H112 H -0.11036 0.85142 0.82420
 H113 H 0.05328 0.94834 0.80422
 H114 H 0.04524 0.87816 0.78270
 H115 H -0.12169 0.77908 0.80298
 H116 H 0.00788 1.06549 0.84022
 H117 H 0.01254 1.14376 0.81973
 H118 H -0.00849 1.06095 0.76548
 H119 H -0.01318 0.98451 0.78687
 C120 C -0.15919 0.93611 0.87117
 C121 C 0.13222 0.97986 0.87109
 C122 C 0.00268 1.10806 0.79107
 C123 C -0.03896 0.82361 0.79122
 O124 O 0.49770 0.04110 0.01665
 O125 O 0.58128 0.02977 -0.02270
 O126 O 0.49027 0.03274 -0.02243
 O127 O 0.59133 0.04327 0.01617
 O128 O 0.54760 -0.04489 0.02220
 O129 O 0.44569 -0.05547 -0.01655
 O130 O 0.53679 -0.05839 -0.01666
 O131 O 0.45397 -0.04712 0.02253
 Cu132 Cu 0.54466 0.04560 -0.00367
 Cu133 Cu 0.49164 -0.06035 0.00347
 C134 C 0.46144 -0.00133 0.02613
 C135 C 0.57304 -0.01642 -0.02627
 C136 C 0.45075 -0.01291 -0.02592
 C137 C 0.58674 0.00117 0.02568
 O138 O -0.08288 0.50574 0.64583
 O139 O -0.08118 0.40810 0.68540
 O140 O -0.08306 0.49825 0.68530
 O141 O -0.08636 0.41308 0.64597
 O142 O 0.00384 0.45578 0.64490
 O143 O 0.00715 0.54204 0.68421
 O144 O 0.00902 0.45197 0.68431
 O145 O 0.00732 0.54834 0.64477
 Cu146 Cu -0.09247 0.45192 0.66574
 Cu147 Cu 0.01592 0.50387 0.66445
 C148 C -0.03782 0.54389 0.63880
 C149 C -0.03555 0.41343 0.69136
 C150 C -0.03760 0.53496 0.69120
 C151 C -0.04200 0.41951 0.63896
 O152 O 0.54253 0.59445 0.31369
 O153 O 0.44267 0.50092 0.35264
 O154 O 0.53218 0.59375 0.35275
 O155 O 0.45034 0.50418 0.31343
 O156 O 0.49651 0.46040 0.31779
 O157 O 0.57946 0.55110 0.35711
 O158 O 0.49001 0.45832 0.35700
 O159 O 0.58871 0.55069 0.31806
 Cu160 Cu 0.48727 0.55273 0.33269
 Cu161 Cu 0.54343 0.50082 0.33793
 C162 C 0.58277 0.58845 0.30945
 C163 C 0.44930 0.46338 0.36119
 C164 C 0.56998 0.58807 0.36141
 C165 C 0.45893 0.46673 0.30916
 C166 C -0.05102 0.31179 0.59990
 C167 C -0.04387 0.32400 0.57859
 C168 C -0.04695 0.28508 0.56576
 C169 C -0.05711 0.23421 0.57432
 C170 C -0.06526 0.22165 0.59559
 C171 C -0.06217 0.26056 0.60842
 C172 C -0.07017 0.24715 0.62966
 C173 C -0.08103 0.19674 0.63797
 C174 C -0.08402 0.15872 0.62542
 C175 C -0.07625 0.17081 0.60447
 C176 C -0.03943 0.29829 0.54452
 C177 C -0.02915 0.34853 0.53619
 C178 C -0.02612 0.38658 0.54874
 C179 C -0.03336 0.37468 0.56972
 C180 C -0.05652 0.19576 0.56143
 C181 C -0.05413 0.16435 0.55098
 C182 C -0.04687 0.35170 0.61313
 C183 C -0.04403 0.38362 0.62460
 H184 H -0.06820 0.27536 0.64007
 H185 H -0.08722 0.18712 0.65423
 H186 H -0.09246 0.11962 0.63195
 H187 H -0.07913 0.13984 0.59534
 H188 H -0.04154 0.26998 0.53413
 H189 H -0.02352 0.35796 0.51991
 H190 H -0.01811 0.42554 0.54220
 H191 H -0.03064 0.40556 0.57887
 C192 C 0.70428 0.69638 0.27065
 C193 C 0.71002 0.68373 0.25085
 C194 C 0.75503 0.72093 0.23833
 C195 C 0.79401 0.77055 0.24568
 C196 C 0.78812 0.78330 0.26546
 C197 C 0.74310 0.74614 0.27796
 C198 C 0.73806 0.75985 0.29766
 C199 C 0.77633 0.80886 0.30478
 C200 C 0.82041 0.84514 0.29258
 C201 C 0.82645 0.83273 0.27313
 C202 C 0.75994 0.70737 0.21861
 C203 C 0.72148 0.65845 0.21145
 C204 C 0.67748 0.62209 0.22369
 C205 C 0.67162 0.63437 0.24318
 C206 C 0.83964 0.80901 0.23285
 C207 C 0.87738 0.84212 0.22242
 C208 C 0.65948 0.65776 0.28377
 C209 C 0.62353 0.62596 0.29517
 H210 H 0.70448 0.73299 0.30774
 H211 H 0.77171 0.81877 0.31985
 H212 H 0.85007 0.88314 0.29819
 H213 H 0.86144 0.86229 0.26422
 H214 H 0.79349 0.73434 0.20853
 H215 H 0.72585 0.64871 0.19633
 H216 H 0.64771 0.58416 0.21806
 H217 H 0.63668 0.60484 0.25213
 C218 C 0.33668 -0.01685 -0.06678
 C219 C 0.28959 -0.06567 -0.07088
 C220 C 0.24893 -0.06526 -0.08412
 C221 C 0.25562 -0.01600 -0.09318
 C222 C 0.30315 0.03274 -0.08936
 C223 C 0.34382 0.03232 -0.07612
 C224 C 0.39089 0.08161 -0.07247
 C225 C 0.39761 0.12988 -0.08163
 C226 C 0.35785 0.13026 -0.09457
 C227 C 0.31106 0.08236 -0.09844
 C228 C 0.20208 -0.11460 -0.08791
 C229 C 0.19561 -0.16292 -0.07890
 C230 C 0.23537 -0.16329 -0.06595
 C231 C 0.28190 -0.11534 -0.06193
 C232 C 0.21311 -0.01561 -0.10612
 C233 C 0.17686 -0.01663 -0.11665
 C234 C 0.37708 -0.01693 -0.05254
 C235 C 0.41063 -0.01595 -0.04050
 H236 H 0.42300 0.08338 -0.06254
 H237 H 0.43388 0.16719 -0.07867
 H238 H 0.36327 0.16786 -0.10166
 H239 H 0.28129 0.08467 -0.10864
 H240 H 0.17003 -0.11641 -0.09788
 H241 H 0.15954 -0.20027 -0.08198
 H242 H 0.23015 -0.20093 -0.05899
 H243 H 0.31173 -0.11768 -0.05178
 C244 C -0.03060 0.66501 0.59979
 C245 C -0.03850 0.70475 0.60805
 C246 C -0.03159 0.75019 0.59546
 C247 C -0.01694 0.75558 0.57469
 C248 C -0.00956 0.71558 0.56639
 C249 C -0.01642 0.67014 0.57899
 C250 C -0.00873 0.63073 0.57037
 C251 C 0.00532 0.63604 0.54989
 C252 C 0.01203 0.68046 0.53758
 C253 C 0.00472 0.71990 0.54565
 C254 C -0.03953 0.78948 0.60408
 C255 C -0.05400 0.78396 0.62453
 C256 C -0.06089 0.73947 0.63681
 C257 C -0.05318 0.70026 0.62877
 C258 C -0.01031 0.80189 0.56186
 C259 C -0.00590 0.84028 0.55147
 C260 C -0.03503 0.62007 0.61295
 C261 C -0.03732 0.58421 0.62442
 H262 H -0.01360 0.59543 0.57934
 H263 H 0.01102 0.60550 0.54354
 H264 H 0.02295 0.68439 0.52168
 H265 H 0.01040 0.75373 0.53548
 H266 H -0.03468 0.82482 0.59515
 H267 H -0.05997 0.81436 0.63086
 H268 H -0.07234 0.73526 0.65266
 H269 H -0.05904 0.66638 0.63895
 C270 C 0.35241 0.35961 0.27023
 C271 C 0.30050 0.32064 0.27816
 C272 C 0.26121 0.28302 0.26527
 C273 C 0.27406 0.28453 0.24453
 C274 C 0.32582 0.32372 0.23658
 C275 C 0.36512 0.36137 0.24947
 C276 C 0.41660 0.40010 0.24120
 C277 C 0.42892 0.40162 0.22075
 C278 C 0.39052 0.36481 0.20814
 C279 C 0.33950 0.32621 0.21588
 C280 C 0.20963 0.24445 0.27354
 C281 C 0.19718 0.24314 0.29396
 C282 C 0.23556 0.27994 0.30657
 C283 C 0.28672 0.31826 0.29886
 C284 C 0.23467 0.24474 0.23158
 C285 C 0.20238 0.21074 0.22105
 C286 C 0.39224 0.39812 0.28346
 C287 C 0.42384 0.42972 0.29490
 H288 H 0.44780 0.42954 0.25042
 H289 H 0.46849 0.43154 0.21466
 H290 H 0.40028 0.36617 0.19226
 H291 H 0.31095 0.29848 0.20547
 H292 H 0.17837 0.21503 0.26433
 H293 H 0.15750 0.21343 0.30002
 H294 H 0.22564 0.27884 0.32240
 H295 H 0.31519 0.34594 0.30930
 C296 C 0.66557 -0.03551 -0.06795
 C297 C 0.70450 0.00846 -0.08044
 C298 C 0.73845 0.00098 -0.09379
 C299 C 0.73330 -0.05043 -0.09457
 C300 C 0.69345 -0.09466 -0.08246
 C301 C 0.65947 -0.08720 -0.06911
 C302 C 0.62011 -0.13201 -0.05707
 C303 C 0.61447 -0.18271 -0.05820
 C304 C 0.64771 -0.18998 -0.07124
 C305 C 0.68685 -0.14660 -0.08326
 C306 C 0.77728 0.04564 -0.10605
 C307 C 0.78237 0.09619 -0.10515
 C308 C 0.74918 0.10347 -0.09209
 C309 C 0.71063 0.06026 -0.07983
 C310 C 0.77041 -0.05720 -0.10725
 C311 C 0.80265 -0.06134 -0.11751
 C312 C 0.63277 -0.02747 -0.05353
 C313 C 0.60561 -0.02166 -0.04125
 H314 H 0.59324 -0.12841 -0.04671
 H315 H 0.58411 -0.21655 -0.04890
 H316 H 0.64315 -0.22945 -0.07207
 H317 H 0.71170 -0.15424 -0.09321
 H318 H 0.80397 0.04199 -0.11648
 H319 H 0.81224 0.12989 -0.11465
 H320 H 0.75329 0.14282 -0.09145
 H321 H 0.68568 0.06790 -0.06993
 C322 C 0.35951 0.00370 0.06767
 C323 C 0.36309 0.05281 0.07197
 C324 C 0.32460 0.05287 0.08540
 C325 C 0.28275 0.00380 0.09444
 C326 C 0.27979 -0.04523 0.09044
 C327 C 0.31829 -0.04529 0.07702
 C328 C 0.31435 -0.09485 0.07319
 C329 C 0.27361 -0.14294 0.08237
 C330 C 0.23598 -0.14286 0.09549
 C331 C 0.23882 -0.09468 0.09953
 C332 C 0.32887 0.10249 0.08938
 C333 C 0.37001 0.15063 0.08039
 C334 C 0.40763 0.15054 0.06727
 C335 C 0.40439 0.10231 0.06305
 C336 C 0.24222 0.00388 0.10749
 C337 C 0.20883 0.00526 0.11806
 C338 C 0.39714 0.00333 0.05320
 C339 C 0.42729 0.00203 0.04096
 H340 H 0.34271 -0.09699 0.06312
 H341 H 0.27124 -0.18048 0.07929
 H342 H 0.20440 -0.18032 0.10258
 H343 H 0.20866 -0.09663 0.10985
 H344 H 0.30061 0.10466 0.09949
 H345 H 0.37270 0.18820 0.08363
 H346 H 0.43952 0.18804 0.06033
 H347 H 0.43462 0.10428 0.05276
 C348 C 0.66838 0.70091 0.40017
 C349 C 0.65083 0.70195 0.41995
 C350 C 0.68521 0.74401 0.43240
 C351 C 0.73690 0.78474 0.42499
 C352 C 0.75451 0.78361 0.40522
 C353 C 0.72018 0.74155 0.39279
 C354 C 0.73876 0.74123 0.37309
 C355 C 0.78980 0.78124 0.36591
 C356 C 0.82331 0.82242 0.37805
 C357 C 0.80609 0.82382 0.39748
 C358 C 0.66681 0.74421 0.45212
 C359 C 0.61588 0.70400 0.45934
 C360 C 0.58227 0.66290 0.44717
 C361 C 0.59933 0.66169 0.42768
 C362 C 0.77265 0.82722 0.43778
 C363 C 0.80385 0.86247 0.44811
 C364 C 0.63279 0.65902 0.38714
 C365 C 0.60379 0.62562 0.37575
 H366 H 0.71420 0.71005 0.36306
 H367 H 0.80343 0.78023 0.35086
 H368 H 0.86291 0.85345 0.37240
 H369 H 0.83365 0.85672 0.40634
 H370 H 0.69150 0.77539 0.46214
 H371 H 0.60243 0.70474 0.47446
 H372 H 0.54275 0.63176 0.45285
 H373 H 0.57180 0.62888 0.41878
 C374 C -0.02465 0.30114 0.73022
 C375 C -0.02811 0.30045 0.75164
 C376 C -0.02099 0.26207 0.76436
 C377 C -0.01049 0.22460 0.75558
 C378 C -0.00708 0.22527 0.73414
 C379 C -0.01420 0.26363 0.72142
 C380 C -0.01056 0.26351 0.70003
 C381 C -0.00008 0.22666 0.69146
 C382 C 0.00682 0.18912 0.70389
 C383 C 0.00338 0.18822 0.72499
 C384 C -0.02462 0.26216 0.78574
 C385 C -0.03497 0.29914 0.79430
 C386 C -0.04192 0.33666 0.78186
 C387 C -0.03858 0.33750 0.76076
 C388 C -0.00436 0.18460 0.76850
 C389 C -0.00031 0.15038 0.77896
 C390 C -0.03044 0.34111 0.71714
 C391 C -0.03382 0.37421 0.70573
 H392 H -0.01576 0.29182 0.68969
 H393 H 0.00277 0.22729 0.67508
 H394 H 0.01493 0.16055 0.69716
 H395 H 0.00910 0.15827 0.73402
 H396 H -0.01946 0.23377 0.79604
 H397 H -0.03760 0.29866 0.81069
 H398 H -0.04997 0.36528 0.78859
 H399 H -0.04435 0.36738 0.75170
 C400 C 0.70536 0.01935 0.06688
 C401 C 0.74726 0.07190 0.07039
 C402 C 0.79090 0.07948 0.08366
 C403 C 0.79240 0.03450 0.09335
 C404 C 0.74991 -0.01802 0.09017
 C405 C 0.70628 -0.02561 0.07690
 C406 C 0.66445 -0.07846 0.07387
 C407 C 0.66564 -0.12260 0.08370
 C408 C 0.70828 -0.11522 0.09669
 C409 C 0.75004 -0.06364 0.09994
 C410 C 0.83244 0.13235 0.08685
 C411 C 0.83089 0.17650 0.07721
 C412 C 0.78823 0.16912 0.06424
 C413 C 0.74680 0.11752 0.06080
 C414 C 0.83826 0.04198 0.10613
 C415 C 0.87621 0.04681 0.11653
 C416 C 0.66217 0.01165 0.05259
 C417 C 0.62713 0.00611 0.04046
 H418 H 0.63039 -0.08623 0.06393
 H419 H 0.63329 -0.16275 0.08123
 H420 H 0.70901 -0.14964 0.10429
 H421 H 0.78228 -0.05997 0.11020
 H422 H 0.86642 0.14011 0.09683
 H423 H 0.86297 0.21667 0.07983
 H424 H 0.78720 0.20355 0.05679
 H425 H 0.71445 0.11384 0.05060
 C426 C 0.33386 0.34623 0.39959
 C427 C 0.32979 0.35321 0.42037
 C428 C 0.28947 0.31042 0.43305
 C429 C 0.25344 0.26095 0.42486
 C430 C 0.25787 0.25380 0.40411
 C431 C 0.29816 0.29658 0.39143
 C432 C 0.30165 0.28851 0.37071
 C433 C 0.26646 0.23959 0.36278
 C434 C 0.22708 0.19778 0.37518
 C435 C 0.22264 0.20458 0.39562
 C436 C 0.28611 0.31838 0.45378
 C437 C 0.32155 0.36721 0.46174
 C438 C 0.36094 0.40904 0.44934
 C439 C 0.36522 0.40234 0.42887
 C440 C 0.21054 0.21813 0.43753
 C441 C 0.17389 0.18309 0.44784
 C442 C 0.37505 0.38968 0.38657
 C443 C 0.40907 0.42440 0.37528
 H444 H 0.33155 0.31981 0.36043
 H445 H 0.26981 0.23408 0.34692
 H446 H 0.19984 0.15985 0.36894
 H447 H 0.19142 0.17082 0.40466
 H448 H 0.25621 0.28701 0.46404
 H449 H 0.31842 0.37261 0.47763
 H450 H 0.38836 0.44689 0.45560
 H451 H 0.39649 0.43603 0.41982
 C452 C -0.03979 0.63826 0.72992
 C453 C -0.05459 0.62283 0.75071
 C454 C -0.05701 0.65945 0.76338
 C455 C -0.04458 0.71129 0.75519
 C456 C -0.03006 0.72661 0.73436
 C457 C -0.02762 0.69001 0.72169
 C458 C -0.01284 0.70633 0.70093
 C459 C -0.00070 0.75735 0.69293
 C460 C -0.00317 0.79310 0.70530
 C461 C -0.01767 0.77814 0.72578
 C462 C -0.07185 0.64315 0.78412
 C463 C -0.08395 0.59211 0.79212
 C464 C -0.08158 0.55631 0.77973
 C465 C -0.06710 0.57127 0.75925
 C466 C -0.04490 0.74956 0.76825
 C467 C -0.04342 0.78254 0.77888
 C468 C -0.03800 0.60079 0.71684
 C469 C -0.03719 0.57032 0.70546
 H470 H -0.01037 0.67996 0.69067
 H471 H 0.01075 0.76922 0.67705
 H472 H 0.00623 0.83268 0.69901
 H473 H -0.01907 0.80737 0.73478
 H474 H -0.07436 0.66956 0.79434
 H475 H -0.09524 0.58028 0.80801
 H476 H -0.09102 0.51671 0.78601
 H477 H -0.06579 0.54206 0.75021
   
