data_POSCAR
  _audit_creation_date              2014-09-24
  _audit_creation_method            'ToBaCCo'
  _symmetry_space_group_name_H-M    'P1'
  _symmetry_Int_Tables_number       1
  _symmetry_cell_setting            triclinic
  loop_
  _symmetry_equiv_pos_as_xyz
 x,y,z
_cell_length_a 46.2304
_cell_length_b 46.1357
_cell_length_c 15.5897
_cell_angle_alpha 89.761000
_cell_angle_beta 90.432000
_cell_angle_gamma 117.769600
loop_
  _atom_site_label
  _atom_site_type_symbol
  _atom_site_fract_x
  _atom_site_fract_y
  _atom_site_fract_z
C1 C 0.27564 0.41221 0.43926
 C2 C 0.27811 0.41243 0.52686
 C3 C 0.25775 0.42448 0.55833
 N4 N 0.24368 0.43235 0.49178
 C5 C 0.25483 0.42522 0.41903
 C6 C 0.25623 0.43343 0.64476
 C7 C 0.23147 0.44107 0.67289
 C8 C 0.23098 0.45478 0.75187
 C9 C 0.20128 0.45459 0.75802
 C10 C 0.18424 0.44063 0.68304
 N11 N 0.20267 0.43223 0.63193
 C12 C 0.15257 0.43610 0.66256
 C13 C 0.14081 0.43015 0.57682
 C14 C 0.10825 0.41719 0.55193
 C15 C 0.10804 0.42100 0.46477
 C16 C 0.14034 0.43498 0.43917
 N17 N 0.16038 0.44043 0.50742
 C18 C 0.15125 0.44627 0.35584
 C19 C 0.18132 0.44935 0.32540
 C20 C 0.19680 0.46475 0.25020
 C21 C 0.22451 0.46075 0.24384
 C22 C 0.22543 0.44356 0.31611
 N23 N 0.19888 0.43638 0.36474
 C24 C 0.25000 0.43445 0.33534
 H25 H 0.28887 0.40462 0.39550
 H26 H 0.29417 0.40543 0.56151
 H27 H 0.19185 0.42120 0.41847
 H28 H 0.24964 0.46349 0.80129
 H29 H 0.19340 0.46398 0.81152
 H30 H 0.08694 0.40712 0.59273
 H31 H 0.08669 0.41455 0.42470
 H32 H 0.24225 0.46999 0.19272
 H33 H 0.19466 0.41839 0.57600
 H34 H 0.18915 0.47763 0.20471
 C35 C 0.51352 -0.33390 0.57390
 C36 C 0.50867 -0.33519 0.48702
 C37 C 0.52966 -0.30450 0.45492
 N38 N 0.54571 -0.28402 0.52035
 C39 C 0.53582 -0.30173 0.59379
 C40 C 0.53573 -0.29602 0.36667
 C41 C 0.54648 -0.26311 0.33933
 C42 C 0.55792 -0.25079 0.25797
 C43 C 0.56349 -0.21873 0.25670
 C44 C 0.55578 -0.21207 0.33743
 N45 N 0.54548 -0.23915 0.38732
 C46 C 0.55602 -0.18244 0.36194
 C47 C 0.55549 -0.17473 0.44948
 C48 C 0.54487 -0.15338 0.48161
 C49 C 0.55071 -0.15135 0.56844
 C50 C 0.56466 -0.17158 0.58648
 N51 N 0.56732 -0.18603 0.51375
 C52 C 0.57569 -0.17605 0.66806
 C53 C 0.57974 -0.20384 0.68626
 C54 C 0.59552 -0.20774 0.75784
 C55 C 0.58864 -0.24016 0.75971
 C56 C 0.56879 -0.25514 0.68898
 N57 N 0.56402 -0.23258 0.64416
 C58 C 0.55029 -0.28927 0.67545
 H59 H 0.50205 -0.35498 0.61518
 H60 H 0.49194 -0.35669 0.45156
 H61 H 0.54641 -0.23765 0.59651
 H62 H 0.56190 -0.26336 0.20457
 H63 H 0.57228 -0.20223 0.20247
 H64 H 0.53361 -0.14095 0.44653
 H65 H 0.54473 -0.13708 0.61307
 H66 H 0.59591 -0.25151 0.81042
 H67 H 0.53515 -0.24201 0.44790
 H68 H 0.60917 -0.18953 0.80600
 C69 C 1.16254 0.68776 0.44196
 C70 C 1.16371 0.68649 0.52959
 C71 C 1.18424 0.71806 0.55775
 N72 N 1.19706 0.73816 0.48954
 C73 C 1.18382 0.71968 0.41866
 C74 C 1.18996 0.72873 0.64462
 C75 C 1.21886 0.75717 0.66825
 C76 C 1.22375 0.77417 0.74476
 C77 C 1.25555 0.79870 0.74476
 C78 C 1.26935 0.79600 0.66834
 N79 N 1.24667 0.77084 0.62181
 C80 C 1.30251 0.81475 0.64452
 C81 C 1.31156 0.81445 0.55808
 C82 C 1.34090 0.81661 0.53018
 C83 C 1.34033 0.81797 0.44225
 C84 C 1.31065 0.81655 0.41950
 N85 N 1.29273 0.81357 0.49031
 C86 C 1.30044 0.81916 0.33511
 C87 C 1.26698 0.80086 0.31223
 C88 C 1.25229 0.80418 0.23729
 C89 C 1.22051 0.77938 0.23737
 C90 C 1.21657 0.76193 0.31271
 N91 N 1.24486 0.77521 0.35788
 C92 C 1.18894 0.73236 0.33424
 H93 H 1.14784 0.66718 0.40113
 H94 H 1.15082 0.66458 0.56779
 H95 H 1.24990 0.76496 0.41197
 H96 H 1.20624 0.76957 0.79537
 H97 H 1.26692 0.81643 0.79550
 H98 H 1.36050 0.81687 0.56915
 H99 H 1.35941 0.81948 0.39980
 H100 H 1.20261 0.77438 0.18690
 H101 H 1.25101 0.76145 0.56544
 H102 H 1.26320 0.82214 0.18689
 C103 C 0.86236 0.59990 0.56210
 C104 C 0.86129 0.58900 0.47998
 C105 C 0.82856 0.57001 0.45981
 N106 N 0.80965 0.56821 0.52747
 C107 C 0.83030 0.58598 0.59073
 C108 C 0.81641 0.55164 0.38410
 C109 C 0.78429 0.54184 0.35443
 C110 C 0.76985 0.52222 0.28342
 C111 C 0.73996 0.52164 0.27153
 C112 C 0.73697 0.54051 0.33644
 N113 N 0.76415 0.55301 0.38574
 C114 C 0.71041 0.54709 0.34757
 C115 C 0.70420 0.55798 0.42684
 C116 C 0.68184 0.56970 0.43853
 C117 C 0.68099 0.57462 0.52496
 C118 C 0.70270 0.56554 0.56354
 N119 N 0.71717 0.55571 0.50329
 C120 C 0.70765 0.56475 0.65338
 C121 C 0.73784 0.56877 0.68805
 C122 C 0.74303 0.56291 0.77295
 C123 C 0.77507 0.56927 0.78010
 C124 C 0.78875 0.57862 0.69941
 N125 N 0.76605 0.57872 0.64396
 C126 C 0.82085 0.58495 0.67754
 H127 H 0.88434 0.61487 0.59849
 H128 H 0.88229 0.59432 0.44046
 H129 H 0.77005 0.58659 0.58042
 H130 H 0.78012 0.51035 0.24306
 H131 H 0.72244 0.50880 0.22113
 H132 H 0.66750 0.57410 0.38993
 H133 H 0.66611 0.58390 0.55597
 H134 H 0.78644 0.56594 0.83761
 H135 H 0.76985 0.57096 0.43237
 H136 H 0.72545 0.55390 0.82443
 C137 C 0.43511 0.12080 0.52836
 C138 C 0.44837 0.12713 0.44791
 C139 C 0.46398 0.16088 0.43848
 N140 N 0.46115 0.17538 0.51099
 C141 C 0.44395 0.15092 0.56653
 C142 C 0.48393 0.17815 0.36876
 C143 C 0.49314 0.21148 0.35404
 C144 C 0.51677 0.23195 0.29694
 C145 C 0.51595 0.26153 0.29797
 C146 C 0.49188 0.25806 0.35571
 N147 N 0.47796 0.22750 0.38861
 C148 C 0.48110 0.28142 0.37245
 C149 C 0.46051 0.27835 0.44183
 C150 C 0.44246 0.29516 0.44948
 C151 C 0.42853 0.28782 0.52906
 C152 C 0.43949 0.26770 0.56859
 N153 N 0.45858 0.26142 0.51449
 C154 C 0.43527 0.25868 0.65646
 C155 C 0.43603 0.22984 0.68509
 C156 C 0.43920 0.22244 0.76992
 C157 C 0.44080 0.19342 0.76951
 C158 C 0.43847 0.18370 0.68443
 N159 N 0.43504 0.20580 0.63365
 C160 C 0.44065 0.15575 0.65496
 H161 H 0.42178 0.09681 0.55723
 H162 H 0.44709 0.10888 0.40264
 H163 H 0.43094 0.20393 0.56762
 H164 H 0.53248 0.22603 0.25760
 H165 H 0.53089 0.28288 0.25965
 H166 H 0.43976 0.31121 0.40297
 H167 H 0.41299 0.29714 0.55604
 H168 H 0.44449 0.18165 0.82564
 H169 H 0.45678 0.21705 0.42523
 H170 H 0.44149 0.23695 0.82631
 C171 C 0.70337 0.14466 0.44928
 C172 C 0.70315 0.14432 0.53702
 C173 C 0.72868 0.17388 0.56380
 N174 N 0.74488 0.19192 0.49489
 C175 C 0.72908 0.17437 0.42467
 C176 C 0.73801 0.18266 0.65049
 C177 C 0.76478 0.21264 0.67502
 C178 C 0.78037 0.21860 0.75406
 C179 C 0.80358 0.25101 0.75454
 C180 C 0.80108 0.26428 0.67627
 N181 N 0.77744 0.24055 0.62816
 C182 C 0.81872 0.29778 0.65229
 C183 C 0.81743 0.30756 0.56642
 C184 C 0.82005 0.33756 0.54098
 C185 C 0.82043 0.33791 0.45298
 C186 C 0.81742 0.30791 0.42756
 N187 N 0.81515 0.28920 0.49683
 C188 C 0.81846 0.29852 0.34190
 C189 C 0.80181 0.26526 0.31706
 C190 C 0.80390 0.25302 0.23749
 C191 C 0.78082 0.22050 0.23634
 C192 C 0.76568 0.21369 0.31566
 N193 N 0.77860 0.24106 0.36430
 C194 C 0.73870 0.18375 0.33863
 H195 H 0.68696 0.12472 0.40869
 H196 H 0.68656 0.12401 0.57605
 H197 H 0.76918 0.24416 0.42187
 H198 H 0.77562 0.20140 0.80609
 H199 H 0.82011 0.26315 0.80725
 H200 H 0.82142 0.35712 0.58165
 H201 H 0.82225 0.35775 0.41233
 H202 H 0.77553 0.20390 0.18278
 H203 H 0.76797 0.24415 0.57070
 H204 H 0.81975 0.26617 0.18482
 N205 N 0.97124 0.56570 0.08413
 N206 N 0.95077 0.57775 0.09572
 N207 N 1.03660 0.56833 0.14228
 N208 N 1.06278 0.58001 0.19193
 N209 N 1.03924 0.58984 0.08330
 N210 N 1.06723 0.61700 0.09212
 N211 N 0.96785 0.54423 0.14396
 N212 N 0.94443 0.54089 0.19780
 C213 C 0.93403 0.56199 0.16612
 C214 C 1.08152 0.61037 0.16048
 N215 N 1.02490 0.48082 0.08509
 N216 N 1.04631 0.46975 0.09701
 N217 N 0.95990 0.47792 0.14695
 N218 N 0.94019 0.46384 0.21199
 N219 N 0.95660 0.45605 0.08855
 N220 N 0.93427 0.42653 0.11270
 N221 N 1.02812 0.50231 0.14434
 N222 N 1.05194 0.50642 0.19824
 Mn223 Mn 0.99806 0.52324 0.14545
 C224 C 1.06312 0.48604 0.16763
 C225 C 0.92386 0.43200 0.18915
 N226 N 1.03785 0.58928 -0.10202
 N227 N 1.06027 0.61876 -0.12586
 N228 N 0.96648 0.54228 -0.15714
 N229 N 0.94165 0.53535 -0.20899
 N230 N 0.96914 0.56422 -0.10006
 N231 N 0.94574 0.57286 -0.11184
 N232 N 1.03429 0.56745 -0.16046
 N233 N 1.05387 0.58147 -0.22572
 Mn234 Mn 1.00447 0.57765 -0.00850
 C235 C 1.07039 0.61324 -0.20253
 C236 C 0.92892 0.55443 -0.18040
 N237 N 0.95548 0.45542 -0.09802
 N238 N 0.93288 0.42580 -0.12085
 N239 N 1.02613 0.50210 -0.15781
 N240 N 1.04798 0.50588 -0.21606
 N241 N 1.02394 0.48044 -0.09995
 N242 N 1.04454 0.46878 -0.11770
 N243 N 0.95822 0.47701 -0.15683
 N244 N 0.93770 0.46276 -0.22071
 Mn245 Mn 0.99013 0.46780 -0.00598
 Mn246 Mn 0.99630 0.52223 -0.15825
 Cl247 Cl 0.99718 0.52266 -0.00659
 C248 C 0.92163 0.43105 -0.19687
 C249 C 1.05947 0.48529 -0.19013
 N250 N 0.44292 0.40768 0.07737
 N251 N 0.43753 0.37700 0.07600
 N252 N 0.43024 0.46122 0.16340
 N253 N 0.41622 0.47072 0.22244
 N254 N 0.40913 0.44437 0.10310
 N255 N 0.38006 0.44199 0.11966
 N256 N 0.46402 0.42425 0.13778
 N257 N 0.47377 0.40520 0.17906
 C258 C 0.45698 0.37581 0.13938
 C259 C 0.38498 0.45851 0.19464
 N260 N 0.51018 0.54214 0.11321
 N261 N 0.51966 0.57231 0.14048
 N262 N 0.52492 0.48358 0.14480
 N263 N 0.54189 0.47567 0.19956
 N264 N 0.54432 0.50575 0.09003
 N265 N 0.57524 0.51370 0.10729
 N266 N 0.49187 0.52063 0.17075
 N267 N 0.48879 0.53572 0.23922
 Mn268 Mn 0.47770 0.47231 0.15503
 C269 C 0.50577 0.56789 0.21871
 C270 C 0.57310 0.49416 0.17499
 N271 N 0.40555 0.45062 -0.08020
 N272 N 0.37440 0.44024 -0.09892
 N273 N 0.45881 0.43689 -0.16075
 N274 N 0.46774 0.42311 -0.22167
 N275 N 0.44008 0.41496 -0.10472
 N276 N 0.43573 0.38549 -0.12617
 N277 N 0.42425 0.47267 -0.13605
 N278 N 0.40620 0.47815 -0.19345
 Mn279 Mn 0.42412 0.42913 -0.00088
 C280 C 0.37523 0.45811 -0.16865
 C281 C 0.45316 0.39114 -0.19947
 N282 N 0.54080 0.51326 -0.09492
 N283 N 0.57102 0.52283 -0.12112
 N284 N 0.48508 0.53205 -0.12839
 N285 N 0.47587 0.55051 -0.17362
 N286 N 0.50677 0.54944 -0.06985
 N287 N 0.51331 0.58052 -0.07468
 N288 N 0.51969 0.49643 -0.15528
 N289 N 0.53499 0.49390 -0.22369
 Mn290 Mn 0.52587 0.52792 0.00960
 Mn291 Mn 0.47195 0.48457 -0.14574
 Cl292 Cl 0.47497 0.47855 0.00451
 C293 C 0.56690 0.51012 -0.20117
 C294 C 0.49354 0.58057 -0.13937
 N295 N 0.45522 -0.04095 0.08612
 N296 N 0.42628 -0.06469 0.10886
 N297 N 0.49928 0.03336 0.12933
 N298 N 0.50230 0.05871 0.17513
 N299 N 0.47740 0.02674 0.06825
 N300 N 0.46491 0.04723 0.07075
 N301 N 0.47654 -0.03457 0.14874
 N302 N 0.46284 -0.05380 0.21500
 C303 C 0.43172 -0.07273 0.18903
 C304 C 0.48076 0.06715 0.13720
 N305 N 0.58801 0.04380 0.08853
 N306 N 0.61633 0.07006 0.10220
 N307 N 0.54274 -0.02440 0.16032
 N308 N 0.53980 -0.04400 0.22518
 N309 N 0.56361 -0.02464 0.10384
 N310 N 0.57506 -0.04487 0.12847
 N311 N 0.56574 0.04330 0.14115
 N312 N 0.57818 0.06913 0.19184
 Mn313 Mn 0.52113 0.00459 0.14565
 C314 C 0.60964 0.08566 0.16651
 C315 C 0.55964 -0.05696 0.20397
 N316 N 0.47927 0.02156 -0.11396
 N317 N 0.46827 0.04250 -0.13468
 N318 N 0.47936 -0.04371 -0.15559
 N319 N 0.46635 -0.06507 -0.21829
 N320 N 0.45684 -0.04643 -0.10042
 N321 N 0.42785 -0.06978 -0.12502
 N322 N 0.50204 0.02399 -0.16750
 N323 N 0.50706 0.04632 -0.22641
 Mn324 Mn 0.46677 -0.01005 -0.01495
 C325 C 0.48598 0.05769 -0.20505
 C326 C 0.43444 -0.08160 -0.19773
 N327 N 0.56611 -0.02932 -0.08215
 N328 N 0.58302 -0.04511 -0.10001
 N329 N 0.56831 0.03472 -0.15582
 N330 N 0.58063 0.05863 -0.21248
 N331 N 0.58973 0.03890 -0.09509
 N332 N 0.61741 0.06585 -0.10912
 N333 N 0.54557 -0.03298 -0.14502
 N334 N 0.54815 -0.05093 -0.20687
 Mn335 Mn 0.57719 0.00706 0.00405
 Mn336 Mn 0.52383 -0.00444 -0.15630
 Cl337 Cl 0.52218 -0.00092 -0.00530
 C338 C 0.57088 -0.05899 -0.17730
 C339 C 0.61121 0.07780 -0.18275
 C340 C 1.13148 0.45854 0.30654
 C341 C 1.12221 0.45089 0.22463
 C342 C 1.09845 0.45926 0.18043
 C343 C 1.08922 0.48112 0.20945
 H344 H 1.13018 0.43557 0.19016
 H345 H 1.08770 0.44611 0.12160
 H346 H 1.12134 0.47131 0.34374
 H347 H 1.10032 0.49559 0.26604
 C348 C 0.53054 0.67968 0.30367
 C349 C 0.53119 0.65136 0.32033
 C350 C 0.52324 0.62573 0.25500
 C351 C 0.51200 0.59449 0.27940
 H352 H 0.53799 0.64648 0.38320
 H353 H 0.52614 0.63223 0.18757
 H354 H 0.52667 0.68432 0.23751
 H355 H 0.50729 0.58809 0.34668
 C356 C 0.32320 -0.16087 0.27224
 C357 C 0.35264 -0.13594 0.29122
 C358 C 0.37591 -0.11572 0.22477
 C359 C 0.40675 -0.09564 0.24762
 H360 H 0.35986 -0.12921 0.35732
 H361 H 0.36804 -0.11715 0.15857
 H362 H 0.31627 -0.16474 0.20514
 H363 H 0.41429 -0.09547 0.31375
 C364 C 0.83719 0.54001 0.33907
 C365 C 0.86291 0.56022 0.29289
 C366 C 0.88609 0.54978 0.25741
 C367 C 0.90943 0.56965 0.20430
 H368 H 0.86752 0.58533 0.28360
 H369 H 0.88418 0.52616 0.27465
 H370 H 0.83162 0.51459 0.34684
 H371 H 0.91003 0.59253 0.18489
 C372 C 0.49258 0.31123 0.31916
 C373 C 0.47423 0.31258 0.25449
 C374 C 0.47860 0.34430 0.22137
 C375 C 0.45744 0.34529 0.16433
 H376 H 0.45327 0.29024 0.23337
 H377 H 0.49755 0.36684 0.24841
 H378 H 0.51273 0.33353 0.34345
 H379 H 0.43877 0.32267 0.13690
 C380 C 0.71925 0.16108 0.26899
 C381 C 0.68801 0.15405 0.25745
 C382 C 0.66583 0.12730 0.20111
 C383 C 0.63358 0.11555 0.20953
 H384 H 0.67786 0.16636 0.29699
 H385 H 0.67560 0.11552 0.15855
 H386 H 0.73022 0.14942 0.23017
 H387 H 0.62421 0.12671 0.25521
 C388 C 0.44198 0.13346 -0.28420
 C389 C 0.46077 0.11884 -0.29679
 C390 C 0.46264 0.09509 -0.23698
 C391 C 0.48290 0.08284 -0.25569
 H392 H 0.47628 0.12515 -0.35288
 H393 H 0.44736 0.08718 -0.18048
 H394 H 0.43008 0.13019 -0.22273
 H395 H 0.49800 0.09128 -0.31252
 C396 C 0.68218 0.55969 -0.28866
 C397 C 0.65031 0.54136 -0.30694
 C398 C 0.62488 0.53545 -0.24279
 C399 C 0.59344 0.51569 -0.26094
 H400 H 0.64270 0.52912 -0.36837
 H401 H 0.63183 0.54757 -0.18103
 H402 H 0.68847 0.56860 -0.22349
 H403 H 0.58667 0.50386 -0.32310
 C404 C 0.83722 0.32121 -0.28393
 C405 C 0.86261 0.35044 -0.30145
 C406 C 0.88131 0.37425 -0.23407
 C407 C 0.89960 0.40555 -0.25598
 H408 H 0.87091 0.35714 -0.36672
 H409 H 0.88028 0.36641 -0.16804
 H410 H 0.83187 0.31498 -0.21688
 H411 H 0.89898 0.41303 -0.32174
 C412 C 0.57946 -0.15357 -0.25979
 C413 C 0.59314 -0.12116 -0.26964
 C414 C 0.58856 -0.10060 -0.20493
 C415 C 0.58427 -0.07546 -0.23186
 H416 H 0.60366 -0.11038 -0.33100
 H417 H 0.58386 -0.10857 -0.13865
 H418 H 0.56925 -0.16428 -0.19814
 H419 H 0.58562 -0.07005 -0.29995
 C420 C 0.28204 0.43920 -0.29788
 C421 C 0.29155 0.41668 -0.27798
 C422 C 0.31926 0.42382 -0.21957
 C423 C 0.34641 0.45274 -0.21981
 H424 H 0.27758 0.39176 -0.30081
 H425 H 0.31844 0.40375 -0.18152
 H426 H 0.29257 0.46178 -0.26145
 H427 H 0.34867 0.47183 -0.26409
 C428 C 1.16772 0.71073 -0.28938
 C429 C 1.13576 0.69120 -0.30232
 C430 C 1.11502 0.66811 -0.23658
 C431 C 1.09204 0.63871 -0.26174
 H432 H 1.12458 0.69041 -0.36410
 H433 H 1.11978 0.67407 -0.16906
 H434 H 1.17686 0.71296 -0.22418
 H435 H 1.08962 0.63239 -0.32930
 C436 C 0.84272 0.58626 -0.25632
 C437 C 0.86138 0.57138 -0.26644
 C438 C 0.88627 0.57251 -0.20515
 C439 C 0.90105 0.55455 -0.22481
 H440 H 0.85794 0.55693 -0.32397
 H441 H 0.89336 0.58834 -0.14943
 H442 H 0.84214 0.59630 -0.19403
 H443 H 0.89286 0.53887 -0.28099
 C444 C 0.43194 0.27957 -0.28222
 C445 C 0.44662 0.31223 -0.29181
 C446 C 0.44229 0.33451 -0.23219
 C447 C 0.45665 0.36645 -0.25069
 H448 H 0.46293 0.32334 -0.34539
 H449 H 0.42701 0.32503 -0.17606
 H450 H 0.41923 0.26939 -0.22272
 H451 H 0.47158 0.37526 -0.30771
 C452 C 0.71923 0.15894 -0.28103
 C453 C 0.68746 0.14976 -0.27084
 C454 C 0.66644 0.12235 -0.21464
 C455 C 0.63413 0.10774 -0.22738
 H456 H 0.67609 0.16088 -0.31119
 H457 H 0.67726 0.11268 -0.16814
 H458 H 0.73130 0.14846 -0.24122
 H459 H 0.62398 0.11674 -0.27746
 C460 C 1.13379 0.44034 -0.27202
 C461 C 1.11550 0.45530 -0.28753
 C462 C 1.09552 0.46039 -0.22234
 C463 C 1.08264 0.48004 -0.24262
 H464 H 1.11612 0.46553 -0.35068
 H465 H 1.09063 0.44780 -0.16118
 H466 H 1.13677 0.43464 -0.20606
 H467 H 1.08866 0.49279 -0.30372
 C468 C 0.54806 0.68949 -0.25669
 C469 C 0.51976 0.66477 -0.23128
 C470 C 0.51895 0.63912 -0.17367
 C471 C 0.49293 0.60961 -0.17554
 H472 H 0.49690 0.66212 -0.25773
 H473 H 0.54090 0.64285 -0.13932
 H474 H 0.56994 0.69427 -0.22056
 H475 H 0.47207 0.60559 -0.21544
 C476 C 0.32588 -0.16674 -0.29148
 C477 C 0.35544 -0.14174 -0.30808
 C478 C 0.37845 -0.12268 -0.23932
 C479 C 0.40998 -0.10440 -0.25809
 H480 H 0.36290 -0.13380 -0.37322
 H481 H 0.36973 -0.12321 -0.17470
 H482 H 0.31930 -0.17190 -0.22457
 H483 H 0.41838 -0.10541 -0.32224
 C484 C 0.55567 -0.15991 0.29297
 C485 C 0.57045 -0.12723 0.30136
 C486 C 0.56659 -0.10576 0.23685
 C487 C 0.56624 -0.07831 0.26236
 H488 H 0.58412 -0.11599 0.35927
 H489 H 0.56173 -0.11339 0.17035
 H490 H 0.54272 -0.17063 0.23374
 H491 H 0.56787 -0.07273 0.33027
 C492 C 0.27286 0.43637 0.26607
 C493 C 0.30524 0.45304 0.27776
 C494 C 0.32870 0.45024 0.21914
 C495 C 0.36010 0.46295 0.24275
 H496 H 0.31458 0.46702 0.33641
 H497 H 0.32014 0.43625 0.16034
 H498 H 0.26287 0.42327 0.20667
 H499 H 0.36801 0.47642 0.30251
 C500 C 1.16370 0.71509 0.26744
 C501 C 1.15723 0.68531 0.24000
 C502 C 1.12755 0.66502 0.18962
 C503 C 1.11369 0.63248 0.19704
 H504 H 1.17205 0.67432 0.26340
 H505 H 1.11537 0.67648 0.15398
 H506 H 1.14918 0.72644 0.24458
 H507 H 1.12498 0.62155 0.23821
 C508 C 0.49821 0.16144 0.31601
 C509 C 0.48009 0.13825 0.25961
 C510 C 0.49151 0.11590 0.22352
 C511 C 0.47294 0.09285 0.16732
 H512 H 0.45535 0.13391 0.24585
 H513 H 0.51430 0.11718 0.24624
 H514 H 0.52304 0.16624 0.33013
 H515 H 0.45062 0.09230 0.14324
 C516 C 0.68768 0.54138 0.27427
 C517 C 0.65589 0.52061 0.28157
 C518 C 0.63172 0.51733 0.21498
 C519 C 0.60044 0.49569 0.22684
 H520 H 0.64723 0.50686 0.34076
 H521 H 0.63895 0.53382 0.16047
 H522 H 0.69729 0.55425 0.21450
 H523 H 0.59391 0.47955 0.28210
 C524 C 0.83645 0.32385 0.27512
 C525 C 0.86397 0.35129 0.29253
 C526 C 0.88217 0.37572 0.22599
 C527 C 0.90250 0.40645 0.24918
 H528 H 0.87365 0.35601 0.35738
 H529 H 0.87904 0.36868 0.15897
 H530 H 0.82760 0.31929 0.20949
 H531 H 0.90388 0.41340 0.31605
   
