data_POSCAR
  _audit_creation_date              2014-09-24
  _audit_creation_method            'ToBaCCo'
  _symmetry_space_group_name_H-M    'P1'
  _symmetry_Int_Tables_number       1
  _symmetry_cell_setting            triclinic
  loop_
  _symmetry_equiv_pos_as_xyz
 x,y,z
_cell_length_a 43.2592
_cell_length_b 43.9110
_cell_length_c 46.3107
_cell_angle_alpha 92.266100
_cell_angle_beta 92.789300
_cell_angle_gamma 93.269800
loop_
  _atom_site_label
  _atom_site_type_symbol
  _atom_site_fract_x
  _atom_site_fract_y
  _atom_site_fract_z
N1 N 0.18404 1.23768 0.16784
 N2 N 0.16340 1.23720 0.18769
 C3 C 0.14581 1.26130 0.18486
 C4 C 0.15577 1.27788 0.16171
 C5 C 0.18028 1.26203 0.15157
 H6 H 0.12680 1.26583 0.19839
 H7 H 0.19405 1.26716 0.13335
 Cu8 Cu 0.15994 1.20408 0.21418
 Cu9 Cu 0.21260 1.20540 0.16331
 Cu10 Cu 0.22005 1.15912 0.22188
 N11 N 0.16437 1.17798 0.24681
 N12 N 0.18822 1.16103 0.25007
 C13 C 0.18506 1.14466 0.27378
 C14 C 0.15755 1.15156 0.28622
 C15 C 0.14518 1.17304 0.26837
 H16 H 0.20126 1.12829 0.28076
 H17 H 0.12360 1.18397 0.27042
 N18 N 0.24944 1.16025 0.19069
 N19 N 0.24624 1.17740 0.16811
 C20 C 0.26856 1.17155 0.14974
 C21 C 0.28660 1.14941 0.16116
 C22 C 0.27376 1.14291 0.18721
 H23 H 0.27081 1.18193 0.12912
 H24 H 0.28109 1.12622 0.20223
 H25 H 0.19294 1.17057 0.18710
 H26 H 0.21523 1.20292 0.20736
 N27 N 0.82726 0.75747 0.16149
 N28 N 0.84445 0.75486 0.18537
 C29 C 0.86627 0.73494 0.18024
 C30 C 0.86258 0.72440 0.15162
 C31 C 0.83749 0.73919 0.14041
 H32 H 0.88362 0.72859 0.19611
 H33 H 0.82792 0.73746 0.11837
 Cu34 Cu 0.83703 0.77846 0.22056
 Cu35 Cu 0.79401 0.78567 0.15909
 Cu36 Cu 0.78071 0.82761 0.22202
 N37 N 0.82961 0.80208 0.25578
 N38 N 0.80696 0.82073 0.25628
 C39 C 0.80758 0.83539 0.28237
 C40 C 0.83230 0.82578 0.29930
 C41 C 0.84561 0.80440 0.28155
 H42 H 0.79214 0.85297 0.28786
 H43 H 0.86600 0.79213 0.28656
 N44 N 0.75671 0.83144 0.18519
 N45 N 0.76158 0.81547 0.16126
 C46 C 0.74274 0.82463 0.13963
 C47 C 0.72542 0.84767 0.15042
 C48 C 0.73487 0.85126 0.17938
 H49 H 0.74259 0.81614 0.11739
 H50 H 0.72684 0.86759 0.19497
 H51 H 0.81206 0.81609 0.19158
 H52 H 0.78420 0.78499 0.20215
 N53 N 0.81386 1.24929 -0.16758
 N54 N 0.83680 1.24795 -0.18502
 C55 C 0.85447 1.27423 -0.18210
 C56 C 0.84207 1.29315 -0.16148
 C57 C 0.81616 1.27641 -0.15284
 H58 H 0.87547 1.27858 -0.19334
 H59 H 0.80082 1.28278 -0.13619
 Cu60 Cu 0.84338 1.21088 -0.20758
 Cu61 Cu 0.78502 1.21438 -0.16307
 Cu62 Cu 0.78523 1.15632 -0.21619
 N63 N 0.84279 1.17904 -0.23784
 N64 N 0.81992 1.15807 -0.24161
 C65 C 0.82572 1.13908 -0.26401
 C66 C 0.85394 1.14861 -0.27492
 C67 C 0.86390 1.17420 -0.25760
 H68 H 0.81065 1.11956 -0.27135
 H69 H 0.88488 1.18848 -0.25907
 N70 N 0.75256 1.15883 -0.18793
 N71 N 0.75263 1.18097 -0.16780
 C72 C 0.72815 1.17607 -0.15143
 C73 C 0.71189 1.14939 -0.16148
 C74 C 0.72809 1.13906 -0.18467
 H75 H 0.72304 1.19044 -0.13299
 H76 H 0.72263 1.11852 -0.19800
 H77 H 0.80790 1.17808 -0.18092
 H78 H 0.78739 1.20296 -0.20631
 N79 N 0.17143 0.75070 -0.18485
 N80 N 0.14495 0.75686 -0.19780
 C81 C 0.12249 0.73693 -0.18973
 C82 C 0.13563 0.71705 -0.17072
 C83 C 0.16684 0.72650 -0.16835
 H84 H 0.09836 0.73723 -0.19687
 H85 H 0.18489 0.71724 -0.15497
 Cu86 Cu 0.14257 0.79119 -0.22295
 Cu87 Cu 0.20977 0.77520 -0.18948
 Cu88 Cu 0.19882 0.84666 -0.21624
 N89 N 0.14370 0.82452 -0.24948
 N90 N 0.16563 0.84649 -0.24622
 C91 C 0.16048 0.86768 -0.26573
 C92 C 0.13380 0.85858 -0.28254
 C93 C 0.12386 0.83085 -0.27148
 H94 H 0.17530 0.88814 -0.26724
 H95 H 0.10348 0.81656 -0.27838
 N96 N 0.23722 0.83648 -0.19529
 N97 N 0.24179 0.80910 -0.18577
 C98 C 0.26996 0.80962 -0.17198
 C99 C 0.28391 0.83875 -0.17302
 C100 C 0.26241 0.85509 -0.18809
 H101 H 0.27923 0.79035 -0.16140
 H102 H 0.26448 0.87902 -0.19278
 H103 H 0.18399 0.81220 -0.18894
 H104 H 0.19844 0.80138 -0.22502
 C105 C 0.48235 1.02211 0.01932
 C106 C 0.50704 1.00536 0.03638
 C107 C 0.52230 0.98508 0.02008
 C108 C 0.51160 0.98362 -0.01217
 C109 C 0.50044 1.03689 -0.00482
 C110 C 0.51571 1.01683 -0.02133
 C111 C 0.46135 0.99674 0.00388
 C112 C 0.47640 0.97664 -0.01259
 H113 H 0.51189 1.00934 0.05941
 H114 H 0.52378 0.96723 -0.02573
 H115 H 0.50408 1.06129 -0.00665
 H116 H 0.43636 0.99560 0.00508
 C117 C 0.03953 0.48271 1.02697
 C118 C 0.05524 0.50005 1.00288
 C119 C 0.03551 0.51574 0.98602
 C120 C 0.00169 0.51282 0.99481
 C121 C 0.02331 0.50763 1.04367
 C122 C 0.00330 0.52327 1.02701
 C123 C 0.01318 0.46286 1.01138
 C124 C -0.00658 0.47837 0.99457
 H125 H 0.08008 0.50272 1.00123
 H126 H -0.01442 0.52540 0.98096
 H127 H 0.02721 0.51219 1.06673
 H128 H 0.01105 0.43827 1.01286
 C129 C 1.01372 0.02940 0.47891
 C130 C 0.99572 0.04734 0.50101
 C131 C 0.97686 0.02961 0.51714
 C132 C 0.97781 -0.00481 0.50971
 C133 C 1.03103 0.00677 0.49741
 C134 C 1.01238 -0.01098 0.51371
 C135 C 0.98891 0.00967 0.46114
 C136 C 0.97010 -0.00811 0.47698
 H137 H 0.99809 0.07197 0.50373
 H138 H 0.96245 -0.01934 0.52266
 H139 H 1.05593 0.00635 0.49943
 H140 H 0.98659 0.00974 0.43773
 C141 C 0.11679 0.31643 1.16213
 C142 C 0.10305 0.34116 1.14973
 C143 C 0.11507 0.35440 1.12530
 C144 C 0.14135 0.34237 1.11348
 C145 C 0.15510 0.31758 1.12579
 C146 C 0.14285 0.30390 1.15015
 C147 C 0.09833 0.37918 1.11178
 C148 C 0.11130 0.39917 1.09409
 C149 C 0.09362 0.42202 1.07854
 C150 C 0.10483 0.43284 1.05272
 C151 C 0.08810 0.45296 1.03634
 C152 C 0.05998 0.46351 1.04581
 C153 C 0.04900 0.45282 1.07192
 C154 C 0.06574 0.43269 1.08827
 H155 H 0.10642 0.30705 1.18085
 H156 H 0.08271 0.34984 1.15919
 H157 H 0.15089 0.35125 1.09415
 H158 H 0.17502 0.30900 1.11564
 H159 H 0.07412 0.38029 1.11633
 H160 H 0.13551 0.39804 1.08956
 H161 H 0.12614 0.42484 1.04462
 H162 H 0.09689 0.45914 1.01582
 H163 H 0.02701 0.45957 1.07948
 H164 H 0.05658 0.42555 1.10839
 C165 C -0.08830 0.69724 1.14762
 C166 C -0.06997 0.67697 1.13324
 C167 C -0.08102 0.66150 1.10738
 C168 C -0.11066 0.66734 1.09572
 C169 C -0.12894 0.68783 1.11003
 C170 C -0.11805 0.70285 1.13625
 C171 C -0.06062 0.64006 1.09318
 C172 C -0.07119 0.61629 1.07560
 C173 C -0.05093 0.59360 1.06289
 C174 C -0.06286 0.57455 1.03940
 C175 C -0.04513 0.55199 1.02750
 C176 C -0.01509 0.54786 1.03896
 C177 C -0.00305 0.56697 1.06236
 C178 C -0.02075 0.58944 1.07431
 H179 H -0.07892 0.70870 1.16751
 H180 H -0.04713 0.67313 1.14254
 H181 H -0.11967 0.65658 1.07540
 H182 H -0.15172 0.69165 1.10065
 H183 H -0.03605 0.64376 1.09845
 H184 H -0.09582 0.61281 1.07041
 H185 H -0.08612 0.57694 1.03035
 H186 H -0.05531 0.53730 1.00981
 H187 H 0.02014 0.56459 1.07153
 H188 H -0.01077 0.60283 1.09288
 C189 C -0.15872 0.33838 0.87353
 C190 C -0.14428 0.36459 0.88754
 C191 C -0.11489 0.37577 0.87967
 C192 C -0.10130 0.36139 0.85630
 C193 C -0.11571 0.33518 0.84230
 C194 C -0.14423 0.32281 0.85126
 C195 C -0.09708 0.40130 0.89603
 C196 C -0.10030 0.40740 0.92430
 C197 C -0.07832 0.42816 0.94229
 C198 C -0.07309 0.42183 0.97151
 C199 C -0.05039 0.43876 0.98870
 C200 C -0.03277 0.46276 0.97714
 C201 C -0.03919 0.47039 0.94840
 C202 C -0.06171 0.45315 0.93102
 H203 H -0.18097 0.33011 0.88068
 H204 H -0.15609 0.37577 0.90469
 H205 H -0.07886 0.36977 0.84953
 H206 H -0.10393 0.32429 0.82499
 H207 H -0.07825 0.41273 0.88535
 H208 H -0.11715 0.39389 0.93565
 H209 H -0.08581 0.40296 0.98080
 H210 H -0.04626 0.43279 1.01097
 H211 H -0.02595 0.48887 0.93905
 H212 H -0.06581 0.45920 0.90879
 C213 C 0.08715 0.68861 0.84411
 C214 C 0.07228 0.66609 0.85990
 C215 C 0.08952 0.64655 0.87673
 C216 C 0.12209 0.65019 0.87759
 C217 C 0.13694 0.67266 0.86181
 C218 C 0.11970 0.69232 0.84500
 C219 C 0.07287 0.62400 0.89434
 C220 C 0.08561 0.59889 0.90396
 C221 C 0.07044 0.57725 0.92348
 C222 C 0.08303 0.54877 0.92691
 C223 C 0.07122 0.52850 0.94669
 C224 C 0.04653 0.53628 0.96358
 C225 C 0.03344 0.56447 0.95983
 C226 C 0.04534 0.58485 0.94012
 H227 H 0.07299 0.70337 0.83164
 H228 H 0.04717 0.66403 0.85908
 H229 H 0.13632 0.63637 0.89101
 H230 H 0.16200 0.67469 0.86316
 H231 H 0.04916 0.62818 0.89888
 H232 H 0.10828 0.59348 0.89707
 H233 H 0.10241 0.54232 0.91452
 H234 H 0.08158 0.50678 0.94892
 H235 H 0.01481 0.57136 0.97297
 H236 H 0.03546 0.60684 0.93890
 C237 C 1.15959 0.11599 0.32577
 C238 C 1.14592 0.10200 0.34893
 C239 C 1.11693 0.11021 0.35783
 C240 C 1.10182 0.13295 0.34306
 C241 C 1.11543 0.14697 0.31984
 C242 C 1.14442 0.13850 0.31054
 C243 C 1.10267 0.09319 0.38132
 C244 C 1.07993 0.10345 0.39714
 C245 C 1.06465 0.08517 0.41926
 C246 C 1.03435 0.09129 0.42610
 C247 C 1.01853 0.07361 0.44571
 C248 C 1.03279 0.04966 0.45953
 C249 C 1.06344 0.04392 0.45292
 C250 C 1.07925 0.06164 0.43333
 H251 H 1.18190 0.10861 0.31982
 H252 H 1.15803 0.08446 0.35985
 H253 H 1.07905 0.13942 0.34864
 H254 H 1.10269 0.16405 0.30901
 H255 H 1.11128 0.07100 0.38525
 H256 H 1.07111 0.12554 0.39316
 H257 H 1.02254 0.10930 0.41564
 H258 H 0.99476 0.07829 0.44969
 H259 H 1.07536 0.02534 0.46199
 H260 H 1.10289 0.05667 0.42934
 C261 C 1.13236 -0.09678 0.68736
 C262 C 1.11845 -0.08082 0.66528
 C263 C 1.09182 -0.09312 0.64962
 C264 C 1.07903 -0.12184 0.65679
 C265 C 1.09285 -0.13785 0.67909
 C266 C 1.11981 -0.12559 0.69478
 C267 C 1.07814 -0.07468 0.62665
 C268 C 1.05906 -0.08597 0.60458
 C269 C 1.04762 -0.06670 0.58115
 C270 C 1.01954 -0.07538 0.56573
 C271 C 1.00813 -0.05747 0.54369
 C272 C 1.02480 -0.03070 0.53637
 C273 C 1.05317 -0.02236 0.55151
 C274 C 1.06457 -0.04023 0.57339
 H275 H 1.15287 -0.08606 0.69857
 H276 H 1.12873 -0.05867 0.66032
 H277 H 1.05808 -0.13185 0.64572
 H278 H 1.08216 -0.15981 0.68388
 H279 H 1.08500 -0.05056 0.62784
 H280 H 1.05140 -0.10988 0.60339
 H281 H 1.00624 -0.09589 0.57098
 H282 H 0.98638 -0.06475 0.53230
 H283 H 1.06648 -0.00167 0.54691
 H284 H 1.08686 -0.03326 0.58389
 C285 C 0.87122 -0.17154 0.33996
 C286 C 0.88368 -0.15729 0.36581
 C287 C 0.86851 -0.13378 0.37954
 C288 C 0.83932 -0.12644 0.36805
 C289 C 0.82690 -0.14051 0.34213
 C290 C 0.84315 -0.16255 0.32706
 C291 C 0.88467 -0.11636 0.40455
 C292 C 0.87962 -0.08705 0.41104
 C293 C 0.90048 -0.06707 0.43091
 C294 C 0.90330 -0.03585 0.42558
 C295 C 0.92517 -0.01652 0.44136
 C296 C 0.94436 -0.02791 0.46321
 C297 C 0.94023 -0.05867 0.47002
 C298 C 0.91853 -0.07823 0.45389
 H299 H 0.88442 -0.18874 0.32975
 H300 H 0.90594 -0.16382 0.37446
 H301 H 0.82612 -0.10950 0.37871
 H302 H 0.80472 -0.13351 0.33388
 H303 H 0.90397 -0.12670 0.41529
 H304 H 0.86219 -0.07588 0.39846
 H305 H 0.88946 -0.02657 0.40827
 H306 H 0.92765 0.00727 0.43604
 H307 H 0.95476 -0.06786 0.48685
 H308 H 0.91629 -0.10202 0.45914
 C309 C 0.89887 0.14707 0.69483
 C310 C 0.91444 0.13369 0.67238
 C311 C 0.90103 0.10832 0.65612
 C312 C 0.87165 0.09622 0.66310
 C313 C 0.85605 0.10951 0.68575
 C314 C 0.86938 0.13521 0.70203
 C315 C 0.91902 0.09498 0.63280
 C316 C 0.90644 0.07778 0.61015
 C317 C 0.92497 0.06588 0.58647
 C318 C 0.91324 0.04013 0.56963
 C319 C 0.93000 0.02835 0.54707
 C320 C 0.95878 0.04229 0.54073
 C321 C 0.97031 0.06833 0.55730
 C322 C 0.95356 0.08012 0.57975
 H323 H 0.91043 0.16660 0.70652
 H324 H 0.93712 0.14337 0.66759
 H325 H 0.86082 0.07618 0.65162
 H326 H 0.83356 0.09936 0.69034
 H327 H 0.94377 0.10036 0.63434
 H328 H 0.88177 0.07197 0.60867
 H329 H 0.89109 0.02898 0.57405
 H330 H 0.92019 0.00861 0.53436
 H331 H 0.99252 0.07951 0.55319
 H332 H 0.96302 0.10065 0.59139
 C333 C 0.32284 1.10689 0.15802
 C334 C 0.34590 1.09172 0.14425
 C335 C 0.35923 1.10356 0.11974
 C336 C 0.34896 1.13110 0.10925
 C337 C 0.32580 1.14625 0.12301
 C338 C 0.31228 1.13421 0.14743
 C339 C 0.38223 1.08552 0.10496
 C340 C 0.40264 1.09721 0.08684
 C341 C 0.42415 1.07839 0.07086
 C342 C 0.43525 1.08893 0.04489
 C343 C 0.45443 1.07138 0.02840
 C344 C 0.46372 1.04304 0.03790
 C345 C 0.45261 1.03264 0.06405
 C346 C 0.43347 1.05020 0.08052
 H347 H 0.31290 1.09668 0.17658
 H348 H 0.35317 1.07044 0.15265
 H349 H 0.35794 1.14065 0.08998
 H350 H 0.31836 1.16725 0.11425
 H351 H 0.38178 1.06145 0.10915
 H352 H 0.40305 1.12124 0.08249
 H353 H 0.42828 1.11048 0.03685
 H354 H 0.46092 1.07982 0.00783
 H355 H 0.45838 1.01056 0.07164
 H356 H 0.42615 1.04149 0.10076
 C357 C 0.66623 1.15144 -0.13037
 C358 C 0.64107 1.13736 -0.11734
 C359 C 0.63348 1.10604 -0.12221
 C360 C 0.65092 1.08923 -0.14142
 C361 C 0.67605 1.10339 -0.15462
 C362 C 0.68426 1.13457 -0.14890
 C363 C 0.60733 1.09206 -0.10681
 C364 C 0.60460 1.06240 -0.10082
 C365 C 0.58035 1.04972 -0.08233
 C366 C 0.58643 1.02406 -0.06631
 C367 C 0.56510 1.01284 -0.04701
 C368 C 0.53713 1.02698 -0.04352
 C369 C 0.53039 1.05178 -0.06054
 C370 C 0.55168 1.06297 -0.07984
 H371 H 0.67148 1.17559 -0.12586
 H372 H 0.62780 1.15093 -0.10294
 H373 H 0.64521 1.06524 -0.14642
 H374 H 0.68937 1.08973 -0.16884
 H375 H 0.59129 1.10751 -0.09790
 H376 H 0.62225 1.04738 -0.10727
 H377 H 0.60822 1.01328 -0.06799
 H378 H 0.57110 0.99386 -0.03404
 H379 H 0.50867 1.06265 -0.05881
 H380 H 0.54556 1.08198 -0.09268
 C381 C 0.32768 0.87880 -0.16695
 C382 C 0.35463 0.89143 -0.15222
 C383 C 0.36830 0.87655 -0.12903
 C384 C 0.35548 0.84778 -0.12197
 C385 C 0.32857 0.83507 -0.13680
 C386 C 0.31395 0.85078 -0.15901
 C387 C 0.39490 0.89239 -0.11213
 C388 C 0.40079 0.88815 -0.08391
 C389 C 0.42276 0.90850 -0.06550
 C390 C 0.41629 0.91373 -0.03641
 C391 C 0.43436 0.93519 -0.01897
 C392 C 0.45963 0.95151 -0.03014
 C393 C 0.46737 0.94498 -0.05872
 C394 C 0.44902 0.92370 -0.07634
 H395 H 0.31745 0.89125 -0.18433
 H396 H 0.36424 0.91343 -0.15835
 H397 H 0.36596 0.83513 -0.10486
 H398 H 0.31880 0.81335 -0.13022
 H399 H 0.40745 0.91073 -0.12234
 H400 H 0.38624 0.87188 -0.07296
 H401 H 0.39643 0.90207 -0.02745
 H402 H 0.42823 0.93944 0.00317
 H403 H 0.48679 0.95723 -0.06780
 H404 H 0.45518 0.91952 -0.09846
 C405 C 0.69684 0.89528 0.14512
 C406 C 0.67644 0.91302 0.12985
 C407 C 0.66169 0.90197 0.10357
 C408 C 0.66830 0.87288 0.09248
 C409 C 0.68902 0.85520 0.10766
 C410 C 0.70337 0.86616 0.13424
 C411 C 0.64028 0.92190 0.08838
 C412 C 0.61645 0.91142 0.07036
 C413 C 0.59347 0.93137 0.05712
 C414 C 0.57411 0.91964 0.03357
 C415 C 0.55126 0.93716 0.02127
 C416 C 0.54716 0.96679 0.03239
 C417 C 0.56665 0.97864 0.05579
 C418 C 0.58934 0.96115 0.06816
 H419 H 0.70784 0.90471 0.16525
 H420 H 0.67199 0.93545 0.13874
 H421 H 0.65802 0.86391 0.07190
 H422 H 0.69362 0.83289 0.09867
 H423 H 0.64394 0.94610 0.09345
 H424 H 0.61303 0.88714 0.06539
 H425 H 0.57649 0.89670 0.02479
 H426 H 0.53632 0.92715 0.00355
 H427 H 0.56442 1.00154 0.06467
 H428 H 0.60289 0.97103 0.08675
   
