data_POSCAR
  _audit_creation_date              2014-09-24
  _audit_creation_method            'ToBaCCo'
  _symmetry_space_group_name_H-M    'P1'
  _symmetry_Int_Tables_number       1
  _symmetry_cell_setting            triclinic
  loop_
  _symmetry_equiv_pos_as_xyz
 x,y,z
_cell_length_a 54.8627
_cell_length_b 57.3684
_cell_length_c 54.9646
_cell_angle_alpha 89.803200
_cell_angle_beta 86.906900
_cell_angle_gamma 89.288700
loop_
  _atom_site_label
  _atom_site_type_symbol
  _atom_site_fract_x
  _atom_site_fract_y
  _atom_site_fract_z
C1 C 0.20958 0.50886 1.02983
 H2 H 0.20859 0.52184 1.01557
 C3 C 0.19234 0.50911 1.04949
 H4 H 0.17844 0.52259 1.04959
 C5 C 0.22874 0.47522 1.04541
 H6 H 0.24262 0.46175 1.04352
 C7 C 0.21195 0.47477 1.06538
 H8 H 0.21349 0.46093 1.07872
 N9 N 0.22733 0.49215 1.02818
 C10 C 0.28732 0.51728 0.98080
 H11 H 0.28856 0.50271 0.96832
 C12 C 0.30515 0.53429 0.97919
 H13 H 0.31989 0.53275 0.96537
 C14 C 0.26635 0.53567 1.01471
 H15 H 0.25159 0.53538 1.02852
 C16 C 0.28299 0.55384 1.01456
 H17 H 0.28071 0.56740 1.02816
 Zn18 Zn 0.24869 0.49159 0.99999
 N19 N 0.26888 0.51809 0.99826
 C20 C 0.23094 0.50706 0.95506
 N21 N 0.22930 0.49035 0.97264
 C22 C 0.21291 0.47286 0.97173
 C23 C 0.19752 0.47153 0.95241
 C24 C 0.21582 0.50649 0.93542
 C25 C 0.28699 0.46581 1.01786
 C26 C 0.30463 0.44817 1.01862
 C27 C 0.28682 0.42985 0.98437
 C28 C 0.26960 0.44800 0.98418
 N29 N 0.26995 0.46545 1.00083
 H30 H 0.24385 0.52102 0.95632
 H31 H 0.21176 0.45998 0.98615
 H32 H 0.18462 0.45738 0.95213
 H33 H 0.21803 0.51999 0.92180
 H34 H 0.28709 0.48012 1.03062
 H35 H 0.31817 0.44905 1.03222
 H36 H 0.28619 0.41664 0.97048
 H37 H 0.25633 0.44835 0.97037
 C38 C 0.30477 0.55424 0.99653
 C39 C 0.19323 0.49176 1.06777
 C40 C 0.30485 0.42982 1.00173
 C41 C 0.19859 0.48855 0.93392
 C42 C 0.78740 0.50457 -0.02654
 H43 H 0.79016 0.51637 -0.01173
 C44 C 0.80400 0.50430 -0.04674
 H45 H 0.81951 0.51572 -0.04674
 C46 C 0.76433 0.47486 -0.04381
 H47 H 0.74876 0.46350 -0.04276
 C48 C 0.78043 0.47404 -0.06435
 H49 H 0.77719 0.46184 -0.07880
 N50 N 0.76822 0.48972 -0.02521
 C51 C 0.71266 0.51964 0.02546
 H52 H 0.71435 0.50795 0.04078
 C53 C 0.69557 0.53785 0.02685
 H54 H 0.68416 0.54016 0.04339
 C55 C 0.72486 0.53017 -0.01508
 H56 H 0.73598 0.52672 -0.03155
 C57 C 0.70803 0.54872 -0.01444
 H58 H 0.70631 0.55923 -0.03064
 Zn59 Zn 0.74690 0.48903 0.00328
 N60 N 0.72654 0.51589 0.00457
 C61 C 0.76717 0.46930 0.04571
 N62 N 0.76534 0.48874 0.03166
 C63 C 0.77605 0.50894 0.03790
 C64 C 0.78997 0.50996 0.05842
 C65 C 0.78101 0.46947 0.06630
 C66 C 0.70235 0.46470 0.00251
 C67 C 0.68733 0.44532 0.00151
 C68 C 0.72333 0.42063 -0.00047
 C69 C 0.73765 0.44054 0.00054
 N70 N 0.72702 0.46206 0.00232
 H71 H 0.75798 0.45356 0.04108
 H72 H 0.77356 0.52446 0.02707
 H73 H 0.79804 0.52646 0.06246
 H74 H 0.78237 0.45363 0.07698
 H75 H 0.69416 0.48190 0.00314
 H76 H 0.66793 0.44854 0.00136
 H77 H 0.73230 0.40371 -0.00178
 H78 H 0.75734 0.43886 -0.00025
 C79 C 0.69290 0.55254 0.00670
 C80 C 0.80065 0.48878 -0.06600
 C81 C 0.69773 0.42271 0.00022
 C82 C 0.79292 0.48988 0.07291
 C83 C -0.00791 0.29140 0.47344
 H84 H -0.02229 0.29155 0.48771
 C85 C -0.00888 0.30704 0.45398
 H86 H -0.02419 0.31904 0.45419
 C87 C 0.02970 0.27577 0.45746
 H88 H 0.04489 0.26381 0.45909
 C89 C 0.02962 0.29120 0.43774
 H90 H 0.04482 0.29060 0.42430
 N91 N 0.01095 0.27596 0.47466
 C92 C -0.01884 0.22094 0.52168
 H93 H -0.00512 0.22079 0.53511
 C94 C -0.03797 0.20526 0.52393
 H95 H -0.03886 0.19322 0.53916
 C96 C -0.03322 0.23722 0.48518
 H97 H -0.03065 0.24939 0.47027
 C98 C -0.05302 0.22223 0.48554
 H99 H -0.06557 0.22334 0.47104
 Zn100 Zn 0.01074 0.25580 0.50203
 N101 N -0.01700 0.23643 0.50298
 C102 C -0.00941 0.27477 0.54635
 N103 N 0.01024 0.27480 0.53020
 C104 C 0.02904 0.28964 0.53282
 C105 C 0.02866 0.30514 0.55241
 C106 C -0.01060 0.28996 0.56616
 C107 C 0.03956 0.22040 0.48121
 C108 C 0.05768 0.20315 0.47957
 C109 C 0.07282 0.21709 0.51728
 C110 C 0.05438 0.23420 0.51811
 N111 N 0.03818 0.23545 0.50026
 H112 H -0.02455 0.26340 0.54362
 H113 H 0.04420 0.28967 0.51939
 H114 H 0.04381 0.31685 0.55344
 H115 H -0.02661 0.28971 0.57861
 H116 H 0.02615 0.22152 0.46751
 H117 H 0.05809 0.19119 0.46433
 H118 H 0.08491 0.21638 0.53213
 H119 H 0.05257 0.24595 0.53343
 C120 C -0.05706 0.20445 0.50561
 C121 C 0.01006 0.30709 0.43549
 C122 C 0.07451 0.20099 0.49787
 C123 C 0.00850 0.30555 0.56950
 C124 C 0.97296 0.72258 0.52643
 H125 H 0.95883 0.72486 0.51360
 C126 C 0.97132 0.70463 0.54357
 H127 H 0.95571 0.69322 0.54397
 C128 C 1.01092 0.73419 0.54074
 H129 H 1.02664 0.74535 0.53909
 C130 C 1.01006 0.71636 0.55817
 H131 H 1.02533 0.71416 0.56961
 N132 N 0.99250 0.73695 0.52535
 C133 C 0.96770 0.79804 0.48599
 H134 H 0.98191 0.79873 0.47158
 C135 C 0.94949 0.81524 0.48750
 H136 H 0.95020 0.82924 0.47427
 C137 C 0.95080 0.77952 0.52150
 H138 H 0.95167 0.76586 0.53500
 C139 C 0.93221 0.79637 0.52370
 H140 H 0.91874 0.79538 0.53881
 Zn141 Zn 0.99417 0.75893 0.49964
 N142 N 0.96792 0.78054 0.50270
 C143 C 0.97444 0.74509 0.45514
 N144 N 0.99280 0.74174 0.47047
 C145 C 1.00970 0.72448 0.46655
 C146 C 1.00856 0.70962 0.44660
 C147 C 0.97259 0.73068 0.43491
 C148 C 1.02589 0.79051 0.51923
 C149 C 1.04573 0.80548 0.51967
 C150 C 1.05982 0.79091 0.48012
 C151 C 1.03968 0.77623 0.48047
 N152 N 1.02320 0.77633 0.49983
 H153 H 0.96081 0.75853 0.45887
 H154 H 1.02381 0.72192 0.47935
 H155 H 1.02213 0.69589 0.44470
 H156 H 0.95760 0.73352 0.42315
 H157 H 1.01222 0.79055 0.53417
 H158 H 1.04666 0.81677 0.53524
 H159 H 1.07252 0.79073 0.46431
 H160 H 1.03693 0.76523 0.46497
 C161 C 0.93127 0.81442 0.50648
 C162 C 0.99000 0.70125 0.55970
 C163 C 1.06307 0.80602 0.49976
 C164 C 0.98962 0.71245 0.43041
 C165 C 0.46964 -0.02134 0.27954
 H166 H 0.48281 -0.03548 0.28037
 C167 C 0.44950 -0.02049 0.29621
 H168 H 0.44764 -0.03413 0.30975
 C169 C 0.45755 0.01436 0.26178
 H170 H 0.46111 0.02830 0.24889
 C171 C 0.43712 0.01584 0.27799
 H172 H 0.42499 0.03083 0.27712
 N173 N 0.47334 -0.00403 0.26285
 C174 C 0.52479 -0.03219 0.20691
 H175 H 0.53877 -0.01910 0.20754
 C176 C 0.52744 -0.05035 0.19017
 H177 H 0.54373 -0.05097 0.17809
 C178 C 0.48658 -0.04658 0.22182
 H179 H 0.47053 -0.04477 0.23399
 C180 C 0.48834 -0.06504 0.20521
 H181 H 0.47329 -0.07697 0.20531
 Zn182 Zn 0.50286 -0.00464 0.24336
 N183 N 0.50474 -0.03073 0.22243
 C184 C 0.54490 -0.02368 0.26455
 N185 N 0.52862 -0.00561 0.26487
 C186 C 0.52952 0.01179 0.28148
 C187 C 0.54770 0.01183 0.29830
 C188 C 0.56336 -0.02439 0.28105
 C189 C 0.48832 0.02461 0.20611
 C190 C 0.48912 0.04359 0.19016
 C191 C 0.52511 0.05683 0.20920
 C192 C 0.52352 0.03762 0.22484
 N193 N 0.50514 0.02213 0.22321
 H194 H 0.54348 -0.03773 0.25171
 H195 H 0.51596 0.02565 0.28169
 H196 H 0.54743 0.02592 0.31128
 H197 H 0.57612 -0.03898 0.28040
 H198 H 0.47425 0.01168 0.20484
 H199 H 0.47552 0.04454 0.17672
 H200 H 0.53993 0.06895 0.21087
 H201 H 0.53717 0.03500 0.23806
 C202 C 0.50912 -0.06721 0.18893
 C203 C 0.43294 -0.00158 0.29564
 C204 C 0.50769 0.06024 0.19162
 C205 C 0.56516 -0.00644 0.29820
 C206 C 0.52561 -0.02586 0.71416
 H207 H 0.50989 -0.03700 0.71348
 C208 C 0.54496 -0.02824 0.69673
 H209 H 0.54408 -0.04133 0.68267
 C210 C 0.54555 0.00513 0.73297
 H211 H 0.54562 0.01836 0.74687
 C212 C 0.56534 0.00328 0.71602
 H213 H 0.58061 0.01475 0.71781
 N214 N 0.52622 -0.00936 0.73180
 C215 C 0.47619 -0.03162 0.79142
 H216 H 0.46437 -0.01640 0.79291
 C217 C 0.47286 -0.05003 0.80786
 H218 H 0.45832 -0.04890 0.82196
 C219 C 0.50988 -0.05123 0.77155
 H220 H 0.52446 -0.05148 0.75753
 C221 C 0.50726 -0.07003 0.78769
 H222 H 0.51962 -0.08475 0.78534
 Zn223 Zn 0.49858 -0.00585 0.75367
 N224 N 0.49443 -0.03253 0.77370
 C225 C 0.45222 -0.01625 0.73610
 N226 N 0.47112 -0.00112 0.73471
 C227 C 0.47159 0.01692 0.71863
 C228 C 0.45245 0.02042 0.70323
 C229 C 0.43271 -0.01349 0.72099
 C230 C 0.52084 0.01729 0.79065
 C231 C 0.52531 0.03514 0.80689
 C232 C 0.49223 0.05740 0.79059
 C233 C 0.48843 0.03904 0.77460
 N234 N 0.50290 0.01963 0.77470
 H235 H 0.45236 -0.03075 0.74867
 H236 H 0.48705 0.02849 0.71761
 H237 H 0.45335 0.03489 0.69051
 H238 H 0.41807 -0.02585 0.72299
 H239 H 0.53181 0.00148 0.79062
 H240 H 0.53986 0.03282 0.81929
 H241 H 0.48016 0.07236 0.78997
 H242 H 0.47382 0.04030 0.76225
 C243 C 0.48869 -0.06940 0.80638
 C244 C 0.56501 -0.01334 0.69729
 C245 C 0.51109 0.05569 0.80701
 C246 C 0.43270 0.00497 0.70396
 C247 C 0.28875 0.00699 0.48029
 H248 H 0.29319 0.01883 0.49460
 C249 C 0.30460 0.00469 0.45966
 H250 H 0.32099 0.01499 0.45850
 C251 C 0.26325 -0.02234 0.46590
 H252 H 0.24756 -0.03336 0.46855
 C253 C 0.27857 -0.02518 0.44497
 H254 H 0.27422 -0.03815 0.43165
 N255 N 0.26835 -0.00622 0.48295
 C256 C 0.20718 0.02594 0.52046
 H257 H 0.19837 0.00995 0.52616
 C258 C 0.19369 0.04675 0.52108
 H259 H 0.17469 0.04632 0.52740
 C260 C 0.24292 0.04596 0.50699
 H261 H 0.26215 0.04567 0.50175
 C262 C 0.23012 0.06718 0.50740
 H263 H 0.23963 0.08304 0.50228
 Zn264 Zn 0.24872 -0.00315 0.51243
 N265 N 0.23128 0.02579 0.51316
 C266 C 0.26940 0.01245 0.55567
 N267 N 0.26994 -0.00445 0.53837
 C268 C 0.28609 -0.02256 0.53881
 C269 C 0.30249 -0.02429 0.55727
 C270 C 0.28558 0.01151 0.57445
 C271 C 0.20868 -0.02947 0.49874
 C272 C 0.19183 -0.04753 0.49995
 C273 C 0.21045 -0.06190 0.53598
 C274 C 0.22697 -0.04358 0.53401
 N275 N 0.22604 -0.02799 0.51539
 H276 H 0.25633 0.02667 0.55497
 H277 H 0.28619 -0.03570 0.52473
 H278 H 0.31515 -0.03895 0.55720
 H279 H 0.28425 0.02514 0.58797
 H280 H 0.20794 -0.01652 0.48444
 H281 H 0.17830 -0.04773 0.48641
 H282 H 0.21170 -0.07417 0.55091
 H283 H 0.24051 -0.04187 0.54742
 C284 C 0.20510 0.06771 0.51412
 C285 C 0.29946 -0.01149 0.44153
 C286 C 0.19269 -0.06436 0.51868
 C287 C 0.30261 -0.00708 0.57542
 C288 C 0.71500 0.03360 0.51898
 H289 H 0.71409 0.04680 0.50494
 C290 C 0.69873 0.03447 0.53937
 H291 H 0.68537 0.04852 0.54100
 C292 C 0.73322 -0.00102 0.53358
 H293 H 0.74646 -0.01500 0.53111
 C294 C 0.71731 -0.00080 0.55430
 H295 H 0.71915 -0.01438 0.56778
 N296 N 0.73184 0.01608 0.51648
 C297 C 0.78861 0.04315 0.46580
 H298 H 0.78893 0.02980 0.45192
 C299 C 0.80471 0.06178 0.46350
 H300 H 0.81740 0.06273 0.44774
 C301 C 0.77185 0.05794 0.50336
 H302 H 0.75916 0.05629 0.51896
 C303 C 0.78771 0.07682 0.50185
 H304 H 0.78650 0.08976 0.51614
 Zn305 Zn 0.75188 0.01546 0.48738
 N306 N 0.77249 0.04166 0.48540
 C307 C 0.73132 0.03282 0.44436
 N308 N 0.73073 0.01553 0.46133
 C309 C 0.71386 -0.00159 0.46112
 C310 C 0.69690 -0.00205 0.44309
 C311 C 0.71470 0.03310 0.42600
 C312 C 0.78926 -0.01329 0.50325
 C313 C 0.80515 -0.03249 0.50331
 C314 C 0.78596 -0.04731 0.46807
 C315 C 0.77045 -0.02783 0.46874
 N316 N 0.77217 -0.01144 0.48633
 H317 H 0.74440 0.04666 0.44520
 H318 H 0.71346 -0.01483 0.47520
 H319 H 0.68367 -0.01582 0.44399
 H320 H 0.71550 0.04713 0.41274
 H321 H 0.79055 0.00027 0.51673
 H322 H 0.81853 -0.03297 0.51699
 H323 H 0.78418 -0.06015 0.45387
 H324 H 0.75719 -0.02577 0.45504
 C325 C 0.80457 0.07877 0.48178
 C326 C 0.69954 0.01700 0.55723
 C327 C 0.80358 -0.05004 0.48556
 C328 C 0.69714 0.01552 0.42505
 C329 C 0.47942 0.20464 1.01742
 H330 H 0.46799 0.20478 1.00198
 C331 C 0.47658 0.18731 1.03516
 H332 H 0.46283 0.17413 1.03330
 C333 C 0.51140 0.22155 1.03837
 H334 H 0.52510 0.23480 1.03945
 C335 C 0.50916 0.20453 1.05657
 H336 H 0.52087 0.20543 1.07172
 N337 N 0.49646 0.22143 1.01941
 C338 C 0.47091 0.28118 0.97857
 H339 H 0.48688 0.28421 0.96662
 C340 C 0.45069 0.29610 0.97781
 H341 H 0.45117 0.31038 0.96488
 C342 C 0.45091 0.25844 1.00952
 H343 H 0.45116 0.24394 1.02207
 C344 C 0.43021 0.27284 1.00923
 H345 H 0.41459 0.26920 1.02150
 Zn346 Zn 0.49913 0.24383 0.99411
 N347 N 0.47063 0.26271 0.99415
 C348 C 0.48678 0.22998 0.94694
 N349 N 0.50314 0.22726 0.96446
 C350 C 0.52140 0.21108 0.96221
 C351 C 0.52342 0.19639 0.94196
 C352 C 0.48817 0.21579 0.92634
 C353 C 0.52394 0.27804 1.01819
 C354 C 0.54184 0.29454 1.02173
 C355 C 0.56291 0.28187 0.98426
 C356 C 0.54459 0.26549 0.98153
 N357 N 0.52561 0.26392 0.99838
 H358 H 0.47212 0.24265 0.94920
 H359 H 0.53406 0.20918 0.97654
 H360 H 0.53819 0.18377 0.94106
 H361 H 0.47459 0.21803 0.91288
 H362 H 0.50841 0.27670 1.03108
 H363 H 0.53990 0.30571 1.03760
 H364 H 0.57735 0.28280 0.97017
 H365 H 0.54527 0.25443 0.96562
 C366 C 0.43004 0.29206 0.99343
 C367 C 0.49162 0.18699 1.05499
 C368 C 0.56163 0.29689 1.00460
 C369 C 0.50624 0.19825 0.92382
 C370 C 0.48458 0.77871 -0.02965
 H371 H 0.47152 0.78140 -0.01443
 C372 C 0.48503 0.79405 -0.04943
 H373 H 0.47176 0.80813 -0.04932
 C374 C 0.51714 0.75644 -0.04816
 H375 H 0.52964 0.74175 -0.04752
 C376 C 0.51823 0.77135 -0.06832
 H377 H 0.53165 0.76804 -0.08313
 N378 N 0.50050 0.76037 -0.02935
 C379 C 0.46918 0.70476 0.01604
 H380 H 0.48378 0.70163 0.02815
 C381 C 0.44875 0.69046 0.01724
 H382 H 0.44763 0.67656 0.03061
 C383 C 0.45288 0.72689 -0.01589
 H384 H 0.45463 0.74094 -0.02895
 C385 C 0.43195 0.71323 -0.01503
 H386 H 0.41769 0.71692 -0.02743
 Zn387 Zn 0.49967 0.74080 -0.00159
 N388 N 0.47095 0.72253 -0.00041
 C389 C 0.48399 0.75630 0.04578
 N390 N 0.49979 0.76018 0.02636
 C391 C 0.51501 0.77867 0.02516
 C392 C 0.51519 0.79487 0.04392
 C393 C 0.48259 0.77117 0.06579
 C394 C 0.52492 0.69860 -0.01165
 C395 C 0.54467 0.68299 -0.01270
 C396 C 0.56978 0.71329 0.00269
 C397 C 0.54945 0.72825 0.00361
 N398 N 0.52746 0.72062 -0.00319
 H399 H 0.47194 0.74159 0.04576
 H400 H 0.52684 0.78120 0.00902
 H401 H 0.52746 0.80945 0.04200
 H402 H 0.46965 0.76751 0.08084
 H403 H 0.50751 0.69310 -0.01777
 H404 H 0.54171 0.66582 -0.01986
 H405 H 0.58704 0.71974 0.00843
 H406 H 0.55126 0.74591 0.00992
 C407 C 0.42989 0.69457 0.00142
 C408 C 0.50228 0.79062 -0.06902
 C409 C 0.56757 0.69012 -0.00511
 C410 C 0.49816 0.79264 0.06668
 C411 C 1.01802 0.49043 0.22117
 H412 H 1.00379 0.47769 0.21975
 C413 C 1.03767 0.49078 0.20390
 H414 H 1.03812 0.47826 0.18924
 C415 C 1.03337 0.52325 0.24114
 H416 H 1.03132 0.53633 0.25519
 C417 C 1.05331 0.52420 0.22434
 H418 H 1.06659 0.53786 0.22589
 N419 N 1.01622 0.50651 0.23931
 C420 C 0.96647 0.47870 0.29661
 H421 H 0.95340 0.49296 0.29820
 C422 C 0.96427 0.45969 0.31244
 H423 H 0.94934 0.45938 0.32616
 C424 C 1.00212 0.46212 0.27711
 H425 H 1.01701 0.46328 0.26348
 C426 C 1.00062 0.44275 0.29260
 H427 H 1.01415 0.42898 0.29014
 Zn428 Zn 0.98757 0.50699 0.26016
 N429 N 0.98516 0.47958 0.27937
 C430 C 0.94313 0.49358 0.24037
 N431 N 0.96085 0.50990 0.23988
 C432 C 0.96156 0.52791 0.22380
 C433 C 0.94397 0.53068 0.20666
 C434 C 0.92448 0.49448 0.22418
 C435 C 1.00600 0.53133 0.29852
 C436 C 1.00855 0.54954 0.31487
 C437 C 0.97457 0.56944 0.29736
 C438 C 0.97271 0.55077 0.28129
 N439 N 0.98857 0.53240 0.28191
 H440 H 0.94368 0.47928 0.25316
 H441 H 0.97639 0.54014 0.22402
 H442 H 0.94538 0.54516 0.19400
 H443 H 0.91086 0.48098 0.22504
 H444 H 1.01820 0.51638 0.29879
 H445 H 1.02286 0.54834 0.32769
 H446 H 0.96187 0.58382 0.29590
 H447 H 0.95868 0.55108 0.26823
 C448 C 0.98164 0.44154 0.31082
 C449 C 1.05564 0.50793 0.20536
 C450 C 0.99288 0.56909 0.31445
 C451 C 0.92341 0.51367 0.20491
 C452 C -0.02035 0.49020 0.78165
 H453 H -0.00640 0.47686 0.78314
 C454 C -0.04088 0.49032 0.79786
 H455 H -0.04226 0.47699 0.81179
 C456 C -0.03418 0.52467 0.76265
 H457 H -0.03122 0.53842 0.74941
 C458 C -0.05498 0.52543 0.77843
 H459 H -0.06798 0.53966 0.77690
 N460 N -0.01739 0.50720 0.76448
 C461 C 0.03527 0.48043 0.70873
 H462 H 0.04815 0.49457 0.70834
 C463 C 0.03888 0.46177 0.69268
 H464 H 0.05468 0.46164 0.67997
 C465 C -0.00110 0.46367 0.72565
 H466 H -0.01674 0.46457 0.73844
 C467 C 0.00182 0.44461 0.70990
 H468 H -0.01148 0.43087 0.71130
 Zn469 Zn 0.01228 0.50756 0.74518
 N470 N 0.01562 0.48101 0.72487
 C471 C 0.05540 0.49135 0.76662
 N472 N 0.03788 0.50832 0.76689
 C473 C 0.03749 0.52583 0.78348
 C474 C 0.05548 0.52700 0.80043
 C475 C 0.07373 0.49176 0.78330
 C476 C -0.00326 0.53534 0.70705
 C477 C -0.00352 0.55430 0.69107
 C478 C 0.03076 0.57014 0.71101
 C479 C 0.03032 0.55086 0.72661
 N480 N 0.01328 0.53408 0.72455
 H481 H 0.05515 0.47732 0.75359
 H482 H 0.02311 0.53891 0.78354
 H483 H 0.05476 0.54121 0.81341
 H484 H 0.08741 0.47808 0.78211
 H485 H -0.01643 0.52159 0.70565
 H486 H -0.01734 0.55461 0.67784
 H487 H 0.04447 0.58331 0.71311
 H488 H 0.04370 0.54932 0.74024
 C489 C 0.02199 0.44362 0.69296
 C490 C -0.05855 0.50819 0.79637
 C491 C 0.01374 0.57218 0.69286
 C492 C 0.07393 0.50978 0.80070
 C493 C 0.09137 0.18226 0.49638
 C494 C 0.10918 0.17744 0.51309
 C495 C 0.12408 0.15568 0.51209
 C496 C 0.14703 0.15531 0.52222
 C497 C 0.16119 0.13484 0.52210
 C498 C 0.15254 0.11423 0.51194
 C499 C 0.12939 0.11453 0.50227
 C500 C 0.11530 0.13497 0.50232
 C501 C 0.16645 0.09192 0.51198
 C502 C 0.19167 0.09030 0.51426
 H503 H 0.11300 0.18989 0.52704
 H504 H 0.15400 0.17092 0.53028
 H505 H 0.17858 0.13516 0.53046
 H506 H 0.12209 0.09881 0.49473
 H507 H 0.09731 0.13425 0.49524
 H508 H 0.15646 0.07620 0.50869
 H509 H 0.09029 0.17046 0.48115
 H510 H 0.20226 0.10606 0.51460
 C511 C 0.67300 0.57024 0.00785
 C512 C 0.67191 0.58945 -0.00776
 C513 C 0.65040 0.60533 -0.00755
 C514 C 0.65339 0.62867 -0.01473
 C515 C 0.63324 0.64388 -0.01503
 C516 C 0.60966 0.63587 -0.00841
 C517 C 0.60665 0.61239 -0.00184
 C518 C 0.62677 0.59729 -0.00130
 C519 C 0.58772 0.65111 -0.00908
 C520 C 0.58821 0.67522 -0.00513
 H521 H 0.68751 0.59356 -0.01983
 H522 H 0.67136 0.63515 -0.02006
 H523 H 0.63612 0.66168 -0.02094
 H524 H 0.58863 0.60570 0.00295
 H525 H 0.62366 0.57921 0.00349
 H526 H 0.57054 0.64244 -0.01075
 H527 H 0.65865 0.56816 0.02199
 H528 H 0.60540 0.68272 -0.00057
 C529 C 0.91191 -0.16744 0.50953
 C530 C 0.90502 -0.15286 0.49060
 C531 C 0.88684 -0.13366 0.49381
 C532 C 0.87635 -0.12435 0.47311
 C533 C 0.85980 -0.10567 0.47516
 C534 C 0.85333 -0.09587 0.49807
 C535 C 0.86409 -0.10495 0.51873
 C536 C 0.88066 -0.12364 0.51668
 C537 C 0.83650 -0.07556 0.50099
 C538 C 0.81905 -0.06984 0.48418
 H539 H 0.91259 -0.15606 0.47232
 H540 H 0.88114 -0.13146 0.45522
 H541 H 0.85268 -0.09864 0.45866
 H542 H 0.85977 -0.09747 0.53653
 H543 H 0.88895 -0.12970 0.53298
 H544 H 0.83753 -0.06563 0.51754
 H545 H 0.90221 -0.16621 0.52716
 H546 H 0.81689 -0.08173 0.46922
 C547 C 0.32359 0.41291 1.00238
 C548 C 0.32536 0.39279 0.98803
 C549 C 0.34683 0.37697 0.98812
 C550 C 0.34392 0.35313 0.98368
 C551 C 0.36400 0.33786 0.98350
 C552 C 0.38742 0.34628 0.98746
 C553 C 0.39041 0.37022 0.99118
 C554 C 0.37033 0.38543 0.99162
 C555 C 0.40917 0.33080 0.98700
 C556 C 0.40808 0.30725 0.99337
 H557 H 0.31037 0.38758 0.97738
 H558 H 0.32606 0.34630 0.98049
 H559 H 0.36118 0.31960 0.97979
 H560 H 0.40834 0.37717 0.99386
 H561 H 0.37334 0.40384 0.99422
 H562 H 0.42681 0.33867 0.98323
 H563 H 0.33765 0.41552 1.01520
 H564 H 0.39089 0.30006 1.00023
 C565 C 0.92022 0.18518 0.50821
 C566 C 0.90361 0.18189 0.49039
 C567 C 0.88442 0.16403 0.49299
 C568 C 0.86993 0.15959 0.47330
 C569 C 0.85208 0.14238 0.47500
 C570 C 0.84841 0.12924 0.49652
 C571 C 0.86248 0.13410 0.51642
 C572 C 0.88039 0.15121 0.51468
 C573 C 0.82995 0.11066 0.49900
 C574 C 0.82198 0.09825 0.47917
 H575 H 0.90518 0.19209 0.47376
 H576 H 0.87250 0.16939 0.45649
 H577 H 0.84106 0.13965 0.45955
 H578 H 0.85983 0.12439 0.53327
 H579 H 0.89108 0.15432 0.53031
 H580 H 0.82402 0.10537 0.51727
 H581 H 0.93122 0.19532 0.50584
 H582 H 0.83018 0.10164 0.46117
 C583 C 0.32737 0.57365 -0.00454
 C584 C 0.32603 0.59497 0.00734
 C585 C 0.34721 0.61068 0.00685
 C586 C 0.34376 0.63418 0.01331
 C587 C 0.36363 0.64925 0.01322
 C588 C 0.38736 0.64094 0.00696
 C589 C 0.39085 0.61737 0.00093
 C590 C 0.37098 0.60242 0.00062
 C591 C 0.40888 0.65613 0.00738
 C592 C 0.40795 0.67987 0.00190
 H593 H 0.30912 0.60037 0.01692
 H594 H 0.32567 0.64089 0.01840
 H595 H 0.36045 0.66723 0.01854
 H596 H 0.40900 0.61054 -0.00373
 H597 H 0.37432 0.58432 -0.00413
 H598 H 0.42640 0.64795 0.01021
 H599 H 0.31530 0.56458 -0.00296
 H600 H 0.39116 0.68749 -0.00418
 C601 C 0.08280 -0.17844 0.49814
 C602 C 0.08867 -0.16281 0.51642
 C603 C 0.10763 -0.14474 0.51285
 C604 C 0.11772 -0.13504 0.53338
 C605 C 0.13477 -0.11716 0.53087
 C606 C 0.14208 -0.10856 0.50764
 C607 C 0.13175 -0.11806 0.48713
 C608 C 0.11473 -0.13595 0.48964
 C609 C 0.15936 -0.08901 0.50412
 C610 C 0.17650 -0.08322 0.52106
 H611 H 0.07968 -0.16385 0.53435
 H612 H 0.11222 -0.14117 0.55150
 H613 H 0.14160 -0.10976 0.54720
 H614 H 0.13674 -0.11149 0.46906
 H615 H 0.10673 -0.14229 0.47341
 H616 H 0.15908 -0.07988 0.48693
 H617 H 0.09425 -0.17861 0.48146
 H618 H 0.17798 -0.09446 0.53679
 C619 C 0.68378 0.40227 0.99923
 C620 C 0.65821 0.40168 1.00139
 C621 C 0.64385 0.38008 0.99965
 C622 C 0.61959 0.38026 1.00913
 C623 C 0.60498 0.36066 1.00727
 C624 C 0.61438 0.34028 0.99589
 C625 C 0.63853 0.34017 0.98606
 C626 C 0.65317 0.35983 0.98791
 C627 C 0.59908 0.31947 0.99279
 C628 C 0.57853 0.31468 1.00816
 H629 H 0.64784 0.41737 1.00569
 H630 H 0.61179 0.39574 1.01787
 H631 H 0.58619 0.36186 1.01420
 H632 H 0.64606 0.32486 0.97678
 H633 H 0.67148 0.35919 0.97959
 H634 H 0.60476 0.30766 0.97825
 H635 H 0.69362 0.38586 0.99730
 H636 H 0.57523 0.32563 1.02403
 C637 C 0.50992 0.07974 1.17604
 C638 C 0.49285 0.08639 1.15918
 C639 C 0.49646 0.10633 1.14226
 C640 C 0.47590 0.11721 1.13294
 C641 C 0.47850 0.13559 1.11630
 C642 C 0.50186 0.14320 1.10827
 C643 C 0.52243 0.13248 1.11778
 C644 C 0.51982 0.11413 1.13448
 C645 C 0.50546 0.16229 1.09025
 C646 C 0.48807 0.16845 1.07363
 H647 H 0.47553 0.07770 1.15891
 H648 H 0.45771 0.11156 1.13868
 H649 H 0.46216 0.14386 1.11004
 H650 H 0.54062 0.13803 1.11191
 H651 H 0.53614 0.10578 1.14072
 H652 H 0.52310 0.17054 1.08905
 H653 H 0.52567 0.09070 1.17769
 H654 H 0.47160 0.15833 1.07313
 C655 C -0.01159 0.68109 0.57663
 C656 C 0.00325 0.67784 0.59628
 C657 C 0.00215 0.65674 0.61192
 C658 C 0.01042 0.65793 0.63559
 C659 C 0.00982 0.63830 0.65077
 C660 C 0.00123 0.61692 0.64238
 C661 C -0.00698 0.61574 0.61869
 C662 C -0.00636 0.63533 0.60352
 C663 C -0.00013 0.59573 0.65787
 C664 C 0.01468 0.59194 0.67753
 H665 H 0.01538 0.69155 0.60122
 H666 H 0.01709 0.67419 0.64248
 H667 H 0.01565 0.64014 0.66914
 H668 H -0.01365 0.59948 0.61176
 H669 H -0.01216 0.63344 0.58515
 H670 H -0.01241 0.58240 0.65242
 H671 H -0.02564 0.66848 0.57370
 H672 H 0.02831 0.60485 0.68090
 C673 C 0.48521 0.91176 -0.17528
 C674 C 0.50337 0.89558 -0.16971
 C675 C 0.50044 0.87836 -0.14962
 C676 C 0.51567 0.85851 -0.14996
 C677 C 0.51405 0.84225 -0.13093
 C678 C 0.49714 0.84561 -0.11102
 C679 C 0.48219 0.86564 -0.11054
 C680 C 0.48377 0.88185 -0.12956
 C681 C 0.49515 0.82937 -0.08997
 C682 C 0.50401 0.80641 -0.09045
 H683 H 0.52061 0.89544 -0.18020
 H684 H 0.52897 0.85563 -0.16497
 H685 H 0.52650 0.82750 -0.13173
 H686 H 0.46928 0.86886 -0.09526
 H687 H 0.47235 0.89731 -0.12805
 H688 H 0.48615 0.83605 -0.07340
 H689 H 0.46782 0.91140 -0.16505
 H690 H 0.51319 0.79967 -0.10689
 C691 C 1.01058 0.32183 0.41614
 C692 C 0.99181 0.33751 0.41059
 C693 C 0.99397 0.35438 0.39012
 C694 C 0.97262 0.36271 0.37993
 C695 C 0.97377 0.37941 0.36133
 C696 C 0.99639 0.38850 0.35283
 C697 C 1.01776 0.37992 0.36280
 C698 C 1.01661 0.36315 0.38134
 C699 C 0.99846 0.40686 0.33377
 C700 C 0.97922 0.42191 0.32837
 H701 H 0.97429 0.33700 0.42049
 H702 H 0.95495 0.35620 0.38633
 H703 H 0.95691 0.38494 0.35366
 H704 H 1.03542 0.38659 0.35659
 H705 H 1.03342 0.35763 0.38916
 H706 H 1.01637 0.40972 0.32517
 H707 H 1.02649 0.32119 0.40357
 H708 H 0.96201 0.42056 0.33882
 C709 C 0.51220 0.91577 0.17198
 C710 C 0.49588 0.89765 0.16816
 C711 C 0.49979 0.88054 0.14808
 C712 C 0.48832 0.85882 0.15009
 C713 C 0.49123 0.84244 0.13133
 C714 C 0.50565 0.84754 0.11007
 C715 C 0.51697 0.86928 0.10799
 C716 C 0.51395 0.88569 0.12665
 C717 C 0.50890 0.83085 0.08967
 C718 C 0.49586 0.81026 0.08903
 H719 H 0.48011 0.89502 0.18042
 H720 H 0.47712 0.85449 0.16627
 H721 H 0.48220 0.82583 0.13351
 H722 H 0.52792 0.87374 0.09168
 H723 H 0.52233 0.90252 0.12387
 H724 H 0.52124 0.83540 0.07438
 H725 H 0.52882 0.91601 0.16042
 H726 H 0.49781 0.80185 0.07714
 C727 C 0.00611 0.32127 0.58916
 C728 C 0.02384 0.33723 0.59544
 C729 C 0.01949 0.35478 0.61498
 C730 C 0.03954 0.36384 0.62644
 C731 C 0.03624 0.38101 0.64435
 C732 C 0.01273 0.38982 0.65088
 C733 C -0.00733 0.38059 0.63958
 C734 C -0.00404 0.36338 0.62171
 C735 C 0.00838 0.40844 0.66933
 C736 C 0.02634 0.42410 0.67557
 H737 H 0.04191 0.33659 0.58663
 H738 H 0.05785 0.35750 0.62161
 H739 H 0.05214 0.38709 0.65312
 H740 H -0.02563 0.38704 0.64425
 H741 H -0.01990 0.35736 0.61283
 H742 H -0.01011 0.41084 0.67680
 H743 H -0.01070 0.32083 0.60041
 H744 H 0.04413 0.42311 0.66611
 C745 C 0.51615 0.07325 0.82380
 C746 C 0.50442 0.09507 0.82553
 C747 C 0.50952 0.11236 0.84454
 C748 C 0.50393 0.13595 0.84050
 C749 C 0.50771 0.15266 0.85832
 C750 C 0.51691 0.14602 0.88075
 C751 C 0.52280 0.12250 0.88467
 C752 C 0.51894 0.10578 0.86691
 C753 C 0.52034 0.16295 0.90052
 C754 C 0.50576 0.18303 0.90379
 H755 H 0.49172 0.10039 0.81219
 H756 H 0.49667 0.14149 0.82344
 H757 H 0.50361 0.17073 0.85436
 H758 H 0.52984 0.11692 0.90182
 H759 H 0.52278 0.08774 0.87114
 H760 H 0.53297 0.15786 0.91403
 H761 H 0.53059 0.06970 0.83600
 H762 H 0.49193 0.18628 0.89082
 C763 C 0.98635 0.69742 0.41064
 C764 C 1.00199 0.67881 0.40375
 C765 C 0.99657 0.66162 0.38476
 C766 C 1.01583 0.64800 0.37439
 C767 C 1.01145 0.63066 0.35746
 C768 C 0.98755 0.62633 0.35074
 C769 C 0.96832 0.64023 0.36069
 C770 C 0.97270 0.65757 0.37770
 C771 C 0.98217 0.60766 0.33334
 C772 C 0.99653 0.58735 0.33087
 H773 H 1.01926 0.67660 0.41203
 H774 H 1.03439 0.65077 0.37945
 H775 H 1.02686 0.62085 0.34955
 H776 H 0.94976 0.63728 0.35575
 H777 H 0.95722 0.66719 0.38568
 H778 H 0.96570 0.60967 0.32360
 H779 H 0.97055 0.70053 0.40006
 H780 H 1.01146 0.58532 0.34284
 C781 C 1.17680 0.49027 0.08700
 C782 C 1.15743 0.50596 0.09226
 C783 C 1.13901 0.50236 0.11260
 C784 C 1.12632 0.52178 0.12253
 C785 C 1.10839 0.51907 0.14133
 C786 C 1.10274 0.49677 0.15059
 C787 C 1.11504 0.47730 0.14030
 C788 C 1.13301 0.48001 0.12152
 C789 C 1.08342 0.49315 0.17007
 C790 C 1.07606 0.51046 0.18681
 H791 H 1.15584 0.52201 0.08213
 H792 H 1.13024 0.53913 0.11566
 H793 H 1.09868 0.53444 0.14810
 H794 H 1.11068 0.45990 0.14677
 H795 H 1.14167 0.46453 0.11370
 H796 H 1.07559 0.47598 0.17177
 H797 H 1.17882 0.47587 0.09958
 H798 H 1.08608 0.52659 0.18680
 C799 C 0.58501 -0.01561 0.67815
 C800 C 0.60159 0.00217 0.67239
 C801 C 0.62084 0.00076 0.65243
 C802 C 0.63197 0.02147 0.64426
 C803 C 0.64996 0.02118 0.62529
 C804 C 0.65717 0.00008 0.61393
 C805 C 0.64662 -0.02072 0.62260
 C806 C 0.62866 -0.02045 0.64165
 C807 C 0.67582 -0.00099 0.59340
 C808 C 0.68177 0.01813 0.57848
 H809 H 0.59949 0.01865 0.68178
 H810 H 0.62665 0.03801 0.65253
 H811 H 0.65828 0.03751 0.61987
 H812 H 0.65217 -0.03727 0.61448
 H813 H 0.62126 -0.03692 0.64790
 H814 H 0.68378 -0.01788 0.58896
 H815 H 0.58542 -0.03123 0.66718
 H816 H 0.67180 0.03437 0.58132
 C817 C -0.18177 0.48659 0.91263
 C818 C -0.16417 0.50324 0.90617
 C819 C -0.14547 0.50016 0.88588
 C820 C -0.13325 0.51986 0.87654
 C821 C -0.11485 0.51771 0.85805
 C822 C -0.10826 0.49567 0.84843
 C823 C -0.12024 0.47592 0.85799
 C824 C -0.13865 0.47808 0.87649
 C825 C -0.08819 0.49251 0.82951
 C826 C -0.07993 0.51040 0.81394
 H827 H -0.16442 0.51967 0.91576
 H828 H -0.13782 0.53702 0.88372
 H829 H -0.10549 0.53329 0.85188
 H830 H -0.11522 0.45871 0.85123
 H831 H -0.14694 0.46234 0.88372
 H832 H -0.08028 0.47523 0.82739
 H833 H -0.18330 0.47140 0.90123
 H834 H -0.08984 0.52683 0.81419
 C835 C 0.41222 0.00158 0.31389
 C836 C 0.40426 -0.01549 0.33061
 C837 C 0.38545 -0.01102 0.35050
 C838 C 0.37355 -0.03003 0.36177
 C839 C 0.35643 -0.02662 0.38126
 C840 C 0.35083 -0.00401 0.38991
 C841 C 0.36296 0.01496 0.37882
 C842 C 0.38008 0.01156 0.35937
 C843 C 0.33351 0.00044 0.41109
 C844 C 0.31593 -0.01548 0.41962
 H845 H 0.41156 -0.03303 0.32895
 H846 H 0.37766 -0.04763 0.35561
 H847 H 0.34818 -0.04182 0.38978
 H848 H 0.35932 0.03252 0.38538
 H849 H 0.38946 0.02663 0.35186
 H850 H 0.33416 0.01736 0.41963
 H851 H 0.40280 0.01826 0.31399
 H852 H 0.31335 -0.03125 0.40938
 C853 C 0.18244 0.48686 0.91495
 C854 C 0.17980 0.50348 0.89651
 C855 C 0.16211 0.50090 0.87731
 C856 C 0.15253 0.52099 0.86655
 C857 C 0.13552 0.51923 0.84862
 C858 C 0.12786 0.49725 0.84099
 C859 C 0.13812 0.47715 0.85112
 C860 C 0.15503 0.47891 0.86913
 C861 C 0.10981 0.49464 0.82214
 C862 C 0.09163 0.51141 0.81825
 H863 H 0.18942 0.51977 0.89682
 H864 H 0.15806 0.53812 0.87219
 H865 H 0.12874 0.53511 0.84056
 H866 H 0.13289 0.46002 0.84520
 H867 H 0.16274 0.46303 0.87631
 H868 H 0.11012 0.47826 0.81252
 H869 H 0.17050 0.47195 0.91519
 H870 H 0.09055 0.52641 0.83018
 C871 C 0.58391 -0.00786 0.31469
 C872 C 0.58899 0.00934 0.33165
 C873 C 0.60825 0.00655 0.34934
 C874 C 0.61853 0.02655 0.35897
 C875 C 0.63640 0.02466 0.37608
 C876 C 0.64432 0.00261 0.38396
 C877 C 0.63364 -0.01739 0.37474
 C878 C 0.61581 -0.01549 0.35759
 C879 C 0.66268 -0.00015 0.40257
 C880 C 0.68030 0.01667 0.40661
 H881 H 0.57966 0.02602 0.33148
 H882 H 0.61268 0.04374 0.35327
 H883 H 0.64348 0.04050 0.38345
 H884 H 0.63907 -0.03455 0.38087
 H885 H 0.60765 -0.03130 0.35133
 H886 H 0.66267 -0.01649 0.41238
 H887 H 0.59562 -0.02320 0.31375
 H888 H 0.68135 0.03153 0.39440
 C889 C 0.80717 0.48919 0.09352
 C890 C 0.82058 0.50787 0.10202
 C891 C 0.83636 0.50605 0.12307
 C892 C 0.85515 0.52223 0.12495
 C893 C 0.87081 0.52096 0.14414
 C894 C 0.86791 0.50348 0.16204
 C895 C 0.84877 0.48764 0.16052
 C896 C 0.83307 0.48893 0.14133
 C897 C 0.88472 0.50114 0.18211
 C898 C 0.90395 0.51636 0.18458
 H899 H 0.82102 0.52425 0.09231
 H900 H 0.85797 0.53573 0.11129
 H901 H 0.88530 0.53354 0.14478
 H902 H 0.84599 0.47416 0.17421
 H903 H 0.81831 0.47664 0.14112
 H904 H 0.88216 0.48679 0.19484
 H905 H 0.80837 0.47268 0.10299
 H906 H 0.91327 0.51397 0.19541
 C907 C 0.41413 0.00854 0.68754
 C908 C 0.39474 -0.00666 0.68440
 C909 C 0.37631 -0.00267 0.66605
 C910 C 0.36454 -0.02197 0.65662
 C911 C 0.34731 -0.01901 0.63902
 C912 C 0.34139 0.00340 0.63055
 C913 C 0.35247 0.02277 0.64063
 C914 C 0.36983 0.01981 0.65816
 C915 C 0.32336 0.00713 0.61176
 C916 C 0.31953 -0.00940 0.59369
 H917 H 0.39377 -0.02305 0.69408
 H918 H 0.36886 -0.03944 0.66274
 H919 H 0.33844 -0.03430 0.63237
 H920 H 0.34786 0.04025 0.63476
 H921 H 0.37782 0.03516 0.66568
 H922 H 0.31438 0.02398 0.61146
 H923 H 0.41559 0.02364 0.67570
 H924 H 0.33104 -0.02489 0.59325
   
