data_POSCAR
  _audit_creation_date              2014-09-24
  _audit_creation_method            'ToBaCCo'
  _symmetry_space_group_name_H-M    'P1'
  _symmetry_Int_Tables_number       1
  _symmetry_cell_setting            triclinic
  loop_
  _symmetry_equiv_pos_as_xyz
 x,y,z
_cell_length_a 34.4717
_cell_length_b 34.9592
_cell_length_c 34.4054
_cell_angle_alpha 80.133200
_cell_angle_beta 106.734400
_cell_angle_gamma 102.658700
loop_
  _atom_site_label
  _atom_site_type_symbol
  _atom_site_fract_x
  _atom_site_fract_y
  _atom_site_fract_z
C1 C 0.57132 0.60737 -0.01488
 C2 C 0.58140 0.57083 -0.01675
 C3 C 0.55016 0.53697 -0.01655
 C4 C 0.51168 0.53851 -0.01037
 C5 C 0.50493 0.57530 -0.00471
 C6 C 0.53364 0.61028 -0.00835
 C7 C 0.47882 0.50201 -0.00884
 C8 C 0.43724 0.50524 -0.01437
 C9 C 0.40670 0.47175 -0.01100
 C10 C 0.41721 0.43429 -0.00496
 C11 C 0.45728 0.42986 -0.00240
 C12 C 0.48815 0.46358 -0.00252
 H13 H 0.59193 0.63424 -0.02139
 H14 H 0.55626 0.50912 -0.01988
 H15 H 0.47796 0.57672 0.00450
 H16 H 0.42778 0.53364 -0.02223
 H17 H 0.39413 0.40820 -0.00195
 H18 H 0.51910 0.45912 0.00170
 C19 C 0.01759 0.55928 0.44127
 C20 C 0.00819 0.56235 0.47765
 C21 C 0.00395 0.52804 0.50523
 C22 C 0.01192 0.49206 0.49882
 C23 C 0.02071 0.49010 0.46163
 C24 C 0.02162 0.52304 0.43137
 C25 C 0.00998 0.45684 0.53084
 C26 C 0.00360 0.41776 0.52138
 C27 C 0.00201 0.38538 0.55181
 C28 C 0.00323 0.39188 0.59127
 C29 C 0.00946 0.43019 0.60164
 C30 C 0.01473 0.46228 0.57183
 H31 H 0.02466 0.58603 0.42173
 H32 H -0.00745 0.52910 0.53105
 H33 H 0.02547 0.46250 0.45579
 H34 H 0.00034 0.41196 0.49071
 H35 H -0.00115 0.36680 0.61388
 H36 H 0.02306 0.49157 0.58122
 C37 C 0.58853 -0.00997 0.57764
 C38 C 0.55241 -0.00293 0.58422
 C39 C 0.51774 -0.00057 0.55068
 C40 C 0.51821 -0.00717 0.51156
 C41 C 0.55378 -0.01728 0.50692
 C42 C 0.58991 -0.01727 0.53908
 C43 C 0.48220 -0.00304 0.47520
 C44 C 0.48826 0.00758 0.43563
 C45 C 0.45495 0.01024 0.40101
 C46 C 0.41524 0.00512 0.40627
 C47 C 0.40824 -0.00467 0.44530
 C48 C 0.44174 -0.00967 0.47943
 H49 H 0.61619 -0.00770 0.60252
 H50 H 0.49040 0.00630 0.55516
 H51 H 0.55280 -0.02662 0.47826
 H52 H 0.51894 0.01320 0.43134
 H53 H 0.38979 0.00934 0.37978
 H54 H 0.43589 -0.01953 0.50909
 O55 O 0.46669 0.01907 -0.08079
 O56 O 0.45219 0.00360 0.02278
 O57 O 0.45270 0.06281 -0.03415
 O58 O 0.46899 -0.03991 -0.02257
 O59 O 0.53530 -0.02001 0.00402
 O60 O 0.51953 0.08251 -0.01013
 O61 O 0.51851 0.02494 0.04799
 O62 O 0.53375 0.03666 -0.05562
 Cu63 Cu 0.45348 0.00937 -0.03125
 Cu64 Cu 0.53347 0.03301 -0.00102
 C65 C 0.50268 0.02994 -0.08586
 C66 C 0.48258 0.01228 0.05300
 C67 C 0.48337 0.09017 -0.02376
 C68 C 0.50510 -0.04750 -0.00708
 O69 O -0.05253 0.54941 0.98345
 O70 O 0.05732 0.54687 1.00057
 O71 O -0.00644 0.54069 0.93806
 O72 O 0.01080 0.55381 1.04611
 O73 O -0.00085 0.48916 1.06176
 O74 O -0.01881 0.47604 0.95386
 O75 O 0.04457 0.48205 1.01487
 O76 O -0.06555 0.48475 0.99859
 Cu77 Cu 0.00347 0.55415 0.99053
 Cu78 Cu -0.01161 0.47653 1.00904
 C79 C -0.07778 0.51772 0.98842
 C80 C 0.06953 0.51395 1.00959
 C81 C -0.01455 0.50600 0.92776
 C82 C 0.00773 0.52372 1.07236
 O83 O -0.01460 -0.07219 0.47738
 O84 O -0.00095 0.03147 0.49358
 O85 O 0.04573 -0.01281 0.48138
 O86 O -0.05981 -0.02910 0.49280
 O87 O -0.03652 -0.04544 0.55903
 O88 O 0.06893 -0.02750 0.54797
 O89 O 0.02195 0.01584 0.56001
 O90 O 0.00926 -0.08832 0.54357
 Cu91 Cu -0.00968 -0.01903 0.47964
 Cu92 Cu 0.01824 -0.03798 0.55930
 C93 C -0.00480 -0.09799 0.50745
 C94 C 0.01233 0.04141 0.52952
 C95 C 0.07535 -0.01755 0.51281
 C96 C -0.06617 -0.03989 0.52798
 C97 C -0.30425 0.59723 0.99637
 C98 C -0.29524 0.56545 0.98230
 C99 C -0.32816 0.53433 0.96943
 C100 C -0.36883 0.53650 0.96843
 C101 C -0.37787 0.56873 0.98204
 C102 C -0.34427 0.59859 0.99656
 C103 C -0.32026 0.50094 0.95795
 C104 C -0.28023 0.49720 0.96032
 C105 C -0.24644 0.52757 0.97279
 C106 C -0.25447 0.56308 0.98182
 C107 C -0.22166 0.59538 0.98931
 C108 C -0.18197 0.59256 0.98995
 C109 C -0.17307 0.55728 0.98412
 C110 C -0.20495 0.52403 0.97593
 C111 C -0.19362 0.48845 0.97226
 C112 C -0.15252 0.48637 0.97625
 C113 C -0.12149 0.51969 0.98333
 C114 C -0.13217 0.55510 0.98692
 H115 H -0.28069 0.62081 1.00931
 H116 H -0.39307 0.51304 0.95607
 H117 H -0.34787 0.62272 1.01034
 H118 H -0.34523 0.47698 0.94782
 H119 H -0.27682 0.47045 0.95107
 H120 H -0.22588 0.62384 0.99366
 H121 H -0.15781 0.61821 0.99571
 H122 H -0.21561 0.46144 0.96748
 H123 H -0.14501 0.45855 0.97369
 H124 H -0.10830 0.58092 0.99312
 C125 C 0.29029 0.44881 0.96901
 C126 C 0.28226 0.47728 0.98893
 C127 C 0.31579 0.50661 1.00536
 C128 C 0.35607 0.50522 1.00463
 C129 C 0.36377 0.47545 0.98667
 C130 C 0.33024 0.44808 0.96789
 C131 C 0.30903 0.53689 1.02288
 C132 C 0.26962 0.53902 1.02415
 C133 C 0.23534 0.51001 1.00910
 C134 C 0.24212 0.47778 0.99276
 C135 C 0.20889 0.44646 0.98199
 C136 C 0.17005 0.44708 0.98580
 C137 C 0.16236 0.47931 0.99940
 C138 C 0.19462 0.51162 1.01061
 C139 C 0.18443 0.54453 1.02197
 C140 C 0.14404 0.54501 1.02222
 C141 C 0.11271 0.51254 1.01206
 C142 C 0.12223 0.47962 1.00113
 H143 H 0.26629 0.42705 0.95336
 H144 H 0.38156 0.52678 1.01911
 H145 H 0.33485 0.42575 0.95222
 H146 H 0.33451 0.55941 1.03556
 H147 H 0.26721 0.56319 1.03847
 H148 H 0.21220 0.42025 0.97165
 H149 H 0.14557 0.42221 0.97743
 H150 H 0.20662 0.57089 1.02949
 H151 H 0.13725 0.57101 1.03024
 H152 H 0.09789 0.45474 0.99225
 C153 C 0.01087 -0.35494 0.53537
 C154 C -0.00062 -0.32472 0.50365
 C155 C -0.01153 -0.33402 0.46297
 C156 C -0.00936 -0.37132 0.45471
 C157 C 0.00367 -0.40075 0.48637
 C158 C 0.01286 -0.39202 0.52686
 C159 C -0.02434 -0.30598 0.43041
 C160 C -0.02574 -0.26838 0.43707
 C161 C -0.01399 -0.25701 0.47688
 C162 C -0.00133 -0.28567 0.51079
 C163 C 0.01096 -0.27409 0.55055
 C164 C 0.01160 -0.23581 0.55704
 C165 C -0.00020 -0.20747 0.52438
 C166 C -0.01375 -0.21770 0.48385
 C167 C -0.02602 -0.18787 0.45194
 C168 C -0.02364 -0.14955 0.45994
 C169 C -0.00917 -0.13938 0.49990
 C170 C 0.00201 -0.16871 0.53208
 H171 H 0.01902 -0.35092 0.56723
 H172 H -0.01903 -0.37750 0.42320
 H173 H 0.02381 -0.41307 0.55254
 H174 H -0.03305 -0.31304 0.39921
 H175 H -0.03564 -0.24873 0.40999
 H176 H 0.02100 -0.29378 0.57758
 H177 H 0.02181 -0.22823 0.58810
 H178 H -0.03745 -0.19286 0.42032
 H179 H -0.03284 -0.12764 0.43443
 H180 H 0.01302 -0.16129 0.56320
 C181 C -0.02453 0.29231 0.49909
 C182 C -0.00084 0.26670 0.52820
 C183 C 0.02333 0.28122 0.56534
 C184 C 0.02422 0.31978 0.57231
 C185 C 0.00060 0.34472 0.54328
 C186 C -0.02373 0.33060 0.50662
 C187 C 0.04659 0.25727 0.59554
 C188 C 0.04586 0.21866 0.59031
 C189 C 0.02210 0.20243 0.55414
 C190 C -0.00060 0.22723 0.52203
 C191 C -0.02188 0.21186 0.48476
 C192 C -0.02186 0.17344 0.47926
 C193 C -0.00134 0.14846 0.51078
 C194 C 0.02063 0.16234 0.54884
 C195 C 0.03963 0.13518 0.58022
 C196 C 0.03711 0.09626 0.57377
 C197 C 0.01589 0.08299 0.53590
 C198 C -0.00309 0.10940 0.50446
 H199 H -0.04461 0.28353 0.47050
 H200 H 0.04374 0.33055 0.60055
 H201 H -0.04279 0.34896 0.48389
 H202 H 0.06539 0.26841 0.62385
 H203 H 0.06499 0.20248 0.61514
 H204 H -0.03846 0.22903 0.45877
 H205 H -0.03856 0.16302 0.45003
 H206 H 0.05597 0.14268 0.61045
 H207 H 0.05183 0.07642 0.59869
 H208 H -0.02009 0.09933 0.47514
 C209 C 0.57413 -0.01570 -0.30000
 C210 C 0.55044 0.00930 -0.29279
 C211 C 0.52576 0.02926 -0.32718
 C212 C 0.52724 0.02621 -0.36697
 C213 C 0.55138 0.00162 -0.37366
 C214 C 0.57414 -0.01971 -0.33961
 C215 C 0.49941 0.05183 -0.32170
 C216 C 0.49575 0.05374 -0.28289
 C217 C 0.51978 0.03442 -0.24773
 C218 C 0.54944 0.01404 -0.25266
 C219 C 0.57761 -0.00028 -0.21738
 C220 C 0.57549 0.00329 -0.17850
 C221 C 0.54438 0.01991 -0.17319
 C222 C 0.51561 0.03517 -0.20769
 C223 C 0.48291 0.04914 -0.20068
 C224 C 0.47913 0.04783 -0.16110
 C225 C 0.50830 0.03368 -0.12728
 C226 C 0.54126 0.02039 -0.13346
 H227 H 0.59168 -0.03384 -0.27570
 H228 H 0.50947 0.04313 -0.39263
 H229 H 0.59167 -0.04033 -0.34344
 H230 H 0.48063 0.06746 -0.34779
 H231 H 0.47465 0.07168 -0.28124
 H232 H 0.60257 -0.01344 -0.21890
 H233 H 0.59784 -0.00804 -0.15228
 H234 H 0.45878 0.05963 -0.22521
 H235 H 0.45313 0.05778 -0.15689
 H236 H 0.56337 0.00855 -0.10732
 C237 C 0.50320 0.04512 0.31183
 C238 C 0.47653 0.02222 0.28113
 C239 C 0.44108 -0.00274 0.29019
 C240 C 0.43399 -0.00576 0.32886
 C241 C 0.46139 0.01613 0.35931
 C242 C 0.49569 0.04198 0.35017
 C243 C 0.41304 -0.02507 0.26087
 C244 C 0.41907 -0.02318 0.22240
 C245 C 0.45399 0.00085 0.21175
 C246 C 0.48371 0.02322 0.24192
 C247 C 0.51996 0.04513 0.23217
 C248 C 0.52674 0.04577 0.19417
 C249 C 0.49752 0.02522 0.16404
 C250 C 0.46049 0.00280 0.17211
 C251 C 0.43129 -0.01635 0.13988
 C252 C 0.43883 -0.01348 0.10167
 C253 C 0.47570 0.00824 0.09413
 C254 C 0.50505 0.02734 0.12561
 H255 H 0.53000 0.06597 0.30723
 H256 H 0.40750 -0.02616 0.33561
 H257 H 0.51689 0.05997 0.37277
 H258 H 0.38597 -0.04431 0.26772
 H259 H 0.39600 -0.04176 0.20194
 H260 H 0.54430 0.06166 0.25360
 H261 H 0.55516 0.06287 0.18822
 H262 H 0.40190 -0.03317 0.14273
 H263 H 0.41548 -0.02835 0.07782
 H264 H 0.53348 0.04471 0.11992
 C265 C 0.47571 -0.30792 -0.01779
 C266 C 0.50769 -0.27574 -0.00583
 C267 C 0.54850 -0.28320 0.00747
 C268 C 0.55668 -0.32078 0.00735
 C269 C 0.52484 -0.35233 -0.00601
 C270 C 0.48414 -0.34525 -0.01776
 C271 C 0.58128 -0.25306 0.02068
 C272 C 0.57476 -0.21524 0.02026
 C273 C 0.53490 -0.20576 0.00627
 C274 C 0.50073 -0.23654 -0.00687
 C275 C 0.46090 -0.22692 -0.02118
 C276 C 0.45461 -0.18865 -0.02317
 C277 C 0.48754 -0.15831 -0.01085
 C278 C 0.52813 -0.16639 0.00446
 C279 C 0.56031 -0.13449 0.01695
 C280 C 0.55250 -0.09641 0.01352
 C281 C 0.51247 -0.08848 -0.00232
 C282 C 0.48003 -0.11975 -0.01414
 H283 H 0.44370 -0.30530 -0.02785
 H284 H 0.58824 -0.32541 0.01892
 H285 H 0.45836 -0.36797 -0.02914
 H286 H 0.61256 -0.25867 0.03120
 H287 H 0.60203 -0.19396 0.03075
 H288 H 0.43369 -0.24828 -0.03168
 H289 H 0.42349 -0.18271 -0.03477
 H290 H 0.59201 -0.13767 0.02939
 H291 H 0.57822 -0.07294 0.02312
 H292 H 0.44885 -0.11408 -0.02629
 C293 C 0.51039 0.34073 0.02277
 C294 C 0.48203 0.31353 -0.00271
 C295 C 0.44504 0.32550 -0.02730
 C296 C 0.43759 0.36326 -0.02696
 C297 C 0.46599 0.38988 -0.00174
 C298 C 0.50239 0.37820 0.02313
 C299 C 0.41550 0.29984 -0.05228
 C300 C 0.42126 0.26198 -0.05295
 C301 C 0.45732 0.24827 -0.02891
 C302 C 0.48880 0.27488 -0.00437
 C303 C 0.52611 0.26212 0.01725
 C304 C 0.53217 0.22445 0.01587
 C305 C 0.50117 0.19767 -0.00644
 C306 C 0.46313 0.20894 -0.02890
 C307 C 0.43224 0.18001 -0.04980
 C308 C 0.43907 0.14184 -0.04844
 C309 C 0.47688 0.13112 -0.02659
 C310 C 0.50792 0.15937 -0.00591
 H311 H 0.53874 0.33385 0.04331
 H312 H 0.40956 0.37214 -0.04687
 H313 H 0.52460 0.39789 0.04340
 H314 H 0.38732 0.30904 -0.07139
 H315 H 0.39694 0.24435 -0.07335
 H316 H 0.55172 0.28083 0.03517
 H317 H 0.56139 0.21605 0.03293
 H318 H 0.40205 0.18548 -0.06672
 H319 H 0.41446 0.12053 -0.06448
 H320 H 0.53716 0.15125 0.01159
 C321 C -0.32868 -0.01750 0.48692
 C322 C -0.29752 -0.03209 0.51901
 C323 C -0.30523 -0.04266 0.55808
 C324 C -0.34254 -0.03859 0.56438
 C325 C -0.37317 -0.02340 0.53237
 C326 C -0.36549 -0.01331 0.49350
 C327 C -0.27549 -0.05692 0.59096
 C328 C -0.23746 -0.05949 0.58645
 C329 C -0.22766 -0.04815 0.54850
 C330 C -0.25872 -0.03557 0.51389
 C331 C -0.24984 -0.02665 0.47539
 C332 C -0.21138 -0.02786 0.47111
 C333 C -0.18010 -0.03787 0.50486
 C334 C -0.18773 -0.04859 0.54402
 C335 C -0.15460 -0.05824 0.57720
 C336 C -0.11564 -0.05631 0.57168
 C337 C -0.10824 -0.04490 0.53304
 C338 C -0.14089 -0.03641 0.49964
 H339 H -0.32531 -0.00783 0.45645
 H340 H -0.34776 -0.04835 0.59436
 H341 H -0.38691 0.00005 0.46800
 H342 H -0.28139 -0.06558 0.62083
 H343 H -0.21638 -0.07063 0.61355
 H344 H -0.27204 -0.01859 0.44764
 H345 H -0.20588 -0.02021 0.44101
 H346 H -0.15729 -0.06646 0.60805
 H347 H -0.09100 -0.06311 0.59808
 H348 H -0.13558 -0.02758 0.46954
 C349 C 0.29182 -0.02833 0.42413
 C350 C 0.28465 -0.01362 0.45680
 C351 C 0.31942 0.00154 0.48736
 C352 C 0.35943 0.00415 0.48360
 C353 C 0.36594 -0.00926 0.45023
 C354 C 0.33173 -0.02621 0.42108
 C355 C 0.31414 0.01429 0.52142
 C356 C 0.27503 0.01170 0.52634
 C357 C 0.23938 -0.00273 0.49658
 C358 C 0.24428 -0.01392 0.46040
 C359 C 0.20875 -0.02400 0.42858
 C360 C 0.16968 -0.02443 0.43243
 C361 C 0.16428 -0.01595 0.46845
 C362 C 0.19894 -0.00563 0.50137
 C363 C 0.19154 0.00051 0.53806
 C364 C 0.15150 -0.00308 0.54149
 C365 C 0.11758 -0.01227 0.50846
 C366 C 0.12420 -0.01833 0.47189
 H367 H 0.26731 -0.04242 0.40086
 H368 H 0.38554 0.01739 0.50640
 H369 H 0.33576 -0.03817 0.39576
 H370 H 0.34060 0.02610 0.54480
 H371 H 0.27376 0.02249 0.55337
 H372 H 0.21016 -0.03062 0.39963
 H373 H 0.14332 -0.03209 0.40706
 H374 H 0.21591 0.00690 0.56510
 H375 H 0.14708 0.00134 0.57022
 H376 H 0.09800 -0.02625 0.44645
 C377 C 0.04353 0.48607 1.34452
 C378 C 0.02857 0.51309 1.31076
 C379 C 0.01365 0.54479 1.31863
 C380 C 0.01138 0.54757 1.35804
 C381 C 0.02549 0.52016 1.39171
 C382 C 0.04215 0.48964 1.38399
 C383 C 0.00037 0.57354 1.28700
 C384 C 0.00196 0.57187 1.24756
 C385 C 0.01578 0.54051 1.23779
 C386 C 0.02788 0.50985 1.26958
 C387 C 0.03735 0.47639 1.25887
 C388 C 0.03499 0.47294 1.21855
 C389 C 0.02460 0.50320 1.18750
 C390 C 0.01628 0.53802 1.19689
 C391 C 0.00882 0.56900 1.16482
 C392 C 0.00725 0.56451 1.12487
 C393 C 0.01286 0.52909 1.11536
 C394 C 0.02210 0.49869 1.14696
 H395 H 0.05748 0.46231 1.34165
 H396 H -0.00346 0.57059 1.36146
 H397 H 0.05560 0.46875 1.40837
 H398 H -0.01126 0.59784 1.29282
 H399 H -0.00952 0.59497 1.22498
 H400 H 0.04516 0.45152 1.28084
 H401 H 0.04153 0.44628 1.21163
 H402 H 0.00460 0.59730 1.16962
 H403 H 0.00066 0.58868 1.10112
 H404 H 0.02739 0.47147 1.13999
 C405 C 0.02426 0.41612 0.71657
 C406 C 0.00533 0.44595 0.72254
 C407 C -0.00957 0.47240 0.68805
 C408 C -0.00797 0.46722 0.64900
 C409 C 0.00962 0.43663 0.64338
 C410 C 0.02638 0.41171 0.67773
 C411 C -0.02624 0.50377 0.69262
 C412 C -0.02787 0.51000 0.73087
 C413 C -0.01402 0.48418 0.76612
 C414 C 0.00117 0.45068 0.76154
 C415 C 0.01064 0.42245 0.79581
 C416 C 0.00681 0.42736 0.83360
 C417 C -0.00554 0.46099 0.83911
 C418 C -0.01554 0.49027 0.80572
 C419 C -0.02571 0.52481 0.81370
 C420 C -0.02598 0.52971 0.85311
 C421 C -0.01696 0.50017 0.88558
 C422 C -0.00719 0.46572 0.87821
 H423 H 0.03855 0.39621 0.74139
 H424 H -0.02121 0.48673 0.62279
 H425 H 0.04151 0.38872 0.67470
 H426 H -0.03782 0.52403 0.66633
 H427 H -0.04143 0.53476 0.73163
 H428 H 0.02003 0.39547 0.79418
 H429 H 0.01421 0.40476 0.85899
 H430 H -0.03224 0.54917 0.79050
 H431 H -0.03309 0.55683 0.85822
 H432 H 0.00079 0.44308 0.90342
   
