data_POSCAR
  _audit_creation_date              2014-09-24
  _audit_creation_method            'ToBaCCo'
  _symmetry_space_group_name_H-M    'P1'
  _symmetry_Int_Tables_number       1
  _symmetry_cell_setting            triclinic
  loop_
  _symmetry_equiv_pos_as_xyz
 x,y,z
_cell_length_a 18.4572
_cell_length_b 31.1275
_cell_length_c 29.8205
_cell_angle_alpha 90.129300
_cell_angle_beta 91.093500
_cell_angle_gamma 91.499300
loop_
  _atom_site_label
  _atom_site_type_symbol
  _atom_site_fract_x
  _atom_site_fract_y
  _atom_site_fract_z
O1 O 0.30811 0.29581 0.20585
 O2 O 0.31548 0.20970 0.29028
 O3 O 0.31512 0.21205 0.20291
 O4 O 0.30845 0.29314 0.29234
 O5 O 0.18893 0.28653 0.29268
 O6 O 0.19539 0.20875 0.20005
 O7 O 0.19599 0.20301 0.28701
 O8 O 0.18837 0.29134 0.20544
 Cu9 Cu 0.32391 0.25311 0.24797
 Cu10 Cu 0.18007 0.24684 0.24629
 C11 C 0.24699 0.30849 0.19170
 C12 C 0.25689 0.19141 0.30260
 C13 C 0.25621 0.19690 0.18594
 C14 C 0.24773 0.30358 0.30771
 O15 O 0.80637 0.30215 0.22033
 O16 O 0.79846 0.22489 0.31365
 O17 O 0.85665 0.22519 0.23545
 O18 O 0.74762 0.30051 0.29994
 O19 O 0.64808 0.26932 0.27146
 O20 O 0.75715 0.19645 0.20429
 O21 O 0.69997 0.19415 0.28325
 O22 O 0.70543 0.27301 0.19153
 Cu23 Cu 0.81244 0.26642 0.26995
 Cu24 Cu 0.69263 0.23053 0.23433
 C25 C 0.75704 0.30070 0.19008
 C26 C 0.74780 0.19649 0.31443
 C27 C 0.82559 0.19772 0.20947
 C28 C 0.67899 0.29653 0.29778
 O29 O 0.69350 0.78962 0.79758
 O30 O 0.68565 0.70842 0.70697
 O31 O 0.69294 0.70633 0.79468
 O32 O 0.68557 0.79236 0.71024
 O33 O 0.80495 0.79252 0.70622
 O34 O 0.81250 0.70823 0.79261
 O35 O 0.80530 0.70884 0.70593
 O36 O 0.81290 0.79259 0.79373
 Cu37 Cu 0.67758 0.74901 0.75253
 Cu38 Cu 0.82073 0.75088 0.74942
 C39 C 0.75455 0.80505 0.81087
 C40 C 0.74424 0.69442 0.69149
 C41 C 0.75383 0.69268 0.80812
 C42 C 0.74410 0.80684 0.69366
 O43 O 0.31087 0.79097 0.70602
 O44 O 0.30617 0.71154 0.79736
 O45 O 0.31018 0.70782 0.71044
 O46 O 0.30696 0.79566 0.79291
 O47 O 0.18725 0.79226 0.79161
 O48 O 0.19056 0.70772 0.70557
 O49 O 0.18648 0.70918 0.79325
 O50 O 0.19114 0.79127 0.70463
 Cu51 Cu 0.32048 0.75161 0.75221
 Cu52 Cu 0.17695 0.74981 0.74841
 C53 C 0.25170 0.80490 0.69010
 C54 C 0.24557 0.69665 0.81058
 C55 C 0.25088 0.69341 0.69340
 C56 C 0.24658 0.80886 0.80637
 C57 C 0.97619 0.00028 0.00244
 C58 C 1.04913 0.00300 -0.00533
 C59 C 1.09740 0.03426 0.01968
 C60 C 1.08599 -0.02607 -0.03686
 C61 C 0.92517 -0.02654 -0.02605
 C62 C 0.94583 0.02394 0.04106
 C63 C 1.08086 0.07802 0.02181
 C64 C 1.12339 0.10627 0.04821
 C65 C 1.18483 0.09162 0.07134
 C66 C 1.20399 0.04857 0.06706
 C67 C 1.16022 0.01998 0.04178
 C68 C 1.14005 -0.00911 -0.06486
 C69 C 1.18060 -0.03621 -0.09127
 C70 C 1.16659 -0.08060 -0.09109
 C71 C 1.11178 -0.09773 -0.06394
 C72 C 1.07281 -0.07078 -0.03628
 C73 C 0.87183 -0.05273 -0.00596
 C74 C 0.82754 -0.08053 -0.03204
 C75 C 0.83649 -0.08316 -0.07859
 C76 C 0.88771 -0.05584 -0.09898
 C77 C 0.93052 -0.02714 -0.07308
 C78 C 0.97552 0.01863 0.08437
 C79 C 0.96013 0.04750 0.11853
 C80 C 0.91271 0.08126 0.11057
 C81 C 0.87745 0.08407 0.06850
 C82 C 0.89408 0.05561 0.03388
 H83 H 1.03409 0.09005 0.00386
 H84 H 1.10850 0.13960 0.05062
 H85 H 1.25126 0.03682 0.08472
 H86 H 1.17443 -0.01352 0.04028
 H87 H 1.15177 0.02515 -0.06563
 H88 H 1.22269 -0.02259 -0.11213
 H89 H 1.03336 -0.08490 -0.01390
 H90 H 0.86586 -0.05264 0.03010
 H91 H 0.78793 -0.10112 -0.01574
 H92 H 0.89427 -0.05660 -0.13496
 H93 H 0.96915 -0.00615 -0.08972
 H94 H 1.01457 -0.00610 0.09083
 H95 H 0.98716 0.04441 0.15085
 H96 H 0.84072 0.10987 0.06156
 H97 H 0.87031 0.06009 0.00079
 H98 H 1.10107 -0.13208 -0.06303
 C99 C 0.45133 0.50355 0.49809
 C100 C 0.52507 0.49929 0.49876
 C101 C 0.57505 0.52943 0.52417
 C102 C 0.55772 0.46304 0.47410
 C103 C 0.40327 0.47556 0.46914
 C104 C 0.41345 0.53438 0.52710
 C105 C 0.56544 0.57416 0.52341
 C106 C 0.60799 0.60147 0.55107
 C107 C 0.66316 0.58482 0.57841
 C108 C 0.67610 0.54064 0.57695
 C109 C 0.63209 0.51314 0.55039
 C110 C 0.60535 0.47124 0.43876
 C111 C 0.62276 0.43816 0.40913
 C112 C 0.59211 0.39673 0.41439
 C113 C 0.54929 0.38796 0.45177
 C114 C 0.53355 0.42058 0.48194
 C115 C 0.34609 0.45176 0.48830
 C116 C 0.30324 0.42351 0.46204
 C117 C 0.31758 0.41818 0.41640
 C118 C 0.37303 0.44310 0.39686
 C119 C 0.41471 0.47213 0.42286
 C120 C 0.42803 0.53700 0.57348
 C121 C 0.38828 0.56425 0.60042
 C122 C 0.33171 0.58804 0.58165
 C123 C 0.31652 0.58497 0.53555
 C124 C 0.35742 0.55873 0.50846
 H125 H 0.52389 0.58791 0.50217
 H126 H 0.59828 0.63561 0.55094
 H127 H 0.71877 0.52727 0.59759
 H128 H 0.64136 0.47894 0.55130
 H129 H 0.62494 0.50370 0.43232
 H130 H 0.65593 0.44553 0.38046
 H131 H 0.49791 0.41341 0.50953
 H132 H 0.33586 0.45427 0.52384
 H133 H 0.26056 0.40466 0.47763
 H134 H 0.38399 0.44012 0.36148
 H135 H 0.45705 0.49117 0.40715
 H136 H 0.46931 0.51752 0.58892
 H137 H 0.40009 0.56575 0.63610
 H138 H 0.27322 0.60318 0.52051
 H139 H 0.34470 0.55696 0.47288
 H140 H 0.52590 0.35609 0.45664
 C141 C 0.03421 0.50342 0.00301
 C142 C -0.03997 0.50189 0.00111
 C143 C -0.08312 0.47121 0.02888
 C144 C -0.08282 0.53022 -0.02910
 C145 C 0.07828 0.53386 -0.02456
 C146 C 0.07661 0.47410 0.03232
 C147 C -0.13488 0.44379 0.00779
 C148 C -0.17522 0.41418 0.03274
 C149 C -0.16442 0.41108 0.07934
 C150 C -0.11371 0.43918 0.10071
 C151 C -0.07400 0.46935 0.07574
 C152 C -0.06798 0.53420 -0.07504
 C153 C -0.10808 0.56190 -0.10216
 C154 C -0.16572 0.58451 -0.08427
 C155 C -0.18260 0.57909 -0.03899
 C156 C -0.14114 0.55257 -0.01157
 C157 C 0.06538 0.57820 -0.02543
 C158 C 0.10711 0.60565 -0.05236
 C159 C 0.16429 0.58947 -0.07720
 C160 C 0.17902 0.54562 -0.07489
 C161 C 0.13601 0.51802 -0.04923
 C162 C 0.13227 0.49144 0.06019
 C163 C 0.17501 0.46468 0.08653
 C164 C 0.16205 0.42013 0.08620
 C165 C 0.10658 0.40256 0.05839
 C166 C 0.06513 0.42925 0.03096
 H167 H -0.14329 0.44491 -0.02824
 H168 H -0.21403 0.39303 0.01545
 H169 H -0.10526 0.43818 0.13669
 H170 H -0.03574 0.49097 0.09288
 H171 H -0.02514 0.51613 -0.08984
 H172 H -0.09522 0.56504 -0.13729
 H173 H -0.15431 0.54968 0.02356
 H174 H 0.02281 0.59148 -0.00559
 H175 H 0.09573 0.63958 -0.05322
 H176 H 0.22291 0.53263 -0.09383
 H177 H 0.14755 0.48408 -0.04881
 H178 H 0.14276 0.52583 0.06144
 H179 H 0.21761 0.47877 0.10774
 H180 H 0.09663 0.36815 0.05711
 H181 H 0.02440 0.41491 0.00858
 H182 H -0.22709 0.59614 -0.02471
 C183 C 0.53630 0.99885 0.49909
 C184 C 0.46218 0.99754 0.49665
 C185 C 0.41758 0.96723 0.52405
 C186 C 0.42068 1.02673 0.46665
 C187 C 0.58034 1.02948 0.47195
 C188 C 0.57857 0.97007 0.52901
 C189 C 0.43038 0.92288 0.52519
 C190 C 0.38881 0.89563 0.55239
 C191 C 0.33186 0.91199 0.57731
 C192 C 0.31702 0.95582 0.57457
 C193 C 0.35985 0.98324 0.54857
 C194 C 0.36602 1.00922 0.43816
 C195 C 0.32488 1.03575 0.41057
 C196 C 0.33840 1.08026 0.41026
 C197 C 0.39274 1.09803 0.43880
 C198 C 0.43260 1.07157 0.46743
 C199 C 0.63137 1.05685 0.49377
 C200 C 0.67341 1.08599 0.46933
 C201 C 0.66511 1.08859 0.42254
 C202 C 0.61503 1.06054 0.40049
 C203 C 0.57351 1.03091 0.42498
 C204 C 0.56464 0.96642 0.57508
 C205 C 0.60524 0.93882 0.60206
 C206 C 0.66214 0.91578 0.58376
 C207 C 0.67760 0.92064 0.53820
 C208 C 0.63590 0.94720 0.51104
 H209 H 0.47288 0.90945 0.50540
 H210 H 0.40023 0.86171 0.55348
 H211 H 0.27325 0.96898 0.59349
 H212 H 0.34834 1.01718 0.54791
 H213 H 0.35523 0.97485 0.43727
 H214 H 0.28311 1.02148 0.38887
 H215 H 0.47257 1.08608 0.49020
 H216 H 0.63800 1.05597 0.52992
 H217 H 0.71162 1.10713 0.48713
 H218 H 0.60845 1.06118 0.36438
 H219 H 0.53584 1.00927 0.40738
 H220 H 0.52235 0.98478 0.59009
 H221 H 0.59329 0.93612 0.63735
 H222 H 0.72129 0.90322 0.52349
 H223 H 0.64822 0.94981 0.47576
 H224 H 0.40305 1.13241 0.43967
 N225 N 1.29738 0.11982 0.10602
 N226 N 1.31862 0.14837 0.13696
 C227 C 1.25803 0.16664 0.15178
 C228 C 1.19916 0.14886 0.12879
 N229 N 1.22600 0.11992 0.10055
 H230 H 1.14232 0.15535 0.13303
 N231 N 0.77578 0.60782 0.61658
 N232 N 0.79940 0.63683 0.64638
 C233 C 0.74201 0.66047 0.65714
 C234 C 0.68238 0.64523 0.63276
 N235 N 0.70582 0.61244 0.60781
 H236 H 0.62716 0.65600 0.63402
 N237 N -0.26601 0.36045 0.08943
 N238 N -0.28877 0.33083 0.11810
 C239 C -0.24014 0.33087 0.15237
 C240 C -0.18685 0.36156 0.14394
 N241 N -0.20496 0.37935 0.10425
 H242 H -0.13841 0.36887 0.16383
 N243 N 0.21898 0.88906 0.61234
 N244 N 0.19546 0.86074 0.64218
 C245 C 0.25313 0.83772 0.65494
 C246 C 0.31271 0.85251 0.63179
 N247 N 0.28906 0.88451 0.60553
 H248 H 0.36813 0.84217 0.63493
 N249 N -0.27913 0.61605 -0.10910
 N250 N -0.30274 0.64497 -0.13807
 C251 C -0.24409 0.66051 -0.15963
 C252 C -0.18372 0.63991 -0.14330
 N253 N -0.20803 0.61242 -0.11189
 H254 H -0.12773 0.64490 -0.15266
 N255 N 0.22672 1.09940 0.37103
 N256 N 0.20282 1.12871 0.34262
 C257 C 0.25927 1.15578 0.33464
 C258 C 0.31855 1.14237 0.35922
 N259 N 0.29590 1.10710 0.38151
 H260 H 0.37307 1.15608 0.35983
 N261 N 1.28042 -0.10432 -0.12170
 N262 N 1.30412 -0.13434 -0.14895
 C263 C 1.24532 -0.15772 -0.16286
 C264 C 1.18493 -0.14146 -0.14309
 N265 N 1.20922 -0.10823 -0.11772
 H266 H 1.12886 -0.15209 -0.14731
 N267 N 0.54314 0.33902 0.36688
 N268 N 0.56370 0.31264 0.33493
 C269 C 0.63416 0.32199 0.32749
 C270 C 0.65633 0.35517 0.35594
 N271 N 0.59782 0.36472 0.38000
 H272 H 0.70990 0.36986 0.35980
 N273 N 0.72595 -0.12511 -0.09654
 N274 N 0.70206 -0.15471 -0.12565
 C275 C 0.75741 -0.16261 -0.15311
 C276 C 0.81594 -0.13671 -0.14014
 N277 N 0.79402 -0.11372 -0.10480
 H278 H 0.86950 -0.13538 -0.15433
 N279 N 0.20879 0.37504 0.39694
 N280 N 0.18791 0.34430 0.36828
 C281 C 0.24591 0.33607 0.34313
 C282 C 0.30266 0.36271 0.35688
 N283 N 0.27734 0.38664 0.39037
 H284 H 0.35735 0.36399 0.34433
 N285 N 0.27796 0.61327 -0.11070
 N286 N 0.30181 0.64166 -0.14037
 C287 C 0.24392 0.66402 -0.15410
 C288 C 0.18388 0.64877 -0.13172
 N289 N 0.20746 0.61719 -0.10493
 H290 H 0.12825 0.65855 -0.13570
 N291 N 0.76699 1.13937 0.41405
 N292 N 0.79089 1.16887 0.38560
 C293 C 0.74409 1.16822 0.35035
 C294 C 0.69096 1.13720 0.35787
 N295 N 0.70710 1.11996 0.39810
 H296 H 0.64364 1.12947 0.33711
 N297 N 0.27568 0.40028 0.12277
 N298 N 0.30059 0.37074 0.15058
 C299 C 0.24412 0.34403 0.15966
 C300 C 0.18387 0.35788 0.13642
 N301 N 0.20588 0.39302 0.11378
 H302 H 0.12909 0.34459 0.13701
 N303 N 0.77446 0.88079 0.60474
 N304 N 0.79845 0.85200 0.63371
 C305 C 0.74168 0.84017 0.65906
 C306 C 0.68214 0.86277 0.64500
 N307 N 0.70492 0.88781 0.61107
 H308 H 0.62735 0.86028 0.65725
 N309 N 0.95978 0.12692 0.17137
 N310 N 0.93923 0.15859 0.19756
 C311 C 0.86978 0.16637 0.18627
 C312 C 0.84824 0.13845 0.15215
 N313 N 0.90608 0.11432 0.14389
 H314 H 0.79568 0.13558 0.13552
 N315 N 0.21890 0.62147 0.60205
 N316 N 0.19498 0.64918 0.63175
 C317 C 0.25217 0.66049 0.65840
 C318 C 0.31180 0.63882 0.64438
 N319 N 0.28876 0.61481 0.60917
 H320 H 0.36692 0.64146 0.65738
   
