data_POSCAR
  _audit_creation_date              2014-09-24
  _audit_creation_method            'ToBaCCo'
  _symmetry_space_group_name_H-M    'P1'
  _symmetry_Int_Tables_number       1
  _symmetry_cell_setting            triclinic
  loop_
  _symmetry_equiv_pos_as_xyz
 x,y,z
_cell_length_a 30.3558
_cell_length_b 30.2432
_cell_length_c 30.3796
_cell_angle_alpha 90.120000
_cell_angle_beta 90.028200
_cell_angle_gamma 89.972300
loop_
  _atom_site_label
  _atom_site_type_symbol
  _atom_site_fract_x
  _atom_site_fract_y
  _atom_site_fract_z
C1 C 0.49131 0.99086 -0.61799
 C2 C 0.45204 0.98375 -0.59460
 C3 C 0.45343 0.98496 -0.54831
 C4 C 0.49311 0.99326 -0.52538
 C5 C 0.53186 1.00039 -0.55017
 C6 C 0.53143 0.99926 -0.59649
 C7 C 0.49408 0.99453 -0.47585
 C8 C 0.53367 0.98700 -0.45244
 C9 C 0.53476 0.98881 -0.40631
 C10 C 0.49587 0.99676 -0.38297
 C11 C 0.45608 1.00368 -0.40512
 C12 C 0.45542 1.00328 -0.45131
 H13 H 0.49062 0.98996 -0.65357
 H14 H 0.42379 0.97694 -0.53037
 H15 H 0.56213 1.00940 -0.53375
 H16 H 0.56385 0.97877 -0.46945
 H17 H 0.49658 0.99756 -0.34730
 H18 H 0.42463 1.01078 -0.46755
 C19 C -0.62052 1.50353 0.03724
 C20 C -0.60076 1.46325 0.02504
 C21 C -0.55689 1.46404 0.00981
 C22 C -0.53175 1.50339 0.01000
 C23 C -0.55306 1.54305 0.02247
 C24 C -0.59790 1.54396 0.03423
 C25 C -0.48359 1.50309 -0.00252
 C26 C -0.46169 1.54248 -0.01490
 C27 C -0.41652 1.54268 -0.02471
 C28 C -0.39338 1.50271 -0.02549
 C29 C -0.41412 1.46302 -0.01429
 C30 C -0.45855 1.46358 -0.00144
 H31 H -0.65545 1.50384 0.04421
 H32 H -0.54206 1.43349 -0.00082
 H33 H -0.53474 1.57350 0.02475
 H34 H -0.47908 1.57352 -0.01727
 H35 H -0.35844 1.50271 -0.03283
 H36 H -0.47290 1.43282 0.00936
 C37 C 0.02846 0.38312 0.50829
 C38 C 0.01944 0.40234 0.46713
 C39 C 0.01410 0.44872 0.46524
 C40 C 0.02160 0.47585 0.50256
 C41 C 0.03093 0.45497 0.54307
 C42 C 0.03308 0.40890 0.54619
 C43 C 0.02177 0.52555 0.49891
 C44 C 0.01540 0.55271 0.53641
 C45 C 0.02120 0.59901 0.53447
 C46 C 0.02946 0.61820 0.49315
 C47 C 0.03286 0.59244 0.45510
 C48 C 0.03031 0.54638 0.45822
 H49 H 0.02920 0.34749 0.51181
 H50 H 0.00603 0.46376 0.43415
 H51 H 0.03763 0.47388 0.57251
 H52 H 0.00787 0.53773 0.56766
 H53 H 0.03049 0.65383 0.48971
 H54 H 0.03609 0.52743 0.42861
 O55 O -0.11793 1.00365 -0.06105
 O56 O 0.10846 1.00121 -0.05637
 O57 O -0.00544 1.06394 -0.11043
 O58 O -0.00242 0.94430 -0.11400
 O59 O -0.00199 0.88875 -0.06207
 O60 O -0.00582 1.11641 -0.05524
 O61 O 0.05585 1.00325 -0.11116
 O62 O -0.06324 1.00456 -0.11371
 Zr63 Zr -0.00441 1.00307 -0.07652
 O64 O 0.03525 0.96214 -0.03947
 O65 O -0.04543 1.04197 -0.03883
 C66 C -0.10423 1.00480 -0.10150
 C67 C 0.09634 1.00209 -0.09738
 C68 C -0.00547 1.10452 -0.09632
 C69 C -0.00144 0.90304 -0.10234
 H70 H 0.05357 1.06145 -0.05461
 O71 O 0.03437 1.04207 -0.03683
 H72 H -0.06275 0.94348 -0.06060
 O73 O -0.04452 0.96191 -0.04082
 O74 O 0.10566 1.00239 0.06318
 O75 O -0.12045 0.99656 0.05799
 O76 O 0.05286 1.11480 0.00653
 O77 O 0.05490 0.88778 -0.00245
 O78 O -0.06488 0.88685 -0.00253
 O79 O -0.06619 1.11414 0.00128
 O80 O -0.00781 1.05754 0.11559
 O81 O -0.00947 0.93773 0.11191
 O82 O -0.00599 1.11303 0.06364
 O83 O -0.00672 0.88529 0.05676
 O84 O 0.10705 1.06137 0.00656
 O85 O -0.11973 1.06016 -0.00151
 O86 O -0.11891 0.94052 -0.00289
 O87 O 0.10803 0.94215 0.00169
 O88 O 0.05077 0.99892 0.11559
 O89 O -0.06782 0.99673 0.11280
 Zr90 Zr 0.07150 1.00147 0.00259
 Zr91 Zr -0.08344 1.00047 -0.00083
 Zr92 Zr -0.00642 1.07860 0.00309
 Zr93 Zr -0.00528 0.92308 -0.00154
 Zr94 Zr -0.00776 0.99870 0.07812
 O95 O -0.04660 0.95924 0.03869
 O96 O 0.03285 1.04016 0.04289
 C97 C 0.09173 1.00094 0.10357
 C98 C -0.10822 0.99575 0.09896
 C99 C 0.09372 1.10215 0.00776
 C100 C 0.09554 0.90116 -0.00038
 C101 C -0.10577 0.89965 -0.00323
 C102 C -0.10691 1.10114 -0.00078
 C103 C -0.00671 1.09881 0.10392
 C104 C -0.00826 0.89715 0.09782
 H105 H -0.06624 1.05782 0.05963
 O106 O -0.04689 1.03952 0.04080
 H107 H 0.05170 0.94119 0.05892
 O108 O 0.03314 0.96028 0.04015
 C109 C 0.33579 0.97497 0.32832
 C110 C 0.33458 0.99474 0.37030
 C111 C 0.37206 0.99502 0.39726
 C112 C 0.41215 0.97688 0.38218
 C113 C 0.41209 0.95440 0.34149
 C114 C 0.37443 0.95299 0.31535
 C115 C 0.29836 0.97946 0.29685
 C116 C 0.30674 0.98348 0.25149
 C117 C 0.27233 0.98808 0.22149
 C118 C 0.22839 0.98994 0.23589
 C119 C 0.21983 0.98632 0.28129
 C120 C 0.25439 0.98090 0.31139
 C121 C 0.19201 0.99510 0.20334
 C122 C 0.15116 0.97404 0.20966
 C123 C 0.11805 0.97702 0.17778
 C124 C 0.12537 1.00041 0.13858
 C125 C 0.16571 1.02208 0.13248
 C126 C 0.19842 1.01994 0.16470
 H127 H 0.30545 1.01207 0.38150
 H128 H 0.37041 1.01282 0.42817
 H129 H 0.44123 0.93747 0.32967
 H130 H 0.37603 0.93535 0.28434
 H131 H 0.34009 0.98366 0.23891
 H132 H 0.28036 0.98980 0.18683
 H133 H 0.18647 0.98810 0.29372
 H134 H 0.24656 0.97759 0.34598
 H135 H 0.14515 0.95412 0.23858
 H136 H 0.08727 0.95973 0.18309
 H137 H 0.17190 1.04085 0.10279
 H138 H 0.22885 1.03771 0.15914
 C139 C -0.35485 1.00786 0.32252
 C140 C -0.35203 0.98936 0.36493
 C141 C -0.38874 0.98892 0.39289
 C142 C -0.42970 1.00553 0.37850
 C143 C -0.43149 1.02628 0.33702
 C144 C -0.39460 1.02794 0.30985
 C145 C -0.31753 1.00473 0.29070
 C146 C -0.32596 1.00061 0.24531
 C147 C -0.29152 0.99811 0.21506
 C148 C -0.24744 0.99840 0.22921
 C149 C -0.23888 1.00168 0.27468
 C150 C -0.27344 1.00519 0.30498
 C151 C -0.21084 0.99603 0.19651
 C152 C -0.17079 1.01821 0.20416
 C153 C -0.13713 1.01720 0.17283
 C154 C -0.14307 0.99488 0.13272
 C155 C -0.18276 0.97255 0.12491
 C156 C -0.21603 0.97259 0.15668
 H157 H -0.32211 0.97337 0.37594
 H158 H -0.38570 0.97235 0.42430
 H159 H -0.46140 1.04200 0.32551
 H160 H -0.39757 1.04461 0.27850
 H161 H -0.35932 0.99894 0.23287
 H162 H -0.29971 0.99649 0.18042
 H163 H -0.20545 1.00129 0.28706
 H164 H -0.26548 1.00867 0.33953
 H165 H -0.16569 1.03734 0.23386
 H166 H -0.10688 1.03501 0.17943
 H167 H -0.18785 0.95464 0.09440
 H168 H -0.24578 0.95408 0.14993
 C169 C -0.34817 0.98273 -0.32718
 C170 C -0.38320 0.95316 -0.31987
 C171 C -0.42057 0.95399 -0.34666
 C172 C -0.42341 0.98374 -0.38189
 C173 C -0.38757 1.01152 -0.39096
 C174 C -0.35040 1.01125 -0.36371
 C175 C -0.31094 0.98562 -0.29532
 C176 C -0.26791 0.99551 -0.30938
 C177 C -0.23362 1.00007 -0.27887
 C178 C -0.24147 0.99453 -0.23357
 C179 C -0.28434 0.98394 -0.21968
 C180 C -0.31861 0.97990 -0.25003
 C181 C -0.20535 0.99960 -0.20073
 C182 C -0.21401 1.01786 -0.15897
 C183 C -0.18098 1.02019 -0.12706
 C184 C -0.13826 1.00501 -0.13633
 C185 C -0.12903 0.98822 -0.17848
 C186 C -0.16228 0.98528 -0.21026
 H187 H -0.38216 0.92987 -0.29289
 H188 H -0.44773 0.93196 -0.33938
 H189 H -0.38929 1.03500 -0.41779
 H190 H -0.32437 1.03481 -0.37014
 H191 H -0.26063 0.99968 -0.34400
 H192 H -0.20112 1.00861 -0.29077
 H193 H -0.29154 0.97856 -0.18521
 H194 H -0.35136 0.97308 -0.23775
 H195 H -0.24643 1.03033 -0.15080
 H196 H -0.18893 1.03384 -0.09504
 H197 H -0.09645 0.97598 -0.18645
 H198 H -0.15449 0.97056 -0.24182
 C199 C 0.34137 1.01432 -0.32292
 C200 C 0.34205 0.98476 -0.35879
 C201 C 0.37849 0.98286 -0.38692
 C202 C 0.41518 1.01003 -0.37940
 C203 C 0.41398 1.04067 -0.34468
 C204 C 0.37735 1.04308 -0.31700
 C205 C 0.30451 1.01365 -0.29054
 C206 C 0.31285 1.02059 -0.24550
 C207 C 0.27876 1.01874 -0.21473
 C208 C 0.23540 1.00927 -0.22797
 C209 C 0.22694 1.00246 -0.27303
 C210 C 0.26102 1.00482 -0.30393
 C211 C 0.19934 1.00645 -0.19484
 C212 C 0.15663 1.02149 -0.20484
 C213 C 0.12305 1.01942 -0.17344
 C214 C 0.13149 1.00278 -0.13110
 C215 C 0.17403 0.98757 -0.12108
 C216 C 0.20745 0.98907 -0.15265
 H217 H 0.31528 0.96174 -0.36414
 H218 H 0.37892 0.95869 -0.41328
 H219 H 0.44179 1.06228 -0.33858
 H220 H 0.37754 1.06709 -0.29053
 H221 H 0.34596 1.02669 -0.23373
 H222 H 0.28648 1.02495 -0.18048
 H223 H 0.19408 0.99461 -0.28445
 H224 H 0.25322 0.99980 -0.33835
 H225 H 0.14929 1.03573 -0.23667
 H226 H 0.09068 1.03178 -0.18203
 H227 H 0.18142 0.97412 -0.08889
 H228 H 0.23960 0.97625 -0.14403
 C229 C 0.31896 1.34779 0.02641
 C230 C 0.31401 1.38082 0.05854
 C231 C 0.34096 1.41809 0.05853
 C232 C 0.37441 1.42348 0.02672
 C233 C 0.38106 1.38885 -0.00385
 C234 C 0.35341 1.35179 -0.00424
 C235 C 0.28695 1.31059 0.02394
 C236 C 0.30031 1.26781 0.01152
 C237 C 0.26960 1.23340 0.00855
 C238 C 0.22487 1.24095 0.01814
 C239 C 0.21172 1.28362 0.03097
 C240 C 0.24222 1.31798 0.03349
 C241 C 0.19177 1.20483 0.01458
 C242 C 0.14897 1.21390 -0.00072
 C243 C 0.11725 1.18060 -0.00273
 C244 C 0.12764 1.13719 0.00991
 C245 C 0.17060 1.12776 0.02441
 C246 C 0.20227 1.16128 0.02694
 H247 H 0.28900 1.37805 0.08377
 H248 H 0.33592 1.44234 0.08431
 H249 H 0.40552 1.39140 -0.02960
 H250 H 0.35792 1.32718 -0.02976
 H251 H 0.33454 1.26082 0.00432
 H252 H 0.28081 1.20104 -0.00186
 H253 H 0.17775 1.29055 0.03933
 H254 H 0.23048 1.35060 0.04238
 H255 H 0.13998 1.24678 -0.01153
 H256 H 0.08464 1.18882 -0.01468
 H257 H 0.17956 1.09463 0.03451
 H258 H 0.23471 1.15321 0.03940
 C259 C 0.32357 0.66021 0.03813
 C260 C 0.36245 0.65894 0.01302
 C261 C 0.39011 0.62193 0.01414
 C262 C 0.37900 0.58449 0.03952
 C263 C 0.34164 0.58741 0.06701
 C264 C 0.31462 0.62475 0.06653
 C265 C 0.29105 0.69676 0.03269
 C266 C 0.24559 0.68792 0.03485
 C267 C 0.21473 0.72149 0.02832
 C268 C 0.22833 0.76482 0.01869
 C269 C 0.27378 0.77377 0.01649
 C270 C 0.30473 0.74023 0.02362
 C271 C 0.19513 0.80041 0.01152
 C272 C 0.20319 0.84382 0.02613
 C273 C 0.17131 0.87676 0.02103
 C274 C 0.13035 0.86699 0.00174
 C275 C 0.12240 0.82386 -0.01347
 C276 C 0.15455 0.79106 -0.00898
 H277 H 0.37040 0.68546 -0.00947
 H278 H 0.41801 0.62148 -0.00802
 H279 H 0.33300 0.56078 0.08914
 H280 H 0.28609 0.62537 0.08789
 H281 H 0.23363 0.65477 0.04086
 H282 H 0.18012 0.71341 0.03113
 H283 H 0.28554 0.80661 0.00868
 H284 H 0.33940 0.74845 0.02210
 H285 H 0.23365 0.85218 0.04270
 H286 H 0.17825 0.90960 0.03352
 H287 H 0.09130 0.81545 -0.02882
 H288 H 0.14751 0.75832 -0.02159
 C289 C -0.33593 0.65924 -0.03190
 C290 C -0.36898 0.65543 0.00034
 C291 C -0.39693 0.61872 0.00101
 C292 C -0.39219 0.58480 -0.03025
 C293 C -0.36059 0.58944 -0.06366
 C294 C -0.33296 0.62638 -0.06465
 C295 C -0.30303 0.69572 -0.02966
 C296 C -0.25862 0.68772 -0.04022
 C297 C -0.22712 0.72111 -0.03595
 C298 C -0.23904 0.76332 -0.02057
 C299 C -0.28352 0.77151 -0.01043
 C300 C -0.31514 0.73819 -0.01508
 C301 C -0.20514 0.79849 -0.01500
 C302 C -0.21507 0.84286 -0.02454
 C303 C -0.18305 0.87574 -0.01991
 C304 C -0.14016 0.86501 -0.00604
 C305 C -0.13025 0.82075 0.00380
 C306 C -0.16241 0.78793 -0.00039
 H307 H -0.37194 0.67970 0.02641
 H308 H -0.42064 0.61566 0.02746
 H309 H -0.35659 0.56390 -0.08839
 H310 H -0.30866 0.62874 -0.09060
 H311 H -0.24786 0.65529 -0.05087
 H312 H -0.19335 0.71378 -0.04481
 H313 H -0.29387 0.80347 0.00190
 H314 H -0.34908 0.74571 -0.00712
 H315 H -0.24735 0.85215 -0.03651
 H316 H -0.19169 0.90947 -0.02817
 H317 H -0.09763 0.81143 0.01492
 H318 H -0.15382 0.75428 0.00815
 C319 C -0.33338 1.34600 -0.01482
 C320 C -0.36157 1.35482 0.02091
 C321 C -0.38896 1.39209 0.02066
 C322 C -0.38845 1.42132 -0.01520
 C323 C -0.36145 1.41169 -0.05147
 C324 C -0.33439 1.37439 -0.05138
 C325 C -0.30144 1.30873 -0.01327
 C326 C -0.25860 1.31430 -0.02988
 C327 C -0.22797 1.27997 -0.02782
 C328 C -0.23922 1.23920 -0.00881
 C329 C -0.28216 1.23337 0.00753
 C330 C -0.31294 1.26781 0.00537
 C331 C -0.20586 1.20335 -0.00566
 C332 C -0.21734 1.15898 -0.01347
 C333 C -0.18539 1.12565 -0.01159
 C334 C -0.14124 1.13601 -0.00194
 C335 C -0.12998 1.18033 0.00635
 C336 C -0.16187 1.21351 0.00464
 H337 H -0.36129 1.33386 0.04975
 H338 H -0.40925 1.39898 0.04917
 H339 H -0.36100 1.43335 -0.07982
 H340 H -0.31390 1.36801 -0.07986
 H341 H -0.24838 1.34556 -0.04386
 H342 H -0.19540 1.28536 -0.04130
 H343 H -0.29174 1.20247 0.02268
 H344 H -0.34579 1.26233 0.01812
 H345 H -0.25086 1.15014 -0.02193
 H346 H -0.19517 1.09187 -0.01832
 H347 H -0.09643 1.18953 0.01435
 H348 H -0.15208 1.24721 0.01171
 C349 C 0.00853 1.31844 0.35468
 C350 C 0.03730 1.30813 0.38934
 C351 C 0.04083 1.33575 0.42591
 C352 C 0.01622 1.37526 0.42899
 C353 C -0.01131 1.38647 0.39319
 C354 C -0.01538 1.35821 0.35680
 C355 C 0.00338 1.28721 0.31706
 C356 C -0.00299 1.30262 0.27387
 C357 C -0.00660 1.27284 0.23870
 C358 C -0.00356 1.22697 0.24584
 C359 C 0.00254 1.21170 0.28908
 C360 C 0.00552 1.24133 0.32417
 C361 C -0.00602 1.19496 0.20857
 C362 C -0.02558 1.15321 0.21446
 C363 C -0.02565 1.12207 0.18050
 C364 C -0.00698 1.13218 0.13949
 C365 C 0.01148 1.17423 0.13297
 C366 C 0.01228 1.20518 0.16726
 H367 H 0.05761 1.27872 0.38814
 H368 H 0.06435 1.32654 0.45107
 H369 H -0.03177 1.41574 0.39401
 H370 H -0.03827 1.36698 0.33091
 H371 H -0.00445 1.33771 0.26708
 H372 H -0.01191 1.28582 0.20594
 H373 H 0.00577 1.17675 0.29593
 H374 H 0.00949 1.22811 0.35702
 H375 H -0.04101 1.14449 0.24535
 H376 H -0.04070 1.09014 0.18624
 H377 H 0.02631 1.18280 0.10171
 H378 H 0.02821 1.23667 0.16165
 C379 C 0.03577 1.33332 -0.33466
 C380 C 0.06819 1.32686 -0.36716
 C381 C 0.06882 1.35303 -0.40496
 C382 C 0.03762 1.38674 -0.41070
 C383 C 0.00718 1.39538 -0.37702
 C384 C 0.00608 1.36876 -0.33945
 C385 C 0.03079 1.30116 -0.29795
 C386 C 0.01686 1.31488 -0.25592
 C387 C 0.00963 1.28392 -0.22251
 C388 C 0.01639 1.23855 -0.23028
 C389 C 0.03115 1.22502 -0.27203
 C390 C 0.03795 1.25583 -0.30544
 C391 C 0.00817 1.20523 -0.19525
 C392 C -0.00933 1.16350 -0.20599
 C393 C -0.01461 1.13113 -0.17372
 C394 C -0.00310 1.13988 -0.12979
 C395 C 0.01297 1.18204 -0.11866
 C396 C 0.01874 1.21429 -0.15107
 H397 H 0.09234 1.30071 -0.36402
 H398 H 0.09282 1.34607 -0.43044
 H399 H -0.01746 1.42098 -0.38102
 H400 H -0.01959 1.37450 -0.31538
 H401 H 0.01142 1.34954 -0.24883
 H402 H -0.00203 1.29549 -0.19085
 H403 H 0.03754 1.19049 -0.27900
 H404 H 0.04790 1.24383 -0.33753
 H405 H -0.01887 1.15572 -0.23946
 H406 H -0.02751 1.09912 -0.18325
 H407 H 0.02250 1.18967 -0.08513
 H408 H 0.03275 1.24584 -0.14168
 C409 C 0.01377 0.68288 -0.35280
 C410 C 0.04201 0.69277 -0.38797
 C411 C 0.04441 0.66517 -0.42464
 C412 C 0.01918 0.62604 -0.42729
 C413 C -0.00775 0.61519 -0.39098
 C414 C -0.01072 0.64346 -0.35450
 C415 C 0.00960 0.71424 -0.31516
 C416 C 0.00345 0.69901 -0.27188
 C417 C 0.00033 0.72892 -0.23677
 C418 C 0.00367 0.77475 -0.24407
 C419 C 0.00975 0.78982 -0.28737
 C420 C 0.01223 0.76008 -0.32240
 C421 C 0.00115 0.80692 -0.20695
 C422 C -0.01847 0.84862 -0.21310
 C423 C -0.01898 0.87978 -0.17919
 C424 C -0.00069 0.86976 -0.13796
 C425 C 0.01795 0.82781 -0.13122
 C426 C 0.01919 0.79683 -0.16547
 H427 H 0.06275 0.72188 -0.38714
 H428 H 0.06752 0.67405 -0.45026
 H429 H -0.02863 0.58622 -0.39145
 H430 H -0.03326 0.63502 -0.32823
 H431 H 0.00166 0.66396 -0.26499
 H432 H -0.00495 0.71610 -0.20397
 H433 H 0.01323 0.82473 -0.29434
 H434 H 0.01605 0.77319 -0.35530
 H435 H -0.03374 0.85723 -0.24413
 H436 H -0.03426 0.91160 -0.18508
 H437 H 0.03245 0.81932 -0.09976
 H438 H 0.03514 0.76536 -0.15966
 C439 C 0.03314 0.66827 0.33607
 C440 C 0.06617 0.67466 0.36797
 C441 C 0.06761 0.64838 0.40567
 C442 C 0.03655 0.61465 0.41193
 C443 C 0.00545 0.60610 0.37881
 C444 C 0.00359 0.63281 0.34132
 C445 C 0.02746 0.70047 0.29951
 C446 C 0.01311 0.68676 0.25762
 C447 C 0.00554 0.71773 0.22428
 C448 C 0.01235 0.76310 0.23199
 C449 C 0.02735 0.77664 0.27366
 C450 C 0.03454 0.74582 0.30700
 C451 C 0.00416 0.79637 0.19691
 C452 C -0.01325 0.83818 0.20752
 C453 C -0.01826 0.87056 0.17519
 C454 C -0.00650 0.86175 0.13133
 C455 C 0.00943 0.81947 0.12035
 C456 C 0.01488 0.78722 0.15280
 H457 H 0.09021 0.70084 0.36444
 H458 H 0.09212 0.65527 0.43069
 H459 H -0.01909 0.58051 0.38320
 H460 H -0.02252 0.62712 0.31769
 H461 H 0.00769 0.65209 0.25057
 H462 H -0.00631 0.70616 0.19268
 H463 H 0.03375 0.81117 0.28058
 H464 H 0.04479 0.75778 0.33901
 H465 H -0.02287 0.84603 0.24095
 H466 H -0.03104 0.90264 0.18464
 H467 H 0.01914 0.81174 0.08691
 H468 H 0.02884 0.75560 0.14353
   
