data_POSCAR
  _audit_creation_date              2014-09-24
  _audit_creation_method            'ToBaCCo'
  _symmetry_space_group_name_H-M    'P1'
  _symmetry_Int_Tables_number       1
  _symmetry_cell_setting            triclinic
  loop_
  _symmetry_equiv_pos_as_xyz
 x,y,z
_cell_length_a 57.4695
_cell_length_b 12.2432
_cell_length_c 14.3036
_cell_angle_alpha 113.024900
_cell_angle_beta 90.044600
_cell_angle_gamma 95.419200
loop_
  _atom_site_label
  _atom_site_type_symbol
  _atom_site_fract_x
  _atom_site_fract_y
  _atom_site_fract_z
C1 C 0.73065 0.24830 0.56029
 C2 C 0.72846 0.25355 0.46368
 C3 C 0.74847 0.24830 0.40679
 C4 C 0.77042 0.23906 0.44503
 C5 C 0.77266 0.23759 0.54334
 C6 C 0.75260 0.24186 0.59969
 H7 H 0.75406 0.24027 0.67489
 H8 H 0.74688 0.25023 0.33183
 C9 C 0.22931 0.73065 0.55027
 C10 C 0.22554 0.72969 0.45230
 C11 C 0.24477 0.72339 0.39089
 C12 C 0.26739 0.72029 0.42674
 C13 C 0.27111 0.72240 0.52537
 C14 C 0.25182 0.72688 0.58590
 H15 H 0.25435 0.72959 0.66205
 H16 H 0.24219 0.72179 0.31519
 C17 C 0.27274 0.26458 -0.54444
 C18 C 0.27209 0.27433 -0.44295
 C19 C 0.25113 0.29089 -0.39157
 C20 C 0.23050 0.29680 -0.44056
 C21 C 0.23127 0.28801 -0.54221
 C22 C 0.25230 0.27268 -0.59292
 H23 H 0.25269 0.26409 -0.67141
 H24 H 0.25085 0.29718 -0.31373
 C25 C -0.23206 0.70262 -0.56297
 C26 C -0.23362 0.67359 -0.47703
 C27 C -0.25443 0.68029 -0.42583
 C28 C -0.27424 0.71269 -0.46112
 C29 C -0.27330 0.73332 -0.55198
 C30 C -0.25212 0.72942 -0.60160
 H31 H -0.25117 0.74855 -0.66954
 H32 H -0.25498 0.66316 -0.35683
 N33 N 0.02598 1.19719 -0.08028
 N34 N 0.04531 1.26684 -0.07662
 N35 N -0.02393 1.07176 -0.16774
 N36 N -0.04375 1.04848 -0.22236
 N37 N -0.02357 1.17483 -0.09009
 N38 N -0.04302 1.22437 -0.09042
 N39 N 0.02590 1.09412 -0.15767
 N40 N 0.04520 1.09105 -0.20864
 C41 C 0.05698 1.19981 -0.15768
 C42 C -0.05532 1.14514 -0.17355
 N43 N -0.02550 0.77372 -0.12781
 N44 N -0.04579 0.70850 -0.14008
 N45 N 0.02442 0.84869 -0.18014
 N46 N 0.04477 0.84221 -0.22327
 N47 N 0.02361 0.79200 -0.11860
 N48 N 0.04347 0.74606 -0.11839
 N49 N -0.02433 0.82786 -0.19118
 N50 N -0.04361 0.80023 -0.24859
 Mn51 Mn 0.00057 0.96010 -0.17544
 C52 C -0.05649 0.72442 -0.21719
 C53 C 0.05613 0.77587 -0.18569
 N54 N -0.02372 1.24730 0.12663
 N55 N -0.04423 1.28519 0.12142
 N56 N 0.02502 1.21447 0.19861
 N57 N 0.04513 1.23902 0.25023
 N58 N 0.02534 1.26989 0.13622
 N59 N 0.04574 1.33246 0.14356
 N60 N -0.02411 1.19184 0.18920
 N61 N -0.04500 1.19089 0.22723
 Mn62 Mn 0.00102 1.22363 0.02342
 C63 C -0.05707 1.25170 0.18610
 C64 C 0.05756 1.31473 0.21688
 N65 N 0.02351 0.86304 0.09764
 N66 N 0.04149 0.80482 0.10112
 N67 N -0.02510 0.94733 0.16829
 N68 N -0.04330 0.94895 0.22520
 N69 N -0.02591 0.84491 0.08975
 N70 N -0.04467 0.77407 0.09119
 N71 N 0.02471 0.96694 0.17491
 N72 N 0.04374 0.98179 0.23300
 Mn73 Mn -0.00117 0.81697 -0.01511
 Mn74 Mn 0.00021 1.08103 0.18426
 Cl75 Cl 0.00019 1.02043 0.00448
 C76 C 0.05390 0.87920 0.18589
 C77 C -0.05524 0.84018 0.17654
 N78 N 0.47251 0.54380 -0.17025
 N79 N 0.45305 0.52167 -0.22747
 N80 N 0.52261 0.67723 -0.09735
 N81 N 0.54205 0.74428 -0.09692
 N82 N 0.52243 0.57066 -0.17051
 N83 N 0.54186 0.56276 -0.22122
 N84 N 0.47336 0.65055 -0.09695
 N85 N 0.45477 0.70371 -0.10235
 C86 C 0.44227 0.62295 -0.18396
 C87 C 0.55366 0.67239 -0.17540
 N88 N 0.52543 0.72161 0.18922
 N89 N 0.54589 0.75314 0.23857
 N90 N 0.47550 0.74024 0.12063
 N91 N 0.45482 0.77784 0.11869
 N92 N 0.47644 0.69242 0.18829
 N93 N 0.45639 0.69697 0.23382
 N94 N 0.52464 0.76800 0.12062
 N95 N 0.54465 0.83126 0.12142
 Mn96 Mn 0.49905 0.71015 0.01191
 C97 C 0.55741 0.82343 0.19721
 C98 C 0.44339 0.75286 0.19129
 N99 N 0.52345 0.33187 -0.17794
 N100 N 0.54288 0.31870 -0.22859
 N101 N 0.47540 0.25731 -0.10964
 N102 N 0.45551 0.19286 -0.11122
 N103 N 0.47454 0.30381 -0.17817
 N104 N 0.45421 0.27086 -0.22850
 N105 N 0.52435 0.28490 -0.10978
 N106 N 0.54427 0.23894 -0.11233
 Mn107 Mn 0.49819 0.43681 -0.17580
 C108 C 0.55534 0.25846 -0.18802
 C109 C 0.44281 0.19973 -0.18769
 N110 N 0.47739 0.45341 0.18071
 N111 N 0.45807 0.45807 0.23211
 N112 N 0.52694 0.37635 0.10780
 N113 N 0.54646 0.32840 0.11022
 N114 N 0.52740 0.48291 0.18116
 N115 N 0.54742 0.51005 0.23532
 N116 N 0.47765 0.34702 0.10788
 N117 N 0.45877 0.27693 0.10809
 Mn118 Mn 0.50166 0.58829 0.18638
 Mn119 Mn 0.50109 0.31539 -0.00096
 Cl120 Cl 0.49998 0.51262 0.00532
 C121 C 0.44688 0.34655 0.18650
 C122 C 0.55901 0.41229 0.19020
 C123 C 0.37978 0.23868 0.23606
 C124 C 0.36074 0.26452 0.18779
 C125 C 0.33759 0.25103 0.21998
 C126 C 0.33367 0.21195 0.30015
 C127 C 0.35223 0.17138 0.33847
 C128 C 0.37539 0.18543 0.30694
 C129 C 0.39377 0.14823 0.34943
 C130 C 0.38936 0.09844 0.42100
 C131 C 0.36670 0.08559 0.45202
 C132 C 0.34827 0.12026 0.41076
 C133 C 0.31898 0.28245 0.17402
 C134 C 0.32312 0.32693 0.09880
 C135 C 0.34573 0.34043 0.06752
 C136 C 0.36439 0.30930 0.11101
 C137 C 0.31166 0.22754 0.35207
 C138 C 0.29392 0.24398 0.39888
 C139 C 0.40374 0.27674 0.21994
 C140 C 0.42351 0.31006 0.20692
 H141 H 0.41166 0.15734 0.32781
 H142 H 0.40363 0.07155 0.45379
 H143 H 0.36334 0.05161 0.51048
 H144 H 0.33096 0.10820 0.43726
 H145 H 0.30114 0.27345 0.19623
 H146 H 0.30871 0.35140 0.06481
 H147 H 0.34884 0.37517 0.00920
 H148 H 0.38168 0.32098 0.08418
 C149 C -0.11968 0.74866 0.26632
 C150 C -0.12417 0.78601 0.37110
 C151 C -0.14758 0.77899 0.40268
 C152 C -0.16636 0.73016 0.32923
 C153 C -0.16170 0.68608 0.22446
 C154 C -0.13831 0.69392 0.19299
 C155 C -0.13411 0.64621 0.08789
 C156 C -0.15247 0.59250 0.01592
 C157 C -0.17538 0.58860 0.04649
 C158 C -0.18004 0.63475 0.14953
 C159 C -0.15162 0.82244 0.50810
 C160 C -0.13314 0.87065 0.58010
 C161 C -0.11027 0.87529 0.54927
 C162 C -0.10572 0.83218 0.44603
 C163 C -0.19022 0.72022 0.36185
 C164 C -0.20963 0.71163 0.39266
 C165 C -0.09647 0.77632 0.23438
 C166 C -0.07753 0.80355 0.20788
 H167 H -0.11663 0.64943 0.06041
 H168 H -0.14895 0.55541 -0.06422
 H169 H -0.18960 0.54896 -0.00991
 H170 H -0.19812 0.62975 0.16984
 H171 H -0.16907 0.81999 0.53599
 H172 H -0.13656 0.90179 0.66018
 H173 H -0.09597 0.91099 0.60561
 H174 H -0.08764 0.83617 0.42542
 C175 C 0.62507 0.83156 0.26117
 C176 C 0.62521 0.77235 0.32865
 C177 C 0.64664 0.74487 0.35843
 C178 C 0.66789 0.78348 0.32605
 C179 C 0.66769 0.83571 0.25360
 C180 C 0.64610 0.85918 0.22034
 C181 C 0.64611 0.90764 0.14549
 C182 C 0.66695 0.93071 0.10346
 C183 C 0.68808 0.90773 0.13594
 C184 C 0.68857 0.86172 0.21089
 C185 C 0.64621 0.67686 0.41886
 C186 C 0.62516 0.64028 0.45101
 C187 C 0.60424 0.67115 0.42570
 C188 C 0.60415 0.73687 0.36573
 C189 C 0.68972 0.76885 0.36806
 C190 C 0.70726 0.75399 0.40553
 C191 C 0.60260 0.85035 0.22841
 C192 C 0.58218 0.84861 0.20999
 H193 H 0.63003 0.92614 0.11778
 H194 H 0.66674 0.96607 0.04509
 H195 H 0.70417 0.92510 0.10252
 H196 H 0.70536 0.84409 0.23322
 H197 H 0.66204 0.65048 0.44127
 H198 H 0.62499 0.58887 0.49667
 H199 H 0.58799 0.64368 0.45235
 H200 H 0.58730 0.75820 0.34857
 C201 C 0.12627 1.30985 0.25871
 C202 C 0.14572 1.36726 0.22995
 C203 C 0.16861 1.35334 0.25770
 C204 C 0.17160 1.28127 0.31266
 C205 C 0.15222 1.21501 0.33269
 C206 C 0.12937 1.23105 0.30736
 C207 C 0.11004 1.17095 0.33539
 C208 C 0.11335 1.09866 0.38784
 C209 C 0.13579 1.07939 0.40892
 C210 C 0.15510 1.13605 0.38149
 C211 C 0.18800 1.41242 0.22987
 C212 C 0.18480 1.48161 0.17415
 C213 C 0.16234 1.49453 0.14637
 C214 C 0.14292 1.43909 0.17464
 C215 C 0.19393 1.28547 0.35990
 C216 C 0.21167 1.28790 0.40501
 C217 C 0.10281 1.33024 0.24050
 C218 C 0.08228 1.33291 0.22931
 H219 H 0.09216 1.17961 0.31829
 H220 H 0.09841 1.05535 0.41044
 H221 H 0.13815 1.01825 0.44479
 H222 H 0.17225 1.11791 0.39935
 H223 H 0.20575 1.40415 0.24954
 H224 H 0.19981 1.52548 0.15253
 H225 H 0.15997 1.54846 0.10334
 H226 H 0.12576 1.45192 0.15194
 C227 C 0.62474 0.25912 -0.23521
 C228 C 0.64110 0.20462 -0.19837
 C229 C 0.66474 0.20898 -0.22682
 C230 C 0.67168 0.26967 -0.29003
 C231 C 0.65577 0.33345 -0.31844
 C232 C 0.63210 0.32610 -0.29281
 C233 C 0.61614 0.38518 -0.32704
 C234 C 0.62352 0.45078 -0.38371
 C235 C 0.64693 0.46044 -0.40669
 C236 C 0.66292 0.40291 -0.37447
 C237 C 0.68073 0.15004 -0.19295
 C238 C 0.67354 0.08935 -0.13153
 C239 C 0.65039 0.08557 -0.10338
 C240 C 0.63426 0.14230 -0.13637
 C241 C 0.69412 0.25805 -0.33599
 C242 C 0.71166 0.25203 -0.38252
 C243 C 0.60023 0.24757 -0.21580
 C244 C 0.57960 0.24718 -0.20341
 H245 H 0.59779 0.38138 -0.31076
 H246 H 0.61086 0.49444 -0.40867
 H247 H 0.65297 0.51190 -0.45000
 H248 H 0.68092 0.41362 -0.39408
 H249 H 0.69882 0.14995 -0.21398
 H250 H 0.68590 0.04373 -0.10676
 H251 H 0.64474 0.03678 -0.05724
 H252 H 0.61637 0.13544 -0.11414
 C253 C 0.12612 0.78462 -0.21677
 C254 C 0.14130 0.71879 -0.18683
 C255 C 0.16488 0.71793 -0.21599
 C256 C 0.17277 0.78274 -0.27470
 C257 C 0.15838 0.85963 -0.29379
 C258 C 0.13477 0.85936 -0.26608
 C259 C 0.12006 0.92978 -0.29337
 C260 C 0.12854 0.99717 -0.34749
 C261 C 0.15197 1.00079 -0.37106
 C262 C 0.16681 0.93355 -0.34435
 C263 C 0.17992 0.65141 -0.18617
 C264 C 0.17195 0.58998 -0.12635
 C265 C 0.14872 0.58954 -0.09888
 C266 C 0.13341 0.65211 -0.12953
 C267 C 0.19401 0.75907 -0.32892
 C268 C 0.21049 0.74343 -0.38213
 C269 C 0.10138 0.77207 -0.20257
 C270 C 0.08062 0.76846 -0.19452
 H271 H 0.10184 0.93231 -0.27470
 H272 H 0.11698 1.04840 -0.36980
 H273 H 0.15886 1.05696 -0.40914
 H274 H 0.18493 0.93989 -0.36406
 H275 H 0.19801 0.64832 -0.20722
 H276 H 0.18374 0.54102 -0.10246
 H277 H 0.14248 0.53969 -0.05433
 H278 H 0.11551 0.64946 -0.10639
 C279 C 0.37852 0.69037 -0.27231
 C280 C 0.35733 0.65765 -0.23469
 C281 C 0.33536 0.66880 -0.27514
 C282 C 0.33454 0.71543 -0.35156
 C283 C 0.35578 0.75499 -0.38440
 C284 C 0.37772 0.74103 -0.34581
 C285 C 0.39857 0.77648 -0.38356
 C286 C 0.39788 0.82313 -0.45784
 C287 C 0.37654 0.83670 -0.49519
 C288 C 0.35569 0.80562 -0.45780
 C289 C 0.31456 0.63138 -0.23837
 C290 C 0.31533 0.58484 -0.16383
 C291 C 0.33672 0.57485 -0.12395
 C292 C 0.35753 0.61077 -0.15865
 C293 C 0.31195 0.71917 -0.39807
 C294 C 0.29301 0.72082 -0.43540
 C295 C 0.40101 0.66482 -0.24087
 C296 C 0.41976 0.64340 -0.21639
 H297 H 0.41562 0.76728 -0.35703
 H298 H 0.41396 0.84716 -0.48778
 H299 H 0.37618 0.86765 -0.55614
 H300 H 0.33952 0.81804 -0.48944
 H301 H 0.29750 0.63768 -0.26676
 H302 H 0.29922 0.55647 -0.13679
 H303 H 0.33719 0.53883 -0.06592
 H304 H 0.37375 0.60119 -0.12542
 C305 C -0.12108 1.19215 -0.25549
 C306 C -0.12216 1.24832 -0.32467
 C307 C -0.14422 1.26323 -0.36106
 C308 C -0.16527 1.22110 -0.32925
 C309 C -0.16419 1.16732 -0.25795
 C310 C -0.14207 1.15258 -0.22125
 C311 C -0.14155 1.09624 -0.15200
 C312 C -0.16221 1.05673 -0.11885
 C313 C -0.18375 1.07127 -0.15429
 C314 C -0.18483 1.12580 -0.22318
 C315 C -0.14465 1.31424 -0.43386
 C316 C -0.12409 1.33969 -0.47561
 C317 C -0.10253 1.33014 -0.43772
 C318 C -0.10146 1.28692 -0.36156
 C319 C -0.18777 1.22696 -0.37475
 C320 C -0.20620 1.23173 -0.41396
 C321 C -0.09826 1.17187 -0.22377
 C322 C -0.07879 1.15806 -0.20079
 H323 H -0.12521 1.08270 -0.12245
 H324 H -0.16148 1.01651 -0.06397
 H325 H -0.19970 1.04029 -0.12803
 H326 H -0.20198 1.13505 -0.24878
 H327 H -0.16089 1.32686 -0.46479
 H328 H -0.12501 1.36305 -0.54025
 H329 H -0.08664 1.35331 -0.46941
 H330 H -0.08425 1.28049 -0.33472
 C331 C 0.62202 0.75212 -0.22814
 C332 C 0.62785 0.81786 -0.28864
 C333 C 0.65113 0.82629 -0.32020
 C334 C 0.66805 0.76442 -0.29574
 C335 C 0.66310 0.71291 -0.22422
 C336 C 0.63996 0.70690 -0.18993
 C337 C 0.63524 0.65274 -0.12000
 C338 C 0.65292 0.60659 -0.08442
 C339 C 0.67556 0.61297 -0.11772
 C340 C 0.68068 0.66518 -0.18722
 C341 C 0.65703 0.89667 -0.37639
 C342 C 0.64024 0.95448 -0.40347
 C343 C 0.61719 0.94306 -0.37605
 C344 C 0.61096 0.87573 -0.31892
 C345 C 0.68934 0.74475 -0.35225
 C346 C 0.70637 0.72861 -0.40350
 C347 C 0.59765 0.72613 -0.20950
 C348 C 0.57747 0.70205 -0.19497
 H349 H 0.61793 0.64638 -0.09173
 H350 H 0.64898 0.56543 -0.03096
 H351 H 0.68920 0.57692 -0.08979
 H352 H 0.69851 0.66869 -0.21115
 H353 H 0.67475 0.90906 -0.39879
 H354 H 0.64551 1.00912 -0.44488
 H355 H 0.60415 0.98821 -0.39737
 H356 H 0.59300 0.87161 -0.29692
 C357 C 0.12358 1.29043 -0.22762
 C358 C 0.14322 1.26800 -0.18026
 C359 C 0.16603 1.27979 -0.21658
 C360 C 0.16913 1.31486 -0.29951
 C361 C 0.14982 1.34757 -0.34036
 C362 C 0.12696 1.33347 -0.30576
 C363 C 0.10789 1.36259 -0.35109
 C364 C 0.11138 1.40608 -0.42718
 C365 C 0.13381 1.42250 -0.45887
 C366 C 0.15285 1.39415 -0.41609
 C367 C 0.18526 1.25461 -0.16943
 C368 C 0.18212 1.21847 -0.08879
 C369 C 0.15986 1.20615 -0.05375
 C370 C 0.14057 1.23074 -0.09854
 C371 C 0.19170 1.31127 -0.34693
 C372 C 0.20997 1.30572 -0.38995
 C373 C 0.09990 1.26212 -0.20072
 C374 C 0.08027 1.23506 -0.18074
 H375 H 0.09016 1.35264 -0.32802
 H376 H 0.09663 1.42715 -0.46184
 H377 H 0.13653 1.45518 -0.51851
 H378 H 0.16993 1.40870 -0.44337
 H379 H 0.20288 1.26321 -0.19413
 H380 H 0.19705 1.19998 -0.05328
 H381 H 0.15755 1.17787 0.00880
 H382 H 0.12362 1.22064 -0.06829
 C383 C 0.37514 0.19748 -0.24592
 C384 C 0.35416 0.15496 -0.21453
 C385 C 0.33242 0.18031 -0.24438
 C386 C 0.33201 0.24717 -0.30557
 C387 C 0.35304 0.29563 -0.33172
 C388 C 0.37471 0.26924 -0.30311
 C389 C 0.39562 0.31374 -0.33470
 C390 C 0.39506 0.38286 -0.39164
 C391 C 0.37387 0.41132 -0.41692
 C392 C 0.35300 0.36843 -0.38803
 C393 C 0.31153 0.13826 -0.21174
 C394 C 0.31214 0.07330 -0.15081
 C395 C 0.33343 0.04717 -0.12273
 C396 C 0.35431 0.08736 -0.15404
 C397 C 0.31021 0.25791 -0.34944
 C398 C 0.29265 0.26569 -0.39073
 C399 C 0.39767 0.17506 -0.21730
 C400 C 0.41807 0.17484 -0.20037
 H401 H 0.41267 0.29476 -0.31739
 H402 H 0.41118 0.41584 -0.41518
 H403 H 0.37378 0.46914 -0.45715
 H404 H 0.33693 0.39325 -0.40991
 H405 H 0.29458 0.15659 -0.23181
 H406 H 0.29602 0.04350 -0.12496
 H407 H 0.33372 -0.00373 -0.07591
 H408 H 0.37053 0.06618 -0.12975
 C409 C -0.12488 0.65736 -0.30474
 C410 C -0.14223 0.69537 -0.23227
 C411 C -0.16602 0.67774 -0.26544
 C412 C -0.17207 0.62353 -0.37058
 C413 C -0.15462 0.58734 -0.44293
 C414 C -0.13080 0.61086 -0.40984
 C415 C -0.11338 0.59136 -0.48325
 C416 C -0.11950 0.54536 -0.58682
 C417 C -0.14289 0.51398 -0.61935
 C418 C -0.16034 0.53409 -0.54861
 C419 C -0.18320 0.71878 -0.19236
 C420 C -0.17687 0.77925 -0.08946
 C421 C -0.15345 0.79925 -0.05723
 C422 C -0.13626 0.75664 -0.12730
 C423 C -0.19513 0.63053 -0.40516
 C424 C -0.21329 0.64628 -0.43632
 C425 C -0.10078 0.67225 -0.27177
 C426 C -0.08051 0.69066 -0.24602
 H427 H -0.09494 0.61091 -0.46161
 H428 H -0.10602 0.53200 -0.64193
 H429 H -0.14757 0.47748 -0.69967
 H430 H -0.17833 0.51075 -0.57751
 H431 H -0.20161 0.70556 -0.21416
 H432 H -0.19015 0.81206 -0.03452
 H433 H -0.14860 0.84666 0.02271
 H434 H -0.11829 0.77426 -0.09848
 C435 C 0.37318 0.71127 0.21507
 C436 C 0.36602 0.64105 0.27027
 C437 C 0.34224 0.63012 0.29400
 C438 C 0.32603 0.69169 0.26467
 C439 C 0.33276 0.75313 0.20200
 C440 C 0.35653 0.76264 0.17668
 C441 C 0.36313 0.82544 0.11486
 C442 C 0.34659 0.87694 0.07853
 C443 C 0.32327 0.86753 0.10326
 C444 C 0.31635 0.80681 0.16489
 C445 C 0.33537 0.56171 0.35115
 C446 C 0.35175 0.51051 0.38793
 C447 C 0.37521 0.52328 0.36671
 C448 C 0.38230 0.58559 0.30681
 C449 C 0.30376 0.70427 0.31212
 C450 C 0.28659 0.71288 0.36118
 C451 C 0.39784 0.73495 0.20370
 C452 C 0.41864 0.74853 0.19812
 H453 H 0.38103 0.83404 0.09312
 H454 H 0.35195 0.92399 0.03080
 H455 H 0.31047 0.90715 0.07438
 H456 H 0.29804 0.80062 0.18204
 H457 H 0.31732 0.54788 0.36890
 H458 H 0.34594 0.45943 0.43179
 H459 H 0.38799 0.48304 0.39493
 H460 H 0.40067 0.59118 0.29088
 C461 C -0.12707 1.20801 0.20920
 C462 C -0.14519 1.24723 0.16744
 C463 C -0.16829 1.24047 0.20171
 C464 C -0.17286 1.19361 0.27653
 C465 C -0.15537 1.13982 0.30734
 C466 C -0.13226 1.14885 0.27494
 C467 C -0.11446 1.10442 0.31440
 C468 C -0.11927 1.05791 0.38721
 C469 C -0.14200 1.04762 0.41769
 C470 C -0.16007 1.08368 0.37576
 C471 C -0.18622 1.28145 0.16045
 C472 C -0.18155 1.32471 0.08487
 C473 C -0.15894 1.33065 0.05104
 C474 C -0.14078 1.29445 0.09297
 C475 C -0.19423 1.21227 0.33160
 C476 C -0.21099 1.22646 0.38389
 C477 C -0.10279 1.23379 0.19223
 C478 C -0.08194 1.24768 0.18735
 H479 H -0.09645 1.11009 0.29342
 H480 H -0.10506 1.03421 0.42255
 H481 H -0.14552 1.01860 0.47862
 H482 H -0.17744 1.07403 0.40249
 H483 H -0.20406 1.27655 0.18391
 H484 H -0.19560 1.35191 0.05127
 H485 H -0.15555 1.35987 -0.01025
 H486 H -0.12350 1.29915 0.06373
 C487 C 0.62330 0.35088 0.27619
 C488 C 0.62273 0.27854 0.33305
 C489 C 0.64394 0.24933 0.36516
 C490 C 0.66585 0.29790 0.34503
 C491 C 0.66641 0.36768 0.28559
 C492 C 0.64514 0.39191 0.24930
 C493 C 0.64630 0.45758 0.18688
 C494 C 0.66780 0.49899 0.16142
 C495 C 0.68850 0.47760 0.19846
 C496 C 0.68793 0.41344 0.26034
 C497 C 0.64257 0.17251 0.41791
 C498 C 0.62093 0.12794 0.43969
 C499 C 0.60036 0.15924 0.41107
 C500 C 0.60113 0.23363 0.35844
 C501 C 0.68774 0.27873 0.38681
 C502 C 0.70610 0.26604 0.42181
 C503 C 0.60124 0.38016 0.24485
 C504 C 0.58221 0.39848 0.22064
 H505 H 0.63064 0.47794 0.15757
 H506 H 0.66843 0.54964 0.11404
 H507 H 0.70513 0.51120 0.17938
 H508 H 0.70452 0.39926 0.28729
 H509 H 0.65814 0.14680 0.44311
 H510 H 0.61984 0.06913 0.47928
 H511 H 0.58368 0.12537 0.42947
 H512 H 0.58457 0.25494 0.33763
 C513 C 0.11677 0.79773 0.27017
 C514 C 0.13775 0.81661 0.22407
 C515 C 0.15966 0.79779 0.25966
 C516 C 0.16064 0.75942 0.34118
 C517 C 0.13947 0.73448 0.38344
 C518 C 0.11761 0.75448 0.34848
 C519 C 0.09689 0.73127 0.39379
 C520 C 0.09760 0.68995 0.47142
 C521 C 0.11881 0.66982 0.50489
 C522 C 0.13954 0.69043 0.46114
 C523 C 0.18023 0.81769 0.21191
 C524 C 0.17932 0.85541 0.13191
 C525 C 0.15804 0.87504 0.09814
 C526 C 0.13745 0.85591 0.14336
 C527 C 0.18337 0.74724 0.38178
 C528 C 0.20240 0.73858 0.41441
 C529 C 0.09449 0.82756 0.24050
 C530 C 0.07602 0.85293 0.21712
 H531 H 0.07992 0.74481 0.36982
 H532 H 0.08161 0.67398 0.50615
 H533 H 0.11919 0.64014 0.56663
 H534 H 0.15560 0.67275 0.48964
 H535 H 0.19721 0.80350 0.23531
 H536 H 0.19522 0.86949 0.09585
 H537 H 0.15746 0.90460 0.03611
 H538 H 0.12130 0.87155 0.11396
   
