data_POSCAR
  _audit_creation_date              2014-09-24
  _audit_creation_method            'ToBaCCo'
  _symmetry_space_group_name_H-M    'P1'
  _symmetry_Int_Tables_number       1
  _symmetry_cell_setting            triclinic
  loop_
  _symmetry_equiv_pos_as_xyz
 x,y,z
_cell_length_a 32.8033
_cell_length_b 32.8047
_cell_length_c 32.8241
_cell_angle_alpha 76.789600
_cell_angle_beta 103.152500
_cell_angle_gamma 77.177900
loop_
  _atom_site_label
  _atom_site_type_symbol
  _atom_site_fract_x
  _atom_site_fract_y
  _atom_site_fract_z
O1 O 0.56162 0.47959 0.03727
 O2 O 0.44615 0.49198 0.03325
 O3 O 0.51139 0.42799 0.03786
 O4 O 0.49634 0.54360 0.03328
 O5 O 0.47770 0.56222 -0.03903
 O6 O 0.49266 0.44642 -0.03445
 O7 O 0.42755 0.51053 -0.03905
 O8 O 0.54285 0.49806 -0.03503
 Cu9 Cu 0.50578 0.48397 0.04271
 Cu10 Cu 0.48335 0.50619 -0.04419
 C11 C 0.57167 0.48696 0.00173
 C12 C 0.41742 0.50296 -0.00357
 C13 C 0.50415 0.41774 0.00247
 C14 C 0.48473 0.57239 -0.00356
 O15 O -0.04949 0.58399 0.46777
 O16 O -0.04566 0.46835 0.48053
 O17 O -0.04585 0.51866 0.53190
 O18 O -0.05034 0.53401 0.41619
 O19 O 0.02190 0.51548 0.43467
 O20 O 0.02640 0.50023 0.55049
 O21 O 0.02657 0.45000 0.49910
 O22 O 0.02274 0.56538 0.48625
 Cu23 Cu -0.05512 0.52809 0.47226
 Cu24 Cu 0.03168 0.50591 0.49449
 C25 C -0.01392 0.59413 0.47517
 C26 C -0.00888 0.43971 0.49164
 C27 C -0.00905 0.50724 0.56067
 C28 C -0.01496 0.52702 0.40594
 O29 O 0.51306 0.02106 0.56601
 O30 O 0.50038 0.02490 0.45053
 O31 O 0.44870 0.02575 0.50051
 O32 O 0.56439 0.02126 0.51582
 O33 O 0.58274 -0.05100 0.53462
 O34 O 0.46676 -0.04650 0.51942
 O35 O 0.51851 -0.04734 0.46944
 O36 O 0.53131 -0.05118 0.58481
 Cu37 Cu 0.50480 0.03052 0.50632
 Cu38 Cu 0.52664 -0.05630 0.52895
 C39 C 0.52404 -0.01570 0.59486
 C40 C 0.50767 -0.01065 0.44057
 C41 C 0.43821 -0.00960 0.50774
 C42 C 0.59305 -0.01551 0.52746
 C43 C 0.50244 -0.02709 0.02905
 C44 C 0.50785 0.00440 -0.00264
 C45 C 0.51172 -0.00226 -0.04506
 C46 C 0.50955 0.04770 0.00294
 C47 C 0.50205 -0.02170 0.07275
 C48 C 0.49685 -0.06884 0.02186
 C49 C 0.54429 -0.03737 -0.04665
 C50 C 0.54837 -0.04205 -0.08700
 C51 C 0.52016 -0.01152 -0.12604
 C52 C 0.48778 0.02351 -0.12457
 C53 C 0.48366 0.02820 -0.08436
 C54 C 0.54484 0.06326 -0.00359
 C55 C 0.54586 0.10487 -0.00077
 C56 C 0.51149 0.13145 0.00835
 C57 C 0.47622 0.11614 0.01503
 C58 C 0.47515 0.07448 0.01219
 C59 C 0.46705 -0.02773 0.08900
 C60 C 0.46677 -0.02410 0.13054
 C61 C 0.50161 -0.01468 0.15645
 C62 C 0.53673 -0.00879 0.14056
 C63 C 0.53706 -0.01244 0.09898
 C64 C 0.46328 -0.06920 -0.01328
 C65 C 0.45835 -0.10889 -0.01927
 C66 C 0.48665 -0.14849 0.01002
 C67 C 0.51978 -0.14828 0.04533
 C68 C 0.52477 -0.10869 0.05132
 H69 H 0.56679 -0.06074 -0.01672
 H70 H 0.57368 -0.06917 -0.08776
 H71 H 0.46585 0.04737 -0.15454
 H72 H 0.45853 0.05563 -0.08384
 H73 H 0.57148 0.04321 -0.01108
 H74 H 0.57317 0.11650 -0.00620
 H75 H 0.44723 0.06342 0.01644
 H76 H 0.43991 -0.03518 0.06943
 H77 H 0.43953 -0.02893 0.14256
 H78 H 0.56402 -0.00181 0.16045
 H79 H 0.56479 -0.00855 0.08745
 H80 H 0.44089 -0.03880 -0.03587
 H81 H 0.43247 -0.10872 -0.04658
 H82 H 0.54178 -0.17873 0.06824
 H83 H 0.55064 -0.10908 0.07875
 H84 H 0.44930 0.13661 0.02177
 C85 C -0.02584 0.50263 0.97137
 C86 C 0.00590 0.50792 1.00285
 C87 C 0.04945 0.50880 0.99732
 C88 C -0.00089 0.51282 1.04489
 C89 C -0.06800 0.49810 0.97844
 C90 C -0.02037 0.50157 0.92790
 C91 C 0.07589 0.47392 0.98839
 C92 C 0.11775 0.47428 0.98559
 C93 C 0.13362 0.50932 0.99197
 C94 C 0.10738 0.54416 1.00077
 C95 C 0.06559 0.54385 1.00356
 C96 C 0.02904 0.48482 1.08449
 C97 C 0.02414 0.48983 1.12435
 C98 C -0.01055 0.52304 1.12511
 C99 C -0.04051 0.55123 1.08576
 C100 C -0.03562 0.54626 1.04576
 C101 C -0.10751 0.52612 0.94843
 C102 C -0.14746 0.52195 0.95410
 C103 C -0.14843 0.48954 0.98967
 C104 C -0.10917 0.46119 1.01957
 C105 C -0.06911 0.46531 1.01390
 C106 C -0.01073 0.53616 0.90143
 C107 C -0.00688 0.53522 0.86007
 C108 C -0.01297 0.49991 0.84467
 C109 C -0.02281 0.46550 0.87080
 C110 C -0.02663 0.46639 0.91213
 H111 H 0.06441 0.44617 0.98435
 H112 H 0.13792 0.44700 0.97907
 H113 H 0.11940 0.57133 1.00596
 H114 H 0.04584 0.57088 1.01078
 H115 H 0.05617 0.45905 1.08448
 H116 H 0.04755 0.46792 1.15461
 H117 H -0.05856 0.56870 1.01554
 H118 H -0.10736 0.55142 0.92074
 H119 H -0.17762 0.54398 0.93070
 H120 H -0.10954 0.43584 1.04708
 H121 H -0.03901 0.44283 1.03694
 H122 H -0.00667 0.56402 0.91262
 H123 H 0.00040 0.56217 0.83997
 H124 H -0.02780 0.43814 0.85910
 H125 H -0.03439 0.43958 0.93192
 H126 H -0.06736 0.57717 1.08600
 C127 C 0.02135 -0.00843 0.49645
 C128 C -0.00963 0.02273 0.50287
 C129 C -0.05099 0.01489 0.50917
 C130 C -0.00434 0.06651 0.50336
 C131 C 0.06489 -0.00303 0.49526
 C132 C 0.01375 -0.05026 0.49127
 C133 C -0.09125 0.04424 0.48209
 C134 C -0.13041 0.03758 0.48784
 C135 C -0.12979 0.00169 0.52089
 C136 C -0.08978 -0.02749 0.54835
 C137 C -0.05052 -0.02084 0.54266
 C138 C 0.00437 0.09314 0.46820
 C139 C 0.00644 0.13537 0.46789
 C140 C -0.00044 0.15147 0.50255
 C141 C -0.00890 0.12501 0.53773
 C142 C -0.01096 0.08285 0.53809
 C143 C 0.09175 0.00596 0.53001
 C144 C 0.13383 0.00802 0.52978
 C145 C 0.14956 0.00084 0.49500
 C146 C 0.12286 -0.00787 0.46020
 C147 C 0.08082 -0.00992 0.46038
 C148 C 0.04369 -0.09018 0.51847
 C149 C 0.03743 -0.12976 0.51364
 C150 C 0.00134 -0.12995 0.48138
 C151 C -0.02851 -0.09029 0.45385
 C152 C -0.02225 -0.05060 0.45863
 H153 H -0.09229 0.07210 0.45629
 H154 H -0.16118 0.06041 0.46648
 H155 H -0.08894 -0.05525 0.57417
 H156 H -0.01979 -0.04337 0.56442
 H157 H 0.00865 0.08158 0.44064
 H158 H 0.01270 0.15567 0.44034
 H159 H -0.01803 0.06300 0.56534
 H160 H 0.08047 0.01044 0.55768
 H161 H 0.15435 0.01446 0.55704
 H162 H 0.13477 -0.01368 0.43323
 H163 H 0.06077 -0.01723 0.43346
 H164 H 0.07177 -0.09064 0.54365
 H165 H 0.06078 -0.16023 0.53505
 H166 H -0.05644 -0.09005 0.42862
 H167 H -0.04527 -0.02018 0.43677
 H168 H -0.01445 0.13717 0.56464
 C169 C -0.38368 0.48361 1.00292
 C170 C -0.34653 0.48191 1.00316
 C171 C -0.30347 0.48115 1.00251
 C172 C -0.26715 0.48152 1.00109
 C173 C -0.22518 0.48314 0.99834
 C174 C -0.18987 0.48551 0.99498
 C175 C 0.37519 0.50571 0.99497
 C176 C 0.33783 0.50731 0.99367
 C177 C 0.29427 0.50836 0.99229
 C178 C 0.25725 0.50879 0.99140
 C179 C 0.21406 0.50895 0.99085
 C180 C 0.17732 0.50905 0.99096
 C181 C -0.01489 -0.36367 0.47221
 C182 C -0.01489 -0.32661 0.47079
 C183 C -0.01379 -0.28375 0.47052
 C184 C -0.01189 -0.24766 0.47141
 C185 C -0.00852 -0.20601 0.47371
 C186 C -0.00461 -0.17101 0.47667
 C187 C -0.00728 0.39494 0.49494
 C188 C -0.00572 0.35742 0.49695
 C189 C -0.00382 0.31358 0.49864
 C190 C -0.00235 0.27627 0.49971
 C191 C -0.00099 0.23270 0.50069
 C192 C -0.00035 0.19561 0.50148
 C193 C 0.52706 -0.01703 -0.36288
 C194 C 0.52870 -0.01799 -0.32559
 C195 C 0.52934 -0.01861 -0.28228
 C196 C 0.52884 -0.01850 -0.24570
 C197 C 0.52703 -0.01741 -0.20337
 C198 C 0.52446 -0.01542 -0.16778
 C199 C 0.50458 -0.00946 0.39595
 C200 C 0.50297 -0.00896 0.35876
 C201 C 0.50197 -0.00894 0.31550
 C202 C 0.50163 -0.00943 0.27880
 C203 C 0.50160 -0.01060 0.23604
 C204 C 0.50166 -0.01215 0.19969
 C205 C 0.48054 -0.38285 -0.00491
 C206 C 0.47831 -0.34564 -0.00517
 C207 C 0.47720 -0.30260 -0.00437
 C208 C 0.47749 -0.26637 -0.00270
 C209 C 0.47928 -0.22460 0.00045
 C210 C 0.48201 -0.18955 0.00421
 C211 C 0.50789 0.37297 0.00425
 C212 C 0.50997 0.33551 0.00577
 C213 C 0.51138 0.29188 0.00741
 C214 C 0.51192 0.25482 0.00851
 C215 C 0.51199 0.21166 0.00925
 C216 C 0.51180 0.17499 0.00926
 C217 C -0.36224 -0.01671 0.53134
 C218 C -0.32517 -0.01664 0.53309
 C219 C -0.28239 -0.01529 0.53348
 C220 C -0.24645 -0.01306 0.53248
 C221 C -0.20508 -0.00919 0.52981
 C222 C -0.17040 -0.00481 0.52636
 C223 C 0.39330 -0.00773 0.50361
 C224 C 0.35566 -0.00588 0.50102
 C225 C 0.31170 -0.00363 0.49882
 C226 C 0.27431 -0.00185 0.49748
 C227 C 0.23070 -0.00017 0.49640
 C228 C 0.19361 0.00071 0.49570
 C229 C -0.01660 0.53103 1.36115
 C230 C -0.01767 0.53305 1.32380
 C231 C -0.01834 0.53390 1.28050
 C232 C -0.01818 0.53333 1.24397
 C233 C -0.01692 0.53118 1.20184
 C234 C -0.01473 0.52812 1.16647
 C235 C -0.00763 0.50329 0.60542
 C236 C -0.00699 0.50111 0.64271
 C237 C -0.00689 0.49966 0.68603
 C238 C -0.00737 0.49914 0.72273
 C239 C -0.00862 0.49913 0.76541
 C240 C -0.01027 0.49943 0.80164
   
