data_POSCAR
  _audit_creation_date              2014-09-24
  _audit_creation_method            'ToBaCCo'
  _symmetry_space_group_name_H-M    'P1'
  _symmetry_Int_Tables_number       1
  _symmetry_cell_setting            triclinic
  loop_
  _symmetry_equiv_pos_as_xyz
 x,y,z
_cell_length_a 33.0827
_cell_length_b 32.8969
_cell_length_c 19.5636
_cell_angle_alpha 89.635800
_cell_angle_beta 89.718600
_cell_angle_gamma 89.251500
loop_
  _atom_site_label
  _atom_site_type_symbol
  _atom_site_fract_x
  _atom_site_fract_y
  _atom_site_fract_z
C1 C -0.04626 0.25073 0.03895
 C2 C -0.04592 0.25517 -0.03384
 C3 C -0.00842 0.25974 -0.06729
 C4 C 0.02882 0.25825 -0.03216
 C5 C 0.02774 0.25589 0.04051
 C6 C -0.00941 0.25084 0.07398
 H7 H -0.00986 0.25035 0.12943
 H8 H -0.00812 0.25997 -0.12262
 C9 C 0.47101 0.77791 0.54619
 C10 C 0.46765 0.77434 0.47394
 C11 C 0.50306 0.76733 0.43517
 C12 C 0.54119 0.76254 0.46582
 C13 C 0.54419 0.76534 0.53789
 C14 C 0.50919 0.77318 0.57658
 H15 H 0.51181 0.77592 0.63160
 H16 H 0.50079 0.76377 0.38029
 C17 C 1.04561 0.74149 0.03412
 C18 C 1.04235 0.73552 -0.03731
 C19 C 1.00434 0.72959 -0.06665
 C20 C 0.96833 0.72903 -0.02730
 C21 C 0.97185 0.73370 0.04521
 C22 C 1.01007 0.74088 0.07370
 H23 H 1.01247 0.74341 0.12876
 H24 H 1.00304 0.72834 -0.12188
 C25 C 0.52872 0.23424 0.53979
 C26 C 0.52734 0.23232 0.46760
 C27 C 0.49008 0.23627 0.43429
 C28 C 0.45408 0.24299 0.47084
 C29 C 0.45548 0.24621 0.54305
 C30 C 0.49265 0.24088 0.57618
 H31 H 0.49373 0.24312 0.63140
 H32 H 0.48925 0.23465 0.37895
 C33 C 0.72344 -0.04678 0.04622
 C34 C 0.72464 -0.04879 -0.02650
 C35 C 0.71994 -0.01326 -0.06508
 C36 C 0.71618 0.02491 -0.03442
 C37 C 0.71614 0.02754 0.03789
 C38 C 0.71787 -0.00848 0.07698
 H39 H 0.71913 -0.00618 0.13213
 H40 H 0.71947 -0.01543 -0.12038
 C41 C 0.21531 0.48028 0.54526
 C42 C 0.21519 0.47449 0.47332
 C43 C 0.21711 0.50864 0.42992
 C44 C 0.21954 0.54813 0.45583
 C45 C 0.22168 0.55379 0.52730
 C46 C 0.21943 0.51989 0.57099
 H47 H 0.22063 0.52452 0.62577
 H48 H 0.21770 0.50453 0.37505
 C49 C 0.27726 1.05451 0.03011
 C50 C 0.27430 1.05158 -0.04297
 C51 C 0.27048 1.01266 -0.07228
 C52 C 0.27264 0.97669 -0.03335
 C53 C 0.27719 0.97956 0.03829
 C54 C 0.27895 1.01797 0.06856
 H55 H 0.27973 1.01889 0.12385
 H56 H 0.26777 1.01000 -0.12724
 C57 C 0.78155 0.52561 0.54210
 C58 C 0.78334 0.52561 0.46974
 C59 C 0.78417 0.48861 0.43498
 C60 C 0.78139 0.45135 0.46985
 C61 C 0.77839 0.45140 0.54220
 C62 C 0.77999 0.48848 0.57725
 H63 H 0.77716 0.48868 0.63250
 H64 H 0.78625 0.48898 0.37964
 O65 O 0.20386 0.28516 0.17590
 O66 O 0.30231 0.27400 0.26204
 O67 O 0.26403 0.23441 0.16625
 O68 O 0.24211 0.32511 0.26943
 O69 O 0.21536 0.28641 0.35019
 O70 O 0.23822 0.19519 0.24714
 O71 O 0.27439 0.23528 0.34138
 O72 O 0.17682 0.24580 0.25514
 Cu73 Cu 0.25593 0.28348 0.21033
 Cu74 Cu 0.22302 0.23680 0.30620
 C75 C 0.17357 0.26684 0.20074
 C76 C 0.30494 0.25331 0.31704
 C77 C 0.25497 0.19949 0.18905
 C78 C 0.22567 0.32111 0.32775
 O79 O 0.69411 0.73303 0.25466
 O80 O 0.79510 0.71936 0.17832
 O81 O 0.75105 0.67860 0.26301
 O82 O 0.74027 0.77690 0.17528
 O83 O 0.76255 0.80854 0.26675
 O84 O 0.78228 0.70914 0.34765
 O85 O 0.82189 0.75423 0.26243
 O86 O 0.72158 0.75935 0.34688
 Cu87 Cu 0.74235 0.72415 0.20866
 Cu88 Cu 0.77479 0.76128 0.31456
 C89 C 0.69084 0.74692 0.31477
 C90 C 0.82573 0.73442 0.20703
 C91 C 0.76911 0.67712 0.32012
 C92 C 0.74889 0.80939 0.20637
 O93 O 0.80463 0.22610 0.25206
 O94 O 0.70572 0.21759 0.33823
 O95 O 0.74574 0.17519 0.24871
 O96 O 0.76673 0.26841 0.34493
 O97 O 0.73812 0.30506 0.26309
 O98 O 0.71894 0.21233 0.16545
 O99 O 0.67814 0.25518 0.25638
 O100 O 0.77630 0.26400 0.17143
 Cu101 Cu 0.75837 0.21822 0.30473
 Cu102 Cu 0.72465 0.26282 0.20614
 C103 C 0.80714 0.24629 0.19659
 C104 C 0.67511 0.23499 0.31152
 C105 C 0.72974 0.17810 0.19006
 C106 C 0.75655 0.30271 0.31979
 O107 O 0.26538 0.69770 0.24819
 O108 O 0.28323 0.79821 0.16951
 O109 O 0.32055 0.75420 0.26019
 O110 O 0.22698 0.74412 0.15977
 O111 O 0.19224 0.77539 0.24098
 O112 O 0.28440 0.78025 0.34487
 O113 O 0.24875 0.82745 0.25315
 O114 O 0.22722 0.72683 0.32726
 Cu115 Cu 0.27763 0.74540 0.20139
 Cu116 Cu 0.23502 0.78035 0.30041
 C117 C 0.24239 0.69508 0.30020
 C118 C 0.26866 0.82991 0.19757
 C119 C 0.31817 0.76893 0.31991
 C120 C 0.19384 0.75887 0.18258
 O121 O 0.76497 0.26997 0.66293
 O122 O 0.74979 0.17303 0.75306
 O123 O 0.71013 0.21534 0.66368
 O124 O 0.80870 0.22584 0.74800
 O125 O 0.77788 0.25385 0.83684
 O126 O 0.68137 0.25151 0.74584
 O127 O 0.71668 0.20531 0.83510
 O128 O 0.73986 0.30247 0.75257
 Cu129 Cu 0.76184 0.21772 0.69853
 Cu130 Cu 0.72618 0.25664 0.80138
 C131 C 0.75471 0.30268 0.69276
 C132 C 0.72942 0.17255 0.80834
 C133 C 0.67913 0.23240 0.68977
 C134 C 0.80976 0.24083 0.80751
 O135 O 0.31711 0.75659 0.74864
 O136 O 0.21646 0.73560 0.81986
 O137 O 0.26366 0.70123 0.72872
 O138 O 0.27008 0.79178 0.83852
 O139 O 0.24678 0.83041 0.75424
 O140 O 0.23092 0.73827 0.65187
 O141 O 0.18888 0.77838 0.74553
 O142 O 0.28915 0.79175 0.66440
 Cu143 Cu 0.26949 0.74247 0.79206
 Cu144 Cu 0.23591 0.78812 0.69538
 C145 C 0.32040 0.77734 0.69399
 C146 C 0.18578 0.75455 0.79659
 C147 C 0.24559 0.70434 0.67181
 C148 C 0.26059 0.82656 0.81435
 O149 O 0.24261 0.33089 0.76301
 O150 O 0.27043 0.23075 0.83577
 O151 O 0.30494 0.28182 0.75579
 O152 O 0.20727 0.27745 0.84532
 O153 O 0.17978 0.24941 0.75458
 O154 O 0.27760 0.25335 0.66522
 O155 O 0.24265 0.20107 0.74696
 O156 O 0.21486 0.30132 0.67411
 Cu157 Cu 0.25873 0.28366 0.80895
 Cu158 Cu 0.22599 0.24830 0.70125
 C159 C 0.22455 0.33326 0.70585
 C160 C 0.26130 0.19876 0.80362
 C161 C 0.30787 0.26796 0.69563
 C162 C 0.17713 0.26213 0.81551
 O163 O 0.72512 0.76323 0.67081
 O164 O 0.82063 0.74526 0.76334
 O165 O 0.77945 0.70633 0.67221
 O166 O 0.76480 0.80179 0.76542
 O167 O 0.72830 0.76963 0.84299
 O168 O 0.74959 0.67276 0.75633
 O169 O 0.78645 0.71648 0.84769
 O170 O 0.69254 0.72748 0.74891
 Cu171 Cu 0.77586 0.75759 0.70985
 Cu172 Cu 0.73586 0.71826 0.80716
 C173 C 0.69278 0.74727 0.69292
 C174 C 0.81952 0.72869 0.82207
 C175 C 0.76714 0.67339 0.69857
 C176 C 0.74395 0.80203 0.82010
 C177 C 0.25315 0.12596 0.04281
 C178 C 0.27534 0.09196 0.06661
 C179 C 0.29494 0.09674 0.13060
 C180 C 0.28881 0.13188 0.17045
 C181 C 0.26378 0.16373 0.14693
 C182 C 0.24834 0.16107 0.08103
 C183 C 0.20617 0.16793 0.05677
 C184 C 0.21132 0.12952 0.01471
 H185 H 0.31486 0.07328 0.15073
 H186 H 0.30303 0.13382 0.22006
 H187 H 0.20348 0.19603 0.02534
 H188 H 0.18342 0.16506 0.09839
 H189 H 0.21112 0.13590 -0.04108
 H190 H 0.19155 0.10430 0.03180
 C191 C 0.75129 0.59460 0.56498
 C192 C 0.77900 0.56372 0.58208
 C193 C 0.80562 0.57097 0.63672
 C194 C 0.80200 0.60685 0.67549
 C195 C 0.77192 0.63600 0.65968
 C196 C 0.74844 0.63024 0.60170
 C197 C 0.70359 0.63253 0.59342
 C198 C 0.70688 0.59323 0.55302
 H199 H 0.82858 0.54860 0.65017
 H200 H 0.82207 0.61150 0.71822
 H201 H 0.69400 0.65910 0.56173
 H202 H 0.68708 0.62917 0.64275
 H203 H 0.69918 0.59726 0.49814
 H204 H 0.69245 0.56693 0.57895
 C205 C 0.75839 0.88858 0.06977
 C206 C 0.72994 0.91859 0.08818
 C207 C 0.70792 0.91229 0.14957
 C208 C 0.71451 0.87709 0.18975
 C209 C 0.74383 0.84807 0.17019
 C210 C 0.76492 0.85405 0.10939
 C211 C 0.80964 0.85650 0.10023
 C212 C 0.80241 0.89356 0.05555
 H213 H 0.68480 0.93384 0.16558
 H214 H 0.69656 0.87238 0.23550
 H215 H 0.82223 0.83007 0.07214
 H216 H 0.82534 0.86376 0.14866
 H217 H 0.81023 0.88815 0.00105
 H218 H 0.81462 0.92200 0.07735
 C219 C 0.23710 0.44255 0.65134
 C220 C 0.21139 0.44597 0.59486
 C221 C 0.18274 0.41497 0.58629
 C222 C 0.18527 0.37878 0.62528
 C223 C 0.21565 0.37350 0.67509
 C224 C 0.23913 0.40726 0.69056
 C225 C 0.28383 0.41045 0.69891
 C226 C 0.28151 0.44916 0.65613
 H227 H 0.16043 0.41734 0.54610
 H228 H 0.16509 0.35414 0.61361
 H229 H 0.30076 0.38529 0.67342
 H230 H 0.29240 0.41595 0.75290
 H231 H 0.29715 0.44653 0.60587
 H232 H 0.28861 0.47694 0.68556
 C233 C 0.88413 0.27370 0.06262
 C234 C 0.91792 0.24947 0.07868
 C235 C 0.91427 0.22296 0.13569
 C236 C 0.87847 0.22203 0.17488
 C237 C 0.84562 0.24798 0.15882
 C238 C 0.84884 0.27251 0.10056
 C239 C 0.84181 0.31723 0.09225
 C240 C 0.88061 0.31834 0.05031
 H241 H 0.93874 0.20233 0.14932
 H242 H 0.87662 0.20112 0.21772
 H243 H 0.84379 0.33385 0.14142
 H244 H 0.81436 0.32418 0.06157
 H245 H 0.90521 0.33553 0.07509
 H246 H 0.87544 0.32573 -0.00450
 C247 C 0.43081 0.76194 0.65181
 C248 C 0.43579 0.78538 0.59243
 C249 C 0.40543 0.81481 0.57825
 C250 C 0.36794 0.81372 0.61321
 C251 C 0.36103 0.78437 0.66485
 C252 C 0.39444 0.76142 0.68700
 C253 C 0.39883 0.71719 0.70358
 C254 C 0.43905 0.71794 0.66545
 H255 H 0.40912 0.83596 0.53611
 H256 H 0.34378 0.83405 0.59700
 H257 H 0.37564 0.69842 0.67813
 H258 H 0.40223 0.71163 0.75936
 H259 H 0.43952 0.69933 0.61823
 H260 H 0.46552 0.71323 0.69948
 C261 C 0.11850 0.72646 0.04897
 C262 C 0.08312 0.74823 0.06682
 C263 C 0.08634 0.77689 0.12012
 C264 C 0.12272 0.78157 0.15599
 C265 C 0.15691 0.75731 0.14056
 C266 C 0.15448 0.73108 0.08486
 C267 C 0.16406 0.68672 0.08390
 C268 C 0.12469 0.68123 0.04618
 H269 H 0.06063 0.79575 0.13449
 H270 H 0.12360 0.80325 0.19736
 H271 H 0.16415 0.67271 0.13580
 H272 H 0.19119 0.67973 0.05213
 H273 H 0.10169 0.66447 0.07650
 H274 H 0.12969 0.66946 -0.00617
 C275 C 0.57327 0.25822 0.63384
 C276 C 0.56673 0.23151 0.57965
 C277 C 0.59502 0.19944 0.57136
 C278 C 0.63175 0.19915 0.60761
 C279 C 0.63995 0.22996 0.65518
 C280 C 0.60877 0.25742 0.67063
 C281 C 0.60875 0.30256 0.67804
 C282 C 0.56929 0.30335 0.63826
 H283 H 0.58910 0.17479 0.53697
 H284 H 0.65385 0.17532 0.59765
 H285 H 0.63424 0.31699 0.65014
 H286 H 0.60497 0.31204 0.73215
 H287 H 0.57164 0.31882 0.58788
 H288 H 0.54280 0.31282 0.66980
 C289 C 0.73814 0.06286 0.86113
 C290 C 0.71364 0.06088 0.91955
 C291 C 0.68715 0.09402 0.93185
 C292 C 0.69096 0.13033 0.89382
 C293 C 0.72042 0.13349 0.84161
 C294 C 0.74126 0.09809 0.82279
 C295 C 0.78525 0.09090 0.80947
 C296 C 0.78175 0.05215 0.85171
 H297 H 0.66552 0.09288 0.97350
 H298 H 0.67236 0.15637 0.90757
 H299 H 0.80448 0.11415 0.83354
 H300 H 0.79168 0.08514 0.75454
 H301 H 0.79896 0.05293 0.90037
 H302 H 0.78609 0.02406 0.82110
 C303 C 0.25300 0.58587 0.35947
 C304 C 0.22137 0.58256 0.40676
 C305 C 0.19097 0.61288 0.40492
 C306 C 0.19695 0.64918 0.36787
 C307 C 0.23263 0.65486 0.32934
 C308 C 0.25835 0.62105 0.32104
 C309 C 0.30329 0.61737 0.32535
 C310 C 0.29729 0.57898 0.36784
 H311 H 0.16384 0.60960 0.43530
 H312 H 0.17461 0.67342 0.37199
 H313 H 0.31685 0.64251 0.35445
 H314 H 0.31739 0.61140 0.27466
 H315 H 0.30716 0.58202 0.42183
 H316 H 0.30800 0.55093 0.34164
 C317 C 0.24937 0.90387 0.95491
 C318 C 0.27164 0.93694 0.93027
 C319 C 0.29451 0.93078 0.86989
 C320 C 0.29158 0.89441 0.83276
 C321 C 0.26648 0.86297 0.85592
 C322 C 0.24738 0.86753 0.91930
 C323 C 0.20393 0.86218 0.93771
 C324 C 0.20622 0.90182 0.97685
 H325 H 0.31385 0.95451 0.85029
 H326 H 0.30811 0.89125 0.78512
 H327 H 0.19920 0.83523 0.97126
 H328 H 0.18381 0.86428 0.89250
 H329 H 0.20289 0.89748 1.03292
 H330 H 0.18735 0.92672 0.95451
 C331 C 0.75710 0.41324 0.36838
 C332 C 0.78009 0.41377 0.42815
 C333 C 0.80146 0.37776 0.44570
 C334 C 0.79448 0.34130 0.41010
 C335 C 0.76683 0.34056 0.35534
 C336 C 0.75079 0.37776 0.33280
 C337 C 0.70822 0.38973 0.31628
 C338 C 0.71529 0.42880 0.35528
 H339 H 0.82177 0.37725 0.48893
 H340 H 0.80958 0.31362 0.42690
 H341 H 0.68578 0.36962 0.34129
 H342 H 0.70378 0.39475 0.26057
 H343 H 0.69689 0.43137 0.40282
 H344 H 0.71512 0.45631 0.32201
 C345 C 0.06722 0.27260 0.86223
 C346 C 0.06523 0.25623 0.92885
 C347 C 0.10029 0.23495 0.95172
 C348 C 0.13682 0.23669 0.91462
 C349 C 0.13882 0.25805 0.85237
 C350 C 0.10289 0.27314 0.82474
 C351 C 0.09376 0.31410 0.79515
 C352 C 0.05467 0.31368 0.83627
 H353 H 0.10000 0.21717 0.99836
 H354 H 0.16356 0.22176 0.93480
 H355 H 0.08885 0.31291 0.73904
 H356 H 0.11530 0.33760 0.81219
 H357 H 0.02730 0.31249 0.80366
 H358 H 0.05350 0.33690 0.87734
 C359 C 0.58380 0.77634 0.36151
 C360 C 0.57671 0.75348 0.42098
 C361 C 0.60483 0.72201 0.43623
 C362 C 0.64210 0.71951 0.40104
 C363 C 0.65103 0.74724 0.34813
 C364 C 0.62001 0.77316 0.32570
 C365 C 0.62035 0.81762 0.31006
 C366 C 0.58039 0.82099 0.34873
 H367 H 0.59930 0.70123 0.47826
 H368 H 0.66443 0.69701 0.41680
 H369 H 0.61736 0.82394 0.25442
 H370 H 0.64558 0.83348 0.33558
 H371 H 0.55439 0.82885 0.31517
 H372 H 0.58219 0.83913 0.39632
 C373 C 0.89451 0.74300 0.96313
 C374 C 0.93061 0.72533 0.93814
 C375 C 0.92739 0.70395 0.87538
 C376 C 0.89109 0.70411 0.83775
 C377 C 0.85663 0.72471 0.86240
 C378 C 0.85853 0.74197 0.92703
 C379 C 0.84619 0.78365 0.94861
 C380 C 0.88557 0.78508 0.98807
 H381 H 0.95286 0.68713 0.85449
 H382 H 0.89023 0.68887 0.78888
 H383 H 0.81883 0.78310 0.98173
 H384 H 0.84477 0.80563 0.90522
 H385 H 0.88044 0.78601 1.04409
 H386 H 0.90715 0.80785 0.96777
 C387 C 0.38154 0.22539 0.45191
 C388 C 0.41587 0.24687 0.43214
 C389 C 0.41229 0.27379 0.37598
 C390 C 0.37625 0.27611 0.33795
 C391 C 0.34314 0.25146 0.35535
 C392 C 0.34609 0.22782 0.41486
 C393 C 0.33758 0.18380 0.42622
 C394 C 0.37648 0.18133 0.46721
 H395 H 0.43755 0.29248 0.36083
 H396 H 0.37464 0.29654 0.29443
 H397 H 0.33880 0.16597 0.37813
 H398 H 0.31004 0.17923 0.45800
 H399 H 0.40035 0.16201 0.44313
 H400 H 0.37114 0.17557 0.52251
 C401 C 0.70621 0.87882 0.94866
 C402 C 0.73004 0.91277 0.93517
 C403 C 0.76105 0.90875 0.88591
 C404 C 0.76567 0.87270 0.84828
 C405 C 0.73937 0.83988 0.85915
 C406 C 0.71110 0.84307 0.91233
 C407 C 0.66661 0.83580 0.91218
 C408 C 0.66147 0.87503 0.95227
 H409 H 0.78132 0.93371 0.87592
 H410 H 0.78943 0.87079 0.81013
 H411 H 0.65851 0.80829 0.94229
 H412 H 0.65346 0.83744 0.86000
 H413 H 0.65066 0.87008 1.00553
 H414 H 0.64540 0.89953 0.92342
 C415 C 0.19096 0.42417 0.38631
 C416 C 0.21569 0.43350 0.44151
 C417 C 0.24312 0.40224 0.46219
 C418 C 0.24496 0.36438 0.42749
 C419 C 0.22002 0.35716 0.37043
 C420 C 0.19315 0.38815 0.35270
 C421 C 0.16313 0.40065 0.30010
 C422 C 0.16034 0.44149 0.33812
 H423 H 0.26396 0.40738 0.50363
 H424 H 0.26702 0.34164 0.44330
 H425 H 0.13504 0.38256 0.30331
 H426 H 0.17691 0.40315 0.24834
 H427 H 0.13063 0.44701 0.36339
 H428 H 0.17204 0.46732 0.30735
 C429 C 0.25537 0.08753 0.85065
 C430 C 0.27784 0.08526 0.91147
 C431 C 0.30436 0.11790 0.92344
 C432 C 0.30084 0.15446 0.88566
 C433 C 0.27197 0.15858 0.83315
 C434 C 0.25225 0.12333 0.81294
 C435 C 0.20886 0.11656 0.79672
 C436 C 0.21224 0.07718 0.83751
 H437 H 0.32583 0.11638 0.96501
 H438 H 0.31893 0.18014 0.90037
 H439 H 0.20403 0.11163 0.74123
 H440 H 0.18837 0.13952 0.82068
 H441 H 0.20953 0.04964 0.80532
 H442 H 0.19345 0.07704 0.88478
 C443 C 0.80589 0.59656 0.44327
 C444 C 0.78124 0.56352 0.42887
 C445 C 0.75053 0.56914 0.37993
 C446 C 0.74677 0.60601 0.34374
 C447 C 0.77343 0.63813 0.35628
 C448 C 0.80172 0.63319 0.40863
 C449 C 0.84638 0.63937 0.40726
 C450 C 0.85076 0.59913 0.44540
 H451 H 0.72944 0.54504 0.36976
 H452 H 0.72307 0.60933 0.30606
 H453 H 0.85534 0.66594 0.43828
 H454 H 0.85917 0.63863 0.35459
 H455 H 0.86205 0.60256 0.49845
 H456 H 0.86600 0.57493 0.41493
 C457 C 0.09793 0.70736 0.88938
 C458 C 0.07729 0.74095 0.91626
 C459 C 0.09325 0.77976 0.90365
 C460 C 0.12741 0.78439 0.86116
 C461 C 0.14690 0.75023 0.83226
 C462 C 0.13257 0.71171 0.84969
 C463 C 0.12015 0.67810 0.80354
 C464 C 0.08262 0.67324 0.84770
 H465 H 0.07900 0.80641 0.92594
 H466 H 0.13892 0.81453 0.85161
 H467 H 0.14118 0.65152 0.80646
 H468 H 0.11318 0.68907 0.75098
 H469 H 0.08231 0.64416 0.87690
 H470 H 0.05412 0.68105 0.82047
 C471 C 0.57666 0.26681 0.39176
 C472 C 0.56393 0.23130 0.42437
 C473 C 0.58370 0.19460 0.40677
 C474 C 0.62018 0.19528 0.36914
 C475 C 0.63554 0.23245 0.34491
 C476 C 0.61146 0.26732 0.35225
 C477 C 0.62245 0.30864 0.37642
 C478 C 0.58438 0.30790 0.42020
 H479 H 0.57211 0.16580 0.42471
 H480 H 0.63668 0.16713 0.36028
 H481 H 0.62098 0.33160 0.33456
 H482 H 0.65081 0.30853 0.40675
 H483 H 0.56116 0.33066 0.40401
 H484 H 0.59084 0.30695 0.47578
 C485 C 0.88768 0.22496 0.94337
 C486 C 0.91885 0.25160 0.92539
 C487 C 0.91292 0.27527 0.86528
 C488 C 0.87782 0.27110 0.82537
 C489 C 0.84802 0.24303 0.84421
 C490 C 0.85279 0.22157 0.90524
 C491 C 0.85112 0.17677 0.91770
 C492 C 0.88924 0.18070 0.96001
 H493 H 0.93485 0.29769 0.84969
 H494 H 0.87385 0.28993 0.78022
 H495 H 0.85599 0.15896 0.87022
 H496 H 0.82421 0.16809 0.94851
 H497 H 0.91603 0.16505 0.93725
 H498 H 0.88413 0.17459 1.01529
 C499 C 0.39309 0.75835 0.46327
 C500 C 0.42810 0.77655 0.43720
 C501 C 0.42446 0.79682 0.37346
 C502 C 0.38850 0.79476 0.33518
 C503 C 0.35496 0.77345 0.36068
 C504 C 0.35720 0.75779 0.42700
 C505 C 0.34723 0.71637 0.45305
 C506 C 0.38645 0.71716 0.49307
 H507 H 0.44985 0.81301 0.35193
 H508 H 0.38720 0.80903 0.28517
 H509 H 0.34756 0.69333 0.41195
 H510 H 0.31982 0.71658 0.48618
 H511 H 0.40930 0.69439 0.47556
 H512 H 0.38112 0.71808 0.54905
 C513 C 0.30636 0.91211 0.07901
 C514 C 0.27773 0.94347 0.08416
 C515 C 0.24762 0.93844 0.13519
 C516 C 0.24555 0.90212 0.17460
 C517 C 0.27352 0.86978 0.16394
 C518 C 0.30398 0.87708 0.11622
 C519 C 0.33911 0.85764 0.08107
 C520 C 0.34215 0.89730 0.03920
 H521 H 0.22467 0.96180 0.14258
 H522 H 0.22105 0.89874 0.21101
 H523 H 0.33013 0.83106 0.05007
 H524 H 0.36500 0.85228 0.11613
 H525 H 0.33580 0.89286 -0.01584
 H526 H 0.36973 0.91497 0.05031
 C527 C 0.79018 0.40672 0.64429
 C528 C 0.76981 0.41439 0.58288
 C529 C 0.73896 0.38740 0.56441
 C530 C 0.73393 0.35068 0.60045
 C531 C 0.75857 0.34134 0.65692
 C532 C 0.78442 0.37110 0.68097
 C533 C 0.82809 0.36782 0.69936
 C534 C 0.83435 0.40697 0.65914
 H535 H 0.72006 0.39374 0.52050
 H536 H 0.71159 0.32926 0.58336
 H537 H 0.84336 0.34091 0.67609
 H538 H 0.83297 0.37131 0.75518
 H539 H 0.85324 0.40284 0.61246
 H540 H 0.84274 0.43303 0.69181
 C541 C 0.69533 0.07584 0.13161
 C542 C 0.71883 0.06696 0.07411
 C543 C 0.74713 0.09709 0.05468
 C544 C 0.74982 0.13415 0.09109
 C545 C 0.72523 0.14146 0.14912
 C546 C 0.69854 0.11099 0.16723
 C547 C 0.66698 0.09970 0.21799
 C548 C 0.66318 0.05980 0.17773
 H549 H 0.76746 0.09192 0.01200
 H550 H 0.77179 0.15645 0.07508
 H551 H 0.63977 0.11978 0.21462
 H552 H 0.67957 0.09540 0.27015
 H553 H 0.63376 0.05684 0.15116
 H554 H 0.67333 0.03254 0.20712
 C555 C 0.19949 0.62448 0.55990
 C556 C 0.22949 0.59417 0.55733
 C557 C 0.26736 0.60283 0.58612
 C558 C 0.27330 0.63941 0.62176
 C559 C 0.24162 0.66823 0.62830
 C560 C 0.20562 0.66099 0.59355
 C561 C 0.16349 0.66173 0.62111
 C562 C 0.15685 0.62183 0.58457
 H563 H 0.29168 0.58052 0.58378
 H564 H 0.30209 0.64452 0.64615
 H565 H 0.14526 0.68742 0.59987
 H566 H 0.16272 0.65865 0.67764
 H567 H 0.13451 0.62462 0.54255
 H568 H 0.15209 0.59573 0.61998
 C569 C 0.93313 0.75381 0.15134
 C570 C 0.93780 0.72820 0.09473
 C571 C 0.90960 0.69655 0.08877
 C572 C 0.87347 0.69740 0.12750
 C573 C 0.86605 0.72853 0.17558
 C574 C 0.89834 0.75385 0.19099
 C575 C 0.90007 0.79864 0.20190
 C576 C 0.93851 0.79850 0.15872
 H577 H 0.91366 0.67343 0.05012
 H578 H 0.85054 0.67510 0.11707
 H579 H 0.90542 0.80634 0.25632
 H580 H 0.87448 0.81516 0.17750
 H581 H 0.96598 0.80572 0.18854
 H582 H 0.93539 0.81534 0.10957
 C583 C 0.41357 0.23724 0.64905
 C584 C 0.41961 0.25664 0.58595
 C585 C 0.39145 0.28743 0.56731
 C586 C 0.35492 0.29221 0.60400
 C587 C 0.34722 0.26779 0.66178
 C588 C 0.37836 0.24287 0.68631
 C589 C 0.37784 0.19949 0.70914
 C590 C 0.41677 0.19339 0.66851
 H591 H 0.39643 0.30604 0.52231
 H592 H 0.33222 0.31366 0.58587
 H593 H 0.35182 0.18261 0.68811
 H594 H 0.38209 0.19632 0.76526
 H595 H 0.41356 0.17277 0.62417
 H596 H 0.44346 0.18698 0.70134
 C597 C 0.06883 0.23977 0.14467
 C598 C 0.06336 0.26282 0.08502
 C599 C 0.09134 0.29405 0.07207
 C600 C 0.12685 0.29683 0.11144
 C601 C 0.13426 0.26927 0.16576
 C602 C 0.10311 0.24302 0.18419
 C603 C 0.10385 0.19853 0.20007
 C604 C 0.06617 0.19506 0.15636
 H605 H 0.08697 0.31468 0.02932
 H606 H 0.14920 0.31916 0.09734
 H607 H 0.09812 0.19230 0.25515
 H608 H 0.13069 0.18259 0.17820
 H609 H 0.03879 0.18682 0.18628
 H610 H 0.07120 0.17730 0.10882
 C611 C 0.61822 0.77932 0.55609
 C612 C 0.58289 0.75906 0.57496
 C613 C 0.58556 0.73096 0.62959
 C614 C 0.62143 0.72666 0.66760
 C615 C 0.65551 0.75038 0.65187
 C616 C 0.65364 0.77487 0.59317
 C617 C 0.66410 0.81852 0.58321
 C618 C 0.62533 0.82323 0.54222
 H619 H 0.55956 0.71311 0.64402
 H620 H 0.62203 0.70559 0.71033
 H621 H 0.69185 0.82221 0.55162
 H622 H 0.66363 0.83583 0.63187
 H623 H 0.63103 0.82935 0.48714
 H624 H 0.60233 0.84335 0.56684
   
