data_POSCAR
  _audit_creation_date              2014-09-24
  _audit_creation_method            'ToBaCCo'
  _symmetry_space_group_name_H-M    'P1'
  _symmetry_Int_Tables_number       1
  _symmetry_cell_setting            triclinic
  loop_
  _symmetry_equiv_pos_as_xyz
 x,y,z
_cell_length_a 14.5449
_cell_length_b 13.7188
_cell_length_c 14.5093
_cell_angle_alpha 89.188000
_cell_angle_beta 89.019600
_cell_angle_gamma 90.561700
loop_
  _atom_site_label
  _atom_site_type_symbol
  _atom_site_fract_x
  _atom_site_fract_y
  _atom_site_fract_z
O1 O 0.11463 0.12047 0.11014
 O2 O -0.20784 -0.07405 0.04617
 O3 O -0.04984 0.15659 0.11027
 O4 O 0.06318 -0.18350 0.11729
 O5 O -0.17750 0.10609 0.05204
 O6 O 0.10438 -0.04336 0.16310
 O7 O -0.10909 -0.16244 0.12331
 O8 O 0.07805 0.24322 0.02248
 C9 C 0.13226 0.20729 0.08394
 C10 C -0.18973 -0.13426 0.11087
 C11 C -0.13597 0.15529 0.11243
 C12 C 0.10129 -0.13227 0.17602
 O13 O 0.16905 -0.10894 -0.00365
 O14 O -0.11109 0.09260 -0.12825
 O15 O 0.05880 0.13157 -0.11551
 O16 O -0.11489 -0.19604 -0.05023
 O17 O -0.13764 -0.06917 -0.13154
 O18 O 0.17383 0.05987 -0.05843
 O19 O 0.05654 -0.19540 -0.05990
 O20 O -0.08292 0.21659 -0.05444
 Co21 Co 0.12741 0.00564 0.04887
 Co22 Co -0.14789 0.01298 -0.03581
 Co23 Co 0.00611 0.13842 -0.00146
 Co24 Co -0.02459 -0.16743 0.03048
 O25 O -0.01388 -0.00855 0.00831
 C26 C 0.13996 -0.17321 -0.05810
 C27 C -0.11996 0.18141 -0.12278
 C28 C 0.14024 0.10554 -0.12469
 C29 C -0.13496 -0.15862 -0.12540
 O30 O 0.43629 0.35907 0.37381
 O31 O 0.55468 0.68619 0.44168
 O32 O 0.30602 0.56940 0.43178
 O33 O 0.71871 0.44040 0.43913
 O34 O 0.38976 0.69027 0.48415
 O35 O 0.59368 0.37409 0.38776
 O36 O 0.60340 0.55612 0.37468
 O37 O 0.30991 0.38600 0.44374
 C38 C 0.35179 0.35886 0.37287
 C39 C 0.58753 0.64574 0.37060
 C40 C 0.32696 0.65813 0.43246
 C41 C 0.68065 0.37751 0.38526
 O42 O 0.58190 0.31591 0.56954
 O43 O 0.43521 0.62896 0.65863
 O44 O 0.33113 0.40173 0.62161
 O45 O 0.68733 0.60801 0.52006
 O46 O 0.58713 0.62453 0.62202
 O47 O 0.41345 0.29175 0.55195
 O48 O 0.64526 0.45188 0.60067
 O49 O 0.30710 0.58097 0.60731
 Co50 Co 0.50451 0.34912 0.47585
 Co51 Co 0.49144 0.64546 0.54818
 Co52 Co 0.32988 0.48547 0.52509
 Co53 Co 0.61872 0.50030 0.48789
 O54 O 0.48073 0.49852 0.51358
 C55 C 0.63714 0.36363 0.61665
 C56 C 0.35152 0.62089 0.66881
 C57 C 0.35501 0.31519 0.61361
 C58 C 0.66675 0.64250 0.59593
 C59 C 0.20813 0.35192 0.28369
 C60 C 0.15476 0.32143 0.21048
 C61 C 0.19368 0.26767 0.13909
 C62 C 0.28865 0.24870 0.13863
 C63 C 0.34190 0.27123 0.21665
 C64 C 0.30116 0.32564 0.29017
 C65 C 0.43204 0.23376 0.21836
 N66 N 0.46723 0.18639 0.14451
 N67 N 0.41912 0.17339 0.06852
 C68 C 0.33117 0.20368 0.06288
 H69 H 0.17509 0.39347 0.33764
 H70 H 0.08150 0.33522 0.21221
 H71 H 0.47537 0.23857 0.27700
 H72 H 0.29445 0.19095 -0.00008
 C73 C 0.68741 0.65952 0.23197
 C74 C 0.74291 0.71364 0.17151
 C75 C 0.73677 0.81533 0.16573
 C76 C 0.66604 0.86236 0.21591
 C77 C 0.60717 0.80651 0.27668
 C78 C 0.62284 0.70464 0.28977
 C79 C 0.53503 0.85528 0.32181
 N80 N 0.52587 0.95304 0.31068
 N81 N 0.58357 1.00552 0.25728
 C82 C 0.65342 0.96362 0.20970
 H83 H 0.70030 0.58207 0.23771
 H84 H 0.79460 0.67557 0.13161
 H85 H 0.48402 0.81686 0.36353
 H86 H 0.69781 1.00982 0.16725
 C87 C 0.70982 0.35342 0.77045
 C88 C 0.77325 0.31408 0.83173
 C89 C 0.82969 0.23662 0.80558
 C90 C 0.82698 0.20356 0.71318
 C91 C 0.76030 0.24082 0.65211
 C92 C 0.69987 0.31528 0.68188
 C93 C 0.75907 0.20453 0.56159
 N94 N 0.82168 0.13813 0.53403
 N95 N 0.88598 0.10563 0.59037
 C96 C 0.89106 0.13611 0.67849
 H97 H 0.66690 0.41298 0.79287
 H98 H 0.77603 0.34224 0.90095
 H99 H 0.71027 0.22865 0.51152
 H100 H 0.94708 0.10923 0.71913
 C101 C 0.21673 0.70868 0.72462
 C102 C 0.16760 0.76076 0.78922
 C103 C 0.20220 0.77676 0.87718
 C104 C 0.28961 0.73916 0.90029
 C105 C 0.33990 0.68443 0.83406
 C106 C 0.30287 0.67016 0.74499
 C107 C 0.42377 0.64310 0.86091
 N108 N 0.45586 0.65809 0.94677
 N109 N 0.40950 0.71048 1.00811
 C110 C 0.32746 0.75097 0.98812
 H111 H 0.18719 0.69981 0.65713
 H112 H 0.10123 0.78913 0.76992
 H113 H 0.46350 0.59713 0.81596
 H114 H 0.29299 0.79099 1.04162
 C115 C 0.20752 0.25226 0.67416
 C116 C 0.15324 0.19948 0.73688
 C117 C 0.19210 0.13328 0.79986
 C118 C 0.28755 0.10949 0.78626
 C119 C 0.34346 0.16690 0.72376
 C120 C 0.30310 0.24152 0.67018
 C121 C 0.43831 0.14877 0.71853
 N122 N 0.47422 0.07377 0.76725
 N123 N 0.42168 0.01583 0.82079
 C124 C 0.33008 0.03045 0.83149
 H125 H 0.17445 0.30625 0.63117
 H126 H 0.08089 0.21744 0.74030
 H127 H 0.48426 0.19262 0.67565
 H128 H 0.29188 -0.02248 0.87248
 C129 C 0.72029 0.65959 0.75365
 C130 C 0.76865 0.70664 0.82167
 C131 C 0.83112 0.78135 0.79871
 C132 C 0.85167 0.80252 0.70446
 C133 C 0.80174 0.75468 0.63457
 C134 C 0.73312 0.68495 0.66021
 C135 C 0.82079 0.78087 0.54207
 N136 N 0.88842 0.84676 0.52135
 N137 N 0.93728 0.88912 0.58674
 C138 C 0.92097 0.86971 0.67748
 H139 H 0.66929 0.60524 0.77481
 H140 H 0.75283 0.68849 0.89320
 H141 H 0.78340 0.74960 0.48589
 H142 H 0.96325 0.90584 0.72746
 C143 C 0.26002 0.68740 0.28211
 C144 C 0.20167 0.73467 0.22251
 C145 C 0.15730 0.82062 0.24784
 C146 C 0.17223 0.85922 0.33681
 C147 C 0.23187 0.81002 0.39855
 C148 C 0.27569 0.72300 0.37035
 C149 C 0.24215 0.84773 0.48752
 N150 N 0.19658 0.92929 0.51232
 N151 N 0.14070 0.97510 0.45473
 C152 C 0.12658 0.94273 0.36819
 H153 H 0.29211 0.62064 0.25946
 H154 H 0.19192 0.70363 0.15507
 H155 H 0.28512 0.81325 0.53805
 H156 H 0.07829 0.98157 0.32598
 C157 C 0.81711 0.29072 0.32404
 C158 C 0.86087 0.23489 0.25714
 C159 C 0.81805 0.21240 0.17320
 C160 C 0.73271 0.25939 0.15280
 C161 C 0.69240 0.32257 0.21906
 C162 C 0.73135 0.33153 0.30782
 C163 C 0.61740 0.38043 0.19220
 N164 N 0.58282 0.37321 0.10669
 N165 N 0.61810 0.31241 0.04552
 C166 C 0.69108 0.25577 0.06514
 H167 H 0.84955 0.29988 0.39006
 H168 H 0.92694 0.20401 0.27409
 H169 H 0.58785 0.43472 0.23633
 H170 H 0.71674 0.21313 0.00921
   
