data_POSCAR
  _audit_creation_date              2014-09-24
  _audit_creation_method            'ToBaCCo'
  _symmetry_space_group_name_H-M    'P1'
  _symmetry_Int_Tables_number       1
  _symmetry_cell_setting            triclinic
  loop_
  _symmetry_equiv_pos_as_xyz
 x,y,z
_cell_length_a 36.2216
_cell_length_b 24.5051
_cell_length_c 25.4872
_cell_angle_alpha 89.905500
_cell_angle_beta 89.926000
_cell_angle_gamma 89.974300
loop_
  _atom_site_label
  _atom_site_type_symbol
  _atom_site_fract_x
  _atom_site_fract_y
  _atom_site_fract_z
C1 C 0.00162 0.00005 0.16874
 C2 C 0.00116 0.00018 -0.17416
 C3 C -0.08431 -0.08864 0.07943
 C4 C -0.08410 0.08846 0.07951
 C5 C -0.08442 -0.08825 -0.08327
 C6 C 0.08593 -0.08423 -0.08830
 C7 C 0.08590 0.08400 -0.08824
 C8 C 0.08572 -0.08372 0.08298
 C9 C -0.08435 0.08826 -0.08310
 C10 C 0.08561 0.08364 0.08290
 O11 O -0.05065 -0.10007 -0.09531
 O12 O -0.09460 -0.05208 -0.04944
 O13 O -0.05061 0.10007 -0.09525
 O14 O -0.09456 0.05203 -0.04931
 O15 O 0.05187 0.09581 0.09427
 O16 O 0.09593 0.04965 0.04709
 O17 O 0.00090 0.04670 -0.15083
 O18 O 0.00092 -0.04646 -0.15083
 O19 O 0.00128 0.04659 0.14544
 O20 O 0.00123 -0.04660 0.14569
 O21 O 0.05209 -0.09604 -0.09979
 O22 O 0.09606 -0.05019 -0.05246
 O23 O -0.05047 -0.10077 0.09068
 O24 O -0.09458 -0.05214 0.04588
 O25 O 0.05199 -0.09595 0.09449
 O26 O 0.09599 -0.04986 0.04702
 O27 O 0.05209 0.09586 -0.09982
 O28 O 0.09604 0.04989 -0.05240
 O29 O 0.00185 0.15301 0.07596
 O30 O 0.00265 0.15316 -0.08054
 O31 O 0.00261 -0.15329 -0.08030
 O32 O 0.00193 -0.15325 0.07672
 O33 O -0.03131 -0.07204 -0.00235
 O34 O -0.03133 0.07183 -0.00251
 O35 O 0.03231 -0.07154 -0.00257
 O36 O -0.03283 -0.00012 0.06744
 O37 O -0.09447 0.05200 0.04605
 O38 O -0.05028 0.10056 0.09053
 O39 O 0.03452 -0.00016 0.06737
 O40 O 0.03456 -0.00010 -0.07281
 O41 O 0.03236 0.07129 -0.00274
 O42 O -0.03287 -0.00005 -0.07184
 Zr43 Zr 0.00074 0.06764 0.06542
 Zr44 Zr 0.00073 -0.06782 -0.07065
 Zr45 Zr -0.06277 -0.00010 -0.00201
 Zr46 Zr 0.00071 -0.06791 0.06568
 Zr47 Zr 0.00074 0.06767 -0.07071
 Zr48 Zr 0.06419 -0.00015 -0.00277
 H49 H 0.04733 -0.10529 -0.00263
 H50 H -0.04915 -0.00014 0.09857
 H51 H 0.04737 0.10503 -0.00286
 H52 H -0.04926 0.00001 -0.10284
 H53 H 0.00511 0.16870 0.04051
 H54 H -0.00798 0.16864 -0.04803
 H55 H 0.00459 -0.16902 0.04124
 H56 H -0.00784 -0.16878 -0.04764
 C57 C 0.25110 0.24951 0.07756
 C58 C 0.25067 0.24954 0.42041
 C59 C 0.16494 0.33851 0.16763
 C60 C 0.16521 0.16109 0.16754
 C61 C 0.16468 0.33814 0.33077
 C62 C 0.33451 0.33469 0.33385
 C63 C 0.33450 0.16489 0.33403
 C64 C 0.33475 0.33480 0.16506
 C65 C 0.16461 0.16163 0.33041
 C66 C 0.33515 0.16444 0.16521
 O67 O 0.19847 0.34979 0.34244
 O68 O 0.15439 0.30208 0.29683
 O69 O 0.19835 0.14979 0.34226
 O70 O 0.15434 0.19776 0.29653
 O71 O 0.30141 0.15265 0.15338
 O72 O 0.34525 0.19929 0.20030
 O73 O 0.25019 0.20297 0.39723
 O74 O 0.25027 0.29618 0.39718
 O75 O 0.25077 0.20301 0.10098
 O76 O 0.25059 0.29609 0.10076
 O77 O 0.30072 0.34649 0.34550
 O78 O 0.34484 0.30007 0.29863
 O79 O 0.19876 0.35044 0.15623
 O80 O 0.15451 0.30201 0.20109
 O81 O 0.30107 0.34664 0.15317
 O82 O 0.34500 0.30004 0.20018
 O83 O 0.30074 0.15301 0.34570
 O84 O 0.34484 0.19949 0.29875
 O85 O 0.25088 0.09668 0.17002
 O86 O 0.25109 0.09648 0.32700
 O87 O 0.25110 0.40296 0.32655
 O88 O 0.25072 0.40261 0.16919
 O89 O 0.21766 0.32167 0.24890
 O90 O 0.21771 0.17793 0.24904
 O91 O 0.28118 0.32100 0.24905
 O92 O 0.21628 0.24968 0.17927
 O93 O 0.15469 0.19759 0.20092
 O94 O 0.19903 0.14904 0.15640
 O95 O 0.28384 0.24971 0.17886
 O96 O 0.28346 0.24970 0.31933
 O97 O 0.28130 0.17835 0.24928
 O98 O 0.21602 0.24975 0.31858
 Zr99 Zr 0.25001 0.18199 0.18106
 Zr100 Zr 0.24959 0.31744 0.31709
 Zr101 Zr 0.18616 0.24984 0.24889
 Zr102 Zr 0.24982 0.31736 0.18083
 Zr103 Zr 0.24959 0.18199 0.31720
 Zr104 Zr 0.31317 0.24970 0.24926
 H105 H 0.29600 0.35491 0.24916
 H106 H 0.20004 0.24974 0.14810
 H107 H 0.29616 0.14447 0.24948
 H108 H 0.19971 0.24974 0.34973
 H109 H 0.25378 0.08075 0.20543
 H110 H 0.24092 0.08114 0.29418
 H111 H 0.25315 0.41868 0.20458
 H112 H 0.24105 0.41829 0.29361
 C113 C 0.49908 -0.00150 0.17091
 C114 C 0.49874 -0.00168 -0.17044
 C115 C 0.58594 0.08541 0.08234
 C116 C 0.58613 -0.08945 0.08304
 C117 C 0.58612 0.08556 -0.08325
 C118 C 0.41575 0.08318 -0.08404
 C119 C 0.41574 -0.08662 -0.08405
 C120 C 0.41592 0.08364 0.08475
 C121 C 0.58602 -0.08925 -0.08320
 C122 C 0.41542 -0.08739 0.08552
 O123 O 0.55219 0.09731 -0.09457
 O124 O 0.59636 0.04991 -0.04868
 O125 O 0.55211 -0.10107 -0.09441
 O126 O 0.59630 -0.05387 -0.04859
 O127 O 0.44933 -0.09930 0.09683
 O128 O 0.40535 -0.05241 0.05031
 O129 O 0.49939 -0.04837 -0.14739
 O130 O 0.49945 0.04490 -0.14744
 O131 O 0.49963 -0.04823 0.14814
 O132 O 0.49976 0.04498 0.14767
 O133 O 0.44954 0.09498 -0.09592
 O134 O 0.40554 0.04845 -0.04872
 O135 O 0.55212 0.09766 0.09352
 O136 O 0.59632 0.04962 0.04818
 O137 O 0.44974 0.09554 0.09606
 O138 O 0.40560 0.04857 0.04999
 O139 O 0.44952 -0.09858 -0.09581
 O140 O 0.40553 -0.05211 -0.04868
 O141 O 0.50058 -0.15527 0.07936
 O142 O 0.49962 -0.15539 -0.07639
 O143 O 0.49962 0.15156 -0.07658
 O144 O 0.50074 0.15127 0.07832
 O145 O 0.53324 0.07001 -0.00003
 O146 O 0.53311 -0.07406 0.00034
 O147 O 0.46925 0.06936 0.00021
 O148 O 0.53438 -0.00206 0.06949
 O149 O 0.59636 -0.05382 0.04846
 O150 O 0.55224 -0.10153 0.09432
 O151 O 0.46704 -0.00195 0.07058
 O152 O 0.46702 -0.00192 -0.06938
 O153 O 0.46924 -0.07340 0.00055
 O154 O 0.53432 -0.00198 -0.06927
 Zr155 Zr 0.50084 -0.06989 0.06846
 Zr156 Zr 0.50089 0.06592 -0.06773
 Zr157 Zr 0.56466 -0.00209 -0.00006
 Zr158 Zr 0.50094 0.06585 0.06791
 Zr159 Zr 0.50085 -0.06980 -0.06753
 Zr160 Zr 0.43729 -0.00201 0.00069
 H161 H 0.45441 0.10327 0.00012
 H162 H 0.55048 -0.00200 0.10078
 H163 H 0.45433 -0.10723 0.00057
 H164 H 0.55035 -0.00192 -0.10069
 H165 H 0.49610 -0.17100 0.04425
 H166 H 0.51120 -0.17035 -0.04430
 H167 H 0.49574 0.16695 0.04327
 H168 H 0.51158 0.16641 -0.04478
 C169 C 0.75199 0.24872 0.08009
 C170 C 0.75160 0.24882 0.42143
 C171 C 0.66543 0.33631 0.16805
 C172 C 0.66590 0.16088 0.16830
 C173 C 0.66532 0.33599 0.33314
 C174 C 0.83521 0.33295 0.33630
 C175 C 0.83587 0.16494 0.33666
 C176 C 0.83533 0.33315 0.16502
 C177 C 0.66566 0.16150 0.33319
 C178 C 0.83579 0.16520 0.16483
 O179 O 0.69911 0.34797 0.34468
 O180 O 0.65510 0.30040 0.29873
 O181 O 0.69945 0.14951 0.34483
 O182 O 0.65533 0.19695 0.29869
 O183 O 0.80202 0.15287 0.15375
 O184 O 0.84605 0.19924 0.20059
 O185 O 0.75135 0.20216 0.39847
 O186 O 0.75108 0.29545 0.39828
 O187 O 0.75161 0.20212 0.10319
 O188 O 0.75142 0.29534 0.10301
 O189 O 0.80140 0.34485 0.34770
 O190 O 0.84568 0.29900 0.30054
 O191 O 0.69926 0.34859 0.15690
 O192 O 0.65513 0.30035 0.20219
 O193 O 0.80155 0.34517 0.15374
 O194 O 0.84577 0.29905 0.20072
 O195 O 0.80203 0.15296 0.34809
 O196 O 0.84604 0.19898 0.30065
 O197 O 0.75163 0.09549 0.17278
 O198 O 0.75248 0.09532 0.32753
 O199 O 0.75194 0.40223 0.32684
 O200 O 0.75101 0.40204 0.17212
 O201 O 0.71815 0.32083 0.25055
 O202 O 0.71848 0.17672 0.25082
 O203 O 0.78217 0.32023 0.25057
 O204 O 0.71715 0.24867 0.18118
 O205 O 0.65542 0.19678 0.20230
 O206 O 0.69975 0.14869 0.15728
 O207 O 0.78438 0.24889 0.18083
 O208 O 0.78432 0.24889 0.32049
 O209 O 0.78252 0.17735 0.25081
 O210 O 0.71710 0.24866 0.31987
 Zr211 Zr 0.75078 0.18093 0.18297
 Zr212 Zr 0.75037 0.31659 0.31839
 Zr213 Zr 0.68694 0.24870 0.25052
 Zr214 Zr 0.75045 0.31662 0.18273
 Zr215 Zr 0.75074 0.18093 0.31867
 Zr216 Zr 0.81420 0.24889 0.25067
 H217 H 0.79710 0.35405 0.25064
 H218 H 0.70098 0.24865 0.14995
 H219 H 0.79761 0.14367 0.25094
 H220 H 0.70091 0.24869 0.35112
 H221 H 0.75667 0.07998 0.20788
 H222 H 0.74043 0.08032 0.29586
 H223 H 0.75603 0.41764 0.20713
 H224 H 0.73983 0.41713 0.29512
 C225 C 0.00065 0.50047 0.17037
 C226 C 0.00027 0.50038 -0.17248
 C227 C -0.08505 0.41154 0.08089
 C228 C -0.08530 0.58907 0.08054
 C229 C -0.08547 0.41182 -0.08178
 C230 C 0.08443 0.41667 -0.08615
 C231 C 0.08429 0.58433 -0.08657
 C232 C 0.08470 0.41659 0.08446
 C233 C -0.08549 0.58879 -0.08205
 C234 C 0.08464 0.58482 0.08437
 O235 O -0.05167 0.40020 -0.09369
 O236 O -0.09578 0.44806 -0.04803
 O237 O -0.05174 0.60053 -0.09397
 O238 O -0.09579 0.55255 -0.04821
 O239 O 0.05085 0.59689 0.09578
 O240 O 0.09488 0.55062 0.04870
 O241 O -0.00014 0.54697 -0.14920
 O242 O -0.00006 0.45382 -0.14904
 O243 O 0.00017 0.54707 0.14715
 O244 O 0.00024 0.45389 0.14726
 O245 O 0.05072 0.40469 -0.09778
 O246 O 0.09471 0.45069 -0.05045
 O247 O -0.05123 0.39962 0.09212
 O248 O -0.09555 0.44806 0.04748
 O249 O 0.05097 0.40439 0.09595
 O250 O 0.09492 0.45080 0.04875
 O251 O 0.05056 0.59622 -0.09822
 O252 O 0.09464 0.55049 -0.05067
 O253 O 0.00056 0.65361 0.07799
 O254 O 0.00121 0.65362 -0.07873
 O255 O 0.00146 0.34723 -0.07811
 O256 O 0.00093 0.34745 0.07848
 O257 O -0.03245 0.42852 -0.00060
 O258 O -0.03256 0.57226 -0.00084
 O259 O 0.03121 0.42917 -0.00084
 O260 O -0.03397 0.50046 0.06897
 O261 O -0.09569 0.55249 0.04724
 O262 O -0.05151 0.60115 0.09176
 O263 O 0.03345 0.50058 0.06931
 O264 O 0.03330 0.50048 -0.07088
 O265 O 0.03109 0.57198 -0.00106
 O266 O -0.03414 0.50039 -0.07031
 Zr267 Zr -0.00041 0.56828 0.06714
 Zr268 Zr -0.00050 0.43275 -0.06882
 Zr269 Zr -0.06402 0.50034 -0.00055
 Zr270 Zr -0.00029 0.43278 0.06732
 Zr271 Zr -0.00058 0.56811 -0.06905
 Zr272 Zr 0.06298 0.50063 -0.00085
 H273 H 0.04621 0.39541 -0.00085
 H274 H -0.05028 0.50042 0.10013
 H275 H 0.04605 0.60576 -0.00122
 H276 H -0.05048 0.50035 -0.10138
 H277 H 0.00383 0.66944 0.04259
 H278 H -0.00924 0.66900 -0.04606
 H279 H 0.00409 0.33162 0.04311
 H280 H -0.00914 0.33186 -0.04549
 C281 C 0.25173 0.75082 0.07887
 C282 C 0.25106 0.75167 0.42025
 C283 C 0.16577 0.83989 0.16757
 C284 C 0.16508 0.66280 0.16798
 C285 C 0.16500 0.83984 0.33061
 C286 C 0.33483 0.83595 0.33409
 C287 C 0.33473 0.66589 0.33443
 C288 C 0.33617 0.83591 0.16474
 C289 C 0.16490 0.66309 0.33136
 C290 C 0.33498 0.66551 0.16556
 O291 O 0.19880 0.85155 0.34228
 O292 O 0.15470 0.80367 0.29685
 O293 O 0.19868 0.65142 0.34314
 O294 O 0.15463 0.69920 0.29732
 O295 O 0.30123 0.65371 0.15402
 O296 O 0.34536 0.70036 0.20045
 O297 O 0.25060 0.70500 0.39737
 O298 O 0.25065 0.79823 0.39700
 O299 O 0.25104 0.70430 0.10205
 O300 O 0.25148 0.79749 0.10165
 O301 O 0.30107 0.84794 0.34558
 O302 O 0.34525 0.80126 0.29901
 O303 O 0.19963 0.85183 0.15635
 O304 O 0.15518 0.80358 0.20114
 O305 O 0.30235 0.84792 0.15306
 O306 O 0.34608 0.80107 0.20015
 O307 O 0.30092 0.65434 0.34614
 O308 O 0.34518 0.70047 0.29914
 O309 O 0.25069 0.59798 0.17093
 O310 O 0.25131 0.59810 0.32753
 O311 O 0.25153 0.90468 0.32615
 O312 O 0.25162 0.90422 0.16970
 O313 O 0.21815 0.82317 0.24898
 O314 O 0.21780 0.67929 0.24967
 O315 O 0.28196 0.82254 0.24930
 O316 O 0.21679 0.75132 0.17985
 O317 O 0.15472 0.69936 0.20138
 O318 O 0.19893 0.65066 0.15685
 O319 O 0.28424 0.75087 0.17935
 O320 O 0.28381 0.75125 0.31946
 O321 O 0.28159 0.67981 0.24979
 O322 O 0.21637 0.75145 0.31885
 Zr323 Zr 0.25008 0.68332 0.18183
 Zr324 Zr 0.25001 0.81912 0.31705
 Zr325 Zr 0.18648 0.75134 0.24928
 Zr326 Zr 0.25068 0.81894 0.18124
 Zr327 Zr 0.24986 0.68359 0.31761
 Zr328 Zr 0.31371 0.75102 0.24952
 H329 H 0.29690 0.85634 0.24927
 H330 H 0.20056 0.75126 0.14868
 H331 H 0.29634 0.64581 0.25002
 H332 H 0.20004 0.75154 0.34998
 H333 H 0.25411 0.58210 0.20628
 H334 H 0.24092 0.58271 0.29487
 H335 H 0.25534 0.92022 0.20488
 H336 H 0.24114 0.91986 0.29335
 C337 C 0.49811 0.49994 0.17088
 C338 C 0.49801 0.49975 -0.17047
 C339 C 0.58477 0.58747 0.08219
 C340 C 0.58494 0.41223 0.08268
 C341 C 0.58466 0.58707 -0.08247
 C342 C 0.41480 0.58514 -0.08449
 C343 C 0.41484 0.41467 -0.08396
 C344 C 0.41498 0.58517 0.08448
 C345 C 0.58455 0.41235 -0.08200
 C346 C 0.41500 0.41492 0.08462
 O347 O 0.55089 0.59907 -0.09402
 O348 O 0.59502 0.55150 -0.04808
 O349 O 0.55080 0.40045 -0.09351
 O350 O 0.59497 0.44795 -0.04780
 O351 O 0.44871 0.40292 0.09623
 O352 O 0.40466 0.44977 0.04962
 O353 O 0.49859 0.45315 -0.14732
 O354 O 0.49860 0.54640 -0.14757
 O355 O 0.49869 0.45333 0.14795
 O356 O 0.49867 0.54653 0.14776
 O357 O 0.44859 0.59694 -0.09620
 O358 O 0.40454 0.55041 -0.04922
 O359 O 0.55098 0.59977 0.09338
 O360 O 0.59513 0.55153 0.04821
 O361 O 0.44871 0.59709 0.09597
 O362 O 0.40463 0.55036 0.04953
 O363 O 0.44860 0.40281 -0.09564
 O364 O 0.40456 0.44955 -0.04893
 O365 O 0.49953 0.34676 0.07932
 O366 O 0.49840 0.34652 -0.07659
 O367 O 0.49849 0.65323 -0.07730
 O368 O 0.49946 0.65308 0.07870
 O369 O 0.53202 0.57188 -0.00001
 O370 O 0.53204 0.42780 0.00031
 O371 O 0.46821 0.57136 0.00010
 O372 O 0.53334 0.49990 0.06976
 O373 O 0.59523 0.44814 0.04849
 O374 O 0.55111 0.40003 0.09392
 O375 O 0.46602 0.49995 0.07024
 O376 O 0.46590 0.49991 -0.06981
 O377 O 0.46822 0.42860 0.00044
 O378 O 0.53320 0.49983 -0.06915
 Zr379 Zr 0.49991 0.43212 0.06825
 Zr380 Zr 0.49974 0.56767 -0.06782
 Zr381 Zr 0.56339 0.49981 0.00024
 Zr382 Zr 0.49986 0.56772 0.06794
 Zr383 Zr 0.49972 0.43208 -0.06747
 Zr384 Zr 0.43633 0.50002 0.00022
 H385 H 0.45338 0.60528 -0.00006
 H386 H 0.54949 0.49990 0.10101
 H387 H 0.45339 0.39469 0.00041
 H388 H 0.54930 0.49977 -0.10050
 H389 H 0.49505 0.33094 0.04425
 H390 H 0.50944 0.33138 -0.04420
 H391 H 0.49529 0.66889 0.04350
 H392 H 0.50958 0.66836 -0.04500
 C393 C 0.75120 0.75064 0.07896
 C394 C 0.75083 0.75138 0.42028
 C395 C 0.66440 0.83820 0.16641
 C396 C 0.66479 0.66312 0.16751
 C397 C 0.66464 0.83823 0.33199
 C398 C 0.83442 0.83489 0.33492
 C399 C 0.83457 0.66713 0.33553
 C400 C 0.83478 0.83469 0.16357
 C401 C 0.66469 0.66361 0.33245
 C402 C 0.83460 0.66681 0.16423
 O403 O 0.69841 0.85028 0.34340
 O404 O 0.65429 0.80275 0.29760
 O405 O 0.69849 0.65176 0.34402
 O406 O 0.65433 0.69912 0.29792
 O407 O 0.80085 0.65460 0.15304
 O408 O 0.84493 0.70100 0.19977
 O409 O 0.75041 0.70468 0.39739
 O410 O 0.75035 0.79797 0.39703
 O411 O 0.75065 0.70409 0.10215
 O412 O 0.75065 0.79733 0.10174
 O413 O 0.80065 0.84699 0.34632
 O414 O 0.84479 0.80091 0.29917
 O415 O 0.69827 0.85047 0.15524
 O416 O 0.65414 0.80248 0.20085
 O417 O 0.80098 0.84694 0.15226
 O418 O 0.84500 0.80065 0.19944
 O419 O 0.80078 0.65517 0.34704
 O420 O 0.84487 0.70105 0.29954
 O421 O 0.75035 0.59761 0.17169
 O422 O 0.75131 0.59766 0.32653
 O423 O 0.75116 0.90456 0.32527
 O424 O 0.75011 0.90421 0.17072
 O425 O 0.71729 0.82305 0.24923
 O426 O 0.71739 0.67895 0.24980
 O427 O 0.78132 0.82243 0.24920
 O428 O 0.71618 0.75087 0.18006
 O429 O 0.65435 0.69907 0.20144
 O430 O 0.69861 0.65089 0.15641
 O431 O 0.78338 0.75090 0.17962
 O432 O 0.78335 0.75110 0.31929
 O433 O 0.78140 0.67949 0.24978
 O434 O 0.71614 0.75107 0.31874
 Zr435 Zr 0.74968 0.68304 0.18196
 Zr436 Zr 0.74956 0.81890 0.31706
 Zr437 Zr 0.68594 0.75097 0.24944
 Zr438 Zr 0.74959 0.81879 0.18135
 Zr439 Zr 0.74964 0.68327 0.31762
 Zr440 Zr 0.81317 0.75095 0.24946
 H441 H 0.79635 0.85616 0.24920
 H442 H 0.70004 0.75073 0.14881
 H443 H 0.79641 0.64574 0.24998
 H444 H 0.70000 0.75108 0.35004
 H445 H 0.75546 0.58205 0.20675
 H446 H 0.73939 0.58266 0.29477
 H447 H 0.75578 0.91981 0.20553
 H448 H 0.73909 0.91937 0.29348
 C449 C 0.00060 0.00089 0.32826
 C450 C 0.00010 0.00080 0.67100
 C451 C -0.08592 0.08971 0.41766
 C452 C -0.08550 -0.08761 0.41837
 C453 C -0.08579 0.08926 0.58087
 C454 C 0.08405 0.08466 0.58535
 C455 C 0.08408 -0.08270 0.58526
 C456 C 0.08414 0.08496 0.41404
 C457 C -0.08580 -0.08729 0.58083
 C458 C 0.08442 -0.08276 0.41419
 O459 O -0.05205 0.10098 0.59272
 O460 O -0.09609 0.05325 0.54699
 O461 O -0.05205 -0.09902 0.59272
 O462 O -0.09609 -0.05107 0.54701
 O463 O 0.05068 -0.09496 0.40282
 O464 O 0.09459 -0.04865 0.44990
 O465 O -0.00037 -0.04576 0.64775
 O466 O -0.00037 0.04746 0.64773
 O467 O 0.00008 -0.04565 0.35156
 O468 O -0.00000 0.04754 0.35130
 O469 O 0.05028 0.09673 0.59682
 O470 O 0.09435 0.05087 0.54938
 O471 O -0.05206 0.10169 0.40627
 O472 O -0.09619 0.05325 0.45133
 O473 O 0.05042 0.09716 0.40256
 O474 O 0.09441 0.05095 0.44985
 O475 O 0.05033 -0.09475 0.59684
 O476 O 0.09437 -0.04877 0.54934
 O477 O 0.00042 -0.15201 0.42076
 O478 O 0.00101 -0.15225 0.57692
 O479 O 0.00098 0.15429 0.57676
 O480 O 0.00009 0.15423 0.42021
 O481 O -0.03292 0.07305 0.49940
 O482 O -0.03284 -0.07074 0.49955
 O483 O 0.03073 0.07251 0.49943
 O484 O -0.03434 0.00107 0.42969
 O485 O -0.09595 -0.05106 0.45168
 O486 O -0.05169 -0.09963 0.40705
 O487 O 0.03304 0.00116 0.42947
 O488 O 0.03291 0.00104 0.56955
 O489 O 0.03088 -0.07035 0.49965
 O490 O -0.03446 0.00104 0.56898
 Zr491 Zr -0.00064 -0.06666 0.43157
 Zr492 Zr -0.00088 0.06876 0.56754
 Zr493 Zr -0.06436 0.00116 0.49930
 Zr494 Zr -0.00087 0.06889 0.43128
 Zr495 Zr -0.00085 -0.06669 0.56764
 Zr496 Zr 0.06262 0.00111 0.49955
 H497 H 0.04573 0.10625 0.49954
 H498 H -0.05062 0.00105 0.39856
 H499 H 0.04592 -0.10408 0.49978
 H500 H -0.05077 0.00099 0.60013
 H501 H 0.00442 -0.16779 0.45602
 H502 H -0.00978 -0.16747 0.54445
 H503 H 0.00373 0.17001 0.45550
 H504 H -0.00975 0.16961 0.54423
 C505 C 0.25065 0.24890 0.92289
 C506 C 0.25070 0.24909 0.58009
 C507 C 0.16433 0.16010 0.83252
 C508 C 0.16467 0.33781 0.83204
 C509 C 0.16446 0.16096 0.66969
 C510 C 0.33431 0.16406 0.66659
 C511 C 0.33440 0.33401 0.66655
 C512 C 0.33467 0.16340 0.83553
 C513 C 0.16461 0.33761 0.66998
 C514 C 0.33452 0.33403 0.83548
 O515 O 0.19826 0.14909 0.65803
 O516 O 0.15417 0.19702 0.70361
 O517 O 0.19841 0.34927 0.65821
 O518 O 0.15426 0.30129 0.70374
 O519 O 0.30076 0.34586 0.84719
 O520 O 0.34479 0.29918 0.80045
 O521 O 0.25027 0.29566 0.60327
 O522 O 0.25024 0.20245 0.60331
 O523 O 0.25016 0.29543 0.89954
 O524 O 0.25019 0.20228 0.89978
 O525 O 0.30057 0.15225 0.65496
 O526 O 0.34462 0.19857 0.70185
 O527 O 0.19814 0.14813 0.84411
 O528 O 0.15410 0.19673 0.79908
 O529 O 0.30088 0.15158 0.84736
 O530 O 0.34486 0.19830 0.80040
 O531 O 0.30065 0.34578 0.65487
 O532 O 0.34469 0.29931 0.70182
 O533 O 0.25042 0.40171 0.83088
 O534 O 0.25108 0.40219 0.67360
 O535 O 0.25093 0.09571 0.67391
 O536 O 0.25029 0.09577 0.83126
 O537 O 0.21741 0.17697 0.75158
 O538 O 0.21748 0.32072 0.75141
 O539 O 0.28094 0.17755 0.75146
 O540 O 0.21584 0.24881 0.82122
 O541 O 0.15428 0.30115 0.79891
 O542 O 0.19844 0.34970 0.84354
 O543 O 0.28342 0.24872 0.82169
 O544 O 0.28336 0.24890 0.68125
 O545 O 0.28103 0.32017 0.75130
 O546 O 0.21591 0.24901 0.68180
 Zr547 Zr 0.24953 0.31646 0.81945
 Zr548 Zr 0.24943 0.18122 0.68340
 Zr549 Zr 0.18595 0.24889 0.75144
 Zr550 Zr 0.24946 0.18104 0.81972
 Zr551 Zr 0.24951 0.31668 0.68330
 Zr552 Zr 0.31295 0.24882 0.75134
 H553 H 0.29578 0.14364 0.75133
 H554 H 0.19949 0.24885 0.85234
 H555 H 0.29587 0.35406 0.75117
 H556 H 0.19964 0.24913 0.65066
 H557 H 0.25319 0.41781 0.79550
 H558 H 0.24112 0.41753 0.70659
 H559 H 0.25303 0.07976 0.79589
 H560 H 0.24077 0.08039 0.70683
 C561 C 0.49833 -0.00006 0.32944
 C562 C 0.49772 -0.00050 0.67082
 C563 C 0.58453 -0.08737 0.41804
 C564 C 0.58483 0.08737 0.41821
 C565 C 0.58414 -0.08734 0.58265
 C566 C 0.41448 -0.08460 0.58435
 C567 C 0.41458 0.08506 0.58460
 C568 C 0.41479 -0.08459 0.41560
 C569 C 0.58429 0.08702 0.58285
 C570 C 0.41485 0.08555 0.41552
 O571 O 0.55037 -0.09939 0.59413
 O572 O 0.59457 -0.05178 0.54832
 O573 O 0.55052 0.09915 0.59427
 O574 O 0.59466 0.05151 0.54847
 O575 O 0.44862 0.09747 0.40398
 O576 O 0.40447 0.05076 0.45059
 O577 O 0.49824 0.04624 0.64784
 O578 O 0.49820 -0.04702 0.64770
 O579 O 0.49883 0.04661 0.35232
 O580 O 0.49876 -0.04660 0.35259
 O581 O 0.44816 -0.09661 0.59618
 O582 O 0.40427 -0.04988 0.54913
 O583 O 0.55077 -0.09967 0.40685
 O584 O 0.59483 -0.05158 0.45213
 O585 O 0.44854 -0.09670 0.40416
 O586 O 0.40444 -0.04974 0.45055
 O587 O 0.44830 0.09684 0.59636
 O588 O 0.40433 0.05060 0.54926
 O589 O 0.49941 0.15335 0.42085
 O590 O 0.49814 0.15334 0.57741
 O591 O 0.49785 -0.15338 0.57699
 O592 O 0.49920 -0.15298 0.42158
 O593 O 0.53173 -0.07204 0.50019
 O594 O 0.53178 0.07214 0.50014
 O595 O 0.46786 -0.07116 0.50004
 O596 O 0.53314 0.00013 0.43065
 O597 O 0.59500 0.05149 0.45236
 O598 O 0.55110 0.09983 0.40680
 O599 O 0.46589 0.00031 0.42991
 O600 O 0.46557 0.00011 0.56998
 O601 O 0.46805 0.07167 0.49998
 O602 O 0.53279 -0.00006 0.56954
 Zr603 Zr 0.49977 0.06803 0.43209
 Zr604 Zr 0.49933 -0.06778 0.56790
 Zr605 Zr 0.56302 0.00001 0.50022
 Zr606 Zr 0.49965 -0.06761 0.43231
 Zr607 Zr 0.49943 0.06781 0.56800
 Zr608 Zr 0.43613 0.00038 0.49990
 H609 H 0.45298 -0.10501 0.50011
 H610 H 0.54937 0.00013 0.39943
 H611 H 0.45323 0.10560 0.50005
 H612 H 0.54886 -0.00016 0.60087
 H613 H 0.49576 0.16925 0.45611
 H614 H 0.50911 0.16855 0.54496
 H615 H 0.49448 -0.16877 0.45667
 H616 H 0.50939 -0.16842 0.54491
 C617 C 0.75101 0.24858 0.92158
 C618 C 0.75050 0.24891 0.58026
 C619 C 0.66414 0.16043 0.83415
 C620 C 0.66430 0.33624 0.83321
 C621 C 0.66425 0.16142 0.66873
 C622 C 0.83392 0.16568 0.66485
 C623 C 0.83382 0.33342 0.66504
 C624 C 0.83442 0.16521 0.83550
 C625 C 0.66398 0.33602 0.66876
 C626 C 0.83408 0.33330 0.83579
 O627 O 0.69803 0.14959 0.65705
 O628 O 0.65384 0.19673 0.70328
 O629 O 0.69772 0.34808 0.65708
 O630 O 0.65369 0.30032 0.70319
 O631 O 0.80031 0.34530 0.84729
 O632 O 0.84436 0.29912 0.80016
 O633 O 0.74989 0.29554 0.60325
 O634 O 0.74996 0.20226 0.60336
 O635 O 0.75029 0.29519 0.89851
 O636 O 0.75043 0.20197 0.89865
 O637 O 0.80020 0.15330 0.65366
 O638 O 0.84423 0.19967 0.70055
 O639 O 0.69808 0.14847 0.84515
 O640 O 0.65377 0.19642 0.80000
 O641 O 0.80074 0.15274 0.84720
 O642 O 0.84452 0.19950 0.79987
 O643 O 0.80000 0.34531 0.65365
 O644 O 0.84417 0.29933 0.70077
 O645 O 0.74960 0.40185 0.82956
 O646 O 0.75021 0.40237 0.67421
 O647 O 0.75091 0.09548 0.67471
 O648 O 0.75006 0.09537 0.82952
 O649 O 0.71692 0.17652 0.75122
 O650 O 0.71675 0.32056 0.75109
 O651 O 0.78089 0.17756 0.75088
 O652 O 0.71569 0.24856 0.82068
 O653 O 0.65385 0.30020 0.79948
 O654 O 0.69807 0.34855 0.84425
 O655 O 0.78293 0.24877 0.82071
 O656 O 0.78273 0.24905 0.68095
 O657 O 0.78068 0.32055 0.75074
 O658 O 0.71555 0.24879 0.68190
 Zr659 Zr 0.74913 0.31649 0.81876
 Zr660 Zr 0.74910 0.18110 0.68323
 Zr661 Zr 0.68543 0.24843 0.75141
 Zr662 Zr 0.74923 0.18080 0.81894
 Zr663 Zr 0.74891 0.31674 0.68306
 Zr664 Zr 0.81253 0.24922 0.75061
 H665 H 0.79597 0.14388 0.75062
 H666 H 0.69956 0.24848 0.85201
 H667 H 0.79559 0.35438 0.75056
 H668 H 0.69942 0.24879 0.65064
 H669 H 0.75416 0.41767 0.79444
 H670 H 0.73862 0.41724 0.70632
 H671 H 0.75537 0.07984 0.79454
 H672 H 0.73895 0.08050 0.70656
 C673 C 0.00077 0.50029 0.32978
 C674 C 0.00026 0.50024 0.67254
 C675 C -0.08521 0.58901 0.41934
 C676 C -0.08502 0.41133 0.41979
 C677 C -0.08547 0.58876 0.58186
 C678 C 0.08440 0.58424 0.58632
 C679 C 0.08449 0.41617 0.58673
 C680 C 0.08471 0.58457 0.41531
 C681 C -0.08554 0.41178 0.58231
 C682 C 0.08472 0.41608 0.41533
 O683 O -0.05171 0.60040 0.59376
 O684 O -0.09574 0.55250 0.54821
 O685 O -0.05176 0.40010 0.59423
 O686 O -0.09578 0.44803 0.54847
 O687 O 0.05095 0.40400 0.40412
 O688 O 0.09502 0.45021 0.45101
 O689 O -0.00010 0.45362 0.64935
 O690 O -0.00012 0.54683 0.64916
 O691 O 0.00033 0.45369 0.35301
 O692 O 0.00034 0.54687 0.35287
 O693 O 0.05062 0.59610 0.59791
 O694 O 0.09480 0.55025 0.55058
 O695 O -0.05138 0.60101 0.40805
 O696 O -0.09561 0.55242 0.45279
 O697 O 0.05093 0.59661 0.40398
 O698 O 0.09501 0.55032 0.45101
 O699 O 0.05070 0.40431 0.59833
 O700 O 0.09484 0.45012 0.55080
 O701 O 0.00094 0.34716 0.42224
 O702 O 0.00140 0.34696 0.57868
 O703 O 0.00137 0.65340 0.57823
 O704 O 0.00071 0.65336 0.42180
 O705 O -0.03246 0.57210 0.50081
 O706 O -0.03241 0.42835 0.50105
 O707 O 0.03124 0.57155 0.50088
 O708 O -0.03387 0.50024 0.43120
 O709 O -0.09551 0.44793 0.45306
 O710 O -0.05120 0.39939 0.40851
 O711 O 0.03357 0.50026 0.43084
 O712 O 0.03338 0.50018 0.57093
 O713 O 0.03129 0.42884 0.50114
 O714 O -0.03410 0.50020 0.57048
 Zr715 Zr -0.00022 0.43251 0.43304
 Zr716 Zr -0.00049 0.56788 0.56893
 Zr717 Zr -0.06395 0.50022 0.50077
 Zr718 Zr -0.00029 0.56801 0.43281
 Zr719 Zr -0.00047 0.43249 0.56920
 Zr720 Zr 0.06320 0.50019 0.50088
 H721 H 0.04620 0.60534 0.50092
 H722 H -0.05018 0.50022 0.40009
 H723 H 0.04629 0.39507 0.50123
 H724 H -0.05047 0.50023 0.60158
 H725 H 0.00424 0.33137 0.45764
 H726 H -0.00931 0.33165 0.54620
 H727 H 0.00437 0.66912 0.45709
 H728 H -0.00920 0.66876 0.54562
 C729 C 0.25089 0.75082 0.92054
 C730 C 0.25068 0.75164 0.57914
 C731 C 0.16447 0.66249 0.83085
 C732 C 0.16429 0.83995 0.83158
 C733 C 0.16439 0.66297 0.66889
 C734 C 0.33416 0.66573 0.66527
 C735 C 0.33419 0.83594 0.66540
 C736 C 0.33433 0.66540 0.83416
 C737 C 0.16444 0.83985 0.66865
 C738 C 0.33461 0.83547 0.83431
 O739 O 0.19815 0.65121 0.65708
 O740 O 0.15405 0.69929 0.70253
 O741 O 0.19823 0.85154 0.65688
 O742 O 0.15407 0.80366 0.70246
 O743 O 0.30085 0.84768 0.84590
 O744 O 0.34476 0.80073 0.79913
 O745 O 0.25019 0.79819 0.60225
 O746 O 0.25015 0.70497 0.60217
 O747 O 0.25032 0.79749 0.89762
 O748 O 0.25026 0.70429 0.89751
 O749 O 0.30038 0.65416 0.65360
 O750 O 0.34450 0.70037 0.70043
 O751 O 0.19823 0.65034 0.84220
 O752 O 0.15408 0.69925 0.79771
 O753 O 0.30054 0.65359 0.84574
 O754 O 0.34463 0.70028 0.79908
 O755 O 0.30049 0.84797 0.65377
 O756 O 0.34450 0.80115 0.70050
 O757 O 0.25029 0.90416 0.82924
 O758 O 0.25098 0.90458 0.67251
 O759 O 0.25065 0.59810 0.67197
 O760 O 0.25002 0.59798 0.82935
 O761 O 0.21718 0.67943 0.74998
 O762 O 0.21724 0.82331 0.75011
 O763 O 0.28088 0.67956 0.74983
 O764 O 0.21578 0.75114 0.81969
 O765 O 0.15399 0.80352 0.79806
 O766 O 0.19816 0.85179 0.84292
 O767 O 0.28321 0.75094 0.82001
 O768 O 0.28318 0.75120 0.67988
 O769 O 0.28099 0.82235 0.74996
 O770 O 0.21575 0.75139 0.68052
 Zr771 Zr 0.24940 0.81889 0.81796
 Zr772 Zr 0.24929 0.68354 0.68199
 Zr773 Zr 0.18577 0.75145 0.75015
 Zr774 Zr 0.24935 0.68326 0.81781
 Zr775 Zr 0.24934 0.81906 0.68213
 Zr776 Zr 0.31282 0.75081 0.74987
 H777 H 0.29565 0.64559 0.74974
 H778 H 0.19947 0.75109 0.85085
 H779 H 0.29589 0.85618 0.74989
 H780 H 0.19947 0.75146 0.64939
 H781 H 0.25397 0.92016 0.79399
 H782 H 0.24070 0.91990 0.70532
 H783 H 0.25292 0.58194 0.79402
 H784 H 0.24102 0.58257 0.70512
 C785 C 0.49811 0.49975 0.32949
 C786 C 0.49764 0.49957 0.67082
 C787 C 0.58477 0.41194 0.41812
 C788 C 0.58460 0.58741 0.41793
 C789 C 0.58423 0.41208 0.58307
 C790 C 0.41453 0.41438 0.58480
 C791 C 0.41444 0.58486 0.58442
 C792 C 0.41474 0.41444 0.41558
 C793 C 0.58428 0.58713 0.58278
 C794 C 0.41472 0.58504 0.41565
 O795 O 0.55041 0.40019 0.59447
 O796 O 0.59471 0.44769 0.54870
 O797 O 0.55045 0.59899 0.59419
 O798 O 0.59474 0.55150 0.54851
 O799 O 0.44851 0.59691 0.40415
 O800 O 0.40432 0.55008 0.45062
 O801 O 0.49817 0.54620 0.64773
 O802 O 0.49819 0.45295 0.64784
 O803 O 0.49862 0.54631 0.35249
 O804 O 0.49869 0.45312 0.35254
 O805 O 0.44829 0.40262 0.59649
 O806 O 0.40423 0.44909 0.54955
 O807 O 0.55097 0.39978 0.40687
 O808 O 0.59505 0.44785 0.45217
 O809 O 0.44855 0.40251 0.40417
 O810 O 0.40434 0.44926 0.45058
 O811 O 0.44819 0.59659 0.59614
 O812 O 0.40418 0.55008 0.54932
 O813 O 0.49927 0.65279 0.42125
 O814 O 0.49802 0.65297 0.57691
 O815 O 0.49808 0.34621 0.57719
 O816 O 0.49938 0.34646 0.42156
 O817 O 0.53181 0.42761 0.50028
 O818 O 0.53177 0.57162 0.50013
 O819 O 0.46793 0.42824 0.50014
 O820 O 0.53319 0.49964 0.43072
 O821 O 0.59496 0.55146 0.45201
 O822 O 0.55080 0.59957 0.40671
 O823 O 0.46581 0.49963 0.43005
 O824 O 0.46552 0.49960 0.57006
 O825 O 0.46790 0.57094 0.50002
 O826 O 0.53286 0.49959 0.56954
 Zr827 Zr 0.49965 0.56742 0.43222
 Zr828 Zr 0.49940 0.43181 0.56805
 Zr829 Zr 0.56322 0.49961 0.50025
 Zr830 Zr 0.49971 0.43183 0.43232
 Zr831 Zr 0.49938 0.56739 0.56792
 Zr832 Zr 0.43597 0.49959 0.50003
 H833 H 0.45310 0.39434 0.50026
 H834 H 0.54939 0.49966 0.39945
 H835 H 0.45307 0.60486 0.50005
 H836 H 0.54892 0.49960 0.60088
 H837 H 0.49475 0.66858 0.45634
 H838 H 0.50937 0.66804 0.54467
 H839 H 0.49467 0.33066 0.45664
 H840 H 0.50942 0.33120 0.54496
 C841 C 0.75098 0.75062 0.92055
 C842 C 0.75047 0.75137 0.57921
 C843 C 0.66456 0.66289 0.83235
 C844 C 0.66407 0.83817 0.83322
 C845 C 0.66424 0.66351 0.66781
 C846 C 0.83406 0.66707 0.66423
 C847 C 0.83390 0.83500 0.66407
 C848 C 0.83426 0.66676 0.83496
 C849 C 0.66419 0.83819 0.66804
 C850 C 0.83437 0.83479 0.83477
 O851 O 0.69803 0.65167 0.65610
 O852 O 0.65391 0.69907 0.70224
 O853 O 0.69791 0.85027 0.65630
 O854 O 0.65387 0.80265 0.70249
 O855 O 0.80062 0.84703 0.84639
 O856 O 0.84455 0.80066 0.79910
 O857 O 0.74991 0.79794 0.60232
 O858 O 0.75001 0.70467 0.60224
 O859 O 0.75039 0.79730 0.89762
 O860 O 0.75038 0.70407 0.89751
 O861 O 0.80030 0.65506 0.65278
 O862 O 0.84436 0.70109 0.69991
 O863 O 0.69836 0.65069 0.84341
 O864 O 0.65406 0.69892 0.79850
 O865 O 0.80054 0.65449 0.84639
 O866 O 0.84451 0.70105 0.79934
 O867 O 0.80014 0.84713 0.65277
 O868 O 0.84427 0.80089 0.69977
 O869 O 0.74969 0.90414 0.82849
 O870 O 0.75061 0.90450 0.67347
 O871 O 0.75078 0.59766 0.67318
 O872 O 0.75013 0.59762 0.82851
 O873 O 0.71702 0.67889 0.75010
 O874 O 0.71689 0.82300 0.75022
 O875 O 0.78095 0.67945 0.74978
 O876 O 0.71582 0.75080 0.81967
 O877 O 0.65380 0.80237 0.79902
 O878 O 0.69794 0.85047 0.84417
 O879 O 0.78302 0.75090 0.81977
 O880 O 0.78286 0.75108 0.67999
 O881 O 0.78084 0.82243 0.74991
 O882 O 0.71567 0.75103 0.68088
 Zr883 Zr 0.74920 0.81874 0.81795
 Zr884 Zr 0.74916 0.68324 0.68208
 Zr885 Zr 0.68559 0.75089 0.75041
 Zr886 Zr 0.74935 0.68302 0.81777
 Zr887 Zr 0.74908 0.81886 0.68222
 Zr888 Zr 0.81265 0.75095 0.74971
 H889 H 0.79595 0.64569 0.74965
 H890 H 0.69969 0.75063 0.85099
 H891 H 0.79583 0.85619 0.74970
 H892 H 0.69950 0.75104 0.64966
 H893 H 0.75503 0.91982 0.79353
 H894 H 0.73890 0.91940 0.70549
 H895 H 0.75464 0.58197 0.79336
 H896 H 0.73917 0.58257 0.70523
 C897 C 0.00163 0.00028 0.22489
 C898 C 0.00130 0.00065 0.27211
 C899 C 0.25128 0.24936 1.02646
 C900 C 0.25114 0.24909 0.97915
 C901 C 0.11378 0.11023 0.11298
 C902 C 0.13714 0.13304 0.13849
 C903 C 0.36307 0.36297 0.13687
 C904 C 0.38674 0.38676 0.11292
 C905 C 0.36370 0.13608 0.13702
 C906 C 0.38751 0.11213 0.11311
 C907 C 0.13670 0.36679 0.13903
 C908 C 0.11306 0.38974 0.11407
 C909 C 0.36283 0.13702 0.36268
 C910 C 0.38654 0.11354 0.38693
 C911 C 0.13642 0.36621 0.35979
 C912 C 0.11296 0.38918 0.38525
 C913 C 0.13624 0.13390 0.35912
 C914 C 0.11250 0.11142 0.38421
 C915 C 0.36283 0.36271 0.36254
 C916 C 0.38646 0.38635 0.38688
 C917 C 0.49833 -0.00103 0.22667
 C918 C 0.49808 -0.00042 0.27367
 C919 C 0.75217 0.24867 1.02432
 C920 C 0.75185 0.24861 0.97733
 C921 C 0.61420 0.11211 0.11232
 C922 C 0.63772 0.13405 0.13830
 C923 C -0.13654 0.36012 0.13506
 C924 C -0.11314 0.38321 0.10975
 C925 C 0.88764 0.11626 0.10881
 C926 C 0.86411 0.13880 0.13446
 C927 C 0.63704 0.36322 0.13822
 C928 C 0.61333 0.38529 0.11248
 C929 C -0.13824 0.14061 0.36374
 C930 C -0.11441 0.11783 0.38882
 C931 C 0.63689 0.36283 0.36285
 C932 C 0.61317 0.38493 0.38847
 C933 C 0.63725 0.13515 0.36298
 C934 C 0.61333 0.11373 0.38859
 C935 C -0.13664 0.35990 0.36612
 C936 C -0.11317 0.38298 0.39120
 C937 C 0.00102 0.50041 0.22647
 C938 C 0.00106 0.50033 0.27367
 C939 C 0.25191 0.75069 1.02317
 C940 C 0.25163 0.75069 0.97622
 C941 C 0.11306 0.61175 0.11410
 C942 C 0.13673 0.63466 0.13917
 C943 C 0.38930 0.88717 0.11170
 C944 C 0.36511 0.86380 0.13596
 C945 C 0.36319 0.63722 0.13714
 C946 C 0.38675 0.61336 0.11296
 C947 C 0.11403 0.89005 0.11305
 C948 C 0.13764 0.86767 0.13846
 C949 C 0.36293 0.63749 0.36299
 C950 C 0.38648 0.61347 0.38718
 C951 C 0.13661 -0.13215 0.35934
 C952 C 0.11287 -0.10943 0.38441
 C953 C 0.13656 0.63487 0.36022
 C954 C 0.11302 0.61172 0.38545
 C955 C 0.36302 -0.13613 0.36273
 C956 C 0.38657 -0.11253 0.38703
 C957 C 0.49759 0.49992 0.22668
 C958 C 0.49760 0.49984 0.27370
 C959 C 0.75164 0.75050 1.02324
 C960 C 0.75157 0.75049 0.97627
 C961 C 0.61303 0.61427 0.11194
 C962 C 0.63659 0.63626 0.13772
 C963 C 0.88719 0.88355 0.10836
 C964 C 0.86331 0.86113 0.13354
 C965 C 0.88645 0.61718 0.10925
 C966 C 0.86287 0.64004 0.13439
 C967 C 0.61202 0.88643 0.11033
 C968 C 0.63588 0.86473 0.13624
 C969 C -0.13710 0.64027 0.36543
 C970 C -0.11350 0.61730 0.39058
 C971 C 0.63639 -0.13541 0.36205
 C972 C 0.61279 -0.11381 0.38808
 C973 C 0.63642 0.63668 0.36233
 C974 C 0.61287 0.61447 0.38815
 C975 C -0.13732 -0.13847 0.36472
 C976 C -0.11373 -0.11571 0.38977
 C977 C 0.00103 0.00035 0.77469
 C978 C 0.00069 0.00061 0.72734
 C979 C 0.25103 0.24941 0.47661
 C980 C 0.25105 0.24923 0.52388
 C981 C 0.11241 0.11099 0.61541
 C982 C 0.13610 0.13336 0.64073
 C983 C 0.36269 0.36224 0.63787
 C984 C 0.38624 0.38613 0.61348
 C985 C 0.36260 0.13626 0.63780
 C986 C 0.38624 0.11284 0.61334
 C987 C 0.13633 0.36597 0.64143
 C988 C 0.11276 0.38911 0.61644
 C989 C 0.38718 0.11137 0.88763
 C990 C 0.36324 0.13510 0.86377
 C991 C 0.11276 0.38961 0.88459
 C992 C 0.13642 0.36639 0.86007
 C993 C 0.11182 0.10863 0.88517
 C994 C 0.13578 0.13167 0.86069
 C995 C 0.38650 0.38634 0.88774
 C996 C 0.36286 0.36239 0.86375
 C997 C 0.49783 -0.00139 0.77372
 C998 C 0.49749 -0.00089 0.72667
 C999 C 0.75164 0.24887 0.47731
 C1000 C 0.75127 0.24890 0.52438
 C1001 C 0.61250 0.11338 0.61282
 C1002 C 0.63605 0.13500 0.63879
 C1003 C -0.13781 0.36051 0.63543
 C1004 C -0.11401 0.38352 0.61068
 C1005 C 0.88589 0.11695 0.60962
 C1006 C 0.86222 0.13939 0.63484
 C1007 C 0.63574 0.36288 0.63897
 C1008 C 0.61232 0.38510 0.61304
 C1009 C 0.88710 0.11618 0.88891
 C1010 C 0.86302 0.13868 0.86461
 C1011 C 0.61270 0.38543 0.88842
 C1012 C 0.63619 0.36325 0.86278
 C1013 C 0.61197 0.11035 0.88968
 C1014 C 0.63571 0.13293 0.86402
 C1015 C 0.88615 0.38350 0.88990
 C1016 C 0.86245 0.36041 0.86520
 C1017 C 0.00049 0.50035 0.77633
 C1018 C 0.00050 0.50029 0.72894
 C1019 C 0.25133 0.75178 0.47616
 C1020 C 0.25121 0.75177 0.52324
 C1021 C 0.11260 0.61138 0.61581
 C1022 C 0.13614 0.63460 0.64059
 C1023 C 0.38614 0.88750 0.61277
 C1024 C 0.36247 0.86391 0.63692
 C1025 C 0.36246 0.63729 0.63684
 C1026 C 0.38608 0.61325 0.61277
 C1027 C 0.11243 0.89063 0.61502
 C1028 C 0.13612 0.86789 0.64001
 C1029 C 0.38640 0.61332 0.88692
 C1030 C 0.36270 0.63711 0.86271
 C1031 C 0.11187 0.89122 0.88491
 C1032 C 0.13578 0.86827 0.86015
 C1033 C 0.11256 0.61118 0.88388
 C1034 C 0.13622 0.63416 0.85913
 C1035 C 0.38718 0.88591 0.88723
 C1036 C 0.36320 0.86293 0.86298
 C1037 C 0.49736 0.49966 0.77370
 C1038 C 0.49723 0.49959 0.72666
 C1039 C 0.75112 0.75150 0.47620
 C1040 C 0.75100 0.75149 0.52329
 C1041 C 0.61246 0.61421 0.61251
 C1042 C 0.63597 0.63650 0.63820
 C1043 C 0.88585 0.88464 0.60934
 C1044 C 0.86218 0.86180 0.63430
 C1045 C 0.88615 0.61707 0.61007
 C1046 C 0.86241 0.64010 0.63474
 C1047 C 0.61231 0.88619 0.61250
 C1048 C 0.63593 0.86458 0.63831
 C1049 C 0.88620 0.61693 0.88947
 C1050 C 0.86257 0.63988 0.86454
 C1051 C 0.61183 0.88659 0.88940
 C1052 C 0.63561 0.86479 0.86341
 C1053 C 0.61288 0.61382 0.88779
 C1054 C 0.63643 0.63589 0.86206
 C1055 C 0.88699 0.88390 0.88855
 C1056 C 0.86295 0.86140 0.86408
   
