data_POSCAR
  _audit_creation_date              2014-09-24
  _audit_creation_method            'ToBaCCo'
  _symmetry_space_group_name_H-M    'P1'
  _symmetry_Int_Tables_number       1
  _symmetry_cell_setting            triclinic
  loop_
  _symmetry_equiv_pos_as_xyz
 x,y,z
_cell_length_a 44.7527
_cell_length_b 44.7370
_cell_length_c 44.7232
_cell_angle_alpha 89.996000
_cell_angle_beta 89.963700
_cell_angle_gamma 90.004700
loop_
  _atom_site_label
  _atom_site_type_symbol
  _atom_site_fract_x
  _atom_site_fract_y
  _atom_site_fract_z
C1 C 0.20382 0.52272 1.03698
 H2 H 0.20307 0.53986 1.01993
 C3 C 0.18357 0.52343 1.06073
 H4 H 0.16722 0.54126 1.06202
 C5 C 0.22549 0.47807 1.05563
 H6 H 0.24144 0.46011 1.05323
 C7 C 0.20563 0.47791 1.07976
 H8 H 0.20657 0.45994 1.09598
 N9 N 0.22433 0.50037 1.03494
 C10 C 0.29518 0.53623 0.97835
 H11 H 0.29595 0.51915 0.96124
 C12 C 0.31539 0.55998 0.97758
 H13 H 0.33176 0.56130 0.95977
 C14 C 0.27348 0.55496 1.02299
 H15 H 0.25753 0.55260 1.04097
 C16 C 0.29332 0.57908 1.02306
 H17 H 0.29243 0.59538 1.04096
 Zn18 Zn 0.24950 0.50022 1.00092
 N19 N 0.27466 0.53423 1.00073
 C20 C 0.22556 0.52227 0.94615
 N21 N 0.22437 0.50003 0.96690
 C22 C 0.20387 0.47765 0.96489
 C23 C 0.18371 0.47685 0.94110
 C24 C 0.20578 0.52232 0.92199
 C25 C 0.29517 0.46419 1.02343
 C26 C 0.31540 0.44044 1.02415
 C27 C 0.29336 0.42141 0.97865
 C28 C 0.27351 0.44553 0.97878
 N29 N 0.27467 0.46622 1.00107
 H30 H 0.24149 0.54025 0.94851
 H31 H 0.20308 0.46055 0.98198
 H32 H 0.16736 0.45904 0.93976
 H33 H 0.20670 0.54020 0.90567
 H34 H 0.29594 0.48124 1.04057
 H35 H 0.33176 0.43909 1.04194
 H36 H 0.29248 0.40515 0.96072
 H37 H 0.25758 0.44791 0.96081
 C38 C 0.31449 0.58156 1.00017
 C39 C 0.18444 0.50078 1.08229
 C40 C 0.31451 0.41890 1.00152
 C41 C 0.18465 0.49942 0.91949
 C42 C 0.79561 0.52282 -0.03562
 H43 H 0.79642 0.53990 -0.01852
 C44 C 0.81580 0.52358 -0.05941
 H45 H 0.83220 0.54135 -0.06073
 C46 C 0.77383 0.47826 -0.05439
 H47 H 0.75787 0.46031 -0.05203
 C48 C 0.79365 0.47818 -0.07855
 H49 H 0.79272 0.46031 -0.09487
 N50 N 0.77506 0.50048 -0.03362
 C51 C 0.70437 0.53628 0.02318
 H52 H 0.70360 0.51918 0.04027
 C53 C 0.68416 0.56004 0.02400
 H54 H 0.66781 0.56134 0.04183
 C55 C 0.72601 0.55506 -0.02147
 H56 H 0.74192 0.55272 -0.03948
 C57 C 0.70618 0.57919 -0.02149
 H58 H 0.70705 0.59550 -0.03938
 Zn59 Zn 0.74994 0.50025 0.00044
 N60 N 0.72485 0.53430 0.00076
 C61 C 0.77405 0.52209 0.05521
 N62 N 0.77514 0.49990 0.03440
 C63 C 0.79561 0.47749 0.03629
 C64 C 0.81586 0.47661 0.06000
 C65 C 0.79393 0.52206 0.07930
 C66 C 0.70419 0.46440 -0.02216
 C67 C 0.68395 0.44067 -0.02298
 C68 C 0.70603 0.42138 0.02240
 C69 C 0.72589 0.44548 0.02238
 N70 N 0.72473 0.46629 0.00019
 H71 H 0.75814 0.54010 0.05295
 H72 H 0.79632 0.46044 0.01915
 H73 H 0.83220 0.45878 0.06123
 H74 H 0.79310 0.53990 0.09566
 H75 H 0.70343 0.48154 -0.03921
 H76 H 0.66757 0.43942 -0.04076
 H77 H 0.70692 0.40501 0.04023
 H78 H 0.74185 0.44775 0.04033
 C79 C 0.68504 0.58164 0.00143
 C80 C 0.81485 0.50102 -0.08102
 C81 C 0.68485 0.41900 -0.00046
 C82 C 0.81504 0.49913 0.08166
 C83 C -0.02251 0.29616 0.46325
 H84 H -0.03960 0.29692 0.48035
 C85 C -0.02329 0.31639 0.43950
 H86 H -0.04113 0.33274 0.43826
 C87 C 0.02209 0.27449 0.44447
 H88 H 0.04006 0.25855 0.44681
 C89 C 0.02218 0.29433 0.42034
 H90 H 0.04010 0.29339 0.40406
 N91 N -0.00015 0.27565 0.46523
 C92 C -0.03583 0.20475 0.52187
 H93 H -0.01871 0.20398 0.53892
 C94 C -0.05957 0.18453 0.52270
 H95 H -0.06084 0.16815 0.54050
 C96 C -0.05468 0.22647 0.47731
 H97 H -0.05238 0.24243 0.45934
 C98 C -0.07880 0.20662 0.47731
 H99 H -0.09514 0.20753 0.45947
 Zn100 Zn 0.00009 0.25047 0.49924
 N101 N -0.03390 0.22529 0.49950
 C102 C -0.02189 0.27439 0.55406
 N103 N 0.00032 0.27561 0.53327
 C104 C 0.02268 0.29613 0.53527
 C105 C 0.02349 0.31629 0.55908
 C106 C -0.02192 0.29417 0.57824
 C107 C 0.03606 0.20480 0.47659
 C108 C 0.05981 0.18458 0.47578
 C109 C 0.07895 0.20664 0.52123
 C110 C 0.05483 0.22649 0.52120
 N111 N 0.03409 0.22531 0.49897
 H112 H -0.03985 0.25845 0.55171
 H113 H 0.03975 0.29694 0.51815
 H114 H 0.04128 0.33266 0.56040
 H115 H -0.03978 0.29323 0.59459
 H116 H 0.01897 0.20403 0.45951
 H117 H 0.06112 0.16821 0.45798
 H118 H 0.09526 0.20753 0.53911
 H119 H 0.05250 0.24242 0.53918
 C120 C -0.08121 0.18544 0.50019
 C121 C -0.00070 0.31552 0.41787
 C122 C 0.08141 0.18548 0.49835
 C123 C 0.00095 0.31533 0.58072
 C124 C 0.97744 0.70426 0.53586
 H125 H 0.96039 0.70345 0.51874
 C126 C 0.97663 0.68408 0.55966
 H127 H 0.95886 0.66769 0.56097
 C128 C 1.02198 0.72602 0.55466
 H129 H 1.03994 0.74197 0.55231
 C130 C 1.02201 0.70622 0.57882
 H131 H 1.03985 0.70715 0.59515
 N132 N 0.99979 0.72480 0.53387
 C133 C 0.96415 0.79552 0.47706
 H134 H 0.98128 0.79628 0.46000
 C135 C 0.94041 0.81574 0.47620
 H136 H 0.93915 0.83209 0.45838
 C137 C 0.94528 0.77389 0.52168
 H138 H 0.94757 0.75798 0.53968
 C139 C 0.92116 0.79374 0.52166
 H140 H 0.90481 0.79287 0.53952
 Zn141 Zn 1.00009 0.74990 0.49982
 N142 N 0.96608 0.77504 0.49947
 C143 C 0.97826 0.72581 0.44504
 N144 N 1.00044 0.72469 0.46584
 C145 C 1.02282 0.70419 0.46394
 C146 C 1.02368 0.68393 0.44022
 C147 C 0.97828 0.70592 0.42094
 C148 C 1.03593 0.79566 0.52244
 C149 C 1.05966 0.81590 0.52327
 C150 C 1.07899 0.79377 0.47791
 C151 C 1.05488 0.77391 0.47792
 N152 N 1.03405 0.77510 0.50009
 H153 H 0.96027 0.74173 0.44732
 H154 H 1.03986 0.70346 0.48107
 H155 H 1.04149 0.66757 0.43897
 H156 H 0.96044 0.70676 0.40460
 H157 H 1.01877 0.79644 0.53948
 H158 H 1.06088 0.83229 0.54105
 H159 H 1.09536 0.79287 0.46008
 H160 H 1.05263 0.75794 0.45996
 C161 C 0.91876 0.81487 0.49874
 C162 C 0.99916 0.68503 0.58128
 C163 C 1.08134 0.81497 0.50077
 C164 C 1.00117 0.68477 0.41857
 C165 C 0.46418 -0.02325 0.29520
 H166 H 0.48127 -0.04033 0.29599
 C167 C 0.44042 -0.02404 0.31543
 H168 H 0.43911 -0.04182 0.33183
 C169 C 0.44540 0.02132 0.27347
 H170 H 0.44774 0.03929 0.25751
 C171 C 0.42127 0.02138 0.29332
 H172 H 0.40496 0.03925 0.29242
 N173 N 0.46615 -0.00090 0.27466
 C174 C 0.52281 -0.03664 0.20381
 H175 H 0.53989 -0.01954 0.20303
 C176 C 0.52361 -0.06038 0.18357
 H177 H 0.54144 -0.06162 0.16721
 C178 C 0.47821 -0.05541 0.22551
 H179 H 0.46024 -0.05307 0.24146
 C180 C 0.47814 -0.07954 0.20566
 H181 H 0.46023 -0.09582 0.20662
 Zn182 Zn 0.50016 -0.00065 0.24949
 N183 N 0.50044 -0.03466 0.22433
 C184 C 0.55495 -0.02251 0.27348
 N185 N 0.53413 -0.00034 0.27466
 C186 C 0.53604 0.02204 0.29518
 C187 C 0.55978 0.02291 0.31539
 C188 C 0.57907 -0.02248 0.29332
 C189 C 0.47755 0.03531 0.20378
 C190 C 0.47672 0.05910 0.18360
 C191 C 0.52210 0.07831 0.20570
 C192 C 0.52209 0.05415 0.22551
 N193 N 0.49990 0.03335 0.22431
 H194 H 0.55268 -0.04049 0.25754
 H195 H 0.51889 0.03907 0.29595
 H196 H 0.56103 0.04072 0.33175
 H197 H 0.59544 -0.04029 0.29242
 H198 H 0.46050 0.01818 0.20299
 H199 H 0.45893 0.06040 0.16724
 H200 H 0.53992 0.09467 0.20662
 H201 H 0.54005 0.05183 0.24145
 C202 C 0.50103 -0.08200 0.18446
 C203 C 0.41882 -0.00148 0.31451
 C204 C 0.49922 0.08076 0.18454
 C205 C 0.58145 0.00042 0.31448
 C206 C 0.53603 -0.02274 0.70426
 H207 H 0.51892 -0.03982 0.70350
 C208 C 0.55979 -0.02356 0.68405
 H209 H 0.56110 -0.04137 0.66768
 C210 C 0.55481 0.02186 0.72593
 H211 H 0.55247 0.03985 0.74186
 C212 C 0.57895 0.02189 0.70609
 H213 H 0.59527 0.03975 0.70697
 N214 N 0.53404 -0.00035 0.72477
 C215 C 0.47731 -0.03596 0.79564
 H216 H 0.46024 -0.01884 0.79638
 C217 C 0.47646 -0.05969 0.81590
 H218 H 0.45865 -0.06095 0.83226
 C219 C 0.52189 -0.05481 0.77399
 H220 H 0.53988 -0.05252 0.75805
 C221 C 0.52190 -0.07892 0.79387
 H222 H 0.53975 -0.09525 0.79302
 Zn223 Zn 0.50002 -0.00005 0.74991
 N224 N 0.49969 -0.03403 0.77512
 C225 C 0.44524 -0.02195 0.72592
 N226 N 0.46606 0.00022 0.72471
 C227 C 0.46417 0.02257 0.70416
 C228 C 0.44043 0.02342 0.68395
 C229 C 0.42112 -0.02194 0.70608
 C230 C 0.52259 0.03598 0.79558
 C231 C 0.52337 0.05977 0.81577
 C232 C 0.47799 0.07891 0.79362
 C233 C 0.47805 0.05475 0.77381
 N234 N 0.50025 0.03398 0.77504
 H235 H 0.44751 -0.03991 0.74189
 H236 H 0.48131 0.03960 0.70337
 H237 H 0.43919 0.04121 0.66756
 H238 H 0.40475 -0.03976 0.70699
 H239 H 0.53965 0.01887 0.79640
 H240 H 0.54113 0.06109 0.83216
 H241 H 0.46013 0.09524 0.79268
 H242 H 0.46010 0.05240 0.75786
 C243 C 0.49900 -0.08132 0.81504
 C244 C 0.58140 -0.00101 0.68494
 C245 C 0.50083 0.08139 0.81481
 C246 C 0.41875 0.00093 0.68489
 Si247 Si 0.25001 0.00021 0.49978
 Si248 Si 0.75016 0.00016 0.49962
 Si249 Si 0.49971 0.25023 0.99994
 Si250 Si 0.49974 0.75023 0.00060
 Si251 Si 1.00050 0.49932 0.25002
 Si252 Si 0.00008 0.49992 0.75018
 C253 C 0.14787 0.12311 0.49883
 N254 N 0.15849 0.11226 0.52507
 N255 N 0.17875 0.09043 0.52524
 C256 C 0.18901 0.07880 0.49918
 N257 N 0.17843 0.08969 0.47294
 N258 N 0.15817 0.11152 0.47277
 C259 C 0.12502 0.14561 0.49866
 C260 C 0.10537 0.16403 0.49852
 C261 C 0.20961 0.05423 0.49938
 C262 C 0.22625 0.03306 0.49954
 C263 C 0.62262 0.64806 0.00098
 N264 N 0.61152 0.65882 0.02707
 N265 N 0.58967 0.67906 0.02696
 C266 C 0.57828 0.68917 0.00075
 N267 N 0.58942 0.67847 -0.02535
 N268 N 0.61127 0.65822 -0.02523
 C269 C 0.64514 0.62523 0.00112
 C270 C 0.66358 0.60559 0.00126
 C271 C 0.55371 0.70977 0.00065
 C272 C 0.53255 0.72642 0.00060
 C273 C 0.85234 -0.12272 0.49906
 N274 N 0.84175 -0.11173 0.52527
 N275 N 0.82150 -0.08988 0.52537
 C276 C 0.81123 -0.07838 0.49927
 N277 N 0.82177 -0.08941 0.47306
 N278 N 0.84202 -0.11125 0.47296
 C279 C 0.87517 -0.14523 0.49896
 C280 C 0.89481 -0.16367 0.49886
 C281 C 0.79063 -0.05380 0.49939
 C282 C 0.77397 -0.03265 0.49949
 C283 C 0.37687 0.35243 1.00080
 N284 N 0.38819 0.34233 0.97454
 N285 N 0.41001 0.32206 0.97433
 C286 C 0.42116 0.31127 1.00038
 N287 N 0.40980 0.32133 1.02663
 N288 N 0.38798 0.34160 1.02684
 C289 C 0.35438 0.37528 1.00104
 C290 C 0.33596 0.39494 1.00126
 C291 C 0.44572 0.29066 1.00018
 C292 C 0.46688 0.27401 1.00005
 C293 C 0.85231 0.12307 0.49993
 N294 N 0.84186 0.11176 0.52606
 N295 N 0.82160 0.08992 0.52600
 C296 C 0.81117 0.07875 0.49982
 N297 N 0.82158 0.09011 0.47369
 N298 N 0.84184 0.11195 0.47375
 C299 C 0.87516 0.14557 0.49999
 C300 C 0.89482 0.16400 0.50007
 C301 C 0.79058 0.05417 0.49975
 C302 C 0.77393 0.03301 0.49970
 C303 C 0.37686 0.64804 0.00059
 N304 N 0.38851 0.65795 0.02677
 N305 N 0.41035 0.67821 0.02682
 C306 C 0.42118 0.68918 0.00071
 N307 N 0.40949 0.67932 -0.02547
 N308 N 0.38765 0.65906 -0.02552
 C309 C 0.35436 0.62519 0.00049
 C310 C 0.33593 0.60553 0.00036
 C311 C 0.44575 0.70978 0.00072
 C312 C 0.46691 0.72644 0.00069
 C313 C 0.14778 -0.12263 0.50045
 N314 N 0.15850 -0.11176 0.47425
 N315 N 0.17876 -0.08992 0.47414
 C316 C 0.18892 -0.07831 0.50024
 N317 N 0.17824 -0.08922 0.52644
 N318 N 0.15799 -0.11106 0.52655
 C319 C 0.12494 -0.14513 0.50055
 C320 C 0.10529 -0.16357 0.50064
 C321 C 0.20953 -0.05374 0.50010
 C322 C 0.22619 -0.03259 0.49998
 C323 C 0.62249 0.35252 0.99983
 N324 N 0.61109 0.34229 1.02601
 N325 N 0.58927 0.32202 1.02606
 C326 C 0.57820 0.31135 0.99994
 N327 N 0.58964 0.32153 0.97376
 N328 N 0.61146 0.34180 0.97371
 C329 C 0.64498 0.37538 0.99976
 C330 C 0.66340 0.39504 0.99967
 C331 C 0.55365 0.29073 0.99997
 C332 C 0.53251 0.27405 0.99997
 C333 C 0.49950 0.14749 1.12241
 N334 N 0.52567 0.15786 1.11116
 N335 N 0.52574 0.17824 1.08941
 C336 C 0.49963 0.18887 1.07829
 N337 N 0.47346 0.17854 1.08958
 N338 N 0.47340 0.15817 1.11133
 C339 C 0.49942 0.12454 1.14481
 C340 C 0.49934 0.10480 1.16317
 C341 C 0.49969 0.20958 1.05380
 C342 C 0.49971 0.22633 1.03270
 C343 C -0.00037 0.62275 0.64788
 N344 N -0.02644 0.61166 0.65867
 N345 N -0.02631 0.58985 0.67897
 C346 C -0.00011 0.57848 0.68910
 N347 N 0.02596 0.58961 0.67834
 N348 N 0.02583 0.61142 0.65805
 C349 C -0.00053 0.64522 0.62498
 C350 C -0.00067 0.66362 0.60529
 C351 C 0.00001 0.55392 0.70972
 C352 C 0.00007 0.53276 0.72639
 C353 C 0.49935 0.85228 -0.12247
 N354 N 0.47326 0.84172 -0.11120
 N355 N 0.47335 0.82148 -0.08933
 C356 C 0.49954 0.81118 -0.07808
 N357 N 0.52563 0.82170 -0.08939
 N358 N 0.52553 0.84194 -0.11126
 C359 C 0.49924 0.87511 -0.14501
 C360 C 0.49913 0.89474 -0.16347
 C361 C 0.49963 0.79060 -0.05348
 C362 C 0.49969 0.77397 -0.03229
 C363 C 0.99987 0.37665 0.35253
 N364 N 1.02609 0.38796 0.34235
 N365 N 1.02626 0.40974 0.32201
 C366 C 1.00021 0.42085 0.31124
 N367 N 0.97399 0.40950 0.32137
 N368 N 0.97382 0.38772 0.34171
 C369 C 0.99967 0.35421 0.37545
 C370 C 0.99950 0.33582 0.39517
 C371 C 1.00036 0.44538 0.29057
 C372 C 1.00045 0.46651 0.27386
 C373 C 0.50046 0.85272 0.12328
 N374 N 0.47423 0.84245 0.11209
 N375 N 0.47406 0.82214 0.09029
 C376 C 0.50011 0.81147 0.07904
 N377 N 0.52633 0.82169 0.09027
 N378 N 0.52651 0.84200 0.11207
 C379 C 0.50066 0.87562 0.14574
 C380 C 0.50083 0.89531 0.16414
 C381 C 0.49994 0.79081 0.05451
 C382 C 0.49983 0.77410 0.03338
 C383 C 0.00057 0.37742 0.64749
 N384 N 0.02665 0.38864 0.65808
 N385 N 0.02654 0.41038 0.67846
 C386 C 0.00034 0.42153 0.68888
 N387 N -0.02574 0.41026 0.67833
 N388 N -0.02563 0.38853 0.65795
 C389 C 0.00069 0.35503 0.62452
 C390 C 0.00080 0.33669 0.60478
 C391 C 0.00023 0.44602 0.70959
 C392 C 0.00016 0.46713 0.72632
 C393 C 0.50029 0.14800 0.87706
 N394 N 0.52634 0.15881 0.88813
 N395 N 0.52619 0.17911 0.90993
 C396 C 0.49998 0.18923 0.92131
 N397 N 0.47392 0.17847 0.91020
 N398 N 0.47407 0.15817 0.88839
 C399 C 0.50047 0.12510 0.85460
 C400 C 0.50063 0.10540 0.83621
 C401 C 0.49984 0.20985 0.94588
 C402 C 0.49976 0.22650 0.96705
 C403 C 1.00087 0.62228 0.35218
 N404 N 0.97469 0.61110 0.34179
 N405 N 0.97460 0.58924 0.32154
 C406 C 1.00069 0.57791 0.31106
 N407 N 1.02687 0.58913 0.32141
 N408 N 1.02696 0.61099 0.34165
 C409 C 1.00096 0.64481 0.37500
 C410 C 1.00105 0.66328 0.39463
 C411 C 1.00060 0.55332 0.29047
 C412 C 1.00055 0.53216 0.27382
 C413 C 1.12323 0.50001 0.14757
 N414 N 1.11167 0.47377 0.15742
 N415 N 1.08987 0.47356 0.17773
 C416 C 1.07897 0.49960 0.18881
 N417 N 1.09058 0.52584 0.17900
 N418 N 1.11238 0.52604 0.15869
 C419 C 1.14570 0.50027 0.12467
 C420 C 1.16411 0.50050 0.10497
 C421 C 1.05443 0.49943 0.20947
 C422 C 1.03330 0.49934 0.22617
 C423 C 0.64791 -0.00057 0.62254
 N424 N 0.65834 -0.02664 0.61111
 N425 N 0.67862 -0.02649 0.58927
 C426 C 0.68909 -0.00027 0.57822
 N427 N 0.67870 0.02580 0.58969
 N428 N 0.65842 0.02565 0.61153
 C429 C 0.62505 -0.00072 0.64505
 C430 C 0.60538 -0.00085 0.66348
 C431 C 0.70970 -0.00011 0.55364
 C432 C 0.72637 0.00001 0.53247
 C433 C -0.12282 0.50042 0.85242
 N434 N -0.11133 0.47419 0.84244
 N435 N -0.08950 0.47404 0.82215
 C436 C -0.07851 0.50010 0.81122
 N437 N -0.09004 0.52632 0.82116
 N438 N -0.11187 0.52648 0.84144
 C439 C -0.14530 0.50061 0.87530
 C440 C -0.16372 0.50080 0.89498
 C441 C -0.05394 0.49997 0.79061
 C442 C -0.03277 0.49991 0.77395
 C443 C 0.35232 -0.00090 0.37691
 N444 N 0.34196 -0.02694 0.38849
 N445 N 0.32168 -0.02673 0.41033
 C446 C 0.31113 -0.00047 0.42122
 N447 N 0.32145 0.02556 0.40960
 N448 N 0.34173 0.02535 0.38776
 C449 C 0.37518 -0.00111 0.35441
 C450 C 0.39485 -0.00128 0.33598
 C451 C 0.29051 -0.00023 0.44579
 C452 C 0.27383 -0.00004 0.46695
 C453 C 0.12256 0.49974 0.85278
 N454 N 0.11126 0.52592 0.84248
 N455 N 0.08952 0.52598 0.82212
 C456 C 0.07843 0.49986 0.81144
 N457 N 0.08977 0.47368 0.82170
 N458 N 0.11151 0.47363 0.84205
 C459 C 0.14495 0.49966 0.87572
 C460 C 0.16329 0.49956 0.89545
 C461 C 0.05395 0.49990 0.79075
 C462 C 0.03285 0.49992 0.77403
 C463 C 0.64794 0.00031 0.37680
 N464 N 0.65827 0.02645 0.38816
 N465 N 0.67853 0.02643 0.40998
 C466 C 0.68910 0.00028 0.42109
 N467 N 0.67882 -0.02586 0.40969
 N468 N 0.65855 -0.02584 0.38786
 C469 C 0.62509 0.00032 0.35432
 C470 C 0.60542 0.00035 0.33590
 C471 C 0.70970 0.00026 0.44565
 C472 C 0.72637 0.00023 0.46680
 C473 C 0.87752 0.49930 0.14801
 N474 N 0.88870 0.47316 0.15855
 N475 N 0.91056 0.47318 0.17877
 C476 C 0.92190 0.49934 0.18907
 N477 N 0.91069 0.52547 0.17858
 N478 N 0.88882 0.52546 0.15836
 C479 C 0.85499 0.49927 0.12521
 C480 C 0.83653 0.49922 0.10559
 C481 C 0.94649 0.49935 0.20963
 C482 C 0.96766 0.49935 0.22626
 C483 C 0.35224 0.00072 0.62259
 N484 N 0.34206 0.02683 0.61102
 N485 N 0.32178 0.02676 0.58921
 C486 C 0.31106 0.00058 0.57832
 N487 N 0.32119 -0.02553 0.58993
 N488 N 0.34146 -0.02546 0.61174
 C489 C 0.37510 0.00077 0.64506
 C490 C 0.39477 0.00083 0.66346
 C491 C 0.29045 0.00048 0.55377
 C492 C 0.27379 0.00039 0.53261
   
