data_POSCAR
  _audit_creation_date              2014-09-24
  _audit_creation_method            'ToBaCCo'
  _symmetry_space_group_name_H-M    'P1'
  _symmetry_Int_Tables_number       1
  _symmetry_cell_setting            triclinic
  loop_
  _symmetry_equiv_pos_as_xyz
 x,y,z
_cell_length_a 28.4124
_cell_length_b 28.4124
_cell_length_c 32.0123
_cell_angle_alpha 90.000000
_cell_angle_beta 90.000000
_cell_angle_gamma 90.000000
loop_
  _atom_site_label
  _atom_site_type_symbol
  _atom_site_fract_x
  _atom_site_fract_y
  _atom_site_fract_z
C1 C 0.41838 -0.00000 0.25000
 C2 C 0.08162 0.00000 0.75000
 C3 C 0.58162 0.50000 0.25000
 C4 C 0.91838 0.50000 0.75000
 C5 C 0.25000 0.33323 1.00000
 C6 C 0.75000 0.16677 1.00000
 C7 C 0.25000 0.66677 0.50000
 C8 C 0.75000 0.83323 0.50000
 C9 C -0.00000 0.25000 0.37255
 C10 C -0.00000 0.75000 0.12745
 C11 C 0.50000 0.25000 0.62745
 C12 C 0.50000 0.75000 0.87255
 C13 C -0.25000 0.66838 1.00000
 C14 C -0.25000 0.33162 0.50000
 C15 C 0.25000 -0.16839 0.00000
 C16 C 0.25000 1.16839 0.50000
 C17 C 0.08322 0.50000 0.25000
 C18 C -0.08323 1.00000 0.25000
 C19 C 0.41678 0.50000 -0.25000
 C20 C 0.58322 -0.00000 -0.25000
 C21 C 0.00000 0.25000 0.87745
 C22 C 0.50000 0.25000 0.12255
 C23 C 0.00000 0.75000 0.62255
 C24 C 0.50000 0.75000 0.37745
 Zr25 Zr 0.04023 -0.03800 1.05606
 O26 O 0.09440 -0.02193 1.09906
 O27 O 0.02221 -0.10463 1.07557
 O28 O 0.01374 -0.02903 1.11899
 O29 O 0.11419 -0.07207 0.97275
 O30 O -0.05062 0.01849 1.11130
 O31 O 0.10429 -0.07724 1.04344
 O32 O -0.03972 -0.12656 1.03409
 O33 O -0.03349 -0.03935 1.04974
 O34 O 0.02440 -0.07252 0.99979
 O35 O 0.01792 0.03247 1.05703
 O36 O 0.07541 -0.00035 1.00878
 Zr37 Zr -0.03978 0.03580 0.94452
 Zr38 Zr -0.05519 0.03087 1.04750
 Zr39 Zr 0.05566 -0.03336 0.95271
 Zr40 Zr -0.04845 -0.07134 0.99238
 O41 O 0.11854 -0.00358 0.92895
 O42 O -0.11417 -0.08423 1.02168
 O43 O -0.01749 -0.03508 0.94264
 O44 O -0.07381 -0.00263 0.99160
 O45 O -0.02388 0.07079 1.00055
 O46 O 0.03388 0.03648 0.95121
 C47 C -0.00990 -0.13280 1.06334
 C48 C 0.12727 -0.08611 1.00894
 C49 C -0.02203 -0.00536 1.13357
 O50 O -0.11922 0.00168 1.06932
 O51 O -0.11177 0.07287 1.02832
 O52 O -0.10302 0.07660 0.95750
 C53 C -0.12531 0.08653 0.99218
 O54 O 0.10590 0.07070 1.05160
 Zr55 Zr 0.04945 0.06847 1.00805
 O56 O -0.02266 0.10350 0.92681
 O57 O -0.05324 0.09619 1.07931
 O58 O 0.03689 0.12697 1.04771
 O59 O 0.11258 0.08524 0.97593
 O60 O 0.03634 0.12664 0.97106
 C61 C 0.00731 0.13276 0.94126
 O62 O -0.09483 0.02080 0.90208
 O63 O 0.05549 -0.09942 0.92201
 O64 O -0.01469 0.02549 0.88138
 O65 O 0.04791 -0.02448 0.88854
 O66 O -0.03416 -0.13281 0.95699
 O67 O -0.09867 -0.07813 0.94351
 C68 C 0.01984 0.00033 0.86647
 H69 H 0.03648 -0.10518 0.99878
 H70 H -0.10831 -0.00343 0.98737
 H71 H 0.04999 0.05316 0.92814
 H72 H 0.02650 0.04812 1.08359
 H73 H -0.12203 -0.11787 1.01737
 H74 H -0.13319 0.02457 1.08915
 H75 H -0.08172 0.09782 1.09716
 H76 H 0.05947 0.15207 1.03990
 H77 H -0.05729 -0.15715 0.96541
 H78 H 0.08467 -0.10118 0.90508
 H79 H 0.13176 -0.02633 0.90860
 H80 H 0.12006 0.11864 0.98191
 H81 H -0.11725 -0.10723 0.94769
 H82 H -0.09853 0.04909 0.88422
 H83 H 0.09842 -0.05017 1.11694
 H84 H 0.12004 0.10254 1.05168
 Zr85 Zr 0.54023 0.46200 0.55606
 O86 O 0.59440 0.47808 0.59906
 O87 O 0.52221 0.39537 0.57557
 O88 O 0.51374 0.47098 0.61899
 O89 O 0.61419 0.42793 0.47275
 O90 O 0.44938 0.51849 0.61130
 O91 O 0.60429 0.42276 0.54344
 O92 O 0.46028 0.37344 0.53409
 O93 O 0.46651 0.46065 0.54974
 O94 O 0.52440 0.42748 0.49979
 O95 O 0.51792 0.53247 0.55703
 O96 O 0.57541 0.49965 0.50878
 Zr97 Zr 0.46022 0.53581 0.44452
 Zr98 Zr 0.44481 0.53088 0.54750
 Zr99 Zr 0.55566 0.46664 0.45271
 Zr100 Zr 0.45155 0.42867 0.49238
 O101 O 0.61854 0.49642 0.42895
 O102 O 0.38583 0.41578 0.52168
 O103 O 0.48251 0.46492 0.44264
 O104 O 0.42619 0.49737 0.49160
 O105 O 0.47612 0.57080 0.50055
 O106 O 0.53388 0.53648 0.45121
 C107 C 0.49010 0.36720 0.56334
 C108 C 0.62727 0.41390 0.50894
 C109 C 0.47797 0.49464 0.63357
 O110 O 0.38078 0.50168 0.56932
 O111 O 0.38823 0.57287 0.52832
 O112 O 0.39698 0.57660 0.45750
 C113 C 0.37469 0.58653 0.49218
 O114 O 0.60590 0.57070 0.55160
 Zr115 Zr 0.54945 0.56848 0.50805
 O116 O 0.47734 0.60350 0.42681
 O117 O 0.44676 0.59619 0.57931
 O118 O 0.53689 0.62698 0.54771
 O119 O 0.61258 0.58524 0.47593
 O120 O 0.53633 0.62665 0.47106
 C121 C 0.50731 0.63276 0.44126
 O122 O 0.40517 0.52080 0.40209
 O123 O 0.55549 0.40058 0.42201
 O124 O 0.48531 0.52549 0.38138
 O125 O 0.54791 0.47552 0.38854
 O126 O 0.46584 0.36719 0.45699
 O127 O 0.40133 0.42187 0.44351
 C128 C 0.51984 0.50033 0.36647
 H129 H 0.53648 0.39482 0.49878
 H130 H 0.39169 0.49657 0.48737
 H131 H 0.54999 0.55317 0.42813
 H132 H 0.52650 0.54813 0.58359
 H133 H 0.37797 0.38214 0.51737
 H134 H 0.36681 0.52457 0.58915
 H135 H 0.41828 0.59782 0.59716
 H136 H 0.55947 0.65207 0.53990
 H137 H 0.44271 0.34286 0.46541
 H138 H 0.58467 0.39883 0.40507
 H139 H 0.63176 0.47368 0.40860
 H140 H 0.62006 0.61865 0.48191
 H141 H 0.38275 0.39277 0.44769
 H142 H 0.40147 0.54909 0.38422
 H143 H 0.59842 0.44983 0.61694
 H144 H 0.62004 0.60255 0.55167
 Zr145 Zr 0.45977 1.03800 0.55606
 O146 O 0.40560 1.02193 0.59906
 O147 O 0.47779 1.10463 0.57557
 O148 O 0.48626 1.02903 0.61899
 O149 O 0.38581 1.07207 0.47275
 O150 O 0.55062 0.98151 0.61130
 O151 O 0.39571 1.07724 0.54344
 O152 O 0.53972 1.12656 0.53409
 O153 O 0.53349 1.03935 0.54974
 O154 O 0.47560 1.07252 0.49979
 O155 O 0.48208 0.96753 0.55703
 O156 O 0.42459 1.00035 0.50878
 Zr157 Zr 0.53978 0.96420 0.44452
 Zr158 Zr 0.55519 0.96913 0.54750
 Zr159 Zr 0.44434 1.03336 0.45271
 Zr160 Zr 0.54845 1.07134 0.49238
 O161 O 0.38146 1.00358 0.42895
 O162 O 0.61417 1.08423 0.52168
 O163 O 0.51749 1.03508 0.44264
 O164 O 0.57381 1.00263 0.49160
 O165 O 0.52388 0.92921 0.50055
 O166 O 0.46612 0.96352 0.45121
 C167 C 0.50990 1.13280 0.56334
 C168 C 0.37273 1.08611 0.50894
 C169 C 0.52203 1.00536 0.63357
 O170 O 0.61922 0.99832 0.56932
 O171 O 0.61177 0.92713 0.52832
 O172 O 0.60302 0.92340 0.45750
 C173 C 0.62531 0.91347 0.49218
 O174 O 0.39410 0.92930 0.55160
 Zr175 Zr 0.45055 0.93153 0.50805
 O176 O 0.52266 0.89650 0.42681
 O177 O 0.55324 0.90381 0.57931
 O178 O 0.46311 0.87303 0.54771
 O179 O 0.38742 0.91476 0.47593
 O180 O 0.46366 0.87336 0.47106
 C181 C 0.49269 0.86724 0.44126
 O182 O 0.59483 0.97920 0.40208
 O183 O 0.44451 1.09942 0.42201
 O184 O 0.51469 0.97451 0.38138
 O185 O 0.45209 1.02448 0.38854
 O186 O 0.53416 1.13281 0.45699
 O187 O 0.59867 1.07813 0.44351
 C188 C 0.48016 0.99967 0.36647
 H189 H 0.46352 1.10518 0.49878
 H190 H 0.60831 1.00343 0.48737
 H191 H 0.45001 0.94684 0.42814
 H192 H 0.47350 0.95188 0.58359
 H193 H 0.62203 1.11787 0.51737
 H194 H 0.63319 0.97543 0.58915
 H195 H 0.58172 0.90218 0.59716
 H196 H 0.44053 0.84793 0.53990
 H197 H 0.55729 1.15715 0.46541
 H198 H 0.41533 1.10118 0.40507
 H199 H 0.36824 1.02633 0.40860
 H200 H 0.37994 0.88136 0.48191
 H201 H 0.61725 1.10723 0.44769
 H202 H 0.59853 0.95091 0.38422
 H203 H 0.40158 1.05017 0.61694
 H204 H 0.37996 0.89746 0.55168
 Zr205 Zr -0.04023 0.53800 1.05606
 O206 O -0.09440 0.52193 1.09906
 O207 O -0.02221 0.60463 1.07557
 O208 O -0.01374 0.52902 1.11899
 O209 O -0.11419 0.57207 0.97275
 O210 O 0.05062 0.48151 1.11130
 O211 O -0.10429 0.57724 1.04344
 O212 O 0.03972 0.62655 1.03409
 O213 O 0.03349 0.53935 1.04974
 O214 O -0.02440 0.57252 0.99979
 O215 O -0.01792 0.46753 1.05703
 O216 O -0.07541 0.50035 1.00878
 Zr217 Zr 0.03978 0.46419 0.94452
 Zr218 Zr 0.05519 0.46912 1.04750
 Zr219 Zr -0.05566 0.53336 0.95271
 Zr220 Zr 0.04845 0.57133 0.99238
 O221 O -0.11854 0.50358 0.92895
 O222 O 0.11417 0.58422 1.02168
 O223 O 0.01749 0.53508 0.94264
 O224 O 0.07381 0.50263 0.99160
 O225 O 0.02388 0.42920 1.00055
 O226 O -0.03388 0.46352 0.95121
 C227 C 0.00990 0.63280 1.06334
 C228 C -0.12727 0.58610 1.00894
 C229 C 0.02203 0.50536 1.13357
 O230 O 0.11922 0.49832 1.06932
 O231 O 0.11177 0.42713 1.02832
 O232 O 0.10302 0.42340 0.95750
 C233 C 0.12531 0.41347 0.99218
 O234 O -0.10590 0.42930 1.05160
 Zr235 Zr -0.04945 0.43152 1.00805
 O236 O 0.02266 0.39650 0.92681
 O237 O 0.05324 0.40381 1.07931
 O238 O -0.03689 0.37302 1.04771
 O239 O -0.11258 0.41476 0.97593
 O240 O -0.03633 0.37335 0.97106
 C241 C -0.00731 0.36724 0.94126
 O242 O 0.09483 0.47920 0.90209
 O243 O -0.05549 0.59941 0.92201
 O244 O 0.01469 0.47451 0.88138
 O245 O -0.04791 0.52448 0.88854
 O246 O 0.03416 0.63281 0.95699
 O247 O 0.09867 0.57813 0.94351
 C248 C -0.01984 0.49967 0.86647
 H249 H -0.03648 0.60518 0.99878
 H250 H 0.10831 0.50343 0.98737
 H251 H -0.04999 0.44683 0.92814
 H252 H -0.02650 0.45187 1.08359
 H253 H 0.12203 0.61786 1.01737
 H254 H 0.13319 0.47543 1.08915
 H255 H 0.08172 0.40218 1.09716
 H256 H -0.05947 0.34793 1.03990
 H257 H 0.05729 0.65714 0.96541
 H258 H -0.08467 0.60117 0.90507
 H259 H -0.13176 0.52632 0.90860
 H260 H -0.12006 0.38135 0.98191
 H261 H 0.11725 0.60723 0.94769
 H262 H 0.09853 0.45091 0.88422
 H263 H -0.09842 0.55017 1.11694
 H264 H -0.12004 0.39745 1.05167
 Zr265 Zr -0.04022 0.46200 0.44395
 O266 O -0.09439 0.47807 0.40094
 O267 O -0.02220 0.39537 0.42444
 O268 O -0.01373 0.47097 0.38101
 O269 O -0.11418 0.42793 0.52725
 O270 O 0.05063 0.51849 0.38870
 O271 O -0.10428 0.42276 0.45656
 O272 O 0.03973 0.37344 0.46591
 O273 O 0.03350 0.46065 0.45027
 O274 O -0.02439 0.42748 0.50021
 O275 O -0.01791 0.53247 0.44297
 O276 O -0.07540 0.49964 0.49122
 Zr277 Zr 0.03979 0.53580 0.55548
 Zr278 Zr 0.05520 0.53087 0.45251
 Zr279 Zr -0.05565 0.46664 0.54729
 Zr280 Zr 0.04846 0.42866 0.50763
 O281 O -0.11853 0.49642 0.57106
 O282 O 0.11418 0.41577 0.47833
 O283 O 0.01750 0.46492 0.55737
 O284 O 0.07382 0.49737 0.50841
 O285 O 0.02389 0.57079 0.49945
 O286 O -0.03387 0.53648 0.54880
 C287 C 0.00991 0.36720 0.43666
 C288 C -0.12726 0.41389 0.49107
 C289 C 0.02204 0.49463 0.36644
 O290 O 0.11923 0.50168 0.43069
 O291 O 0.11178 0.57286 0.47169
 O292 O 0.10303 0.57660 0.54251
 C293 C 0.12532 0.58653 0.50783
 O294 O -0.10589 0.57070 0.44840
 Zr295 Zr -0.04944 0.56847 0.49195
 O296 O 0.02267 0.60350 0.57319
 O297 O 0.05325 0.59619 0.42070
 O298 O -0.03688 0.62697 0.45230
 O299 O -0.11257 0.58524 0.52407
 O300 O -0.03632 0.62664 0.52894
 C301 C -0.00730 0.63276 0.55874
 O302 O 0.09484 0.52079 0.59792
 O303 O -0.05548 0.40058 0.57800
 O304 O 0.01470 0.52549 0.61862
 O305 O -0.04790 0.47552 0.61147
 O306 O 0.03417 0.36718 0.54302
 O307 O 0.09868 0.42187 0.55649
 C308 C -0.01983 0.50033 0.63353
 H309 H -0.03647 0.39482 0.50122
 H310 H 0.10832 0.49657 0.51263
 H311 H -0.04998 0.55316 0.57187
 H312 H -0.02649 0.54812 0.41642
 H313 H 0.12204 0.38213 0.48264
 H314 H 0.13320 0.52457 0.41085
 H315 H 0.08173 0.59782 0.40285
 H316 H -0.05946 0.65207 0.46010
 H317 H 0.05730 0.34285 0.53459
 H318 H -0.08466 0.39882 0.59493
 H319 H -0.13175 0.47367 0.59141
 H320 H -0.12004 0.61865 0.51809
 H321 H 0.11726 0.39277 0.55231
 H322 H 0.09854 0.54909 0.61578
 H323 H -0.09841 0.44983 0.38307
 H324 H -0.12003 0.60254 0.44833
 Zr325 Zr 0.45978 -0.03800 -0.05605
 O326 O 0.40561 -0.02193 -0.09906
 O327 O 0.47780 -0.10464 -0.07557
 O328 O 0.48627 -0.02903 -0.11899
 O329 O 0.38582 -0.07208 0.02725
 O330 O 0.55063 0.01849 -0.11130
 O331 O 0.39572 -0.07725 -0.04344
 O332 O 0.53973 -0.12656 -0.03409
 O333 O 0.53350 -0.03936 -0.04973
 O334 O 0.47561 -0.07253 0.00021
 O335 O 0.48209 0.03246 -0.05703
 O336 O 0.42460 -0.00036 -0.00878
 Zr337 Zr 0.53979 0.03580 0.05548
 Zr338 Zr 0.55520 0.03087 -0.04749
 Zr339 Zr 0.44435 -0.03337 0.04729
 Zr340 Zr 0.54846 -0.07134 0.00763
 O341 O 0.38147 -0.00358 0.07106
 O342 O 0.61418 -0.08423 -0.02167
 O343 O 0.51750 -0.03508 0.05737
 O344 O 0.57382 -0.00263 0.00841
 O345 O 0.52389 0.07079 -0.00055
 O346 O 0.46613 0.03647 0.04880
 C347 C 0.50991 -0.13280 -0.06334
 C348 C 0.37274 -0.08611 -0.00893
 C349 C 0.52204 -0.00537 -0.13356
 O350 O 0.61923 0.00168 -0.06932
 O351 O 0.61178 0.07286 -0.02831
 O352 O 0.60303 0.07660 0.04251
 C353 C 0.62532 0.08653 0.00783
 O354 O 0.39411 0.07070 -0.05160
 Zr355 Zr 0.45056 0.06847 -0.00805
 O356 O 0.52267 0.10350 0.07319
 O357 O 0.55325 0.09619 -0.07930
 O358 O 0.46312 0.12697 -0.04770
 O359 O 0.38743 0.08524 0.02407
 O360 O 0.46368 0.12664 0.02894
 C361 C 0.49270 0.13276 0.05874
 O362 O 0.59484 0.02079 0.09792
 O363 O 0.44452 -0.09942 0.07800
 O364 O 0.51470 0.02549 0.11862
 O365 O 0.45210 -0.02448 0.11147
 O366 O 0.53417 -0.13282 0.04302
 O367 O 0.59868 -0.07813 0.05649
 C368 C 0.48017 0.00033 0.13353
 H369 H 0.46353 -0.10519 0.00122
 H370 H 0.60832 -0.00343 0.01263
 H371 H 0.45002 0.05316 0.07187
 H372 H 0.47351 0.04812 -0.08358
 H373 H 0.62204 -0.11787 -0.01737
 H374 H 0.63320 0.02457 -0.08915
 H375 H 0.58173 0.09781 -0.09715
 H376 H 0.44054 0.15207 -0.03990
 H377 H 0.55730 -0.15715 0.03459
 H378 H 0.41534 -0.10118 0.09493
 H379 H 0.36825 -0.02633 0.09141
 H380 H 0.37995 0.11864 0.01809
 H381 H 0.61726 -0.10724 0.05231
 H382 H 0.59854 0.04908 0.11578
 H383 H 0.40159 -0.05017 -0.11693
 H384 H 0.37997 0.10254 -0.05167
 Zr385 Zr 0.54022 0.53800 -0.05605
 O386 O 0.59439 0.52193 -0.09906
 O387 O 0.52220 0.60463 -0.07557
 O388 O 0.51373 0.52903 -0.11899
 O389 O 0.61418 0.57207 0.02725
 O390 O 0.44937 0.48151 -0.11130
 O391 O 0.60428 0.57724 -0.04344
 O392 O 0.46027 0.62656 -0.03409
 O393 O 0.46650 0.53935 -0.04973
 O394 O 0.52440 0.57252 0.00021
 O395 O 0.51791 0.46753 -0.05703
 O396 O 0.57540 0.50036 -0.00878
 Zr397 Zr 0.46021 0.46420 0.05548
 Zr398 Zr 0.44480 0.46913 -0.04749
 Zr399 Zr 0.55565 0.53336 0.04729
 Zr400 Zr 0.45154 0.57134 0.00763
 O401 O 0.61853 0.50358 0.07106
 O402 O 0.38582 0.58423 -0.02167
 O403 O 0.48250 0.53508 0.05737
 O404 O 0.42618 0.50263 0.00841
 O405 O 0.47611 0.42921 -0.00055
 O406 O 0.53387 0.46352 0.04880
 C407 C 0.49009 0.63280 -0.06334
 C408 C 0.62726 0.58611 -0.00893
 C409 C 0.47796 0.50537 -0.13356
 O410 O 0.38077 0.49832 -0.06932
 O411 O 0.38822 0.42714 -0.02831
 O412 O 0.39697 0.42340 0.04251
 C413 C 0.37468 0.41347 0.00783
 O414 O 0.60589 0.42930 -0.05160
 Zr415 Zr 0.54944 0.43153 -0.00805
 O416 O 0.47733 0.39650 0.07319
 O417 O 0.44675 0.40381 -0.07930
 O418 O 0.53688 0.37303 -0.04770
 O419 O 0.61257 0.41476 0.02407
 O420 O 0.53632 0.37336 0.02894
 C421 C 0.50730 0.36724 0.05874
 O422 O 0.40516 0.47921 0.09792
 O423 O 0.55548 0.59942 0.07800
 O424 O 0.48530 0.47451 0.11862
 O425 O 0.54790 0.52448 0.11147
 O426 O 0.46583 0.63282 0.04302
 O427 O 0.40132 0.57813 0.05649
 C428 C 0.51983 0.49967 0.13353
 H429 H 0.53647 0.60518 0.00122
 H430 H 0.39168 0.50343 0.01263
 H431 H 0.54998 0.44684 0.07187
 H432 H 0.52649 0.45188 -0.08358
 H433 H 0.37796 0.61787 -0.01737
 H434 H 0.36680 0.47543 -0.08915
 H435 H 0.41827 0.40218 -0.09715
 H436 H 0.55946 0.34793 -0.03990
 H437 H 0.44270 0.65715 0.03459
 H438 H 0.58466 0.60118 0.09493
 H439 H 0.63175 0.52633 0.09141
 H440 H 0.62004 0.38135 0.01810
 H441 H 0.38274 0.60723 0.05231
 H442 H 0.40146 0.45091 0.11578
 H443 H 0.59841 0.55017 -0.11693
 H444 H 0.62003 0.39746 -0.05167
 Zr445 Zr 0.04022 1.03800 0.44395
 O446 O 0.09439 1.02193 0.40094
 O447 O 0.02220 1.10464 0.42444
 O448 O 0.01373 1.02903 0.38101
 O449 O 0.11418 1.07208 0.52725
 O450 O -0.05063 0.98152 0.38870
 O451 O 0.10428 1.07725 0.45656
 O452 O -0.03973 1.12656 0.46591
 O453 O -0.03350 1.03936 0.45027
 O454 O 0.02439 1.07253 0.50021
 O455 O 0.01791 0.96754 0.44297
 O456 O 0.07540 1.00036 0.49122
 Zr457 Zr -0.03979 0.96420 0.55548
 Zr458 Zr -0.05520 0.96913 0.45251
 Zr459 Zr 0.05565 1.03337 0.54729
 Zr460 Zr -0.04846 1.07134 0.50763
 O461 O 0.11853 1.00358 0.57106
 O462 O -0.11419 1.08423 0.47833
 O463 O -0.01750 1.03508 0.55737
 O464 O -0.07382 1.00263 0.50841
 O465 O -0.02389 0.92921 0.49945
 O466 O 0.03387 0.96353 0.54880
 C467 C -0.00991 1.13280 0.43666
 C468 C 0.12726 1.08611 0.49107
 C469 C -0.02204 1.00537 0.36644
 O470 O -0.11923 0.99833 0.43069
 O471 O -0.11178 0.92714 0.47169
 O472 O -0.10303 0.92340 0.54251
 C473 C -0.12532 0.91347 0.50783
 O474 O 0.10589 0.92931 0.44840
 Zr475 Zr 0.04944 0.93153 0.49195
 O476 O -0.02267 0.89650 0.57319
 O477 O -0.05325 0.90382 0.42070
 O478 O 0.03688 0.87303 0.45230
 O479 O 0.11257 0.91476 0.52407
 O480 O 0.03632 0.87336 0.52894
 C481 C 0.00730 0.86724 0.55874
 O482 O -0.09484 0.97921 0.59792
 O483 O 0.05548 1.09942 0.57800
 O484 O -0.01470 0.97451 0.61862
 O485 O 0.04790 1.02448 0.61147
 O486 O -0.03417 1.13282 0.54302
 O487 O -0.09868 1.07813 0.55649
 C488 C 0.01983 0.99967 0.63353
 H489 H 0.03647 1.10519 0.50122
 H490 H -0.10832 1.00343 0.51263
 H491 H 0.04998 0.94684 0.57187
 H492 H 0.02649 0.95188 0.41642
 H493 H -0.12204 1.11787 0.48264
 H494 H -0.13320 0.97543 0.41085
 H495 H -0.08173 0.90219 0.40285
 H496 H 0.05946 0.84793 0.46010
 H497 H -0.05730 1.15715 0.53459
 H498 H 0.08466 1.10118 0.59493
 H499 H 0.13175 1.02633 0.59141
 H500 H 0.12005 0.88136 0.51809
 H501 H -0.11726 1.10724 0.55231
 H502 H -0.09854 0.95092 0.61578
 H503 H 0.09841 1.05018 0.38307
 H504 H 0.12003 0.89746 0.44833
 Zr505 Zr 0.71200 0.29023 0.19394
 O506 O 0.72807 0.34440 0.15094
 O507 O 0.64537 0.27221 0.17443
 O508 O 0.72097 0.26374 0.13101
 O509 O 0.67793 0.36418 0.27725
 O510 O 0.76849 0.19938 0.13870
 O511 O 0.67276 0.35429 0.20656
 O512 O 0.62344 0.21028 0.21591
 O513 O 0.71065 0.21650 0.20026
 O514 O 0.67748 0.27440 0.25021
 O515 O 0.78247 0.26792 0.19297
 O516 O 0.74965 0.32541 0.24122
 Zr517 Zr 0.78580 0.21021 0.30548
 Zr518 Zr 0.78087 0.19480 0.20250
 Zr519 Zr 0.71664 0.30566 0.29729
 Zr520 Zr 0.67866 0.20154 0.25762
 O521 O 0.74642 0.36854 0.32105
 O522 O 0.66577 0.13582 0.22832
 O523 O 0.71492 0.23250 0.30736
 O524 O 0.74737 0.17619 0.25840
 O525 O 0.82079 0.22612 0.24945
 O526 O 0.78648 0.28388 0.29879
 C527 C 0.61720 0.24010 0.18666
 C528 C 0.66389 0.37727 0.24106
 C529 C 0.74464 0.22796 0.11643
 O530 O 0.75168 0.13078 0.18068
 O531 O 0.82287 0.13823 0.22168
 O532 O 0.82660 0.14698 0.29250
 C533 C 0.83653 0.12469 0.25782
 O534 O 0.82070 0.35589 0.19840
 Zr535 Zr 0.81847 0.29945 0.24195
 O536 O 0.85350 0.22734 0.32319
 O537 O 0.84619 0.19676 0.17069
 O538 O 0.87697 0.28689 0.20229
 O539 O 0.83524 0.36258 0.27407
 O540 O 0.87664 0.28633 0.27894
 C541 C 0.88276 0.25731 0.30874
 O542 O 0.77080 0.15517 0.34792
 O543 O 0.65058 0.30549 0.32799
 O544 O 0.77549 0.23531 0.36862
 O545 O 0.72552 0.29790 0.36146
 O546 O 0.61719 0.21584 0.29302
 O547 O 0.67187 0.15132 0.30649
 C548 C 0.75033 0.26984 0.38353
 H549 H 0.64482 0.28648 0.25122
 H550 H 0.74657 0.14169 0.26263
 H551 H 0.80316 0.29998 0.32187
 H552 H 0.79812 0.27649 0.16641
 H553 H 0.63213 0.12797 0.23263
 H554 H 0.77457 0.11681 0.16085
 H555 H 0.84782 0.16828 0.15284
 H556 H 0.90207 0.30947 0.21010
 H557 H 0.59285 0.19271 0.28459
 H558 H 0.64882 0.33466 0.34493
 H559 H 0.72367 0.38176 0.34140
 H560 H 0.86864 0.37005 0.26809
 H561 H 0.64277 0.13274 0.30231
 H562 H 0.79909 0.15147 0.36578
 H563 H 0.69983 0.34841 0.13306
 H564 H 0.85254 0.37003 0.19833
 Zr565 Zr 0.78800 0.70977 0.69394
 O566 O 0.77193 0.65560 0.65094
 O567 O 0.85463 0.72779 0.67443
 O568 O 0.77903 0.73626 0.63101
 O569 O 0.82207 0.63582 0.77725
 O570 O 0.73151 0.80062 0.63870
 O571 O 0.82724 0.64571 0.70656
 O572 O 0.87656 0.78972 0.71591
 O573 O 0.78935 0.78350 0.70026
 O574 O 0.82252 0.72560 0.75021
 O575 O 0.71753 0.73208 0.69297
 O576 O 0.75035 0.67459 0.74122
 Zr577 Zr 0.71420 0.78979 0.80548
 Zr578 Zr 0.71913 0.80520 0.70250
 Zr579 Zr 0.78336 0.69434 0.79729
 Zr580 Zr 0.82134 0.79846 0.75762
 O581 O 0.75358 0.63146 0.82105
 O582 O 0.83423 0.86418 0.72832
 O583 O 0.78508 0.76750 0.80736
 O584 O 0.75263 0.82381 0.75840
 O585 O 0.67921 0.77388 0.74945
 O586 O 0.71352 0.71612 0.79879
 C587 C 0.88280 0.75990 0.68666
 C588 C 0.83611 0.62273 0.74106
 C589 C 0.75536 0.77204 0.61643
 O590 O 0.74832 0.86922 0.68068
 O591 O 0.67713 0.86178 0.72168
 O592 O 0.67340 0.85302 0.79250
 C593 C 0.66347 0.87531 0.75782
 O594 O 0.67930 0.64411 0.69840
 Zr595 Zr 0.68153 0.70055 0.74195
 O596 O 0.64650 0.77266 0.82319
 O597 O 0.65381 0.80324 0.67069
 O598 O 0.62303 0.71311 0.70229
 O599 O 0.66476 0.63742 0.77407
 O600 O 0.62336 0.71367 0.77894
 C601 C 0.61724 0.74269 0.80874
 O602 O 0.72920 0.84483 0.84792
 O603 O 0.84942 0.69451 0.82799
 O604 O 0.72451 0.76469 0.86862
 O605 O 0.77448 0.70210 0.86146
 O606 O 0.88281 0.78416 0.79301
 O607 O 0.82813 0.84868 0.80649
 C608 C 0.74967 0.73016 0.88353
 H609 H 0.85518 0.71352 0.75122
 H610 H 0.75343 0.85831 0.76263
 H611 H 0.69684 0.70002 0.82187
 H612 H 0.70188 0.72351 0.66641
 H613 H 0.86787 0.87203 0.73263
 H614 H 0.72543 0.88319 0.66085
 H615 H 0.65218 0.83172 0.65284
 H616 H 0.59793 0.69053 0.71010
 H617 H 0.90715 0.80729 0.78459
 H618 H 0.85118 0.66534 0.84493
 H619 H 0.77633 0.61824 0.84140
 H620 H 0.63136 0.62995 0.76809
 H621 H 0.85723 0.86726 0.80231
 H622 H 0.70091 0.84854 0.86578
 H623 H 0.80017 0.65159 0.63306
 H624 H 0.64746 0.62996 0.69833
 Zr625 Zr 0.21200 0.20978 0.80605
 O626 O 0.22807 0.15561 0.84906
 O627 O 0.14537 0.22780 0.82557
 O628 O 0.22097 0.23627 0.86899
 O629 O 0.17793 0.13582 0.72275
 O630 O 0.26849 0.30063 0.86130
 O631 O 0.17276 0.14572 0.79344
 O632 O 0.12344 0.28973 0.78409
 O633 O 0.21065 0.28351 0.79973
 O634 O 0.17747 0.22561 0.74979
 O635 O 0.28247 0.23209 0.80703
 O636 O 0.24964 0.17460 0.75878
 Zr637 Zr 0.28580 0.28980 0.69452
 Zr638 Zr 0.28087 0.30521 0.79749
 Zr639 Zr 0.21664 0.19435 0.70271
 Zr640 Zr 0.17866 0.29846 0.74237
 O641 O 0.24642 0.13147 0.67894
 O642 O 0.16577 0.36419 0.77167
 O643 O 0.21492 0.26751 0.69263
 O644 O 0.24737 0.32382 0.74159
 O645 O 0.32079 0.27389 0.75055
 O646 O 0.28647 0.21613 0.70121
 C647 C 0.11720 0.25991 0.81334
 C648 C 0.16389 0.12274 0.75893
 C649 C 0.24463 0.27204 0.88356
 O650 O 0.25168 0.36923 0.81932
 O651 O 0.32286 0.36178 0.77831
 O652 O 0.32660 0.35303 0.70749
 C653 C 0.33653 0.37532 0.74217
 O654 O 0.32070 0.14412 0.80160
 Zr655 Zr 0.31847 0.20056 0.75805
 O656 O 0.35350 0.27267 0.67681
 O657 O 0.34619 0.30325 0.82930
 O658 O 0.37697 0.21312 0.79770
 O659 O 0.33524 0.13744 0.72593
 O660 O 0.37664 0.21368 0.72106
 C661 C 0.38276 0.24271 0.69126
 O662 O 0.27079 0.34484 0.65208
 O663 O 0.15058 0.19452 0.67200
 O664 O 0.27549 0.26470 0.63138
 O665 O 0.22552 0.20211 0.63853
 O666 O 0.11718 0.28417 0.70698
 O667 O 0.17187 0.34868 0.69351
 C668 C 0.25033 0.23017 0.61647
 H669 H 0.14481 0.21353 0.74878
 H670 H 0.24657 0.35832 0.73737
 H671 H 0.30316 0.20003 0.67813
 H672 H 0.29812 0.22352 0.83358
 H673 H 0.13213 0.37204 0.76737
 H674 H 0.27457 0.38320 0.83915
 H675 H 0.34781 0.33173 0.84716
 H676 H 0.40207 0.19055 0.78990
 H677 H 0.09285 0.30730 0.71541
 H678 H 0.14882 0.16534 0.65507
 H679 H 0.22367 0.11825 0.65859
 H680 H 0.36865 0.12996 0.73191
 H681 H 0.14277 0.36726 0.69769
 H682 H 0.29908 0.34855 0.63422
 H683 H 0.19983 0.15159 0.86693
 H684 H 0.35254 0.12998 0.80167
 Zr685 Zr 0.28800 0.79022 0.30605
 O686 O 0.27193 0.84439 0.34906
 O687 O 0.35463 0.77220 0.32557
 O688 O 0.27903 0.76373 0.36899
 O689 O 0.32207 0.86418 0.22275
 O690 O 0.23151 0.69937 0.36130
 O691 O 0.32724 0.85428 0.29344
 O692 O 0.37656 0.71027 0.28409
 O693 O 0.28935 0.71649 0.29973
 O694 O 0.32252 0.77439 0.24979
 O695 O 0.21753 0.76791 0.30703
 O696 O 0.25036 0.82540 0.25878
 Zr697 Zr 0.21420 0.71020 0.19452
 Zr698 Zr 0.21913 0.69480 0.29750
 Zr699 Zr 0.28336 0.80565 0.20271
 Zr700 Zr 0.32134 0.70153 0.24237
 O701 O 0.25358 0.86853 0.17894
 O702 O 0.33423 0.63581 0.27167
 O703 O 0.28508 0.73249 0.19263
 O704 O 0.25263 0.67618 0.24159
 O705 O 0.17921 0.72611 0.25055
 O706 O 0.21353 0.78387 0.20121
 C707 C 0.38280 0.74009 0.31334
 C708 C 0.33611 0.87726 0.25893
 C709 C 0.25537 0.72796 0.38356
 O710 O 0.24832 0.63077 0.31932
 O711 O 0.17714 0.63822 0.27831
 O712 O 0.17340 0.64697 0.20749
 C713 C 0.16347 0.62468 0.24217
 O714 O 0.17930 0.85589 0.30160
 Zr715 Zr 0.18153 0.79944 0.25805
 O716 O 0.14650 0.72733 0.17681
 O717 O 0.15381 0.69675 0.32930
 O718 O 0.12303 0.78688 0.29770
 O719 O 0.16476 0.86256 0.22593
 O720 O 0.12336 0.78632 0.22106
 C721 C 0.11724 0.75729 0.19126
 O722 O 0.22921 0.65516 0.15208
 O723 O 0.34942 0.80548 0.17200
 O724 O 0.22451 0.73530 0.13138
 O725 O 0.27448 0.79789 0.13853
 O726 O 0.38282 0.71583 0.20698
 O727 O 0.32813 0.65132 0.19351
 C728 C 0.24967 0.76983 0.11647
 H729 H 0.35518 0.78647 0.24878
 H730 H 0.25343 0.64168 0.23737
 H731 H 0.19684 0.79997 0.17813
 H732 H 0.20188 0.77648 0.33358
 H733 H 0.36787 0.62796 0.26737
 H734 H 0.22543 0.61680 0.33915
 H735 H 0.15218 0.66827 0.34716
 H736 H 0.09793 0.80946 0.28990
 H737 H 0.40715 0.69270 0.21541
 H738 H 0.35118 0.83466 0.15507
 H739 H 0.27633 0.88175 0.15859
 H740 H 0.13136 0.87004 0.23191
 H741 H 0.35723 0.63274 0.19769
 H742 H 0.20092 0.65145 0.13422
 H743 H 0.30017 0.84841 0.36693
 H744 H 0.14746 0.87003 0.30167
 Zr745 Zr 0.21200 0.79023 0.69394
 O746 O 0.22807 0.84440 0.65094
 O747 O 0.14537 0.77221 0.67443
 O748 O 0.22098 0.76374 0.63101
 O749 O 0.17793 0.86418 0.77725
 O750 O 0.26849 0.69938 0.63870
 O751 O 0.17276 0.85429 0.70656
 O752 O 0.12344 0.71028 0.71591
 O753 O 0.21065 0.71650 0.70026
 O754 O 0.17748 0.77440 0.75021
 O755 O 0.28247 0.76792 0.69297
 O756 O 0.24965 0.82541 0.74122
 Zr757 Zr 0.28580 0.71021 0.80548
 Zr758 Zr 0.28087 0.69480 0.70250
 Zr759 Zr 0.21664 0.80566 0.79729
 Zr760 Zr 0.17866 0.70154 0.75762
 O761 O 0.24642 0.86854 0.82105
 O762 O 0.16577 0.63582 0.72832
 O763 O 0.21492 0.73250 0.80736
 O764 O 0.24737 0.67619 0.75840
 O765 O 0.32079 0.72612 0.74945
 O766 O 0.28648 0.78388 0.79879
 C767 C 0.11720 0.74010 0.68666
 C768 C 0.16390 0.87727 0.74106
 C769 C 0.24464 0.72796 0.61643
 O770 O 0.25168 0.63077 0.68068
 O771 O 0.32287 0.63822 0.72168
 O772 O 0.32660 0.64698 0.79250
 C773 C 0.33653 0.62469 0.75782
 O774 O 0.32070 0.85589 0.69840
 Zr775 Zr 0.31847 0.79945 0.74195
 O776 O 0.35350 0.72734 0.82319
 O777 O 0.34619 0.69676 0.67069
 O778 O 0.37698 0.78689 0.70229
 O779 O 0.33524 0.86257 0.77407
 O780 O 0.37665 0.78633 0.77894
 C781 C 0.38276 0.75730 0.80874
 O782 O 0.27079 0.65517 0.84791
 O783 O 0.15058 0.80549 0.82799
 O784 O 0.27549 0.73531 0.86862
 O785 O 0.22552 0.79790 0.86146
 O786 O 0.11719 0.71584 0.79301
 O787 O 0.17187 0.65132 0.80649
 C788 C 0.25033 0.76984 0.88353
 H789 H 0.14482 0.78648 0.75122
 H790 H 0.24657 0.64169 0.76263
 H791 H 0.30317 0.79998 0.82187
 H792 H 0.29812 0.77649 0.66641
 H793 H 0.13213 0.62797 0.73263
 H794 H 0.27457 0.61681 0.66085
 H795 H 0.34782 0.66828 0.65284
 H796 H 0.40207 0.80946 0.71010
 H797 H 0.09285 0.69271 0.78459
 H798 H 0.14882 0.83467 0.84493
 H799 H 0.22367 0.88176 0.84140
 H800 H 0.36865 0.87005 0.76809
 H801 H 0.14277 0.63274 0.80231
 H802 H 0.29909 0.65146 0.86578
 H803 H 0.19983 0.84842 0.63306
 H804 H 0.35255 0.87003 0.69833
 Zr805 Zr 0.28800 0.20977 0.19394
 O806 O 0.27193 0.15560 0.15094
 O807 O 0.35463 0.22779 0.17443
 O808 O 0.27902 0.23626 0.13101
 O809 O 0.32207 0.13581 0.27725
 O810 O 0.23151 0.30062 0.13870
 O811 O 0.32724 0.14571 0.20656
 O812 O 0.37656 0.28972 0.21591
 O813 O 0.28935 0.28350 0.20026
 O814 O 0.32252 0.22560 0.25021
 O815 O 0.21753 0.23208 0.19297
 O816 O 0.25035 0.17459 0.24122
 Zr817 Zr 0.21419 0.28979 0.30548
 Zr818 Zr 0.21913 0.30520 0.20250
 Zr819 Zr 0.28336 0.19434 0.29729
 Zr820 Zr 0.32134 0.29846 0.25762
 O821 O 0.25358 0.13146 0.32105
 O822 O 0.33423 0.36418 0.22832
 O823 O 0.28508 0.26750 0.30736
 O824 O 0.25263 0.32381 0.25840
 O825 O 0.17921 0.27388 0.24945
 O826 O 0.21352 0.21612 0.29879
 C827 C 0.38280 0.25990 0.18666
 C828 C 0.33610 0.12273 0.24106
 C829 C 0.25536 0.27204 0.11643
 O830 O 0.24832 0.36922 0.18068
 O831 O 0.17713 0.36178 0.22168
 O832 O 0.17340 0.35302 0.29250
 C833 C 0.16347 0.37531 0.25782
 O834 O 0.17930 0.14411 0.19840
 Zr835 Zr 0.18153 0.20055 0.24195
 O836 O 0.14650 0.27266 0.32319
 O837 O 0.15381 0.30324 0.17069
 O838 O 0.12302 0.21311 0.20229
 O839 O 0.16476 0.13742 0.27407
 O840 O 0.12335 0.21367 0.27894
 C841 C 0.11724 0.24269 0.30874
 O842 O 0.22920 0.34483 0.34791
 O843 O 0.34942 0.19451 0.32799
 O844 O 0.22451 0.26469 0.36862
 O845 O 0.27448 0.20210 0.36146
 O846 O 0.38281 0.28416 0.29301
 O847 O 0.32813 0.34868 0.30649
 C848 C 0.24967 0.23016 0.38353
 H849 H 0.35518 0.21352 0.25122
 H850 H 0.25343 0.35831 0.26263
 H851 H 0.19683 0.20002 0.32187
 H852 H 0.20188 0.22351 0.16641
 H853 H 0.36786 0.37203 0.23263
 H854 H 0.22543 0.38319 0.16085
 H855 H 0.15218 0.33172 0.15284
 H856 H 0.09793 0.19054 0.21010
 H857 H 0.40714 0.30729 0.28459
 H858 H 0.35117 0.16533 0.34493
 H859 H 0.27632 0.11824 0.34140
 H860 H 0.13135 0.12995 0.26809
 H861 H 0.35723 0.36726 0.30231
 H862 H 0.20091 0.34854 0.36578
 H863 H 0.30017 0.15158 0.13306
 H864 H 0.14745 0.12997 0.19832
 Zr865 Zr 0.71200 0.70978 0.30605
 O866 O 0.72807 0.65561 0.34906
 O867 O 0.64536 0.72780 0.32557
 O868 O 0.72097 0.73627 0.36899
 O869 O 0.67792 0.63582 0.22275
 O870 O 0.76849 0.80063 0.36130
 O871 O 0.67276 0.64572 0.29344
 O872 O 0.62344 0.78973 0.28409
 O873 O 0.71065 0.78351 0.29973
 O874 O 0.67747 0.72561 0.24979
 O875 O 0.78247 0.73209 0.30703
 O876 O 0.74964 0.67460 0.25878
 Zr877 Zr 0.78580 0.78979 0.19452
 Zr878 Zr 0.78087 0.80520 0.29750
 Zr879 Zr 0.71663 0.69435 0.20271
 Zr880 Zr 0.67866 0.79847 0.24237
 O881 O 0.74642 0.63147 0.17894
 O882 O 0.66577 0.86419 0.27167
 O883 O 0.71492 0.76751 0.19263
 O884 O 0.74737 0.82382 0.24159
 O885 O 0.82079 0.77389 0.25055
 O886 O 0.78647 0.71613 0.20121
 C887 C 0.61720 0.75991 0.31334
 C888 C 0.66389 0.62274 0.25893
 C889 C 0.74463 0.77204 0.38356
 O890 O 0.75168 0.86923 0.31932
 O891 O 0.82286 0.86178 0.27831
 O892 O 0.82660 0.85303 0.20749
 C893 C 0.83653 0.87532 0.24217
 O894 O 0.82070 0.64411 0.30160
 Zr895 Zr 0.81847 0.70056 0.25805
 O896 O 0.85350 0.77267 0.17681
 O897 O 0.84619 0.80325 0.32930
 O898 O 0.87697 0.71312 0.29770
 O899 O 0.83524 0.63743 0.22593
 O900 O 0.87664 0.71368 0.22106
 C901 C 0.88276 0.74270 0.19126
 O902 O 0.77079 0.84484 0.15208
 O903 O 0.65058 0.69452 0.17200
 O904 O 0.77549 0.76470 0.13138
 O905 O 0.72552 0.70211 0.13853
 O906 O 0.61718 0.78417 0.20698
 O907 O 0.67187 0.84869 0.19351
 C908 C 0.75033 0.73017 0.11647
 H909 H 0.64481 0.71353 0.24878
 H910 H 0.74657 0.85832 0.23737
 H911 H 0.80316 0.70003 0.17813
 H912 H 0.79812 0.72352 0.33358
 H913 H 0.63213 0.87204 0.26737
 H914 H 0.77457 0.88320 0.33915
 H915 H 0.84782 0.83173 0.34715
 H916 H 0.90207 0.69054 0.28990
 H917 H 0.59285 0.80730 0.21541
 H918 H 0.64882 0.66534 0.15507
 H919 H 0.72367 0.61825 0.15859
 H920 H 0.86864 0.62996 0.23191
 H921 H 0.64277 0.86726 0.19769
 H922 H 0.79909 0.84854 0.13422
 H923 H 0.69982 0.65159 0.36693
 H924 H 0.85254 0.62997 0.30167
 Zr925 Zr 0.78800 0.29022 0.80605
 O926 O 0.77193 0.34439 0.84906
 O927 O 0.85464 0.27220 0.82557
 O928 O 0.77903 0.26373 0.86899
 O929 O 0.82208 0.36418 0.72275
 O930 O 0.73151 0.19937 0.86130
 O931 O 0.82724 0.35428 0.79344
 O932 O 0.87656 0.21027 0.78409
 O933 O 0.78935 0.21649 0.79973
 O934 O 0.82253 0.27439 0.74979
 O935 O 0.71753 0.26791 0.80703
 O936 O 0.75036 0.32540 0.75878
 Zr937 Zr 0.71420 0.21021 0.69452
 Zr938 Zr 0.71913 0.19479 0.79749
 Zr939 Zr 0.78337 0.30565 0.70271
 Zr940 Zr 0.82134 0.20153 0.74237
 O941 O 0.75358 0.36853 0.67894
 O942 O 0.83423 0.13581 0.77167
 O943 O 0.78508 0.23249 0.69263
 O944 O 0.75263 0.17618 0.74159
 O945 O 0.67921 0.22611 0.75055
 O946 O 0.71353 0.28387 0.70120
 C947 C 0.88280 0.24009 0.81334
 C948 C 0.83611 0.37726 0.75893
 C949 C 0.75537 0.22796 0.88356
 O950 O 0.74832 0.13077 0.81931
 O951 O 0.67714 0.13822 0.77831
 O952 O 0.67340 0.14697 0.70749
 C953 C 0.66347 0.12468 0.74217
 O954 O 0.67930 0.35589 0.80160
 Zr955 Zr 0.68153 0.29944 0.75805
 O956 O 0.64650 0.22733 0.67681
 O957 O 0.65381 0.19675 0.82930
 O958 O 0.62303 0.28688 0.79770
 O959 O 0.66476 0.36257 0.72593
 O960 O 0.62336 0.28632 0.72106
 C961 C 0.61724 0.25730 0.69126
 O962 O 0.72921 0.15516 0.65208
 O963 O 0.84942 0.30548 0.67200
 O964 O 0.72451 0.23530 0.63138
 O965 O 0.77448 0.29789 0.63853
 O966 O 0.88282 0.21583 0.70698
 O967 O 0.82813 0.15131 0.69351
 C968 C 0.74967 0.26983 0.61647
 H969 H 0.85519 0.28647 0.74878
 H970 H 0.75343 0.14168 0.73737
 H971 H 0.69684 0.29997 0.67813
 H972 H 0.70188 0.27648 0.83358
 H973 H 0.86787 0.12796 0.76737
 H974 H 0.72543 0.11680 0.83915
 H975 H 0.65219 0.16827 0.84715
 H976 H 0.59793 0.30946 0.78990
 H977 H 0.90715 0.19270 0.71541
 H978 H 0.85118 0.33466 0.65507
 H979 H 0.77633 0.38175 0.65859
 H980 H 0.63136 0.37004 0.73191
 H981 H 0.85723 0.13274 0.69769
 H982 H 0.70091 0.15146 0.63422
 H983 H 0.80018 0.34841 0.86693
 H984 H 0.64746 0.37003 0.80167
 C985 C 0.44818 1.00104 0.28835
 C986 C 0.46738 0.99943 0.32244
 C987 C -0.05182 0.50104 0.78835
 C988 C -0.03262 0.49943 0.82244
 C989 C 0.05182 -0.00104 0.78835
 C990 C 0.03262 0.00057 0.82244
 C991 C 0.55182 0.49896 0.28835
 C992 C 0.53262 0.50057 0.32244
 C993 C 0.55182 0.50105 0.21165
 C994 C 0.53261 0.49943 0.17757
 C995 C 0.05182 1.00105 0.71165
 C996 C 0.03261 0.99943 0.67757
 C997 C -0.05182 0.49895 0.71165
 C998 C -0.03261 0.50057 0.67757
 C999 C 0.44818 -0.00105 0.21165
 C1000 C 0.46739 0.00057 0.17757
 C1001 C 0.29396 0.36306 0.00309
 C1002 C 0.33061 0.38583 0.00728
 C1003 C -0.20604 0.86306 0.50309
 C1004 C -0.16939 0.88583 0.50728
 C1005 C -0.20603 0.13694 0.99691
 C1006 C -0.16938 0.11417 0.99273
 C1007 C 0.29397 0.63695 0.49691
 C1008 C 0.33062 0.61418 0.49273
 C1009 C 0.20604 0.63694 0.50309
 C1010 C 0.16939 0.61417 0.50728
 C1011 C 0.70604 0.13694 0.00309
 C1012 C 0.66939 0.11417 0.00728
 C1013 C 0.70603 0.86306 0.49691
 C1014 C 0.66938 0.88583 0.49273
 C1015 C 0.20603 0.36305 0.99691
 C1016 C 0.16938 0.38582 0.99273
 C1017 C 0.00695 0.28981 0.39759
 C1018 C 0.01058 0.32472 0.41660
 C1019 C 0.50695 -0.21020 -0.10241
 C1020 C 0.51058 -0.17528 -0.08340
 C1021 C -0.00694 -0.21019 1.10241
 C1022 C -0.01057 -0.17528 1.08340
 C1023 C 0.49306 0.28981 0.60241
 C1024 C 0.48944 0.32472 0.58340
 C1025 C 0.50694 1.21019 0.60241
 C1026 C 0.51057 1.17528 0.58340
 C1027 C 0.00694 0.71019 1.10241
 C1028 C 0.01056 0.67528 1.08340
 C1029 C 0.49305 0.71019 -0.10241
 C1030 C 0.48942 0.67528 -0.08340
 C1031 C -0.00695 1.21020 0.39759
 C1032 C -0.01058 1.17529 0.41660
 C1033 C 0.75104 0.69818 0.96165
 C1034 C 0.74943 0.71738 0.92756
 C1035 C 0.25104 0.19818 0.46165
 C1036 C 0.24943 0.21738 0.42756
 C1037 C 0.74896 0.30182 0.46165
 C1038 C 0.75057 0.28262 0.42756
 C1039 C 0.24896 0.80182 0.96165
 C1040 C 0.25057 0.78262 0.92756
 C1041 C 0.25105 0.80182 0.03835
 C1042 C 0.24943 0.78261 0.07243
 C1043 C 0.75105 0.30182 0.53835
 C1044 C 0.74943 0.28261 0.57243
 C1045 C 0.24895 0.19818 0.53835
 C1046 C 0.25057 0.21739 0.57243
 C1047 C 0.74895 0.69818 0.03835
 C1048 C 0.75057 0.71739 0.07243
 C1049 C 0.11305 0.54396 0.24691
 C1050 C 0.13583 0.58061 0.24272
 C1051 C 0.61305 0.04396 0.74691
 C1052 C 0.63583 0.08061 0.74272
 C1053 C 0.88695 0.04397 0.25309
 C1054 C 0.86418 0.08062 0.25727
 C1055 C 0.38695 0.54397 0.75309
 C1056 C 0.36418 0.58062 0.75727
 C1057 C 0.38695 0.45604 0.74691
 C1058 C 0.36417 0.41939 0.74272
 C1059 C 0.88695 0.95604 0.24691
 C1060 C 0.86417 0.91939 0.24272
 C1061 C 0.61305 0.95603 0.75309
 C1062 C 0.63582 0.91938 0.75727
 C1063 C 0.11305 0.45603 0.25309
 C1064 C 0.13582 0.41938 0.25727
 C1065 C 0.03981 0.25695 0.85241
 C1066 C 0.07472 0.26058 0.83340
 C1067 C 0.53980 0.75695 0.35241
 C1068 C 0.57472 0.76058 0.33340
 C1069 C 0.53981 0.24305 0.14759
 C1070 C 0.57472 0.23943 0.16660
 C1071 C 0.03981 0.74306 0.64759
 C1072 C 0.07472 0.73943 0.66660
 C1073 C 0.96019 0.75694 0.64759
 C1074 C 0.92528 0.76057 0.66660
 C1075 C 0.46019 0.25694 0.14759
 C1076 C 0.42528 0.26057 0.16660
 C1077 C 0.46019 0.74305 0.35241
 C1078 C 0.42528 0.73942 0.33340
 C1079 C 0.96020 0.24305 0.85241
 C1080 C 0.92528 0.23942 0.83340
 C1081 C 0.55343 1.00082 0.71169
 C1082 C 0.53445 1.00430 0.67763
 C1083 C 0.05343 0.50082 1.21169
 C1084 C 0.03445 0.50430 1.17763
 C1085 C -0.05343 -0.00082 1.21169
 C1086 C -0.03445 -0.00430 1.17763
 C1087 C 0.44657 0.49918 0.71169
 C1088 C 0.46555 0.49570 0.67763
 C1089 C 0.44657 0.50082 -0.21169
 C1090 C 0.46554 0.50430 -0.17763
 C1091 C -0.05343 1.00082 0.28831
 C1092 C -0.03446 1.00431 0.32237
 C1093 C 0.05343 0.49918 0.28831
 C1094 C 0.03446 0.49570 0.32237
 C1095 C 0.55343 -0.00082 -0.21169
 C1096 C 0.53446 -0.00431 -0.17763
 C1097 C 0.70658 0.63818 -0.00414
 C1098 C 0.67067 0.61449 -0.00852
 C1099 C 0.20658 1.13819 0.49586
 C1100 C 0.17067 1.11449 0.49148
 C1101 C 0.20659 -0.13818 1.00415
 C1102 C 0.17068 -0.11449 1.00852
 C1103 C 0.70659 0.36182 0.50415
 C1104 C 0.67068 0.38552 0.50852
 C1105 C -0.20658 0.36182 0.49586
 C1106 C -0.17067 0.38551 0.49148
 C1107 C 0.29342 -0.13819 -0.00414
 C1108 C 0.32933 -0.11449 -0.00852
 C1109 C 0.29341 1.13818 0.50415
 C1110 C 0.32932 1.11449 0.50852
 C1111 C -0.20659 0.63818 1.00415
 C1112 C -0.17068 0.61448 1.00852
 C1113 C -0.00634 0.71035 0.59737
 C1114 C -0.00845 0.67545 0.57826
 C1115 C 0.49366 0.21034 0.09737
 C1116 C 0.49155 0.17544 0.07826
 C1117 C 0.00634 0.21035 0.90263
 C1118 C 0.00846 0.17545 0.92174
 C1119 C 0.50634 0.71035 0.40263
 C1120 C 0.50846 0.67545 0.42174
 C1121 C 0.49366 0.78965 0.40263
 C1122 C 0.49154 0.82455 0.42174
 C1123 C -0.00634 0.28965 0.90263
 C1124 C -0.00846 0.32455 0.92174
 C1125 C 0.50634 0.28965 0.09737
 C1126 C 0.50845 0.32455 0.07826
 C1127 C 0.00634 0.78966 0.59737
 C1128 C 0.00845 0.82456 0.57826
 C1129 C 0.25082 0.30343 0.03831
 C1130 C 0.25430 0.28445 0.07237
 C1131 C 0.75082 0.80343 0.53831
 C1132 C 0.75430 0.78445 0.57237
 C1133 C 0.24918 0.69657 0.53831
 C1134 C 0.24570 0.71555 0.57237
 C1135 C 0.74918 0.19657 0.03831
 C1136 C 0.74570 0.21555 0.07237
 C1137 C 0.75082 0.19656 0.96169
 C1138 C 0.75431 0.21554 0.92763
 C1139 C 0.25082 0.69657 0.46169
 C1140 C 0.25430 0.71554 0.42763
 C1141 C 0.74918 0.80344 0.46169
 C1142 C 0.74569 0.78446 0.42763
 C1143 C 0.24918 0.30343 0.96169
 C1144 C 0.24570 0.28446 0.92763
 C1145 C 0.88818 0.45658 0.75414
 C1146 C 0.86449 0.42067 0.75852
 C1147 C 0.38818 0.95658 0.25414
 C1148 C 0.36448 0.92067 0.25852
 C1149 C 0.11182 0.95659 0.74586
 C1150 C 0.13552 0.92068 0.74148
 C1151 C 0.61182 0.45659 0.24586
 C1152 C 0.63552 0.42068 0.24148
 C1153 C 0.61182 0.54342 0.25414
 C1154 C 0.63551 0.57933 0.25852
 C1155 C 0.11182 0.04342 0.75414
 C1156 C 0.13552 0.07933 0.75852
 C1157 C 0.38818 0.04341 0.24585
 C1158 C 0.36448 0.07932 0.24148
 C1159 C 0.88818 0.54341 0.74586
 C1160 C 0.86448 0.57932 0.74148
 C1161 C 0.96035 0.74366 0.15263
 C1162 C 0.92544 0.74155 0.17174
 C1163 C 0.46035 0.24367 0.65263
 C1164 C 0.42545 0.24155 0.67174
 C1165 C 0.46035 0.75634 0.84737
 C1166 C 0.42545 0.75846 0.82826
 C1167 C 0.96035 0.25634 0.34737
 C1168 C 0.92545 0.25846 0.32826
 C1169 C 0.03965 0.24366 0.34737
 C1170 C 0.07455 0.24154 0.32826
 C1171 C 0.53965 0.74366 0.84737
 C1172 C 0.57455 0.74154 0.82826
 C1173 C 0.53965 0.25634 0.65263
 C1174 C 0.57456 0.25845 0.67174
 C1175 C 0.03965 0.75633 0.15263
 C1176 C 0.07455 0.75845 0.17174
   
