data_POSCAR
  _audit_creation_date              2014-09-24
  _audit_creation_method            'ToBaCCo'
  _symmetry_space_group_name_H-M    'P1'
  _symmetry_Int_Tables_number       1
  _symmetry_cell_setting            triclinic
  loop_
  _symmetry_equiv_pos_as_xyz
 x,y,z
_cell_length_a 35.6802
_cell_length_b 35.7470
_cell_length_c 35.9225
_cell_angle_alpha 90.033000
_cell_angle_beta 89.980800
_cell_angle_gamma 90.002400
loop_
  _atom_site_label
  _atom_site_type_symbol
  _atom_site_fract_x
  _atom_site_fract_y
  _atom_site_fract_z
C1 C 0.24406 0.38719 -0.00371
 C2 C 0.25469 0.37160 0.03051
 C3 C 0.28002 0.34157 0.03096
 C4 C 0.29821 0.32940 -0.00171
 C5 C 0.28868 0.34723 -0.03546
 C6 C 0.26068 0.37494 -0.03711
 C7 C 0.32782 0.29930 -0.00041
 C8 C 0.33835 0.27959 -0.03281
 C9 C 0.36811 0.25374 -0.03260
 C10 C 0.38476 0.24429 0.00157
 C11 C 0.37416 0.26254 0.03447
 C12 C 0.34681 0.29075 0.03297
 H13 H 0.22411 0.40990 -0.00399
 H14 H 0.28567 0.32826 0.05733
 H15 H 0.30328 0.34009 -0.06080
 H16 H 0.32379 0.28440 -0.05870
 H17 H 0.40708 0.22394 0.00253
 H18 H 0.34105 0.30622 0.05812
 C19 C 0.75580 0.61289 -0.00200
 C20 C 0.73810 0.62308 0.03135
 C21 C 0.71090 0.65150 0.03092
 C22 C 0.70272 0.67162 -0.00185
 C23 C 0.72197 0.66156 -0.03468
 C24 C 0.74695 0.63123 -0.03541
 C25 C 0.67313 0.70166 -0.00219
 C26 C 0.65434 0.71113 -0.03537
 C27 C 0.62675 0.73927 -0.03634
 C28 C 0.61589 0.75638 -0.00276
 C29 C 0.63251 0.74587 0.03107
 C30 C 0.66220 0.72007 0.03079
 H31 H 0.77511 0.58961 -0.00217
 H32 H 0.69576 0.65720 0.05632
 H33 H 0.71736 0.67676 -0.06025
 H34 H 0.66061 0.69621 -0.06076
 H35 H 0.59344 0.77663 -0.00261
 H36 H 0.67623 0.71413 0.05676
 C37 C 0.75622 0.38456 1.00150
 C38 C 0.73846 0.37470 0.96808
 C39 C 0.71049 0.34697 0.96848
 C40 C 0.70166 0.32715 1.00129
 C41 C 0.72133 0.33660 1.03404
 C42 C 0.74687 0.36642 1.03487
 C43 C 0.67109 0.29803 1.00192
 C44 C 0.65288 0.28871 1.03551
 C45 C 0.62507 0.26088 1.03708
 C46 C 0.61309 0.24413 1.00369
 C47 C 0.62880 0.25470 0.96946
 C48 C 0.65882 0.28019 0.96906
 H49 H 0.77608 0.40738 1.00174
 H50 H 0.69533 0.34160 0.94304
 H51 H 0.71659 0.32138 1.05956
 H52 H 0.65986 0.30339 1.06084
 H53 H 0.59040 0.22415 1.00401
 H54 H 0.67211 0.28616 0.94272
 C55 C 0.24554 0.61440 1.00089
 C56 C 0.26330 0.62479 0.96765
 C57 C 0.29097 0.65266 0.96844
 C58 C 0.29950 0.67239 1.00137
 C59 C 0.28043 0.66200 1.03422
 C60 C 0.25488 0.63204 1.03456
 C61 C 0.32913 0.70247 1.00150
 C62 C 0.34796 0.71252 1.03454
 C63 C 0.37581 0.74048 1.03492
 C64 C 0.38692 0.75666 1.00093
 C65 C 0.37010 0.74565 0.96734
 C66 C 0.34005 0.72036 0.96825
 H67 H 0.22574 0.59154 1.00073
 H68 H 0.30616 0.65826 0.94307
 H69 H 0.28550 0.67666 1.06001
 H70 H 0.34147 0.69830 1.06024
 H71 H 0.40969 0.77656 1.00028
 H72 H 0.32576 0.71443 0.94243
 C73 C 0.00238 0.24651 0.38716
 C74 C 0.03595 0.26376 0.37627
 C75 C 0.03517 0.29103 0.34814
 C76 C 0.00180 0.29964 0.32889
 C77 C -0.03121 0.28083 0.33959
 C78 C -0.03153 0.25580 0.36971
 C79 C 0.00113 0.32898 0.29885
 C80 C -0.03219 0.34834 0.29008
 C81 C -0.03329 0.37558 0.26176
 C82 C 0.00027 0.38536 0.24377
 C83 C 0.03422 0.36821 0.25358
 C84 C 0.03404 0.33894 0.27958
 H85 H 0.00246 0.22709 0.41019
 H86 H 0.06080 0.30582 0.34190
 H87 H -0.05719 0.28585 0.32500
 H88 H -0.05751 0.34274 0.30558
 H89 H 0.00036 0.40752 0.22338
 H90 H 0.06007 0.32450 0.28498
 C91 C 0.00000 0.75387 0.61337
 C92 C 0.03396 0.73715 0.62372
 C93 C 0.03401 0.70979 0.65177
 C94 C 0.00103 0.70053 0.67140
 C95 C -0.03247 0.71876 0.66112
 C96 C -0.03353 0.74395 0.63115
 C97 C 0.00130 0.67105 0.70134
 C98 C -0.03157 0.65117 0.71058
 C99 C -0.03184 0.62375 0.73875
 C100 C 0.00217 0.61426 0.75609
 C101 C 0.03573 0.63197 0.74577
 C102 C 0.03466 0.66142 0.71998
 H103 H -0.00050 0.77335 0.59040
 H104 H 0.05998 0.69543 0.65758
 H105 H -0.05824 0.71324 0.67592
 H106 H -0.05720 0.65653 0.69553
 H107 H 0.00288 0.59195 0.77632
 H108 H 0.06038 0.67629 0.71426
 C109 C 0.99652 0.75386 0.38711
 C110 C 0.96285 0.73638 0.37685
 C111 C 0.96346 0.70839 0.34942
 C112 C 0.99666 0.69928 0.33012
 C113 C 1.02988 0.71801 0.34042
 C114 C 1.03057 0.74383 0.37005
 C115 C 0.99681 0.66978 0.30011
 C116 C 1.02999 0.65052 0.29057
 C117 C 1.03066 0.62350 0.26198
 C118 C 0.99674 0.61366 0.24462
 C119 C 0.96291 0.63069 0.25521
 C120 C 0.96355 0.65982 0.28139
 H121 H 0.99622 0.77411 0.40942
 H122 H 0.93773 0.69357 0.34369
 H123 H 1.05565 0.71254 0.32561
 H124 H 1.05559 0.65609 0.30560
 H125 H 0.99633 0.59164 0.22405
 H126 H 0.93761 0.67424 0.28722
 C127 C 1.00083 0.24592 0.61352
 C128 C 0.96706 0.26288 0.62436
 C129 C 0.96759 0.29033 0.65236
 C130 C 1.00084 0.29939 0.67158
 C131 C 1.03407 0.28091 0.66093
 C132 C 1.03468 0.25569 0.63092
 C133 C 1.00109 0.32887 0.70157
 C134 C 1.03417 0.34857 0.71047
 C135 C 1.03490 0.37597 0.73869
 C136 C 1.00109 0.38566 0.75641
 C137 C 0.96732 0.36807 0.74647
 C138 C 0.96800 0.33862 0.72064
 H139 H 1.00091 0.22631 0.59062
 H140 H 0.94181 0.30489 0.65851
 H141 H 1.05999 0.28629 0.67549
 H142 H 1.05961 0.34306 0.69514
 H143 H 1.00068 0.40796 0.77669
 H144 H 0.94218 0.32381 0.71525
 C145 C 0.38589 0.00034 0.24252
 C146 C 0.36860 0.03405 0.25289
 C147 C 0.33891 0.03334 0.27839
 C148 C 0.32890 0.00034 0.29726
 C149 C 0.34811 -0.03292 0.28781
 C150 C 0.37563 -0.03360 0.25955
 C151 C 0.29958 0.00118 0.32747
 C152 C 0.28071 -0.03161 0.33848
 C153 C 0.25521 -0.03147 0.36830
 C154 C 0.24565 0.00263 0.38520
 C155 C 0.26311 0.03598 0.37414
 C156 C 0.29085 0.03473 0.34641
 H157 H 0.40837 0.00090 0.22240
 H158 H 0.32420 0.05917 0.28379
 H159 H 0.34217 -0.05849 0.30267
 H160 H 0.28595 -0.05775 0.32433
 H161 H 0.22581 0.00302 0.40792
 H162 H 0.30584 0.06021 0.34025
 C163 C 0.61336 -0.00191 0.75638
 C164 C 0.62936 0.03250 0.74627
 C165 C 0.65896 0.03312 0.72055
 C166 C 0.67047 0.00047 0.70184
 C167 C 0.65209 -0.03340 0.71076
 C168 C 0.62469 -0.03529 0.73893
 C169 C 0.70064 0.00178 0.67248
 C170 C 0.72005 -0.03094 0.66227
 C171 C 0.74534 -0.03128 0.63241
 C172 C 0.75487 0.00253 0.61504
 C173 C 0.73752 0.03609 0.62577
 C174 C 0.70960 0.03522 0.65345
 H175 H 0.59100 -0.00235 0.77662
 H176 H 0.67252 0.05955 0.71503
 H177 H 0.65862 -0.05863 0.69557
 H178 H 0.71523 -0.05684 0.67696
 H179 H 0.77464 0.00254 0.59226
 H180 H 0.69468 0.06079 0.65947
 C181 C 0.38490 0.99634 0.75454
 C182 C 0.37369 0.96293 0.73743
 C183 C 0.34599 0.96386 0.70973
 C184 C 0.32731 0.99731 0.70041
 C185 C 0.33833 1.03034 0.71917
 C186 C 0.36817 1.03039 0.74473
 C187 C 0.29787 0.99792 0.67023
 C188 C 0.28869 1.03150 0.65185
 C189 C 0.26115 1.03285 0.62385
 C190 C 0.24443 0.99926 0.61201
 C191 C 0.25469 0.96500 0.62812
 C192 C 0.27979 0.96487 0.65827
 H193 H 0.40770 0.99603 0.77430
 H194 H 0.33984 0.93821 0.69515
 H195 H 0.32431 1.05656 0.71389
 H196 H 0.30333 1.05698 0.65874
 H197 H 0.22476 0.99945 0.58917
 H198 H 0.28523 0.93849 0.67181
 C199 C 0.61542 1.00223 0.24371
 C200 C 0.63256 0.96831 0.25354
 C201 C 0.66179 0.96838 0.27961
 C202 C 0.67164 1.00105 0.29912
 C203 C 0.65238 1.03443 0.29031
 C204 C 0.62526 1.03572 0.26179
 C205 C 0.70091 1.00002 0.32928
 C206 C 0.71982 1.03282 0.34008
 C207 C 0.74482 1.03299 0.37021
 C208 C 0.75410 0.99909 0.38758
 C209 C 0.73682 0.96560 0.37657
 C210 C 0.70946 0.96656 0.34841
 H211 H 0.59334 1.00218 0.22317
 H212 H 0.67629 0.94242 0.28496
 H213 H 0.65798 1.05964 0.30594
 H214 H 0.71491 1.05880 0.32554
 H215 H 0.77353 0.99895 0.41064
 H216 H 0.69462 0.94102 0.34205
 O217 O 0.87757 0.82627 0.46589
 O218 O 0.82924 0.88153 0.53811
 O219 O 0.87969 0.82908 0.53809
 O220 O 0.82541 0.87903 0.46601
 O221 O 0.78152 0.83561 0.46923
 O222 O 0.83508 0.78633 0.54150
 O223 O 0.78553 0.83788 0.54172
 O224 O 0.83316 0.78338 0.46910
 Cu225 Cu 0.85745 0.85832 0.50135
 Cu226 Cu 0.80434 0.80650 0.50533
 C227 C 0.86394 0.79506 0.45573
 C228 C 0.79944 0.86867 0.55261
 C229 C 0.86624 0.79945 0.55240
 C230 C 0.79384 0.86609 0.45587
 O231 O 0.12292 0.17529 0.46529
 O232 O 0.17512 0.12011 0.53508
 O233 O 0.12177 0.17051 0.53746
 O234 O 0.17478 0.12261 0.46328
 O235 O 0.21802 0.16677 0.46546
 O236 O 0.16577 0.21390 0.54038
 O237 O 0.21819 0.16447 0.53739
 O238 O 0.16665 0.21892 0.46782
 Cu239 Cu 0.14418 0.14277 0.49988
 Cu240 Cu 0.19637 0.19553 0.50279
 C241 C 0.13585 0.20678 0.45501
 C242 C 0.20573 0.13299 0.54791
 C243 C 0.13496 0.20022 0.55175
 C244 C 0.20581 0.13609 0.45234
 O245 O 0.11746 0.82680 0.53255
 O246 O 0.16749 0.88255 0.46135
 O247 O 0.11516 0.83130 0.46062
 O248 O 0.16725 0.88117 0.53409
 O249 O 0.21109 0.83761 0.53251
 O250 O 0.16018 0.78897 0.45746
 O251 O 0.21161 0.83924 0.45947
 O252 O 0.16204 0.78404 0.52972
 Cu253 Cu 0.13745 0.85987 0.49753
 Cu254 Cu 0.19076 0.80829 0.49469
 C255 C 0.13117 0.79561 0.54283
 C256 C 0.19794 0.86983 0.44795
 C257 C 0.12889 0.80180 0.44641
 C258 C 0.19792 0.86776 0.54599
 O259 O 0.88033 0.17346 0.53582
 O260 O 0.83036 0.11901 0.46401
 O261 O 0.88198 0.17043 0.46365
 O262 O 0.82726 0.12148 0.53621
 O263 O 0.78406 0.16560 0.53331
 O264 O 0.83793 0.21376 0.46053
 O265 O 0.78728 0.16331 0.46085
 O266 O 0.83653 0.21699 0.53291
 Cu267 Cu 0.85937 0.14166 0.50056
 Cu268 Cu 0.80707 0.19431 0.49699
 C269 C 0.86724 0.20489 0.54603
 C270 C 0.80059 0.13231 0.44983
 C271 C 0.86884 0.20020 0.44940
 C272 C 0.79597 0.13493 0.54659
 O273 O 0.53656 0.82610 0.87812
 O274 O 0.46464 0.87745 0.82467
 O275 O 0.46388 0.82924 0.87953
 O276 O 0.53699 0.87858 0.82640
 O277 O 0.53691 0.83362 0.78421
 O278 O 0.46265 0.78490 0.83670
 O279 O 0.46448 0.83234 0.78259
 O280 O 0.53597 0.78177 0.83527
 Cu281 Cu 0.50069 0.85731 0.85650
 Cu282 Cu 0.50012 0.80354 0.80564
 C283 C 0.54828 0.79490 0.86566
 C284 C 0.45263 0.86360 0.79430
 C285 C 0.45057 0.79883 0.86699
 C286 C 0.54889 0.86496 0.79597
 O287 O 0.53724 0.17333 0.12226
 O288 O 0.46275 0.12124 0.16999
 O289 O 0.46496 0.17569 0.12141
 O290 O 0.53539 0.12162 0.17468
 O291 O 0.53403 0.16487 0.21858
 O292 O 0.46440 0.21844 0.16585
 O293 O 0.46076 0.16472 0.21367
 O294 O 0.53679 0.21596 0.16680
 Cu295 Cu 0.50033 0.14358 0.14270
 Cu296 Cu 0.49905 0.19511 0.19581
 C297 C 0.54919 0.20381 0.13592
 C298 C 0.44878 0.13430 0.19973
 C299 C 0.45299 0.20652 0.13461
 C300 C 0.54647 0.13414 0.20597
 O301 O 0.53467 0.11506 0.83410
 O302 O 0.46096 0.16559 0.88565
 O303 O 0.46156 0.11434 0.83355
 O304 O 0.53404 0.16665 0.88591
 O305 O 0.53354 0.21031 0.84243
 O306 O 0.46129 0.15866 0.79073
 O307 O 0.46003 0.20894 0.84185
 O308 O 0.53465 0.15956 0.79147
 Cu309 Cu 0.49785 0.13597 0.86417
 Cu310 Cu 0.49738 0.18877 0.81234
 C311 C 0.54741 0.12898 0.80414
 C312 C 0.44765 0.19563 0.87219
 C313 C 0.44889 0.12789 0.80334
 C314 C 0.54631 0.19732 0.87277
 O315 O 0.46520 0.82994 0.11828
 O316 O 0.53842 0.88320 0.16773
 O317 O 0.53791 0.83176 0.11652
 O318 O 0.46563 0.88243 0.17060
 O319 O 0.46765 0.83841 0.21365
 O320 O 0.54004 0.78846 0.16033
 O321 O 0.54077 0.83902 0.21068
 O322 O 0.46698 0.78674 0.16216
 Cu323 Cu 0.50124 0.86126 0.13891
 Cu324 Cu 0.50375 0.80880 0.19107
 C325 C 0.45406 0.79895 0.13160
 C326 C 0.55246 0.86973 0.19732
 C327 C 0.55162 0.80172 0.12964
 C328 C 0.45474 0.86922 0.20164
 O329 O 0.88351 0.53314 0.82681
 O330 O 0.82742 0.46543 0.88196
 O331 O 0.88174 0.46071 0.83266
 O332 O 0.83348 0.53785 0.88031
 O333 O 0.79045 0.53891 0.83613
 O334 O 0.83754 0.45980 0.78963
 O335 O 0.78404 0.46633 0.83812
 O336 O 0.83956 0.53249 0.78353
 Cu337 Cu 0.86092 0.49925 0.85981
 Cu338 Cu 0.80859 0.49935 0.80752
 C339 C 0.87077 0.54424 0.79560
 C340 C 0.79590 0.45462 0.86924
 C341 C 0.86795 0.44712 0.80307
 C342 C 0.80385 0.55157 0.86640
 O343 O 0.16820 0.46646 0.11573
 O344 O 0.11526 0.53551 0.17186
 O345 O 0.16613 0.53943 0.11860
 O346 O 0.11716 0.46312 0.16749
 O347 O 0.16213 0.46178 0.20974
 O348 O 0.21002 0.53916 0.16193
 O349 O 0.16004 0.53446 0.21428
 O350 O 0.21234 0.46588 0.15883
 Cu351 Cu 0.13725 0.50144 0.13904
 Cu352 Cu 0.19066 0.50043 0.19037
 C353 C 0.19905 0.45394 0.12829
 C354 C 0.12859 0.54637 0.20288
 C355 C 0.19643 0.55230 0.13201
 C356 C 0.13151 0.44927 0.19675
 O357 O 0.82555 0.53234 0.11850
 O358 O 0.88132 0.46521 0.17433
 O359 O 0.83218 0.46004 0.12022
 O360 O 0.87882 0.53760 0.16868
 O361 O 0.83406 0.53797 0.21117
 O362 O 0.78859 0.45843 0.16387
 O363 O 0.83687 0.46529 0.21714
 O364 O 0.78151 0.53096 0.16170
 Cu365 Cu 0.85892 0.49888 0.14113
 Cu366 Cu 0.80586 0.49815 0.19274
 C367 C 0.79375 0.54282 0.13076
 C368 C 0.86836 0.45393 0.20539
 C369 C 0.80254 0.44597 0.13375
 C370 C 0.86451 0.55100 0.19812
 O371 O 0.17552 0.53513 0.88011
 O372 O 0.12071 0.46604 0.82594
 O373 O 0.17299 0.46312 0.87789
 O374 O 0.12214 0.53866 0.83022
 O375 O 0.16598 0.54021 0.78682
 O376 O 0.21580 0.46321 0.83346
 O377 O 0.16425 0.46711 0.78224
 O378 O 0.21862 0.53534 0.83593
 Cu379 Cu 0.14336 0.50054 0.85788
 Cu380 Cu 0.19531 0.50142 0.80505
 C381 C 0.20669 0.54661 0.86724
 C382 C 0.13326 0.45499 0.79466
 C383 C 0.20341 0.45084 0.86422
 C384 C 0.13560 0.55254 0.80059
 N385 N 0.24475 0.40396 0.12410
 N386 N 0.25946 0.38109 0.09910
 C387 C 0.24246 0.38831 0.06631
 C388 C 0.21651 0.41659 0.07221
 N389 N 0.21904 0.42550 0.10853
 H390 H 0.19858 0.43030 0.05213
 N391 N 0.74013 0.58379 0.12287
 N392 N 0.72453 0.60531 0.09724
 C393 C 0.74628 0.60315 0.06657
 C394 C 0.77607 0.57958 0.07443
 N395 N 0.77108 0.56820 0.10978
 H396 H 0.79898 0.57140 0.05644
 N397 N 0.74240 0.41335 0.87632
 N398 N 0.72632 0.39194 0.90178
 C399 C 0.74743 0.39433 0.93285
 C400 C 0.77736 0.41792 0.92540
 N401 N 0.77305 0.42909 0.88990
 H402 H 0.79984 0.42635 0.94379
 N403 N 0.25964 0.58846 0.87493
 N404 N 0.27557 0.60931 0.90093
 C405 C 0.25456 0.60588 0.93200
 C406 C 0.22486 0.58229 0.92401
 N407 N 0.22916 0.57215 0.88820
 H408 H 0.20254 0.57311 0.94225
 N409 N 0.12898 0.25986 0.41331
 N410 N 0.10311 0.27586 0.39224
 C411 C 0.07180 0.25485 0.39509
 C412 C 0.07953 0.22509 0.41849
 N413 N 0.11540 0.22933 0.42916
 H414 H 0.06101 0.20282 0.42732
 N415 N 0.12614 0.74265 0.58489
 N416 N 0.10103 0.72628 0.60659
 C417 C 0.06930 0.74670 0.60429
 C418 C 0.07597 0.77647 0.58057
 N419 N 0.11165 0.77281 0.56916
 H420 H 0.05687 0.79834 0.57201
 N421 N 0.86980 0.74175 0.41398
 N422 N 0.89545 0.72530 0.39293
 C423 C 0.92703 0.74596 0.39553
 C424 C 0.91965 0.77599 0.41874
 N425 N 0.88376 0.77225 0.42956
 H426 H 0.93848 0.79804 0.42749
 N427 N 0.87377 0.25790 0.58795
 N428 N 0.89964 0.27418 0.60882
 C429 C 0.93117 0.25352 0.60574
 C430 C 0.92355 0.22364 0.58240
 N431 N 0.88753 0.22749 0.57201
 H432 H 0.94228 0.20162 0.57336
 N433 N 0.39642 0.12950 0.24271
 N434 N 0.37409 0.10355 0.25678
 C435 C 0.38332 0.07074 0.24047
 C436 C 0.41212 0.07761 0.21563
 N437 N 0.41941 0.11442 0.21806
 H438 H 0.42763 0.05778 0.19887
 N439 N 0.59815 0.12657 0.75914
 N440 N 0.62091 0.10175 0.74376
 C441 C 0.61345 0.06835 0.75968
 C442 C 0.58528 0.07368 0.78566
 N443 N 0.57658 0.11024 0.78427
 H444 H 0.57122 0.05303 0.80268
 N445 N 0.40891 0.86949 0.74288
 N446 N 0.38775 0.89527 0.72686
 C447 C 0.39185 0.92699 0.74686
 C448 C 0.41605 0.91966 0.77600
 N449 N 0.42597 0.88361 0.77240
 H450 H 0.42610 0.93857 0.79731
 N451 N 0.60498 0.87331 0.24004
 N452 N 0.62735 0.89876 0.25491
 C453 C 0.61801 0.93207 0.23978
 C454 C 0.58912 0.92603 0.21480
 N455 N 0.58187 0.88917 0.21602
 H456 H 0.57346 0.94636 0.19883
 N457 N 0.39375 0.23704 0.87469
 N458 N 0.37139 0.25257 0.89973
 C459 C 0.38227 0.23992 0.93350
 C460 C 0.41197 0.21548 0.92807
 N461 N 0.41822 0.21480 0.89120
 H462 H 0.42869 0.20094 0.94858
 N463 N 0.59529 0.74627 0.87144
 N464 N 0.61666 0.73067 0.89719
 C465 C 0.60984 0.74874 0.92955
 C466 C 0.58361 0.77649 0.92246
 N467 N 0.57542 0.77384 0.88602
 H468 H 0.57112 0.79625 0.94162
 N469 N 0.40732 0.74973 0.12706
 N470 N 0.38601 0.73340 0.10164
 C471 C 0.39273 0.75072 0.06886
 C472 C 0.41880 0.77877 0.07537
 N473 N 0.42701 0.77708 0.11187
 H474 H 0.43113 0.79818 0.05576
 N475 N 0.59618 0.25284 0.13022
 N476 N 0.61681 0.26886 0.10405
 C477 C 0.60918 0.25117 0.07163
 C478 C 0.58335 0.22326 0.07911
 N479 N 0.57613 0.22534 0.11578
 H480 H 0.57042 0.20371 0.06003
 N481 N 0.25404 0.12623 0.59486
 N482 N 0.26956 0.09989 0.61558
 C483 C 0.25184 0.06744 0.60764
 C484 C 0.22440 0.07505 0.58137
 N485 N 0.22686 0.11190 0.57432
 H486 H 0.20487 0.05601 0.56826
 N487 N 0.75751 0.12809 0.39781
 N488 N 0.74272 0.10248 0.37565
 C489 C 0.75804 0.06928 0.38512
 C490 C 0.78305 0.07553 0.41391
 N491 N 0.78167 0.11244 0.42093
 H492 H 0.79931 0.05531 0.42944
 N493 N 0.75740 0.87338 0.60541
 N494 N 0.74313 0.89920 0.62767
 C495 C 0.75841 0.93229 0.61770
 C496 C 0.78286 0.92575 0.58850
 N497 N 0.78118 0.88879 0.58174
 H498 H 0.79883 0.94580 0.57246
 N499 N 0.24156 0.87374 0.39641
 N500 N 0.25678 0.89910 0.37427
 C501 C 0.24155 0.93244 0.38336
 C502 C 0.21609 0.92652 0.41192
 N503 N 0.21717 0.88964 0.41917
 H504 H 0.19976 0.94693 0.42716
 N505 N 0.12712 0.40969 0.74469
 N506 N 0.10137 0.38816 0.72908
 C507 C 0.06896 0.39379 0.74774
 C508 C 0.07606 0.41956 0.77584
 N509 N 0.11255 0.42862 0.77283
 H510 H 0.05690 0.43091 0.79628
 N511 N 0.12312 0.59089 0.25369
 N512 N 0.09746 0.61191 0.27016
 C513 C 0.06476 0.60622 0.25207
 C514 C 0.07156 0.58098 0.22343
 N515 N 0.10818 0.57226 0.22556
 H516 H 0.05214 0.56974 0.20319
 N517 N 0.87452 0.40925 0.25588
 N518 N 0.90027 0.38779 0.27158
 C519 C 0.93262 0.39328 0.25280
 C520 C 0.92552 0.41887 0.22459
 N521 N 0.88909 0.42799 0.22763
 H522 H 0.94459 0.42999 0.20395
 N523 N 0.87635 0.58932 0.74555
 N524 N 0.90178 0.61105 0.72972
 C525 C 0.93437 0.60566 0.74809
 C526 C 0.92774 0.57982 0.77623
 N527 N 0.89131 0.57049 0.77351
 H528 H 0.94713 0.56867 0.79654
 N529 N 0.75998 0.60363 0.86980
 N530 N 0.74480 0.62576 0.89525
 C531 C 0.76054 0.61687 0.92829
 C532 C 0.78622 0.58857 0.92206
 N533 N 0.78486 0.58115 0.88540
 H534 H 0.80280 0.57337 0.94223
 N535 N 0.25203 0.40337 0.86969
 N536 N 0.26814 0.38277 0.89581
 C537 C 0.25069 0.39060 0.92832
 C538 C 0.22280 0.41651 0.92094
 N539 N 0.22466 0.42359 0.88424
 H540 H 0.20349 0.42968 0.94012
 N541 N 0.24101 0.60369 0.12899
 N542 N 0.25664 0.62581 0.10382
 C543 C 0.24094 0.61741 0.07063
 C544 C 0.21479 0.58939 0.07650
 N545 N 0.21587 0.58167 0.11311
 H546 H 0.19806 0.57460 0.05614
 N547 N 0.75957 0.39325 0.12989
 N548 N 0.74475 0.37113 0.10424
 C549 C 0.76042 0.38051 0.07128
 C550 C 0.78569 0.40912 0.07778
 N551 N 0.78415 0.41620 0.11450
 H552 H 0.80199 0.42481 0.05775
 N553 N 0.87091 0.75568 0.60390
 N554 N 0.89676 0.74091 0.62585
 C555 C 0.92981 0.75685 0.61665
 C556 C 0.92318 0.78220 0.58827
 N557 N 0.88625 0.78042 0.58117
 H558 H 0.94319 0.79900 0.57302
 N559 N 0.87311 0.24292 0.39712
 N560 N 0.89878 0.25768 0.37496
 C561 C 0.93207 0.24251 0.38454
 C562 C 0.92578 0.21760 0.41340
 N563 N 0.88877 0.21889 0.42035
 H564 H 0.94604 0.20150 0.42905
 N565 N 0.13034 0.24320 0.60396
 N566 N 0.10445 0.25798 0.62590
 C567 C 0.07128 0.24256 0.61627
 C568 C 0.07788 0.21746 0.58761
 N569 N 0.11494 0.21887 0.58083
 H570 H 0.05777 0.20117 0.57194
 N571 N 0.12474 0.76003 0.39310
 N572 N 0.09884 0.74445 0.37172
 C573 C 0.06518 0.75729 0.38339
 C574 C 0.07159 0.78189 0.41260
 N575 N 0.10891 0.78254 0.41773
 H576 H 0.05143 0.79664 0.42966
 N577 N 0.59500 0.87121 0.74631
 N578 N 0.61559 0.89754 0.73033
 C579 C 0.60852 0.92998 0.74840
 C580 C 0.58298 0.92229 0.77650
 N581 N 0.57542 0.88550 0.77415
 H582 H 0.57057 0.94132 0.79643
 N583 N 0.40884 0.87415 0.25150
 N584 N 0.38731 0.89962 0.26765
 C585 C 0.39313 0.93236 0.24974
 C586 C 0.41895 0.92572 0.22152
 N587 N 0.42790 0.88920 0.22370
 H588 H 0.43055 0.94525 0.20161
 N589 N 0.59195 0.12797 0.25591
 N590 N 0.61341 0.10217 0.27152
 C591 C 0.60776 0.06989 0.25274
 C592 C 0.58210 0.07714 0.22455
 N593 N 0.57308 0.11356 0.22764
 H594 H 0.57067 0.05810 0.20407
 N595 N 0.39858 0.12479 0.75788
 N596 N 0.37614 0.09978 0.74229
 C597 C 0.38374 0.06643 0.75824
 C598 C 0.41169 0.07204 0.78448
 N599 N 0.42013 0.10869 0.78318
 H600 H 0.42573 0.05151 0.80164
 N601 N 0.60314 0.75755 0.12549
 N602 N 0.62563 0.74274 0.10015
 C603 C 0.61708 0.75880 0.06721
 C604 C 0.58846 0.78428 0.07339
 N605 N 0.58063 0.78244 0.10997
 H606 H 0.57357 0.80123 0.05330
 N607 N 0.40999 0.25871 0.12745
 N608 N 0.38886 0.27444 0.10154
 C609 C 0.39260 0.25366 0.07037
 C610 C 0.41665 0.22431 0.07824
 N611 N 0.42678 0.22859 0.11403
 H612 H 0.42634 0.20233 0.05989
 N613 N 0.59626 0.24338 0.87596
 N614 N 0.61911 0.25864 0.90071
 C615 C 0.61223 0.24194 0.93372
 C616 C 0.58424 0.21558 0.92817
 N617 N 0.57511 0.21756 0.89188
 H618 H 0.57075 0.19779 0.94852
 N619 N 0.39944 0.75422 0.87249
 N620 N 0.37711 0.74011 0.89836
 C621 C 0.38555 0.75735 0.93078
 C622 C 0.41393 0.78281 0.92371
 N623 N 0.42173 0.77983 0.88716
 H624 H 0.42865 0.80058 0.94324
 N625 N 0.74087 0.87265 0.41368
 N626 N 0.72487 0.89842 0.39248
 C627 C 0.74584 0.92973 0.39534
 C628 C 0.77560 0.92206 0.41888
 N629 N 0.77139 0.88626 0.42963
 H630 H 0.79779 0.94064 0.42783
 N631 N 0.24417 0.87089 0.59567
 N632 N 0.25927 0.89588 0.61842
 C633 C 0.24217 0.92892 0.61177
 C634 C 0.21577 0.92315 0.58407
 N635 N 0.21807 0.88673 0.57484
 H636 H 0.19775 0.94349 0.57077
 N637 N 0.25823 0.12967 0.40939
 N638 N 0.27437 0.10364 0.38858
 C639 C 0.25380 0.07214 0.39223
 C640 C 0.22413 0.07996 0.41579
 N641 N 0.22797 0.11603 0.42579
 H642 H 0.20232 0.06128 0.42541
 N643 N 0.74294 0.12908 0.58887
 N644 N 0.72655 0.10350 0.61001
 C645 C 0.74709 0.07191 0.60714
 C646 C 0.77700 0.07923 0.58365
 N647 N 0.77331 0.11509 0.57294
 H648 H 0.79893 0.06037 0.57464
 N649 N 0.86764 0.60219 0.24280
 N650 N 0.89316 0.62429 0.25809
 C651 C 0.92635 0.61623 0.24181
 C652 C 0.92012 0.58847 0.21570
 N653 N 0.88334 0.58053 0.21734
 H654 H 0.94040 0.57389 0.19864
 N655 N 0.87174 0.39532 0.75923
 N656 N 0.89750 0.37338 0.74412
 C657 C 0.93068 0.38227 0.75997
 C658 C 0.92420 0.41039 0.78564
 N659 N 0.88726 0.41768 0.78417
 H660 H 0.94438 0.42560 0.80226
 N661 N 0.13135 0.60454 0.75713
 N662 N 0.10547 0.62665 0.74253
 C663 C 0.07249 0.61775 0.75875
 C664 C 0.07920 0.58943 0.78412
 N665 N 0.11607 0.58203 0.78208
 H666 H 0.05921 0.57417 0.80092
 N667 N 0.12907 0.39721 0.24023
 N668 N 0.10391 0.37462 0.25535
 C669 C 0.07047 0.38293 0.23979
 C670 C 0.07614 0.41137 0.21430
 N671 N 0.11288 0.41945 0.21563
 H672 H 0.05557 0.42629 0.19791
   
