data_POSCAR
  _audit_creation_date              2014-09-24
  _audit_creation_method            'ToBaCCo'
  _symmetry_space_group_name_H-M    'P1'
  _symmetry_Int_Tables_number       1
  _symmetry_cell_setting            triclinic
  loop_
  _symmetry_equiv_pos_as_xyz
 x,y,z
_cell_length_a 43.6994
_cell_length_b 21.7196
_cell_length_c 16.9700
_cell_angle_alpha 118.861200
_cell_angle_beta 98.236900
_cell_angle_gamma 102.413800
loop_
  _atom_site_label
  _atom_site_type_symbol
  _atom_site_fract_x
  _atom_site_fract_y
  _atom_site_fract_z
C1 C 0.75132 0.25377 0.46345
 C2 C 0.74884 0.24590 0.53804
 C3 C 0.73030 0.26753 0.58202
 C4 C 0.76953 0.22936 0.58084
 C5 C 0.76929 0.23262 0.41910
 C6 C 0.73102 0.26922 0.42081
 C7 C 0.73026 0.32172 0.59505
 C8 C 0.70819 0.34318 0.61892
 C9 C 0.68716 0.31453 0.64371
 C10 C 0.68859 0.26059 0.63898
 C11 C 0.71031 0.23746 0.60899
 C12 C 0.79506 0.25552 0.59200
 C13 C 0.81602 0.23720 0.62628
 C14 C 0.81197 0.18910 0.64916
 C15 C 0.78609 0.16327 0.63904
 C16 C 0.76411 0.18146 0.60280
 C17 C 0.76951 0.17823 0.40551
 C18 C 0.79106 0.15730 0.38134
 C19 C 0.81101 0.18796 0.35974
 C20 C 0.81061 0.24017 0.35993
 C21 C 0.78940 0.26314 0.39103
 C22 C 0.70513 0.24379 0.40913
 C23 C 0.68370 0.26108 0.37602
 C24 C 0.69173 0.30970 0.35759
 C25 C 0.71603 0.33454 0.36178
 C26 C 0.73587 0.31730 0.39942
 H27 H 0.74392 0.34426 0.57344
 H28 H 0.71347 0.37497 0.65169
 H29 H 0.67346 0.24076 0.65826
 H30 H 0.70525 0.20633 0.57379
 H31 H 0.79804 0.28795 0.57181
 H32 H 0.83002 0.25818 0.64824
 H33 H 0.75033 0.16124 0.57751
 H34 H 0.75609 0.15548 0.42696
 H35 H 0.78663 0.12508 0.34859
 H36 H 0.82655 0.25904 0.34140
 H37 H 0.79467 0.29388 0.42645
 H38 H 0.70207 0.21151 0.42910
 H39 H 0.66805 0.23718 0.36144
 H40 H 0.72317 0.36207 0.33552
 H41 H 0.75004 0.33841 0.42295
 H42 H 0.78421 0.13075 0.65682
 C43 C 0.25124 0.75397 0.46269
 C44 C 0.24890 0.74601 0.53755
 C45 C 0.23079 0.76753 0.58080
 C46 C 0.26957 0.72937 0.58071
 C47 C 0.26923 0.73274 0.41890
 C48 C 0.23093 0.77042 0.41964
 C49 C 0.23055 0.82210 0.59416
 C50 C 0.20881 0.84267 0.61921
 C51 C 0.18960 0.81266 0.64631
 C52 C 0.19131 0.75907 0.63940
 C53 C 0.21126 0.73694 0.60781
 C54 C 0.29507 0.75552 0.59194
 C55 C 0.31602 0.73721 0.62627
 C56 C 0.31197 0.68910 0.64915
 C57 C 0.28609 0.66327 0.63904
 C58 C 0.26412 0.68145 0.60279
 C59 C 0.26948 0.67831 0.40543
 C60 C 0.29105 0.65734 0.38133
 C61 C 0.31099 0.68796 0.35976
 C62 C 0.31060 0.74017 0.35994
 C63 C 0.28936 0.76316 0.39100
 C64 C 0.20559 0.74395 0.40868
 C65 C 0.18567 0.76142 0.37633
 C66 C 0.19034 0.81043 0.35214
 C67 C 0.21510 0.83675 0.36136
 C68 C 0.23673 0.81869 0.39668
 H69 H 0.24397 0.84442 0.57296
 H70 H 0.21352 0.87486 0.65127
 H71 H 0.17801 0.73684 0.65946
 H72 H 0.20547 0.70617 0.57316
 H73 H 0.29804 0.78796 0.57178
 H74 H 0.33002 0.75818 0.64824
 H75 H 0.25033 0.66126 0.57747
 H76 H 0.25606 0.65561 0.42691
 H77 H 0.28663 0.62509 0.34860
 H78 H 0.32654 0.75904 0.34140
 H79 H 0.29468 0.79389 0.42646
 H80 H 0.20207 0.71179 0.42856
 H81 H 0.17284 0.73854 0.35154
 H82 H 0.21755 0.86928 0.34213
 H83 H 0.24985 0.83885 0.42298
 H84 H 0.28421 0.63075 0.65681
 C85 C 0.24778 0.24551 -0.45808
 C86 C 0.25216 0.25395 -0.54237
 C87 C 0.27332 0.27376 -0.57709
 C88 C 0.23430 0.23583 -0.58287
 C89 C 0.22678 0.22587 -0.42410
 C90 C 0.26515 0.26457 -0.41511
 C91 C 0.27021 0.32068 -0.59982
 C92 C 0.28801 0.33719 -0.63887
 C93 C 0.30979 0.31172 -0.65414
 C94 C 0.31090 0.26128 -0.63213
 C95 C 0.29378 0.24502 -0.59095
 C96 C 0.21266 0.26456 -0.60465
 C97 C 0.18604 0.24374 -0.61037
 C98 C 0.18278 0.18012 -0.62913
 C99 C 0.20485 0.15163 -0.61814
 C100 C 0.23112 0.17420 -0.61104
 C101 C 0.22985 0.17975 -0.40106
 C102 C 0.21338 0.17294 -0.35583
 C103 C 0.18858 0.18878 -0.35151
 C104 C 0.18862 0.23702 -0.37216
 C105 C 0.20645 0.25503 -0.41032
 C106 C 0.28710 0.23641 -0.39390
 C107 C 0.31283 0.25347 -0.38146
 C108 C 0.31585 0.31810 -0.38381
 C109 C 0.29444 0.34845 -0.39401
 C110 C 0.26821 0.32673 -0.38988
 H111 H 0.25430 0.34021 -0.57973
 H112 H 0.28568 0.36936 -0.65620
 H113 H 0.32748 0.24205 -0.64872
 H114 H 0.29544 0.21221 -0.57083
 H115 H 0.20637 0.29256 -0.56689
 H116 H 0.17059 0.25941 -0.65246
 H117 H 0.24852 0.15409 -0.57329
 H118 H 0.24578 0.15960 -0.42001
 H119 H 0.21803 0.14015 -0.32668
 H120 H 0.17604 0.26162 -0.35895
 H121 H 0.20478 0.28792 -0.42962
 H122 H 0.29374 0.20720 -0.43189
 H123 H 0.32903 0.24259 -0.34169
 H124 H 0.28556 0.37469 -0.34263
 H125 H 0.25092 0.34561 -0.42753
 H126 H 0.21315 0.12554 -0.65933
 C127 C -0.24581 0.75632 -0.53636
 C128 C -0.25254 0.74607 -0.45606
 C129 C -0.27380 0.72613 -0.42406
 C130 C -0.23624 0.76420 -0.41435
 C131 C -0.22624 0.77437 -0.57665
 C132 C -0.26519 0.73603 -0.56988
 C133 C -0.29449 0.75552 -0.40941
 C134 C -0.31314 0.73729 -0.36958
 C135 C -0.31180 0.69003 -0.35139
 C136 C -0.28679 0.66674 -0.36453
 C137 C -0.27067 0.67967 -0.40141
 C138 C -0.23212 0.82682 -0.38536
 C139 C -0.20725 0.84838 -0.38306
 C140 C -0.18570 0.81252 -0.38628
 C141 C -0.18944 0.75319 -0.38583
 C142 C -0.21377 0.73447 -0.39432
 C143 C -0.20598 0.74517 -0.59133
 C144 C -0.18872 0.76159 -0.63238
 C145 C -0.19095 0.81086 -0.65667
 C146 C -0.21216 0.83742 -0.63852
 C147 C -0.23009 0.82013 -0.59928
 C148 C -0.26735 0.67495 -0.60593
 C149 C -0.28304 0.66070 -0.66865
 C150 C -0.31124 0.69130 -0.66964
 C151 C -0.30766 0.74422 -0.64662
 C152 C -0.28808 0.76907 -0.59432
 H153 H -0.29553 0.78804 -0.42943
 H154 H -0.32799 0.75747 -0.35173
 H155 H -0.28077 0.63496 -0.34854
 H156 H -0.25444 0.65960 -0.42030
 H157 H -0.24879 0.84624 -0.42593
 H158 H -0.21372 0.87501 -0.34067
 H159 H -0.20653 0.70650 -0.43293
 H160 H -0.20439 0.71220 -0.57099
 H161 H -0.17215 0.74275 -0.64904
 H162 H -0.21442 0.86945 -0.65613
 H163 H -0.24590 0.83988 -0.57964
 H164 H -0.25066 0.65466 -0.57013
 H165 H -0.28219 0.62711 -0.66345
 H166 H -0.32345 0.76457 -0.66630
 H167 H -0.29321 0.79570 -0.56242
 H168 H -0.17161 0.73999 -0.34455
 O169 O -0.05085 0.88417 0.06246
 O170 O -0.01874 0.89258 -0.20014
 O171 O -0.09527 0.86283 -0.09502
 O172 O 0.00528 0.89615 -0.01569
 O173 O -0.04938 0.89428 -0.19917
 O174 O -0.02123 0.89344 0.07586
 O175 O 0.00012 0.90512 -0.10578
 O176 O -0.09277 0.90192 -0.00127
 C177 C -0.07249 0.89546 0.07698
 C178 C 0.02196 0.91693 -0.16057
 C179 C -0.06153 0.92072 -0.13313
 C180 C 0.01890 0.91354 0.08050
 O181 O -0.02227 0.94943 0.10787
 O182 O -0.03107 0.93212 -0.21118
 O183 O -0.09165 0.96136 0.00501
 O184 O -0.00254 0.97818 -0.07883
 O185 O -0.01974 0.95856 -0.18519
 O186 O -0.05721 0.98563 0.08262
 O187 O 0.01159 0.95769 -0.01586
 O188 O -0.08662 0.98769 -0.05248
 Co189 Co -0.10031 0.81951 -0.01575
 Co190 Co -0.10584 0.79201 -0.30132
 Co191 Co -0.15957 0.77714 -0.14179
 Co192 Co -0.06801 0.80725 -0.16490
 O193 O -0.07385 0.88197 -0.05687
 C194 C 0.01316 1.01092 0.08869
 C195 C -0.04967 1.02975 -0.10569
 C196 C -0.06240 1.02190 0.07092
 C197 C 0.01430 1.02211 -0.12749
 O198 O 0.44953 0.39479 0.05988
 O199 O 0.48303 0.38233 -0.16507
 O200 O 0.41745 0.38920 -0.10768
 O201 O 0.50106 0.39118 -0.01572
 O202 O 0.45178 0.38765 -0.19293
 O203 O 0.47898 0.39876 0.07035
 O204 O 0.49682 0.39476 -0.10526
 O205 O 0.40737 0.40442 -0.01497
 C206 C 0.42485 0.39074 0.06778
 C207 C 0.52316 0.41277 -0.13426
 C208 C 0.43336 0.40228 -0.16747
 C209 C 0.51819 0.41209 0.08105
 O210 O 0.47644 0.45591 0.08727
 O211 O 0.44548 0.49212 -0.17854
 O212 O 0.41860 0.45287 0.00514
 O213 O 0.48839 0.47754 -0.12411
 O214 O 0.47941 0.45942 -0.17482
 O215 O 0.44794 0.48366 0.07838
 O216 O 0.50743 0.45360 -0.00995
 O217 O 0.41620 0.50673 -0.10677
 Co218 Co 0.40195 0.32678 -0.01988
 Co219 Co 0.39332 0.31842 -0.27273
 Co220 Co 0.35118 0.32250 -0.16697
 Co221 Co 0.43678 0.32141 -0.15361
 O222 O 0.42367 0.39070 -0.06971
 C223 C 0.51162 0.50937 0.08087
 C224 C 0.44093 0.52849 -0.11858
 C225 C 0.43857 0.52363 0.05955
 C226 C 0.51481 0.51817 -0.13024
 C227 C 0.35879 0.36524 0.22977
 C228 C 0.38020 0.37517 0.28256
 C229 C 0.37964 0.36607 0.35637
 C230 C 0.35634 0.34911 0.37804
 C231 C 0.33238 0.33629 0.32461
 C232 C 0.33422 0.34597 0.25089
 O233 O 0.36183 0.37698 0.16305
 C234 C 0.38677 0.39415 0.17480
 C235 C 0.39841 0.39434 0.24482
 C236 C 0.42489 0.41185 0.26614
 C237 C 0.44194 0.42928 0.21811
 C238 C 0.42799 0.42964 0.15084
 C239 C 0.40136 0.41275 0.12720
 H240 H 0.39324 0.37596 0.39582
 H241 H 0.35506 0.34231 0.43780
 H242 H 0.32020 0.33500 0.21411
 H243 H 0.43015 0.41326 0.32163
 H244 H 0.45936 0.44537 0.22884
 H245 H 0.38802 0.41574 0.07576
 C246 C -0.14074 0.86109 0.22852
 C247 C -0.12099 0.87796 0.28426
 C248 C -0.12209 0.87304 0.36035
 C249 C -0.14565 0.85571 0.38001
 C250 C -0.16840 0.83645 0.32339
 C251 C -0.16545 0.84157 0.24727
 O252 O -0.13696 0.86813 0.16019
 C253 C -0.11291 0.88944 0.17502
 C254 C -0.10252 0.89714 0.24670
 C255 C -0.07648 0.91953 0.27047
 C256 C -0.05862 0.93650 0.22266
 C257 C -0.07159 0.92939 0.15290
 C258 C -0.09753 0.90759 0.13009
 H259 H -0.11081 0.89128 0.39891
 H260 H -0.14776 0.85368 0.44056
 H261 H -0.17677 0.82270 0.21089
 H262 H -0.07334 0.92824 0.32557
 H263 H -0.04349 0.95809 0.23372
 H264 H -0.11212 0.90554 0.08395
 C265 C 0.62415 0.66447 0.26767
 C266 C 0.62570 0.61261 0.24926
 C267 C 0.65345 0.58339 0.28234
 C268 C 0.66633 0.61106 0.33497
 C269 C 0.66953 0.66624 0.35329
 C270 C 0.63924 0.68770 0.34014
 O271 O 0.59737 0.66877 0.24825
 C272 C 0.59432 0.63791 0.18260
 C273 C 0.61133 0.59372 0.19709
 C274 C 0.60591 0.54109 0.17051
 C275 C 0.57886 0.52539 0.14172
 C276 C 0.55461 0.55465 0.13346
 C277 C 0.56668 0.61433 0.16233
 H278 H 0.66180 0.55571 0.24647
 H279 H 0.68379 0.59664 0.36092
 H280 H 0.63730 0.72304 0.32651
 H281 H 0.62228 0.51496 0.16594
 H282 H 0.58243 0.50235 0.09776
 H283 H 0.55365 0.63654 0.15957
 C284 C 0.12610 1.12604 0.29810
 C285 C 0.12908 1.13496 0.22049
 C286 C 0.15496 1.15571 0.20183
 C287 C 0.17412 1.15799 0.24259
 C288 C 0.16896 1.15487 0.32986
 C289 C 0.14499 1.13984 0.35785
 O290 O 0.10337 1.10282 0.30607
 C291 C 0.09318 1.09589 0.23404
 C292 C 0.11066 1.11248 0.18421
 C293 C 0.10380 1.10812 0.10724
 C294 C 0.07815 1.08627 0.08443
 C295 C 0.05426 1.06285 0.12951
 C296 C 0.06749 1.07357 0.20950
 H297 H 0.15822 1.16005 0.14599
 H298 H 0.19094 1.18636 0.24122
 H299 H 0.14079 1.13784 0.41383
 H300 H 0.12027 1.12169 0.07001
 H301 H 0.07913 1.08393 0.02682
 H302 H 0.05730 1.05898 0.24946
 C303 C 0.64023 0.36900 -0.22975
 C304 C 0.61896 0.37155 -0.28042
 C305 C 0.61979 0.35614 -0.35812
 C306 C 0.64376 0.33843 -0.38076
 C307 C 0.66593 0.33661 -0.33117
 C308 C 0.66391 0.35237 -0.25260
 O309 O 0.63508 0.38663 -0.15613
 C310 C 0.60973 0.40066 -0.16754
 C311 C 0.60009 0.39074 -0.24095
 C312 C 0.57514 0.39999 -0.26107
 C313 C 0.55534 0.41200 -0.21042
 C314 C 0.56101 0.42296 -0.13074
 C315 C 0.59129 0.41832 -0.11177
 H316 H 0.60535 0.36553 -0.39591
 H317 H 0.64458 0.32301 -0.43641
 H318 H 0.68078 0.35068 -0.21808
 H319 H 0.56713 0.39203 -0.31556
 H320 H 0.53827 0.42869 -0.22735
 H321 H 0.60137 0.43013 -0.05952
 C322 C 0.13714 0.89838 -0.26879
 C323 C 0.11990 0.85708 -0.25563
 C324 C 0.12333 0.80621 -0.28230
 C325 C 0.14525 0.79339 -0.31367
 C326 C 0.16539 0.83227 -0.32760
 C327 C 0.16199 0.88612 -0.30340
 O328 O 0.13087 0.94040 -0.22825
 C329 C 0.10817 0.92245 -0.20053
 C330 C 0.09992 0.87261 -0.21374
 C331 C 0.07922 0.84502 -0.17688
 C332 C 0.05987 0.88130 -0.14972
 C333 C 0.06145 0.93479 -0.14073
 C334 C 0.09024 0.95179 -0.16089
 H335 H 0.10910 0.78119 -0.28337
 H336 H 0.14274 0.76738 -0.35320
 H337 H 0.17743 0.90748 -0.30633
 H338 H 0.07013 0.82264 -0.21597
 H339 H 0.04585 0.86725 -0.12386
 H340 H 0.10083 0.97919 -0.12531
 C341 C 0.35826 0.61977 -0.24306
 C342 C 0.38173 0.63628 -0.27060
 C343 C 0.38230 0.66623 -0.32617
 C344 C 0.35890 0.68019 -0.35572
 C345 C 0.33487 0.66581 -0.32687
 C346 C 0.33417 0.63403 -0.27205
 O347 O 0.36113 0.59254 -0.18999
 C348 C 0.38764 0.59203 -0.18666
 C349 C 0.40041 0.61756 -0.23266
 C350 C 0.42785 0.62189 -0.23643
 C351 C 0.44386 0.59887 -0.18989
 C352 C 0.43140 0.57282 -0.13960
 C353 C 0.40042 0.57831 -0.13971
 H354 H 0.39926 0.67994 -0.34770
 H355 H 0.35924 0.70408 -0.39914
 H356 H 0.31632 0.62177 -0.25221
 H357 H 0.43595 0.64315 -0.27323
 H358 H 0.46403 0.60097 -0.19278
 H359 H 0.38827 0.55692 -0.09932
 C360 C -0.14164 1.11963 -0.24276
 C361 C -0.11829 1.13617 -0.27034
 C362 C -0.11771 1.16622 -0.32613
 C363 C -0.14110 1.18018 -0.35571
 C364 C -0.16512 1.16580 -0.32685
 C365 C -0.16580 1.13399 -0.27200
 O366 O -0.13874 1.09210 -0.18920
 C367 C -0.11179 1.09090 -0.18376
 C368 C -0.09961 1.11740 -0.23164
 C369 C -0.07236 1.12279 -0.23638
 C370 C -0.05453 1.10609 -0.18256
 C371 C -0.06520 1.07517 -0.13054
 C372 C -0.09646 1.06915 -0.13567
 H373 H -0.10075 1.17994 -0.34769
 H374 H -0.14076 1.20408 -0.39913
 H375 H -0.18368 1.12177 -0.25221
 H376 H -0.06411 1.14318 -0.27339
 H377 H -0.03598 1.10125 -0.19331
 H378 H -0.10877 1.05411 -0.10413
 C379 C 0.62419 0.65450 -0.26354
 C380 C 0.63171 0.60852 -0.25215
 C381 C 0.65445 0.58988 -0.27765
 C382 C 0.67037 0.61872 -0.30899
 C383 C 0.66616 0.66484 -0.32548
 C384 C 0.64117 0.68392 -0.30319
 O385 O 0.60064 0.66544 -0.23450
 C386 C 0.59428 0.62444 -0.20281
 C387 C 0.61251 0.58962 -0.21476
 C388 C 0.60924 0.54627 -0.18930
 C389 C 0.58568 0.53920 -0.14862
 C390 C 0.55852 0.56066 -0.13759
 C391 C 0.56976 0.61279 -0.16140
 H392 H 0.66000 0.55590 -0.27233
 H393 H 0.68475 0.59882 -0.32541
 H394 H 0.63694 0.71852 -0.31120
 H395 H 0.62333 0.52028 -0.20118
 H396 H 0.58729 0.51076 -0.13256
 H397 H 0.55693 0.63859 -0.15118
 C398 C 0.13829 1.10725 -0.26657
 C399 C 0.12125 1.14438 -0.24797
 C400 C 0.12503 1.19012 -0.26727
 C401 C 0.14572 1.19957 -0.30685
 C402 C 0.16576 1.16693 -0.32510
 C403 C 0.16159 1.11817 -0.30667
 O404 O 0.13077 1.06548 -0.23992
 C405 C 0.10735 1.07998 -0.20677
 C406 C 0.10180 1.12664 -0.21096
 C407 C 0.07939 1.14776 -0.17929
 C408 C 0.06256 1.11716 -0.13812
 C409 C 0.05884 1.06143 -0.13461
 C410 C 0.08752 1.05373 -0.16757
 H411 H 0.11314 1.21654 -0.24953
 H412 H 0.14637 1.23314 -0.31583
 H413 H 0.17425 1.09336 -0.32565
 H414 H 0.07644 1.18111 -0.17843
 H415 H 0.04697 1.12978 -0.11113
 H416 H 0.09226 1.02592 -0.19149
 C417 C 0.37160 0.37281 -0.30603
 C418 C 0.36411 0.36948 -0.23725
 C419 C 0.33368 0.37902 -0.21980
 C420 C 0.31991 0.36166 -0.25725
 C421 C 0.32828 0.34862 -0.35106
 C422 C 0.35351 0.34378 -0.37154
 O423 O 0.39889 0.37303 -0.31909
 C424 C 0.39852 0.41631 -0.25655
 C425 C 0.37867 0.40367 -0.19975
 C426 C 0.37774 0.41589 -0.11775
 C427 C 0.38349 0.44395 -0.09212
 C428 C 0.42995 0.38070 -0.19981
 C429 C 0.42499 0.39630 -0.29897
 H430 H 0.32964 0.38653 -0.16082
 H431 H 0.29978 0.34273 -0.25961
 H432 H 0.36278 0.32669 -0.41550
 H433 H 0.36320 0.40364 -0.06786
 H434 H 0.38555 0.47095 -0.06029
 H435 H 0.44060 0.38869 -0.34585
 C436 C -0.14647 0.85864 -0.25296
 C437 C -0.12225 0.88031 -0.30120
 C438 C -0.13133 0.87992 -0.37080
 C439 C -0.15358 0.85689 -0.39572
 C440 C -0.17303 0.84428 -0.33772
 C441 C -0.16900 0.85784 -0.25397
 O442 O -0.13626 0.83187 -0.18677
 C443 C -0.11341 0.88600 -0.19713
 C444 C -0.10936 0.91446 -0.26148
 C445 C -0.08110 0.92406 -0.28513
 C446 C -0.06967 0.95972 -0.25326
 C447 C -0.07419 0.91641 -0.16694
 C448 C -0.09374 0.92163 -0.17197
 H449 H -0.11497 0.89466 -0.40395
 H450 H -0.15620 0.85512 -0.44558
 H451 H -0.16743 0.91526 -0.28057
 H452 H -0.07375 0.92661 -0.32364
 H453 H -0.09094 1.01108 -0.27070
 H454 H -0.10548 0.91808 -0.15297
 C455 C 0.35781 0.62249 0.22920
 C456 C 0.38193 0.63652 0.27293
 C457 C 0.38361 0.66757 0.34597
 C458 C 0.35913 0.67695 0.37815
 C459 C 0.33399 0.66295 0.33350
 C460 C 0.33254 0.63284 0.25631
 O461 O 0.36158 0.58838 0.16599
 C462 C 0.38849 0.58857 0.17244
 C463 C 0.40183 0.61620 0.23689
 C464 C 0.42897 0.61379 0.25727
 C465 C 0.44538 0.59882 0.19442
 C466 C 0.43112 0.56701 0.12205
 C467 C 0.40396 0.57184 0.10966
 H468 H 0.39966 0.68356 0.36381
 H469 H 0.35914 0.70857 0.41187
 H470 H 0.31637 0.61785 0.23825
 H471 H 0.43720 0.64801 0.28026
 H472 H 0.46550 0.60203 0.19594
 H473 H 0.39391 0.53798 0.08750
 C474 C -0.14223 1.12250 0.22930
 C475 C -0.11809 1.13653 0.27311
 C476 C -0.11641 1.16759 0.34608
 C477 C -0.14088 1.17694 0.37823
 C478 C -0.16602 1.16296 0.33351
 C479 C -0.16748 1.13285 0.25633
 O480 O -0.13855 1.08849 0.16625
 C481 C -0.11168 1.08859 0.17300
 C482 C -0.09818 1.11615 0.23739
 C483 C -0.07097 1.11365 0.25753
 C484 C -0.05466 1.09945 0.19525
 C485 C -0.06866 1.06855 0.12336
 C486 C -0.09652 1.07369 0.11091
 H487 H -0.10037 1.18361 0.36398
 H488 H -0.14086 1.20858 0.41188
 H489 H -0.18363 1.11784 0.23823
 H490 H -0.06286 1.14804 0.28043
 H491 H -0.03430 1.10241 0.19700
 H492 H -0.10743 1.03993 0.08905
 C493 C 0.62660 0.41072 0.27738
 C494 C 0.63092 0.43154 0.22454
 C495 C 0.62641 0.39415 0.33478
 C496 C 0.65683 0.37340 0.37956
 C497 C 0.67723 0.31111 0.31478
 C498 C 0.66106 0.34796 0.25452
 O499 O 0.62972 0.39041 0.20006
 C500 C 0.62053 0.42286 0.17134
 C501 C 0.61607 0.41089 0.26056
 C502 C 0.57521 0.40722 0.26238
 C503 C 0.55799 0.42098 0.21167
 C504 C 0.55897 0.42158 0.14146
 C505 C 0.58953 0.41169 0.11226
 H506 H 0.60712 0.36150 0.37263
 H507 H 0.64725 0.33364 0.42225
 H508 H 0.67985 0.35028 0.22395
 H509 H 0.56703 0.39331 0.30924
 H510 H 0.53912 0.42798 0.22514
 H511 H 0.60020 0.42604 0.06638
 C512 C 0.13871 0.89859 0.22810
 C513 C 0.12452 0.85115 0.25157
 C514 C 0.12117 0.80941 0.29936
 C515 C 0.14381 0.80560 0.33137
 C516 C 0.16931 0.83625 0.33183
 C517 C 0.16847 0.88138 0.28470
 O518 O 0.11925 0.90657 0.13252
 C519 C 0.12709 0.88327 0.15568
 C520 C 0.11815 0.90788 0.26016
 C521 C 0.08501 0.89986 0.27367
 C522 C 0.06163 0.89501 0.18816
 C523 C 0.06131 0.92954 0.13862
 C524 C 0.09842 0.93907 0.15260
 H525 H 0.12599 0.82926 0.27391
 H526 H 0.14040 0.77537 0.35552
 H527 H 0.18320 0.90253 0.29539
 H528 H 0.09888 0.88467 0.33023
 H529 H 0.04233 0.87211 0.15072
 H530 H 0.09791 0.98009 0.13768
   
