data_POSCAR
  _audit_creation_date              2014-09-24
  _audit_creation_method            'ToBaCCo'
  _symmetry_space_group_name_H-M    'P1'
  _symmetry_Int_Tables_number       1
  _symmetry_cell_setting            triclinic
  loop_
  _symmetry_equiv_pos_as_xyz
 x,y,z
_cell_length_a 52.9180
_cell_length_b 54.1455
_cell_length_c 50.9687
_cell_angle_alpha 92.231000
_cell_angle_beta 91.012300
_cell_angle_gamma 94.324200
loop_
  _atom_site_label
  _atom_site_type_symbol
  _atom_site_fract_x
  _atom_site_fract_y
  _atom_site_fract_z
C1 C 0.26324 0.44950 0.99131
 C2 C 0.24545 0.44893 1.01481
 C3 C 0.23339 0.47010 1.01904
 C4 C 0.23971 0.48980 0.99853
 C5 C 0.24594 0.45514 0.96819
 C6 C 0.23380 0.47632 0.97162
 C7 C 0.28081 0.47301 0.99614
 C8 C 0.26873 0.49406 0.99999
 H9 H 0.24186 0.43272 1.02632
 H10 H 0.23023 0.50719 1.00162
 H11 H 0.24230 0.44253 0.95132
 H12 H 0.30128 0.47288 0.99616
 C13 C 0.73540 0.54792 0.01113
 C14 C 0.75474 0.54574 0.03360
 C15 C 0.76741 0.52472 0.03201
 C16 C 0.75977 0.50782 0.00773
 C17 C 0.75125 0.54570 -0.01376
 C18 C 0.76395 0.52472 -0.01563
 C19 C 0.71839 0.52383 0.01105
 C20 C 0.73091 0.50286 0.00927
 H21 H 0.75814 0.55972 0.04927
 H22 H 0.76995 0.49067 0.00623
 H23 H 0.75434 0.56045 -0.02731
 H24 H 0.69790 0.52354 0.01136
 C25 C 0.04526 0.23159 0.50480
 C26 C 0.04368 0.24746 0.48252
 C27 C 0.02090 0.26028 0.48110
 C28 C 0.00379 0.25446 0.50270
 C29 C 0.04168 0.24904 0.52880
 C30 C 0.01997 0.26116 0.52781
 C31 C 0.02111 0.21428 0.50300
 C32 C -0.00064 0.22599 0.50175
 H33 H 0.06004 0.25242 0.47086
 H34 H -0.01436 0.26327 0.50195
 H35 H 0.05581 0.25254 0.54436
 H36 H 0.02134 0.19428 0.50284
 C37 C 0.95533 0.76940 0.49917
 C38 C 0.95985 0.75157 0.47581
 C39 C 0.98204 0.74022 0.47732
 C40 C 0.99741 0.74749 0.50291
 C41 C 0.95680 0.75310 0.52301
 C42 C 0.97882 0.74175 0.52528
 C43 C 0.97919 0.78713 0.50133
 C44 C 1.00118 0.77590 0.50331
 H45 H 0.94564 0.74692 0.46058
 H46 H 1.01559 0.73884 0.50504
 H47 H 0.94106 0.74951 0.53595
 H48 H 0.97860 0.80704 0.50048
 C49 C 0.49572 0.04796 0.22174
 C50 C 0.47334 0.04693 0.24052
 C51 C 0.47171 0.02659 0.25549
 C52 C 0.49331 0.00935 0.25069
 C53 C 0.51889 0.04661 0.24012
 C54 C 0.51802 0.02621 0.25509
 C55 C 0.49333 0.02448 0.20693
 C56 C 0.49208 0.00300 0.22251
 H57 H 0.46063 0.06158 0.24275
 H58 H 0.49168 -0.00680 0.26327
 H59 H 0.53396 0.06124 0.24212
 H60 H 0.49478 0.02360 0.18576
 C61 C 0.50571 -0.04968 0.77376
 C62 C 0.48283 -0.04971 0.75479
 C63 C 0.48320 -0.02977 0.73926
 C64 C 0.50676 -0.01160 0.74383
 C65 C 0.52867 -0.04758 0.75566
 C66 C 0.52925 -0.02775 0.73994
 C67 C 0.50652 -0.02458 0.78878
 C68 C 0.50683 -0.00461 0.77336
 H69 H 0.46751 -0.06416 0.75410
 H70 H 0.50708 0.00441 0.73090
 H71 H 0.54268 -0.06101 0.75423
 H72 H 0.50695 -0.02296 0.81003
 C73 C 0.29022 0.01784 0.47029
 H74 H 0.29242 0.03126 0.48662
 C75 C 0.30659 0.01969 0.44922
 H76 H 0.32151 0.03454 0.44955
 C77 C 0.26865 -0.01838 0.45070
 H78 H 0.25408 -0.03339 0.45156
 C79 C 0.28469 -0.01728 0.42921
 H80 H 0.28198 -0.03126 0.41344
 N81 N 0.27156 -0.00082 0.47057
 C82 C 0.21655 0.02851 0.52391
 H83 H 0.21535 0.01437 0.53836
 C84 C 0.20159 0.04864 0.52623
 H85 H 0.18916 0.05004 0.54277
 C86 C 0.23418 0.04370 0.48473
 H87 H 0.24643 0.04145 0.46823
 C88 C 0.21958 0.06412 0.48629
 H89 H 0.22082 0.07735 0.47088
 Zn90 Zn 0.25132 -0.00194 0.50076
 N91 N 0.23256 0.02649 0.50350
 C92 C 0.27546 0.01439 0.54967
 N93 N 0.27384 -0.00322 0.52981
 C94 C 0.28948 -0.02201 0.52916
 C95 C 0.30737 -0.02392 0.54924
 C96 C 0.29317 0.01323 0.57018
 C97 C 0.20992 -0.03193 0.47952
 C98 C 0.19148 -0.05183 0.47801
 C99 C 0.21004 -0.06765 0.51698
 C100 C 0.22814 -0.04747 0.51773
 N101 N 0.22784 -0.03018 0.49909
 H102 H 0.26325 0.02950 0.54954
 H103 H 0.28812 -0.03547 0.51284
 H104 H 0.31985 -0.03886 0.54815
 H105 H 0.29408 0.02726 0.58597
 H106 H 0.20990 -0.01774 0.46516
 H107 H 0.17751 -0.05297 0.46215
 H108 H 0.21029 -0.08091 0.53233
 H109 H 0.24207 -0.04543 0.53355
 C110 C 0.20296 0.06678 0.50721
 C111 C 0.30394 0.00199 0.42828
 C112 C 0.19130 -0.06998 0.49699
 C113 C 0.30940 -0.00615 0.57014
 C114 C 0.71299 0.02025 0.52745
 H115 H 0.71295 0.03498 0.51370
 C116 C 0.69581 0.01946 0.54795
 H117 H 0.68254 0.03367 0.54982
 C118 C 0.72942 -0.01694 0.54070
 H119 H 0.74212 -0.03140 0.53750
 C120 C 0.71258 -0.01845 0.56144
 H121 H 0.71297 -0.03383 0.57435
 N122 N 0.72932 0.00220 0.52419
 C123 C 0.79022 0.03292 0.47590
 H124 H 0.78958 0.01866 0.46037
 C125 C 0.80857 0.05280 0.47577
 H126 H 0.82181 0.05386 0.45983
 C127 C 0.77359 0.04869 0.51548
 H128 H 0.76020 0.04676 0.53116
 C129 C 0.79167 0.06893 0.51613
 H130 H 0.79204 0.08240 0.53242
 Zn131 Zn 0.74993 0.00288 0.49424
 N132 N 0.77314 0.03127 0.49547
 C133 C 0.72988 0.02196 0.44775
 N134 N 0.72790 0.00310 0.46464
 C135 C 0.70896 -0.01529 0.46188
 C136 C 0.69107 -0.01523 0.44143
 C137 C 0.71240 0.02274 0.42702
 C138 C 0.78706 -0.02675 0.51183
 C139 C 0.80226 -0.04670 0.51182
 C140 C 0.78073 -0.06305 0.47195
 C141 C 0.76593 -0.04272 0.47271
 N142 N 0.76917 -0.02522 0.49261
 H143 H 0.74471 0.03669 0.45056
 H144 H 0.70753 -0.02979 0.47592
 H145 H 0.67582 -0.02975 0.43992
 H146 H 0.71435 0.03786 0.41374
 H147 H 0.78941 -0.01242 0.52727
 H148 H 0.81609 -0.04776 0.52757
 H149 H 0.77807 -0.07668 0.45584
 H150 H 0.75203 -0.04089 0.45728
 C151 C 0.80957 0.07109 0.49615
 C152 C 0.69529 -0.00024 0.56511
 C153 C 0.79920 -0.06522 0.49170
 C154 C 0.69255 0.00407 0.42377
 C155 C 0.48920 0.21652 1.00038
 H156 H 0.47552 0.21389 0.98430
 C157 C 0.48800 0.20043 1.02111
 H158 H 0.47309 0.18559 1.02101
 C159 C 0.52512 0.23929 1.02000
 H160 H 0.53982 0.25419 1.01928
 C161 C 0.52462 0.22363 1.04115
 H162 H 0.53902 0.22666 1.05654
 N163 N 0.50738 0.23565 1.00032
 C164 C 0.47512 0.28994 0.95125
 H165 H 0.48954 0.29231 0.93658
 C166 C 0.45391 0.30379 0.95048
 H167 H 0.45196 0.31659 0.93490
 C168 C 0.46029 0.27041 0.98945
 H169 H 0.46308 0.25784 1.00499
 C170 C 0.43881 0.28386 0.98943
 H171 H 0.42533 0.28143 1.00502
 Zn172 Zn 0.50757 0.25616 0.97113
 N173 N 0.47782 0.27351 0.97043
 C174 C 0.49044 0.23354 0.92205
 N175 N 0.50913 0.23510 0.94084
 C176 C 0.52838 0.21984 0.93986
 C177 C 0.52918 0.20189 0.91956
 C178 C 0.49052 0.21584 0.90138
 C179 C 0.53561 0.29729 0.99361
 C180 C 0.55541 0.31572 0.99672
 C181 C 0.57486 0.29843 0.95833
 C182 C 0.55460 0.28030 0.95592
 N183 N 0.53562 0.27996 0.97360
 H184 H 0.47502 0.24545 0.92345
 H185 H 0.54269 0.22114 0.95537
 H186 H 0.54418 0.18935 0.91970
 H187 H 0.47534 0.21469 0.88675
 H188 H 0.52015 0.29669 1.00724
 H189 H 0.55519 0.32911 1.01304
 H190 H 0.58969 0.29861 0.94395
 H191 H 0.55401 0.26666 0.93984
 C192 C 0.43541 0.30085 0.96979
 C193 C 0.50584 0.20391 1.04190
 C194 C 0.57539 0.31648 0.97892
 C195 C 0.50986 0.19946 0.90017
 C196 C 0.47181 0.77674 -0.00882
 H197 H 0.45709 0.77703 0.00563
 C198 C 0.47141 0.79229 -0.03000
 H199 H 0.45606 0.80427 -0.03194
 C200 C 0.50980 0.76082 -0.02360
 H201 H 0.52506 0.74899 -0.02071
 C202 C 0.51014 0.77607 -0.04508
 H203 H 0.52574 0.77576 -0.05853
 N204 N 0.49074 0.76134 -0.00608
 C205 C 0.45961 0.70379 0.04425
 H206 H 0.47373 0.70524 0.05995
 C207 C 0.43940 0.68570 0.04462
 H208 H 0.43792 0.67348 0.06092
 C209 C 0.44464 0.71794 0.00383
 H210 H 0.44707 0.73013 -0.01235
 C211 C 0.42415 0.70008 0.00338
 H212 H 0.41103 0.69874 -0.01325
 Zn213 Zn 0.49074 0.74226 0.02423
 N214 N 0.46182 0.71950 0.02411
 C215 C 0.47203 0.76386 0.07123
 N216 N 0.49094 0.76483 0.05348
 C217 C 0.50989 0.78326 0.05493
 C218 C 0.51039 0.80169 0.07487
 C219 C 0.47177 0.78196 0.09150
 C220 C 0.52127 0.70587 0.00577
 C221 C 0.54198 0.69140 0.00509
 C222 C 0.55876 0.71349 0.04448
 C223 C 0.53767 0.72755 0.04442
 N224 N 0.51962 0.72371 0.02505
 H225 H 0.45683 0.74939 0.06941
 H226 H 0.52439 0.78387 0.04022
 H227 H 0.52530 0.81654 0.07525
 H228 H 0.45654 0.78094 0.10542
 H229 H 0.50649 0.70305 -0.00922
 H230 H 0.54316 0.67763 -0.01073
 H231 H 0.57285 0.71666 0.06015
 H232 H 0.53572 0.74138 0.05994
 C233 C 0.42142 0.68354 0.02388
 C234 C 0.49083 0.79217 -0.04842
 C235 C 0.56113 0.69516 0.02459
 C236 C 0.49103 0.80130 0.09338
 C237 C 1.03662 0.47225 0.21920
 H238 H 1.02100 0.45813 0.21857
 C239 C 1.05630 0.47070 0.20151
 H240 H 1.05558 0.45535 0.18719
 C241 C 1.05576 0.50998 0.23797
 H242 H 1.05525 0.52546 0.25193
 C243 C 1.07583 0.50920 0.22055
 H244 H 1.09088 0.52392 0.22162
 N245 N 1.03676 0.49156 0.23707
 C246 C 0.98752 0.46279 0.29857
 H247 H 0.97324 0.47608 0.29897
 C248 C 0.98660 0.44375 0.31637
 H249 H 0.97156 0.44255 0.33049
 C250 C 1.02516 0.44899 0.28048
 H251 H 1.04046 0.45133 0.26686
 C252 C 1.02499 0.42973 0.29790
 H253 H 1.03991 0.41712 0.29699
 Zn254 Zn 1.00819 0.49238 0.25884
 N255 N 1.00657 0.46502 0.28104
 C256 C 0.95971 0.47409 0.23673
 N257 N 0.97953 0.49157 0.23599
 C258 C 0.98023 0.50936 0.21788
 C259 C 0.96015 0.51060 0.20006
 C260 C 0.93916 0.47459 0.21912
 C261 C 1.02922 0.52566 0.29865
 C262 C 1.03070 0.54673 0.31554
 C263 C 0.99237 0.55916 0.29515
 C264 C 0.99160 0.53788 0.27872
 N265 N 1.00999 0.52175 0.28055
 H266 H 0.95975 0.45980 0.25094
 H267 H 0.99646 0.52274 0.21744
 H268 H 0.96118 0.52491 0.18577
 H269 H 0.92330 0.46084 0.22022
 H270 H 1.04339 0.51234 0.29999
 H271 H 1.04628 0.54966 0.32964
 H272 H 0.97730 0.57152 0.29362
 H273 H 0.97603 0.53414 0.26482
 C274 C 1.00564 0.42700 0.31631
 C275 C 1.07624 0.48935 0.20199
 C276 C 1.01209 0.56383 0.31388
 C277 C 0.93914 0.49320 0.20064
 C278 C -0.03768 0.48974 0.78674
 H279 H -0.02418 0.47569 0.78641
 C280 C -0.05685 0.48909 0.80525
 H281 H -0.05790 0.47447 0.81919
 C282 C -0.05176 0.52658 0.76980
 H283 H -0.04944 0.54144 0.75632
 C284 C -0.07118 0.52665 0.78798
 H285 H -0.08396 0.54134 0.78786
 N286 N -0.03552 0.50826 0.76946
 C287 C 0.00818 0.48079 0.70420
 H288 H 0.02272 0.49590 0.70357
 C289 C 0.00809 0.46086 0.68600
 H290 H 0.02289 0.46064 0.67161
 C291 C -0.02847 0.46269 0.72414
 H292 H -0.04286 0.46364 0.73883
 C293 C -0.02924 0.44233 0.70632
 H294 H -0.04430 0.42775 0.70749
 Zn295 Zn -0.00759 0.50916 0.74667
 N296 N -0.00972 0.48123 0.72298
 C297 C 0.03809 0.49104 0.76533
 N298 N 0.02204 0.50940 0.76810
 C299 C 0.02579 0.52738 0.78746
 C300 C 0.04639 0.52738 0.80499
 C301 C 0.05891 0.49034 0.78240
 C302 C -0.02633 0.53908 0.70867
 C303 C -0.02676 0.55916 0.69236
 C304 C 0.01304 0.57586 0.71213
 C305 C 0.01268 0.55545 0.72814
 N306 N -0.00693 0.53768 0.72626
 H307 H 0.03456 0.47662 0.75020
 H308 H 0.01245 0.54149 0.78954
 H309 H 0.04872 0.54154 0.82062
 H310 H 0.07149 0.47560 0.77980
 H311 H -0.04144 0.52444 0.70725
 H312 H -0.04224 0.55974 0.67827
 H313 H 0.02867 0.58995 0.71407
 H314 H 0.02818 0.55377 0.74186
 C315 C -0.01072 0.44121 0.68698
 C316 C -0.07381 0.50783 0.80618
 C317 C -0.00689 0.57791 0.69395
 C318 C 0.06316 0.50853 0.80272
 C319 C 0.10652 0.18268 0.50799
 C320 C 0.09555 0.19100 0.53114
 C321 C 0.07658 0.20758 0.53018
 C322 C 0.06852 0.21657 0.50604
 C323 C 0.07972 0.20786 0.48285
 C324 C 0.09869 0.19128 0.48388
 C325 C 0.12435 0.16389 0.50879
 C326 C 0.13868 0.14761 0.50932
 C327 C 0.15516 0.12765 0.50971
 C328 C 0.18045 0.13149 0.50231
 C329 C 0.19612 0.11179 0.50181
 C330 C 0.18666 0.08796 0.50870
 C331 C 0.16128 0.08438 0.51640
 C332 C 0.14567 0.10409 0.51687
 H333 H 0.10108 0.18405 0.54988
 H334 H 0.06758 0.21256 0.54832
 H335 H 0.07320 0.21305 0.46374
 H336 H 0.10666 0.18454 0.46577
 H337 H 0.18801 0.14965 0.49676
 H338 H 0.21564 0.11522 0.49612
 H339 H 0.15332 0.06622 0.52144
 H340 H 0.12608 0.10088 0.52251
 C341 C 0.68407 0.60646 0.01818
 C342 C 0.69361 0.60010 -0.00637
 C343 C 0.71105 0.58203 -0.00869
 C344 C 0.71959 0.57024 0.01366
 C345 C 0.70981 0.57694 0.03828
 C346 C 0.69238 0.59501 0.04052
 C347 C 0.66412 0.62305 0.02007
 C348 C 0.64676 0.63620 0.02138
 C349 C 0.62540 0.65111 0.02258
 C350 C 0.62875 0.67642 0.02953
 C351 C 0.60785 0.69077 0.03037
 C352 C 0.58333 0.67995 0.02419
 C353 C 0.58019 0.65446 0.01737
 C354 C 0.60108 0.64017 0.01658
 H355 H 0.68688 0.60847 -0.02389
 H356 H 0.71678 0.57664 -0.02820
 H357 H 0.71489 0.56751 0.05573
 H358 H 0.68472 0.59942 0.05957
 H359 H 0.64751 0.68507 0.03416
 H360 H 0.61091 0.71039 0.03540
 H361 H 0.56153 0.64551 0.01290
 H362 H 0.59826 0.62057 0.01126
 C363 C 0.89352 -0.18270 0.49403
 C364 C 0.90186 -0.19006 0.51849
 C365 C 0.92097 -0.20643 0.52009
 C366 C 0.93179 -0.21615 0.49718
 C367 C 0.92315 -0.20854 0.47265
 C368 C 0.90403 -0.19214 0.47111
 C369 C 0.87590 -0.16377 0.49264
 C370 C 0.86191 -0.14722 0.49184
 C371 C 0.84606 -0.12677 0.49134
 C372 C 0.85649 -0.10282 0.49817
 C373 C 0.84129 -0.08282 0.49813
 C374 C 0.81538 -0.08649 0.49126
 C375 C 0.80508 -0.11062 0.48422
 C376 C 0.82034 -0.13064 0.48429
 H377 H 0.89425 -0.18244 0.53639
 H378 H 0.92794 -0.21060 0.53937
 H379 H 0.93184 -0.21435 0.45462
 H380 H 0.89812 -0.18613 0.45208
 H381 H 0.87640 -0.09960 0.50356
 H382 H 0.84988 -0.06444 0.50325
 H383 H 0.78514 -0.11407 0.47910
 H384 H 0.81206 -0.14912 0.47902
 C385 C 0.31366 0.39062 0.98040
 C386 C 0.30442 0.39607 1.00533
 C387 C 0.28725 0.41427 1.00873
 C388 C 0.27863 0.42705 0.98712
 C389 C 0.28820 0.42135 0.96212
 C390 C 0.30535 0.40315 0.95879
 C391 C 0.33328 0.37379 0.97737
 C392 C 0.35033 0.36038 0.97504
 C393 C 0.37130 0.34507 0.97258
 C394 C 0.39504 0.35561 0.96550
 C395 C 0.41580 0.34115 0.96419
 C396 C 0.41309 0.31591 0.97000
 C397 C 0.38905 0.30540 0.97676
 C398 C 0.36831 0.31991 0.97805
 H399 H 0.31117 0.38686 1.02230
 H400 H 0.28165 0.41897 1.02849
 H401 H 0.28330 0.43163 0.94523
 H402 H 0.31282 0.39947 0.93949
 H403 H 0.39760 0.37511 0.96136
 H404 H 0.43410 0.34988 0.95929
 H405 H 0.38630 0.28596 0.98102
 H406 H 0.35000 0.31157 0.98354
 C407 C 0.92810 0.18253 0.49712
 C408 C 0.94846 0.17560 0.48210
 C409 C 0.97132 0.19022 0.48300
 C410 C 0.97422 0.21205 0.49899
 C411 C 0.95341 0.21945 0.51327
 C412 C 0.93047 0.20466 0.51245
 C413 C 0.90564 0.16585 0.49779
 C414 C 0.88787 0.15055 0.49796
 C415 C 0.86793 0.13093 0.49767
 C416 C 0.87346 0.10685 0.49009
 C417 C 0.85450 0.08746 0.48968
 C418 C 0.82963 0.09185 0.49683
 C419 C 0.82423 0.11611 0.50457
 C420 C 0.84329 0.13555 0.50495
 H421 H 0.94685 0.15854 0.47014
 H422 H 0.98689 0.18427 0.47143
 H423 H 0.95517 0.23603 0.52587
 H424 H 0.91485 0.21016 0.52425
 H425 H 0.89250 0.10303 0.48455
 H426 H 0.85940 0.06896 0.48408
 H427 H 0.80521 0.12011 0.50996
 H428 H 0.83880 0.15413 0.51085
 C429 C 0.31157 0.56403 0.01299
 C430 C 0.28903 0.56264 -0.00203
 C431 C 0.27456 0.53997 -0.00570
 C432 C 0.28268 0.51850 0.00543
 C433 C 0.30494 0.52029 0.02107
 C434 C 0.31926 0.54288 0.02479
 C435 C 0.32784 0.58655 0.01528
 C436 C 0.34278 0.60448 0.01732
 C437 C 0.36194 0.62478 0.01985
 C438 C 0.35693 0.64851 0.01222
 C439 C 0.37616 0.66778 0.01382
 C440 C 0.40062 0.66349 0.02306
 C441 C 0.40532 0.63960 0.03089
 C442 C 0.38612 0.62043 0.02929
 H443 H 0.28297 0.57890 -0.01136
 H444 H 0.25758 0.53905 -0.01799
 H445 H 0.31141 0.50415 0.03028
 H446 H 0.33664 0.54374 0.03647
 H447 H 0.33828 0.65207 0.00487
 H448 H 0.37188 0.68602 0.00791
 H449 H 0.42402 0.63556 0.03765
 H450 H 0.39024 0.60209 0.03508
 C451 C 0.07199 -0.17998 0.50366
 C452 C 0.05180 -0.17215 0.51836
 C453 C 0.02907 -0.18692 0.51893
 C454 C 0.02617 -0.20979 0.50475
 C455 C 0.04683 -0.21803 0.49079
 C456 C 0.06962 -0.20311 0.49015
 C457 C 0.09433 -0.16338 0.50139
 C458 C 0.11214 -0.14831 0.49966
 C459 C 0.13238 -0.12918 0.49784
 C460 C 0.12672 -0.10545 0.49084
 C461 C 0.14592 -0.08633 0.49020
 C462 C 0.17114 -0.09065 0.49658
 C463 C 0.17672 -0.11467 0.50329
 C464 C 0.15744 -0.13381 0.50393
 H465 H 0.05342 -0.15432 0.52891
 H466 H 0.01361 -0.18029 0.53019
 H467 H 0.04502 -0.23547 0.47952
 H468 H 0.08511 -0.20931 0.47861
 H469 H 0.10736 -0.10162 0.48626
 H470 H 0.14090 -0.06800 0.48537
 H471 H 0.19598 -0.11866 0.50801
 H472 H 0.16203 -0.15211 0.50939
 C473 C 0.68815 0.43250 1.00129
 C474 C 0.68117 0.45055 1.01956
 C475 C 0.69566 0.47309 1.02284
 C476 C 0.71739 0.47791 1.00785
 C477 C 0.72496 0.45932 0.99031
 C478 C 0.71029 0.43673 0.98693
 C479 C 0.67133 0.41064 0.99621
 C480 C 0.65584 0.39333 0.99237
 C481 C 0.63594 0.37386 0.98837
 C482 C 0.61081 0.37932 0.99210
 C483 C 0.59116 0.36071 0.98880
 C484 C 0.59637 0.33628 0.98173
 C485 C 0.62169 0.33096 0.97771
 C486 C 0.64137 0.34967 0.98107
 H487 H 0.66409 0.44748 1.03078
 H488 H 0.68962 0.48694 1.03678
 H489 H 0.74150 0.46267 0.97837
 H490 H 0.71579 0.42291 0.97264
 H491 H 0.60638 0.39801 0.99764
 H492 H 0.57186 0.36549 0.99161
 H493 H 0.62629 0.31227 0.97249
 H494 H 0.66078 0.34524 0.97816
 C495 C 0.49968 0.10624 1.16546
 C496 C 0.52184 0.09651 1.17438
 C497 C 0.52063 0.07824 1.19302
 C498 C 0.49722 0.06970 1.20352
 C499 C 0.47499 0.07941 1.19395
 C500 C 0.47627 0.09769 1.17530
 C501 C 0.50083 0.12386 1.14505
 C502 C 0.50178 0.13817 1.12751
 C503 C 0.50287 0.15476 1.10615
 C504 C 0.50849 0.18022 1.11095
 C505 C 0.50954 0.19624 1.09007
 C506 C 0.50494 0.18696 1.06411
 C507 C 0.49937 0.16132 1.05951
 C508 C 0.49835 0.14535 1.08040
 H509 H 0.54002 0.10261 1.16645
 H510 H 0.53801 0.07031 1.19856
 H511 H 0.45647 0.07240 1.20017
 H512 H 0.45892 0.10470 1.16806
 H513 H 0.51198 0.18769 1.13083
 H514 H 0.51358 0.21592 1.09425
 H515 H 0.49611 0.15357 1.03973
 H516 H 0.49409 0.12566 1.07647
 C517 C -0.01028 0.69106 0.58672
 C518 C -0.02349 0.71213 0.59165
 C519 C -0.02654 0.72891 0.57187
 C520 C -0.01649 0.72480 0.54680
 C521 C -0.00273 0.70389 0.54231
 C522 C 0.00030 0.68712 0.56209
 C523 C -0.00860 0.67289 0.60643
 C524 C -0.00769 0.65727 0.62259
 C525 C -0.00715 0.63818 0.64143
 C526 C -0.02958 0.62952 0.65331
 C527 C -0.02943 0.61016 0.67066
 C528 C -0.00681 0.59917 0.67637
 C529 C 0.01573 0.60826 0.66463
 C530 C 0.01552 0.62761 0.64724
 H531 H -0.03174 0.71541 0.61066
 H532 H -0.03687 0.74505 0.57619
 H533 H 0.00499 0.69994 0.52333
 H534 H 0.01046 0.67081 0.55800
 H535 H -0.04724 0.63756 0.64896
 H536 H -0.04701 0.60382 0.67965
 H537 H 0.03337 0.59999 0.66837
 H538 H 0.03297 0.63408 0.63805
 C539 C 0.49894 0.89199 -0.17000
 C540 C 0.52129 0.89556 -0.18405
 C541 C 0.52372 0.91395 -0.20256
 C542 C 0.50363 0.92899 -0.20750
 C543 C 0.48128 0.92515 -0.19306
 C544 C 0.47893 0.90677 -0.17459
 C545 C 0.49697 0.87396 -0.15001
 C546 C 0.49540 0.85924 -0.13287
 C547 C 0.49365 0.84214 -0.11197
 C548 C 0.50000 0.81770 -0.11623
 C549 C 0.49889 0.80134 -0.09565
 C550 C 0.49139 0.80925 -0.07053
 C551 C 0.48487 0.83382 -0.06653
 C552 C 0.48601 0.85013 -0.08712
 H553 H 0.53705 0.88442 -0.18034
 H554 H 0.54165 0.91651 -0.21216
 H555 H 0.46569 0.93672 -0.19582
 H556 H 0.46163 0.90437 -0.16361
 H557 H 0.50592 0.81133 -0.13542
 H558 H 0.50374 0.78247 -0.09941
 H559 H 0.47940 0.84058 -0.04734
 H560 H 0.48116 0.86904 -0.08359
 C561 C 1.01066 0.31479 0.42482
 C562 C 0.99682 0.31485 0.44791
 C563 C 0.99984 0.29679 0.46638
 C564 C 1.01695 0.27823 0.46215
 C565 C 1.03052 0.27837 0.43850
 C566 C 1.02738 0.29643 0.42011
 C567 C 1.00841 0.33398 0.40630
 C568 C 1.00717 0.35014 0.39079
 C569 C 1.00651 0.36953 0.37227
 C570 C 0.98353 0.37519 0.36078
 C571 C 0.98316 0.39393 0.34264
 C572 C 1.00581 0.40721 0.33572
 C573 C 1.02876 0.40143 0.34752
 C574 C 1.02908 0.38273 0.36563
 H575 H 0.98399 0.32916 0.45189
 H576 H 0.98954 0.29846 0.48438
 H577 H 1.04326 0.26425 0.43366
 H578 H 1.03813 0.29612 0.40222
 H579 H 0.96594 0.36505 0.36574
 H580 H 0.96523 0.39778 0.33372
 H581 H 1.04646 0.41157 0.34298
 H582 H 1.04697 0.37859 0.37447
 C583 C 0.48916 0.93019 0.18793
 C584 C 0.49764 0.93447 0.21394
 C585 C 0.49836 0.95836 0.22561
 C586 C 0.49071 0.97852 0.21134
 C587 C 0.48193 0.97362 0.18516
 C588 C 0.48119 0.94976 0.17367
 C589 C 0.48926 0.90598 0.17530
 C590 C 0.48933 0.88624 0.16356
 C591 C 0.48943 0.86338 0.14824
 C592 C 0.51233 0.85294 0.14317
 C593 C 0.51278 0.83224 0.12596
 C594 C 0.49030 0.82176 0.11355
 C595 C 0.46727 0.83194 0.11941
 C596 C 0.46687 0.85265 0.13661
 H597 H 0.50411 0.91943 0.22509
 H598 H 0.50614 0.96086 0.24536
 H599 H 0.47490 0.98795 0.17345
 H600 H 0.47443 0.94661 0.15353
 H601 H 0.52992 0.86116 0.15199
 H602 H 0.53075 0.82462 0.12208
 H603 H 0.44971 0.82454 0.10991
 H604 H 0.44908 0.86073 0.14022
 C605 C 0.00386 0.32004 0.58272
 C606 C -0.01603 0.30498 0.57066
 C607 C -0.01082 0.28568 0.55297
 C608 C 0.01435 0.28114 0.54718
 C609 C 0.03418 0.29644 0.55947
 C610 C 0.02894 0.31569 0.57710
 C611 C -0.00123 0.34028 0.60053
 C612 C -0.00468 0.35754 0.61538
 C613 C -0.00784 0.37848 0.63299
 C614 C -0.01438 0.37490 0.65914
 C615 C -0.01585 0.39530 0.67660
 C616 C -0.01068 0.41957 0.66814
 C617 C -0.00460 0.42295 0.64168
 C618 C -0.00317 0.40255 0.62427
 H619 H -0.03554 0.30820 0.57484
 H620 H -0.02652 0.27426 0.54403
 H621 H 0.05377 0.29398 0.55504
 H622 H 0.04448 0.32734 0.58616
 H623 H -0.01789 0.35634 0.66614
 H624 H -0.02030 0.39208 0.69690
 H625 H -0.00087 0.44139 0.63447
 H626 H 0.00191 0.40554 0.60408
 C627 C 0.50583 0.06951 0.80656
 C628 C 0.49294 0.04969 0.81868
 C629 C 0.49297 0.02569 0.80767
 C630 C 0.50602 0.02110 0.78435
 C631 C 0.51839 0.04124 0.77195
 C632 C 0.51839 0.06530 0.78306
 C633 C 0.50673 0.09388 0.81898
 C634 C 0.50730 0.11377 0.83053
 C635 C 0.50772 0.13679 0.84564
 C636 C 0.48525 0.14450 0.85619
 C637 C 0.48586 0.16539 0.87323
 C638 C 0.50900 0.17884 0.88001
 C639 C 0.53140 0.17138 0.86866
 C640 C 0.53075 0.15045 0.85161
 H641 H 0.48305 0.05275 0.83682
 H642 H 0.48268 0.01075 0.81741
 H643 H 0.52861 0.03843 0.75408
 H644 H 0.52846 0.08053 0.77353
 H645 H 0.46736 0.13392 0.85189
 H646 H 0.46834 0.17038 0.88193
 H647 H 0.54946 0.18151 0.87327
 H648 H 0.54827 0.14459 0.84362
 C649 C 1.00116 0.68517 0.41886
 C650 C 0.98480 0.70320 0.41236
 C651 C 0.97919 0.72147 0.43104
 C652 C 0.98962 0.72189 0.45676
 C653 C 1.00691 0.70422 0.46259
 C654 C 1.01248 0.68596 0.44388
 C655 C 1.00538 0.66525 0.40030
 C656 C 1.00826 0.64820 0.38497
 C657 C 1.01090 0.62752 0.36685
 C658 C 1.00497 0.62947 0.34019
 C659 C 1.00588 0.60891 0.32286
 C660 C 1.01270 0.58607 0.33198
 C661 C 1.01915 0.58445 0.35873
 C662 C 1.01820 0.60504 0.37604
 H663 H 0.97609 0.70293 0.39294
 H664 H 0.96660 0.73519 0.42518
 H665 H 1.01588 0.70389 0.48166
 H666 H 1.02530 0.67217 0.44911
 H667 H 0.99928 0.64677 0.33286
 H668 H 1.00115 0.61085 0.30232
 H669 H 1.02417 0.56707 0.36643
 H670 H 1.02269 0.60328 0.39668
 C671 C 1.18410 0.48000 0.08446
 C672 C 1.20395 0.46448 0.08635
 C673 C 1.22007 0.46143 0.06522
 C674 C 1.21649 0.47377 0.04173
 C675 C 1.19672 0.48968 0.04030
 C676 C 1.18062 0.49269 0.06145
 C677 C 1.16691 0.48242 0.10581
 C678 C 1.15217 0.48413 0.12345
 C679 C 1.13414 0.48576 0.14414
 C680 C 1.12527 0.46435 0.15665
 C681 C 1.10680 0.46560 0.17582
 C682 C 1.09691 0.48831 0.18273
 C683 C 1.10629 0.50983 0.17038
 C684 C 1.12476 0.50853 0.15117
 H685 H 1.20692 0.45465 0.10413
 H686 H 1.23546 0.44957 0.06747
 H687 H 1.19326 0.49954 0.02282
 H688 H 1.16529 0.50476 0.05976
 H689 H 1.13242 0.44663 0.15138
 H690 H 1.10021 0.44877 0.18522
 H691 H 1.09884 0.52753 0.17503
 H692 H 1.13142 0.52521 0.14153
 C693 C 0.58554 -0.01547 0.68107
 C694 C 0.57570 0.00471 0.69426
 C695 C 0.55732 0.00073 0.71334
 C696 C 0.54863 -0.02348 0.71957
 C697 C 0.55852 -0.04363 0.70600
 C698 C 0.57685 -0.03963 0.68694
 C699 C 0.60453 -0.01158 0.66150
 C700 C 0.62044 -0.00894 0.64500
 C701 C 0.63936 -0.00656 0.62515
 C702 C 0.65140 0.01664 0.62013
 C703 C 0.66969 0.01876 0.60068
 C704 C 0.67619 -0.00235 0.58607
 C705 C 0.66398 -0.02557 0.59133
 C706 C 0.64572 -0.02763 0.61073
 H707 H 0.58229 0.02350 0.68986
 H708 H 0.55028 0.01661 0.72347
 H709 H 0.55186 -0.06251 0.70982
 H710 H 0.58422 -0.05539 0.67672
 H711 H 0.64665 0.03307 0.63123
 H712 H 0.67893 0.03685 0.59726
 H713 H 0.66822 -0.04210 0.58013
 H714 H 0.63645 -0.04567 0.61439
 C715 C -0.18326 0.51311 0.92284
 C716 C -0.17834 0.50523 0.94814
 C717 C -0.19573 0.50859 0.96808
 C718 C -0.21823 0.51997 0.96296
 C719 C -0.22319 0.52746 0.93737
 C720 C -0.20581 0.52405 0.91747
 C721 C -0.16477 0.51096 0.90265
 C722 C -0.14919 0.50979 0.88575
 C723 C -0.13046 0.50913 0.86563
 C724 C -0.12528 0.48661 0.85320
 C725 C -0.10694 0.48614 0.83377
 C726 C -0.09358 0.50822 0.82651
 C727 C -0.09900 0.53074 0.83912
 C728 C -0.11730 0.53116 0.85852
 H729 H -0.16086 0.49687 0.95255
 H730 H -0.19115 0.50298 0.98765
 H731 H -0.24050 0.53599 0.93275
 H732 H -0.20982 0.53023 0.89797
 H733 H -0.13539 0.46945 0.85851
 H734 H -0.10339 0.46855 0.82424
 H735 H -0.08878 0.54800 0.83431
 H736 H -0.12111 0.54869 0.86808
 C737 C 0.41164 0.01377 0.31023
 C738 C 0.43575 0.00607 0.31570
 C739 C 0.45522 0.00997 0.29781
 C740 C 0.45089 0.02174 0.27423
 C741 C 0.42644 0.02909 0.26875
 C742 C 0.40698 0.02516 0.28665
 C743 C 0.39198 0.01077 0.32923
 C744 C 0.37578 0.00869 0.34549
 C745 C 0.35681 0.00673 0.36532
 C746 C 0.34899 -0.01638 0.37504
 C747 C 0.33143 -0.01802 0.39521
 C748 C 0.32155 0.00347 0.40596
 C749 C 0.32924 0.02656 0.39574
 C750 C 0.34675 0.02815 0.37558
 H751 H 0.43960 -0.00267 0.33397
 H752 H 0.47371 0.00431 0.30285
 H753 H 0.42228 0.03778 0.25055
 H754 H 0.38837 0.03118 0.28219
 H755 H 0.35675 -0.03306 0.36730
 H756 H 0.32610 -0.03601 0.40286
 H757 H 0.32171 0.04338 0.40337
 H758 H 0.35265 0.04612 0.36817
 C759 C 0.18023 0.49674 0.91334
 C760 C 0.20185 0.48520 0.90570
 C761 C 0.21965 0.47926 0.92457
 C762 C 0.21599 0.48463 0.95145
 C763 C 0.19467 0.49706 0.95879
 C764 C 0.17685 0.50297 0.93988
 C765 C 0.16079 0.50065 0.89417
 C766 C 0.14422 0.50297 0.87812
 C767 C 0.12412 0.50463 0.85901
 C768 C 0.11009 0.48302 0.84976
 C769 C 0.09038 0.48431 0.83141
 C770 C 0.08440 0.50729 0.82197
 C771 C 0.09863 0.52895 0.83137
 C772 C 0.11839 0.52761 0.84976
 H773 H 0.20471 0.48034 0.88520
 H774 H 0.23615 0.47024 0.91809
 H775 H 0.19114 0.50145 0.97912
 H776 H 0.16013 0.51183 0.94604
 H777 H 0.11429 0.46514 0.85687
 H778 H 0.07953 0.46734 0.82493
 H779 H 0.09464 0.54688 0.82430
 H780 H 0.12916 0.54446 0.85677
 C781 C 0.57872 0.01312 0.30899
 C782 C 0.55399 0.00359 0.31368
 C783 C 0.53432 0.00743 0.29598
 C784 C 0.53904 0.02106 0.27341
 C785 C 0.56418 0.02999 0.26858
 C786 C 0.58381 0.02612 0.28628
 C787 C 0.59869 0.01044 0.32795
 C788 C 0.61534 0.00878 0.34408
 C789 C 0.63508 0.00749 0.36362
 C790 C 0.64438 -0.01528 0.36926
 C791 C 0.66323 -0.01643 0.38868
 C792 C 0.67300 0.00522 0.40268
 C793 C 0.66359 0.02802 0.39673
 C794 C 0.64477 0.02911 0.37735
 H795 H 0.54984 -0.00651 0.33123
 H796 H 0.51546 0.00015 0.30047
 H797 H 0.56879 0.03993 0.25107
 H798 H 0.60293 0.03347 0.28237
 H799 H 0.63703 -0.03213 0.35872
 H800 H 0.67028 -0.03420 0.39261
 H801 H 0.67041 0.04495 0.40743
 H802 H 0.63761 0.04682 0.37322
 C803 C 0.82381 0.50863 0.08926
 C804 C 0.80810 0.48933 0.07721
 C805 C 0.78983 0.49453 0.05842
 C806 C 0.78703 0.51910 0.05155
 C807 C 0.80305 0.53831 0.06365
 C808 C 0.82128 0.53308 0.08236
 C809 C 0.84253 0.50366 0.10882
 C810 C 0.85850 0.50059 0.12530
 C811 C 0.87795 0.49827 0.14496
 C812 C 0.88598 0.47502 0.15086
 C813 C 0.90559 0.47322 0.16935
 C814 C 0.91746 0.49470 0.18202
 C815 C 0.90892 0.51790 0.17624
 C816 C 0.88934 0.51965 0.15785
 H817 H 0.80987 0.47033 0.08245
 H818 H 0.77758 0.47938 0.04970
 H819 H 0.80171 0.55737 0.05846
 H820 H 0.83342 0.54815 0.09146
 H821 H 0.87732 0.45835 0.14095
 H822 H 0.91191 0.45513 0.17323
 H823 H 0.91738 0.53474 0.18597
 H824 H 0.88322 0.53773 0.15351
 C825 C 0.42355 -0.01893 0.68363
 C826 C 0.43059 -0.04283 0.68803
 C827 C 0.45003 -0.04639 0.70606
 C828 C 0.46273 -0.02602 0.71995
 C829 C 0.45561 -0.00204 0.71534
 C830 C 0.43611 0.00147 0.69728
 C831 C 0.40348 -0.01550 0.66503
 C832 C 0.38665 -0.01320 0.64926
 C833 C 0.36665 -0.01114 0.63017
 C834 C 0.35241 -0.03250 0.62054
 C835 C 0.33355 -0.03082 0.60131
 C836 C 0.32867 -0.00772 0.59141
 C837 C 0.34282 0.01372 0.60150
 C838 C 0.36173 0.01199 0.62074
 H839 H 0.42106 -0.05874 0.67748
 H840 H 0.45532 -0.06504 0.70889
 H841 H 0.46476 0.01396 0.72602
 H842 H 0.43077 0.02006 0.69406
 H843 H 0.35603 -0.05049 0.62775
 H844 H 0.32275 -0.04761 0.59421
 H845 H 0.33971 0.03172 0.59406
 H846 H 0.37269 0.02863 0.62801
   
