data_POSCAR
  _audit_creation_date              2014-09-24
  _audit_creation_method            'ToBaCCo'
  _symmetry_space_group_name_H-M    'P1'
  _symmetry_Int_Tables_number       1
  _symmetry_cell_setting            triclinic
  loop_
  _symmetry_equiv_pos_as_xyz
 x,y,z
_cell_length_a 30.5824
_cell_length_b 30.9136
_cell_length_c 31.2006
_cell_angle_alpha 90.079200
_cell_angle_beta 89.978900
_cell_angle_gamma 90.079600
loop_
  _atom_site_label
  _atom_site_type_symbol
  _atom_site_fract_x
  _atom_site_fract_y
  _atom_site_fract_z
C1 C 0.25070 0.28030 0.21813
 C2 C 0.28284 0.27973 0.18606
 C3 C 0.31493 0.24720 0.18530
 C4 C 0.31476 0.21519 0.21728
 C5 C 0.28321 0.21571 0.24995
 C6 C 0.25093 0.24829 0.25031
 C7 C 0.21832 0.31239 0.21851
 C8 C 0.18648 0.31337 0.25102
 C9 C 0.18712 0.28156 0.28318
 C10 C 0.21890 0.24886 0.28286
 C11 C 0.21913 0.21673 0.31456
 C12 C 0.25138 0.18435 0.31461
 C13 C 0.28342 0.18419 0.28226
 H14 H 0.28256 0.30437 0.16138
 H15 H 0.33955 0.19016 0.21709
 H16 H 0.21824 0.33695 0.19374
 H17 H 0.16252 0.28190 0.30821
 H18 H 0.19448 0.21725 0.33953
 H19 H 0.30824 0.15918 0.28191
 C20 C 0.74908 -0.28194 0.21849
 C21 C 0.71701 -0.28130 0.18632
 C22 C 0.68522 -0.24829 0.18500
 C23 C 0.68605 -0.21589 0.21689
 C24 C 0.71716 -0.21687 0.24991
 C25 C 0.74886 -0.24994 0.25068
 C26 C 0.78137 -0.31416 0.21888
 C27 C 0.81299 -0.31572 0.25177
 C28 C 0.81172 -0.28405 0.28435
 C29 C 0.78037 -0.25097 0.28366
 C30 C 0.78014 -0.21880 0.31543
 C31 C 0.74847 -0.18589 0.31504
 C32 C 0.71698 -0.18526 0.28224
 H33 H 0.71738 -0.30633 0.16195
 H34 H 0.66192 -0.19023 0.21673
 H35 H 0.78135 -0.33837 0.19370
 H36 H 0.83570 -0.28440 0.30993
 H37 H 0.80438 -0.21965 0.34076
 H38 H 0.69261 -0.15984 0.28156
 C39 C 0.74966 0.28162 0.78114
 C40 C 0.71778 0.28078 0.81348
 C41 C 0.68611 0.24758 0.81500
 C42 C 0.68691 0.21516 0.78314
 C43 C 0.71787 0.21631 0.74996
 C44 C 0.74944 0.24959 0.74899
 C45 C 0.78177 0.31407 0.78056
 C46 C 0.81325 0.31584 0.74753
 C47 C 0.81200 0.28413 0.71499
 C48 C 0.78080 0.25081 0.71585
 C49 C 0.78056 0.21860 0.68411
 C50 C 0.74900 0.18549 0.68470
 C51 C 0.71767 0.18467 0.71767
 H52 H 0.71817 0.30585 0.83781
 H53 H 0.66287 0.18934 0.78347
 H54 H 0.78172 0.33829 0.80573
 H55 H 0.83588 0.28465 0.68930
 H56 H 0.80467 0.21958 0.65866
 H57 H 0.69340 0.15909 0.71849
 C58 C 0.24866 -0.27947 0.78313
 C59 C 0.28044 -0.27848 0.81553
 C60 C 0.31291 -0.24623 0.81598
 C61 C 0.31327 -0.21468 0.78356
 C62 C 0.28207 -0.21561 0.75059
 C63 C 0.24966 -0.24816 0.75034
 C64 C 0.21601 -0.31141 0.78301
 C65 C 0.18479 -0.31343 0.74978
 C66 C 0.18654 -0.28223 0.71686
 C67 C 0.21827 -0.24941 0.71727
 C68 C 0.21904 -0.21775 0.68510
 C69 C 0.25119 -0.18519 0.68513
 C70 C 0.28280 -0.18455 0.71784
 H71 H 0.27972 -0.30271 0.84062
 H72 H 0.33827 -0.18979 0.78357
 H73 H 0.21559 -0.33515 0.80855
 H74 H 0.16277 -0.28286 0.69110
 H75 H 0.19479 -0.21869 0.65978
 H76 H 0.30762 -0.15947 0.71819
 C77 C 0.75059 -0.27962 0.78272
 C78 C 0.71890 -0.27860 0.81520
 C79 C 0.68658 -0.24631 0.81574
 C80 C 0.68627 -0.21475 0.78334
 C81 C 0.71738 -0.21572 0.75029
 C82 C 0.74965 -0.24832 0.74993
 C83 C 0.78310 -0.31158 0.78250
 C84 C 0.81424 -0.31363 0.74920
 C85 C 0.81254 -0.28246 0.71626
 C86 C 0.78095 -0.24961 0.71677
 C87 C 0.78026 -0.21794 0.68463
 C88 C 0.74826 -0.18533 0.68479
 C89 C 0.71672 -0.18465 0.71757
 H90 H 0.71959 -0.30282 0.84029
 H91 H 0.66137 -0.18983 0.78343
 H92 H 0.78349 -0.33532 0.80805
 H93 H 0.83627 -0.28312 0.69044
 H94 H 0.80445 -0.21890 0.65924
 H95 H 0.69202 -0.15952 0.71800
 C96 C 0.25064 0.28150 0.78078
 C97 C 0.28284 0.28100 0.81277
 C98 C 0.31493 0.24848 0.81340
 C99 C 0.31476 0.21647 0.78135
 C100 C 0.28317 0.21694 0.74877
 C101 C 0.25086 0.24946 0.74853
 C102 C 0.21820 0.31353 0.78054
 C103 C 0.18629 0.31439 0.74812
 C104 C 0.18692 0.28256 0.71589
 C105 C 0.21876 0.24994 0.71607
 C106 C 0.21898 0.21776 0.68433
 C107 C 0.25128 0.18543 0.68419
 C108 C 0.28338 0.18537 0.71644
 H109 H 0.28258 0.30565 0.83752
 H110 H 0.33956 0.19145 0.78144
 H111 H 0.21812 0.33811 0.80535
 H112 H 0.16226 0.28283 0.69094
 H113 H 0.19427 0.21818 0.65943
 H114 H 0.30822 0.16039 0.71671
 C115 C 0.25022 -0.28170 0.21802
 C116 C 0.28235 -0.28107 0.18590
 C117 C 0.31431 -0.24813 0.18471
 C118 C 0.31359 -0.21580 0.21665
 C119 C 0.28242 -0.21677 0.24962
 C120 C 0.25054 -0.24976 0.25027
 C121 C 0.21777 -0.31384 0.21830
 C122 C 0.18610 -0.31539 0.25116
 C123 C 0.18745 -0.28378 0.28379
 C124 C 0.21897 -0.25079 0.28321
 C125 C 0.21931 -0.21872 0.31506
 C126 C 0.25115 -0.18590 0.31478
 C127 C 0.28270 -0.18525 0.28202
 H128 H 0.28190 -0.30605 0.16148
 H129 H 0.33786 -0.19020 0.21658
 H130 H 0.21772 -0.33801 0.19308
 H131 H 0.16343 -0.28413 0.30935
 H132 H 0.19501 -0.21958 0.34036
 H133 H 0.30721 -0.15988 0.28144
 C134 C 0.75134 0.27971 0.21797
 C135 C 0.71973 0.27860 0.18544
 C136 C 0.68749 0.24616 0.18478
 C137 C 0.68718 0.21452 0.21710
 C138 C 0.71822 0.21557 0.25019
 C139 C 0.75042 0.24833 0.25068
 C140 C 0.78374 0.31184 0.21830
 C141 C 0.81483 0.31399 0.25162
 C142 C 0.81316 0.28273 0.28450
 C143 C 0.78165 0.24970 0.28388
 C144 C 0.78096 0.21794 0.31595
 C145 C 0.74902 0.18519 0.31566
 C146 C 0.71755 0.18443 0.28283
 H147 H 0.72042 0.30289 0.16042
 H148 H 0.66234 0.18947 0.21691
 H149 H 0.78409 0.33562 0.19279
 H150 H 0.83685 0.28347 0.31033
 H151 H 0.80508 0.21895 0.34138
 H152 H 0.69291 0.15919 0.28231
 O153 O 0.28797 0.04139 0.45776
 O154 O 0.28803 -0.04233 0.54172
 O155 O 0.28790 -0.04255 0.45791
 O156 O 0.28787 0.04165 0.54154
 O157 O 0.21562 0.04178 0.54127
 O158 O 0.21565 -0.04294 0.45826
 O159 O 0.21579 -0.04273 0.54144
 O160 O 0.21572 0.04154 0.45810
 Cu161 Cu 0.29521 -0.00045 0.49974
 Cu162 Cu 0.20844 -0.00060 0.49978
 C163 C 0.25183 0.05572 0.44369
 C164 C 0.25191 -0.05680 0.55581
 C165 C 0.25176 -0.05707 0.44389
 C166 C 0.25173 0.05607 0.55557
 O167 O 0.71221 0.04170 0.54196
 O168 O 0.71205 -0.04225 0.45800
 O169 O 0.71184 -0.04225 0.54180
 O170 O 0.71207 0.04172 0.45821
 O171 O 0.78433 0.04193 0.45849
 O172 O 0.78409 -0.04255 0.54152
 O173 O 0.78430 -0.04259 0.45835
 O174 O 0.78446 0.04195 0.54161
 Cu175 Cu 0.70478 -0.00027 0.49999
 Cu176 Cu 0.79155 -0.00033 0.49999
 C177 C 0.74837 0.05616 0.55599
 C178 C 0.74817 -0.05673 0.44395
 C179 C 0.74793 -0.05670 0.55584
 C180 C 0.74824 0.05615 0.44420
 O181 O 0.45856 0.28186 0.04090
 O182 O 0.54444 0.28185 -0.04182
 O183 O 0.45893 0.28231 -0.04235
 O184 O 0.54384 0.28141 0.04115
 O185 O 0.54352 0.20993 0.04064
 O186 O 0.45828 0.21083 -0.04275
 O187 O 0.54302 0.21039 -0.04329
 O188 O 0.45861 0.21039 0.04105
 Cu189 Cu 0.50145 0.28904 -0.00051
 Cu190 Cu 0.50081 0.20319 -0.00112
 C191 C 0.44418 0.24615 0.05524
 C192 C 0.55819 0.24615 -0.05675
 C193 C 0.44420 0.24674 -0.05678
 C194 C 0.55812 0.24555 0.05509
 O195 O 0.54270 0.71770 0.04230
 O196 O 0.45718 0.71844 -0.04075
 O197 O 0.54248 0.71845 -0.04075
 O198 O 0.45697 0.71774 0.04228
 O199 O 0.45764 0.78921 0.04360
 O200 O 0.54244 0.78992 -0.04028
 O201 O 0.45746 0.78992 -0.04029
 O202 O 0.54226 0.78917 0.04363
 Cu203 Cu 0.49982 0.71090 0.00074
 Cu204 Cu 0.49997 0.79675 0.00170
 C205 C 0.55693 0.75329 0.05715
 C206 C 0.44285 0.75428 -0.05472
 C207 C 0.55692 0.75428 -0.05472
 C208 C 0.44284 0.75334 0.05711
 O209 O 0.04237 0.45830 0.28729
 O210 O -0.04289 0.54240 0.28744
 O211 O -0.04238 0.45761 0.28765
 O212 O 0.04182 0.54289 0.28716
 O213 O 0.04241 0.54178 0.21634
 O214 O -0.04346 0.45822 0.21683
 O215 O -0.04336 0.54192 0.21662
 O216 O 0.04190 0.45790 0.21647
 Cu217 Cu -0.00027 0.50034 0.29451
 Cu218 Cu -0.00063 0.49999 0.20945
 C219 C 0.05657 0.44376 0.25184
 C220 C -0.05765 0.55640 0.25205
 C221 C -0.05731 0.44353 0.25231
 C222 C 0.05661 0.55662 0.25167
 O223 O 0.04163 0.54371 0.71298
 O224 O -0.04284 0.45861 0.71211
 O225 O -0.04297 0.54339 0.71271
 O226 O 0.04201 0.45908 0.71250
 O227 O 0.04145 0.45855 0.78332
 O228 O -0.04343 0.54284 0.78354
 O229 O -0.04403 0.45915 0.78293
 O230 O 0.04217 0.54248 0.78379
 Cu231 Cu -0.00052 0.50120 0.70545
 Cu232 Cu -0.00096 0.50072 0.79051
 C233 C 0.05634 0.55746 0.74854
 C234 C -0.05795 0.44459 0.74739
 C235 C -0.05760 0.55745 0.74818
 C236 C 0.05616 0.44447 0.74789
 N237 N 0.37009 0.20976 0.14097
 C238 C 0.34862 0.24682 0.15122
 N239 N 0.35875 0.28358 0.12954
 N240 N 0.38923 0.28337 0.09904
 C241 C 0.41051 0.24629 0.08876
 N242 N 0.40034 0.20945 0.11022
 N243 N 0.64806 0.71800 0.12557
 C244 C 0.65313 0.75223 0.15259
 N245 N 0.62620 0.78686 0.14766
 N246 N 0.59585 0.78736 0.11704
 C247 C 0.59074 0.75297 0.09047
 N248 N 0.61730 0.71822 0.09534
 N249 N 0.64926 0.28124 -0.12544
 C250 C 0.65416 0.24699 -0.15245
 N251 N 0.62719 0.21233 -0.14736
 N252 N 0.59693 0.21185 -0.11663
 C253 C 0.59198 0.24628 -0.09008
 N254 N 0.61861 0.28103 -0.09510
 N255 N 0.36846 0.79109 -0.13993
 C256 C 0.34663 0.75413 -0.15000
 N257 N 0.35662 0.71732 -0.12838
 N258 N 0.38731 0.71740 -0.09811
 C259 C 0.40897 0.75437 -0.08802
 N260 N 0.39892 0.79125 -0.10940
 N261 N 0.13134 0.35810 0.28809
 C262 C 0.15259 0.34751 0.25130
 N263 N 0.14207 0.36891 0.21472
 N264 N 0.11141 0.39948 0.21488
 C265 C 0.09035 0.41010 0.25170
 N266 N 0.10092 0.38891 0.28833
 N267 N 0.14687 0.62744 0.78378
 C268 C 0.15248 0.65401 0.74947
 N269 N 0.12605 0.64830 0.71485
 N270 N 0.09569 0.61736 0.71442
 C271 C 0.09008 0.59120 0.74886
 N272 N 0.11611 0.59687 0.78361
 N273 N -0.14919 0.62517 0.21768
 C274 C -0.15463 0.65187 0.25197
 N275 N -0.12778 0.64664 0.28633
 N276 N -0.09716 0.61603 0.28652
 C277 C -0.09169 0.58977 0.25207
 N278 N -0.11817 0.59495 0.21760
 N279 N -0.12770 0.35394 0.71289
 C280 C -0.15455 0.34850 0.74726
 N281 N -0.14929 0.37525 0.78153
 N282 N -0.11843 0.40570 0.78163
 C283 C -0.09193 0.41108 0.74718
 N284 N -0.09722 0.38478 0.71272
 N285 N 0.28884 0.12910 0.35821
 C286 C 0.25154 0.15075 0.34836
 N287 N 0.21436 0.14091 0.37015
 N288 N 0.21443 0.11055 0.40040
 C289 C 0.25177 0.08910 0.41029
 N290 N 0.28900 0.09898 0.38871
 N291 N 0.71159 0.12968 0.64154
 C292 C 0.74881 0.15177 0.65100
 N293 N 0.78587 0.14218 0.62893
 N294 N 0.78576 0.11161 0.59879
 C295 C 0.74850 0.08973 0.58928
 N296 N 0.71138 0.09938 0.61113
 N297 N 0.21441 -0.14218 0.62925
 C298 C 0.25151 -0.15178 0.65120
 N299 N 0.28880 -0.12994 0.64146
 N300 N 0.28901 -0.09985 0.61091
 C301 C 0.25184 -0.09020 0.58919
 N302 N 0.21453 -0.11185 0.59896
 N303 N 0.78544 -0.14257 0.37079
 C304 C 0.74834 -0.15219 0.34878
 N305 N 0.71116 -0.13019 0.35836
 N306 N 0.71103 -0.09993 0.38882
 C307 C 0.74819 -0.09026 0.41061
 N308 N 0.78541 -0.11207 0.40099
 N309 N 0.63131 0.79107 -0.14002
 C310 C 0.65296 0.75408 -0.15016
 N311 N 0.64286 0.71727 -0.12856
 N312 N 0.61223 0.71736 -0.09822
 C313 C 0.59075 0.75436 -0.08805
 N314 N 0.60091 0.79125 -0.10941
 N315 N 0.35896 0.28473 -0.13085
 C316 C 0.34859 0.24799 -0.15257
 N317 N 0.36984 0.21082 -0.14243
 N318 N 0.40011 0.21036 -0.11174
 C319 C 0.41054 0.24714 -0.09025
 N320 N 0.38948 0.28436 -0.10040
 N321 N 0.35143 0.71815 0.12533
 C322 C 0.34647 0.75236 0.15237
 N323 N 0.37358 0.78694 0.14753
 N324 N 0.40400 0.78742 0.11697
 C325 C 0.40900 0.75304 0.09037
 N326 N 0.38226 0.71834 0.09515
 N327 N 0.64394 0.28255 0.12908
 C328 C 0.65395 0.24574 0.15065
 N329 N 0.63228 0.20872 0.14042
 N330 N 0.60195 0.20853 0.10977
 C331 C 0.59190 0.24544 0.08843
 N332 N 0.61339 0.28245 0.09868
 N333 N -0.14795 0.62739 0.78325
 C334 C -0.15355 0.65383 0.74887
 N335 N -0.12719 0.64804 0.71420
 N336 N -0.09689 0.61713 0.71382
 C337 C -0.09129 0.59111 0.74834
 N338 N -0.11726 0.59687 0.78312
 N339 N -0.12664 0.35260 0.28656
 C340 C -0.15306 0.34670 0.25196
 N341 N -0.14762 0.37320 0.21759
 N342 N -0.11702 0.40389 0.21766
 C343 C -0.09098 0.40976 0.25235
 N344 N -0.09642 0.38368 0.28688
 N345 N 0.14174 0.36974 0.78468
 C346 C 0.15233 0.34843 0.74801
 N347 N 0.13105 0.35901 0.71127
 N348 N 0.10056 0.38974 0.71117
 C349 C 0.08993 0.41084 0.74789
 N350 N 0.11101 0.40023 0.78466
 N351 N 0.14816 0.62550 0.21707
 C352 C 0.15362 0.65224 0.25133
 N353 N 0.12673 0.64705 0.28569
 N354 N 0.09605 0.61642 0.28591
 C355 C 0.09058 0.59011 0.25151
 N356 N 0.11709 0.59525 0.21703
 N357 N 0.71081 -0.13006 0.64125
 C358 C 0.74804 -0.15189 0.65093
 N359 N 0.78519 -0.14222 0.62902
 N360 N 0.78517 -0.11182 0.59881
 C361 C 0.74791 -0.09017 0.58910
 N362 N 0.71070 -0.09990 0.61078
 N363 N 0.28864 -0.13041 0.35826
 C364 C 0.25138 -0.15232 0.34859
 N365 N 0.21428 -0.14271 0.37058
 N366 N 0.21439 -0.11229 0.40086
 C367 C 0.25169 -0.09057 0.41056
 N368 N 0.28884 -0.10023 0.38878
 N369 N 0.78580 0.14195 0.37133
 C370 C 0.74871 0.15167 0.34944
 N371 N 0.71142 0.12977 0.35902
 N372 N 0.71120 0.09950 0.38937
 C373 C 0.74836 0.08972 0.41103
 N374 N 0.78568 0.11144 0.40143
 N375 N 0.21424 0.14171 0.62881
 C376 C 0.25144 0.15173 0.65048
 N377 N 0.28875 0.13008 0.64062
 N378 N 0.28891 0.09976 0.61024
 C379 C 0.25166 0.08968 0.58879
 N380 N 0.21430 0.11115 0.59867
   
