data_POSCAR
  _audit_creation_date              2014-09-24
  _audit_creation_method            'ToBaCCo'
  _symmetry_space_group_name_H-M    'P1'
  _symmetry_Int_Tables_number       1
  _symmetry_cell_setting            triclinic
  loop_
  _symmetry_equiv_pos_as_xyz
 x,y,z
_cell_length_a 50.4337
_cell_length_b 49.6908
_cell_length_c 49.5873
_cell_angle_alpha 88.678500
_cell_angle_beta 92.426400
_cell_angle_gamma 88.762700
loop_
  _atom_site_label
  _atom_site_type_symbol
  _atom_site_fract_x
  _atom_site_fract_y
  _atom_site_fract_z
C1 C 0.25332 0.27073 0.22089
 C2 C 0.27341 0.27241 0.20227
 C3 C 0.29346 0.25235 0.20175
 C4 C 0.29316 0.23039 0.22016
 C5 C 0.27318 0.22844 0.23891
 C6 C 0.25318 0.24869 0.23931
 C7 C 0.23336 0.29076 0.22134
 C8 C 0.21319 0.28914 0.23999
 C9 C 0.21321 0.26715 0.25837
 C10 C 0.23303 0.24691 0.25812
 C11 C 0.23305 0.22495 0.27640
 C12 C 0.25294 0.20467 0.27617
 C13 C 0.27291 0.20659 0.25729
 H14 H 0.27321 0.28918 0.18788
 H15 H 0.30871 0.21499 0.22013
 H16 H 0.23373 0.30785 0.20738
 H17 H 0.19757 0.26560 0.27262
 H18 H 0.21778 0.22384 0.29111
 H19 H 0.28811 0.19088 0.25669
 C20 C 0.75878 -0.25892 0.24021
 C21 C 0.73898 -0.25907 0.21949
 C22 C 0.71876 -0.23887 0.21719
 C23 C 0.71934 -0.21810 0.23626
 C24 C 0.73899 -0.21782 0.25715
 C25 C 0.75863 -0.23846 0.25929
 C26 C 0.77874 -0.27906 0.24201
 C27 C 0.79876 -0.27942 0.26288
 C28 C 0.79788 -0.25899 0.28225
 C29 C 0.77814 -0.23862 0.28051
 C30 C 0.77778 -0.21820 0.29957
 C31 C 0.75841 -0.19745 0.29745
 C32 C 0.73913 -0.19732 0.27616
 H33 H 0.74018 -0.27456 0.20458
 H34 H 0.70386 -0.20266 0.23587
 H35 H 0.77783 -0.29504 0.22756
 H36 H 0.81323 -0.25792 0.29809
 H37 H 0.79280 -0.21817 0.31587
 H38 H 0.72402 -0.18143 0.27467
 C39 C 0.74426 0.28224 0.77145
 C40 C 0.72355 0.28360 0.78942
 C41 C 0.70410 0.26354 0.79020
 C42 C 0.70576 0.24227 0.77180
 C43 C 0.72631 0.24075 0.75366
 C44 C 0.74583 0.26062 0.75374
 C45 C 0.76369 0.30204 0.77134
 C46 C 0.78521 0.30040 0.75408
 C47 C 0.78652 0.27844 0.73656
 C48 C 0.76693 0.25885 0.73609
 C49 C 0.76803 0.23763 0.71800
 C50 C 0.74837 0.21799 0.71736
 C51 C 0.72763 0.21964 0.73539
 H52 H 0.72366 0.29975 0.80369
 H53 H 0.69061 0.22718 0.77076
 H54 H 0.76252 0.31805 0.78572
 H55 H 0.80213 0.27704 0.72228
 H56 H 0.78394 0.23670 0.70399
 H57 H 0.71265 0.20432 0.73536
 C58 C 0.24778 -0.27477 0.77463
 C59 C 0.26915 -0.27401 0.79361
 C60 C 0.28836 -0.25403 0.79183
 C61 C 0.28590 -0.23456 0.77077
 C62 C 0.26464 -0.23509 0.75160
 C63 C 0.24555 -0.25532 0.75351
 C64 C 0.22877 -0.29483 0.77644
 C65 C 0.20729 -0.29611 0.75726
 C66 C 0.20542 -0.27638 0.73619
 C67 C 0.22425 -0.25613 0.73427
 C68 C 0.22203 -0.23663 0.71334
 C69 C 0.24091 -0.21634 0.71129
 C70 C 0.26220 -0.21576 0.73052
 H71 H 0.27064 -0.28881 0.81004
 H72 H 0.30075 -0.21924 0.76908
 H73 H 0.23165 -0.31011 0.79226
 H74 H 0.18874 -0.27587 0.72170
 H75 H 0.20581 -0.23750 0.69835
 H76 H 0.27670 -0.20004 0.72927
 C77 C 0.74818 -0.27722 0.77678
 C78 C 0.73145 -0.27610 0.79868
 C79 C 0.71231 -0.25522 0.80027
 C80 C 0.71032 -0.23515 0.77978
 C81 C 0.72688 -0.23600 0.75781
 C82 C 0.74572 -0.25725 0.75616
 C83 C 0.76719 -0.29812 0.77518
 C84 C 0.78393 -0.29970 0.75304
 C85 C 0.78087 -0.27958 0.73241
 C86 C 0.76205 -0.25854 0.73385
 C87 C 0.75950 -0.23856 0.71337
 C88 C 0.74101 -0.21718 0.71506
 C89 C 0.72477 -0.21601 0.73735
 H90 H 0.73344 -0.29140 0.81461
 H91 H 0.69546 -0.21914 0.78062
 H92 H 0.76797 -0.31367 0.79085
 H93 H 0.79389 -0.27932 0.71561
 H94 H 0.77218 -0.23936 0.69628
 H95 H 0.71028 -0.19969 0.73855
 C96 C 0.25040 0.25952 0.75741
 C97 C 0.26988 0.25842 0.77851
 C98 C 0.28996 0.23829 0.77949
 C99 C 0.29043 0.21923 0.75899
 C100 C 0.27113 0.22009 0.73778
 C101 C 0.25101 0.24028 0.73695
 C102 C 0.23029 0.27951 0.75647
 C103 C 0.21070 0.28056 0.73538
 C104 C 0.21149 0.26130 0.71504
 C105 C 0.23148 0.24119 0.71569
 C106 C 0.23221 0.22191 0.69547
 C107 C 0.25225 0.20173 0.69616
 C108 C 0.27163 0.20101 0.71742
 H109 H 0.26919 0.27302 0.79438
 H110 H 0.30607 0.20389 0.75933
 H111 H 0.23005 0.29446 0.77204
 H112 H 0.19628 0.26171 0.69892
 H113 H 0.21735 0.22278 0.67901
 H114 H 0.28690 0.18528 0.71836
 C115 C 0.25145 -0.27521 0.21680
 C116 C 0.27000 -0.27400 0.19647
 C117 C 0.28919 -0.25363 0.19594
 C118 C 0.28919 -0.23449 0.21661
 C119 C 0.27092 -0.23562 0.23710
 C120 C 0.25200 -0.25606 0.23724
 C121 C 0.23238 -0.29540 0.21692
 C122 C 0.21371 -0.29706 0.23739
 C123 C 0.21480 -0.27765 0.25783
 C124 C 0.23365 -0.25731 0.25785
 C125 C 0.23432 -0.23809 0.27817
 C126 C 0.25321 -0.21768 0.27824
 C127 C 0.27143 -0.21662 0.25759
 H128 H 0.26856 -0.28844 0.18050
 H129 H 0.30416 -0.21922 0.21772
 H130 H 0.23305 -0.31043 0.20150
 H131 H 0.20029 -0.27740 0.27330
 H132 H 0.22038 -0.23924 0.29419
 H133 H 0.28579 -0.20071 0.25723
 C134 C 0.76241 0.26485 0.22345
 C135 C 0.74330 0.26279 0.20221
 C136 C 0.72315 0.24376 0.20362
 C137 C 0.72240 0.22647 0.22637
 C138 C 0.74151 0.22808 0.24760
 C139 C 0.76150 0.24746 0.24622
 C140 C 0.78215 0.28428 0.22237
 C141 C 0.80129 0.28688 0.24383
 C142 C 0.80015 0.26896 0.26634
 C143 C 0.78055 0.24942 0.26763
 C144 C 0.77979 0.23174 0.29006
 C145 C 0.76014 0.21214 0.29146
 C146 C 0.74098 0.21057 0.27014
 H147 H 0.74376 0.27629 0.18475
 H148 H 0.70704 0.21159 0.22738
 H149 H 0.78159 0.29811 0.20517
 H150 H 0.81508 0.26926 0.28265
 H151 H 0.79434 0.23342 0.30662
 H152 H 0.72592 0.19537 0.27086
 O153 O 0.26009 0.01567 0.46160
 O154 O 0.26304 -0.03490 0.51688
 O155 O 0.26114 -0.03679 0.46436
 O156 O 0.26081 0.01745 0.51389
 O157 O 0.21706 0.01702 0.51308
 O158 O 0.21740 -0.03708 0.46377
 O159 O 0.21930 -0.03533 0.51637
 O160 O 0.21633 0.01541 0.46069
 Cu161 Cu 0.26564 -0.00966 0.48923
 Cu162 Cu 0.21314 -0.01008 0.48838
 C163 C 0.23779 0.02436 0.45176
 C164 C 0.24175 -0.04372 0.52621
 C165 C 0.23927 -0.04621 0.45558
 C166 C 0.23882 0.02657 0.52190
 O167 O 0.71811 0.03100 0.53521
 O168 O 0.72076 -0.02166 0.48437
 O169 O 0.72024 -0.02144 0.53656
 O170 O 0.71920 0.03094 0.48260
 O171 O 0.76294 0.03158 0.48533
 O172 O 0.76400 -0.02061 0.53917
 O173 O 0.76453 -0.02076 0.48654
 O174 O 0.76186 0.03159 0.53784
 Cu175 Cu 0.71518 0.00473 0.50939
 Cu176 Cu 0.76771 0.00553 0.51244
 C177 C 0.73952 0.04017 0.54541
 C178 C 0.74308 -0.03028 0.47682
 C179 C 0.74234 -0.02995 0.54710
 C180 C 0.74093 0.04019 0.47469
 O181 O 0.47591 0.26943 0.02416
 O182 O 0.52478 0.27124 -0.02916
 O183 O 0.47320 0.27121 -0.02832
 O184 O 0.52730 0.27089 0.02365
 O185 O 0.52955 0.22650 0.02338
 O186 O 0.47437 0.22681 -0.02800
 O187 O 0.52584 0.22685 -0.02920
 O188 O 0.47794 0.22504 0.02449
 Cu189 Cu 0.50020 0.27515 -0.00245
 Cu190 Cu 0.50212 0.22186 -0.00230
 C191 C 0.46859 0.24685 0.03345
 C192 C 0.53349 0.24927 -0.03847
 C193 C 0.46438 0.24914 -0.03699
 C194 C 0.53765 0.24872 0.03249
 O195 O 0.53052 0.74825 0.03174
 O196 O 0.48024 0.74631 -0.02431
 O197 O 0.53182 0.74650 -0.02063
 O198 O 0.47885 0.74679 0.02804
 O199 O 0.47716 0.79119 0.02614
 O200 O 0.53034 0.79089 -0.02276
 O201 O 0.47864 0.79071 -0.02626
 O202 O 0.52878 0.79264 0.02962
 Cu203 Cu 0.50554 0.74252 0.00394
 Cu204 Cu 0.50358 0.79580 0.00148
 C205 C 0.53827 0.77082 0.04026
 C206 C 0.47081 0.76823 -0.03487
 C207 C 0.54015 0.76857 -0.03008
 C208 C 0.46887 0.76898 0.03541
 O209 O 0.02855 0.47413 0.27887
 O210 O -0.02309 0.52778 0.27718
 O211 O -0.02308 0.47536 0.27830
 O212 O 0.02857 0.52660 0.27762
 O213 O 0.02719 0.52663 0.23311
 O214 O -0.02456 0.47537 0.23378
 O215 O -0.02455 0.52773 0.23266
 O216 O 0.02700 0.47418 0.23435
 Cu217 Cu 0.00290 0.50098 0.28245
 Cu218 Cu 0.00114 0.50102 0.22902
 C219 C 0.03656 0.46491 0.25688
 C220 C -0.03272 0.53689 0.25461
 C221 C -0.03267 0.46656 0.25617
 C222 C 0.03674 0.53540 0.25526
 O223 O 0.02449 0.52177 0.73256
 O224 O -0.02537 0.46911 0.73567
 O225 O -0.02677 0.52127 0.73601
 O226 O 0.02627 0.46924 0.73293
 O227 O 0.03096 0.46864 0.77736
 O228 O -0.02259 0.51975 0.78048
 O229 O -0.02032 0.46730 0.78012
 O230 O 0.02877 0.52106 0.77702
 Cu231 Cu -0.00073 0.49541 0.72983
 Cu232 Cu 0.00467 0.49409 0.78320
 C233 C 0.03503 0.53061 0.75421
 C234 C -0.03139 0.45921 0.75838
 C235 C -0.03383 0.52932 0.75882
 C236 C 0.03774 0.46008 0.75466
 C237 C 0.32595 0.27918 0.17585
 C238 C 0.34547 0.28109 0.15677
 C239 C 0.35430 0.25815 0.14349
 C240 C 0.34283 0.23323 0.14937
 C241 C 0.32325 0.23134 0.16841
 C242 C 0.31459 0.25429 0.18187
 C243 C 0.37461 0.26125 0.12295
 C244 C 0.39102 0.24113 0.11616
 C245 C 0.41098 0.24358 0.09512
 C246 C 0.42137 0.21987 0.08443
 C247 C 0.44007 0.22094 0.06448
 C248 C 0.44897 0.24582 0.05482
 C249 C 0.43892 0.26960 0.06576
 C250 C 0.42021 0.26853 0.08577
 H251 H 0.31989 0.29719 0.18606
 H252 H 0.35385 0.30054 0.15249
 H253 H 0.34833 0.21525 0.13887
 H254 H 0.31445 0.21200 0.17216
 H255 H 0.37596 0.28095 0.11347
 H256 H 0.38964 0.22161 0.12606
 H257 H 0.41480 0.20039 0.09136
 H258 H 0.44747 0.20223 0.05656
 H259 H 0.44559 0.28908 0.05894
 H260 H 0.41347 0.28731 0.09398
 C261 C 0.69093 0.73593 0.18472
 C262 C 0.67106 0.73527 0.16428
 C263 C 0.65784 0.75893 0.15484
 C264 C 0.66525 0.78352 0.16607
 C265 C 0.68511 0.78427 0.18657
 C266 C 0.69846 0.76047 0.19638
 C267 C 0.63715 0.75700 0.13281
 C268 C 0.61821 0.77592 0.12721
 C269 C 0.59778 0.77382 0.10499
 C270 C 0.58586 0.79757 0.09391
 C271 C 0.56658 0.79661 0.07290
 C272 C 0.55856 0.77178 0.06268
 C273 C 0.57012 0.74794 0.07409
 C274 C 0.58947 0.74891 0.09506
 H275 H 0.69948 0.71683 0.19193
 H276 H 0.66573 0.71602 0.15604
 H277 H 0.65638 0.80242 0.15867
 H278 H 0.69068 0.80385 0.19366
 H279 H 0.63764 0.73900 0.12097
 H280 H 0.61767 0.79404 0.13885
 H281 H 0.59170 0.81700 0.10135
 H282 H 0.55796 0.81535 0.06468
 H283 H 0.56418 0.72848 0.06685
 H284 H 0.59745 0.73010 0.10367
 C285 C 0.67518 0.28914 -0.17996
 C286 C 0.65592 0.28986 -0.16054
 C287 C 0.64444 0.26615 -0.15128
 C288 C 0.65279 0.24151 -0.16183
 C289 C 0.67198 0.24071 -0.18132
 C290 C 0.68380 0.26450 -0.19072
 C291 C 0.62483 0.26794 -0.12984
 C292 C 0.60739 0.24867 -0.12469
 C293 C 0.58864 0.24979 -0.10248
 C294 C 0.57872 0.22552 -0.09255
 C295 C 0.56101 0.22538 -0.07167
 C296 C 0.55254 0.24962 -0.06038
 C297 C 0.56216 0.27401 -0.07052
 C298 C 0.58000 0.27414 -0.09139
 H299 H 0.68254 0.30821 -0.18700
 H300 H 0.64983 0.30915 -0.15281
 H301 H 0.64535 0.22258 -0.15451
 H302 H 0.67846 0.22107 -0.18773
 H303 H 0.62509 0.28588 -0.11789
 H304 H 0.60707 0.23075 -0.13666
 H305 H 0.58488 0.20651 -0.10084
 H306 H 0.55388 0.20624 -0.06446
 H307 H 0.55581 0.29304 -0.06243
 H308 H 0.58648 0.29335 -0.09902
 C309 C 0.32373 0.72236 -0.17874
 C310 C 0.34442 0.72269 -0.15912
 C311 C 0.35298 0.74707 -0.14843
 C312 C 0.34016 0.77124 -0.15762
 C313 C 0.31941 0.77089 -0.17722
 C314 C 0.31091 0.74645 -0.18793
 C315 C 0.37441 0.74623 -0.12698
 C316 C 0.38993 0.76713 -0.12131
 C317 C 0.41090 0.76655 -0.09935
 C318 C 0.41968 0.79112 -0.08927
 C319 C 0.43916 0.79168 -0.06841
 C320 C 0.45046 0.76761 -0.05725
 C321 C 0.44207 0.74300 -0.06765
 C322 C 0.42260 0.74243 -0.08854
 H323 H 0.31784 0.70323 -0.18681
 H324 H 0.35384 0.70380 -0.15233
 H325 H 0.34548 0.79038 -0.14925
 H326 H 0.30956 0.78972 -0.18350
 H327 H 0.37732 0.72746 -0.11566
 H328 H 0.38699 0.78583 -0.13275
 H329 H 0.41121 0.80999 -0.09736
 H330 H 0.44525 0.81100 -0.06095
 H331 H 0.45061 0.72411 -0.05970
 H332 H 0.41718 0.72307 -0.09630
 C333 C 0.18081 0.32132 0.21587
 C334 C 0.16136 0.34174 0.21601
 C335 C 0.15261 0.35165 0.24044
 C336 C 0.16402 0.34088 0.26488
 C337 C 0.18351 0.32044 0.26472
 C338 C 0.19214 0.31047 0.24022
 C339 C 0.13228 0.37371 0.23936
 C340 C 0.11666 0.37951 0.25980
 C341 C 0.09626 0.40152 0.25834
 C342 C 0.08775 0.41234 0.28249
 C343 C 0.06845 0.43299 0.28207
 C344 C 0.05709 0.44314 0.25744
 C345 C 0.06533 0.43207 0.23327
 C346 C 0.08459 0.41142 0.23368
 H347 H 0.18684 0.31386 0.19666
 H348 H 0.15300 0.34972 0.19691
 H349 H 0.15855 0.34852 0.28415
 H350 H 0.19227 0.31285 0.28379
 H351 H 0.13009 0.38533 0.22065
 H352 H 0.11888 0.36805 0.27859
 H353 H 0.09620 0.40491 0.30176
 H354 H 0.06244 0.44098 0.30106
 H355 H 0.05674 0.43920 0.21396
 H356 H 0.08978 0.40301 0.21465
 C357 C 0.18287 0.67076 0.78405
 C358 C 0.16421 0.65048 0.78568
 C359 C 0.15015 0.64207 0.76253
 C360 C 0.15550 0.65411 0.73748
 C361 C 0.17408 0.67446 0.73578
 C362 C 0.18821 0.68330 0.75903
 C363 C 0.13080 0.62021 0.76535
 C364 C 0.11101 0.61585 0.74714
 C365 C 0.09192 0.59377 0.74978
 C366 C 0.07896 0.58451 0.72630
 C367 C 0.06065 0.56390 0.72773
 C368 C 0.05465 0.55226 0.75278
 C369 C 0.06735 0.56174 0.77636
 C370 C 0.08575 0.58232 0.77492
 H371 H 0.19220 0.67716 0.80279
 H372 H 0.16050 0.64155 0.80526
 H373 H 0.14602 0.64747 0.71892
 H374 H 0.17811 0.68219 0.71584
 H375 H 0.13303 0.60747 0.78332
 H376 H 0.10871 0.62852 0.72913
 H377 H 0.08317 0.59314 0.70672
 H378 H 0.05112 0.55718 0.70918
 H379 H 0.06297 0.55336 0.79599
 H380 H 0.09461 0.58948 0.79358
 C381 C -0.16770 0.69240 0.28896
 C382 C -0.14776 0.67237 0.29006
 C383 C -0.14025 0.65954 0.26662
 C384 C -0.15274 0.66763 0.24179
 C385 C -0.17276 0.68754 0.24062
 C386 C -0.18081 0.70033 0.26419
 C387 C -0.11889 0.63847 0.26884
 C388 C -0.11537 0.61972 0.25019
 C389 C -0.09386 0.59887 0.25214
 C390 C -0.08566 0.58720 0.22829
 C391 C -0.06570 0.56725 0.22907
 C392 C -0.05367 0.55826 0.25383
 C393 C -0.06206 0.56970 0.27778
 C394 C -0.08197 0.58976 0.27699
 H395 H -0.17340 0.70071 0.30788
 H396 H -0.13840 0.66660 0.30947
 H397 H -0.14677 0.65926 0.22301
 H398 H -0.18090 0.69361 0.22084
 H399 H -0.10583 0.63849 0.28672
 H400 H -0.12839 0.61962 0.23230
 H401 H -0.09464 0.59368 0.20892
 H402 H -0.05981 0.55877 0.21026
 H403 H -0.05333 0.56305 0.29719
 H404 H -0.08830 0.59758 0.29590
 C405 C -0.20117 0.34726 0.76054
 C406 C -0.18178 0.36691 0.76017
 C407 C -0.15558 0.36009 0.75446
 C408 C -0.14911 0.33336 0.74846
 C409 C -0.16857 0.31378 0.74814
 C410 C -0.19501 0.32029 0.75431
 C411 C -0.13564 0.38137 0.75370
 C412 C -0.11036 0.37709 0.76237
 C413 C -0.09048 0.39841 0.76127
 C414 C -0.07102 0.40003 0.78220
 C415 C -0.05196 0.42003 0.78149
 C416 C -0.05161 0.43823 0.75941
 C417 C -0.07076 0.43623 0.73820
 C418 C -0.09015 0.41663 0.73920
 H419 H -0.22124 0.35368 0.76447
 H420 H -0.18725 0.38753 0.76446
 H421 H -0.12907 0.32765 0.74355
 H422 H -0.16244 0.29334 0.74401
 H423 H -0.14228 0.40141 0.74703
 H424 H -0.10434 0.35788 0.77174
 H425 H -0.07081 0.38600 0.79926
 H426 H -0.03728 0.42103 0.79800
 H427 H -0.07091 0.45000 0.72094
 H428 H -0.10457 0.41543 0.72249
 C429 C 0.27689 0.17172 0.30824
 C430 C 0.27696 0.15011 0.32676
 C431 C 0.25315 0.13803 0.33351
 C432 C 0.22920 0.14767 0.32080
 C433 C 0.22915 0.16925 0.30220
 C434 C 0.25298 0.18159 0.29578
 C435 C 0.25438 0.11524 0.35338
 C436 C 0.23397 0.10813 0.36835
 C437 C 0.23566 0.08611 0.38917
 C438 C 0.21205 0.07492 0.39785
 C439 C 0.21266 0.05468 0.41797
 C440 C 0.23695 0.04528 0.42996
 C441 C 0.26058 0.05653 0.42137
 C442 C 0.25998 0.07678 0.40134
 H443 H 0.29555 0.18095 0.30396
 H444 H 0.29569 0.14302 0.33614
 H445 H 0.21053 0.13834 0.32470
 H446 H 0.21047 0.17602 0.29249
 H447 H 0.27323 0.10454 0.35609
 H448 H 0.21512 0.11884 0.36556
 H449 H 0.19304 0.08188 0.38903
 H450 H 0.19409 0.04652 0.42421
 H451 H 0.27962 0.04996 0.43042
 H452 H 0.27861 0.08540 0.39610
 C453 C 0.77368 0.18347 0.69194
 C454 C 0.77480 0.16364 0.67248
 C455 C 0.75168 0.15573 0.65835
 C456 C 0.72730 0.16827 0.66399
 C457 C 0.72619 0.18814 0.68345
 C458 C 0.74938 0.19606 0.69755
 C459 C 0.75413 0.13530 0.63719
 C460 C 0.73401 0.12005 0.62844
 C461 C 0.73629 0.09979 0.60704
 C462 C 0.71291 0.09080 0.59413
 C463 C 0.71393 0.07159 0.57402
 C464 C 0.73842 0.06082 0.56642
 C465 C 0.76184 0.06962 0.57945
 C466 C 0.76082 0.08877 0.59961
 H467 H 0.79186 0.18892 0.70266
 H468 H 0.79385 0.15440 0.66847
 H469 H 0.70913 0.16348 0.65295
 H470 H 0.70726 0.19787 0.68692
 H471 H 0.77346 0.13285 0.62885
 H472 H 0.71475 0.12253 0.63698
 H473 H 0.69374 0.09875 0.59955
 H474 H 0.69550 0.06517 0.56446
 H475 H 0.78101 0.06147 0.57428
 H476 H 0.77931 0.09432 0.60955
 C477 C 0.21353 -0.18459 0.68074
 C478 C 0.21117 -0.16567 0.65944
 C479 C 0.23365 -0.15743 0.64598
 C480 C 0.25859 -0.16894 0.65400
 C481 C 0.26093 -0.18788 0.67530
 C482 C 0.23844 -0.19591 0.68892
 C483 C 0.23011 -0.13761 0.62320
 C484 C 0.24950 -0.12161 0.61513
 C485 C 0.24651 -0.10191 0.59216
 C486 C 0.26960 -0.09218 0.58088
 C487 C 0.26803 -0.07344 0.55942
 C488 C 0.24326 -0.06382 0.54878
 C489 C 0.22009 -0.07334 0.56015
 C490 C 0.22165 -0.09212 0.58167
 H491 H 0.19586 -0.19018 0.69099
 H492 H 0.19172 -0.15727 0.65357
 H493 H 0.27627 -0.16395 0.64354
 H494 H 0.28030 -0.19670 0.68072
 H495 H 0.21066 -0.13619 0.61318
 H496 H 0.26880 -0.12302 0.62553
 H497 H 0.28899 -0.09921 0.58863
 H498 H 0.28628 -0.06647 0.55121
 H499 H 0.20070 -0.06613 0.55258
 H500 H 0.20334 -0.09837 0.59019
 C501 C 0.75711 -0.14872 0.30913
 C502 C 0.75736 -0.12838 0.32815
 C503 C 0.75812 -0.13486 0.35586
 C504 C 0.75938 -0.16210 0.36429
 C505 C 0.75961 -0.18242 0.34528
 C506 C 0.75831 -0.17591 0.31755
 C507 C 0.75832 -0.11293 0.37551
 C508 C 0.74619 -0.11486 0.39896
 C509 C 0.74571 -0.09275 0.41839
 C510 C 0.72326 -0.08904 0.43373
 C511 C 0.72227 -0.06848 0.45244
 C512 C 0.74403 -0.05167 0.45666
 C513 C 0.76672 -0.05569 0.44163
 C514 C 0.76751 -0.07593 0.42253
 H515 H 0.75637 -0.14325 0.28784
 H516 H 0.75663 -0.10753 0.32122
 H517 H 0.76062 -0.16770 0.38554
 H518 H 0.76057 -0.20327 0.35221
 H519 H 0.76727 -0.09414 0.36972
 H520 H 0.73482 -0.13256 0.40341
 H521 H 0.70634 -0.10192 0.43103
 H522 H 0.70461 -0.06599 0.46391
 H523 H 0.78381 -0.04307 0.44453
 H524 H 0.78534 -0.07875 0.41142
 C525 C 0.68293 0.72155 -0.16728
 C526 C 0.66501 0.72224 -0.14655
 C527 C 0.65754 0.74675 -0.13526
 C528 C 0.66910 0.77059 -0.14452
 C529 C 0.68710 0.76989 -0.16519
 C530 C 0.69402 0.74540 -0.17700
 C531 C 0.63798 0.74646 -0.11374
 C532 C 0.62213 0.76762 -0.10855
 C533 C 0.60160 0.76710 -0.08793
 C534 C 0.59156 0.79168 -0.07877
 C535 C 0.57173 0.79223 -0.05990
 C536 C 0.56137 0.76816 -0.04985
 C537 C 0.57128 0.74355 -0.05912
 C538 C 0.59105 0.74299 -0.07801
 H539 H 0.68763 0.70239 -0.17610
 H540 H 0.65655 0.70357 -0.13967
 H541 H 0.66465 0.78976 -0.13565
 H542 H 0.69579 0.78853 -0.17179
 H543 H 0.63623 0.72771 -0.10255
 H544 H 0.62396 0.78628 -0.11992
 H545 H 0.59911 0.81056 -0.08623
 H546 H 0.56447 0.81154 -0.05324
 H547 H 0.56354 0.72463 -0.05199
 H548 H 0.59742 0.72360 -0.08512
 C549 C 0.31922 0.21232 -0.18642
 C550 C 0.33908 0.21119 -0.16588
 C551 C 0.35059 0.23482 -0.15642
 C552 C 0.34201 0.25973 -0.16824
 C553 C 0.32216 0.26085 -0.18881
 C554 C 0.31058 0.23716 -0.19818
 C555 C 0.37213 0.23250 -0.13511
 C556 C 0.37855 0.25254 -0.11853
 C557 C 0.40052 0.25071 -0.09762
 C558 C 0.41078 0.27471 -0.08762
 C559 C 0.43149 0.27418 -0.06799
 C560 C 0.44235 0.24956 -0.05773
 C561 C 0.43187 0.22547 -0.06742
 C562 C 0.41112 0.22600 -0.08707
 H563 H 0.31050 0.19373 -0.19299
 H564 H 0.34540 0.19175 -0.15725
 H565 H 0.35100 0.27835 -0.16227
 H566 H 0.31633 0.28023 -0.19787
 H567 H 0.38279 0.21341 -0.13316
 H568 H 0.36765 0.27153 -0.12049
 H569 H 0.40288 0.29401 -0.09519
 H570 H 0.43901 0.29312 -0.06090
 H571 H 0.43963 0.20617 -0.05972
 H572 H 0.40330 0.20700 -0.09349
 C573 C 0.31628 0.72410 0.16210
 C574 C 0.33548 0.72521 0.14261
 C575 C 0.34722 0.74959 0.13573
 C576 C 0.33870 0.77315 0.14827
 C577 C 0.31960 0.77210 0.16785
 C578 C 0.30811 0.74750 0.17545
 C579 C 0.36787 0.74949 0.11523
 C580 C 0.38542 0.76917 0.11215
 C581 C 0.40642 0.76847 0.09210
 C582 C 0.41696 0.74417 0.08261
 C583 C 0.43718 0.74441 0.06419
 C584 C 0.44742 0.76886 0.05491
 C585 C 0.43704 0.79310 0.06457
 C586 C 0.41688 0.79286 0.08308
 H587 H 0.30895 0.70448 0.16743
 H588 H 0.34158 0.70673 0.13322
 H589 H 0.34623 0.79262 0.14277
 H590 H 0.31322 0.79099 0.17611
 H591 H 0.36878 0.73210 0.10254
 H592 H 0.38457 0.78675 0.12454
 H593 H 0.41014 0.72491 0.08976
 H594 H 0.44488 0.72536 0.05733
 H595 H 0.44457 0.81228 0.05793
 H596 H 0.40931 0.81184 0.09028
 C597 C 0.70985 0.24109 0.15448
 C598 C 0.69040 0.23935 0.13367
 C599 C 0.66340 0.23928 0.13944
 C600 C 0.65619 0.24017 0.16650
 C601 C 0.67565 0.24148 0.18731
 C602 C 0.70263 0.24213 0.18149
 C603 C 0.64321 0.23770 0.11702
 C604 C 0.61946 0.25023 0.11760
 C605 C 0.59927 0.24950 0.09513
 C606 C 0.58215 0.27186 0.09037
 C607 C 0.56246 0.27173 0.06972
 C608 C 0.55905 0.24892 0.05380
 C609 C 0.57597 0.22635 0.05877
 C610 C 0.59603 0.22668 0.07915
 H611 H 0.73056 0.24127 0.14953
 H612 H 0.69641 0.23843 0.11299
 H613 H 0.63557 0.23947 0.17165
 H614 H 0.66960 0.24227 0.20799
 H615 H 0.64871 0.22741 0.09899
 H616 H 0.61514 0.26287 0.13446
 H617 H 0.58414 0.28957 0.10257
 H618 H 0.54958 0.28934 0.06652
 H619 H 0.57374 0.20847 0.04687
 H620 H 0.60853 0.20888 0.08277
 C621 C -0.18762 0.67067 0.72649
 C622 C -0.16819 0.65034 0.72512
 C623 C -0.15679 0.63804 0.74865
 C624 C -0.16589 0.64594 0.77373
 C625 C -0.18543 0.66618 0.77519
 C626 C -0.19660 0.67923 0.75159
 C627 C -0.13604 0.61674 0.74605
 C628 C -0.11758 0.61030 0.76557
 C629 C -0.09646 0.58934 0.76299
 C630 C -0.08377 0.57842 0.78662
 C631 C -0.06352 0.55890 0.78529
 C632 C -0.05533 0.54998 0.76021
 C633 C -0.06780 0.56110 0.73650
 C634 C -0.08807 0.58062 0.73783
 H635 H -0.19617 0.67880 0.70758
 H636 H -0.16193 0.64427 0.70548
 H637 H -0.15819 0.63644 0.79237
 H638 H -0.19079 0.67216 0.79510
 H639 H -0.13586 0.60656 0.72702
 H640 H -0.11779 0.62063 0.78453
 H641 H -0.08964 0.58491 0.80625
 H642 H -0.05427 0.55084 0.80395
 H643 H -0.06179 0.55484 0.71686
 H644 H -0.09660 0.58910 0.71908
 C645 C -0.17045 0.31744 0.21805
 C646 C -0.15116 0.33720 0.21725
 C647 C -0.13994 0.34747 0.24110
 C648 C -0.14803 0.33704 0.26594
 C649 C -0.16725 0.31724 0.26683
 C650 C -0.17901 0.30698 0.24290
 C651 C -0.11937 0.36829 0.23915
 C652 C -0.11346 0.38545 0.25894
 C653 C -0.09269 0.40610 0.25734
 C654 C -0.08221 0.41658 0.28148
 C655 C -0.06273 0.43614 0.28111
 C656 C -0.05339 0.44587 0.25652
 C657 C -0.06410 0.43567 0.23230
 C658 C -0.08358 0.41607 0.23266
 H659 H -0.17767 0.30975 0.19896
 H660 H -0.14495 0.34451 0.19780
 H661 H -0.13941 0.34379 0.28487
 H662 H -0.17340 0.31088 0.28656
 H663 H -0.10905 0.36944 0.22050
 H664 H -0.12393 0.38432 0.27751
 H665 H -0.08900 0.40946 0.30076
 H666 H -0.05499 0.44363 0.30014
 H667 H -0.05751 0.44293 0.21299
 H668 H -0.09169 0.40926 0.21354
 C669 C 0.18073 0.31456 0.71025
 C670 C 0.16060 0.33439 0.70971
 C671 C 0.14878 0.34199 0.73358
 C672 C 0.15710 0.32880 0.75802
 C673 C 0.17718 0.30895 0.75856
 C674 C 0.18932 0.30167 0.73471
 C675 C 0.12735 0.36298 0.73206
 C676 C 0.12152 0.37846 0.75295
 C677 C 0.09991 0.39930 0.75230
 C678 C 0.09166 0.40911 0.77698
 C679 C 0.07152 0.42876 0.77771
 C680 C 0.05914 0.43926 0.75370
 C681 C 0.06750 0.42971 0.72892
 C682 C 0.08770 0.41001 0.72817
 H683 H 0.18982 0.30956 0.69156
 H684 H 0.15444 0.34406 0.69059
 H685 H 0.14779 0.33325 0.77671
 H686 H 0.18289 0.29893 0.77761
 H687 H 0.11651 0.36576 0.71290
 H688 H 0.13293 0.37570 0.77182
 H689 H 0.10076 0.40140 0.79587
 H690 H 0.06563 0.43571 0.79717
 H691 H 0.05850 0.43755 0.71004
 H692 H 0.09382 0.40369 0.70864
 C693 C 0.18548 0.67034 0.21326
 C694 C 0.16624 0.65050 0.21337
 C695 C 0.15512 0.64207 0.23748
 C696 C 0.16418 0.65353 0.26173
 C697 C 0.18334 0.67344 0.26169
 C698 C 0.19437 0.68245 0.23743
 C699 C 0.13475 0.62090 0.23645
 C700 C 0.11744 0.61671 0.25587
 C701 C 0.09709 0.59556 0.25489
 C702 C 0.08675 0.58649 0.27922
 C703 C 0.06730 0.56688 0.27936
 C704 C 0.05751 0.55606 0.25507
 C705 C 0.06762 0.56533 0.23064
 C706 C 0.08715 0.58490 0.23051
 H707 H 0.19234 0.67683 0.19385
 H708 H 0.15969 0.64199 0.19437
 H709 H 0.15711 0.64683 0.28098
 H710 H 0.19021 0.68075 0.28108
 H711 H 0.13400 0.60862 0.21872
 H712 H 0.11814 0.62894 0.27363
 H713 H 0.09386 0.59451 0.29826
 H714 H 0.05987 0.56029 0.29853
 H715 H 0.06034 0.55757 0.21155
 H716 H 0.09391 0.59193 0.21124
 C717 C 0.73668 -0.20286 0.66630
 C718 C 0.73455 -0.18279 0.64605
 C719 C 0.73508 -0.15552 0.65269
 C720 C 0.73697 -0.14860 0.68004
 C721 C 0.73868 -0.16866 0.70030
 C722 C 0.73875 -0.19596 0.69360
 C723 C 0.73303 -0.13476 0.63079
 C724 C 0.74546 -0.11126 0.63245
 C725 C 0.74423 -0.09081 0.61027
 C726 C 0.76625 -0.07460 0.60649
 C727 C 0.76573 -0.05502 0.58579
 C728 C 0.74291 -0.05085 0.56883
 C729 C 0.72066 -0.06674 0.57293
 C730 C 0.72134 -0.08664 0.59337
 H731 H 0.73640 -0.22379 0.66067
 H732 H 0.73285 -0.18857 0.62513
 H733 H 0.73676 -0.12772 0.68583
 H734 H 0.74026 -0.16286 0.72122
 H735 H 0.72242 -0.13975 0.61219
 H736 H 0.75838 -0.10752 0.64991
 H737 H 0.78401 -0.07730 0.61943
 H738 H 0.78311 -0.04293 0.58325
 H739 H 0.70277 -0.06390 0.56023
 H740 H 0.70380 -0.09837 0.59622
 C741 C 0.27822 -0.18886 0.31109
 C742 C 0.27887 -0.16932 0.33091
 C743 C 0.25527 -0.15800 0.34007
 C744 C 0.23086 -0.16640 0.32865
 C745 C 0.23022 -0.18594 0.30880
 C746 C 0.25388 -0.19736 0.29976
 C747 C 0.25705 -0.13681 0.36063
 C748 C 0.23736 -0.13071 0.37698
 C749 C 0.23876 -0.10911 0.39715
 C750 C 0.21492 -0.09864 0.40663
 C751 C 0.21509 -0.07825 0.42556
 C752 C 0.23918 -0.06795 0.43563
 C753 C 0.26310 -0.07868 0.42649
 C754 C 0.26294 -0.09910 0.40754
 H755 H 0.29679 -0.19747 0.30476
 H756 H 0.29793 -0.16312 0.33923
 H757 H 0.21223 -0.15752 0.33436
 H758 H 0.21119 -0.19165 0.30004
 H759 H 0.27547 -0.12611 0.36221
 H760 H 0.21903 -0.14158 0.37538
 H761 H 0.19603 -0.10610 0.39917
 H762 H 0.19630 -0.07052 0.43225
 H763 H 0.28201 -0.07137 0.43407
 H764 H 0.28181 -0.10716 0.40154
 C765 C 0.78357 0.18184 0.32646
 C766 C 0.78324 0.16366 0.34835
 C767 C 0.75915 0.15609 0.35915
 C768 C 0.73532 0.16770 0.34801
 C769 C 0.73566 0.18596 0.32615
 C770 C 0.75978 0.19313 0.31502
 C771 C 0.75991 0.13655 0.38226
 C772 C 0.73955 0.12083 0.38828
 C773 C 0.74062 0.10057 0.41082
 C774 C 0.71668 0.09119 0.42056
 C775 C 0.71670 0.07171 0.44138
 C776 C 0.74074 0.06104 0.45283
 C777 C 0.76472 0.07023 0.44296
 C778 C 0.76470 0.08965 0.42213
 H779 H 0.80246 0.18672 0.31820
 H780 H 0.80188 0.15515 0.35663
 H781 H 0.71641 0.16319 0.35634
 H782 H 0.71704 0.19477 0.31818
 H783 H 0.77835 0.13480 0.39417
 H784 H 0.72115 0.12266 0.37630
 H785 H 0.69785 0.09903 0.41207
 H786 H 0.69787 0.06499 0.44845
 H787 H 0.78359 0.06221 0.45114
 H788 H 0.78363 0.09547 0.41469
 C789 C 0.27708 0.17288 0.66438
 C790 C 0.27778 0.15297 0.64498
 C791 C 0.25432 0.14106 0.63544
 C792 C 0.23005 0.14935 0.64599
 C793 C 0.22936 0.16927 0.66542
 C794 C 0.25287 0.18120 0.67489
 C795 C 0.25623 0.11942 0.61545
 C796 C 0.23597 0.11248 0.59881
 C797 C 0.23760 0.09044 0.57920
 C798 C 0.21390 0.07918 0.56942
 C799 C 0.21430 0.05842 0.55092
 C800 C 0.23848 0.04852 0.54160
 C801 C 0.26223 0.05997 0.55109
 C802 C 0.26183 0.08077 0.56961
 H803 H 0.29551 0.18188 0.67108
 H804 H 0.29674 0.14689 0.63732
 H805 H 0.21161 0.14007 0.63996
 H806 H 0.21048 0.17486 0.67356
 H807 H 0.27524 0.10907 0.61457
 H808 H 0.21702 0.12297 0.59970
 H809 H 0.19496 0.08636 0.57628
 H810 H 0.19563 0.05013 0.54393
 H811 H 0.28117 0.05299 0.54408
 H812 H 0.28052 0.08942 0.57585
   
