data_POSCAR
  _audit_creation_date              2014-09-24
  _audit_creation_method            'ToBaCCo'
  _symmetry_space_group_name_H-M    'P1'
  _symmetry_Int_Tables_number       1
  _symmetry_cell_setting            triclinic
  loop_
  _symmetry_equiv_pos_as_xyz
 x,y,z
_cell_length_a 44.0141
_cell_length_b 45.5901
_cell_length_c 8.4826
_cell_angle_alpha 89.899800
_cell_angle_beta 90.188200
_cell_angle_gamma 90.103200
loop_
  _atom_site_label
  _atom_site_type_symbol
  _atom_site_fract_x
  _atom_site_fract_y
  _atom_site_fract_z
C1 C 0.16957 0.25070 0.18884
 C2 C 0.18430 0.22479 0.23238
 C3 C 0.21573 0.22487 0.25925
 C4 C 0.23300 0.25069 0.23720
 C5 C 0.21774 0.27649 0.18975
 C6 C 0.18618 0.27655 0.16861
 C7 C 0.26669 0.25067 0.26215
 C8 C 0.28205 0.27640 0.31004
 C9 C 0.31361 0.27642 0.33111
 C10 C 0.33012 0.25059 0.31058
 C11 C 0.31528 0.22476 0.26623
 C12 C 0.28386 0.22488 0.23914
 H13 H 0.14517 0.25076 0.16940
 H14 H 0.22649 0.20474 0.29754
 H15 H 0.23020 0.29654 0.16713
 H16 H 0.26967 0.29643 0.33301
 H17 H 0.35450 0.25061 0.33040
 H18 H 0.27305 0.20486 0.19931
 C19 C 0.82993 0.25070 0.19011
 C20 C 0.81360 0.27668 0.17014
 C21 C 0.78204 0.27685 0.19116
 C22 C 0.76656 0.25111 0.23804
 C23 C 0.78364 0.22525 0.26134
 C24 C 0.81498 0.22496 0.23434
 C25 C 0.73285 0.25108 0.26137
 C26 C 0.71572 0.22520 0.23828
 C27 C 0.68436 0.22485 0.26537
 C28 C 0.66947 0.25059 0.30946
 C29 C 0.68588 0.27658 0.32927
 C30 C 0.71743 0.27678 0.30814
 H31 H 0.85428 0.25049 0.17066
 H32 H 0.76978 0.29701 0.16925
 H33 H 0.77285 0.20522 0.30097
 H34 H 0.72655 0.20523 0.19880
 H35 H 0.64511 0.25042 0.32900
 H36 H 0.72974 0.29694 0.32978
 C37 C 0.67022 0.75157 0.68970
 C38 C 0.68514 0.72587 0.73443
 C39 C 0.71650 0.72619 0.76199
 C40 C 0.73363 0.75206 0.73877
 C41 C 0.71818 0.77778 0.69141
 C42 C 0.68661 0.77757 0.66969
 C43 C 0.76735 0.75204 0.76240
 C44 C 0.78291 0.77773 0.80935
 C45 C 0.81453 0.77751 0.83062
 C46 C 0.83079 0.75149 0.81045
 C47 C 0.81572 0.72581 0.76614
 C48 C 0.78436 0.72618 0.73912
 H49 H 0.64586 0.75132 0.66982
 H50 H 0.72727 0.70617 0.80187
 H51 H 0.73049 0.79793 0.66938
 H52 H 0.77063 0.79786 0.83101
 H53 H 0.85518 0.75114 0.82960
 H54 H 0.77348 0.70620 0.69931
 C55 C 0.32994 0.75145 0.69064
 C56 C 0.31341 0.77730 0.67014
 C57 C 0.28184 0.77721 0.69051
 C58 C 0.26653 0.75138 0.73747
 C59 C 0.28377 0.72561 0.76039
 C60 C 0.31515 0.72557 0.73418
 C61 C 0.23285 0.75127 0.76180
 C62 C 0.21566 0.72542 0.73896
 C63 C 0.18425 0.72519 0.76550
 C64 C 0.16946 0.75099 0.80946
 C65 C 0.18599 0.77688 0.83015
 C66 C 0.21753 0.77697 0.80928
 H67 H 0.35431 0.75144 0.67199
 H68 H 0.26944 0.79728 0.66826
 H69 H 0.27308 0.70549 0.79950
 H70 H 0.22645 0.70541 0.69976
 H71 H 0.14507 0.75094 0.82825
 H72 H 0.22991 0.79706 0.83177
 O73 O 0.97063 -0.02415 -0.03862
 O74 O 1.02916 0.03192 0.03548
 O75 O 1.02972 -0.02353 -0.03902
 O76 O 0.97031 0.03128 0.03636
 O77 O 0.97057 0.02004 0.29008
 O78 O 1.03010 -0.03491 0.21448
 O79 O 1.02958 0.02067 0.28917
 O80 O 0.97092 -0.03553 0.21487
 Cu81 Cu 0.99992 0.00507 -0.02656
 Cu82 Cu 1.00033 -0.00871 0.27731
 C83 C 0.96097 -0.03941 0.07597
 C84 C 1.03905 0.03599 0.17427
 C85 C 1.03985 -0.03860 0.07542
 C86 C 0.96060 0.03515 0.17532
 O87 O 0.47016 0.47640 0.46173
 O88 O 0.52966 0.53147 0.53628
 O89 O 0.52924 0.47603 0.46125
 O90 O 0.47082 0.53184 0.53634
 O91 O 0.47086 0.52061 0.79005
 O92 O 0.52943 0.46465 0.71476
 O93 O 0.52988 0.52023 0.78998
 O94 O 0.47026 0.46501 0.71522
 Cu95 Cu 0.49996 0.50512 0.47377
 Cu96 Cu 0.50012 0.49135 0.77762
 C97 C 0.46026 0.46128 0.57631
 C98 C 0.53961 0.53539 0.67508
 C99 C 0.53911 0.46080 0.57567
 C100 C 0.46117 0.53588 0.67527
 O101 O 0.02961 0.52094 -0.28969
 O102 O -0.02910 0.46489 -0.21378
 O103 O -0.02941 0.52045 -0.29013
 O104 O 0.03008 0.46528 -0.21506
 O105 O 0.03023 0.47658 0.03832
 O106 O -0.02914 0.53162 -0.03656
 O107 O -0.02887 0.47619 0.03957
 O108 O 0.02970 0.53209 -0.03610
 Cu109 Cu 0.00028 0.49162 -0.27722
 Cu110 Cu 0.00050 0.50529 0.02643
 C111 C 0.03934 0.53620 -0.17508
 C112 C -0.03881 0.46100 -0.07467
 C113 C -0.03910 0.53556 -0.17537
 C114 C 0.04009 0.46152 -0.07617
 O115 O 0.47078 1.03268 0.46350
 O116 O 0.52931 0.97682 0.53883
 O117 O 0.52965 1.03222 0.46238
 O118 O 0.47023 0.97719 0.53818
 O119 O 0.46988 0.96583 0.28487
 O120 O 0.52945 1.02100 0.20889
 O121 O 0.52905 0.96545 0.28554
 O122 O 0.47039 1.02147 0.20998
 Cu123 Cu 0.50002 1.00591 0.52574
 Cu124 Cu 0.49966 0.99217 0.22216
 C125 C 0.46088 1.03672 0.32465
 C126 C 0.53899 0.96159 0.42457
 C127 C 0.53941 1.03612 0.32346
 C128 C 0.46011 0.96209 0.42396
 C129 C 1.11422 0.11851 0.08744
 C130 C 1.10446 0.14904 0.14797
 C131 C 1.13403 0.15088 0.24417
 C132 C 1.14410 0.12068 0.18370
 C133 C 1.09866 0.10438 0.23063
 C134 C 1.12822 0.10612 0.32697
 C135 C 1.08863 0.13459 0.29103
 C136 C 1.11850 0.13680 0.38757
 C137 C 1.15307 0.17726 0.24630
 C138 C 1.16805 0.19940 0.24250
 C139 C 1.07825 0.07908 0.21756
 C140 C 1.06074 0.05897 0.20090
 H141 H 1.11226 0.11073 -0.03612
 H142 H 1.09485 0.16697 0.07456
 H143 H 1.16713 0.11525 0.13973
 H144 H 1.13778 0.08813 0.40007
 H145 H 1.06558 0.14005 0.33467
 H146 H 1.12047 0.14463 0.51102
 C147 C 0.61516 0.61765 0.58824
 C148 C 0.60519 0.64810 0.64891
 C149 C 0.63470 0.65008 0.74551
 C150 C 0.64499 0.61997 0.68486
 C151 C 0.59963 0.60339 0.73116
 C152 C 0.62914 0.60527 0.82784
 C153 C 0.58939 0.63352 0.79168
 C154 C 0.61920 0.63586 0.88858
 C155 C 0.65348 0.67663 0.74841
 C156 C 0.66823 0.69890 0.74522
 C157 C 0.57923 0.57810 0.71816
 C158 C 0.56158 0.55811 0.70168
 H159 H 0.61331 0.60988 0.46461
 H160 H 0.59552 0.66596 0.57522
 H161 H 0.66806 0.61470 0.64084
 H162 H 0.63877 0.58733 0.90107
 H163 H 0.56630 0.63884 0.83531
 H164 H 0.62108 0.64367 1.01210
 C165 C -0.09003 0.36594 0.08656
 C166 C -0.11854 0.36700 0.19262
 C167 C -0.13638 0.35022 0.06543
 C168 C -0.10812 0.34882 -0.04015
 C169 C -0.10001 0.39484 0.00893
 C170 C -0.11783 0.37807 -0.11842
 C171 C -0.12826 0.39629 0.11456
 C172 C -0.14644 0.37909 -0.01227
 C173 C -0.15562 0.32474 0.09934
 C174 C -0.17031 0.30316 0.13005
 C175 C -0.07896 0.41911 -0.02138
 C176 C -0.06095 0.43853 -0.04574
 H177 H -0.06662 0.36077 0.12691
 H178 H -0.11904 0.36218 0.32090
 H179 H -0.10004 0.32904 -0.10351
 H180 H -0.11730 0.38289 -0.24671
 H181 H -0.13630 0.41609 0.17783
 H182 H -0.16987 0.38419 -0.05260
 C183 C 0.40906 0.86709 0.58241
 C184 C 0.38102 0.86780 0.69181
 C185 C 0.36268 0.85132 0.56534
 C186 C 0.39047 0.85029 0.45641
 C187 C 0.39870 0.89618 0.50828
 C188 C 0.38037 0.87973 0.38164
 C189 C 0.37091 0.89728 0.61723
 C190 C 0.35222 0.88039 0.49114
 C191 C 0.34371 0.82566 0.59950
 C192 C 0.32927 0.80392 0.63022
 C193 C 0.41969 0.92048 0.47774
 C194 C 0.43777 0.93982 0.45309
 H195 H 0.43265 0.86187 0.61969
 H196 H 0.38107 0.86266 0.81982
 H197 H 0.39833 0.83069 0.39076
 H198 H 0.38036 0.88494 0.25377
 H199 H 0.36311 0.91688 0.68301
 H200 H 0.32861 0.88556 0.45416
 C201 C -0.11357 0.61826 -0.08788
 C202 C -0.10392 0.64846 -0.15441
 C203 C -0.13408 0.65007 -0.24570
 C204 C -0.14403 0.62020 -0.17919
 C205 C -0.09907 0.60343 -0.23168
 C206 C -0.12923 0.60493 -0.32305
 C207 C -0.08917 0.63332 -0.29806
 C208 C -0.11962 0.63528 -0.38964
 C209 C -0.15280 0.67659 -0.24845
 C210 C -0.16749 0.69885 -0.24502
 C211 C -0.07869 0.57818 -0.21868
 C212 C -0.06105 0.55823 -0.20211
 H213 H -0.11089 0.61100 0.03641
 H214 H -0.09370 0.66660 -0.08492
 H215 H -0.16680 0.61511 -0.13020
 H216 H -0.13940 0.58673 -0.39232
 H217 H -0.06640 0.63845 -0.34690
 H218 H -0.12234 0.64260 -0.51373
 C219 C 0.41103 1.13511 0.20882
 C220 C 0.38134 1.13727 0.11082
 C221 C 0.36547 1.15099 0.25384
 C222 C 0.39487 1.14919 0.35151
 C223 C 0.40101 1.10472 0.26778
 C224 C 0.38512 1.11849 0.41057
 C225 C 0.37162 1.10642 0.17000
 C226 C 0.35542 1.12062 0.31290
 C227 C 0.34640 1.17728 0.25167
 C228 C 0.33145 1.19938 0.25566
 C229 C 0.42153 1.07956 0.28103
 C230 C 0.43912 1.05958 0.29775
 H231 H 0.43414 1.14082 0.16654
 H232 H 0.37956 1.14530 -0.01246
 H233 H 0.40425 1.16704 0.42622
 H234 H 0.38689 1.11048 0.53387
 H235 H 0.36228 1.08848 0.09593
 H236 H 0.33233 1.11495 0.35566
 C237 C 1.11768 -0.12221 0.11956
 C238 C 1.10790 -0.15080 0.03490
 C239 C 1.13690 -0.14925 -0.06514
 C240 C 1.14703 -0.12104 0.01898
 C241 C 1.10111 -0.10438 -0.00821
 C242 C 1.13010 -0.10276 -0.10828
 C243 C 1.09108 -0.13262 -0.09226
 C244 C 1.12032 -0.13139 -0.19280
 C245 C 1.15576 -0.17488 -0.09918
 C246 C 1.17014 -0.19659 -0.12984
 C247 C 1.08021 -0.08010 0.02227
 C248 C 1.06217 -0.06080 0.04666
 H249 H 1.11636 -0.11815 0.24835
 H250 H 1.09897 -0.17081 0.09359
 H251 H 1.17026 -0.11659 0.06449
 H252 H 1.13899 -0.08272 -0.16678
 H253 H 1.06787 -0.13713 -0.13787
 H254 H 1.12160 -0.13540 -0.32172
 C255 C 0.62839 0.39623 0.38797
 C256 C 0.64626 0.37865 0.51459
 C257 C 0.63613 0.35001 0.43485
 C258 C 0.61860 0.36718 0.30786
 C259 C 0.59997 0.39459 0.49230
 C260 C 0.58991 0.36592 0.41260
 C261 C 0.61747 0.37745 0.61945
 C262 C 0.60769 0.34842 0.53912
 C263 C 0.65526 0.32457 0.40046
 C264 C 0.66987 0.30302 0.36949
 C265 C 0.57905 0.41887 0.52279
 C266 C 0.56114 0.43830 0.54696
 H267 H 0.63665 0.41616 0.32610
 H268 H 0.66964 0.38360 0.55623
 H269 H 0.61928 0.36268 0.17936
 H270 H 0.56654 0.36092 0.37088
 H271 H 0.61676 0.38193 0.74799
 H272 H 0.59937 0.32851 0.60105
 C273 C 0.90973 -0.13422 -0.08862
 C274 C 0.89246 -0.15206 0.03810
 C275 C 0.86364 -0.15043 -0.06425
 C276 C 0.88065 -0.13293 -0.19142
 C277 C 0.89991 -0.10576 -0.00679
 C278 C 0.87110 -0.10409 -0.10913
 C279 C 0.88292 -0.12324 0.12060
 C280 C 0.85374 -0.12200 0.01770
 C281 C 0.84445 -0.17590 -0.09920
 C282 C 0.82981 -0.19748 -0.13082
 C283 C 0.92091 -0.08143 0.02352
 C284 C 0.93887 -0.06197 0.04761
 H285 H 0.93294 -0.13902 -0.13219
 H286 H 0.90103 -0.17203 0.09847
 H287 H 0.87952 -0.13719 -0.32013
 H288 H 0.86256 -0.08409 -0.16940
 H289 H 0.88410 -0.11898 0.24931
 H290 H 0.83051 -0.11728 0.06122
 C291 C 0.40708 0.36312 0.52783
 C292 C 0.37527 0.35853 0.60141
 C293 C 0.36286 0.35034 0.43769
 C294 C 0.39441 0.35459 0.36384
 C295 C 0.39887 0.39526 0.49374
 C296 C 0.38646 0.38706 0.33019
 C297 C 0.36734 0.39109 0.56780
 C298 C 0.35459 0.38246 0.40347
 C299 C 0.34392 0.32469 0.40326
 C300 C 0.32949 0.30297 0.37198
 C301 C 0.41984 0.41961 0.52368
 C302 C 0.43791 0.43898 0.54787
 H303 H 0.42888 0.35542 0.57936
 H304 H 0.37047 0.34664 0.71303
 H305 H 0.40526 0.33944 0.27851
 H306 H 0.39128 0.39904 0.21895
 H307 H 0.35644 0.40643 0.65180
 H308 H 0.33280 0.39009 0.35152
 C309 C 0.08870 0.63480 -0.29361
 C310 C 0.10470 0.64930 -0.15089
 C311 C 0.13415 0.65116 -0.24713
 C312 C 0.11845 0.63703 -0.39018
 C313 C 0.09885 0.60461 -0.23249
 C314 C 0.12829 0.60638 -0.32886
 C315 C 0.11457 0.61879 -0.08964
 C316 C 0.14432 0.62098 -0.18592
 C317 C 0.15314 0.67758 -0.24949
 C318 C 0.16808 0.69975 -0.24541
 C319 C 0.07849 0.57929 -0.21903
 C320 C 0.06100 0.55917 -0.20219
 H321 H 0.06561 0.64024 -0.33771
 H322 H 0.09516 0.66720 -0.07769
 H323 H 0.12026 0.64483 -0.51385
 H324 H 0.13776 0.58842 -0.40183
 H325 H 0.11277 0.61104 0.03414
 H326 H 0.16741 0.61558 -0.14168
 C327 C 0.58941 1.13411 0.20652
 C328 C 0.60543 1.14845 0.34958
 C329 C 0.63482 1.15051 0.25296
 C330 C 0.61909 1.13653 0.10959
 C331 C 0.59966 1.10387 0.26631
 C332 C 0.62905 1.10582 0.16955
 C333 C 0.61543 1.11789 0.40950
 C334 C 0.64512 1.12028 0.31284
 C335 C 0.65361 1.17704 0.25082
 C336 C 0.66834 1.19933 0.25477
 C337 C 0.57917 1.07865 0.27945
 C338 C 0.56144 1.05874 0.29637
 H339 H 0.56628 1.13953 0.16290
 H340 H 0.59589 1.16624 0.42354
 H341 H 0.62082 1.14452 -0.01373
 H342 H 0.63853 1.08799 0.09576
 H343 H 0.61373 1.10996 0.53299
 H344 H 0.66825 1.11491 0.35659
 C345 C 0.09212 0.36825 0.10178
 C346 C 0.10683 0.34872 -0.02575
 C347 C 0.13720 0.35062 0.06351
 C348 C 0.12274 0.36983 0.19157
 C349 C 0.10136 0.39555 0.00688
 C350 C 0.13172 0.39753 0.09615
 C351 C 0.11580 0.37636 -0.12126
 C352 C 0.14652 0.37789 -0.03149
 C353 C 0.15605 0.32492 0.09737
 C354 C 0.17041 0.30316 0.12815
 C355 C 0.08044 0.41989 -0.02334
 C356 C 0.06241 0.43924 -0.04762
 H357 H 0.06952 0.36452 0.15595
 H358 H 0.09678 0.32839 -0.07557
 H359 H 0.12580 0.36690 0.32063
 H360 H 0.14172 0.41791 0.14556
 H361 H 0.11271 0.37933 -0.25025
 H362 H 0.16912 0.38156 -0.08586
 C363 C 0.61706 0.87821 0.37968
 C364 C 0.64633 0.87952 0.48181
 C365 C 0.63657 0.85096 0.56382
 C366 C 0.60766 0.84927 0.46225
 C367 C 0.60015 0.89548 0.50760
 C368 C 0.59048 0.86689 0.58953
 C369 C 0.62906 0.89722 0.60920
 C370 C 0.61965 0.86825 0.69157
 C371 C 0.65584 0.82555 0.59794
 C372 C 0.67054 0.80401 0.62904
 C373 C 0.57909 0.91973 0.47753
 C374 C 0.56110 0.93913 0.45337
 H375 H 0.61575 0.88257 0.25103
 H376 H 0.66952 0.88441 0.43772
 H377 H 0.59906 0.82929 0.40202
 H378 H 0.56731 0.86193 0.63359
 H379 H 0.63761 0.91721 0.66936
 H380 H 0.62092 0.86390 0.82024
 C381 C 0.87094 0.10442 0.32735
 C382 C 0.88078 0.13498 0.38992
 C383 C 0.86539 0.14933 0.24652
 C384 C 0.85520 0.11925 0.18405
 C385 C 0.90054 0.10283 0.23231
 C386 C 0.88512 0.11722 0.08909
 C387 C 0.91068 0.13292 0.29469
 C388 C 0.89500 0.14763 0.15161
 C389 C 0.84660 0.17580 0.24916
 C390 C 0.83185 0.19803 0.24563
 C391 C 0.92098 0.07765 0.21899
 C392 C 0.93864 0.05775 0.20223
 H393 H 0.86128 0.08635 0.39940
 H394 H 0.87878 0.14260 0.51366
 H395 H 0.83218 0.11393 0.13853
 H396 H 0.88710 0.10965 -0.03478
 H397 H 0.93371 0.13828 0.34009
 H398 H 0.90472 0.16566 0.07938
 C399 C 0.37206 0.60551 0.82761
 C400 C 0.38180 0.63609 0.89035
 C401 C 0.36630 0.65041 0.74715
 C402 C 0.35623 0.62031 0.68453
 C403 C 0.40164 0.60403 0.73232
 C404 C 0.38612 0.61841 0.58934
 C405 C 0.41169 0.63415 0.79487
 C406 C 0.39590 0.64884 0.65200
 C407 C 0.34727 0.67672 0.74971
 C408 C 0.33228 0.69880 0.74590
 C409 C 0.42202 0.57881 0.71880
 C410 C 0.43952 0.55877 0.70208
 H411 H 0.36250 0.58739 0.89972
 H412 H 0.37980 0.64365 1.01421
 H413 H 0.33321 0.61491 0.63909
 H414 H 0.38811 0.61088 0.46543
 H415 H 0.43472 0.63958 0.84007
 H416 H 0.40553 0.66691 0.57973
   
