data_POSCAR
  _audit_creation_date              2014-09-24
  _audit_creation_method            'ToBaCCo'
  _symmetry_space_group_name_H-M    'P1'
  _symmetry_Int_Tables_number       1
  _symmetry_cell_setting            triclinic
  loop_
  _symmetry_equiv_pos_as_xyz
 x,y,z
_cell_length_a 56.9612
_cell_length_b 58.2960
_cell_length_c 57.6619
_cell_angle_alpha 89.566100
_cell_angle_beta 90.049200
_cell_angle_gamma 90.151300
loop_
  _atom_site_label
  _atom_site_type_symbol
  _atom_site_fract_x
  _atom_site_fract_y
  _atom_site_fract_z
N1 N 0.25917 0.21313 0.19643
 N2 N 0.24979 0.23161 0.18715
 C3 C 0.26234 0.23784 0.16834
 C4 C 0.28065 0.22246 0.16564
 C5 C 0.27799 0.20698 0.18386
 H6 H 0.25852 0.25260 0.15757
 H7 H 0.28911 0.19255 0.18803
 Cu8 Cu 0.22255 0.24601 0.20110
 Cu9 Cu 0.24675 0.19882 0.22452
 Cu10 Cu 0.19796 0.22435 0.24939
 N11 N 0.19517 0.26020 0.21502
 N12 N 0.18562 0.25165 0.23394
 C13 C 0.16742 0.26490 0.24020
 C14 C 0.16539 0.28282 0.22435
 C15 C 0.18337 0.27920 0.20861
 H16 H 0.15664 0.26178 0.25532
 H17 H 0.18785 0.28983 0.19383
 N18 N 0.21305 0.19666 0.26236
 N19 N 0.23159 0.18696 0.25291
 C20 C 0.23796 0.16877 0.26598
 C21 C 0.22274 0.16685 0.28463
 C22 C 0.20717 0.18489 0.28169
 H23 H 0.25274 0.15785 0.26224
 H24 H 0.19281 0.18939 0.29297
 H25 H 0.21262 0.20987 0.22020
 H26 H 0.23224 0.22819 0.23824
 N27 N 0.73691 -0.21985 0.20316
 N28 N 0.74484 -0.23970 0.19603
 C29 C 0.73203 -0.24659 0.17772
 C30 C 0.71491 -0.23020 0.17310
 C31 C 0.71870 -0.21346 0.18976
 H32 H 0.73495 -0.26249 0.16868
 H33 H 0.70906 -0.19771 0.19209
 Cu34 Cu 0.77074 -0.25512 0.21158
 Cu35 Cu 0.75079 -0.20381 0.22928
 Cu36 Cu 0.80165 -0.22696 0.25235
 N37 N 0.80094 -0.26618 0.22261
 N38 N 0.81320 -0.25495 0.23814
 C39 C 0.83301 -0.26663 0.24282
 C40 C 0.83320 -0.28650 0.22963
 C41 C 0.81244 -0.28546 0.21695
 H42 H 0.84589 -0.26128 0.25546
 H43 H 0.80599 -0.29776 0.20455
 N44 N 0.78701 -0.19885 0.26439
 N45 N 0.76752 -0.19016 0.25571
 C46 C 0.76142 -0.17164 0.26812
 C47 C 0.77784 -0.16846 0.28557
 C48 C 0.79383 -0.18610 0.28257
 H49 H 0.74594 -0.16146 0.26484
 H50 H 0.80906 -0.18973 0.29313
 H51 H 0.78381 -0.21706 0.22272
 H52 H 0.76625 -0.23152 0.24607
 N53 N 0.73554 0.21668 0.79672
 N54 N 0.74280 0.23698 0.80344
 C55 C 0.73072 0.24321 0.82241
 C56 C 0.71487 0.22594 0.82784
 C57 C 0.71846 0.20935 0.81111
 H58 H 0.73293 0.25938 0.83122
 H59 H 0.70922 0.19324 0.80937
 Cu60 Cu 0.76674 0.25375 0.78648
 Cu61 Cu 0.74796 0.20188 0.76917
 Cu62 Cu 0.79101 0.23173 0.73870
 N63 N 0.79618 0.26541 0.77422
 N64 N 0.80558 0.25695 0.75537
 C65 C 0.82500 0.26905 0.74997
 C66 C 0.82806 0.28613 0.76643
 C67 C 0.80934 0.28308 0.78162
 H68 H 0.83574 0.26571 0.73494
 H69 H 0.80506 0.29320 0.79664
 N70 N 0.77880 0.20166 0.72898
 N71 N 0.76271 0.19014 0.74071
 C72 C 0.75805 0.17042 0.72957
 C73 C 0.77192 0.16940 0.70986
 C74 C 0.78489 0.18955 0.71015
 H75 H 0.74516 0.15796 0.73520
 H76 H 0.79784 0.19510 0.69762
 H77 H 0.78052 0.21808 0.76990
 H78 H 0.75688 0.23127 0.75189
 N79 N 0.26385 -0.22126 0.79929
 N80 N 0.25695 -0.24196 0.80538
 C81 C 0.26987 -0.24922 0.82354
 C82 C 0.28586 -0.23217 0.82917
 C83 C 0.28145 -0.21466 0.81334
 H84 H 0.26791 -0.26581 0.83181
 H85 H 0.29030 -0.19828 0.81208
 Cu86 Cu 0.23202 -0.25780 0.78894
 Cu87 Cu 0.24973 -0.20461 0.77343
 Cu88 Cu 0.20008 -0.22894 0.74928
 N89 N 0.20206 -0.26934 0.77786
 N90 N 0.18941 -0.25782 0.76274
 C91 C 0.16977 -0.26977 0.75799
 C92 C 0.17009 -0.29011 0.77075
 C93 C 0.19098 -0.28909 0.78321
 H94 H 0.15664 -0.26421 0.74567
 H95 H 0.19778 -0.30166 0.79530
 N96 N 0.21377 -0.19990 0.73801
 N97 N 0.23277 -0.19063 0.74710
 C98 C 0.23834 -0.17155 0.73497
 C99 C 0.22207 -0.16865 0.71728
 C100 C 0.20676 -0.18702 0.71985
 H101 H 0.25341 -0.16086 0.73851
 H102 H 0.19197 -0.19115 0.70892
 H103 H 0.21752 -0.21981 0.77939
 H104 H 0.23580 -0.23213 0.75555
 N105 N 0.74187 -0.21623 0.80588
 N106 N 0.74984 -0.23615 0.81321
 C107 C 0.73669 -0.24342 0.83122
 C108 C 0.71966 -0.22713 0.83553
 C109 C 0.72354 -0.21004 0.81917
 H110 H 0.73919 -0.25942 0.84048
 H111 H 0.71321 -0.19470 0.81655
 Cu112 Cu 0.77638 -0.25088 0.79831
 Cu113 Cu 0.75458 -0.20092 0.77841
 Cu114 Cu 0.80173 -0.22715 0.75135
 N115 N 0.80346 -0.26485 0.78359
 N116 N 0.81328 -0.25557 0.76519
 C117 C 0.83136 -0.26875 0.75842
 C118 C 0.83310 -0.28744 0.77345
 C119 C 0.81499 -0.28423 0.78923
 H120 H 0.84230 -0.26489 0.74360
 H121 H 0.81033 -0.29518 0.80370
 N122 N 0.78759 -0.19834 0.73999
 N123 N 0.76979 -0.18825 0.75035
 C124 C 0.76381 -0.16938 0.73808
 C125 C 0.77854 -0.16746 0.71903
 C126 C 0.79340 -0.18616 0.72091
 H127 H 0.74958 -0.15805 0.74256
 H128 H 0.80711 -0.19089 0.70895
 H129 H 0.76732 -0.23004 0.76259
 H130 H 0.78807 -0.21404 0.78166
 N131 N 0.26272 0.21536 0.80022
 N132 N 0.25318 0.23370 0.80932
 C133 C 0.26623 0.24047 0.82753
 C134 C 0.28504 0.22558 0.82997
 C135 C 0.28218 0.20987 0.81227
 H136 H 0.26248 0.25526 0.83806
 H137 H 0.29326 0.19535 0.80851
 Cu138 Cu 0.22482 0.24700 0.79613
 Cu139 Cu 0.24905 0.19975 0.77366
 Cu140 Cu 0.19728 0.22214 0.75129
 N141 N 0.19623 0.25991 0.78304
 N142 N 0.18528 0.24985 0.76580
 C143 C 0.16645 0.26247 0.75973
 C144 C 0.16561 0.28158 0.77384
 C145 C 0.18480 0.27933 0.78845
 H146 H 0.15477 0.25847 0.74553
 H147 H 0.19015 0.29108 0.80188
 N148 N 0.21237 0.19438 0.73895
 N149 N 0.23248 0.18633 0.74696
 C150 C 0.23891 0.16819 0.73414
 C151 C 0.22197 0.16451 0.71737
 C152 C 0.20539 0.18139 0.72098
 H153 H 0.25470 0.15828 0.73683
 H154 H 0.18975 0.18439 0.71077
 H155 H 0.23205 0.22789 0.75938
 H156 H 0.21485 0.20968 0.78004
 N157 N 0.25855 -0.20774 0.19618
 N158 N 0.24698 -0.22403 0.18544
 C159 C 0.25929 -0.23062 0.16674
 C160 C 0.27978 -0.21774 0.16559
 C161 C 0.27862 -0.20337 0.18464
 H162 H 0.25384 -0.24408 0.15511
 H163 H 0.29141 -0.19070 0.18986
 Cu164 Cu 0.21713 -0.23548 0.19702
 Cu165 Cu 0.24693 -0.19378 0.22454
 Cu166 Cu 0.19768 -0.21866 0.24935
 N167 N 0.19222 -0.25183 0.21315
 N168 N 0.18457 -0.24522 0.23351
 C169 C 0.16766 -0.25977 0.24074
 C170 C 0.16453 -0.27652 0.22403
 C171 C 0.18050 -0.27083 0.20676
 H172 H 0.15865 -0.25842 0.25716
 H173 H 0.18362 -0.27987 0.19077
 N174 N 0.21357 -0.19167 0.26258
 N175 N 0.23236 -0.18219 0.25314
 C176 C 0.23916 -0.16428 0.26618
 C177 C 0.22394 -0.16236 0.28481
 C178 C 0.20793 -0.18006 0.28188
 H179 H 0.25422 -0.15358 0.26247
 H180 H 0.19315 -0.18415 0.29290
 H181 H 0.23048 -0.22374 0.23505
 H182 H 0.21157 -0.20148 0.22084
 N183 N 0.73879 0.21926 0.20323
 N184 N 0.74511 0.24016 0.19726
 C185 C 0.73227 0.24701 0.17887
 C186 C 0.71696 0.22944 0.17297
 C187 C 0.72170 0.21209 0.18887
 H188 H 0.73379 0.26369 0.17069
 H189 H 0.71330 0.19549 0.19010
 Cu190 Cu 0.76910 0.25674 0.21434
 Cu191 Cu 0.75248 0.20328 0.22971
 Cu192 Cu 0.80049 0.22907 0.25546
 N193 N 0.79861 0.26891 0.22594
 N194 N 0.81098 0.25796 0.24174
 C195 C 0.83043 0.27022 0.24650
 C196 C 0.83023 0.29000 0.23300
 C197 C 0.80971 0.28854 0.22016
 H198 H 0.84349 0.26531 0.25919
 H199 H 0.80337 0.30074 0.20743
 N200 N 0.78698 0.19985 0.26670
 N201 N 0.76874 0.18997 0.25678
 C202 C 0.76317 0.17080 0.26874
 C203 C 0.77860 0.16846 0.28719
 C204 C 0.79348 0.18724 0.28527
 H205 H 0.74849 0.15975 0.26471
 H206 H 0.80783 0.19159 0.29671
 H207 H 0.76508 0.23130 0.24787
 H208 H 0.78463 0.21934 0.22482
 C209 C 0.22909 -0.01244 0.52301
 C210 C 0.22967 0.01174 0.52367
 C211 C 0.23032 0.02430 0.50289
 C212 C 0.23038 0.01330 0.48133
 C213 C 0.23041 -0.01096 0.48060
 C214 C 0.22973 -0.02349 0.50149
 H215 H 0.22939 -0.04208 0.50097
 H216 H 0.23047 0.04289 0.50353
 C217 C 0.77183 -0.01458 0.47929
 C218 C 0.76896 0.00952 0.47918
 C219 C 0.76702 0.02105 0.50036
 C220 C 0.76838 0.00928 0.52164
 C221 C 0.77132 -0.01481 0.52175
 C222 C 0.77303 -0.02637 0.50057
 H223 H 0.77480 -0.04489 0.50064
 H224 H 0.76542 0.03959 0.50031
 C225 C 0.48008 0.23449 -0.01138
 C226 C 0.47987 0.23188 0.01303
 C227 C 0.50123 0.23083 0.02510
 C228 C 0.52283 0.23232 0.01350
 C229 C 0.52306 0.23478 -0.01093
 C230 C 0.50167 0.23609 -0.02297
 H231 H 0.50182 0.23740 -0.04174
 H232 H 0.50104 0.22930 0.04386
 C233 C 0.47919 0.76060 -0.01082
 C234 C 0.47868 0.76143 0.01368
 C235 C 0.49993 0.76177 0.02602
 C236 C 0.52165 0.76154 0.01453
 C237 C 0.52208 0.76037 -0.00992
 C238 C 0.50090 0.75979 -0.02226
 H239 H 0.50133 0.75915 -0.04105
 H240 H 0.49955 0.76265 0.04480
 C241 C 0.01533 0.48097 0.23198
 C242 C -0.00923 0.48103 0.23551
 C243 C -0.02094 0.50208 0.23740
 C244 C -0.00889 0.52307 0.23573
 C245 C 0.01574 0.52299 0.23239
 C246 C 0.02743 0.50193 0.23041
 H247 H 0.04634 0.50181 0.22822
 H248 H -0.03987 0.50211 0.23938
 C249 C 0.01211 0.51876 0.76325
 C250 C -0.01255 0.51880 0.76620
 C251 C -0.02462 0.49782 0.76755
 C252 C -0.01283 0.47679 0.76598
 C253 C 0.01182 0.47671 0.76309
 C254 C 0.02389 0.49769 0.76161
 H255 H 0.04286 0.49762 0.76003
 H256 H -0.04358 0.49786 0.76929
 C257 C 0.33618 0.22462 0.11479
 C258 C 0.33432 0.20613 0.13044
 C259 C 0.31621 0.20531 0.14674
 C260 C 0.29949 0.22299 0.14783
 C261 C 0.30123 0.24136 0.13194
 C262 C 0.31936 0.24216 0.11564
 C263 C 0.35597 0.22586 0.09808
 C264 C 0.36757 0.24678 0.09380
 C265 C 0.38690 0.24776 0.07892
 C266 C 0.39509 0.22784 0.06804
 C267 C 0.38320 0.20701 0.07195
 C268 C 0.36386 0.20604 0.08680
 C269 C 0.41643 0.22863 0.05332
 C270 C 0.43338 0.21122 0.05510
 C271 C 0.45387 0.21226 0.04187
 C272 C 0.45777 0.23065 0.02651
 C273 C 0.44085 0.24803 0.02459
 C274 C 0.42034 0.24702 0.03787
 H275 H 0.34719 0.19249 0.13043
 H276 H 0.31551 0.19083 0.15854
 H277 H 0.28877 0.25530 0.13211
 H278 H 0.32017 0.25652 0.10363
 H279 H 0.36212 0.26229 0.10246
 H280 H 0.39588 0.26399 0.07648
 H281 H 0.38887 0.19147 0.06348
 H282 H 0.35502 0.18975 0.08941
 H283 H 0.43102 0.19702 0.06709
 H284 H 0.46674 0.19871 0.04363
 H285 H 0.44363 0.26248 0.01300
 H286 H 0.40751 0.26058 0.03601
 C287 C 0.66168 0.76810 0.12141
 C288 C 0.66289 0.78626 0.13722
 C289 C 0.68050 0.78695 0.15408
 C290 C 0.69743 0.76939 0.15572
 C291 C 0.69625 0.75132 0.13962
 C292 C 0.67866 0.75072 0.12272
 C293 C 0.64251 0.76711 0.10394
 C294 C 0.63158 0.74613 0.09864
 C295 C 0.61289 0.74533 0.08294
 C296 C 0.60466 0.76549 0.07223
 C297 C 0.61584 0.78640 0.07720
 C298 C 0.63456 0.78720 0.09285
 C299 C 0.58391 0.76484 0.05666
 C300 C 0.56647 0.78176 0.05830
 C301 C 0.54642 0.78073 0.04441
 C302 C 0.54343 0.76285 0.02854
 C303 C 0.56089 0.74601 0.02669
 C304 C 0.58098 0.74701 0.04061
 H305 H 0.64988 0.79977 0.13691
 H306 H 0.68043 0.80122 0.16593
 H307 H 0.70886 0.73750 0.13984
 H308 H 0.67845 0.73667 0.11054
 H309 H 0.63702 0.73039 0.10714
 H310 H 0.60441 0.72902 0.07972
 H311 H 0.61011 0.80218 0.06895
 H312 H 0.64286 0.80357 0.09623
 H313 H 0.56805 0.79551 0.07072
 H314 H 0.53313 0.79387 0.04613
 H315 H 0.55880 0.73191 0.01474
 H316 H 0.59421 0.73384 0.03884
 C317 C 0.66225 0.22714 -0.11854
 C318 C 0.68201 0.24157 -0.11737
 C319 C 0.69921 0.24100 -0.13462
 C320 C 0.69712 0.22589 -0.15339
 C321 C 0.67759 0.21114 -0.15434
 C322 C 0.66033 0.21181 -0.13716
 C323 C 0.64338 0.22847 -0.10081
 C324 C 0.63174 0.20854 -0.09311
 C325 C 0.61323 0.20993 -0.07731
 C326 C 0.60598 0.23129 -0.06873
 C327 C 0.61797 0.25117 -0.07604
 C328 C 0.63640 0.24979 -0.09194
 C329 C 0.58547 0.23286 -0.05291
 C330 C 0.56923 0.25085 -0.05539
 C331 C 0.54928 0.25172 -0.04137
 C332 C 0.54512 0.23464 -0.02459
 C333 C 0.56139 0.21677 -0.02190
 C334 C 0.58145 0.21597 -0.03581
 H335 H 0.68424 0.25329 -0.10305
 H336 H 0.71418 0.25236 -0.13315
 H337 H 0.67527 0.19946 -0.16865
 H338 H 0.64516 0.20072 -0.13882
 H339 H 0.63689 0.19183 -0.09936
 H340 H 0.60422 0.19430 -0.07227
 H341 H 0.61303 0.26785 -0.06955
 H342 H 0.64480 0.26550 -0.09769
 H343 H 0.57157 0.26392 -0.06862
 H344 H 0.53690 0.26561 -0.04381
 H345 H 0.55837 0.20319 -0.00933
 H346 H 0.59373 0.20204 -0.03326
 C347 C 0.33918 0.76578 -0.11766
 C348 C 0.32141 0.74904 -0.11826
 C349 C 0.30402 0.74977 -0.13538
 C350 C 0.30401 0.76727 -0.15233
 C351 C 0.32172 0.78410 -0.15158
 C352 C 0.33908 0.78335 -0.13447
 C353 C 0.35808 0.76473 -0.09993
 C354 C 0.36652 0.78491 -0.08962
 C355 C 0.38525 0.78411 -0.07400
 C356 C 0.39596 0.76313 -0.06829
 C357 C 0.38711 0.74286 -0.07807
 C358 C 0.36838 0.74365 -0.09374
 C359 C 0.41694 0.76256 -0.05303
 C360 C 0.41971 0.74527 -0.03610
 C361 C 0.43985 0.74461 -0.02220
 C362 C 0.45755 0.76120 -0.02506
 C363 C 0.45481 0.77842 -0.04195
 C364 C 0.43470 0.77913 -0.05575
 H365 H 0.32083 0.73545 -0.10536
 H366 H 0.29058 0.73664 -0.13520
 H367 H 0.32250 0.79771 -0.16439
 H368 H 0.35275 0.79629 -0.13472
 H369 H 0.35867 0.80135 -0.09369
 H370 H 0.39143 0.79996 -0.06642
 H371 H 0.39519 0.72648 -0.07421
 H372 H 0.36246 0.72784 -0.10159
 H373 H 0.40625 0.73235 -0.03353
 H374 H 0.44173 0.73109 -0.00935
 H375 H 0.46828 0.79136 -0.04441
 H376 H 0.43326 0.79244 -0.06887
 C377 C 0.11725 0.33982 0.22564
 C378 C 0.11807 0.32411 0.24421
 C379 C 0.13350 0.30550 0.24373
 C380 C 0.14842 0.30213 0.22462
 C381 C 0.14723 0.31768 0.20588
 C382 C 0.13187 0.33629 0.20641
 C383 C 0.10165 0.36014 0.22649
 C384 C 0.10987 0.38167 0.21892
 C385 C 0.09533 0.40088 0.21967
 C386 C 0.07220 0.39903 0.22794
 C387 C 0.06398 0.37751 0.23558
 C388 C 0.07857 0.35826 0.23490
 C389 C 0.05685 0.41957 0.22866
 C390 C 0.04190 0.42336 0.24764
 C391 C 0.02816 0.44317 0.24863
 C392 C 0.02903 0.45947 0.23061
 C393 C 0.04375 0.45563 0.21156
 C394 C 0.05746 0.43585 0.21054
 H395 H 0.10718 0.32654 0.25938
 H396 H 0.13391 0.29402 0.25854
 H397 H 0.15813 0.31558 0.19072
 H398 H 0.13136 0.34791 0.19168
 H399 H 0.12770 0.38374 0.21274
 H400 H 0.10236 0.41729 0.21409
 H401 H 0.04614 0.37548 0.24176
 H402 H 0.07168 0.34183 0.24059
 H403 H 0.04128 0.41132 0.26201
 H404 H 0.01716 0.44599 0.26365
 H405 H 0.04460 0.46797 0.19744
 H406 H 0.06849 0.43326 0.19551
 C407 C 0.12053 0.65541 0.76886
 C408 C 0.11608 0.67606 0.75707
 C409 C 0.13232 0.69406 0.75775
 C410 C 0.15338 0.69196 0.77050
 C411 C 0.15743 0.67130 0.78273
 C412 C 0.14130 0.65324 0.78177
 C413 C 0.10381 0.63598 0.76739
 C414 C 0.11203 0.61376 0.76295
 C415 C 0.09637 0.59537 0.76148
 C416 C 0.07220 0.59878 0.76468
 C417 C 0.06394 0.62099 0.76918
 C418 C 0.07960 0.63947 0.77035
 C419 C 0.05579 0.57907 0.76362
 C420 C 0.03876 0.57575 0.78094
 C421 C 0.02431 0.55633 0.78071
 C422 C 0.02634 0.54013 0.76291
 C423 C 0.04305 0.54372 0.74536
 C424 C 0.05768 0.56296 0.74574
 H425 H 0.10022 0.67811 0.74689
 H426 H 0.12814 0.70955 0.74821
 H427 H 0.17320 0.66868 0.79282
 H428 H 0.14502 0.63755 0.79123
 H429 H 0.13059 0.61066 0.76040
 H430 H 0.10320 0.57838 0.75819
 H431 H 0.04536 0.62405 0.77159
 H432 H 0.07285 0.65643 0.77389
 H433 H 0.03717 0.58779 0.79506
 H434 H 0.01193 0.55369 0.79472
 H435 H 0.04491 0.53147 0.73145
 H436 H 0.07053 0.56525 0.73208
 C437 C -0.11680 0.65960 0.23129
 C438 C -0.11261 0.67998 0.24339
 C439 C -0.12899 0.69781 0.24278
 C440 C -0.14990 0.69581 0.22978
 C441 C -0.15364 0.67544 0.21722
 C442 C -0.13740 0.65756 0.21813
 C443 C -0.10004 0.64026 0.23275
 C444 C -0.10828 0.61788 0.23689
 C445 C -0.09262 0.59954 0.23823
 C446 C -0.06843 0.60317 0.23520
 C447 C -0.06016 0.62553 0.23099
 C448 C -0.07582 0.64396 0.22996
 C449 C -0.05204 0.58351 0.23611
 C450 C -0.03506 0.58060 0.21874
 C451 C -0.02075 0.56116 0.21875
 C452 C -0.02284 0.54453 0.23640
 C453 C -0.03944 0.54776 0.25406
 C454 C -0.05396 0.56701 0.25387
 H455 H -0.09687 0.68192 0.25375
 H456 H -0.12505 0.71308 0.25257
 H457 H -0.16929 0.67289 0.20695
 H458 H -0.14091 0.64208 0.20844
 H459 H -0.12685 0.61461 0.23930
 H460 H -0.09945 0.58243 0.24129
 H461 H -0.04156 0.62875 0.22869
 H462 H -0.06906 0.66106 0.22664
 H463 H -0.03343 0.59297 0.20472
 H464 H -0.00843 0.55883 0.20468
 H465 H -0.04134 0.53520 0.26789
 H466 H -0.06678 0.56898 0.26757
 C467 C -0.12093 0.33942 0.76734
 C468 C -0.13751 0.33729 0.78521
 C469 C -0.15404 0.31958 0.78510
 C470 C -0.15450 0.30339 0.76705
 C471 C -0.13737 0.30526 0.74946
 C472 C -0.12084 0.32305 0.74962
 C473 C -0.10423 0.35903 0.76702
 C474 C -0.08066 0.35603 0.76051
 C475 C -0.06504 0.37461 0.76051
 C476 C -0.07270 0.39653 0.76704
 C477 C -0.09631 0.39953 0.77331
 C478 C -0.11188 0.38102 0.77328
 C479 C -0.05629 0.41634 0.76730
 C480 C -0.05725 0.43234 0.78538
 C481 C -0.04279 0.45169 0.78510
 C482 C -0.02700 0.45542 0.76679
 C483 C -0.02567 0.43929 0.74889
 C484 C -0.04012 0.41985 0.74919
 H485 H -0.13772 0.34936 0.79940
 H486 H -0.16644 0.31888 0.79925
 H487 H -0.13680 0.29331 0.73523
 H488 H -0.10837 0.32433 0.73550
 H489 H -0.07419 0.33924 0.75582
 H490 H -0.04689 0.37175 0.75580
 H491 H -0.10285 0.41631 0.77794
 H492 H -0.13004 0.38401 0.77788
 H493 H -0.06925 0.42991 0.79975
 H494 H -0.04399 0.46387 0.79915
 H495 H -0.01384 0.44201 0.73443
 H496 H -0.03917 0.40794 0.73490
 C497 C 0.22553 0.11838 0.34153
 C498 C 0.24279 0.11819 0.32417
 C499 C 0.24178 0.13373 0.30561
 C500 C 0.22344 0.14980 0.30394
 C501 C 0.20595 0.14963 0.32114
 C502 C 0.20700 0.13414 0.33970
 C503 C 0.22697 0.10251 0.36174
 C504 C 0.22179 0.11042 0.38410
 C505 C 0.22272 0.09556 0.40316
 C506 C 0.22881 0.07241 0.40034
 C507 C 0.23434 0.06453 0.37802
 C508 C 0.23345 0.07945 0.35891
 C509 C 0.22904 0.05660 0.42064
 C510 C 0.24691 0.04019 0.42346
 C511 C 0.24736 0.02592 0.44308
 C512 C 0.22988 0.02773 0.46009
 C513 C 0.21192 0.04390 0.45717
 C514 C 0.21145 0.05813 0.43764
 H515 H 0.25739 0.10637 0.32522
 H516 H 0.25562 0.13325 0.29281
 H517 H 0.19138 0.16146 0.32043
 H518 H 0.19321 0.13442 0.35260
 H519 H 0.21725 0.12821 0.38690
 H520 H 0.21887 0.10228 0.42019
 H521 H 0.23886 0.04673 0.37527
 H522 H 0.23735 0.07282 0.34185
 H523 H 0.26083 0.03876 0.41078
 H524 H 0.26151 0.01370 0.44516
 H525 H 0.19818 0.04544 0.47004
 H526 H 0.19721 0.07028 0.43577
 C527 C 0.77200 0.11686 0.65751
 C528 C 0.75917 0.11385 0.67810
 C529 C 0.75931 0.13076 0.69515
 C530 C 0.77224 0.15114 0.69200
 C531 C 0.78523 0.15402 0.67144
 C532 C 0.78511 0.13709 0.65443
 C533 C 0.77139 0.09921 0.63910
 C534 C 0.79186 0.09358 0.62684
 C535 C 0.79109 0.07767 0.60886
 C536 C 0.76982 0.06705 0.60271
 C537 C 0.74942 0.07238 0.61524
 C538 C 0.75020 0.08827 0.63325
 C539 C 0.76880 0.05117 0.58272
 C540 C 0.75006 0.05235 0.56688
 C541 C 0.74973 0.03839 0.54730
 C542 C 0.76805 0.02289 0.54324
 C543 C 0.78663 0.02143 0.55919
 C544 C 0.78697 0.03539 0.57878
 H545 H 0.74914 0.09830 0.68111
 H546 H 0.74925 0.12773 0.71078
 H547 H 0.79530 0.16946 0.66821
 H548 H 0.79491 0.14007 0.63860
 H549 H 0.80849 0.10153 0.63112
 H550 H 0.80706 0.07412 0.59938
 H551 H 0.73283 0.06430 0.61105
 H552 H 0.73409 0.09239 0.64223
 H553 H 0.73598 0.06454 0.56924
 H554 H 0.73530 0.03984 0.53515
 H555 H 0.80111 0.00980 0.55623
 H556 H 0.80153 0.03394 0.59079
 C557 C 0.22232 -0.11817 0.66216
 C558 C 0.20390 -0.13409 0.66419
 C559 C 0.20363 -0.15016 0.68226
 C560 C 0.22184 -0.15078 0.69875
 C561 C 0.24003 -0.13447 0.69697
 C562 C 0.24024 -0.11833 0.67889
 C563 C 0.22309 -0.10192 0.64225
 C564 C 0.22956 -0.07887 0.64536
 C565 C 0.23021 -0.06369 0.62645
 C566 C 0.22447 -0.07129 0.60406
 C567 C 0.21817 -0.09440 0.60100
 C568 C 0.21745 -0.10951 0.61986
 C569 C 0.22518 -0.05536 0.58386
 C570 C 0.20800 -0.05676 0.56640
 C571 C 0.20919 -0.04258 0.54683
 C572 C 0.22749 -0.02662 0.54436
 C573 C 0.24453 -0.02493 0.56186
 C574 C 0.24335 -0.03913 0.58149
 H575 H 0.18962 -0.13412 0.65177
 H576 H 0.18913 -0.16213 0.68308
 H577 H 0.25437 -0.13430 0.70925
 H578 H 0.25477 -0.10636 0.67766
 H579 H 0.23378 -0.07250 0.66246
 H580 H 0.23486 -0.04593 0.62941
 H581 H 0.21414 -0.10092 0.58392
 H582 H 0.21286 -0.12728 0.61686
 H583 H 0.19358 -0.06883 0.56788
 H584 H 0.19582 -0.04407 0.53355
 H585 H 0.25903 -0.01301 0.56008
 H586 H 0.25702 -0.03785 0.59447
 C587 C 0.77687 -0.11782 0.33983
 C588 C 0.79535 -0.13363 0.33832
 C589 C 0.79578 -0.14989 0.32064
 C590 C 0.77772 -0.15076 0.30401
 C591 C 0.75935 -0.13472 0.30543
 C592 C 0.75893 -0.11848 0.32313
 C593 C 0.77610 -0.10101 0.35904
 C594 C 0.75483 -0.09623 0.37035
 C595 C 0.75424 -0.08108 0.38901
 C596 C 0.77491 -0.07040 0.39679
 C597 C 0.79610 -0.07487 0.38523
 C598 C 0.79669 -0.09001 0.36657
 C599 C 0.77450 -0.05531 0.41742
 C600 C 0.79239 -0.05680 0.43417
 C601 C 0.79161 -0.04335 0.45408
 C602 C 0.77299 -0.02807 0.45762
 C603 C 0.75517 -0.02639 0.44087
 C604 C 0.75593 -0.03986 0.42093
 H605 H 0.80928 -0.13376 0.35111
 H606 H 0.81024 -0.16184 0.32025
 H607 H 0.74514 -0.13467 0.29300
 H608 H 0.74460 -0.10633 0.32366
 H609 H 0.73873 -0.10468 0.36518
 H610 H 0.73771 -0.07826 0.39778
 H611 H 0.81225 -0.06661 0.39059
 H612 H 0.81327 -0.09304 0.35796
 H613 H 0.80674 -0.06876 0.43214
 H614 H 0.80550 -0.04494 0.46683
 H615 H 0.74051 -0.01489 0.44339
 H616 H 0.74200 -0.03821 0.40825
 C617 C 0.66344 0.76872 -0.11488
 C618 C 0.67223 0.79016 -0.12201
 C619 C 0.69048 0.79155 -0.13819
 C620 C 0.70056 0.77151 -0.14713
 C621 C 0.69202 0.75007 -0.13963
 C622 C 0.67348 0.74870 -0.12384
 C623 C 0.64347 0.76718 -0.09856
 C624 C 0.62374 0.75386 -0.10409
 C625 C 0.60469 0.75254 -0.08892
 C626 C 0.60509 0.76417 -0.06760
 C627 C 0.62504 0.77738 -0.06204
 C628 C 0.64393 0.77903 -0.07747
 C629 C 0.58461 0.76278 -0.05153
 C630 C 0.57811 0.78172 -0.03794
 C631 C 0.55816 0.78070 -0.02383
 C632 C 0.54422 0.76087 -0.02324
 C633 C 0.55076 0.74185 -0.03641
 C634 C 0.57089 0.74268 -0.05019
 H635 H 0.66463 0.80582 -0.11540
 H636 H 0.69681 0.80829 -0.14357
 H637 H 0.69932 0.73434 -0.14635
 H638 H 0.66701 0.73197 -0.11853
 H639 H 0.62289 0.74480 -0.12041
 H640 H 0.58947 0.74271 -0.09415
 H641 H 0.62623 0.78626 -0.04567
 H642 H 0.65909 0.78926 -0.07279
 H643 H 0.58796 0.79760 -0.03869
 H644 H 0.55321 0.79561 -0.01386
 H645 H 0.54021 0.72636 -0.03603
 H646 H 0.57561 0.72754 -0.05987
 C647 C 0.34056 0.22806 -0.11916
 C648 C 0.34263 0.21422 -0.13889
 C649 C 0.32462 0.21337 -0.15533
 C650 C 0.30409 0.22638 -0.15246
 C651 C 0.30200 0.24019 -0.13269
 C652 C 0.32001 0.24100 -0.11622
 C653 C 0.35989 0.22917 -0.10187
 C654 C 0.36627 0.25016 -0.09177
 C655 C 0.38493 0.25130 -0.07605
 C656 C 0.39764 0.23148 -0.07008
 C657 C 0.39105 0.21044 -0.07994
 C658 C 0.37239 0.20930 -0.09564
 C659 C 0.41813 0.23279 -0.05416
 C660 C 0.42236 0.21529 -0.03777
 C661 C 0.44228 0.21599 -0.02363
 C662 C 0.45826 0.23428 -0.02545
 C663 C 0.45396 0.25190 -0.04161
 C664 C 0.43407 0.25120 -0.05579
 H665 H 0.35839 0.20433 -0.14187
 H666 H 0.32702 0.20274 -0.17043
 H667 H 0.28637 0.25023 -0.12972
 H668 H 0.31773 0.25158 -0.10104
 H669 H 0.35713 0.26581 -0.09635
 H670 H 0.38941 0.26772 -0.06857
 H671 H 0.40063 0.19490 -0.07590
 H672 H 0.36773 0.19282 -0.10288
 H673 H 0.41030 0.20101 -0.03593
 H674 H 0.44543 0.20204 -0.01151
 H675 H 0.46613 0.26611 -0.04336
 H676 H 0.43151 0.26477 -0.06845
 C677 C 0.33585 0.77676 0.11559
 C678 C 0.31472 0.76471 0.11247
 C679 C 0.29648 0.76663 0.12856
 C680 C 0.29897 0.78059 0.14822
 C681 C 0.32010 0.79276 0.15120
 C682 C 0.33829 0.79088 0.13509
 C683 C 0.35547 0.77439 0.09883
 C684 C 0.36878 0.79364 0.09206
 C685 C 0.38787 0.79129 0.07707
 C686 C 0.39415 0.76963 0.06856
 C687 C 0.38059 0.75043 0.07501
 C688 C 0.36142 0.75279 0.08993
 C689 C 0.41524 0.76701 0.05369
 C690 C 0.43083 0.74868 0.05744
 C691 C 0.45127 0.74677 0.04423
 C692 C 0.45645 0.76301 0.02690
 C693 C 0.44085 0.78124 0.02297
 C694 C 0.42042 0.78320 0.03621
 H695 H 0.31220 0.75393 0.09745
 H696 H 0.28045 0.75717 0.12544
 H697 H 0.32284 0.80357 0.16612
 H698 H 0.35449 0.80013 0.13815
 H699 H 0.36445 0.81054 0.09841
 H700 H 0.39810 0.80637 0.07260
 H701 H 0.38486 0.73355 0.06855
 H702 H 0.35160 0.73762 0.09495
 H703 H 0.42751 0.73615 0.07101
 H704 H 0.46316 0.73266 0.04762
 H705 H 0.44469 0.79412 0.00988
 H706 H 0.40868 0.79741 0.03281
 C707 C 0.66353 0.23004 0.11980
 C708 C 0.68018 0.24782 0.12102
 C709 C 0.69765 0.24754 0.13809
 C710 C 0.69885 0.22949 0.15438
 C711 C 0.68229 0.21161 0.15296
 C712 C 0.66487 0.21190 0.13591
 C713 C 0.64445 0.23062 0.10222
 C714 C 0.63719 0.21040 0.09116
 C715 C 0.61834 0.21068 0.07563
 C716 C 0.60633 0.23119 0.07079
 C717 C 0.61394 0.25152 0.08141
 C718 C 0.63279 0.25124 0.09696
 C719 C 0.58538 0.23120 0.05544
 C720 C 0.58154 0.24919 0.03949
 C721 C 0.56135 0.24949 0.02568
 C722 C 0.54467 0.23179 0.02751
 C723 C 0.54852 0.21379 0.04334
 C724 C 0.56869 0.21346 0.05712
 H725 H 0.67980 0.26190 0.10867
 H726 H 0.71017 0.26150 0.13841
 H727 H 0.68243 0.19749 0.16521
 H728 H 0.65209 0.19812 0.13568
 H729 H 0.64609 0.19432 0.09452
 H730 H 0.61315 0.19481 0.06741
 H731 H 0.60484 0.26753 0.07827
 H732 H 0.63775 0.26704 0.10542
 H733 H 0.59417 0.26300 0.03768
 H734 H 0.55860 0.26366 0.01374
 H735 H 0.53585 0.20000 0.04506
 H736 H 0.57096 0.19956 0.06947
 C737 C -0.11864 0.65709 0.77104
 C738 C -0.11783 0.67465 0.75426
 C739 C -0.13359 0.69299 0.75508
 C740 C -0.15066 0.69428 0.77275
 C741 C -0.15116 0.67669 0.78966
 C742 C -0.13539 0.65843 0.78882
 C743 C -0.10235 0.63725 0.76994
 C744 C -0.11044 0.61504 0.77526
 C745 C -0.09518 0.59637 0.77473
 C746 C -0.07145 0.59942 0.76879
 C747 C -0.06337 0.62156 0.76313
 C748 C -0.07866 0.64030 0.76374
 C749 C -0.05534 0.57947 0.76861
 C750 C -0.03912 0.57653 0.75050
 C751 C -0.02490 0.55701 0.74982
 C752 C -0.02647 0.54024 0.76738
 C753 C -0.04231 0.54341 0.78569
 C754 C -0.05658 0.56282 0.78631
 H755 H -0.10528 0.67399 0.74018
 H756 H -0.13235 0.70594 0.74163
 H757 H -0.16366 0.67678 0.80374
 H758 H -0.13621 0.64538 0.80226
 H759 H -0.12868 0.61202 0.77962
 H760 H -0.10202 0.57944 0.77871
 H761 H -0.04513 0.62443 0.75870
 H762 H -0.07183 0.65723 0.75980
 H763 H -0.03795 0.58897 0.73651
 H764 H -0.01304 0.55474 0.73536
 H765 H -0.04372 0.53076 0.79948
 H766 H -0.06862 0.56480 0.80067
 C767 C -0.11918 0.34512 0.23342
 C768 C -0.14176 0.34852 0.22421
 C769 C -0.15807 0.33058 0.22384
 C770 C -0.15223 0.30885 0.23282
 C771 C -0.12957 0.30540 0.24187
 C772 C -0.11319 0.32332 0.24208
 C773 C -0.10211 0.36438 0.23433
 C774 C -0.07842 0.36105 0.22843
 C775 C -0.06247 0.37933 0.22916
 C776 C -0.06984 0.40124 0.23602
 C777 C -0.09349 0.40450 0.24206
 C778 C -0.10944 0.38630 0.24117
 C779 C -0.05314 0.42082 0.23656
 C780 C -0.05377 0.43658 0.25488
 C781 C -0.03909 0.45580 0.25474
 C782 C -0.02343 0.45966 0.23633
 C783 C -0.02247 0.44374 0.21819
 C784 C -0.03709 0.42443 0.21837
 H785 H -0.14678 0.36508 0.21718
 H786 H -0.17536 0.33391 0.21685
 H787 H -0.12440 0.28885 0.24874
 H788 H -0.09597 0.32024 0.24944
 H789 H -0.07231 0.34438 0.22294
 H790 H -0.04432 0.37629 0.22455
 H791 H -0.09975 0.42124 0.24716
 H792 H -0.12752 0.38932 0.24604
 H793 H -0.06571 0.43408 0.26929
 H794 H -0.04007 0.46782 0.26894
 H795 H -0.01084 0.44658 0.20359
 H796 H -0.03642 0.41273 0.20389
 C797 C 0.11720 0.33811 0.76946
 C798 C 0.11126 0.31669 0.76008
 C799 C 0.12693 0.29830 0.76155
 C800 C 0.14877 0.30090 0.77263
 C801 C 0.15453 0.32226 0.78226
 C802 C 0.13896 0.34067 0.78062
 C803 C 0.10091 0.35783 0.76744
 C804 C 0.10948 0.37969 0.76137
 C805 C 0.09430 0.39840 0.75979
 C806 C 0.07022 0.39570 0.76438
 C807 C 0.06161 0.37383 0.77036
 C808 C 0.07679 0.35505 0.77176
 C809 C 0.05433 0.41579 0.76340
 C810 C 0.03764 0.41932 0.78095
 C811 C 0.02357 0.43893 0.78071
 C812 C 0.02571 0.45522 0.76275
 C813 C 0.04212 0.45152 0.74503
 C814 C 0.05630 0.43201 0.74535
 H815 H 0.09466 0.31428 0.75125
 H816 H 0.12187 0.28205 0.75409
 H817 H 0.17124 0.32495 0.79076
 H818 H 0.14390 0.35692 0.78821
 H819 H 0.12795 0.38228 0.75773
 H820 H 0.10146 0.41509 0.75537
 H821 H 0.04310 0.37125 0.77382
 H822 H 0.06975 0.33843 0.77663
 H823 H 0.03598 0.40728 0.79524
 H824 H 0.01139 0.44165 0.79482
 H825 H 0.04404 0.46385 0.73100
 H826 H 0.06884 0.42961 0.73148
 C827 C 0.11797 0.66488 0.22654
 C828 C 0.11667 0.68198 0.24353
 C829 C 0.13163 0.70105 0.24266
 C830 C 0.14825 0.70348 0.22476
 C831 C 0.14931 0.68646 0.20764
 C832 C 0.13437 0.66744 0.20852
 C833 C 0.10255 0.64427 0.22771
 C834 C 0.11145 0.62254 0.22208
 C835 C 0.09702 0.60315 0.22290
 C836 C 0.07335 0.60498 0.22943
 C837 C 0.06445 0.62664 0.23529
 C838 C 0.07889 0.64609 0.23441
 C839 C 0.05806 0.58431 0.23002
 C840 C 0.04230 0.58055 0.24842
 C841 C 0.02845 0.56071 0.24921
 C842 C 0.02991 0.54439 0.23147
 C843 C 0.04552 0.54821 0.21303
 C844 C 0.05944 0.56795 0.21229
 H845 H 0.10437 0.68044 0.25777
 H846 H 0.13012 0.71378 0.25611
 H847 H 0.16178 0.68761 0.19355
 H848 H 0.13556 0.65477 0.19494
 H849 H 0.12970 0.62046 0.21732
 H850 H 0.10448 0.58663 0.21871
 H851 H 0.04621 0.62860 0.24014
 H852 H 0.07142 0.66261 0.23856
 H853 H 0.04109 0.59271 0.26248
 H854 H 0.01680 0.55795 0.26381
 H855 H 0.04687 0.53589 0.19912
 H856 H 0.07118 0.57051 0.19773
 C857 C 0.77636 -0.11725 0.66361
 C858 C 0.75845 -0.11815 0.68033
 C859 C 0.75925 -0.13424 0.69843
 C860 C 0.77795 -0.14989 0.70020
 C861 C 0.79595 -0.14881 0.68354
 C862 C 0.79515 -0.13272 0.66549
 C863 C 0.77534 -0.10057 0.64401
 C864 C 0.79580 -0.08939 0.63624
 C865 C 0.79507 -0.07454 0.61713
 C866 C 0.77387 -0.07050 0.60531
 C867 C 0.75331 -0.08130 0.61336
 C868 C 0.75403 -0.09617 0.63250
 C869 C 0.77339 -0.05568 0.58424
 C870 C 0.75468 -0.04046 0.58017
 C871 C 0.75406 -0.02701 0.55998
 C872 C 0.77215 -0.02849 0.54354
 C873 C 0.79083 -0.04364 0.54758
 C874 C 0.79148 -0.05705 0.56774
 H875 H 0.74387 -0.10630 0.67950
 H876 H 0.74502 -0.13450 0.71083
 H877 H 0.81072 -0.16039 0.68430
 H878 H 0.80908 -0.13268 0.65272
 H879 H 0.81239 -0.09210 0.64500
 H880 H 0.81113 -0.06616 0.61161
 H881 H 0.73676 -0.07879 0.60445
 H882 H 0.73803 -0.10474 0.63786
 H883 H 0.74058 -0.03889 0.59263
 H884 H 0.73933 -0.01563 0.55707
 H885 H 0.80492 -0.04508 0.53509
 H886 H 0.80593 -0.06886 0.57017
 C887 C 0.22614 -0.11278 0.34005
 C888 C 0.24027 -0.10994 0.32026
 C889 C 0.23955 -0.12598 0.30235
 C890 C 0.22470 -0.14526 0.30380
 C891 C 0.21062 -0.14808 0.32364
 C892 C 0.21134 -0.13205 0.34153
 C893 C 0.22698 -0.09590 0.35922
 C894 C 0.20631 -0.08943 0.37074
 C895 C 0.20716 -0.07430 0.38940
 C896 C 0.22872 -0.06530 0.39703
 C897 C 0.24934 -0.07140 0.38523
 C898 C 0.24848 -0.08650 0.36652
 C899 C 0.22974 -0.05039 0.41780
 C900 C 0.24763 -0.05337 0.43435
 C901 C 0.24796 -0.04027 0.45453
 C902 C 0.23051 -0.02385 0.45853
 C903 C 0.21275 -0.02061 0.44195
 C904 C 0.21240 -0.03372 0.42173
 H905 H 0.25168 -0.09515 0.31848
 H906 H 0.25052 -0.12306 0.28731
 H907 H 0.19920 -0.16281 0.32561
 H908 H 0.20057 -0.13497 0.35673
 H909 H 0.18943 -0.09612 0.36534
 H910 H 0.19099 -0.07011 0.39824
 H911 H 0.26619 -0.06455 0.39052
 H912 H 0.26473 -0.09124 0.35812
 H913 H 0.26104 -0.06628 0.43202
 H914 H 0.26176 -0.04308 0.46717
 H915 H 0.19896 -0.00820 0.44481
 H916 H 0.19852 -0.03088 0.40921
 C917 C 0.77688 0.11685 0.34124
 C918 C 0.79089 0.13657 0.34358
 C919 C 0.79165 0.15317 0.32597
 C920 C 0.77838 0.15048 0.30560
 C921 C 0.76456 0.13060 0.30318
 C922 C 0.76381 0.11401 0.32079
 C923 C 0.77560 0.09955 0.36027
 C924 C 0.75405 0.08935 0.36633
 C925 C 0.75270 0.07368 0.38476
 C926 C 0.77286 0.06783 0.39754
 C927 C 0.79447 0.07778 0.39126
 C928 C 0.79582 0.09345 0.37284
 C929 C 0.77129 0.05197 0.41779
 C930 C 0.78907 0.03581 0.42220
 C931 C 0.78812 0.02172 0.44190
 C932 C 0.76929 0.02338 0.45749
 C933 C 0.75138 0.03929 0.45298
 C934 C 0.75233 0.05341 0.43332
 H935 H 0.80090 0.13945 0.35927
 H936 H 0.80234 0.16828 0.32863
 H937 H 0.75433 0.12773 0.28765
 H938 H 0.75312 0.09883 0.31831
 H939 H 0.73811 0.09384 0.35714
 H940 H 0.73583 0.06614 0.38901
 H941 H 0.81029 0.07384 0.40091
 H942 H 0.81273 0.10080 0.36844
 H943 H 0.80377 0.03413 0.41046
 H944 H 0.80231 0.00981 0.44520
 H945 H 0.73676 0.04093 0.46485
 H946 H 0.73854 0.06589 0.43062
 C947 C 0.22223 0.11399 0.66322
 C948 C 0.20096 0.12302 0.67149
 C949 C 0.20088 0.13943 0.68906
 C950 C 0.22202 0.14691 0.69902
 C951 C 0.24325 0.13768 0.69108
 C952 C 0.24338 0.12155 0.67327
 C953 C 0.22246 0.09715 0.64391
 C954 C 0.23954 0.07975 0.64310
 C955 C 0.24048 0.06470 0.62438
 C956 C 0.22411 0.06643 0.60627
 C957 C 0.20667 0.08334 0.60725
 C958 C 0.20595 0.09865 0.62577
 C959 C 0.22576 0.05125 0.58590
 C960 C 0.20580 0.03970 0.57759
 C961 C 0.20723 0.02624 0.55767
 C962 C 0.22852 0.02448 0.54565
 C963 C 0.24848 0.03587 0.55396
 C964 C 0.24718 0.04896 0.57411
 H965 H 0.18430 0.11731 0.66454
 H966 H 0.18422 0.14604 0.69503
 H967 H 0.25986 0.14333 0.69820
 H968 H 0.26013 0.11541 0.66706
 H969 H 0.25220 0.07771 0.65697
 H970 H 0.25395 0.05163 0.62406
 H971 H 0.19405 0.08517 0.59330
 H972 H 0.19282 0.11203 0.62551
 H973 H 0.18914 0.04118 0.58648
 H974 H 0.19166 0.01759 0.55134
 H975 H 0.26500 0.03471 0.54475
 H976 H 0.26273 0.05787 0.58010
   
