data_POSCAR
  _audit_creation_date              2014-09-24
  _audit_creation_method            'ToBaCCo'
  _symmetry_space_group_name_H-M    'P1'
  _symmetry_Int_Tables_number       1
  _symmetry_cell_setting            triclinic
  loop_
  _symmetry_equiv_pos_as_xyz
 x,y,z
_cell_length_a 34.7541
_cell_length_b 34.6674
_cell_length_c 56.5847
_cell_angle_alpha 89.508300
_cell_angle_beta 90.353900
_cell_angle_gamma 86.403300
loop_
  _atom_site_label
  _atom_site_type_symbol
  _atom_site_fract_x
  _atom_site_fract_y
  _atom_site_fract_z
O1 O 0.03341 0.53570 1.02302
 O2 O 0.03314 0.46128 0.97697
 O3 O 0.03374 0.53646 0.97704
 O4 O 0.03289 0.46057 1.02293
 O5 O -0.03069 0.46505 1.02250
 O6 O -0.02978 0.54095 0.97663
 O7 O -0.03044 0.46579 0.97655
 O8 O -0.03018 0.54016 1.02259
 Cu9 Cu 0.03966 0.49806 1.00002
 Cu10 Cu -0.03664 0.50345 0.99952
 C11 C 0.00165 0.55075 1.03066
 C12 C 0.00129 0.45065 0.96895
 C13 C 0.00213 0.55190 0.96899
 C14 C 0.00095 0.44971 1.03052
 O15 O 0.53960 -0.03101 0.52336
 O16 O 0.46412 -0.03068 0.47738
 O17 O 0.53912 -0.03120 0.47741
 O18 O 0.46455 -0.03070 0.52334
 O19 O 0.46087 0.03304 0.52295
 O20 O 0.53553 0.03254 0.47702
 O21 O 0.46052 0.03306 0.47699
 O22 O 0.53594 0.03268 0.52298
 Cu23 Cu 0.50221 -0.03728 0.50042
 Cu24 Cu 0.49785 0.03921 0.49996
 C25 C 0.55092 0.00078 0.53102
 C26 C 0.44931 0.00126 0.46936
 C27 C 0.55020 0.00057 0.46939
 C28 C 0.44979 0.00125 0.53094
 C29 C 0.07684 -0.00036 0.25988
 H30 H 0.07885 -0.00021 0.24081
 C31 C 0.11017 0.00090 0.27370
 H32 H 0.13782 0.00222 0.26511
 C33 C 0.03810 -0.00104 0.29417
 H34 H 0.00997 -0.00128 0.30213
 C35 C 0.07064 0.00027 0.30865
 H36 H 0.06715 0.00017 0.32765
 N37 N 0.04176 -0.00181 0.27026
 C38 C -0.03144 -0.05465 0.21835
 H39 H -0.05565 -0.03345 0.21785
 C40 C -0.03184 -0.08755 0.20432
 H41 H -0.05633 -0.09119 0.19281
 C42 C 0.03014 -0.07508 0.23371
 H43 H 0.05400 -0.07043 0.24543
 C44 C 0.03096 -0.10839 0.21996
 H45 H 0.05556 -0.12907 0.22129
 Zn46 Zn -0.00228 -0.00291 0.25044
 N47 N -0.00049 -0.04871 0.23237
 C48 C -0.00248 0.03717 0.20642
 N49 N -0.00279 0.04107 0.23032
 C50 C -0.00205 0.07643 0.24047
 C51 C -0.00202 0.10979 0.22645
 C52 C -0.00249 0.06973 0.19174
 C53 C -0.05244 -0.03331 0.28309
 C54 C -0.08488 -0.03445 0.29744
 C55 C -0.10770 0.02781 0.28158
 C56 C -0.07477 0.02778 0.26755
 N57 N -0.04765 -0.00222 0.26884
 H58 H -0.00189 0.00882 0.19864
 H59 H -0.00169 0.07868 0.25953
 H60 H -0.00217 0.13772 0.23488
 H61 H -0.00192 0.06598 0.17277
 H62 H -0.03075 -0.05710 0.28345
 H63 H -0.08811 -0.05945 0.30868
 H64 H -0.12850 0.05238 0.28073
 H65 H -0.07092 0.05184 0.25574
 C66 C -0.00020 -0.11482 0.20488
 C67 C 0.10732 0.00114 0.29845
 C68 C -0.11290 -0.00345 0.29695
 C69 C -0.00243 0.10669 0.20172
 C70 C 0.00085 0.08258 0.75941
 H71 H 0.00198 0.08551 0.74038
 C72 C 0.00048 0.11548 0.77350
 H73 H 0.00064 0.14367 0.76513
 C74 C -0.00066 0.04223 0.79334
 H75 H -0.00056 0.01364 0.80108
 C76 C -0.00112 0.07433 0.80809
 H77 H -0.00122 0.06997 0.82706
 N78 N 0.00002 0.04683 0.76945
 C79 C 0.04962 -0.02417 0.71247
 H80 H 0.02776 -0.04437 0.70955
 C81 C 0.08182 -0.02506 0.69782
 H82 H 0.08433 -0.04612 0.68380
 C83 C 0.07368 0.02677 0.73467
 H84 H 0.07079 0.04658 0.74926
 C85 C 0.10639 0.02685 0.72046
 H86 H 0.12784 0.04743 0.72397
 Zn87 Zn 0.00115 0.00264 0.74968
 N88 N 0.04581 0.00181 0.73032
 C89 C -0.05186 -0.02993 0.71934
 N90 N -0.04403 0.00334 0.73048
 C91 C -0.06845 0.03549 0.72850
 C92 C -0.10135 0.03536 0.71420
 C93 C -0.08441 -0.03135 0.70488
 C94 C 0.03527 -0.06621 0.77013
 C95 C 0.03626 -0.09949 0.78426
 C96 C -0.03018 -0.08385 0.79471
 C97 C -0.02989 -0.05087 0.78040
 N98 N 0.00256 -0.04264 0.76857
 H99 H -0.03311 -0.05569 0.72198
 H100 H -0.06259 0.06140 0.73790
 H101 H -0.11989 0.06152 0.71245
 H102 H -0.09016 -0.05821 0.69630
 H103 H 0.06071 -0.05909 0.76053
 H104 H 0.06248 -0.11805 0.78518
 H105 H -0.05608 -0.08952 0.80433
 H106 H -0.05548 -0.03156 0.77883
 C107 C 0.11065 0.00086 0.70162
 C108 C -0.00062 0.11159 0.79821
 C109 C 0.00326 -0.10862 0.79684
 C110 C -0.10953 0.00170 0.70201
 C111 C -0.03310 -0.37253 0.07432
 C112 C 0.00183 -0.36017 0.08296
 C113 C 0.03671 -0.37730 0.07477
 C114 C 0.03670 -0.40651 0.05788
 C115 C 0.00172 -0.41895 0.04894
 C116 C -0.03320 -0.40173 0.05743
 C117 C 0.00186 -0.32943 0.09989
 C118 C 0.00183 -0.30338 0.11387
 C119 C 0.00172 -0.27256 0.13001
 C120 C 0.00159 -0.24593 0.14357
 C121 C 0.00139 -0.21378 0.15950
 C122 C 0.03501 -0.19437 0.16312
 C123 C 0.03461 -0.16244 0.17806
 C124 C 0.00049 -0.14945 0.18957
 C125 C -0.03309 -0.16938 0.18597
 C126 C -0.03261 -0.20132 0.17103
 H127 H -0.06027 -0.35942 0.08052
 H128 H 0.06392 -0.36791 0.08132
 H129 H 0.06407 -0.41915 0.05172
 H130 H -0.06061 -0.41062 0.05092
 H131 H 0.06144 -0.20367 0.15420
 H132 H 0.06078 -0.14743 0.18021
 H133 H -0.05967 -0.16040 0.19481
 H134 H -0.05879 -0.21617 0.16838
 C135 C 0.03500 0.37104 0.07418
 C136 C -0.00007 0.35835 0.08225
 C137 C -0.03480 0.37597 0.07373
 C138 C -0.03451 0.40596 0.05706
 C139 C 0.00060 0.41870 0.04867
 C140 C 0.03538 0.40102 0.05751
 C141 C -0.00043 0.32669 0.09885
 C142 C -0.00077 0.29985 0.11251
 C143 C -0.00123 0.26805 0.12822
 C144 C -0.00168 0.24057 0.14139
 C145 C -0.00231 0.20737 0.15680
 C146 C -0.02515 0.17695 0.15100
 C147 C -0.02534 0.14432 0.16566
 C148 C -0.00264 0.14166 0.18636
 C149 C 0.02005 0.17252 0.19213
 C150 C 0.02022 0.20514 0.17742
 H151 H 0.06206 0.35755 0.08064
 H152 H -0.06212 0.36633 0.07982
 H153 H -0.06178 0.41894 0.05062
 H154 H 0.06289 0.41013 0.05143
 H155 H -0.04276 0.17842 0.13511
 H156 H -0.04352 0.12131 0.16091
 H157 H 0.03818 0.17114 0.20778
 H158 H 0.03811 0.22847 0.18203
 C159 C 0.37645 -0.03343 0.57434
 C160 C 0.35928 0.00162 0.58232
 C161 C 0.37220 0.03656 0.57387
 C162 C 0.40196 0.03649 0.55734
 C163 C 0.41915 0.00140 0.54902
 C164 C 0.40620 -0.03358 0.55781
 C165 C 0.32781 0.00169 0.59874
 C166 C 0.30113 0.00167 0.61226
 C167 C 0.26955 0.00156 0.62781
 C168 C 0.24228 0.00141 0.64086
 C169 C 0.20938 0.00117 0.65618
 C170 C 0.21381 0.00600 0.68056
 C171 C 0.18175 0.00586 0.69538
 C172 C 0.14482 0.00086 0.68598
 C173 C 0.14072 -0.00400 0.66144
 C174 C 0.17279 -0.00383 0.64667
 H175 H 0.36663 -0.06064 0.58073
 H176 H 0.35907 0.06386 0.57991
 H177 H 0.41124 0.06390 0.55094
 H178 H 0.41880 -0.06108 0.55178
 H179 H 0.24202 0.00979 0.68811
 H180 H 0.18592 0.00919 0.71421
 H181 H 0.11263 -0.00737 0.65362
 H182 H 0.16902 -0.00746 0.62781
 C183 C -0.37243 -0.03444 0.57375
 C184 C -0.35934 0.00049 0.58179
 C185 C -0.37652 0.03550 0.57331
 C186 C -0.40646 0.03568 0.55669
 C187 C -0.41971 0.00068 0.54822
 C188 C -0.40238 -0.03442 0.55713
 C189 C -0.32770 0.00040 0.59833
 C190 C -0.30091 0.00037 0.61196
 C191 C -0.26920 0.00036 0.62766
 C192 C -0.24185 0.00036 0.64087
 C193 C -0.20887 0.00036 0.65638
 C194 C -0.21148 0.01958 0.67801
 C195 C -0.17926 0.01995 0.69292
 C196 C -0.14395 0.00105 0.68636
 C197 C -0.14169 -0.01830 0.66460
 C198 C -0.17393 -0.01860 0.64973
 H199 H -0.35929 -0.06173 0.58019
 H200 H -0.36656 0.06272 0.57941
 H201 H -0.41895 0.06330 0.55037
 H202 H -0.41165 -0.06197 0.55115
 H203 H -0.23842 0.03430 0.68336
 H204 H -0.18206 0.03467 0.70968
 H205 H -0.11482 -0.03266 0.65889
 H206 H -0.17155 -0.03345 0.63298
 C207 C 0.03787 -0.37587 0.92658
 C208 C 0.00316 -0.35830 0.91804
 C209 C -0.03190 -0.37095 0.92612
 C210 C -0.03231 -0.40087 0.94282
 C211 C 0.00247 -0.41864 0.95177
 C212 C 0.03761 -0.40581 0.94328
 C213 C 0.00350 -0.32678 0.90133
 C214 C 0.00375 -0.30011 0.88753
 C215 C 0.00399 -0.26858 0.87160
 C216 C 0.00414 -0.24139 0.85818
 C217 C 0.00425 -0.20864 0.84239
 C218 C -0.02806 -0.19859 0.82823
 C219 C -0.02832 -0.16624 0.81329
 C220 C 0.00379 -0.14348 0.81231
 C221 C 0.03624 -0.15401 0.82650
 C222 C 0.03642 -0.18635 0.84144
 H223 H 0.06518 -0.36627 0.92045
 H224 H -0.05895 -0.35750 0.91962
 H225 H -0.05996 -0.40981 0.94881
 H226 H 0.06500 -0.41864 0.94964
 H227 H -0.05310 -0.21567 0.82880
 H228 H -0.05352 -0.15919 0.80237
 H229 H 0.06119 -0.13681 0.82639
 H230 H 0.06152 -0.19378 0.85239
 C231 C -0.03403 0.37794 0.92543
 C232 C 0.00078 0.36038 0.91743
 C233 C 0.03578 0.37283 0.92591
 C234 C 0.03600 0.40251 0.94249
 C235 C 0.00114 0.42009 0.95082
 C236 C -0.03389 0.40761 0.94200
 C237 C 0.00056 0.32900 0.90095
 C238 C 0.00031 0.30240 0.88738
 C239 C -0.00006 0.27090 0.87175
 C240 C -0.00041 0.24372 0.85863
 C241 C -0.00088 0.21093 0.84323
 C242 C 0.02213 0.20911 0.82301
 C243 C 0.02209 0.17693 0.80827
 C244 C -0.00096 0.14608 0.81361
 C245 C -0.02412 0.14830 0.83393
 C246 C -0.02406 0.18051 0.84861
 H247 H -0.06129 0.36848 0.91900
 H248 H 0.06289 0.35940 0.91986
 H249 H 0.06345 0.41142 0.94892
 H250 H -0.06122 0.42052 0.94805
 H251 H 0.04029 0.23244 0.81871
 H252 H 0.04059 0.17587 0.79294
 H253 H -0.04257 0.12529 0.83834
 H254 H -0.04204 0.18165 0.86420
 C255 C -0.37303 -0.03511 0.42605
 C256 C -0.36001 -0.00026 0.41753
 C257 C -0.37677 0.03488 0.42565
 C258 C -0.40625 0.03520 0.44237
 C259 C -0.41932 0.00031 0.45121
 C260 C -0.40250 -0.03487 0.44277
 C261 C -0.32888 -0.00060 0.40086
 C262 C -0.30248 -0.00098 0.38714
 C263 C -0.27118 -0.00153 0.37135
 C264 C -0.24412 -0.00207 0.35811
 C265 C -0.21141 -0.00277 0.34260
 C266 C -0.21564 0.01071 0.31929
 C267 C -0.18368 0.01038 0.30437
 C268 C -0.14705 -0.00350 0.31260
 C269 C -0.14317 -0.01710 0.33606
 C270 C -0.17513 -0.01672 0.35093
 H271 H -0.36022 -0.06247 0.41991
 H272 H -0.36686 0.06202 0.41920
 H273 H -0.41858 0.06276 0.44850
 H274 H -0.41188 -0.06222 0.44920
 H275 H -0.24362 0.02150 0.31265
 H276 H -0.18769 0.02061 0.28634
 H277 H -0.11529 -0.02744 0.34303
 H278 H -0.17151 -0.02709 0.36897
 C279 C 0.37163 0.03673 0.42558
 C280 C 0.35849 0.00184 0.41748
 C281 C 0.37547 -0.03326 0.42602
 C282 C 0.40529 -0.03349 0.44274
 C283 C 0.41849 0.00144 0.45116
 C284 C 0.40144 0.03658 0.44230
 C285 C 0.32697 0.00206 0.40085
 C286 C 0.30024 0.00228 0.38717
 C287 C 0.26854 0.00256 0.37145
 C288 C 0.24112 0.00280 0.35829
 C289 C 0.20796 0.00308 0.34291
 C290 C 0.20890 -0.01937 0.32246
 C291 C 0.17630 -0.01976 0.30786
 C292 C 0.14229 0.00227 0.31358
 C293 C 0.14178 0.02498 0.33408
 C294 C 0.17440 0.02535 0.34863
 H295 H 0.35863 0.06406 0.41912
 H296 H 0.36547 -0.06044 0.41990
 H297 H 0.41778 -0.06102 0.44919
 H298 H 0.41091 0.06396 0.44840
 H299 H 0.23469 -0.03683 0.31791
 H300 H 0.17746 -0.03788 0.29236
 H301 H 0.11625 0.04268 0.33879
 H302 H 0.17338 0.04290 0.36439
   
