data_POSCAR
  _audit_creation_date              2014-09-24
  _audit_creation_method            'ToBaCCo'
  _symmetry_space_group_name_H-M    'P1'
  _symmetry_Int_Tables_number       1
  _symmetry_cell_setting            triclinic
  loop_
  _symmetry_equiv_pos_as_xyz
 x,y,z
_cell_length_a 27.9080
_cell_length_b 27.9740
_cell_length_c 27.8591
_cell_angle_alpha 89.970100
_cell_angle_beta 89.965600
_cell_angle_gamma 89.878600
loop_
  _atom_site_label
  _atom_site_type_symbol
  _atom_site_fract_x
  _atom_site_fract_y
  _atom_site_fract_z
N1 N 0.55173 0.09559 0.02570
 N2 N 0.58742 0.12179 0.04231
 N3 N 0.45168 0.09740 -0.02164
 N4 N 0.41776 0.12548 -0.03872
 N5 N 0.45082 0.09704 0.02549
 N6 N 0.41620 0.12507 0.04172
 N7 N 0.55230 0.09489 -0.02143
 N8 N 0.58835 0.12027 -0.03816
 C9 C 0.61006 0.13676 0.00194
 C10 C 0.39574 0.14240 0.00110
 N11 N 0.44876 -0.02139 -0.09531
 N12 N 0.41323 -0.03674 -0.12249
 N13 N 0.55108 0.02289 -0.09535
 N14 N 0.58638 0.03853 -0.12285
 N15 N 0.54947 -0.02393 -0.09559
 N16 N 0.58567 -0.04194 -0.12477
 N17 N 0.45024 0.02549 -0.09520
 N18 N 0.41580 0.04335 -0.12223
 Mn19 Mn 0.50142 0.06056 -0.05873
 C20 C 0.39284 0.00412 -0.13890
 C21 C 0.60745 -0.00162 -0.14065
 N22 N 0.44985 0.02305 0.09847
 N23 N 0.41451 0.03919 0.12569
 N24 N 0.55042 -0.02491 0.09761
 N25 N 0.58462 -0.04224 0.12536
 N26 N 0.55074 0.02199 0.09806
 N27 N 0.58750 0.03815 0.12770
 N28 N 0.44976 -0.02389 0.09759
 N29 N 0.41431 -0.04093 0.12367
 Mn30 Mn 0.50068 0.05987 0.06243
 C31 C 0.39251 -0.00129 0.14094
 C32 C 0.60729 -0.00331 0.14356
 N33 N 0.54841 -0.09705 -0.02351
 N34 N 0.58243 -0.12473 -0.04108
 N35 N 0.44850 -0.09601 0.02426
 N36 N 0.41294 -0.12245 0.04076
 N37 N 0.44772 -0.09464 -0.02281
 N38 N 0.41160 -0.11983 -0.03967
 N39 N 0.54939 -0.09735 0.02359
 N40 N 0.58415 -0.12540 0.03936
 Mn41 Mn 0.49849 -0.05960 -0.05965
 Mn42 Mn 0.49963 -0.06091 0.06118
 Cl43 Cl 0.50004 0.00001 0.00134
 C44 C 0.60461 -0.14208 -0.00152
 C45 C 0.39010 -0.13688 0.00038
 N46 N 0.09838 0.45312 0.02485
 N47 N 0.12609 0.41850 0.04148
 N48 N 0.09472 0.55313 -0.02278
 N49 N 0.12101 0.58825 -0.03998
 N50 N 0.09471 0.55375 0.02433
 N51 N 0.12115 0.58943 0.04047
 N52 N 0.09786 0.45273 -0.02227
 N53 N 0.12486 0.41778 -0.03898
 C54 C 0.14222 0.39663 0.00113
 C55 C 0.13713 0.61079 -0.00020
 N56 N -0.02455 0.54938 -0.09641
 N57 N -0.04224 0.58354 -0.12393
 N58 N 0.02557 0.45034 -0.09575
 N59 N 0.04358 0.41622 -0.12304
 N60 N -0.02141 0.44884 -0.09605
 N61 N -0.03669 0.41357 -0.12352
 N62 N 0.02238 0.55087 -0.09593
 N63 N 0.03828 0.58836 -0.12474
 Mn64 Mn 0.06050 0.50175 -0.05952
 C65 C -0.00344 0.60734 -0.14109
 C66 C 0.00432 0.39338 -0.13997
 N67 N 0.02111 0.55156 0.09726
 N68 N 0.03612 0.58678 0.12497
 N69 N -0.02221 0.44923 0.09727
 N70 N -0.03758 0.41350 0.12415
 N71 N 0.02481 0.45111 0.09762
 N72 N 0.04268 0.41677 0.12473
 N73 N -0.02591 0.54966 0.09708
 N74 N -0.04412 0.58347 0.12462
 Mn75 Mn 0.06016 0.50245 0.06147
 C76 C -0.00504 0.60653 0.14162
 C77 C 0.00337 0.39347 0.14093
 N78 N -0.09457 0.44694 -0.02339
 N79 N -0.12082 0.41173 -0.04048
 N80 N -0.09859 0.54727 0.02351
 N81 N -0.12640 0.58203 0.03966
 N82 N -0.09765 0.54736 -0.02360
 N83 N -0.12447 0.58223 -0.04079
 N84 N -0.09498 0.44666 0.02372
 N85 N -0.12161 0.41116 0.03998
 Mn86 Mn -0.05993 0.49813 -0.06020
 Mn87 Mn -0.06084 0.49815 0.06083
 Cl88 Cl -0.00002 0.50011 0.00068
 C89 C -0.13730 0.38952 -0.00059
 C90 C -0.14215 0.60364 -0.00097
 N91 N 0.02252 0.09338 0.44841
 N92 N 0.03992 0.11916 0.41287
 N93 N -0.02422 0.09756 0.54958
 N94 N -0.03984 0.12532 0.58466
 N95 N 0.02281 0.09609 0.54931
 N96 N 0.04044 0.12245 0.58426
 N97 N -0.02450 0.09501 0.44864
 N98 N -0.04035 0.12229 0.41328
 C99 C 0.00035 0.13684 0.39108
 C100 C 0.00102 0.14044 0.60609
 N101 N -0.09817 -0.02120 0.55293
 N102 N -0.12395 -0.03711 0.58916
 N103 N -0.09874 0.02313 0.45076
 N104 N -0.12590 0.03869 0.41514
 N105 N -0.09849 -0.02378 0.45200
 N106 N -0.12513 -0.04142 0.41724
 N107 N -0.09853 0.02571 0.55175
 N108 N -0.12508 0.04300 0.58707
 Mn109 Mn -0.06196 0.06083 0.50018
 C110 C -0.14048 0.00323 0.61023
 C111 C -0.14192 -0.00212 0.39441
 N112 N 0.09454 0.02244 0.55116
 N113 N 0.12112 0.04009 0.58595
 N114 N 0.09428 -0.02725 0.45170
 N115 N 0.12160 -0.04508 0.41739
 N116 N 0.09452 0.01964 0.45022
 N117 N 0.12197 0.03501 0.41485
 N118 N 0.09456 -0.02446 0.55259
 N119 N 0.12155 -0.04002 0.58832
 Mn120 Mn 0.05893 0.05824 0.49973
 C121 C 0.13768 0.00079 0.60896
 C122 C 0.13847 -0.00580 0.39452
 N123 N -0.02675 -0.09748 0.45375
 N124 N -0.04421 -0.12387 0.41872
 N125 N 0.02040 -0.09637 0.55470
 N126 N 0.03622 -0.12382 0.58993
 N127 N -0.02661 -0.09494 0.55470
 N128 N -0.04406 -0.12104 0.59001
 N129 N 0.02026 -0.09899 0.45374
 N130 N 0.03607 -0.12673 0.41875
 Mn131 Mn -0.06285 -0.05966 0.50334
 Mn132 Mn 0.05781 -0.06220 0.50322
 Cl133 Cl -0.00202 -0.00069 0.50161
 C134 C -0.00467 -0.14186 0.39709
 C135 C -0.00450 -0.13868 0.61187
 C136 C -0.27351 0.23536 -0.00287
 C137 C -0.28496 0.20821 -0.04374
 C138 C -0.32250 0.17554 -0.04173
 C139 C -0.34815 0.16894 0.00098
 C140 C -0.33422 0.19485 0.04169
 N141 N -0.29804 0.22725 0.03867
 C142 C -0.23650 0.27340 -0.00382
 N143 N -0.21934 0.29070 0.03854
 C144 C -0.18705 0.32704 0.04062
 C145 C -0.17050 0.34853 -0.00175
 C146 C -0.18745 0.33123 -0.04573
 C147 C -0.22050 0.29403 -0.04699
 H148 H -0.33160 0.15556 -0.07375
 H149 H -0.35293 0.19045 0.07544
 H150 H -0.17487 0.33943 0.07531
 H151 H -0.17589 0.34708 -0.07927
 H152 H -0.26551 0.21177 -0.07707
 H153 H -0.23408 0.28297 -0.08152
 C154 C 0.27345 0.76477 -0.00383
 C155 C 0.28506 0.79161 -0.04492
 C156 C 0.32271 0.82417 -0.04319
 C157 C 0.34832 0.83094 -0.00052
 C158 C 0.33428 0.80532 0.04038
 N159 N 0.29798 0.77305 0.03763
 C160 C 0.23633 0.72686 -0.00441
 N161 N 0.21921 0.70982 0.03812
 C162 C 0.18689 0.67352 0.04054
 C163 C 0.17028 0.65181 -0.00163
 C164 C 0.18716 0.66887 -0.04578
 C165 C 0.22022 0.70603 -0.04739
 H166 H 0.33191 0.84392 -0.07534
 H167 H 0.35293 0.80990 0.07411
 H168 H 0.17476 0.66132 0.07534
 H169 H 0.17555 0.65286 -0.07919
 H170 H 0.26563 0.78789 -0.07822
 H171 H 0.23375 0.71689 -0.08204
 C172 C 0.28172 0.24478 -0.00321
 C173 C 0.30350 0.22937 -0.04604
 C174 C 0.34012 0.19551 -0.04438
 C175 C 0.35579 0.17714 -0.00030
 C176 C 0.33344 0.19343 0.04177
 N177 N 0.29759 0.22646 0.03929
 C178 C 0.24355 0.28191 -0.00282
 N179 N 0.23408 0.30579 0.03879
 C180 C 0.20107 0.34161 0.04142
 C181 C 0.17579 0.35575 0.00027
 C182 C 0.18394 0.33089 -0.04260
 C183 C 0.21728 0.29379 -0.04424
 H184 H 0.35668 0.18428 -0.07770
 H185 H 0.34461 0.18023 0.07654
 H186 H 0.19549 0.35969 0.07530
 H187 H 0.16454 0.34014 -0.07497
 H188 H 0.29366 0.24387 -0.08060
 H189 H 0.22189 0.27485 -0.07771
 C190 C -0.28129 0.75574 -0.00646
 C191 C -0.30290 0.77149 -0.04926
 C192 C -0.33953 0.80535 -0.04746
 C193 C -0.35532 0.82336 -0.00327
 C194 C -0.33305 0.80685 0.03872
 N195 N -0.29723 0.77383 0.03610
 C196 C -0.24329 0.71846 -0.00601
 N197 N -0.23366 0.69507 0.03585
 C198 C -0.20075 0.65921 0.03877
 C199 C -0.17569 0.64450 -0.00232
 C200 C -0.18404 0.66880 -0.04550
 C201 C -0.21733 0.70595 -0.04746
 H202 H -0.35604 0.81682 -0.08071
 H203 H -0.34427 0.81981 0.07356
 H204 H -0.19503 0.64157 0.07288
 H205 H -0.16484 0.65907 -0.07786
 H206 H -0.29294 0.75726 -0.08389
 H207 H -0.22212 0.72442 -0.08117
 C208 C -0.01088 -0.27983 0.24405
 C209 C -0.05349 -0.30169 0.22849
 C210 C -0.05149 -0.33816 0.19446
 C211 C -0.00730 -0.35344 0.17609
 C212 C 0.03444 -0.33080 0.19234
 N213 N 0.03164 -0.29524 0.22553
 C214 C -0.01043 -0.24220 0.28165
 N215 N 0.03156 -0.23240 0.30456
 C216 C 0.03466 -0.19978 0.34063
 C217 C -0.00636 -0.17516 0.35604
 C218 C -0.04973 -0.18370 0.33226
 C219 C -0.05190 -0.21676 0.29491
 H220 H -0.08454 -0.35496 0.18318
 H221 H 0.06928 -0.34161 0.17909
 H222 H 0.06890 -0.19392 0.35785
 H223 H -0.08208 -0.16484 0.34257
 H224 H -0.08807 -0.29208 0.24303
 H225 H -0.08576 -0.22177 0.27687
 C226 C 0.00891 0.27888 0.75855
 C227 C 0.05178 0.30032 0.77400
 C228 C 0.05022 0.33707 0.80775
 C229 C 0.00620 0.35304 0.82592
 C230 C -0.03581 0.33078 0.80984
 N231 N -0.03343 0.29495 0.77693
 C232 C 0.00797 0.24105 0.72119
 N233 N -0.03417 0.23160 0.69839
 C234 C -0.03769 0.19886 0.66247
 C235 C 0.00305 0.17376 0.64710
 C236 C 0.04654 0.18191 0.67080
 C237 C 0.04913 0.21508 0.70800
 H238 H 0.08346 0.35356 0.81895
 H239 H -0.07053 0.34211 0.82297
 H240 H -0.07201 0.19331 0.64531
 H241 H 0.07867 0.16267 0.66053
 H242 H 0.08625 0.29016 0.75957
 H243 H 0.08307 0.21980 0.72597
 C244 C 0.00772 0.27700 0.24021
 C245 C 0.05059 0.29906 0.22561
 C246 C 0.04909 0.33652 0.19262
 C247 C 0.00515 0.35254 0.17436
 C248 C -0.03687 0.32967 0.18962
 N249 N -0.03456 0.29317 0.22183
 C250 C 0.00677 0.23846 0.27683
 N251 N -0.03528 0.22882 0.29978
 C252 C -0.03868 0.19559 0.33529
 C253 C 0.00209 0.17021 0.35008
 C254 C 0.04544 0.17846 0.32610
 C255 C 0.04790 0.21212 0.28930
 H256 H 0.08232 0.35347 0.18207
 H257 H -0.07153 0.34103 0.17640
 H258 H -0.07289 0.18997 0.35268
 H259 H 0.07759 0.15903 0.33594
 H260 H 0.08497 0.28885 0.24019
 H261 H 0.08173 0.21701 0.27111
 C262 C -0.01050 -0.27941 0.76249
 C263 C -0.05297 -0.30097 0.77882
 C264 C -0.05063 -0.33848 0.81174
 C265 C -0.00610 -0.35532 0.82837
 C266 C 0.03552 -0.33249 0.81137
 N267 N 0.03222 -0.29598 0.77931
 C268 C -0.01025 -0.24088 0.72576
 N269 N 0.03175 -0.23050 0.70306
 C270 C 0.03486 -0.19716 0.66764
 C271 C -0.00618 -0.17236 0.65265
 C272 C -0.04958 -0.18143 0.67625
 C273 C -0.05175 -0.21525 0.71297
 H274 H -0.08389 -0.35470 0.82343
 H275 H 0.07079 -0.34380 0.82300
 H276 H 0.06911 -0.19095 0.65053
 H277 H -0.08195 -0.16250 0.66621
 H278 H -0.08780 -0.29029 0.76576
 H279 H -0.08567 -0.22076 0.73078
 C280 C 0.27703 0.00866 0.76082
 C281 C 0.29900 0.05139 0.77568
 C282 C 0.33618 0.04982 0.80903
 C283 C 0.35207 0.00595 0.82739
 C284 C 0.32927 -0.03593 0.81190
 N285 N 0.29301 -0.03355 0.77937
 C286 C 0.23876 0.00772 0.72381
 N287 N 0.22857 -0.03449 0.70164
 C288 C 0.19553 -0.03801 0.66592
 C289 C 0.17096 0.00280 0.65004
 C290 C 0.17982 0.04637 0.67314
 C291 C 0.21322 0.04896 0.71020
 H292 H 0.35308 0.08296 0.81976
 H293 H 0.34051 -0.07054 0.82521
 H294 H 0.18943 -0.07238 0.64922
 H295 H 0.16099 0.07856 0.66246
 H296 H 0.28896 0.08574 0.76109
 H297 H 0.21850 0.08300 0.72766
 C298 C -0.28095 -0.00948 0.24200
 C299 C -0.30132 -0.05203 0.22460
 C300 C -0.33829 -0.04996 0.19100
 C301 C -0.35582 -0.00565 0.17473
 C302 C -0.33419 0.03606 0.19279
 N303 N -0.29815 0.03303 0.22547
 C304 C -0.24292 -0.00894 0.27936
 N305 N -0.23260 0.03324 0.30155
 C306 C -0.19968 0.03670 0.33738
 C307 C -0.17530 -0.00415 0.35338
 C308 C -0.18438 -0.04775 0.33042
 C309 C -0.21772 -0.05030 0.29327
 H310 H -0.35358 -0.08329 0.17850
 H311 H -0.34605 0.07118 0.18148
 H312 H -0.19347 0.07109 0.35400
 H313 H -0.16577 -0.08001 0.34125
 H314 H -0.29013 -0.08679 0.23720
 H315 H -0.22315 -0.08442 0.27607
 C316 C 0.27705 -0.00796 0.24140
 C317 C 0.28977 -0.04876 0.21480
 C318 C 0.32699 -0.04614 0.18158
 C319 C 0.35117 -0.00294 0.17396
 C320 C 0.33616 0.03754 0.19954
 N321 N 0.30020 0.03398 0.23239
 C322 C 0.23982 -0.00922 0.27947
 N323 N 0.22106 0.03281 0.29561
 C324 C 0.18819 0.03478 0.33163
 C325 C 0.17257 -0.00734 0.35401
 C326 C 0.19121 -0.05104 0.33801
 C327 C 0.22491 -0.05219 0.30107
 H328 H 0.33695 -0.07807 0.16195
 H329 H 0.35371 0.07163 0.19440
 H330 H 0.17471 0.06927 0.34300
 H331 H 0.18041 -0.08433 0.35463
 H332 H 0.27144 -0.08246 0.21914
 H333 H 0.23976 -0.08640 0.29088
 C334 C -0.27895 -0.00229 0.76286
 C335 C -0.29912 -0.04563 0.77825
 C336 C -0.33668 -0.04528 0.81110
 C337 C -0.35516 -0.00184 0.82864
 C338 C -0.33393 0.04085 0.81237
 N339 N -0.29715 0.03949 0.78024
 C340 C -0.24024 -0.00082 0.72632
 N341 N -0.23326 0.04007 0.70059
 C342 C -0.20040 0.04302 0.66455
 C343 C -0.17290 0.00289 0.65207
 C344 C -0.17825 -0.03898 0.67911
 C345 C -0.21133 -0.04086 0.71647
 H346 H -0.35166 -0.07931 0.82202
 H347 H -0.34668 0.07532 0.82466
 H348 H -0.19695 0.07612 0.64474
 H349 H -0.15700 -0.07046 0.67121
 H350 H -0.28732 -0.07971 0.76432
 H351 H -0.21394 -0.07350 0.73706
   
