data_POSCAR
  _audit_creation_date              2014-09-24
  _audit_creation_method            'ToBaCCo'
  _symmetry_space_group_name_H-M    'P1'
  _symmetry_Int_Tables_number       1
  _symmetry_cell_setting            triclinic
  loop_
  _symmetry_equiv_pos_as_xyz
 x,y,z
_cell_length_a 16.9991
_cell_length_b 17.0240
_cell_length_c 16.9421
_cell_angle_alpha 89.785500
_cell_angle_beta 90.184200
_cell_angle_gamma 89.839600
loop_
  _atom_site_label
  _atom_site_type_symbol
  _atom_site_fract_x
  _atom_site_fract_y
  _atom_site_fract_z
C1 C 0.15839 0.15783 0.25462
 N2 N 0.12502 0.22150 0.21964
 C3 C 0.15713 0.25245 0.15332
 N4 N 0.22199 0.21913 0.12108
 C5 C 0.25554 0.15538 0.15582
 N6 N 0.22293 0.12389 0.22187
 C7 C -0.15216 0.84507 0.25563
 N8 N -0.21795 0.87838 0.22411
 C9 C -0.25360 0.84509 0.16069
 N10 N -0.22192 0.77987 0.12748
 C11 C -0.15618 0.74666 0.15890
 N12 N -0.12096 0.77964 0.22255
 C13 C -0.16108 0.15473 -0.25468
 N14 N -0.22495 0.12049 -0.22147
 C15 C -0.25873 0.15311 -0.15690
 N16 N -0.22746 0.21890 -0.12448
 C17 C -0.16368 0.25318 -0.15786
 N18 N -0.13005 0.22054 -0.22240
 C19 C 0.15974 0.84798 -0.25391
 N20 N 0.12495 0.78309 -0.22332
 C21 C 0.15624 0.74706 -0.15898
 N22 N 0.22154 0.77699 -0.12393
 C23 C 0.25652 0.84195 -0.15437
 N24 N 0.22494 0.87801 -0.21884
 C25 C 0.15684 1.15826 0.74521
 N26 N 0.12359 1.22355 0.77706
 C27 C 0.15539 1.25658 0.84277
 N28 N 0.21888 1.22277 0.87794
 C29 C 0.25157 1.15723 0.84654
 N30 N 0.22017 1.12466 0.78070
 C31 C 0.84550 0.84683 0.74326
 N32 N 0.78138 0.87980 0.77741
 C33 C 0.74804 0.84522 0.84128
 N34 N 0.77997 0.77864 0.87213
 C35 C 0.84397 0.74532 0.83796
 N36 N 0.87731 0.78007 0.77406
 C37 C 0.15572 0.84139 1.25703
 N38 N 0.12049 0.77841 1.22326
 C39 C 0.15267 0.74480 1.15840
 N40 N 0.21895 0.77520 1.12620
 C41 C 0.25402 0.83829 1.15973
 N42 N 0.22186 0.87194 1.22458
 C43 C 0.84894 1.15823 1.25292
 N44 N 0.78305 1.12466 1.22307
 C45 C 0.74667 1.15684 1.15939
 N46 N 0.77681 1.22205 1.12461
 C47 C 0.84269 1.25583 1.15435
 N48 N 0.87948 1.22314 1.21784
 O49 O 0.38893 1.14012 1.14073
 O50 O 0.30303 1.06485 1.06866
 C51 C 0.31858 1.11874 1.12012
 O52 O 0.60853 1.13608 0.85834
 O53 O 0.69578 1.06490 0.93401
 C54 C 0.67919 1.11603 0.87959
 O55 O 0.38799 1.14086 0.86485
 O56 O 0.30240 1.06488 0.93677
 C57 C 0.31789 1.11926 0.88550
 O58 O 0.60990 1.13709 1.14483
 O59 O 0.69624 1.06494 1.07007
 C60 C 0.68026 1.11687 1.12329
 Zr61 Zr 0.49963 1.09713 1.10223
 O62 O 0.50608 1.22132 1.10197
 O63 O 0.49262 1.09539 1.22699
 Zr64 Zr 0.49875 1.09699 0.90232
 O65 O 0.50586 1.22111 0.90090
 O66 O 0.48989 1.09510 0.77763
 O67 O 0.42895 1.11221 1.00231
 O68 O 0.56707 1.11187 1.00208
 O69 O 0.61258 0.86119 1.14695
 O70 O 0.69770 0.93239 1.06989
 C71 C 0.68278 0.88166 1.12498
 O72 O 0.38996 0.85485 0.86407
 O73 O 0.30360 0.92930 0.93639
 C74 C 0.31943 0.87598 0.88439
 O75 O 0.61111 0.86136 0.85918
 O76 O 0.69709 0.93381 0.93423
 C77 C 0.68143 0.88256 0.88017
 O78 O 0.39101 0.85462 1.14169
 O79 O 0.30409 0.92925 1.06890
 C80 C 0.32043 0.87566 1.12084
 Zr81 Zr 0.50127 0.89844 1.10291
 O82 O 0.51024 0.77438 1.10230
 O83 O 0.49390 0.89851 1.22763
 Zr84 Zr 0.50031 0.89838 0.90328
 O85 O 0.50914 0.77429 0.90579
 O86 O 0.49214 0.89765 0.77858
 Zr87 Zr 0.38303 0.99733 1.00274
 Zr88 Zr 0.61693 0.99857 1.00251
 O89 O 0.56916 0.88459 1.00302
 O90 O 0.43053 0.88275 1.00321
 O91 O 0.57088 0.99821 1.11793
 O92 O 0.43128 0.99744 0.88849
 O93 O 0.43229 0.99746 1.11693
 O94 O 0.56971 0.99809 0.88728
 H95 H 0.60179 1.15852 1.00164
 H96 H 0.39579 0.99754 0.84199
 H97 H 0.60498 0.83858 1.00305
 H98 H 0.39716 0.99732 1.16348
 H99 H 0.53581 1.06571 0.75736
 H100 H 0.53485 0.93126 0.75803
 H101 H 0.46338 0.75409 0.93544
 H102 H 0.46542 0.75406 1.07119
 H103 H 0.53752 0.93120 1.24776
 H104 H 0.53885 1.06602 1.24709
 H105 H 0.46162 1.24129 1.06982
 H106 H 0.46342 1.24134 0.93512
 O107 O -0.14545 0.38902 0.13548
 O108 O -0.06976 0.30310 0.06393
 C109 C -0.12343 0.31871 0.11569
 O110 O -0.14025 0.61162 -0.14766
 O111 O -0.06861 0.69691 -0.07128
 C112 C -0.11964 0.68180 -0.12607
 O113 O -0.14707 0.39010 -0.14068
 O114 O -0.07146 0.30360 -0.06836
 C115 C -0.12580 0.31968 -0.11966
 O116 O -0.14009 0.60993 0.14086
 O117 O -0.06835 0.69608 0.06533
 C118 C -0.11923 0.68021 0.11972
 Zr119 Zr -0.10287 0.49964 0.09620
 O120 O -0.22717 0.50802 0.09287
 O121 O -0.10473 0.49140 0.22086
 Zr122 Zr -0.10289 0.50059 -0.10321
 O123 O -0.22713 0.50948 -0.10286
 O124 O -0.10285 0.49271 -0.22787
 O125 O -0.11816 0.42985 -0.00350
 O126 O -0.11705 0.56847 -0.00346
 O127 O 0.13425 0.60880 0.14132
 O128 O 0.06252 0.69566 0.06565
 C129 C 0.11367 0.67920 0.12010
 O130 O 0.14005 0.38991 -0.14181
 O131 O 0.06441 0.30393 -0.07031
 C132 C 0.11859 0.31958 -0.12154
 O133 O 0.13632 0.61031 -0.14491
 O134 O 0.06334 0.69608 -0.07045
 C135 C 0.11582 0.68049 -0.12334
 O136 O 0.14018 0.38858 0.13510
 O137 O 0.06498 0.30283 0.06273
 C138 C 0.11900 0.31852 0.11431
 Zr139 Zr 0.09638 0.49897 0.09691
 O140 O 0.22068 0.50685 0.09656
 O141 O 0.09626 0.49020 0.22161
 Zr142 Zr 0.09613 0.49991 -0.10288
 O143 O 0.22045 0.50664 -0.10340
 O144 O 0.09319 0.49327 -0.22765
 Zr145 Zr -0.00315 0.38297 -0.00308
 Zr146 Zr -0.00309 0.61653 -0.00293
 O147 O 0.11066 0.56735 -0.00275
 O148 O 0.11172 0.42925 -0.00300
 O149 O -0.00318 0.56917 0.11220
 O150 O -0.00348 0.43212 -0.11732
 O151 O -0.00316 0.43140 0.11106
 O152 O -0.00326 0.57057 -0.11835
 H153 H -0.16314 0.60423 -0.00355
 H154 H -0.00380 0.39695 -0.16378
 H155 H 0.15720 0.60225 -0.00216
 H156 H -0.00284 0.39620 0.15776
 H157 H -0.06958 0.53581 -0.24815
 H158 H 0.06562 0.54066 -0.24753
 H159 H 0.24063 0.46354 -0.06960
 H160 H 0.24102 0.46229 0.06529
 H161 H 0.06442 0.53433 0.24205
 H162 H -0.06976 0.53286 0.24159
 H163 H -0.24723 0.46100 0.06530
 H164 H -0.24743 0.46564 -0.07041
 O165 O 1.14723 -0.13412 0.61240
 O166 O 1.07046 -0.06314 0.69794
 C167 C 1.12521 -0.11394 0.68278
 O168 O 1.14110 0.14455 0.38866
 O169 O 1.07042 0.06842 0.30221
 C170 C 1.12152 0.12247 0.31796
 O171 O 1.14344 0.14170 0.61111
 O172 O 1.06847 0.06931 0.69720
 C173 C 1.12170 0.12138 0.68172
 O174 O 1.14129 -0.14133 0.39046
 O175 O 1.06905 -0.06685 0.30285
 C176 C 1.12027 -0.12096 0.31951
 Zr177 Zr 1.10339 -0.09693 0.50094
 O178 O 1.22767 -0.09560 0.49340
 O179 O 1.10435 -0.22098 0.51019
 Zr180 Zr 1.10200 0.10175 0.49981
 O181 O 1.22639 0.10073 0.49369
 O182 O 1.10100 0.22591 0.50616
 O183 O 1.11769 0.00266 0.57111
 O184 O 1.11728 0.00218 0.43203
 O185 O 0.86549 -0.14120 0.38898
 O186 O 0.93696 -0.06590 0.30249
 C187 C 0.88552 -0.11966 0.31837
 O188 O 0.85753 0.13783 0.60842
 O189 O 0.93333 0.06697 0.69607
 C190 C 0.87847 0.11731 0.67931
 O191 O 0.86563 0.14442 0.38652
 O192 O 0.93849 0.06948 0.30093
 C193 C 0.88681 0.12337 0.31614
 O194 O 0.86110 -0.13701 0.60986
 O195 O 0.93452 -0.06394 0.69664
 C196 C 0.88148 -0.11606 0.68055
 Zr197 Zr 0.90429 -0.09774 0.49937
 O198 O 0.77997 -0.09723 0.49113
 O199 O 0.90602 -0.22189 0.50739
 Zr200 Zr 0.90306 0.10106 0.49806
 O201 O 0.77887 0.10140 0.48848
 O202 O 0.90356 0.22516 0.50599
 Zr203 Zr 1.00248 0.00215 0.61684
 Zr204 Zr 1.00365 0.00166 0.38221
 O205 O 0.88963 0.00154 0.43028
 O206 O 0.88786 0.00168 0.56898
 O207 O 1.00419 -0.11293 0.42978
 O208 O 1.00192 0.11577 0.56727
 O209 O 1.00365 -0.11156 0.56859
 O210 O 1.00284 0.11657 0.42829
 H211 H 1.16374 0.00181 0.39688
 H212 H 1.00088 0.16214 0.60242
 H213 H 0.84332 0.00169 0.39462
 H214 H 1.00403 -0.15779 0.60428
 H215 H 1.06939 0.24567 0.46113
 H216 H 0.93448 0.24548 0.46101
 H217 H 0.75835 0.06712 0.53088
 H218 H 0.75952 -0.06714 0.53653
 H219 H 0.93705 -0.24184 0.46238
 H220 H 1.07165 -0.24164 0.46662
 H221 H 1.24750 -0.06313 0.53743
 H222 H 1.24624 0.07182 0.54046
   
