data_POSCAR
  _audit_creation_date              2014-09-24
  _audit_creation_method            'ToBaCCo'
  _symmetry_space_group_name_H-M    'P1'
  _symmetry_Int_Tables_number       1
  _symmetry_cell_setting            triclinic
  loop_
  _symmetry_equiv_pos_as_xyz
 x,y,z
_cell_length_a 54.6062
_cell_length_b 53.6044
_cell_length_c 53.9887
_cell_angle_alpha 89.346700
_cell_angle_beta 90.410700
_cell_angle_gamma 91.720000
loop_
  _atom_site_label
  _atom_site_type_symbol
  _atom_site_fract_x
  _atom_site_fract_y
  _atom_site_fract_z
N1 N 0.62276 0.62900 0.62394
 N2 N 0.87814 0.37433 0.12468
 N3 N 0.37343 0.12234 -0.12440
 N4 N 0.12443 0.87460 0.37520
 N5 N 0.09360 0.16532 0.11099
 N6 N 0.08463 0.15552 0.13154
 C7 C 0.06473 0.16809 0.13805
 C8 C 0.06099 0.18685 0.12066
 C9 C 0.07972 0.18443 0.10372
 H10 H 0.05386 0.16394 0.15430
 H11 H 0.08338 0.19602 0.08759
 Cu12 Cu 0.10020 0.12766 0.14809
 Cu13 Cu 0.12319 0.15328 0.09575
 Cu14 Cu 0.15214 0.10473 0.12591
 N15 N 0.11610 0.09982 0.16431
 N16 N 0.13662 0.09121 0.15573
 C17 C 0.14363 0.07201 0.17010
 C18 C 0.12656 0.06825 0.18874
 C19 C 0.10934 0.08631 0.18444
 H20 H 0.15967 0.06122 0.16683
 H21 H 0.09311 0.08940 0.19518
 N22 N 0.16486 0.12075 0.09541
 N23 N 0.15340 0.13860 0.08342
 C24 C 0.16604 0.14477 0.06278
 C25 C 0.18654 0.13028 0.06188
 C26 C 0.18522 0.11531 0.08288
 H27 H 0.16093 0.15899 0.04952
 H28 H 0.19791 0.10112 0.08829
 H29 H 0.12033 0.11720 0.10958
 H30 H 0.13864 0.14030 0.12824
 N31 N 0.40690 0.83765 0.61244
 N32 N 0.41592 0.84706 0.63306
 C33 C 0.43610 0.83466 0.63959
 C34 C 0.43999 0.81649 0.62210
 C35 C 0.42105 0.81902 0.60512
 H36 H 0.44710 0.83854 0.65588
 H37 H 0.41743 0.80776 0.58895
 Cu38 Cu 0.40018 0.87431 0.64959
 Cu39 Cu 0.37690 0.84945 0.59721
 Cu40 Cu 0.34706 0.89620 0.62770
 N41 N 0.38334 0.90074 0.66629
 N42 N 0.36246 0.90902 0.65779
 C43 C 0.35501 0.92740 0.67246
 C44 C 0.37216 0.93095 0.69124
 C45 C 0.38988 0.91361 0.68670
 H46 H 0.33862 0.93781 0.66929
 H47 H 0.40636 0.91063 0.69739
 N48 N 0.33447 0.88096 0.59692
 N49 N 0.34625 0.86376 0.58487
 C50 C 0.33356 0.85787 0.56415
 C51 C 0.31271 0.87188 0.56322
 C52 C 0.31387 0.88627 0.58431
 H53 H 0.33888 0.84413 0.55087
 H54 H 0.30088 0.89996 0.58978
 H55 H 0.37895 0.88520 0.61123
 H56 H 0.36170 0.86107 0.62991
 N57 N 0.90124 0.65996 0.38729
 N58 N 0.91423 0.64645 0.37239
 C59 C 0.93492 0.65930 0.36634
 C60 C 0.93487 0.68218 0.37801
 C61 C 0.91315 0.68193 0.39112
 H62 H 0.94884 0.65259 0.35415
 H63 H 0.90674 0.69643 0.40300
 Cu64 Cu 0.90295 0.61345 0.36209
 Cu65 Cu 0.87051 0.64751 0.40153
 Cu66 Cu 0.84649 0.59216 0.37811
 N67 N 0.88689 0.58551 0.34532
 N68 N 0.86491 0.57721 0.35163
 C69 C 0.85819 0.55809 0.33689
 C70 C 0.87696 0.55415 0.32032
 C71 C 0.89489 0.57200 0.32632
 H72 H 0.84083 0.54795 0.33815
 H73 H 0.91235 0.57526 0.31736
 N74 N 0.83078 0.61035 0.40492
 N75 N 0.83977 0.63166 0.41359
 C76 C 0.82518 0.63937 0.43179
 C77 C 0.80606 0.62206 0.43482
 C78 C 0.81026 0.60391 0.41742
 H79 H 0.82858 0.65605 0.44249
 H80 H 0.79919 0.58722 0.41409
 H81 H 0.87517 0.60962 0.39717
 H82 H 0.86184 0.62704 0.37023
 N83 N 0.59931 0.33439 -0.11601
 N84 N 0.58838 0.34576 -0.13454
 C85 C 0.56828 0.33223 -0.14122
 C86 C 0.56663 0.31117 -0.12619
 C87 C 0.58670 0.31312 -0.11046
 H88 H 0.55576 0.33726 -0.15592
 H89 H 0.59134 0.30041 -0.09557
 Cu90 Cu 0.60145 0.37719 -0.14797
 Cu91 Cu 0.62807 0.34887 -0.09939
 Cu92 Cu 0.65023 0.40618 -0.12154
 N93 N 0.61485 0.40862 -0.16107
 N94 N 0.63337 0.42032 -0.15012
 C95 C 0.63884 0.44156 -0.16272
 C96 C 0.62307 0.44310 -0.18282
 C97 C 0.60811 0.42187 -0.18120
 H98 H 0.65372 0.45448 -0.15812
 H99 H 0.59341 0.41653 -0.19377
 N100 N 0.66487 0.38870 -0.09298
 N101 N 0.65681 0.36662 -0.08496
 C102 C 0.67097 0.35933 -0.06584
 C103 C 0.68881 0.37769 -0.06155
 C104 C 0.68434 0.39604 -0.07912
 H105 H 0.66831 0.34204 -0.05559
 H106 H 0.69476 0.41328 -0.08190
 H107 H 0.62060 0.38555 -0.10786
 H108 H 0.64135 0.36938 -0.12938
 C109 C -0.06808 0.31822 0.12279
 C110 C -0.06132 0.34306 0.12836
 C111 C -0.07894 0.36141 0.12901
 C112 C -0.10367 0.35533 0.12408
 C113 C -0.11047 0.33052 0.11857
 C114 C -0.09287 0.31216 0.11793
 C115 C -0.04935 0.29872 0.12211
 C116 C -0.05435 0.27480 0.13212
 C117 C -0.03666 0.25651 0.13164
 C118 C -0.01358 0.26169 0.12109
 C119 C -0.00862 0.28557 0.11097
 C120 C -0.02630 0.30388 0.11149
 C121 C 0.00532 0.24234 0.12083
 C122 C 0.02013 0.23942 0.09995
 C123 C 0.03808 0.22137 0.09984
 C124 C 0.04168 0.20580 0.12062
 C125 C 0.02676 0.20870 0.14146
 C126 C 0.00881 0.22673 0.14156
 H127 H -0.04243 0.34826 0.13249
 H128 H -0.07328 0.38043 0.13322
 H129 H -0.12946 0.32539 0.11486
 H130 H -0.09862 0.29325 0.11334
 H131 H -0.07185 0.27032 0.14064
 H132 H -0.04113 0.23821 0.13936
 H133 H 0.00907 0.29022 0.10293
 H134 H -0.02199 0.32204 0.10339
 H135 H 0.01765 0.25092 0.08356
 H136 H 0.04898 0.21958 0.08334
 H137 H 0.02906 0.19731 0.15792
 H138 H -0.00206 0.22877 0.15807
 C139 C 0.57004 0.68615 0.62293
 C140 C 0.57462 0.67246 0.60148
 C141 C 0.59199 0.65386 0.60181
 C142 C 0.60507 0.64849 0.62360
 C143 C 0.60073 0.66229 0.64499
 C144 C 0.58338 0.68095 0.64467
 C145 C 0.55125 0.70560 0.62266
 C146 C 0.55560 0.72842 0.63472
 C147 C 0.53785 0.74668 0.63446
 C148 C 0.51533 0.74251 0.62218
 C149 C 0.51099 0.71966 0.61015
 C150 C 0.52875 0.70144 0.61037
 C151 C 0.49635 0.76180 0.62203
 C152 C 0.48232 0.76631 0.60061
 C153 C 0.46415 0.78413 0.60059
 C154 C 0.45960 0.79790 0.62199
 C155 C 0.47379 0.79354 0.64335
 C156 C 0.49193 0.77569 0.64337
 H157 H 0.56488 0.67626 0.58438
 H158 H 0.59510 0.64344 0.58512
 H159 H 0.61079 0.65856 0.66192
 H160 H 0.58011 0.69103 0.66153
 H161 H 0.57290 0.73230 0.64404
 H162 H 0.54189 0.76422 0.64358
 H163 H 0.49367 0.71569 0.60090
 H164 H 0.52470 0.68388 0.60127
 H165 H 0.48555 0.75623 0.58374
 H166 H 0.45385 0.78718 0.58370
 H167 H 0.47068 0.80356 0.66026
 H168 H 0.50218 0.77241 0.66028
 C169 C 1.06701 0.81860 0.37537
 C170 C 1.07612 0.82852 0.39775
 C171 C 1.09472 0.84700 0.39769
 C172 C 1.10488 0.85578 0.37529
 C173 C 1.09574 0.84599 0.35293
 C174 C 1.07696 0.82770 0.35295
 C175 C 1.04734 0.79876 0.37542
 C176 C 1.04744 0.77940 0.35806
 C177 C 1.02905 0.76070 0.35815
 C178 C 1.01019 0.76073 0.37575
 C179 C 1.01011 0.78007 0.39313
 C180 C 1.02838 0.79890 0.39290
 C181 C 0.99079 0.74062 0.37607
 C182 C 0.96647 0.74595 0.38198
 C183 C 0.94834 0.72699 0.38263
 C184 C 0.95404 0.70229 0.37713
 C185 C 0.97826 0.69695 0.37098
 C186 C 0.99645 0.71586 0.37059
 H187 H 1.06913 0.82176 0.41538
 H188 H 1.10125 0.85443 0.41518
 H189 H 1.10326 0.85241 0.33540
 H190 H 1.07012 0.82084 0.33536
 H191 H 1.06192 0.77848 0.34455
 H192 H 1.02953 0.74632 0.34427
 H193 H 0.99607 0.78054 0.40716
 H194 H 1.02751 0.81368 0.40633
 H195 H 0.96133 0.76486 0.38582
 H196 H 0.92979 0.73177 0.38712
 H197 H 0.98331 0.67806 0.36696
 H198 H 1.01504 0.71096 0.36642
 C199 C 0.43192 0.17726 -0.12508
 C200 C 0.42242 0.16743 -0.14734
 C201 C 0.40325 0.14960 -0.14708
 C202 C 0.39328 0.14085 -0.12457
 C203 C 0.40302 0.15031 -0.10229
 C204 C 0.42195 0.16844 -0.10254
 C205 C 0.45200 0.19671 -0.12540
 C206 C 0.47012 0.19734 -0.10676
 C207 C 0.48874 0.21581 -0.10693
 C208 C 0.48995 0.23397 -0.12594
 C209 C 0.47197 0.23317 -0.14471
 C210 C 0.45316 0.21493 -0.14435
 C211 C 0.50973 0.25374 -0.12611
 C212 C 0.50501 0.27800 -0.13475
 C213 C 0.52355 0.29653 -0.13503
 C214 C 0.54715 0.29139 -0.12629
 C215 C 0.55193 0.26726 -0.11749
 C216 C 0.53349 0.24860 -0.11757
 H217 H 0.42992 0.17335 -0.16503
 H218 H 0.39609 0.14266 -0.16453
 H219 H 0.39591 0.14368 -0.08467
 H220 H 0.42852 0.17578 -0.08504
 H221 H 0.47008 0.18344 -0.09206
 H222 H 0.50203 0.21600 -0.09196
 H223 H 0.47246 0.24656 -0.15987
 H224 H 0.43936 0.21532 -0.15883
 H225 H 0.48685 0.28286 -0.14096
 H226 H 0.51922 0.31505 -0.14160
 H227 H 0.57004 0.26268 -0.11090
 H228 H 0.53797 0.23005 -0.11123
 C229 C 0.12500 -0.06762 0.32017
 C230 C 0.14640 -0.08061 0.32567
 C231 C 0.14620 -0.09955 0.34367
 C232 C 0.12461 -0.10591 0.35651
 C233 C 0.10320 -0.09304 0.35102
 C234 C 0.10338 -0.07407 0.33305
 C235 C 0.12522 -0.04743 0.30108
 C236 C 0.10532 -0.04487 0.28468
 C237 C 0.10554 -0.02589 0.26672
 C238 C 0.12568 -0.00906 0.26471
 C239 C 0.14557 -0.01160 0.28110
 C240 C 0.14534 -0.03055 0.29910
 C241 C 0.12598 0.01097 0.24549
 C242 C 0.14740 0.01668 0.23205
 C243 C 0.14761 0.03530 0.21372
 C244 C 0.12642 0.04873 0.20846
 C245 C 0.10505 0.04313 0.22206
 C246 C 0.10483 0.02443 0.24032
 H247 H 0.16324 -0.07636 0.31582
 H248 H 0.16284 -0.10944 0.34748
 H249 H 0.08641 -0.09753 0.36089
 H250 H 0.08669 -0.06419 0.32951
 H251 H 0.08973 -0.05781 0.28546
 H252 H 0.09011 -0.02464 0.25410
 H253 H 0.16119 0.00131 0.28024
 H254 H 0.16077 -0.03176 0.31172
 H255 H 0.16392 0.00646 0.23544
 H256 H 0.16445 0.03919 0.20379
 H257 H 0.08835 0.05294 0.21847
 H258 H 0.08812 0.02064 0.25057
 C259 C 0.62332 0.57467 -0.31752
 C260 C 0.64515 0.58203 -0.32945
 C261 C 0.64502 0.60002 -0.34838
 C262 C 0.62296 0.61068 -0.35613
 C263 C 0.60109 0.60310 -0.34420
 C264 C 0.60131 0.58547 -0.32494
 C265 C 0.62345 0.55559 -0.29753
 C266 C 0.61218 0.56003 -0.27477
 C267 C 0.61236 0.54198 -0.25588
 C268 C 0.62337 0.51900 -0.25965
 C269 C 0.63450 0.51450 -0.28247
 C270 C 0.63475 0.53275 -0.30117
 C271 C 0.62312 0.49966 -0.23989
 C272 C 0.61509 0.47515 -0.24508
 C273 C 0.61477 0.45685 -0.22644
 C274 C 0.62292 0.46263 -0.20238
 C275 C 0.63112 0.48713 -0.19724
 C276 C 0.63098 0.50556 -0.21578
 H277 H 0.66236 0.57408 -0.32387
 H278 H 0.66220 0.60567 -0.35693
 H279 H 0.58376 0.61068 -0.34992
 H280 H 0.58422 0.57989 -0.31613
 H281 H 0.60347 0.57758 -0.27154
 H282 H 0.60357 0.54577 -0.23846
 H283 H 0.64320 0.49696 -0.28571
 H284 H 0.64343 0.52889 -0.31864
 H285 H 0.60884 0.47024 -0.26353
 H286 H 0.60854 0.43808 -0.23098
 H287 H 0.63737 0.49212 -0.17883
 H288 H 0.63734 0.52434 -0.21142
 C289 C 0.37275 1.06410 0.82236
 C290 C 0.35146 1.07742 0.82688
 C291 C 0.35167 1.09643 0.84437
 C292 C 0.37314 1.10252 0.85770
 C293 C 0.39439 1.08920 0.85331
 C294 C 0.39421 1.07018 0.83583
 C295 C 0.37264 1.04409 0.80355
 C296 C 0.39275 1.04156 0.78776
 C297 C 0.39261 1.02285 0.76995
 C298 C 0.37236 1.00624 0.76750
 C299 C 0.35226 1.00873 0.78331
 C300 C 0.35240 1.02744 0.80114
 C301 C 0.37214 0.98656 0.74836
 C302 C 0.35084 0.98119 0.73443
 C303 C 0.35079 0.96305 0.71604
 C304 C 0.37204 0.94980 0.71117
 C305 C 0.39327 0.95500 0.72532
 C306 C 0.39332 0.97319 0.74367
 H307 H 0.33475 1.07343 0.81656
 H308 H 0.33516 1.10665 0.84735
 H309 H 0.41107 1.09347 0.86358
 H310 H 0.41080 1.06003 0.83305
 H311 H 0.40844 1.05435 0.78887
 H312 H 0.40820 1.02167 0.75778
 H313 H 0.33654 0.99599 0.78210
 H314 H 0.33680 1.02865 0.81328
 H315 H 0.33429 0.99134 0.73745
 H316 H 0.33405 0.95946 0.70570
 H317 H 0.41001 0.94531 0.72210
 H318 H 0.40993 0.97669 0.75430
 C319 C 0.87929 0.42756 0.18291
 C320 C 0.87521 0.43513 0.15824
 C321 C 0.87491 0.41771 0.13917
 C322 C 0.87871 0.39238 0.14436
 C323 C 0.88294 0.38482 0.16896
 C324 C 0.88320 0.40221 0.18805
 C325 C 0.87927 0.44600 0.20323
 C326 C 0.86782 0.44006 0.22586
 C327 C 0.86759 0.45747 0.24492
 C328 C 0.87886 0.48120 0.24181
 C329 C 0.89041 0.48711 0.21921
 C330 C 0.89058 0.46972 0.20012
 C331 C 0.87845 0.49977 0.26200
 C332 C 0.89930 0.51476 0.26741
 C333 C 0.89886 0.53231 0.28634
 C334 C 0.87752 0.53534 0.30032
 C335 C 0.85668 0.52026 0.29489
 C336 C 0.85716 0.50270 0.27598
 H337 H 0.87188 0.45447 0.15373
 H338 H 0.87174 0.42396 0.12031
 H339 H 0.88583 0.36537 0.17339
 H340 H 0.88668 0.39586 0.20682
 H341 H 0.85874 0.42203 0.22872
 H342 H 0.85877 0.45227 0.26219
 H343 H 0.89904 0.50533 0.21616
 H344 H 0.89975 0.47476 0.18299
 H345 H 0.91610 0.51270 0.25718
 H346 H 0.91535 0.54335 0.29001
 H347 H 0.83984 0.52206 0.30502
 H348 H 0.84068 0.49166 0.27203
 C349 C 0.31647 0.12540 -0.07060
 C350 C 0.32662 0.14745 -0.08119
 C351 C 0.34497 0.14645 -0.09904
 C352 C 0.35395 0.12341 -0.10643
 C353 C 0.34372 0.10138 -0.09600
 C354 C 0.32511 0.10234 -0.07846
 C355 C 0.29722 0.12641 -0.05124
 C356 C 0.29646 0.10888 -0.03167
 C357 C 0.27845 0.10976 -0.01349
 C358 C 0.26090 0.12843 -0.01412
 C359 C 0.26172 0.14605 -0.03363
 C360 C 0.27954 0.14496 -0.05203
 C361 C 0.24188 0.12945 0.00547
 C362 C 0.21802 0.13706 -0.00025
 C363 C 0.20015 0.13770 0.01814
 C364 C 0.20561 0.13039 0.04256
 C365 C 0.22938 0.12286 0.04835
 C366 C 0.24736 0.12259 0.03008
 H367 H 0.32070 0.16556 -0.07542
 H368 H 0.35228 0.16371 -0.10699
 H369 H 0.35028 0.08336 -0.10133
 H370 H 0.31743 0.08495 -0.07115
 H371 H 0.30997 0.09456 -0.03017
 H372 H 0.27820 0.09560 0.00097
 H373 H 0.24874 0.16091 -0.03460
 H374 H 0.27929 0.15858 -0.06698
 H375 H 0.21297 0.14205 -0.01904
 H376 H 0.18190 0.14335 0.01309
 H377 H 0.23422 0.11748 0.06710
 H378 H 0.26564 0.11722 0.03536
 C379 C 0.67452 0.62602 0.56530
 C380 C 0.66137 0.60436 0.57298
 C381 C 0.64434 0.60534 0.59213
 C382 C 0.64015 0.62796 0.60400
 C383 C 0.65307 0.64964 0.59622
 C384 C 0.67012 0.64869 0.57712
 C385 C 0.69299 0.62498 0.54528
 C386 C 0.69539 0.64445 0.52772
 C387 C 0.71323 0.64381 0.50932
 C388 C 0.72902 0.62366 0.50801
 C389 C 0.72643 0.60404 0.52537
 C390 C 0.70864 0.60470 0.54381
 C391 C 0.74840 0.62331 0.48889
 C392 C 0.75339 0.60118 0.47643
 C393 C 0.77193 0.60081 0.45873
 C394 C 0.78600 0.62254 0.45318
 C395 C 0.78088 0.64469 0.46557
 C396 C 0.76228 0.64508 0.48318
 H397 H 0.66405 0.58670 0.56400
 H398 H 0.63430 0.58848 0.59766
 H399 H 0.65018 0.66724 0.60524
 H400 H 0.68019 0.66563 0.57191
 H401 H 0.68334 0.66011 0.52807
 H402 H 0.71453 0.65901 0.49596
 H403 H 0.73856 0.58843 0.52504
 H404 H 0.70752 0.58960 0.55729
 H405 H 0.74284 0.58417 0.48027
 H406 H 0.77541 0.58338 0.44968
 H407 H 0.79117 0.66183 0.46166
 H408 H 0.75903 0.66236 0.49265
 C409 C 0.82235 0.37635 0.06892
 C410 C 0.81681 0.38116 0.09377
 C411 C 0.83507 0.38049 0.11201
 C412 C 0.85928 0.37514 0.10579
 C413 C 0.86485 0.37048 0.08093
 C414 C 0.84657 0.37101 0.06270
 C415 C 0.80290 0.37676 0.04960
 C416 C 0.80154 0.35829 0.03134
 C417 C 0.78308 0.35850 0.01329
 C418 C 0.76566 0.37727 0.01302
 C419 C 0.76710 0.39584 0.03119
 C420 C 0.78548 0.39553 0.04933
 C421 C 0.74599 0.37741 -0.00609
 C422 C 0.73946 0.39981 -0.01781
 C423 C 0.72097 0.39990 -0.03585
 C424 C 0.70848 0.37762 -0.04246
 C425 C 0.71498 0.35523 -0.03065
 C426 C 0.73357 0.35513 -0.01273
 H427 H 0.79825 0.38500 0.09916
 H428 H 0.83025 0.38388 0.13107
 H429 H 0.88342 0.36658 0.07563
 H430 H 0.85144 0.36755 0.04366
 H431 H 0.81458 0.34346 0.03122
 H432 H 0.78256 0.34409 -0.00062
 H433 H 0.75380 0.41041 0.03156
 H434 H 0.78621 0.41014 0.06304
 H435 H 0.74887 0.41724 -0.01322
 H436 H 0.71635 0.41750 -0.04441
 H437 H 0.70591 0.33769 -0.03537
 H438 H 0.73804 0.33762 -0.00383
 C439 C 0.18110 0.87334 0.43029
 C440 C 0.17126 0.85097 0.42045
 C441 C 0.15294 0.85139 0.40226
 C442 C 0.14372 0.87414 0.39372
 C443 C 0.15356 0.89649 0.40349
 C444 C 0.17212 0.89612 0.42142
 C445 C 0.20052 0.87295 0.44980
 C446 C 0.20111 0.89071 0.46878
 C447 C 0.21935 0.89045 0.48705
 C448 C 0.23733 0.87221 0.48705
 C449 C 0.23666 0.85434 0.46816
 C450 C 0.21859 0.85480 0.44970
 C451 C 0.25666 0.87185 0.50666
 C452 C 0.28063 0.86485 0.50112
 C453 C 0.29875 0.86460 0.51953
 C454 C 0.29344 0.87170 0.54382
 C455 C 0.26957 0.87875 0.54940
 C456 C 0.25135 0.87865 0.53110
 H457 H 0.17745 0.83307 0.42704
 H458 H 0.14589 0.83389 0.39486
 H459 H 0.14678 0.91430 0.39731
 H460 H 0.17954 0.91373 0.42817
 H461 H 0.18731 0.90474 0.46973
 H462 H 0.21946 0.90475 0.50104
 H463 H 0.24997 0.83980 0.46771
 H464 H 0.21896 0.84103 0.43521
 H465 H 0.28555 0.85996 0.48245
 H466 H 0.31706 0.85935 0.51461
 H467 H 0.26484 0.88397 0.56804
 H468 H 0.23301 0.88362 0.53622
   
