data_POSCAR
  _audit_creation_date              2014-09-24
  _audit_creation_method            'ToBaCCo'
  _symmetry_space_group_name_H-M    'P1'
  _symmetry_Int_Tables_number       1
  _symmetry_cell_setting            triclinic
  loop_
  _symmetry_equiv_pos_as_xyz
 x,y,z
_cell_length_a 31.5423
_cell_length_b 32.1992
_cell_length_c 43.3469
_cell_angle_alpha 90.010100
_cell_angle_beta 90.011100
_cell_angle_gamma 122.519400
loop_
  _atom_site_label
  _atom_site_type_symbol
  _atom_site_fract_x
  _atom_site_fract_y
  _atom_site_fract_z
C1 C -0.02943 0.49524 1.22158
 C2 C 0.01919 0.50270 1.22164
 C3 C 0.04265 0.50545 1.24968
 C4 C 0.02098 0.50458 1.27829
 C5 C -0.02837 0.49617 1.27859
 C6 C -0.05132 0.49419 1.25017
 H7 H -0.08902 0.48711 1.25036
 H8 H 0.08066 0.51329 1.24890
 C9 C 0.50254 0.47576 1.22214
 C10 C 0.49375 0.51434 1.22249
 C11 C 0.49123 0.53396 1.25071
 C12 C 0.49572 0.51508 1.27882
 C13 C 0.50504 0.47644 1.27881
 C14 C 0.50691 0.45662 1.25018
 H15 H 0.51514 0.42800 1.24942
 H16 H 0.48245 0.56224 1.25084
 C17 C 0.48847 0.97945 1.27847
 C18 C 0.52530 1.03078 1.27878
 C19 C 0.54456 1.05502 1.25030
 C20 C 0.52539 1.03091 1.22178
 C21 C 0.48858 0.97964 1.22204
 C22 C 0.47025 0.95500 1.25020
 H23 H 0.44363 0.91544 1.25008
 H24 H 0.57205 1.09432 1.25034
 C25 C 0.97879 0.50475 0.72265
 C26 C 1.02802 0.51442 0.72222
 C27 C 1.05260 0.51882 0.75009
 C28 C 1.03005 0.51576 0.77881
 C29 C 0.98025 0.50574 0.77896
 C30 C 0.95585 0.50141 0.75097
 H31 H 0.91718 0.49177 0.75127
 H32 H 1.09092 0.52760 0.74911
 C33 C 0.49526 0.47412 0.72164
 C34 C 0.48488 0.51170 0.72158
 C35 C 0.48070 0.53074 0.74972
 C36 C 0.48557 0.51242 0.77800
 C37 C 0.49590 0.47473 0.77803
 C38 C 0.49972 0.45546 0.74987
 H39 H 0.50940 0.42784 0.74991
 H40 H 0.47136 0.55861 0.74958
 C41 C 0.50998 0.02103 0.72130
 C42 C 0.49668 -0.02879 0.72142
 C43 C 0.49307 -0.05115 0.75016
 C44 C 0.49886 -0.02666 0.77810
 C45 C 0.51153 0.02252 0.77773
 C46 C 0.51650 0.04552 0.74936
 H47 H 0.52797 0.08389 0.74906
 H48 H 0.48187 -0.08940 0.75112
 O49 O 0.41660 0.67271 0.96736
 O50 O 0.41648 0.75241 0.97478
 C51 C 0.38496 0.75786 0.96010
 O52 O 0.33858 0.73498 0.96669
 O53 O 0.25421 0.65031 0.97464
 C54 C 0.24785 0.61339 0.95978
 O55 O 0.27040 0.59177 0.96625
 O56 O 0.35362 0.59513 0.97531
 C57 C 0.39253 0.62731 0.96078
 O58 O 0.41778 0.66222 1.02944
 O59 O 0.41458 0.74075 1.03658
 C60 C 0.38846 0.75871 1.04304
 O61 O 0.34903 0.74810 1.02838
 O62 O 0.26721 0.66247 1.03605
 C63 C 0.24634 0.61728 1.04260
 O64 O 0.25505 0.58830 1.02812
 O65 O 0.34059 0.59580 1.03655
 C66 C 0.38672 0.62263 1.04354
 Cr67 Cr 0.41342 0.70539 1.00206
 Cr68 Cr 0.30384 0.69769 1.00142
 Cr69 Cr 0.30627 0.59566 1.00156
 O70 O 0.34124 0.66629 1.00178
 O71 O 0.57949 0.33517 0.97322
 O72 O 0.58822 0.26060 0.96360
 C73 C 0.61390 0.24201 0.95779
 O74 O 0.65254 0.25199 0.97333
 O75 O 0.73165 0.33975 0.96288
 C76 C 0.75217 0.38518 0.95710
 O77 O 0.74346 0.41346 0.97257
 O78 O 0.65576 0.40143 0.96367
 C79 C 0.60921 0.37401 0.95793
 O80 O 0.58375 0.32264 1.03484
 O81 O 0.58786 0.24478 1.02497
 C82 C 0.62165 0.24409 1.04063
 O83 O 0.66806 0.27120 1.03459
 O84 O 0.74963 0.35627 1.02375
 C85 C 0.75271 0.39079 1.03986
 O86 O 0.72680 0.40927 1.03441
 O87 O 0.64137 0.40154 1.02481
 C88 C 0.60473 0.36816 1.04047
 Cr89 Cr 0.58748 0.29235 0.99917
 Cr90 Cr 0.69890 0.30578 0.99863
 Cr91 Cr 0.69077 0.40385 0.99886
 O92 O 0.65902 0.33404 0.99873
 O93 O 0.65647 0.40208 0.53637
 O94 O 0.74431 0.41438 0.52786
 C95 C 0.75324 0.38628 0.54331
 O96 O 0.73308 0.34090 0.53748
 O97 O 0.65398 0.25311 0.52726
 C98 C 0.61494 0.24276 0.54247
 O99 O 0.58905 0.26106 0.53642
 O100 O 0.58040 0.33569 0.52655
 C101 C 0.60987 0.37451 0.54194
 O102 O 0.64255 0.40215 0.47522
 O103 O 0.72827 0.41007 0.46593
 C104 C 0.75388 0.39125 0.46044
 O105 O 0.75073 0.35675 0.47659
 O106 O 0.66943 0.27157 0.46591
 C107 C 0.62307 0.24447 0.45976
 O108 O 0.58926 0.24535 0.47519
 O109 O 0.58545 0.32320 0.46494
 C110 C 0.60635 0.36871 0.45933
 Cr111 Cr 0.69183 0.40458 0.50135
 Cr112 Cr 0.70022 0.30657 0.50182
 Cr113 Cr 0.58870 0.29292 0.50078
 O114 O 0.66024 0.33472 0.50152
 O115 O 0.33808 0.59490 0.53324
 O116 O 0.25301 0.58833 0.52459
 C117 C 0.24595 0.61789 0.53986
 O118 O 0.26818 0.66345 0.53396
 O119 O 0.35055 0.74927 0.52453
 C120 C 0.38818 0.75676 0.54019
 O121 O 0.41212 0.73646 0.53411
 O122 O 0.41587 0.65917 0.52452
 C123 C 0.38456 0.62058 0.53944
 O124 O 0.35190 0.59468 0.47197
 O125 O 0.26902 0.59208 0.46273
 C126 C 0.24577 0.61325 0.45704
 O127 O 0.25142 0.64911 0.47289
 O128 O 0.33582 0.73217 0.46317
 C129 C 0.38235 0.75691 0.45718
 O130 O 0.41451 0.75312 0.47257
 O131 O 0.41359 0.67259 0.46291
 C132 C 0.39010 0.62699 0.45686
 Cr133 Cr 0.30425 0.59516 0.49813
 Cr134 Cr 0.30296 0.69731 0.49865
 Cr135 Cr 0.41131 0.70391 0.49849
 O136 O 0.33952 0.66540 0.49850
 C137 C 0.45585 0.56328 0.35686
 N138 N 0.43494 0.51448 0.35159
 N139 N 0.44843 0.49922 0.32712
 C140 C 0.48352 0.53221 0.30709
 N141 N 0.50415 0.58103 0.31223
 N142 N 0.49075 0.59629 0.33676
 C143 C 0.43973 0.57992 0.38330
 N144 N 0.46181 0.62868 0.38936
 N145 N 0.44628 0.64371 0.41295
 C146 C 0.40797 0.61052 0.43125
 N147 N 0.38596 0.56177 0.42521
 N148 N 0.40159 0.54675 0.40169
 C149 C 0.44458 0.88824 0.35631
 N150 N 0.49390 0.92234 0.35099
 N151 N 0.50777 0.95195 0.32653
 C152 C 0.47285 0.94864 0.30657
 N153 N 0.42359 0.91423 0.31177
 N154 N 0.40971 0.88478 0.33628
 C155 C 0.42899 0.85488 0.38291
 N156 N 0.37946 0.82372 0.38929
 N157 N 0.36490 0.79284 0.41306
 C158 C 0.39928 0.79175 0.43130
 N159 N 0.44891 0.82290 0.42495
 N160 N 0.46351 0.85399 0.40120
 C161 C 0.11395 0.54816 0.35476
 N162 N 0.12098 0.52572 0.33060
 N163 N 0.09082 0.51142 0.30608
 C164 C 0.05173 0.51808 0.30490
 N165 N 0.04540 0.54126 0.32903
 N166 N 0.07578 0.55594 0.35345
 C167 C 0.14755 0.56441 0.38166
 N168 N 0.14717 0.59524 0.40288
 N169 N 0.17828 0.61065 0.42699
 C170 C 0.21058 0.59542 0.43090
 N171 N 0.21071 0.56435 0.40978
 N172 N 0.17990 0.54926 0.38555
 C173 C 0.54107 0.42828 0.35705
 N174 N 0.54408 0.47191 0.35711
 N175 N 0.53151 0.48699 0.33212
 C176 C 0.51567 0.45932 0.30597
 N177 N 0.51318 0.41580 0.30604
 N178 N 0.52525 0.40041 0.33110
 C179 C 0.55643 0.41233 0.38417
 N180 N 0.54392 0.36502 0.38677
 N181 N 0.55914 0.35090 0.41100
 C182 C 0.58787 0.38372 0.43331
 N183 N 0.60039 0.43103 0.43069
 N184 N 0.58473 0.44503 0.40663
 C185 C 0.56755 0.11707 0.35734
 N186 N 0.52465 0.07171 0.35704
 N187 N 0.51163 0.04336 0.33201
 C188 C 0.54068 0.05921 0.30617
 N189 N 0.58345 0.10489 0.30665
 N190 N 0.59684 0.13303 0.33175
 C191 C 0.58179 0.14908 0.38450
 N192 N 0.62972 0.18804 0.38776
 N193 N 0.64276 0.21799 0.41194
 C194 C 0.60823 0.21050 0.43358
 N195 N 0.56017 0.17162 0.43031
 N196 N 0.54724 0.14128 0.40626
 C197 C 0.88265 0.45625 0.35675
 N198 N 0.92102 0.44881 0.35509
 N199 N 0.95010 0.46234 0.33011
 C200 C 0.94224 0.48400 0.30573
 N201 N 0.90298 0.49038 0.30730
 N202 N 0.87407 0.47718 0.33237
 C203 C 0.85022 0.44070 0.38418
 N204 N 0.81663 0.45435 0.38805
 N205 N 0.78656 0.43936 0.41264
 C206 C 0.78879 0.40993 0.43416
 N207 N 0.82240 0.39633 0.43029
 N208 N 0.85271 0.41163 0.40583
 C209 C 0.53720 0.42751 1.14178
 N210 N 0.50955 0.39511 1.16452
 N211 N 0.49754 0.41017 1.18978
 C212 C 0.51233 0.45809 1.19311
 N213 N 0.53980 0.49037 1.17026
 N214 N 0.55200 0.47538 1.14508
 C215 C 0.55302 0.41170 1.11478
 N216 N 0.58703 0.44551 1.09465
 N217 N 0.60318 0.43156 1.07083
 C218 C 0.58576 0.38326 1.06621
 N219 N 0.55145 0.34938 1.08620
 N220 N 0.53548 0.36337 1.11012
 C221 C 0.88325 0.45889 1.14277
 N222 N 0.92513 0.45697 1.14300
 N223 N 0.95384 0.46981 1.16812
 C224 C 0.94192 0.48491 1.19419
 N225 N 0.89966 0.48651 1.19381
 N226 N 0.87114 0.47412 1.16860
 C227 C 0.85054 0.44285 1.11545
 N228 N 0.81443 0.45339 1.11258
 N229 N 0.78386 0.43753 1.08821
 C230 C 0.78796 0.41016 1.06597
 N231 N 0.82406 0.39961 1.06885
 N232 N 0.85494 0.41588 1.09307
 C233 C 0.56716 0.11704 1.14315
 N234 N 0.59587 0.13365 1.16898
 N235 N 0.58273 0.10556 1.19409
 C236 C 0.54079 0.05929 1.19435
 N237 N 0.51244 0.04272 1.16823
 N238 N 0.52520 0.07102 1.14319
 C239 C 0.58104 0.14902 1.11600
 N240 N 0.54650 0.14053 1.09404
 N241 N 0.55914 0.17081 1.06998
 C242 C 0.60689 0.21033 1.06692
 N243 N 0.64139 0.21851 1.08877
 N244 N 0.62863 0.18863 1.11296
 C245 C 0.45413 0.56124 1.14379
 N246 N 0.48961 0.59466 1.16349
 N247 N 0.50281 0.57984 1.18836
 C248 C 0.48149 0.53110 1.19414
 N249 N 0.44622 0.49774 1.17434
 N250 N 0.43268 0.51255 1.14968
 C251 C 0.43759 0.57722 1.11726
 N252 N 0.39352 0.54503 1.10296
 N253 N 0.37742 0.55959 1.07945
 C254 C 0.40506 0.60674 1.06917
 N255 N 0.44938 0.63890 1.08329
 N256 N 0.46523 0.62445 1.10705
 C257 C 0.11131 0.54619 1.14328
 N258 N 0.08734 0.56920 1.15124
 N259 N 0.05739 0.55463 1.17582
 C260 C 0.05035 0.51656 1.19344
 N261 N 0.07464 0.49375 1.18568
 N262 N 0.10435 0.50811 1.16090
 C263 C 0.14545 0.56364 1.11663
 N264 N 0.16326 0.53671 1.10500
 N265 N 0.19489 0.55337 1.08112
 C266 C 0.21015 0.59773 1.06821
 N267 N 0.19235 0.62459 1.07990
 N268 N 0.16044 0.60777 1.10356
 C269 C 0.44676 0.88937 1.14396
 N270 N 0.41137 0.89008 1.16140
 N271 N 0.42460 0.91915 1.18610
 C272 C 0.47376 0.94907 1.19394
 N273 N 0.50914 0.94843 1.17649
 N274 N 0.49587 0.91902 1.15198
 C275 C 0.43206 0.85625 1.11732
 N276 N 0.46486 0.84600 1.10471
 N277 N 0.45109 0.81497 1.08100
 C278 C 0.40419 0.79348 1.06886
 N279 N 0.37155 0.80402 1.08134
 N280 N 0.38515 0.83465 1.10524
 C281 C 0.53590 0.42987 0.64200
 N282 N 0.50268 0.39577 0.66234
 N283 N 0.48901 0.40963 0.68748
 C284 C 0.50752 0.45803 0.69291
 N285 N 0.54045 0.49199 0.67242
 N286 N 0.55450 0.47819 0.64751
 C287 C 0.55370 0.41531 0.61530
 N288 N 0.59732 0.44896 0.60114
 N289 N 0.61491 0.43587 0.57768
 C290 C 0.58925 0.38876 0.56722
 N291 N 0.54530 0.35511 0.58115
 N292 N 0.52798 0.36810 0.60491
 C293 C 0.55143 0.11059 0.64287
 N294 N 0.57120 0.08278 0.64813
 N295 N 0.55723 0.05346 0.67273
 C296 C 0.52289 0.05082 0.69291
 N297 N 0.50343 0.07890 0.68775
 N298 N 0.51723 0.10802 0.66309
 C299 C 0.56754 0.14396 0.61627
 N300 N 0.54463 0.16858 0.61002
 N301 N 0.55966 0.19972 0.58636
 C302 C 0.59833 0.20764 0.56815
 N303 N 0.62132 0.18302 0.57436
 N304 N 0.60612 0.15165 0.59799
 C305 C 0.88829 0.46180 0.64368
 N306 N 0.88908 0.49469 0.66369
 N307 N 0.91837 0.50904 0.68866
 C308 C 0.94838 0.49153 0.69422
 N309 N 0.94769 0.45889 0.67409
 N310 N 0.91810 0.44419 0.64936
 C311 C 0.85415 0.44344 0.61711
 N312 N 0.84268 0.40090 0.60315
 N313 N 0.81061 0.38293 0.57960
 C314 C 0.78925 0.40711 0.56888
 N315 N 0.80103 0.44996 0.58264
 N316 N 0.83272 0.46768 0.60648
 C317 C 0.44933 0.55895 0.64116
 N318 N 0.48251 0.59228 0.66187
 N319 N 0.49435 0.57738 0.68731
 C320 C 0.47396 0.52865 0.69272
 N321 N 0.44106 0.49541 0.67189
 N322 N 0.42882 0.51027 0.64666
 C323 C 0.43388 0.57492 0.61400
 N324 N 0.39034 0.54271 0.59919
 N325 N 0.37494 0.55729 0.57531
 C326 C 0.40281 0.60447 0.56508
 N327 N 0.44668 0.63663 0.57966
 N328 N 0.46180 0.62218 0.60382
 C329 C 0.45338 0.88354 0.64343
 N330 N 0.45405 0.92600 0.64333
 N331 N 0.46896 0.95479 0.66823
 C332 C 0.48353 0.94227 0.69433
 N333 N 0.48222 0.89935 0.69430
 N334 N 0.46793 0.87085 0.66932
 C335 C 0.43686 0.85143 0.61621
 N336 N 0.44955 0.81754 0.61311
 N337 N 0.43430 0.78783 0.58870
 C338 C 0.40524 0.79043 0.56666
 N339 N 0.39226 0.82417 0.56979
 N340 N 0.40806 0.85436 0.59407
 C341 C 0.11324 0.54996 0.64133
 N342 N 0.11255 0.51782 0.66192
 N343 N 0.08487 0.50583 0.68749
 C344 C 0.05643 0.52506 0.69314
 N345 N 0.05689 0.55687 0.67240
 N346 N 0.08492 0.56924 0.64704
 C347 C 0.14613 0.56603 0.61421
 N348 N 0.15871 0.60843 0.59962
 N349 N 0.19025 0.62462 0.57581
 C350 C 0.20993 0.59870 0.56545
 N351 N 0.19695 0.55593 0.57979
 N352 N 0.16582 0.54002 0.60390
 C353 C 0.45338 0.56306 0.85837
 N354 N 0.43748 0.51485 0.85523
 N355 N 0.44860 0.49900 0.82998
 C356 C 0.47595 0.53069 0.80686
 N357 N 0.49170 0.57891 0.80997
 N358 N 0.48084 0.59484 0.83532
 C359 C 0.43928 0.58004 0.88568
 N360 N 0.45960 0.62883 0.89076
 N361 N 0.44539 0.64398 0.91499
 C362 C 0.41010 0.61088 0.93490
 N363 N 0.38989 0.56212 0.92984
 N364 N 0.40434 0.54699 0.90574
 C365 C 0.11715 0.54938 0.85731
 N366 N 0.12974 0.53586 0.83096
 N367 N 0.10133 0.52455 0.80580
 C368 C 0.05872 0.52553 0.80602
 N369 N 0.04628 0.53890 0.83261
 N370 N 0.07495 0.55077 0.85769
 C371 C 0.14976 0.56424 0.88453
 N372 N 0.14675 0.59198 0.90695
 N373 N 0.17782 0.60737 0.93104
 C374 C 0.21262 0.59508 0.93376
 N375 N 0.21527 0.56687 0.91152
 N376 N 0.18459 0.55197 0.88723
 C377 C 0.45527 0.88713 0.85809
 N378 N 0.49009 0.88878 0.83881
 N379 N 0.50464 0.91678 0.81357
 C380 C 0.48548 0.94475 0.80699
 N381 N 0.45091 0.94332 0.82638
 N382 N 0.43595 0.91491 0.85142
 C383 C 0.43758 0.85461 0.88511
 N384 N 0.39320 0.84107 0.89878
 N385 N 0.37633 0.81026 0.92272
 C386 C 0.40355 0.79236 0.93405
 N387 N 0.44812 0.80624 0.92053
 N388 N 0.46468 0.83657 0.89638
 C389 C 0.53676 0.43050 0.85758
 N390 N 0.55696 0.47895 0.85146
 N391 N 0.54299 0.49285 0.82655
 C392 C 0.50851 0.45882 0.80669
 N393 N 0.48844 0.41031 0.81270
 N394 N 0.50206 0.39638 0.83782
 C395 C 0.55421 0.41568 0.88433
 N396 N 0.52768 0.36864 0.89501
 N397 N 0.54463 0.35536 0.91883
 C398 C 0.58899 0.38855 0.93255
 N399 N 0.61546 0.43549 0.92182
 N400 N 0.59825 0.44887 0.89828
 C401 C 0.88830 0.46040 0.85724
 N402 N 0.91299 0.43818 0.84915
 N403 N 0.94305 0.45342 0.82462
 C404 C 0.94943 0.49139 0.80721
 N405 N 0.92445 0.51346 0.81511
 N406 N 0.89465 0.49843 0.83984
 C407 C 0.85382 0.44196 0.88365
 N408 N 0.83540 0.46816 0.89563
 N409 N 0.80339 0.45048 0.91931
 C410 C 0.78836 0.40580 0.93160
 N411 N 0.80677 0.37970 0.91955
 N412 N 0.83905 0.39753 0.89612
 C413 C 0.55093 0.11085 0.85680
 N414 N 0.52267 0.11359 0.83424
 N415 N 0.50947 0.08495 0.80937
 C416 C 0.52350 0.05202 0.80628
 N417 N 0.55159 0.04912 0.82893
 N418 N 0.56512 0.07804 0.85373
 C419 C 0.56678 0.14385 0.88359
 N420 N 0.60260 0.14851 0.90331
 N421 N 0.61779 0.17971 0.92705
 C422 C 0.59745 0.20712 0.93197
 N423 N 0.56147 0.20218 0.91234
 N424 N 0.54657 0.17130 0.88854
   
