data_POSCAR
  _audit_creation_date              2014-09-24
  _audit_creation_method            'ToBaCCo'
  _symmetry_space_group_name_H-M    'P1'
  _symmetry_Int_Tables_number       1
  _symmetry_cell_setting            triclinic
  loop_
  _symmetry_equiv_pos_as_xyz
 x,y,z
_cell_length_a 21.2817
_cell_length_b 13.2634
_cell_length_c 13.3409
_cell_angle_alpha 89.851200
_cell_angle_beta 90.156000
_cell_angle_gamma 89.839900
loop_
  _atom_site_label
  _atom_site_type_symbol
  _atom_site_fract_x
  _atom_site_fract_y
  _atom_site_fract_z
O1 O 0.08773 0.16408 0.17864
 O2 O 0.15658 0.07418 0.08132
 C3 C 0.14415 0.13999 0.15011
 O4 O -0.08646 -0.19757 0.17460
 O5 O -0.15627 -0.10283 0.08262
 C6 C -0.14319 -0.17105 0.14922
 O7 O 0.09052 -0.18910 0.17807
 O8 O 0.15830 -0.09390 0.08433
 C9 C 0.14695 -0.16177 0.15235
 O10 O -0.08921 0.16739 0.17463
 O11 O -0.15765 0.06970 0.08434
 C12 C -0.14557 0.13880 0.15009
 Zr13 Zr -0.00060 0.11361 0.12476
 O14 O -0.00568 0.11230 0.28325
 O15 O 0.00421 0.27306 0.12467
 Zr16 Zr 0.00138 -0.14145 0.12430
 O17 O -0.00350 -0.14285 0.28277
 O18 O 0.00865 -0.30070 0.12241
 O19 O 0.05661 -0.01313 0.14375
 O20 O -0.05384 -0.01479 0.14340
 O21 O -0.09075 0.16923 -0.17576
 O22 O -0.15863 0.07235 -0.08347
 C23 C -0.14687 0.14156 -0.14958
 O24 O 0.08782 -0.18502 -0.18807
 O25 O 0.15667 -0.09677 -0.08924
 C26 C 0.14422 -0.15926 -0.16117
 O27 O -0.08831 -0.19905 -0.17491
 O28 O -0.15725 -0.10091 -0.08603
 C29 C -0.14479 -0.17229 -0.14923
 O30 O 0.08578 0.16577 -0.18423
 O31 O 0.15578 0.07338 -0.09030
 C32 C 0.14256 0.14054 -0.15807
 Zr33 Zr -0.00188 0.11440 -0.12886
 O34 O -0.00910 0.11262 -0.28720
 O35 O 0.00299 0.27378 -0.13010
 Zr36 Zr -0.00018 -0.14048 -0.12886
 O37 O -0.00854 -0.14126 -0.28700
 O38 O 0.00857 -0.29955 -0.12757
 Zr39 Zr 0.09306 -0.01198 -0.00301
 Zr40 Zr -0.09366 -0.01464 -0.00124
 O41 O -0.05563 -0.01374 -0.14670
 O42 O 0.05499 -0.01209 -0.14908
 O43 O -0.05748 0.13313 -0.00147
 O44 O 0.05538 -0.15852 -0.00293
 O45 O 0.05293 0.13328 -0.00257
 O46 O -0.05545 -0.16148 -0.00164
 H47 H -0.08150 -0.01545 0.20300
 H48 H 0.08431 -0.21718 -0.00351
 H49 H -0.08431 -0.01414 -0.20533
 H50 H 0.08044 0.19341 -0.00296
 H51 H -0.02812 -0.32688 0.08529
 H52 H -0.02630 -0.32660 -0.08679
 H53 H 0.02404 -0.09560 -0.31378
 H54 H 0.02824 0.07686 -0.31340
 H55 H -0.03089 0.29914 -0.08620
 H56 H -0.03210 0.29862 0.08565
 H57 H 0.03069 0.07309 0.30851
 H58 H 0.03110 -0.10022 0.30811
 O59 O 0.58773 0.66119 0.68134
 O60 O 0.65641 0.56827 0.58647
 C61 C 0.64411 0.63297 0.65642
 O62 O 0.40884 0.30826 0.67181
 O63 O 0.34101 0.40606 0.57941
 C64 C 0.35266 0.33704 0.64596
 O65 O 0.58556 0.31140 0.68061
 O66 O 0.65493 0.40215 0.58518
 C67 C 0.64215 0.33627 0.65390
 O68 O 0.41079 0.67476 0.66822
 O69 O 0.34177 0.57990 0.57585
 C70 C 0.35435 0.64987 0.64037
 Zr71 Zr 0.49917 0.61645 0.62323
 O72 O 0.49130 0.61691 0.78139
 O73 O 0.50731 0.77551 0.62320
 Zr74 Zr 0.49763 0.36119 0.62320
 O75 O 0.49086 0.35951 0.78150
 O76 O 0.50296 0.20174 0.62089
 O77 O 0.55422 0.48763 0.64376
 O78 O 0.44394 0.49003 0.64091
 O79 O 0.41176 0.67430 0.31980
 O80 O 0.34264 0.57760 0.40972
 C81 C 0.35513 0.64713 0.34443
 O82 O 0.58700 0.31109 0.31605
 O83 O 0.65589 0.40234 0.41201
 C84 C 0.64346 0.33588 0.34367
 O85 O 0.41057 0.30837 0.31974
 O86 O 0.34181 0.40481 0.41095
 C87 C 0.35419 0.33625 0.34469
 O88 O 0.58895 0.66480 0.31615
 O89 O 0.65663 0.57070 0.41255
 C90 C 0.64507 0.63781 0.34424
 Zr91 Zr 0.50006 0.61729 0.36988
 O92 O 0.49460 0.61799 0.21139
 O93 O 0.50709 0.77650 0.37128
 Zr94 Zr 0.49882 0.36202 0.36986
 O95 O 0.49342 0.36324 0.21136
 O96 O 0.50403 0.20258 0.37047
 Zr97 Zr 0.59220 0.48746 0.49794
 Zr98 Zr 0.40569 0.49086 0.49528
 O99 O 0.44518 0.49060 0.35078
 O100 O 0.55561 0.48868 0.35096
 O101 O 0.44366 0.63756 0.49570
 O102 O 0.55261 0.34223 0.49739
 O103 O 0.55429 0.63421 0.49751
 O104 O 0.44191 0.34281 0.49571
 H105 H 0.41540 0.49120 0.69944
 H106 H 0.58055 0.28236 0.49790
 H107 H 0.41729 0.49119 0.29120
 H108 H 0.58311 0.69274 0.49859
 H109 H 0.46584 0.17676 0.58382
 H110 H 0.46860 0.17739 0.41119
 H111 H 0.52920 0.40341 0.18630
 H112 H 0.52989 0.57666 0.18609
 H113 H 0.47061 0.80296 0.40884
 H114 H 0.47294 0.80268 0.58093
 H115 H 0.52539 0.57378 0.80833
 H116 H 0.52546 0.40139 0.80805
 C117 C 0.18852 0.26225 0.27401
 C118 C 0.19753 0.19417 0.19540
 C119 C 0.25897 0.18394 0.15707
 C120 C 0.31009 0.23091 0.20476
 C121 C 0.30083 0.29021 0.29114
 C122 C 0.23885 0.30930 0.32047
 C123 C 0.20921 0.30129 0.42141
 C124 C 0.15408 0.24956 0.37050
 H125 H 0.26800 0.13714 0.09228
 H126 H 0.35686 0.21846 0.17545
 H127 H 0.19694 0.37650 0.45238
 H128 H 0.23589 0.25092 0.47305
 H129 H 0.11009 0.29489 0.37249
 H130 H 0.14876 0.16909 0.39249
 C131 C 0.74154 0.80592 0.17553
 C132 C 0.80351 0.78257 0.20263
 C133 C 0.81260 0.72016 0.28722
 C134 C 0.76099 0.67476 0.33517
 C135 C 0.69924 0.68985 0.29889
 C136 C 0.69078 0.76069 0.22225
 C137 C 0.65467 0.75298 0.12657
 C138 C 0.71037 0.80239 0.07533
 H139 H 0.85947 0.70426 0.31492
 H140 H 0.76977 0.62555 0.39856
 H141 H 0.61189 0.80126 0.12680
 H142 H 0.64694 0.67359 0.10297
 H143 H 0.69968 0.87905 0.04605
 H144 H 0.73514 0.75143 0.02244
 C145 C 0.73758 0.17096 0.82906
 C146 C 0.79940 0.18867 0.79818
 C147 C 0.80829 0.24714 0.71098
 C148 C 0.75705 0.29398 0.66312
 C149 C 0.69561 0.28349 0.70126
 C150 C 0.68689 0.21705 0.78165
 C151 C 0.65321 0.23322 0.87830
 C152 C 0.70875 0.18304 0.93020
 H153 H 0.85492 0.25890 0.68092
 H154 H 0.76597 0.34048 0.59785
 H155 H 0.60933 0.18820 0.88289
 H156 H 0.64786 0.31440 0.89725
 H157 H 0.69669 0.10941 0.96491
 H158 H 0.73581 0.23509 0.97914
 C159 C 0.25935 0.81117 0.81668
 C160 C 0.19764 0.79763 0.78309
 C161 C 0.18888 0.74538 0.69213
 C162 C 0.24012 0.69950 0.64343
 C163 C 0.30119 0.70536 0.68451
 C164 C 0.30986 0.76675 0.76840
 C165 C 0.34279 0.74449 0.86494
 C166 C 0.28731 0.79297 0.91780
 H167 H 0.14234 0.73685 0.66034
 H168 H 0.23148 0.65665 0.57580
 H169 H 0.38700 0.78823 0.87288
 H170 H 0.34732 0.66227 0.87999
 H171 H 0.29976 0.86438 0.95594
 H172 H 0.25948 0.73902 0.96351
 C173 C 0.25779 0.16861 0.81736
 C174 C 0.19555 0.19480 0.79499
 C175 C 0.18574 0.27890 0.73171
 C176 C 0.23682 0.32705 0.68475
 C177 C 0.29882 0.29154 0.69910
 C178 C 0.30802 0.21552 0.77061
 C179 C 0.34451 0.11956 0.76386
 C180 C 0.28939 0.06815 0.81480
 H181 H 0.13865 0.30596 0.71619
 H182 H 0.22743 0.38991 0.63498
 H183 H 0.38760 0.12106 0.81108
 H184 H 0.35180 0.09461 0.68520
 H185 H 0.30074 0.03990 0.89122
 H186 H 0.26448 0.01402 0.76533
 C187 C 0.73995 0.80734 0.81974
 C188 C 0.80158 0.77293 0.80638
 C189 C 0.80996 0.68235 0.75271
 C190 C 0.75855 0.63480 0.70586
 C191 C 0.69758 0.67660 0.71201
 C192 C 0.68925 0.76017 0.77438
 C193 C 0.65697 0.85814 0.75360
 C194 C 0.71264 0.90976 0.80293
 H195 H 0.85638 0.64995 0.74398
 H196 H 0.76698 0.56736 0.66224
 H197 H 0.61271 0.86612 0.79695
 H198 H 0.65270 0.87462 0.67207
 H199 H 0.70028 0.94765 0.87431
 H200 H 0.74089 0.95597 0.75004
 C201 C 0.25859 0.81924 0.17575
 C202 C 0.19627 0.79111 0.19642
 C203 C 0.18778 0.70786 0.26171
 C204 C 0.23935 0.66031 0.30821
 C205 C 0.30118 0.69482 0.29228
 C206 C 0.30959 0.77213 0.22204
 C207 C 0.34447 0.86886 0.23314
 C208 C 0.28870 0.92064 0.18376
 H209 H 0.14127 0.67946 0.27840
 H210 H 0.23035 0.59798 0.35874
 H211 H 0.38762 0.87059 0.18640
 H212 H 0.35137 0.89077 0.31282
 H213 H 0.30005 0.95357 0.10943
 H214 H 0.26287 0.97192 0.23514
 C215 C 0.80947 0.26306 0.27189
 C216 C 0.80069 0.18465 0.20333
 C217 C 0.73904 0.14736 0.19142
 C218 C 0.68773 0.19569 0.23759
 C219 C 0.69692 0.28181 0.29776
 C220 C 0.75898 0.31015 0.31808
 C221 C 0.78928 0.41126 0.31162
 C222 C 0.84456 0.35970 0.26095
 H223 H 0.73003 0.08282 0.14404
 H224 H 0.64090 0.16704 0.22395
 H225 H 0.80108 0.44163 0.38690
 H226 H 0.76332 0.46397 0.26138
 H227 H 0.88816 0.36063 0.30701
 H228 H 0.85071 0.38248 0.18129
   
