data_POSCAR
  _audit_creation_date              2014-09-24
  _audit_creation_method            'ToBaCCo'
  _symmetry_space_group_name_H-M    'P1'
  _symmetry_Int_Tables_number       1
  _symmetry_cell_setting            triclinic
  loop_
  _symmetry_equiv_pos_as_xyz
 x,y,z
_cell_length_a 22.2247
_cell_length_b 22.3929
_cell_length_c 27.6688
_cell_angle_alpha 90.534400
_cell_angle_beta 89.620400
_cell_angle_gamma 80.569500
loop_
  _atom_site_label
  _atom_site_type_symbol
  _atom_site_fract_x
  _atom_site_fract_y
  _atom_site_fract_z
C1 C 1.21655 0.20728 0.19962
 C2 C 1.25432 0.24485 0.17000
 C3 C 1.28617 0.27996 0.19651
 C4 C 1.27756 0.27446 0.25153
 C5 C 1.26207 0.17135 0.23439
 C6 C 1.29418 0.20606 0.26182
 C7 C 1.17659 0.25270 0.23282
 C8 C 1.20811 0.28726 0.26059
 H9 H 1.25661 0.24279 0.13086
 H10 H 1.30368 0.30352 0.27291
 H11 H 1.26108 0.12463 0.24313
 H12 H 1.12831 0.25223 0.23804
 C13 C 0.72976 -0.29904 0.19759
 C14 C 0.76737 -0.25995 0.16967
 C15 C 0.79734 -0.22455 0.19762
 C16 C 0.78662 -0.23132 0.25259
 C17 C 0.77518 -0.33475 0.23238
 C18 C 0.80277 -0.29982 0.26315
 C19 C 0.68764 -0.25488 0.23069
 C20 C 0.71703 -0.21969 0.25960
 H21 H 0.77018 -0.26041 0.13053
 H22 H 0.81102 -0.20228 0.27551
 H23 H 0.77858 -0.38280 0.23756
 H24 H 0.63926 -0.25599 0.23433
 C25 C 0.71664 0.20285 -0.30029
 C26 C 0.75244 0.23700 -0.32965
 C27 C 0.78626 0.27522 -0.30329
 C28 C 0.77734 0.27187 -0.25051
 C29 C 0.75976 0.16959 -0.26687
 C30 C 0.79379 0.20696 -0.23875
 C31 C 0.67840 0.24717 -0.26984
 C32 C 0.71103 0.28473 -0.24111
 H33 H 0.75167 0.23545 -0.36885
 H34 H 0.80448 0.30113 -0.23057
 H35 H 0.75430 0.12518 -0.25437
 H36 H 0.62952 0.24890 -0.26708
 C37 C 1.22677 -0.29525 -0.29930
 C38 C 1.26318 -0.25680 -0.32920
 C39 C 1.29458 -0.22107 -0.30289
 C40 C 1.28685 -0.22694 -0.24777
 C41 C 1.27320 -0.33060 -0.26510
 C42 C 1.30476 -0.29536 -0.23776
 C43 C 1.18653 -0.25065 -0.26577
 C44 C 1.21748 -0.21544 -0.23827
 H45 H 1.26486 -0.25862 -0.36837
 H46 H 1.31258 -0.19745 -0.22644
 H47 H 1.27269 -0.37736 -0.25616
 H48 H 1.13840 -0.25184 -0.26036
 C49 C 0.20507 0.21510 0.79753
 C50 C 0.23852 0.24915 0.82884
 C51 C 0.27763 0.28407 0.80485
 C52 C 0.27617 0.27788 0.75196
 C53 C 0.17117 0.26152 0.76275
 C54 C 0.20782 0.29488 0.73866
 C55 C 0.25292 0.17679 0.76524
 C56 C 0.28939 0.20923 0.74030
 H57 H 0.23618 0.24577 0.86786
 H58 H 0.30632 0.30465 0.73246
 H59 H 0.12463 0.26092 0.75187
 H60 H 0.25147 0.12962 0.75705
 C61 C 0.70177 0.72234 0.80311
 C62 C 0.73563 0.76062 0.83047
 C63 C 0.77243 0.79352 0.80192
 C64 C 0.76800 0.78155 0.74948
 C65 C 0.66627 0.76424 0.77021
 C66 C 0.70201 0.79512 0.73810
 C67 C 0.74644 0.68387 0.77298
 C68 C 0.78266 0.71558 0.74245
 H69 H 0.73304 0.76440 0.86959
 H70 H 0.79683 0.80761 0.72835
 H71 H 0.61874 0.78162 0.77671
 H72 H 0.75086 0.63496 0.77316
 C73 C 0.70636 0.22400 0.30156
 C74 C 0.74350 0.26195 0.33145
 C75 C 0.77898 0.29356 0.30520
 C76 C 0.77410 0.28453 0.25007
 C77 C 0.67021 0.26871 0.26643
 C78 C 0.70527 0.30044 0.23904
 C79 C 0.75266 0.18438 0.26887
 C80 C 0.78734 0.21559 0.24118
 H81 H 0.74131 0.26411 0.37059
 H82 H 0.80354 0.31040 0.22891
 H83 H 0.62343 0.26699 0.25713
 H84 H 0.75194 0.13653 0.26329
 C85 C 0.20251 0.72436 0.30200
 C86 C 0.24211 0.76305 0.32877
 C87 C 0.27691 0.79232 0.29974
 C88 C 0.26892 0.78030 0.24517
 C89 C 0.16544 0.76898 0.26743
 C90 C 0.19962 0.79609 0.23586
 C91 C 0.24667 0.68220 0.26904
 C92 C 0.28107 0.71109 0.23912
 H93 H 0.24182 0.76779 0.36780
 H94 H 0.29753 0.80406 0.22142
 H95 H 0.11641 0.77706 0.26596
 H96 H 0.24665 0.63387 0.26679
 O97 O 1.09556 0.02423 0.05697
 O98 O 0.89422 -0.02431 0.06039
 O99 O 0.95789 0.10565 0.06039
 O100 O 1.03439 -0.10806 0.05228
 O101 O 0.87488 0.08018 0.03734
 O102 O 1.11510 -0.07836 0.02800
 O103 O 0.93277 -0.10828 0.02811
 O104 O 1.05620 0.11022 0.03064
 C105 C 1.08604 0.07972 0.06245
 C106 C 0.90684 -0.08011 0.06374
 C107 C 0.90401 0.10346 0.06889
 C108 C 1.08802 -0.10314 0.05971
 O109 O 1.10000 -0.03686 -0.06415
 O110 O 0.88590 0.04415 -0.05821
 O111 O 1.01545 0.10303 -0.06142
 O112 O 0.96640 -0.09620 -0.06674
 O113 O 0.88229 -0.05609 -0.03465
 O114 O 1.10232 0.06159 -0.03642
 O115 O 1.07210 -0.11796 -0.04097
 O116 O 0.91277 0.12333 -0.03038
 Co117 Co 1.09268 -0.00654 -0.00356
 Co118 Co 0.89462 0.01036 0.00093
 Co119 Co 0.98623 0.10003 -0.00057
 Co120 Co 1.00069 -0.09701 -0.00664
 O121 O 0.99360 0.00164 -0.00238
 C122 C 1.09760 -0.09048 -0.07202
 C123 C 0.89168 0.09726 -0.06460
 C124 C 1.07106 0.09083 -0.06817
 C125 C 0.91017 -0.08339 -0.06990
 O126 O 1.10268 0.52088 0.56205
 O127 O 0.90178 0.47102 0.56936
 O128 O 0.96233 0.60643 0.56679
 O129 O 1.04161 0.39331 0.56047
 O130 O 0.88039 0.57634 0.54568
 O131 O 1.12149 0.41886 0.53177
 O132 O 0.94062 0.38832 0.53575
 O133 O 1.06142 0.60739 0.53730
 C134 C 1.09242 0.57628 0.56819
 C135 C 0.91279 0.41509 0.57110
 C136 C 0.90901 0.60196 0.57611
 C137 C 1.09542 0.39848 0.56624
 O138 O 1.10211 0.46271 0.44040
 O139 O 0.88723 0.54141 0.45137
 O140 O 1.02152 0.60077 0.44469
 O141 O 0.97311 0.40114 0.44187
 O142 O 0.88809 0.44008 0.47349
 O143 O 1.10841 0.56022 0.46992
 O144 O 1.07791 0.38077 0.46502
 O145 O 0.91825 0.62077 0.47604
 Co146 Co 1.09812 0.49130 0.50148
 Co147 Co 0.89999 0.50645 0.50972
 Co148 Co 0.99169 0.59820 0.50576
 Co149 Co 1.00775 0.40135 0.50121
 O150 O 0.99924 0.49947 0.50453
 C151 C 1.09987 0.40906 0.43248
 C152 C 0.89298 0.59446 0.44413
 C153 C 1.07746 0.59103 0.43889
 C154 C 0.91691 0.41321 0.43843
 O155 O 0.60178 0.01862 0.55780
 O156 O 0.39934 -0.02805 0.55913
 O157 O 0.46315 0.10137 0.56020
 O158 O 0.53945 -0.11140 0.55382
 O159 O 0.38056 0.07596 0.53601
 O160 O 0.62082 -0.08386 0.52921
 O161 O 0.43824 -0.11237 0.52784
 O162 O 0.56238 0.10456 0.53142
 C163 C 0.59152 0.07400 0.56351
 C164 C 0.41149 -0.08369 0.56286
 C165 C 0.40898 0.09955 0.56792
 C166 C 0.59288 -0.10616 0.56185
 O167 O 0.60672 -0.04224 0.43667
 O168 O 0.39334 0.03943 0.44048
 O169 O 0.52336 0.09792 0.43918
 O170 O 0.47433 -0.10174 0.43411
 O171 O 0.38903 -0.06063 0.46385
 O172 O 0.61015 0.05623 0.46450
 O173 O 0.57894 -0.12306 0.46048
 O174 O 0.42001 0.11858 0.46883
 Co175 Co 0.59933 -0.01197 0.49727
 Co176 Co 0.40097 0.00590 0.49971
 Co177 Co 0.49286 0.09508 0.49954
 Co178 Co 0.50711 -0.10175 0.49430
 O179 O 0.50008 -0.00325 0.49772
 C180 C 0.60314 -0.09560 0.42862
 C181 C 0.39879 0.09266 0.43456
 C182 C 0.57923 0.08761 0.43358
 C183 C 0.41837 -0.08848 0.42949
 O184 O 0.60248 0.51752 0.05952
 O185 O 0.40002 0.47105 0.06249
 O186 O 0.46192 0.59981 0.06334
 O187 O 0.54128 0.38756 0.05488
 O188 O 0.37964 0.57480 0.03851
 O189 O 0.62124 0.41488 0.02787
 O190 O 0.43990 0.38635 0.03173
 O191 O 0.56086 0.60404 0.03494
 C192 C 0.59270 0.57302 0.06544
 C193 C 0.41192 0.41532 0.06621
 C194 C 0.40783 0.59723 0.07104
 C195 C 0.59461 0.39379 0.06171
 O196 O 0.60622 0.45942 -0.06249
 O197 O 0.39223 0.53776 -0.05660
 O198 O 0.52246 0.59810 -0.05805
 O199 O 0.47172 0.39857 -0.06388
 O200 O 0.38790 0.43748 -0.03123
 O201 O 0.60917 0.55757 -0.03231
 O202 O 0.57701 0.37798 -0.04058
 O203 O 0.41917 0.61694 -0.02829
 Co204 Co 0.59921 0.48813 -0.00142
 Co205 Co 0.40055 0.50464 0.00291
 Co206 Co 0.49180 0.59438 0.00249
 Co207 Co 0.50687 0.39796 -0.00418
 O208 O 0.49966 0.49623 -0.00003
 C209 C 0.60194 0.40639 -0.07152
 C210 C 0.39865 0.59081 -0.06272
 C211 C 0.57838 0.58812 -0.06360
 C212 C 0.41542 0.40934 -0.06610
 C213 C 1.19595 0.10828 0.16013
 C214 C 1.18008 0.17133 0.16743
 C215 C 1.13120 0.20281 0.14106
 C216 C 1.09918 0.17246 0.10845
 C217 C 1.11558 0.10986 0.10097
 C218 C 1.16354 0.07787 0.12764
 H219 H 1.23459 0.08211 0.17773
 H220 H 1.11860 0.25143 0.14496
 H221 H 1.06245 0.19834 0.08819
 H222 H 1.17767 0.02974 0.12194
 C223 C 1.20618 0.60526 0.66224
 C224 C 1.19026 0.66837 0.66923
 C225 C 1.14023 0.69952 0.64405
 C226 C 1.10674 0.66879 0.61312
 C227 C 1.12308 0.60618 0.60587
 C228 C 1.17241 0.57440 0.63119
 H229 H 1.24568 0.57943 0.67900
 H230 H 1.12760 0.74817 0.64776
 H231 H 1.06898 0.69444 0.59380
 H232 H 1.18642 0.52618 0.62547
 C233 C 0.69978 0.10427 0.66169
 C234 C 0.68210 0.16731 0.66973
 C235 C 0.63241 0.19753 0.64308
 C236 C 0.60144 0.16639 0.61047
 C237 C 0.61964 0.10420 0.60263
 C238 C 0.66826 0.07310 0.62907
 H239 H 0.73939 0.07872 0.67859
 H240 H 0.61851 0.24609 0.64638
 H241 H 0.56426 0.19155 0.59021
 H242 H 0.68380 0.02519 0.62286
 C243 C 0.70796 0.60144 0.15885
 C244 C 0.69421 0.66496 0.16462
 C245 C 0.64571 0.69675 0.13812
 C246 C 0.61124 0.66631 0.10767
 C247 C 0.62499 0.60321 0.10212
 C248 C 0.67328 0.57091 0.12822
 H249 H 0.74612 0.57464 0.17646
 H250 H 0.63457 0.74561 0.14092
 H251 H 0.57449 0.69251 0.08763
 H252 H 0.68551 0.52230 0.12377
 C253 C 0.88297 -0.21105 0.14312
 C254 C 0.83567 -0.18464 0.17419
 C255 C 0.81679 -0.12161 0.17300
 C256 C 0.84209 -0.08633 0.13884
 C257 C 0.88625 -0.11382 0.10523
 C258 C 0.90799 -0.17616 0.10918
 H259 H 0.89776 -0.25963 0.14298
 H260 H 0.77952 -0.10045 0.19596
 H261 H 0.82460 -0.03835 0.13687
 H262 H 0.94246 -0.19872 0.08437
 C263 C 0.85447 0.28389 0.62902
 C264 C 0.82527 0.30879 0.67168
 C265 C 0.83154 0.36858 0.68459
 C266 C 0.86061 0.40411 0.65261
 C267 C 0.88631 0.37932 0.60858
 C268 C 0.88480 0.31812 0.59851
 H269 H 0.85375 0.23723 0.61870
 H270 H 0.80993 0.38942 0.71715
 H271 H 0.86179 0.45104 0.66172
 H272 H 0.90505 0.29677 0.56566
 C273 C 0.31892 -0.12046 0.67176
 C274 C 0.33420 -0.18381 0.67240
 C275 C 0.38003 -0.21257 0.64107
 C276 C 0.40725 -0.17928 0.60736
 C277 C 0.38896 -0.11637 0.60391
 C278 C 0.34623 -0.08683 0.63772
 H279 H 0.28301 -0.09756 0.69520
 H280 H 0.39217 -0.26146 0.64082
 H281 H 0.44067 -0.20332 0.58242
 H282 H 0.33155 -0.03832 0.63615
 C283 C 0.37279 0.28649 0.14097
 C284 C 0.32738 0.31606 0.17229
 C285 C 0.31492 0.37959 0.17289
 C286 C 0.34462 0.41280 0.14005
 C287 C 0.38713 0.38270 0.10632
 C288 C 0.40253 0.31936 0.10857
 H289 H 0.38291 0.23748 0.13984
 H290 H 0.27949 0.40319 0.19641
 H291 H 0.33205 0.46159 0.13938
 H292 H 0.43558 0.29477 0.08362
 C293 C 0.84725 0.11987 -0.19491
 C294 C 0.82646 0.18284 -0.19747
 C295 C 0.83455 0.21861 -0.15641
 C296 C 0.85737 0.19130 -0.11325
 C297 C 0.87233 0.12799 -0.11029
 C298 C 0.86878 0.09291 -0.15193
 H299 H 0.84624 0.09053 -0.22611
 H300 H 0.81978 0.26705 -0.15603
 H301 H 0.86083 0.21944 -0.08167
 H302 H 0.88233 0.04418 -0.15123
 C303 C 0.86989 0.70018 0.33675
 C304 C 0.82510 0.67587 0.31097
 C305 C 0.79945 0.62862 0.33214
 C306 C 0.82112 0.60322 0.37555
 C307 C 0.86736 0.62574 0.40034
 C308 C 0.89047 0.67562 0.38141
 H309 H 0.88977 0.73719 0.32206
 H310 H 0.76207 0.61090 0.31551
 H311 H 0.80145 0.56576 0.38983
 H312 H 0.92566 0.69432 0.40040
 C313 C 0.35658 0.11898 0.30411
 C314 C 0.32922 0.18028 0.30448
 C315 C 0.33007 0.21417 0.34751
 C316 C 0.35488 0.18641 0.38972
 C317 C 0.37789 0.12417 0.38975
 C318 C 0.37970 0.09106 0.34640
 H319 H 0.35839 0.09188 0.27136
 H320 H 0.30898 0.26124 0.34938
 H321 H 0.35344 0.21285 0.42281
 H322 H 0.39851 0.04325 0.34536
 C323 C 0.33572 0.71264 -0.15103
 C324 C 0.33835 0.67920 -0.19447
 C325 C 0.36631 0.61806 -0.19456
 C326 C 0.38607 0.58962 -0.15161
 C327 C 0.38037 0.62223 -0.10796
 C328 C 0.35728 0.68445 -0.10814
 H329 H 0.31413 0.75958 -0.14947
 H330 H 0.37068 0.59141 -0.22763
 H331 H 0.40536 0.54193 -0.15241
 H332 H 0.35321 0.71051 -0.07476
 C333 C 1.15067 -0.21176 -0.16533
 C334 C 1.18864 -0.18324 -0.19515
 C335 C 1.19799 -0.12447 -0.18361
 C336 C 1.16804 -0.09389 -0.14365
 C337 C 1.12924 -0.12222 -0.11428
 C338 C 1.12131 -0.18160 -0.12533
 H339 H 1.14386 -0.25772 -0.17285
 H340 H 1.22733 -0.10190 -0.20601
 H341 H 1.17528 -0.04818 -0.13571
 H342 H 1.09207 -0.20466 -0.10324
 C343 C 1.19295 0.37664 0.31702
 C344 C 1.18017 0.31941 0.30412
 C345 C 1.14154 0.29167 0.33395
 C346 C 1.11563 0.32082 0.37565
 C347 C 1.12750 0.37847 0.38829
 C348 C 1.16625 0.40631 0.35855
 H349 H 1.22290 0.39858 0.29470
 H350 H 1.13210 0.24683 0.32544
 H351 H 1.08610 0.29830 0.39792
 H352 H 1.17638 0.45075 0.36764
 C353 C 0.64615 -0.21363 0.33059
 C354 C 0.68674 -0.18679 0.30197
 C355 C 0.69992 -0.12987 0.31534
 C356 C 0.67215 -0.09978 0.35627
 C357 C 0.63175 -0.12682 0.38500
 C358 C 0.61908 -0.18402 0.37177
 H359 H 0.63630 -0.25821 0.32170
 H360 H 0.73127 -0.10855 0.29393
 H361 H 0.68282 -0.05566 0.36574
 H362 H 0.58817 -0.20585 0.39322
 C363 C 0.70792 0.36521 -0.17911
 C364 C 0.68376 0.31670 -0.19998
 C365 C 0.63228 0.29878 -0.17741
 C366 C 0.60651 0.32761 -0.13562
 C367 C 0.63019 0.37616 -0.11555
 C368 C 0.68071 0.39528 -0.13782
 H369 H 0.74656 0.38144 -0.19529
 H370 H 0.61306 0.26022 -0.19002
 H371 H 0.56771 0.31195 -0.11903
 H372 H 0.69972 0.43294 -0.12287
 C373 C 1.19521 0.12615 -0.14994
 C374 C 1.16624 0.17812 -0.17374
 C375 C 1.10355 0.19822 -0.16502
 C376 C 1.07119 0.16743 -0.13293
 C377 C 1.10125 0.11715 -0.10804
 C378 C 1.16306 0.09590 -0.11769
 H379 H 1.24364 0.11040 -0.15466
 H380 H 1.07974 0.23932 -0.18068
 H381 H 1.02363 0.18503 -0.12551
 H382 H 1.18730 0.05724 -0.09875
 C383 C 1.10379 0.69063 0.33392
 C384 C 1.16759 0.68877 0.33576
 C385 C 1.20100 0.65070 0.36967
 C386 C 1.17170 0.61765 0.40201
 C387 C 1.10800 0.62172 0.40139
 C388 C 1.07444 0.65764 0.36657
 H389 H 1.07549 0.71691 0.30777
 H390 H 1.25015 0.64707 0.37141
 H391 H 1.19900 0.58985 0.42825
 H392 H 1.02545 0.66062 0.36477
 C393 C 0.60672 0.20013 0.33869
 C394 C 0.67065 0.18701 0.33317
 C395 C 0.70317 0.13924 0.35979
 C396 C 0.67299 0.10531 0.39073
 C397 C 0.60949 0.11883 0.39643
 C398 C 0.57645 0.16593 0.36969
 H399 H 0.57965 0.23769 0.32070
 H400 H 0.75242 0.12871 0.35712
 H401 H 0.69964 0.06939 0.41114
 H402 H 0.52746 0.17782 0.37407
 C403 C 0.70151 0.64995 -0.13069
 C404 C 0.66866 0.68645 -0.16616
 C405 C 0.60549 0.68446 -0.17046
 C406 C 0.57597 0.65159 -0.13775
 C407 C 0.60899 0.61848 -0.10112
 C408 C 0.67221 0.61661 -0.09879
 H409 H 0.75032 0.64814 -0.12711
 H410 H 0.57796 0.70771 -0.19867
 H411 H 0.52726 0.65244 -0.14089
 H412 H 0.69911 0.59066 -0.07132
 C413 C 0.86753 -0.16487 -0.18444
 C414 C 0.80521 -0.16540 -0.17506
 C415 C 0.77767 -0.13113 -0.13552
 C416 C 0.81167 -0.10185 -0.10385
 C417 C 0.87504 -0.10682 -0.10958
 C418 C 0.90258 -0.13685 -0.15121
 H419 H 0.89029 -0.19080 -0.21448
 H420 H 0.72935 -0.12847 -0.12805
 H421 H 0.78833 -0.07797 -0.07311
 H422 H 0.95129 -0.14065 -0.15703
 C423 C 0.87983 0.32039 0.32969
 C424 C 0.81586 0.33375 0.32994
 C425 C 0.78653 0.37846 0.36184
 C426 C 0.81999 0.40649 0.39514
 C427 C 0.88369 0.39009 0.39769
 C428 C 0.91362 0.34841 0.36338
 H429 H 0.90324 0.28543 0.30579
 H430 H 0.73719 0.38921 0.36278
 H431 H 0.79556 0.43902 0.42049
 H432 H 0.96270 0.33513 0.36424
 C433 C 0.37959 -0.18568 0.32402
 C434 C 0.31614 -0.16746 0.32153
 C435 C 0.28859 -0.11815 0.34993
 C436 C 0.32287 -0.09029 0.38279
 C437 C 0.38557 -0.11135 0.38833
 C438 C 0.41420 -0.15766 0.35712
 H439 H 0.40154 -0.22438 0.30307
 H440 H 0.23962 -0.10386 0.34899
 H441 H 0.29953 -0.05423 0.40574
 H442 H 0.46248 -0.17470 0.36038
 C443 C 0.37016 0.33076 -0.18104
 C444 C 0.31085 0.32153 -0.16809
 C445 C 0.28582 0.34713 -0.12421
 C446 C 0.31949 0.37728 -0.09296
 C447 C 0.38020 0.38219 -0.10357
 C448 C 0.40516 0.35962 -0.14840
 H449 H 0.39113 0.31196 -0.21446
 H450 H 0.23937 0.34427 -0.11367
 H451 H 0.29818 0.39497 -0.05932
 H452 H 0.45174 0.36345 -0.15780
 C453 C 1.12099 -0.19797 0.17074
 C454 C 1.17262 -0.17748 0.19008
 C455 C 1.19873 -0.13434 0.16412
 C456 C 1.17251 -0.11107 0.12072
 C457 C 1.11933 -0.12995 0.10314
 C458 C 1.09429 -0.17389 0.12846
 H459 H 1.10108 -0.23351 0.18772
 H460 H 1.23873 -0.11798 0.17755
 H461 H 1.19298 -0.07754 0.10145
 H462 H 1.05407 -0.19022 0.11532
 C463 C 1.21794 0.33111 0.65366
 C464 C 1.18377 0.33168 0.69664
 C465 C 1.12253 0.36041 0.69709
 C466 C 1.09441 0.38279 0.65468
 C467 C 1.12740 0.37882 0.61117
 C468 C 1.18999 0.35515 0.61121
 H469 H 1.26504 0.30905 0.65203
 H470 H 1.09540 0.36299 0.72994
 H471 H 1.04647 0.40234 0.65570
 H472 H 1.21639 0.35235 0.57799
 C473 C 0.61387 -0.17787 0.68435
 C474 C 0.67563 -0.17574 0.69567
 C475 C 0.70969 -0.14799 0.66154
 C476 C 0.68329 -0.12500 0.61801
 C477 C 0.62236 -0.12914 0.60739
 C478 C 0.58806 -0.15507 0.64141
 H479 H 0.58433 -0.19918 0.70718
 H480 H 0.75678 -0.14394 0.66744
 H481 H 0.71067 -0.10435 0.59256
 H482 H 0.54082 -0.15870 0.63463
 C483 C 0.71521 0.33194 0.15249
 C484 C 0.67997 0.33271 0.19504
 C485 C 0.61787 0.35855 0.19365
 C486 C 0.59062 0.37853 0.15023
 C487 C 0.62517 0.37510 0.10746
 C488 C 0.68809 0.35366 0.10912
 H489 H 0.76294 0.31198 0.15192
 H490 H 0.58969 0.36157 0.22592
 H491 H 0.54225 0.39636 0.15000
 H492 H 0.71566 0.35119 0.07652
 C493 C 0.78718 0.15137 0.16711
 C494 C 0.81762 0.18784 0.19692
 C495 C 0.87601 0.19785 0.18375
 C496 C 0.90440 0.17008 0.14215
 C497 C 0.87417 0.13288 0.11270
 C498 C 0.81515 0.12420 0.12543
 H499 H 0.74134 0.14423 0.17588
 H500 H 0.89992 0.22621 0.20603
 H501 H 0.94991 0.17784 0.13294
 H502 H 0.79074 0.09608 0.10334
 C503 C 0.80134 0.63284 0.68247
 C504 C 0.81649 0.68672 0.70265
 C505 C 0.86399 0.71161 0.68056
 C506 C 0.89527 0.68330 0.64014
 C507 C 0.87838 0.63077 0.61986
 C508 C 0.83122 0.60595 0.64139
 H509 H 0.76395 0.61252 0.69635
 H510 H 0.87854 0.75189 0.69505
 H511 H 0.93190 0.70314 0.62414
 H512 H 0.81735 0.56549 0.62638
 C513 C 0.38000 0.19099 0.68449
 C514 C 0.32002 0.18385 0.69532
 C515 C 0.28872 0.15112 0.66304
 C516 C 0.31747 0.12416 0.62155
 C517 C 0.37815 0.12947 0.61130
 C518 C 0.40910 0.16357 0.64294
 H519 H 0.40466 0.21645 0.70867
 H520 H 0.24174 0.14628 0.66997
 H521 H 0.29237 0.09866 0.59775
 H522 H 0.45590 0.16880 0.63570
 C523 C 0.37210 0.69405 0.18398
 C524 C 0.31513 0.68012 0.19746
 C525 C 0.28917 0.63840 0.16940
 C526 C 0.31940 0.61143 0.12839
 C527 C 0.37649 0.62512 0.11490
 C528 C 0.40292 0.66623 0.14333
 H529 H 0.39282 0.72620 0.20501
 H530 H 0.24467 0.62777 0.17848
 H531 H 0.29806 0.57989 0.10718
 H532 H 0.44692 0.67767 0.13365
   
