data_POSCAR
  _audit_creation_date              2014-09-24
  _audit_creation_method            'ToBaCCo'
  _symmetry_space_group_name_H-M    'P1'
  _symmetry_Int_Tables_number       1
  _symmetry_cell_setting            triclinic
  loop_
  _symmetry_equiv_pos_as_xyz
 x,y,z
_cell_length_a 45.0586
_cell_length_b 48.5986
_cell_length_c 25.6948
_cell_angle_alpha 89.918900
_cell_angle_beta 90.071700
_cell_angle_gamma 119.843700
loop_
  _atom_site_label
  _atom_site_type_symbol
  _atom_site_fract_x
  _atom_site_fract_y
  _atom_site_fract_z
C1 C 0.45618 0.90232 0.47309
 C2 C 0.45785 0.90221 0.52636
 C3 C 0.46677 0.93257 0.54280
 N4 N 0.47015 0.95098 0.50123
 C5 C 0.46390 0.93264 0.45857
 C6 C 0.46751 0.94180 0.59525
 C7 C 0.47890 0.97361 0.61058
 C8 C 0.47523 0.98279 0.66026
 C9 C 0.49178 1.01529 0.66063
 C10 C 0.50566 1.02539 0.61144
 N11 N 0.49773 0.99985 0.58116
 C12 C 0.52578 1.05767 0.59640
 C13 C 0.53085 1.06737 0.54353
 C14 C 0.55393 1.09767 0.52600
 C15 C 0.55020 1.09743 0.47309
 C16 C 0.52542 1.06690 0.45978
 N17 N 0.51348 1.04855 0.50284
 C18 C 0.51353 1.05690 0.40862
 C19 C 0.49351 1.02474 0.39399
 C20 C 0.47745 1.01441 0.34619
 C21 C 0.46317 0.98197 0.34554
 C22 C 0.47066 0.97331 0.39314
 N23 N 0.48940 0.99958 0.42224
 C24 C 0.46188 0.94199 0.40718
 H25 H 0.44898 0.88204 0.44812
 H26 H 0.45205 0.88176 0.55016
 H27 H 0.50202 1.00071 0.45666
 H28 H 0.46245 0.96777 0.69338
 H29 H 0.49344 1.02985 0.69357
 H30 H 0.57189 1.11786 0.54880
 H31 H 0.56449 1.11736 0.44726
 H32 H 0.44921 0.96665 0.31331
 H33 H 0.50792 1.00053 0.54463
 H34 H 0.47660 1.02879 0.31466
 C35 C -0.10497 0.43488 0.47470
 C36 C -0.10380 0.43226 0.52761
 C37 C -0.07165 0.45576 0.54358
 N38 N -0.05293 0.47218 0.50176
 C39 C -0.07311 0.45927 0.45941
 C40 C -0.06038 0.46225 0.59613
 C41 C -0.02562 0.48315 0.60949
 C42 C -0.01443 0.49736 0.65786
 C43 C 0.02064 0.51447 0.65600
 C44 C 0.03005 0.51074 0.60634
 N45 N 0.00173 0.49158 0.57818
 C46 C 0.06424 0.52324 0.58959
 C47 C 0.07370 0.52526 0.53691
 C48 C 0.10631 0.53409 0.51933
 C49 C 0.10517 0.53511 0.46604
 C50 C 0.07199 0.52718 0.45299
 N51 N 0.05288 0.52134 0.49638
 C52 C 0.06037 0.52725 0.40199
 C53 C 0.02590 0.51737 0.38975
 C54 C 0.01500 0.52308 0.34265
 C55 C -0.02011 0.50757 0.34432
 C56 C -0.02990 0.49286 0.39271
 N57 N -0.00153 0.49897 0.41998
 C58 C -0.06405 0.47101 0.40781
 H59 H -0.12702 0.42043 0.45061
 H60 H -0.12447 0.41497 0.55147
 H61 H -0.00105 0.48771 0.45405
 H62 H -0.02994 0.49561 0.69120
 H63 H 0.03730 0.52806 0.68775
 H64 H 0.12865 0.53949 0.54248
 H65 H 0.12646 0.54140 0.43998
 H66 H -0.03633 0.50640 0.31240
 H67 H 0.00123 0.48193 0.54189
 H68 H 0.03067 0.53639 0.30987
 C69 C 0.56622 0.46305 0.53588
 C70 C 0.56805 0.46368 0.48263
 C71 C 0.54426 0.47166 0.46508
 N72 N 0.52739 0.47524 0.50567
 C73 C 0.54071 0.46989 0.54917
 C74 C 0.53760 0.47427 0.41220
 C75 C 0.51852 0.48841 0.39499
 C76 C 0.50713 0.48701 0.34438
 C77 C 0.49249 0.50597 0.34247
 C78 C 0.49541 0.51848 0.39193
 N79 N 0.51140 0.50772 0.42365
 C80 C 0.48495 0.54051 0.40575
 C81 C 0.48131 0.54771 0.45780
 C82 C 0.47324 0.57059 0.47265
 C83 C 0.46904 0.56816 0.52561
 C84 C 0.47521 0.54414 0.54167
 N85 N 0.48233 0.53152 0.49994
 C86 C 0.47049 0.53178 0.59292
 C87 C 0.47968 0.50882 0.60790
 C88 C 0.47099 0.49246 0.65491
 C89 C 0.48776 0.47546 0.65700
 C90 C 0.50695 0.48220 0.61181
 N91 N 0.50173 0.50238 0.58193
 C92 C 0.52978 0.47079 0.60063
 H93 H 0.58219 0.45838 0.56170
 H94 H 0.58532 0.45928 0.45951
 H95 H 0.51590 0.51418 0.54920
 H96 H 0.50957 0.47407 0.31198
 H97 H 0.48126 0.51028 0.30836
 H98 H 0.46990 0.58685 0.44782
 H99 H 0.46140 0.58201 0.54910
 H100 H 0.48636 0.46018 0.68873
 H101 H 0.52056 0.51600 0.46080
 H102 H 0.45498 0.49312 0.68560
 O103 O 0.39745 0.68011 -0.05695
 O104 O 0.40021 0.73410 -0.04058
 C105 C 0.37993 0.73950 -0.06761
 O106 O 0.34794 0.72551 -0.05964
 O107 O 0.28880 0.67421 -0.04671
 C108 C 0.28383 0.65017 -0.07324
 O109 O 0.29909 0.63481 -0.06365
 O110 O 0.35386 0.63114 -0.04501
 C111 C 0.38097 0.65098 -0.06874
 O112 O 0.39579 0.66919 0.04648
 O113 O 0.39584 0.72225 0.06285
 C114 C 0.38068 0.73784 0.07131
 O115 O 0.35549 0.73445 0.04407
 O116 O 0.29823 0.68158 0.05734
 C117 C 0.28143 0.65200 0.06593
 O118 O 0.28545 0.63203 0.03922
 O119 O 0.34168 0.63110 0.05807
 C120 C 0.37304 0.64481 0.07038
 Cr121 Cr 0.39545 0.70058 0.00285
 Cr122 Cr 0.32349 0.70301 -0.00122
 Cr123 Cr 0.32103 0.63401 -0.00276
 O124 O 0.34669 0.67920 -0.00042
 O125 O 0.60239 0.31828 -0.05472
 O126 O 0.60420 0.26613 -0.04455
 C127 C 0.62588 0.26370 -0.07297
 O128 O 0.65782 0.27901 -0.06460
 O129 O 0.71453 0.33228 -0.04681
 C130 C 0.71706 0.35626 -0.07085
 O131 O 0.69990 0.36941 -0.05835
 O132 O 0.64271 0.36791 -0.03700
 C133 C 0.61722 0.34782 -0.06346
 O134 O 0.60208 0.32461 0.04994
 O135 O 0.60697 0.27346 0.06007
 C136 C 0.62410 0.25940 0.06562
 O137 O 0.65002 0.26573 0.03768
 O138 O 0.70470 0.32012 0.05609
 C139 C 0.71937 0.34927 0.06800
 O140 O 0.71333 0.36904 0.04443
 O141 O 0.65456 0.36485 0.06521
 C142 C 0.62297 0.34891 0.07593
 Cr143 Cr 0.60573 0.29655 0.00272
 Cr144 Cr 0.68079 0.30012 -0.00421
 Cr145 Cr 0.67681 0.36607 0.00350
 O146 O 0.65441 0.32090 0.00077
 C147 C 0.40817 0.88514 -0.30656
 C148 C 0.42606 0.86972 -0.28922
 C149 C 0.45872 0.87954 -0.31118
 C150 C 0.47211 0.90306 -0.34994
 C151 C 0.45391 0.91790 -0.36651
 C152 C 0.42196 0.90879 -0.34448
 C153 C 0.47799 0.86604 -0.29411
 C154 C 0.46598 0.84338 -0.25484
 C155 C 0.43368 0.83275 -0.23160
 C156 C 0.41290 0.84533 -0.25041
 C157 C 0.37947 0.83281 -0.23032
 C158 C 0.36706 0.80954 -0.19218
 C159 C 0.38749 0.79808 -0.17178
 C160 C 0.42121 0.80964 -0.19066
 C161 C 0.44110 0.79782 -0.16712
 C162 C 0.42777 0.77525 -0.12729
 C163 C 0.39420 0.76354 -0.10966
 C164 C 0.37424 0.77511 -0.13228
 H165 H 0.38377 0.88001 -0.29100
 H166 H 0.49704 0.91030 -0.36669
 H167 H 0.40754 0.92005 -0.35681
 H168 H 0.50288 0.87333 -0.31093
 H169 H 0.48251 0.83418 -0.24423
 H170 H 0.36179 0.84003 -0.24402
 H171 H 0.34117 0.80058 -0.17814
 H172 H 0.46726 0.80586 -0.17785
 H173 H 0.44385 0.76685 -0.11039
 H174 H 0.34833 0.76653 -0.11863
 C175 C 0.12911 0.52790 -0.31237
 C176 C 0.14426 0.55967 -0.29449
 C177 C 0.13180 0.57903 -0.31543
 C178 C 0.10603 0.56714 -0.35356
 C179 C 0.09170 0.53580 -0.37066
 C180 C 0.10322 0.51627 -0.34981
 C181 C 0.14493 0.61011 -0.29809
 C182 C 0.16983 0.62244 -0.25956
 C183 C 0.18311 0.60424 -0.23723
 C184 C 0.17089 0.57268 -0.25619
 C185 C 0.18596 0.55531 -0.23665
 C186 C 0.21129 0.56783 -0.19888
 C187 C 0.22241 0.59793 -0.17841
 C188 C 0.20845 0.61660 -0.19688
 C189 C 0.22013 0.64667 -0.17346
 C190 C 0.24462 0.65755 -0.13380
 C191 C 0.25849 0.63905 -0.11619
 C192 C 0.24733 0.60930 -0.13905
 H193 H 0.13616 0.51118 -0.29769
 H194 H 0.09675 0.58210 -0.36968
 H195 H 0.09205 0.49188 -0.36259
 H196 H 0.13562 0.62504 -0.31417
 H197 H 0.17854 0.64667 -0.24872
 H198 H 0.17913 0.53198 -0.25035
 H199 H 0.22208 0.55356 -0.18515
 H200 H 0.21046 0.66219 -0.18407
 H201 H 0.25264 0.68058 -0.11676
 H202 H 0.25758 0.59456 -0.12551
 C203 C 0.40909 0.53241 -0.31093
 C204 C 0.42727 0.56377 -0.29120
 C205 C 0.45989 0.58450 -0.31296
 C206 C 0.47378 0.57383 -0.35156
 C207 C 0.45578 0.54252 -0.36955
 C208 C 0.42318 0.52210 -0.34939
 C209 C 0.47874 0.61574 -0.29587
 C210 C 0.46618 0.62711 -0.25731
 C211 C 0.43407 0.60750 -0.23373
 C212 C 0.41436 0.57524 -0.25071
 C213 C 0.38266 0.55544 -0.22617
 C214 C 0.37058 0.56661 -0.18649
 C215 C 0.38933 0.59797 -0.16970
 C216 C 0.42120 0.61900 -0.19328
 C217 C 0.43884 0.65071 -0.17522
 C218 C 0.42563 0.66077 -0.13522
 C219 C 0.39439 0.63979 -0.11152
 C220 C 0.37631 0.60836 -0.12922
 H221 H 0.38391 0.51518 -0.29774
 H222 H 0.49904 0.58979 -0.36713
 H223 H 0.40850 0.49795 -0.36355
 H224 H 0.50365 0.63166 -0.31244
 H225 H 0.48270 0.65148 -0.24648
 H226 H 0.36652 0.53087 -0.23626
 H227 H 0.34619 0.55043 -0.16868
 H228 H 0.46288 0.66856 -0.19113
 H229 H 0.44019 0.68527 -0.12273
 H230 H 0.35197 0.59190 -0.11156
 C231 C 0.57530 0.10136 -0.28607
 C232 C 0.57024 0.12785 -0.28491
 C233 C 0.54860 0.12962 -0.32326
 C234 C 0.53468 0.10686 -0.36300
 C235 C 0.54042 0.08100 -0.36416
 C236 C 0.56031 0.07824 -0.32466
 C237 C 0.54064 0.15390 -0.32145
 C238 C 0.55283 0.17600 -0.28140
 C239 C 0.57470 0.17541 -0.24258
 C240 C 0.58517 0.15212 -0.24624
 C241 C 0.61077 0.15431 -0.21197
 C242 C 0.62477 0.17775 -0.17410
 C243 C 0.61288 0.19908 -0.16748
 C244 C 0.58707 0.19777 -0.20079
 C245 C 0.57403 0.21832 -0.18991
 C246 C 0.58661 0.23954 -0.14829
 C247 C 0.61304 0.24151 -0.11708
 C248 C 0.62630 0.22144 -0.12708
 H249 H 0.58987 0.09732 -0.25679
 H250 H 0.51828 0.10863 -0.39218
 H251 H 0.56491 0.05837 -0.32427
 H252 H 0.52427 0.15551 -0.35081
 H253 H 0.54562 0.19406 -0.28291
 H254 H 0.62141 0.13881 -0.21467
 H255 H 0.64464 0.17875 -0.14900
 H256 H 0.55328 0.21777 -0.21167
 H257 H 0.57580 0.25467 -0.14064
 H258 H 0.64627 0.22248 -0.10211
 C259 C 0.89776 0.41832 -0.28184
 C260 C 0.86679 0.41914 -0.28132
 C261 C 0.86123 0.43573 -0.32212
 C262 C 0.88507 0.44956 -0.36265
 C263 C 0.91538 0.44804 -0.36317
 C264 C 0.92155 0.43263 -0.32184
 C265 C 0.83200 0.43867 -0.32222
 C266 C 0.80831 0.42603 -0.28214
 C267 C 0.81252 0.40920 -0.24062
 C268 C 0.84151 0.40459 -0.24135
 C269 C 0.84395 0.38512 -0.20267
 C270 C 0.81951 0.37139 -0.16375
 C271 C 0.79210 0.37702 -0.16093
 C272 C 0.78840 0.39637 -0.19881
 C273 C 0.76099 0.40250 -0.19262
 C274 C 0.73810 0.38951 -0.15121
 C275 C 0.74142 0.36978 -0.11472
 C276 C 0.76847 0.36354 -0.12001
 H277 H 0.90475 0.40734 -0.25145
 H278 H 0.88047 0.46240 -0.39326
 H279 H 0.94472 0.43107 -0.32098
 H280 H 0.82751 0.45118 -0.35347
 H281 H 0.78639 0.42922 -0.28559
 H282 H 0.86411 0.37933 -0.20207
 H283 H 0.82237 0.35646 -0.13511
 H284 H 0.75691 0.41782 -0.21834
 H285 H 0.71755 0.39488 -0.14791
 H286 H 0.77159 0.34868 -0.09154
 C287 C 0.56694 0.46741 -0.27136
 C288 C 0.56506 0.43747 -0.27306
 C289 C 0.54991 0.41830 -0.31759
 C290 C 0.53879 0.42952 -0.35944
 C291 C 0.54144 0.45954 -0.35758
 C292 C 0.55517 0.47804 -0.31268
 C293 C 0.54567 0.38791 -0.32007
 C294 C 0.55558 0.37575 -0.27893
 C295 C 0.57106 0.39392 -0.23387
 C296 C 0.57716 0.42575 -0.23185
 C297 C 0.59581 0.44501 -0.18931
 C298 C 0.60745 0.43344 -0.14953
 C299 C 0.60028 0.40204 -0.14967
 C300 C 0.58137 0.38159 -0.19124
 C301 C 0.57326 0.34949 -0.18798
 C302 C 0.58446 0.33865 -0.14619
 C303 C 0.60427 0.35932 -0.10635
 C304 C 0.61198 0.39101 -0.10831
 H305 H 0.57672 0.48298 -0.23824
 H306 H 0.52704 0.41442 -0.39301
 H307 H 0.55745 0.50127 -0.30992
 H308 H 0.53423 0.37318 -0.35409
 H309 H 0.55163 0.35219 -0.28435
 H310 H 0.60280 0.46961 -0.18630
 H311 H 0.62202 0.44924 -0.11800
 H312 H 0.55779 0.33198 -0.21657
 H313 H 0.57792 0.31397 -0.14550
 H314 H 0.62685 0.40709 -0.07724
 C315 C 0.87533 0.46999 0.30832
 C316 C 0.85944 0.43830 0.28994
 C317 C 0.86940 0.41764 0.31323
 C318 C 0.89444 0.42855 0.35240
 C319 C 0.91010 0.46004 0.36954
 C320 C 0.90019 0.48055 0.34734
 C321 C 0.85455 0.38618 0.29718
 C322 C 0.83001 0.37453 0.25821
 C323 C 0.81926 0.39401 0.23327
 C324 C 0.83426 0.42646 0.24933
 C325 C 0.82377 0.44601 0.22396
 C326 C 0.79964 0.43446 0.18432
 C327 C 0.78479 0.40298 0.16825
 C328 C 0.79417 0.38219 0.19254
 C329 C 0.77798 0.35038 0.17485
 C330 C 0.75391 0.33997 0.13478
 C331 C 0.74497 0.36070 0.11066
 C332 C 0.76055 0.39223 0.12780
 H333 H 0.86925 0.48733 0.29353
 H334 H 0.90222 0.41261 0.36920
 H335 H 0.91177 0.50495 0.36038
 H336 H 0.86206 0.37031 0.31492
 H337 H 0.82013 0.34998 0.24839
 H338 H 0.83388 0.47063 0.23354
 H339 H 0.79254 0.45046 0.16594
 H340 H 0.78316 0.33276 0.19101
 H341 H 0.74230 0.31543 0.12260
 H342 H 0.75376 0.40853 0.10974
 C343 C 0.51868 0.12556 0.33162
 C344 C 0.54275 0.13018 0.29221
 C345 C 0.55683 0.10974 0.29220
 C346 C 0.54668 0.08560 0.32954
 C347 C 0.52296 0.08159 0.36798
 C348 C 0.50909 0.10166 0.36886
 C349 C 0.58117 0.11359 0.25523
 C350 C 0.59253 0.13769 0.21855
 C351 C 0.57965 0.15889 0.21692
 C352 C 0.55364 0.15452 0.25340
 C353 C 0.53918 0.17442 0.24953
 C354 C 0.55006 0.19808 0.21204
 C355 C 0.57610 0.20330 0.17734
 C356 C 0.59160 0.18408 0.17956
 C357 C 0.61869 0.19115 0.14448
 C358 C 0.62918 0.21562 0.10820
 C359 C 0.61320 0.23401 0.10533
 C360 C 0.58671 0.22774 0.14032
 H361 H 0.50719 0.14028 0.33549
 H362 H 0.55762 0.07013 0.32936
 H363 H 0.49089 0.09891 0.39879
 H364 H 0.59182 0.09790 0.25487
 H365 H 0.61117 0.13867 0.19134
 H366 H 0.51886 0.17204 0.27446
 H367 H 0.53802 0.21261 0.21044
 H368 H 0.63272 0.17856 0.14429
 H369 H 0.64991 0.21999 0.08202
 H370 H 0.57432 0.24198 0.13895
 C371 C 0.59696 0.47091 0.31199
 C372 C 0.57929 0.43863 0.29646
 C373 C 0.54697 0.41844 0.31959
 C374 C 0.53373 0.43010 0.35769
 C375 C 0.55182 0.46195 0.37253
 C376 C 0.58329 0.48227 0.34937
 C377 C 0.52791 0.38679 0.30444
 C378 C 0.53975 0.37466 0.26592
 C379 C 0.57167 0.39368 0.24145
 C380 C 0.59228 0.42588 0.25830
 C381 C 0.62533 0.44414 0.23690
 C382 C 0.63746 0.43187 0.19914
 C383 C 0.61711 0.40112 0.18049
 C384 C 0.58384 0.38154 0.20099
 C385 C 0.56400 0.35083 0.17930
 C386 C 0.57679 0.34025 0.13926
 C387 C 0.60980 0.35967 0.11961
 C388 C 0.62988 0.39002 0.14085
 H389 H 0.62107 0.48820 0.29541
 H390 H 0.50914 0.41453 0.37551
 H391 H 0.59732 0.50707 0.36033
 H392 H 0.50331 0.37123 0.32222
 H393 H 0.52340 0.34996 0.25682
 H394 H 0.64289 0.46802 0.24914
 H395 H 0.66303 0.44683 0.18391
 H396 H 0.53820 0.33459 0.19148
 H397 H 0.56063 0.31672 0.12350
 H398 H 0.65535 0.40547 0.12567
 C399 C 0.10931 0.52820 0.28199
 C400 C 0.13431 0.56073 0.27703
 C401 C 0.13376 0.58214 0.31404
 C402 C 0.10976 0.57111 0.35468
 C403 C 0.08570 0.53888 0.35905
 C404 C 0.08546 0.51760 0.32239
 C405 C 0.15713 0.61446 0.31039
 C406 C 0.18100 0.62632 0.27050
 C407 C 0.18280 0.60615 0.23262
 C408 C 0.15956 0.57273 0.23662
 C409 C 0.16264 0.55241 0.20049
 C410 C 0.18711 0.56421 0.16140
 C411 C 0.20929 0.59671 0.15611
 C412 C 0.20734 0.61825 0.19123
 C413 C 0.22996 0.65105 0.18308
 C414 C 0.25366 0.66174 0.14251
 C415 C 0.25584 0.64031 0.10851
 C416 C 0.23347 0.60775 0.11563
 H417 H 0.10713 0.51031 0.25512
 H418 H 0.10961 0.58758 0.38299
 H419 H 0.06669 0.49259 0.32519
 H420 H 0.15688 0.63089 0.33868
 H421 H 0.19812 0.65156 0.27106
 H422 H 0.14680 0.52699 0.20173
 H423 H 0.18857 0.54762 0.13479
 H424 H 0.22987 0.66922 0.20688
 H425 H 0.27049 0.68706 0.13797
 H426 H 0.23467 0.59088 0.08940
 C427 C 0.40124 0.88017 0.31199
 C428 C 0.42204 0.86924 0.28884
 C429 C 0.45630 0.88262 0.30665
 C430 C 0.46919 0.90661 0.34452
 C431 C 0.44828 0.91723 0.36623
 C432 C 0.41425 0.90371 0.35018
 C433 C 0.47754 0.87197 0.28678
 C434 C 0.46557 0.84797 0.24990
 C435 C 0.43179 0.83391 0.23054
 C436 C 0.40999 0.84537 0.24920
 C437 C 0.37712 0.83302 0.22693
 C438 C 0.36574 0.81008 0.18826
 C439 C 0.38624 0.79799 0.17080
 C440 C 0.41931 0.80924 0.19226
 C441 C 0.43839 0.79509 0.17460
 C442 C 0.42558 0.77173 0.13614
 C443 C 0.39342 0.76161 0.11375
 C444 C 0.37378 0.77473 0.13169
 H445 H 0.37466 0.87068 0.30227
 H446 H 0.49547 0.91690 0.35770
 H447 H 0.39769 0.91144 0.36739
 H448 H 0.50376 0.88220 0.30014
 H449 H 0.48387 0.84149 0.23643
 H450 H 0.35969 0.84116 0.23763
 H451 H 0.34046 0.80161 0.17194
 H452 H 0.46315 0.80122 0.19001
 H453 H 0.44123 0.76183 0.12343
 H454 H 0.34861 0.76674 0.11528
 C455 C 0.49211 0.59215 0.29052
 C456 C 0.45780 0.58504 0.28312
 C457 C 0.43256 0.56228 0.31685
 C458 C 0.44160 0.54793 0.35648
 C459 C 0.47564 0.55565 0.36340
 C460 C 0.50074 0.57762 0.33007
 C461 C 0.39837 0.55389 0.31101
 C462 C 0.38830 0.56725 0.27203
 C463 C 0.41221 0.58992 0.23715
 C464 C 0.44764 0.59945 0.24342
 C465 C 0.47168 0.62321 0.21007
 C466 C 0.46156 0.63682 0.17141
 C467 C 0.42712 0.62719 0.16385
 C468 C 0.40187 0.60351 0.19638
 C469 C 0.36723 0.59418 0.18622
 C470 C 0.35827 0.60779 0.14580
 C471 C 0.38330 0.63127 0.11394
 C472 C 0.41778 0.64100 0.12349
 H473 H 0.51291 0.60860 0.26631
 H474 H 0.42215 0.53064 0.38217
 H475 H 0.52718 0.58361 0.33485
 H476 H 0.37904 0.53663 0.33686
 H477 H 0.36138 0.55942 0.27081
 H478 H 0.49880 0.63218 0.21307
 H479 H 0.48100 0.65499 0.14684
 H480 H 0.34623 0.57610 0.20815
 H481 H 0.33139 0.59974 0.13951
 H482 H 0.43742 0.65901 0.09894
   
