data_POSCAR
  _audit_creation_date              2014-09-24
  _audit_creation_method            'ToBaCCo'
  _symmetry_space_group_name_H-M    'P1'
  _symmetry_Int_Tables_number       1
  _symmetry_cell_setting            triclinic
  loop_
  _symmetry_equiv_pos_as_xyz
 x,y,z
_cell_length_a 32.6424
_cell_length_b 36.2129
_cell_length_c 33.2578
_cell_angle_alpha 90.878700
_cell_angle_beta 89.549600
_cell_angle_gamma 89.710700
loop_
  _atom_site_label
  _atom_site_type_symbol
  _atom_site_fract_x
  _atom_site_fract_y
  _atom_site_fract_z
N1 N 0.16686 0.19405 0.15055
 N2 N -0.18058 0.81507 0.17465
 N3 N -0.17941 0.19172 -0.16416
 N4 N 0.17288 0.80860 -0.18459
 N5 N 0.15172 1.17748 0.83160
 N6 N 0.85006 0.83181 0.82094
 N7 N 0.18583 0.80051 1.18151
 N8 N 0.82269 1.17741 1.17813
 O9 O 0.53230 0.96011 0.91641
 O10 O 0.45677 0.97672 1.08397
 O11 O 0.57570 0.97311 1.02455
 O12 O 0.44527 0.93023 0.96874
 O13 O 0.52327 0.95143 1.05517
 O14 O 0.45479 0.95831 0.91370
 O15 O 0.45074 0.93909 1.03678
 O16 O 0.57777 0.98930 0.95337
 C17 C 0.56868 0.96536 0.92681
 C18 C 0.44287 0.94682 1.07226
 C19 C 0.55991 0.94864 1.04559
 C20 C 0.44282 0.93064 0.93192
 O21 O 0.45144 1.02932 0.92209
 O22 O 0.52635 1.01122 1.09569
 O23 O 0.54399 1.05596 0.97361
 O24 O 0.41634 1.00959 1.03140
 O25 O 0.46976 1.03955 1.05351
 O26 O 0.52903 1.03183 0.91638
 O27 O 0.40871 0.99797 0.95964
 O28 O 0.54417 1.04114 1.04288
 Co29 Co 0.49207 0.99460 0.92419
 Co30 Co 0.49766 0.99581 1.05200
 Co31 Co 0.55492 1.01291 0.99809
 Co32 Co 0.43499 0.97098 0.99880
 O33 O 0.49349 0.99224 0.99064
 C34 C 0.41609 1.02395 0.93563
 C35 C 0.55173 1.03381 1.07910
 C36 C 0.54422 1.05756 0.93660
 C37 C 0.43197 1.03825 1.04717
 O38 O 0.02901 0.46964 0.07862
 O39 O 0.02502 0.53953 -0.07835
 O40 O 0.00353 0.42711 -0.03791
 O41 O 0.05525 0.54459 0.04276
 O42 O 0.02901 0.47063 -0.07381
 O43 O 0.01375 0.53651 0.08951
 O44 O 0.05921 0.55651 -0.02646
 O45 O 0.04396 0.44470 0.02165
 C46 C 0.05272 0.45021 0.05732
 C47 C 0.05435 0.55649 -0.06325
 C48 C 0.02689 0.43725 -0.06538
 C49 C 0.04741 0.54828 0.07853
 O50 O -0.06095 0.52706 0.06352
 O51 O -0.05247 0.46926 -0.06612
 O52 O -0.02199 0.41051 0.03607
 O53 O -0.01893 0.58125 -0.02799
 O54 O -0.05221 0.54054 -0.06591
 O55 O -0.05181 0.45886 0.06486
 O56 O -0.02429 0.57418 0.04473
 O57 O -0.06374 0.45205 -0.00532
 Co58 Co -0.01577 0.49844 0.06697
 Co59 Co -0.01212 0.50449 -0.06414
 Co60 Co -0.00937 0.45129 0.00877
 Co61 Co 0.01619 0.55962 0.00852
 O62 O -0.00394 0.50558 0.00157
 C63 C -0.05669 0.56116 0.05989
 C64 C -0.07375 0.45200 -0.04124
 C65 C -0.04521 0.42405 0.06507
 C66 C -0.04660 0.57317 -0.05333
 O67 O 1.08427 0.04690 0.45202
 O68 O 0.94717 0.04451 0.54303
 O69 O 0.99190 0.05128 0.42836
 O70 O 1.02879 0.06555 0.55452
 O71 O 0.94140 0.05097 0.46939
 O72 O 1.08912 0.05014 0.52832
 O73 O 0.98300 0.02957 0.59803
 O74 O 1.05046 0.01637 0.40682
 C75 C 1.07498 0.04160 0.41596
 C76 C 0.95102 0.04514 0.58158
 C77 C 0.95968 0.06524 0.44068
 C78 C 1.06645 0.07201 0.54941
 O79 O 1.09052 -0.02429 0.52889
 O80 O 0.94289 -0.02392 0.45715
 O81 O 1.02299 -0.04448 0.43545
 O82 O 1.00082 -0.03045 0.56524
 O83 O 0.94611 -0.03059 0.53069
 O84 O 1.08552 -0.02773 0.45317
 O85 O 1.06092 0.00475 0.57871
 O86 O 0.97144 -0.00876 0.39801
 Co87 Co 1.08188 0.01126 0.49093
 Co88 Co 0.95098 0.01031 0.49969
 Co89 Co 1.00557 0.00365 0.43666
 Co90 Co 1.01242 0.01731 0.55526
 O91 O 1.01722 0.01064 0.49538
 C92 C 1.08497 -0.01990 0.56589
 C93 C 0.94171 -0.02409 0.41843
 C94 C 1.06115 -0.05055 0.43616
 C95 C 0.96806 -0.04504 0.55650
 C96 C 1.11263 0.10916 0.32573
 C97 C 1.15440 0.11287 0.31488
 C98 C 1.16547 0.13418 0.28099
 C99 C 1.13467 0.15108 0.25770
 C100 C 1.09303 0.14871 0.26958
 C101 C 1.08196 0.12772 0.30374
 C102 C 1.04007 0.12550 0.31485
 C103 C 1.01001 0.14356 0.29289
 C104 C 1.02086 0.16410 0.25952
 C105 C 1.06185 0.16670 0.24782
 C106 C 1.20745 0.13781 0.27096
 C107 C 1.23761 0.12048 0.29343
 C108 C 1.22675 0.09923 0.32625
 C109 C 1.18566 0.09541 0.33704
 C110 C 1.14566 0.16833 0.21999
 C111 C 1.15534 0.18096 0.18793
 C112 C 1.10098 0.08538 0.35862
 C113 C 1.09011 0.06536 0.38524
 H114 H 1.03010 0.10992 0.34063
 H115 H 0.97814 0.14160 0.30182
 H116 H 0.99740 0.17811 0.24261
 H117 H 1.06885 0.18312 0.22176
 H118 H 1.21739 0.15436 0.24594
 H119 H 1.26959 0.12358 0.28533
 H120 H 1.25029 0.08575 0.34357
 H121 H 1.17871 0.07879 0.36296
 C122 C 0.87548 -0.09392 0.34746
 C123 C 0.89327 -0.12894 0.33879
 C124 C 0.87916 -0.15033 0.30554
 C125 C 0.84741 -0.13653 0.28114
 C126 C 0.82809 -0.10244 0.29118
 C127 C 0.84193 -0.08126 0.32470
 C128 C 0.82237 -0.04723 0.33406
 C129 C 0.79049 -0.03408 0.31049
 C130 C 0.77728 -0.05453 0.27739
 C131 C 0.79568 -0.08839 0.26778
 C132 C 0.89803 -0.18486 0.29689
 C133 C 0.92996 -0.19789 0.32047
 C134 C 0.94373 -0.17698 0.35301
 C135 C 0.92574 -0.14287 0.36218
 C136 C 0.83681 -0.15577 0.24405
 C137 C 0.82862 -0.17013 0.21217
 C138 C 0.89538 -0.06910 0.37582
 C139 C 0.91483 -0.04838 0.39689
 H140 H 0.83162 -0.03042 0.35958
 H141 H 0.77609 -0.00782 0.31787
 H142 H 0.75265 -0.04412 0.25905
 H143 H 0.78432 -0.10334 0.24181
 H144 H 0.88828 -0.20212 0.27193
 H145 H 0.94408 -0.22435 0.31345
 H146 H 0.96844 -0.18723 0.37132
 H147 H 0.93737 -0.12768 0.38791
 C148 C 0.89399 0.11604 0.66037
 C149 C 0.92110 0.13517 0.68637
 C150 C 0.90530 0.15579 0.71977
 C151 C 0.86257 0.15679 0.72723
 C152 C 0.83538 0.13942 0.69999
 C153 C 0.85116 0.11901 0.66640
 C154 C 0.82348 0.10133 0.63996
 C155 C 0.78131 0.10378 0.64650
 C156 C 0.76586 0.12371 0.67937
 C157 C 0.79245 0.14135 0.70594
 C158 C 0.93296 0.17434 0.74560
 C159 C 0.97511 0.17222 0.73891
 C160 C 0.99060 0.15163 0.70658
 C161 C 0.96409 0.13349 0.68036
 C162 C 0.84711 0.17189 0.76510
 C163 C 0.83466 0.18209 0.79767
 C164 C 0.91067 0.09118 0.62967
 C165 C 0.92723 0.07007 0.60628
 H166 H 0.83414 0.08558 0.61397
 H167 H 0.76053 0.09014 0.62595
 H168 H 0.73309 0.12552 0.68431
 H169 H 0.77903 0.15665 0.73101
 H170 H 0.92229 0.19068 0.77116
 H171 H 0.99587 0.18650 0.75899
 H172 H 1.02334 0.14965 0.70177
 H173 H 0.97769 0.11813 0.65543
 C174 C 1.13131 -0.09176 0.64734
 C175 C 1.16246 -0.08122 0.67446
 C176 C 1.17278 -0.10470 0.70671
 C177 C 1.15145 -0.13829 0.71193
 C178 C 1.12153 -0.14954 0.68382
 C179 C 1.11177 -0.12639 0.65111
 C180 C 1.08175 -0.13818 0.62332
 C181 C 1.06149 -0.17164 0.62809
 C182 C 1.07069 -0.19406 0.66039
 C183 C 1.10043 -0.18332 0.68799
 C184 C 1.20401 -0.09356 0.73355
 C185 C 1.22425 -0.06009 0.72876
 C186 C 1.21391 -0.03701 0.69737
 C187 C 1.18338 -0.04731 0.67043
 C188 C 1.15860 -0.15976 0.74766
 C189 C 1.16494 -0.17549 0.77868
 C190 C 1.11712 -0.06594 0.61756
 C191 C 1.10356 -0.04457 0.59362
 H192 H 1.07344 -0.12161 0.59781
 H193 H 1.03838 -0.18009 0.60674
 H194 H 1.05475 -0.21995 0.66406
 H195 H 1.10672 -0.20174 0.71253
 H196 H 1.21323 -0.11059 0.75839
 H197 H 1.24806 -0.05203 0.74954
 H198 H 1.22969 -0.01104 0.69381
 H199 H 1.17654 -0.02853 0.64635
 C200 C 0.34728 1.11237 1.08931
 C201 C 0.32782 1.10259 1.12581
 C202 C 0.29187 1.12166 1.13881
 C203 C 0.27589 1.15072 1.11553
 C204 C 0.29627 1.16148 1.07988
 C205 C 0.33210 1.14219 1.06669
 C206 C 0.35139 1.15274 1.03044
 C207 C 0.33563 1.18150 1.00774
 C208 C 0.30064 1.20041 1.02066
 C209 C 0.28109 1.19067 1.05635
 C210 C 0.27218 1.11056 1.17472
 C211 C 0.28772 1.08164 1.19727
 C212 C 0.32310 1.06319 1.18473
 C213 C 0.34303 1.07341 1.14945
 C214 C 0.23737 1.16798 1.12739
 C215 C 0.20476 1.18070 1.13796
 C216 C 0.38009 1.08913 1.07342
 C217 C 0.40524 1.06726 1.06100
 H218 H 0.37867 1.13879 1.01923
 H219 H 0.35061 1.18908 0.97994
 H220 H 0.28850 1.22268 1.00290
 H221 H 0.25393 1.20613 1.06518
 H222 H 0.24452 1.12396 1.18565
 H223 H 0.27219 1.07345 1.22456
 H224 H 0.33510 1.04076 1.20236
 H225 H 0.37048 1.05822 1.14099
 C226 C 0.36117 0.85921 0.88321
 C227 C 0.33072 0.84751 0.91071
 C228 C 0.29381 0.83189 0.89614
 C229 C 0.28747 0.82847 0.85423
 C230 C 0.31899 0.83789 0.82685
 C231 C 0.35609 0.85323 0.84143
 C232 C 0.38688 0.86327 0.81358
 C233 C 0.38116 0.85824 0.77237
 C234 C 0.34480 0.84330 0.75807
 C235 C 0.31393 0.83323 0.78487
 C236 C 0.26336 0.82110 0.92409
 C237 C 0.26898 0.82616 0.96529
 C238 C 0.30485 0.84194 0.97955
 C239 C 0.33563 0.85226 0.95276
 C240 C 0.24709 0.81935 0.83950
 C241 C 0.21276 0.81373 0.82806
 C242 C 0.39439 0.88197 0.89781
 C243 C 0.41874 0.90315 0.91207
 H244 H 0.41566 0.87490 0.82342
 H245 H 0.40505 0.86600 0.75143
 H246 H 0.34049 0.83950 0.72603
 H247 H 0.28620 0.82164 0.77241
 H248 H 0.23491 0.80873 0.91439
 H249 H 0.24529 0.81796 0.98624
 H250 H 0.30880 0.84630 1.01153
 H251 H 0.36318 0.86404 0.96537
 C252 C 0.63886 0.87745 1.09816
 C253 C 0.65965 0.84798 1.07827
 C254 C 0.69446 0.83164 1.09639
 C255 C 0.70810 0.84495 1.13418
 C256 C 0.68534 0.87233 1.15547
 C257 C 0.65064 0.88874 1.13735
 C258 C 0.62892 0.91681 1.15879
 C259 C 0.64104 0.92811 1.19711
 C260 C 0.67491 0.91188 1.21490
 C261 C 0.69693 0.88430 1.19443
 C262 C 0.71530 0.80259 1.07578
 C263 C 0.70188 0.78983 1.03843
 C264 C 0.66775 0.80578 1.02078
 C265 C 0.64687 0.83470 1.04022
 C266 C 0.74730 0.83297 1.14949
 C267 C 0.78065 0.82433 1.16150
 C268 C 0.60846 0.89900 1.07720
 C269 C 0.58506 0.92002 1.06150
 H270 H 0.60222 0.93011 1.14634
 H271 H 0.62403 0.94955 1.21309
 H272 H 0.68414 0.92066 1.24472
 H273 H 0.72283 0.87223 1.20957
 H274 H 0.74187 0.78926 1.08848
 H275 H 0.71798 0.76741 1.02316
 H276 H 0.65733 0.79556 0.99196
 H277 H 0.62043 0.84625 1.02541
 C278 C 0.63529 1.11794 0.88837
 C279 C 0.67224 1.09720 0.88901
 C280 C 0.70943 1.11353 0.87624
 C281 C 0.70955 1.15057 0.86324
 C282 C 0.67261 1.17116 0.86218
 C283 C 0.63527 1.15473 0.87475
 C284 C 0.59872 1.17578 0.87369
 C285 C 0.59904 1.21216 0.86057
 C286 C 0.63557 1.22828 0.84833
 C287 C 0.67206 1.20813 0.84906
 C288 C 0.74601 1.09230 0.87721
 C289 C 0.74589 1.05615 0.89091
 C290 C 0.70958 1.04027 0.90382
 C291 C 0.67307 1.06028 0.90268
 C292 C 0.74814 1.16738 0.85232
 C293 C 0.78146 1.17943 0.84430
 C294 C 0.59819 1.10110 0.90342
 C295 C 0.57083 1.08334 0.91771
 H296 H 0.56963 1.16432 0.88295
 H297 H 0.57080 1.22793 0.85993
 H298 H 0.63565 1.25655 0.83821
 H299 H 0.69973 1.22178 0.83925
 H300 H 0.77512 1.10336 0.86750
 H301 H 0.77414 1.04038 0.89150
 H302 H 0.70961 1.01218 0.91451
 H303 H 0.64567 1.04639 0.91271
 C304 C 0.12438 0.37449 0.11100
 C305 C 0.10295 0.35652 0.14225
 C306 C 0.11549 0.32081 0.15439
 C307 C 0.14951 0.30342 0.13534
 C308 C 0.17311 0.32277 0.10671
 C309 C 0.16050 0.35851 0.09455
 C310 C 0.18401 0.37714 0.06541
 C311 C 0.21934 0.36100 0.04896
 C312 C 0.23152 0.32590 0.06056
 C313 C 0.20871 0.30682 0.08905
 C314 C 0.09275 0.30284 0.18472
 C315 C 0.05860 0.31975 0.20260
 C316 C 0.04639 0.35475 0.19080
 C317 C 0.06817 0.37304 0.16098
 C318 C 0.15752 0.26459 0.14222
 C319 C 0.16238 0.23188 0.14661
 C320 C 0.10498 0.40561 0.09169
 C321 C 0.08386 0.42832 0.07561
 H322 H 0.17557 0.40447 0.05555
 H323 H 0.23737 0.37580 0.02709
 H324 H 0.25883 0.31342 0.04750
 H325 H 0.21943 0.27967 0.09734
 H326 H 0.10122 0.27566 0.19501
 H327 H 0.04155 0.30565 0.22576
 H328 H 0.01995 0.36786 0.20483
 H329 H 0.05763 0.40032 0.15299
 C330 C -0.13057 0.36207 -0.08599
 C331 C -0.10028 0.33457 -0.09370
 C332 C -0.11138 0.30050 -0.11214
 C333 C -0.15280 0.29382 -0.12209
 C334 C -0.18318 0.32097 -0.11365
 C335 C -0.17198 0.35529 -0.09560
 C336 C -0.20274 0.38201 -0.08737
 C337 C -0.24358 0.37500 -0.09663
 C338 C -0.25458 0.34144 -0.11424
 C339 C -0.22484 0.31463 -0.12275
 C340 C -0.08050 0.27363 -0.12000
 C341 C -0.03995 0.27998 -0.10928
 C342 C -0.02916 0.31306 -0.09066
 C343 C -0.05872 0.34021 -0.08317
 C344 C -0.16399 0.25817 -0.13902
 C345 C -0.17165 0.22760 -0.15154
 C346 C -0.11786 0.39728 -0.06903
 C347 C -0.10136 0.42441 -0.05566
 H348 H -0.19555 0.40843 -0.07357
 H349 H -0.26681 0.39572 -0.09008
 H350 H -0.28634 0.33615 -0.12136
 H351 H -0.23481 0.28895 -0.13649
 H352 H -0.08731 0.24740 -0.13439
 H353 H -0.01677 0.25911 -0.11543
 H354 H 0.00234 0.31782 -0.08216
 H355 H -0.04852 0.36547 -0.06879
 C356 C 0.10355 0.64001 -0.12711
 C357 C 0.07769 0.67160 -0.12560
 C358 C 0.09077 0.70496 -0.14338
 C359 C 0.12995 0.70682 -0.16172
 C360 C 0.15506 0.67489 -0.16466
 C361 C 0.14175 0.64130 -0.14737
 C362 C 0.16749 0.60984 -0.15023
 C363 C 0.20540 0.61150 -0.16970
 C364 C 0.21847 0.64437 -0.18656
 C365 C 0.19372 0.67582 -0.18412
 C366 C 0.06441 0.73616 -0.14162
 C367 C 0.02653 0.73464 -0.12216
 C368 C 0.01408 0.70226 -0.10398
 C369 C 0.03904 0.67094 -0.10588
 C370 C 0.14586 0.74248 -0.17324
 C371 C 0.15859 0.77300 -0.17974
 C372 C 0.09086 0.60705 -0.10625
 C373 C 0.07667 0.58206 -0.08725
 H374 H 0.15854 0.58372 -0.13753
 H375 H 0.22475 0.58717 -0.17168
 H376 H 0.24794 0.64550 -0.20164
 H377 H 0.20503 0.70074 -0.19781
 H378 H 0.07276 0.76200 -0.15530
 H379 H 0.00678 0.75875 -0.12107
 H380 H -0.01526 0.70127 -0.08865
 H381 H 0.02758 0.64632 -0.09172
 C382 C -0.12371 0.64010 0.11908
 C383 C -0.10220 0.65759 0.15089
 C384 C -0.11648 0.69190 0.16700
 C385 C -0.15237 0.70821 0.15149
 C386 C -0.17594 0.68896 0.12246
 C387 C -0.16154 0.65472 0.10623
 C388 C -0.18528 0.63608 0.07700
 C389 C -0.22254 0.65072 0.06443
 C390 C -0.23647 0.68442 0.07996
 C391 C -0.21350 0.70350 0.10860
 C392 C -0.09391 0.70946 0.19794
 C393 C -0.05845 0.69329 0.21294
 C394 C -0.04469 0.65952 0.19750
 C395 C -0.06606 0.64185 0.16667
 C396 C -0.16298 0.74598 0.16247
 C397 C -0.17121 0.77798 0.16919
 C398 C -0.10439 0.60970 0.09709
 C399 C -0.08479 0.58632 0.07924
 H400 H -0.17553 0.60985 0.06404
 H401 H -0.24055 0.63595 0.04229
 H402 H -0.26525 0.69582 0.06983
 H403 H -0.22570 0.72946 0.12009
 H404 H -0.10364 0.73563 0.21107
 H405 H -0.04160 0.70703 0.23670
 H406 H -0.01711 0.64709 0.20922
 H407 H -0.05411 0.61566 0.15556
 C408 C 1.11827 0.13581 0.63573
 C409 C 1.09899 0.16723 0.65329
 C410 C 1.10968 0.17890 0.69281
 C411 C 1.13939 0.15887 0.71447
 C412 C 1.16105 0.12935 0.69563
 C413 C 1.15051 0.11782 0.65606
 C414 C 1.17180 0.08755 0.63816
 C415 C 1.20268 0.06926 0.65878
 C416 C 1.21301 0.08059 0.69751
 C417 C 1.19250 0.11025 0.71589
 C418 C 1.08941 0.20993 0.71019
 C419 C 1.05932 0.22884 0.68913
 C420 C 1.04874 0.21730 0.65052
 C421 C 1.06824 0.18680 0.63266
 C422 C 1.14503 0.16640 0.75701
 C423 C 1.14859 0.17177 0.79269
 C424 C 1.10065 0.11799 0.60062
 C425 C 1.08518 0.09924 0.57474
 H426 H 1.16499 0.07789 0.60800
 H427 H 1.21868 0.04620 0.64461
 H428 H 1.23703 0.06632 0.71342
 H429 H 1.20160 0.11811 0.74603
 H430 H 1.09676 0.21993 0.74006
 H431 H 1.04408 0.25252 0.70288
 H432 H 1.02527 0.23201 0.63434
 H433 H 1.05920 0.17882 0.60253
 C434 C 0.92887 -0.11911 0.63824
 C435 C 0.88887 -0.13394 0.63905
 C436 C 0.87269 -0.14822 0.67545
 C437 C 0.89679 -0.14782 0.71063
 C438 C 0.93795 -0.13577 0.70893
 C439 C 0.95388 -0.12094 0.67278
 C440 C 0.99438 -0.10711 0.67249
 C441 C 1.01867 -0.10854 0.70671
 C442 C 1.00342 -0.12386 0.74178
 C443 C 0.96349 -0.13725 0.74310
 C444 C 0.83222 -0.16196 0.67589
 C445 C 0.80843 -0.16176 0.64126
 C446 C 0.82427 -0.14783 0.60566
 C447 C 0.86402 -0.13396 0.60442
 C448 C 0.87859 -0.15657 0.74930
 C449 C 0.86471 -0.16233 0.78233
 C450 C 0.94225 -0.09709 0.60452
 C451 C 0.95384 -0.07528 0.57996
 H452 H 1.00776 -0.09521 0.64582
 H453 H 1.04951 -0.09774 0.70602
 H454 H 1.02252 -0.12516 0.76818
 H455 H 0.95291 -0.14879 0.77112
 H456 H 0.81870 -0.17315 0.70288
 H457 H 0.77754 -0.17247 0.64206
 H458 H 0.80567 -0.14775 0.57886
 H459 H 0.87518 -0.12350 0.57608
 C460 C 1.11318 -0.12073 0.35444
 C461 C 1.10023 -0.15684 0.34414
 C462 C 1.11649 -0.17482 0.30918
 C463 C 1.14539 -0.15642 0.28473
 C464 C 1.15886 -0.12053 0.29545
 C465 C 1.14300 -0.10276 0.33061
 C466 C 1.15691 -0.06679 0.34068
 C467 C 1.18525 -0.04879 0.31643
 C468 C 1.20036 -0.06602 0.28175
 C469 C 1.18749 -0.10148 0.27128
 C470 C 1.10281 -0.21078 0.29914
 C471 C 1.07386 -0.22847 0.32301
 C472 C 1.05797 -0.21087 0.35720
 C473 C 1.07084 -0.17540 0.36776
 C474 C 1.16018 -0.17352 0.24769
 C475 C 1.17255 -0.18638 0.21620
 C476 C 1.09353 -0.10020 0.38702
 C477 C 1.07802 -0.07953 0.41145
 H478 H 1.14610 -0.05214 0.36733
 H479 H 1.19539 -0.02126 0.32453
 H480 H 1.22211 -0.05182 0.26282
 H481 H 1.20002 -0.11363 0.24391
 H482 H 1.11429 -0.22555 0.27281
 H483 H 1.06370 -0.25599 0.31492
 H484 H 1.03557 -0.22478 0.37566
 H485 H 1.05768 -0.16275 0.39462
 C486 C 0.90267 0.12364 0.35578
 C487 C 0.89908 0.16196 0.34912
 C488 C 0.88045 0.17468 0.31333
 C489 C 0.86572 0.14894 0.28446
 C490 C 0.86871 0.11058 0.29146
 C491 C 0.88752 0.09786 0.32703
 C492 C 0.89130 0.05924 0.33265
 C493 C 0.87684 0.03409 0.30410
 C494 C 0.85772 0.04656 0.26969
 C495 C 0.85363 0.08431 0.26327
 C496 C 0.87723 0.21313 0.30721
 C497 C 0.89228 0.23832 0.33549
 C498 C 0.91074 0.22584 0.37034
 C499 C 0.91415 0.18808 0.37725
 C500 C 0.84935 0.16133 0.24654
 C501 C 0.83633 0.16958 0.21402
 C502 C 0.92333 0.10968 0.39091
 C503 C 0.94038 0.09262 0.41672
 H504 H 0.90561 0.04789 0.35897
 H505 H 0.88060 0.00477 0.30869
 H506 H 0.84618 0.02690 0.24775
 H507 H 0.83866 0.09259 0.23592
 H508 H 0.86288 0.22403 0.28069
 H509 H 0.88953 0.26767 0.33036
 H510 H 0.92240 0.24553 0.39218
 H511 H 0.92865 0.17957 0.40479
 C512 C 0.08789 0.35105 -0.11876
 C513 C 0.12508 0.33854 -0.10197
 C514 C 0.14077 0.30300 -0.11264
 C515 C 0.11913 0.28027 -0.14006
 C516 C 0.08276 0.29340 -0.15809
 C517 C 0.06735 0.32907 -0.14770
 C518 C 0.03099 0.34164 -0.16609
 C519 C 0.01013 0.31940 -0.19359
 C520 C 0.02490 0.28432 -0.20341
 C521 C 0.06079 0.27135 -0.18599
 C522 C 0.17764 0.29082 -0.09495
 C523 C 0.19855 0.31324 -0.06764
 C524 C 0.18331 0.34808 -0.05740
 C525 C 0.14694 0.36067 -0.07415
 C526 C 0.13336 0.24303 -0.14916
 C527 C 0.14307 0.21170 -0.15783
 C528 C 0.06817 0.38412 -0.10260
 C529 C 0.05019 0.40972 -0.08694
 H530 H 0.01827 0.36870 -0.15929
 H531 H -0.01778 0.32936 -0.20716
 H532 H 0.00847 0.26703 -0.22460
 H533 H 0.07097 0.24385 -0.19453
 H534 H 0.19067 0.26395 -0.10210
 H535 H 0.22677 0.30357 -0.05442
 H536 H 0.19978 0.36553 -0.03648
 H537 H 0.13634 0.38801 -0.06534
 C538 C -0.11472 0.34598 0.11974
 C539 C -0.14339 0.32700 0.09533
 C540 C -0.16156 0.29388 0.10914
 C541 C -0.15080 0.27989 0.14715
 C542 C -0.12386 0.29997 0.17241
 C543 C -0.10577 0.33313 0.15866
 C544 C -0.07821 0.35226 0.18406
 C545 C -0.06884 0.33901 0.22205
 C546 C -0.08646 0.30654 0.23548
 C547 C -0.11367 0.28715 0.21107
 C548 C -0.18951 0.27499 0.08396
 C549 C -0.19914 0.28838 0.04608
 C550 C -0.18125 0.32068 0.03247
 C551 C -0.15371 0.33991 0.05670
 C552 C -0.16364 0.24313 0.15853
 C553 C -0.17132 0.21184 0.16795
 C554 C -0.09133 0.37615 0.10303
 C555 C -0.07072 0.39931 0.08710
 H556 H -0.06378 0.37766 0.17489
 H557 H -0.04779 0.35401 0.24117
 H558 H -0.07901 0.29632 0.26496
 H559 H -0.12670 0.26211 0.22281
 H560 H -0.20424 0.24979 0.09333
 H561 H -0.22057 0.27358 0.02718
 H562 H -0.18875 0.33093 0.00299
 H563 H -0.14071 0.36498 0.04488
 C564 C -0.10246 0.66094 -0.10587
 C565 C -0.08288 0.67392 -0.14107
 C566 C -0.09491 0.70825 -0.15751
 C567 C -0.12713 0.72895 -0.13927
 C568 C -0.14821 0.71499 -0.10544
 C569 C -0.13570 0.68094 -0.08855
 C570 C -0.15670 0.66787 -0.05429
 C571 C -0.18937 0.68776 -0.03739
 C572 C -0.20170 0.72100 -0.05393
 C573 C -0.18142 0.73463 -0.08755
 C574 C -0.07378 0.72137 -0.19175
 C575 C -0.04185 0.70104 -0.20937
 C576 C -0.03042 0.66724 -0.19360
 C577 C -0.05068 0.65364 -0.15994
 C578 C -0.13695 0.76543 -0.15397
 C579 C -0.14362 0.79617 -0.16580
 C580 C -0.08604 0.62866 -0.08610
 C581 C -0.06964 0.60273 -0.07047
 H582 H -0.14829 0.64208 -0.04045
 H583 H -0.20532 0.67730 -0.01141
 H584 H -0.22712 0.73630 -0.04066
 H585 H -0.19214 0.76057 -0.09944
 H586 H -0.08171 0.74741 -0.20528
 H587 H -0.02594 0.71154 -0.23546
 H588 H -0.00560 0.65152 -0.20739
 H589 H -0.04058 0.62725 -0.14874
 C590 C 0.10561 0.63273 0.13576
 C591 C 0.14752 0.63324 0.14637
 C592 C 0.16636 0.66714 0.15776
 C593 C 0.14311 0.70023 0.15861
 C594 C 0.10076 0.69945 0.14953
 C595 C 0.08203 0.66567 0.13785
 C596 C 0.03992 0.66585 0.12774
 C597 C 0.01702 0.69841 0.12922
 C598 C 0.03517 0.73132 0.14122
 C599 C 0.07651 0.73202 0.15129
 C600 C 0.20840 0.66711 0.16768
 C601 C 0.23122 0.63446 0.16647
 C602 C 0.21281 0.60133 0.15536
 C603 C 0.17143 0.60057 0.14534
 C604 C 0.16233 0.73549 0.16750
 C605 C 0.17501 0.76620 0.17430
 C606 C 0.08724 0.59950 0.11904
 C607 C 0.07003 0.57431 0.10229
 H608 H 0.02418 0.64089 0.11868
 H609 H -0.01506 0.69806 0.12123
 H610 H 0.01715 0.75650 0.14265
 H611 H 0.08915 0.75838 0.16038
 H612 H 0.22397 0.69224 0.17651
 H613 H 0.26337 0.63488 0.17420
 H614 H 0.23068 0.57606 0.15449
 H615 H 0.15834 0.57418 0.13696
 C616 C 0.32142 1.08993 0.89950
 C617 C 0.29148 1.10237 0.92773
 C618 C 0.25773 1.12404 0.91479
 C619 C 0.25376 1.13267 0.87361
 C620 C 0.28408 1.12080 0.84552
 C621 C 0.31801 1.09942 0.85850
 C622 C 0.34765 1.08754 0.82974
 C623 C 0.34379 1.09640 0.78930
 C624 C 0.31060 1.11726 0.77661
 C625 C 0.28106 1.12946 0.80427
 C626 C 0.22825 1.13618 0.94355
 C627 C 0.23164 1.12671 0.98385
 C628 C 0.26424 1.10502 0.99638
 C629 C 0.29409 1.09315 0.96885
 C630 C 0.21701 1.15102 0.85945
 C631 C 0.18595 1.16445 0.84645
 C632 C 0.35515 1.06668 0.91239
 C633 C 0.38302 1.04717 0.92293
 H634 H 0.37402 1.07125 0.83813
 H635 H 0.36670 1.08702 0.76771
 H636 H 0.30772 1.12407 0.74517
 H637 H 0.25595 1.14583 0.79298
 H638 H 0.20232 1.15306 0.93517
 H639 H 0.20880 1.13619 1.00547
 H640 H 0.26656 1.09753 1.02766
 H641 H 0.31911 1.07667 0.98014
 C642 C 0.36615 0.87703 1.13134
 C643 C 0.35482 0.84454 1.10998
 C644 C 0.32064 0.82361 1.12315
 C645 C 0.29841 0.83501 1.15787
 C646 C 0.31237 0.86529 1.18142
 C647 C 0.34605 0.88663 1.16787
 C648 C 0.35842 0.91762 1.19108
 C649 C 0.33845 0.92694 1.22705
 C650 C 0.30592 0.90573 1.24064
 C651 C 0.29282 0.87529 1.21813
 C652 C 0.30908 0.79190 1.10072
 C653 C 0.33109 0.78081 1.06650
 C654 C 0.36477 0.80104 1.05381
 C655 C 0.37646 0.83272 1.07502
 C656 C 0.25867 0.81896 1.16669
 C657 C 0.22418 0.80883 1.17376
 C658 C 0.39555 0.90216 1.11364
 C659 C 0.41819 0.92300 1.09643
 H660 H 0.38383 0.93469 1.18185
 H661 H 0.34843 0.95062 1.24457
 H662 H 0.29083 0.91283 1.26881
 H663 H 0.26765 0.85937 1.23003
 H664 H 0.28326 0.77520 1.10969
 H665 H 0.32196 0.75638 1.04974
 H666 H 0.38170 0.79235 1.02716
 H667 H 0.40277 0.84764 1.06394
 C668 C 0.64325 1.09292 1.13271
 C669 C 0.64920 1.12961 1.11966
 C670 C 0.68490 1.14932 1.13125
 C671 C 0.71440 1.13231 1.15591
 C672 C 0.70758 1.09624 1.17044
 C673 C 0.67196 1.07645 1.15871
 C674 C 0.66625 1.04020 1.17299
 C675 C 0.69483 1.02400 1.19828
 C676 C 0.72957 1.04335 1.20985
 C677 C 0.73604 1.07905 1.19617
 C678 C 0.69050 1.18568 1.11730
 C679 C 0.66160 1.20219 1.09262
 C680 C 0.62668 1.18297 1.08130
 C681 C 0.62040 1.14709 1.09455
 C682 C 0.75290 1.15078 1.16435
 C683 C 0.78594 1.16438 1.17098
 C684 C 0.60940 1.07139 1.11672
 C685 C 0.58231 1.05390 1.10106
 H686 H 0.63962 1.02410 1.16490
 H687 H 0.69001 0.99629 1.20902
 H688 H 0.75165 1.03065 1.22953
 H689 H 0.76347 1.09303 1.20608
 H690 H 0.71715 1.20174 1.12539
 H691 H 0.66633 1.23004 1.08225
 H692 H 0.60431 1.19592 1.06215
 H693 H 0.59271 1.13331 1.08502
 C694 C 0.66462 0.90965 0.87353
 C695 C 0.69322 0.92975 0.85042
 C696 C 0.73016 0.91250 0.83688
 C697 C 0.73818 0.87516 0.84634
 C698 C 0.70855 0.85449 0.86752
 C699 C 0.67156 0.87175 0.88098
 C700 C 0.64229 0.85049 0.90184
 C701 C 0.64925 0.81319 0.90906
 C702 C 0.68566 0.79644 0.89646
 C703 C 0.71511 0.81674 0.87595
 C704 C 0.75855 0.93336 0.81435
 C705 C 0.75056 0.97012 0.80522
 C706 C 0.71431 0.98688 0.81819
 C707 C 0.68590 0.96709 0.84061
 C708 C 0.77764 0.85867 0.83599
 C709 C 0.81107 0.84578 0.82851
 C710 C 0.62940 0.92851 0.89151
 C711 C 0.60114 0.94490 0.90728
 H712 H 0.61357 0.86234 0.91236
 H713 H 0.62627 0.79722 0.92460
 H714 H 0.69105 0.76753 0.90245
 H715 H 0.74284 0.80246 0.86649
 H716 H 0.78707 0.92145 0.80339
 H717 H 0.77258 0.98565 0.78792
 H718 H 0.70823 1.01544 0.81099
 H719 H 0.65815 0.98135 0.85005
   
