data_POSCAR
  _audit_creation_date              2014-09-24
  _audit_creation_method            'ToBaCCo'
  _symmetry_space_group_name_H-M    'P1'
  _symmetry_Int_Tables_number       1
  _symmetry_cell_setting            triclinic
  loop_
  _symmetry_equiv_pos_as_xyz
 x,y,z
_cell_length_a 40.1764
_cell_length_b 36.8008
_cell_length_c 31.1156
_cell_angle_alpha 90.681400
_cell_angle_beta 89.889400
_cell_angle_gamma 89.939600
loop_
  _atom_site_label
  _atom_site_type_symbol
  _atom_site_fract_x
  _atom_site_fract_y
  _atom_site_fract_z
C1 C 0.30285 0.29788 0.23425
 H2 H 0.30448 0.29796 0.26896
 C3 C 0.32363 0.32039 0.21036
 H4 H 0.34127 0.33800 0.22666
 C5 C 0.27761 0.27518 0.17053
 H6 H 0.25984 0.25738 0.15509
 C7 C 0.29794 0.29728 0.14542
 H8 H 0.29549 0.29671 0.11075
 N9 N 0.27993 0.27644 0.21418
 C10 C 0.20066 0.26365 0.30900
 H11 H 0.19879 0.23436 0.31025
 C12 C 0.17961 0.28534 0.33434
 H13 H 0.16154 0.27277 0.35533
 C14 C 0.22622 0.31598 0.27988
 H15 H 0.24401 0.32791 0.25819
 C16 C 0.20568 0.33861 0.30461
 H17 H 0.20800 0.36784 0.30221
 Zn18 Zn 0.25160 0.24835 0.24942
 N19 N 0.22374 0.27920 0.28295
 C20 C 0.27636 0.22127 0.32872
 N21 N 0.27910 0.21978 0.28511
 C22 C 0.30196 0.19787 0.26543
 C23 C 0.32228 0.17519 0.28971
 C24 C 0.29622 0.19902 0.35421
 C25 C 0.20112 0.23402 0.18914
 C26 C 0.18000 0.21273 0.16360
 C27 C 0.20495 0.15898 0.19372
 C28 C 0.22560 0.18122 0.21863
 N29 N 0.22370 0.21803 0.21549
 H30 H 0.25866 0.23945 0.34386
 H31 H 0.30394 0.19762 0.23075
 H32 H 0.33993 0.15729 0.27374
 H33 H 0.29349 0.19986 0.38885
 H34 H 0.19971 0.26334 0.18783
 H35 H 0.16232 0.22563 0.14241
 H36 H 0.20680 0.12970 0.19621
 H37 H 0.24297 0.16896 0.24055
 C38 C 0.18230 0.32316 0.33224
 C39 C 0.32089 0.32035 0.16558
 C40 C 0.18208 0.17486 0.16581
 C41 C 0.31914 0.17554 0.33447
 C42 C 0.80455 0.79988 0.23329
 H43 H 0.80655 0.80010 0.26796
 C44 C 0.82512 0.82224 0.20890
 H45 H 0.84298 0.83980 0.22488
 C46 C 0.77845 0.77711 0.17019
 H47 H 0.76041 0.75936 0.15519
 C48 C 0.79855 0.79903 0.14456
 H49 H 0.79560 0.79832 0.10994
 N50 N 0.78129 0.77853 0.21377
 C51 C 0.70271 0.76734 0.30981
 H52 H 0.70068 0.73808 0.31165
 C53 C 0.68186 0.78952 0.33483
 H54 H 0.66380 0.77738 0.35619
 C55 C 0.72838 0.81906 0.27940
 H56 H 0.74609 0.83057 0.25728
 C57 C 0.70804 0.84217 0.30377
 H58 H 0.71047 0.87134 0.30070
 Zn59 Zn 0.75308 0.75097 0.24975
 N60 N 0.72573 0.78237 0.28324
 C61 C 0.77824 0.72415 0.32897
 N62 N 0.78065 0.72239 0.28534
 C63 C 0.80315 0.70014 0.26554
 C64 C 0.82342 0.67734 0.28972
 C65 C 0.79807 0.70179 0.35437
 C66 C 0.70190 0.73674 0.19051
 C67 C 0.68031 0.71551 0.16559
 C68 C 0.70507 0.66171 0.19585
 C69 C 0.72619 0.68391 0.22015
 N70 N 0.72461 0.72070 0.21662
 H71 H 0.76081 0.74259 0.34419
 H72 H 0.80486 0.69967 0.23083
 H73 H 0.84075 0.65913 0.27365
 H74 H 0.79559 0.70281 0.38904
 H75 H 0.70074 0.76607 0.18892
 H76 H 0.66255 0.72845 0.14453
 H77 H 0.70669 0.63244 0.19860
 H78 H 0.74368 0.67162 0.24190
 C79 C 0.68469 0.82728 0.33186
 C80 C 0.82183 0.82211 0.16414
 C81 C 0.68206 0.67764 0.16818
 C82 C 0.82061 0.67793 0.33451
 C83 C 0.80315 0.29876 0.73661
 H84 H 0.80513 0.29907 0.77128
 C85 C 0.82373 0.32105 0.71215
 H86 H 0.84159 0.33870 0.72798
 C87 C 0.77716 0.27577 0.67354
 H88 H 0.75917 0.25795 0.65856
 C89 C 0.79728 0.29764 0.64787
 H90 H 0.79446 0.29687 0.61326
 N91 N 0.77994 0.27730 0.71713
 C92 C 0.70143 0.26587 0.81329
 H93 H 0.69951 0.23661 0.81522
 C94 C 0.68046 0.28802 0.83819
 H95 H 0.66243 0.27586 0.85957
 C96 C 0.72690 0.31763 0.78269
 H97 H 0.74455 0.32917 0.76053
 C98 C 0.70644 0.34070 0.80695
 H99 H 0.70875 0.36988 0.80374
 Zn100 Zn 0.75180 0.24965 0.75309
 N101 N 0.72439 0.28094 0.78666
 C102 C 0.77715 0.22263 0.83217
 N103 N 0.77948 0.22106 0.78853
 C104 C 0.80206 0.19903 0.76853
 C105 C 0.82252 0.17626 0.79249
 C106 C 0.79715 0.20031 0.85741
 C107 C 0.70068 0.23548 0.69381
 C108 C 0.67927 0.21429 0.66859
 C109 C 0.70420 0.16043 0.69848
 C110 C 0.72514 0.18258 0.72309
 N111 N 0.72340 0.21939 0.71986
 H112 H 0.75964 0.24091 0.84751
 H113 H 0.80370 0.19872 0.73382
 H114 H 0.83991 0.15830 0.77605
 H115 H 0.79462 0.20132 0.89211
 H116 H 0.69942 0.26481 0.69244
 H117 H 0.66153 0.22726 0.64753
 H118 H 0.70596 0.13115 0.70094
 H119 H 0.74265 0.17026 0.74477
 C120 C 0.68313 0.32578 0.83505
 C121 C 0.82050 0.32076 0.66742
 C122 C 0.68121 0.17641 0.67081
 C123 C 0.81983 0.17664 0.83736
 C124 C 0.30214 0.79881 0.73288
 H125 H 0.30379 0.79941 0.76758
 C126 C 0.32301 0.82084 0.70848
 H127 H 0.34075 0.83858 0.72438
 C128 C 0.27687 0.77517 0.66965
 H129 H 0.25910 0.75712 0.65460
 C130 C 0.29728 0.79675 0.64405
 H131 H 0.29491 0.79555 0.60939
 N132 N 0.27920 0.77709 0.71327
 C133 C 0.20030 0.76487 0.80876
 H134 H 0.19857 0.73558 0.81040
 C135 C 0.17924 0.78668 0.83392
 H136 H 0.16128 0.77422 0.85516
 C137 C 0.22556 0.81704 0.77883
 H138 H 0.24323 0.82885 0.75689
 C139 C 0.20498 0.83980 0.80336
 H140 H 0.20717 0.86902 0.80056
 Zn141 Zn 0.25110 0.74927 0.74909
 N142 N 0.22324 0.78029 0.78239
 C143 C 0.27624 0.72284 0.82855
 N144 N 0.27886 0.72113 0.78494
 C145 C 0.30176 0.69926 0.76531
 C146 C 0.32224 0.67679 0.78964
 C147 C 0.29626 0.70081 0.85410
 C148 C 0.20054 0.73406 0.68919
 C149 C 0.17954 0.71240 0.66393
 C150 C 0.20481 0.65911 0.69471
 C151 C 0.22533 0.68171 0.71935
 N152 N 0.22323 0.71848 0.71572
 H153 H 0.25849 0.74099 0.84364
 H154 H 0.30364 0.69882 0.73061
 H155 H 0.33990 0.65888 0.77370
 H156 H 0.29361 0.70178 0.88875
 H157 H 0.19897 0.76336 0.68750
 H158 H 0.16180 0.72498 0.64256
 H159 H 0.20684 0.62987 0.69756
 H160 H 0.24279 0.66978 0.74140
 C161 C 0.18175 0.82449 0.83130
 C162 C 0.32034 0.82001 0.66369
 C163 C 0.18186 0.67457 0.66660
 C164 C 0.31922 0.67734 0.83441
 C165 C -0.03798 -0.02684 0.02066
 C166 C -0.02073 0.00033 -0.00131
 C167 C -0.03842 0.02735 -0.02294
 C168 C -0.07338 0.02713 -0.02332
 C169 C -0.09039 0.00003 -0.00063
 C170 C -0.07293 -0.02692 0.02172
 C171 C 0.01592 0.00048 -0.00164
 C172 C 0.03342 -0.02722 -0.02318
 C173 C 0.06838 -0.02720 -0.02396
 C174 C 0.08560 0.00059 -0.00202
 C175 C 0.06832 0.02832 0.02012
 C176 C 0.03336 0.02823 0.01970
 H177 H -0.02408 -0.04723 0.03796
 H178 H -0.02486 0.04787 -0.04049
 H179 H 0.01973 -0.04872 -0.03937
 H180 H 0.01962 0.04964 0.03611
 H181 H -0.11735 -0.00008 -0.00036
 H182 H 0.11256 0.00062 -0.00213
 C183 C -0.03750 0.47180 0.52206
 C184 C -0.02005 0.49877 0.50002
 C185 C -0.03754 0.52580 0.47814
 C186 C -0.07250 0.52579 0.47759
 C187 C -0.08972 0.49887 0.50033
 C188 C -0.07246 0.47191 0.52292
 C189 C 0.01659 0.49877 0.49992
 C190 C 0.03408 0.47105 0.47842
 C191 C 0.06904 0.47104 0.47771
 C192 C 0.08627 0.49880 0.49970
 C193 C 0.06898 0.52654 0.52181
 C194 C 0.03403 0.52650 0.52131
 H195 H -0.02375 0.45141 0.53956
 H196 H -0.02382 0.54616 0.46055
 H197 H 0.02038 0.44960 0.46217
 H198 H 0.02028 0.54795 0.53764
 H199 H -0.11668 0.49892 0.50045
 H200 H 0.11322 0.49881 0.49962
 C201 C 0.46454 -0.02841 0.52094
 C202 C 0.48133 -0.00040 0.49989
 C203 C 0.46321 0.02630 0.47831
 C204 C 0.42829 0.02499 0.47714
 C205 C 0.41171 -0.00296 0.49891
 C206 C 0.42960 -0.02970 0.52107
 C207 C 0.51795 0.00077 0.50004
 C208 C 0.53624 -0.02581 0.47763
 C209 C 0.57117 -0.02442 0.47669
 C210 C 0.58755 0.00344 0.49954
 C211 C 0.56951 0.03006 0.52249
 C212 C 0.53457 0.02871 0.52218
 H213 H 0.47877 -0.04911 0.53727
 H214 H 0.47646 0.04742 0.46138
 H215 H 0.52315 -0.04689 0.45990
 H216 H 0.52023 0.04930 0.53917
 H217 H 0.38475 -0.00334 0.49952
 H218 H 0.61451 0.00386 0.50032
 C219 C 0.46307 0.47348 0.02302
 C220 C 0.48027 0.50075 0.00114
 C221 C 0.46253 0.52748 -0.02093
 C222 C 0.42759 0.52690 -0.02180
 C223 C 0.41061 0.49971 0.00078
 C224 C 0.42811 0.47304 0.02356
 C225 C 0.51690 0.50140 0.00136
 C226 C 0.53493 0.47438 -0.02069
 C227 C 0.56987 0.47545 -0.02177
 C228 C 0.58652 0.50339 0.00062
 C229 C 0.56873 0.53044 0.02319
 C230 C 0.53379 0.52942 0.02301
 H231 H 0.47700 0.45331 0.04063
 H232 H 0.47606 0.54806 -0.03839
 H233 H 0.52164 0.45326 -0.03808
 H234 H 0.51965 0.55037 0.03967
 H235 H 0.38366 0.49932 0.00065
 H236 H 0.61347 0.50357 0.00129
 C237 C 0.12381 -0.10731 -0.09597
 C238 C 0.13438 -0.09669 -0.05488
 C239 C 0.11608 -0.07109 -0.03112
 C240 C 0.16077 -0.15228 -0.14279
 C241 C 0.07623 -0.06704 -0.08926
 C242 C 0.09459 -0.09263 -0.11298
 C243 C 0.14366 -0.13214 -0.12130
 C244 C 0.08695 -0.05572 -0.04821
 H245 H 0.15696 -0.10789 -0.04140
 H246 H 0.12472 -0.06329 0.00062
 H247 H 0.05415 -0.05539 -0.10349
 H248 H 0.08628 -0.10052 -0.14485
 C249 C 0.12442 0.39107 0.40541
 C250 C 0.13501 0.40160 0.44652
 C251 C 0.11673 0.42715 0.47039
 C252 C 0.16135 0.34627 0.35833
 C253 C 0.07686 0.43134 0.41228
 C254 C 0.09520 0.40580 0.38847
 C255 C 0.14426 0.36632 0.37995
 C256 C 0.08760 0.44256 0.45337
 H257 H 0.15761 0.39036 0.45995
 H258 H 0.12539 0.43487 0.50214
 H259 H 0.05478 0.44303 0.39810
 H260 H 0.08687 0.39800 0.35657
 C261 C 0.62781 -0.10255 0.40321
 C262 C 0.60025 -0.11388 0.42716
 C263 C 0.58172 -0.08854 0.45109
 C264 C 0.66392 -0.14905 0.35746
 C265 C 0.61831 -0.04049 0.42710
 C266 C 0.63675 -0.06583 0.40323
 C267 C 0.64711 -0.12833 0.37853
 C268 C 0.59062 -0.05155 0.45138
 H269 H 0.59316 -0.14227 0.42742
 H270 H 0.56073 -0.09791 0.46979
 H271 H 0.62548 -0.01215 0.42613
 H272 H 0.65796 -0.05674 0.38468
 C273 C 0.62607 0.39636 -0.09441
 C274 C 0.59847 0.38538 -0.07029
 C275 C 0.58004 0.41104 -0.04668
 C276 C 0.66220 0.34946 -0.13955
 C277 C 0.61680 0.45868 -0.07137
 C278 C 0.63512 0.43304 -0.09492
 C279 C 0.64533 0.37030 -0.11872
 C280 C 0.58910 0.44798 -0.04686
 H281 H 0.59128 0.35703 -0.06964
 H282 H 0.55903 0.40195 -0.02781
 H283 H 0.62407 0.48696 -0.07273
 H284 H 0.65635 0.44186 -0.11361
 C285 C -0.12799 0.10660 -0.09491
 C286 C -0.10011 0.11717 -0.07093
 C287 C -0.08227 0.09138 -0.04760
 C288 C -0.16242 0.15420 -0.13983
 C289 C -0.12022 0.04441 -0.07220
 C290 C -0.13797 0.07020 -0.09549
 C291 C -0.14646 0.13288 -0.11913
 C292 C -0.09219 0.05470 -0.04793
 H293 H -0.09220 0.14530 -0.07022
 H294 H -0.06100 0.10017 -0.02888
 H295 H -0.12817 0.01632 -0.07366
 H296 H -0.15943 0.06170 -0.11408
 C297 C -0.12626 0.60541 0.40521
 C298 C -0.09843 0.61584 0.42936
 C299 C -0.08089 0.59000 0.45298
 C300 C -0.16009 0.65318 0.35983
 C301 C -0.11906 0.54326 0.42835
 C302 C -0.13651 0.56909 0.40477
 C303 C -0.14441 0.63176 0.38071
 C304 C -0.09106 0.55341 0.45276
 H305 H -0.09032 0.64391 0.42998
 H306 H -0.05965 0.59870 0.47181
 H307 H -0.12719 0.51522 0.42699
 H308 H -0.15794 0.56070 0.38606
 C309 C 0.37299 0.10378 0.40537
 C310 C 0.36364 0.06718 0.40431
 C311 C 0.38154 0.04163 0.42778
 C312 C 0.33861 0.15101 0.35988
 C313 C 0.41831 0.08925 0.45360
 C314 C 0.40033 0.11480 0.43009
 C315 C 0.35451 0.12982 0.38082
 C316 C 0.40911 0.05236 0.45268
 H317 H 0.34259 0.05834 0.38516
 H318 H 0.37414 0.01337 0.42590
 H319 H 0.43919 0.09840 0.47283
 H320 H 0.40774 0.14309 0.43119
 C321 C 0.37307 0.60567 -0.09455
 C322 C 0.40064 0.61655 -0.07018
 C323 C 0.41843 0.59098 -0.04645
 C324 C 0.33876 0.65290 -0.14013
 C325 C 0.38104 0.54362 -0.07144
 C326 C 0.36334 0.56918 -0.09512
 C327 C 0.35466 0.63174 -0.11915
 C328 C 0.40878 0.55422 -0.04679
 H329 H 0.40835 0.64475 -0.06947
 H330 H 0.43947 0.60002 -0.02744
 H331 H 0.37331 0.51546 -0.07289
 H332 H 0.34211 0.56045 -0.11401
 C333 C -0.12611 -0.10680 0.09450
 C334 C -0.13641 -0.07048 0.09526
 C335 C -0.11913 -0.04457 0.07158
 C336 C -0.15984 -0.15457 0.14005
 C337 C -0.08100 -0.09123 0.04622
 C338 C -0.09837 -0.11715 0.06995
 C339 C -0.14415 -0.13321 0.11906
 C340 C -0.09125 -0.05463 0.04673
 H341 H -0.15778 -0.06215 0.11428
 H342 H -0.12732 -0.01654 0.07318
 H343 H -0.05982 -0.09985 0.02706
 H344 H -0.09021 -0.14522 0.06909
 C345 C -0.12612 0.39266 0.59608
 C346 C -0.13630 0.42902 0.59651
 C347 C -0.11888 0.45473 0.57268
 C348 C -0.16003 0.34522 0.64187
 C349 C -0.08086 0.40778 0.54782
 C350 C -0.09837 0.38206 0.57169
 C351 C -0.14427 0.36646 0.62080
 C352 C -0.09097 0.44441 0.54802
 H353 H -0.15767 0.43754 0.61540
 H354 H -0.12697 0.48280 0.57404
 H355 H -0.05967 0.39896 0.52881
 H356 H -0.09031 0.35396 0.57108
 C357 C 0.37611 -0.11047 0.59203
 C358 C 0.36548 -0.10082 0.55091
 C359 C 0.38315 -0.07498 0.52751
 C360 C 0.34048 -0.15620 0.63810
 C361 C 0.42248 -0.06871 0.58611
 C362 C 0.40476 -0.09454 0.60946
 C363 C 0.35695 -0.13568 0.61694
 C364 C 0.41170 -0.05840 0.54500
 H365 H 0.34334 -0.11300 0.53711
 H366 H 0.37449 -0.06795 0.49574
 H367 H 0.44411 -0.05611 0.60066
 H368 H 0.41310 -0.10168 0.64136
 C369 C 0.37471 0.39298 0.09580
 C370 C 0.36420 0.42924 0.09627
 C371 C 0.38159 0.45521 0.07282
 C372 C 0.34057 0.34504 0.14059
 C373 C 0.42027 0.40877 0.04832
 C374 C 0.40279 0.38278 0.07182
 C375 C 0.35647 0.36649 0.11999
 C376 C 0.40979 0.44528 0.04849
 H377 H 0.34257 0.43746 0.11485
 H378 H 0.37321 0.48318 0.07416
 H379 H 0.44170 0.40025 0.02958
 H380 H 0.41110 0.35477 0.07119
 C381 C 0.12380 0.10792 0.09238
 C382 C 0.13429 0.09758 0.05110
 C383 C 0.11594 0.07219 0.02722
 C384 C 0.16098 0.15214 0.13959
 C385 C 0.07618 0.06785 0.08563
 C386 C 0.09459 0.09322 0.10946
 C387 C 0.14378 0.13237 0.11790
 C388 C 0.08685 0.05677 0.04440
 H389 H 0.15687 0.10879 0.03757
 H390 H 0.12454 0.06458 -0.00464
 H391 H 0.05413 0.05614 0.09993
 H392 H 0.08634 0.10088 0.14148
 C393 C 0.12416 0.60662 0.59372
 C394 C 0.09499 0.59185 0.61085
 C395 C 0.07673 0.56627 0.58717
 C396 C 0.16096 0.65147 0.64059
 C397 C 0.11655 0.57049 0.52882
 C398 C 0.13476 0.59609 0.55255
 C399 C 0.14393 0.63140 0.61906
 C400 C 0.08748 0.55505 0.54603
 H401 H 0.08666 0.59965 0.64279
 H402 H 0.05469 0.55455 0.60149
 H403 H 0.12521 0.56277 0.49702
 H404 H 0.15731 0.60735 0.53899
 C405 C 0.62327 0.10982 0.59657
 C406 C 0.59448 0.09398 0.61343
 C407 C 0.57655 0.06860 0.58900
 C408 C 0.66006 0.15381 0.64455
 C409 C 0.61590 0.07528 0.53047
 C410 C 0.63376 0.10066 0.55493
 C411 C 0.64294 0.13415 0.62263
 C412 C 0.58729 0.05866 0.54742
 H413 H 0.58625 0.10074 0.64572
 H414 H 0.55485 0.05597 0.60310
 H415 H 0.62453 0.06853 0.49836
 H416 H 0.65602 0.11276 0.54157
 C417 C 0.62332 0.61074 0.09541
 C418 C 0.63360 0.60091 0.05389
 C419 C 0.61547 0.57535 0.03003
 C420 C 0.66064 0.65497 0.14238
 C421 C 0.57626 0.56984 0.08891
 C422 C 0.59447 0.59540 0.11274
 C423 C 0.64328 0.63522 0.12090
 C424 C 0.58680 0.55922 0.04747
 H425 H 0.65590 0.61262 0.04017
 H426 H 0.62394 0.56809 -0.00200
 H427 H 0.55452 0.55760 0.10337
 H428 H 0.58639 0.60267 0.14495
   
