data_POSCAR
  _audit_creation_date              2014-09-24
  _audit_creation_method            'ToBaCCo'
  _symmetry_space_group_name_H-M    'P1'
  _symmetry_Int_Tables_number       1
  _symmetry_cell_setting            triclinic
  loop_
  _symmetry_equiv_pos_as_xyz
 x,y,z
_cell_length_a 42.2576
_cell_length_b 42.3686
_cell_length_c 42.2576
_cell_angle_alpha 90.000100
_cell_angle_beta 90.000400
_cell_angle_gamma 90.000000
loop_
  _atom_site_label
  _atom_site_type_symbol
  _atom_site_fract_x
  _atom_site_fract_y
  _atom_site_fract_z
Zn1 Zn 0.77483 0.72485 0.77492
 Zn2 Zn 0.77483 0.77500 0.72511
 Zn3 Zn 0.72502 0.72485 0.72512
 Zn4 Zn 0.72502 0.77500 0.77492
 O5 O 0.74992 0.74993 0.75002
 O6 O 0.81621 0.73123 0.76830
 O7 O 0.76820 0.76862 0.68373
 O8 O 0.73145 0.68358 0.73154
 O9 O 0.81621 0.76863 0.73173
 O10 O 0.76840 0.68358 0.76849
 O11 O 0.73164 0.73122 0.68373
 O12 O 0.68364 0.76863 0.76830
 O13 O 0.76840 0.81627 0.73154
 O14 O 0.68364 0.73123 0.73174
 O15 O 0.73145 0.81627 0.76849
 O16 O 0.73164 0.76863 0.81630
 O17 O 0.76821 0.73122 0.81630
 C18 C 0.83095 0.74993 0.75001
 C19 C 0.74992 0.74992 0.66899
 C20 C 0.74993 0.66882 0.75002
 C21 C 0.66890 0.74993 0.75002
 C22 C 0.74993 0.83103 0.75002
 C23 C 0.74992 0.74992 0.83104
 Zn24 Zn 0.22502 0.72485 0.72512
 Zn25 Zn 0.22502 0.77500 0.77492
 Zn26 Zn 0.27483 0.72485 0.77492
 Zn27 Zn 0.27483 0.77500 0.72511
 O28 O 0.24992 0.74993 0.75002
 O29 O 0.18364 0.73123 0.73174
 O30 O 0.23164 0.76863 0.81630
 O31 O 0.26840 0.68358 0.76849
 O32 O 0.18364 0.76863 0.76830
 O33 O 0.23145 0.68358 0.73154
 O34 O 0.26820 0.73122 0.81630
 O35 O 0.31621 0.76863 0.73173
 O36 O 0.23145 0.81627 0.76849
 O37 O 0.31621 0.73123 0.76830
 O38 O 0.26840 0.81627 0.73154
 O39 O 0.26820 0.76862 0.68373
 O40 O 0.23164 0.73122 0.68373
 C41 C 0.16890 0.74993 0.75002
 C42 C 0.24992 0.74992 0.83104
 C43 C 0.24993 0.66882 0.75002
 C44 C 0.33095 0.74993 0.75002
 C45 C 0.24993 0.83103 0.75002
 C46 C 0.24992 0.74992 0.66899
 Zn47 Zn 0.72502 0.22485 0.77492
 Zn48 Zn 0.77483 0.22485 0.72511
 Zn49 Zn 0.72502 0.27500 0.72511
 Zn50 Zn 0.77482 0.27500 0.77492
 O51 O 0.74992 0.24993 0.75002
 O52 O 0.73145 0.18358 0.76849
 O53 O 0.76820 0.23122 0.68373
 O54 O 0.68364 0.26863 0.73174
 O55 O 0.76840 0.18358 0.73154
 O56 O 0.68364 0.23123 0.76830
 O57 O 0.73164 0.26863 0.68373
 O58 O 0.76840 0.31627 0.76850
 O59 O 0.81621 0.23123 0.73174
 O60 O 0.73145 0.31627 0.73154
 O61 O 0.81621 0.26863 0.76830
 O62 O 0.76820 0.26863 0.81631
 O63 O 0.73164 0.23122 0.81630
 C64 C 0.74992 0.16882 0.75002
 C65 C 0.74992 0.24992 0.66899
 C66 C 0.66890 0.24993 0.75002
 C67 C 0.74992 0.33103 0.75002
 C68 C 0.83095 0.24993 0.75002
 C69 C 0.74992 0.24992 0.83104
 Zn70 Zn 0.27483 0.22485 0.72512
 Zn71 Zn 0.22502 0.22485 0.77492
 Zn72 Zn 0.27482 0.27500 0.77492
 Zn73 Zn 0.22502 0.27500 0.72511
 O74 O 0.24992 0.24993 0.75002
 O75 O 0.26840 0.18358 0.73154
 O76 O 0.23164 0.23122 0.81630
 O77 O 0.31621 0.26863 0.76830
 O78 O 0.23145 0.18358 0.76849
 O79 O 0.31621 0.23123 0.73174
 O80 O 0.26820 0.26863 0.81631
 O81 O 0.23145 0.31627 0.73154
 O82 O 0.18364 0.23123 0.76830
 O83 O 0.26840 0.31627 0.76850
 O84 O 0.18364 0.26863 0.73174
 O85 O 0.23164 0.26863 0.68373
 O86 O 0.26820 0.23122 0.68373
 C87 C 0.24992 0.16882 0.75002
 C88 C 0.24992 0.24992 0.83104
 C89 C 0.33095 0.24993 0.75002
 C90 C 0.24992 0.33103 0.75002
 C91 C 0.16890 0.24993 0.75002
 C92 C 0.24992 0.24992 0.66899
 Zn93 Zn 0.72499 0.72478 0.22511
 Zn94 Zn 0.77479 0.77493 0.22512
 Zn95 Zn 0.72499 0.77493 0.27492
 Zn96 Zn 0.77479 0.72478 0.27492
 O97 O 0.74989 0.74986 0.25002
 O98 O 0.73161 0.73116 0.18373
 O99 O 0.76837 0.81620 0.23154
 O100 O 0.68360 0.76856 0.26830
 O101 O 0.76817 0.76856 0.18373
 O102 O 0.68361 0.73115 0.23173
 O103 O 0.73141 0.81620 0.26849
 O104 O 0.76817 0.73116 0.31630
 O105 O 0.81618 0.76856 0.23174
 O106 O 0.73161 0.76856 0.31630
 O107 O 0.81618 0.73115 0.26830
 O108 O 0.76836 0.68351 0.26849
 O109 O 0.73142 0.68351 0.23154
 C110 C 0.74989 0.74986 0.16899
 C111 C 0.74989 0.83096 0.25002
 C112 C 0.66887 0.74985 0.25001
 C113 C 0.74989 0.74986 0.33104
 C114 C 0.83091 0.74985 0.25002
 C115 C 0.74989 0.66875 0.25001
 Zn116 Zn 0.27479 0.77493 0.22512
 Zn117 Zn 0.22499 0.72478 0.22511
 Zn118 Zn 0.27479 0.72478 0.27492
 Zn119 Zn 0.22499 0.77493 0.27492
 O120 O 0.24989 0.74986 0.25002
 O121 O 0.26817 0.76856 0.18373
 O122 O 0.23142 0.68351 0.23154
 O123 O 0.31618 0.73115 0.26830
 O124 O 0.23161 0.73116 0.18373
 O125 O 0.31618 0.76856 0.23174
 O126 O 0.26836 0.68351 0.26849
 O127 O 0.23161 0.76856 0.31630
 O128 O 0.18361 0.73115 0.23173
 O129 O 0.26817 0.73116 0.31630
 O130 O 0.18360 0.76855 0.26830
 O131 O 0.23141 0.81620 0.26849
 O132 O 0.26837 0.81620 0.23154
 C133 C 0.24989 0.74986 0.16899
 C134 C 0.24989 0.66875 0.25002
 C135 C 0.33091 0.74985 0.25002
 C136 C 0.24989 0.74986 0.33104
 C137 C 0.16887 0.74985 0.25002
 C138 C 0.24989 0.83096 0.25002
 Zn139 Zn 0.72499 0.27493 0.22511
 Zn140 Zn 0.77479 0.22478 0.22511
 Zn141 Zn 0.77479 0.27493 0.27492
 Zn142 Zn 0.72499 0.22478 0.27492
 O143 O 0.74989 0.24986 0.25002
 O144 O 0.73161 0.26856 0.18373
 O145 O 0.81618 0.23115 0.23174
 O146 O 0.76837 0.31621 0.26849
 O147 O 0.76817 0.23116 0.18373
 O148 O 0.73141 0.31620 0.23154
 O149 O 0.81618 0.26856 0.26830
 O150 O 0.73161 0.23116 0.31631
 O151 O 0.76836 0.18351 0.23154
 O152 O 0.76817 0.26856 0.31630
 O153 O 0.73141 0.18351 0.26850
 O154 O 0.68360 0.23116 0.26830
 O155 O 0.68360 0.26856 0.23174
 C156 C 0.74989 0.24986 0.16899
 C157 C 0.83091 0.24985 0.25002
 C158 C 0.74989 0.33096 0.25001
 C159 C 0.74989 0.24986 0.33104
 C160 C 0.74989 0.16875 0.25002
 C161 C 0.66887 0.24986 0.25002
 Zn162 Zn 0.22499 0.27493 0.22511
 Zn163 Zn 0.27479 0.22478 0.22511
 Zn164 Zn 0.27479 0.27493 0.27492
 Zn165 Zn 0.22499 0.22478 0.27492
 O166 O 0.24989 0.24986 0.25002
 O167 O 0.23161 0.26856 0.18373
 O168 O 0.31618 0.23115 0.23174
 O169 O 0.26837 0.31620 0.26849
 O170 O 0.26817 0.23116 0.18373
 O171 O 0.23141 0.31620 0.23154
 O172 O 0.31618 0.26856 0.26830
 O173 O 0.23161 0.23116 0.31631
 O174 O 0.26836 0.18351 0.23154
 O175 O 0.26817 0.26856 0.31630
 O176 O 0.23142 0.18351 0.26850
 O177 O 0.18360 0.23115 0.26830
 O178 O 0.18360 0.26856 0.23174
 C179 C 0.24989 0.24986 0.16899
 C180 C 0.33091 0.24985 0.25002
 C181 C 0.24989 0.33096 0.25002
 C182 C 0.24989 0.24986 0.33104
 C183 C 0.24989 0.16875 0.25002
 C184 C 0.16887 0.24985 0.25002
 C185 C -0.06724 0.74993 0.75001
 C186 C -0.08412 0.77628 0.73894
 C187 C -0.11720 0.77616 0.73865
 C188 C -0.13407 0.74993 0.75001
 C189 C -0.11720 0.72370 0.76138
 C190 C -0.08412 0.72358 0.76109
 C191 C -0.03224 0.74993 0.75002
 N192 N -0.01584 0.72236 0.75008
 N193 N 0.01569 0.72236 0.74995
 C194 C 0.03209 0.74993 0.75002
 N195 N 0.01569 0.77750 0.75008
 N196 N -0.01584 0.77750 0.74995
 C197 C 0.06709 0.74993 0.75002
 C198 C 0.08397 0.77628 0.76109
 C199 C 0.11705 0.77616 0.76138
 C200 C 0.13392 0.74993 0.75002
 C201 C 0.11705 0.72370 0.73865
 C202 C 0.08397 0.72358 0.73894
 H203 H -0.07175 0.79688 0.73013
 H204 H -0.12958 0.79675 0.72985
 H205 H -0.12958 0.70311 0.77018
 H206 H -0.07175 0.70299 0.76990
 H207 H 0.07160 0.79688 0.76990
 H208 H 0.12943 0.79675 0.77018
 H209 H 0.12943 0.70311 0.72985
 H210 H 0.07160 0.70299 0.73013
 C211 C 0.74993 -0.06721 0.75002
 C212 C 0.77017 -0.08412 0.72977
 C213 C 0.77017 -0.11711 0.72977
 C214 C 0.74993 -0.13399 0.75002
 C215 C 0.72968 -0.11711 0.77027
 C216 C 0.72968 -0.08412 0.77027
 C217 C 0.74993 -0.03220 0.75002
 N218 N 0.73040 -0.01579 0.76955
 N219 N 0.73040 0.01565 0.76955
 C220 C 0.74993 0.03205 0.75002
 N221 N 0.76946 0.01565 0.73049
 N222 N 0.76946 -0.01579 0.73049
 C223 C 0.74992 0.06707 0.75002
 C224 C 0.77017 0.08397 0.72977
 C225 C 0.77017 0.11696 0.72977
 C226 C 0.74992 0.13385 0.75002
 C227 C 0.72968 0.11696 0.77026
 C228 C 0.72967 0.08397 0.77026
 H229 H 0.78608 -0.07190 0.71385
 H230 H 0.78607 -0.12938 0.71387
 H231 H 0.71378 -0.12938 0.78616
 H232 H 0.71377 -0.07190 0.78618
 H233 H 0.78609 0.07175 0.71386
 H234 H 0.78607 0.12923 0.71387
 H235 H 0.71378 0.12923 0.78616
 H236 H 0.71376 0.07175 0.78617
 C237 C 0.74991 0.74990 -0.06715
 C238 C 0.73884 0.77626 -0.08403
 C239 C 0.73855 0.77615 -0.11710
 C240 C 0.74992 0.74992 -0.13398
 C241 C 0.76128 0.72368 -0.11711
 C242 C 0.76099 0.72355 -0.08403
 C243 C 0.74991 0.74990 -0.03215
 N244 N 0.74997 0.72233 -0.01575
 N245 N 0.74983 0.72232 0.01577
 C246 C 0.74990 0.74989 0.03218
 N247 N 0.74997 0.77746 0.01578
 N248 N 0.74984 0.77746 -0.01574
 C249 C 0.74990 0.74988 0.06719
 C250 C 0.76097 0.77623 0.08407
 C251 C 0.76126 0.77610 0.11714
 C252 C 0.74989 0.74987 0.13401
 C253 C 0.73853 0.72364 0.11713
 C254 C 0.73882 0.72352 0.08406
 H255 H 0.73003 0.79685 -0.07166
 H256 H 0.72976 0.79674 -0.12949
 H257 H 0.77008 0.70309 -0.12950
 H258 H 0.76980 0.70296 -0.07167
 H259 H 0.76978 0.79682 0.07170
 H260 H 0.77006 0.79669 0.12953
 H261 H 0.72973 0.70305 0.12952
 H262 H 0.73001 0.70293 0.07168
 C263 C 0.56709 0.74993 0.75002
 C264 C 0.58397 0.77628 0.76109
 C265 C 0.61705 0.77616 0.76138
 C266 C 0.63392 0.74993 0.75002
 C267 C 0.61705 0.72370 0.73865
 C268 C 0.58397 0.72358 0.73894
 C269 C 0.53209 0.74993 0.75002
 N270 N 0.51569 0.72236 0.74995
 N271 N 0.48416 0.72236 0.75009
 C272 C 0.46776 0.74993 0.75002
 N273 N 0.48416 0.77750 0.74995
 N274 N 0.51569 0.77750 0.75009
 C275 C 0.43276 0.74993 0.75002
 C276 C 0.41588 0.77628 0.73894
 C277 C 0.38280 0.77616 0.73865
 C278 C 0.36593 0.74993 0.75002
 C279 C 0.38280 0.72370 0.76138
 C280 C 0.41588 0.72358 0.76109
 H281 H 0.57160 0.79688 0.76990
 H282 H 0.62943 0.79675 0.77018
 H283 H 0.62943 0.70311 0.72986
 H284 H 0.57160 0.70299 0.73014
 H285 H 0.42825 0.79688 0.73013
 H286 H 0.37042 0.79675 0.72985
 H287 H 0.37042 0.70311 0.77018
 H288 H 0.42825 0.70299 0.76990
 C289 C 0.24993 -0.06721 0.75002
 C290 C 0.27017 -0.08412 0.72977
 C291 C 0.27017 -0.11711 0.72977
 C292 C 0.24993 -0.13399 0.75002
 C293 C 0.22968 -0.11711 0.77027
 C294 C 0.22968 -0.08412 0.77027
 C295 C 0.24993 -0.03220 0.75002
 N296 N 0.23040 -0.01579 0.76955
 N297 N 0.23040 0.01565 0.76955
 C298 C 0.24993 0.03205 0.75002
 N299 N 0.26946 0.01565 0.73049
 N300 N 0.26946 -0.01579 0.73049
 C301 C 0.24993 0.06707 0.75002
 C302 C 0.27018 0.08398 0.72977
 C303 C 0.27017 0.11696 0.72977
 C304 C 0.24992 0.13385 0.75002
 C305 C 0.22968 0.11696 0.77026
 C306 C 0.22968 0.08397 0.77026
 H307 H 0.28608 -0.07190 0.71385
 H308 H 0.28607 -0.12938 0.71387
 H309 H 0.21378 -0.12938 0.78616
 H310 H 0.21377 -0.07190 0.78618
 H311 H 0.28609 0.07175 0.71386
 H312 H 0.28607 0.12923 0.71387
 H313 H 0.21378 0.12923 0.78616
 H314 H 0.21376 0.07175 0.78617
 C315 C 0.24991 0.74990 -0.06715
 C316 C 0.23883 0.77626 -0.08402
 C317 C 0.23855 0.77615 -0.11710
 C318 C 0.24992 0.74992 -0.13398
 C319 C 0.26128 0.72368 -0.11711
 C320 C 0.26099 0.72355 -0.08403
 C321 C 0.24990 0.74990 -0.03215
 N322 N 0.24997 0.72233 -0.01575
 N323 N 0.24983 0.72232 0.01577
 C324 C 0.24990 0.74988 0.03218
 N325 N 0.24996 0.77746 0.01578
 N326 N 0.24983 0.77746 -0.01574
 C327 C 0.24989 0.74988 0.06719
 C328 C 0.26097 0.77623 0.08407
 C329 C 0.26126 0.77610 0.11714
 C330 C 0.24989 0.74987 0.13401
 C331 C 0.23853 0.72364 0.11714
 C332 C 0.23882 0.72352 0.08406
 H333 H 0.23003 0.79685 -0.07165
 H334 H 0.22976 0.79674 -0.12949
 H335 H 0.27008 0.70309 -0.12950
 H336 H 0.26979 0.70296 -0.07167
 H337 H 0.26978 0.79682 0.07170
 H338 H 0.27006 0.79669 0.12953
 H339 H 0.22973 0.70305 0.12952
 H340 H 0.23001 0.70293 0.07169
 C341 C -0.06725 0.24993 0.75001
 C342 C -0.08412 0.27629 0.76109
 C343 C -0.11720 0.27616 0.76138
 C344 C -0.13407 0.24993 0.75002
 C345 C -0.11720 0.22370 0.73865
 C346 C -0.08412 0.22358 0.73894
 C347 C -0.03224 0.24993 0.75002
 N348 N -0.01584 0.22237 0.74995
 N349 N 0.01568 0.22237 0.75008
 C350 C 0.03209 0.24993 0.75002
 N351 N 0.01568 0.27750 0.74995
 N352 N -0.01584 0.27750 0.75008
 C353 C 0.06709 0.24993 0.75002
 C354 C 0.08397 0.27629 0.73894
 C355 C 0.11705 0.27616 0.73865
 C356 C 0.13392 0.24993 0.75002
 C357 C 0.11705 0.22370 0.76138
 C358 C 0.08397 0.22358 0.76109
 H359 H -0.07176 0.29688 0.76990
 H360 H -0.12959 0.29675 0.77018
 H361 H -0.12958 0.20311 0.72985
 H362 H -0.07175 0.20299 0.73013
 H363 H 0.07160 0.29688 0.73013
 H364 H 0.12943 0.29675 0.72985
 H365 H 0.12943 0.20311 0.77018
 H366 H 0.07160 0.20299 0.76990
 C367 C 0.74993 0.56707 0.75002
 C368 C 0.77018 0.58397 0.77026
 C369 C 0.77018 0.61696 0.77026
 C370 C 0.74993 0.63385 0.75002
 C371 C 0.72968 0.61696 0.72977
 C372 C 0.72968 0.58397 0.72977
 C373 C 0.74993 0.53205 0.75002
 N374 N 0.73040 0.51565 0.73049
 N375 N 0.73039 0.48421 0.73049
 C376 C 0.74993 0.46780 0.75002
 N377 N 0.76946 0.48421 0.76955
 N378 N 0.76946 0.51565 0.76955
 C379 C 0.74992 0.43279 0.75002
 C380 C 0.77017 0.41588 0.77027
 C381 C 0.77017 0.38289 0.77027
 C382 C 0.74992 0.36601 0.75002
 C383 C 0.72968 0.38289 0.72977
 C384 C 0.72968 0.41588 0.72977
 H385 H 0.78609 0.57175 0.78617
 H386 H 0.78607 0.62923 0.78616
 H387 H 0.71378 0.62923 0.71387
 H388 H 0.71376 0.57175 0.71386
 H389 H 0.78608 0.42810 0.78618
 H390 H 0.78607 0.37062 0.78617
 H391 H 0.71378 0.37062 0.71387
 H392 H 0.71377 0.42810 0.71386
 C393 C 0.74992 0.24991 -0.06715
 C394 C 0.76100 0.27626 -0.08402
 C395 C 0.76129 0.27615 -0.11710
 C396 C 0.74992 0.24992 -0.13398
 C397 C 0.73856 0.22368 -0.11711
 C398 C 0.73884 0.22356 -0.08403
 C399 C 0.74992 0.24990 -0.03215
 N400 N 0.74985 0.22233 -0.01575
 N401 N 0.74998 0.22232 0.01577
 C402 C 0.74991 0.24989 0.03218
 N403 N 0.74985 0.27746 0.01578
 N404 N 0.74998 0.27746 -0.01574
 C405 C 0.74991 0.24988 0.06719
 C406 C 0.73883 0.27623 0.08407
 C407 C 0.73853 0.27610 0.11714
 C408 C 0.74990 0.24987 0.13401
 C409 C 0.76126 0.22364 0.11714
 C410 C 0.76098 0.22352 0.08406
 H411 H 0.76980 0.29685 -0.07165
 H412 H 0.77008 0.29674 -0.12948
 H413 H 0.72976 0.20309 -0.12950
 H414 H 0.73004 0.20296 -0.07167
 H415 H 0.73002 0.29682 0.07170
 H416 H 0.72973 0.29669 0.12953
 H417 H 0.77006 0.20304 0.12952
 H418 H 0.76979 0.20293 0.07169
 C419 C 0.56709 0.24993 0.75002
 C420 C 0.58397 0.27629 0.73894
 C421 C 0.61705 0.27616 0.73865
 C422 C 0.63392 0.24993 0.75002
 C423 C 0.61705 0.22370 0.76138
 C424 C 0.58397 0.22358 0.76110
 C425 C 0.53209 0.24993 0.75002
 N426 N 0.51568 0.22237 0.75009
 N427 N 0.48416 0.22237 0.74995
 C428 C 0.46776 0.24993 0.75002
 N429 N 0.48416 0.27750 0.75009
 N430 N 0.51568 0.27750 0.74995
 C431 C 0.43275 0.24993 0.75002
 C432 C 0.41588 0.27629 0.76109
 C433 C 0.38280 0.27616 0.76138
 C434 C 0.36593 0.24993 0.75002
 C435 C 0.38280 0.22370 0.73865
 C436 C 0.41588 0.22358 0.73894
 H437 H 0.57160 0.29688 0.73014
 H438 H 0.62943 0.29675 0.72986
 H439 H 0.62943 0.20311 0.77018
 H440 H 0.57160 0.20299 0.76990
 H441 H 0.42824 0.29688 0.76990
 H442 H 0.37041 0.29675 0.77018
 H443 H 0.37042 0.20311 0.72985
 H444 H 0.42825 0.20299 0.73013
 C445 C 0.24993 0.56707 0.75002
 C446 C 0.27018 0.58397 0.77027
 C447 C 0.27018 0.61696 0.77027
 C448 C 0.24993 0.63385 0.75002
 C449 C 0.22968 0.61696 0.72977
 C450 C 0.22968 0.58397 0.72977
 C451 C 0.24993 0.53205 0.75002
 N452 N 0.23040 0.51565 0.73049
 N453 N 0.23040 0.48421 0.73049
 C454 C 0.24993 0.46780 0.75002
 N455 N 0.26946 0.48421 0.76955
 N456 N 0.26946 0.51565 0.76955
 C457 C 0.24993 0.43279 0.75002
 C458 C 0.27017 0.41588 0.77027
 C459 C 0.27017 0.38289 0.77027
 C460 C 0.24992 0.36601 0.75002
 C461 C 0.22968 0.38289 0.72977
 C462 C 0.22968 0.41588 0.72977
 H463 H 0.28609 0.57175 0.78618
 H464 H 0.28607 0.62923 0.78616
 H465 H 0.21378 0.62923 0.71387
 H466 H 0.21377 0.57175 0.71386
 H467 H 0.28608 0.42810 0.78618
 H468 H 0.28607 0.37062 0.78617
 H469 H 0.21378 0.37062 0.71387
 H470 H 0.21377 0.42810 0.71386
 C471 C 0.24992 0.24991 -0.06715
 C472 C 0.26100 0.27626 -0.08402
 C473 C 0.26129 0.27615 -0.11710
 C474 C 0.24992 0.24992 -0.13398
 C475 C 0.23856 0.22368 -0.11711
 C476 C 0.23884 0.22356 -0.08403
 C477 C 0.24992 0.24990 -0.03215
 N478 N 0.24985 0.22233 -0.01575
 N479 N 0.24998 0.22232 0.01577
 C480 C 0.24991 0.24989 0.03218
 N481 N 0.24984 0.27746 0.01578
 N482 N 0.24998 0.27746 -0.01574
 C483 C 0.24990 0.24988 0.06719
 C484 C 0.23882 0.27623 0.08407
 C485 C 0.23853 0.27610 0.11714
 C486 C 0.24989 0.24987 0.13401
 C487 C 0.26126 0.22364 0.11714
 C488 C 0.26098 0.22352 0.08406
 H489 H 0.26980 0.29685 -0.07165
 H490 H 0.27008 0.29674 -0.12948
 H491 H 0.22976 0.20309 -0.12950
 H492 H 0.23003 0.20296 -0.07167
 H493 H 0.23002 0.29682 0.07170
 H494 H 0.22973 0.29669 0.12953
 H495 H 0.27006 0.20305 0.12952
 H496 H 0.26979 0.20293 0.07169
 C497 C -0.06728 0.74985 0.25002
 C498 C -0.08415 0.77620 0.23894
 C499 C -0.11723 0.77608 0.23865
 C500 C -0.13410 0.74985 0.25002
 C501 C -0.11723 0.72362 0.26138
 C502 C -0.08415 0.72350 0.26110
 C503 C -0.03228 0.74985 0.25002
 N504 N -0.01587 0.72228 0.25008
 N505 N 0.01565 0.72228 0.24995
 C506 C 0.03206 0.74985 0.25002
 N507 N 0.01565 0.77742 0.25009
 N508 N -0.01587 0.77742 0.24995
 C509 C 0.06706 0.74985 0.25002
 C510 C 0.08394 0.77620 0.26110
 C511 C 0.11701 0.77608 0.26139
 C512 C 0.13388 0.74985 0.25002
 C513 C 0.11702 0.72362 0.23864
 C514 C 0.08394 0.72350 0.23893
 H515 H -0.07178 0.79679 0.23013
 H516 H -0.12961 0.79667 0.22985
 H517 H -0.12962 0.70303 0.27018
 H518 H -0.07179 0.70291 0.26990
 H519 H 0.07157 0.79679 0.26992
 H520 H 0.12940 0.79667 0.27019
 H521 H 0.12940 0.70304 0.22984
 H522 H 0.07157 0.70291 0.23012
 C523 C 0.74989 -0.06728 0.25002
 C524 C 0.77014 -0.08419 0.22977
 C525 C 0.77014 -0.11718 0.22977
 C526 C 0.74989 -0.13406 0.25002
 C527 C 0.72964 -0.11718 0.27027
 C528 C 0.72964 -0.08419 0.27027
 C529 C 0.74989 -0.03227 0.25002
 N530 N 0.73036 -0.01586 0.26955
 N531 N 0.73036 0.01558 0.26955
 C532 C 0.74989 0.03198 0.25002
 N533 N 0.76942 0.01558 0.23049
 N534 N 0.76942 -0.01586 0.23049
 C535 C 0.74989 0.06700 0.25002
 C536 C 0.77013 0.08390 0.22977
 C537 C 0.77013 0.11689 0.22977
 C538 C 0.74989 0.13378 0.25002
 C539 C 0.72964 0.11690 0.27027
 C540 C 0.72964 0.08391 0.27027
 H541 H 0.78605 -0.07197 0.21386
 H542 H 0.78604 -0.12945 0.21388
 H543 H 0.71374 -0.12945 0.28616
 H544 H 0.71372 -0.07197 0.28618
 H545 H 0.78604 0.07168 0.21386
 H546 H 0.78603 0.12916 0.21387
 H547 H 0.71374 0.12916 0.28617
 H548 H 0.71373 0.07168 0.28618
 C549 C 0.74992 0.74990 0.56719
 C550 C 0.76100 0.77626 0.58406
 C551 C 0.76129 0.77614 0.61713
 C552 C 0.74992 0.74992 0.63401
 C553 C 0.73856 0.72368 0.61714
 C554 C 0.73884 0.72355 0.58407
 C555 C 0.74992 0.74989 0.53218
 N556 N 0.74985 0.72232 0.51578
 N557 N 0.74998 0.72232 0.48426
 C558 C 0.74991 0.74988 0.46785
 N559 N 0.74985 0.77745 0.48425
 N560 N 0.74999 0.77746 0.51577
 C561 C 0.74991 0.74988 0.43285
 C562 C 0.73883 0.77623 0.41597
 C563 C 0.73853 0.77610 0.38289
 C564 C 0.74990 0.74986 0.36602
 C565 C 0.76126 0.72363 0.38290
 C566 C 0.76098 0.72352 0.41597
 H567 H 0.76981 0.79685 0.57168
 H568 H 0.77009 0.79674 0.62952
 H569 H 0.72976 0.70309 0.62953
 H570 H 0.73004 0.70296 0.57170
 H571 H 0.73002 0.79682 0.42833
 H572 H 0.72973 0.79669 0.37050
 H573 H 0.77006 0.70304 0.37051
 H574 H 0.76979 0.70293 0.42834
 C575 C 0.56706 0.74985 0.25002
 C576 C 0.58394 0.77620 0.26110
 C577 C 0.61701 0.77608 0.26138
 C578 C 0.63388 0.74985 0.25001
 C579 C 0.61702 0.72362 0.23865
 C580 C 0.58394 0.72350 0.23894
 C581 C 0.53206 0.74985 0.25002
 N582 N 0.51565 0.72228 0.24994
 N583 N 0.48413 0.72228 0.25008
 C584 C 0.46772 0.74985 0.25002
 N585 N 0.48413 0.77742 0.24995
 N586 N 0.51565 0.77742 0.25009
 C587 C 0.43272 0.74985 0.25002
 C588 C 0.41585 0.77620 0.23894
 C589 C 0.38277 0.77608 0.23865
 C590 C 0.36590 0.74985 0.25002
 C591 C 0.38277 0.72362 0.26138
 C592 C 0.41585 0.72350 0.26109
 H593 H 0.57157 0.79679 0.26990
 H594 H 0.62940 0.79667 0.27018
 H595 H 0.62940 0.70303 0.22985
 H596 H 0.57157 0.70291 0.23013
 H597 H 0.42822 0.79680 0.23014
 H598 H 0.37038 0.79668 0.22986
 H599 H 0.37038 0.70303 0.27017
 H600 H 0.42821 0.70290 0.26989
 C601 C 0.24989 -0.06728 0.25002
 C602 C 0.27014 -0.08419 0.22977
 C603 C 0.27014 -0.11718 0.22977
 C604 C 0.24989 -0.13406 0.25002
 C605 C 0.22964 -0.11718 0.27027
 C606 C 0.22964 -0.08419 0.27027
 C607 C 0.24989 -0.03227 0.25002
 N608 N 0.23036 -0.01586 0.26955
 N609 N 0.23036 0.01558 0.26955
 C610 C 0.24989 0.03198 0.25002
 N611 N 0.26942 0.01558 0.23049
 N612 N 0.26942 -0.01586 0.23049
 C613 C 0.24989 0.06700 0.25002
 C614 C 0.27014 0.08390 0.22977
 C615 C 0.27013 0.11689 0.22977
 C616 C 0.24989 0.13378 0.25002
 C617 C 0.22964 0.11690 0.27027
 C618 C 0.22964 0.08391 0.27027
 H619 H 0.28605 -0.07197 0.21386
 H620 H 0.28604 -0.12945 0.21387
 H621 H 0.21374 -0.12945 0.28616
 H622 H 0.21373 -0.07197 0.28618
 H623 H 0.28604 0.07168 0.21386
 H624 H 0.28603 0.12916 0.21387
 H625 H 0.21374 0.12916 0.28617
 H626 H 0.21373 0.07168 0.28618
 C627 C 0.24992 0.74990 0.56719
 C628 C 0.26100 0.77626 0.58406
 C629 C 0.26129 0.77614 0.61714
 C630 C 0.24992 0.74991 0.63401
 C631 C 0.23856 0.72368 0.61715
 C632 C 0.23885 0.72355 0.58407
 C633 C 0.24992 0.74990 0.53218
 N634 N 0.24985 0.72232 0.51578
 N635 N 0.24998 0.72232 0.48426
 C636 C 0.24991 0.74988 0.46785
 N637 N 0.24985 0.77745 0.48425
 N638 N 0.24999 0.77746 0.51577
 C639 C 0.24991 0.74988 0.43285
 C640 C 0.23883 0.77623 0.41597
 C641 C 0.23853 0.77610 0.38289
 C642 C 0.24990 0.74986 0.36602
 C643 C 0.26126 0.72364 0.38290
 C644 C 0.26098 0.72352 0.41598
 H645 H 0.26981 0.79685 0.57169
 H646 H 0.27009 0.79674 0.62952
 H647 H 0.22976 0.70309 0.62953
 H648 H 0.23004 0.70296 0.57170
 H649 H 0.23002 0.79682 0.42833
 H650 H 0.22974 0.79669 0.37050
 H651 H 0.27006 0.70304 0.37051
 H652 H 0.26979 0.70293 0.42834
 C653 C -0.06728 0.24985 0.25002
 C654 C -0.08415 0.27621 0.26110
 C655 C -0.11723 0.27608 0.26138
 C656 C -0.13410 0.24985 0.25002
 C657 C -0.11723 0.22362 0.23865
 C658 C -0.08416 0.22350 0.23894
 C659 C -0.03228 0.24985 0.25002
 N660 N -0.01587 0.22228 0.24995
 N661 N 0.01565 0.22228 0.25009
 C662 C 0.03206 0.24985 0.25002
 N663 N 0.01565 0.27742 0.24995
 N664 N -0.01587 0.27742 0.25008
 C665 C 0.06706 0.24985 0.25002
 C666 C 0.08393 0.27620 0.23893
 C667 C 0.11701 0.27608 0.23864
 C668 C 0.13388 0.24985 0.25002
 C669 C 0.11701 0.22363 0.26139
 C670 C 0.08393 0.22350 0.26110
 H671 H -0.07179 0.29680 0.26990
 H672 H -0.12962 0.29667 0.27018
 H673 H -0.12962 0.20303 0.22985
 H674 H -0.07179 0.20291 0.23013
 H675 H 0.07157 0.29679 0.23012
 H676 H 0.12940 0.29667 0.22984
 H677 H 0.12940 0.20304 0.27019
 H678 H 0.07157 0.20291 0.26992
 C679 C 0.74989 0.56700 0.25001
 C680 C 0.77013 0.58390 0.27026
 C681 C 0.77013 0.61689 0.27026
 C682 C 0.74989 0.63378 0.25001
 C683 C 0.72964 0.61690 0.22976
 C684 C 0.72964 0.58391 0.22976
 C685 C 0.74989 0.53198 0.25001
 N686 N 0.73036 0.51558 0.23048
 N687 N 0.73036 0.48414 0.23048
 C688 C 0.74989 0.46773 0.25001
 N689 N 0.76942 0.48414 0.26955
 N690 N 0.76942 0.51558 0.26955
 C691 C 0.74989 0.43272 0.25001
 C692 C 0.77014 0.41581 0.27026
 C693 C 0.77014 0.38282 0.27026
 C694 C 0.74989 0.36594 0.25001
 C695 C 0.72964 0.38282 0.22977
 C696 C 0.72964 0.41581 0.22977
 H697 H 0.78604 0.57168 0.28618
 H698 H 0.78603 0.62916 0.28616
 H699 H 0.71375 0.62916 0.21387
 H700 H 0.71373 0.57168 0.21385
 H701 H 0.78605 0.42803 0.28617
 H702 H 0.78603 0.37055 0.28616
 H703 H 0.71374 0.37055 0.21387
 H704 H 0.71372 0.42803 0.21386
 C705 C 0.74991 0.24991 0.56719
 C706 C 0.73883 0.27626 0.58406
 C707 C 0.73855 0.27615 0.61714
 C708 C 0.74992 0.24992 0.63401
 C709 C 0.76128 0.22368 0.61714
 C710 C 0.76099 0.22356 0.58406
 C711 C 0.74990 0.24990 0.53218
 N712 N 0.74997 0.22233 0.51578
 N713 N 0.74983 0.22232 0.48426
 C714 C 0.74990 0.24989 0.46785
 N715 N 0.74996 0.27746 0.48425
 N716 N 0.74983 0.27747 0.51577
 C717 C 0.74989 0.24988 0.43285
 C718 C 0.76097 0.27623 0.41597
 C719 C 0.76126 0.27610 0.38289
 C720 C 0.74989 0.24987 0.36602
 C721 C 0.73853 0.22364 0.38290
 C722 C 0.73881 0.22353 0.41598
 H723 H 0.73003 0.29685 0.57169
 H724 H 0.72975 0.29674 0.62952
 H725 H 0.77008 0.20310 0.62953
 H726 H 0.76979 0.20296 0.57170
 H727 H 0.76978 0.29683 0.42833
 H728 H 0.77005 0.29669 0.37050
 H729 H 0.72973 0.20305 0.37052
 H730 H 0.73001 0.20294 0.42835
 C731 C 0.56706 0.24985 0.25002
 C732 C 0.58393 0.27621 0.23894
 C733 C 0.61701 0.27608 0.23865
 C734 C 0.63388 0.24985 0.25002
 C735 C 0.61701 0.22362 0.26138
 C736 C 0.58393 0.22350 0.26110
 C737 C 0.53206 0.24985 0.25002
 N738 N 0.51565 0.22228 0.25009
 N739 N 0.48413 0.22228 0.24995
 C740 C 0.46772 0.24985 0.25002
 N741 N 0.48413 0.27742 0.25008
 N742 N 0.51565 0.27742 0.24995
 C743 C 0.43272 0.24985 0.25002
 C744 C 0.41585 0.27621 0.26109
 C745 C 0.38277 0.27609 0.26138
 C746 C 0.36590 0.24985 0.25002
 C747 C 0.38277 0.22362 0.23865
 C748 C 0.41584 0.22350 0.23894
 H749 H 0.57157 0.29680 0.23013
 H750 H 0.62940 0.29667 0.22985
 H751 H 0.62940 0.20303 0.27018
 H752 H 0.57157 0.20291 0.26990
 H753 H 0.42821 0.29680 0.26990
 H754 H 0.37038 0.29668 0.27018
 H755 H 0.37038 0.20303 0.22986
 H756 H 0.42821 0.20291 0.23014
 C757 C 0.24989 0.56700 0.25002
 C758 C 0.27014 0.58390 0.27027
 C759 C 0.27014 0.61689 0.27027
 C760 C 0.24989 0.63378 0.25002
 C761 C 0.22964 0.61689 0.22977
 C762 C 0.22964 0.58390 0.22977
 C763 C 0.24989 0.53198 0.25002
 N764 N 0.23036 0.51558 0.23049
 N765 N 0.23036 0.48414 0.23049
 C766 C 0.24989 0.46773 0.25002
 N767 N 0.26942 0.48414 0.26955
 N768 N 0.26942 0.51558 0.26955
 C769 C 0.24989 0.43272 0.25002
 C770 C 0.27014 0.41581 0.27026
 C771 C 0.27014 0.38282 0.27026
 C772 C 0.24989 0.36594 0.25002
 C773 C 0.22964 0.38282 0.22977
 C774 C 0.22964 0.41581 0.22977
 H775 H 0.28605 0.57168 0.28618
 H776 H 0.28603 0.62916 0.28616
 H777 H 0.21375 0.62916 0.21387
 H778 H 0.21373 0.57168 0.21385
 H779 H 0.28605 0.42803 0.28617
 H780 H 0.28604 0.37055 0.28616
 H781 H 0.21374 0.37055 0.21387
 H782 H 0.21373 0.42803 0.21386
 C783 C 0.24991 0.24991 0.56719
 C784 C 0.23884 0.27626 0.58406
 C785 C 0.23855 0.27615 0.61714
 C786 C 0.24992 0.24992 0.63401
 C787 C 0.26128 0.22368 0.61714
 C788 C 0.26099 0.22356 0.58407
 C789 C 0.24990 0.24990 0.53218
 N790 N 0.24997 0.22233 0.51578
 N791 N 0.24983 0.22232 0.48426
 C792 C 0.24990 0.24989 0.46785
 N793 N 0.24997 0.27746 0.48425
 N794 N 0.24983 0.27747 0.51577
 C795 C 0.24989 0.24988 0.43285
 C796 C 0.26097 0.27623 0.41597
 C797 C 0.26126 0.27610 0.38289
 C798 C 0.24989 0.24987 0.36602
 C799 C 0.23853 0.22364 0.38290
 C800 C 0.23882 0.22352 0.41598
 H801 H 0.23003 0.29685 0.57169
 H802 H 0.22976 0.29674 0.62952
 H803 H 0.27008 0.20310 0.62953
 H804 H 0.26979 0.20296 0.57170
 H805 H 0.26978 0.29682 0.42833
 H806 H 0.27005 0.29669 0.37050
 H807 H 0.22973 0.20305 0.37052
 H808 H 0.23001 0.20294 0.42835
   
