data_POSCAR
  _audit_creation_date              2014-09-24
  _audit_creation_method            'ToBaCCo'
  _symmetry_space_group_name_H-M    'P1'
  _symmetry_Int_Tables_number       1
  _symmetry_cell_setting            triclinic
  loop_
  _symmetry_equiv_pos_as_xyz
 x,y,z
_cell_length_a 53.8045
_cell_length_b 50.7438
_cell_length_c 51.6720
_cell_angle_alpha 90.891900
_cell_angle_beta 89.717700
_cell_angle_gamma 90.810800
loop_
  _atom_site_label
  _atom_site_type_symbol
  _atom_site_fract_x
  _atom_site_fract_y
  _atom_site_fract_z
N1 N 0.20143 1.24262 0.17686
 N2 N 0.18058 1.23612 0.18861
 C3 C 0.16263 1.25264 0.18148
 C4 C 0.17278 1.27088 0.16447
 C5 C 0.19763 1.26393 0.16227
 H6 H 0.14373 1.25161 0.18858
 H7 H 0.21180 1.27292 0.15027
 Cu8 Cu 0.17912 1.20717 0.21275
 Cu9 Cu 0.23156 1.22211 0.18065
 Cu10 Cu 0.22229 1.16080 0.20843
 N11 N 0.18144 1.17998 0.23870
 N12 N 0.19814 1.16146 0.23665
 C13 C 0.19480 1.14422 0.25590
 C14 C 0.17491 1.15243 0.27119
 C15 C 0.16701 1.17538 0.25952
 H16 H 0.20608 1.12698 0.25830
 H17 H 0.15157 1.18760 0.26519
 N18 N 0.25159 1.16967 0.18730
 N19 N 0.25557 1.19314 0.17735
 C20 C 0.27687 1.19268 0.16355
 C21 C 0.28686 1.16768 0.16497
 C22 C 0.27026 1.15371 0.18030
 H23 H 0.28417 1.20917 0.15277
 H24 H 0.27121 1.13319 0.18545
 H25 H 0.20967 1.18926 0.18248
 H26 H 0.22387 1.20012 0.21382
 N27 N 0.80646 0.76357 0.16401
 N28 N 0.82673 0.76888 0.17727
 C29 C 0.84410 0.75099 0.17110
 C30 C 0.83423 0.73345 0.15289
 C31 C 0.81024 0.74215 0.14892
 H32 H 0.86261 0.75101 0.17913
 H33 H 0.79646 0.73362 0.13602
 Cu34 Cu 0.82886 0.79876 0.20118
 Cu35 Cu 0.77706 0.78532 0.16669
 Cu36 Cu 0.77648 0.83140 0.21651
 N37 N 0.82659 0.82141 0.23173
 N38 N 0.80581 0.83301 0.23841
 C39 C 0.80947 0.84696 0.26046
 C40 C 0.83410 0.84434 0.26791
 C41 C 0.84431 0.82786 0.24906
 H42 H 0.79545 0.85898 0.26965
 H43 H 0.86311 0.82070 0.24805
 N44 N 0.74888 0.82688 0.19185
 N45 N 0.74918 0.80939 0.17272
 C46 C 0.72901 0.81266 0.15787
 C47 C 0.71531 0.83337 0.16802
 C48 C 0.72852 0.84178 0.18967
 H49 H 0.72517 0.80142 0.14039
 H50 H 0.72440 0.85846 0.20214
 H51 H 0.79306 0.81966 0.18208
 H52 H 0.78428 0.79309 0.20546
 N53 N 0.79916 1.25499 -0.18808
 N54 N 0.81725 1.25210 -0.20501
 C55 C 0.83499 1.27048 -0.20035
 C56 C 0.82770 1.28578 -0.17925
 C57 C 0.80472 1.27539 -0.17209
 H58 H 0.85234 1.27183 -0.21094
 H59 H 0.79311 1.28163 -0.15606
 Cu60 Cu 0.81667 1.22366 -0.23066
 Cu61 Cu 0.77082 1.23056 -0.18718
 Cu62 Cu 0.78759 1.16889 -0.21036
 N63 N 0.82010 1.19033 -0.24915
 N64 N 0.80945 1.16873 -0.24054
 C65 C 0.81653 1.14814 -0.25537
 C66 C 0.83235 1.15732 -0.27472
 C67 C 0.83402 1.18438 -0.27008
 H68 H 0.81037 1.12809 -0.25221
 H69 H 0.84529 1.19863 -0.28033
 N70 N 0.75879 1.17477 -0.18724
 N71 N 0.75173 1.19837 -0.17934
 C72 C 0.73088 1.19594 -0.16501
 C73 C 0.72450 1.16944 -0.16375
 C74 C 0.74263 1.15665 -0.17813
 H75 H 0.72139 1.21224 -0.15580
 H76 H 0.74370 1.13575 -0.18222
 H77 H 0.79786 1.20412 -0.19225
 H78 H 0.77573 1.20532 -0.21987
 N79 N 0.17579 0.76308 -0.16533
 N80 N 0.15913 0.76459 -0.18372
 C81 C 0.14231 0.74493 -0.18093
 C82 C 0.14879 0.73023 -0.15967
 C83 C 0.17019 0.74240 -0.15027
 H84 H 0.12665 0.74142 -0.19360
 H85 H 0.18076 0.73688 -0.13352
 Cu86 Cu 0.16095 0.79187 -0.20976
 Cu87 Cu 0.20326 0.78818 -0.16211
 Cu88 Cu 0.20976 0.83438 -0.21033
 N89 N 0.16541 0.81772 -0.23688
 N90 N 0.18472 0.83382 -0.23738
 C91 C 0.18278 0.84984 -0.25776
 C92 C 0.16090 0.84363 -0.27086
 C93 C 0.15050 0.82295 -0.25694
 H94 H 0.19604 0.86534 -0.26209
 H95 H 0.13318 0.81264 -0.26073
 N96 N 0.23305 0.83203 -0.18117
 N97 N 0.22991 0.81513 -0.16223
 C98 C 0.24720 0.82001 -0.14397
 C99 C 0.26210 0.84080 -0.15189
 C100 C 0.25269 0.84787 -0.17561
 H101 H 0.24876 0.80940 -0.12608
 H102 H 0.25901 0.86415 -0.18730
 H103 H 0.18733 0.81911 -0.18152
 H104 H 0.20543 0.79495 -0.20149
 C105 C 0.52815 1.04390 -0.01918
 H106 H 0.51765 1.05426 -0.00443
 C107 C 0.54670 1.05729 -0.03303
 H108 H 0.55027 1.07794 -0.02876
 C109 C 0.53758 1.00396 -0.04123
 H110 H 0.53420 0.98302 -0.04390
 C111 C 0.55608 1.01655 -0.05562
 H112 H 0.56649 1.00519 -0.06976
 N113 N 0.52415 1.01766 -0.02337
 C114 C 0.48523 1.01536 0.04670
 H115 H 0.49738 1.00077 0.05452
 C116 C 0.46974 1.02957 0.06339
 H117 H 0.47069 1.02617 0.08400
 C118 C 0.46858 1.03685 0.01042
 H119 H 0.46790 1.03909 -0.01035
 C120 C 0.45267 1.05139 0.02640
 H121 H 0.43969 1.06469 0.01769
 Zn122 Zn 0.50236 0.99751 -0.00259
 N123 N 0.48429 1.01912 0.02072
 C124 C 0.54019 0.98490 0.03132
 N125 N 0.52259 0.97387 0.01560
 C126 C 0.52081 0.94728 0.01210
 C127 C 0.53680 0.93066 0.02520
 C128 C 0.55645 0.96906 0.04486
 C129 C 0.47607 0.98464 -0.04879
 C130 C 0.45742 0.97214 -0.06340
 C131 C 0.44466 0.94839 -0.02532
 C132 C 0.46318 0.96175 -0.01135
 N133 N 0.47866 0.97917 -0.02327
 H134 H 0.54161 1.00613 0.03325
 H135 H 0.50729 0.93886 -0.00113
 H136 H 0.53501 0.90954 0.02235
 H137 H 0.57047 0.97826 0.05710
 H138 H 0.48801 0.99923 -0.05771
 H139 H 0.45529 0.97742 -0.08347
 H140 H 0.43315 0.93403 -0.01545
 H141 H 0.46531 0.95818 0.00910
 C142 C 0.45286 1.04755 0.05327
 C143 C 0.56123 1.04347 -0.05127
 C144 C 0.44136 0.95366 -0.05172
 C145 C 0.55487 0.94154 0.04189
 C146 C -0.01374 0.51870 1.05433
 H147 H -0.00254 0.50452 1.06414
 C148 C -0.02618 0.53797 1.06881
 H149 H -0.02488 0.53797 1.08971
 C150 C -0.02869 0.53639 1.01530
 H151 H -0.02929 0.53579 0.99437
 C152 C -0.04141 0.55594 1.02898
 H153 H -0.05163 0.57046 1.01838
 N154 N -0.01551 0.51804 1.02807
 C155 C 0.04379 0.46470 1.02215
 H156 H 0.05317 0.47529 1.00688
 C157 C 0.05667 0.44579 1.03591
 H158 H 0.07585 0.44208 1.03081
 C159 C 0.00689 0.45519 1.04556
 H160 H -0.01268 0.45863 1.04882
 C161 C 0.01918 0.43655 1.06020
 H162 H 0.00892 0.42635 1.07516
 Zn163 Zn 0.00135 0.49304 1.00710
 N164 N 0.01938 0.46911 1.02726
 C165 C 0.04044 0.52799 0.99787
 N166 N 0.02312 0.51258 0.98567
 C167 C 0.02040 0.51301 0.95952
 C168 C 0.03547 0.52958 0.94460
 C169 C 0.05591 0.54476 0.98372
 C170 C -0.04652 0.47591 0.99011
 C171 C -0.06317 0.46014 0.97589
 C172 C -0.02825 0.43820 0.95593
 C173 C -0.01228 0.45434 0.97058
 N174 N -0.02158 0.47289 0.98709
 H175 H 0.04184 0.52761 1.01874
 H176 H 0.00615 0.50106 0.95025
 H177 H 0.03298 0.52981 0.92382
 H178 H 0.06912 0.55737 0.99391
 H179 H -0.05360 0.49028 1.00379
 H180 H -0.08295 0.46297 0.97840
 H181 H -0.02047 0.42334 0.94313
 H182 H 0.00763 0.45200 0.96894
 C183 C 0.04442 0.43139 1.05535
 C184 C -0.04037 0.55684 1.05612
 C185 C -0.05408 0.44097 0.95853
 C186 C 0.05337 0.54591 0.95673
 C187 C 1.03645 -0.00849 0.53869
 H188 H 1.03834 0.01276 0.53895
 C189 C 1.04901 -0.02330 0.55690
 H190 H 1.06045 -0.01323 0.57123
 C191 C 1.01812 -0.04721 0.52050
 H192 H 1.00552 -0.05644 0.50681
 C193 C 1.03035 -0.06278 0.53833
 H194 H 1.02753 -0.08394 0.53762
 N195 N 1.02153 -0.02059 0.52083
 C196 C 1.01463 0.03997 0.46259
 H197 H 0.99456 0.04079 0.46195
 C198 C 1.02891 0.05584 0.44633
 H199 H 1.01962 0.06869 0.43306
 C200 C 1.05089 0.02114 0.47990
 H201 H 1.05932 0.00720 0.49266
 C202 C 1.06594 0.03666 0.46388
 H203 H 1.08594 0.03488 0.46484
 Zn204 Zn 1.00392 0.00135 0.49819
 N205 N 1.02572 0.02311 0.47896
 C206 C 0.98773 0.04832 0.52295
 N207 N 0.98270 0.02223 0.51906
 C208 C 0.96350 0.01006 0.53146
 C209 C 0.94809 0.02434 0.54818
 C210 C 0.97307 0.06326 0.53988
 C211 C 0.99799 -0.03702 0.45925
 C212 C 0.98583 -0.05164 0.43993
 C213 C 0.94850 -0.02732 0.44924
 C214 C 0.96125 -0.01359 0.46883
 N215 N 0.98552 -0.01878 0.47358
 H216 H 1.00356 0.05743 0.51355
 H217 H 0.96018 -0.01082 0.52834
 H218 H 0.93260 0.01429 0.55733
 H219 H 0.97796 0.08377 0.54328
 H220 H 1.01749 -0.04023 0.46290
 H221 H 0.99606 -0.06661 0.42943
 H222 H 0.92945 -0.02217 0.44533
 H223 H 0.95195 0.00181 0.47964
 C224 C 1.05493 0.05423 0.44672
 C225 C 1.04598 -0.05083 0.55693
 C226 C 0.96074 -0.04676 0.43446
 C227 C 0.95291 0.05132 0.55284
 C228 C 0.16171 0.33124 1.12601
 C229 C 0.13548 0.33284 1.12632
 C230 C 0.12196 0.31270 1.13911
 C231 C 0.13438 0.29277 1.15219
 C232 C 0.16047 0.29143 1.15189
 C233 C 0.17387 0.31082 1.13835
 C234 C 0.09605 0.31231 1.13859
 C235 C 0.08315 0.33111 1.12504
 C236 C 0.09572 0.35168 1.11209
 C237 C 0.12222 0.35336 1.11392
 C238 C 0.13448 0.37575 1.10382
 C239 C 0.12140 0.39545 1.09170
 C240 C 0.09575 0.39320 1.08827
 C241 C 0.08260 0.37100 1.09788
 C242 C 0.05693 0.36879 1.09235
 C243 C 0.04482 0.38817 1.07853
 C244 C 0.05763 0.41071 1.07000
 C245 C 0.08321 0.41301 1.07509
 H246 H 0.17338 0.34507 1.11578
 H247 H 0.12339 0.27779 1.16183
 H248 H 0.19396 0.31067 1.13746
 H249 H 0.08558 0.29704 1.14847
 H250 H 0.06317 0.32947 1.12578
 H251 H 0.15422 0.37905 1.10573
 H252 H 0.13158 0.41244 1.08452
 H253 H 0.04582 0.35186 1.09764
 H254 H 0.02534 0.38510 1.07411
 H255 H 0.09351 0.43030 1.06885
 C256 C -0.15257 0.67682 1.10624
 C257 C -0.12913 0.66790 1.11452
 C258 C -0.11810 0.68106 1.13607
 C259 C -0.13015 0.70214 1.14857
 C260 C -0.15329 0.71079 1.13999
 C261 C -0.16432 0.69781 1.11877
 C262 C -0.09500 0.67325 1.14504
 C263 C -0.08230 0.65284 1.13295
 C264 C -0.09227 0.63919 1.11127
 C265 C -0.11623 0.64662 1.10209
 C266 C -0.12647 0.63257 1.08078
 C267 C -0.11368 0.61237 1.06851
 C268 C -0.09016 0.60527 1.07682
 C269 C -0.07907 0.61839 1.09838
 C270 C -0.05511 0.61020 1.10590
 C271 C -0.04280 0.59017 1.09239
 C272 C -0.05381 0.57755 1.07097
 C273 C -0.07762 0.58511 1.06347
 H274 H -0.16235 0.66827 1.08997
 H275 H -0.12135 0.71174 1.16506
 H276 H -0.18207 0.70398 1.11143
 H277 H -0.08651 0.68318 1.16157
 H278 H -0.06459 0.64827 1.14122
 H279 H -0.14449 0.63663 1.07296
 H280 H -0.12229 0.60227 1.05214
 H281 H -0.04515 0.61898 1.12193
 H282 H -0.02430 0.58493 1.09845
 H283 H -0.08652 0.57516 1.04719
 C284 C -0.12220 0.33727 0.83480
 C285 C -0.12790 0.34569 0.86039
 C286 C -0.14930 0.33449 0.87228
 C287 C -0.16397 0.31554 0.85910
 C288 C -0.15768 0.30700 0.83401
 C289 C -0.13681 0.31827 0.82198
 C290 C -0.15585 0.34195 0.89743
 C291 C -0.14134 0.35984 0.91146
 C292 C -0.11952 0.37117 0.90084
 C293 C -0.11296 0.36440 0.87468
 C294 C -0.09160 0.37641 0.86377
 C295 C -0.07676 0.39382 0.87800
 C296 C -0.08245 0.40000 0.90369
 C297 C -0.10394 0.38894 0.91554
 C298 C -0.10866 0.39591 0.94176
 C299 C -0.09266 0.41289 0.95544
 C300 C -0.07141 0.42355 0.94362
 C301 C -0.06654 0.41711 0.91765
 H302 H -0.10642 0.34464 0.82412
 H303 H -0.17995 0.30697 0.86880
 H304 H -0.13157 0.31241 0.80251
 H305 H -0.17232 0.33364 0.90654
 H306 H -0.14785 0.36435 0.93073
 H307 H -0.08567 0.37278 0.84413
 H308 H -0.06046 0.40238 0.86880
 H309 H -0.12432 0.38835 0.95250
 H310 H -0.09670 0.41724 0.97560
 H311 H -0.05030 0.42554 0.90821
 C312 C 0.09792 0.68001 0.85461
 C313 C 0.10938 0.66313 0.87244
 C314 C 0.13450 0.66867 0.87902
 C315 C 0.14725 0.69029 0.86832
 C316 C 0.13548 0.70696 0.85097
 C317 C 0.11079 0.70143 0.84412
 C318 C 0.14680 0.65273 0.89638
 C319 C 0.13463 0.63171 0.90801
 C320 C 0.10944 0.62566 0.90272
 C321 C 0.09674 0.64131 0.88423
 C322 C 0.07178 0.63475 0.87833
 C323 C 0.05934 0.61432 0.89063
 C324 C 0.07113 0.59953 0.90932
 C325 C 0.09641 0.60471 0.91551
 C326 C 0.10735 0.58897 0.93468
 C327 C 0.09355 0.56962 0.94750
 C328 C 0.06846 0.56507 0.94166
 C329 C 0.05751 0.57986 0.92222
 H330 H 0.07892 0.67752 0.84852
 H331 H 0.16645 0.69406 0.87358
 H332 H 0.10107 0.71399 0.83094
 H333 H 0.16609 0.65670 0.90126
 H334 H 0.14562 0.62059 0.92119
 H335 H 0.06112 0.64512 0.86429
 H336 H 0.04009 0.61027 0.88566
 H337 H 0.12641 0.59128 0.94061
 H338 H 0.10258 0.55819 0.96218
 H339 H 0.03801 0.57674 0.91774
 C340 C 1.16255 0.10242 0.32212
 C341 C 1.14205 0.11316 0.33571
 C342 C 1.13362 0.13814 0.32794
 C343 C 1.14467 0.15108 0.30689
 C344 C 1.16450 0.13982 0.29299
 C345 C 1.17347 0.11549 0.30127
 C346 C 1.11397 0.15009 0.34103
 C347 C 1.10217 0.13772 0.36154
 C348 C 1.10935 0.11254 0.36971
 C349 C 1.12956 0.09997 0.35650
 C350 C 1.13619 0.07440 0.36409
 C351 C 1.12337 0.06134 0.38355
 C352 C 1.10361 0.07323 0.39650
 C353 C 1.09656 0.09918 0.39019
 C354 C 1.07673 0.11047 0.40448
 C355 C 1.06382 0.09611 0.42316
 C356 C 1.07022 0.07011 0.42850
 C357 C 1.09051 0.05900 0.41544
 H358 H 1.17071 0.08392 0.32702
 H359 H 1.13754 0.17004 0.30148
 H360 H 1.18886 0.10602 0.29155
 H361 H 1.10749 0.16925 0.33524
 H362 H 1.08702 0.14835 0.37022
 H363 H 1.15095 0.06352 0.35498
 H364 H 1.12888 0.04155 0.38834
 H365 H 1.07058 0.13032 0.40172
 H366 H 1.04861 0.10541 0.43343
 H367 H 1.09560 0.03886 0.41933
 C368 C 1.15334 -0.10953 0.67475
 C369 C 1.12969 -0.11673 0.66482
 C370 C 1.11700 -0.13810 0.67657
 C371 C 1.12760 -0.15140 0.69735
 C372 C 1.15088 -0.14372 0.70742
 C373 C 1.16362 -0.12273 0.69557
 C374 C 1.09358 -0.14604 0.66778
 C375 C 1.08206 -0.13286 0.64794
 C376 C 1.09359 -0.11109 0.63585
 C377 C 1.11807 -0.10328 0.64399
 C378 C 1.13003 -0.08224 0.63111
 C379 C 1.11834 -0.06881 0.61150
 C380 C 1.09423 -0.07557 0.60397
 C381 C 1.08145 -0.09682 0.61593
 C382 C 1.05687 -0.10256 0.60765
 C383 C 1.04565 -0.08784 0.58847
 C384 C 1.05838 -0.06688 0.57678
 C385 C 1.08277 -0.06098 0.58458
 H386 H 1.16435 -0.09352 0.66718
 H387 H 1.11720 -0.16753 0.70580
 H388 H 1.18166 -0.11607 0.70233
 H389 H 1.08387 -0.16253 0.67655
 H390 H 1.06402 -0.14043 0.64248
 H391 H 1.14861 -0.07559 0.63562
 H392 H 1.12826 -0.05270 0.60231
 H393 H 1.04554 -0.11799 0.61584
 H394 H 1.02663 -0.09257 0.58318
 H395 H 1.09292 -0.04499 0.57547
 C396 C 0.84458 -0.11840 0.32985
 C397 C 0.87076 -0.11851 0.33208
 C398 C 0.88448 -0.13093 0.31197
 C399 C 0.87225 -0.14381 0.29132
 C400 C 0.84620 -0.14358 0.28927
 C401 C 0.83263 -0.13047 0.30876
 C402 C 0.91039 -0.13016 0.31233
 C403 C 0.92309 -0.11660 0.33181
 C404 C 0.91031 -0.10392 0.35230
 C405 C 0.88379 -0.10618 0.35320
 C406 C 0.87127 -0.09652 0.37540
 C407 C 0.88413 -0.08431 0.39563
 C408 C 0.90980 -0.08034 0.39418
 C409 C 0.92320 -0.08956 0.37225
 C410 C 0.94889 -0.08344 0.37091
 C411 C 0.96079 -0.06948 0.39086
 C412 C 0.94772 -0.06140 0.41311
 C413 C 0.92212 -0.06701 0.41453
 H414 H 0.83280 -0.10843 0.34368
 H415 H 0.88337 -0.15314 0.27636
 H416 H 0.81257 -0.12967 0.30811
 H417 H 0.92102 -0.13980 0.29711
 H418 H 0.94309 -0.11712 0.33072
 H419 H 0.85149 -0.09885 0.37808
 H420 H 0.87376 -0.07746 0.41241
 H421 H 0.96018 -0.08835 0.35428
 H422 H 0.98031 -0.06460 0.38851
 H423 H 0.91164 -0.06109 0.43155
 C424 C 0.85722 0.09990 0.68788
 C425 C 0.87107 0.11219 0.66798
 C426 C 0.87038 0.14004 0.66674
 C427 C 0.85772 0.15482 0.68574
 C428 C 0.84465 0.14242 0.70591
 C429 C 0.84421 0.11473 0.70630
 C430 C 0.88234 0.15306 0.64653
 C431 C 0.89485 0.13907 0.62730
 C432 C 0.89655 0.11135 0.62795
 C433 C 0.88530 0.09781 0.64918
 C434 C 0.88929 0.07049 0.65138
 C435 C 0.90343 0.05677 0.63327
 C436 C 0.91356 0.06946 0.61185
 C437 C 0.90980 0.09678 0.60849
 C438 C 0.91936 0.10829 0.58566
 C439 C 0.93286 0.09348 0.56760
 C440 C 0.93753 0.06674 0.57161
 C441 C 0.92761 0.05489 0.59383
 H442 H 0.85565 0.07880 0.68950
 H443 H 0.85784 0.17609 0.68433
 H444 H 0.83423 0.10413 0.72118
 H445 H 0.88190 0.17437 0.64543
 H446 H 0.90376 0.15072 0.61259
 H447 H 0.88244 0.05922 0.66747
 H448 H 0.90633 0.03590 0.63601
 H449 H 0.91627 0.12856 0.58086
 H450 H 0.93948 0.10306 0.55026
 H451 H 0.93113 0.03430 0.59744
 C452 C 0.34098 1.16093 0.11798
 C453 C 0.35062 1.13595 0.12411
 C454 C 0.33922 1.12218 0.14478
 C455 C 0.31900 1.13294 0.15833
 C456 C 0.30930 1.15737 0.15160
 C457 C 0.32070 1.17135 0.13149
 C458 C 0.34780 1.09752 0.15173
 C459 C 0.36697 1.08564 0.13811
 C460 C 0.37852 1.09803 0.11683
 C461 C 0.37077 1.12397 0.11023
 C462 C 0.38334 1.13695 0.08991
 C463 C 0.40222 1.12480 0.07597
 C464 C 0.40920 1.09913 0.08139
 C465 C 0.39751 1.08532 0.10188
 C466 C 0.40496 1.05909 0.10611
 C467 C 0.42306 1.04723 0.09062
 C468 C 0.43455 1.06097 0.07042
 C469 C 0.42763 1.08706 0.06609
 H470 H 0.34828 1.17277 0.10252
 H471 H 0.31072 1.12200 0.17407
 H472 H 0.31368 1.19021 0.12568
 H473 H 0.33935 1.08708 0.16776
 H474 H 0.37238 1.06665 0.14495
 H475 H 0.37911 1.15671 0.08425
 H476 H 0.41122 1.13552 0.06045
 H477 H 0.39678 1.04682 0.12077
 H478 H 0.42755 1.02685 0.09407
 H479 H 0.43651 1.09800 0.05066
 C480 C 0.66203 1.16055 -0.13035
 C481 C 0.66184 1.13344 -0.12411
 C482 C 0.68321 1.11871 -0.13076
 C483 C 0.70336 1.13054 -0.14369
 C484 C 0.70309 1.15726 -0.15000
 C485 C 0.68232 1.17217 -0.14301
 C486 C 0.68448 1.09217 -0.12451
 C487 C 0.66512 1.07978 -0.11150
 C488 C 0.64336 1.09343 -0.10439
 C489 C 0.64141 1.12052 -0.11140
 C490 C 0.61898 1.13363 -0.10579
 C491 C 0.59929 1.12091 -0.09347
 C492 C 0.60119 1.09480 -0.08582
 C493 C 0.62334 1.08075 -0.09085
 C494 C 0.62459 1.05460 -0.08184
 C495 C 0.60454 1.04285 -0.06909
 C496 C 0.58243 1.05653 -0.06479
 C497 C 0.58098 1.08264 -0.07311
 H498 H 0.64694 1.17346 -0.12549
 H499 H 0.71948 1.11885 -0.14851
 H500 H 0.68156 1.19288 -0.14758
 H501 H 0.70073 1.08080 -0.12967
 H502 H 0.66767 1.05920 -0.10775
 H503 H 0.61581 1.15374 -0.11108
 H504 H 0.58241 1.13177 -0.08972
 H505 H 0.64092 1.04272 -0.08387
 H506 H 0.60657 1.02295 -0.06218
 H507 H 0.56399 1.09348 -0.06995
 C508 C 0.30059 0.86786 -0.09628
 C509 C 0.32094 0.88010 -0.10904
 C510 C 0.32203 0.87794 -0.13642
 C511 C 0.30265 0.86546 -0.15029
 C512 C 0.28247 0.85390 -0.13730
 C513 C 0.28182 0.85489 -0.11023
 C514 C 0.34249 0.88812 -0.14980
 C515 C 0.36222 0.89998 -0.13661
 C516 C 0.36189 0.90296 -0.10940
 C517 C 0.34036 0.89399 -0.09554
 C518 C 0.33865 0.89982 -0.06880
 C519 C 0.35760 0.91326 -0.05585
 C520 C 0.37934 0.92071 -0.06876
 C521 C 0.38206 0.91524 -0.09560
 C522 C 0.40506 0.92196 -0.10736
 C523 C 0.42416 0.93415 -0.09315
 C524 C 0.42105 0.94035 -0.06679
 C525 C 0.39841 0.93358 -0.05484
 H526 H 0.29890 0.86740 -0.07550
 H527 H 0.30353 0.86426 -0.17125
 H528 H 0.26649 0.84594 -0.09975
 H529 H 0.34341 0.88664 -0.17074
 H530 H 0.37721 0.90745 -0.14843
 H531 H 0.32243 0.89501 -0.05741
 H532 H 0.35532 0.91757 -0.03536
 H533 H 0.40918 0.91737 -0.12734
 H534 H 0.44162 0.93831 -0.10287
 H535 H 0.39542 0.93847 -0.03459
 C536 C 0.66065 0.87871 0.15888
 C537 C 0.65279 0.87244 0.13335
 C538 C 0.66524 0.85182 0.12004
 C539 C 0.68504 0.83875 0.13165
 C540 C 0.69314 0.84584 0.15659
 C541 C 0.68043 0.86565 0.17016
 C542 C 0.65818 0.84454 0.09499
 C543 C 0.63942 0.85769 0.08243
 C544 C 0.62688 0.87890 0.09444
 C545 C 0.63340 0.88614 0.12048
 C546 C 0.62061 0.90711 0.13262
 C547 C 0.60261 0.92101 0.11968
 C548 C 0.59651 0.91468 0.09415
 C549 C 0.60827 0.89338 0.08116
 C550 C 0.60114 0.88783 0.05524
 C551 C 0.58358 0.90313 0.04280
 C552 C 0.57248 0.92445 0.05564
 C553 C 0.57884 0.92987 0.08144
 H554 H 0.65217 0.89378 0.17068
 H555 H 0.69449 0.82345 0.12078
 H556 H 0.68581 0.87139 0.18960
 H557 H 0.66749 0.82863 0.08480
 H558 H 0.63537 0.85076 0.06310
 H559 H 0.62419 0.91356 0.15220
 H560 H 0.59354 0.93715 0.12975
 H561 H 0.60895 0.87208 0.04378
 H562 H 0.57915 0.89864 0.02278
 H563 H 0.57004 0.94608 0.09168
   
