data_POSCAR
  _audit_creation_date              2014-09-24
  _audit_creation_method            'ToBaCCo'
  _symmetry_space_group_name_H-M    'P1'
  _symmetry_Int_Tables_number       1
  _symmetry_cell_setting            triclinic
  loop_
  _symmetry_equiv_pos_as_xyz
 x,y,z
_cell_length_a 17.9613
_cell_length_b 17.9613
_cell_length_c 17.9613
_cell_angle_alpha 91.707500
_cell_angle_beta 88.292600
_cell_angle_gamma 91.707400
loop_
  _atom_site_label
  _atom_site_type_symbol
  _atom_site_fract_x
  _atom_site_fract_y
  _atom_site_fract_z
N1 N 0.21877 0.18453 0.23115
 N2 N 0.81547 -0.23115 0.21877
 N3 N 0.69197 0.30803 0.69197
 N4 N 0.23115 -0.21877 0.81547
 N5 N 0.78123 -0.18453 0.76885
 N6 N 0.18453 0.23115 0.78123
 N7 N 0.30803 -0.30803 0.30803
 N8 N 0.76885 0.21876 0.18453
 O9 O 0.17873 0.03140 0.43798
 O10 O 0.18484 -0.09009 0.59835
 O11 O 0.16266 0.04949 0.58244
 O12 O 0.19965 -0.11036 0.45481
 O13 O 0.32083 -0.08723 0.46242
 O14 O 0.28389 0.07280 0.58963
 O15 O 0.30604 -0.06700 0.60644
 O16 O 0.29993 0.05484 0.44469
 Cu17 Cu 0.16930 -0.03211 0.51712
 Cu18 Cu 0.31496 -0.00408 0.52600
 C19 C 0.23813 0.06359 0.41412
 C20 C 0.24602 -0.09832 0.63018
 C21 C 0.21718 0.08694 0.60901
 C22 C 0.26644 -0.12629 0.43773
 O23 O 0.80035 0.11036 0.54519
 O24 O 0.83734 -0.04949 0.41756
 O25 O 0.81516 0.09009 0.40165
 O26 O 0.82127 -0.03140 0.56202
 O27 O 0.70007 -0.05484 0.55531
 O28 O 0.69396 0.06700 0.39356
 O29 O 0.71611 -0.07281 0.41037
 O30 O 0.67917 0.08723 0.53758
 Cu31 Cu 0.83070 0.03211 0.48288
 Cu32 Cu 0.68504 0.00408 0.47400
 C33 C 0.73356 0.12629 0.56227
 C34 C 0.78282 -0.08694 0.39099
 C35 C 0.75398 0.09832 0.36982
 C36 C 0.76187 -0.06359 0.58588
 O37 O 0.41756 0.16266 0.04949
 O38 O 0.54519 0.19965 -0.11036
 O39 O 0.56202 0.17873 0.03140
 O40 O 0.40165 0.18484 -0.09009
 O41 O 0.39356 0.30604 -0.06700
 O42 O 0.55531 0.29993 0.05484
 O43 O 0.53758 0.32083 -0.08723
 O44 O 0.41037 0.28389 0.07281
 Cu45 Cu 0.48288 0.16930 -0.03211
 Cu46 Cu 0.47400 0.31496 -0.00408
 C47 C 0.39099 0.21718 0.08694
 C48 C 0.56227 0.26644 -0.12629
 C49 C 0.58588 0.23813 0.06359
 C50 C 0.36982 0.24602 -0.09832
 O51 O 0.59835 0.81516 0.09009
 O52 O 0.43798 0.82127 -0.03140
 O53 O 0.45481 0.80035 0.11036
 O54 O 0.58244 0.83734 -0.04949
 O55 O 0.58963 0.71611 -0.07281
 O56 O 0.46242 0.67917 0.08723
 O57 O 0.44469 0.70007 -0.05484
 O58 O 0.60644 0.69396 0.06700
 Cu59 Cu 0.51712 0.83070 0.03211
 Cu60 Cu 0.52599 0.68504 0.00408
 C61 C 0.63018 0.75398 0.09832
 C62 C 0.41412 0.76187 -0.06359
 C63 C 0.43773 0.73356 0.12629
 C64 C 0.60901 0.78282 -0.08694
 O65 O 0.09009 0.40165 0.18484
 O66 O -0.03140 0.56202 0.17873
 O67 O 0.11036 0.54519 0.19965
 O68 O -0.04949 0.41755 0.16266
 O69 O -0.07281 0.41037 0.28389
 O70 O 0.08723 0.53758 0.32083
 O71 O -0.05484 0.55531 0.29993
 O72 O 0.06700 0.39356 0.30604
 Cu73 Cu 0.03211 0.48288 0.16930
 Cu74 Cu 0.00408 0.47400 0.31496
 C75 C 0.09832 0.36982 0.24602
 C76 C -0.06359 0.58588 0.23813
 C77 C 0.12629 0.56227 0.26644
 C78 C -0.08694 0.39099 0.21718
 O79 O 0.04949 0.58244 0.83734
 O80 O -0.11036 0.45481 0.80035
 O81 O 0.03140 0.43798 0.82127
 O82 O -0.09009 0.59835 0.81516
 O83 O -0.06700 0.60644 0.69396
 O84 O 0.05484 0.44469 0.70007
 O85 O -0.08723 0.46242 0.67917
 O86 O 0.07280 0.58963 0.71611
 Cu87 Cu -0.03211 0.51712 0.83070
 Cu88 Cu -0.00408 0.52600 0.68504
 C89 C 0.08694 0.60901 0.78282
 C90 C -0.12629 0.43773 0.73356
 C91 C 0.06359 0.41412 0.76187
 C92 C -0.09832 0.63018 0.75398
 C93 C 0.28173 0.19405 0.18552
 C94 C 0.33388 0.20368 0.14273
 C95 C 0.75128 0.75909 0.17812
 C96 C 0.69557 0.75414 0.14222
 C97 C 0.64834 0.29326 -0.24484
 C98 C 0.60959 0.28083 -0.19033
 C99 C 0.29535 0.77136 -0.14543
 C100 C 0.35028 0.76522 -0.10933
 C101 C 0.17812 0.24872 0.24091
 C102 C 0.14222 0.30443 0.24586
 C103 C 0.18552 0.71827 0.80595
 C104 C 0.14273 0.66612 0.79631
 C105 C -0.14543 0.70464 0.22864
 C106 C -0.10933 0.64972 0.23478
 C107 C -0.24484 0.35166 0.70674
 C108 C -0.19033 0.39041 0.71917
 C109 C 0.22864 0.14543 0.29535
 C110 C 0.23478 0.10933 0.35028
 C111 C 0.70674 0.24484 0.64834
 C112 C 0.71917 0.19033 0.60959
 C113 C 0.24091 -0.17812 0.75128
 C114 C 0.24586 -0.14222 0.69557
 C115 C 0.80595 -0.18552 0.28173
 C116 C 0.79631 -0.14273 0.33388
 C117 C 0.71827 0.80595 -0.18552
 C118 C 0.66612 0.79632 -0.14273
 C119 C 0.24872 0.24091 -0.17812
 C120 C 0.30443 0.24586 -0.14222
 C121 C 0.35166 0.70674 0.24484
 C122 C 0.39041 0.71917 0.19033
 C123 C 0.70465 0.22864 0.14543
 C124 C 0.64972 0.23478 0.10933
 C125 C -0.17812 0.75128 0.75909
 C126 C -0.14222 0.69557 0.75414
 C127 C -0.18552 0.28173 0.19405
 C128 C -0.14273 0.33388 0.20368
 C129 C 0.14543 0.29535 0.77136
 C130 C 0.10933 0.35028 0.76522
 C131 C 0.24484 0.64833 0.29326
 C132 C 0.19033 0.60959 0.28083
 C133 C 0.77136 -0.14543 0.70465
 C134 C 0.76522 -0.10933 0.64972
 C135 C 0.29326 -0.24484 0.35166
 C136 C 0.28083 -0.19033 0.39041
 C137 C 0.75909 0.17812 0.24872
 C138 C 0.75414 0.14222 0.30443
 C139 C 0.19405 0.18552 0.71827
 C140 C 0.20368 0.14273 0.66612
   
