data_POSCAR
  _audit_creation_date              2014-09-24
  _audit_creation_method            'ToBaCCo'
  _symmetry_space_group_name_H-M    'P1'
  _symmetry_Int_Tables_number       1
  _symmetry_cell_setting            triclinic
  loop_
  _symmetry_equiv_pos_as_xyz
 x,y,z
_cell_length_a 18.8126
_cell_length_b 18.2470
_cell_length_c 21.6025
_cell_angle_alpha 91.032500
_cell_angle_beta 86.505300
_cell_angle_gamma 87.242000
loop_
  _atom_site_label
  _atom_site_type_symbol
  _atom_site_fract_x
  _atom_site_fract_y
  _atom_site_fract_z
O1 O -0.08926 0.59336 0.96513
 O2 O -0.08136 0.43597 1.06070
 O3 O -0.04788 0.57333 1.07693
 O4 O -0.07505 0.45001 0.94153
 O5 O 0.04160 0.44366 0.92138
 O6 O 0.06775 0.55704 1.05500
 O7 O 0.03447 0.41793 1.04051
 O8 O 0.02664 0.58538 0.94210
 Cu9 Cu -0.08352 0.51436 1.01265
 Cu10 Cu 0.05301 0.50048 0.98848
 C11 C -0.03484 0.61727 0.93692
 C12 C -0.02471 0.39721 1.06543
 C13 C 0.01637 0.58646 1.08821
 C14 C -0.01975 0.42536 0.90880
 O15 O 0.43724 -0.07432 0.43765
 O16 O 0.55864 -0.07224 0.55671
 O17 O 0.42013 -0.04254 0.55781
 O18 O 0.57434 -0.04444 0.43808
 O19 O 0.55955 0.07600 0.43755
 O20 O 0.42195 0.07798 0.55737
 O21 O 0.56145 0.04821 0.55666
 O22 O 0.42328 0.04613 0.43756
 Cu23 Cu 0.49777 -0.06827 0.49723
 Cu24 Cu 0.49096 0.07198 0.49741
 C25 C 0.40707 -0.01726 0.41766
 C26 C 0.58391 -0.01424 0.57639
 C27 C 0.39526 0.02074 0.57802
 C28 C 0.59341 0.01807 0.41838
 C29 C -0.08179 0.01130 0.27952
 C30 C -0.01509 0.02202 0.24991
 C31 C -0.00435 0.08428 0.21442
 C32 C -0.06045 0.13638 0.20746
 C33 C -0.12758 0.12486 0.23806
 C34 C -0.13900 0.06195 0.27380
 C35 C 0.04188 -0.03535 0.25238
 C36 C 0.02897 -0.10657 0.23297
 C37 C 0.08178 -0.16296 0.23430
 C38 C 0.14900 -0.14616 0.25484
 C39 C 0.16269 -0.07440 0.27574
 C40 C 0.10809 -0.01930 0.27390
 H41 H -0.08813 -0.03638 0.30785
 H42 H 0.04705 0.09000 0.19007
 H43 H -0.02213 -0.11704 0.21492
 H44 H 0.11546 0.03579 0.29083
 H45 H -0.17137 0.16446 0.23378
 H46 H 0.19045 -0.18930 0.25473
 C47 C -0.03382 -0.08074 0.76919
 C48 C -0.04727 -0.01726 0.73581
 C49 C -0.11272 -0.00536 0.70932
 C50 C -0.16651 -0.05542 0.71737
 C51 C -0.15290 -0.11836 0.75292
 C52 C -0.08637 -0.13164 0.77849
 C53 C 0.00458 0.04025 0.73440
 C54 C 0.07602 0.02369 0.71558
 C55 C 0.12702 0.07694 0.71985
 C56 C 0.10456 0.14719 0.74476
 C57 C 0.03218 0.16483 0.76235
 C58 C -0.01724 0.11074 0.75614
 H59 H 0.01613 -0.08793 0.79128
 H60 H -0.12062 0.04290 0.68202
 H61 H 0.09074 -0.03055 0.69658
 H62 H -0.07304 0.12272 0.76976
 H63 H -0.19402 -0.15704 0.76123
 H64 H 0.14363 0.18770 0.75140
 C65 C 0.10401 -0.34271 0.14435
 C66 C 0.03331 -0.36184 0.13823
 C67 C -0.01967 -0.32533 0.17788
 C68 C -0.00289 -0.26433 0.21455
 C69 C 0.06698 -0.23798 0.21145
 C70 C 0.12041 -0.28267 0.18007
 C71 C 0.17975 -0.26317 0.13528
 C72 C 0.16189 -0.32886 0.09603
 H73 H -0.07468 -0.34010 0.17716
 H74 H -0.04578 -0.23486 0.24163
 H75 H 0.23265 -0.26992 0.15532
 H76 H 0.16912 -0.20970 0.11284
 H77 H 0.20457 -0.37331 0.09343
 H78 H 0.14102 -0.31335 0.05075
 C79 C 0.02814 0.28807 0.11455
 C80 C -0.03049 0.32996 0.09540
 C81 C -0.09827 0.29995 0.10476
 C82 C -0.10734 0.23554 0.13806
 C83 C -0.04957 0.20001 0.16574
 C84 C 0.01857 0.22545 0.14972
 C85 C 0.07766 0.24275 0.18984
 C86 C 0.08808 0.31096 0.15154
 H87 H -0.14524 0.32659 0.08684
 H88 H -0.16041 0.21534 0.14305
 H89 H 0.12337 0.20182 0.18370
 H90 H 0.05852 0.25517 0.23879
 H91 H 0.13964 0.30905 0.12340
 H92 H 0.07512 0.36304 0.17828
 C93 C 0.30852 0.10292 0.64094
 C94 C 0.33432 0.03131 0.62460
 C95 C 0.29830 -0.02662 0.65251
 C96 C 0.23328 -0.01218 0.68832
 C97 C 0.20251 0.06043 0.69599
 C98 C 0.24488 0.11705 0.67546
 C99 C 0.22659 0.18368 0.63932
 C100 C 0.29645 0.16829 0.60144
 H101 H 0.31782 -0.08288 0.64384
 H102 H 0.20580 -0.05840 0.70692
 H103 H 0.22604 0.23498 0.66793
 H104 H 0.17884 0.17732 0.61215
 H105 H 0.33595 0.21061 0.60841
 H106 H 0.28913 0.15314 0.55221
 C107 C -0.32459 0.03602 0.64020
 C108 C -0.36135 -0.02203 0.61746
 C109 C -0.33578 -0.09309 0.63446
 C110 C -0.27416 -0.10344 0.66811
 C111 C -0.23538 -0.04333 0.68721
 C112 C -0.26455 0.02618 0.67250
 C113 C -0.25222 0.10661 0.67307
 C114 C -0.31955 0.11676 0.63649
 H115 H -0.36124 -0.14180 0.61951
 H116 H -0.25546 -0.15924 0.67607
 H117 H -0.20345 0.12075 0.64513
 H118 H -0.25820 0.13126 0.72064
 H119 H -0.30836 0.13468 0.58810
 H120 H -0.36463 0.14706 0.66289
 C121 C 0.00607 -0.29098 0.85740
 C122 C -0.04587 -0.31748 0.89850
 C123 C -0.11357 -0.27914 0.90031
 C124 C -0.12694 -0.21918 0.86128
 C125 C -0.07317 -0.19522 0.81884
 C126 C -0.00677 -0.23313 0.81981
 C127 C 0.06561 -0.24122 0.78750
 C128 C 0.07974 -0.30667 0.82996
 H129 H -0.15683 -0.29556 0.93159
 H130 H -0.17922 -0.19140 0.86499
 H131 H 0.09883 -0.19397 0.79675
 H132 H 0.06353 -0.25748 0.73783
 H133 H 0.12068 -0.29695 0.86378
 H134 H 0.08549 -0.36041 0.80465
 C135 C -0.06736 0.31123 0.86595
 C136 C -0.02453 0.37121 0.85820
 C137 C 0.02712 0.36817 0.80785
 C138 C 0.04261 0.30255 0.77324
 C139 C 0.00738 0.23830 0.78892
 C140 C -0.05158 0.24630 0.83219
 C141 C -0.07145 0.20037 0.88655
 C142 C -0.08835 0.27131 0.92348
 H143 H 0.06028 0.41425 0.79909
 H144 H 0.08546 0.30108 0.73740
 H145 H -0.02519 0.16754 0.90296
 H146 H -0.11947 0.16890 0.87916
 H147 H -0.05175 0.27960 0.96124
 H148 H -0.14598 0.28055 0.93742
 C149 C -0.29819 -0.03034 0.35148
 C150 C -0.34285 0.02716 0.37611
 C151 C -0.32026 0.09869 0.36277
 C152 C -0.25513 0.10986 0.32889
 C153 C -0.20970 0.04999 0.30625
 C154 C -0.23502 -0.01977 0.31881
 C155 C -0.21737 -0.10047 0.31256
 C156 C -0.28842 -0.11155 0.34968
 H157 H -0.35156 0.14680 0.38034
 H158 H -0.23959 0.16572 0.32295
 H159 H -0.17050 -0.11856 0.33830
 H160 H -0.21644 -0.12053 0.26361
 H161 H -0.28167 -0.13425 0.39648
 H162 H -0.32865 -0.13785 0.32219
 C163 C 0.33238 -0.10010 0.36005
 C164 C 0.35207 -0.02843 0.37256
 C165 C 0.31651 0.02868 0.34195
 C166 C 0.25763 0.01387 0.30644
 C167 C 0.23234 -0.05819 0.30183
 C168 C 0.27461 -0.11454 0.32600
 C169 C 0.25429 -0.17708 0.36607
 C170 C 0.31778 -0.16133 0.40335
 H171 H 0.33174 0.08474 0.34775
 H172 H 0.23050 0.05958 0.28517
 H173 H 0.26060 -0.23077 0.34069
 H174 H 0.20213 -0.16639 0.39254
 H175 H 0.36049 -0.20573 0.39911
 H176 H 0.30247 -0.14162 0.45157
   
