data_POSCAR
  _audit_creation_date              2014-09-24
  _audit_creation_method            'ToBaCCo'
  _symmetry_space_group_name_H-M    'P1'
  _symmetry_Int_Tables_number       1
  _symmetry_cell_setting            triclinic
  loop_
  _symmetry_equiv_pos_as_xyz
 x,y,z
_cell_length_a 62.6020
_cell_length_b 62.6196
_cell_length_c 62.6563
_cell_angle_alpha 90.008900
_cell_angle_beta 90.011800
_cell_angle_gamma 90.008100
loop_
  _atom_site_label
  _atom_site_type_symbol
  _atom_site_fract_x
  _atom_site_fract_y
  _atom_site_fract_z
C1 C 0.19142 0.21163 0.22228
 C2 C 0.19484 0.22546 0.20504
 C3 C 0.21208 0.22205 0.19120
 C4 C 0.22592 0.20480 0.19462
 C5 C 0.22252 0.19096 0.21186
 C6 C 0.20526 0.19438 0.22568
 H7 H 0.18413 0.23881 0.20240
 H8 H 0.23927 0.20215 0.18391
 H9 H 0.20262 0.18367 0.23903
 C10 C 0.69138 0.71246 0.72241
 C11 C 0.70518 0.69517 0.72574
 C12 C 0.72241 0.69175 0.71188
 C13 C 0.72583 0.70564 0.69469
 C14 C 0.71203 0.72294 0.69134
 C15 C 0.69481 0.72634 0.70521
 H16 H 0.70253 0.68442 0.73905
 H17 H 0.73916 0.70300 0.68396
 H18 H 0.68412 0.73972 0.70263
 C19 C 0.30805 0.78834 0.72269
 C20 C 0.30465 0.77448 0.70547
 C21 C 0.28741 0.77783 0.69162
 C22 C 0.27355 0.79507 0.69499
 C23 C 0.27692 0.80897 0.71222
 C24 C 0.29419 0.80558 0.72606
 H25 H 0.31538 0.76113 0.70285
 H26 H 0.26020 0.79763 0.68423
 H27 H 0.29687 0.81629 0.73941
 C28 C 0.80909 0.28770 0.22269
 C29 C 0.79520 0.30494 0.22607
 C30 C 0.77795 0.30832 0.21223
 C31 C 0.77457 0.29447 0.19500
 C32 C 0.78842 0.27724 0.19159
 C33 C 0.80568 0.27385 0.20543
 H34 H 0.79778 0.31570 0.23940
 H35 H 0.76122 0.29709 0.18428
 H36 H 0.81639 0.26050 0.20275
 C37 C 0.80875 0.71236 0.27769
 C38 C 0.80534 0.72624 0.29489
 C39 C 0.78811 0.72286 0.30876
 C40 C 0.77429 0.70559 0.30540
 C41 C 0.77768 0.69169 0.28820
 C42 C 0.79492 0.69509 0.27435
 H43 H 0.81604 0.73962 0.29748
 H44 H 0.76095 0.70296 0.31613
 H45 H 0.79755 0.68434 0.26104
 C46 C 0.30922 0.21185 -0.22287
 C47 C 0.30579 0.22570 -0.20562
 C48 C 0.28851 0.22232 -0.19182
 C49 C 0.27466 0.20508 -0.19525
 C50 C 0.27806 0.19122 -0.21247
 C51 C 0.29534 0.19460 -0.22628
 H52 H 0.31649 0.23906 -0.20292
 H53 H 0.26129 0.20246 -0.18456
 H54 H 0.29794 0.18384 -0.23960
 C55 C 0.69086 0.28757 -0.22273
 C56 C 0.70473 0.30481 -0.22614
 C57 C 0.72200 0.30823 -0.21233
 C58 C 0.72540 0.29441 -0.19508
 C59 C 0.71156 0.27717 -0.19164
 C60 C 0.69429 0.27375 -0.20545
 H61 H 0.70214 0.31555 -0.23949
 H62 H 0.73876 0.29705 -0.18438
 H63 H 0.68359 0.26039 -0.20275
 C64 C 0.19173 0.78817 0.27757
 C65 C 0.19507 0.77434 0.29482
 C66 C 0.21229 0.77770 0.30871
 C67 C 0.22618 0.79492 0.30534
 C68 C 0.22287 0.80879 0.28808
 C69 C 0.20562 0.80539 0.27420
 H70 H 0.18431 0.76102 0.29743
 H71 H 0.23950 0.79749 0.31613
 H72 H 0.20299 0.81608 0.26083
 C73 C 0.46197 0.44122 0.47283
 C74 C 0.44473 0.45508 0.47621
 C75 C 0.44131 0.47231 0.46236
 C76 C 0.45515 0.47567 0.44511
 C77 C 0.47239 0.46182 0.44171
 C78 C 0.47579 0.44460 0.45558
 H79 H 0.43402 0.45247 0.48956
 H80 H 0.45251 0.48900 0.43438
 H81 H 0.48914 0.43387 0.45295
 C82 C -0.03824 -0.05798 0.97234
 C83 C -0.02441 -0.05460 0.95509
 C84 C -0.02780 -0.03739 0.94122
 C85 C -0.04505 -0.02354 0.94459
 C86 C -0.05892 -0.02689 0.96185
 C87 C -0.05549 -0.04413 0.97571
 H88 H -0.01106 -0.06532 0.95247
 H89 H -0.04765 -0.01023 0.93382
 H90 H -0.06618 -0.04679 0.98908
 C91 C 1.03788 0.55866 0.97231
 C92 C 1.05512 0.54481 0.97571
 C93 C 1.05850 0.52753 0.96190
 C94 C 1.04462 0.52412 0.94469
 C95 C 1.02738 0.53796 0.94127
 C96 C 1.02401 0.55523 0.95509
 H97 H 1.06585 0.54746 0.98903
 H98 H 1.04724 0.51075 0.93399
 H99 H 1.01067 0.56596 0.95245
 C100 C 0.53826 0.05827 0.47272
 C101 C 0.55555 0.04447 0.47608
 C102 C 0.55900 0.02722 0.46223
 C103 C 0.54511 0.02381 0.44501
 C104 C 0.52781 0.03760 0.44164
 C105 C 0.52440 0.05483 0.45550
 H106 H 0.56626 0.04718 0.48943
 H107 H 0.54771 0.01048 0.43425
 H108 H 0.51102 0.06551 0.45289
 C109 C -0.03838 0.05875 0.52742
 C110 C -0.05564 0.04492 0.52402
 C111 C -0.05906 0.02763 0.53783
 C112 C -0.04516 0.02421 0.55505
 C113 C -0.02789 0.03803 0.55844
 C114 C -0.02451 0.05529 0.54463
 H115 H -0.06636 0.04763 0.51068
 H116 H -0.04774 0.01085 0.56577
 H117 H -0.01114 0.06600 0.54726
 C118 C 0.46223 0.55877 0.02760
 C119 C 0.47608 0.55536 0.04484
 C120 C 0.47271 0.53810 0.05865
 C121 C 0.45548 0.52423 0.05521
 C122 C 0.44162 0.52762 0.03798
 C123 C 0.44501 0.54490 0.02418
 H124 H 0.48941 0.56610 0.04749
 H125 H 0.45286 0.51086 0.06590
 H126 H 0.43428 0.54753 0.01084
 C127 C 0.53797 -0.05913 0.02738
 C128 C 0.52417 -0.05578 0.04468
 C129 C 0.52760 -0.03859 0.05858
 C130 C 0.54484 -0.02474 0.05519
 C131 C 0.55866 -0.02806 0.03792
 C132 C 0.55522 -0.04525 0.02402
 H133 H 0.51080 -0.06648 0.04734
 H134 H 0.54751 -0.01143 0.06595
 H135 H 0.56595 -0.04778 0.01065
 C136 C 1.03817 0.44183 0.52718
 C137 C 1.05541 0.45569 0.52381
 C138 C 1.05884 0.47293 0.53768
 C139 C 1.04498 0.47627 0.55494
 C140 C 1.02774 0.46241 0.55832
 C141 C 1.02434 0.44520 0.54444
 H142 H 1.06609 0.45304 0.51043
 H143 H 1.04758 0.48958 0.56573
 H144 H 1.01100 0.43447 0.54705
 C145 C 0.40771 0.00927 0.22145
 H146 H 0.40856 0.02377 0.23080
 C147 C 0.42165 0.00625 0.20431
 H148 H 0.43324 0.01848 0.20037
 C149 C 0.39179 -0.02455 0.21530
 H150 H 0.38038 -0.03667 0.21981
 C151 C 0.40543 -0.02821 0.19804
 H152 H 0.40434 -0.04304 0.18920
 N153 N 0.39300 -0.00593 0.22645
 C154 C 0.34240 0.02810 0.26018
 H155 H 0.34154 0.01875 0.27467
 C156 C 0.32848 0.04526 0.25714
 H157 H 0.31689 0.04922 0.26936
 C158 C 0.35832 0.03420 0.22637
 H159 H 0.36972 0.02966 0.21427
 C160 C 0.34469 0.05148 0.22270
 H161 H 0.34578 0.06030 0.20787
 Zn162 Zn 0.37504 -0.00072 0.25021
 N163 N 0.35711 0.02307 0.24499
 C164 C 0.39178 0.02312 0.28512
 N165 N 0.39298 0.00448 0.27398
 C166 C 0.40769 -0.01072 0.27900
 C167 C 0.42162 -0.00769 0.29615
 C168 C 0.40543 0.02678 0.30238
 C169 C 0.34238 -0.02951 0.24019
 C170 C 0.32844 -0.04666 0.24321
 C171 C 0.34462 -0.05291 0.27767
 C172 C 0.35828 -0.03564 0.27402
 N173 N 0.35709 -0.02450 0.25540
 H174 H 0.38039 0.03523 0.28059
 H175 H 0.40853 -0.02522 0.26965
 H176 H 0.43321 -0.01992 0.30010
 H177 H 0.40435 0.04162 0.31122
 H178 H 0.34155 -0.02016 0.22570
 H179 H 0.31685 -0.05061 0.23098
 H180 H 0.34570 -0.06174 0.29250
 H181 H 0.36967 -0.03111 0.28613
 C182 C 0.32968 0.05707 0.23825
 C183 C 0.42045 -0.01264 0.19247
 C184 C 0.32962 -0.05849 0.26210
 C185 C 0.42044 0.01121 0.30796
 C186 C 0.09240 -0.01025 0.72095
 H187 H 0.09153 -0.02473 0.73033
 C188 C 0.07846 -0.00724 0.70381
 H189 H 0.06684 -0.01945 0.69989
 C190 C 0.10838 0.02353 0.71474
 H191 H 0.11981 0.03564 0.71924
 C192 C 0.09473 0.02719 0.69748
 H193 H 0.09584 0.04200 0.68862
 N194 N 0.10714 0.00493 0.72592
 C195 C 0.15767 -0.02906 0.75980
 H196 H 0.15853 -0.01967 0.77427
 C197 C 0.17158 -0.04624 0.75683
 H198 H 0.18316 -0.05018 0.76906
 C199 C 0.14175 -0.03528 0.72601
 H200 H 0.13036 -0.03076 0.71388
 C201 C 0.15537 -0.05257 0.72240
 H202 H 0.15427 -0.06146 0.70760
 Zn203 Zn 0.12508 -0.00024 0.74971
 N204 N 0.14297 -0.02407 0.74459
 C205 C 0.10827 -0.02391 0.78470
 N206 N 0.10711 -0.00532 0.77349
 C207 C 0.09243 0.00993 0.77843
 C208 C 0.07848 0.00700 0.79558
 C209 C 0.09461 -0.02748 0.80196
 C210 C 0.15780 0.02846 0.73964
 C211 C 0.17176 0.04560 0.74262
 C212 C 0.15556 0.05199 0.77704
 C213 C 0.14189 0.03474 0.77343
 N214 N 0.14307 0.02353 0.75484
 H215 H 0.11965 -0.03606 0.78022
 H216 H 0.09162 0.02440 0.76903
 H217 H 0.06692 0.01927 0.79947
 H218 H 0.09565 -0.04228 0.81085
 H219 H 0.15863 0.01906 0.72518
 H220 H 0.18336 0.04949 0.73039
 H221 H 0.15449 0.06089 0.79183
 H222 H 0.13047 0.03027 0.78554
 C223 C 0.17037 -0.05813 0.73798
 C224 C 0.07968 0.01164 0.69195
 C225 C 0.17059 0.05750 0.76147
 C226 C 0.07963 -0.01186 0.80747
 C227 C 0.59256 0.48986 0.22149
 H228 H 0.59169 0.47537 0.23084
 C229 C 0.57865 0.49289 0.20433
 H230 H 0.56706 0.48067 0.20036
 C231 C 0.60850 0.52369 0.21538
 H232 H 0.61990 0.53580 0.21992
 C233 C 0.59487 0.52735 0.19810
 H234 H 0.59598 0.54218 0.18926
 N235 N 0.60727 0.50506 0.22652
 C236 C 0.65782 0.47105 0.26035
 H237 H 0.65865 0.48041 0.27484
 C238 C 0.67176 0.45390 0.25734
 H239 H 0.68333 0.44995 0.26957
 C240 C 0.64194 0.46492 0.22652
 H241 H 0.63055 0.46945 0.21440
 C242 C 0.65559 0.44765 0.22287
 H243 H 0.65451 0.43882 0.20804
 Zn244 Zn 0.62519 0.49986 0.25031
 N245 N 0.64313 0.47607 0.24514
 C246 C 0.60840 0.47605 0.28521
 N247 N 0.60721 0.49467 0.27406
 C248 C 0.59251 0.50988 0.27906
 C249 C 0.57856 0.50687 0.29618
 C250 C 0.59473 0.47239 0.30245
 C251 C 0.65787 0.52863 0.24035
 C252 C 0.67180 0.54579 0.24337
 C253 C 0.65555 0.55209 0.27778
 C254 C 0.64191 0.53482 0.27413
 N255 N 0.64314 0.52364 0.25552
 H256 H 0.61979 0.46393 0.28069
 H257 H 0.59168 0.52438 0.26970
 H258 H 0.56697 0.51910 0.30012
 H259 H 0.59580 0.45756 0.31128
 H260 H 0.65873 0.51925 0.22587
 H261 H 0.68340 0.54972 0.23116
 H262 H 0.65444 0.56096 0.29259
 H263 H 0.63049 0.53031 0.28622
 C264 C 0.67058 0.44208 0.23844
 C265 C 0.57987 0.51178 0.19250
 C266 C 0.67058 0.55765 0.26223
 C267 C 0.57973 0.48797 0.30800
 C268 C 0.90745 0.50992 0.72100
 H269 H 0.90827 0.52439 0.73039
 C270 C 0.92142 0.50695 0.70388
 H271 H 0.93300 0.51919 0.69999
 C272 C 0.89156 0.47609 0.71475
 H273 H 0.88016 0.46396 0.71922
 C274 C 0.90524 0.47248 0.69750
 H275 H 0.90418 0.45767 0.68863
 N276 N 0.89274 0.49469 0.72594
 C277 C 0.84207 0.52859 0.75969
 H278 H 0.84120 0.51921 0.77416
 C279 C 0.82815 0.54576 0.75669
 H280 H 0.81655 0.54969 0.76890
 C281 C 0.85804 0.53480 0.72592
 H282 H 0.86946 0.53030 0.71382
 C283 C 0.84441 0.55209 0.72228
 H284 H 0.84552 0.56097 0.70749
 Zn285 Zn 0.87475 0.49983 0.74969
 N286 N 0.85680 0.52361 0.74451
 C287 C 0.89143 0.52361 0.78468
 N288 N 0.89266 0.50500 0.77350
 C289 C 0.90738 0.48981 0.77850
 C290 C 0.92129 0.49281 0.79566
 C291 C 0.90505 0.52726 0.80196
 C292 C 0.84213 0.47102 0.73959
 C293 C 0.82820 0.45385 0.74257
 C294 C 0.84435 0.44757 0.77704
 C295 C 0.85800 0.46485 0.77342
 N296 N 0.85681 0.47602 0.75482
 H297 H 0.88002 0.53572 0.78016
 H298 H 0.90825 0.47533 0.76912
 H299 H 0.93289 0.48059 0.79960
 H300 H 0.90395 0.54207 0.81082
 H301 H 0.84130 0.48039 0.72511
 H302 H 0.81662 0.44991 0.73033
 H303 H 0.84542 0.43872 0.79186
 H304 H 0.86938 0.46938 0.78555
 C305 C 0.82938 0.55764 0.73784
 C306 C 0.92026 0.48808 0.69200
 C307 C 0.82937 0.44200 0.76145
 C308 C 0.92007 0.51169 0.80752
 C309 C 0.22129 0.40740 0.00982
 H310 H 0.23066 0.40824 0.02431
 C311 C 0.20413 0.42133 0.00683
 H312 H 0.20019 0.43291 0.01906
 C313 C 0.21513 0.39152 -0.02400
 H314 H 0.21966 0.38013 -0.03612
 C315 C 0.19786 0.40516 -0.02764
 H316 H 0.18900 0.40409 -0.04246
 N317 N 0.22630 0.39271 -0.00539
 C318 C 0.26015 0.34212 0.02852
 H319 H 0.27465 0.34130 0.01916
 C320 C 0.25715 0.32818 0.04566
 H321 H 0.26939 0.31660 0.04959
 C322 C 0.22631 0.35800 0.03469
 H323 H 0.21418 0.36939 0.03018
 C324 C 0.22267 0.34435 0.05194
 H325 H 0.20784 0.34542 0.06079
 Zn326 Zn 0.25010 0.37478 -0.00022
 N327 N 0.24493 0.35682 0.02354
 C328 C 0.28506 0.39153 0.02359
 N329 N 0.27388 0.39274 0.00498
 C330 C 0.27886 0.40747 -0.01020
 C331 C 0.29601 0.42141 -0.00718
 C332 C 0.30233 0.40519 0.02724
 C333 C 0.24011 0.34216 -0.02904
 C334 C 0.24315 0.32824 -0.04619
 C335 C 0.27761 0.34448 -0.05243
 C336 C 0.27394 0.35810 -0.03515
 N337 N 0.25531 0.35687 -0.02401
 H338 H 0.28055 0.38012 0.03569
 H339 H 0.26949 0.40832 -0.02468
 H340 H 0.29994 0.43301 -0.01939
 H341 H 0.31119 0.40410 0.04206
 H342 H 0.22561 0.34128 -0.01969
 H343 H 0.23093 0.31665 -0.05016
 H344 H 0.29244 0.34559 -0.06126
 H345 H 0.28605 0.36951 -0.03061
 C346 C 0.23826 0.32935 0.05749
 C347 C 0.19229 0.42015 -0.01206
 C348 C 0.26205 0.32947 -0.05802
 C349 C 0.30787 0.42021 0.01169
 C350 C 0.72146 0.09207 -0.01006
 H351 H 0.73081 0.09125 -0.02457
 C352 C 0.70432 0.07812 -0.00705
 H353 H 0.70037 0.06654 -0.01928
 C354 C 0.71534 0.10794 0.02377
 H355 H 0.71987 0.11933 0.03588
 C356 C 0.69808 0.09427 0.02742
 H357 H 0.68925 0.09534 0.04225
 N358 N 0.72647 0.10677 0.00514
 C359 C 0.76013 0.15744 -0.02884
 H360 H 0.77465 0.15831 -0.01951
 C361 C 0.75706 0.17137 -0.04598
 H362 H 0.76927 0.18297 -0.04995
 C363 C 0.72631 0.14147 -0.03493
 H364 H 0.71421 0.13006 -0.03039
 C365 C 0.72259 0.15511 -0.05218
 H366 H 0.70775 0.15400 -0.06100
 Zn367 Zn 0.75023 0.12476 -0.00007
 N368 N 0.74496 0.14271 -0.02382
 C369 C 0.78517 0.10810 -0.02395
 N370 N 0.77404 0.10686 -0.00532
 C371 C 0.77910 0.09215 0.00985
 C372 C 0.79627 0.07825 0.00680
 C373 C 0.80246 0.09449 -0.02764
 C374 C 0.74022 0.15736 0.02876
 C375 C 0.74324 0.17128 0.04591
 C376 C 0.77776 0.15514 0.05210
 C377 C 0.77409 0.14150 0.03483
 N378 N 0.75544 0.14269 0.02371
 H379 H 0.78060 0.11950 -0.03604
 H380 H 0.76976 0.09127 0.02435
 H381 H 0.80026 0.06666 0.01900
 H382 H 0.81128 0.09560 -0.04247
 H383 H 0.72570 0.15819 0.01942
 H384 H 0.73100 0.18283 0.04989
 H385 H 0.79261 0.15407 0.06092
 H386 H 0.78622 0.13013 0.03027
 C387 C 0.73814 0.17014 -0.05778
 C388 C 0.69250 0.07928 0.01185
 C389 C 0.76216 0.17010 0.05771
 C390 C 0.80808 0.07948 -0.01210
 C391 C 0.22082 0.59226 0.49014
 H392 H 0.23022 0.59142 0.47568
 C393 C 0.20365 0.57833 0.49311
 H394 H 0.19974 0.56674 0.48088
 C395 C 0.21457 0.60817 0.52393
 H396 H 0.21907 0.61957 0.53606
 C397 C 0.19729 0.59453 0.52754
 H398 H 0.18840 0.59561 0.54233
 N399 N 0.22578 0.60697 0.50535
 C400 C 0.25969 0.65757 0.47151
 H401 H 0.27416 0.65841 0.48092
 C402 C 0.25672 0.67150 0.45436
 H403 H 0.26897 0.68309 0.45046
 C404 C 0.22587 0.64165 0.46524
 H405 H 0.21374 0.63024 0.46971
 C406 C 0.22227 0.65529 0.44797
 H407 H 0.20747 0.65421 0.43907
 Zn408 Zn 0.24959 0.62491 0.50023
 N409 N 0.24446 0.64286 0.47645
 C410 C 0.28459 0.60818 0.47651
 N411 N 0.27339 0.60697 0.49510
 C412 C 0.27838 0.59227 0.51030
 C413 C 0.29554 0.57834 0.50732
 C414 C 0.30187 0.59454 0.47289
 C415 C 0.23951 0.65756 0.52898
 C416 C 0.24249 0.67151 0.54612
 C417 C 0.27695 0.65532 0.55247
 C418 C 0.27333 0.64166 0.53522
 N419 N 0.25473 0.64286 0.52402
 H420 H 0.28008 0.61958 0.46439
 H421 H 0.26899 0.59142 0.52477
 H422 H 0.29947 0.56676 0.51955
 H423 H 0.31075 0.59563 0.45809
 H424 H 0.22503 0.65840 0.51959
 H425 H 0.23025 0.68310 0.55003
 H426 H 0.29177 0.65424 0.56135
 H427 H 0.28546 0.63026 0.53073
 C428 C 0.23787 0.67030 0.44246
 C429 C 0.19176 0.57952 0.51196
 C430 C 0.26137 0.67033 0.55800
 C431 C 0.30742 0.57954 0.48846
 C432 C 0.72128 0.90844 0.51005
 H433 H 0.73066 0.90931 0.52453
 C434 C 0.70409 0.92234 0.50704
 H435 H 0.70014 0.93393 0.51926
 C436 C 0.71511 0.89248 0.47627
 H437 H 0.71963 0.88108 0.46416
 C438 C 0.69781 0.90609 0.47262
 H439 H 0.68894 0.90497 0.45781
 N440 N 0.72629 0.89372 0.49487
 C441 C 0.76017 0.84318 0.52882
 H442 H 0.77466 0.84235 0.51945
 C443 C 0.75717 0.82925 0.54596
 H444 H 0.76941 0.81767 0.54989
 C445 C 0.72633 0.85907 0.53499
 H446 H 0.71420 0.87046 0.53048
 C447 C 0.72269 0.84542 0.55225
 H448 H 0.70787 0.84650 0.56110
 Zn449 Zn 0.75010 0.87581 0.50005
 N450 N 0.74495 0.85788 0.52383
 C451 C 0.78506 0.89258 0.52382
 N452 N 0.77389 0.89377 0.50522
 C453 C 0.77888 0.90847 0.49001
 C454 C 0.79605 0.92241 0.49301
 C455 C 0.80234 0.90623 0.52746
 C456 C 0.74008 0.84313 0.47131
 C457 C 0.74309 0.82919 0.45418
 C458 C 0.77754 0.84542 0.44785
 C459 C 0.77390 0.85907 0.46511
 N460 N 0.75528 0.85786 0.47628
 H461 H 0.78055 0.88119 0.53594
 H462 H 0.76951 0.90931 0.47553
 H463 H 0.79999 0.93398 0.48078
 H464 H 0.81120 0.90515 0.54227
 H465 H 0.72560 0.84228 0.48069
 H466 H 0.73086 0.81758 0.45026
 H467 H 0.79236 0.84651 0.43899
 H468 H 0.78601 0.87049 0.46960
 C469 C 0.73828 0.83043 0.55780
 C470 C 0.69223 0.92110 0.48817
 C471 C 0.76197 0.83039 0.44232
 C472 C 0.80790 0.92122 0.51189
 C473 C 0.00977 0.22149 0.40739
 H474 H 0.02427 0.23085 0.40822
 C475 C 0.00675 0.20437 0.42135
 H476 H 0.01899 0.20045 0.43294
 C477 C -0.02407 0.21530 0.39151
 H478 H -0.03619 0.21980 0.38010
 C479 C -0.02773 0.19806 0.40518
 H480 H -0.04256 0.18921 0.40411
 N481 N -0.00544 0.22646 0.39268
 C482 C 0.02856 0.26010 0.34204
 H483 H 0.01921 0.27459 0.34115
 C484 C 0.04572 0.25703 0.32813
 H485 H 0.04967 0.26922 0.31651
 C486 C 0.03470 0.22631 0.35804
 H487 H 0.03016 0.21423 0.36946
 C488 C 0.05197 0.22261 0.34441
 H489 H 0.06081 0.20778 0.34555
 Zn490 Zn -0.00024 0.25019 0.37469
 N491 N 0.02355 0.24494 0.35678
 C492 C 0.02360 0.28517 0.39133
 N493 N 0.00496 0.27403 0.39255
 C494 C -0.01024 0.27909 0.40723
 C495 C -0.00720 0.29627 0.42112
 C496 C 0.02728 0.30246 0.40493
 C497 C -0.02904 0.24009 0.34208
 C498 C -0.04619 0.24306 0.32814
 C499 C -0.05246 0.27757 0.34422
 C500 C -0.03519 0.27396 0.35788
 N501 N -0.02403 0.25533 0.35674
 H502 H 0.03572 0.28060 0.37995
 H503 H -0.02475 0.26974 0.40810
 H504 H -0.01943 0.30025 0.43269
 H505 H 0.04213 0.31129 0.40383
 H506 H -0.01967 0.22559 0.34128
 H507 H -0.05013 0.23079 0.31660
 H508 H -0.06131 0.29241 0.34526
 H509 H -0.03067 0.28611 0.36924
 C510 C 0.05755 0.23813 0.32938
 C511 C -0.01215 0.19252 0.42018
 C512 C -0.05803 0.26195 0.32927
 C513 C 0.01171 0.30808 0.41991
 C514 C -0.00993 0.72165 0.09215
 H515 H -0.02443 0.73102 0.09132
 C516 C -0.00695 0.70450 0.07822
 H517 H -0.01920 0.70056 0.06665
 C518 C 0.02391 0.71547 0.10802
 H519 H 0.03605 0.71999 0.11940
 C520 C 0.02754 0.69820 0.09438
 H521 H 0.04237 0.68935 0.09545
 N522 N 0.00529 0.72664 0.10684
 C523 C -0.02862 0.76039 0.15747
 H524 H -0.01925 0.77488 0.15832
 C525 C -0.04576 0.75736 0.17141
 H526 H -0.04968 0.76958 0.18301
 C527 C -0.03482 0.72659 0.14153
 H528 H -0.03031 0.71448 0.13012
 C529 C -0.05207 0.72292 0.15519
 H530 H -0.06093 0.70809 0.15409
 Zn531 Zn 0.00013 0.75041 0.12480
 N532 N -0.02364 0.74521 0.14275
 C533 C -0.02370 0.78537 0.10814
 N534 N -0.00507 0.77422 0.10691
 C535 C 0.01012 0.77926 0.09222
 C536 C 0.00709 0.79643 0.07832
 C537 C -0.02738 0.80266 0.09454
 C538 C 0.02894 0.74034 0.15740
 C539 C 0.04611 0.74332 0.17132
 C540 C 0.05241 0.77780 0.15518
 C541 C 0.03512 0.77418 0.14154
 N542 N 0.02394 0.75556 0.14272
 H543 H -0.03582 0.78082 0.11953
 H544 H 0.02463 0.76990 0.09135
 H545 H 0.01931 0.80040 0.06674
 H546 H -0.04221 0.81149 0.09564
 H547 H 0.01956 0.72585 0.15823
 H548 H 0.05005 0.73107 0.18288
 H549 H 0.06127 0.79262 0.15411
 H550 H 0.03060 0.78632 0.13017
 C551 C -0.05761 0.73847 0.17021
 C552 C 0.01194 0.69265 0.07939
 C553 C 0.05797 0.76220 0.17015
 C554 C -0.01181 0.80826 0.07954
 C555 C 0.49003 0.22094 0.59285
 H556 H 0.47554 0.23031 0.59200
 C557 C 0.49304 0.20379 0.57891
 H558 H 0.48081 0.19986 0.56732
 C559 C 0.52386 0.21476 0.60876
 H560 H 0.53598 0.21927 0.62016
 C561 C 0.52751 0.19749 0.59511
 H562 H 0.54233 0.18864 0.59619
 N563 N 0.50524 0.22592 0.60755
 C564 C 0.47126 0.25974 0.65811
 H565 H 0.48063 0.27423 0.65896
 C566 C 0.45409 0.25673 0.67202
 H567 H 0.45015 0.26896 0.68360
 C568 C 0.46508 0.22592 0.64219
 H569 H 0.46960 0.21380 0.63080
 C570 C 0.44780 0.22227 0.65582
 H571 H 0.43894 0.20745 0.65472
 Zn572 Zn 0.50006 0.24971 0.62549
 N573 N 0.47626 0.24453 0.64341
 C574 C 0.47627 0.28466 0.60875
 N575 N 0.49489 0.27350 0.60756
 C576 C 0.51011 0.27849 0.59287
 C577 C 0.50710 0.29564 0.57894
 C578 C 0.47262 0.30193 0.59511
 C579 C 0.52885 0.23967 0.65812
 C580 C 0.54601 0.24267 0.67205
 C581 C 0.55230 0.27715 0.65589
 C582 C 0.53502 0.27350 0.64225
 N583 N 0.52385 0.25488 0.64344
 H584 H 0.46414 0.28015 0.62014
 H585 H 0.52460 0.26912 0.59204
 H586 H 0.51934 0.29957 0.56737
 H587 H 0.45779 0.31078 0.59618
 H588 H 0.51948 0.22518 0.65896
 H589 H 0.54995 0.23044 0.68362
 H590 H 0.56115 0.29197 0.65482
 H591 H 0.53050 0.28563 0.63086
 C592 C 0.44223 0.23784 0.67082
 C593 C 0.51193 0.19194 0.58010
 C594 C 0.55786 0.26156 0.67088
 C595 C 0.48821 0.30748 0.58012
 C596 C 0.50996 0.72177 0.90777
 H597 H 0.52444 0.73116 0.90861
 C598 C 0.50698 0.70461 0.92169
 H599 H 0.51923 0.70068 0.93326
 C600 C 0.47612 0.71555 0.89188
 H601 H 0.46399 0.72006 0.88049
 C602 C 0.47251 0.69828 0.90551
 H603 H 0.45769 0.68940 0.90443
 N604 N 0.49473 0.72675 0.89308
 C605 C 0.52866 0.76059 0.84251
 H606 H 0.51928 0.77507 0.84167
 C607 C 0.54581 0.75758 0.82858
 H608 H 0.54974 0.76982 0.81700
 C609 C 0.53484 0.72676 0.85840
 H610 H 0.53033 0.71464 0.86979
 C611 C 0.55211 0.72312 0.84476
 H612 H 0.56097 0.70830 0.84584
 Zn613 Zn 0.49988 0.75054 0.87515
 N614 N 0.52367 0.74538 0.85721
 C615 C 0.52368 0.78550 0.89189
 N616 N 0.50506 0.77433 0.89308
 C617 C 0.48986 0.77931 0.90779
 C618 C 0.49287 0.79645 0.92173
 C619 C 0.52734 0.80276 0.90554
 C620 C 0.47108 0.74049 0.84253
 C621 C 0.45390 0.74347 0.82862
 C622 C 0.44759 0.77793 0.84482
 C623 C 0.46488 0.77430 0.85844
 N624 N 0.47607 0.75570 0.85723
 H625 H 0.53580 0.78099 0.88049
 H626 H 0.47536 0.76994 0.90863
 H627 H 0.48065 0.80038 0.93332
 H628 H 0.54217 0.81161 0.90446
 H629 H 0.48046 0.72601 0.84168
 H630 H 0.44997 0.73124 0.81704
 H631 H 0.43872 0.79274 0.84591
 H632 H 0.46940 0.78643 0.86984
 C633 C 0.55766 0.73870 0.82976
 C634 C 0.48810 0.69273 0.92050
 C635 C 0.44203 0.76235 0.82982
 C636 C 0.51177 0.80830 0.92055
 C637 C 0.14117 0.22158 0.26252
 N638 N 0.13893 0.20962 0.28042
 N639 N 0.12250 0.21288 0.29355
 C640 C 0.10782 0.22819 0.28917
 N641 N 0.11006 0.24015 0.27127
 N642 N 0.12649 0.23690 0.25814
 C643 C 0.15885 0.21807 0.24837
 C644 C 0.17370 0.21513 0.23649
 C645 C 0.09013 0.23168 0.30330
 C646 C 0.07528 0.23462 0.31518
 C647 C 0.64119 0.72235 0.76274
 N648 N 0.63600 0.70749 0.77761
 N649 N 0.61959 0.71072 0.79078
 C650 C 0.60789 0.72889 0.78947
 N651 N 0.61308 0.74375 0.77460
 N652 N 0.62949 0.74053 0.76144
 C653 C 0.65885 0.71888 0.74857
 C654 C 0.67368 0.71595 0.73665
 C655 C 0.59022 0.73236 0.80364
 C656 C 0.57538 0.73525 0.81555
 C657 C 0.35834 0.77855 0.76294
 N658 N 0.36881 0.79538 0.77168
 N659 N 0.38525 0.79219 0.78482
 C660 C 0.39171 0.77208 0.78961
 N661 N 0.38124 0.75525 0.78086
 N662 N 0.36480 0.75844 0.76773
 C663 C 0.34065 0.78199 0.74879
 C664 C 0.32579 0.78488 0.73690
 C665 C 0.40941 0.76864 0.80375
 C666 C 0.42428 0.76577 0.81563
 C667 C -0.14160 0.27811 0.26222
 N668 N -0.13261 0.29476 0.27275
 N669 N -0.11619 0.29158 0.28592
 C670 C -0.10827 0.27165 0.28895
 N671 N -0.11726 0.25500 0.27841
 N672 N -0.13368 0.25818 0.26525
 C673 C -0.15927 0.28154 0.24805
 C674 C -0.17413 0.28443 0.23614
 C675 C -0.09060 0.26823 0.30313
 C676 C -0.07575 0.26536 0.31504
 C677 C -0.14107 0.72218 0.23734
 N678 N -0.13467 0.74229 0.23248
 N679 N -0.11827 0.74549 0.21929
 C680 C -0.10779 0.72867 0.21056
 N681 N -0.11419 0.70855 0.21542
 N682 N -0.13058 0.70536 0.22861
 C683 C -0.15871 0.71874 0.25154
 C684 C -0.17354 0.71584 0.26346
 C685 C -0.09014 0.73210 0.19637
 C686 C -0.07531 0.73500 0.18444
 C687 C 0.35860 0.22150 0.73770
 N688 N 0.36504 0.24162 0.73294
 N689 N 0.38147 0.24484 0.71980
 C690 C 0.39195 0.22803 0.71104
 N691 N 0.38551 0.20791 0.71581
 N692 N 0.36908 0.20469 0.72894
 C693 C 0.34091 0.21803 0.75184
 C694 C 0.32603 0.21512 0.76371
 C695 C 0.40964 0.23149 0.69690
 C696 C 0.42450 0.23439 0.68501
 C697 C 0.64151 0.27787 0.73780
 N698 N 0.63603 0.29292 0.72323
 N699 N 0.61960 0.28971 0.71009
 C700 C 0.60815 0.27135 0.71113
 N701 N 0.61362 0.25630 0.72570
 N702 N 0.63006 0.25951 0.73884
 C703 C 0.65920 0.28133 0.75195
 C704 C 0.67406 0.28425 0.76384
 C705 C 0.59046 0.26790 0.69698
 C706 C 0.57560 0.26500 0.68508
 C707 C 0.14154 0.77838 0.23720
 N708 N 0.13009 0.76002 0.23817
 N709 N 0.11368 0.75683 0.22500
 C710 C 0.10823 0.77191 0.21045
 N711 N 0.11969 0.79027 0.20947
 N712 N 0.13609 0.79346 0.22265
 C713 C 0.15920 0.78181 0.25139
 C714 C 0.17403 0.78471 0.26333
 C715 C 0.09056 0.76849 0.19627
 C716 C 0.07571 0.76562 0.18436
 C717 C 0.26276 0.14069 0.22178
 N718 N 0.25761 0.12094 0.21453
 N719 N 0.27074 0.10451 0.21778
 C720 C 0.28943 0.10734 0.22837
 N721 N 0.29458 0.12709 0.23562
 N722 N 0.28144 0.14352 0.23238
 C723 C 0.24862 0.15837 0.21829
 C724 C 0.23672 0.17323 0.21535
 C725 C 0.30358 0.08965 0.23185
 C726 C 0.31547 0.07480 0.23477
 C727 C 0.76257 0.64139 0.72162
 N728 N 0.78127 0.64416 0.73219
 N729 N 0.79439 0.62770 0.73538
 C730 C 0.78920 0.60798 0.72810
 N731 N 0.77049 0.60520 0.71753
 N732 N 0.75738 0.62166 0.71434
 C733 C 0.74845 0.65910 0.71819
 C734 C 0.73659 0.67399 0.71531
 C735 C 0.80332 0.59026 0.73152
 C736 C 0.81520 0.57539 0.73440
 C737 C 0.76232 0.35844 0.77775
 N738 N 0.75451 0.37856 0.77587
 N739 N 0.76768 0.39497 0.77265
 C740 C 0.78905 0.39176 0.77121
 N741 N 0.79686 0.37164 0.77309
 N742 N 0.78370 0.35523 0.77630
 C743 C 0.74814 0.34078 0.78123
 C744 C 0.73623 0.32594 0.78416
 C745 C 0.80323 0.40943 0.76777
 C746 C 0.81515 0.42428 0.76488
 C747 C 0.26251 -0.14199 0.27845
 N748 N 0.25475 -0.12182 0.27697
 N749 N 0.26794 -0.10542 0.27376
 C750 C 0.28927 -0.10870 0.27192
 N751 N 0.29703 -0.12886 0.27341
 N752 N 0.28384 -0.14526 0.27662
 C753 C 0.24831 -0.15964 0.28191
 C754 C 0.23637 -0.17447 0.28481
 C755 C 0.30347 -0.09104 0.26846
 C756 C 0.31539 -0.07620 0.26555
 C757 C 0.23736 -0.14174 0.72181
 N758 N 0.23363 -0.13441 0.74184
 N759 N 0.22046 -0.11799 0.74502
 C760 C 0.21064 -0.10841 0.72827
 N761 N 0.21438 -0.11574 0.70825
 N762 N 0.22754 -0.13216 0.70506
 C763 C 0.25154 -0.15941 0.71838
 C764 C 0.26345 -0.17426 0.71549
 C765 C 0.19647 -0.09073 0.73169
 C766 C 0.18457 -0.07587 0.73456
 C767 C 0.73762 0.35853 0.22210
 N768 N 0.74499 0.37695 0.23080
 N769 N 0.73182 0.39336 0.23402
 C770 C 0.71089 0.39185 0.22863
 N771 N 0.70352 0.37343 0.21993
 N772 N 0.71669 0.35702 0.21671
 C773 C 0.75179 0.34087 0.21862
 C774 C 0.76371 0.32603 0.21570
 C775 C 0.69672 0.40952 0.23209
 C776 C 0.68481 0.42436 0.23499
 C777 C 0.73746 0.64136 0.27847
 N778 N 0.71655 0.64280 0.28394
 N779 N 0.70342 0.62635 0.28075
 C780 C 0.71081 0.60796 0.27200
 N781 N 0.73172 0.60652 0.26654
 N782 N 0.74485 0.62297 0.26972
 C783 C 0.75160 0.65907 0.28189
 C784 C 0.76348 0.67394 0.28477
 C785 C 0.69667 0.59026 0.26856
 C786 C 0.68478 0.57539 0.26568
 C787 C 0.23771 0.14102 0.77766
 N788 N 0.21680 0.14252 0.78313
 N789 N 0.20362 0.12612 0.77994
 C790 C 0.21095 0.10772 0.77117
 N791 N 0.23185 0.10622 0.76569
 N792 N 0.24503 0.12263 0.76889
 C793 C 0.25190 0.15868 0.78111
 C794 C 0.26383 0.17351 0.78403
 C795 C 0.19676 0.09005 0.76775
 C796 C 0.18483 0.07521 0.76488
 C797 C 0.22196 0.26233 0.14100
 N798 N 0.23791 0.25852 0.12686
 N799 N 0.24112 0.27168 0.11046
 C800 C 0.22848 0.28905 0.10770
 N801 N 0.21253 0.29287 0.12184
 N802 N 0.20932 0.27970 0.13825
 C803 C 0.21850 0.24816 0.15865
 C804 C 0.21558 0.23625 0.17349
 C805 C 0.23193 0.30322 0.09004
 C806 C 0.23482 0.31513 0.07520
 C807 C 0.72195 0.76333 0.64124
 N808 N 0.71137 0.78219 0.64010
 N809 N 0.71459 0.79538 0.62372
 C810 C 0.72849 0.79009 0.60798
 N811 N 0.73908 0.77123 0.60912
 N812 N 0.73585 0.75805 0.62550
 C813 C 0.71847 0.74913 0.65887
 C814 C 0.71554 0.73719 0.67367
 C815 C 0.73195 0.80428 0.59034
 C816 C 0.73484 0.81620 0.57551
 C817 C 0.77825 0.76325 0.35889
 N818 N 0.77082 0.78332 0.35553
 N819 N 0.76762 0.79651 0.37191
 C820 C 0.77175 0.79003 0.39215
 N821 N 0.77918 0.76997 0.39551
 N822 N 0.78238 0.75678 0.37913
 C823 C 0.78171 0.74905 0.34125
 C824 C 0.78462 0.73712 0.32644
 C825 C 0.76830 0.80423 0.40979
 C826 C 0.76541 0.81616 0.42462
 C827 C 0.27856 0.26257 -0.14160
 N828 N 0.26343 0.27803 -0.14275
 N829 N 0.26017 0.29117 -0.12633
 C830 C 0.27195 0.28924 -0.10827
 N831 N 0.28708 0.27378 -0.10711
 N832 N 0.29033 0.26064 -0.12353
 C833 C 0.28206 0.24842 -0.15927
 C834 C 0.28500 0.23653 -0.17411
 C835 C 0.26845 0.30338 -0.09059
 C836 C 0.26553 0.31527 -0.07574
 C837 C 0.72154 0.23699 -0.14137
 N838 N 0.72873 0.21683 -0.14470
 N839 N 0.73200 0.20371 -0.12827
 C840 C 0.72817 0.21035 -0.10803
 N841 N 0.72098 0.23050 -0.10470
 N842 N 0.71771 0.24362 -0.12112
 C843 C 0.71801 0.25111 -0.15905
 C844 C 0.71507 0.26298 -0.17390
 C845 C 0.73168 0.19621 -0.09035
 C846 C 0.73463 0.18433 -0.07550
 C847 C 0.22191 0.73738 0.35893
 N848 N 0.23569 0.74269 0.37477
 N849 N 0.23882 0.72951 0.39118
 C850 C 0.22827 0.71062 0.39223
 N851 N 0.21449 0.70531 0.37639
 N852 N 0.21136 0.71849 0.35999
 C853 C 0.21854 0.75157 0.34127
 C854 C 0.21569 0.76348 0.32643
 C855 C 0.23163 0.69644 0.40990
 C856 C 0.23447 0.68452 0.42474
 C857 C 0.27760 0.73745 0.64146
 N858 N 0.26422 0.72053 0.64344
 N859 N 0.26102 0.70734 0.62704
 C860 C 0.27111 0.71068 0.60818
 N861 N 0.28449 0.72761 0.60620
 N862 N 0.28768 0.74079 0.62260
 C863 C 0.28103 0.75165 0.65910
 C864 C 0.28393 0.76358 0.67393
 C865 C 0.26767 0.69649 0.59053
 C866 C 0.26479 0.68456 0.57570
 C867 C 0.77856 0.23699 0.14134
 N868 N 0.78864 0.24037 0.12248
 N869 N 0.78541 0.22723 0.10605
 C870 C 0.77201 0.21033 0.10799
 N871 N 0.76193 0.20695 0.12684
 N872 N 0.76515 0.22008 0.14327
 C873 C 0.78203 0.25113 0.15902
 C874 C 0.78494 0.26303 0.17387
 C875 C 0.76854 0.19619 0.09030
 C876 C 0.76563 0.18430 0.07544
 C877 C 0.47185 0.39101 0.51312
 N878 N 0.46443 0.37130 0.50809
 N879 N 0.46765 0.35489 0.52124
 C880 C 0.47840 0.35770 0.53983
 N881 N 0.48583 0.37742 0.54486
 N882 N 0.48260 0.39383 0.53171
 C883 C 0.46838 0.40868 0.49896
 C884 C 0.46546 0.42352 0.48706
 C885 C 0.48186 0.34004 0.55399
 C886 C 0.48476 0.32519 0.56590
 C887 C -0.02830 0.89184 0.01264
 N888 N -0.00928 0.88146 0.01274
 N889 N -0.00603 0.86505 0.02589
 C890 C -0.02170 0.85852 0.03933
 N891 N -0.04072 0.86889 0.03923
 N892 N -0.04397 0.88530 0.02608
 C893 C -0.03180 0.90949 -0.00152
 C894 C -0.03473 0.92432 -0.01343
 C895 C -0.01821 0.84085 0.05348
 C896 C -0.01529 0.82599 0.06536
 C897 C 0.02811 0.60898 0.01251
 N898 N 0.04114 0.61209 0.02952
 N899 N 0.03796 0.62853 0.04265
 C900 C 0.02166 0.64235 0.03917
 N901 N 0.00862 0.63924 0.02215
 N902 N 0.01180 0.62280 0.00902
 C903 C 0.03153 0.59128 -0.00163
 C904 C 0.03442 0.57641 -0.01351
 C905 C 0.01823 0.66005 0.05331
 C906 C 0.01536 0.67491 0.06519
 C907 C 0.52832 0.10846 0.51304
 N908 N 0.54309 0.11353 0.52804
 N909 N 0.53986 0.12993 0.54121
 C910 C 0.52176 0.14174 0.53978
 N911 N 0.50699 0.13667 0.52477
 N912 N 0.51022 0.12027 0.51160
 C913 C 0.53180 0.09081 0.49885
 C914 C 0.53474 0.07598 0.48694
 C915 C 0.51829 0.15940 0.55396
 C916 C 0.51539 0.17424 0.56587
 C917 C -0.02849 0.10902 0.48721
 N918 N -0.04182 0.12608 0.48750
 N919 N -0.03860 0.14249 0.47435
 C920 C -0.02195 0.14233 0.46050
 N921 N -0.00862 0.12526 0.46021
 N922 N -0.01184 0.10885 0.47336
 C923 C -0.03197 0.09134 0.50136
 C924 C -0.03489 0.07649 0.51325
 C925 C -0.01849 0.15999 0.44633
 C926 C -0.01560 0.17482 0.43441
 C927 C 0.47200 0.60907 0.98740
 N928 N 0.46259 0.60948 0.96790
 N929 N 0.46576 0.62591 0.95476
 C930 C 0.47843 0.64244 0.96073
 N931 N 0.48784 0.64204 0.98022
 N932 N 0.48467 0.62560 0.99336
 C933 C 0.46858 0.59139 1.00154
 C934 C 0.46569 0.57652 1.01342
 C935 C 0.48183 0.66014 0.94659
 C936 C 0.48468 0.67500 0.93470
 C937 C 0.52820 0.89172 0.98770
 N938 N 0.51193 0.87785 0.99121
 N939 N 0.50869 0.86147 0.97802
 C940 C 0.52162 0.85847 0.96091
 N941 N 0.53789 0.87234 0.95740
 N942 N 0.54113 0.88872 0.97060
 C943 C 0.53169 0.90934 1.00192
 C944 C 0.53463 0.92415 1.01387
 C945 C 0.51814 0.84083 0.94671
 C946 C 0.51523 0.82601 0.93478
 C947 C 0.02821 0.39166 0.48685
 N948 N 0.04113 0.38861 0.46975
 N949 N 0.03788 0.37220 0.45659
 C950 C 0.02162 0.35835 0.46014
 N951 N 0.00870 0.36139 0.47725
 N952 N 0.01195 0.37780 0.49040
 C953 C 0.03172 0.40931 0.50103
 C954 C 0.03466 0.42414 0.51294
 C955 C 0.01812 0.34068 0.44598
 C956 C 0.01520 0.32582 0.43410
 C957 C 0.39105 0.51258 0.47220
 N958 N 0.37101 0.50672 0.46639
 N959 N 0.35458 0.51987 0.46960
 C960 C 0.35770 0.53927 0.47871
 N961 N 0.37773 0.54513 0.48451
 N962 N 0.39416 0.53199 0.48130
 C963 C 0.40873 0.49843 0.46874
 C964 C 0.42359 0.48653 0.46583
 C965 C 0.34001 0.55343 0.48215
 C966 C 0.32515 0.56533 0.48503
 C967 C 0.89175 0.01260 -0.02851
 N968 N 0.89440 0.03404 -0.03004
 N969 N 0.87796 0.04718 -0.02682
 C970 C 0.85838 0.03927 -0.02198
 N971 N 0.85573 0.01783 -0.02044
 N972 N 0.87217 0.00469 -0.02366
 C973 C 0.90944 -0.00154 -0.03197
 C974 C 0.92430 -0.01344 -0.03488
 C975 C 0.84069 0.05342 -0.01852
 C976 C 0.82582 0.06530 -0.01560
 C977 C 0.60890 0.01227 0.02813
 N978 N 0.60751 0.02816 0.01349
 N979 N 0.62394 0.04132 0.01029
 C980 C 0.64224 0.03898 0.02163
 N981 N 0.64363 0.02309 0.03627
 N982 N 0.62721 0.00993 0.03947
 C983 C 0.59122 -0.00191 0.03157
 C984 C 0.57638 -0.01382 0.03446
 C985 C 0.65993 0.05315 0.01819
 C986 C 0.67478 0.06505 0.01530
 C987 C 0.10814 0.51249 0.52809
 N988 N 0.11247 0.52826 0.54230
 N989 N 0.12889 0.54143 0.53912
 C990 C 0.14148 0.53922 0.52164
 N991 N 0.13715 0.52346 0.50744
 N992 N 0.12073 0.51029 0.51061
 C993 C 0.09047 0.49832 0.53152
 C994 C 0.07562 0.48640 0.53441
 C995 C 0.15916 0.55339 0.51822
 C996 C 0.17402 0.56530 0.51536
 C997 C 0.10872 0.48722 -0.02825
 N998 N 0.10584 0.46576 -0.02890
 N999 N 0.12225 0.45258 -0.02571
 C1000 C 0.14204 0.46047 -0.02178
 N1001 N 0.14493 0.48193 -0.02113
 N1002 N 0.12852 0.49510 -0.02432
 C1003 C 0.09106 0.50140 -0.03170
 C1004 C 0.07622 0.51331 -0.03461
 C1005 C 0.15972 0.44629 -0.01838
 C1006 C 0.17456 0.43437 -0.01550
 C1007 C 0.60843 0.98784 0.47187
 N1008 N 0.60565 0.96638 0.47116
 N1009 N 0.62211 0.95327 0.47437
 C1010 C 0.64185 0.96124 0.47839
 N1011 N 0.64464 0.98271 0.47910
 N1012 N 0.62817 0.99581 0.47589
 C1013 C 0.59071 1.00195 0.46841
 C1014 C 0.57582 1.01381 0.46550
 C1015 C 0.65958 0.94713 0.48183
 C1016 C 0.67446 0.93527 0.48473
 C1017 C 0.89158 0.98816 0.52816
 N1018 N 0.87187 0.99323 0.53557
 N1019 N 0.85543 0.98009 0.53237
 C1020 C 0.85820 0.96148 0.52165
 N1021 N 0.87791 0.95640 0.51424
 N1022 N 0.89435 0.96954 0.51744
 C1023 C 0.90928 1.00230 0.53162
 C1024 C 0.92415 1.01419 0.53453
 C1025 C 0.84051 0.94733 0.51820
 C1026 C 0.82564 0.93543 0.51532
 C1027 C 0.39142 0.48727 0.02806
 N1028 N 0.38613 0.47251 0.04298
 N1029 N 0.36972 0.45933 0.03976
 C1030 C 0.35811 0.46053 0.02152
 N1031 N 0.36341 0.47530 0.00660
 N1032 N 0.37982 0.48847 0.00982
 C1033 C 0.40908 0.50146 0.03154
 C1034 C 0.42392 0.51339 0.03447
 C1035 C 0.34044 0.44635 0.01805
 C1036 C 0.32560 0.43444 0.01514
 C1037 C 0.51267 0.47163 0.39148
 N1038 N 0.52363 0.45508 0.38282
 N1039 N 0.53679 0.45829 0.36642
 C1040 C 0.53940 0.47816 0.35819
 N1041 N 0.52844 0.49471 0.36685
 N1042 N 0.51528 0.49150 0.38325
 C1043 C 0.49850 0.46817 0.40914
 C1044 C 0.48660 0.46527 0.42399
 C1045 C 0.55357 0.48161 0.34053
 C1046 C 0.56549 0.48451 0.32570
 C1047 C 0.01251 -0.02774 0.89099
 N1048 N 0.01590 -0.00778 0.88330
 N1049 N 0.02908 -0.00465 0.86689
 C1050 C 0.03927 -0.02140 0.85768
 N1051 N 0.03588 -0.04136 0.86536
 N1052 N 0.02270 -0.04448 0.88177
 C1053 C -0.00167 -0.03111 0.90865
 C1054 C -0.01359 -0.03396 0.92349
 C1055 C 0.05346 -0.01804 0.84001
 C1056 C 0.06539 -0.01523 0.82518
 C1057 C 0.01252 0.02808 0.60855
 N1058 N 0.02298 0.04471 0.61766
 N1059 N 0.03618 0.04148 0.63404
 C1060 C 0.03931 0.02150 0.64180
 N1061 N 0.02885 0.00486 0.63269
 N1062 N 0.01565 0.00810 0.61631
 C1063 C -0.00169 0.03156 0.59093
 C1064 C -0.01363 0.03451 0.57612
 C1065 C 0.05351 0.01802 0.65943
 C1066 C 0.06544 0.01510 0.67425
 C1067 C 0.51298 0.52820 0.10888
 N1068 N 0.52341 0.54484 0.11802
 N1069 N 0.53655 0.54161 0.13444
 C1070 C 0.53965 0.52164 0.14222
 N1071 N 0.52922 0.50500 0.13309
 N1072 N 0.51608 0.50823 0.11666
 C1073 C 0.49883 0.53168 0.09121
 C1074 C 0.48693 0.53461 0.07636
 C1075 C 0.55379 0.51816 0.15991
 C1076 C 0.56568 0.51525 0.17477
 C1077 C 0.48740 -0.02887 0.10889
 N1078 N 0.48162 -0.00878 0.11457
 N1079 N 0.46848 -0.00560 0.13100
 C1080 C 0.46072 -0.02241 0.14223
 N1081 N 0.46649 -0.04249 0.13655
 N1082 N 0.47964 -0.04568 0.12012
 C1083 C 0.50154 -0.03230 0.09120
 C1084 C 0.51342 -0.03517 0.07634
 C1085 C 0.44656 -0.01898 0.15991
 C1086 C 0.43466 -0.01610 0.17476
 C1087 C 0.98743 0.47209 0.60855
 N1088 N 0.98741 0.45844 0.62535
 N1089 N 0.97422 0.46158 0.64175
 C1090 C 0.96065 0.47846 0.64184
 N1091 N 0.96067 0.49211 0.62503
 N1092 N 0.97386 0.48897 0.60863
 C1093 C 1.00161 0.46870 0.59089
 C1094 C 1.01352 0.46584 0.57604
 C1095 C 0.94645 0.48183 0.65949
 C1096 C 0.93451 0.48467 0.67431
 C1097 C 0.98705 0.52805 0.89109
 N1098 N 0.99113 0.51240 0.87669
 N1099 N 0.97796 0.50917 0.86028
 C1100 C 0.96033 0.52150 0.85777
 N1101 N 0.95625 0.53715 0.87217
 N1102 N 0.96941 0.54038 0.88858
 C1103 C 1.00122 0.53153 0.90874
 C1104 C 1.01314 0.53446 0.92357
 C1105 C 0.94617 0.51804 0.84010
 C1106 C 0.93427 0.51514 0.82525
 C1107 C 0.48748 0.02767 0.39147
 N1108 N 0.48844 0.04039 0.37398
 N1109 N 0.47527 0.03715 0.35757
 C1110 C 0.46075 0.02109 0.35817
 N1111 N 0.45978 0.00836 0.37566
 N1112 N 0.47295 0.01161 0.39206
 C1113 C 0.50165 0.03116 0.40912
 C1114 C 0.51357 0.03409 0.42395
 C1115 C 0.44657 0.01760 0.34051
 C1116 C 0.43466 0.01468 0.32568
   
