data_POSCAR
  _audit_creation_date              2014-09-24
  _audit_creation_method            'ToBaCCo'
  _symmetry_space_group_name_H-M    'P1'
  _symmetry_Int_Tables_number       1
  _symmetry_cell_setting            triclinic
  loop_
  _symmetry_equiv_pos_as_xyz
 x,y,z
_cell_length_a 48.3730
_cell_length_b 48.5131
_cell_length_c 22.6115
_cell_angle_alpha 89.940900
_cell_angle_beta 90.017600
_cell_angle_gamma 121.877900
loop_
  _atom_site_label
  _atom_site_type_symbol
  _atom_site_fract_x
  _atom_site_fract_y
  _atom_site_fract_z
C1 C 0.50724 0.99962 0.47279
 C2 C 0.50692 1.00028 0.53305
 C3 C 0.49293 0.97016 0.56905
 C4 C 0.52002 1.03104 0.56671
 C5 C 0.52172 1.02980 0.43683
 C6 C 0.49239 0.96865 0.43925
 C7 C 0.46862 0.96326 0.61034
 C8 C 0.45528 0.93543 0.64533
 C9 C 0.46590 0.91325 0.64060
 C10 C 0.49091 0.92097 0.59873
 C11 C 0.50420 0.94898 0.56385
 C12 C 0.50875 1.05203 0.55658
 C13 C 0.52081 1.08038 0.58998
 C14 C 0.54398 1.08800 0.63477
 C15 C 0.55485 1.06666 0.64512
 C16 C 0.54300 1.03853 0.61147
 C17 C 0.55412 1.05533 0.44486
 C18 C 0.56698 1.08366 0.41095
 C19 C 0.54774 1.08679 0.36802
 C20 C 0.51556 1.06084 0.35934
 C21 C 0.50274 1.03268 0.39330
 C22 C 0.51093 0.96457 0.39650
 C23 C 0.49727 0.93606 0.36334
 C24 C 0.46469 0.91098 0.37213
 C25 C 0.44608 0.91518 0.41487
 C26 C 0.45973 0.94385 0.44778
 H27 H 0.45999 0.97967 0.61578
 H28 H 0.43791 0.93288 0.67823
 H29 H 0.49967 0.90500 0.59006
 H30 H 0.52324 0.95406 0.53246
 H31 H 0.49048 1.04636 0.52312
 H32 H 0.51204 1.09636 0.58066
 H33 H 0.55170 1.02244 0.62051
 H34 H 0.56937 1.05336 0.47753
 H35 H 0.59181 1.10325 0.41884
 H36 H 0.50033 1.06218 0.32579
 H37 H 0.47780 1.01314 0.38599
 H38 H 0.53604 0.98356 0.38874
 H39 H 0.51208 0.93395 0.32995
 H40 H 0.42100 0.89627 0.42304
 H41 H 0.44476 0.94677 0.47966
 H42 H 0.57207 1.07133 0.68012
 C43 C -0.00125 0.50433 0.47087
 C44 C -0.00141 0.50496 0.53115
 C45 C 0.02919 0.52072 0.56630
 C46 C -0.03225 0.48987 0.56551
 C47 C -0.03178 0.49017 0.43582
 C48 C 0.02938 0.51771 0.43630
 C49 C 0.03294 0.50320 0.61163
 C50 C 0.06121 0.51756 0.64580
 C51 C 0.08644 0.54984 0.63541
 C52 C 0.08252 0.56750 0.59027
 C53 C 0.05406 0.55315 0.55635
 C54 C -0.05679 0.45711 0.55782
 C55 C -0.08545 0.44333 0.59114
 C56 C -0.08989 0.46195 0.63336
 C57 C -0.06502 0.49461 0.64141
 C58 C -0.03654 0.50838 0.60790
 C59 C -0.05312 0.50127 0.44215
 C60 C -0.08140 0.48803 0.40790
 C61 C -0.08904 0.46343 0.36578
 C62 C -0.06698 0.45281 0.35970
 C63 C -0.03885 0.46605 0.39407
 C64 C 0.03609 0.54019 0.39103
 C65 C 0.06427 0.55254 0.35702
 C66 C 0.08645 0.54268 0.36750
 C67 C 0.07959 0.51996 0.41269
 C68 C 0.05119 0.50740 0.44647
 H69 H 0.01390 0.47828 0.62051
 H70 H 0.06305 0.50350 0.68106
 H71 H 0.10153 0.59234 0.58090
 H72 H 0.05140 0.56734 0.52239
 H73 H -0.05371 0.44220 0.52615
 H74 H -0.10418 0.41818 0.58361
 H75 H -0.01775 0.53359 0.61498
 H76 H -0.04788 0.52021 0.47370
 H77 H -0.09759 0.49662 0.41633
 H78 H -0.07028 0.43528 0.32656
 H79 H -0.02238 0.45752 0.38783
 H80 H 0.01940 0.54818 0.38199
 H81 H 0.06837 0.56940 0.32173
 H82 H 0.09623 0.51198 0.42211
 H83 H 0.04617 0.48957 0.48039
 H84 H -0.06733 0.50944 0.67439
 C85 C 0.49706 0.49832 0.47266
 C86 C 0.49708 0.49826 0.53278
 C87 C 0.48206 0.51295 0.56734
 C88 C 0.51139 0.48282 0.56733
 C89 C 0.51189 0.48340 0.43806
 C90 C 0.48156 0.51263 0.43814
 C91 C 0.49426 0.54630 0.56467
 C92 C 0.47999 0.55974 0.59834
 C93 C 0.45284 0.54000 0.63509
 C94 C 0.44087 0.50638 0.63694
 C95 C 0.45550 0.49320 0.60400
 C96 C 0.53687 0.50156 0.60669
 C97 C 0.55034 0.48743 0.64042
 C98 C 0.53830 0.45383 0.63645
 C99 C 0.51238 0.43518 0.59665
 C100 C 0.49917 0.44953 0.56258
 C101 C 0.49259 0.45842 0.39805
 C102 C 0.50599 0.44406 0.36487
 C103 C 0.53908 0.45463 0.37062
 C104 C 0.55850 0.47992 0.41032
 C105 C 0.54501 0.49421 0.44378
 C106 C 0.44830 0.50112 0.44438
 C107 C 0.43387 0.51410 0.40989
 C108 C 0.45242 0.53867 0.36830
 C109 C 0.48570 0.55007 0.36223
 C110 C 0.50007 0.53706 0.39664
 H111 H 0.51486 0.56190 0.53653
 H112 H 0.48968 0.58545 0.59352
 H113 H 0.42107 0.49013 0.66591
 H114 H 0.44600 0.46740 0.60698
 H115 H 0.54631 0.52727 0.61142
 H116 H 0.56916 0.50288 0.67163
 H117 H 0.47931 0.43464 0.53256
 H118 H 0.46704 0.44993 0.39278
 H119 H 0.49057 0.42502 0.33393
 H120 H 0.58405 0.48847 0.41576
 H121 H 0.56038 0.51376 0.47391
 H122 H 0.43347 0.48184 0.47543
 H123 H 0.40822 0.50494 0.41572
 H124 H 0.50049 0.56855 0.32986
 H125 H 0.52569 0.54599 0.39080
 H126 H 0.50274 0.40961 0.58992
 O127 O 0.38284 0.65575 -0.05051
 O128 O 0.38547 0.71054 -0.06445
 C129 C 0.37187 0.72644 -0.07379
 O130 O 0.34735 0.72182 -0.04435
 O131 O 0.29173 0.66848 -0.06479
 C132 C 0.27510 0.63862 -0.07794
 O133 O 0.27839 0.61737 -0.05145
 O134 O 0.33152 0.61733 -0.07089
 C135 C 0.36181 0.63167 -0.08090
 O136 O 0.38141 0.66238 0.06770
 O137 O 0.38698 0.71855 0.05375
 C138 C 0.36786 0.72377 0.08339
 O139 O 0.33767 0.70952 0.07262
 O140 O 0.28101 0.65740 0.05235
 C141 C 0.27426 0.63140 0.07883
 O142 O 0.28759 0.61567 0.06578
 O143 O 0.33929 0.61304 0.04617
 C144 C 0.36453 0.63199 0.07641
 Cr145 Cr 0.38235 0.68594 0.00160
 Cr146 Cr 0.31526 0.68834 0.00385
 Cr147 Cr 0.31022 0.61769 -0.00247
 O148 O 0.33592 0.66399 0.00099
 O149 O 0.61130 0.33984 -0.04561
 O150 O 0.61310 0.28769 -0.06341
 C151 C 0.62876 0.27415 -0.07549
 O152 O 0.65439 0.28047 -0.04792
 O153 O 0.70757 0.33647 -0.06674
 C154 C 0.72208 0.36653 -0.07818
 O155 O 0.71684 0.38588 -0.04958
 O156 O 0.66123 0.38155 -0.06547
 C157 C 0.63086 0.36505 -0.07525
 O158 O 0.61414 0.33216 0.07197
 O159 O 0.61330 0.27864 0.05411
 C160 C 0.63388 0.27475 0.08176
 O161 O 0.66398 0.29069 0.06961
 O162 O 0.71831 0.34571 0.05063
 C163 C 0.72329 0.37054 0.07910
 O164 O 0.70804 0.38467 0.06833
 O165 O 0.65372 0.38303 0.05236
 C166 C 0.62910 0.36237 0.08220
 Cr167 Cr 0.61482 0.31059 0.00419
 Cr168 Cr 0.68511 0.31419 0.00143
 Cr169 Cr 0.68405 0.38193 0.00145
 O170 O 0.66133 0.33555 0.00233
 C171 C 0.42702 0.83097 -0.24705
 C172 C 0.40963 0.84640 -0.25781
 C173 C 0.42229 0.87316 -0.29615
 C174 C 0.45288 0.88597 -0.32438
 C175 C 0.46948 0.86956 -0.31405
 C176 C 0.45687 0.84276 -0.27626
 C177 C 0.41300 0.80303 -0.20432
 C178 C 0.42851 0.78615 -0.18994
 C179 C 0.41491 0.76103 -0.14837
 C180 C 0.38553 0.75206 -0.11992
 C181 C 0.36957 0.76829 -0.13490
 C182 C 0.38300 0.79353 -0.17659
 C183 C 0.37965 0.83525 -0.22993
 C184 C 0.36669 0.80948 -0.19010
 H185 H 0.36616 0.84694 -0.23841
 H186 H 0.34362 0.80209 -0.16916
 H187 H 0.40709 0.88285 -0.30520
 H188 H 0.49340 0.87814 -0.33184
 H189 H 0.42775 0.74890 -0.13792
 H190 H 0.34672 0.76149 -0.11368
 H191 H 0.47132 0.83207 -0.26968
 H192 H 0.45126 0.79208 -0.20984
 C193 C 0.17115 0.59298 -0.25127
 C194 C 0.15659 0.56044 -0.27043
 C195 C 0.12970 0.54693 -0.30870
 C196 C 0.11632 0.56506 -0.32745
 C197 C 0.13094 0.59740 -0.30873
 C198 C 0.15801 0.61124 -0.27134
 C199 C 0.19927 0.60616 -0.20902
 C200 C 0.21583 0.63835 -0.18797
 C201 C 0.24087 0.64898 -0.14657
 C202 C 0.25007 0.62785 -0.12487
 C203 C 0.23440 0.59604 -0.14696
 C204 C 0.20930 0.58514 -0.18882
 C205 C 0.16845 0.54128 -0.25031
 C206 C 0.19405 0.55328 -0.21004
 H207 H 0.15733 0.51637 -0.26506
 H208 H 0.20191 0.53727 -0.19500
 H209 H 0.11899 0.52208 -0.32353
 H210 H 0.12091 0.61185 -0.32172
 H211 H 0.25262 0.67371 -0.13063
 H212 H 0.24153 0.57956 -0.13118
 H213 H 0.16780 0.63602 -0.25783
 H214 H 0.20971 0.65566 -0.20249
 C215 C 0.40958 0.57869 -0.25506
 C216 C 0.44277 0.59805 -0.27115
 C217 C 0.45665 0.58561 -0.30901
 C218 C 0.43831 0.55339 -0.33003
 C219 C 0.40519 0.53450 -0.31386
 C220 C 0.39106 0.54691 -0.27740
 C221 C 0.39593 0.59252 -0.21318
 C222 C 0.36300 0.57552 -0.19571
 C223 C 0.35188 0.58868 -0.15406
 C224 C 0.37324 0.61910 -0.12855
 C225 C 0.40585 0.63676 -0.14731
 C226 C 0.41724 0.62381 -0.18947
 C227 C 0.46226 0.62938 -0.24784
 C228 C 0.44985 0.64185 -0.20747
 H229 H 0.48772 0.64427 -0.26003
 H230 H 0.46612 0.66595 -0.18980
 H231 H 0.48242 0.60064 -0.31864
 H232 H 0.38949 0.51014 -0.33064
 H233 H 0.32655 0.57458 -0.14083
 H234 H 0.42253 0.66051 -0.12862
 H235 H 0.36566 0.53097 -0.26678
 H236 H 0.34542 0.55193 -0.21318
 C237 C 0.57846 0.17126 -0.25097
 C238 C 0.59991 0.16166 -0.27071
 C239 C 0.58879 0.13529 -0.30949
 C240 C 0.55619 0.11752 -0.32811
 C241 C 0.53505 0.12727 -0.30895
 C242 C 0.54598 0.15380 -0.27110
 C243 C 0.59110 0.19893 -0.20804
 C244 C 0.57199 0.21078 -0.18637
 C245 C 0.58448 0.23562 -0.14438
 C246 C 0.61627 0.24925 -0.12270
 C247 C 0.63581 0.23827 -0.14534
 C248 C 0.62359 0.21348 -0.18782
 C249 C 0.63213 0.17787 -0.25057
 C250 C 0.64363 0.20304 -0.20966
 H251 H 0.64857 0.17055 -0.26577
 H252 H 0.66859 0.21438 -0.19461
 H253 H 0.60554 0.12837 -0.32467
 H254 H 0.50967 0.11379 -0.32186
 H255 H 0.56890 0.24372 -0.12798
 H256 H 0.66059 0.24891 -0.12963
 H257 H 0.52842 0.15974 -0.25719
 H258 H 0.54730 0.20111 -0.20087
 C259 C 0.82533 0.42160 -0.25396
 C260 C 0.83861 0.40273 -0.27002
 C261 C 0.86580 0.41573 -0.30763
 C262 C 0.88007 0.44740 -0.33003
 C263 C 0.86607 0.46556 -0.31575
 C264 C 0.83912 0.45292 -0.27832
 C265 C 0.79752 0.40754 -0.21093
 C266 C 0.78395 0.42509 -0.18926
 C267 C 0.75915 0.41150 -0.14707
 C268 C 0.74695 0.37997 -0.12564
 C269 C 0.75976 0.36198 -0.14799
 C270 C 0.78511 0.37563 -0.18971
 C271 C 0.82498 0.37118 -0.24786
 C272 C 0.79865 0.35783 -0.20895
 H273 H 0.83496 0.35661 -0.26049
 H274 H 0.78916 0.33339 -0.19276
 H275 H 0.87644 0.40147 -0.31802
 H276 H 0.87603 0.48974 -0.33357
 H277 H 0.74967 0.42591 -0.13080
 H278 H 0.75073 0.33767 -0.13151
 H279 H 0.82964 0.46817 -0.26891
 H280 H 0.79248 0.44954 -0.20338
 C281 C 0.57625 0.41114 -0.25004
 C282 C 0.59616 0.44376 -0.26856
 C283 C 0.58371 0.45750 -0.30665
 C284 C 0.55136 0.43930 -0.32760
 C285 C 0.53223 0.40640 -0.31064
 C286 C 0.54437 0.39261 -0.27251
 C287 C 0.58997 0.39792 -0.20682
 C288 C 0.57150 0.36642 -0.18277
 C289 C 0.58499 0.35574 -0.14086
 C290 C 0.61731 0.37601 -0.12202
 C291 C 0.63613 0.40720 -0.14660
 C292 C 0.62264 0.41838 -0.18812
 C293 C 0.62842 0.46262 -0.24885
 C294 C 0.64144 0.45013 -0.20984
 H295 H 0.64384 0.48754 -0.26349
 H296 H 0.66646 0.46581 -0.19563
 H297 H 0.59989 0.48231 -0.32110
 H298 H 0.50705 0.39131 -0.32398
 H299 H 0.56991 0.33150 -0.12285
 H300 H 0.66107 0.42322 -0.13217
 H301 H 0.52817 0.36749 -0.26066
 H302 H 0.54645 0.34979 -0.19488
 C303 C 0.82758 0.42492 0.25306
 C304 C 0.84161 0.40646 0.26659
 C305 C 0.86845 0.41892 0.30482
 C306 C 0.88253 0.45019 0.32986
 C307 C 0.86782 0.46804 0.31691
 C308 C 0.84092 0.45568 0.27930
 C309 C 0.79957 0.41106 0.21042
 C310 C 0.78392 0.42749 0.19365
 C311 C 0.75881 0.41406 0.15197
 C312 C 0.74863 0.38393 0.12579
 C313 C 0.76352 0.36703 0.14336
 C314 C 0.78873 0.38028 0.18523
 C315 C 0.82908 0.37573 0.24135
 C316 C 0.80332 0.36299 0.20138
 H317 H 0.83971 0.36148 0.25193
 H318 H 0.79487 0.33931 0.18243
 H319 H 0.87766 0.40352 0.31585
 H320 H 0.87784 0.49247 0.33312
 H321 H 0.74772 0.42762 0.13952
 H322 H 0.75572 0.34359 0.12399
 H323 H 0.83140 0.47097 0.27047
 H324 H 0.79084 0.45084 0.21171
 C325 C 0.58413 0.17139 0.25654
 C326 C 0.60449 0.15968 0.27198
 C327 C 0.59282 0.13256 0.30932
 C328 C 0.56097 0.11677 0.33182
 C329 C 0.54131 0.12920 0.31813
 C330 C 0.55264 0.15608 0.28112
 C331 C 0.59682 0.19919 0.21385
 C332 C 0.57779 0.21132 0.19305
 C333 C 0.59012 0.23616 0.15111
 C334 C 0.62183 0.24983 0.12900
 C335 C 0.64130 0.23849 0.15052
 C336 C 0.62894 0.21311 0.19206
 C337 C 0.63620 0.17480 0.24938
 C338 C 0.64822 0.20107 0.21062
 H339 H 0.65190 0.16603 0.26151
 H340 H 0.67283 0.21173 0.19405
 H341 H 0.60823 0.12315 0.31940
 H342 H 0.51695 0.11802 0.33608
 H343 H 0.57458 0.24451 0.13557
 H344 H 0.66579 0.24869 0.13354
 H345 H 0.53625 0.16429 0.27216
 H346 H 0.55313 0.20165 0.20769
 C347 C 0.57793 0.41120 0.25832
 C348 C 0.59556 0.44520 0.26757
 C349 C 0.58324 0.45910 0.30557
 C350 C 0.55321 0.43967 0.33411
 C351 C 0.53606 0.40596 0.32568
 C352 C 0.54822 0.39185 0.28851
 C353 C 0.59129 0.39749 0.21551
 C354 C 0.57550 0.36408 0.20268
 C355 C 0.58814 0.35271 0.16037
 C356 C 0.61687 0.37427 0.12971
 C357 C 0.63326 0.40750 0.14344
 C358 C 0.62073 0.41920 0.18579
 C359 C 0.62499 0.46523 0.23785
 C360 C 0.63726 0.45252 0.19776
 H361 H 0.63854 0.49124 0.24504
 H362 H 0.65990 0.46913 0.17527
 H363 H 0.59650 0.48521 0.31130
 H364 H 0.51304 0.39042 0.34788
 H365 H 0.57502 0.32694 0.15105
 H366 H 0.65561 0.42446 0.12048
 H367 H 0.53374 0.36584 0.28354
 H368 H 0.55320 0.34631 0.22424
 C369 C 0.17030 0.57899 0.25327
 C370 C 0.15977 0.59972 0.27266
 C371 C 0.13317 0.58801 0.31130
 C372 C 0.11610 0.55552 0.33022
 C373 C 0.12676 0.53511 0.31137
 C374 C 0.15351 0.54663 0.27361
 C375 C 0.19822 0.59224 0.21056
 C376 C 0.21090 0.57383 0.18917
 C377 C 0.23597 0.58682 0.14745
 C378 C 0.24906 0.61847 0.12576
 C379 C 0.23725 0.63732 0.14809
 C380 C 0.21216 0.62455 0.19027
 C381 C 0.17536 0.63181 0.25238
 C382 C 0.20081 0.64388 0.21175
 H383 H 0.16733 0.64769 0.26730
 H384 H 0.21166 0.66871 0.19663
 H385 H 0.12553 0.60420 0.32623
 H386 H 0.11384 0.50983 0.32452
 H387 H 0.24469 0.57174 0.13132
 H388 H 0.24742 0.66196 0.13232
 H389 H 0.16016 0.52960 0.26000
 H390 H 0.20169 0.54930 0.20368
 C391 C 0.42403 0.82648 0.25940
 C392 C 0.40495 0.83936 0.27673
 C393 C 0.41809 0.86645 0.31431
 C394 C 0.45011 0.88104 0.33551
 C395 C 0.46852 0.86746 0.31996
 C396 C 0.45575 0.84061 0.28249
 C397 C 0.40975 0.79875 0.21640
 C398 C 0.42740 0.78555 0.19344
 C399 C 0.41356 0.76084 0.15122
 C400 C 0.38166 0.74840 0.13110
 C401 C 0.36359 0.76082 0.15482
 C402 C 0.37746 0.78605 0.19651
 C403 C 0.37304 0.82542 0.25587
 C404 C 0.35951 0.79919 0.21701
 H405 H 0.35832 0.83509 0.26950
 H406 H 0.33478 0.78946 0.20184
 H407 H 0.40363 0.87677 0.32558
 H408 H 0.49299 0.87768 0.33680
 H409 H 0.42805 0.75167 0.13386
 H410 H 0.33899 0.75161 0.13937
 H411 H 0.47119 0.83145 0.27203
 H412 H 0.45213 0.79432 0.20654
 C413 C 0.40932 0.57589 0.25076
 C414 C 0.43973 0.59720 0.27792
 C415 C 0.45326 0.58502 0.31716
 C416 C 0.43704 0.55170 0.32986
 C417 C 0.40659 0.53074 0.30393
 C418 C 0.39285 0.54258 0.26497
 C419 C 0.39638 0.58973 0.20724
 C420 C 0.36684 0.57051 0.17655
 C421 C 0.35644 0.58435 0.13487
 C422 C 0.37507 0.61775 0.12267
 C423 C 0.40421 0.63722 0.15392
 C424 C 0.41501 0.62350 0.19567
 C425 C 0.45669 0.63048 0.26524
 C426 C 0.44458 0.64334 0.22508
 H427 H 0.47989 0.64682 0.28627
 H428 H 0.45881 0.66922 0.21640
 H429 H 0.47658 0.60152 0.33771
 H430 H 0.39368 0.50489 0.31256
 H431 H 0.33377 0.56869 0.11174
 H432 H 0.41887 0.66307 0.14508
 H433 H 0.36957 0.52517 0.24600
 H434 H 0.35153 0.54469 0.18349
   
