data_POSCAR
  _audit_creation_date              2014-09-24
  _audit_creation_method            'ToBaCCo'
  _symmetry_space_group_name_H-M    'P1'
  _symmetry_Int_Tables_number       1
  _symmetry_cell_setting            triclinic
  loop_
  _symmetry_equiv_pos_as_xyz
 x,y,z
_cell_length_a 54.0637
_cell_length_b 54.0580
_cell_length_c 54.0932
_cell_angle_alpha 90.015400
_cell_angle_beta 90.016800
_cell_angle_gamma 90.017000
loop_
  _atom_site_label
  _atom_site_type_symbol
  _atom_site_fract_x
  _atom_site_fract_y
  _atom_site_fract_z
O1 O 0.35611 0.32278 -0.02455
 O2 O 0.32213 0.35667 0.02362
 O3 O 0.35633 0.32266 0.02341
 O4 O 0.32200 0.35690 -0.02433
 O5 O 0.29306 0.32799 -0.02440
 O6 O 0.32749 0.29364 0.02344
 O7 O 0.29320 0.32774 0.02366
 O8 O 0.32725 0.29377 -0.02462
 Cu9 Cu 0.34205 0.34267 -0.00046
 Cu10 Cu 0.30733 0.30785 -0.00049
 C11 C 0.34754 0.30246 -0.03257
 C12 C 0.30185 0.34804 0.03164
 C13 C 0.34783 0.30229 0.03136
 C14 C 0.30165 0.34837 -0.03229
 O15 O 0.67790 0.64338 0.02356
 O16 O 0.64394 0.67732 -0.02460
 O17 O 0.67798 0.64312 -0.02439
 O18 O 0.64379 0.67748 0.02336
 O19 O 0.67269 0.70643 0.02337
 O20 O 0.70699 0.67197 -0.02449
 O21 O 0.67286 0.70626 -0.02469
 O22 O 0.70690 0.67225 0.02357
 Cu23 Cu 0.65799 0.65741 -0.00052
 Cu24 Cu 0.69279 0.69215 -0.00057
 C25 C 0.69821 0.65197 0.03156
 C26 C 0.65254 0.69761 -0.03263
 C27 C 0.69835 0.65161 -0.03237
 C28 C 0.65235 0.69783 0.03130
 O29 O 0.67793 0.35666 0.97645
 O30 O 0.64393 0.32271 1.02456
 O31 O 0.67801 0.35688 1.02440
 O32 O 0.64377 0.32261 0.97661
 O33 O 0.67264 0.29362 0.97658
 O34 O 0.70698 0.32800 1.02449
 O35 O 0.67281 0.29374 1.02464
 O36 O 0.70689 0.32777 0.97643
 Cu37 Cu 0.65800 0.34263 1.00051
 Cu38 Cu 0.69275 0.30786 1.00054
 C39 C 0.69823 0.34806 0.96845
 C40 C 0.65250 0.30241 1.03258
 C41 C 0.69836 0.34836 1.03238
 C42 C 0.65230 0.30226 0.96865
 O43 O 0.32235 0.64306 0.97661
 O44 O 0.35643 0.67707 1.02469
 O45 O 0.32234 0.64288 1.02457
 O46 O 0.35653 0.67713 0.97673
 O47 O 0.32766 0.70611 0.97672
 O48 O 0.29338 0.67175 1.02467
 O49 O 0.32755 0.70603 1.02478
 O50 O 0.29340 0.67195 0.97661
 Cu51 Cu 0.34232 0.65712 1.00065
 Cu52 Cu 0.30757 0.69189 1.00070
 C53 C 0.30204 0.65165 0.96863
 C54 C 0.34787 0.69738 1.03271
 C55 C 0.30200 0.65139 1.03255
 C56 C 0.34799 0.69748 0.96878
 O57 O -0.02440 0.35610 0.32244
 O58 O 0.02381 0.32227 0.35644
 O59 O 0.02358 0.35643 0.32239
 O60 O -0.02417 0.32203 0.35657
 O61 O -0.02413 0.29305 0.32772
 O62 O 0.02373 0.32754 0.29343
 O63 O 0.02396 0.29329 0.32757
 O64 O -0.02436 0.32720 0.29349
 Cu65 Cu -0.00031 0.34212 0.34237
 Cu66 Cu -0.00019 0.30734 0.30763
 C67 C -0.03238 0.34748 0.30214
 C68 C 0.03188 0.30199 0.34787
 C69 C 0.03158 0.34792 0.30205
 C70 C -0.03208 0.30165 0.34805
 O71 O 0.02393 0.67742 0.64343
 O72 O -0.02433 0.64368 0.67745
 O73 O -0.02405 0.67767 0.64324
 O74 O 0.02365 0.64335 0.67757
 O75 O 0.02380 0.67230 0.70646
 O76 O -0.02401 0.70672 0.67203
 O77 O -0.02429 0.67265 0.70634
 O78 O 0.02407 0.70647 0.67224
 Cu79 Cu -0.00021 0.65761 0.65752
 Cu80 Cu -0.00009 0.69247 0.69218
 C81 C 0.03201 0.69773 0.65197
 C82 C -0.03232 0.65234 0.69772
 C83 C -0.03195 0.69807 0.65170
 C84 C 0.03165 0.65190 0.69790
 O85 O 1.02431 0.64383 0.32240
 O86 O 0.97618 0.67772 0.35645
 O87 O 0.97633 0.64360 0.32235
 O88 O 1.02415 0.67785 0.35659
 O89 O 1.02416 0.70686 0.32779
 O90 O 0.97622 0.67251 0.29344
 O91 O 0.97608 0.70673 0.32763
 O92 O 1.02431 0.67276 0.29350
 Cu93 Cu 1.00025 0.65783 0.34235
 Cu94 Cu 1.00018 0.69265 0.30767
 C95 C 1.03230 0.65246 0.30212
 C96 C 0.96815 0.69803 0.34792
 C97 C 0.96833 0.65215 0.30203
 C98 C 1.03210 0.69822 0.34810
 O99 O 0.97588 0.32250 0.64304
 O100 O 1.02402 0.35634 0.67720
 O101 O 1.02385 0.32234 0.64298
 O102 O 0.97604 0.35661 0.67719
 O103 O 0.97587 0.32767 0.70608
 O104 O 1.02379 0.29330 0.67176
 O105 O 1.02396 0.32739 0.70608
 O106 O 0.97571 0.29348 0.67185
 Cu107 Cu 0.99996 0.34237 0.65720
 Cu108 Cu 0.99982 0.30753 0.69186
 C109 C 0.96781 0.30219 0.65155
 C110 C 1.03198 0.34770 0.69749
 C111 C 1.03176 0.30195 0.65146
 C112 C 0.96802 0.34806 0.69749
 O113 O 0.35628 0.02433 0.32256
 O114 O 0.32234 -0.02393 0.35641
 O115 O 0.35653 -0.02365 0.32240
 O116 O 0.32221 0.02405 0.35671
 O117 O 0.29324 0.02412 0.32783
 O118 O 0.32767 -0.02370 0.29342
 O119 O 0.29339 -0.02398 0.32751
 O120 O 0.32739 0.02439 0.29360
 Cu121 Cu 0.34225 0.00020 0.34243
 Cu122 Cu 0.30750 0.00021 0.30766
 C123 C 0.34769 0.03236 0.30228
 C124 C 0.30206 -0.03197 0.34779
 C125 C 0.34802 -0.03160 0.30204
 C126 C 0.30185 0.03200 0.34819
 O127 O 0.64376 0.02426 0.67749
 O128 O 0.67777 -0.02398 0.64369
 O129 O 0.64357 -0.02372 0.67769
 O130 O 0.67782 0.02400 0.64334
 O131 O 0.70679 0.02416 0.67222
 O132 O 0.67243 -0.02367 0.70667
 O133 O 0.70672 -0.02393 0.67259
 O134 O 0.67264 0.02442 0.70646
 Cu135 Cu 0.65782 0.00013 0.65764
 Cu136 Cu 0.69257 0.00026 0.69241
 C137 C 0.65234 0.03234 0.69777
 C138 C 0.69807 -0.03196 0.65232
 C139 C 0.65209 -0.03163 0.69805
 C140 C 0.69817 0.03200 0.65185
 O141 O 0.32196 1.02388 0.64385
 O142 O 0.35599 0.97577 0.67780
 O143 O 0.32194 0.97590 0.64363
 O144 O 0.35614 1.02375 0.67786
 O145 O 0.32729 1.02377 0.70683
 O146 O 0.29296 0.97580 0.67249
 O147 O 0.32711 0.97568 0.70674
 O148 O 0.29301 1.02390 0.67273
 Cu149 Cu 0.34192 0.99982 0.65787
 Cu150 Cu 0.30716 0.99978 0.69262
 C151 C 0.30166 1.03188 0.65245
 C152 C 0.34742 0.96774 0.69809
 C153 C 0.30160 0.96790 0.65215
 C154 C 0.34762 1.03171 0.69820
 O155 O 0.67801 1.02431 0.35675
 O156 O 0.64397 0.97619 0.32273
 O157 O 0.67804 0.97633 0.35690
 O158 O 0.64381 1.02418 0.32272
 O159 O 0.67267 1.02424 0.29375
 O160 O 0.70701 0.97628 0.32805
 O161 O 0.67286 0.97615 0.29379
 O162 O 0.70696 1.02437 0.32787
 Cu163 Cu 0.65805 1.00025 0.34268
 Cu164 Cu 0.69280 1.00026 0.30794
 C165 C 0.69832 1.03233 0.34818
 C166 C 0.65255 0.96819 0.30243
 C167 C 0.69838 0.96836 0.34838
 C168 C 0.65233 1.03216 0.30238
 O169 O 0.85687 0.82233 0.47654
 O170 O 0.82292 0.85624 0.52472
 O171 O 0.85708 0.82217 0.52450
 O172 O 0.82283 0.85650 0.47677
 O173 O 0.79384 0.82762 0.47666
 O174 O 0.82820 0.79319 0.52451
 O175 O 0.79394 0.82735 0.52472
 O176 O 0.82797 0.79336 0.47644
 Cu177 Cu 0.84284 0.84222 0.50064
 Cu178 Cu 0.80806 0.80745 0.50058
 C179 C 0.84827 0.80204 0.46849
 C180 C 0.80261 0.84765 0.53271
 C181 C 0.84856 0.80180 0.53242
 C182 C 0.80248 0.84798 0.46879
 O183 O 0.17707 0.14377 0.52464
 O184 O 0.14320 0.17774 0.47645
 O185 O 0.17724 0.14357 0.47669
 O186 O 0.14291 0.17786 0.52440
 O187 O 0.17180 0.20683 0.52452
 O188 O 0.20623 0.17244 0.47669
 O189 O 0.17211 0.20671 0.47645
 O190 O 0.20605 0.17265 0.52475
 Cu191 Cu 0.15719 0.15783 0.50054
 Cu192 Cu 0.19197 0.19258 0.50061
 C193 C 0.19737 0.15235 0.53268
 C194 C 0.15182 0.19804 0.46844
 C195 C 0.19760 0.15210 0.46876
 C196 C 0.15143 0.19822 0.53237
 O197 O 0.17742 0.85602 0.47542
 O198 O 0.14344 0.82196 0.52347
 O199 O 0.17747 0.85614 0.52337
 O200 O 0.14326 0.82193 0.47551
 O201 O 0.17213 0.79297 0.47543
 O202 O 0.20646 0.82729 0.52341
 O203 O 0.17233 0.79301 0.52350
 O204 O 0.20639 0.82714 0.47535
 Cu205 Cu 0.15748 0.84192 0.49944
 Cu206 Cu 0.19226 0.80718 0.49941
 C207 C 0.19773 0.84745 0.46742
 C208 C 0.15203 0.80166 0.53147
 C209 C 0.19781 0.84761 0.53134
 C210 C 0.15179 0.80160 0.46753
 O211 O 0.85661 0.17750 0.52301
 O212 O 0.82261 0.14339 0.47496
 O213 O 0.85679 0.17749 0.47506
 O214 O 0.82256 0.14331 0.52292
 O215 O 0.79358 0.17218 0.52292
 O216 O 0.82790 0.20645 0.47495
 O217 O 0.79364 0.17226 0.47486
 O218 O 0.82771 0.20645 0.52301
 Cu219 Cu 0.84255 0.15751 0.49898
 Cu220 Cu 0.80778 0.19226 0.49892
 C221 C 0.84802 0.19781 0.53099
 C222 C 0.80230 0.15194 0.46694
 C223 C 0.84826 0.19783 0.46707
 C224 C 0.80222 0.15185 0.53088
 O225 O 0.47571 0.85624 0.82261
 O226 O 0.52395 0.82226 0.85643
 O227 O 0.52369 0.85648 0.82245
 O228 O 0.47597 0.82214 0.85673
 O229 O 0.47587 0.79319 0.82783
 O230 O 0.52370 0.82764 0.79345
 O231 O 0.52395 0.79333 0.82751
 O232 O 0.47561 0.82738 0.79362
 Cu233 Cu 0.49983 0.84219 0.84247
 Cu234 Cu 0.49977 0.80746 0.80768
 C235 C 0.46766 0.84767 0.80232
 C236 C 0.53196 0.80198 0.84780
 C237 C 0.53162 0.84798 0.80209
 C238 C 0.46800 0.80179 0.84820
 O239 O 0.52402 0.17788 0.14382
 O240 O 0.47583 0.14393 0.17775
 O241 O 0.47604 0.17794 0.14354
 O242 O 0.52381 0.14376 0.17790
 O243 O 0.52383 0.17268 0.20683
 O244 O 0.47594 0.20697 0.17236
 O245 O 0.47574 0.17287 0.20666
 O246 O 0.52403 0.20689 0.17266
 Cu247 Cu 0.49993 0.15796 0.15785
 Cu248 Cu 0.49987 0.19278 0.19255
 C249 C 0.53203 0.19820 0.15240
 C250 C 0.46779 0.15254 0.19802
 C251 C 0.46806 0.19830 0.15202
 C252 C 0.53176 0.15232 0.19824
 O253 O 0.47606 0.17793 0.85625
 O254 O 0.52419 0.14393 0.82229
 O255 O 0.52404 0.17798 0.85646
 O256 O 0.47621 0.14374 0.82224
 O257 O 0.47616 0.17261 0.79327
 O258 O 0.52411 0.20696 0.82761
 O259 O 0.52425 0.17282 0.79335
 O260 O 0.47602 0.20689 0.82737
 Cu261 Cu 0.50013 0.15799 0.84222
 Cu262 Cu 0.50014 0.19275 0.80748
 C263 C 0.46805 0.19823 0.84766
 C264 C 0.53220 0.15251 0.80200
 C265 C 0.53202 0.19833 0.84795
 C266 C 0.46824 0.15227 0.80190
 O267 O 0.52450 0.85653 0.17755
 O268 O 0.47636 0.82242 0.14364
 O269 O 0.47652 0.85664 0.17765
 O270 O 0.52434 0.82243 0.14340
 O271 O 0.52446 0.79348 0.17227
 O272 O 0.47653 0.82780 0.20663
 O273 O 0.47637 0.79349 0.17254
 O274 O 0.52462 0.82766 0.20651
 Cu275 Cu 0.50043 0.84241 0.15765
 Cu276 Cu 0.50051 0.80768 0.19241
 C277 C 0.53254 0.84798 0.19785
 C278 C 0.46837 0.80212 0.15225
 C279 C 0.46858 0.84813 0.19800
 C280 C 0.53233 0.80209 0.15192
 O281 O 0.82242 0.47616 0.85645
 O282 O 0.85621 0.52438 0.82242
 O283 O 0.82224 0.52415 0.85665
 O284 O 0.85648 0.47639 0.82231
 O285 O 0.82752 0.47628 0.79342
 O286 O 0.79318 0.52415 0.82787
 O287 O 0.82724 0.52438 0.79354
 O288 O 0.79337 0.47606 0.82766
 Cu289 Cu 0.84226 0.50027 0.84236
 Cu290 Cu 0.80739 0.50021 0.80771
 C291 C 0.80210 0.46811 0.84792
 C292 C 0.84756 0.53238 0.80215
 C293 C 0.80185 0.53208 0.84819
 C294 C 0.84790 0.46841 0.80199
 O295 O 0.14375 0.52436 0.17750
 O296 O 0.17757 0.47612 0.14352
 O297 O 0.14342 0.47637 0.17758
 O298 O 0.17781 0.52411 0.14336
 O299 O 0.20680 0.52408 0.17221
 O300 O 0.17231 0.47623 0.20653
 O301 O 0.20654 0.47599 0.17239
 O302 O 0.17265 0.52433 0.20645
 Cu303 Cu 0.15773 0.50025 0.15758
 Cu304 Cu 0.19250 0.50015 0.19232
 C305 C 0.15237 0.53235 0.19780
 C306 C 0.19785 0.46805 0.15209
 C307 C 0.15193 0.46838 0.19791
 C308 C 0.19819 0.53202 0.15188
 O309 O 0.85625 0.47567 0.17755
 O310 O 0.82240 0.52382 0.14349
 O311 O 0.85651 0.52365 0.17759
 O312 O 0.82223 0.47584 0.14336
 O313 O 0.79321 0.47586 0.17217
 O314 O 0.82760 0.52379 0.20651
 O315 O 0.79339 0.52395 0.17232
 O316 O 0.82732 0.47569 0.20646
 Cu317 Cu 0.84226 0.49974 0.15760
 Cu318 Cu 0.80745 0.49983 0.19229
 C319 C 0.84762 0.46768 0.19784
 C320 C 0.80210 0.53187 0.15203
 C321 C 0.84797 0.53166 0.19791
 C322 C 0.80186 0.46791 0.15186
 O323 O 0.14346 0.47551 0.82265
 O324 O 0.17735 0.52365 0.85676
 O325 O 0.14324 0.52349 0.82263
 O326 O 0.17748 0.47566 0.85685
 O327 O 0.20650 0.47568 0.82805
 O328 O 0.17215 0.52362 0.79373
 O329 O 0.20636 0.52377 0.82793
 O330 O 0.17239 0.47553 0.79375
 Cu331 Cu 0.15747 0.49957 0.84263
 Cu332 Cu 0.19228 0.49966 0.80794
 C333 C 0.15207 0.46753 0.80235
 C334 C 0.19767 0.53169 0.84823
 C335 C 0.15179 0.53150 0.80232
 C336 C 0.19786 0.46773 0.84836
 C337 C 0.26235 0.39037 0.08062
 C338 C 0.25312 0.37750 0.10419
 C339 C 0.23992 0.39268 0.11944
 C340 C 0.23729 0.41918 0.10957
 C341 C 0.22590 0.41633 0.08374
 C342 C 0.23906 0.40119 0.06853
 C343 C 0.27704 0.41288 0.08976
 C344 C 0.26388 0.42802 0.10498
 C345 C 0.27652 0.37440 0.06392
 C346 C 0.28813 0.36198 0.04952
 C347 C 0.22313 0.43582 0.12562
 C348 C 0.21154 0.45019 0.13810
 H349 H 0.25663 0.35821 0.10852
 H350 H 0.23213 0.38640 0.13683
 H351 H 0.20894 0.42537 0.07791
 H352 H 0.23338 0.39727 0.04968
 H353 H 0.29614 0.41658 0.08476
 H354 H 0.27169 0.44470 0.11301
 C355 C 0.73767 0.60959 0.08053
 C356 C 0.75981 0.62237 0.09292
 C357 C 0.77298 0.60718 0.10816
 C358 C 0.76269 0.58074 0.10948
 C359 C 0.76177 0.57182 0.08256
 C360 C 0.74864 0.58697 0.06737
 C361 C 0.72236 0.59894 0.10193
 C362 C 0.73552 0.58376 0.11715
 C363 C 0.72352 0.62558 0.06383
 C364 C 0.71193 0.63802 0.04943
 C365 C 0.77683 0.56409 0.12553
 C366 C 0.78841 0.54972 0.13802
 H367 H 0.76469 0.64163 0.09001
 H368 H 0.78914 0.61343 0.11831
 H369 H 0.77068 0.55506 0.07600
 H370 H 0.74630 0.58318 0.04779
 H371 H 0.70292 0.60299 0.10488
 H372 H 0.72735 0.57481 0.13316
 C373 C 0.73770 0.39041 0.91946
 C374 C 0.72336 0.39842 0.89631
 C375 C 0.73652 0.41359 0.88106
 C376 C 0.76271 0.41924 0.89049
 C377 C 0.77479 0.39384 0.89442
 C378 C 0.76162 0.37867 0.90967
 C379 C 0.74590 0.41463 0.93179
 C380 C 0.75903 0.42977 0.91658
 C381 C 0.72355 0.37443 0.93618
 C382 C 0.71195 0.36200 0.95058
 C383 C 0.77685 0.43588 0.87443
 C384 C 0.78843 0.45025 0.86193
 H385 H 0.70456 0.39265 0.89222
 H386 H 0.72900 0.42082 0.86391
 H387 H 0.79211 0.38825 0.88594
 H388 H 0.76766 0.36007 0.91426
 H389 H 0.74176 0.41948 0.95083
 H390 H 0.76614 0.44757 0.92259
 C391 C 0.26239 0.60928 0.91973
 C392 C 0.24201 0.59471 0.93306
 C393 C 0.22880 0.57959 0.91787
 C394 C 0.23724 0.58048 0.89080
 C395 C 0.26497 0.57446 0.89154
 C396 C 0.27820 0.58959 0.90674
 C397 C 0.24908 0.62307 0.89878
 C398 C 0.23583 0.60791 0.88355
 C399 C 0.27662 0.62524 0.93641
 C400 C 0.28827 0.63768 0.95079
 C401 C 0.22302 0.56386 0.87476
 C402 C 0.21139 0.54952 0.86226
 H403 H 0.23825 0.59617 0.95273
 H404 H 0.21373 0.56810 0.92453
 H405 H 0.27349 0.55963 0.88101
 H406 H 0.29804 0.58774 0.90923
 H407 H 0.24999 0.64296 0.89613
 H408 H 0.22539 0.61480 0.86785
 C409 C 0.08072 0.26255 0.39043
 C410 C 0.07449 0.26548 0.41795
 C411 C 0.08961 0.25233 0.43317
 C412 C 0.10952 0.23752 0.41941
 C413 C 0.12326 0.25663 0.40353
 C414 C 0.10810 0.26982 0.38827
 C415 C 0.08009 0.23456 0.38567
 C416 C 0.09524 0.22140 0.40091
 C417 C 0.06409 0.27671 0.37437
 C418 C 0.04973 0.28830 0.36188
 C419 C 0.12549 0.22336 0.43614
 C420 C 0.13790 0.21176 0.45055
 H421 H 0.05950 0.27690 0.42489
 H422 H 0.08758 0.25250 0.45314
 H423 H 0.14312 0.25953 0.40418
 H424 H 0.11496 0.28401 0.37584
 H425 H 0.06878 0.22586 0.37154
 H426 H 0.09691 0.20141 0.39984
 C427 C 0.08087 0.73711 0.60940
 C428 C 0.08159 0.72725 0.58280
 C429 C 0.09673 0.74040 0.56759
 C430 C 0.10969 0.76215 0.58043
 C431 C 0.12316 0.75064 0.60262
 C432 C 0.10798 0.73746 0.61788
 C433 C 0.07357 0.76444 0.60693
 C434 C 0.08872 0.77760 0.59170
 C435 C 0.06424 0.72297 0.62546
 C436 C 0.04987 0.71139 0.63795
 C437 C 0.12566 0.77631 0.56371
 C438 C 0.13809 0.78792 0.54932
 H439 H 0.07115 0.71129 0.57648
 H440 H 0.09925 0.73570 0.54823
 H441 H 0.14284 0.75268 0.60606
 H442 H 0.11466 0.72820 0.63439
 H443 H 0.05791 0.77274 0.61635
 H444 H 0.08603 0.79717 0.58808
 C445 C 0.91938 0.73752 0.39050
 C446 C 0.90836 0.72212 0.41164
 C447 C 0.89323 0.73530 0.42687
 C448 C 0.89060 0.76258 0.41947
 C449 C 0.88184 0.76208 0.39247
 C450 C 0.89700 0.74889 0.37721
 C451 C 0.93228 0.75937 0.40323
 C452 C 0.91716 0.77253 0.41845
 C453 C 0.93599 0.72335 0.37444
 C454 C 0.95033 0.71174 0.36194
 C455 C 0.87464 0.77675 0.43620
 C456 C 0.86222 0.78834 0.45060
 H457 H 0.91207 0.70258 0.41438
 H458 H 0.88399 0.72703 0.44266
 H459 H 0.86523 0.77126 0.38592
 H460 H 0.89338 0.74675 0.35758
 H461 H 0.95160 0.76412 0.40050
 H462 H 0.92354 0.78855 0.42876
 C463 C 0.91909 0.26262 0.60890
 C464 C 0.89840 0.24882 0.62261
 C465 C 0.88326 0.23558 0.60736
 C466 C 0.89034 0.23747 0.57993
 C467 C 0.91754 0.22942 0.57877
 C468 C 0.93263 0.24263 0.59398
 C469 C 0.90577 0.27852 0.58952
 C470 C 0.89066 0.26529 0.57429
 C471 C 0.93569 0.27685 0.62497
 C472 C 0.95000 0.28847 0.63749
 C473 C 0.87440 0.22324 0.56322
 C474 C 0.86198 0.21159 0.54884
 H475 H 0.89585 0.24942 0.64251
 H476 H 0.86774 0.22482 0.61418
 H477 H 0.92434 0.21461 0.56704
 H478 H 0.95237 0.23914 0.59528
 H479 H 0.90797 0.29842 0.58793
 H480 H 0.87991 0.27386 0.55966
 C481 C 0.39009 0.08127 0.26274
 C482 C 0.37814 0.09141 0.23907
 C483 C 0.39332 0.10660 0.22584
 C484 C 0.41893 0.11012 0.23760
 C485 C 0.42918 0.08387 0.24092
 C486 C 0.41404 0.06872 0.25412
 C487 C 0.39859 0.10422 0.27715
 C488 C 0.41376 0.11940 0.26392
 C489 C 0.37410 0.06461 0.27695
 C490 C 0.36165 0.05023 0.28857
 C491 C 0.43558 0.12612 0.22338
 C492 C 0.44994 0.13857 0.21175
 H493 H 0.35942 0.08709 0.23324
 H494 H 0.38761 0.11529 0.20867
 H495 H 0.44680 0.07770 0.23353
 H496 H 0.41870 0.04958 0.25803
 H497 H 0.39313 0.10822 0.29605
 H498 H 0.42131 0.13641 0.27149
 C499 C 0.60989 0.08123 0.73728
 C500 C 0.60594 0.10664 0.72524
 C501 C 0.59075 0.12182 0.73847
 C502 C 0.58104 0.11008 0.76242
 C503 C 0.60427 0.10205 0.77664
 C504 C 0.61945 0.08687 0.76342
 C505 C 0.58380 0.07073 0.74107
 C506 C 0.56865 0.08588 0.75427
 C507 C 0.62589 0.06458 0.72308
 C508 C 0.63835 0.05021 0.71146
 C509 C 0.56439 0.12608 0.77663
 C510 C 0.55004 0.13853 0.78827
 H511 H 0.61435 0.11222 0.70789
 H512 H 0.58615 0.14042 0.73245
 H513 H 0.60844 0.10781 0.79541
 H514 H 0.63663 0.07962 0.77086
 H515 H 0.57773 0.05293 0.73399
 H516 H 0.54962 0.08105 0.75849
 C517 C 0.38988 0.91893 0.73767
 C518 C 0.40350 0.89978 0.72173
 C519 C 0.41869 0.88462 0.73495
 C520 C 0.41875 0.89010 0.76280
 C521 C 0.39151 0.88856 0.77069
 C522 C 0.37631 0.90374 0.75745
 C523 C 0.41034 0.93273 0.75169
 C524 C 0.42550 0.91759 0.76489
 C525 C 0.37388 0.93557 0.72345
 C526 C 0.36141 0.94991 0.71182
 C527 C 0.43542 0.87411 0.77701
 C528 C 0.44979 0.86166 0.78862
 H529 H 0.40137 0.89824 0.70184
 H530 H 0.42956 0.87008 0.72638
 H531 H 0.38476 0.87661 0.78533
 H532 H 0.35654 0.90479 0.76076
 H533 H 0.41271 0.95267 0.75131
 H534 H 0.44085 0.92457 0.77581
 C535 C 0.61012 0.91936 0.26273
 C536 C 0.58276 0.92681 0.26381
 C537 C 0.56763 0.91165 0.25057
 C538 C 0.58132 0.89050 0.23750
 C539 C 0.59558 0.87712 0.25809
 C540 C 0.61075 0.89231 0.27137
 C541 C 0.61640 0.91841 0.23507
 C542 C 0.60125 0.90323 0.22180
 C543 C 0.62610 0.93601 0.27699
 C544 C 0.63855 0.95036 0.28866
 C545 C 0.56470 0.87449 0.22324
 C546 C 0.55036 0.86201 0.21159
 H547 H 0.57585 0.94261 0.27410
 H548 H 0.54778 0.91448 0.24952
 H549 H 0.59395 0.85747 0.26187
 H550 H 0.62210 0.88568 0.28653
 H551 H 0.63144 0.92871 0.22665
 H552 H 0.60331 0.90053 0.20202
 C553 C 0.39010 0.26291 0.91868
 C554 C 0.39305 0.27427 0.89284
 C555 C 0.40830 0.26105 0.87771
 C556 C 0.41906 0.23779 0.88994
 C557 C 0.39651 0.22309 0.89897
 C558 C 0.38127 0.23630 0.91410
 C559 C 0.41654 0.26028 0.92865
 C560 C 0.43175 0.24710 0.91355
 C561 C 0.37404 0.27711 0.93528
 C562 C 0.36155 0.28873 0.94961
 C563 C 0.43578 0.22359 0.87400
 C564 C 0.45018 0.21196 0.86160
 H565 H 0.38396 0.29117 0.88694
 H566 H 0.41227 0.26662 0.85884
 H567 H 0.39281 0.20401 0.89390
 H568 H 0.36451 0.22855 0.92198
 H569 H 0.42279 0.26812 0.94605
 H570 H 0.45102 0.24364 0.91803
 C571 C 0.60999 0.73722 0.91867
 C572 C 0.58567 0.72390 0.91256
 C573 C 0.57045 0.73712 0.89748
 C574 C 0.58101 0.76238 0.88998
 C575 C 0.60630 0.75666 0.87838
 C576 C 0.62156 0.74341 0.89349
 C577 C 0.60216 0.76225 0.92953
 C578 C 0.58693 0.77547 0.91445
 C579 C 0.62605 0.72300 0.93525
 C580 C 0.63854 0.71135 0.94956
 C581 C 0.56429 0.77661 0.87407
 C582 C 0.54987 0.78824 0.86170
 H583 H 0.58085 0.70566 0.91943
 H584 H 0.55258 0.73021 0.89144
 H585 H 0.61173 0.76248 0.85996
 H586 H 0.64007 0.73787 0.88803
 H587 H 0.60809 0.76903 0.94748
 H588 H 0.57982 0.79357 0.91949
 C589 C 0.39047 0.73712 0.08134
 C590 C 0.41793 0.73055 0.07844
 C591 C 0.43313 0.74381 0.09350
 C592 C 0.41942 0.76237 0.11002
 C593 C 0.40017 0.74691 0.12406
 C594 C 0.38493 0.73361 0.10896
 C595 C 0.38911 0.76515 0.07704
 C596 C 0.40433 0.77843 0.09212
 C597 C 0.37441 0.72284 0.06478
 C598 C 0.36191 0.71116 0.05048
 C599 C 0.43612 0.77665 0.12593
 C600 C 0.45051 0.78833 0.13832
 H601 H 0.42483 0.71666 0.06568
 H602 H 0.45305 0.74128 0.09364
 H603 H 0.39864 0.74646 0.14407
 H604 H 0.37033 0.72176 0.11602
 H605 H 0.37721 0.77382 0.06339
 H606 H 0.40547 0.79847 0.09139
 C607 C 0.60997 0.26284 0.08133
 C608 C 0.58955 0.27848 0.09335
 C609 C 0.57434 0.26528 0.10847
 C610 C 0.58102 0.23773 0.11009
 C611 C 0.60826 0.23721 0.11814
 C612 C 0.62350 0.25043 0.10299
 C613 C 0.59628 0.24176 0.06813
 C614 C 0.58107 0.22857 0.08324
 C615 C 0.62602 0.27704 0.06472
 C616 C 0.63850 0.28867 0.05039
 C617 C 0.56431 0.22354 0.12604
 C618 C 0.54991 0.21192 0.13846
 H619 H 0.58728 0.29820 0.09029
 H620 H 0.55903 0.27369 0.11837
 H621 H 0.61496 0.22735 0.13428
 H622 H 0.64328 0.25191 0.10615
 H623 H 0.59838 0.23753 0.04862
 H624 H 0.57015 0.21304 0.07667
 C625 C 0.26206 0.08084 0.61017
 C626 C 0.27370 0.10655 0.60697
 C627 C 0.26048 0.12180 0.59185
 C628 C 0.23693 0.10980 0.58143
 C629 C 0.22241 0.10102 0.60418
 C630 C 0.23563 0.08578 0.61930
 C631 C 0.25897 0.07081 0.58381
 C632 C 0.24577 0.08602 0.56872
 C633 C 0.27627 0.06413 0.62610
 C634 C 0.28791 0.04974 0.63851
 C635 C 0.22272 0.12586 0.56484
 C636 C 0.21109 0.13835 0.55051
 H637 H 0.29079 0.11229 0.61583
 H638 H 0.26623 0.14059 0.58774
 H639 H 0.20345 0.10633 0.60810
 H640 H 0.22800 0.07804 0.63617
 H641 H 0.26650 0.05328 0.57753
 H642 H 0.24200 0.08151 0.54952
 C643 C 0.73731 0.08032 0.38968
 C644 C 0.72131 0.09883 0.40407
 C645 C 0.73459 0.11406 0.41915
 C646 C 0.76257 0.10930 0.41834
 C647 C 0.76964 0.11149 0.39094
 C648 C 0.75634 0.09624 0.37585
 C649 C 0.75226 0.06654 0.40947
 C650 C 0.76551 0.08175 0.42452
 C651 C 0.72304 0.06361 0.37378
 C652 C 0.71136 0.04920 0.36140
 C653 C 0.77684 0.12537 0.43489
 C654 C 0.78852 0.13788 0.44918
 H655 H 0.70131 0.09990 0.40253
 H656 H 0.72597 0.12819 0.43052
 H657 H 0.78379 0.12393 0.38400
 H658 H 0.75911 0.09560 0.35598
 H659 H 0.75243 0.04656 0.41148
 H660 H 0.77704 0.07479 0.43942
 C661 C 0.73773 0.91906 0.61013
 C662 C 0.74985 0.89728 0.62376
 C663 C 0.76313 0.88205 0.60864
 C664 C 0.76294 0.89013 0.58142
 C665 C 0.77229 0.91694 0.58163
 C666 C 0.75905 0.93213 0.59671
 C667 C 0.72223 0.90716 0.58954
 C668 C 0.73548 0.89195 0.57445
 C669 C 0.72348 0.93575 0.62604
 C670 C 0.71182 0.95015 0.63842
 C671 C 0.77719 0.87410 0.56484
 C672 C 0.78885 0.86163 0.55052
 H673 H 0.74815 0.89410 0.64350
 H674 H 0.77280 0.86582 0.61542
 H675 H 0.78797 0.92342 0.57089
 H676 H 0.76339 0.95162 0.59888
 H677 H 0.70256 0.91035 0.58706
 H678 H 0.72716 0.88212 0.55904
 C679 C 0.26249 0.91901 0.39002
 C680 C 0.25452 0.93124 0.41434
 C681 C 0.24132 0.91603 0.42942
 C682 C 0.23735 0.89004 0.41874
 C683 C 0.26342 0.88041 0.41292
 C684 C 0.27665 0.89566 0.39781
 C685 C 0.23842 0.90949 0.37832
 C686 C 0.22519 0.89424 0.39344
 C687 C 0.27671 0.93572 0.37410
 C688 C 0.28833 0.95013 0.36171
 C689 C 0.22313 0.87397 0.43532
 C690 C 0.21149 0.86148 0.44963
 H691 H 0.25886 0.95022 0.41929
 H692 H 0.23435 0.92199 0.44728
 H693 H 0.27082 0.86314 0.42000
 H694 H 0.29539 0.89145 0.39194
 H695 H 0.23234 0.91426 0.35980
 H696 H 0.20777 0.88595 0.38787
 C697 C 0.08084 0.38998 0.73729
 C698 C 0.10843 0.38405 0.73409
 C699 C 0.12362 0.39920 0.74740
 C700 C 0.10968 0.41876 0.76256
 C701 C 0.09143 0.40405 0.77856
 C702 C 0.07626 0.38892 0.76527
 C703 C 0.07837 0.41743 0.73048
 C704 C 0.09352 0.43254 0.74375
 C705 C 0.06419 0.37403 0.72300
 C706 C 0.04983 0.36162 0.71130
 C707 C 0.12567 0.43537 0.77685
 C708 C 0.13812 0.44971 0.78855
 H709 H 0.11541 0.36926 0.72244
 H710 H 0.14362 0.39740 0.74716
 H711 H 0.09052 0.40535 0.79857
 H712 H 0.06237 0.37727 0.77390
 H713 H 0.06583 0.42439 0.71642
 H714 H 0.09395 0.45244 0.74106
 C715 C 0.08117 0.61010 0.26251
 C716 C 0.08573 0.61897 0.23593
 C717 C 0.10091 0.60379 0.22271
 C718 C 0.11003 0.58125 0.23738
 C719 C 0.08644 0.56848 0.24666
 C720 C 0.07130 0.58362 0.25985
 C721 C 0.10704 0.60723 0.27387
 C722 C 0.12223 0.59204 0.26065
 C723 C 0.06452 0.62609 0.27672
 C724 C 0.05015 0.63852 0.28836
 C725 C 0.12602 0.56460 0.22317
 C726 C 0.13845 0.55022 0.21154
 H727 H 0.07777 0.63570 0.22820
 H728 H 0.10597 0.60752 0.20365
 H729 H 0.08203 0.54919 0.24317
 H730 H 0.05391 0.57731 0.26766
 H731 H 0.11292 0.61633 0.29077
 H732 H 0.14112 0.58813 0.26621
 C733 C 0.91875 0.38987 0.26255
 C734 C 0.90167 0.37601 0.24457
 C735 C 0.88649 0.39122 0.23135
 C736 C 0.88993 0.41876 0.23743
 C737 C 0.91755 0.42384 0.23331
 C738 C 0.93268 0.40867 0.24650
 C739 C 0.90138 0.40544 0.27871
 C740 C 0.88622 0.42064 0.26550
 C741 C 0.93539 0.37386 0.27675
 C742 C 0.94976 0.36142 0.28839
 C743 C 0.87396 0.43544 0.22323
 C744 C 0.86154 0.44982 0.21159
 H745 H 0.90149 0.35604 0.24244
 H746 H 0.87331 0.38429 0.21788
 H747 H 0.92461 0.43810 0.22107
 H748 H 0.95270 0.40994 0.24555
 H749 H 0.90098 0.40458 0.29876
 H750 H 0.87284 0.43279 0.27424
 C751 C 0.91875 0.61007 0.73736
 C752 C 0.90530 0.59076 0.72148
 C753 C 0.89012 0.57560 0.73470
 C754 C 0.88989 0.58125 0.76251
 C755 C 0.88296 0.60873 0.76443
 C756 C 0.89816 0.62391 0.75118
 C757 C 0.93225 0.59508 0.75731
 C758 C 0.91709 0.57994 0.77052
 C759 C 0.93542 0.62604 0.72313
 C760 C 0.94980 0.63845 0.71148
 C761 C 0.87390 0.56461 0.77674
 C762 C 0.86148 0.55024 0.78839
 H763 H 0.90745 0.58915 0.70159
 H764 H 0.87928 0.56102 0.72614
 H765 H 0.86750 0.61565 0.77520
 H766 H 0.89572 0.64383 0.75059
 H767 H 0.95200 0.59627 0.76078
 H768 H 0.92386 0.56817 0.78531
 C769 C 0.73722 0.60969 0.91985
 C770 C 0.74828 0.58713 0.93305
 C771 C 0.76143 0.57196 0.91786
 C772 C 0.76226 0.58079 0.89091
 C773 C 0.77247 0.60727 0.89215
 C774 C 0.75930 0.62247 0.90738
 C775 C 0.72189 0.59891 0.89850
 C776 C 0.73506 0.58372 0.88329
 C777 C 0.72304 0.62573 0.93653
 C778 C 0.71141 0.63824 0.95087
 C779 C 0.77643 0.56413 0.87484
 C780 C 0.78806 0.54981 0.86230
 H781 H 0.74600 0.58340 0.95264
 H782 H 0.77039 0.55525 0.92445
 H783 H 0.78859 0.61353 0.88196
 H784 H 0.76413 0.64176 0.91022
 H785 H 0.70243 0.60290 0.89557
 H786 H 0.72687 0.57469 0.86733
 C787 C 0.26265 0.39019 0.91994
 C788 C 0.27321 0.39188 0.89365
 C789 C 0.26000 0.40706 0.87843
 C790 C 0.23754 0.41904 0.89102
 C791 C 0.24807 0.43218 0.91386
 C792 C 0.26125 0.41704 0.92904
 C793 C 0.23562 0.38215 0.91653
 C794 C 0.22242 0.39732 0.90132
 C795 C 0.27687 0.37417 0.93662
 C796 C 0.28854 0.36169 0.95095
 C797 C 0.22333 0.43568 0.87496
 C798 C 0.21167 0.44999 0.86244
 H799 H 0.28958 0.38201 0.88751
 H800 H 0.26506 0.41019 0.85926
 H801 H 0.24542 0.45170 0.91778
 H802 H 0.26987 0.42360 0.94595
 H803 H 0.22758 0.36595 0.92525
 H804 H 0.20307 0.39411 0.89702
 C805 C 0.26307 0.60954 0.08034
 C806 C 0.26854 0.58196 0.07648
 C807 C 0.25536 0.56681 0.09165
 C808 C 0.23795 0.58068 0.10925
 C809 C 0.22175 0.59679 0.09240
 C810 C 0.23495 0.61196 0.07720
 C811 C 0.26784 0.61420 0.10794
 C812 C 0.25462 0.59901 0.12316
 C813 C 0.27728 0.62557 0.06367
 C814 C 0.28893 0.63806 0.04933
 C815 C 0.22373 0.56404 0.12530
 C816 C 0.21205 0.54974 0.13781
 H817 H 0.28166 0.57493 0.06300
 H818 H 0.25719 0.54681 0.09116
 H819 H 0.20167 0.59636 0.09242
 H820 H 0.22618 0.62451 0.06422
 H821 H 0.28045 0.62819 0.11492
 H822 H 0.25591 0.59999 0.14316
 C823 C 0.73722 0.39023 0.08023
 C824 C 0.76484 0.38379 0.08164
 C825 C 0.77800 0.39899 0.09686
 C826 C 0.76225 0.41914 0.10919
 C827 C 0.74136 0.40513 0.12238
 C828 C 0.72820 0.38992 0.10714
 C829 C 0.73644 0.41755 0.07254
 C830 C 0.74957 0.43272 0.08774
 C831 C 0.72306 0.37419 0.06353
 C832 C 0.71142 0.36170 0.04917
 C833 C 0.77642 0.43581 0.12526
 C834 C 0.78805 0.45014 0.13779
 H835 H 0.77331 0.36860 0.07160
 H836 H 0.79774 0.39681 0.09987
 H837 H 0.73730 0.40696 0.14195
 H838 H 0.71285 0.37872 0.11366
 H839 H 0.72642 0.42438 0.05654
 H840 H 0.75079 0.45254 0.08475
 C841 C 0.92024 0.73701 0.60987
 C842 C 0.89589 0.72368 0.60382
 C843 C 0.88066 0.73688 0.58866
 C844 C 0.89127 0.76210 0.58105
 C845 C 0.91655 0.75626 0.56954
 C846 C 0.93175 0.74309 0.58467
 C847 C 0.91244 0.76211 0.62064
 C848 C 0.89721 0.77530 0.60548
 C849 C 0.93694 0.72281 0.62588
 C850 C 0.95129 0.71115 0.63836
 C851 C 0.87519 0.77630 0.56442
 C852 C 0.86265 0.78796 0.55014
 H853 H 0.89103 0.70551 0.61086
 H854 H 0.86275 0.73001 0.58271
 H855 H 0.92204 0.76197 0.55110
 H856 H 0.95025 0.73754 0.57918
 H857 H 0.91833 0.76890 0.63859
 H858 H 0.89004 0.79339 0.61044
 C859 C 0.92004 0.26263 0.38973
 C860 C 0.89479 0.27493 0.39394
 C861 C 0.87953 0.26171 0.40907
 C862 C 0.89103 0.23751 0.41848
 C863 C 0.91539 0.24527 0.43081
 C864 C 0.93062 0.25846 0.41573
 C865 C 0.91405 0.23664 0.37996
 C866 C 0.89879 0.22343 0.39508
 C867 C 0.93677 0.27685 0.37377
 C868 C 0.95114 0.28853 0.36134
 C869 C 0.87492 0.22330 0.43507
 C870 C 0.86236 0.21164 0.44935
 H871 H 0.88936 0.29243 0.38574
 H872 H 0.86103 0.26790 0.41382
 H873 H 0.92026 0.24080 0.44977
 H874 H 0.94852 0.26527 0.42176
 H875 H 0.92113 0.22928 0.36268
 H876 H 0.89280 0.20475 0.39075
 C877 C 0.07964 0.26300 0.60972
 C878 C 0.09061 0.23987 0.62200
 C879 C 0.10587 0.22666 0.60686
 C880 C 0.10864 0.23791 0.58094
 C881 C 0.11732 0.26459 0.58536
 C882 C 0.10207 0.27779 0.60050
 C883 C 0.06691 0.25350 0.58621
 C884 C 0.08213 0.24033 0.57110
 C885 C 0.06292 0.27721 0.62570
 C886 C 0.04856 0.28887 0.63815
 C887 C 0.12475 0.22370 0.56434
 C888 C 0.13731 0.21205 0.55007
 H889 H 0.08677 0.23436 0.64091
 H890 H 0.11509 0.20985 0.61280
 H891 H 0.13399 0.27242 0.57736
 H892 H 0.10568 0.29692 0.60546
 H893 H 0.04760 0.25682 0.58180
 H894 H 0.07585 0.23238 0.55376
 C895 C 0.08003 0.73705 0.38991
 C896 C 0.06645 0.75606 0.40602
 C897 C 0.08169 0.76918 0.42118
 C898 C 0.10905 0.76204 0.41878
 C899 C 0.11508 0.76513 0.39121
 C900 C 0.09980 0.75198 0.37601
 C901 C 0.09452 0.72090 0.40822
 C902 C 0.10977 0.73403 0.42339
 C903 C 0.06330 0.72290 0.37389
 C904 C 0.04891 0.71128 0.36142
 C905 C 0.12516 0.77619 0.43544
 C906 C 0.13771 0.78781 0.44976
 H907 H 0.04659 0.75898 0.40555
 H908 H 0.07487 0.78334 0.43368
 H909 H 0.13001 0.77661 0.38425
 H910 H 0.10165 0.75218 0.35603
 H911 H 0.09297 0.70090 0.40914
 H912 H 0.12129 0.72528 0.43731
 C913 C 0.60938 0.91962 0.73762
 C914 C 0.59788 0.89884 0.72205
 C915 C 0.58264 0.88362 0.73517
 C916 C 0.58041 0.89068 0.76257
 C917 C 0.57212 0.91783 0.76253
 C918 C 0.58733 0.93302 0.74943
 C919 C 0.62235 0.90640 0.75914
 C920 C 0.60711 0.89117 0.77227
 C921 C 0.62547 0.93631 0.72349
 C922 C 0.63801 0.95063 0.71187
 C923 C 0.56371 0.87461 0.77670
 C924 C 0.54938 0.86208 0.78830
 H925 H 0.60142 0.89627 0.70246
 H926 H 0.57314 0.86802 0.72682
 H927 H 0.55573 0.92455 0.77197
 H928 H 0.58395 0.95274 0.74767
 H929 H 0.64178 0.90875 0.76364
 H930 H 0.61348 0.88048 0.78802
 C931 C 0.39077 0.91968 0.26249
 C932 C 0.39918 0.89675 0.27696
 C933 C 0.41443 0.88154 0.26383
 C934 C 0.41976 0.89077 0.23752
 C935 C 0.42999 0.91704 0.24088
 C936 C 0.41478 0.93221 0.25398
 C937 C 0.37896 0.90949 0.23876
 C938 C 0.39420 0.89428 0.22563
 C939 C 0.37468 0.93635 0.27662
 C940 C 0.36213 0.95067 0.28824
 C941 C 0.43646 0.87471 0.22339
 C942 C 0.45081 0.86219 0.21178
 H943 H 0.39362 0.89278 0.29583
 H944 H 0.42192 0.86455 0.27146
 H945 H 0.44766 0.92319 0.23359
 H946 H 0.41942 0.95136 0.25790
 H947 H 0.36027 0.91380 0.23282
 H948 H 0.38857 0.88556 0.20844
 C949 C 0.60959 0.08089 0.26284
 C950 C 0.59776 0.10143 0.27847
 C951 C 0.58251 0.11661 0.26532
 C952 C 0.58059 0.10976 0.23784
 C953 C 0.57255 0.08254 0.23758
 C954 C 0.58777 0.06738 0.25070
 C955 C 0.62264 0.09442 0.24156
 C956 C 0.60738 0.10962 0.22841
 C957 C 0.62569 0.06423 0.27699
 C958 C 0.63824 0.04992 0.28860
 C959 C 0.56388 0.12579 0.22369
 C960 C 0.54953 0.13828 0.21206
 H961 H 0.60109 0.10386 0.29811
 H962 H 0.57278 0.13204 0.27371
 H963 H 0.55631 0.07574 0.22791
 H964 H 0.58456 0.04761 0.25226
 H965 H 0.64213 0.09229 0.23723
 H966 H 0.61380 0.12050 0.21282
 C967 C 0.39032 0.08058 0.73763
 C968 C 0.40606 0.06706 0.75698
 C969 C 0.42130 0.08228 0.77004
 C970 C 0.41934 0.10958 0.76249
 C971 C 0.39180 0.11601 0.76520
 C972 C 0.37653 0.10075 0.75212
 C973 C 0.40899 0.09460 0.72148
 C974 C 0.42424 0.10983 0.73454
 C975 C 0.37422 0.06387 0.72355
 C976 C 0.36168 0.04950 0.71197
 C977 C 0.43607 0.12567 0.77657
 C978 C 0.45044 0.13820 0.78814
 H979 H 0.40529 0.04725 0.76018
 H980 H 0.43357 0.07550 0.78441
 H981 H 0.38492 0.13120 0.77638
 H982 H 0.35656 0.10286 0.75208
 H983 H 0.41011 0.09275 0.70152
 H984 H 0.43842 0.12104 0.72578
 C985 C 0.60982 0.73747 0.08014
 C986 C 0.60104 0.72282 0.10282
 C987 C 0.58588 0.73598 0.11808
 C988 C 0.58099 0.76249 0.10915
 C989 C 0.57090 0.75961 0.08279
 C990 C 0.58603 0.74648 0.06757
 C991 C 0.62190 0.76091 0.09071
 C992 C 0.60673 0.77408 0.10597
 C993 C 0.62583 0.72329 0.06342
 C994 C 0.63831 0.71165 0.04907
 C995 C 0.56437 0.77666 0.12526
 C996 C 0.55007 0.78829 0.13782
 H997 H 0.60631 0.70381 0.10659
 H998 H 0.57816 0.72825 0.13491
 H999 H 0.55338 0.76724 0.07661
 H1000 H 0.58146 0.74286 0.04835
 H1001 H 0.64070 0.76664 0.08660
 H1002 H 0.61255 0.79108 0.11493
 C1003 C 0.39047 0.26278 0.08020
 C1004 C 0.38292 0.26402 0.10754
 C1005 C 0.39812 0.25088 0.12281
 C1006 C 0.41936 0.23782 0.10921
 C1007 C 0.43265 0.25839 0.09487
 C1008 C 0.41749 0.27149 0.07964
 C1009 C 0.39155 0.23507 0.07409
 C1010 C 0.40673 0.22195 0.08934
 C1011 C 0.37443 0.27691 0.06347
 C1012 C 0.36191 0.28851 0.04912
 C1013 C 0.43602 0.22368 0.12533
 C1014 C 0.45032 0.21208 0.13789
 H1015 H 0.36704 0.27428 0.11430
 H1016 H 0.39527 0.24988 0.14265
 H1017 H 0.45228 0.26234 0.09655
 H1018 H 0.42413 0.28666 0.06828
 H1019 H 0.38125 0.22649 0.05914
 H1020 H 0.40943 0.20214 0.08744
 C1021 C 0.60970 0.26276 0.91974
 C1022 C 0.59311 0.24419 0.93336
 C1023 C 0.57793 0.23110 0.91812
 C1024 C 0.58079 0.23783 0.89071
 C1025 C 0.60840 0.23423 0.88508
 C1026 C 0.62361 0.24735 0.90037
 C1027 C 0.59182 0.27900 0.90482
 C1028 C 0.57663 0.26590 0.88955
 C1029 C 0.62574 0.27688 0.93648
 C1030 C 0.63825 0.28847 0.95085
 C1031 C 0.56411 0.22372 0.87459
 C1032 C 0.54978 0.21212 0.86204
 H1033 H 0.59329 0.24153 0.95326
 H1034 H 0.56512 0.21724 0.92496
 H1035 H 0.61537 0.22245 0.87040
 H1036 H 0.64362 0.24681 0.89878
 H1037 H 0.59119 0.29903 0.90608
 H1038 H 0.56299 0.27471 0.87775
 C1039 C 0.39053 0.73707 0.91992
 C1040 C 0.37961 0.74143 0.89407
 C1041 C 0.39479 0.75461 0.87881
 C1042 C 0.41937 0.76212 0.89094
 C1043 C 0.43078 0.73780 0.90010
 C1044 C 0.41564 0.72465 0.91533
 C1045 C 0.39684 0.76297 0.92972
 C1046 C 0.41199 0.77613 0.91449
 C1047 C 0.37452 0.72290 0.93664
 C1048 C 0.36203 0.71127 0.95100
 C1049 C 0.43600 0.77631 0.87484
 C1050 C 0.45029 0.78796 0.86229
 H1051 H 0.36158 0.73476 0.88827
 H1052 H 0.38976 0.75924 0.85994
 H1053 H 0.44914 0.73144 0.89504
 H1054 H 0.42103 0.70703 0.92330
 H1055 H 0.38998 0.77035 0.94708
 H1056 H 0.41809 0.79477 0.91882
 C1057 C 0.73795 0.91959 0.39105
 C1058 C 0.75196 0.89907 0.37729
 C1059 C 0.76511 0.88384 0.39253
 C1060 C 0.76294 0.89067 0.42001
 C1061 C 0.73506 0.89082 0.42537
 C1062 C 0.72193 0.90602 0.41016
 C1063 C 0.75775 0.93307 0.40629
 C1064 C 0.77087 0.91789 0.42149
 C1065 C 0.72380 0.93627 0.37498
 C1066 C 0.71218 0.95059 0.36245
 C1067 C 0.77708 0.87460 0.43670
 C1068 C 0.78869 0.86207 0.45103
 H1069 H 0.75157 0.89669 0.35737
 H1070 H 0.77598 0.86843 0.38566
 H1071 H 0.72638 0.87992 0.43982
 H1072 H 0.70201 0.90813 0.41158
 H1073 H 0.76119 0.95283 0.40522
 H1074 H 0.78554 0.92465 0.43343
 C1075 C 0.26213 0.91913 0.60937
 C1076 C 0.27844 0.90186 0.59382
 C1077 C 0.26535 0.88666 0.57854
 C1078 C 0.23723 0.89022 0.58030
 C1079 C 0.23300 0.91783 0.57528
 C1080 C 0.24606 0.93301 0.59054
 C1081 C 0.24417 0.90193 0.62309
 C1082 C 0.23107 0.88671 0.60780
 C1083 C 0.27623 0.93580 0.62550
 C1084 C 0.28782 0.95013 0.63806
 C1085 C 0.22314 0.87417 0.56355
 C1086 C 0.21157 0.86166 0.54916
 H1087 H 0.29849 0.90155 0.59476
 H1088 H 0.27420 0.87334 0.56640
 H1089 H 0.22077 0.92486 0.56099
 H1090 H 0.24502 0.95303 0.58931
 H1091 H 0.24197 0.90170 0.64304
 H1092 H 0.21764 0.87344 0.61464
 C1093 C 0.26222 0.08064 0.39096
 C1094 C 0.25365 0.06806 0.41490
 C1095 C 0.24052 0.08320 0.43012
 C1096 C 0.23720 0.10949 0.41996
 C1097 C 0.22534 0.10604 0.39439
 C1098 C 0.23851 0.09086 0.37913
 C1099 C 0.27670 0.10356 0.39946
 C1100 C 0.26354 0.11873 0.41471
 C1101 C 0.27638 0.06400 0.37486
 C1102 C 0.28802 0.04971 0.36230
 C1103 C 0.22304 0.12552 0.43667
 C1104 C 0.21141 0.13803 0.45101
 H1105 H 0.25755 0.04890 0.41950
 H1106 H 0.23318 0.07701 0.44775
 H1107 H 0.20816 0.11476 0.38875
 H1108 H 0.23260 0.08658 0.36043
 H1109 H 0.29559 0.10754 0.39395
 H1110 H 0.27116 0.13571 0.42226
 C1111 C 0.73775 0.08058 0.60896
 C1112 C 0.76129 0.06861 0.59858
 C1113 C 0.77441 0.08373 0.58330
 C1114 C 0.76272 0.10937 0.57986
 C1115 C 0.75970 0.11968 0.60615
 C1116 C 0.74656 0.10453 0.62147
 C1117 C 0.72316 0.08912 0.58616
 C1118 C 0.73628 0.10424 0.57087
 C1119 C 0.72360 0.06398 0.62512
 C1120 C 0.71198 0.04971 0.63771
 C1121 C 0.77685 0.12536 0.56309
 C1122 C 0.78845 0.13783 0.54869
 H1123 H 0.76718 0.04990 0.60288
 H1124 H 0.79152 0.07796 0.57452
 H1125 H 0.76721 0.13730 0.61219
 H1126 H 0.74280 0.10917 0.64063
 H1127 H 0.70417 0.08379 0.58237
 H1128 H 0.72852 0.11186 0.55400
 C1129 C 0.91955 0.60945 0.26246
 C1130 C 0.89626 0.62240 0.25263
 C1131 C 0.88103 0.60715 0.23947
 C1132 C 0.89063 0.58049 0.23746
 C1133 C 0.89473 0.57209 0.26425
 C1134 C 0.90993 0.58731 0.27739
 C1135 C 0.93187 0.59807 0.23957
 C1136 C 0.91668 0.58286 0.22644
 C1137 C 0.93623 0.62553 0.27661
 C1138 C 0.95057 0.63807 0.28824
 C1139 C 0.87457 0.56378 0.22331
 C1140 C 0.86205 0.54944 0.21169
 H1141 H 0.89209 0.64180 0.25574
 H1142 H 0.86382 0.61348 0.23130
 H1143 H 0.88639 0.55565 0.27222
 H1144 H 0.91460 0.58390 0.29661
 H1145 H 0.95086 0.60167 0.23413
 H1146 H 0.92267 0.57344 0.20975
 C1147 C 0.91934 0.39075 0.73716
 C1148 C 0.91699 0.41682 0.72619
 C1149 C 0.90184 0.43201 0.73938
 C1150 C 0.89049 0.41967 0.76227
 C1151 C 0.91264 0.40998 0.77714
 C1152 C 0.92780 0.39479 0.76395
 C1153 C 0.89266 0.38118 0.73920
 C1154 C 0.87748 0.39641 0.75242
 C1155 C 0.93598 0.37468 0.72295
 C1156 C 0.95028 0.36215 0.71130
 C1157 C 0.87446 0.43635 0.77648
 C1158 C 0.86196 0.45066 0.78815
 H1159 H 0.92639 0.42283 0.70950
 H1160 H 0.89827 0.45102 0.73398
 H1161 H 0.91610 0.41462 0.79636
 H1162 H 0.94424 0.38641 0.77187
 H1163 H 0.88628 0.36399 0.73101
 H1164 H 0.85808 0.39226 0.75555
 C1165 C 0.08030 0.60920 0.73760
 C1166 C 0.09745 0.59341 0.72141
 C1167 C 0.11263 0.57820 0.73459
 C1168 C 0.10916 0.58027 0.76269
 C1169 C 0.08154 0.57540 0.76705
 C1170 C 0.06639 0.59058 0.75389
 C1171 C 0.09761 0.62306 0.75536
 C1172 C 0.11280 0.60783 0.76856
 C1173 C 0.06365 0.62527 0.72340
 C1174 C 0.04936 0.63781 0.71174
 C1175 C 0.12520 0.56359 0.77688
 C1176 C 0.13771 0.54926 0.78852
 H1177 H 0.09770 0.59414 0.70135
 H1178 H 0.12586 0.56591 0.72583
 H1179 H 0.07449 0.56125 0.77944
 H1180 H 0.04637 0.58944 0.75500
 H1181 H 0.09793 0.64304 0.75737
 H1182 H 0.12614 0.61477 0.78188
 C1183 C 0.08030 0.39068 0.26250
 C1184 C 0.06815 0.40159 0.23928
 C1185 C 0.08334 0.41679 0.22615
 C1186 C 0.10921 0.41963 0.23748
 C1187 C 0.11909 0.39311 0.24000
 C1188 C 0.10387 0.37788 0.25316
 C1189 C 0.08947 0.41315 0.27724
 C1190 C 0.10466 0.42836 0.26410
 C1191 C 0.06363 0.37460 0.27665
 C1192 C 0.04932 0.36205 0.28827
 C1193 C 0.12527 0.43632 0.22332
 C1194 C 0.13781 0.45064 0.21170
 H1195 H 0.04928 0.39769 0.23363
 H1196 H 0.07746 0.42590 0.20925
 H1197 H 0.13648 0.38687 0.23215
 H1198 H 0.10823 0.35858 0.25660
 H1199 H 0.08450 0.41678 0.29634
 H1200 H 0.11270 0.44501 0.27195
   
