data_POSCAR
  _audit_creation_date              2014-09-24
  _audit_creation_method            'ToBaCCo'
  _symmetry_space_group_name_H-M    'P1'
  _symmetry_Int_Tables_number       1
  _symmetry_cell_setting            triclinic
  loop_
  _symmetry_equiv_pos_as_xyz
 x,y,z
_cell_length_a 32.0859
_cell_length_b 31.5927
_cell_length_c 10.3474
_cell_angle_alpha 91.291100
_cell_angle_beta 88.994000
_cell_angle_gamma 119.728300
loop_
  _atom_site_label
  _atom_site_type_symbol
  _atom_site_fract_x
  _atom_site_fract_y
  _atom_site_fract_z
C1 C 0.20455 0.45864 0.41282
 C2 C 0.19289 0.46199 0.54560
 C3 C 0.22250 0.46046 0.64263
 C4 C 0.26776 0.46533 0.61236
 C5 C 0.27637 0.45678 0.48119
 C6 C 0.24260 0.44959 0.38689
 H7 H 0.25058 0.44442 0.28731
 H8 H 0.21366 0.46334 0.74274
 C9 C 0.54961 -0.26231 0.44868
 C10 C 0.55672 -0.24156 0.57479
 C11 C 0.55558 -0.19808 0.59230
 C12 C 0.54247 -0.17848 0.49059
 C13 C 0.54688 -0.19244 0.36172
 C14 C 0.55128 -0.23441 0.34267
 H15 H 0.55090 -0.24829 0.24592
 H16 H 0.55860 -0.18332 0.68892
 C17 C 1.26683 0.80337 0.45344
 C18 C 1.25658 0.81494 0.58002
 C19 C 1.21230 0.78154 0.63778
 C20 C 1.17664 0.74184 0.56836
 C21 C 1.18372 0.73681 0.43603
 C22 C 1.22909 0.76606 0.38189
 H23 H 1.23533 0.75906 0.28219
 H24 H 1.20536 0.78599 0.73860
 C25 C 0.81982 0.54608 0.46521
 C26 C 0.81350 0.55590 0.59759
 C27 C 0.77454 0.56257 0.63030
 C28 C 0.74114 0.55787 0.53888
 C29 C 0.74546 0.54523 0.40921
 C30 C 0.78511 0.54000 0.37347
 H31 H 0.78799 0.52929 0.27491
 H32 H 0.76799 0.56902 0.72982
 C33 C 0.46762 0.27338 0.45335
 C34 C 0.44340 0.27014 0.57244
 C35 C 0.42769 0.22750 0.64614
 C36 C 0.43527 0.18905 0.60459
 C37 C 0.45024 0.18931 0.47558
 C38 C 0.46793 0.23176 0.40395
 H39 H 0.48184 0.23227 0.30730
 H40 H 0.41476 0.22718 0.74341
 C41 C 0.74164 0.16942 0.43222
 C42 C 0.73842 0.18110 0.56314
 C43 C 0.77568 0.22380 0.61875
 C44 C 0.81824 0.25299 0.54886
 C45 C 0.82132 0.24137 0.41660
 C46 C 0.78286 0.19984 0.36060
 H47 H 0.78430 0.19181 0.25879
 H48 H 0.77359 0.23126 0.72078
 O49 O 0.93298 0.50106 -0.20579
 O50 O 1.06211 0.55212 0.23380
 O51 O 0.90904 0.45976 0.19279
 O52 O 1.08690 0.57729 -0.14091
 O53 O 0.97769 0.51243 0.26837
 O54 O 1.01700 0.56772 -0.18263
 O55 O 1.06234 0.58411 0.06275
 O56 O 0.90177 0.49348 -0.01532
 C57 C 0.90785 0.50935 -0.12674
 C58 C 1.07044 0.58962 0.17784
 C59 C 0.93376 0.49602 0.26300
 C60 C 1.06180 0.59359 -0.18975
 O61 O 1.04512 0.50462 -0.25954
 O62 O 0.96965 0.42398 0.22178
 O63 O 0.89991 0.41722 -0.13929
 O64 O 1.11702 0.54070 0.07014
 O65 O 1.05913 0.47050 0.15077
 O66 O 0.96605 0.43863 -0.24035
 O67 O 1.06983 0.48403 -0.09881
 O68 O 0.91581 0.39087 0.06850
 Co69 Co 0.99036 0.50228 -0.20288
 Co70 Co 1.01442 0.48919 0.19715
 Co71 Co 0.91457 0.44523 0.02364
 Co72 Co 1.06299 0.53161 -0.00984
 O73 O 0.99258 0.49170 -0.00231
 C74 C 1.07040 0.48865 -0.21726
 C75 C 0.93512 0.38716 0.16789
 C76 C 0.92449 0.40676 -0.21469
 C77 C 1.10423 0.50093 0.13690
 O78 O 0.49174 0.46368 -0.26590
 O79 O 0.43183 0.46323 0.18004
 O80 O 0.54900 0.42715 0.04701
 O81 O 0.44784 0.55898 -0.06894
 O82 O 0.48493 0.42479 0.13851
 O83 O 0.44200 0.50482 -0.21632
 O84 O 0.44563 0.53671 0.15145
 O85 O 0.48782 0.42454 -0.09431
 C86 C 0.47809 0.42423 -0.20992
 C87 C 0.41903 0.49479 0.19329
 C88 C 0.51529 0.40942 0.13697
 C89 C 0.42391 0.52663 -0.15545
 O90 O 0.51899 0.58964 -0.22030
 O91 O 0.55839 0.50490 0.23825
 O92 O 0.57644 0.48967 -0.16670
 O93 O 0.54360 0.59292 0.16741
 O94 O 0.50384 0.53761 0.29714
 O95 O 0.56913 0.54989 -0.24045
 O96 O 0.54687 0.61947 -0.03640
 O97 O 0.59728 0.51891 0.06007
 Co98 Co 0.50602 0.52565 -0.21340
 Co99 Co 0.49641 0.48584 0.19370
 Co100 Co 0.54033 0.47461 -0.01530
 Co101 Co 0.49689 0.57266 0.04994
 O102 O 0.50997 0.51748 -0.00282
 C103 C 0.54289 0.62624 -0.14960
 C104 C 0.59723 0.51764 0.17960
 C105 C 0.59127 0.52690 -0.23675
 C106 C 0.52952 0.58185 0.27802
 O107 O 0.56165 0.03214 -0.20493
 O108 O 0.50998 -0.05872 0.18704
 O109 O 0.59013 0.08238 0.10020
 O110 O 0.44129 -0.11616 -0.16880
 O111 O 0.54863 0.02941 0.25313
 O112 O 0.50470 -0.04988 -0.23097
 O113 O 0.51070 -0.07669 -0.01728
 O114 O 0.57205 0.09885 -0.12545
 C115 C 0.58854 0.07583 -0.18535
 C116 C 0.52214 -0.07840 0.09669
 C117 C 0.58829 0.06237 0.20571
 C118 C 0.47333 -0.09349 -0.25786
 O119 O 0.43301 -0.02860 -0.23728
 O120 O 0.45911 0.02105 0.24305
 O121 O 0.49251 0.09267 -0.03361
 O122 O 0.42837 -0.11395 0.08474
 O123 O 0.42268 -0.05914 0.18400
 O124 O 0.49148 0.05925 -0.22155
 O125 O 0.40285 -0.06926 -0.06509
 O126 O 0.51876 0.08894 0.18963
 Co127 Co 0.49751 0.00370 -0.20450
 Co128 Co 0.48608 -0.01564 0.19997
 Co129 Co 0.53877 0.08254 0.02877
 Co130 Co 0.45854 -0.06944 -0.04398
 O131 O 0.49530 0.00266 0.00318
 C132 C 0.39685 -0.05700 -0.17307
 C133 C 0.47916 0.06581 0.24368
 C134 C 0.47935 0.08422 -0.14834
 C135 C 0.40926 -0.10296 0.17416
 N136 N 1.18384 0.50611 0.12438
 N137 N 1.21078 0.49268 0.19990
 C138 C 1.18410 0.46863 0.30427
 C139 C 1.13841 0.46353 0.29133
 C140 C 1.14054 0.48887 0.18051
 H141 H 1.10845 0.44666 0.35811
 H142 H 1.19666 0.52808 0.04302
 H143 H 1.24740 0.50566 0.18506
 N144 N 0.49775 0.60872 0.46220
 N145 N 0.50060 0.65241 0.50202
 C146 C 0.53461 0.68824 0.42942
 C147 C 0.55281 0.66841 0.33976
 C148 C 0.52966 0.61882 0.36543
 H149 H 0.57916 0.68740 0.26473
 H150 H 0.47129 0.57440 0.49232
 H151 H 0.47910 0.65576 0.57395
 N152 N 0.36546 -0.18505 0.26801
 N153 N 0.32729 -0.21015 0.35304
 C154 C 0.31303 -0.17912 0.40052
 C155 C 0.34181 -0.13349 0.34569
 C156 C 0.37360 -0.13919 0.26243
 H157 H 0.33707 -0.10193 0.35449
 H158 H 0.38258 -0.20047 0.21421
 H159 H 0.31018 -0.24776 0.36680
 N160 N 0.93757 0.56208 0.40626
 N161 N 0.90813 0.57638 0.45477
 C162 C 0.86291 0.54395 0.41936
 C163 C 0.86375 0.50765 0.34264
 C164 C 0.91188 0.52031 0.33825
 H165 H 0.83369 0.47624 0.29832
 H166 H 0.97474 0.58106 0.41879
 H167 H 0.91894 0.60765 0.51229
 N168 N 0.54928 0.36346 0.23703
 N169 N 0.53821 0.33054 0.32652
 C170 C 0.49431 0.31765 0.37492
 C171 C 0.47658 0.34416 0.31325
 C172 C 0.51287 0.37269 0.22601
 H173 H 0.44167 0.34123 0.32499
 H174 H 0.58141 0.37922 0.18431
 H175 H 0.55975 0.31570 0.35038
 N176 N 0.66784 0.06873 0.22161
 N177 N 0.70901 0.09803 0.27897
 C178 C 0.70211 0.12628 0.36635
 C179 C 0.65410 0.11398 0.36500
 C180 C 0.63366 0.07728 0.27168
 H181 H 0.63779 0.13290 0.41356
 H182 H 0.66400 0.04564 0.14331
 H183 H 0.74170 0.10028 0.25363
 N184 N 0.42339 0.11649 -0.12039
 N185 N 0.41114 0.14626 -0.18867
 C186 C 0.43297 0.15457 -0.30559
 C187 C 0.45897 0.12965 -0.31328
 C188 C 0.45224 0.10684 -0.19624
 H189 H 0.48442 0.13238 -0.38708
 H190 H 0.41401 0.10649 -0.02417
 H191 H 0.38929 0.15950 -0.15150
 N192 N 0.63956 0.57354 -0.42246
 N193 N 0.68207 0.58338 -0.48439
 C194 C 0.70091 0.56062 -0.41910
 C195 C 0.67150 0.53618 -0.31418
 C196 C 0.63317 0.54450 -0.32187
 H197 H 0.67614 0.51346 -0.24573
 H198 H 0.61670 0.58607 -0.45230
 H199 H 0.69679 0.60594 -0.56405
 N200 N 0.93339 0.34561 -0.34532
 N201 N 0.90377 0.30241 -0.41149
 C202 C 0.85792 0.29071 -0.38661
 C203 C 0.85720 0.32467 -0.29945
 C204 C 0.90516 0.35920 -0.28029
 H205 H 0.82616 0.32684 -0.26586
 H206 H 0.97081 0.36488 -0.35228
 H207 H 0.91601 0.28346 -0.47024
 N208 N 0.45672 -0.13818 -0.46843
 N209 N 0.47847 -0.15941 -0.54271
 C210 C 0.51709 -0.15380 -0.47727
 C211 C 0.52074 -0.12873 -0.36205
 C212 C 0.48261 -0.12015 -0.36029
 H213 H 0.54722 -0.11852 -0.28685
 H214 H 0.42597 -0.13703 -0.49372
 H215 H 0.46358 -0.18041 -0.62628
 N216 N 0.34817 0.53018 -0.12398
 N217 N 0.30407 0.51117 -0.18651
 C218 C 0.30427 0.48451 -0.29095
 C219 C 0.34810 0.48500 -0.29267
 C220 C 0.37458 0.51450 -0.18921
 H221 H 0.36007 0.46664 -0.36043
 H222 H 0.35838 0.55309 -0.04240
 H223 H 0.27828 0.52092 -0.16132
 N224 N 1.05810 0.65538 -0.32634
 N225 N 1.08830 0.69470 -0.39067
 C226 C 1.13336 0.70533 -0.36363
 C227 C 1.13195 0.67128 -0.27890
 C228 C 1.08347 0.64005 -0.25833
 H229 H 1.16176 0.66768 -0.24516
 H230 H 1.02078 0.63815 -0.33397
 H231 H 1.07808 0.71267 -0.45563
 N232 N 0.86918 0.56030 -0.10038
 N233 N 0.84410 0.57467 -0.18047
 C234 C 0.84132 0.55460 -0.29955
 C235 C 0.86465 0.52758 -0.29664
 C236 C 0.88132 0.53223 -0.17235
 H237 H 0.86627 0.50382 -0.37089
 H238 H 0.87701 0.57022 -0.00312
 H239 H 0.83149 0.59810 -0.15068
 N240 N 0.40865 0.34205 -0.23209
 N241 N 0.39953 0.29844 -0.29167
 C242 C 0.43637 0.30760 -0.37307
 C243 C 0.46902 0.35764 -0.36958
 C244 C 0.45066 0.37739 -0.27816
 H245 H 0.50473 0.37606 -0.41134
 H246 H 0.38888 0.34506 -0.15471
 H247 H 0.36992 0.26460 -0.27023
 N248 N 0.65798 0.07178 -0.27467
 N249 N 0.69721 0.09928 -0.34168
 C250 C 0.70207 0.14386 -0.35205
 C251 C 0.66453 0.14529 -0.28691
 C252 C 0.63705 0.09830 -0.24064
 H253 H 0.65611 0.17450 -0.28437
 H254 H 0.64473 0.03479 -0.25763
 H255 H 0.71916 0.08701 -0.38415
 N256 N 1.12439 0.52154 -0.40321
 N257 N 1.15827 0.51445 -0.47035
 C258 C 1.16030 0.47737 -0.41498
 C259 C 1.13032 0.46247 -0.30542
 C260 C 1.10761 0.49016 -0.30454
 H261 H 1.12473 0.43431 -0.23827
 H262 H 1.11501 0.54781 -0.42556
 H263 H 1.18079 0.53747 -0.54236
 N264 N 0.54444 0.70430 -0.11608
 N265 N 0.54686 0.73897 -0.18954
 C266 C 0.56157 0.73396 -0.30901
 C267 C 0.57133 0.69555 -0.30766
 C268 C 0.55677 0.67595 -0.18706
 H269 H 0.58250 0.68027 -0.38630
 H270 H 0.53016 0.69784 -0.02265
 H271 H 0.53410 0.76229 -0.15991
 N272 N 0.30931 -0.08681 -0.18456
 N273 N 0.27268 -0.12096 -0.25032
 C274 C 0.28897 -0.14057 -0.34208
 C275 C 0.33864 -0.11646 -0.33571
 C276 C 0.34988 -0.08280 -0.23483
 H277 H 0.36304 -0.12543 -0.38641
 H278 H 0.30625 -0.06808 -0.10379
 H279 H 0.23691 -0.13155 -0.22927
 N280 N 0.53266 -0.14982 0.05362
 N281 N 0.53626 -0.18185 0.12571
 C282 C 0.54717 -0.16395 0.24773
 C283 C 0.55274 -0.11735 0.25046
 C284 C 0.54117 -0.11072 0.12747
 H285 H 0.55896 -0.09349 0.33320
 H286 H 0.51964 -0.15703 -0.04085
 H287 H 0.52749 -0.21674 0.09283
 N288 N 0.38977 0.53434 0.34574
 N289 N 0.35519 0.52435 0.42974
 C290 C 0.32516 0.47609 0.42835
 C291 C 0.34190 0.45383 0.33883
 C292 C 0.38351 0.49268 0.28909
 H293 H 0.32470 0.41593 0.30855
 H294 H 0.41660 0.56983 0.32520
 H295 H 0.35039 0.55072 0.47985
 N296 N 1.10292 0.67866 0.17414
 N297 N 1.13312 0.71744 0.24180
 C298 C 1.14486 0.70280 0.34963
 C299 C 1.12089 0.65221 0.35132
 C300 C 1.09497 0.63848 0.23716
 H301 H 1.12518 0.62907 0.41910
 H302 H 1.09004 0.67990 0.08306
 H303 H 1.14704 0.75333 0.21166
 N304 N 0.41373 0.06736 0.37000
 N305 N 0.40566 0.10005 0.42900
 C306 C 0.44411 0.14455 0.41110
 C307 C 0.47788 0.14028 0.33561
 C308 C 0.45735 0.09062 0.31351
 H309 H 0.51323 0.16878 0.30715
 H310 H 0.39004 0.02981 0.37062
 H311 H 0.37482 0.09177 0.48307
 N312 N 0.62362 0.47677 0.32838
 N313 N 0.66306 0.48036 0.37531
 C314 C 0.70124 0.52095 0.33030
 C315 C 0.68493 0.54314 0.24420
 C316 C 0.63511 0.51401 0.24850
 H317 H 0.70554 0.57812 0.19845
 H318 H 0.58912 0.45020 0.35575
 H319 H 0.66340 0.45824 0.44838
 N320 N 0.90948 0.29905 0.16402
 N321 N 0.87799 0.26011 0.22773
 C322 C 0.86137 0.27465 0.33018
 C323 C 0.88355 0.32514 0.33113
 C324 C 0.91427 0.33914 0.22591
 H325 H 0.87529 0.34825 0.39254
 H326 H 0.92548 0.29795 0.07617
 H327 H 0.86703 0.22427 0.19856
   
