data_POSCAR
  _audit_creation_date              2014-09-24
  _audit_creation_method            'ToBaCCo'
  _symmetry_space_group_name_H-M    'P1'
  _symmetry_Int_Tables_number       1
  _symmetry_cell_setting            triclinic
  loop_
  _symmetry_equiv_pos_as_xyz
 x,y,z
_cell_length_a 14.8912
_cell_length_b 14.9095
_cell_length_c 24.0595
_cell_angle_alpha 80.147000
_cell_angle_beta 101.519500
_cell_angle_gamma 80.018600
loop_
  _atom_site_label
  _atom_site_type_symbol
  _atom_site_fract_x
  _atom_site_fract_y
  _atom_site_fract_z
O1 O 0.08480 0.52547 1.06704
 O2 O 0.10620 0.37346 0.96309
 O3 O 0.12709 0.54479 0.96779
 O4 O 0.06024 0.35922 1.06261
 O5 O -0.08833 0.41474 1.01747
 O6 O -0.02055 0.60026 0.92357
 O7 O -0.04236 0.43080 0.91774
 O8 O -0.06458 0.58182 1.02282
 Cu9 Cu 0.10962 0.44459 1.01921
 Cu10 Cu -0.06886 0.51216 0.96567
 C11 C 0.00712 0.58070 1.06195
 C12 C 0.03562 0.37583 0.92289
 C13 C 0.06479 0.60725 0.93083
 C14 C -0.02565 0.35530 1.05627
 O15 O 0.43564 0.08738 0.52667
 O16 O 0.57066 0.05657 0.41737
 O17 O 0.39629 0.05594 0.42354
 O18 O 0.60972 0.07284 0.52633
 O19 O 0.63657 -0.07837 0.56244
 O20 O 0.42568 -0.09559 0.46004
 O21 O 0.60425 -0.09476 0.44999
 O22 O 0.46446 -0.06485 0.55918
 Cu23 Cu 0.50096 0.08319 0.46964
 Cu24 Cu 0.53893 -0.09863 0.50916
 C25 C 0.42381 0.01718 0.56010
 C26 C 0.61013 -0.02393 0.41396
 C27 C 0.37282 -0.02252 0.42634
 C28 C 0.65722 0.00045 0.56349
 C29 C -0.04066 -0.14686 0.20795
 C30 C -0.12152 -0.14349 0.23973
 C31 C -0.13281 -0.07039 0.26689
 C32 C -0.06156 -0.00775 0.26077
 C33 C -0.06378 -0.05016 0.16790
 C34 C -0.07293 0.02206 0.19507
 C35 C 0.04481 -0.14775 0.25590
 C36 C 0.03500 -0.07442 0.28231
 H37 H -0.16583 -0.19341 0.24209
 H38 H -0.06966 0.05137 0.28319
 H39 H -0.06646 -0.03999 0.12184
 H40 H 0.10994 -0.19924 0.26564
 C41 C 0.16777 0.03228 0.71457
 C42 C 0.18521 -0.05707 0.76213
 C43 C 0.11737 -0.05857 0.79283
 C44 C 0.03725 0.02878 0.77273
 C45 C 0.07044 0.03403 0.67788
 C46 C 0.00204 0.03382 0.70754
 C47 C 0.15412 0.11227 0.74646
 C48 C 0.08574 0.11123 0.77619
 H49 H 0.23690 -0.11964 0.76567
 H50 H -0.01833 0.02786 0.79739
 H51 H 0.05811 0.02903 0.63266
 H52 H 0.19644 0.16451 0.74629
 C53 C -0.07848 -0.28776 0.16791
 C54 C -0.06789 -0.35104 0.13212
 C55 C 0.00118 -0.35280 0.10055
 C56 C 0.06133 -0.28925 0.10479
 C57 C 0.05132 -0.22438 0.14126
 C58 C -0.02093 -0.22248 0.17308
 C59 C 0.11292 -0.16184 0.14300
 N60 N 0.17753 -0.16409 0.11054
 N61 N 0.18532 -0.22396 0.07586
 C62 C 0.12931 -0.28603 0.07163
 H63 H -0.13390 -0.29036 0.19040
 H64 H -0.11449 -0.39926 0.12894
 H65 H 0.11083 -0.10987 0.16892
 H66 H 0.13804 -0.33119 0.04172
 C67 C -0.00639 0.16209 0.18403
 C68 C 0.00710 0.24100 0.14941
 C69 C -0.05158 0.27907 0.09397
 C70 C -0.12961 0.24000 0.07474
 C71 C -0.14316 0.15918 0.11013
 C72 C -0.07809 0.11796 0.16395
 C73 C -0.22056 0.12110 0.09060
 N74 N -0.27972 0.15997 0.03839
 N75 N -0.26532 0.23679 0.00374
 C76 C -0.19091 0.27933 0.02002
 H77 H 0.04349 0.13182 0.22517
 H78 H 0.06609 0.27072 0.16539
 H79 H -0.23503 0.06100 0.11657
 H80 H -0.25211 0.27372 -0.00967
 C81 C 0.32638 -0.02335 0.69266
 C82 C 0.38529 -0.02823 0.65462
 C83 C 0.36025 0.03042 0.59948
 C84 C 0.27517 0.09902 0.58334
 C85 C 0.21802 0.10796 0.62367
 C86 C 0.23954 0.04059 0.67710
 C87 C 0.13938 0.18305 0.60813
 N88 N 0.11533 0.23912 0.55454
 N89 N 0.16446 0.22569 0.51514
 C90 C 0.24273 0.15731 0.52739
 H91 H 0.35003 -0.07092 0.73440
 H92 H 0.45093 -0.07952 0.66823
 H93 H 0.09616 0.19807 0.63765
 H94 H 0.27676 0.14891 0.49254
 C95 C -0.09576 -0.05404 0.65293
 C96 C -0.17880 -0.06162 0.61756
 C97 C -0.26068 0.00710 0.60737
 C98 C -0.26031 0.08128 0.63737
 C99 C -0.17514 0.08922 0.67329
 C100 C -0.09183 0.02227 0.67952
 C101 C -0.17623 0.16525 0.70069
 N102 N -0.25777 0.22727 0.69404
 N103 N -0.33817 0.21843 0.66175
 C104 C -0.34236 0.14758 0.63336
 H105 H -0.03282 -0.10655 0.65786
 H106 H -0.17792 -0.11957 0.59580
 H107 H -0.11353 0.17555 0.72776
 H108 H -0.41005 0.14316 0.60887
 C109 C 0.02606 -0.17482 0.82012
 C110 C 0.01471 -0.25645 0.85266
 C111 C 0.08736 -0.31386 0.89834
 C112 C 0.17552 -0.28486 0.91055
 C113 C 0.18495 -0.19880 0.87766
 C114 C 0.11013 -0.14483 0.83158
 C115 C 0.26842 -0.16728 0.89310
 N116 N 0.33974 -0.21953 0.93677
 N117 N 0.33304 -0.30082 0.96648
 C118 C 0.25434 -0.33510 0.95523
 H119 H -0.03190 -0.13513 0.78489
 H120 H -0.05285 -0.27476 0.84096
 H121 H 0.27742 -0.10079 0.87159
 H122 H 0.25683 -0.40085 0.98227
 C123 C 0.08667 0.15197 0.87146
 C124 C 0.07731 0.21629 0.90683
 C125 C 0.04409 0.31178 0.88275
 C126 C 0.01967 0.34304 0.82157
 C127 C 0.02938 0.27750 0.78559
 C128 C 0.06451 0.18141 0.81101
 C129 C 0.00291 0.31052 0.72506
 N130 N -0.02845 0.40310 0.70238
 N131 N -0.03507 0.46485 0.73612
 C132 C -0.01190 0.43814 0.79484
 H133 H 0.11388 0.07881 0.89147
 H134 H 0.09594 0.19125 0.95352
 H135 H 0.00568 0.26359 0.69561
 H136 H -0.01772 0.49167 0.81985
 C137 C -0.20452 -0.12779 0.34674
 C138 C -0.26850 -0.11769 0.38150
 C139 C -0.33646 -0.03467 0.37191
 C140 C -0.34432 0.03625 0.32171
 C141 C -0.27668 0.02657 0.28752
 C142 C -0.20530 -0.05561 0.30093
 C143 C -0.28538 0.09817 0.23914
 N144 N -0.35817 0.17273 0.22456
 N145 N -0.42397 0.18001 0.25456
 C146 C -0.42042 0.11425 0.30185
 H147 H -0.15171 -0.19190 0.35690
 H148 H -0.26133 -0.17435 0.41802
 H149 H -0.23661 0.09502 0.21186
 H150 H -0.47984 0.12253 0.32113
 C151 C 0.18864 -0.02976 0.29635
 C152 C 0.27011 -0.01635 0.33094
 C153 C 0.28199 -0.02907 0.39111
 C154 C 0.20850 -0.05174 0.41665
 C155 C 0.12492 -0.06377 0.38125
 C156 C 0.11604 -0.05429 0.32084
 C157 C 0.05377 -0.08696 0.40790
 N158 N 0.06544 -0.09615 0.46610
 N159 N 0.14358 -0.08427 0.49935
 C160 C 0.21545 -0.06264 0.47667
 H161 H 0.18254 -0.02208 0.25005
 H162 H 0.32555 0.00114 0.31084
 H163 H -0.01083 -0.09782 0.38308
 H164 H 0.27703 -0.05396 0.50569
   
