data_POSCAR
  _audit_creation_date              2014-09-24
  _audit_creation_method            'ToBaCCo'
  _symmetry_space_group_name_H-M    'P1'
  _symmetry_Int_Tables_number       1
  _symmetry_cell_setting            triclinic
  loop_
  _symmetry_equiv_pos_as_xyz
 x,y,z
_cell_length_a 46.1674
_cell_length_b 44.8502
_cell_length_c 44.5902
_cell_angle_alpha 90.266600
_cell_angle_beta 89.800400
_cell_angle_gamma 89.723600
loop_
  _atom_site_label
  _atom_site_type_symbol
  _atom_site_fract_x
  _atom_site_fract_y
  _atom_site_fract_z
C1 C 0.16925 0.16769 0.20105
 C2 C 0.19425 0.15698 0.18610
 C3 C 0.20609 0.17170 0.16094
 C4 C 0.19194 0.19772 0.15070
 C5 C 0.16697 0.20874 0.16505
 C6 C 0.15591 0.19372 0.19003
 H7 H 0.20606 0.13857 0.19579
 H8 H 0.19971 0.20926 0.13103
 H9 H 0.13581 0.20172 0.19976
 C10 C -0.16219 0.84094 0.19872
 C11 C -0.15044 0.81609 0.18337
 C12 C -0.16393 0.80389 0.15804
 C13 C -0.18976 0.81668 0.14761
 C14 C -0.20202 0.84159 0.16217
 C15 C -0.18827 0.85338 0.18775
 H16 H -0.13157 0.80470 0.19206
 H17 H -0.19991 0.80766 0.12769
 H18 H -0.19772 0.87280 0.19848
 C19 C -0.16194 0.14969 -0.19010
 C20 C -0.14774 0.17400 -0.17654
 C21 C -0.15892 0.18778 -0.15071
 C22 C -0.18440 0.17693 -0.13773
 C23 C -0.19943 0.15277 -0.15052
 C24 C -0.18783 0.13943 -0.17673
 H25 H -0.12851 0.18338 -0.18662
 H26 H -0.19344 0.18898 -0.11879
 H27 H -0.19785 0.11950 -0.18546
 C28 C 0.16899 0.83535 -0.20190
 C29 C 0.15687 0.81005 -0.18851
 C30 C 0.17041 0.79623 -0.16421
 C31 C 0.19633 0.80798 -0.15312
 C32 C 0.20941 0.83324 -0.16613
 C33 C 0.19517 0.84682 -0.19066
 H34 H 0.13722 0.80054 -0.19761
 H35 H 0.20532 0.79799 -0.13316
 H36 H 0.20460 0.86581 -0.20181
 C37 C 0.15907 1.15341 0.80880
 C38 C 0.14801 1.18047 0.82021
 C39 C 0.16043 1.19386 0.84564
 C40 C 0.18392 1.17979 0.85970
 C41 C 0.19526 1.15290 0.84851
 C42 C 0.18261 1.13977 0.82319
 H43 H 0.13003 1.19130 0.80905
 H44 H 0.19331 1.18970 0.87961
 H45 H 0.19195 1.11954 0.81384
 C46 C 0.83222 0.84504 0.80213
 C47 C 0.84517 0.81983 0.81569
 C48 C 0.83367 0.80700 0.84206
 C49 C 0.80882 0.82023 0.85492
 C50 C 0.79547 0.84504 0.84193
 C51 C 0.80715 0.85724 0.81572
 H52 H 0.86421 0.80997 0.80556
 H53 H 0.79836 0.81014 0.87409
 H54 H 0.79721 0.87727 0.80696
 C55 C 0.17040 0.83285 1.19960
 C56 C 0.19589 0.84384 1.18599
 C57 C 0.20879 0.82932 1.16135
 C58 C 0.19597 0.80341 1.14988
 C59 C 0.17069 0.79179 1.16281
 C60 C 0.15812 0.80655 1.18757
 H61 H 0.20700 0.86280 1.19553
 H62 H 0.20537 0.79257 1.13036
 H63 H 0.13830 0.79766 1.19682
 C64 C 0.83755 1.15683 1.19798
 C65 C 0.84890 1.18380 1.18678
 C66 C 0.83734 1.19739 1.16107
 C67 C 0.81395 1.18389 1.14631
 C68 C 0.80228 1.15710 1.15693
 C69 C 0.81420 1.14380 1.18250
 H70 H 0.86773 1.19373 1.19709
 H71 H 0.80466 1.19434 1.12669
 H72 H 0.80369 1.12419 1.19133
 N73 N 0.52822 1.05598 0.96897
 N74 N 0.55169 1.07234 0.96532
 N75 N 0.46578 1.03694 0.95199
 N76 N 0.44177 1.04030 0.93638
 N77 N 0.46733 1.05718 0.97324
 N78 N 0.44444 1.07486 0.97271
 N79 N 0.52655 1.03561 0.94784
 N80 N 0.54875 1.03751 0.92929
 C81 C 0.56417 1.06062 0.94032
 C82 C 0.42875 1.06414 0.94950
 N83 N 0.46550 0.95172 0.97030
 N84 N 0.44246 0.93448 0.96751
 N85 N 0.52547 0.97173 0.94622
 N86 N 0.54730 0.96931 0.92723
 N87 N 0.52659 0.95053 0.96638
 N88 N 0.54932 0.93312 0.96164
 N89 N 0.46483 0.97314 0.95036
 N90 N 0.44145 0.97123 0.93364
 Mn91 Mn 0.49564 1.00436 0.94879
 C92 C 0.42768 0.94703 0.94447
 C93 C 0.56193 0.94506 0.93698
 N94 N 0.47109 1.05586 1.03742
 N95 N 0.44816 1.07310 1.04145
 N96 N 0.53318 1.03383 1.05358
 N97 N 0.55697 1.03676 1.06977
 N98 N 0.53178 1.05482 1.03320
 N99 N 0.55437 1.07253 1.03494
 N100 N 0.47204 1.03488 1.05785
 N101 N 0.44973 1.03738 1.07635
 Mn102 Mn 0.49961 1.05631 1.00323
 C103 C 0.43511 1.06147 1.06594
 C104 C 0.56992 1.06113 1.05783
 N105 N 0.53046 0.94906 1.03091
 N106 N 0.55251 0.93027 1.03262
 N107 N 0.47111 0.97055 1.05631
 N108 N 0.44916 0.96784 1.07517
 N109 N 0.46954 0.95035 1.03495
 N110 N 0.44654 0.93341 1.03872
 N111 N 0.53209 0.96937 1.05215
 N112 N 0.55525 0.96491 1.06887
 Mn113 Mn 0.49801 0.94998 1.00064
 Mn114 Mn 0.50216 1.00214 1.05542
 Cl115 Cl 0.49886 1.00316 1.00207
 C116 C 0.56781 0.94040 1.05645
 C117 C 0.43407 0.94446 1.06399
 N118 N 0.04684 0.47063 -0.03832
 N119 N 0.06373 0.44683 -0.04053
 N120 N 0.02566 0.53313 -0.05879
 N121 N 0.02840 0.55665 -0.07617
 N122 N 0.04496 0.53359 -0.03728
 N123 N 0.06140 0.55749 -0.03944
 N124 N 0.02743 0.47057 -0.05975
 N125 N 0.03060 0.44692 -0.07710
 C126 C 0.05342 0.43237 -0.06502
 C127 C 0.05084 0.57162 -0.06390
 N128 N -0.05719 0.53114 -0.04105
 N129 N -0.07437 0.55456 -0.04434
 N130 N -0.03461 0.46892 -0.06193
 N131 N -0.03561 0.44517 -0.07947
 N132 N -0.05551 0.46825 -0.04193
 N133 N -0.07128 0.44402 -0.04531
 N134 N -0.03627 0.53154 -0.06103
 N135 N -0.03856 0.55511 -0.07838
 Mn136 Mn -0.00444 0.50103 -0.06070
 C137 C -0.06247 0.56923 -0.06786
 C138 C -0.05870 0.42992 -0.06894
 N139 N 0.04271 0.53278 0.02731
 N140 N 0.05965 0.55596 0.03195
 N141 N 0.02396 0.46893 0.04629
 N142 N 0.02755 0.44534 0.06363
 N143 N 0.04467 0.47017 0.02609
 N144 N 0.06280 0.44763 0.02907
 N145 N 0.02199 0.53190 0.04753
 N146 N 0.02427 0.55453 0.06644
 Mn147 Mn 0.04516 0.50184 -0.00554
 C148 C 0.04792 0.56936 0.05646
 C149 C 0.05199 0.43232 0.05259
 N150 N -0.05798 0.46743 0.02246
 N151 N -0.07492 0.44392 0.02447
 N152 N -0.04053 0.53041 0.04517
 N153 N -0.04521 0.55349 0.06313
 N154 N -0.05969 0.53000 0.02347
 N155 N -0.07789 0.55259 0.02610
 N156 N -0.03869 0.46740 0.04403
 N157 N -0.04204 0.44378 0.06131
 Mn158 Mn -0.05796 0.49922 -0.00927
 Mn159 Mn -0.00834 0.49963 0.04623
 Cl160 Cl -0.00639 0.50043 -0.00725
 C161 C -0.06482 0.42937 0.04885
 C162 C -0.06871 0.56705 0.05096
 N163 N 1.05493 -0.03038 0.52879
 N164 N 1.07358 -0.03344 0.55087
 N165 N 1.03202 -0.05112 0.46684
 N166 N 1.03453 -0.06963 0.44390
 N167 N 1.05219 -0.03059 0.46580
 N168 N 1.06905 -0.03471 0.44211
 N169 N 1.03495 -0.05109 0.53004
 N170 N 1.03955 -0.06882 0.55320
 C171 C 1.06384 -0.05751 0.56593
 C172 C 1.05773 -0.05918 0.42864
 N173 N 0.94965 -0.02978 0.47108
 N174 N 0.93132 -0.03228 0.44866
 N175 N 0.97241 -0.05089 0.53292
 N176 N 0.97010 -0.06893 0.55610
 N177 N 0.95235 -0.03006 0.53404
 N178 N 0.93591 -0.03332 0.55807
 N179 N 0.96955 -0.05077 0.46970
 N180 N 0.96518 -0.06818 0.44613
 Mn181 Mn 1.00223 -0.05140 0.49988
 C182 C 0.94113 -0.05636 0.43328
 C183 C 0.94719 -0.05772 0.57159
 N184 N 1.05210 0.03380 0.46625
 N185 N 1.06890 0.03756 0.44256
 N186 N 1.03445 0.05444 0.53022
 N187 N 1.03788 0.07229 0.55343
 N188 N 1.05471 0.03383 0.52949
 N189 N 1.07250 0.03711 0.55246
 N190 N 1.03190 0.05446 0.46739
 N191 N 1.03432 0.07279 0.44447
 Mn192 Mn 1.05387 0.00165 0.49754
 C193 C 1.05752 0.06200 0.42917
 C194 C 1.06171 0.06136 0.56710
 N195 N 0.95234 0.03398 0.53435
 N196 N 0.93642 0.03662 0.55883
 N197 N 0.96991 0.05478 0.47061
 N198 N 0.96657 0.07250 0.44741
 N199 N 0.94969 0.03434 0.47117
 N200 N 0.93193 0.03767 0.44820
 N201 N 0.97235 0.05464 0.53357
 N202 N 0.97051 0.07200 0.55752
 Mn203 Mn 0.95065 0.00211 0.50267
 Mn204 Mn 1.00215 0.05489 0.50046
 Cl205 Cl 1.00225 0.00177 0.50013
 C206 C 0.94789 0.06051 0.57302
 C207 C 0.94276 0.06172 0.43366
 C208 C 1.16220 0.12195 0.23088
 C209 C 1.15096 0.10752 0.25604
 C210 C 1.13518 0.12336 0.27784
 C211 C 1.13135 0.15424 0.27421
 C212 C 1.14235 0.16870 0.24899
 C213 C 1.15800 0.15289 0.22669
 C214 C 1.12403 0.10711 0.30438
 C215 C 1.10237 0.11737 0.32182
 C216 C 1.09123 0.10183 0.34882
 C217 C 1.06498 0.11179 0.36145
 C218 C 1.05395 0.09873 0.38743
 C219 C 1.06896 0.07535 0.40139
 C220 C 1.09513 0.06518 0.38882
 C221 C 1.10630 0.07838 0.36292
 H222 H 1.17316 0.10834 0.21423
 H223 H 1.15435 0.08371 0.25830
 H224 H 1.12054 0.16766 0.29110
 H225 H 1.13962 0.19264 0.24796
 H226 H 1.13349 0.08549 0.30876
 H227 H 1.09143 0.13784 0.31575
 H228 H 1.05297 0.12988 0.35124
 H229 H 1.03369 0.10699 0.39661
 H230 H 1.10723 0.04731 0.39928
 H231 H 1.12695 0.07042 0.35461
 C232 C 0.88195 -0.15081 0.22869
 C233 C 0.89555 -0.14061 0.25467
 C234 C 0.87965 -0.12659 0.27757
 C235 C 0.84958 -0.12292 0.27380
 C236 C 0.83592 -0.13291 0.24767
 C237 C 0.85175 -0.14746 0.22468
 C238 C 0.89523 -0.11714 0.30513
 C239 C 0.88451 -0.09763 0.32523
 C240 C 0.90013 -0.08779 0.35260
 C241 C 0.89039 -0.06185 0.36722
 C242 C 0.90383 -0.05175 0.39329
 C243 C 0.92736 -0.06742 0.40552
 C244 C 0.93721 -0.09346 0.39111
 C245 C 0.92365 -0.10369 0.36497
 H246 H 0.89562 -0.16048 0.21142
 H247 H 0.91875 -0.14360 0.25681
 H248 H 0.83619 -0.11317 0.29122
 H249 H 0.81262 -0.13058 0.24655
 H250 H 0.91691 -0.12586 0.30807
 H251 H 0.86380 -0.08711 0.32105
 H252 H 0.87227 -0.04924 0.35839
 H253 H 0.89573 -0.03157 0.40388
 H254 H 0.95519 -0.10607 0.40020
 H255 H 0.93141 -0.12425 0.35502
 C256 C 0.83087 0.12214 0.76243
 C257 C 0.84185 0.10996 0.73581
 C258 C 0.87147 0.11145 0.72906
 C259 C 0.89015 0.12462 0.75005
 C260 C 0.87923 0.13699 0.77661
 C261 C 0.84929 0.13629 0.78330
 C262 C 0.88193 0.09850 0.70030
 C263 C 0.90722 0.10580 0.68736
 C264 C 0.91726 0.09350 0.65815
 C265 C 0.93892 0.10877 0.64231
 C266 C 0.94897 0.09809 0.61466
 C267 C 0.93755 0.07185 0.60230
 C268 C 0.91627 0.05624 0.61828
 C269 C 0.90634 0.06679 0.64600
 H270 H 0.80766 0.12158 0.76566
 H271 H 0.82696 0.09980 0.72010
 H272 H 0.91331 0.12502 0.74648
 H273 H 0.89471 0.14602 0.79233
 H274 H 0.86729 0.08365 0.68874
 H275 H 0.92065 0.12267 0.69761
 H276 H 0.94795 0.12919 0.65127
 H277 H 0.96556 0.11045 0.60289
 H278 H 0.90742 0.03566 0.60949
 H279 H 0.89049 0.05364 0.65786
 C280 C 1.12418 -0.14751 0.77145
 C281 C 1.11017 -0.13653 0.74603
 C282 C 1.12603 -0.12855 0.72042
 C283 C 1.15641 -0.13183 0.72082
 C284 C 1.17043 -0.14279 0.74631
 C285 C 1.15445 -0.15098 0.77181
 C286 C 1.10997 -0.11811 0.69357
 C287 C 1.12205 -0.10193 0.67165
 C288 C 1.10604 -0.09105 0.64499
 C289 C 1.11723 -0.06658 0.62938
 C290 C 1.10337 -0.05573 0.60387
 C291 C 1.07806 -0.06930 0.59312
 C292 C 1.06684 -0.09396 0.60850
 C293 C 1.08071 -0.10482 0.63417
 H294 H 1.11129 -0.15343 0.79085
 H295 H 1.08679 -0.13434 0.74637
 H296 H 1.16944 -0.12689 0.70130
 H297 H 1.19372 -0.14579 0.74570
 H298 H 1.08704 -0.12288 0.69272
 H299 H 1.14432 -0.09486 0.67383
 H300 H 1.13676 -0.05567 0.63704
 H301 H 1.11259 -0.03670 0.59250
 H302 H 1.04745 -0.10495 0.60059
 H303 H 1.07183 -0.12427 0.64502
 C304 C 0.25091 1.18018 1.13162
 C305 C 0.27674 1.16955 1.11895
 C306 C 0.28448 1.13937 1.12098
 C307 C 0.26524 1.11974 1.13520
 C308 C 0.23950 1.13031 1.14806
 C309 C 0.23186 1.16085 1.14689
 C310 C 0.31235 1.12930 1.10743
 C311 C 0.32592 1.10381 1.11489
 C312 C 0.35404 1.09379 1.10183
 C313 C 0.36950 1.07102 1.11640
 C314 C 0.39588 1.06055 1.10487
 C315 C 0.40740 1.07265 1.07846
 C316 C 0.39193 1.09522 1.06367
 C317 C 0.36547 1.10557 1.07507
 H318 H 0.24688 1.20392 1.13055
 H319 H 0.29105 1.18519 1.10796
 H320 H 0.26956 1.09605 1.13605
 H321 H 0.22515 1.11402 1.15789
 H322 H 0.32254 1.14441 1.09185
 H323 H 0.31683 1.09000 1.13233
 H324 H 0.36115 1.06130 1.13686
 H325 H 0.40725 1.04299 1.11664
 H326 H 0.40009 1.10466 1.04301
 H327 H 0.35400 1.12237 1.06245
 C328 C 0.25544 0.82564 0.86091
 C329 C 0.28073 0.83676 0.87373
 C330 C 0.28755 0.86706 0.87184
 C331 C 0.26887 0.88596 0.85571
 C332 C 0.24349 0.87487 0.84277
 C333 C 0.23589 0.84452 0.84557
 C334 C 0.31455 0.87752 0.88648
 C335 C 0.32021 0.90614 0.89285
 C336 C 0.34755 0.91595 0.90703
 C337 C 0.35809 0.94438 0.90025
 C338 C 0.38406 0.95437 0.91257
 C339 C 0.39982 0.93632 0.93243
 C340 C 0.38889 0.90820 0.94007
 C341 C 0.36300 0.89802 0.92742
 H342 H 0.25196 0.80187 0.86241
 H343 H 0.29503 0.82150 0.88536
 H344 H 0.27362 0.90934 0.85283
 H345 H 0.22936 0.89068 0.83179
 H346 H 0.33031 0.86063 0.89249
 H347 H 0.30497 0.92341 0.88669
 H348 H 0.34645 0.95873 0.88491
 H349 H 0.39179 0.97630 0.90650
 H350 H 0.40050 0.89398 0.95554
 H351 H 0.35500 0.87635 0.93391
 C352 C 0.76812 0.88677 1.14927
 C353 C 0.74277 0.89994 1.13835
 C354 C 0.71971 0.88234 1.12812
 C355 C 0.72247 0.85108 1.12949
 C356 C 0.74787 0.83790 1.14040
 C357 C 0.77099 0.85559 1.15045
 C358 C 0.69300 0.89751 1.11732
 C359 C 0.67323 0.88453 1.09955
 C360 C 0.64656 0.89981 1.08877
 C361 C 0.63236 0.88830 1.06345
 C362 C 0.60689 0.90155 1.05285
 C363 C 0.59491 0.92653 1.06748
 C364 C 0.60894 0.93802 1.09291
 C365 C 0.63440 0.92476 1.10355
 H366 H 0.78564 0.90105 1.15647
 H367 H 0.74124 0.92404 1.13773
 H368 H 0.70494 0.83663 1.12281
 H369 H 0.74921 0.81382 1.14153
 H370 H 0.69039 0.92076 1.12335
 H371 H 0.67711 0.86213 1.09133
 H372 H 0.64105 0.86900 1.05175
 H373 H 0.59655 0.89216 1.03321
 H374 H 0.60009 0.95712 1.10479
 H375 H 0.64401 0.93383 1.12367
 C376 C 0.76832 1.14625 0.89325
 C377 C 0.74203 1.13707 0.90562
 C378 C 0.72068 1.12400 0.88767
 C379 C 0.72620 1.12041 0.85681
 C380 C 0.75260 1.12930 0.84441
 C381 C 0.77418 1.14264 0.86231
 C382 C 0.69280 1.11548 0.90188
 C383 C 0.67370 1.09684 0.88924
 C384 C 0.64577 1.08827 0.90326
 C385 C 0.63135 1.06321 0.89185
 C386 C 0.60482 1.05435 0.90385
 C387 C 0.59205 1.07043 0.92756
 C388 C 0.60623 1.09562 0.93897
 C389 C 0.63275 1.10462 0.92684
 H390 H 0.78432 1.15526 0.90841
 H391 H 0.73843 1.14008 0.92947
 H392 H 0.71003 1.11157 0.84179
 H393 H 0.75518 1.12709 0.82038
 H394 H 0.68863 1.12421 0.92412
 H395 H 0.67899 1.08619 0.86811
 H396 H 0.64071 1.05032 0.87360
 H397 H 0.59439 1.03479 0.89462
 H398 H 0.59672 1.10851 0.95713
 H399 H 0.64253 1.12460 0.93577
 C400 C 0.14160 0.25762 0.17383
 C401 C 0.12652 0.28256 0.16338
 C402 C 0.12142 0.28632 0.13262
 C403 C 0.13145 0.26423 0.11247
 C404 C 0.14663 0.23932 0.12294
 C405 C 0.15183 0.23572 0.15373
 C406 C 0.10514 0.31315 0.12266
 C407 C 0.10675 0.32405 0.09474
 C408 C 0.09185 0.35170 0.08488
 C409 C 0.10263 0.36631 0.05947
 C410 C 0.08961 0.39243 0.04917
 C411 C 0.06527 0.40451 0.06389
 C412 C 0.05402 0.38974 0.08903
 C413 C 0.06715 0.36352 0.09945
 H414 H 0.14541 0.25551 0.19768
 H415 H 0.11895 0.29909 0.17941
 H416 H 0.12714 0.26563 0.08871
 H417 H 0.15369 0.22247 0.10701
 H418 H 0.09285 0.32519 0.13954
 H419 H 0.12109 0.31347 0.07863
 H420 H 0.12141 0.35761 0.04764
 H421 H 0.09867 0.40315 0.02958
 H422 H 0.03510 0.39841 0.10060
 H423 H 0.05762 0.35246 0.11856
 C424 C -0.14158 0.21838 -0.10719
 C425 C -0.12997 0.24465 -0.09546
 C426 C -0.12147 0.26786 -0.11452
 C427 C -0.12489 0.26427 -0.14569
 C428 C -0.13643 0.23799 -0.15740
 C429 C -0.14505 0.21486 -0.13828
 C430 C -0.11087 0.29599 -0.10102
 C431 C -0.09499 0.31599 -0.11604
 C432 C -0.08578 0.34482 -0.10298
 C433 C -0.06181 0.35937 -0.11552
 C434 C -0.05295 0.38703 -0.10444
 C435 C -0.06808 0.40078 -0.08073
 C436 C -0.09219 0.38640 -0.06828
 C437 C -0.10106 0.35876 -0.07935
 H438 H -0.14798 0.20084 -0.09196
 H439 H -0.12778 0.24693 -0.07137
 H440 H -0.11965 0.28197 -0.16114
 H441 H -0.13952 0.23615 -0.18141
 H442 H -0.11585 0.29983 -0.07758
 H443 H -0.08756 0.31089 -0.13854
 H444 H -0.04985 0.34926 -0.13391
 H445 H -0.03427 0.39764 -0.11446
 H446 H -0.10435 0.39661 -0.05009
 H447 H -0.12024 0.34881 -0.06975
 C448 C 0.17536 0.74529 -0.14198
 C449 C 0.16346 0.72010 -0.12855
 C450 C 0.13355 0.71828 -0.12333
 C451 C 0.11574 0.74252 -0.13135
 C452 C 0.12767 0.76773 -0.14482
 C453 C 0.15760 0.76937 -0.15028
 C454 C 0.12201 0.69109 -0.10893
 C455 C 0.09449 0.68213 -0.11172
 C456 C 0.08355 0.65409 -0.09855
 C457 C 0.05957 0.64028 -0.11183
 C458 C 0.04892 0.61350 -0.10052
 C459 C 0.06192 0.60012 -0.07550
 C460 C 0.08545 0.61426 -0.06169
 C461 C 0.09614 0.64105 -0.07302
 H462 H 0.19848 0.74581 -0.14615
 H463 H 0.17767 0.70182 -0.12245
 H464 H 0.09272 0.74244 -0.12678
 H465 H 0.11355 0.78623 -0.15045
 H466 H 0.13737 0.67708 -0.09723
 H467 H 0.07977 0.69456 -0.12583
 H468 H 0.04929 0.65004 -0.13128
 H469 H 0.03056 0.60322 -0.11145
 H470 H 0.09560 0.60462 -0.04211
 H471 H 0.11398 0.65157 -0.06149
 C472 C -0.12091 0.77528 0.13883
 C473 C -0.10830 0.74926 0.12737
 C474 C -0.12543 0.72461 0.11980
 C475 C -0.15569 0.72672 0.12369
 C476 C -0.16833 0.75285 0.13512
 C477 C -0.15102 0.77724 0.14320
 C478 C -0.11071 0.69691 0.10940
 C479 C -0.12397 0.67515 0.09408
 C480 C -0.10899 0.64765 0.08362
 C481 C -0.12041 0.63225 0.05896
 C482 C -0.10723 0.60614 0.04842
 C483 C -0.08247 0.59463 0.06255
 C484 C -0.07115 0.60972 0.08751
 C485 C -0.08431 0.63598 0.09802
 H486 H -0.10705 0.79385 0.14461
 H487 H -0.08498 0.74829 0.12466
 H488 H -0.16967 0.70802 0.11897
 H489 H -0.19153 0.75357 0.13873
 H490 H -0.08769 0.69511 0.11361
 H491 H -0.14631 0.67803 0.08739
 H492 H -0.13950 0.64058 0.04762
 H493 H -0.11651 0.59496 0.02916
 H494 H -0.05219 0.60122 0.09893
 H495 H -0.07537 0.64667 0.11769
 C496 C 1.14328 0.10905 0.77871
 C497 C 1.13399 0.09619 0.75183
 C498 C 1.12836 0.11398 0.72670
 C499 C 1.13243 0.14503 0.72897
 C500 C 1.14162 0.15788 0.75588
 C501 C 1.14730 0.14002 0.78097
 C502 C 1.11918 0.09931 0.69843
 C503 C 1.10440 0.11358 0.67698
 C504 C 1.09421 0.09915 0.64902
 C505 C 1.07093 0.11233 0.63388
 C506 C 1.06054 0.09994 0.60734
 C507 C 1.07340 0.07417 0.59508
 C508 C 1.09697 0.06103 0.60990
 C509 C 1.10736 0.07343 0.63666
 H510 H 1.14740 0.09476 0.79775
 H511 H 1.13118 0.07225 0.75068
 H512 H 1.12938 0.15946 0.70988
 H513 H 1.14521 0.18171 0.75678
 H514 H 1.12344 0.07566 0.69613
 H515 H 1.09781 0.13649 0.68062
 H516 H 1.06055 0.13223 0.64275
 H517 H 1.04236 0.11062 0.59640
 H518 H 1.10735 0.04123 0.60082
 H519 H 1.12590 0.06311 0.64721
 C520 C 0.82618 -0.12674 0.75510
 C521 C 0.83770 -0.11416 0.72910
 C522 C 0.86732 -0.11650 0.72252
 C523 C 0.88537 -0.13150 0.74289
 C524 C 0.87388 -0.14432 0.76885
 C525 C 0.84399 -0.14220 0.77560
 C526 C 0.87834 -0.10230 0.69469
 C527 C 0.90413 -0.10862 0.68210
 C528 C 0.91467 -0.09480 0.65389
 C529 C 0.93709 -0.10906 0.63792
 C530 C 0.94771 -0.09700 0.61123
 C531 C 0.93615 -0.07032 0.59995
 C532 C 0.91406 -0.05571 0.61608
 C533 C 0.90353 -0.06768 0.64287
 H534 H 0.80298 -0.12521 0.75824
 H535 H 0.82323 -0.10276 0.71384
 H536 H 0.90852 -0.13288 0.73945
 H537 H 0.88896 -0.15457 0.78423
 H538 H 0.86378 -0.08702 0.68356
 H539 H 0.91773 -0.12572 0.69178
 H540 H 0.94631 -0.12976 0.64600
 H541 H 0.96488 -0.10865 0.59935
 H542 H 0.90505 -0.03487 0.60813
 H543 H 0.88702 -0.05530 0.65492
 C544 C 1.16185 -0.12145 0.22964
 C545 C 1.15017 -0.10705 0.25480
 C546 C 1.13405 -0.12281 0.27612
 C547 C 1.12994 -0.15358 0.27169
 C548 C 1.14143 -0.16803 0.24640
 C549 C 1.15787 -0.15235 0.22488
 C550 C 1.12298 -0.10644 0.30295
 C551 C 1.10214 -0.11676 0.32120
 C552 C 1.09120 -0.10069 0.34826
 C553 C 1.06530 -0.11050 0.36145
 C554 C 1.05439 -0.09687 0.38738
 C555 C 1.06917 -0.07305 0.40084
 C556 C 1.09504 -0.06305 0.38776
 C557 C 1.10608 -0.07680 0.36185
 H558 H 1.17316 -0.10781 0.21350
 H559 H 1.15365 -0.08332 0.25751
 H560 H 1.11863 -0.16697 0.28801
 H561 H 1.13855 -0.19190 0.24486
 H562 H 1.13191 -0.08456 0.30696
 H563 H 1.09168 -0.13761 0.31580
 H564 H 1.05342 -0.12890 0.35168
 H565 H 1.03438 -0.10507 0.39694
 H566 H 1.10698 -0.04486 0.39780
 H567 H 1.12649 -0.06893 0.35311
 C568 C 0.84662 0.11239 0.22913
 C569 C 0.85678 0.09939 0.25549
 C570 C 0.86953 0.11681 0.27794
 C571 C 0.87171 0.14776 0.27354
 C572 C 0.86177 0.16080 0.24709
 C573 C 0.84876 0.14344 0.22437
 C574 C 0.87943 0.10197 0.30579
 C575 C 0.89894 0.11394 0.32446
 C576 C 0.90946 0.09936 0.35219
 C577 C 0.93495 0.11021 0.36521
 C578 C 0.94565 0.09785 0.39159
 C579 C 0.93105 0.07435 0.40568
 C580 C 0.90549 0.06339 0.39286
 C581 C 0.89466 0.07586 0.36641
 H582 H 0.83798 0.09762 0.21217
 H583 H 0.85488 0.07549 0.25823
 H584 H 0.88028 0.16228 0.29073
 H585 H 0.86297 0.18482 0.24545
 H586 H 0.87123 0.07985 0.31007
 H587 H 0.90891 0.13492 0.31868
 H588 H 0.94672 0.12834 0.35490
 H589 H 0.96545 0.10676 0.40092
 H590 H 0.89374 0.04539 0.40340
 H591 H 0.87451 0.06733 0.35767
 C592 C 0.16891 0.24496 -0.13339
 C593 C 0.15876 0.27191 -0.12151
 C594 C 0.12894 0.27746 -0.11878
 C595 C 0.10938 0.25520 -0.12794
 C596 C 0.11957 0.22823 -0.13991
 C597 C 0.14944 0.22279 -0.14264
 C598 C 0.11935 0.30630 -0.10561
 C599 C 0.09300 0.31813 -0.11009
 C600 C 0.08377 0.34751 -0.09792
 C601 C 0.06079 0.36241 -0.11197
 C602 C 0.05118 0.39006 -0.10136
 C603 C 0.06422 0.40336 -0.07627
 C604 C 0.08698 0.38839 -0.06186
 C605 C 0.09664 0.36066 -0.07250
 H606 H 0.19207 0.24152 -0.13551
 H607 H 0.17430 0.28857 -0.11456
 H608 H 0.08625 0.25812 -0.12532
 H609 H 0.10410 0.21131 -0.14636
 H610 H 0.13530 0.31888 -0.09320
 H611 H 0.07795 0.30685 -0.12477
 H612 H 0.05032 0.35270 -0.13138
 H613 H 0.03342 0.40096 -0.11280
 H614 H 0.09713 0.39797 -0.04221
 H615 H 0.11375 0.34947 -0.06039
 C616 C -0.14207 0.24844 0.16974
 C617 C -0.12969 0.27478 0.15920
 C618 C -0.12517 0.27915 0.12838
 C619 C -0.13305 0.25628 0.10828
 C620 C -0.14550 0.22993 0.11885
 C621 C -0.15010 0.22568 0.14970
 C622 C -0.11146 0.30738 0.11842
 C623 C -0.11355 0.31809 0.09044
 C624 C -0.10051 0.34670 0.08066
 C625 C -0.11169 0.36064 0.05504
 C626 C -0.10013 0.38749 0.04482
 C627 C -0.07691 0.40095 0.05989
 C628 C -0.06534 0.38688 0.08527
 C629 C -0.07693 0.35998 0.09554
 H630 H -0.14556 0.24596 0.19363
 H631 H -0.12373 0.29190 0.17521
 H632 H -0.12909 0.25820 0.08446
 H633 H -0.15093 0.21255 0.10291
 H634 H -0.10051 0.32041 0.13537
 H635 H -0.12667 0.30641 0.07417
 H636 H -0.12962 0.35081 0.04296
 H637 H -0.10939 0.39768 0.02506
 H638 H -0.04722 0.39659 0.09712
 H639 H -0.06701 0.34953 0.11476
 C640 C -0.15665 0.77518 -0.11407
 C641 C -0.14588 0.74887 -0.10165
 C642 C -0.13203 0.72742 -0.11962
 C643 C -0.12905 0.73295 -0.15051
 C644 C -0.13959 0.75938 -0.16298
 C645 C -0.15400 0.78093 -0.14510
 C646 C -0.12218 0.69928 -0.10541
 C647 C -0.10289 0.68052 -0.11797
 C648 C -0.09314 0.65226 -0.10398
 C649 C -0.06750 0.63902 -0.11464
 C650 C -0.05761 0.61212 -0.10281
 C651 C -0.07324 0.59772 -0.08006
 C652 C -0.09897 0.61076 -0.06935
 C653 C -0.10897 0.63771 -0.08129
 H654 H -0.16633 0.79130 -0.09890
 H655 H -0.14838 0.74531 -0.07776
 H656 H -0.11950 0.71663 -0.16550
 H657 H -0.13788 0.76178 -0.18704
 H658 H -0.13054 0.69460 -0.08325
 H659 H -0.09267 0.68645 -0.13895
 H660 H -0.05498 0.64957 -0.13220
 H661 H -0.03766 0.60260 -0.11151
 H662 H -0.11151 0.60000 -0.05195
 H663 H -0.12930 0.64658 -0.07302
 C664 C 0.17500 0.74013 0.14127
 C665 C 0.16278 0.71457 0.12862
 C666 C 0.13270 0.71236 0.12474
 C667 C 0.11503 0.73652 0.13372
 C668 C 0.12730 0.76213 0.14641
 C669 C 0.15744 0.76428 0.15021
 C670 C 0.12102 0.68510 0.11013
 C671 C 0.09330 0.67634 0.11214
 C672 C 0.08216 0.64891 0.09740
 C673 C 0.05721 0.63532 0.10904
 C674 C 0.04605 0.60947 0.09579
 C675 C 0.05949 0.59681 0.07042
 C676 C 0.08411 0.61068 0.05839
 C677 C 0.09529 0.63649 0.07163
 H678 H 0.19827 0.74094 0.14418
 H679 H 0.17694 0.69641 0.12183
 H680 H 0.09187 0.73620 0.13032
 H681 H 0.11324 0.78058 0.15253
 H682 H 0.13643 0.67110 0.09825
 H683 H 0.07835 0.68872 0.12624
 H684 H 0.04647 0.64458 0.12863
 H685 H 0.02692 0.59939 0.10544
 H686 H 0.09472 0.60165 0.03862
 H687 H 0.11389 0.64683 0.06126
 C688 C 0.22317 1.10833 0.86637
 C689 C 0.24829 1.09555 0.87818
 C690 C 0.27186 1.11347 0.88628
 C691 C 0.26990 1.14450 0.88214
 C692 C 0.24480 1.15725 0.87042
 C693 C 0.22124 1.13931 0.86230
 C694 C 0.29863 1.09895 0.89722
 C695 C 0.31857 1.11321 0.91361
 C696 C 0.34625 1.09941 0.92293
 C697 C 0.36110 1.11176 0.94738
 C698 C 0.38787 1.10021 0.95614
 C699 C 0.40040 1.07620 0.94042
 C700 C 0.38566 1.06383 0.91592
 C701 C 0.35890 1.07539 0.90713
 H702 H 0.20525 1.09401 0.86041
 H703 H 0.24935 1.07158 0.88090
 H704 H 0.28796 1.15900 0.88697
 H705 H 0.24415 1.18112 0.86684
 H706 H 0.30149 1.07551 0.89208
 H707 H 0.31434 1.13575 0.92129
 H708 H 0.35195 1.13043 0.95973
 H709 H 0.39880 1.11015 0.97515
 H710 H 0.39494 1.04540 0.90332
 H711 H 0.34866 1.06588 0.88754
 C712 C 0.25835 0.82141 1.13909
 C713 C 0.28409 0.83240 1.12690
 C714 C 0.28827 0.86318 1.12352
 C715 C 0.26578 0.88281 1.13203
 C716 C 0.24001 0.87181 1.14421
 C717 C 0.23603 0.84099 1.14799
 C718 C 0.31588 0.87373 1.11018
 C719 C 0.32642 0.90129 1.11433
 C720 C 0.35420 0.91160 1.10115
 C721 C 0.36851 0.93578 1.11454
 C722 C 0.39456 0.94639 1.10264
 C723 C 0.40673 0.93314 1.07690
 C724 C 0.39228 0.90921 1.06322
 C725 C 0.36625 0.89860 1.07511
 H726 H 0.25610 0.79757 1.14198
 H727 H 0.30094 0.81676 1.12034
 H728 H 0.26767 0.90661 1.12882
 H729 H 0.22298 0.88742 1.15026
 H730 H 0.32856 0.85750 1.09773
 H731 H 0.31513 0.91665 1.12912
 H732 H 0.35957 0.94642 1.13440
 H733 H 0.40511 0.96502 1.11353
 H734 H 0.40096 0.89880 1.04314
 H735 H 0.35546 0.88064 1.06345
 C736 C 0.77527 1.11236 1.13838
 C737 C 0.75007 1.09904 1.12759
 C738 C 0.72570 1.11641 1.12053
 C739 C 0.72720 1.14759 1.12425
 C740 C 0.75248 1.16092 1.13497
 C741 C 0.77662 1.14340 1.14253
 C742 C 0.69885 1.10105 1.11091
 C743 C 0.67755 1.11458 1.09573
 C744 C 0.65053 1.09951 1.08630
 C745 C 0.63477 1.11188 1.06257
 C746 C 0.60877 1.09918 1.05333
 C747 C 0.59772 1.07389 1.06781
 C748 C 0.61333 1.06142 1.09166
 C749 C 0.63949 1.07415 1.10092
 H750 H 0.79365 1.09834 1.14387
 H751 H 0.74952 1.07502 1.12503
 H752 H 0.70868 1.16178 1.12002
 H753 H 0.75272 1.18482 1.13852
 H754 H 0.69725 1.07747 1.11567
 H755 H 0.68033 1.13740 1.08856
 H756 H 0.64263 1.13149 1.05106
 H757 H 0.59724 1.10933 1.03486
 H758 H 0.60520 1.04203 1.10330
 H759 H 0.65055 1.06445 1.11988
 C760 C 0.76619 0.86100 0.88672
 C761 C 0.74040 0.87138 0.89959
 C762 C 0.71661 0.87876 0.88155
 C763 C 0.71910 0.87541 0.85022
 C764 C 0.74493 0.86510 0.83735
 C765 C 0.76866 0.85762 0.85548
 C766 C 0.68936 0.88861 0.89632
 C767 C 0.66875 0.90441 0.88235
 C768 C 0.64154 0.91427 0.89713
 C769 C 0.62673 0.93891 0.88532
 C770 C 0.60086 0.94885 0.89829
 C771 C 0.58910 0.93414 0.92322
 C772 C 0.60363 0.90924 0.93489
 C773 C 0.62957 0.89929 0.92192
 H774 H 0.78422 0.85557 0.90121
 H775 H 0.73903 0.87360 0.92376
 H776 H 0.70101 0.87985 0.83555
 H777 H 0.74605 0.86211 0.81326
 H778 H 0.68695 0.88365 0.91992
 H779 H 0.67235 0.91185 0.85960
 H780 H 0.63533 0.95068 0.86611
 H781 H 0.59010 0.96811 0.88879
 H782 H 0.59492 0.89739 0.95398
 H783 H 0.63981 0.87961 0.93108
   
