data_POSCAR
  _audit_creation_date              2014-09-24
  _audit_creation_method            'ToBaCCo'
  _symmetry_space_group_name_H-M    'P1'
  _symmetry_Int_Tables_number       1
  _symmetry_cell_setting            triclinic
  loop_
  _symmetry_equiv_pos_as_xyz
 x,y,z
_cell_length_a 49.9072
_cell_length_b 50.0584
_cell_length_c 47.9676
_cell_angle_alpha 89.987100
_cell_angle_beta 90.326200
_cell_angle_gamma 89.621900
loop_
  _atom_site_label
  _atom_site_type_symbol
  _atom_site_fract_x
  _atom_site_fract_y
  _atom_site_fract_z
C1 C 0.15899 0.17663 0.18835
 C2 C 0.15946 0.19744 0.16864
 C3 C 0.17868 0.19730 0.14799
 C4 C 0.19764 0.17660 0.14670
 C5 C 0.19722 0.15632 0.16603
 C6 C 0.17773 0.15631 0.18697
 C7 C 0.14306 0.17146 0.21107
 N8 N 0.15163 0.14841 0.22373
 C9 C 0.17299 0.13924 0.20873
 C10 C 0.21845 0.13961 0.16032
 N11 N 0.23209 0.14922 0.13785
 C12 C 0.21908 0.17198 0.12950
 C13 C 0.17491 0.21985 0.13216
 N14 N 0.15390 0.23398 0.14261
 C15 C 0.14429 0.22032 0.16496
 H16 H 0.12671 0.18413 0.21776
 H17 H 0.18458 0.12136 0.21279
 H18 H 0.22331 0.12187 0.17218
 H19 H 0.22480 0.18503 0.11266
 H20 H 0.18660 0.22535 0.11414
 H21 H 0.12785 0.22675 0.17801
 C22 C -0.15710 0.82440 0.19608
 C23 C -0.15498 0.80367 0.17649
 C24 C -0.17326 0.80206 0.15482
 C25 C -0.19394 0.82103 0.15245
 C26 C -0.19599 0.84133 0.17171
 C27 C -0.17742 0.84304 0.19370
 C28 C -0.14239 0.83088 0.21940
 N29 N -0.15317 0.85318 0.23155
 C30 C -0.17478 0.86053 0.21561
 C31 C -0.21817 0.85630 0.16468
 N32 N -0.23002 0.84566 0.14147
 C33 C -0.21494 0.82395 0.13400
 C34 C -0.16668 0.77990 0.13934
 N35 N -0.14485 0.76785 0.15107
 C36 C -0.13759 0.78237 0.17384
 H37 H -0.12522 0.81961 0.22673
 H38 H -0.18789 0.87743 0.21912
 H39 H -0.22506 0.87341 0.17639
 H40 H -0.21862 0.81079 0.11659
 H41 H -0.17702 0.77325 0.12074
 H42 H -0.12122 0.77757 0.18790
 C43 C -0.15912 0.17346 -0.18776
 C44 C -0.15929 0.19412 -0.16789
 C45 C -0.17809 0.19399 -0.14684
 C46 C -0.19693 0.17345 -0.14532
 C47 C -0.19685 0.15331 -0.16482
 C48 C -0.17773 0.15327 -0.18618
 C49 C -0.14354 0.16837 -0.21079
 N50 N -0.15214 0.14546 -0.22347
 C51 C -0.17322 0.13632 -0.20818
 C52 C -0.21792 0.13675 -0.15870
 N53 N -0.23105 0.14633 -0.13580
 C54 C -0.21795 0.16891 -0.12763
 C55 C -0.17410 0.21640 -0.13092
 N56 N -0.15337 0.23043 -0.14172
 C57 C -0.14414 0.21684 -0.16437
 H58 H -0.12729 0.18092 -0.21752
 H59 H -0.18486 0.11864 -0.21228
 H60 H -0.22295 0.11907 -0.17047
 H61 H -0.22338 0.18193 -0.11060
 H62 H -0.18547 0.22188 -0.11263
 H63 H -0.12800 0.22322 -0.17773
 C64 C 0.15760 0.82082 -0.19282
 C65 C 0.15802 0.80060 -0.17256
 C66 C 0.17719 0.80092 -0.15172
 C67 C 0.19623 0.82133 -0.15086
 C68 C 0.19594 0.84114 -0.17081
 C69 C 0.17637 0.84091 -0.19201
 C70 C 0.14137 0.82547 -0.21553
 N71 N 0.14960 0.84806 -0.22892
 C72 C 0.17121 0.85746 -0.21436
 C73 C 0.21717 0.85773 -0.16504
 N74 N 0.23055 0.84850 -0.14195
 C75 C 0.21747 0.82611 -0.13334
 C76 C 0.17313 0.77889 -0.13523
 N77 N 0.15194 0.76500 -0.14554
 C78 C 0.14258 0.77825 -0.16843
 H79 H 0.12497 0.81273 -0.22160
 H80 H 0.18259 0.87515 -0.21911
 H81 H 0.22214 0.87519 -0.17714
 H82 H 0.22296 0.81341 -0.11601
 H83 H 0.18471 0.77360 -0.11689
 H84 H 0.12610 0.77191 -0.18155
 C85 C 0.17512 1.15867 0.80832
 C86 C 0.19651 1.15773 0.82736
 C87 C 0.19879 1.17704 0.84783
 C88 C 0.17955 1.19760 0.84954
 C89 C 0.15853 1.19835 0.83080
 C90 C 0.15631 1.17880 0.81005
 C91 C 0.16836 1.14312 0.78578
 N92 N 0.14572 1.15328 0.77346
 C93 C 0.13835 1.17522 0.78859
 C94 C 0.14324 1.22041 0.83689
 N95 N 0.15422 1.23351 0.85912
 C96 C 0.17663 1.21938 0.86684
 C97 C 0.22179 1.17136 0.86278
 N98 N 0.23349 1.14907 0.85186
 C99 C 0.21801 1.14066 0.83020
 H100 H 0.17957 1.12573 0.77920
 H101 H 0.12161 1.18840 0.78432
 H102 H 0.12551 1.22618 0.82532
 H103 H 0.19016 1.22418 0.88373
 H104 H 0.22965 1.18300 0.87994
 H105 H 0.22188 1.12325 0.81744
 C106 C 0.82332 0.84523 0.80961
 C107 C 0.80353 0.84275 0.83007
 C108 C 0.80459 0.82177 0.84881
 C109 C 0.82551 0.80291 0.84726
 C110 C 0.84489 0.80544 0.82712
 C111 C 0.84381 0.82676 0.80821
 C112 C 0.82722 0.86336 0.78849
 N113 N 0.84977 0.85645 0.77404
 C114 C 0.85987 0.83387 0.78633
 C115 C 0.86228 0.78426 0.83003
 N116 N 0.85411 0.76847 0.85157
 C117 C 0.83145 0.78010 0.86215
 C118 C 0.78267 0.82427 0.86595
 N119 N 0.76828 0.84624 0.85805
 C120 C 0.78100 0.85756 0.83604
 H121 H 0.81430 0.88032 0.78444
 H122 H 0.87740 0.82274 0.77997
 H123 H 0.87943 0.78092 0.81684
 H124 H 0.81962 0.77278 0.87927
 H125 H 0.77778 0.81110 0.88304
 H126 H 0.77418 0.87502 0.82467
 C127 C 0.17616 0.84438 1.18905
 C128 C 0.19575 0.84169 1.16839
 C129 C 0.19448 0.82087 1.14951
 C130 C 0.17350 0.80235 1.15112
 C131 C 0.15423 0.80511 1.17152
 C132 C 0.15560 0.82628 1.19057
 C133 C 0.17263 0.86241 1.21036
 N134 N 0.15028 0.85578 1.22512
 C135 C 0.13988 0.83350 1.21278
 C136 C 0.13670 0.78424 1.16861
 N137 N 0.14481 0.76864 1.14700
 C138 C 0.16735 0.77968 1.13615
 C139 C 0.21620 0.82327 1.13209
 N140 N 0.23064 0.84503 1.13997
 C141 C 0.21816 0.85629 1.16226
 H142 H 0.18596 0.87884 1.21462
 H143 H 0.12215 0.82288 1.21906
 H144 H 0.11921 0.78084 1.18133
 H145 H 0.17888 0.77156 1.11907
 H146 H 0.22088 0.81022 1.11479
 H147 H 0.22505 0.87360 1.17366
 C148 C 0.82306 1.15966 1.19107
 C149 C 0.80315 1.15866 1.17028
 C150 C 0.80305 1.17724 1.14894
 C151 C 0.82270 1.19711 1.14812
 C152 C 0.84215 1.19811 1.16864
 C153 C 0.84233 1.17923 1.19021
 C154 C 0.82813 1.14445 1.21445
 N155 N 0.85018 1.15421 1.22801
 C156 C 0.85875 1.17567 1.21296
 C157 C 0.85789 1.21993 1.16324
 N158 N 0.84850 1.23230 1.13986
 C159 C 0.82695 1.21832 1.13048
 C160 C 0.78121 1.17204 1.13230
 N161 N 0.76784 1.15080 1.14298
 C162 C 0.78126 1.14248 1.16623
 H163 H 0.81617 1.12764 1.22079
 H164 H 0.87579 1.18809 1.21762
 H165 H 0.87443 1.22669 1.17602
 H166 H 0.81508 1.22315 1.11219
 H167 H 0.77558 1.18304 1.11373
 H168 H 0.77520 1.12634 1.17976
 N169 N 0.52910 1.04361 0.97300
 N170 N 0.55064 1.05860 0.97056
 N171 N 0.47169 1.02771 0.95356
 N172 N 0.45038 1.03185 0.93760
 N173 N 0.47269 1.04548 0.97366
 N174 N 0.45211 1.06205 0.97203
 N175 N 0.52810 1.02588 0.95288
 N176 N 0.54889 1.02829 0.93624
 C177 C 0.56275 1.04885 0.94744
 C178 C 0.43840 1.05343 0.94939
 N179 N 0.47036 0.95079 0.96976
 N180 N 0.44912 0.93554 0.96622
 N181 N 0.52686 0.96856 0.95068
 N182 N 0.54789 0.96635 0.93427
 N183 N 0.52681 0.94928 0.96925
 N184 N 0.54775 0.93337 0.96586
 N185 N 0.47047 0.97014 0.95127
 N186 N 0.44940 0.96854 0.93464
 Mn187 Mn 0.49923 0.99808 0.95174
 C188 C 0.43627 0.94682 0.94416
 C189 C 0.56067 0.94421 0.94386
 N190 N 0.47334 1.04326 1.03341
 N191 N 0.45240 1.05921 1.03656
 N192 N 0.52945 1.02227 1.05164
 N193 N 0.55051 1.02396 1.06834
 N194 N 0.52972 1.04148 1.03303
 N195 N 0.55085 1.05682 1.03661
 N196 N 0.47301 1.02396 1.05193
 N197 N 0.45190 1.02628 1.06820
 Mn198 Mn 0.50126 1.04379 1.00328
 C199 C 0.43929 1.04844 1.05846
 C200 C 0.56364 1.04568 1.05875
 N201 N 0.52768 0.94713 1.02940
 N202 N 0.54883 0.93119 1.03149
 N203 N 0.47158 0.96656 1.04962
 N204 N 0.45059 0.96401 1.06599
 N205 N 0.47114 0.94852 1.02977
 N206 N 0.44986 0.93316 1.03216
 N207 N 0.52790 0.96502 1.04941
 N208 N 0.54908 0.96179 1.06558
 Mn209 Mn 0.49902 0.94855 0.99952
 Mn210 Mn 0.50046 0.99443 1.05099
 Cl211 Cl 0.49999 0.99620 1.00137
 C212 C 0.56193 0.94056 1.05431
 C213 C 0.43726 0.94301 1.05493
 N214 N 0.02869 0.47363 0.04831
 N215 N 0.03150 0.45300 0.06517
 N216 N 0.04589 0.52926 0.02703
 N217 N 0.06153 0.55029 0.02872
 N218 N 0.02761 0.52990 0.04660
 N219 N 0.03050 0.55143 0.06229
 N220 N 0.04691 0.47301 0.02868
 N221 N 0.06276 0.45194 0.03183
 C222 C 0.05291 0.43970 0.05479
 C223 C 0.05184 0.56392 0.05084
 N224 N 0.02564 0.52789 -0.05154
 N225 N 0.02759 0.54863 -0.06837
 N226 N 0.04588 0.47191 -0.03156
 N227 N 0.06213 0.45118 -0.03437
 N228 N 0.02711 0.47166 -0.05084
 N229 N 0.03002 0.45068 -0.06721
 N230 N 0.04486 0.52812 -0.03274
 N231 N 0.06043 0.54904 -0.03631
 Mn232 Mn 0.04623 0.50050 -0.00214
 C233 C 0.04946 0.56162 -0.05867
 C234 C 0.05202 0.43813 -0.05677
 N235 N -0.03033 0.52871 0.04734
 N236 N -0.03377 0.54983 0.06346
 N237 N -0.04745 0.47127 0.02973
 N238 N -0.06249 0.44997 0.03315
 N239 N -0.02872 0.47238 0.04900
 N240 N -0.03040 0.45168 0.06597
 N241 N -0.04945 0.52734 0.02850
 N242 N -0.06642 0.54746 0.03130
 Mn243 Mn -0.00068 0.50126 0.04819
 C244 C -0.05644 0.56131 0.05321
 C245 C -0.05167 0.43795 0.05589
 N246 N -0.03030 0.47052 -0.05010
 N247 N -0.03248 0.44952 -0.06651
 N248 N -0.05051 0.52615 -0.03125
 N249 N -0.06709 0.54661 -0.03364
 N250 N -0.03216 0.52686 -0.05072
 N251 N -0.03583 0.54794 -0.06695
 N252 N -0.04850 0.46998 -0.03046
 N253 N -0.06372 0.44862 -0.03315
 Mn254 Mn -0.00244 0.49931 -0.05116
 Mn255 Mn -0.04930 0.49860 -0.00087
 Cl256 Cl -0.00154 0.49992 -0.00149
 C257 C -0.05347 0.43606 -0.05580
 C258 C -0.05783 0.56000 -0.05606
 N259 N 0.97599 -0.04345 0.53257
 N260 N 0.97444 -0.05954 0.55429
 N261 N 0.95312 -0.02709 0.47442
 N262 N 0.93625 -0.03106 0.45349
 N263 N 0.97236 -0.04510 0.47413
 N264 N 0.96915 -0.06173 0.45312
 N265 N 0.95666 -0.02556 0.53309
 N266 N 0.94143 -0.02896 0.55520
 C267 C 0.95278 -0.05024 0.56824
 C268 C 0.94651 -0.05286 0.44045
 N269 N 0.96898 0.04960 0.47171
 N270 N 0.96413 0.06512 0.44999
 N271 N 0.95472 0.03192 0.53179
 N272 N 0.93958 0.03531 0.55402
 N273 N 0.97279 0.05080 0.53027
 N274 N 0.97040 0.06755 0.55136
 N275 N 0.95112 0.03052 0.47319
 N276 N 0.93364 0.03255 0.45254
 Mn277 Mn 0.95354 0.00244 0.50311
 C278 C 0.94196 0.05428 0.43827
 C279 C 0.94959 0.05767 0.56603
 N280 N 1.02966 -0.04365 0.47031
 N281 N 1.03181 -0.06050 0.44930
 N282 N 1.05160 -0.02319 0.52693
 N283 N 1.06921 -0.02527 0.54750
 N284 N 1.03351 -0.04200 0.52880
 N285 N 1.03830 -0.05739 0.55060
 N286 N 1.04752 -0.02463 0.46830
 N287 N 1.06236 -0.02805 0.44586
 Mn288 Mn 1.00289 -0.04384 0.50151
 C289 C 1.05232 -0.05056 0.43422
 C290 C 1.06068 -0.04678 0.56208
 N291 N 1.03042 0.05215 0.52655
 N292 N 1.03392 0.06793 0.54834
 N293 N 1.04558 0.03299 0.46686
 N294 N 1.06065 0.03666 0.44467
 N295 N 1.02647 0.05110 0.46794
 N296 N 1.02799 0.06754 0.44650
 N297 N 1.04964 0.03416 0.52533
 N298 N 1.06668 0.03718 0.54616
 Mn299 Mn 0.99966 0.05126 0.49914
 Mn300 Mn 1.04892 0.00485 0.49677
 Cl301 Cl 1.00124 0.00369 0.50013
 C302 C 1.05674 0.05839 0.56027
 C303 C 1.04940 0.05830 0.43213
 C304 C 1.15309 0.11369 0.25928
 C305 C 1.14240 0.10178 0.28303
 C306 C 1.11944 0.11221 0.29550
 C307 C 1.10708 0.13491 0.28389
 C308 C 1.11770 0.14697 0.26007
 C309 C 1.14102 0.13664 0.24716
 N310 N 1.10933 0.09942 0.31997
 N311 N 1.08852 0.10765 0.33263
 C312 C 1.07884 0.09468 0.35722
 C313 C 1.05603 0.10492 0.37037
 C314 C 1.04634 0.09300 0.39465
 C315 C 1.05939 0.07057 0.40618
 C316 C 1.08216 0.06017 0.39283
 C317 C 1.09183 0.07211 0.36856
 H318 H 1.17101 0.10469 0.25096
 H319 H 1.15215 0.08431 0.29186
 H320 H 1.08922 0.14335 0.29319
 H321 H 1.10722 0.16424 0.25197
 H322 H 1.04581 0.12227 0.36185
 H323 H 1.02871 0.10142 0.40445
 H324 H 1.09258 0.04288 0.40122
 H325 H 1.10950 0.06378 0.35877
 C326 C 0.84215 -0.11198 0.26672
 C327 C 0.85151 -0.09924 0.29079
 C328 C 0.87479 -0.10816 0.30418
 C329 C 0.88876 -0.13013 0.29319
 C330 C 0.87953 -0.14295 0.26916
 C331 C 0.85595 -0.13420 0.25528
 N332 N 0.88388 -0.09470 0.32883
 N333 N 0.90496 -0.10221 0.34174
 C334 C 0.91466 -0.08930 0.36640
 C335 C 0.93799 -0.09925 0.37898
 C336 C 0.94822 -0.08737 0.40305
 C337 C 0.93523 -0.06521 0.41503
 C338 C 0.91178 -0.05514 0.40238
 C339 C 0.90152 -0.06711 0.37820
 H340 H 0.82395 -0.10418 0.25753
 H341 H 0.84051 -0.08232 0.29908
 H342 H 0.90690 -0.13744 0.30314
 H343 H 0.89132 -0.15957 0.26170
 H344 H 0.94828 -0.11630 0.37006
 H345 H 0.96636 -0.09555 0.41225
 H346 H 0.90142 -0.03804 0.41115
 H347 H 0.88344 -0.05906 0.36878
 C348 C 0.84701 0.11031 0.74140
 C349 C 0.85752 0.09857 0.71738
 C350 C 0.87951 0.10971 0.70398
 C351 C 0.89107 0.13294 0.71494
 C352 C 0.88064 0.14482 0.73901
 C353 C 0.85828 0.13381 0.75285
 N354 N 0.88954 0.09708 0.67929
 N355 N 0.90951 0.10607 0.66592
 C356 C 0.91932 0.09340 0.64115
 C357 C 0.94126 0.10452 0.62742
 C358 C 0.95116 0.09286 0.60305
 C359 C 0.93922 0.06980 0.59197
 C360 C 0.91729 0.05854 0.60584
 C361 C 0.90739 0.07024 0.63023
 H362 H 0.82994 0.10065 0.75056
 H363 H 0.84840 0.08064 0.70910
 H364 H 0.90816 0.14195 0.70493
 H365 H 0.89045 0.16260 0.74644
 H366 H 0.95065 0.12233 0.63562
 H367 H 0.96813 0.10194 0.59285
 H368 H 0.90773 0.04075 0.59782
 H369 H 0.89042 0.06123 0.64047
 C370 C 1.11474 -0.15169 0.73537
 C371 C 1.10327 -0.14053 0.71140
 C372 C 1.11469 -0.11833 0.69869
 C373 C 1.13793 -0.10719 0.71028
 C374 C 1.14954 -0.11827 0.73431
 C375 C 1.13823 -0.14087 0.74745
 N376 N 1.10225 -0.10769 0.67407
 N377 N 1.11122 -0.08747 0.66110
 C378 C 1.09829 -0.07743 0.63643
 C379 C 1.10891 -0.05511 0.62290
 C380 C 1.09674 -0.04502 0.59868
 C381 C 1.07371 -0.05720 0.58764
 C382 C 1.06304 -0.07953 0.60131
 C383 C 1.07520 -0.08957 0.62546
 H384 H 1.10469 -0.16868 0.74419
 H385 H 1.08529 -0.14927 0.70267
 H386 H 1.14717 -0.08998 0.70074
 H387 H 1.16752 -0.10896 0.74211
 H388 H 1.12667 -0.04555 0.63113
 H389 H 1.10534 -0.02774 0.58862
 H390 H 1.04528 -0.08929 0.59333
 H391 H 1.06655 -0.10682 0.63550
 C392 C 0.26659 1.14975 1.10217
 C393 C 0.29021 1.13929 1.09097
 C394 C 0.30292 1.11736 1.10332
 C395 C 0.29156 1.10564 1.12699
 C396 C 0.26795 1.11599 1.13830
 C397 C 0.25497 1.13849 1.12630
 N398 N 0.32746 1.10762 1.09167
 N399 N 0.34006 1.08774 1.10198
 C400 C 0.36477 1.07820 1.09057
 C401 C 0.37725 1.05596 1.10277
 C402 C 0.40153 1.04627 1.09236
 C403 C 0.41373 1.05880 1.06954
 C404 C 0.40116 1.08110 1.05725
 C405 C 0.37685 1.09074 1.06767
 H406 H 0.25774 1.16663 1.09151
 H407 H 0.29874 1.14843 1.07261
 H408 H 0.30105 1.08858 1.13692
 H409 H 0.26042 1.10629 1.15671
 H410 H 0.36813 1.04614 1.12042
 H411 H 0.41073 1.02899 1.10217
 H412 H 0.41007 1.09107 1.03958
 H413 H 0.36757 1.10798 1.05788
 C414 C 0.26413 0.84856 0.89505
 C415 C 0.28747 0.85895 0.90684
 C416 C 0.30062 0.88026 0.89432
 C417 C 0.28998 0.89142 0.86979
 C418 C 0.26660 0.88110 0.85783
 C419 C 0.25320 0.85922 0.87007
 N420 N 0.32486 0.88986 0.90678
 N421 N 0.33787 0.90936 0.89673
 C422 C 0.36230 0.91853 0.90917
 C423 C 0.37527 0.94048 0.89745
 C424 C 0.39930 0.94974 0.90886
 C425 C 0.41081 0.93706 0.93222
 C426 C 0.39774 0.91506 0.94405
 C427 C 0.37366 0.90586 0.93264
 H428 H 0.25492 0.83223 0.90598
 H429 H 0.29544 0.85026 0.92586
 H430 H 0.29984 0.90799 0.85969
 H431 H 0.25959 0.89027 0.83877
 H432 H 0.36673 0.95041 0.87937
 H433 H 0.40891 0.96677 0.89935
 H434 H 0.40611 0.90496 0.96210
 H435 H 0.36402 0.88882 0.94209
 C436 C 0.73562 0.84108 1.10547
 C437 C 0.71191 0.85010 1.09283
 C438 C 0.69883 0.87293 1.10265
 C439 C 0.70993 0.88694 1.12519
 C440 C 0.73359 0.87807 1.13789
 C441 C 0.74696 0.85476 1.12850
 N442 N 0.67423 0.88140 1.08975
 N443 N 0.66143 0.90169 1.09869
 C444 C 0.63669 0.91084 1.08677
 C445 C 0.62420 0.93308 1.09869
 C446 C 0.59991 0.94261 1.08808
 C447 C 0.58763 0.93003 1.06520
 C448 C 0.60023 0.90773 1.05306
 C449 C 0.62463 0.89814 1.06380
 H450 H 0.74457 0.82317 1.09706
 H451 H 0.70357 0.83911 1.07541
 H452 H 0.70028 0.90478 1.13314
 H453 H 0.74104 0.88984 1.15504
 H454 H 0.63333 0.94302 1.11637
 H455 H 0.59076 0.95990 1.09783
 H456 H 0.59122 0.89772 1.03536
 H457 H 0.63400 0.88089 1.05424
 C458 C 0.73585 1.14651 0.90128
 C459 C 0.71253 1.13629 0.91308
 C460 C 0.69906 1.11511 0.90051
 C461 C 0.70937 1.10389 0.87599
 C462 C 0.73270 1.11401 0.86407
 C463 C 0.74640 1.13577 0.87630
 N464 N 0.67481 1.10568 0.91281
 N465 N 0.66147 1.08657 0.90227
 C466 C 0.63701 1.07733 0.91426
 C467 C 0.62361 1.05610 0.90151
 C468 C 0.59948 1.04682 0.91234
 C469 C 0.58831 1.05872 0.93617
 C470 C 0.60183 1.07996 0.94907
 C471 C 0.62601 1.08922 0.93821
 H472 H 0.74538 1.16274 0.91220
 H473 H 0.70484 1.14503 0.93210
 H474 H 0.69927 1.08743 0.86585
 H475 H 0.73938 1.10481 0.84498
 H476 H 0.63189 1.04678 0.88307
 H477 H 0.58955 1.03035 0.90201
 H478 H 0.59371 1.08943 0.96751
 H479 H 0.63601 1.10568 0.94844
 C480 C 0.16071 0.27585 0.11613
 C481 C 0.15097 0.29977 0.10490
 C482 C 0.12443 0.30766 0.10926
 C483 C 0.10758 0.29129 0.12517
 C484 C 0.11725 0.26721 0.13629
 C485 C 0.14394 0.25911 0.13180
 N486 N 0.11513 0.33220 0.09714
 N487 N 0.09195 0.34174 0.10204
 C488 C 0.08263 0.36618 0.08971
 C489 C 0.05827 0.37706 0.09859
 C490 C 0.04869 0.40101 0.08727
 C491 C 0.06327 0.41438 0.06658
 C492 C 0.08759 0.40330 0.05739
 C493 C 0.09730 0.37943 0.06896
 H494 H 0.18149 0.27063 0.11267
 H495 H 0.16419 0.31227 0.09280
 H496 H 0.08691 0.29695 0.12875
 H497 H 0.10367 0.25475 0.14793
 H498 H 0.04675 0.36700 0.11448
 H499 H 0.02979 0.40900 0.09464
 H500 H 0.09917 0.41317 0.04143
 H501 H 0.11615 0.37133 0.06165
 C502 C -0.15997 0.27225 -0.11500
 C503 C -0.15019 0.29609 -0.10393
 C504 C -0.12379 0.30384 -0.10879
 C505 C -0.10710 0.28739 -0.12502
 C506 C -0.11680 0.26338 -0.13599
 C507 C -0.14336 0.25545 -0.13101
 N508 N -0.11450 0.32834 -0.09685
 N509 N -0.09146 0.33777 -0.10207
 C510 C -0.08228 0.36222 -0.08989
 C511 C -0.05812 0.37305 -0.09904
 C512 C -0.04878 0.39708 -0.08795
 C513 C -0.06340 0.41056 -0.06723
 C514 C -0.08748 0.39949 -0.05775
 C515 C -0.09694 0.37556 -0.06908
 H516 H -0.18064 0.26716 -0.11115
 H517 H -0.16329 0.30866 -0.09157
 H518 H -0.08654 0.29293 -0.12899
 H519 H -0.10336 0.25086 -0.14793
 H520 H -0.04661 0.36293 -0.11498
 H521 H -0.03007 0.40506 -0.09554
 H522 H -0.09910 0.40945 -0.04178
 H523 H -0.11563 0.36750 -0.06156
 C524 C 0.15791 0.72359 -0.11786
 C525 C 0.14782 0.69996 -0.10670
 C526 C 0.12133 0.69249 -0.11188
 C527 C 0.10484 0.70904 -0.12840
 C528 C 0.11485 0.73282 -0.13943
 C529 C 0.14154 0.74042 -0.13430
 N530 N 0.11172 0.66813 -0.10003
 N531 N 0.08861 0.65891 -0.10566
 C532 C 0.07915 0.63462 -0.09351
 C533 C 0.05479 0.62405 -0.10277
 C534 C 0.04514 0.60023 -0.09153
 C535 C 0.05967 0.58674 -0.07060
 C536 C 0.08399 0.59751 -0.06111
 C537 C 0.09372 0.62120 -0.07254
 H538 H 0.17865 0.72845 -0.11382
 H539 H 0.16074 0.68731 -0.09408
 H540 H 0.08421 0.70374 -0.13257
 H541 H 0.10155 0.74539 -0.15163
 H542 H 0.04334 0.63424 -0.11886
 H543 H 0.02626 0.59246 -0.09913
 H544 H 0.09555 0.58756 -0.04495
 H545 H 0.11256 0.62904 -0.06492
 C546 C -0.10499 0.73817 0.14779
 C547 C -0.09261 0.71482 0.13812
 C548 C -0.10684 0.69671 0.12159
 C549 C -0.13381 0.70207 0.11504
 C550 C -0.14626 0.72527 0.12484
 C551 C -0.13200 0.74372 0.14124
 N552 N -0.09359 0.67308 0.11174
 N553 N -0.10487 0.65727 0.09460
 C554 C -0.09217 0.63343 0.08462
 C555 C -0.10511 0.61853 0.06396
 C556 C -0.09343 0.59513 0.05368
 C557 C -0.06863 0.58611 0.06415
 C558 C -0.05565 0.60103 0.08498
 C559 C -0.06729 0.62460 0.09510
 H560 H -0.09327 0.75200 0.16005
 H561 H -0.07180 0.71093 0.14329
 H562 H -0.14534 0.68828 0.10248
 H563 H -0.16717 0.72853 0.11980
 H564 H -0.12429 0.62514 0.05574
 H565 H -0.10388 0.58404 0.03762
 H566 H -0.03648 0.59457 0.09335
 H567 H -0.05694 0.63578 0.11114
 C568 C 1.10879 0.15507 0.74009
 C569 C 1.09639 0.14565 0.71586
 C570 C 1.10772 0.12467 0.70076
 C571 C 1.13164 0.11289 0.71031
 C572 C 1.14414 0.12219 0.73451
 C573 C 1.13311 0.14367 0.74993
 N574 N 1.09477 0.11581 0.67573
 N575 N 1.10439 0.09685 0.66116
 C576 C 1.09194 0.08776 0.63599
 C577 C 1.10381 0.06657 0.62156
 C578 C 1.09238 0.05711 0.59689
 C579 C 1.06880 0.06881 0.58620
 C580 C 1.05685 0.09014 0.60067
 C581 C 1.06834 0.09958 0.62543
 H582 H 1.09888 0.17121 0.75088
 H583 H 1.07785 0.15482 0.70875
 H584 H 1.14083 0.09657 0.69897
 H585 H 1.16265 0.11251 0.74052
 H586 H 1.12199 0.05733 0.62951
 H587 H 1.10199 0.04060 0.58623
 H588 H 1.03863 0.09945 0.59292
 H589 H 1.05881 0.11602 0.63627
 C590 C 0.84688 -0.10830 0.73912
 C591 C 0.85738 -0.09540 0.71579
 C592 C 0.88137 -0.10413 0.70396
 C593 C 0.89502 -0.12590 0.71588
 C594 C 0.88466 -0.13887 0.73918
 C595 C 0.86021 -0.13049 0.75132
 N596 N 0.89128 -0.09086 0.67970
 N597 N 0.91277 -0.09832 0.66776
 C598 C 0.92271 -0.08549 0.64329
 C599 C 0.94608 -0.09542 0.63099
 C600 C 0.95600 -0.08385 0.60666
 C601 C 0.94262 -0.06207 0.59428
 C602 C 0.91932 -0.05189 0.60683
 C603 C 0.90940 -0.06352 0.63114
 H604 H 0.82812 -0.10076 0.74704
 H605 H 0.84665 -0.07861 0.70674
 H606 H 0.91372 -0.13300 0.70716
 H607 H 0.89625 -0.15535 0.74742
 H608 H 0.95652 -0.11232 0.64018
 H609 H 0.97405 -0.09205 0.59749
 H610 H 0.90865 -0.03507 0.59776
 H611 H 0.89130 -0.05547 0.64031
 C612 C 1.15229 -0.10751 0.25840
 C613 C 1.14234 -0.09458 0.28204
 C614 C 1.12028 -0.10473 0.29619
 C615 C 1.10803 -0.12804 0.28632
 C616 C 1.11785 -0.14106 0.26271
 C617 C 1.14034 -0.13119 0.24819
 N618 N 1.11087 -0.09125 0.32063
 N619 N 1.09096 -0.09977 0.33441
 C620 C 1.08146 -0.08674 0.35905
 C621 C 1.05962 -0.09764 0.37307
 C622 C 1.05007 -0.08581 0.39746
 C623 C 1.06229 -0.06278 0.40823
 C624 C 1.08411 -0.05169 0.39402
 C625 C 1.09367 -0.06359 0.36960
 H626 H 1.16930 -0.09854 0.24838
 H627 H 1.15193 -0.07655 0.28943
 H628 H 1.09089 -0.13633 0.29693
 H629 H 1.10766 -0.15901 0.25640
 H630 H 1.05005 -0.11546 0.36512
 H631 H 1.03316 -0.09474 0.40792
 H632 H 1.09386 -0.03391 0.40183
 H633 H 1.11059 -0.05478 0.35909
 C634 C 0.88394 0.15709 0.26469
 C635 C 0.89573 0.14698 0.28898
 C636 C 0.88582 0.12399 0.30155
 C637 C 0.86373 0.11107 0.28958
 C638 C 0.85181 0.12108 0.26523
 C639 C 0.86168 0.14436 0.25212
 N640 N 0.89863 0.11426 0.32636
 N641 N 0.89071 0.09351 0.33915
 C642 C 0.90383 0.08404 0.36392
 C643 C 0.89396 0.06131 0.37726
 C644 C 0.90632 0.05160 0.40149
 C645 C 0.92883 0.06455 0.41273
 C646 C 0.93876 0.08733 0.39929
 C647 C 0.92637 0.09703 0.37509
 H648 H 0.89257 0.17501 0.25622
 H649 H 0.91275 0.15715 0.29809
 H650 H 0.85570 0.09318 0.29896
 H651 H 0.83502 0.11016 0.25690
 H652 H 0.87664 0.05111 0.36884
 H653 H 0.89829 0.03396 0.41138
 H654 H 0.95610 0.09767 0.40746
 H655 H 0.93442 0.11463 0.36515
 C656 C 0.15812 0.26912 -0.10643
 C657 C 0.14825 0.29273 -0.09456
 C658 C 0.12469 0.30455 -0.10463
 C659 C 0.11090 0.29239 -0.12670
 C660 C 0.12060 0.26885 -0.13861
 C661 C 0.14455 0.25662 -0.12887
 N662 N 0.11515 0.32888 -0.09232
 N663 N 0.09403 0.34051 -0.10126
 C664 C 0.08397 0.36486 -0.08957
 C665 C 0.06083 0.37633 -0.10115
 C666 C 0.05044 0.40018 -0.09051
 C667 C 0.06310 0.41295 -0.06799
 C668 C 0.08629 0.40136 -0.05626
 C669 C 0.09670 0.37749 -0.06698
 H670 H 0.17649 0.26107 -0.09784
 H671 H 0.15910 0.30192 -0.07750
 H672 H 0.09253 0.30107 -0.13485
 H673 H 0.10888 0.26058 -0.15542
 H674 H 0.05084 0.36674 -0.11854
 H675 H 0.03248 0.40858 -0.09989
 H676 H 0.09641 0.41076 -0.03884
 H677 H 0.11461 0.36896 -0.05766
 C678 C -0.15740 0.27306 0.11105
 C679 C -0.14744 0.29680 0.09998
 C680 C -0.12115 0.30467 0.10564
 C681 C -0.10462 0.28826 0.12224
 C682 C -0.11446 0.26439 0.13314
 C683 C -0.14107 0.25655 0.12787
 N684 N -0.11182 0.32938 0.09437
 N685 N -0.08915 0.33915 0.10086
 C686 C -0.08005 0.36386 0.08934
 C687 C -0.05616 0.37495 0.09929
 C688 C -0.04692 0.39918 0.08860
 C689 C -0.06141 0.41255 0.06756
 C690 C -0.08528 0.40128 0.05746
 C691 C -0.09459 0.37721 0.06831
 H692 H -0.17805 0.26798 0.10683
 H693 H -0.16038 0.30932 0.08724
 H694 H -0.08412 0.29383 0.12670
 H695 H -0.10113 0.25203 0.14554
 H696 H -0.04475 0.36483 0.11546
 H697 H -0.02839 0.40735 0.09665
 H698 H -0.09682 0.41113 0.04122
 H699 H -0.11307 0.36900 0.06020
 C700 C -0.11032 0.73512 -0.15242
 C701 C -0.09829 0.71130 -0.14355
 C702 C -0.10910 0.69674 -0.12158
 C703 C -0.13221 0.70637 -0.10833
 C704 C -0.14437 0.73019 -0.11710
 C705 C -0.13378 0.74515 -0.13948
 N706 N -0.09635 0.67227 -0.11321
 N707 N -0.10533 0.65821 -0.09329
 C708 C -0.09295 0.63367 -0.08464
 C709 C -0.10406 0.61980 -0.06228
 C710 C -0.09265 0.59582 -0.05313
 C711 C -0.06983 0.58523 -0.06629
 C712 C -0.05864 0.59914 -0.08881
 C713 C -0.07012 0.62323 -0.09795
 H714 H -0.10089 0.74531 -0.16952
 H715 H -0.08042 0.70410 -0.15392
 H716 H -0.14098 0.69546 -0.09120
 H717 H -0.16211 0.73646 -0.10609
 H718 H -0.12163 0.62765 -0.05188
 H719 H -0.10169 0.58560 -0.03568
 H720 H -0.04102 0.59146 -0.09925
 H721 H -0.06117 0.63364 -0.11531
 C722 C 0.11589 0.72952 0.15595
 C723 C 0.10340 0.70613 0.14694
 C724 C 0.10685 0.69699 0.11966
 C725 C 0.12290 0.71169 0.10127
 C726 C 0.13528 0.73520 0.11019
 C727 C 0.13198 0.74442 0.13768
 N728 N 0.09409 0.67270 0.11124
 N729 N 0.09818 0.66231 0.08743
 C730 C 0.08574 0.63798 0.07870
 C731 C 0.09353 0.62662 0.05338
 C732 C 0.08242 0.60259 0.04438
 C733 C 0.06305 0.58957 0.06052
 C734 C 0.05486 0.60117 0.08578
 C735 C 0.06622 0.62517 0.09490
 H736 H 0.11320 0.73567 0.17736
 H737 H 0.09119 0.69493 0.16135
 H738 H 0.12579 0.70510 0.08000
 H739 H 0.14717 0.74628 0.09543
 H740 H 0.10848 0.63633 0.04069
 H741 H 0.08901 0.59422 0.02474
 H742 H 0.03993 0.59156 0.09857
 H743 H 0.05981 0.63366 0.11453
 C744 C 0.27343 1.12069 0.84306
 C745 C 0.29706 1.10833 0.85224
 C746 C 0.30601 1.11173 0.87965
 C747 C 0.29094 1.12768 0.89799
 C748 C 0.26719 1.13994 0.88889
 C749 C 0.25810 1.13660 0.86129
 N750 N 0.33037 1.09881 0.88830
 N751 N 0.34068 1.10272 0.91227
 C752 C 0.36499 1.08983 0.92109
 C753 C 0.37643 1.09722 0.94659
 C754 C 0.40033 1.08539 0.95573
 C755 C 0.41308 1.06571 0.93954
 C756 C 0.40143 1.05803 0.91408
 C757 C 0.37760 1.07008 0.90483
 H758 H 0.26739 1.11800 0.82156
 H759 H 0.30854 1.09618 0.83788
 H760 H 0.29740 1.13051 0.91936
 H761 H 0.25578 1.15169 0.90362
 H762 H 0.36687 1.11234 0.95933
 H763 H 0.40876 1.09159 0.97553
 H764 H 0.41082 1.04287 0.90124
 H765 H 0.36905 1.06395 0.88507
 C766 C 0.27146 0.83724 1.11165
 C767 C 0.29534 0.84643 1.09998
 C768 C 0.30334 0.87291 1.10384
 C769 C 0.28688 0.89035 1.11912
 C770 C 0.26293 0.88129 1.13057
 C771 C 0.25499 0.85453 1.12726
 N772 N 0.32827 0.88159 1.09232
 N773 N 0.33801 0.90438 1.09813
 C774 C 0.36283 0.91355 1.08685
 C775 C 0.37358 0.93745 1.09689
 C776 C 0.39786 0.94696 1.08662
 C777 C 0.41168 0.93278 1.06585
 C778 C 0.40075 0.90890 1.05556
 C779 C 0.37656 0.89926 1.06608
 H780 H 0.26624 0.81647 1.10887
 H781 H 0.30785 0.83277 1.08825
 H782 H 0.29247 0.91101 1.12216
 H783 H 0.25059 0.89539 1.14186
 H784 H 0.36315 0.94867 1.11284
 H785 H 0.40573 0.96550 1.09482
 H786 H 0.41096 0.89761 1.03951
 H787 H 0.36856 0.88077 1.05791
 C788 C 0.72601 1.15532 1.11529
 C789 C 0.70234 1.14462 1.10457
 C790 C 0.69527 1.11826 1.11044
 C791 C 0.71230 1.10249 1.12719
 C792 C 0.73614 1.11311 1.13781
 C793 C 0.74331 1.13969 1.13200
 N794 N 0.67080 1.10812 1.09901
 N795 N 0.66179 1.08511 1.10501
 C796 C 0.63731 1.07544 1.09310
 C797 C 0.62688 1.05115 1.10242
 C798 C 0.60284 1.04141 1.09136
 C799 C 0.58900 1.05581 1.07058
 C800 C 0.59963 1.08004 1.06106
 C801 C 0.62351 1.08983 1.07227
 H802 H 0.73051 1.17596 1.11075
 H803 H 0.68932 1.15699 1.09176
 H804 H 0.70730 1.08197 1.13189
 H805 H 0.74907 1.10037 1.15026
 H806 H 0.63734 1.03983 1.11841
 H807 H 0.59516 1.02261 1.09898
 H808 H 0.58942 1.09152 1.04503
 H809 H 0.63120 1.10861 1.06460
 C810 C 0.72705 0.83831 0.88547
 C811 C 0.70298 0.84749 0.89694
 C812 C 0.69489 0.87409 0.89345
 C813 C 0.71144 0.89165 0.87867
 C814 C 0.73559 0.88259 0.86739
 C815 C 0.74365 0.85573 0.87043
 N816 N 0.66984 0.88277 0.90491
 N817 N 0.66014 0.90585 0.89978
 C818 C 0.63520 0.91490 0.91113
 C819 C 0.62465 0.93942 0.90218
 C820 C 0.60030 0.94887 0.91266
 C821 C 0.58621 0.93397 0.93254
 C822 C 0.59690 0.90942 0.94168
 C823 C 0.62116 0.89988 0.93097
 H824 H 0.73234 0.81746 0.88798
 H825 H 0.69040 0.83374 0.90827
 H826 H 0.70576 0.91240 0.87589
 H827 H 0.74800 0.89674 0.85649
 H828 H 0.63531 0.95120 0.88695
 H829 H 0.59262 0.96792 0.90536
 H830 H 0.58648 0.89757 0.95703
 H831 H 0.62898 0.88089 0.93829
   
