data_POSCAR
  _audit_creation_date              2014-09-24
  _audit_creation_method            'ToBaCCo'
  _symmetry_space_group_name_H-M    'P1'
  _symmetry_Int_Tables_number       1
  _symmetry_cell_setting            triclinic
  loop_
  _symmetry_equiv_pos_as_xyz
 x,y,z
_cell_length_a 22.3049
_cell_length_b 21.5476
_cell_length_c 42.2053
_cell_angle_alpha 91.497000
_cell_angle_beta 90.178600
_cell_angle_gamma 120.349400
loop_
  _atom_site_label
  _atom_site_type_symbol
  _atom_site_fract_x
  _atom_site_fract_y
  _atom_site_fract_z
C1 C 0.06404 0.10953 0.54330
 H2 H 0.11139 0.10731 0.54441
 C3 C 0.05840 0.16129 0.56151
 H4 H 0.10106 0.19718 0.57725
 C5 C -0.04857 0.06521 0.52110
 H6 H -0.08918 0.02941 0.50455
 C7 C -0.05656 0.11597 0.53904
 H8 H -0.10401 0.11778 0.53656
 N9 N 0.01121 0.06306 0.52349
 C10 C 0.06153 -0.10461 0.50188
 H11 H 0.06502 -0.10053 0.47639
 C12 C 0.06582 -0.15964 0.51648
 H13 H 0.07335 -0.19742 0.50208
 C14 C 0.04310 -0.06287 0.55134
 H15 H 0.03142 -0.02685 0.56463
 C16 C 0.04743 -0.11698 0.56696
 H17 H 0.03899 -0.12155 0.59222
 Zn18 Zn 0.03021 0.00397 0.49627
 N19 N 0.04960 -0.05814 0.51933
 C20 C 0.16972 0.07299 0.47382
 N21 N 0.10654 0.06799 0.47213
 C22 C 0.09592 0.11337 0.45437
 C23 C 0.15014 0.16700 0.43752
 C24 C 0.22573 0.12627 0.45739
 C25 C -0.10853 -0.10040 0.48214
 C26 C -0.16447 -0.15087 0.46329
 C27 C -0.08956 -0.11235 0.41797
 C28 C -0.03567 -0.06145 0.43761
 N29 N -0.04605 -0.05630 0.46905
 H30 H 0.17714 0.03690 0.48847
 H31 H 0.04506 0.10811 0.45359
 H32 H 0.13933 0.20110 0.42314
 H33 H 0.27609 0.13043 0.45925
 H34 H -0.11448 -0.09739 0.50747
 H35 H -0.21239 -0.18582 0.47508
 H36 H -0.07936 -0.11591 0.39308
 H37 H 0.01517 -0.02790 0.42788
 C38 C 0.05811 -0.16686 0.54935
 C39 C -0.00207 0.16592 0.55898
 C40 C -0.15555 -0.15794 0.43050
 C41 C 0.21669 0.17507 0.43946
 C42 C 1.08610 0.04588 0.11275
 H43 H 1.08071 0.09303 0.11257
 C44 C 1.13467 0.04201 0.09352
 H45 H 1.16643 0.08627 0.07833
 C46 C 1.05238 -0.06808 0.13367
 H47 H 1.02067 -0.11016 0.14974
 C48 C 1.10156 -0.07360 0.11513
 H49 H 1.10624 -0.12105 0.11655
 N50 N 1.04607 -0.00865 0.13221
 C51 C 0.87985 0.03655 0.14978
 H52 H 0.88477 0.04642 0.17518
 C53 C 0.82363 0.03270 0.13321
 H54 H 0.78612 0.04008 0.14639
 C55 C 0.91966 0.00773 0.10278
 H56 H 0.95497 -0.00553 0.09118
 C57 C 0.86461 0.00370 0.08532
 H58 H 0.85944 -0.01080 0.06027
 Zn59 Zn 0.98940 0.01012 0.15906
 N60 N 0.92597 0.02331 0.13448
 C61 C 1.05397 0.15669 0.18331
 N62 N 1.05202 0.09261 0.18342
 C63 C 1.10146 0.08533 0.19892
 C64 C 1.15612 0.14384 0.21502
 C65 C 1.10794 0.21700 0.19936
 C66 C 0.88531 -0.12975 0.17193
 C67 C 0.83420 -0.18339 0.19023
 C68 C 0.88739 -0.10716 0.23692
 C69 C 0.93729 -0.05493 0.21773
 N70 N 0.93478 -0.06667 0.18581
 H71 H 1.01501 0.16159 0.17012
 H72 H 1.09947 0.03410 0.19785
 H73 H 1.19600 0.13638 0.22575
 H74 H 1.10970 0.26811 0.19874
 H75 H 0.88334 -0.13674 0.14640
 H76 H 0.79355 -0.23123 0.17821
 H77 H 0.88887 -0.09594 0.26217
 H78 H 0.97565 -0.00363 0.22823
 C79 C 0.81501 0.01503 0.10050
 C80 C 1.14395 -0.01736 0.09503
 C81 C 0.83423 -0.17189 0.22324
 C82 C 1.15999 0.21104 0.21548
 C83 C 0.04595 0.95730 0.88769
 H84 H -0.00578 0.91208 0.89089
 C85 C 0.10238 0.96055 0.90361
 H86 H 0.09283 0.91861 0.91983
 C87 C 0.12003 1.06633 0.86233
 H88 H 0.12694 1.10597 0.84535
 C89 C 0.17812 1.07175 0.87784
 H90 H 0.22932 1.11657 0.87312
 N91 N 0.05561 1.00929 0.86734
 C92 C -0.16077 0.95240 0.85521
 H93 H -0.16866 0.93726 0.83025
 C94 C -0.21463 0.95083 0.87264
 H95 H -0.26318 0.93424 0.86032
 C96 C -0.08479 0.99858 0.89995
 H97 H -0.03341 1.01941 0.91017
 C98 C -0.13675 0.99907 0.91815
 H99 H -0.12484 1.01899 0.94255
 Zn100 Zn -0.02361 0.98939 0.84283
 N101 N -0.09755 0.97569 0.86905
 C102 C -0.10299 0.84148 0.81954
 N103 N -0.04406 0.90688 0.81789
 C104 C 0.00900 0.91690 0.79893
 C105 C 0.00495 0.85980 0.78103
 C106 C -0.10942 0.78250 0.80175
 C107 C 0.02129 1.13316 0.82811
 C108 C 0.02572 1.18786 0.80941
 C109 C -0.03055 1.10039 0.76639
 C110 C -0.03248 1.04779 0.78562
 N111 N -0.00698 1.06486 0.81590
 H112 H -0.14409 0.83448 0.83517
 H113 H 0.05522 0.96953 0.79817
 H114 H 0.04789 0.86939 0.76602
 H115 H -0.15590 0.73027 0.80353
 H116 H 0.03857 1.14469 0.85264
 H117 H 0.04682 1.24158 0.81971
 H118 H -0.05284 1.08566 0.74264
 H119 H -0.05723 0.99266 0.77679
 C120 C -0.20289 0.97514 0.90466
 C121 C 0.16989 1.01741 0.89808
 C122 C -0.00122 1.17127 0.77823
 C123 C -0.05416 0.79111 0.78287
 C124 C 0.47034 -0.02475 0.01677
 C125 C 0.46865 -0.02920 -0.01557
 C126 C 0.40931 -0.03385 -0.03373
 C127 C 0.52411 -0.03104 -0.03439
 C128 C 0.53010 -0.01539 0.03612
 C129 C 0.41183 -0.02807 0.03473
 C130 C 0.34188 -0.09269 -0.03082
 C131 C 0.28571 -0.09322 -0.04584
 C132 C 0.29583 -0.03497 -0.06394
 C133 C 0.36399 0.02255 -0.06790
 C134 C 0.42017 0.02290 -0.05293
 C135 C 0.50538 -0.08554 -0.05777
 C136 C 0.55614 -0.09099 -0.07480
 C137 C 0.62715 -0.04302 -0.06847
 C138 C 0.64588 0.01358 -0.04585
 C139 C 0.59479 0.02006 -0.02943
 C140 C 0.56373 0.04418 0.05726
 C141 C 0.62125 0.05564 0.07522
 C142 C 0.64658 0.00808 0.07226
 C143 C 0.61135 -0.05314 0.05187
 C144 C 0.55330 -0.06493 0.03407
 C145 C 0.39347 0.02486 0.03167
 C146 C 0.33644 0.01934 0.04775
 C147 C 0.29674 -0.03941 0.06724
 C148 C 0.31700 -0.09074 0.07110
 C149 C 0.37401 -0.08519 0.05496
 H150 H 0.33272 -0.13741 -0.01640
 H151 H 0.23394 -0.13866 -0.04279
 H152 H 0.37442 0.06714 -0.08261
 H153 H 0.47207 0.06835 -0.05568
 H154 H 0.45120 -0.12500 -0.06242
 H155 H 0.53959 -0.13441 -0.09238
 H156 H 0.61055 0.06459 -0.01258
 H157 H 0.54604 0.08254 0.05946
 H158 H 0.64680 0.10251 0.09109
 H159 H 0.62783 -0.09245 0.04994
 H160 H 0.52679 -0.11229 0.01855
 H161 H 0.42326 0.07028 0.01676
 H162 H 0.32468 0.06189 0.04525
 H163 H 0.28811 -0.13574 0.08636
 H164 H 0.38802 -0.12611 0.05782
 H165 H 0.69952 0.05425 -0.04120
 C166 C 0.02466 0.50833 0.68822
 C167 C 0.03343 0.51391 0.65630
 C168 C 0.03407 0.45554 0.63697
 C169 C 0.04412 0.57869 0.63961
 C170 C 0.01456 0.56052 0.70772
 C171 C 0.02893 0.45179 0.70552
 C172 C 0.09111 0.47069 0.61804
 C173 C 0.09337 0.41530 0.60108
 C174 C 0.03824 0.34388 0.60234
 C175 C -0.01949 0.32902 0.62099
 C176 C -0.02166 0.38446 0.63792
 C177 C 0.09425 0.64817 0.65062
 C178 C 0.10189 0.70882 0.63569
 C179 C 0.06116 0.70133 0.60888
 C180 C 0.01218 0.63169 0.59735
 C181 C 0.00403 0.57102 0.61253
 C182 C -0.03910 0.57433 0.70063
 C183 C -0.04639 0.62553 0.71863
 C184 C -0.00008 0.66348 0.74406
 C185 C 0.05270 0.64857 0.75131
 C186 C 0.05954 0.59710 0.73355
 C187 C -0.02938 0.39898 0.72101
 C188 C -0.02497 0.34664 0.73801
 C189 C 0.03838 0.34752 0.74033
 C190 C 0.09702 0.40138 0.72537
 C191 C 0.09214 0.45267 0.70772
 H192 H 0.13458 0.52517 0.61696
 H193 H 0.13857 0.42825 0.58704
 H194 H -0.06232 0.27470 0.62327
 H195 H -0.06654 0.37178 0.65214
 H196 H 0.12709 0.65549 0.67099
 H197 H 0.13989 0.76178 0.64504
 H198 H -0.03482 0.51800 0.60359
 H199 H -0.07466 0.54615 0.68091
 H200 H -0.08672 0.63682 0.71196
 H201 H 0.08926 0.67743 0.77063
 H202 H 0.10125 0.58723 0.73942
 H203 H -0.07825 0.39825 0.71980
 H204 H -0.07056 0.30654 0.74994
 H205 H 0.14640 0.40331 0.72715
 H206 H 0.13782 0.49384 0.69621
 H207 H -0.02136 0.62382 0.57722
 C208 C 0.50761 0.51705 0.34544
 C209 C 0.50558 0.51142 0.31312
 C210 C 0.56254 0.56355 0.29312
 C211 C 0.44517 0.45093 0.29605
 C212 C 0.45001 0.46177 0.36417
 C213 C 0.56546 0.57761 0.36398
 C214 C 0.58635 0.63757 0.29537
 C215 C 0.64173 0.68560 0.27692
 C216 C 0.67363 0.66015 0.25564
 C217 C 0.64776 0.58589 0.25260
 C218 C 0.59296 0.53810 0.27121
 C219 C 0.40243 0.46480 0.27664
 C220 C 0.34231 0.40807 0.26235
 C221 C 0.32433 0.33619 0.26703
 C222 C 0.36840 0.32294 0.28597
 C223 C 0.42841 0.37965 0.30018
 C224 C 0.46240 0.41801 0.38394
 C225 C 0.40794 0.36319 0.40042
 C226 C 0.34012 0.35160 0.39746
 C227 C 0.32857 0.39737 0.37854
 C228 C 0.38298 0.45190 0.36196
 C229 C 0.63548 0.59979 0.35855
 C230 C 0.68849 0.65781 0.37607
 C231 C 0.67238 0.69324 0.40028
 C232 C 0.60213 0.66831 0.40658
 C233 C 0.54950 0.61197 0.38844
 H234 H 0.56229 0.65810 0.31148
 H235 H 0.65852 0.74225 0.27899
 H236 H 0.67067 0.56484 0.23606
 H237 H 0.57486 0.48110 0.26885
 H238 H 0.41466 0.51964 0.27331
 H239 H 0.30993 0.42128 0.24836
 H240 H 0.46122 0.36801 0.31486
 H241 H 0.51412 0.42565 0.38617
 H242 H 0.41944 0.33082 0.41566
 H243 H 0.27704 0.39020 0.37622
 H244 H 0.37280 0.48597 0.34714
 H245 H 0.64925 0.57210 0.34085
 H246 H 0.74154 0.67246 0.37124
 H247 H 0.58761 0.69345 0.42524
 H248 H 0.49595 0.59538 0.39346
 H249 H 0.35623 0.26833 0.28992
 C250 C -0.00985 0.22176 0.57668
 C251 C 0.04447 0.28655 0.58506
 H252 H -0.06218 0.21034 0.58105
 H253 H 0.09604 0.29985 0.57781
 C254 C 0.77732 0.77750 0.24373
 C255 C 0.73180 0.70883 0.23534
 H256 H 0.77365 0.79783 0.26694
 H257 H 0.73858 0.68581 0.21353
 C258 C 0.23231 0.02131 -0.08727
 C259 C 0.23423 -0.03729 -0.07867
 H260 H 0.27815 0.07405 -0.08435
 H261 H 0.18830 -0.08989 -0.08195
 C262 C 0.05535 0.76973 0.56378
 C263 C 0.06837 0.76683 0.59457
 H264 H 0.04325 0.72411 0.54811
 H265 H 0.08708 0.81448 0.60979
 C266 C 0.21971 0.27627 0.23052
 C267 C 0.26062 0.27321 0.25316
 H268 H 0.23006 0.32757 0.22206
 H269 H 0.24784 0.22141 0.26204
 C270 C 0.74685 -0.02025 -0.07689
 C271 C 0.67623 -0.05270 -0.08546
 H272 H 0.76372 0.00740 -0.05400
 H273 H 0.65671 -0.09152 -0.10510
 C274 C 0.19906 -0.01731 0.07569
 C275 C 0.23614 -0.04707 0.08490
 H276 H 0.21225 0.01277 0.05418
 H277 H 0.22256 -0.07746 0.10635
 C278 C 0.79363 0.79208 0.41103
 C279 C 0.72338 0.75073 0.41911
 H280 H 0.80751 0.78596 0.38705
 H281 H 0.70559 0.76667 0.43991
 C282 C -0.00499 0.22503 0.75870
 C283 C 0.04468 0.29443 0.75927
 H284 H -0.04912 0.20628 0.74256
 H285 H 0.09229 0.31225 0.77280
 C286 C 0.75314 0.00232 0.08181
 C287 C 0.70848 0.02298 0.09137
 H288 H 0.74503 -0.02422 0.05874
 H289 H 0.71893 0.05517 0.11297
 C290 C 0.27715 0.23284 0.42304
 C291 C 0.28058 0.29404 0.41429
 H292 H 0.32034 0.22452 0.41848
 H293 H 0.23760 0.30260 0.41889
 C294 C -0.05799 0.72858 0.76553
 C295 C -0.00132 0.72268 0.76197
 H296 H -0.10826 0.68580 0.75700
 H297 H 0.04692 0.76246 0.77357
   
