data_POSCAR
  _audit_creation_date              2014-09-24
  _audit_creation_method            'ToBaCCo'
  _symmetry_space_group_name_H-M    'P1'
  _symmetry_Int_Tables_number       1
  _symmetry_cell_setting            triclinic
  loop_
  _symmetry_equiv_pos_as_xyz
 x,y,z
_cell_length_a 35.2191
_cell_length_b 35.2320
_cell_length_c 35.2185
_cell_angle_alpha 82.702300
_cell_angle_beta 97.315900
_cell_angle_gamma 95.484300
loop_
  _atom_site_label
  _atom_site_type_symbol
  _atom_site_fract_x
  _atom_site_fract_y
  _atom_site_fract_z
C1 C 0.58709 0.53773 0.01850
 C2 C 0.57814 0.57511 0.02177
 C3 C 0.54032 0.58620 0.01569
 C4 C 0.50947 0.55729 0.00974
 C5 C 0.51760 0.51849 0.00946
 C6 C 0.55635 0.50858 0.01464
 C7 C 0.56302 0.46940 0.01883
 C8 C 0.53327 0.44123 0.01315
 C9 C 0.49510 0.45058 0.00464
 C10 C 0.48679 0.48915 0.00497
 C11 C 0.47066 0.56521 0.00634
 C12 C 0.44095 0.53705 0.00038
 C13 C 0.44786 0.49832 0.00133
 C14 C 0.41736 0.46860 -0.00247
 C15 C 0.42694 0.43152 -0.00620
 C16 C 0.46489 0.42200 -0.00230
 H17 H 0.59109 0.45946 0.02820
 H18 H 0.54062 0.41179 0.01684
 H19 H 0.46179 0.59297 0.00914
 H20 H 0.41258 0.54694 -0.00560
 H21 H 0.60151 0.59722 0.02513
 H22 H 0.40446 0.40864 -0.01031
 C23 C -0.00807 0.57846 0.46161
 C24 C -0.00682 0.57030 0.42408
 C25 C -0.00407 0.53290 0.41521
 C26 C -0.00476 0.50197 0.44583
 C27 C -0.00545 0.51006 0.48441
 C28 C -0.00687 0.54840 0.49225
 C29 C -0.00666 0.55575 0.53058
 C30 C -0.00622 0.52612 0.56062
 C31 C -0.00489 0.48787 0.55386
 C32 C -0.00506 0.47965 0.51535
 C33 C -0.00691 0.46313 0.43925
 C34 C -0.00589 0.43362 0.46944
 C35 C -0.00508 0.44107 0.50771
 C36 C -0.00427 0.41103 0.53860
 C37 C -0.00379 0.41974 0.57628
 C38 C -0.00425 0.45749 0.58442
 H39 H -0.00670 0.58456 0.53803
 H40 H -0.00726 0.53379 0.58918
 H41 H -0.01080 0.45422 0.41082
 H42 H -0.00612 0.40476 0.46205
 H43 H -0.00676 0.59431 0.40151
 H44 H -0.00318 0.39660 0.59979
 C45 C 0.53763 -0.00057 0.58175
 C46 C 0.57553 0.00129 0.57254
 C47 C 0.58452 0.00305 0.53455
 C48 C 0.55392 0.00594 0.50391
 C49 C 0.51522 0.00110 0.51242
 C50 C 0.50699 -0.00359 0.55135
 C51 C 0.46857 -0.01335 0.55846
 C52 C 0.43873 -0.01349 0.52858
 C53 C 0.44587 -0.00482 0.49004
 C54 C 0.48451 0.00091 0.48177
 C55 C 0.56058 0.01569 0.46511
 C56 C 0.53067 0.01546 0.43534
 C57 C 0.49252 0.00642 0.44290
 C58 C 0.46201 0.00437 0.41263
 C59 C 0.42408 0.00037 0.42138
 C60 C 0.41549 -0.00334 0.45946
 H61 H 0.46083 -0.02268 0.58701
 H62 H 0.41003 -0.02163 0.53615
 H63 H 0.58873 0.02524 0.45697
 H64 H 0.53785 0.02355 0.40630
 H65 H 0.59885 0.00134 0.59576
 H66 H 0.40077 0.00015 0.39807
 O67 O 0.47472 0.00372 -0.06117
 O68 O 0.46794 -0.00259 0.04283
 O69 O 0.46840 0.05285 -0.01341
 O70 O 0.47580 -0.05167 -0.00482
 O71 O 0.53894 -0.04222 0.00646
 O72 O 0.53158 0.06207 -0.00227
 O73 O 0.53108 0.00684 0.05416
 O74 O 0.53790 0.01301 -0.05011
 Cu75 Cu 0.46538 -0.00040 -0.01022
 Cu76 Cu 0.54122 0.01080 0.00321
 C77 C 0.50743 0.00934 -0.07335
 C78 C 0.49824 0.00136 0.06617
 C79 C 0.49877 0.07521 -0.00918
 C80 C 0.50871 -0.06468 0.00204
 O81 O -0.04733 0.53485 0.99195
 O82 O 0.05698 0.52833 0.99773
 O83 O 0.00045 0.52745 0.94265
 O84 O 0.00947 0.53504 1.04688
 O85 O 0.00085 0.47189 1.05857
 O86 O -0.00831 0.46433 0.95449
 O87 O 0.04837 0.46517 1.00945
 O88 O -0.05605 0.47173 1.00380
 Cu89 Cu 0.00567 0.53776 0.99355
 Cu90 Cu -0.00473 0.46194 1.00767
 C91 C -0.06940 0.50447 0.99733
 C92 C 0.07041 0.49565 1.00451
 C93 C -0.00503 0.49452 0.93089
 C94 C 0.00667 0.50473 1.07043
 O95 O -0.01037 -0.05055 0.46285
 O96 O -0.00378 0.05326 0.47055
 O97 O 0.04501 0.00399 0.46292
 O98 O -0.05883 -0.00131 0.46975
 O99 O -0.04763 -0.01307 0.53314
 O100 O 0.05630 -0.00782 0.52628
 O101 O 0.00751 0.04141 0.53391
 O102 O 0.00087 -0.06226 0.52623
 Cu103 Cu -0.00801 0.00257 0.46014
 Cu104 Cu 0.00549 -0.01157 0.53626
 C105 C -0.00597 -0.07405 0.49326
 C106 C 0.00256 0.06494 0.50361
 C107 C 0.06831 -0.00128 0.49338
 C108 C -0.07088 -0.00801 0.50261
 N109 N -0.32739 0.49895 0.99490
 C110 C -0.29909 0.52391 1.00907
 N111 N -0.30850 0.55317 1.02660
 N112 N -0.34509 0.55719 1.03004
 C113 C -0.37382 0.53193 1.01649
 N114 N -0.36397 0.50304 0.99837
 C115 C -0.25963 0.51969 1.00534
 C116 C -0.22635 0.51652 1.00252
 C117 C -0.18651 0.51323 0.99970
 N118 N -0.16260 0.54512 0.99245
 N119 N -0.12535 0.54226 0.99112
 C120 C -0.11076 0.50740 0.99696
 N121 N -0.13482 0.47548 1.00405
 N122 N -0.17208 0.47835 1.00539
 N123 N 0.32969 0.50447 1.01974
 C124 C 0.30236 0.47950 1.00398
 N125 N 0.31317 0.45113 0.98616
 N126 N 0.35017 0.44803 0.98390
 C127 C 0.37795 0.47338 0.99892
 N128 N 0.36670 0.50127 1.01743
 C129 C 0.26243 0.48300 1.00593
 C130 C 0.22871 0.48555 1.00697
 C131 C 0.18841 0.48824 1.00752
 N132 N 0.16455 0.45605 1.01343
 N133 N 0.12694 0.45842 1.01280
 C134 C 0.11194 0.49308 1.00620
 N135 N 0.13593 0.52528 1.00038
 N136 N 0.17354 0.52290 1.00101
 N137 N 0.01556 -0.31692 0.45606
 C138 C -0.01190 -0.30553 0.47478
 N139 N -0.03820 -0.33220 0.48945
 N140 N -0.03693 -0.36921 0.48562
 C141 C -0.00913 -0.38076 0.46726
 N142 N 0.01684 -0.35388 0.45224
 C143 C -0.01299 -0.26565 0.47876
 C144 C -0.01310 -0.23195 0.48166
 C145 C -0.01238 -0.19168 0.48473
 N146 N -0.00546 -0.17850 0.51968
 N147 N -0.00364 -0.14097 0.52241
 C148 C -0.00859 -0.11540 0.49027
 N149 N -0.01558 -0.12870 0.45531
 N150 N -0.01740 -0.16623 0.45259
 N151 N -0.02962 0.31557 0.50509
 C152 C -0.00134 0.29500 0.52498
 N153 N 0.02572 0.31241 0.54938
 N154 N 0.02476 0.34935 0.55351
 C155 C -0.00315 0.37022 0.53319
 N156 N -0.03059 0.35254 0.50922
 C157 C -0.00017 0.25521 0.52057
 C158 C 0.00096 0.22173 0.51718
 C159 C 0.00225 0.18178 0.51355
 N160 N 0.00873 0.15622 0.54539
 N161 N 0.00928 0.11901 0.54216
 C162 C 0.00342 0.10612 0.50698
 N163 N -0.00295 0.13182 0.47512
 N164 N -0.00349 0.16904 0.47836
 N165 N 0.49580 0.01656 -0.33275
 C166 C 0.52458 0.00803 -0.30446
 N167 N 0.55747 -0.00322 -0.31392
 N168 N 0.56136 -0.00615 -0.35051
 C169 C 0.53243 0.00161 -0.37921
 N170 N 0.49978 0.01361 -0.36937
 C171 C 0.52036 0.01038 -0.26487
 C172 C 0.51754 0.01168 -0.23131
 C173 C 0.51482 0.01243 -0.19112
 N174 N 0.54704 0.01707 -0.16608
 N175 N 0.54469 0.01646 -0.12854
 C176 C 0.51002 0.01113 -0.11480
 N177 N 0.47779 0.00659 -0.13998
 N178 N 0.48016 0.00720 -0.17752
 N179 N 0.45070 0.02451 0.30641
 C180 C 0.47736 0.00332 0.29664
 N181 N 0.49926 -0.01725 0.32487
 N182 N 0.49473 -0.01654 0.36176
 C183 C 0.46836 0.00500 0.37173
 N184 N 0.44618 0.02522 0.34330
 C185 C 0.48185 0.00221 0.25687
 C186 C 0.48526 0.00131 0.22336
 C187 C 0.48880 0.00044 0.18333
 N188 N 0.52379 0.00550 0.17038
 N189 N 0.52689 0.00541 0.13306
 C190 C 0.49509 0.00022 0.10747
 N191 N 0.46012 -0.00495 0.12058
 N192 N 0.45703 -0.00486 0.15788
 N193 N 0.55963 -0.31315 0.03133
 C194 C 0.52909 -0.29714 0.01026
 N195 N 0.50231 -0.31972 -0.00944
 N196 N 0.50576 -0.35725 -0.00766
 C197 C 0.53574 -0.37393 0.01420
 N198 N 0.56297 -0.35069 0.03306
 C199 C 0.52515 -0.25679 0.00891
 C200 C 0.52197 -0.22290 0.00797
 C201 C 0.51845 -0.18251 0.00692
 N202 N 0.48341 -0.16839 0.00027
 N203 N 0.48024 -0.13083 -0.00101
 C204 C 0.51201 -0.10617 0.00437
 N205 N 0.54704 -0.12043 0.01110
 N206 N 0.55020 -0.15797 0.01238
 N207 N 0.50081 0.33510 -0.02971
 C208 C 0.48004 0.30672 -0.00978
 N209 N 0.45468 0.31614 0.01265
 N210 N 0.45025 0.35280 0.01520
 C211 C 0.47122 0.38136 -0.00438
 N212 N 0.49637 0.37183 -0.02716
 C213 C 0.48454 0.26710 -0.01228
 C214 C 0.48761 0.23351 -0.01354
 C215 C 0.49061 0.19326 -0.01406
 N216 N 0.45853 0.16913 -0.01946
 N217 N 0.46113 0.13151 -0.01836
 C218 C 0.49592 0.11677 -0.01175
 N219 N 0.52802 0.14103 -0.00647
 N220 N 0.52541 0.17865 -0.00758
 N221 N -0.31120 0.00573 0.55364
 C222 C -0.30160 -0.00569 0.52111
 N223 N -0.32976 -0.01437 0.49288
 N224 N -0.36642 -0.01139 0.49700
 C225 C -0.37644 0.00080 0.52923
 N226 N -0.34784 0.00869 0.55767
 C227 C -0.26201 -0.00809 0.51667
 C228 C -0.22850 -0.00947 0.51361
 C229 C -0.18837 -0.01037 0.51062
 N230 N -0.17501 -0.00387 0.47574
 N231 N -0.13755 -0.00346 0.47315
 C232 C -0.11222 -0.00949 0.50536
 N233 N -0.12572 -0.01609 0.54024
 N234 N -0.16318 -0.01649 0.54282
 N235 N 0.31013 -0.02452 0.44867
 C236 C 0.29923 -0.00316 0.47420
 N237 N 0.32643 0.01780 0.49528
 N238 N 0.36344 0.01732 0.49103
 C239 C 0.37456 -0.00437 0.46577
 N240 N 0.34713 -0.02501 0.44442
 C241 C 0.25931 -0.00220 0.47829
 C242 C 0.22569 -0.00140 0.48136
 C243 C 0.18556 -0.00061 0.48458
 N244 N 0.17242 -0.00684 0.51959
 N245 N 0.13506 -0.00672 0.52245
 C246 C 0.10960 -0.00034 0.49039
 N247 N 0.12287 0.00597 0.45540
 N248 N 0.16023 0.00585 0.45255
 N249 N -0.00740 0.55339 1.31092
 C250 C 0.00875 0.52299 1.30165
 N251 N 0.02120 0.49587 1.33010
 N252 N 0.01718 0.49893 1.36669
 C253 C 0.00013 0.52884 1.37633
 N254 N -0.01139 0.55634 1.34748
 C255 C 0.01144 0.51916 1.26204
 C256 C 0.01262 0.51631 1.22848
 C257 C 0.01285 0.51324 1.18828
 N258 N 0.00752 0.47840 1.17505
 N259 N 0.00599 0.47568 1.13748
 C260 C 0.00965 0.50770 1.11191
 N261 N 0.01511 0.54254 1.12527
 N262 N 0.01664 0.54526 1.16284
 N263 N 0.02116 0.49301 0.67956
 C264 C -0.00538 0.47261 0.70035
 N265 N -0.03132 0.44727 0.68321
 N266 N -0.03095 0.44269 0.64629
 C267 C -0.00479 0.46347 0.62518
 N268 N 0.02154 0.48842 0.64261
 C269 C -0.00585 0.47737 0.74016
 C270 C -0.00641 0.48092 0.77368
 C271 C -0.00701 0.48459 0.81372
 N272 N -0.01184 0.45289 0.83935
 N273 N -0.01170 0.45612 0.87665
 C274 C -0.00678 0.49118 0.88957
 N275 N -0.00208 0.52290 0.86380
 N276 N -0.00222 0.51965 0.82648
   
