data_POSCAR
  _audit_creation_date              2014-09-24
  _audit_creation_method            'ToBaCCo'
  _symmetry_space_group_name_H-M    'P1'
  _symmetry_Int_Tables_number       1
  _symmetry_cell_setting            triclinic
  loop_
  _symmetry_equiv_pos_as_xyz
 x,y,z
_cell_length_a 37.6244
_cell_length_b 37.2194
_cell_length_c 37.0741
_cell_angle_alpha 89.231300
_cell_angle_beta 88.548700
_cell_angle_gamma 89.196400
loop_
  _atom_site_label
  _atom_site_type_symbol
  _atom_site_fract_x
  _atom_site_fract_y
  _atom_site_fract_z
C1 C 0.59261 0.62849 0.65016
 C2 C 0.56605 0.65528 0.64917
 C3 C 0.56557 0.68139 0.62132
 C4 C 0.59334 0.68104 0.59506
 C5 C 0.62029 0.65458 0.59589
 C6 C 0.61979 0.62811 0.62339
 C7 C 0.59234 0.60223 0.67766
 C8 C 0.61839 0.57448 0.67834
 C9 C 0.64598 0.57519 0.65175
 C10 C 0.64672 0.60153 0.62436
 C11 C 0.67411 0.60174 0.59800
 C12 C 0.67542 0.62841 0.57067
 C13 C 0.64782 0.65443 0.56963
 H14 H 0.54545 0.65581 0.67016
 H15 H 0.59494 0.70158 0.57429
 H16 H 0.57200 0.60436 0.69859
 H17 H 0.66717 0.55515 0.65249
 H18 H 0.69464 0.58102 0.59869
 H19 H 0.64693 0.67441 0.54834
 C20 C 0.90391 0.37598 0.14698
 C21 C 0.93006 0.34879 0.14545
 C22 C 0.93056 0.32285 0.11792
 C23 C 0.90262 0.32373 0.09309
 C24 C 0.87651 0.35101 0.09413
 C25 C 0.87722 0.37727 0.12105
 C26 C 0.90392 0.40179 0.17423
 C27 C 0.87732 0.42878 0.17641
 C28 C 0.85140 0.43029 0.14960
 C29 C 0.85094 0.40455 0.12233
 C30 C 0.82432 0.40567 0.09649
 C31 C 0.82355 0.37989 0.06900
 C32 C 0.84954 0.35226 0.06866
 H33 H 0.95002 0.34766 0.16604
 H34 H 0.90031 0.30303 0.07317
 H35 H 0.92472 0.40089 0.19395
 H36 H 0.83169 0.45161 0.14912
 H37 H 0.80397 0.42625 0.09882
 H38 H 0.84878 0.33168 0.04828
 C39 C 0.40492 0.12934 -0.15714
 C40 C 0.43196 0.15495 -0.15831
 C41 C 0.43325 0.18199 -0.13211
 C42 C 0.40734 0.18211 -0.10398
 C43 C 0.37996 0.15689 -0.10266
 C44 C 0.37878 0.13038 -0.12932
 C45 C 0.40388 0.10258 -0.18338
 C46 C 0.37761 0.07578 -0.18180
 C47 C 0.35101 0.07800 -0.15428
 C48 C 0.35163 0.10475 -0.12802
 C49 C 0.32556 0.10610 -0.10034
 C50 C 0.32587 0.13294 -0.07388
 C51 C 0.35386 0.15779 -0.07495
 H52 H 0.45230 0.15279 -0.17924
 H53 H 0.40853 0.20206 -0.08302
 H54 H 0.42340 0.10362 -0.20519
 H55 H 0.32965 0.05871 -0.15327
 H56 H 0.30493 0.08604 -0.09921
 H57 H 0.35611 0.17763 -0.05421
 C58 C 0.09938 0.87118 0.34780
 C59 C 0.07319 0.84480 0.34597
 C60 C 0.07158 0.81615 0.37138
 C61 C 0.09598 0.81582 0.39975
 C62 C 0.12219 0.84205 0.40192
 C63 C 0.12401 0.86974 0.37575
 C64 C 0.10105 0.89923 0.32219
 C65 C 0.12736 0.92574 0.32354
 C66 C 0.15133 0.92436 0.35220
 C67 C 0.14991 0.89650 0.37806
 C68 C 0.17392 0.89518 0.40638
 C69 C 0.17292 0.86727 0.43243
 C70 C 0.14638 0.84106 0.43014
 H71 H 0.05386 0.84762 0.32507
 H72 H 0.09439 0.79503 0.42049
 H73 H 0.08179 0.90050 0.30092
 H74 H 0.17083 0.94498 0.35524
 H75 H 0.19363 0.91601 0.40824
 H76 H 0.14372 0.82002 0.45026
 N77 N 0.08244 0.18225 0.10898
 N78 N 0.06684 0.16646 0.13694
 C79 C 0.03723 0.18528 0.14627
 C80 C 0.03413 0.21441 0.12283
 C81 C 0.06336 0.21160 0.09962
 H82 H 0.01943 0.17827 0.16848
 H83 H 0.07004 0.22963 0.07743
 Cu84 Cu 0.08678 0.12295 0.15858
 Cu85 Cu 0.12598 0.16342 0.08648
 Cu86 Cu 0.16324 0.08702 0.12521
 N87 N 0.10896 0.08085 0.18077
 N88 N 0.13877 0.06697 0.16756
 C89 C 0.14834 0.03851 0.18804
 C90 C 0.12328 0.03425 0.21564
 C91 C 0.09861 0.06166 0.21018
 H92 H 0.17194 0.02211 0.18346
 H93 H 0.07504 0.06742 0.22642
 N94 N 0.18408 0.11120 0.08225
 N95 N 0.16991 0.14035 0.06756
 C96 C 0.19019 0.15041 0.03883
 C97 C 0.21849 0.12653 0.03523
 C98 C 0.21375 0.10198 0.06327
 H99 H 0.18495 0.17345 0.02161
 H100 H 0.23056 0.07911 0.06950
 H101 H 0.11901 0.11042 0.10209
 H102 H 0.14477 0.13904 0.13285
 N103 N 0.40710 0.81737 0.61596
 N104 N 0.42094 0.83251 0.64407
 C105 C 0.45058 0.81417 0.65317
 C106 C 0.45555 0.78599 0.62945
 C107 C 0.42738 0.78887 0.60627
 H108 H 0.46747 0.82122 0.67502
 H109 H 0.42246 0.77172 0.58367
 Cu110 Cu 0.39963 0.87557 0.66500
 Cu111 Cu 0.36459 0.83645 0.59327
 Cu112 Cu 0.32644 0.91364 0.62990
 N113 N 0.37790 0.91861 0.68552
 N114 N 0.34958 0.93370 0.67142
 C115 C 0.34102 0.96375 0.68972
 C116 C 0.36535 0.96771 0.71678
 C117 C 0.38822 0.93848 0.71334
 H118 H 0.31898 0.98146 0.68344
 H119 H 0.41111 0.93273 0.72960
 N120 N 0.30704 0.88917 0.58796
 N121 N 0.32156 0.85978 0.57413
 C122 C 0.30242 0.84967 0.54591
 C123 C 0.27451 0.87376 0.54169
 C124 C 0.27826 0.89849 0.56886
 H125 H 0.30821 0.82649 0.52939
 H126 H 0.26140 0.92159 0.57436
 H127 H 0.37149 0.88933 0.60783
 H128 H 0.34299 0.86119 0.63857
 N129 N 0.92200 0.67657 0.39294
 N130 N 0.93716 0.66224 0.36413
 C131 C 0.96530 0.68222 0.35377
 C132 C 0.96782 0.71063 0.37725
 C133 C 0.93986 0.70610 0.40184
 H134 H 0.98271 0.67681 0.33077
 H135 H 0.93285 0.72288 0.42454
 Cu136 Cu 0.91799 0.61932 0.34282
 Cu137 Cu 0.87993 0.65630 0.41666
 Cu138 Cu 0.84630 0.57904 0.37992
 N139 N 0.89899 0.57587 0.32241
 N140 N 0.87118 0.56011 0.33743
 C141 C 0.86264 0.53166 0.31760
 C142 C 0.88615 0.52947 0.28841
 C143 C 0.90899 0.55797 0.29237
 H144 H 0.84024 0.51439 0.32320
 H145 H 0.93062 0.56571 0.27434
 N146 N 0.82484 0.60234 0.42279
 N147 N 0.83763 0.63177 0.43674
 C148 C 0.81646 0.64184 0.46473
 C149 C 0.78895 0.61775 0.46855
 C150 C 0.79516 0.59299 0.44151
 H151 H 0.82012 0.66546 0.48081
 H152 H 0.77891 0.57032 0.43530
 H153 H 0.88975 0.60408 0.40078
 H154 H 0.86027 0.63208 0.37159
 N155 N 0.58782 0.31748 -0.11111
 N156 N 0.57356 0.33327 -0.13928
 C157 C 0.54512 0.31446 -0.14899
 C158 C 0.54134 0.28532 -0.12574
 C159 C 0.56897 0.28810 -0.10197
 H160 H 0.52829 0.32121 -0.17136
 H161 H 0.57506 0.27024 -0.07970
 Cu162 Cu 0.59358 0.37678 -0.16049
 Cu163 Cu 0.62972 0.33623 -0.08835
 Cu164 Cu 0.66636 0.41340 -0.12641
 N165 N 0.61470 0.41965 -0.18193
 N166 N 0.64304 0.43400 -0.16834
 C167 C 0.65167 0.46366 -0.18763
 C168 C 0.62738 0.46816 -0.21485
 C169 C 0.60443 0.43964 -0.21044
 H170 H 0.67390 0.48059 -0.18205
 H171 H 0.58173 0.43426 -0.22675
 N172 N 0.68608 0.38860 -0.08394
 N173 N 0.67207 0.35935 -0.06932
 C174 C 0.69096 0.34946 -0.04034
 C175 C 0.71818 0.37367 -0.03653
 C176 C 0.71426 0.39800 -0.06468
 H177 H 0.68505 0.32655 -0.02317
 H178 H 0.73064 0.42116 -0.07025
 H179 H 0.62185 0.38928 -0.10361
 H180 H 0.65054 0.36114 -0.13418
 C181 C -0.04249 0.29463 0.11783
 C182 C -0.00468 0.30782 0.12542
 C183 C 0.02022 0.28105 0.12774
 C184 C 0.00564 0.24334 0.12172
 C185 C -0.02521 0.23947 0.14943
 C186 C -0.05018 0.26613 0.14735
 C187 C -0.03707 0.27293 0.08271
 C188 C -0.01230 0.24606 0.08505
 H189 H 0.00224 0.33591 0.12766
 H190 H 0.04801 0.28637 0.13245
 H191 H -0.02771 0.21766 0.16895
 H192 H -0.07360 0.26676 0.16508
 H193 H -0.04885 0.27960 0.05706
 H194 H -0.00461 0.22964 0.06207
 C195 C 0.53616 0.71007 0.62190
 C196 C 0.54018 0.73606 0.65338
 C197 C 0.51381 0.76127 0.65637
 C198 C 0.48539 0.75852 0.62747
 C199 C 0.50628 0.76003 0.59140
 C200 C 0.53260 0.73473 0.58824
 C201 C 0.49866 0.69444 0.62747
 C202 C 0.47228 0.71969 0.63061
 H203 H 0.56217 0.73477 0.67179
 H204 H 0.51360 0.78114 0.67748
 H205 H 0.49991 0.77850 0.56950
 H206 H 0.54734 0.73165 0.56300
 H207 H 0.49323 0.66587 0.62830
 H208 H 0.44453 0.71264 0.63443
 C209 C 1.04439 0.78896 0.37112
 C210 C 1.05892 0.75041 0.37734
 C211 C 1.03339 0.72490 0.37996
 C212 C 0.99543 0.73968 0.37559
 C213 C 0.99114 0.76916 0.40410
 C214 C 1.01656 0.79472 0.40170
 C215 C 1.02226 0.78554 0.33667
 C216 C 0.99663 0.76007 0.33932
 H217 H 1.08701 0.74358 0.37869
 H218 H 1.03973 0.69660 0.38393
 H219 H 0.96987 0.77046 0.42431
 H220 H 1.01663 0.81739 0.41984
 H221 H 1.02758 0.79919 0.31118
 H222 H 0.98003 0.75364 0.31682
 C223 C 0.46280 0.20967 -0.13191
 C224 C 0.48678 0.21329 -0.16623
 C225 C 0.51299 0.23786 -0.16352
 C226 C 0.51297 0.25718 -0.12721
 C227 C 0.47521 0.27298 -0.12277
 C228 C 0.44906 0.24832 -0.12545
 C229 C 0.48880 0.20215 -0.10128
 C230 C 0.51492 0.22682 -0.09875
 H231 H 0.48258 0.20010 -0.19158
 H232 H 0.53112 0.24418 -0.18590
 H233 H 0.46949 0.30129 -0.11846
 H234 H 0.42108 0.25580 -0.12376
 H235 H 0.48690 0.17906 -0.08315
 H236 H 0.53501 0.22447 -0.07839
 C237 C 0.12776 -0.04438 0.29490
 C238 C 0.09507 -0.01932 0.29877
 C239 C 0.09306 0.00681 0.27285
 C240 C 0.12407 0.00582 0.24503
 C241 C 0.15765 0.00738 0.26758
 C242 C 0.15983 -0.01881 0.29345
 C243 C 0.12633 -0.05866 0.25614
 C244 C 0.12418 -0.03252 0.23023
 H245 H 0.07518 -0.02184 0.32035
 H246 H 0.07135 0.02624 0.27262
 H247 H 0.17868 0.02665 0.26268
 H248 H 0.18347 -0.02170 0.30930
 H249 H 0.12745 -0.08699 0.24956
 H250 H 0.12315 -0.03860 0.20172
 C251 C 0.61918 0.54704 -0.29356
 C252 C 0.64930 0.55333 -0.26712
 C253 C 0.65246 0.52758 -0.24099
 C254 C 0.62512 0.49744 -0.24326
 C255 C 0.58889 0.51691 -0.24282
 C256 C 0.58547 0.54248 -0.26913
 C257 C 0.62627 0.50880 -0.30798
 C258 C 0.62962 0.48311 -0.28176
 H259 H 0.66660 0.57645 -0.26865
 H260 H 0.67244 0.52911 -0.22055
 H261 H 0.56696 0.50973 -0.22465
 H262 H 0.55991 0.55534 -0.27342
 H263 H 0.62769 0.50226 -0.33644
 H264 H 0.63428 0.45498 -0.28792
 C265 C 0.37577 1.04778 0.79151
 C266 C 0.34519 1.05472 0.76539
 C267 C 0.34124 1.02858 0.74056
 C268 C 0.36830 0.99745 0.74375
 C269 C 0.40474 1.01548 0.74170
 C270 C 0.40896 1.04138 0.76670
 C271 C 0.36853 1.01013 0.80788
 C272 C 0.36438 0.98407 0.78298
 H273 H 0.32812 1.07849 0.76621
 H274 H 0.32080 1.03039 0.72051
 H275 H 0.42626 1.00704 0.72354
 H276 H 0.43480 1.05316 0.77000
 H277 H 0.36761 1.00421 0.83665
 H278 H 0.35952 0.95626 0.79055
 C279 C 0.87849 0.45632 0.20653
 C280 C 0.90946 0.48250 0.20080
 C281 C 0.91258 0.50682 0.22759
 C282 C 0.88433 0.50301 0.25807
 C283 C 0.84864 0.50516 0.23898
 C284 C 0.84532 0.48075 0.21236
 C285 C 0.88435 0.43937 0.24413
 C286 C 0.88760 0.46372 0.27090
 H287 H 0.92746 0.48194 0.17746
 H288 H 0.93337 0.52670 0.22683
 H289 H 0.82701 0.52322 0.24695
 H290 H 0.82018 0.47790 0.19921
 H291 H 0.88524 0.41062 0.24939
 H292 H 0.89161 0.45571 0.29878
 C293 C 0.29717 0.13274 -0.04401
 C294 C 0.25929 0.12872 -0.05821
 C295 C 0.23360 0.12602 -0.03184
 C296 C 0.24768 0.12803 0.00659
 C297 C 0.27636 0.09825 0.00853
 C298 C 0.30206 0.10078 -0.01781
 C299 C 0.29404 0.16596 -0.01947
 C300 C 0.26840 0.16325 0.00697
 H301 H 0.25310 0.12864 -0.08664
 H302 H 0.20567 0.12330 -0.03783
 H303 H 0.27686 0.07696 0.02874
 H304 H 0.32415 0.08176 -0.01975
 H305 H 0.30850 0.19070 -0.02344
 H306 H 0.26234 0.18496 0.02549
 C307 C 0.70573 0.62705 0.54252
 C308 C 0.70312 0.59410 0.51818
 C309 C 0.73039 0.59047 0.49365
 C310 C 0.75820 0.62026 0.49537
 C311 C 0.73680 0.65543 0.49136
 C312 C 0.70960 0.65923 0.51595
 C313 C 0.74271 0.62349 0.55929
 C314 C 0.76998 0.61975 0.53472
 H315 H 0.68142 0.57518 0.52005
 H316 H 0.73166 0.56832 0.47497
 H317 H 0.74339 0.67632 0.47168
 H318 H 0.69434 0.68406 0.51712
 H319 H 0.74713 0.62436 0.58808
 H320 H 0.79750 0.61713 0.54260
 C321 C 0.79464 0.37971 0.04082
 C322 C 0.80947 0.37522 0.00199
 C323 C 0.78404 0.37256 -0.02329
 C324 C 0.74584 0.37502 -0.00783
 C325 C 0.74388 0.34548 0.02154
 C326 C 0.76927 0.34801 0.04682
 C327 C 0.76987 0.41312 0.03815
 C328 C 0.74440 0.41040 0.01297
 H329 H 0.83763 0.37471 -0.00513
 H330 H 0.79055 0.36949 -0.05179
 H331 H 0.72432 0.32438 0.02280
 H332 H 0.77107 0.32917 0.06933
 H333 H 0.77293 0.43795 0.05251
 H334 H 0.72582 0.43221 0.00728
 C335 C 0.19980 0.86742 0.46262
 C336 C 0.20144 0.83439 0.48833
 C337 C 0.22577 0.83718 0.51467
 C338 C 0.24671 0.87228 0.51314
 C339 C 0.26277 0.87396 0.47468
 C340 C 0.23842 0.87121 0.44838
 C341 C 0.19372 0.89958 0.48780
 C342 C 0.21810 0.90219 0.51409
 H343 H 0.18669 0.80989 0.48562
 H344 H 0.23053 0.81571 0.53415
 H345 H 0.29100 0.87664 0.46862
 H346 H 0.24604 0.87126 0.41994
 H347 H 0.17177 0.91862 0.48527
 H348 H 0.21666 0.92355 0.53366
   
