data_POSCAR
  _audit_creation_date              2014-09-24
  _audit_creation_method            'ToBaCCo'
  _symmetry_space_group_name_H-M    'P1'
  _symmetry_Int_Tables_number       1
  _symmetry_cell_setting            triclinic
  loop_
  _symmetry_equiv_pos_as_xyz
 x,y,z
_cell_length_a 33.4134
_cell_length_b 33.4108
_cell_length_c 32.9406
_cell_angle_alpha 90.101300
_cell_angle_beta 90.080700
_cell_angle_gamma 120.179200
loop_
  _atom_site_label
  _atom_site_type_symbol
  _atom_site_fract_x
  _atom_site_fract_y
  _atom_site_fract_z
C1 C 0.52308 0.07012 0.05537
 H2 H 0.55592 0.07107 0.05484
 C3 C 0.51788 0.10182 0.07910
 H4 H 0.54674 0.12722 0.09706
 C5 C 0.44567 0.03669 0.03173
 H6 H 0.41795 0.01184 0.01263
 C7 C 0.43902 0.06788 0.05506
 H8 H 0.40605 0.06674 0.05415
 N9 N 0.48719 0.03826 0.03249
 C10 C 0.51987 -0.07124 0.01265
 H11 H 0.52000 -0.07225 -0.02018
 C12 C 0.52633 -0.10305 0.03500
 H13 H 0.53164 -0.12858 0.01941
 C14 C 0.51090 -0.03801 0.07320
 H15 H 0.50372 -0.01343 0.08797
 C16 C 0.51720 -0.06919 0.09669
 H17 H 0.51528 -0.06822 0.12947
 Zn18 Zn 0.49935 -0.00078 -0.00050
 N19 N 0.51240 -0.03954 0.03195
 C20 C 0.59072 0.03721 -0.03265
 N21 N 0.55058 0.03841 -0.03342
 C22 C 0.54639 0.07001 -0.05625
 C23 C 0.58330 0.10181 -0.07990
 C24 C 0.62859 0.06852 -0.05590
 C25 C 0.40820 -0.07178 -0.01378
 C26 C 0.36981 -0.10390 -0.03616
 C27 C 0.41277 -0.07005 -0.09784
 C28 C 0.45034 -0.03858 -0.07427
 N29 N 0.44739 -0.03996 -0.03303
 H30 H 0.59372 0.01258 -0.01359
 H31 H 0.51435 0.07066 -0.05573
 H32 H 0.57970 0.12699 -0.09782
 H33 H 0.66056 0.06767 -0.05497
 H34 H 0.40714 -0.07263 0.01904
 H35 H 0.33902 -0.12944 -0.02042
 H36 H 0.41581 -0.06900 -0.13064
 H37 H 0.48213 -0.01388 -0.08899
 C38 C 0.52473 -0.10214 0.07739
 C39 C 0.47553 0.10077 0.07887
 C40 C 0.37220 -0.10319 -0.07861
 C41 C 0.62479 0.10113 -0.07965
 C42 C -0.07048 0.47674 0.61114
 H43 H -0.07141 0.44390 0.61165
 C44 C -0.10219 0.48192 0.58742
 H45 H -0.12757 0.45305 0.56946
 C46 C -0.03709 0.55414 0.63480
 H47 H -0.01225 0.58187 0.65390
 C48 C -0.06829 0.56078 0.61148
 H49 H -0.06716 0.59374 0.61241
 N50 N -0.03863 0.51263 0.63402
 C51 C 0.07089 0.47999 0.65380
 H52 H 0.07190 0.47986 0.68662
 C53 C 0.10270 0.47353 0.63143
 H54 H 0.12822 0.46822 0.64701
 C55 C 0.03766 0.48897 0.59327
 H56 H 0.01308 0.49615 0.57851
 C57 C 0.06884 0.48268 0.56976
 H58 H 0.06787 0.48460 0.53698
 Zn59 Zn 0.00042 0.50049 0.66699
 N60 N 0.03919 0.48747 0.63452
 C61 C -0.03754 0.40912 0.69911
 N62 N -0.03875 0.44925 0.69990
 C63 C -0.07035 0.45343 0.72275
 C64 C -0.10213 0.41651 0.74640
 C65 C -0.06883 0.37124 0.72236
 C66 C 0.07140 0.59167 0.68029
 C67 C 0.10348 0.63005 0.70270
 C68 C 0.06967 0.58710 0.76432
 C69 C 0.03821 0.54951 0.74077
 N70 N 0.03959 0.55246 0.69953
 H71 H -0.01291 0.40612 0.68003
 H72 H -0.07101 0.48547 0.72224
 H73 H -0.12732 0.42010 0.76433
 H74 H -0.06797 0.33927 0.72141
 H75 H 0.07227 0.59275 0.64746
 H76 H 0.12909 0.66091 0.68716
 H77 H 0.06883 0.58427 0.79710
 H78 H 0.01354 0.51772 0.75550
 C79 C 0.10178 0.47515 0.58904
 C80 C -0.10116 0.52426 0.58767
 C81 C 0.10273 0.62761 0.74509
 C82 C -0.10145 0.37503 0.74613
 C83 C 0.54684 0.47639 0.38911
 H84 H 0.51477 0.44354 0.38848
 C85 C 0.58378 0.48165 0.41287
 H86 H 0.58017 0.45284 0.43076
 C87 C 0.59121 0.55373 0.36568
 H88 H 0.59422 0.58140 0.34665
 C89 C 0.62911 0.56046 0.38905
 H90 H 0.66111 0.59343 0.38823
 N91 N 0.55104 0.51221 0.36632
 C92 C 0.40865 0.47936 0.34631
 H93 H 0.40748 0.47910 0.31348
 C94 C 0.37036 0.47297 0.36863
 H95 H 0.33948 0.46758 0.35300
 C96 C 0.45096 0.48861 0.40690
 H97 H 0.48278 0.49587 0.42171
 C98 C 0.41347 0.48238 0.43035
 H99 H 0.41640 0.48445 0.46314
 Zn100 Zn 0.49976 0.49993 0.33326
 N101 N 0.44789 0.48694 0.36565
 C102 C 0.44595 0.40845 0.30086
 N103 N 0.48748 0.44862 0.30023
 C104 C 0.52331 0.45280 0.27744
 C105 C 0.51804 0.41585 0.25370
 C106 C 0.43923 0.37054 0.27751
 C107 C 0.52036 0.59105 0.32018
 C108 C 0.52679 0.62933 0.29784
 C109 C 0.51739 0.58618 0.23614
 C110 C 0.51113 0.54869 0.25961
 N111 N 0.51278 0.55179 0.30086
 H112 H 0.41828 0.40546 0.31988
 H113 H 0.55615 0.48487 0.27807
 H114 H 0.54686 0.41944 0.23582
 H115 H 0.40626 0.33854 0.27832
 H116 H 0.52061 0.59224 0.35301
 H117 H 0.53218 0.66023 0.31345
 H118 H 0.51534 0.58322 0.20335
 H119 H 0.50386 0.51685 0.24481
 C120 C 0.37293 0.47476 0.41102
 C121 C 0.62530 0.52401 0.41276
 C122 C 0.52503 0.62674 0.25545
 C123 C 0.47569 0.37433 0.25380
 C124 C 0.20188 0.46912 0.52138
 C125 C 0.22931 0.45076 0.54442
 C126 C 0.26350 0.45071 0.52191
 C127 C 0.26688 0.46903 0.47859
 C128 C 0.27258 0.51726 0.48393
 C129 C 0.23844 0.51731 0.50641
 C130 C 0.18411 0.43918 0.48289
 C131 C 0.21831 0.43913 0.46038
 C132 C 0.16540 0.46978 0.54559
 C133 C 0.13605 0.47156 0.56544
 C134 C 0.30397 0.46957 0.45440
 C135 C 0.33508 0.47127 0.43457
 H136 H 0.22246 0.43881 0.57562
 H137 H 0.28593 0.43871 0.53384
 H138 H 0.30096 0.54866 0.47117
 H139 H 0.23759 0.54875 0.51288
 H140 H 0.14788 0.41971 0.47411
 H141 H 0.21138 0.41961 0.43232
 C142 C 0.53075 0.79776 0.14502
 C143 C 0.57528 0.79542 0.14065
 C144 C 0.57532 0.76122 0.16317
 C145 C 0.53084 0.73278 0.18783
 C146 C 0.49143 0.71489 0.15655
 C147 C 0.49138 0.74903 0.13407
 C148 C 0.52571 0.80264 0.19080
 C149 C 0.52575 0.76848 0.21330
 C150 C 0.53010 0.83424 0.12082
 C151 C 0.52832 0.86359 0.10098
 C152 C 0.53028 0.69570 0.21204
 C153 C 0.52855 0.66459 0.23188
 H154 H 0.60420 0.81857 0.12157
 H155 H 0.60428 0.75507 0.16340
 H156 H 0.46581 0.67857 0.15239
 H157 H 0.46573 0.74194 0.11065
 H158 H 0.52246 0.83051 0.20436
 H159 H 0.52254 0.76708 0.24613
 C160 C 0.26903 0.79930 0.85578
 C161 C 0.28467 0.79375 0.81338
 C162 C 0.25028 0.75946 0.79084
 C163 C 0.20358 0.73403 0.81289
 C164 C 0.19330 0.77218 0.82565
 C165 C 0.22774 0.80653 0.84822
 C166 C 0.24810 0.75121 0.87522
 C167 C 0.21371 0.71692 0.85268
 C168 C 0.30637 0.83593 0.88003
 C169 C 0.33770 0.86542 0.89991
 C170 C 0.16684 0.69680 0.78863
 C171 C 0.13727 0.66558 0.76874
 H172 H 0.31968 0.81495 0.80203
 H173 H 0.25582 0.75128 0.76019
 H174 H 0.16178 0.77222 0.81767
 H175 H 0.22574 0.83599 0.85958
 H176 H 0.25927 0.74467 0.90418
 H177 H 0.19543 0.68101 0.86235
 C178 C 0.79917 0.53260 0.52120
 C179 C 0.76985 0.54760 0.54570
 C180 C 0.73526 0.54757 0.52366
 C181 C 0.73343 0.53254 0.47930
 C182 C 0.72981 0.48497 0.48160
 C183 C 0.76432 0.48500 0.50360
 C184 C 0.81662 0.56523 0.48449
 C185 C 0.78201 0.56520 0.46244
 C186 C 0.83593 0.53177 0.54492
 C187 C 0.86516 0.52929 0.56441
 C188 C 0.69580 0.53165 0.45557
 C189 C 0.66406 0.52912 0.43606
 H190 H 0.77578 0.55747 0.57751
 H191 H 0.71157 0.55741 0.53659
 H192 H 0.70250 0.45393 0.46719
 H193 H 0.76657 0.45399 0.50802
 H194 H 0.85290 0.58651 0.47657
 H195 H 0.78865 0.58646 0.43562
 C196 C 0.46716 0.20043 0.14537
 C197 C 0.44852 0.18597 0.18866
 C198 C 0.44853 0.22056 0.21071
 C199 C 0.46718 0.26618 0.18728
 C200 C 0.43751 0.25345 0.14860
 C201 C 0.43750 0.21885 0.12655
 C202 C 0.51540 0.24320 0.15072
 C203 C 0.51542 0.27772 0.17272
 C204 C 0.46800 0.16367 0.12165
 C205 C 0.47049 0.13444 0.10214
 C206 C 0.46806 0.30380 0.21101
 C207 C 0.47059 0.33555 0.23052
 H208 H 0.43631 0.15160 0.20089
 H209 H 0.43633 0.21582 0.24183
 H210 H 0.41818 0.27007 0.13939
 H211 H 0.41815 0.20583 0.09844
 H212 H 0.54685 0.24614 0.13829
 H213 H 0.54688 0.31021 0.17913
 C214 C -0.26708 0.20103 0.85411
 C215 C -0.22233 0.23009 0.87848
 C216 C -0.18772 0.26472 0.85653
 C217 C -0.20129 0.26687 0.81238
 C218 C -0.24508 0.27068 0.81531
 C219 C -0.27962 0.23612 0.83722
 C220 C -0.25246 0.18369 0.81694
 C221 C -0.21783 0.21834 0.79497
 C222 C -0.30473 0.16421 0.87774
 C223 C -0.33647 0.13491 0.89716
 C224 C -0.16449 0.30453 0.78875
 C225 C -0.13521 0.33628 0.76932
 H226 H -0.21816 0.22396 0.91015
 H227 H -0.15390 0.28826 0.86939
 H228 H -0.24866 0.29815 0.80138
 H229 H -0.31278 0.23399 0.84204
 H230 H -0.26787 0.14743 0.80865
 H231 H -0.20357 0.21177 0.76786
   
