data_POSCAR
  _audit_creation_date              2014-09-24
  _audit_creation_method            'ToBaCCo'
  _symmetry_space_group_name_H-M    'P1'
  _symmetry_Int_Tables_number       1
  _symmetry_cell_setting            triclinic
  loop_
  _symmetry_equiv_pos_as_xyz
 x,y,z
_cell_length_a 44.5690
_cell_length_b 44.5710
_cell_length_c 30.5024
_cell_angle_alpha 90.056200
_cell_angle_beta 90.009300
_cell_angle_gamma 88.470800
loop_
  _atom_site_label
  _atom_site_type_symbol
  _atom_site_fract_x
  _atom_site_fract_y
  _atom_site_fract_z
O1 O -0.02626 0.29835 0.04623
 O2 O 0.02979 0.29672 -0.04320
 O3 O -0.02937 0.29781 -0.03881
 O4 O 0.03272 0.29670 0.04188
 O5 O 0.03253 0.24708 0.04182
 O6 O -0.02870 0.24817 -0.03818
 O7 O 0.02974 0.24711 -0.04250
 O8 O -0.02576 0.24871 0.04612
 Cu9 Cu 0.00170 0.30247 0.00143
 Cu10 Cu 0.00197 0.24282 0.00179
 C11 C -0.03574 0.27366 0.06076
 C12 C 0.03960 0.27151 -0.05730
 C13 C -0.03980 0.27300 -0.05142
 C14 C 0.04331 0.27152 0.05493
 O15 O 0.46452 0.79478 0.52330
 O16 O 0.52464 0.79179 0.43948
 O17 O 0.46561 0.79156 0.43848
 O18 O 0.52359 0.79577 0.52492
 O19 O 0.52520 0.74622 0.52882
 O20 O 0.46766 0.74203 0.44318
 O21 O 0.52607 0.74227 0.44414
 O22 O 0.46678 0.74523 0.52735
 Cu23 Cu 0.49450 0.79853 0.48111
 Cu24 Cu 0.49670 0.73900 0.48632
 C25 C 0.45517 0.77029 0.53878
 C26 C 0.53561 0.76639 0.42800
 C27 C 0.45649 0.76600 0.42693
 C28 C 0.53433 0.77157 0.54116
 O29 O 1.02702 0.70913 0.02281
 O30 O 0.96716 0.71275 -0.06141
 O31 O 1.02594 0.71225 -0.06273
 O32 O 0.96811 0.70833 0.02383
 O33 O 0.96690 0.75788 0.02810
 O34 O 1.02441 0.76176 -0.05778
 O35 O 0.96618 0.76227 -0.05646
 O36 O 1.02526 0.75867 0.02709
 Cu37 Cu 0.99722 0.70558 -0.01982
 Cu38 Cu 0.99557 0.76508 -0.01424
 C39 C 1.03634 0.73348 0.03891
 C40 C 0.95649 0.73827 -0.07286
 C41 C 1.03498 0.73773 -0.07471
 C42 C 0.95756 0.73257 0.04024
 O43 O 0.53130 0.21138 0.54774
 O44 O 0.47624 0.21004 0.45716
 O45 O 0.53493 0.21235 0.46239
 O46 O 0.47286 0.20992 0.54284
 O47 O 0.47027 0.25954 0.54299
 O48 O 0.53167 0.26194 0.46324
 O49 O 0.47353 0.25964 0.45801
 O50 O 0.52821 0.26099 0.54798
 Cu51 Cu 0.50409 0.20587 0.50236
 Cu52 Cu 0.50059 0.26549 0.50302
 C53 C 0.53906 0.23651 0.56303
 C54 C 0.46550 0.23471 0.44249
 C55 C 0.54391 0.23770 0.44962
 C56 C 0.46120 0.23450 0.55654
 O57 O 0.71052 -0.02410 0.06615
 O58 O 0.70849 0.03440 -0.01998
 O59 O 0.70540 -0.02436 -0.01901
 O60 O 0.71264 0.03463 0.06542
 O61 O 0.76205 0.03101 0.05946
 O62 O 0.75486 -0.02763 -0.02426
 O63 O 0.75792 0.03057 -0.02525
 O64 O 0.75996 -0.02717 0.06020
 Cu65 Cu 0.70423 0.00552 0.02371
 Cu66 Cu 0.76363 0.00135 0.01694
 C67 C 0.73573 -0.03561 0.07739
 C68 C 0.73304 0.04246 -0.03689
 C69 C 0.72905 -0.03611 -0.03557
 C70 C 0.73863 0.04285 0.07647
 O71 O 0.20345 0.46887 0.53343
 O72 O 0.20536 0.52609 0.44581
 O73 O 0.20502 0.46728 0.44845
 O74 O 0.20436 0.52785 0.53158
 O75 O 0.25398 0.52575 0.53282
 O76 O 0.25465 0.46594 0.45041
 O77 O 0.25497 0.52415 0.44781
 O78 O 0.25309 0.46739 0.53470
 Cu79 Cu 0.19948 0.49782 0.48970
 Cu80 Cu 0.25913 0.49573 0.49165
 C81 C 0.22809 0.45811 0.54820
 C82 C 0.23059 0.53477 0.43212
 C83 C 0.23012 0.45617 0.43594
 C84 C 0.22921 0.53708 0.54599
 O85 O 0.29511 1.02499 0.03467
 O86 O 0.29463 0.96786 -0.05327
 O87 O 0.29319 1.02679 -0.05145
 O88 O 0.29581 0.96583 0.03092
 O89 O 0.24618 0.96679 0.03267
 O90 O 0.24361 1.02699 -0.04909
 O91 O 0.24499 0.96862 -0.05103
 O92 O 0.24552 1.02527 0.03620
 Cu93 Cu 0.29975 0.99663 -0.00987
 Cu94 Cu 0.24011 0.99723 -0.00755
 C95 C 0.27030 1.03478 0.05019
 C96 C 0.26961 0.95801 -0.06596
 C97 C 0.26782 1.03704 -0.06427
 C98 C 0.27125 0.95540 0.04446
 O99 O 0.79253 0.53170 0.57062
 O100 O 0.80159 0.47390 0.48399
 O101 O 0.80039 0.53338 0.48586
 O102 O 0.79518 0.47280 0.56792
 O103 O 0.74594 0.47291 0.55864
 O104 O 0.75114 0.53316 0.47735
 O105 O 0.75231 0.47442 0.47520
 O106 O 0.74333 0.53128 0.56137
 Cu107 Cu 0.80245 0.50313 0.52784
 Cu108 Cu 0.74327 0.50308 0.51711
 C109 C 0.76627 0.54128 0.58039
 C110 C 0.77819 0.46371 0.46614
 C111 C 0.77649 0.54383 0.46837
 C112 C 0.76966 0.46219 0.57625
 C113 C 0.21007 0.19820 0.17793
 C114 C 0.23738 0.18644 0.19384
 C115 C 0.25549 0.20450 0.22007
 C116 C 0.24741 0.23489 0.22861
 C117 C 0.22041 0.24643 0.20992
 C118 C 0.20129 0.22802 0.18607
 C119 C 0.26683 0.25454 0.25647
 C120 C 0.25500 0.28145 0.27511
 C121 C 0.27318 0.30074 0.29901
 C122 C 0.30305 0.29227 0.30721
 C123 C 0.31509 0.26504 0.29143
 C124 C 0.29727 0.24672 0.26516
 H125 H 0.19612 0.18446 0.15736
 H126 H 0.27562 0.19427 0.23373
 H127 H 0.21370 0.26973 0.21356
 H128 H 0.23164 0.28791 0.27148
 H129 H 0.31659 0.30636 0.32787
 H130 H 0.30771 0.22663 0.25166
 C131 C 0.80072 0.79522 0.19117
 C132 C 0.77412 0.80708 0.20929
 C133 C 0.75673 0.78885 0.23609
 C134 C 0.76482 0.75837 0.24322
 C135 C 0.79126 0.74670 0.22318
 C136 C 0.80961 0.76525 0.19816
 C137 C 0.74586 0.73915 0.27180
 C138 C 0.75864 0.71463 0.29522
 C139 C 0.74110 0.69759 0.32359
 C140 C 0.71066 0.70523 0.32902
 C141 C 0.69743 0.72947 0.30641
 C142 C 0.71491 0.74590 0.27727
 H143 H 0.81405 0.80907 0.16991
 H144 H 0.73711 0.79889 0.25166
 H145 H 0.79783 0.72330 0.22691
 H146 H 0.78241 0.70928 0.29302
 H147 H 0.69729 0.69251 0.35172
 H148 H 0.70404 0.76386 0.25891
 C149 C 0.80590 0.20727 0.19870
 C150 C 0.81447 0.23652 0.20826
 C151 C 0.79595 0.25483 0.23481
 C152 C 0.76983 0.24355 0.25449
 C153 C 0.76207 0.21367 0.24479
 C154 C 0.77948 0.19583 0.21602
 C155 C 0.75102 0.26268 0.28513
 C156 C 0.72068 0.25607 0.29349
 C157 C 0.70349 0.27298 0.32364
 C158 C 0.71621 0.29767 0.34424
 C159 C 0.74593 0.30524 0.33592
 C160 C 0.76333 0.28749 0.30709
 H161 H 0.81934 0.19374 0.17616
 H162 H 0.80233 0.27777 0.23996
 H163 H 0.74277 0.20370 0.25973
 H164 H 0.70990 0.23802 0.27649
 H165 H 0.70298 0.31093 0.36734
 H166 H 0.78667 0.29285 0.30325
 C167 C 0.20379 0.78660 0.15568
 C168 C 0.19122 0.76132 0.17474
 C169 C 0.20836 0.74383 0.20426
 C170 C 0.23858 0.75061 0.21360
 C171 C 0.25080 0.77586 0.19267
 C172 C 0.23341 0.79414 0.16463
 C173 C 0.25740 0.73142 0.24429
 C174 C 0.28389 0.74250 0.26332
 C175 C 0.30255 0.72421 0.28967
 C176 C 0.29373 0.69517 0.29984
 C177 C 0.26693 0.68398 0.28343
 C178 C 0.24934 0.70177 0.25485
 H179 H 0.19051 0.80034 0.13326
 H180 H 0.19756 0.72530 0.21997
 H181 H 0.27409 0.78129 0.19670
 H182 H 0.29054 0.76530 0.25790
 H183 H 0.30727 0.68163 0.32221
 H184 H 0.22968 0.69189 0.24082
 C185 C 0.69874 0.29593 0.69533
 C186 C 0.68681 0.27038 0.71448
 C187 C 0.70438 0.25329 0.74394
 C188 C 0.73451 0.26062 0.75290
 C189 C 0.74611 0.28611 0.73177
 C190 C 0.72825 0.30400 0.70383
 C191 C 0.75399 0.24150 0.78283
 C192 C 0.78089 0.25260 0.80056
 C193 C 0.80032 0.23423 0.82556
 C194 C 0.79188 0.20510 0.83600
 C195 C 0.76471 0.19389 0.82101
 C196 C 0.74633 0.21176 0.79359
 H197 H 0.68516 0.30927 0.67277
 H198 H 0.69402 0.23449 0.75957
 H199 H 0.76933 0.29194 0.73528
 H200 H 0.78735 0.27543 0.79496
 H201 H 0.80614 0.19146 0.85729
 H202 H 0.72645 0.20178 0.78049
 C203 C 0.29019 0.70461 0.66334
 C204 C 0.29868 0.73396 0.67247
 C205 C 0.27968 0.75262 0.69782
 C206 C 0.25322 0.74160 0.71689
 C207 C 0.24553 0.71167 0.70756
 C208 C 0.26344 0.69346 0.67999
 C209 C 0.23420 0.76093 0.74701
 C210 C 0.20382 0.75438 0.75531
 C211 C 0.18663 0.77145 0.78532
 C212 C 0.19937 0.79616 0.80576
 C213 C 0.22917 0.80349 0.79773
 C214 C 0.24655 0.78568 0.76903
 H215 H 0.30406 0.69070 0.64186
 H216 H 0.28606 0.77559 0.70274
 H217 H 0.22597 0.70189 0.72207
 H218 H 0.19305 0.73619 0.73863
 H219 H 0.18618 0.80946 0.82888
 H220 H 0.26997 0.79083 0.76555
 C221 C 0.29439 0.29486 0.68185
 C222 C 0.26462 0.30375 0.69007
 C223 C 0.24606 0.28461 0.71363
 C224 C 0.25750 0.25741 0.73193
 C225 C 0.28791 0.24934 0.72341
 C226 C 0.30602 0.26746 0.69742
 C227 C 0.23789 0.23772 0.75946
 C228 C 0.24622 0.20744 0.76840
 C229 C 0.22848 0.18945 0.79517
 C230 C 0.20108 0.20104 0.81096
 C231 C 0.19187 0.23066 0.80214
 C232 C 0.21069 0.24908 0.77779
 H233 H 0.30820 0.30883 0.66144
 H234 H 0.22280 0.29143 0.71730
 H235 H 0.29819 0.22921 0.73690
 H236 H 0.26634 0.19720 0.75476
 H237 H 0.18742 0.18740 0.83204
 H238 H 0.20365 0.27224 0.77365
 C239 C 0.69224 0.70931 0.69199
 C240 C 0.71898 0.69792 0.71030
 C241 C 0.73627 0.71675 0.73639
 C242 C 0.72853 0.74751 0.74160
 C243 C 0.70190 0.75862 0.72146
 C244 C 0.68331 0.73943 0.69779
 C245 C 0.74858 0.76780 0.76703
 C246 C 0.73730 0.79461 0.78658
 C247 C 0.75645 0.81369 0.80943
 C248 C 0.78664 0.80514 0.81512
 C249 C 0.79817 0.77822 0.79758
 C250 C 0.77941 0.76032 0.77234
 H251 H 0.67893 0.69506 0.67126
 H252 H 0.75582 0.70697 0.75239
 H253 H 0.69543 0.78211 0.72369
 H254 H 0.71376 0.80089 0.78439
 H255 H 0.80089 0.81895 0.83513
 H256 H 0.78932 0.74061 0.75692
 C257 C 0.26263 0.10187 0.13667
 C258 C 0.28367 0.12457 0.13958
 C259 C 0.27626 0.15146 0.16126
 C260 C 0.26982 0.05662 0.08126
 C261 C 0.22733 0.13235 0.17903
 C262 C 0.23481 0.10549 0.15757
 C263 C 0.26760 0.07679 0.10754
 C264 C 0.24759 0.15599 0.17978
 H265 H 0.30516 0.12213 0.12318
 H266 H 0.29215 0.16943 0.16098
 H267 H 0.20518 0.13521 0.19328
 H268 H 0.21830 0.08815 0.15535
 C269 C 0.74896 0.61188 0.66202
 C270 C 0.71946 0.61596 0.67709
 C271 C 0.71005 0.64342 0.69532
 C272 C 0.76206 0.56495 0.61188
 C273 C 0.76009 0.66234 0.68557
 C274 C 0.76944 0.63487 0.66725
 C275 C 0.75686 0.58584 0.63609
 C276 C 0.73004 0.66722 0.69854
 H277 H 0.70336 0.59839 0.67296
 H278 H 0.68687 0.64643 0.70542
 H279 H 0.77591 0.68034 0.68712
 H280 H 0.79222 0.63209 0.65526
 C281 C 0.74704 0.89345 0.15992
 C282 C 0.77594 0.88887 0.17698
 C283 C 0.78428 0.86128 0.19563
 C284 C 0.73732 0.94052 0.10884
 C285 C 0.73421 0.84327 0.18260
 C286 C 0.72594 0.87088 0.16374
 C287 C 0.74070 0.91952 0.13336
 C288 C 0.76377 0.83789 0.19736
 H289 H 0.79251 0.90610 0.17396
 H290 H 0.80710 0.85780 0.20711
 H291 H 0.71807 0.82553 0.18315
 H292 H 0.70360 0.87408 0.15023
 C293 C 0.23603 0.38681 0.63073
 C294 C 0.21800 0.36164 0.62713
 C295 C 0.22642 0.33481 0.64824
 C296 C 0.22823 0.43396 0.57922
 C297 C 0.27038 0.35865 0.67759
 C298 C 0.26187 0.38539 0.65676
 C299 C 0.23055 0.41277 0.60361
 C300 C 0.25316 0.33289 0.67266
 H301 H 0.19814 0.36239 0.60663
 H302 H 0.21291 0.31521 0.64367
 H303 H 0.29093 0.35779 0.69657
 H304 H 0.27612 0.40463 0.65951
 C305 C 0.89506 0.26496 0.14598
 C306 C 0.86942 0.28386 0.14559
 C307 C 0.84339 0.27534 0.16755
 C308 C 0.94076 0.27340 0.09279
 C309 C 0.86898 0.22948 0.19123
 C310 C 0.89492 0.23808 0.16958
 C311 C 0.92018 0.27084 0.11800
 C312 C 0.84275 0.24766 0.18957
 H313 H 0.86917 0.30455 0.12697
 H314 H 0.82340 0.28962 0.16556
 H315 H 0.86913 0.20820 0.20838
 H316 H 0.91454 0.22318 0.16982
 C317 C 0.38167 0.76173 0.61612
 C318 C 0.35619 0.78079 0.61376
 C319 C 0.32929 0.77240 0.63351
 C320 C 0.42997 0.77026 0.56801
 C321 C 0.35359 0.72627 0.65874
 C322 C 0.38039 0.73474 0.63929
 C323 C 0.40811 0.76771 0.59083
 C324 C 0.32760 0.74469 0.65529
 H325 H 0.35684 0.80158 0.59546
 H326 H 0.30954 0.78690 0.63017
 H327 H 0.35298 0.70498 0.67579
 H328 H 0.39987 0.71971 0.64107
 C329 C 0.10593 0.73945 0.12066
 C330 C 0.12825 0.71697 0.12558
 C331 C 0.15543 0.72350 0.14612
 C332 C 0.05926 0.73309 0.06828
 C333 C 0.13747 0.77462 0.15847
 C334 C 0.11032 0.76802 0.13824
 C335 C 0.08021 0.73480 0.09312
 C336 C 0.16064 0.75269 0.16140
 H337 H 0.12521 0.69485 0.11178
 H338 H 0.17305 0.70632 0.14760
 H339 H 0.14086 0.79721 0.17023
 H340 H 0.09329 0.78564 0.13447
 C341 C 0.60442 0.24567 0.65485
 C342 C 0.60696 0.27423 0.67338
 C343 C 0.63300 0.28165 0.69592
 C344 C 0.56117 0.23769 0.59710
 C345 C 0.65330 0.23128 0.68417
 C346 C 0.62723 0.22392 0.66139
 C347 C 0.58045 0.24037 0.62444
 C348 C 0.65686 0.26058 0.70015
 H349 H 0.58951 0.29128 0.66837
 H350 H 0.63518 0.30432 0.70813
 H351 H 0.67149 0.21476 0.68658
 H352 H 0.62560 0.20183 0.64688
 C353 C 0.74051 0.11059 0.87928
 C354 C 0.71911 0.13405 0.87573
 C355 C 0.72632 0.16061 0.85413
 C356 C 0.73323 0.06491 0.93309
 C357 C 0.77589 0.13977 0.83803
 C358 C 0.76861 0.11324 0.85939
 C359 C 0.73541 0.08543 0.90763
 C360 C 0.75514 0.16406 0.83633
 H361 H 0.69739 0.13235 0.89134
 H362 H 0.71004 0.17908 0.85364
 H363 H 0.79815 0.14176 0.82427
 H364 H 0.78540 0.09531 0.86210
 C365 C 0.24092 0.60197 0.34356
 C366 C 0.21974 0.62545 0.33809
 C367 C 0.22755 0.65151 0.31567
 C368 C 0.23203 0.55766 0.39921
 C369 C 0.27726 0.63003 0.30244
 C370 C 0.26939 0.60401 0.32464
 C371 C 0.23509 0.57752 0.37289
 C372 C 0.25674 0.65442 0.29895
 H373 H 0.19772 0.62422 0.35290
 H374 H 0.21142 0.67008 0.31381
 H375 H 0.29982 0.63162 0.28958
 H376 H 0.28601 0.58604 0.32881
 C377 C 0.26008 0.88221 0.86238
 C378 C 0.24621 0.85971 0.88634
 C379 C 0.23720 0.83360 0.86554
 C380 C 0.26873 0.93274 0.90506
 C381 C 0.25711 0.85167 0.79675
 C382 C 0.26598 0.87800 0.81766
 C383 C 0.26594 0.91016 0.88391
 C384 C 0.24199 0.82959 0.82038
 H385 H 0.24155 0.86274 0.92096
 H386 H 0.22591 0.81676 0.88454
 H387 H 0.26089 0.84909 0.76186
 H388 H 0.27660 0.89535 0.79879
 C389 C 0.77504 0.38572 0.39798
 C390 C 0.76213 0.36304 0.42281
 C391 C 0.75388 0.33631 0.40292
 C392 C 0.78022 0.43774 0.43838
 C393 C 0.77279 0.35405 0.33335
 C394 C 0.78086 0.38101 0.35333
 C395 C 0.77926 0.41447 0.41829
 C396 C 0.75848 0.33182 0.35781
 H397 H 0.75744 0.36645 0.45735
 H398 H 0.74317 0.31941 0.42253
 H399 H 0.77637 0.35114 0.29847
 H400 H 0.79064 0.39849 0.33373
 C401 C 0.10907 0.26053 0.86137
 C402 C 0.13417 0.27874 0.86339
 C403 C 0.16092 0.26973 0.84252
 C404 C 0.06220 0.27014 0.91293
 C405 C 0.13715 0.22474 0.81662
 C406 C 0.11048 0.23383 0.83725
 C407 C 0.08321 0.26693 0.88835
 C408 C 0.16283 0.24225 0.81987
 H409 H 0.13344 0.29926 0.88246
 H410 H 0.18044 0.28350 0.84584
 H411 H 0.13797 0.20363 0.79898
 H412 H 0.09129 0.21943 0.83578
 C413 C 0.60889 0.75438 0.34989
 C414 C 0.63016 0.77651 0.34349
 C415 C 0.65850 0.76874 0.32648
 C416 C 0.56027 0.76446 0.39782
 C417 C 0.64383 0.71692 0.32048
 C418 C 0.61553 0.72474 0.33724
 C419 C 0.58198 0.76085 0.37462
 C420 C 0.66591 0.73867 0.31620
 H421 H 0.62538 0.79946 0.35357
 H422 H 0.67519 0.78587 0.32392
 H423 H 0.64889 0.69365 0.31248
 H424 H 0.59932 0.70739 0.34228
 C425 C 0.88477 0.75083 0.84614
 C426 C 0.88027 0.77971 0.82895
 C427 C 0.85262 0.78816 0.81052
 C428 C 0.93224 0.74049 0.89632
 C429 C 0.83436 0.73828 0.82415
 C430 C 0.86204 0.72990 0.84273
 C431 C 0.91103 0.74427 0.87224
 C432 C 0.82907 0.76781 0.80919
 H433 H 0.89766 0.79615 0.83163
 H434 H 0.84924 0.81095 0.79888
 H435 H 0.81653 0.72224 0.82401
 H436 H 0.86516 0.70759 0.85632
 C437 C 0.39899 0.24101 0.35123
 C438 C 0.39553 0.26851 0.32947
 C439 C 0.36897 0.27551 0.30696
 C440 C 0.44316 0.23480 0.40862
 C441 C 0.34993 0.22667 0.32532
 C442 C 0.37652 0.21974 0.34805
 C443 C 0.42352 0.23664 0.38148
 C444 C 0.34548 0.25508 0.30602
 H445 H 0.41270 0.28520 0.33187
 H446 H 0.36615 0.29748 0.29215
 H447 H 0.33206 0.21067 0.32549
 H448 H 0.37884 0.19848 0.36508
 C449 C 0.73110 0.89440 0.87769
 C450 C 0.71365 0.86887 0.88224
 C451 C 0.72063 0.84290 0.85791
 C452 C 0.72708 0.94000 0.93305
 C453 C 0.76175 0.86842 0.82337
 C454 C 0.75466 0.89430 0.84739
 C455 C 0.72761 0.91939 0.90738
 C456 C 0.74536 0.84223 0.82928
 H457 H 0.69554 0.86860 0.90590
 H458 H 0.70786 0.82291 0.86327
 H459 H 0.78081 0.86846 0.80133
 H460 H 0.76842 0.91382 0.84375
 C461 C 0.24178 0.38343 0.35692
 C462 C 0.22431 0.35786 0.36007
 C463 C 0.23384 0.33108 0.33977
 C464 C 0.23136 0.43126 0.40623
 C465 C 0.27789 0.35570 0.31230
 C466 C 0.26828 0.38241 0.33235
 C467 C 0.23483 0.40965 0.38287
 C468 C 0.26111 0.32961 0.31657
 H469 H 0.20394 0.35833 0.37947
 H470 H 0.22064 0.31122 0.34383
 H471 H 0.29882 0.35522 0.29422
 H472 H 0.28209 0.40198 0.32999
 C473 C 0.25629 0.10561 0.85263
 C474 C 0.22789 0.10874 0.83329
 C475 C 0.21944 0.13539 0.81204
 C476 C 0.26609 0.05970 0.90605
 C477 C 0.26842 0.15538 0.82715
 C478 C 0.27681 0.12870 0.84860
 C479 C 0.26267 0.08033 0.88080
 C480 C 0.23930 0.15934 0.80991
 H481 H 0.21178 0.09108 0.83635
 H482 H 0.19696 0.13777 0.79876
 H483 H 0.28404 0.17358 0.82640
 H484 H 0.29875 0.12663 0.86375
 C485 C 0.77138 0.61992 0.39516
 C486 C 0.75688 0.64387 0.41684
 C487 C 0.74834 0.66974 0.39385
 C488 C 0.77745 0.56945 0.44002
 C489 C 0.77016 0.64860 0.32750
 C490 C 0.77854 0.62250 0.35060
 C491 C 0.77597 0.59206 0.41836
 C492 C 0.75422 0.67206 0.34875
 H493 H 0.75117 0.64212 0.45126
 H494 H 0.73633 0.68764 0.41101
 H495 H 0.77476 0.64985 0.29270
 H496 H 0.78959 0.60402 0.33343
 C497 C 0.10223 0.74820 0.84054
 C498 C 0.10633 0.77724 0.82463
 C499 C 0.13309 0.78436 0.80374
 C500 C 0.05700 0.73960 0.89475
 C501 C 0.15112 0.73289 0.81206
 C502 C 0.12433 0.72582 0.83318
 C503 C 0.07721 0.74267 0.86898
 C504 C 0.15615 0.76250 0.79856
 H505 H 0.08944 0.79476 0.83028
 H506 H 0.13634 0.80728 0.79338
 H507 H 0.16865 0.71573 0.80890
 H508 H 0.12150 0.70333 0.84566
 C509 C 0.61722 0.24915 0.37252
 C510 C 0.62223 0.27864 0.35919
 C511 C 0.64978 0.28611 0.34099
 C512 C 0.56903 0.23949 0.42043
 C513 C 0.66702 0.23425 0.34720
 C514 C 0.63942 0.22682 0.36563
 C515 C 0.59072 0.24293 0.39753
 C516 C 0.67276 0.26415 0.33592
 H517 H 0.60526 0.29613 0.36451
 H518 H 0.65352 0.30925 0.33220
 H519 H 0.68444 0.21697 0.34403
 H520 H 0.63589 0.20398 0.37615
 C521 C 0.88478 0.26288 0.87595
 C522 C 0.85941 0.28201 0.87904
 C523 C 0.83197 0.27325 0.86137
 C524 C 0.93433 0.27241 0.92070
 C525 C 0.85549 0.22653 0.83679
 C526 C 0.88282 0.23537 0.85418
 C527 C 0.91189 0.26939 0.89928
 C528 C 0.82965 0.24510 0.84094
 H529 H 0.86058 0.30320 0.89632
 H530 H 0.81235 0.28787 0.86523
 H531 H 0.85439 0.20490 0.82072
 H532 H 0.90223 0.22027 0.85191
 C533 C 0.38468 0.75311 0.34751
 C534 C 0.35928 0.77232 0.34780
 C535 C 0.33270 0.76349 0.32760
 C536 C 0.43204 0.76373 0.39667
 C537 C 0.35718 0.71655 0.30598
 C538 C 0.38368 0.72545 0.32595
 C539 C 0.41069 0.75993 0.37324
 C540 C 0.33125 0.73520 0.30734
 H541 H 0.35972 0.79364 0.36485
 H542 H 0.31299 0.77817 0.32941
 H543 H 0.35676 0.69481 0.29013
 H544 H 0.40311 0.71031 0.32578
 C545 C 0.26348 0.87596 0.10769
 C546 C 0.24974 0.85445 0.08158
 C547 C 0.24100 0.82735 0.09977
 C548 C 0.27123 0.92865 0.07050
 C549 C 0.26088 0.84249 0.17016
 C550 C 0.26948 0.86979 0.15189
 C551 C 0.26892 0.90497 0.08910
 C552 C 0.24592 0.82134 0.14443
 H553 H 0.24496 0.85900 0.04735
 H554 H 0.22983 0.81130 0.07915
 H555 H 0.26474 0.83843 0.20473
 H556 H 0.27995 0.88635 0.17245
 C557 C 0.75773 0.38483 0.64338
 C558 C 0.76402 0.37948 0.68772
 C559 C 0.75546 0.35258 0.70722
 C560 C 0.76741 0.43617 0.60346
 C561 C 0.73500 0.33623 0.63778
 C562 C 0.74366 0.36295 0.61838
 C563 C 0.76392 0.41315 0.62324
 C564 C 0.74031 0.33100 0.68256
 H565 H 0.77484 0.39632 0.70736
 H566 H 0.75964 0.34910 0.74185
 H567 H 0.72373 0.31981 0.61794
 H568 H 0.73875 0.36684 0.58402
 C569 C 0.75291 0.11248 0.15987
 C570 C 0.73158 0.13571 0.16625
 C571 C 0.73975 0.16227 0.18712
 C572 C 0.74194 0.06662 0.10772
 C573 C 0.79026 0.14187 0.19690
 C574 C 0.78204 0.11535 0.17621
 C575 C 0.74616 0.08720 0.13248
 C576 C 0.76944 0.16595 0.20143
 H577 H 0.70903 0.13383 0.15345
 H578 H 0.72335 0.18055 0.18976
 H579 H 0.81319 0.14399 0.20799
 H580 H 0.79876 0.09757 0.17134
 C581 C 0.23840 0.60863 0.62726
 C582 C 0.26705 0.61201 0.64508
 C583 C 0.27472 0.63911 0.66456
 C584 C 0.22990 0.56153 0.57654
 C585 C 0.22452 0.65914 0.65068
 C586 C 0.21692 0.63200 0.63096
 C587 C 0.23266 0.58270 0.60069
 C588 C 0.25380 0.66325 0.66642
 H589 H 0.28390 0.59414 0.64222
 H590 H 0.29733 0.64159 0.67680
 H591 H 0.20808 0.67747 0.65133
 H592 H 0.19476 0.62973 0.61692
 C593 C 0.88923 0.73801 0.12865
 C594 C 0.88944 0.76276 0.15684
 C595 C 0.86395 0.77061 0.18124
 C596 C 0.93406 0.73187 0.07234
 C597 C 0.83822 0.72794 0.15131
 C598 C 0.86380 0.72020 0.12658
 C599 C 0.91380 0.73340 0.09851
 C600 C 0.83783 0.75377 0.17781
 H601 H 0.90890 0.77679 0.15856
 H602 H 0.86423 0.79049 0.20167
 H603 H 0.81828 0.71478 0.14788
 H604 H 0.86330 0.70114 0.10457
 C605 C 0.39063 0.24187 0.64077
 C606 C 0.38710 0.26963 0.66190
 C607 C 0.36018 0.27723 0.68306
 C608 C 0.43696 0.23449 0.58745
 C609 C 0.34077 0.22856 0.66442
 C610 C 0.36773 0.22102 0.64303
 C611 C 0.41612 0.23669 0.61254
 C612 C 0.33640 0.25715 0.68330
 H613 H 0.40463 0.28598 0.66023
 H614 H 0.35743 0.29932 0.69759
 H615 H 0.32268 0.21281 0.66375
 H616 H 0.37013 0.19957 0.62649
 C617 C 0.11768 0.25908 0.13042
 C618 C 0.14304 0.27683 0.12705
 C619 C 0.17016 0.26731 0.14638
 C620 C 0.06884 0.27002 0.08348
 C621 C 0.14633 0.22262 0.17317
 C622 C 0.11930 0.23222 0.15407
 C623 C 0.09094 0.26630 0.10576
 C624 C 0.17218 0.23977 0.16884
 H625 H 0.14213 0.29748 0.10834
 H626 H 0.18980 0.28081 0.14228
 H627 H 0.14721 0.20150 0.19073
 H628 H 0.09989 0.21819 0.15659
 C629 C 0.60324 0.76611 0.62865
 C630 C 0.60328 0.74136 0.65681
 C631 C 0.62896 0.73361 0.68089
 C632 C 0.55795 0.77233 0.57310
 C633 C 0.65439 0.77627 0.65053
 C634 C 0.62864 0.78392 0.62616
 C635 C 0.57840 0.77075 0.59898
 C636 C 0.65501 0.75052 0.67717
 H637 H 0.58386 0.72732 0.65883
 H638 H 0.62881 0.71381 0.70145
 H639 H 0.67426 0.78950 0.64682
 H640 H 0.62896 0.80296 0.60414
   
