data_POSCAR
  _audit_creation_date              2014-09-24
  _audit_creation_method            'ToBaCCo'
  _symmetry_space_group_name_H-M    'P1'
  _symmetry_Int_Tables_number       1
  _symmetry_cell_setting            triclinic
  loop_
  _symmetry_equiv_pos_as_xyz
 x,y,z
_cell_length_a 41.2234
_cell_length_b 40.7679
_cell_length_c 41.2371
_cell_angle_alpha 89.978800
_cell_angle_beta 90.015200
_cell_angle_gamma 89.907300
loop_
  _atom_site_label
  _atom_site_type_symbol
  _atom_site_fract_x
  _atom_site_fract_y
  _atom_site_fract_z
C1 C 0.60050 0.64927 0.62585
 C2 C 0.62455 0.64898 0.60185
 C3 C 0.64874 0.62478 0.60170
 C4 C 0.64870 0.60061 0.62598
 C5 C 0.62482 0.60016 0.65058
 C6 C 0.60080 0.62496 0.65001
 H7 H 0.62395 0.66718 0.58271
 H8 H 0.66860 0.58330 0.62642
 H9 H 0.58152 0.62516 0.66776
 C10 C 0.90021 0.35030 0.12560
 C11 C 0.87556 0.35073 0.10176
 C12 C 0.85117 0.37483 0.10178
 C13 C 0.85129 0.39900 0.12594
 C14 C 0.87537 0.39931 0.14994
 C15 C 0.89959 0.37504 0.14961
 H16 H 0.87601 0.33345 0.08188
 H17 H 0.83255 0.41765 0.12607
 H18 H 0.91684 0.37471 0.16936
 C19 C 0.39984 0.14933 -0.12518
 C20 C 0.39942 0.12505 -0.14934
 C21 C 0.37522 0.10083 -0.14973
 C22 C 0.35122 0.10111 -0.12556
 C23 C 0.35122 0.12519 -0.10119
 C24 C 0.37563 0.14919 -0.10121
 H25 H 0.41750 0.12550 -0.16839
 H26 H 0.33248 0.08252 -0.12570
 H27 H 0.37628 0.16731 -0.08202
 C28 C 0.09940 0.84998 0.37477
 C29 C 0.12380 0.85064 0.39886
 C30 C 0.14819 0.87467 0.39879
 C31 C 0.14832 0.89851 0.37430
 C32 C 0.12449 0.89860 0.35005
 C33 C 0.10028 0.87439 0.35042
 H34 H 0.12521 0.83146 0.41693
 H35 H 0.16657 0.91761 0.37458
 H36 H 0.08168 0.87546 0.33198
 N37 N 0.08722 0.17721 0.11070
 N38 N 0.07415 0.16338 0.13639
 C39 C 0.04782 0.18078 0.14537
 C40 C 0.04443 0.20667 0.12415
 C41 C 0.06967 0.20383 0.10245
 H42 H 0.03228 0.17513 0.16574
 H43 H 0.07485 0.21988 0.08222
 Cu44 Cu 0.09282 0.12402 0.15554
 Cu45 Cu 0.12591 0.15969 0.08986
 Cu46 Cu 0.16044 0.09029 0.12424
 N47 N 0.11289 0.08551 0.17496
 N48 N 0.13934 0.07244 0.16260
 C49 C 0.14807 0.04625 0.18052
 C50 C 0.12591 0.04291 0.20529
 C51 C 0.10391 0.06806 0.20123
 H52 H 0.16893 0.03081 0.17590
 H53 H 0.08303 0.07317 0.21627
 N54 N 0.17822 0.11192 0.08539
 N55 N 0.16507 0.13837 0.07230
 C56 C 0.18262 0.14719 0.04615
 C57 C 0.20783 0.12526 0.04284
 C58 C 0.20449 0.10323 0.06792
 H59 H 0.17750 0.16795 0.03063
 H60 H 0.22002 0.08245 0.07296
 H61 H 0.11953 0.11155 0.10419
 H62 H 0.14483 0.13802 0.13109
 N63 N 0.41293 0.82327 0.61008
 N64 N 0.42603 0.83711 0.63575
 C65 C 0.45238 0.81973 0.64473
 C66 C 0.45577 0.79384 0.62352
 C67 C 0.43049 0.79666 0.60184
 H68 H 0.46793 0.82537 0.66509
 H69 H 0.42527 0.78058 0.58165
 Cu70 Cu 0.40732 0.87641 0.65494
 Cu71 Cu 0.37415 0.84071 0.58932
 Cu72 Cu 0.33951 0.90996 0.62379
 N73 N 0.38716 0.91482 0.67443
 N74 N 0.36063 0.92782 0.66212
 C75 C 0.35184 0.95393 0.68010
 C76 C 0.37404 0.95729 0.70485
 C77 C 0.39613 0.93224 0.70071
 H78 H 0.33091 0.96929 0.67556
 H79 H 0.41705 0.92716 0.71572
 N80 N 0.32170 0.88834 0.58496
 N81 N 0.33491 0.86195 0.57182
 C82 C 0.31732 0.85310 0.54571
 C83 C 0.29203 0.87496 0.54245
 C84 C 0.29536 0.89697 0.56754
 H85 H 0.32246 0.83239 0.53016
 H86 H 0.27977 0.91769 0.57263
 H87 H 0.38043 0.88886 0.60366
 H88 H 0.35528 0.86227 0.63061
 N89 N 0.91234 0.67749 0.38955
 N90 N 0.92470 0.66443 0.36312
 C91 C 0.95101 0.68180 0.35416
 C92 C 0.95511 0.70689 0.37616
 C93 C 0.93031 0.70359 0.39830
 H94 H 0.96606 0.67669 0.33328
 H95 H 0.92570 0.71900 0.41915
 Cu96 Cu 0.90521 0.62605 0.34303
 Cu97 Cu 0.87393 0.65974 0.41062
 Cu98 Cu 0.83943 0.59055 0.37607
 N99 N 0.88600 0.58680 0.32435
 N100 N 0.86026 0.57305 0.33739
 C101 C 0.85198 0.54648 0.31986
 C102 C 0.87372 0.54360 0.29464
 C103 C 0.89499 0.56940 0.29805
 H104 H 0.83173 0.53049 0.32503
 H105 H 0.91540 0.57499 0.28254
 N106 N 0.82188 0.61185 0.41520
 N107 N 0.83502 0.63822 0.42837
 C108 C 0.81757 0.64689 0.45464
 C109 C 0.79244 0.62494 0.45797
 C110 C 0.79572 0.60307 0.43276
 H111 H 0.82266 0.66760 0.47021
 H112 H 0.78017 0.58237 0.42764
 H113 H 0.88071 0.61202 0.39501
 H114 H 0.85386 0.63866 0.36971
 N115 N 0.58783 0.32234 -0.11076
 N116 N 0.57549 0.33539 -0.13723
 C117 C 0.54919 0.31802 -0.14620
 C118 C 0.54507 0.29294 -0.12417
 C119 C 0.56985 0.29625 -0.10201
 H120 H 0.53415 0.32314 -0.16709
 H121 H 0.57444 0.28085 -0.08113
 Cu122 Cu 0.59499 0.37378 -0.15732
 Cu123 Cu 0.62621 0.34011 -0.08965
 Cu124 Cu 0.66071 0.40931 -0.12418
 N125 N 0.61421 0.41304 -0.17599
 N126 N 0.63992 0.42681 -0.16290
 C127 C 0.64819 0.45339 -0.18043
 C128 C 0.62648 0.45627 -0.20568
 C129 C 0.60523 0.43044 -0.20230
 H130 H 0.66842 0.46941 -0.17522
 H131 H 0.58484 0.42485 -0.21784
 N132 N 0.67823 0.38801 -0.08501
 N133 N 0.66509 0.36164 -0.07185
 C134 C 0.68252 0.35296 -0.04554
 C135 C 0.70763 0.37492 -0.04218
 C136 C 0.70437 0.39680 -0.06741
 H137 H 0.67742 0.33225 -0.02998
 H138 H 0.71992 0.41751 -0.07252
 H139 H 0.61942 0.38782 -0.10531
 H140 H 0.64632 0.36120 -0.13054
 C141 C -0.02614 0.27698 0.12500
 C142 C -0.05632 0.27063 0.11101
 C143 C -0.08055 0.29465 0.11115
 C144 C -0.07515 0.32576 0.12542
 C145 C -0.04435 0.33158 0.13949
 C146 C -0.02021 0.30747 0.13922
 C147 C -0.00123 0.25220 0.12474
 C148 C 0.01961 0.23144 0.12449
 H149 H -0.06127 0.24696 0.10017
 H150 H -0.10387 0.28799 0.10114
 H151 H -0.03804 0.35517 0.14965
 H152 H 0.00323 0.31274 0.14990
 C153 C 0.52620 0.72341 0.62468
 C154 C 0.55852 0.73189 0.61867
 C155 C 0.58269 0.70779 0.61904
 C156 C 0.57481 0.67485 0.62548
 C157 C 0.54223 0.66657 0.63148
 C158 C 0.51811 0.69071 0.63108
 C159 C 0.50135 0.74823 0.62427
 C160 C 0.48054 0.76904 0.62393
 H161 H 0.56506 0.75714 0.61376
 H162 H 0.60759 0.71495 0.61467
 H163 H 0.53536 0.64137 0.63605
 H164 H 0.49314 0.68386 0.63566
 C165 C 1.02583 0.77680 0.37553
 C166 C 1.03483 0.79174 0.34643
 C167 C 1.05897 0.81577 0.34608
 C168 C 1.07481 0.82546 0.37500
 C169 C 1.06529 0.80991 0.40419
 C170 C 1.04109 0.78593 0.40437
 C171 C 1.00091 0.75212 0.37579
 C172 C 0.98002 0.73147 0.37598
 H173 H 1.02334 0.78462 0.32387
 H174 H 1.06588 0.82555 0.32272
 H175 H 1.07538 0.81698 0.42736
 H176 H 1.03410 0.77469 0.42713
 C177 C 0.47431 0.22307 -0.12463
 C178 C 0.48215 0.19045 -0.13173
 C179 C 0.45796 0.16645 -0.13192
 C180 C 0.42556 0.17480 -0.12498
 C181 C 0.41793 0.20768 -0.11785
 C182 C 0.44216 0.23163 -0.11770
 C183 C 0.49923 0.24774 -0.12446
 C184 C 0.52014 0.26838 -0.12433
 H185 H 0.50698 0.18354 -0.13704
 H186 H 0.46466 0.14130 -0.13708
 H187 H 0.39316 0.21493 -0.11281
 H188 H 0.43581 0.25684 -0.11226
 C189 C 0.12527 -0.02723 0.27590
 C190 C 0.09604 -0.03625 0.29063
 C191 C 0.09574 -0.06036 0.31476
 C192 C 0.12473 -0.07576 0.32446
 C193 C 0.15401 -0.06647 0.30954
 C194 C 0.15425 -0.04237 0.28541
 C195 C 0.12553 -0.00247 0.25102
 C196 C 0.12572 0.01825 0.23016
 H197 H 0.07349 -0.02461 0.28353
 H198 H 0.07290 -0.06664 0.32612
 H199 H 0.17665 -0.07814 0.31627
 H200 H 0.17701 -0.03562 0.27411
 C201 C 0.62554 0.52669 -0.27603
 C202 C 0.63942 0.52036 -0.30627
 C203 C 0.63924 0.54444 -0.33040
 C204 C 0.62504 0.57560 -0.32485
 C205 C 0.61109 0.58140 -0.29399
 C206 C 0.61141 0.55722 -0.26995
 C207 C 0.62584 0.50186 -0.25121
 C208 C 0.62612 0.48106 -0.23043
 H209 H 0.65020 0.49665 -0.31133
 H210 H 0.64915 0.53779 -0.35377
 H211 H 0.60102 0.60500 -0.28754
 H212 H 0.60083 0.56248 -0.24646
 C213 C 0.37453 1.02713 0.77570
 C214 C 0.34546 1.04182 0.78559
 C215 C 0.34564 1.06577 0.80985
 C216 C 0.37496 1.07537 0.82452
 C217 C 0.40405 1.06045 0.81439
 C218 C 0.40380 1.03649 0.79015
 C219 C 0.37432 1.00250 0.75072
 C220 C 0.37418 0.98186 0.72979
 H221 H 0.32267 1.03483 0.77450
 H222 H 0.32292 1.07711 0.81682
 H223 H 0.42693 1.06703 0.82550
 H224 H 0.42643 1.02521 0.78273
 C225 C 0.87460 0.47327 0.22426
 C226 C 0.90386 0.46397 0.20969
 C227 C 0.90413 0.43991 0.18555
 C228 C 0.87509 0.42484 0.17563
 C229 C 0.84580 0.43436 0.19044
 C230 C 0.84559 0.45841 0.21460
 C231 C 0.87433 0.49807 0.24909
 C232 C 0.87407 0.51884 0.26988
 H233 H 0.92644 0.47538 0.21694
 H234 H 0.92699 0.43337 0.17434
 H235 H 0.82311 0.42291 0.18364
 H236 H 0.82281 0.46536 0.22578
 C237 C 0.27771 0.12524 -0.02722
 C238 C 0.29179 0.09567 -0.03723
 C239 C 0.31569 0.09562 -0.06128
 C240 C 0.32584 0.12519 -0.07563
 C241 C 0.31156 0.15480 -0.06537
 C242 C 0.28764 0.15479 -0.04134
 C243 C 0.25308 0.12526 -0.00250
 C244 C 0.23244 0.12527 0.01820
 H245 H 0.28434 0.07267 -0.02640
 H246 H 0.32653 0.07249 -0.06835
 H247 H 0.31858 0.17790 -0.07624
 H248 H 0.27685 0.17781 -0.03382
 C249 C 0.72251 0.62486 0.52798
 C250 C 0.70834 0.59532 0.53781
 C251 C 0.68436 0.59527 0.56178
 C252 C 0.67422 0.62482 0.57623
 C253 C 0.68862 0.65440 0.56617
 C254 C 0.71261 0.65439 0.54220
 C255 C 0.74718 0.62488 0.50330
 C256 C 0.76784 0.62491 0.48262
 H257 H 0.71576 0.57233 0.52689
 H258 H 0.67346 0.57216 0.56874
 H259 H 0.68162 0.67749 0.57712
 H260 H 0.72348 0.67739 0.53483
 C261 C 0.77749 0.37493 0.02793
 C262 C 0.78726 0.34540 0.04226
 C263 C 0.81122 0.34535 0.06626
 C264 C 0.82572 0.37489 0.07627
 C265 C 0.81572 0.40446 0.06171
 C266 C 0.79177 0.40444 0.03769
 C267 C 0.75284 0.37494 0.00322
 C268 C 0.73221 0.37494 -0.01750
 H269 H 0.77631 0.32242 0.03494
 H270 H 0.81814 0.32226 0.07729
 H271 H 0.82672 0.42753 0.06858
 H272 H 0.78445 0.42743 0.02669
 C273 C 0.22196 0.87480 0.47254
 C274 C 0.23021 0.88104 0.44020
 C275 C 0.20625 0.88101 0.41620
 C276 C 0.17368 0.87470 0.42426
 C277 C 0.16564 0.86844 0.45684
 C278 C 0.18964 0.86851 0.48080
 C279 C 0.24666 0.87485 0.49721
 C280 C 0.26735 0.87490 0.51787
 H281 H 0.25518 0.88585 0.43353
 H282 H 0.21325 0.88550 0.39129
 H283 H 0.14073 0.86391 0.46384
 H284 H 0.18298 0.86373 0.50577
   
