data_POSCAR
  _audit_creation_date              2014-09-24
  _audit_creation_method            'ToBaCCo'
  _symmetry_space_group_name_H-M    'P1'
  _symmetry_Int_Tables_number       1
  _symmetry_cell_setting            triclinic
  loop_
  _symmetry_equiv_pos_as_xyz
 x,y,z
_cell_length_a 47.7313
_cell_length_b 47.4160
_cell_length_c 42.2658
_cell_angle_alpha 91.934100
_cell_angle_beta 88.314500
_cell_angle_gamma 90.563700
loop_
  _atom_site_label
  _atom_site_type_symbol
  _atom_site_fract_x
  _atom_site_fract_y
  _atom_site_fract_z
C1 C 0.57772 0.64214 0.62156
 N2 N 0.60166 0.64706 0.60434
 C3 C 0.62295 0.62828 0.60385
 N4 N 0.62039 0.60473 0.62115
 C5 C 0.59662 0.59969 0.63863
 N6 N 0.57522 0.61835 0.63848
 C7 C 0.90999 0.34097 0.12452
 N8 N 0.90954 0.36458 0.14368
 C9 C 0.88770 0.38270 0.14323
 N10 N 0.86656 0.37739 0.12310
 C11 C 0.86693 0.35407 0.10355
 N12 N 0.88850 0.33570 0.10460
 C13 C 0.39373 0.17370 -0.14663
 N14 N 0.39053 0.15222 -0.16833
 C15 C 0.36906 0.13341 -0.16507
 N16 N 0.35068 0.13632 -0.14011
 C17 C 0.35365 0.15782 -0.11835
 N18 N 0.37517 0.17651 -0.12172
 C19 C 0.08776 0.84982 0.39211
 N20 N 0.11028 0.85260 0.41094
 C21 C 0.12687 0.87600 0.40979
 N22 N 0.12115 0.89639 0.38927
 C23 C 0.09890 0.89375 0.37002
 N24 N 0.08208 0.87054 0.37176
 N25 N 0.09071 0.15929 0.11583
 N26 N 0.07674 0.14374 0.13623
 C27 C 0.05088 0.15448 0.14118
 C28 C 0.04879 0.17819 0.12335
 C29 C 0.07440 0.18067 0.10751
 H30 H 0.03489 0.14609 0.15698
 H31 H 0.08054 0.19653 0.09081
 Cu32 Cu 0.09422 0.11190 0.15559
 Cu33 Cu 0.12846 0.14997 0.10033
 Cu34 Cu 0.16157 0.09668 0.13843
 N35 N 0.11248 0.08020 0.17444
 N36 N 0.13907 0.07489 0.16801
 C37 C 0.14738 0.05384 0.18595
 C38 C 0.12483 0.04533 0.20451
 C39 C 0.10291 0.06243 0.19665
 H40 H 0.16849 0.04578 0.18614
 H41 H 0.08206 0.06280 0.20736
 N42 N 0.17886 0.11635 0.10250
 N43 N 0.16657 0.13706 0.08827
 C44 C 0.18319 0.14520 0.06383
 C45 C 0.20685 0.12853 0.06256
 C46 C 0.20337 0.11047 0.08726
 H47 H 0.17785 0.16099 0.04722
 H48 H 0.21730 0.09366 0.09303
 H49 H 0.12789 0.10774 0.11162
 H50 H 0.13907 0.13442 0.14248
 N51 N 0.41000 0.83719 0.60420
 N52 N 0.42713 0.85698 0.61483
 C53 C 0.45228 0.84555 0.61969
 C54 C 0.45073 0.81707 0.61194
 C55 C 0.42361 0.81243 0.60215
 H56 H 0.47034 0.85703 0.62837
 H57 H 0.41463 0.79273 0.59347
 Cu58 Cu 0.41510 0.89573 0.62199
 Cu59 Cu 0.37206 0.84546 0.59177
 Cu60 Cu 0.34709 0.91153 0.61375
 N61 N 0.39882 0.92991 0.64099
 N62 N 0.37213 0.93570 0.63832
 C63 C 0.36624 0.95976 0.65487
 C64 C 0.39061 0.96954 0.66862
 C65 C 0.41088 0.95018 0.65919
 H66 H 0.34576 0.96929 0.65680
 H67 H 0.43262 0.95048 0.66575
 N68 N 0.32521 0.88379 0.58885
 N69 N 0.33444 0.85826 0.58112
 C70 C 0.31514 0.84455 0.56360
 C71 C 0.29292 0.86243 0.55987
 C72 C 0.29992 0.88712 0.57627
 H73 H 0.31747 0.82351 0.55324
 H74 H 0.28776 0.90622 0.57850
 H75 H 0.37637 0.88852 0.58634
 H76 H 0.36822 0.87619 0.62739
 N77 N 0.90270 0.66475 0.39978
 N78 N 0.92271 0.65052 0.38453
 C79 C 0.94404 0.66823 0.37747
 C80 C 0.93684 0.69499 0.38874
 C81 C 0.91047 0.69207 0.40259
 H82 H 0.96305 0.66218 0.36453
 H83 H 0.89809 0.70855 0.41430
 Cu84 Cu 0.91871 0.61055 0.37378
 Cu85 Cu 0.86901 0.64646 0.41665
 Cu86 Cu 0.85710 0.57806 0.38988
 N87 N 0.90828 0.57514 0.35251
 N88 N 0.88392 0.56295 0.35842
 C89 C 0.88127 0.53996 0.33922
 C90 C 0.90529 0.53759 0.32023
 C91 C 0.92210 0.56013 0.32945
 H92 H 0.86310 0.52618 0.33896
 H93 H 0.94243 0.56570 0.31938
 N94 N 0.83247 0.59743 0.42152
 N95 N 0.83649 0.62388 0.43115
 C96 C 0.81628 0.63107 0.45280
 C97 C 0.79888 0.60789 0.45696
 C98 C 0.80978 0.58699 0.43688
 H99 H 0.81486 0.65131 0.46526
 H100 H 0.80183 0.56565 0.43397
 H101 H 0.88313 0.60543 0.41564
 H102 H 0.86877 0.61875 0.37805
 N103 N 0.59949 0.33597 -0.10945
 N104 N 0.58604 0.34894 -0.13136
 C105 C 0.56211 0.33478 -0.13745
 C106 C 0.56041 0.31187 -0.11804
 C107 C 0.58436 0.31333 -0.10050
 H108 H 0.54680 0.34107 -0.15413
 H109 H 0.59019 0.29908 -0.08241
 Cu110 Cu 0.60024 0.38371 -0.14906
 Cu111 Cu 0.63513 0.34986 -0.09349
 Cu112 Cu 0.66138 0.41136 -0.12558
 N113 N 0.62024 0.41190 -0.17355
 N114 N 0.64460 0.42205 -0.16468
 C115 C 0.65366 0.44136 -0.18530
 C116 C 0.63381 0.44361 -0.20814
 C117 C 0.61282 0.42458 -0.20006
 H118 H 0.67290 0.45346 -0.18333
 H119 H 0.59361 0.42036 -0.21238
 N120 N 0.68006 0.39164 -0.09203
 N121 N 0.67071 0.36769 -0.08047
 C122 C 0.68823 0.35960 -0.05808
 C123 C 0.70943 0.37957 -0.05547
 C124 C 0.70358 0.39954 -0.07721
 H125 H 0.68525 0.34115 -0.04396
 H126 H 0.71552 0.41856 -0.08168
 H127 H 0.62829 0.39129 -0.10159
 H128 H 0.64711 0.37092 -0.13406
 C129 C -0.06739 0.32265 0.12553
 C130 C -0.06678 0.29639 0.10960
 C131 C -0.04242 0.27778 0.11086
 N132 N -0.04560 0.24949 0.10624
 N133 N -0.02366 0.23244 0.10742
 C134 C 0.00233 0.24313 0.11286
 N135 N 0.00558 0.27145 0.11703
 N136 N -0.01642 0.28846 0.11625
 C137 C 0.02678 0.22465 0.11387
 C138 C 0.02420 0.19643 0.12169
 H139 H -0.08501 0.28859 0.09725
 H140 H 0.04742 0.23388 0.11022
 H141 H -0.04993 0.32886 0.14013
 H142 H 0.00386 0.18794 0.12861
 C143 C 0.55442 0.66223 0.62199
 C144 C 0.55783 0.68950 0.61107
 C145 C 0.53466 0.70972 0.61147
 N146 N 0.54012 0.73740 0.60663
 N147 N 0.51936 0.75598 0.60676
 C148 C 0.49234 0.74751 0.61153
 N149 N 0.48686 0.71979 0.61612
 N150 N 0.50764 0.70124 0.61622
 C151 C 0.46917 0.76770 0.61123
 C152 C 0.47376 0.79677 0.61295
 H153 H 0.57831 0.69660 0.60278
 H154 H 0.44798 0.75941 0.61044
 H155 H 0.53436 0.65568 0.63206
 H156 H 0.49479 0.80501 0.61593
 C157 C 1.07115 0.82552 0.39367
 C158 C 1.04627 0.82203 0.37738
 C159 C 1.02966 0.79581 0.37888
 N160 N 1.00208 0.79583 0.37195
 N161 N 0.98684 0.77218 0.37327
 C162 C 0.99872 0.74758 0.38121
 N163 N 1.02637 0.74749 0.38773
 N164 N 1.04154 0.77119 0.38675
 C165 C 0.98226 0.72128 0.38255
 C166 C 0.95320 0.72131 0.38652
 H167 H 1.03812 0.83920 0.36420
 H168 H 0.99342 0.70149 0.38219
 H169 H 1.07770 0.80892 0.40876
 H170 H 0.94226 0.74115 0.38989
 C171 C 0.41719 0.19373 -0.15048
 C172 C 0.42691 0.21032 -0.12520
 C173 C 0.45073 0.22994 -0.12887
 N174 N 0.46449 0.23962 -0.10300
 N175 N 0.48609 0.25744 -0.10596
 C176 C 0.49455 0.26643 -0.13491
 N177 N 0.48061 0.25698 -0.16076
 N178 N 0.45918 0.23895 -0.15782
 C179 C 0.51797 0.28655 -0.13848
 C180 C 0.53750 0.29108 -0.11495
 H181 H 0.41763 0.20798 -0.10173
 H182 H 0.52036 0.29736 -0.16057
 H183 H 0.42795 0.19438 -0.17338
 H184 H 0.53651 0.27852 -0.09401
 C185 C 0.09373 -0.08585 0.34788
 C186 C 0.11207 -0.06317 0.34295
 C187 C 0.10875 -0.04314 0.31758
 N188 N 0.13070 -0.02637 0.30917
 N189 N 0.12855 -0.00843 0.28584
 C190 C 0.10428 -0.00643 0.27014
 N191 N 0.08214 -0.02295 0.27880
 N192 N 0.08437 -0.04111 0.30202
 C193 C 0.10196 0.01335 0.24426
 C194 C 0.12583 0.02456 0.22946
 H195 H 0.13079 -0.06093 0.35675
 H196 H 0.08136 0.01853 0.23625
 H197 H 0.07566 -0.08856 0.33310
 H198 H 0.14633 0.01757 0.23606
 C199 C 0.59415 0.57601 -0.34270
 C200 C 0.61629 0.55744 -0.33913
 C201 C 0.61457 0.53422 -0.31694
 N202 N 0.63837 0.52138 -0.30852
 N203 N 0.63739 0.50104 -0.28753
 C204 C 0.61253 0.49262 -0.27436
 N205 N 0.58866 0.50515 -0.28314
 N206 N 0.58966 0.52566 -0.30397
 C207 C 0.61129 0.47087 -0.25033
 C208 C 0.63504 0.46323 -0.23436
 H209 H 0.63624 0.56104 -0.35129
 H210 H 0.59100 0.46222 -0.24356
 H211 H 0.57467 0.57278 -0.32943
 H212 H 0.65494 0.47346 -0.23965
 C213 C 0.36532 1.10993 0.81177
 C214 C 0.38595 1.10236 0.78911
 C215 C 0.38220 1.07832 0.76665
 N216 N 0.40442 1.06828 0.74909
 N217 N 0.40135 1.04631 0.72893
 C218 C 0.37589 1.03370 0.72548
 N219 N 0.35364 1.04391 0.74282
 N220 N 0.35674 1.06575 0.76310
 C221 C 0.37206 1.00934 0.70351
 C222 C 0.39460 0.99463 0.68953
 H223 H 0.40576 1.11369 0.78849
 H224 H 0.35086 1.00214 0.69936
 H225 H 0.34612 1.09763 0.81339
 H226 H 0.41583 1.00088 0.69510
 C227 C 0.88571 0.40728 0.16528
 C228 C 0.90720 0.41566 0.18526
 C229 C 0.90304 0.43831 0.20958
 N230 N 0.92515 0.44923 0.22553
 N231 N 0.92131 0.46923 0.24815
 C232 C 0.89516 0.47885 0.25576
 N233 N 0.87309 0.46784 0.23992
 N234 N 0.87695 0.44802 0.21721
 C235 C 0.89011 0.50022 0.28121
 C236 C 0.91143 0.51637 0.29479
 H237 H 0.92729 0.40521 0.18337
 H238 H 0.86855 0.50391 0.28876
 H239 H 0.86621 0.41882 0.16626
 H240 H 0.93281 0.51430 0.28577
 C241 C 0.33357 0.16121 -0.09145
 C242 C 0.31632 0.13902 -0.08185
 C243 C 0.29576 0.14207 -0.05542
 N244 N 0.28501 0.11872 -0.04173
 N245 N 0.26600 0.12100 -0.01811
 C246 C 0.25681 0.14673 -0.00750
 N247 N 0.26737 0.17011 -0.02138
 N248 N 0.28661 0.16784 -0.04482
 C249 C 0.23525 0.14934 0.01799
 C250 C 0.22954 0.12735 0.03829
 H251 H 0.31854 0.11840 -0.09341
 H252 H 0.22409 0.16904 0.02118
 H253 H 0.33301 0.18123 -0.07833
 H254 H 0.24240 0.10862 0.03671
 C255 C 0.64835 0.63350 0.58428
 C256 C 0.66824 0.61259 0.57790
 C257 C 0.69275 0.61686 0.55667
 N258 N 0.70832 0.59437 0.54655
 N259 N 0.73034 0.59771 0.52690
 C260 C 0.73770 0.62370 0.51676
 N261 N 0.72230 0.64626 0.52714
 N262 N 0.70016 0.64290 0.54665
 C263 C 0.76190 0.62757 0.49491
 C264 C 0.77468 0.60472 0.47893
 H265 H 0.66512 0.59189 0.58757
 H266 H 0.76917 0.64883 0.49061
 H267 H 0.65072 0.65379 0.57341
 H268 H 0.76627 0.58365 0.48194
 C269 C 0.84434 0.34892 0.08101
 C270 C 0.82605 0.37036 0.07375
 C271 C 0.80405 0.36672 0.05033
 N272 N 0.79141 0.38983 0.03950
 N273 N 0.77138 0.38720 0.01832
 C274 C 0.76306 0.36131 0.00733
 N275 N 0.77551 0.33812 0.01839
 N276 N 0.79574 0.34077 0.03942
 C277 C 0.74071 0.35835 -0.01585
 C278 C 0.73239 0.38123 -0.03304
 H279 H 0.82870 0.39120 0.08460
 H280 H 0.73116 0.33779 -0.01993
 H281 H 0.84299 0.32851 0.06882
 H282 H 0.74348 0.40119 -0.03050
 C283 C 0.15068 0.87998 0.43081
 C284 C 0.16036 0.85872 0.44955
 C285 C 0.18380 0.86368 0.47097
 N286 N 0.19627 0.84163 0.48441
 N287 N 0.21760 0.84596 0.50370
 C288 C 0.22709 0.87255 0.51042
 N289 N 0.21443 0.89458 0.49723
 N290 N 0.19324 0.89023 0.47781
 C291 C 0.25071 0.87789 0.53140
 C292 C 0.26814 0.85647 0.54073
 H293 H 0.15098 0.83784 0.44806
 H294 H 0.25531 0.89959 0.53829
 H295 H 0.16110 0.90039 0.43122
 H296 H 0.26452 0.83495 0.53233
   
