data_POSCAR
  _audit_creation_date              2014-09-24
  _audit_creation_method            'ToBaCCo'
  _symmetry_space_group_name_H-M    'P1'
  _symmetry_Int_Tables_number       1
  _symmetry_cell_setting            triclinic
  loop_
  _symmetry_equiv_pos_as_xyz
 x,y,z
_cell_length_a 53.7844
_cell_length_b 54.2714
_cell_length_c 25.2016
_cell_angle_alpha 89.951100
_cell_angle_beta 90.006700
_cell_angle_gamma 118.793500
loop_
  _atom_site_label
  _atom_site_type_symbol
  _atom_site_fract_x
  _atom_site_fract_y
  _atom_site_fract_z
C1 C 0.51179 1.00011 0.47293
 C2 C 0.51061 1.00013 0.52692
 C3 C 0.49818 0.97366 0.55834
 C4 C 0.52158 1.02676 0.55737
 C5 C 0.52623 1.02667 0.44211
 C6 C 0.49856 0.97365 0.44171
 C7 C 0.47714 0.96859 0.59590
 C8 C 0.46523 0.94396 0.62603
 C9 C 0.47405 0.92330 0.61993
 C10 C 0.49572 0.92911 0.58190
 C11 C 0.50761 0.95390 0.55204
 C12 C 0.51110 1.04560 0.54829
 C13 C 0.52168 1.07063 0.57711
 C14 C 0.54283 1.07719 0.61571
 C15 C 0.55301 1.05808 0.62509
 C16 C 0.54237 1.03304 0.59637
 C17 C 0.55495 1.04595 0.45074
 C18 C 0.56822 1.07088 0.42141
 C19 C 0.55301 1.07691 0.38285
 C20 C 0.52435 1.05738 0.37397
 C21 C 0.51114 1.03245 0.40315
 C22 C 0.51498 0.96833 0.40497
 C23 C 0.50282 0.94379 0.37467
 C24 C 0.47391 0.92416 0.38017
 C25 C 0.45742 0.92965 0.41669
 C26 C 0.46962 0.95422 0.44710
 H27 H 0.46989 0.98386 0.60207
 H28 H 0.45014 0.94238 0.65586
 H29 H 0.50305 0.91428 0.57259
 H30 H 0.52413 0.95756 0.52360
 H31 H 0.49473 1.04091 0.51888
 H32 H 0.51354 1.08501 0.56883
 H33 H 0.55052 1.01863 0.60423
 H34 H 0.56705 1.04166 0.48014
 H35 H 0.59029 1.08559 0.42927
 H36 H 0.51223 1.06123 0.34393
 H37 H 0.48903 1.01772 0.39566
 H38 H 0.53728 0.98320 0.39991
 H39 H 0.51596 0.94039 0.34622
 H40 H 0.43512 0.91486 0.42195
 H41 H 0.45649 0.95818 0.47464
 H42 H 0.56895 1.06234 0.65517
 C43 C -0.00066 0.50871 0.47320
 C44 C -0.00090 0.50960 0.52718
 C45 C 0.02561 0.52272 0.55902
 C46 C -0.02784 0.49772 0.55754
 C47 C -0.02733 0.49559 0.44181
 C48 C 0.02615 0.52081 0.44226
 C49 C 0.04621 0.51398 0.55435
 C50 C 0.07108 0.52688 0.58459
 C51 C 0.07564 0.54854 0.62039
 C52 C 0.05466 0.55678 0.62561
 C53 C 0.02992 0.54397 0.59532
 C54 C -0.03404 0.47599 0.59397
 C55 C -0.05924 0.46449 0.62301
 C56 C -0.07856 0.47477 0.61667
 C57 C -0.07213 0.49684 0.58064
 C58 C -0.04696 0.50822 0.55125
 C59 C -0.03192 0.51156 0.40337
 C60 C -0.05659 0.49971 0.37281
 C61 C -0.07750 0.47127 0.37948
 C62 C -0.07240 0.45532 0.41821
 C63 C -0.04762 0.46732 0.44875
 C64 C 0.04675 0.54919 0.44722
 C65 C 0.07170 0.56010 0.41717
 C66 C 0.07634 0.54286 0.38131
 C67 C 0.05543 0.51457 0.37604
 C68 C 0.03061 0.50370 0.40611
 H69 H 0.04305 0.49724 0.52725
 H70 H 0.08687 0.52012 0.57953
 H71 H 0.05719 0.57293 0.65364
 H72 H 0.01416 0.55082 0.59992
 H73 H -0.01941 0.46781 0.59959
 H74 H -0.06345 0.44781 0.65108
 H75 H -0.04231 0.52524 0.52374
 H76 H -0.01626 0.53334 0.39687
 H77 H -0.05833 0.51285 0.34241
 H78 H -0.08781 0.43375 0.42668
 H79 H -0.04429 0.45452 0.47790
 H80 H 0.04347 0.56288 0.47421
 H81 H 0.08744 0.58194 0.42228
 H82 H 0.05804 0.50089 0.34799
 H83 H 0.01483 0.48183 0.40129
 H84 H -0.08669 0.50509 0.57488
 C85 C 0.48970 0.49047 0.47336
 C86 C 0.48883 0.48862 0.52730
 C87 C 0.47491 0.50131 0.55994
 C88 C 0.50188 0.47402 0.55679
 C89 C 0.50571 0.48003 0.44074
 C90 C 0.47454 0.50298 0.44407
 C91 C 0.48306 0.52995 0.55597
 C92 C 0.47039 0.54178 0.58809
 C93 C 0.44930 0.52530 0.62565
 C94 C 0.44145 0.49643 0.62916
 C95 C 0.45415 0.48473 0.59695
 C96 C 0.52147 0.48825 0.59712
 C97 C 0.53356 0.47481 0.62617
 C98 C 0.52625 0.44648 0.61607
 C99 C 0.50623 0.43231 0.57540
 C100 C 0.49421 0.44589 0.54634
 C101 C 0.49199 0.46127 0.39899
 C102 C 0.50665 0.45129 0.36776
 C103 C 0.53544 0.45995 0.37749
 C104 C 0.54929 0.47909 0.41889
 C105 C 0.53460 0.48915 0.45004
 C106 C 0.44507 0.49190 0.44909
 C107 C 0.43106 0.50374 0.42078
 C108 C 0.44630 0.52687 0.38708
 C109 C 0.47578 0.53779 0.38201
 C110 C 0.48972 0.52583 0.40997
 H111 H 0.49935 0.54323 0.52805
 H112 H 0.47677 0.56373 0.58185
 H113 H 0.42642 0.48277 0.65840
 H114 H 0.44787 0.46263 0.60117
 H115 H 0.52736 0.50987 0.60632
 H116 H 0.54767 0.48661 0.65814
 H117 H 0.47884 0.43442 0.51567
 H118 H 0.46980 0.45420 0.39077
 H119 H 0.49552 0.43703 0.33551
 H120 H 0.57141 0.48607 0.42756
 H121 H 0.54575 0.50407 0.48140
 H122 H 0.43296 0.47403 0.47473
 H123 H 0.40835 0.49498 0.42557
 H124 H 0.48798 0.55533 0.35571
 H125 H 0.51243 0.53451 0.40534
 H126 H 0.50031 0.41095 0.56433
 O127 O 0.37515 0.67054 -0.05906
 O128 O 0.37595 0.71869 -0.04527
 C129 C 0.35845 0.72242 -0.07352
 O130 O 0.33195 0.70920 -0.06540
 O131 O 0.28420 0.66363 -0.04733
 C132 C 0.28029 0.64136 -0.07104
 O133 O 0.29356 0.62821 -0.05876
 O134 O 0.34078 0.62727 -0.03992
 C135 C 0.36221 0.64422 -0.06714
 O136 O 0.37632 0.66394 0.04659
 O137 O 0.37402 0.71055 0.06040
 C138 C 0.36056 0.72407 0.06783
 O139 O 0.33927 0.72019 0.03979
 O140 O 0.29261 0.67343 0.05778
 C141 C 0.27985 0.64757 0.06995
 O142 O 0.28437 0.62940 0.04627
 O143 O 0.33252 0.63046 0.06521
 C144 C 0.35894 0.64314 0.07422
 Cr145 Cr 0.37380 0.69017 0.00064
 Cr146 Cr 0.31280 0.69083 -0.00366
 Cr147 Cr 0.31357 0.63037 0.00308
 O148 O 0.33333 0.67042 0.00001
 O149 O 0.62670 0.32876 -0.06520
 O150 O 0.62709 0.28147 -0.04796
 C151 C 0.64583 0.27792 -0.07235
 O152 O 0.67197 0.29145 -0.06078
 O153 O 0.71841 0.33810 -0.04030
 C154 C 0.72205 0.35958 -0.06672
 O155 O 0.70775 0.37214 -0.05832
 O156 O 0.65976 0.37236 -0.04523
 C157 C 0.63923 0.35503 -0.07366
 O158 O 0.62255 0.33540 0.04004
 O159 O 0.62535 0.28941 0.05724
 C160 C 0.63907 0.27652 0.06817
 O161 O 0.66167 0.28120 0.04390
 O162 O 0.70685 0.32892 0.06428
 C163 C 0.71909 0.35498 0.07459
 O164 O 0.71478 0.37244 0.04777
 O165 O 0.66551 0.37011 0.06071
 C166 C 0.63893 0.35650 0.06814
 Cr167 Cr 0.62698 0.30956 -0.00386
 Cr168 Cr 0.68890 0.31068 0.00170
 Cr169 Cr 0.68623 0.37022 0.00119
 O170 O 0.66736 0.33014 -0.00031
 C171 C 0.47618 0.88257 -0.34384
 C172 C 0.46460 0.85843 -0.31214
 C173 C 0.43876 0.84949 -0.28582
 C174 C 0.42463 0.86533 -0.29185
 C175 C 0.43604 0.88943 -0.32356
 C176 C 0.46238 0.89905 -0.35020
 C177 C 0.42823 0.82464 -0.25018
 C178 C 0.40127 0.81010 -0.23326
 C179 C 0.39116 0.78665 -0.19436
 C180 C 0.36182 0.76884 -0.18901
 C181 C 0.35117 0.74763 -0.15056
 C182 C 0.36966 0.74378 -0.11637
 C183 C 0.39905 0.76134 -0.12214
 C184 C 0.40969 0.78263 -0.16039
 H185 H 0.49686 0.88871 -0.36035
 H186 H 0.47624 0.84690 -0.30750
 H187 H 0.40489 0.85962 -0.27152
 H188 H 0.42314 0.89956 -0.32803
 H189 H 0.44344 0.81802 -0.23841
 H190 H 0.38553 0.81515 -0.24883
 H191 H 0.34703 0.77155 -0.21431
 H192 H 0.32841 0.73450 -0.14722
 H193 H 0.41390 0.75913 -0.09617
 H194 H 0.43237 0.79629 -0.16177
 C195 C 0.11499 0.59146 -0.33730
 C196 C 0.13870 0.60432 -0.30430
 C197 C 0.15020 0.58858 -0.28091
 C198 C 0.13745 0.55955 -0.29137
 C199 C 0.11361 0.54663 -0.32428
 C200 C 0.10193 0.56240 -0.34719
 C201 C 0.17419 0.60291 -0.24339
 C202 C 0.19276 0.59376 -0.23213
 C203 C 0.21593 0.60719 -0.19241
 C204 C 0.22911 0.59192 -0.17391
 C205 C 0.25029 0.60313 -0.13516
 C206 C 0.25882 0.62997 -0.11393
 C207 C 0.24622 0.64561 -0.13342
 C208 C 0.22517 0.63448 -0.17239
 H209 H 0.10680 0.60429 -0.35498
 H210 H 0.14804 0.62668 -0.29679
 H211 H 0.14509 0.54650 -0.27280
 H212 H 0.10375 0.52413 -0.33034
 H213 H 0.17618 0.62165 -0.22458
 H214 H 0.19064 0.57512 -0.25178
 H215 H 0.22267 0.57099 -0.18887
 H216 H 0.25962 0.59054 -0.12121
 H217 H 0.25261 0.66653 -0.11851
 H218 H 0.21653 0.64756 -0.18659
 C219 C 0.40974 0.52065 -0.31763
 C220 C 0.39794 0.53227 -0.28296
 C221 C 0.41244 0.56092 -0.27036
 C222 C 0.43922 0.57785 -0.29316
 C223 C 0.45113 0.56630 -0.32785
 C224 C 0.43677 0.53734 -0.34059
 C225 C 0.39952 0.57183 -0.23131
 C226 C 0.40606 0.59898 -0.22784
 C227 C 0.39384 0.60995 -0.18736
 C228 C 0.40843 0.63874 -0.17521
 C229 C 0.39811 0.64994 -0.13653
 C230 C 0.37282 0.63258 -0.10921
 C231 C 0.35783 0.60387 -0.12227
 C232 C 0.36810 0.59269 -0.16104
 H233 H 0.39695 0.49864 -0.32728
 H234 H 0.37721 0.51874 -0.26607
 H235 H 0.45162 0.59984 -0.28298
 H236 H 0.47234 0.58012 -0.34206
 H237 H 0.38404 0.55659 -0.20454
 H238 H 0.42155 0.61416 -0.25474
 H239 H 0.42813 0.65257 -0.19521
 H240 H 0.41013 0.67218 -0.12770
 H241 H 0.33806 0.58997 -0.10258
 H242 H 0.35554 0.57063 -0.17047
 C243 C 0.53570 0.11313 -0.33379
 C244 C 0.54619 0.13754 -0.30308
 C245 C 0.57522 0.15297 -0.29103
 C246 C 0.59375 0.14394 -0.31201
 C247 C 0.58322 0.11948 -0.34259
 C248 C 0.55406 0.10367 -0.35337
 C249 C 0.58506 0.17814 -0.25657
 C250 C 0.60945 0.18929 -0.22907
 C251 C 0.61828 0.21311 -0.19153
 C252 C 0.64708 0.22877 -0.17801
 C253 C 0.65616 0.25026 -0.14032
 C254 C 0.63655 0.25641 -0.11483
 C255 C 0.60773 0.24091 -0.12875
 C256 C 0.59866 0.21946 -0.16650
 H257 H 0.51310 0.10131 -0.34116
 H258 H 0.53147 0.14409 -0.28780
 H259 H 0.61639 0.15570 -0.30558
 H260 H 0.59796 0.11305 -0.35824
 H261 H 0.57098 0.18704 -0.25256
 H262 H 0.62368 0.18057 -0.23312
 H263 H 0.66261 0.22419 -0.19636
 H264 H 0.67851 0.26170 -0.13048
 H265 H 0.59201 0.24495 -0.10967
 H266 H 0.57617 0.20739 -0.17438
 C267 C 0.88595 0.48017 -0.32681
 C268 C 0.86186 0.46871 -0.29440
 C269 C 0.84627 0.43954 -0.28608
 C270 C 0.85463 0.42194 -0.31282
 C271 C 0.87880 0.43342 -0.34491
 C272 C 0.89492 0.46265 -0.35169
 C273 C 0.82160 0.42843 -0.24941
 C274 C 0.81128 0.40339 -0.22505
 C275 C 0.78785 0.39258 -0.18563
 C276 C 0.78418 0.37013 -0.15290
 C277 C 0.76275 0.35932 -0.11465
 C278 C 0.74435 0.37069 -0.10820
 C279 C 0.74764 0.39284 -0.14156
 C280 C 0.76903 0.40359 -0.18005
 H281 H 0.89803 0.50278 -0.33122
 H282 H 0.85576 0.48274 -0.27480
 H283 H 0.84259 0.39931 -0.30950
 H284 H 0.88487 0.41940 -0.36467
 H285 H 0.81314 0.44235 -0.23975
 H286 H 0.82146 0.39065 -0.23157
 H287 H 0.79816 0.36105 -0.15654
 H288 H 0.76079 0.34218 -0.08980
 H289 H 0.73360 0.40186 -0.13809
 H290 H 0.77039 0.42025 -0.20544
 C291 C 0.52399 0.40319 -0.34681
 C292 C 0.53534 0.38997 -0.31483
 C293 C 0.56143 0.40560 -0.28914
 C294 C 0.57602 0.43492 -0.29605
 C295 C 0.56475 0.44819 -0.32785
 C296 C 0.53829 0.43271 -0.35353
 C297 C 0.57179 0.39090 -0.25296
 C298 C 0.59907 0.40152 -0.23855
 C299 C 0.60913 0.38847 -0.19812
 C300 C 0.63440 0.40579 -0.17103
 C301 C 0.64427 0.39488 -0.13106
 C302 C 0.62921 0.36623 -0.11757
 C303 C 0.60435 0.34863 -0.14584
 C304 C 0.59439 0.35961 -0.18573
 H305 H 0.50325 0.39008 -0.36372
 H306 H 0.52342 0.36738 -0.30957
 H307 H 0.59588 0.44797 -0.27607
 H308 H 0.57744 0.47067 -0.33289
 H309 H 0.55604 0.37093 -0.23696
 H310 H 0.61481 0.42139 -0.25490
 H311 H 0.64631 0.42803 -0.18010
 H312 H 0.66363 0.40900 -0.11048
 H313 H 0.59240 0.32641 -0.13680
 H314 H 0.57534 0.34536 -0.20685
 C315 C 0.88720 0.47609 0.32391
 C316 C 0.86352 0.46446 0.29070
 C317 C 0.84904 0.43556 0.28032
 C318 C 0.85873 0.41835 0.30426
 C319 C 0.88247 0.42993 0.33757
 C320 C 0.89752 0.45917 0.34764
 C321 C 0.82513 0.42473 0.24208
 C322 C 0.80487 0.39773 0.23909
 C323 C 0.78200 0.38716 0.19859
 C324 C 0.76882 0.35858 0.18481
 C325 C 0.74806 0.34797 0.14521
 C326 C 0.73990 0.36574 0.11865
 C327 C 0.75237 0.39415 0.13376
 C328 C 0.77305 0.40472 0.17343
 H329 H 0.89674 0.49838 0.33178
 H330 H 0.85643 0.47822 0.27303
 H331 H 0.84881 0.39608 0.29596
 H332 H 0.88972 0.41584 0.35269
 H333 H 0.82464 0.43996 0.21499
 H334 H 0.80538 0.38240 0.26587
 H335 H 0.77505 0.34451 0.20397
 H336 H 0.73877 0.32595 0.13481
 H337 H 0.74625 0.40832 0.11475
 H338 H 0.78172 0.42659 0.18430
 C339 C 0.59443 0.11304 0.33104
 C340 C 0.60700 0.13722 0.29953
 C341 C 0.59239 0.15209 0.28745
 C342 C 0.56522 0.14280 0.30933
 C343 C 0.55263 0.11858 0.34069
 C344 C 0.56695 0.10326 0.35140
 C345 C 0.60624 0.17700 0.25210
 C346 C 0.59190 0.18721 0.22430
 C347 C 0.60542 0.21101 0.18644
 C348 C 0.59090 0.22578 0.17297
 C349 C 0.60204 0.24738 0.13539
 C350 C 0.62791 0.25454 0.10993
 C351 C 0.64255 0.23986 0.12359
 C352 C 0.63142 0.21829 0.16128
 H353 H 0.60593 0.10160 0.33840
 H354 H 0.62802 0.14402 0.28360
 H355 H 0.55362 0.15419 0.30297
 H356 H 0.53170 0.11191 0.35695
 H357 H 0.62902 0.18653 0.24777
 H358 H 0.56914 0.17777 0.22859
 H359 H 0.57074 0.22046 0.19142
 H360 H 0.59015 0.25819 0.12576
 H361 H 0.66243 0.24470 0.10452
 H362 H 0.64289 0.20690 0.16915
 C363 C 0.57889 0.46702 0.32762
 C364 C 0.59294 0.45700 0.29462
 C365 C 0.57946 0.42890 0.27755
 C366 C 0.55143 0.41097 0.29439
 C367 C 0.53744 0.42098 0.32746
 C368 C 0.55089 0.44915 0.34415
 C369 C 0.59486 0.41972 0.24037
 C370 C 0.58692 0.39272 0.22941
 C371 C 0.60119 0.38395 0.18918
 C372 C 0.58532 0.35797 0.16382
 C373 C 0.59759 0.34906 0.12471
 C374 C 0.62622 0.36579 0.11054
 C375 C 0.64238 0.39149 0.13697
 C376 C 0.63002 0.40051 0.17588
 H377 H 0.58972 0.48895 0.33914
 H378 H 0.61439 0.47137 0.28195
 H379 H 0.53976 0.38938 0.28140
 H380 H 0.51596 0.40660 0.33990
 H381 H 0.61323 0.43614 0.22052
 H382 H 0.56851 0.37608 0.24856
 H383 H 0.56316 0.34470 0.17370
 H384 H 0.58458 0.32903 0.10554
 H385 H 0.66456 0.40477 0.12733
 H386 H 0.64320 0.42024 0.19577
 C387 C 0.11578 0.53788 0.33837
 C388 C 0.13936 0.54782 0.30495
 C389 C 0.15052 0.57448 0.28144
 C390 C 0.13756 0.59113 0.29220
 C391 C 0.11387 0.58113 0.32554
 C392 C 0.10254 0.55427 0.34859
 C393 C 0.17437 0.58325 0.24348
 C394 C 0.19261 0.61020 0.23196
 C395 C 0.21560 0.61917 0.19177
 C396 C 0.22850 0.64708 0.17365
 C397 C 0.24956 0.65642 0.13464
 C398 C 0.25829 0.63801 0.11277
 C399 C 0.24593 0.61025 0.13175
 C400 C 0.22497 0.60095 0.17097
 H401 H 0.10783 0.51726 0.35609
 H402 H 0.14887 0.53454 0.29720
 H403 H 0.14490 0.61141 0.27354
 H404 H 0.10383 0.59404 0.33181
 H405 H 0.17653 0.56653 0.22458
 H406 H 0.19035 0.62668 0.25183
 H407 H 0.22194 0.66167 0.18917
 H408 H 0.25871 0.67799 0.12111
 H409 H 0.25246 0.59563 0.11631
 H410 H 0.21650 0.57956 0.18476
 C411 C 0.47574 0.88340 0.33713
 C412 C 0.46418 0.85989 0.30396
 C413 C 0.43757 0.85068 0.28009
 C414 C 0.42271 0.86561 0.29025
 C415 C 0.43428 0.88911 0.32354
 C416 C 0.46100 0.89839 0.34701
 C417 C 0.42702 0.82650 0.24295
 C418 C 0.39985 0.81142 0.22770
 C419 C 0.39001 0.78841 0.18812
 C420 C 0.36533 0.78174 0.15904
 C421 C 0.35567 0.76078 0.12026
 C422 C 0.37038 0.74576 0.11002
 C423 C 0.39467 0.75188 0.14018
 C424 C 0.40436 0.77291 0.17890
 H425 H 0.49626 0.88986 0.35510
 H426 H 0.47615 0.84890 0.29672
 H427 H 0.40260 0.85992 0.27148
 H428 H 0.42267 0.90056 0.32960
 H429 H 0.44266 0.82133 0.22721
 H430 H 0.38411 0.81654 0.24296
 H431 H 0.35371 0.79314 0.16572
 H432 H 0.33676 0.75648 0.09810
 H433 H 0.40631 0.74049 0.13379
 H434 H 0.42286 0.77665 0.20177
 C435 C 0.40603 0.52213 0.32995
 C436 C 0.39303 0.53399 0.29872
 C437 C 0.40527 0.56329 0.29320
 C438 C 0.43030 0.58056 0.32149
 C439 C 0.44338 0.56870 0.35241
 C440 C 0.43158 0.53937 0.35644
 C441 C 0.39139 0.57482 0.25749
 C442 C 0.40507 0.60060 0.23586
 C443 C 0.39225 0.61151 0.19641
 C444 C 0.41047 0.63442 0.16471
 C445 C 0.39965 0.64494 0.12571
 C446 C 0.37024 0.63284 0.11753
 C447 C 0.35189 0.61040 0.15027
 C448 C 0.36274 0.59992 0.18946
 H449 H 0.39651 0.49946 0.33219
 H450 H 0.37365 0.52017 0.27783
 H451 H 0.43986 0.60322 0.32029
 H452 H 0.46272 0.58247 0.37345
 H453 H 0.36978 0.56062 0.24582
 H454 H 0.42738 0.61384 0.24417
 H455 H 0.43326 0.64396 0.16948
 H456 H 0.41442 0.66233 0.10144
 H457 H 0.32911 0.60082 0.14547
 H458 H 0.34786 0.58290 0.21417
   
