data_POSCAR
  _audit_creation_date              2014-09-24
  _audit_creation_method            'ToBaCCo'
  _symmetry_space_group_name_H-M    'P1'
  _symmetry_Int_Tables_number       1
  _symmetry_cell_setting            triclinic
  loop_
  _symmetry_equiv_pos_as_xyz
 x,y,z
_cell_length_a 22.6586
_cell_length_b 23.5759
_cell_length_c 21.6575
_cell_angle_alpha 89.272300
_cell_angle_beta 89.864300
_cell_angle_gamma 89.720700
loop_
  _atom_site_label
  _atom_site_type_symbol
  _atom_site_fract_x
  _atom_site_fract_y
  _atom_site_fract_z
C1 C 0.37399 0.27920 0.22432
 H2 H 0.38642 0.24529 0.25552
 C3 C 0.41783 0.30671 0.19015
 H4 H 0.46319 0.29261 0.19476
 C5 C 0.30100 0.34044 0.18231
 H6 H 0.25567 0.35441 0.18039
 C7 C 0.34354 0.36945 0.14757
 H8 H 0.32990 0.40460 0.11828
 N9 N 0.31644 0.29516 0.21853
 C10 C 0.15803 0.31247 0.31645
 H11 H 0.13101 0.28671 0.28697
 C12 C 0.13111 0.35000 0.35732
 H13 H 0.08345 0.35288 0.35841
 C14 C 0.25272 0.33823 0.35261
 H15 H 0.30015 0.33302 0.35057
 C16 C 0.22763 0.37574 0.39467
 H17 H 0.25610 0.39960 0.42478
 Zn18 Zn 0.25586 0.25534 0.26209
 N19 N 0.21782 0.30737 0.31483
 C20 C 0.27396 0.19252 0.37247
 N21 N 0.28851 0.19538 0.31150
 C22 C 0.32473 0.15581 0.28586
 C23 C 0.35003 0.11295 0.32246
 C24 C 0.29713 0.14964 0.41037
 C25 C 0.16761 0.26050 0.16914
 C26 C 0.12619 0.23901 0.12802
 C27 C 0.15323 0.14432 0.16115
 C28 C 0.19378 0.16762 0.20200
 N29 N 0.20059 0.22484 0.20517
 H30 H 0.24402 0.22332 0.39191
 H31 H 0.33443 0.15788 0.23695
 H32 H 0.37930 0.08229 0.30144
 H33 H 0.28528 0.14828 0.45884
 H34 H 0.17200 0.30579 0.17342
 H35 H 0.10003 0.26820 0.10028
 H36 H 0.14846 0.09873 0.16004
 H37 H 0.21928 0.13971 0.23153
 C38 C 0.16608 0.38196 0.39735
 C39 C 0.40274 0.35198 0.15053
 C40 C 0.11868 0.18021 0.12356
 C41 C 0.33635 0.10976 0.38561
 C42 C 0.84354 0.83864 0.23458
 H43 H 0.83957 0.83365 0.28414
 C44 C 0.88065 0.87994 0.20985
 H45 H 0.90461 0.90677 0.24125
 C46 C 0.81714 0.80844 0.13448
 H47 H 0.79280 0.77978 0.10557
 C48 C 0.85340 0.84994 0.10750
 H49 H 0.85604 0.85281 0.05769
 N50 N 0.81281 0.80393 0.19700
 C51 C 0.66865 0.75208 0.31904
 H52 H 0.67785 0.70766 0.32778
 C53 C 0.61989 0.77790 0.34713
 H54 H 0.59227 0.75370 0.37859
 C55 C 0.69171 0.83767 0.26582
 H56 H 0.71915 0.86072 0.23341
 C57 C 0.64246 0.86443 0.29117
 H58 H 0.63288 0.90823 0.27905
 Zn59 Zn 0.76838 0.74767 0.23869
 N60 N 0.70414 0.78253 0.28023
 C61 C 0.81173 0.70046 0.35437
 N62 N 0.82209 0.71069 0.29328
 C63 C 0.87422 0.69574 0.26669
 C64 C 0.91783 0.66822 0.30109
 C65 C 0.85399 0.67195 0.39043
 C66 C 0.69109 0.71069 0.14624
 C67 C 0.66320 0.67104 0.10881
 C68 C 0.73188 0.59978 0.14593
 C69 C 0.75770 0.64039 0.18330
 N70 N 0.73704 0.69464 0.18294
 H71 H 0.77089 0.71404 0.37531
 H72 H 0.88168 0.70496 0.21824
 H73 H 0.95867 0.65619 0.27860
 H74 H 0.84490 0.66347 0.43875
 H75 H 0.67517 0.75400 0.14728
 H76 H 0.62612 0.68428 0.08063
 H77 H 0.74856 0.55666 0.14757
 H78 H 0.79348 0.62804 0.21346
 C79 C 0.60639 0.83453 0.33258
 C80 C 0.88601 0.88641 0.14545
 C81 C 0.68341 0.61465 0.10887
 C82 C 0.90772 0.65530 0.36354
 C83 C 0.81004 0.32887 0.68765
 H84 H 0.80897 0.33042 0.73755
 C85 C 0.84597 0.36633 0.65427
 H86 H 0.87273 0.39621 0.67912
 C87 C 0.77532 0.28845 0.59507
 H88 H 0.74677 0.25903 0.57197
 C89 C 0.81047 0.32508 0.55993
 H90 H 0.80924 0.32255 0.51006
 N91 N 0.77637 0.29032 0.65781
 C92 C 0.67953 0.29017 0.81323
 H93 H 0.71104 0.26334 0.83702
 C94 C 0.64508 0.32772 0.84723
 H95 H 0.64995 0.32806 0.89687
 C96 C 0.63723 0.32384 0.71971
 H97 H 0.63539 0.32271 0.66983
 C98 C 0.60171 0.36207 0.75201
 H99 H 0.57220 0.39002 0.72660
 Zn100 Zn 0.72718 0.24188 0.70550
 N101 N 0.67502 0.28873 0.75065
 C102 C 0.73957 0.15867 0.79553
 N103 N 0.77135 0.19631 0.76124
 C104 C 0.83087 0.20016 0.76742
 C105 C 0.86043 0.16668 0.81139
 C106 C 0.76704 0.12465 0.84008
 C107 C 0.62648 0.18796 0.65246
 C108 C 0.59889 0.14781 0.61539
 C109 C 0.69505 0.11564 0.58191
 C110 C 0.72070 0.15566 0.62016
 N111 N 0.68639 0.19128 0.65383
 H112 H 0.69234 0.15602 0.78900
 H113 H 0.85552 0.22943 0.73869
 H114 H 0.90769 0.17145 0.81551
 H115 H 0.73999 0.09589 0.86726
 H116 H 0.60005 0.21580 0.68069
 H117 H 0.55120 0.14571 0.61478
 H118 H 0.72325 0.08783 0.55535
 H119 H 0.76825 0.15852 0.62311
 C120 C 0.60583 0.36465 0.81662
 C121 C 0.84670 0.36446 0.58945
 C122 C 0.63344 0.11112 0.57943
 C123 C 0.82838 0.12861 0.84938
 C124 C 0.34238 0.81322 0.76368
 H125 H 0.34353 0.81589 0.81349
 C126 C 0.38588 0.83978 0.72839
 H127 H 0.42036 0.86296 0.75151
 C128 C 0.29539 0.78005 0.67351
 H129 H 0.26060 0.75607 0.65231
 C130 C 0.33772 0.80688 0.63622
 H131 H 0.33473 0.80351 0.58654
 N132 N 0.29777 0.78482 0.73604
 C133 C 0.15851 0.80349 0.87426
 H134 H 0.15195 0.76055 0.89101
 C135 C 0.12453 0.84796 0.89820
 H136 H 0.09205 0.83888 0.93361
 C137 C 0.20726 0.86715 0.80596
 H138 H 0.23841 0.87459 0.76899
 C139 C 0.17421 0.91247 0.82812
 H140 H 0.18124 0.95434 0.80840
 Zn141 Zn 0.24160 0.75383 0.79199
 N142 N 0.19907 0.81389 0.82909
 C143 C 0.28691 0.71957 0.91166
 N144 N 0.28617 0.71085 0.84969
 C145 C 0.32067 0.67050 0.82344
 C146 C 0.35738 0.63635 0.85959
 C147 C 0.32325 0.68611 0.94986
 C148 C 0.15506 0.72411 0.70318
 C149 C 0.11649 0.68739 0.67317
 C150 C 0.14073 0.61468 0.74861
 C151 C 0.17952 0.65226 0.77631
 N152 N 0.18703 0.70545 0.75261
 H153 H 0.25985 0.75259 0.93144
 H154 H 0.31955 0.66495 0.77394
 H155 H 0.38389 0.60452 0.83699
 H156 H 0.32355 0.69343 0.99911
 H157 H 0.16011 0.76727 0.68654
 H158 H 0.09236 0.70243 0.63307
 H159 H 0.13623 0.57225 0.76772
 H160 H 0.20351 0.63874 0.81696
 C161 C 0.13199 0.90326 0.87455
 C162 C 0.38336 0.83766 0.66381
 C163 C 0.10954 0.63169 0.69567
 C164 C 0.35921 0.64389 0.92375
 Si165 Si -0.01592 0.03827 -0.00192
 Si166 Si 0.01310 0.51120 0.51876
 Si167 Si 0.48529 -0.03967 0.48611
 Si168 Si 0.51970 0.49116 -0.00217
 N169 N 0.05755 0.03520 -0.10232
 N170 N 0.09467 0.00265 -0.13319
 C171 C 0.09546 -0.04846 -0.10443
 C172 C 0.05722 -0.04605 -0.05452
 N173 N 0.03470 0.00683 -0.05509
 H174 H 0.04714 -0.07891 -0.02086
 N175 N 0.12886 0.47377 0.52194
 N176 N 0.16752 0.44208 0.49176
 C177 C 0.13900 0.42059 0.44271
 C178 C 0.08157 0.44041 0.44378
 N179 N 0.07717 0.47319 0.49377
 H180 H 0.04640 0.43231 0.41141
 N181 N 0.48157 -0.07986 0.36708
 N182 N 0.51227 -0.11082 0.32759
 C183 C 0.55536 -0.13681 0.36034
 C184 C 0.55048 -0.12046 0.42095
 N185 N 0.50400 -0.08497 0.42321
 H186 H 0.58100 -0.12909 0.45834
 N187 N 0.50791 0.47256 -0.12855
 N188 N 0.52899 0.44090 -0.17374
 C189 C 0.57045 0.40651 -0.14860
 C190 C 0.57401 0.41847 -0.08644
 N191 N 0.53456 0.45985 -0.07590
 H192 H 0.60252 0.39937 -0.05192
 N193 N -0.13484 0.03840 -0.02948
 N194 N -0.17438 0.06106 -0.06746
 C195 C -0.14529 0.09694 -0.10595
 C196 C -0.08608 0.09515 -0.08990
 N197 N -0.08177 0.05838 -0.04227
 H198 H -0.04943 0.11808 -0.11013
 N199 N 0.03507 0.58120 0.41906
 N200 N 0.00926 0.61655 0.37948
 C201 C -0.04687 0.62367 0.39896
 C202 C -0.05449 0.59151 0.45220
 N203 N -0.00240 0.56583 0.46296
 H204 H -0.09468 0.58449 0.47825
 N205 N 0.37588 0.00959 0.50378
 N206 N 0.33870 0.04731 0.47974
 C207 C 0.36256 0.06542 0.42590
 C208 C 0.41577 0.03765 0.41788
 N209 N 0.42228 0.00328 0.46732
 H210 H 0.44761 0.04322 0.38098
 N211 N 0.44143 0.57165 0.04241
 N212 N 0.40142 0.60985 0.02499
 C213 C 0.39849 0.60810 -0.03718
 C214 C 0.43821 0.56762 -0.05697
 N215 N 0.46389 0.54573 -0.00621
 H216 H 0.44798 0.55606 -0.10383
 N217 N -0.01969 0.00134 0.11865
 N218 N -0.04513 -0.03577 0.15630
 C219 C -0.07734 -0.07085 0.12107
 C220 C -0.06987 -0.05413 0.05991
 N221 N -0.03393 -0.00892 0.06075
 H222 H -0.09073 -0.07082 0.01914
 N223 N -0.06996 0.43801 0.47335
 N224 N -0.11108 0.40112 0.48998
 C225 C -0.11480 0.40227 0.55215
 C226 C -0.07462 0.44159 0.57295
 N227 N -0.04758 0.46270 0.52245
 H228 H -0.06478 0.45252 0.62008
 N229 N 0.50226 -0.07849 0.60517
 N230 N 0.47724 -0.10861 0.64999
 C231 C 0.42743 -0.13088 0.62657
 C232 C 0.42295 -0.11348 0.56555
 N233 N 0.47027 -0.08080 0.55432
 H234 H 0.38729 -0.12088 0.53353
 N235 N 0.53240 0.39389 0.06790
 N236 N 0.50427 0.35915 0.10621
 C237 C 0.44887 0.37959 0.11238
 C238 C 0.44410 0.42831 0.07638
 N239 N 0.49708 0.43557 0.04960
 H240 H 0.40613 0.45574 0.07000
 N241 N -0.00159 0.15262 0.02148
 N242 N 0.03180 0.18833 0.05255
 C243 C 0.07378 0.15702 0.08138
 C244 C 0.06513 0.10090 0.06646
 N245 N 0.01781 0.10006 0.02942
 H246 H 0.08999 0.06397 0.08153
 N247 N 0.02888 0.51153 0.64476
 N248 N 0.05443 0.54058 0.68915
 C249 C 0.07175 0.59038 0.66388
 C250 C 0.05560 0.59086 0.60239
 N251 N 0.02854 0.54120 0.59255
 H252 H 0.06677 0.62195 0.56711
 N253 N 0.59809 0.00242 0.47219
 N254 N 0.63545 0.03957 0.49524
 C255 C 0.60635 0.06763 0.54003
 C256 C 0.54975 0.04630 0.54363
 N257 N 0.54661 0.00577 0.50078
 H258 H 0.51478 0.05766 0.57534
 N259 N 0.63569 0.48885 0.03432
 N260 N 0.67688 0.51875 0.06212
 C261 C 0.65352 0.57044 0.07285
 C262 C 0.59640 0.57120 0.05043
 N263 N 0.58713 0.51949 0.02705
 H264 H 0.56383 0.60475 0.05370
   
