data_POSCAR
  _audit_creation_date              2014-09-24
  _audit_creation_method            'ToBaCCo'
  _symmetry_space_group_name_H-M    'P1'
  _symmetry_Int_Tables_number       1
  _symmetry_cell_setting            triclinic
  loop_
  _symmetry_equiv_pos_as_xyz
 x,y,z
_cell_length_a 25.9807
_cell_length_b 26.0232
_cell_length_c 48.3924
_cell_angle_alpha 86.917900
_cell_angle_beta 91.551400
_cell_angle_gamma 120.110700
loop_
  _atom_site_label
  _atom_site_type_symbol
  _atom_site_fract_x
  _atom_site_fract_y
  _atom_site_fract_z
C1 C 0.02198 0.09717 0.53748
 H2 H 0.06333 0.09666 0.53696
 C3 C 0.01753 0.13775 0.55345
 H4 H 0.05546 0.16848 0.56542
 C5 C -0.07737 0.05901 0.52173
 H6 H -0.11368 0.02905 0.50887
 C7 C -0.08368 0.09913 0.53746
 H8 H -0.12510 0.09971 0.53689
 N9 N -0.02503 0.05887 0.52207
 C10 C 0.01491 -0.08130 0.50799
 H11 H 0.01773 -0.07831 0.48564
 C12 C 0.01795 -0.12716 0.52292
 H13 H 0.02371 -0.15930 0.51209
 C14 C 0.00004 -0.04547 0.54935
 H15 H -0.00912 -0.01495 0.55950
 C16 C 0.00284 -0.09063 0.56506
 H17 H -0.00332 -0.09417 0.58727
 Zn18 Zn -0.01028 0.01085 0.49937
 N19 N 0.00557 -0.04196 0.52132
 C20 C 0.10772 0.06389 0.47742
 N21 N 0.05525 0.06379 0.47689
 C22 C 0.04859 0.10544 0.46155
 C23 C 0.09579 0.14954 0.44585
 C24 C 0.15626 0.10745 0.46198
 C25 C -0.12701 -0.07961 0.49046
 C26 C -0.17428 -0.12269 0.47544
 C27 C -0.11784 -0.07714 0.43340
 C28 C -0.07165 -0.03496 0.44924
 N29 N -0.07679 -0.03732 0.47726
 H30 H 0.11240 0.03116 0.49023
 H31 H 0.00666 0.10482 0.46192
 H32 H 0.09020 0.18288 0.43395
 H33 H 0.19820 0.10790 0.46271
 H34 H -0.12929 -0.08126 0.51281
 H35 H -0.21330 -0.15721 0.48631
 H36 H -0.11243 -0.07585 0.41119
 H37 H -0.03077 -0.00214 0.43921
 C38 C 0.01099 -0.13232 0.55168
 C39 C -0.03559 0.13903 0.55333
 C40 C -0.16926 -0.12203 0.44666
 C41 C 0.15021 0.15082 0.44619
 C42 C 1.11671 0.04795 0.12883
 H43 H 1.11644 0.08938 0.12890
 C44 C 1.15871 0.04415 0.11309
 H45 H 1.19078 0.08266 0.10086
 C46 C 1.07631 -0.05238 0.14538
 H47 H 1.04485 -0.08939 0.15844
 C48 C 1.11778 -0.05808 0.12991
 H49 H 1.11790 -0.09970 0.13087
 N50 N 1.07659 0.00013 0.14450
 C51 C 0.93456 0.03899 0.15714
 H52 H 0.93519 0.04040 0.17946
 C53 C 0.88994 0.04253 0.14188
 H54 H 0.85640 0.04728 0.15243
 C55 C 0.97499 0.02696 0.11623
 H56 H 1.00677 0.01865 0.10641
 C57 C 0.93114 0.03031 0.10021
 H58 H 0.92987 0.02541 0.07807
 Zn59 Zn 1.02616 0.01355 0.16667
 N60 N 0.97554 0.03075 0.14420
 C61 C 1.07645 0.12973 0.18798
 N62 N 1.07672 0.07749 0.18882
 C63 C 1.11687 0.06982 0.20444
 C64 C 1.15889 0.11564 0.22020
 C65 C 1.11794 0.17692 0.20348
 C66 C 0.93452 -0.10361 0.17630
 C67 C 0.88994 -0.15178 0.19160
 C68 C 0.93139 -0.09815 0.23323
 C69 C 0.97518 -0.05096 0.21716
 N70 N 0.97560 -0.05428 0.18919
 H71 H 1.04495 0.13525 0.17496
 H72 H 1.11658 0.02811 0.20434
 H73 H 1.19098 0.10922 0.23240
 H74 H 1.11806 0.21865 0.20257
 H75 H 0.93504 -0.10446 0.15398
 H76 H 0.85633 -0.19014 0.18109
 H77 H 0.93023 -0.09445 0.25537
 H78 H 1.00703 -0.01079 0.22695
 C79 C 0.88772 0.03722 0.11321
 C80 C 1.15948 -0.00920 0.11373
 C81 C 0.88787 -0.14859 0.22028
 C82 C 1.15966 0.16975 0.21962
 C83 C 0.04878 0.94268 0.87157
 H84 H 0.00687 0.90128 0.87116
 C85 C 0.09593 0.94589 0.88732
 H86 H 0.09033 0.90695 0.89923
 C87 C 0.10787 1.04350 0.85576
 H88 H 0.11255 1.08092 0.84296
 C89 C 0.15637 1.04860 0.87126
 H90 H 0.19827 1.09018 0.87057
 N91 N 0.05544 0.99101 0.85624
 C92 C -0.12682 0.95185 0.84267
 H93 H -0.12914 0.95121 0.82033
 C94 C -0.17404 0.94763 0.85772
 H95 H -0.21309 0.94311 0.84692
 C96 C -0.07140 0.96266 0.88389
 H97 H -0.03052 0.97079 0.89391
 C98 C -0.11756 0.95861 0.89972
 H99 H -0.11222 0.96278 0.92193
 Zn100 Zn -0.01009 0.97830 0.83375
 N101 N -0.07658 0.95986 0.85586
 C102 C -0.07719 0.86294 0.81138
 N103 N -0.02484 0.91551 0.81105
 C104 C 0.02216 0.92428 0.79565
 C105 C 0.01771 0.87923 0.77967
 C106 C -0.08351 0.81649 0.79566
 C107 C 0.01507 1.09567 0.82513
 C108 C 0.01810 1.14457 0.81020
 C109 C 0.00302 1.09291 0.76806
 C110 C 0.00023 1.04495 0.78377
 N111 N 0.00575 1.04698 0.81180
 H112 H -0.11350 0.85654 0.82424
 H113 H 0.06352 0.96620 0.79617
 H114 H 0.05564 0.88650 0.76771
 H115 H -0.12493 0.77444 0.79622
 H116 H 0.01788 1.09550 0.84748
 H117 H 0.02384 1.18247 0.82103
 H118 H -0.00313 1.09028 0.74584
 H119 H -0.00891 1.00527 0.77362
 C120 C -0.16894 0.95202 0.88648
 C121 C 0.15030 0.99916 0.88704
 C122 C 0.01114 1.14276 0.78144
 C123 C -0.03542 0.82475 0.77979
 C124 C 0.46034 -0.00814 -0.01487
 C125 C 0.46353 -0.00515 0.01415
 C126 C 0.51263 -0.00221 0.02829
 C127 C 0.55786 -0.00371 0.01387
 C128 C 0.55315 -0.00977 -0.01499
 C129 C 0.50478 -0.01120 -0.02921
 H130 H 0.50172 -0.01468 -0.05151
 H131 H 0.51568 0.00131 0.05059
 C132 C -0.02705 0.44064 0.65216
 C133 C -0.02547 0.43890 0.68130
 C134 C -0.02635 0.48395 0.69552
 C135 C -0.02702 0.53162 0.68096
 C136 C -0.02549 0.53493 0.65182
 C137 C -0.02640 0.48898 0.63760
 H138 H -0.02619 0.49104 0.61515
 H139 H -0.02610 0.48212 0.71797
 C140 C 0.55820 0.56244 0.31985
 C141 C 0.55356 0.56368 0.34872
 C142 C 0.50516 0.51666 0.36293
 C143 C 0.46063 0.46920 0.34855
 C144 C 0.46376 0.46952 0.31953
 C145 C 0.51288 0.51575 0.30540
 H146 H 0.51588 0.51536 0.28311
 H147 H 0.50215 0.51699 0.38523
 C148 C -0.03920 0.18294 0.56870
 C149 C -0.03983 0.22106 0.58154
 C150 C -0.03844 0.26680 0.59652
 C151 C -0.03610 0.30646 0.60925
 C152 C -0.03267 0.35327 0.62414
 C153 C -0.02978 0.39321 0.63686
 C154 C 0.83870 0.80528 0.23605
 C155 C 0.79660 0.76765 0.24915
 C156 C 0.74655 0.72438 0.26434
 C157 C 0.70344 0.68774 0.27718
 C158 C 0.65276 0.64479 0.29210
 C159 C 0.60956 0.60771 0.30475
 C160 C 0.19993 0.00176 -0.09781
 C161 C 0.24060 0.00188 -0.08516
 C162 C 0.28741 0.00028 -0.07039
 C163 C 0.32696 -0.00191 -0.05779
 C164 C 0.37309 -0.00478 -0.04300
 C165 C 0.41260 -0.00683 -0.03027
 C166 C 0.00784 0.81740 0.56717
 C167 C 0.00349 0.77450 0.58011
 C168 C -0.00292 0.72370 0.59523
 C169 C -0.00887 0.68013 0.60813
 C170 C -0.01574 0.62914 0.62324
 C171 C -0.02088 0.58593 0.63619
 C172 C 0.20459 0.21796 0.23495
 C173 C 0.24337 0.25738 0.24782
 C174 C 0.28970 0.30266 0.26290
 C175 C 0.32970 0.34086 0.27578
 C176 C 0.37669 0.38537 0.29090
 C177 C 0.41660 0.42347 0.30388
 C178 C 0.78841 -0.04560 -0.09879
 C179 C 0.75165 -0.04164 -0.08583
 C180 C 0.70953 -0.03536 -0.07075
 C181 C 0.67396 -0.02922 -0.05795
 C182 C 0.63242 -0.02176 -0.04302
 C183 C 0.59666 -0.01579 -0.03028
 C184 C 0.20443 -0.01246 0.09845
 C185 C 0.24322 -0.01310 0.08563
 C186 C 0.28957 -0.01207 0.07061
 C187 C 0.32957 -0.01032 0.05778
 C188 C 0.37655 -0.00790 0.04271
 C189 C 0.41644 -0.00616 0.02977
 C190 C 0.78972 0.83470 0.43253
 C191 C 0.75281 0.79399 0.41957
 C192 C 0.71050 0.74558 0.40451
 C193 C 0.67479 0.70388 0.39171
 C194 C 0.63308 0.65488 0.37678
 C195 C 0.59720 0.61317 0.36403
 C196 C 0.00798 0.18988 0.76595
 C197 C 0.00361 0.22840 0.75300
 C198 C -0.00282 0.27277 0.73788
 C199 C -0.00878 0.31038 0.72499
 C200 C -0.01567 0.35447 0.70988
 C201 C -0.02084 0.39252 0.69693
 C202 C 0.83850 0.03414 0.09748
 C203 C 0.79636 0.02964 0.08443
 C204 C 0.74626 0.02283 0.06930
 C205 C 0.70312 0.01633 0.05649
 C206 C 0.65241 0.00856 0.04161
 C207 C 0.60920 0.00241 0.02897
 C208 C 0.19989 0.19804 0.43113
 C209 C 0.24062 0.23875 0.41855
 C210 C 0.28750 0.28734 0.40387
 C211 C 0.32711 0.32922 0.39133
 C212 C 0.37330 0.37837 0.37661
 C213 C 0.41285 0.42005 0.36393
 C214 C -0.03905 0.77722 0.76442
 C215 C -0.03969 0.73847 0.75158
 C216 C -0.03832 0.69410 0.73661
 C217 C -0.03600 0.65677 0.72387
 C218 C -0.03259 0.61340 0.70898
 C219 C -0.02972 0.57634 0.69626
   
