data_POSCAR
  _audit_creation_date              2014-09-24
  _audit_creation_method            'ToBaCCo'
  _symmetry_space_group_name_H-M    'P1'
  _symmetry_Int_Tables_number       1
  _symmetry_cell_setting            triclinic
  loop_
  _symmetry_equiv_pos_as_xyz
 x,y,z
_cell_length_a 38.4063
_cell_length_b 42.1159
_cell_length_c 28.3795
_cell_angle_alpha 90.026600
_cell_angle_beta 89.956300
_cell_angle_gamma 90.079000
loop_
  _atom_site_label
  _atom_site_type_symbol
  _atom_site_fract_x
  _atom_site_fract_y
  _atom_site_fract_z
C1 C 0.19575 0.23369 0.12359
 C2 C 0.19477 0.26621 0.12461
 C3 C 0.20633 0.27521 0.16884
 N4 N 0.21425 0.24937 0.19499
 C5 C 0.20735 0.22390 0.16756
 C6 C 0.20668 0.30665 0.18599
 C7 C 0.22652 0.31548 0.22577
 C8 C 0.22368 0.34400 0.24995
 C9 C 0.24990 0.34436 0.28301
 C10 C 0.26760 0.31588 0.27843
 N11 N 0.25325 0.29844 0.24355
 C12 C 0.29791 0.30758 0.30340
 C13 C 0.31032 0.27615 0.30612
 C14 C 0.34265 0.26759 0.32345
 C15 C 0.34377 0.23508 0.32257
 C16 C 0.31182 0.22481 0.30543
 N17 N 0.29146 0.25002 0.29507
 C18 C 0.30122 0.19267 0.30145
 C19 C 0.27149 0.18379 0.27491
 C20 C 0.25255 0.15613 0.28183
 C21 C 0.22628 0.15606 0.24905
 C22 C 0.23010 0.18347 0.22233
 N23 N 0.25747 0.20052 0.23887
 C24 C 0.20892 0.19200 0.18328
 H25 H 0.18839 0.21890 0.09402
 H26 H 0.18643 0.28150 0.09614
 H27 H 0.26790 0.22099 0.22378
 H28 H 0.20509 0.36284 0.24396
 H29 H 0.25551 0.36350 0.30733
 H30 H 0.36329 0.28316 0.33535
 H31 H 0.36570 0.22069 0.33328
 H32 H 0.20635 0.13802 0.24587
 H33 H 0.26374 0.27786 0.22903
 H34 H 0.25679 0.13815 0.30844
 C35 C 0.84290 0.23404 0.17577
 C36 C 0.84253 0.26662 0.17520
 C37 C 0.81132 0.27582 0.19556
 N38 N 0.79257 0.25005 0.20836
 C39 C 0.81189 0.22451 0.19645
 C40 C 0.79950 0.30744 0.19905
 C41 C 0.76928 0.31609 0.22420
 C42 C 0.75211 0.34486 0.21975
 C43 C 0.72533 0.34459 0.25201
 C44 C 0.72723 0.31581 0.27563
 N45 N 0.75402 0.29857 0.25836
 C46 C 0.70633 0.30689 0.31443
 C47 C 0.70494 0.27532 0.33098
 C48 C 0.69238 0.26628 0.37471
 C49 C 0.69269 0.23375 0.37535
 C50 C 0.70491 0.22396 0.33164
 N51 N 0.71279 0.24948 0.30473
 C52 C 0.70673 0.19200 0.31600
 C53 C 0.72847 0.18335 0.27750
 C54 C 0.72592 0.15538 0.25170
 C55 C 0.75279 0.15550 0.21967
 C56 C 0.77045 0.18387 0.22579
 N57 N 0.75554 0.20075 0.26100
 C58 C 0.80059 0.19277 0.20057
 H59 H 0.86340 0.21909 0.16193
 H60 H 0.86271 0.28177 0.16088
 H61 H 0.76547 0.22144 0.27601
 H62 H 0.75833 0.36408 0.19585
 H63 H 0.70690 0.36361 0.25774
 H64 H 0.68392 0.28156 0.40316
 H65 H 0.68469 0.21898 0.40462
 H66 H 0.75841 0.13700 0.19431
 H67 H 0.76376 0.27769 0.27281
 H68 H 0.70664 0.13679 0.25522
 C69 C 0.83858 0.73520 0.83557
 C70 C 0.83765 0.76768 0.83587
 C71 C 0.80567 0.77632 0.81743
 N72 N 0.78681 0.75018 0.80638
 C73 C 0.80689 0.72491 0.81758
 C74 C 0.79410 0.80799 0.81285
 C75 C 0.76433 0.81684 0.78686
 C76 C 0.74913 0.84666 0.78811
 C77 C 0.72271 0.84643 0.75544
 C78 C 0.72244 0.81642 0.73519
 N79 N 0.74808 0.79864 0.75438
 C80 C 0.70021 0.80696 0.69803
 C81 C 0.69620 0.77515 0.68312
 C82 C 0.67588 0.76549 0.64537
 C83 C 0.67665 0.73294 0.64501
 C84 C 0.69740 0.72378 0.68256
 N85 N 0.70911 0.74960 0.70595
 C86 C 0.70258 0.69210 0.69708
 C87 C 0.72530 0.68313 0.73394
 C88 C 0.72515 0.65356 0.75538
 C89 C 0.75154 0.65372 0.78795
 C90 C 0.76759 0.68323 0.78517
 N91 N 0.75138 0.70104 0.75208
 C92 C 0.79692 0.69262 0.81235
 H93 H 0.86040 0.72084 0.84678
 H94 H 0.85836 0.78318 0.84777
 H95 H 0.75988 0.72283 0.73929
 H96 H 0.75660 0.86667 0.80983
 H97 H 0.70595 0.86629 0.74717
 H98 H 0.66141 0.78029 0.62117
 H99 H 0.66286 0.71777 0.62051
 H100 H 0.75802 0.63427 0.81124
 H101 H 0.75669 0.77676 0.74229
 H102 H 0.70775 0.63388 0.74848
 C103 C 0.18716 0.76595 0.86055
 C104 C 0.18727 0.73345 0.86044
 C105 C 0.19710 0.72411 0.81550
 N106 N 0.20354 0.74986 0.78829
 C107 C 0.19691 0.77548 0.81568
 C108 C 0.19855 0.69225 0.79945
 C109 C 0.21997 0.68392 0.76060
 C110 C 0.21735 0.65622 0.73421
 C111 C 0.24469 0.65630 0.70288
 C112 C 0.26264 0.68442 0.71005
 N113 N 0.24737 0.70121 0.74503
 C114 C 0.29351 0.69309 0.68643
 C115 C 0.30518 0.72475 0.68347
 C116 C 0.33685 0.73428 0.66476
 C117 C 0.33665 0.76687 0.66472
 C118 C 0.30486 0.77603 0.68343
 N119 N 0.28563 0.75027 0.69475
 C120 C 0.29282 0.80754 0.68637
 C121 C 0.26193 0.81589 0.71015
 C122 C 0.24373 0.84384 0.70316
 C123 C 0.21649 0.84366 0.73464
 C124 C 0.21941 0.81595 0.76092
 N125 N 0.24691 0.79893 0.74516
 C126 C 0.19816 0.80738 0.79984
 H127 H 0.18089 0.78089 0.89040
 H128 H 0.18110 0.71837 0.89018
 H129 H 0.25709 0.77861 0.76089
 H130 H 0.19790 0.63773 0.73719
 H131 H 0.25057 0.63789 0.67749
 H132 H 0.35768 0.71934 0.65185
 H133 H 0.35729 0.78206 0.65178
 H134 H 0.19690 0.86197 0.73780
 H135 H 0.25734 0.72162 0.76086
 H136 H 0.24939 0.86234 0.67780
 O137 O 0.96846 0.01183 0.05902
 O138 O 1.03423 -0.04008 0.00482
 O139 O 1.03638 0.01145 0.05601
 O140 O 0.96699 -0.03949 0.00752
 O141 O 0.96577 -0.01012 -0.05680
 O142 O 1.03475 0.04091 -0.00822
 O143 O 1.03355 -0.01060 -0.05943
 O144 O 0.96740 0.04121 -0.00530
 Cu145 Cu 1.00165 -0.01694 0.03837
 Cu146 Cu 1.00027 0.01826 -0.03892
 C147 C 0.95678 0.03550 0.03626
 C148 C 1.04488 -0.03444 -0.03673
 C149 C 1.04719 0.03510 0.03232
 C150 C 0.95475 -0.03370 -0.03316
 O151 O 0.46751 0.48851 0.44283
 O152 O 0.53473 0.53909 0.49733
 O153 O 0.53539 0.48788 0.44592
 O154 O 0.46724 0.54011 0.49400
 O155 O 0.46440 0.51046 0.55796
 O156 O 0.53296 0.45855 0.51027
 O157 O 0.53204 0.51011 0.56197
 O158 O 0.46573 0.45903 0.50703
 Cu159 Cu 0.50142 0.51680 0.46352
 Cu160 Cu 0.49862 0.48165 0.54081
 C161 C 0.45538 0.46492 0.46546
 C162 C 0.54459 0.53346 0.53922
 C163 C 0.54561 0.46412 0.46973
 C164 C 0.45429 0.53433 0.53430
 O165 O -0.03219 0.54009 0.00701
 O166 O 0.03586 0.48787 0.05512
 O167 O 0.03485 0.53944 0.00427
 O168 O -0.03207 0.48845 0.05810
 O169 O -0.03371 0.45917 -0.00635
 O170 O 0.03333 0.51022 -0.06026
 O171 O 0.03355 0.45849 -0.00922
 O172 O -0.03456 0.51065 -0.05729
 Cu173 Cu 0.00179 0.51679 0.03770
 Cu174 Cu -0.00049 0.48175 -0.03981
 C175 C -0.04473 0.53449 -0.03355
 C176 C 0.04610 0.46408 0.03134
 C177 C 0.04522 0.53382 -0.03740
 C178 C -0.04417 0.46494 0.03525
 O179 O 0.53136 0.98884 0.56072
 O180 O 0.46690 1.04133 0.50527
 O181 O 0.46375 0.98984 0.55628
 O182 O 0.53395 1.04028 0.50924
 O183 O 0.53529 1.01135 0.44442
 O184 O 0.46638 0.95984 0.49263
 O185 O 0.46731 1.01132 0.44146
 O186 O 0.53385 0.96005 0.49587
 Cu187 Cu 0.49884 1.01795 0.53939
 Cu188 Cu 0.50088 0.98274 0.46208
 C189 C 0.54360 0.96542 0.53790
 C190 C 0.45617 1.03538 0.46388
 C191 C 0.45336 0.96595 0.53278
 C192 C 0.54625 1.03476 0.46850
 C193 C 1.14413 0.12308 0.11709
 C194 C 1.17824 0.11522 0.13028
 C195 C 1.19974 0.13785 0.15177
 C196 C 1.18742 0.16878 0.16123
 C197 C 1.15285 0.17613 0.14848
 C198 C 1.13167 0.15371 0.12643
 C199 C 1.12123 0.09959 0.09374
 C200 C 1.10240 0.10816 0.05334
 C201 C 1.07911 0.08684 0.03271
 C202 C 1.07379 0.05661 0.05243
 C203 C 1.09310 0.04781 0.09241
 C204 C 1.11684 0.06904 0.11267
 H205 H 1.22634 0.13135 0.15992
 H206 H 1.14175 0.19912 0.15661
 H207 H 1.06460 0.09435 0.00197
 H208 H 1.08961 0.02465 0.10829
 H209 H 1.10520 0.16013 0.11740
 H210 H 1.10557 0.13151 0.03791
 H211 H 1.18848 0.09177 0.12308
 H212 H 1.13097 0.06198 0.14396
 C213 C 0.63912 0.62104 0.63044
 C214 C 0.67096 0.63033 0.61014
 C215 C 0.69187 0.65313 0.63216
 C216 C 0.68110 0.66711 0.67453
 C217 C 0.64943 0.65793 0.69495
 C218 C 0.62867 0.63495 0.67321
 C219 C 0.61638 0.59752 0.60662
 C220 C 0.59985 0.57345 0.63261
 C221 C 0.57717 0.55217 0.61052
 C222 C 0.57031 0.55469 0.56201
 C223 C 0.58729 0.57847 0.53589
 C224 C 0.61020 0.59958 0.55794
 H225 H 0.71627 0.66011 0.61602
 H226 H 0.64076 0.66872 0.72756
 H227 H 0.56451 0.53411 0.63163
 H228 H 0.58258 0.58103 0.49847
 H229 H 0.60406 0.62855 0.68930
 H230 H 0.60444 0.57112 0.67010
 H231 H 0.67973 0.61982 0.57739
 H232 H 0.62236 0.61808 0.53713
 C233 C -0.13977 0.37843 0.12751
 C234 C -0.16189 0.35802 0.10199
 C235 C -0.18200 0.33521 0.12527
 C236 C -0.18061 0.33261 0.17444
 C237 C -0.15933 0.35331 0.20020
 C238 C -0.13896 0.37593 0.17697
 C239 C -0.11672 0.40142 0.10265
 C240 C -0.10943 0.43137 0.12233
 C241 C -0.08624 0.45219 0.10018
 C242 C -0.07007 0.44368 0.05759
 C243 C -0.07795 0.41410 0.03731
 C244 C -0.10085 0.39316 0.05968
 H245 H -0.19847 0.31941 0.10499
 H246 H -0.15792 0.35142 0.23822
 H247 H -0.08087 0.47492 0.11651
 H248 H -0.06574 0.40675 0.00468
 H249 H -0.12186 0.39085 0.19771
 H250 H -0.12164 0.43875 0.15493
 H251 H -0.16365 0.35964 0.06400
 H252 H -0.10534 0.37012 0.04388
 C253 C 0.35467 0.87907 0.61779
 C254 C 0.35273 0.87761 0.66729
 C255 C 0.33194 0.85482 0.68944
 C256 C 0.31302 0.83288 0.66258
 C257 C 0.31430 0.83447 0.61330
 C258 C 0.33481 0.85746 0.59106
 C259 C 0.37834 0.90219 0.59433
 C260 C 0.39694 0.89352 0.55361
 C261 C 0.42061 0.91455 0.53295
 C262 C 0.42652 0.94464 0.55280
 C263 C 0.40755 0.95359 0.59299
 C264 C 0.38359 0.93267 0.61337
 H265 H 0.33127 0.85374 0.72756
 H266 H 0.29963 0.81774 0.59215
 H267 H 0.43499 0.90687 0.50216
 H268 H 0.41134 0.97671 0.60888
 H269 H 0.33517 0.85825 0.55294
 H270 H 0.39404 0.87009 0.53841
 H271 H 0.36805 0.89346 0.68901
 H272 H 0.36925 0.94038 0.64416
 C273 C -0.14148 0.62282 -0.11891
 C274 C -0.15522 0.64869 -0.09362
 C275 C -0.17555 0.67156 -0.11614
 C276 C -0.18336 0.66892 -0.16443
 C277 C -0.17071 0.64243 -0.18934
 C278 C -0.14973 0.61991 -0.16704
 C279 C -0.11780 0.59961 -0.09557
 C280 C -0.11706 0.56754 -0.10968
 C281 C -0.09350 0.54628 -0.08936
 C282 C -0.07069 0.55642 -0.05377
 C283 C -0.07194 0.58814 -0.03874
 C284 C -0.09493 0.60955 -0.05970
 H285 H -0.18566 0.69119 -0.09560
 H286 H -0.17587 0.63986 -0.22669
 H287 H -0.09323 0.52186 -0.10134
 H288 H -0.05435 0.59667 -0.01173
 H289 H -0.13918 0.60074 -0.18801
 H290 H -0.13470 0.55877 -0.13641
 H291 H -0.15038 0.65131 -0.05626
 H292 H -0.09404 0.63410 -0.04852
 C293 C 0.36102 1.12286 0.37318
 C294 C 0.35116 1.11845 0.32585
 C295 C 0.33050 1.14089 0.30275
 C296 C 0.32004 1.16888 0.32587
 C297 C 0.32910 1.17285 0.37355
 C298 C 0.34892 1.15003 0.39697
 C299 C 0.38471 1.09992 0.39722
 C300 C 0.40835 1.11057 0.43173
 C301 C 0.43092 1.08940 0.45395
 C302 C 0.43114 1.05719 0.44144
 C303 C 0.40790 1.04636 0.40684
 C304 C 0.38462 1.06742 0.38537
 H305 H 0.32415 1.13712 0.26597
 H306 H 0.32038 1.19351 0.39301
 H307 H 0.44894 1.09843 0.48009
 H308 H 0.40744 1.02155 0.39682
 H309 H 0.35472 1.15381 0.43385
 H310 H 0.41007 1.13543 0.44104
 H311 H 0.36026 1.09817 0.30596
 H312 H 0.36646 1.05809 0.35972
 C313 C 1.13617 -0.12355 -0.12975
 C314 C 1.12308 -0.15405 -0.13860
 C315 C 1.14330 -0.17652 -0.16215
 C316 C 1.17749 -0.16930 -0.17699
 C317 C 1.19045 -0.13851 -0.16785
 C318 C 1.16992 -0.11587 -0.14487
 C319 C 1.11445 -0.09996 -0.10466
 C320 C 1.11014 -0.06920 -0.12277
 C321 C 1.08785 -0.04766 -0.10044
 C322 C 1.06995 -0.05638 -0.05918
 C323 C 1.07513 -0.08689 -0.04042
 C324 C 1.09695 -0.10852 -0.06312
 H325 H 1.13179 -0.19947 -0.16964
 H326 H 1.21690 -0.13215 -0.17718
 H327 H 1.08441 -0.02430 -0.11564
 H328 H 1.06164 -0.09434 -0.00876
 H329 H 1.18069 -0.09255 -0.13793
 H330 H 1.12326 -0.06214 -0.15491
 H331 H 1.09688 -0.16036 -0.12794
 H332 H 1.10011 -0.13204 -0.04831
 C333 C 0.64106 0.37593 0.38327
 C334 C 0.62690 0.34753 0.36586
 C335 C 0.64805 0.32549 0.34291
 C336 C 0.68391 0.33111 0.33777
 C337 C 0.69814 0.35950 0.35536
 C338 C 0.67679 0.38192 0.37748
 C339 C 0.61834 0.39914 0.40729
 C340 C 0.61717 0.43085 0.39219
 C341 C 0.59378 0.45217 0.41283
 C342 C 0.57173 0.44227 0.44957
 C343 C 0.57378 0.41077 0.46562
 C344 C 0.59663 0.38933 0.44434
 H345 H 0.63646 0.30390 0.32927
 H346 H 0.72576 0.36421 0.35208
 H347 H 0.59278 0.47634 0.39988
 H348 H 0.55700 0.40246 0.49372
 H349 H 0.68821 0.40365 0.39083
 H350 H 0.63360 0.43883 0.36351
 H351 H 0.59934 0.34261 0.36954
 H352 H 0.59726 0.36499 0.45664
 C353 C 0.85662 -0.12063 -0.11926
 C354 C 0.85638 -0.12351 -0.16869
 C355 C 0.83546 -0.14625 -0.19073
 C356 C 0.81462 -0.16666 -0.16379
 C357 C 0.81431 -0.16369 -0.11462
 C358 C 0.83501 -0.14079 -0.09252
 C359 C 0.88023 -0.09750 -0.09575
 C360 C 0.89724 -0.10553 -0.05354
 C361 C 0.92077 -0.08448 -0.03263
 C362 C 0.92809 -0.05502 -0.05363
 C363 C 0.91068 -0.04672 -0.09537
 C364 C 0.88692 -0.06765 -0.11607
 H365 H 0.83608 -0.14845 -0.22876
 H366 H 0.79823 -0.17928 -0.09342
 H367 H 0.93391 -0.09167 -0.00062
 H368 H 0.91558 -0.02408 -0.11224
 H369 H 0.83411 -0.13889 -0.05450
 H370 H 0.89317 -0.12849 -0.03729
 H371 H 0.87308 -0.10880 -0.19034
 H372 H 0.87382 -0.06046 -0.14809
 C373 C 0.35894 0.37880 0.37396
 C374 C 0.33760 0.35792 0.39988
 C375 C 0.31734 0.33508 0.37693
 C376 C 0.31771 0.33297 0.32768
 C377 C 0.33809 0.35420 0.30153
 C378 C 0.35866 0.37683 0.32442
 C379 C 0.38239 0.40164 0.39844
 C380 C 0.38929 0.43179 0.37916
 C381 C 0.41274 0.45250 0.40108
 C382 C 0.42951 0.44368 0.44304
 C383 C 0.42210 0.41387 0.46285
 C384 C 0.39900 0.39304 0.44069
 H385 H 0.30158 0.31886 0.39752
 H386 H 0.33873 0.35267 0.26343
 H387 H 0.41775 0.47542 0.38514
 H388 H 0.43481 0.40627 0.49497
 H389 H 0.37513 0.39211 0.30333
 H390 H 0.37654 0.43944 0.34712
 H391 H 0.33662 0.35914 0.43796
 H392 H 0.39490 0.36984 0.45613
 C393 C 0.13672 0.62275 -0.13061
 C394 C 0.12352 0.65318 -0.13944
 C395 C 0.14368 0.67577 -0.16288
 C396 C 0.17792 0.66875 -0.17763
 C397 C 0.19098 0.63803 -0.16858
 C398 C 0.17050 0.61525 -0.14572
 C399 C 0.11511 0.59912 -0.10542
 C400 C 0.11053 0.56839 -0.12366
 C401 C 0.08816 0.54689 -0.10128
 C402 C 0.07051 0.55560 -0.05983
 C403 C 0.07603 0.58603 -0.04091
 C404 C 0.09789 0.60763 -0.06366
 H405 H 0.13209 0.69865 -0.17032
 H406 H 0.21747 0.63183 -0.17784
 H407 H 0.08445 0.52358 -0.11661
 H408 H 0.06273 0.59348 -0.00911
 H409 H 0.18134 0.59198 -0.13880
 H410 H 0.12344 0.56138 -0.15597
 H411 H 0.09730 0.65934 -0.12877
 H412 H 0.10127 0.63112 -0.04876
 C413 C 0.64249 1.12305 0.38305
 C414 C 0.67685 1.11551 0.37061
 C415 C 0.69815 1.13815 0.34878
 C416 C 0.68537 1.16873 0.33816
 C417 C 0.65056 1.17575 0.35016
 C418 C 0.62957 1.15334 0.37260
 C419 C 0.61981 1.09952 0.40672
 C420 C 0.60066 1.10823 0.44683
 C421 C 0.57759 1.08679 0.46771
 C422 C 0.57280 1.05636 0.44846
 C423 C 0.59243 1.04744 0.40877
 C424 C 0.61597 1.06877 0.38833
 H425 H 0.72496 1.13194 0.34134
 H426 H 0.63918 1.19849 0.34124
 H427 H 0.56278 1.09439 0.49819
 H428 H 0.58933 1.02411 0.39326
 H429 H 0.60291 1.15950 0.38109
 H430 H 0.60341 1.13176 0.46182
 H431 H 0.68744 1.09233 0.37870
 H432 H 0.63036 1.06161 0.35726
 C433 C 0.14144 0.37559 0.11717
 C434 C 0.12751 0.34672 0.13314
 C435 C 0.14866 0.32463 0.15593
 C436 C 0.18430 0.33072 0.16238
 C437 C 0.19832 0.35955 0.14612
 C438 C 0.17696 0.38198 0.12414
 C439 C 0.11869 0.39890 0.09344
 C440 C 0.11711 0.43043 0.10931
 C441 C 0.09375 0.45183 0.08883
 C442 C 0.07214 0.44217 0.05151
 C443 C 0.07459 0.41085 0.03476
 C444 C 0.09741 0.38934 0.05584
 H445 H 0.13723 0.30269 0.16853
 H446 H 0.22579 0.36463 0.15043
 H447 H 0.09245 0.47585 0.10234
 H448 H 0.05815 0.40271 0.00619
 H449 H 0.18822 0.40407 0.11188
 H450 H 0.13320 0.43823 0.13844
 H451 H 0.10010 0.34147 0.12853
 H452 H 0.09837 0.36515 0.04293
 C453 C 0.63671 0.87716 0.62988
 C454 C 0.66815 0.86718 0.60922
 C455 C 0.68901 0.84461 0.63165
 C456 C 0.67862 0.83153 0.67485
 C457 C 0.64733 0.84138 0.69560
 C458 C 0.62660 0.86412 0.67341
 C459 C 0.61416 0.90066 0.60583
 C460 C 0.59837 0.92528 0.63149
 C461 C 0.57605 0.94671 0.60921
 C462 C 0.56883 0.94383 0.56084
 C463 C 0.58502 0.91946 0.53505
 C464 C 0.60755 0.89818 0.55729
 H465 H 0.71313 0.83714 0.61527
 H466 H 0.63896 0.83131 0.72886
 H467 H 0.56401 0.96522 0.63009
 H468 H 0.57999 0.91661 0.49774
 H469 H 0.60232 0.87107 0.68983
 H470 H 0.60332 0.92796 0.66884
 H471 H 0.67668 0.87702 0.57591
 H472 H 0.61913 0.87926 0.53674
 C473 C 0.86160 0.12219 0.12867
 C474 C 0.86182 0.12420 0.17820
 C475 C 0.84136 0.14668 0.20151
 C476 C 0.82058 0.16774 0.17578
 C477 C 0.81976 0.16562 0.12651
 C478 C 0.83996 0.14295 0.10315
 C479 C 0.88467 0.09926 0.10379
 C480 C 0.90105 0.10772 0.06124
 C481 C 0.92386 0.08675 0.03884
 C482 C 0.93114 0.05694 0.05867
 C483 C 0.91450 0.04826 0.10085
 C484 C 0.89139 0.06910 0.12302
 H485 H 0.84232 0.14817 0.23959
 H486 H 0.80365 0.18168 0.10624
 H487 H 0.93645 0.09423 0.00653
 H488 H 0.91938 0.02534 0.11682
 H489 H 0.83863 0.14171 0.06509
 H490 H 0.89699 0.13092 0.04581
 H491 H 0.87854 0.10900 0.19897
 H492 H 0.87877 0.06154 0.15525
 C493 C 0.35615 0.62190 0.61861
 C494 C 0.35392 0.62343 0.66809
 C495 C 0.33292 0.64614 0.68997
 C496 C 0.31408 0.66793 0.66288
 C497 C 0.31572 0.66632 0.61360
 C498 C 0.33644 0.64341 0.59163
 C499 C 0.37985 0.59870 0.59546
 C500 C 0.38482 0.56825 0.61465
 C501 C 0.40864 0.54719 0.59445
 C502 C 0.42777 0.55594 0.55428
 C503 C 0.42218 0.58602 0.53433
 C504 C 0.39865 0.60721 0.55481
 H505 H 0.33198 0.64723 0.72809
 H506 H 0.30111 0.68293 0.59227
 H507 H 0.41217 0.52406 0.61042
 H508 H 0.43669 0.59354 0.50355
 H509 H 0.33704 0.64257 0.55352
 H510 H 0.37032 0.56066 0.64538
 H511 H 0.36913 0.60766 0.69001
 H512 H 0.39596 0.63061 0.53950
   
