data_POSCAR
  _audit_creation_date              2014-09-24
  _audit_creation_method            'ToBaCCo'
  _symmetry_space_group_name_H-M    'P1'
  _symmetry_Int_Tables_number       1
  _symmetry_cell_setting            triclinic
  loop_
  _symmetry_equiv_pos_as_xyz
 x,y,z
_cell_length_a 20.7679
_cell_length_b 21.3183
_cell_length_c 21.0689
_cell_angle_alpha 113.972400
_cell_angle_beta 66.819000
_cell_angle_gamma 72.531800
loop_
  _atom_site_label
  _atom_site_type_symbol
  _atom_site_fract_x
  _atom_site_fract_y
  _atom_site_fract_z
C1 C 0.50321 0.49840 0.01714
 C2 C 0.45434 0.54408 0.00487
 C3 C 0.39917 0.52358 -0.01559
 C4 C 0.45999 0.61080 0.00212
 C5 C 0.57240 0.50462 0.01821
 C6 C 0.49747 0.43156 0.01950
 C7 C 0.41372 0.50216 -0.09459
 C8 C 0.37321 0.46938 -0.12259
 C9 C 0.31703 0.45803 -0.07184
 C10 C 0.29777 0.48453 0.00975
 C11 C 0.33790 0.51804 0.03822
 C12 C 0.53468 0.59497 -0.06055
 C13 C 0.53881 0.65933 -0.06053
 C14 C 0.46840 0.74001 0.00135
 C15 C 0.39302 0.75543 0.06258
 C16 C 0.38890 0.69119 0.06258
 C17 C 0.55952 0.57803 0.07774
 C18 C 0.62726 0.57973 0.07639
 C19 C 0.70808 0.50796 0.01669
 C20 C 0.72025 0.43498 -0.04247
 C21 C 0.65350 0.43350 -0.04171
 C22 C 0.46504 0.44033 0.09704
 C23 C 0.46272 0.37642 0.09951
 C24 C 0.49483 0.30208 0.02376
 C25 C 0.52814 0.29309 -0.05383
 C26 C 0.52890 0.35758 -0.05599
 H27 H 0.46039 0.50604 -0.13709
 H28 H 0.38964 0.44819 -0.18627
 H29 H 0.25514 0.47536 0.04942
 H30 H 0.32436 0.53568 0.10015
 H31 H 0.58976 0.53302 -0.10886
 H32 H 0.59718 0.64649 -0.10821
 H33 H 0.33056 0.70433 0.11075
 H34 H 0.49735 0.63356 0.12518
 H35 H 0.61664 0.63659 0.12227
 H36 H 0.78180 0.37869 -0.09016
 H37 H 0.66556 0.37630 -0.08881
 H38 H 0.44138 0.49679 0.15559
 H39 H 0.43691 0.38466 0.16013
 H40 H 0.55288 0.23618 -0.11257
 H41 H 0.55505 0.34956 -0.11654
 H42 H 0.33761 0.81712 0.11100
 C43 C 0.01776 0.51435 0.50240
 C44 C 0.01209 0.46007 0.44536
 C45 C 0.00950 0.39077 0.44490
 C46 C 0.01402 0.46430 0.37601
 C47 C 0.00970 0.58808 0.50781
 C48 C 0.03151 0.50415 0.56238
 C49 C -0.04325 0.40196 0.52105
 C50 C -0.04070 0.33469 0.51880
 C51 C 0.01334 0.25571 0.44000
 C52 C 0.06197 0.24547 0.36393
 C53 C 0.06003 0.31228 0.36617
 C54 C 0.07715 0.46844 0.32281
 C55 C 0.08063 0.46952 0.25599
 C56 C 0.02457 0.46130 0.23798
 C57 C -0.03721 0.45475 0.28898
 C58 C -0.04310 0.45730 0.35843
 C59 C -0.06591 0.64945 0.53452
 C60 C -0.07272 0.71822 0.53822
 C61 C -0.00358 0.72522 0.51303
 C62 C 0.07194 0.66420 0.48701
 C63 C 0.07800 0.59669 0.48593
 C64 C -0.01888 0.57124 0.64959
 C65 C -0.00862 0.56257 0.70758
 C66 C 0.05133 0.48681 0.67971
 C67 C 0.10405 0.42002 0.59205
 C68 C 0.09501 0.42909 0.53344
 H69 H -0.08529 0.46235 0.58224
 H70 H -0.07977 0.34420 0.57848
 H71 H 0.10287 0.18506 0.30281
 H72 H 0.09962 0.30228 0.30630
 H73 H 0.12471 0.46934 0.33191
 H74 H 0.12916 0.47343 0.21594
 H75 H -0.09137 0.45265 0.39774
 H76 H -0.11938 0.64397 0.55252
 H77 H -0.13137 0.76534 0.55899
 H78 H 0.12564 0.66926 0.46847
 H79 H 0.13654 0.54997 0.46580
 H80 H -0.06754 0.62993 0.67322
 H81 H -0.04943 0.61432 0.77509
 H82 H 0.15139 0.36107 0.56922
 H83 H 0.13644 0.37729 0.46593
 H84 H -0.08101 0.44851 0.27546
 C85 C 0.51079 0.03686 0.52554
 C86 C 0.46317 0.01891 0.57224
 C87 C 0.46335 0.01973 0.64334
 C88 C 0.40514 0.00076 0.55627
 C89 C 0.49735 0.05169 0.46686
 C90 C 0.58391 0.03421 0.52311
 C91 C 0.46453 -0.04318 0.65081
 C92 C 0.44605 -0.03473 0.72636
 C93 C 0.42615 0.03667 0.79561
 C94 C 0.42997 0.09741 0.78661
 C95 C 0.44868 0.08896 0.71088
 C96 C 0.32000 0.04548 0.62418
 C97 C 0.26412 0.03288 0.60809
 C98 C 0.29323 -0.02518 0.52377
 C99 C 0.37873 -0.07250 0.45687
 C100 C 0.43453 -0.06026 0.47294
 C101 C 0.41819 0.11158 0.49800
 C102 C 0.40535 0.12334 0.44230
 C103 C 0.47126 0.07644 0.35484
 C104 C 0.55119 0.01810 0.32376
 C105 C 0.56409 0.00606 0.37946
 C106 C 0.59884 0.09488 0.52532
 C107 C 0.67728 0.08228 0.50021
 C108 C 0.74128 0.00913 0.47296
 C109 C 0.72489 -0.04875 0.47691
 C110 C 0.64652 -0.03635 0.50189
 H111 H 0.47513 -0.09687 0.59993
 H112 H 0.44188 -0.08149 0.73288
 H113 H 0.41300 0.15375 0.84029
 H114 H 0.44572 0.13905 0.70757
 H115 H 0.29674 0.09177 0.68897
 H116 H 0.19823 0.06982 0.66068
 H117 H 0.50034 -0.09686 0.42003
 H118 H 0.36614 0.14855 0.56527
 H119 H 0.34337 0.16840 0.46710
 H120 H 0.60299 -0.01919 0.25639
 H121 H 0.62581 -0.04022 0.35397
 H122 H 0.55159 0.14940 0.54089
 H123 H 0.68971 0.12699 0.49647
 H124 H 0.77447 -0.10604 0.45479
 H125 H 0.63713 -0.08474 0.49791
 H126 H 0.40181 -0.11762 0.39168
 O127 O 0.33064 0.10770 0.07303
 O128 O 0.40484 0.10321 0.20363
 O129 O 0.37905 0.19152 0.14801
 O130 O 0.35975 0.01880 0.12550
 O131 O 0.48985 -0.06895 0.00749
 O132 O 0.50789 0.10447 0.02806
 O133 O 0.53538 0.01641 0.08679
 O134 O 0.46003 0.02100 -0.04637
 Cu135 Cu 0.35652 0.11386 0.14887
 Cu136 Cu 0.51188 0.00950 0.00731
 C137 C 0.38167 0.06628 -0.00805
 C138 C 0.48209 0.05730 0.16779
 C139 C 0.44538 0.17747 0.09013
 C140 C 0.42160 -0.05431 0.06346
 O141 O -0.07206 0.49379 0.98979
 O142 O 0.13734 0.45554 0.93147
 O143 O 0.05227 0.47452 0.86813
 O144 O 0.01296 0.47593 1.05360
 O145 O 0.06564 0.34282 0.97525
 O146 O 0.11021 0.34047 0.78665
 O147 O 0.19123 0.32220 0.85207
 O148 O -0.01337 0.35969 0.90789
 Cu149 Cu 0.02692 0.48863 0.96897
 Cu150 Cu 0.09393 0.32818 0.87291
 C151 C -0.07701 0.43204 0.95657
 C152 C 0.19965 0.38166 0.88205
 C153 C 0.08643 0.40793 0.79638
 C154 C 0.03345 0.40951 1.04577
 O155 O 0.09187 -0.14160 0.40884
 O156 O 0.05479 0.04577 0.42376
 O157 O 0.14203 -0.04372 0.44917
 O158 O 0.01623 -0.05945 0.36949
 O159 O -0.09821 0.01683 0.50263
 O160 O 0.02995 0.03203 0.58354
 O161 O -0.05772 0.12149 0.55793
 O162 O -0.02301 -0.06505 0.54170
 Cu163 Cu 0.08758 -0.05737 0.39950
 Cu164 Cu -0.04858 0.03383 0.56000
 C165 C 0.03955 -0.13483 0.47282
 C166 C -0.00770 0.11548 0.49363
 C167 C 0.10815 -0.00300 0.52928
 C168 C -0.06188 -0.02441 0.42167
 N169 N -0.22222 0.50896 1.01487
 N170 N -0.15289 0.44108 0.96929
 N171 N 0.29567 0.41262 0.89483
 N172 N 0.28120 0.36282 0.85829
 N173 N -0.01181 -0.20481 0.51532
 N174 N 0.05058 -0.20681 0.46665
 N175 N 0.02280 0.18438 0.43529
 N176 N -0.02161 0.18840 0.50072
 N177 N 0.38936 0.05317 -0.12782
 N178 N 0.34831 0.07196 -0.05470
 N179 N 0.45325 0.08596 0.29898
 N180 N 0.50817 0.04827 0.21890
 N181 N 0.47556 -0.19462 0.00272
 N182 N 0.41411 -0.12010 0.05921
 N183 N 0.49322 0.23544 0.02398
 N184 N 0.44736 0.24487 0.09301
 N185 N -0.18149 -0.01095 0.43112
 N186 N -0.10817 -0.03242 0.38726
 N187 N 0.23741 -0.03353 0.50258
 N188 N 0.15876 0.00529 0.55819
 N189 N 0.03259 0.45846 1.16654
 N190 N 0.02424 0.40918 1.11602
 N191 N 0.05325 0.47889 0.74305
 N192 N 0.09314 0.41001 0.72751
   
