data_POSCAR
  _audit_creation_date              2014-09-24
  _audit_creation_method            'ToBaCCo'
  _symmetry_space_group_name_H-M    'P1'
  _symmetry_Int_Tables_number       1
  _symmetry_cell_setting            triclinic
  loop_
  _symmetry_equiv_pos_as_xyz
 x,y,z
_cell_length_a 50.2041
_cell_length_b 50.2067
_cell_length_c 50.2116
_cell_angle_alpha 89.964400
_cell_angle_beta 90.069500
_cell_angle_gamma 90.001300
loop_
  _atom_site_label
  _atom_site_type_symbol
  _atom_site_fract_x
  _atom_site_fract_y
  _atom_site_fract_z
C1 C 0.36569 0.28552 -0.02504
 C2 C 0.37533 0.27594 -0.00074
 C3 C 0.36555 0.28549 0.02344
 C4 C 0.34545 0.30516 0.02365
 C5 C 0.33539 0.31506 -0.00088
 C6 C 0.34552 0.30521 -0.02538
 C7 C 0.33531 0.31540 -0.04942
 C8 C 0.31564 0.33495 -0.04944
 C9 C 0.30542 0.34509 -0.02541
 C10 C 0.31535 0.33501 -0.00090
 C11 C 0.33525 0.31527 0.04767
 C12 C 0.31560 0.33485 0.04765
 C13 C 0.30543 0.34502 0.02361
 C14 C 0.28569 0.36505 0.02336
 C15 C 0.27604 0.37476 -0.00084
 C16 C 0.28562 0.36515 -0.02512
 H17 H 0.34252 0.30833 -0.06847
 H18 H 0.30851 0.34213 -0.06850
 H19 H 0.34244 0.30813 0.06671
 H20 H 0.30846 0.34200 0.06668
 H21 H 0.39093 0.26093 -0.00059
 H22 H 0.26096 0.39029 -0.00073
 C23 C 0.63454 0.71490 0.02435
 C24 C 0.62481 0.72458 0.00017
 C25 C 0.63449 0.71511 -0.02413
 C26 C 0.65464 0.69541 -0.02445
 C27 C 0.66471 0.68543 0.00005
 C28 C 0.65463 0.69521 0.02458
 C29 C 0.66477 0.68496 0.04860
 C30 C 0.68440 0.66535 0.04858
 C31 C 0.69459 0.65530 0.02454
 C32 C 0.68472 0.66546 0.00004
 C33 C 0.66488 0.68532 -0.04849
 C34 C 0.68453 0.66573 -0.04849
 C35 C 0.69466 0.65550 -0.02446
 C36 C 0.71438 0.63544 -0.02420
 C37 C 0.72393 0.62565 0.00002
 C38 C 0.71429 0.63523 0.02425
 H39 H 0.65756 0.69201 0.06765
 H40 H 0.69151 0.65808 0.06761
 H41 H 0.65772 0.69248 -0.06755
 H42 H 0.69170 0.65861 -0.06753
 H43 H 0.60923 0.73960 0.00031
 H44 H 0.73896 0.61009 0.00000
 C45 C 0.71500 0.36562 0.97614
 C46 C 0.72465 0.37532 1.00034
 C47 C 0.71515 0.36561 1.02462
 C48 C 0.69544 0.34547 1.02493
 C49 C 0.68551 0.33541 1.00041
 C50 C 0.69534 0.34552 0.97590
 C51 C 0.68515 0.33536 0.95187
 C52 C 0.66556 0.31572 0.95187
 C53 C 0.65546 0.30552 0.97590
 C54 C 0.66555 0.31540 1.00041
 C55 C 0.68529 0.33522 1.04896
 C56 C 0.66569 0.31559 1.04894
 C57 C 0.65552 0.30546 1.02490
 C58 C 0.63546 0.28574 1.02462
 C59 C 0.62575 0.27617 1.00038
 C60 C 0.63541 0.28579 0.97616
 H61 H 0.69223 0.34259 0.93283
 H62 H 0.65835 0.30860 0.93283
 H63 H 0.69241 0.34238 1.06802
 H64 H 0.65852 0.30842 1.06797
 H65 H 0.73966 0.39092 1.00022
 H66 H 0.61020 0.26113 1.00037
 C67 C 0.28577 0.63431 0.97650
 C68 C 0.27612 0.62457 1.00067
 C69 C 0.28562 0.63423 1.02498
 C70 C 0.30534 0.65436 1.02535
 C71 C 0.31528 0.66447 1.00087
 C72 C 0.30544 0.65441 0.97632
 C73 C 0.31562 0.66461 0.95232
 C74 C 0.33520 0.68426 0.95238
 C75 C 0.34531 0.69442 0.97644
 C76 C 0.33525 0.68449 1.00093
 C77 C 0.31548 0.66455 1.04941
 C78 C 0.33508 0.68418 1.04947
 C79 C 0.34529 0.69440 1.02546
 C80 C 0.36538 0.71417 1.02520
 C81 C 0.37504 0.72377 1.00094
 C82 C 0.36535 0.71416 0.97672
 H83 H 0.30854 0.65742 0.93326
 H84 H 0.34240 0.69141 0.93336
 H85 H 0.30835 0.65735 1.06844
 H86 H 0.34222 0.69129 1.06854
 H87 H 0.26109 0.60899 1.00050
 H88 H 0.39057 0.73884 1.00085
 C89 C 0.02379 0.28531 0.36484
 C90 C -0.00039 0.27567 0.37457
 C91 C -0.02469 0.28522 0.36490
 C92 C -0.02504 0.30497 0.34479
 C93 C -0.00055 0.31489 0.33471
 C94 C 0.02399 0.30501 0.34476
 C95 C 0.04801 0.31517 0.33459
 C96 C 0.04798 0.33478 0.31496
 C97 C 0.02393 0.34494 0.30481
 C98 C -0.00058 0.33489 0.31470
 C99 C -0.04909 0.31516 0.33461
 C100 C -0.04912 0.33479 0.31500
 C101 C -0.02510 0.34499 0.30481
 C102 C -0.02482 0.36512 0.28507
 C103 C -0.00054 0.37476 0.27550
 C104 C 0.02367 0.36502 0.28510
 H105 H 0.06706 0.30805 0.34177
 H106 H 0.06701 0.34197 0.30783
 H107 H -0.06814 0.30804 0.34178
 H108 H -0.06819 0.34197 0.30790
 H109 H -0.00024 0.26063 0.39014
 H110 H -0.00044 0.39034 0.26046
 C111 C 0.02383 0.63480 0.71447
 C112 C -0.00037 0.62512 0.72411
 C113 C -0.02465 0.63484 0.71457
 C114 C -0.02495 0.65499 0.69486
 C115 C -0.00043 0.66502 0.68492
 C116 C 0.02408 0.65488 0.69477
 C117 C 0.04812 0.66496 0.68458
 C118 C 0.04813 0.68458 0.66496
 C119 C 0.02411 0.69483 0.65484
 C120 C -0.00042 0.68503 0.66494
 C121 C -0.04898 0.66528 0.68472
 C122 C -0.04897 0.68493 0.66513
 C123 C -0.02492 0.69505 0.65491
 C124 C -0.02460 0.71482 0.63481
 C125 C -0.00030 0.72428 0.62510
 C126 C 0.02389 0.71455 0.63476
 H127 H 0.06716 0.65771 0.69167
 H128 H 0.06718 0.69164 0.65774
 H129 H -0.06804 0.65816 0.69185
 H130 H -0.06802 0.69212 0.65800
 H131 H -0.00025 0.60954 0.73914
 H132 H -0.00017 0.73933 0.60954
 C133 C 1.02419 0.63485 0.28591
 C134 C 0.99993 0.62512 0.27640
 C135 C 0.97573 0.63478 0.28605
 C136 C 0.97550 0.65485 0.30574
 C137 C 1.00003 0.66496 0.31556
 C138 C 1.02451 0.65493 0.30560
 C139 C 1.04856 0.66512 0.31567
 C140 C 1.04862 0.68474 0.33527
 C141 C 1.02461 0.69490 0.34554
 C142 C 1.00007 0.68495 0.33554
 C143 C 0.95148 0.66496 0.31596
 C144 C 0.95152 0.68458 0.33557
 C145 C 0.97557 0.69479 0.34566
 C146 C 0.97585 0.71449 0.36572
 C147 C 1.00008 0.72415 0.37536
 C148 C 1.02434 0.71463 0.36563
 H149 H 1.06758 0.65795 0.30849
 H150 H 1.06770 0.69188 0.34238
 H151 H 0.93243 0.65773 0.30888
 H152 H 0.93249 0.69167 0.34280
 H153 H 0.99989 0.60957 0.26138
 H154 H 1.00000 0.73919 0.39091
 C155 C 0.97622 0.28600 0.63456
 C156 C 1.00044 0.27636 0.62495
 C157 C 1.02468 0.28588 0.63472
 C158 C 1.02497 0.30557 0.65480
 C159 C 1.00047 0.31551 0.66480
 C160 C 0.97596 0.30568 0.65465
 C161 C 0.95193 0.31587 0.66474
 C162 C 0.95194 0.33546 0.68437
 C163 C 0.97598 0.34557 0.69461
 C164 C 1.00049 0.33548 0.68479
 C165 C 1.04901 0.31565 0.66502
 C166 C 1.04904 0.33526 0.68463
 C167 C 1.02501 0.34550 0.69477
 C168 C 1.02472 0.36560 0.71451
 C169 C 1.00043 0.37529 0.72401
 C170 C 0.97623 0.36561 0.71432
 H171 H 0.93289 0.30879 0.65748
 H172 H 0.93290 0.34268 0.69145
 H173 H 1.06804 0.30848 0.65787
 H174 H 1.06811 0.34238 0.69179
 H175 H 1.00044 0.26135 0.60938
 H176 H 1.00031 0.39083 0.73905
 C177 C 0.28502 -0.02531 0.36489
 C178 C 0.27549 -0.00103 0.37454
 C179 C 0.28512 0.02317 0.36481
 C180 C 0.30481 0.02340 0.34475
 C181 C 0.31466 -0.00112 0.33470
 C182 C 0.30474 -0.02563 0.34478
 C183 C 0.31490 -0.04966 0.33459
 C184 C 0.33450 -0.04966 0.31499
 C185 C 0.34471 -0.02562 0.30482
 C186 C 0.33465 -0.00112 0.31472
 C187 C 0.31498 0.04743 0.33460
 C188 C 0.33459 0.04743 0.31500
 C189 C 0.34473 0.02341 0.30485
 C190 C 0.36480 0.02318 0.28517
 C191 C 0.37450 -0.00102 0.27556
 C192 C 0.36482 -0.02531 0.28510
 H193 H 0.30778 -0.06872 0.34176
 H194 H 0.34166 -0.06871 0.30788
 H195 H 0.30787 0.06648 0.34178
 H196 H 0.34179 0.06648 0.30789
 H197 H 0.26047 -0.00089 0.39010
 H198 H 0.39006 -0.00090 0.26054
 C199 C 0.71482 -0.02418 0.63457
 C200 C 0.72434 0.00010 0.62485
 C201 C 0.71469 0.02431 0.63449
 C202 C 0.69499 0.02458 0.65453
 C203 C 0.68514 0.00007 0.66465
 C204 C 0.69508 -0.02446 0.65466
 C205 C 0.68491 -0.04848 0.66494
 C206 C 0.66530 -0.04843 0.68454
 C207 C 0.65512 -0.02438 0.69459
 C208 C 0.66516 0.00010 0.68462
 C209 C 0.68479 0.04862 0.66461
 C210 C 0.66518 0.04865 0.68421
 C211 C 0.65506 0.02463 0.69443
 C212 C 0.63499 0.02439 0.71412
 C213 C 0.62533 0.00017 0.72378
 C214 C 0.63506 -0.02408 0.71428
 H215 H 0.69204 -0.06755 0.65784
 H216 H 0.65813 -0.06746 0.69173
 H217 H 0.69189 0.06766 0.65737
 H218 H 0.65796 0.06769 0.69127
 H219 H 0.73938 0.00021 0.60930
 H220 H 0.60979 0.00018 0.73880
 C221 C 0.28548 0.97590 0.63428
 C222 C 0.27588 1.00009 0.62449
 C223 C 0.28539 1.02439 0.63417
 C224 C 0.30505 1.02471 0.65438
 C225 C 0.31494 1.00020 0.66452
 C226 C 0.30511 0.97568 0.65444
 C227 C 0.31526 0.95165 0.66467
 C228 C 0.33481 0.95167 0.68438
 C229 C 0.34491 0.97571 0.69456
 C230 C 0.33486 1.00021 0.68461
 C231 C 0.31520 1.04875 0.66462
 C232 C 0.33474 1.04875 0.68433
 C233 C 0.34487 1.02472 0.69454
 C234 C 0.36488 1.02445 0.71433
 C235 C 0.37457 1.00023 0.72397
 C236 C 0.36493 0.97600 0.71435
 H237 H 0.30818 0.93260 0.65747
 H238 H 0.34200 0.93264 0.69155
 H239 H 0.30811 1.06781 0.65740
 H240 H 0.34190 1.06779 0.69149
 H241 H 0.26090 0.99995 0.60885
 H242 H 0.39009 1.00025 0.73906
 C243 C 0.71437 1.02488 0.36556
 C244 C 0.72394 1.00061 0.37527
 C245 C 0.71425 0.97639 0.36566
 C246 C 0.69446 0.97612 0.34566
 C247 C 0.68456 1.00062 0.33554
 C248 C 0.69454 1.02515 0.34551
 C249 C 0.68434 1.04916 0.33525
 C250 C 0.66464 1.04912 0.31570
 C251 C 0.65437 1.02506 0.30564
 C252 C 0.66447 1.00058 0.31561
 C253 C 0.68423 0.95207 0.33561
 C254 C 0.66453 0.95202 0.31606
 C255 C 0.65435 0.97603 0.30584
 C256 C 0.63420 0.97622 0.28619
 C257 C 0.62446 1.00040 0.27652
 C258 C 0.63418 1.02471 0.28596
 H259 H 0.69150 1.06823 0.34233
 H260 H 0.65746 1.06816 0.30854
 H261 H 0.69136 0.93304 0.34285
 H262 H 0.65729 0.93297 0.30903
 H263 H 0.73905 1.00051 0.39078
 H264 H 0.60884 1.00025 0.26151
 O265 O 0.81934 0.85632 0.52669
 O266 O 0.85594 0.81951 0.47523
 O267 O 0.81928 0.85620 0.47515
 O268 O 0.85600 0.81958 0.52678
 O269 O 0.82495 0.78833 0.52700
 O270 O 0.78798 0.82521 0.47507
 O271 O 0.82490 0.78825 0.47515
 O272 O 0.78804 0.82533 0.52691
 Cu273 Cu 0.84076 0.84102 0.50096
 Cu274 Cu 0.80330 0.80362 0.50105
 C275 C 0.79742 0.84726 0.53532
 C276 C 0.84681 0.79758 0.46666
 C277 C 0.79735 0.84710 0.46655
 C278 C 0.84689 0.79768 0.53543
 O279 O 0.18113 0.14380 0.52568
 O280 O 0.14433 0.18056 0.47421
 O281 O 0.18092 0.14381 0.47414
 O282 O 0.14457 0.18060 0.52575
 O283 O 0.17567 0.21179 0.52578
 O284 O 0.21229 0.17474 0.47386
 O285 O 0.17542 0.21176 0.47393
 O286 O 0.21250 0.17473 0.52571
 Cu287 Cu 0.15961 0.15908 0.49996
 Cu288 Cu 0.19714 0.19641 0.49981
 C289 C 0.20311 0.15285 0.53422
 C290 C 0.15345 0.20244 0.46554
 C291 C 0.20283 0.15286 0.46545
 C292 C 0.15377 0.20249 0.53431
 O293 O 0.18082 0.85552 0.47343
 O294 O 0.14416 0.81889 0.52500
 O295 O 0.18088 0.85551 0.52497
 O296 O 0.14411 0.81888 0.47346
 O297 O 0.17509 0.78756 0.47334
 O298 O 0.21213 0.82446 0.52516
 O299 O 0.17514 0.78758 0.52518
 O300 O 0.21207 0.82448 0.47331
 Cu301 Cu 0.15938 0.84032 0.49921
 Cu302 Cu 0.19677 0.80285 0.49924
 C303 C 0.20273 0.84640 0.46483
 C304 C 0.15325 0.79697 0.53364
 C305 C 0.20279 0.84637 0.53361
 C306 C 0.15318 0.79694 0.46487
 O307 O 0.85611 0.18107 0.52482
 O308 O 0.81933 0.14428 0.47338
 O309 O 0.85604 0.18096 0.47327
 O310 O 0.81940 0.14442 0.52492
 O311 O 0.78814 0.17545 0.52498
 O312 O 0.82504 0.21226 0.47303
 O313 O 0.78807 0.17531 0.47314
 O314 O 0.82511 0.21236 0.52489
 Cu315 Cu 0.84084 0.15957 0.49910
 Cu316 Cu 0.80343 0.19701 0.49900
 C317 C 0.84702 0.20301 0.53338
 C318 C 0.79740 0.15337 0.46475
 C319 C 0.84694 0.20287 0.46460
 C320 C 0.79750 0.15356 0.53351
 O321 O 0.52592 0.81930 0.85639
 O322 O 0.47435 0.85589 0.81958
 O323 O 0.47438 0.81926 0.85634
 O324 O 0.52590 0.85588 0.81960
 O325 O 0.52605 0.82480 0.78841
 O326 O 0.47422 0.78793 0.82540
 O327 O 0.47419 0.82481 0.78838
 O328 O 0.52607 0.78795 0.82547
 Cu329 Cu 0.50014 0.84071 0.84109
 Cu330 Cu 0.50013 0.80320 0.80376
 C331 C 0.53454 0.79736 0.84736
 C332 C 0.46573 0.84674 0.79768
 C333 C 0.46577 0.79732 0.84728
 C334 C 0.53451 0.84673 0.79772
 O335 O 0.52604 0.18052 0.14444
 O336 O 0.47440 0.14372 0.18083
 O337 O 0.47449 0.18045 0.14419
 O338 O 0.52595 0.14382 0.18111
 O339 O 0.52594 0.17479 0.21240
 O340 O 0.47417 0.21170 0.17522
 O341 O 0.47408 0.17469 0.21213
 O342 O 0.52602 0.21177 0.17547
 Cu343 Cu 0.50024 0.15901 0.15952
 Cu344 Cu 0.50003 0.19640 0.19697
 C345 C 0.53459 0.20245 0.15360
 C346 C 0.46569 0.15278 0.20271
 C347 C 0.46581 0.20235 0.15326
 C348 C 0.53447 0.15291 0.20307
 O349 O 0.52573 0.14459 0.81911
 O350 O 0.47434 0.18134 0.85588
 O351 O 0.47418 0.14471 0.81918
 O352 O 0.52589 0.18124 0.85579
 O353 O 0.52602 0.21255 0.82480
 O354 O 0.47401 0.17576 0.78792
 O355 O 0.47416 0.21265 0.82489
 O356 O 0.52586 0.17564 0.78785
 Cu357 Cu 0.50004 0.15985 0.84061
 Cu358 Cu 0.50001 0.19732 0.80320
 C359 C 0.53431 0.15370 0.79718
 C360 C 0.46573 0.20328 0.84680
 C361 C 0.46553 0.15386 0.79728
 C362 C 0.53452 0.20315 0.84669
 O363 O 0.47349 0.81886 0.14454
 O364 O 0.52485 0.85575 0.18135
 O365 O 0.52503 0.81907 0.14470
 O366 O 0.47330 0.85552 0.18121
 O367 O 0.47322 0.82451 0.21251
 O368 O 0.52527 0.78778 0.17572
 O369 O 0.52508 0.82473 0.21263
 O370 O 0.47341 0.78758 0.17557
 Cu371 Cu 0.49916 0.84042 0.15983
 Cu372 Cu 0.49925 0.80298 0.19727
 C373 C 0.46495 0.79690 0.15363
 C374 C 0.53348 0.84667 0.20329
 C375 C 0.53372 0.79719 0.15383
 C376 C 0.46469 0.84638 0.20311
 O377 O 0.85608 0.52654 0.81882
 O378 O 0.81944 0.47506 0.85560
 O379 O 0.85603 0.47500 0.81890
 O380 O 0.81943 0.52660 0.85548
 O381 O 0.78811 0.52672 0.82448
 O382 O 0.82496 0.47482 0.78763
 O383 O 0.78811 0.47487 0.82461
 O384 O 0.82502 0.52667 0.78755
 Cu385 Cu 0.84087 0.50080 0.84032
 Cu386 Cu 0.80338 0.50077 0.80290
 C387 C 0.84695 0.53514 0.79689
 C388 C 0.79751 0.46643 0.84653
 C389 C 0.84688 0.46636 0.79700
 C390 C 0.79750 0.53520 0.84637
 O391 O 0.18080 0.47431 0.14366
 O392 O 0.14420 0.52580 0.18044
 O393 O 0.18091 0.52586 0.14382
 O394 O 0.14413 0.47426 0.18031
 O395 O 0.17514 0.47394 0.21162
 O396 O 0.21219 0.52585 0.17488
 O397 O 0.17522 0.52579 0.21176
 O398 O 0.21208 0.47400 0.17471
 Cu399 Cu 0.15939 0.50008 0.15894
 Cu400 Cu 0.19682 0.49988 0.19641
 C401 C 0.20270 0.46563 0.15276
 C402 C 0.15331 0.53432 0.20240
 C403 C 0.20284 0.53440 0.15298
 C404 C 0.15322 0.46555 0.20221
 O405 O 0.81901 0.52539 0.14444
 O406 O 0.85577 0.47383 0.18108
 O407 O 0.81912 0.47384 0.14434
 O408 O 0.85562 0.52538 0.18120
 O409 O 0.82457 0.52536 0.21241
 O410 O 0.78781 0.47352 0.17528
 O411 O 0.82473 0.47351 0.21229
 O412 O 0.78769 0.52537 0.17537
 Cu413 Cu 0.84050 0.49962 0.15966
 Cu414 Cu 0.80303 0.49942 0.19700
 C415 C 0.79706 0.53393 0.15351
 C416 C 0.84667 0.46513 0.20296
 C417 C 0.79721 0.46515 0.15337
 C418 C 0.84646 0.53391 0.20311
 O419 O 0.14414 0.47366 0.81918
 O420 O 0.18090 0.52509 0.85598
 O421 O 0.14419 0.52521 0.81928
 O422 O 0.18091 0.47354 0.85582
 O423 O 0.21214 0.47347 0.82480
 O424 O 0.17516 0.52545 0.78800
 O425 O 0.21214 0.52533 0.82496
 O426 O 0.17511 0.47360 0.78789
 Cu427 Cu 0.15942 0.49936 0.84068
 Cu428 Cu 0.19680 0.49947 0.80325
 C429 C 0.15320 0.46511 0.79723
 C430 C 0.20281 0.53373 0.84689
 C431 C 0.15327 0.53389 0.79739
 C432 C 0.20282 0.46495 0.84669
 C433 C 0.27509 0.37683 0.04738
 C434 C 0.26552 0.38783 0.06644
 C435 C 0.25354 0.40201 0.08754
 C436 C 0.24270 0.41515 0.10443
 C437 C 0.22934 0.43168 0.12281
 C438 C 0.21742 0.44671 0.13723
 C439 C 0.72484 0.62328 0.04824
 C440 C 0.73435 0.61215 0.06729
 C441 C 0.74627 0.59786 0.08839
 C442 C 0.75707 0.58463 0.10527
 C443 C 0.77039 0.56800 0.12364
 C444 C 0.78230 0.55290 0.13803
 C445 C 0.72552 0.37748 0.95211
 C446 C 0.73499 0.38853 0.93302
 C447 C 0.74687 0.40274 0.91188
 C448 C 0.75763 0.41590 0.89494
 C449 C 0.77092 0.43246 0.87651
 C450 C 0.78279 0.44750 0.86206
 C451 C 0.27522 0.62251 0.95244
 C452 C 0.26569 0.61149 0.93335
 C453 C 0.25373 0.59731 0.91221
 C454 C 0.24289 0.58417 0.89529
 C455 C 0.22952 0.56764 0.87688
 C456 C 0.21758 0.55263 0.86243
 C457 C 0.04784 0.27474 0.37666
 C458 C 0.06695 0.26522 0.38769
 C459 C 0.08810 0.25329 0.40188
 C460 C 0.10504 0.24247 0.41503
 C461 C 0.12347 0.22913 0.43158
 C462 C 0.13791 0.21720 0.44662
 C463 C 0.04792 0.72502 0.62289
 C464 C 0.06700 0.73448 0.61180
 C465 C 0.08811 0.74634 0.59754
 C466 C 0.10500 0.75710 0.58433
 C467 C 0.12337 0.77039 0.56771
 C468 C 0.13777 0.78226 0.55262
 C469 C 0.95185 0.72505 0.37759
 C470 C 0.93282 0.73460 0.38866
 C471 C 0.91177 0.74658 0.40291
 C472 C 0.89493 0.75745 0.41610
 C473 C 0.87662 0.77084 0.43268
 C474 C 0.86226 0.78280 0.44773
 C475 C 0.95221 0.27545 0.62264
 C476 C 0.93317 0.26591 0.61152
 C477 C 0.91211 0.25394 0.59723
 C478 C 0.89525 0.24309 0.58401
 C479 C 0.87691 0.22972 0.56739
 C480 C 0.86252 0.21778 0.55232
 C481 C 0.37664 0.04721 0.27463
 C482 C 0.38768 0.06630 0.26512
 C483 C 0.40189 0.08743 0.25323
 C484 C 0.41506 0.10436 0.24246
 C485 C 0.43164 0.12278 0.22919
 C486 C 0.44671 0.13723 0.21735
 C487 C 0.62315 0.04840 0.72468
 C488 C 0.61210 0.06745 0.73422
 C489 C 0.59790 0.08854 0.74620
 C490 C 0.58474 0.10542 0.75706
 C491 C 0.56821 0.12378 0.77045
 C492 C 0.55320 0.13819 0.78241
 C493 C 0.37676 0.95200 0.72500
 C494 C 0.38780 0.93294 0.73460
 C495 C 0.40200 0.91185 0.74662
 C496 C 0.41516 0.89496 0.75750
 C497 C 0.43172 0.87660 0.77091
 C498 C 0.44678 0.86221 0.78288
 C499 C 0.62235 0.95217 0.27569
 C500 C 0.61130 0.93309 0.26617
 C501 C 0.59708 0.91197 0.25423
 C502 C 0.58392 0.89507 0.24339
 C503 C 0.56738 0.87667 0.23001
 C504 C 0.55236 0.86223 0.21807
 C505 C 0.37694 0.27553 0.95225
 C506 C 0.38794 0.26604 0.93315
 C507 C 0.40212 0.25412 0.91202
 C508 C 0.41527 0.24331 0.89512
 C509 C 0.43181 0.22996 0.87674
 C510 C 0.44684 0.21803 0.86232
 C511 C 0.62328 0.72518 0.95315
 C512 C 0.61231 0.73471 0.93401
 C513 C 0.59818 0.74663 0.91281
 C514 C 0.58506 0.75743 0.89584
 C515 C 0.56853 0.77076 0.87739
 C516 C 0.55348 0.78265 0.86292
 C517 C 0.37654 0.72422 0.04795
 C518 C 0.38746 0.73378 0.06709
 C519 C 0.40156 0.74577 0.08827
 C520 C 0.41464 0.75666 0.10521
 C521 C 0.43111 0.77009 0.12364
 C522 C 0.44609 0.78208 0.13808
 C523 C 0.62364 0.27510 0.04861
 C524 C 0.61261 0.26551 0.06765
 C525 C 0.59840 0.25350 0.08871
 C526 C 0.58522 0.24262 0.10556
 C527 C 0.56864 0.22921 0.12387
 C528 C 0.55356 0.21724 0.13820
 C529 C 0.27538 0.04711 0.62292
 C530 C 0.26588 0.06625 0.61194
 C531 C 0.25398 0.08744 0.59779
 C532 C 0.24317 0.10441 0.58467
 C533 C 0.22983 0.12286 0.56815
 C534 C 0.21789 0.13731 0.55313
 C535 C 0.72450 0.04762 0.37664
 C536 C 0.73412 0.06677 0.38749
 C537 C 0.74618 0.08795 0.40151
 C538 C 0.75711 0.10490 0.41453
 C539 C 0.77058 0.12335 0.43095
 C540 C 0.78258 0.13781 0.44590
 C541 C 0.72490 0.95308 0.62347
 C542 C 0.73447 0.93393 0.61260
 C543 C 0.74647 0.91274 0.59858
 C544 C 0.75733 0.89577 0.58555
 C545 C 0.77073 0.87731 0.56913
 C546 C 0.78267 0.86283 0.55417
 C547 C 0.27499 0.95196 0.37610
 C548 C 0.26548 0.93283 0.38706
 C549 C 0.25355 0.91166 0.40120
 C550 C 0.24274 0.89472 0.41432
 C551 C 0.22939 0.87631 0.43085
 C552 C 0.21747 0.86189 0.44589
 C553 C 0.04745 0.37675 0.72460
 C554 C 0.06660 0.38767 0.73417
 C555 C 0.08779 0.40174 0.74617
 C556 C 0.10475 0.41481 0.75705
 C557 C 0.12319 0.43127 0.77046
 C558 C 0.13765 0.44625 0.78243
 C559 C 0.04817 0.62306 0.27523
 C560 C 0.06720 0.61205 0.26559
 C561 C 0.08826 0.59789 0.25353
 C562 C 0.10512 0.58476 0.24262
 C563 C 0.12346 0.56824 0.22918
 C564 C 0.13784 0.55322 0.21720
 C565 C 0.95244 0.37635 0.27507
 C566 C 0.93329 0.38732 0.26559
 C567 C 0.91209 0.40147 0.25369
 C568 C 0.89511 0.41460 0.24291
 C569 C 0.87666 0.43114 0.22959
 C570 C 0.86221 0.44619 0.21769
 C571 C 0.95261 0.62368 0.72460
 C572 C 0.93346 0.61275 0.73411
 C573 C 0.91227 0.59866 0.74602
 C574 C 0.89531 0.58556 0.75683
 C575 C 0.87688 0.56906 0.77018
 C576 C 0.86245 0.55405 0.78212
 C577 C 0.72503 0.62373 0.95178
 C578 C 0.73462 0.61280 0.93270
 C579 C 0.74661 0.59872 0.91156
 C580 C 0.75747 0.58564 0.89464
 C581 C 0.77084 0.56915 0.87625
 C582 C 0.78277 0.55413 0.86185
 C583 C 0.27553 0.37632 0.95215
 C584 C 0.26595 0.38724 0.93302
 C585 C 0.25393 0.40134 0.91186
 C586 C 0.24303 0.41444 0.89493
 C587 C 0.22959 0.43096 0.87655
 C588 C 0.21761 0.44600 0.86216
 C589 C 0.27553 0.62304 0.04767
 C590 C 0.26595 0.61209 0.06678
 C591 C 0.25395 0.59799 0.08791
 C592 C 0.24306 0.58489 0.10481
 C593 C 0.22963 0.56837 0.12317
 C594 C 0.21765 0.55334 0.13754
 C595 C 0.72519 0.37677 0.04735
 C596 C 0.73469 0.38767 0.06653
 C597 C 0.74658 0.40172 0.08777
 C598 C 0.75736 0.41477 0.10479
 C599 C 0.77065 0.43124 0.12329
 C600 C 0.78253 0.44624 0.13779
 C601 C 0.95268 0.72498 0.62370
 C602 C 0.93353 0.73459 0.61283
 C603 C 0.91232 0.74663 0.59881
 C604 C 0.89535 0.75753 0.58578
 C605 C 0.87689 0.77095 0.56933
 C606 C 0.86243 0.78291 0.55434
 C607 C 0.95260 0.27515 0.37608
 C608 C 0.93346 0.26562 0.38700
 C609 C 0.91227 0.25368 0.40108
 C610 C 0.89532 0.24285 0.41415
 C611 C 0.87688 0.22950 0.43064
 C612 C 0.86245 0.21759 0.44567
 C613 C 0.04868 0.27522 0.62299
 C614 C 0.06774 0.26561 0.61203
 C615 C 0.08884 0.25359 0.59792
 C616 C 0.10572 0.24270 0.58482
 C617 C 0.12405 0.22927 0.56830
 C618 C 0.13839 0.21730 0.55326
 C619 C 0.04710 0.72470 0.37673
 C620 C 0.06630 0.73422 0.38758
 C621 C 0.08757 0.74614 0.40157
 C622 C 0.10461 0.75695 0.41459
 C623 C 0.12312 0.77028 0.43101
 C624 C 0.13762 0.78220 0.44599
 C625 C 0.62327 0.95193 0.72497
 C626 C 0.61228 0.93289 0.73460
 C627 C 0.59813 0.91180 0.74665
 C628 C 0.58500 0.89493 0.75755
 C629 C 0.56847 0.87658 0.77098
 C630 C 0.55344 0.86220 0.78294
 C631 C 0.37599 0.95197 0.27509
 C632 C 0.38691 0.93281 0.26562
 C633 C 0.40101 0.91161 0.25375
 C634 C 0.41411 0.89465 0.24298
 C635 C 0.43064 0.87623 0.22969
 C636 C 0.44571 0.86182 0.21781
 C637 C 0.62300 0.04741 0.27585
 C638 C 0.61206 0.06653 0.26626
 C639 C 0.59796 0.08769 0.25425
 C640 C 0.58487 0.10462 0.24335
 C641 C 0.56838 0.12302 0.22991
 C642 C 0.55337 0.13743 0.21791
 C643 C 0.37666 0.04847 0.72495
 C644 C 0.38765 0.06756 0.73451
 C645 C 0.40179 0.08870 0.74646
 C646 C 0.41492 0.10562 0.75729
 C647 C 0.43147 0.12401 0.77064
 C648 C 0.44654 0.13841 0.78255
 C649 C 0.62273 0.72538 0.04839
 C650 C 0.61172 0.73483 0.06750
 C651 C 0.59754 0.74668 0.08865
 C652 C 0.58439 0.75742 0.10559
 C653 C 0.56781 0.77067 0.12398
 C654 C 0.55273 0.78252 0.13838
 C655 C 0.37731 0.27486 0.04749
 C656 C 0.38827 0.26528 0.06660
 C657 C 0.40237 0.25328 0.08777
 C658 C 0.41546 0.24242 0.10473
 C659 C 0.43193 0.22903 0.12319
 C660 C 0.44692 0.21710 0.13767
 C661 C 0.62356 0.27522 0.95215
 C662 C 0.61254 0.26570 0.93306
 C663 C 0.59835 0.25380 0.91192
 C664 C 0.58518 0.24302 0.89499
 C665 C 0.56861 0.22972 0.87658
 C666 C 0.55352 0.21784 0.86217
 C667 C 0.37713 0.72480 0.95272
 C668 C 0.38811 0.73439 0.93365
 C669 C 0.40224 0.74640 0.91254
 C670 C 0.41534 0.75726 0.89563
 C671 C 0.43184 0.77065 0.87723
 C672 C 0.44686 0.78259 0.86280
 C673 C 0.72486 0.95238 0.37751
 C674 C 0.73442 0.93332 0.38855
 C675 C 0.74641 0.91222 0.40276
 C676 C 0.75726 0.89533 0.41593
 C677 C 0.77065 0.87696 0.43251
 C678 C 0.78259 0.86257 0.44758
 C679 C 0.27496 0.95186 0.62247
 C680 C 0.26547 0.93275 0.61147
 C681 C 0.25357 0.91159 0.59730
 C682 C 0.24279 0.89466 0.58416
 C683 C 0.22946 0.87626 0.56761
 C684 C 0.21755 0.86185 0.55255
 C685 C 0.27459 0.04720 0.37660
 C686 C 0.26511 0.06631 0.38759
 C687 C 0.25325 0.08748 0.40174
 C688 C 0.24251 0.10443 0.41488
 C689 C 0.22927 0.12287 0.43143
 C690 C 0.21745 0.13732 0.44648
 C691 C 0.72524 0.04833 0.62263
 C692 C 0.73477 0.06739 0.61157
 C693 C 0.74670 0.08850 0.59735
 C694 C 0.75752 0.10538 0.58417
 C695 C 0.77086 0.12374 0.56758
 C696 C 0.78277 0.13811 0.55249
 C697 C 0.95170 0.62294 0.27551
 C698 C 0.93261 0.61189 0.26599
 C699 C 0.91149 0.59769 0.25406
 C700 C 0.89459 0.58452 0.24324
 C701 C 0.87624 0.56794 0.22986
 C702 C 0.86188 0.55287 0.21791
 C703 C 0.95220 0.37742 0.72486
 C704 C 0.93312 0.38844 0.73436
 C705 C 0.91200 0.40261 0.74628
 C706 C 0.89510 0.41576 0.75707
 C707 C 0.87673 0.43233 0.77040
 C708 C 0.86234 0.44739 0.78229
 C709 C 0.04786 0.62294 0.72506
 C710 C 0.06693 0.61190 0.73461
 C711 C 0.08805 0.59769 0.74658
 C712 C 0.10495 0.58452 0.75741
 C713 C 0.12334 0.56794 0.77077
 C714 C 0.13775 0.55287 0.78268
 C715 C 0.04769 0.37680 0.27449
 C716 C 0.06677 0.38778 0.26493
 C717 C 0.08790 0.40192 0.25296
 C718 C 0.10483 0.41504 0.24213
 C719 C 0.12324 0.43157 0.22879
 C720 C 0.13768 0.44661 0.21690
   
