data_POSCAR
  _audit_creation_date              2014-09-24
  _audit_creation_method            'ToBaCCo'
  _symmetry_space_group_name_H-M    'P1'
  _symmetry_Int_Tables_number       1
  _symmetry_cell_setting            triclinic
  loop_
  _symmetry_equiv_pos_as_xyz
 x,y,z
_cell_length_a 25.2756
_cell_length_b 26.8088
_cell_length_c 9.0295
_cell_angle_alpha 89.800200
_cell_angle_beta 88.677800
_cell_angle_gamma 89.936300
loop_
  _atom_site_label
  _atom_site_type_symbol
  _atom_site_fract_x
  _atom_site_fract_y
  _atom_site_fract_z
O1 O 0.24610 0.29665 0.05155
 O2 O 0.32150 0.20563 0.26962
 O3 O 0.25113 0.20086 0.06371
 O4 O 0.31690 0.30320 0.25925
 O5 O 0.25339 0.30206 0.43151
 O6 O 0.18806 0.19914 0.23701
 O7 O 0.25888 0.20643 0.44449
 O8 O 0.18319 0.29698 0.22560
 Cu9 Cu 0.29043 0.25175 0.14416
 Cu10 Cu 0.21427 0.25096 0.35135
 C11 C 0.20156 0.31189 0.10108
 C12 C 0.30337 0.19110 0.39481
 C13 C 0.20818 0.18281 0.11626
 C14 C 0.29659 0.31968 0.37951
 O15 O 0.81743 0.27810 0.37287
 O16 O 0.71050 0.18683 0.32817
 O17 O 0.80951 0.19285 0.23676
 O18 O 0.71938 0.27108 0.46225
 O19 O 0.69394 0.30954 0.25907
 O20 O 0.78505 0.23212 0.03397
 O21 O 0.68683 0.22431 0.12181
 O22 O 0.79264 0.31656 0.16903
 Cu23 Cu 0.76681 0.22813 0.36984
 Cu24 Cu 0.73703 0.27462 0.12604
 C25 C 0.82315 0.31289 0.27808
 C26 C 0.68031 0.19010 0.21819
 C27 C 0.81292 0.19937 0.09752
 C28 C 0.69111 0.30349 0.39857
 O29 O 0.74758 0.79828 0.55647
 O30 O 0.82262 0.70693 0.77421
 O31 O 0.75235 0.70260 0.56809
 O32 O 0.81840 0.80477 0.76398
 O33 O 0.75533 0.80318 0.93730
 O34 O 0.68881 0.70161 0.74028
 O35 O 0.75968 0.70739 0.94820
 O36 O 0.68496 0.79924 0.73133
 Cu37 Cu 0.79184 0.75330 0.64898
 Cu38 Cu 0.71565 0.75269 0.85613
 C39 C 0.70322 0.81385 0.60637
 C40 C 0.80415 0.69200 0.89861
 C41 C 0.70900 0.68522 0.61977
 C42 C 0.79840 0.82103 0.88496
 O43 O 0.31823 0.78010 0.87861
 O44 O 0.21228 0.68795 0.83169
 O45 O 0.31072 0.69532 0.74019
 O46 O 0.22006 0.77211 0.96850
 O47 O 0.19471 0.81152 0.76698
 O48 O 0.28519 0.73461 0.53850
 O49 O 0.18719 0.72664 0.62854
 O50 O 0.29322 0.81868 0.67519
 Cu51 Cu 0.26793 0.72985 0.87459
 Cu52 Cu 0.23743 0.77693 0.63259
 C53 C 0.32388 0.81492 0.78390
 C54 C 0.18169 0.69167 0.72281
 C55 C 0.31351 0.70195 0.60094
 C56 C 0.19177 0.80488 0.90626
 O57 O 1.04638 -0.04691 0.14569
 O58 O 0.95537 0.05889 0.09898
 O59 O 0.94388 -0.03620 0.13111
 O60 O 1.05769 0.04967 0.11341
 O61 O 1.06344 0.03918 -0.12896
 O62 O 0.94954 -0.04660 -0.11132
 O63 O 0.96094 0.04987 -0.14401
 O64 O 1.05180 -0.05597 -0.09729
 Cu65 Cu 1.00044 0.00726 0.14644
 Cu66 Cu 1.00685 -0.00427 -0.14451
 C67 C 1.06467 -0.06932 0.03179
 C68 C 0.94252 0.07221 -0.03017
 C69 C 0.92717 -0.05574 0.01312
 C70 C 1.08008 0.05880 -0.01100
 O71 O 0.54514 0.45427 0.64244
 O72 O 0.45453 0.56039 0.59779
 O73 O 0.44281 0.46516 0.62950
 O74 O 0.55684 0.55073 0.61071
 O75 O 0.56194 0.54074 0.36808
 O76 O 0.44790 0.45515 0.38688
 O77 O 0.45957 0.55167 0.35466
 O78 O 0.55021 0.44550 0.39933
 Cu79 Cu 0.49945 0.50855 0.64420
 Cu80 Cu 0.50526 0.49737 0.35313
 C81 C 0.56317 0.43192 0.52817
 C82 C 0.44155 0.57399 0.46900
 C83 C 0.42588 0.44572 0.51163
 C84 C 0.57889 0.56013 0.48601
 O85 O 0.02308 0.53313 -0.21432
 O86 O -0.05555 0.44432 0.01080
 O87 O -0.06775 0.53644 -0.08113
 O88 O 0.03710 0.44171 -0.12620
 O89 O 0.07331 0.46729 0.08060
 O90 O -0.03155 0.56202 0.12569
 O91 O -0.01749 0.47069 0.21402
 O92 O 0.06111 0.55949 -0.01107
 Cu93 Cu -0.01966 0.48590 -0.12270
 Cu94 Cu 0.02525 0.51786 0.12227
 C95 C 0.05518 0.56176 -0.15027
 C96 C -0.04965 0.44209 0.15002
 C97 C -0.06726 0.56549 0.02943
 C98 C 0.07281 0.43823 -0.02994
 O99 O 0.44565 0.94517 0.51360
 O100 O 0.52369 1.03376 0.28616
 O101 O 0.53838 0.94266 0.37678
 O102 O 0.43295 1.03687 0.41939
 O103 O 0.46915 1.06339 0.62516
 O104 O 0.57437 0.96885 0.58324
 O105 O 0.56197 1.06058 0.48852
 O106 O 0.48350 0.97235 0.71621
 Cu107 Cu 0.48133 0.98652 0.37911
 Cu108 Cu 0.52613 1.01938 0.62324
 C109 C 0.45148 0.94343 0.65291
 C110 C 0.55584 1.06257 0.34936
 C111 C 0.57406 0.93955 0.47324
 C112 C 0.43334 1.06631 0.52901
 C113 C 1.18249 0.14536 0.03894
 C114 C 1.19846 0.12838 -0.09932
 C115 C 1.16159 0.09399 -0.13726
 C116 C 1.12626 0.09203 -0.01876
 O117 O 1.13872 0.12316 0.08849
 H118 H 1.23239 0.14024 -0.16559
 H119 H 1.16072 0.07259 -0.23860
 C120 C 0.68128 0.64655 0.53655
 C121 C 0.69483 0.63276 0.39358
 C122 C 0.65791 0.59849 0.35510
 C123 C 0.62482 0.59365 0.47786
 O124 O 0.63880 0.62282 0.58830
 H125 H 0.72715 0.64675 0.32477
 H126 H 0.65535 0.57930 0.25025
 C127 C -0.13406 0.34921 0.29265
 C128 C -0.10424 0.35520 0.41729
 C129 C -0.06893 0.39200 0.38157
 C130 C -0.07977 0.40527 0.23767
 O131 O -0.11926 0.37941 0.18343
 H132 H -0.10770 0.33501 0.52107
 H133 H -0.03817 0.40660 0.45054
 C134 C 0.36681 0.85113 0.79781
 C135 C 0.39695 0.85706 0.92186
 C136 C 0.43243 0.89364 0.88521
 C137 C 0.42135 0.90684 0.74142
 O138 O 0.38158 0.88115 0.68810
 H139 H 0.39363 0.83694 1.02578
 H140 H 0.46349 0.90809 0.95342
 C141 C -0.16462 0.65739 -0.01231
 C142 C -0.16498 0.65669 0.14045
 C143 C -0.12777 0.62217 0.17752
 C144 C -0.10834 0.60393 0.04445
 O145 O -0.13036 0.62538 -0.07098
 H146 H -0.18823 0.67981 0.21534
 H147 H -0.11628 0.61146 0.28789
 C148 C 0.33503 1.15714 0.48482
 C149 C 0.33489 1.15713 0.63759
 C150 C 0.37252 1.12315 0.67559
 C151 C 0.39199 1.10452 0.54305
 O152 O 0.36957 1.12523 0.42704
 H153 H 0.31146 1.18035 0.71180
 H154 H 0.38425 1.11302 0.78624
 C155 C 1.15721 -0.16591 -0.00896
 C156 C 1.14989 -0.16982 0.14258
 C157 C 1.11390 -0.13373 0.17970
 C158 C 1.10172 -0.11096 0.04762
 O159 O 1.12778 -0.13043 -0.06688
 H160 H 1.16837 -0.19605 0.21640
 H161 H 1.09823 -0.12521 0.28927
 C162 C 0.65474 0.33459 0.48721
 C163 C 0.64707 0.33044 0.63838
 C164 C 0.61147 0.36683 0.67552
 C165 C 0.59986 0.39000 0.54361
 O166 O 0.62594 0.37049 0.42920
 H167 H 0.66512 0.30385 0.71190
 H168 H 0.59563 0.37527 0.78498
 C169 C 0.82436 -0.14180 -0.03728
 C170 C 0.80857 -0.12497 0.10128
 C171 C 0.84564 -0.09081 0.13949
 C172 C 0.88091 -0.08884 0.02085
 O173 O 0.86821 -0.11974 -0.08674
 H174 H 0.77461 -0.13675 0.16753
 H175 H 0.84667 -0.06956 0.24108
 C176 C 0.32397 0.35872 0.46205
 C177 C 0.31022 0.37278 0.60464
 C178 C 0.34691 0.40734 0.64265
 C179 C 0.38006 0.41207 0.51999
 O180 O 0.36635 0.38257 0.41006
 H181 H 0.27794 0.35876 0.67355
 H182 H 0.34928 0.42677 0.74715
 C183 C 0.13911 0.65514 -0.29216
 C184 C 0.10937 0.64909 -0.41691
 C185 C 0.07428 0.61206 -0.38157
 C186 C 0.08517 0.59872 -0.23774
 O187 O 0.12448 0.62476 -0.18322
 H188 H 0.11273 0.66939 -0.52052
 H189 H 0.04362 0.59736 -0.45071
 C190 C 0.63928 1.15603 0.20538
 C191 C 0.60651 1.15255 0.08559
 C192 C 0.57162 1.11541 0.12156
 C193 C 0.58539 1.09960 0.26104
 O194 O 0.62647 1.12401 0.31199
 H195 H 0.60770 1.17457 -0.01514
 H196 H 0.53903 1.10247 0.05625
 C197 C 0.17019 0.34635 0.01190
 C198 C 0.17056 0.34704 -0.14087
 C199 C 0.13332 0.38153 -0.17798
 C200 C 0.11387 0.39977 -0.04493
 O201 O 0.13591 0.37835 0.07052
 H202 H 0.19389 0.32397 -0.21573
 H203 H 0.12185 0.39224 -0.28837
 C204 C 0.67185 0.84818 0.51677
 C205 C 0.67200 0.84835 0.36402
 C206 C 0.63465 0.88263 0.32631
 C207 C 0.61531 0.90125 0.45902
 O208 O 0.63755 0.88026 0.57485
 H209 H 0.69520 0.82500 0.28961
 H210 H 0.62295 0.89291 0.21576
 C211 C 0.84964 0.16853 0.00916
 C212 C 0.85753 0.17271 -0.14194
 C213 C 0.89368 0.13672 -0.17850
 C214 C 0.90537 0.11375 -0.04635
 O215 O 0.87881 0.13298 0.06763
 H216 H 0.83927 0.19906 -0.21581
 H217 H 0.90981 0.12843 -0.28773
 C218 C 0.34991 0.67118 0.51141
 C219 C 0.35771 0.67577 0.36040
 C220 C 0.39333 0.63946 0.32255
 C221 C 0.40484 0.61592 0.45397
 O222 O 0.37867 0.63511 0.56865
 H223 H 0.33974 0.70261 0.28750
 H224 H 0.40928 0.63134 0.21299
   
