data_POSCAR
  _audit_creation_date              2014-09-24
  _audit_creation_method            'ToBaCCo'
  _symmetry_space_group_name_H-M    'P1'
  _symmetry_Int_Tables_number       1
  _symmetry_cell_setting            triclinic
  loop_
  _symmetry_equiv_pos_as_xyz
 x,y,z
_cell_length_a 41.8835
_cell_length_b 41.8377
_cell_length_c 42.1129
_cell_angle_alpha 90.031400
_cell_angle_beta 89.987400
_cell_angle_gamma 89.855100
loop_
  _atom_site_label
  _atom_site_type_symbol
  _atom_site_fract_x
  _atom_site_fract_y
  _atom_site_fract_z
C1 C 0.34047 0.33858 1.37848
 C2 C 0.31321 0.35119 1.39330
 C3 C 0.29792 0.37818 1.38069
 C4 C 0.30988 0.39287 1.35326
 C5 C 0.33710 0.38054 1.33812
 C6 C 0.35249 0.35325 1.35074
 C7 C 0.35571 0.31134 1.39068
 C8 C 0.38266 0.29864 1.37544
 C9 C 0.39466 0.31318 1.34794
 C10 C 0.37971 0.34045 1.33544
 C11 C 0.39125 0.35496 1.30771
 C12 C 0.37591 0.38195 1.29520
 C13 C 0.34900 0.39475 1.31038
 H14 H 0.30376 0.33987 1.41449
 H15 H 0.29787 0.41370 1.34356
 H16 H 0.34648 0.29989 1.41190
 H17 H 0.41545 0.30314 1.33618
 H18 H 0.41200 0.34516 1.29569
 H19 H 0.33722 0.41558 1.30043
 C20 C 1.16250 0.66571 0.87895
 C21 C 1.18975 0.65291 0.89365
 C22 C 1.20423 0.62526 0.88148
 C23 C 1.19151 0.61013 0.85462
 C24 C 1.16431 0.62262 0.83964
 C25 C 1.14969 0.65053 0.85183
 C26 C 1.14800 0.69357 0.89071
 C27 C 1.12098 0.70634 0.87566
 C28 C 1.10818 0.69126 0.84881
 C29 C 1.12240 0.66340 0.83673
 C30 C 1.11003 0.64834 0.80964
 C31 C 1.12465 0.62075 0.79755
 C32 C 1.15163 0.60789 0.81252
 H33 H 1.19978 0.66456 0.91439
 H34 H 1.20291 0.58878 0.84526
 H35 H 1.15785 0.70542 0.91143
 H36 H 1.08732 0.70132 0.83721
 H37 H 1.08919 0.65814 0.79781
 H38 H 1.16282 0.58656 0.80290
 C39 C 0.66077 -0.16533 0.12008
 C40 C 0.68862 -0.15337 0.10595
 C41 C 0.70391 -0.12659 0.11882
 C42 C 0.69141 -0.11146 0.14579
 C43 C 0.66358 -0.12308 0.16020
 C44 C 0.64816 -0.15016 0.14735
 C45 C 0.64547 -0.19238 0.10765
 C46 C 0.61788 -0.20437 0.12221
 C47 C 0.60529 -0.18931 0.14921
 C48 C 0.62028 -0.16222 0.16192
 C49 C 0.60808 -0.14715 0.18911
 C50 C 0.62345 -0.12035 0.20182
 C51 C 0.65106 -0.10831 0.18742
 H52 H 0.69857 -0.16497 0.08512
 H53 H 0.70350 -0.09080 0.15563
 H54 H 0.65514 -0.20422 0.08681
 H55 H 0.58398 -0.19878 0.16042
 H56 H 0.58678 -0.15634 0.20053
 H57 H 0.66283 -0.08761 0.19753
 C58 C -0.16163 1.16129 -0.37794
 C59 C -0.18875 1.14864 -0.39284
 C60 C -0.20400 1.12173 -0.38016
 C61 C -0.19215 1.10717 -0.35259
 C62 C -0.16506 1.11954 -0.33738
 C63 C -0.14972 1.14674 -0.35006
 C64 C -0.14640 1.18844 -0.39020
 C65 C -0.11959 1.20113 -0.37488
 C66 C -0.10770 1.18674 -0.34728
 C67 C -0.12261 1.15956 -0.33470
 C68 C -0.11114 1.14517 -0.30687
 C69 C -0.12643 1.11826 -0.29431
 C70 C -0.15324 1.10543 -0.30953
 H71 H -0.19812 1.15985 -0.41414
 H72 H -0.20413 1.08639 -0.34285
 H73 H -0.15548 1.19985 -0.41150
 H74 H -0.08699 1.19685 -0.33554
 H75 H -0.09047 1.15499 -0.29483
 H76 H -0.16496 1.08465 -0.29953
 C77 C 0.66016 0.66475 0.61982
 C78 C 0.68767 0.65219 0.60540
 C79 C 0.70266 0.62511 0.61812
 C80 C 0.69022 0.61029 0.64523
 C81 C 0.66275 0.62252 0.65995
 C82 C 0.64762 0.64990 0.64724
 C83 C 0.64513 0.69206 0.60751
 C84 C 0.61786 0.70462 0.62232
 C85 C 0.60535 0.68989 0.64949
 C86 C 0.62008 0.66255 0.66209
 C87 C 0.60794 0.64778 0.68942
 C88 C 0.62303 0.62067 0.70198
 C89 C 0.65029 0.60805 0.68730
 H90 H 0.69757 0.66353 0.58445
 H91 H 0.70207 0.58938 0.65493
 H92 H 0.65473 0.70364 0.58653
 H93 H 0.58430 0.69980 0.66089
 H94 H 0.58690 0.65740 0.70105
 H95 H 0.66184 0.58711 0.69728
 C96 C 0.83862 0.33807 0.12245
 C97 C 0.81154 0.35099 0.10759
 C98 C 0.79648 0.37810 0.12025
 C99 C 0.80849 0.39260 0.14778
 C100 C 0.83554 0.37997 0.16295
 C101 C 0.85069 0.35256 0.15028
 C102 C 0.85365 0.31072 0.11018
 C103 C 0.88044 0.29774 0.12545
 C104 C 0.89247 0.31209 0.15303
 C105 C 0.87774 0.33947 0.16559
 C106 C 0.88937 0.35382 0.19338
 C107 C 0.87427 0.38094 0.20592
 C108 C 0.84751 0.39403 0.19074
 H109 H 0.80205 0.33983 0.08633
 H110 H 0.79666 0.41354 0.15751
 H111 H 0.84439 0.29943 0.08889
 H112 H 0.91315 0.30185 0.16480
 H113 H 0.91000 0.34381 0.20539
 H114 H 0.83593 0.41497 0.20072
 C115 C 0.33957 0.16124 0.87873
 C116 C 0.31232 0.14878 0.89356
 C117 C 0.29695 0.12194 0.88086
 C118 C 0.30882 0.10725 0.85334
 C119 C 0.33603 0.11942 0.83820
 C120 C 0.35150 0.14656 0.85091
 C121 C 0.35490 0.18833 0.89100
 C122 C 0.38182 0.20086 0.87574
 C123 C 0.39374 0.18633 0.84819
 C124 C 0.37872 0.15920 0.83561
 C125 C 0.39018 0.14470 0.80780
 C126 C 0.37476 0.11787 0.79521
 C127 C 0.34785 0.10521 0.81038
 H128 H 0.30294 0.16009 0.91482
 H129 H 0.29674 0.08653 0.84358
 H130 H 0.34580 0.19985 0.91225
 H131 H 0.41452 0.19631 0.83649
 H132 H 0.41093 0.15439 0.79580
 H133 H 0.33601 0.08450 0.80035
 C134 C 0.16050 0.83457 0.37972
 C135 C 0.18779 0.84724 0.39433
 C136 C 0.20227 0.87474 0.38207
 C137 C 0.18955 0.88986 0.35522
 C138 C 0.16230 0.87752 0.34032
 C139 C 0.14766 0.84975 0.35259
 C140 C 0.14601 0.80681 0.39153
 C141 C 0.11897 0.79415 0.37651
 C142 C 0.10613 0.80924 0.34967
 C143 C 0.12034 0.83700 0.33754
 C144 C 0.10797 0.85205 0.31042
 C145 C 0.12263 0.87950 0.29826
 C146 C 0.14963 0.89224 0.31318
 H147 H 0.19792 0.83566 0.41507
 H148 H 0.20103 0.91108 0.34586
 H149 H 0.15590 0.79494 0.41223
 H150 H 0.08527 0.79925 0.33809
 H151 H 0.08713 0.84233 0.29861
 H152 H 0.16086 0.91344 0.30349
 Zn153 Zn 0.00667 1.04027 -0.01720
 Zn154 Zn -0.02432 0.97603 -0.02326
 Zn155 Zn 0.03962 0.98230 0.00804
 Zn156 Zn -0.01858 1.00748 0.04044
 O157 O 0.00081 1.00149 0.00197
 O158 O -0.01371 1.04317 -0.05436
 O159 O -0.00427 0.94014 -0.03575
 O160 O 0.07221 1.00575 -0.00640
 O161 O -0.03695 0.99583 -0.05897
 O162 O 0.04777 1.04864 -0.02554
 O163 O 0.04281 0.94489 -0.01217
 O164 O 0.00476 0.99294 0.07299
 O165 O -0.06020 0.96335 -0.00362
 O166 O 0.04791 0.97399 0.04895
 O167 O -0.05588 0.98708 0.04327
 O168 O -0.02702 1.04864 0.04877
 O169 O -0.00793 1.07300 0.00611
 C170 C -0.03113 1.02364 -0.06941
 C171 C 0.02352 0.92970 -0.02971
 C172 C 0.07293 1.03265 -0.02016
 C173 C 0.03177 0.97927 0.07387
 C174 C -0.07085 0.96941 0.02394
 C175 C -0.02168 1.07379 0.03290
 Zn176 Zn 0.48088 0.00757 0.45950
 Zn177 Zn 0.47472 -0.02408 0.52305
 Zn178 Zn 0.53876 -0.01852 0.49181
 Zn179 Zn 0.50653 0.03976 0.51736
 O180 O 0.50019 0.00115 0.49796
 O181 O 0.44313 -0.01205 0.45667
 O182 O 0.49408 -0.06054 0.53490
 O183 O 0.54702 -0.02657 0.45084
 O184 O 0.43846 -0.03575 0.50351
 O185 O 0.50402 -0.00723 0.42687
 O186 O 0.54130 -0.05624 0.51151
 O187 O 0.54772 0.04755 0.52571
 O188 O 0.46265 -0.00444 0.55904
 O189 O 0.57167 0.00438 0.50653
 O190 O 0.48626 0.04272 0.55458
 O191 O 0.49239 0.07279 0.49424
 O192 O 0.47317 0.04889 0.45136
 C193 C 0.42781 -0.02935 0.47606
 C194 C 0.52167 -0.07140 0.52869
 C195 C 0.53094 -0.02108 0.42594
 C196 C 0.57269 0.03126 0.52036
 C197 C 0.46877 0.02325 0.56963
 C198 C 0.47879 0.07390 0.46738
 Zn199 Zn 1.00743 0.45978 0.48280
 Zn200 Zn 1.03975 0.51796 0.50803
 Zn201 Zn 0.97571 0.52382 0.47679
 Zn202 Zn 0.98188 0.49248 0.54051
 O203 O 1.00115 0.49854 0.50200
 O204 O 1.04860 0.45162 0.47448
 O205 O 1.04247 0.55539 0.48789
 O206 O 0.96345 0.50397 0.44098
 O207 O 1.07260 0.49471 0.49353
 O208 O 0.98713 0.45675 0.44562
 O209 O 0.99527 0.55992 0.46445
 O210 O 0.94422 0.51245 0.54327
 O211 O 1.04801 0.52631 0.54893
 O212 O 0.93955 0.53601 0.49635
 O213 O 1.00507 0.50726 0.57307
 O214 O 0.97396 0.45127 0.54884
 O215 O 0.99314 0.42699 0.50608
 C216 C 1.07360 0.46777 0.47981
 C217 C 1.02297 0.57052 0.47046
 C218 C 0.96956 0.47619 0.43053
 C219 C 0.92893 0.52981 0.52386
 C220 C 1.03197 0.52102 0.57389
 C221 C 0.97948 0.42615 0.53291
 Zn222 Zn 0.48123 0.49302 0.95976
 Zn223 Zn 0.53895 0.51912 0.99212
 Zn224 Zn 0.47484 0.52469 1.02334
 Zn225 Zn 0.50701 0.46087 1.01762
 O226 O 0.50048 0.49946 0.99824
 O227 O 0.50432 0.50778 0.92714
 O228 O 0.54126 0.55686 1.01182
 O229 O 0.43853 0.53633 1.00378
 O230 O 0.54719 0.52716 0.95115
 O231 O 0.44340 0.51265 0.95691
 O232 O 0.49400 0.56118 1.03518
 O233 O 0.48680 0.45795 1.05486
 O234 O 0.57198 0.49625 1.00685
 O235 O 0.46289 0.50508 1.05935
 O236 O 0.54823 0.45306 1.02595
 O237 O 0.49298 0.42783 0.99452
 O238 O 0.47367 0.45169 0.95162
 C239 C 0.53116 0.52166 0.92623
 C240 C 0.52153 0.57205 1.02897
 C241 C 0.42796 0.52995 0.97630
 C242 C 0.46920 0.47740 1.06993
 C243 C 0.57313 0.46935 1.02063
 C244 C 0.47936 0.42671 0.96767
 C245 C 1.15956 0.43451 0.44742
 C246 C 1.16928 0.40254 0.45285
 C247 C 1.19846 0.39114 0.43976
 C248 C 1.21773 0.41178 0.42130
 C249 C 1.20826 0.44389 0.41628
 C250 C 1.17910 0.45530 0.42940
 C251 C 1.17009 0.48748 0.42398
 C252 C 1.18933 0.50780 0.40611
 C253 C 1.21782 0.49663 0.39326
 C254 C 1.22729 0.46507 0.39821
 C255 C 1.20761 0.35905 0.44541
 C256 C 1.18849 0.33881 0.46348
 C257 C 1.15997 0.34995 0.47628
 C258 C 1.15034 0.38143 0.47110
 C259 C 1.24693 0.39981 0.40694
 C260 C 1.27098 0.38975 0.39473
 C261 C 1.12917 0.44586 0.45969
 C262 C 1.10382 0.45561 0.46926
 H263 H 1.14816 0.49730 0.43350
 H264 H 1.18208 0.53234 0.40221
 H265 H 1.23267 0.51250 0.37939
 H266 H 1.24968 0.45750 0.38775
 H267 H 1.22961 0.34929 0.43599
 H268 H 1.19586 0.31433 0.46758
 H269 H 1.14520 0.33413 0.49030
 H270 H 1.12798 0.38901 0.48157
 C271 C 0.34196 0.56493 0.94589
 C272 C 0.32986 0.59452 0.95700
 C273 C 0.30079 0.60683 0.94452
 C274 C 0.28401 0.58948 0.92098
 C275 C 0.29583 0.55963 0.91026
 C276 C 0.32488 0.54732 0.92275
 C277 C 0.33628 0.51748 0.91155
 C278 C 0.31946 0.50030 0.88870
 C279 C 0.29105 0.51234 0.87649
 C280 C 0.27926 0.54166 0.88705
 C281 C 0.28922 0.63652 0.95590
 C282 C 0.30588 0.65355 0.97898
 C283 C 0.33431 0.64152 0.99119
 C284 C 0.34628 0.61235 0.98041
 C285 C 0.25497 0.60257 0.90729
 C286 C 0.23105 0.61329 0.89540
 C287 C 0.37230 0.55289 0.95761
 C288 C 0.39765 0.54261 0.96660
 H289 H 0.35824 0.50708 0.92035
 H290 H 0.32851 0.47751 0.88043
 H291 H 0.27807 0.49891 0.85874
 H292 H 0.25704 0.55000 0.87685
 H293 H 0.26720 0.64683 0.94714
 H294 H 0.29669 0.67621 0.98744
 H295 H 0.34716 0.65484 1.00912
 H296 H 0.36845 0.60395 0.99064
 C297 C -0.15479 0.93140 0.05583
 C298 C -0.18034 0.92404 0.03509
 C299 C -0.20940 0.91178 0.04755
 C300 C -0.21272 0.90698 0.08066
 C301 C -0.18707 0.91411 0.10138
 C302 C -0.15803 0.92633 0.08893
 C303 C -0.13274 0.93329 0.11013
 C304 C -0.13605 0.92832 0.14268
 C305 C -0.16447 0.91640 0.15485
 C306 C -0.18976 0.90934 0.13456
 C307 C -0.23462 0.90463 0.02636
 C308 C -0.23124 0.90946 -0.00620
 C309 C -0.20284 0.92145 -0.01838
 C310 C -0.17760 0.92871 0.00193
 C311 C -0.24252 0.89494 0.09355
 C312 C -0.26706 0.88508 0.10478
 C313 C -0.12530 0.94456 0.04335
 C314 C -0.10057 0.95576 0.03389
 H315 H -0.11015 0.94260 0.10183
 H316 H -0.11646 0.93376 0.15854
 H317 H -0.16693 0.91259 0.18015
 H318 H -0.21138 0.90010 0.14518
 H319 H -0.25715 0.89524 0.03472
 H320 H -0.25076 0.90386 -0.02208
 H321 H -0.20034 0.92516 -0.04369
 H322 H -0.15597 0.93797 -0.00865
 C323 C 0.65847 0.06442 0.55289
 C324 C 0.67657 0.04483 0.57362
 C325 C 0.70557 0.05645 0.58676
 C326 C 0.71632 0.08755 0.57908
 C327 C 0.69850 0.10693 0.55793
 C328 C 0.66948 0.09533 0.54480
 C329 C 0.65200 0.11518 0.52384
 C330 C 0.66289 0.14563 0.51604
 C331 C 0.69127 0.15698 0.52887
 C332 C 0.70896 0.13796 0.54959
 C333 C 0.72317 0.03650 0.60756
 C334 C 0.71244 0.00594 0.61513
 C335 C 0.68410 -0.00543 0.60227
 C336 C 0.66627 0.01369 0.58175
 C337 C 0.74533 0.09982 0.59343
 C338 C 0.76922 0.11006 0.60569
 C339 C 0.62819 0.05299 0.54055
 C340 C 0.60291 0.04325 0.53094
 H341 H 0.62982 0.10739 0.51323
 H342 H 0.64924 0.16050 0.49996
 H343 H 0.69962 0.18064 0.52274
 H344 H 0.73090 0.14782 0.55894
 H345 H 0.74538 0.04426 0.61814
 H346 H 0.72620 -0.00900 0.63106
 H347 H 0.67587 -0.02919 0.60821
 H348 H 0.64440 0.00376 0.57233
 C349 C 0.44816 0.16025 0.43337
 C350 C 0.43052 0.18068 0.45372
 C351 C 0.41790 0.20990 0.44188
 C352 C 0.42301 0.21855 0.40978
 C353 C 0.44118 0.19843 0.38961
 C354 C 0.45378 0.16918 0.40143
 C355 C 0.47172 0.14938 0.38078
 C356 C 0.47708 0.15823 0.34933
 C357 C 0.46478 0.18683 0.33777
 C358 C 0.44700 0.20679 0.35756
 C359 C 0.40019 0.22984 0.46263
 C360 C 0.39514 0.22116 0.49417
 C361 C 0.40749 0.19260 0.50575
 C362 C 0.42499 0.17249 0.48587
 C363 C 0.40892 0.24772 0.39735
 C364 C 0.39679 0.27173 0.38705
 C365 C 0.45977 0.12973 0.44512
 C366 C 0.46882 0.10427 0.45511
 H367 H 0.48182 0.12693 0.38870
 H368 H 0.49088 0.14281 0.33386
 H369 H 0.46902 0.19360 0.31333
 H370 H 0.43796 0.22882 0.34750
 H371 H 0.39013 0.25232 0.45474
 H372 H 0.38156 0.23670 0.50971
 H373 H 0.40350 0.18597 0.53028
 H374 H 0.43414 0.15054 0.49599
 C375 C 0.94784 0.34031 0.56689
 C376 C 0.93046 0.31998 0.54632
 C377 C 0.91747 0.29093 0.55805
 C378 C 0.92196 0.28238 0.59027
 C379 C 0.93981 0.30243 0.61069
 C380 C 0.95278 0.33149 0.59897
 C381 C 0.97039 0.35123 0.61987
 C382 C 0.97508 0.34250 0.65146
 C383 C 0.96241 0.31408 0.66292
 C384 C 0.94496 0.29418 0.64289
 C385 C 0.90004 0.27109 0.53709
 C386 C 0.89558 0.27968 0.50543
 C387 C 0.90830 0.30806 0.49395
 C388 C 0.92555 0.32808 0.51404
 C389 C 0.90762 0.25334 0.60255
 C390 C 0.89538 0.22943 0.61280
 C391 C 0.95986 0.37063 0.55520
 C392 C 0.96921 0.39594 0.54523
 H393 H 0.98074 0.37355 0.61204
 H394 H 0.98862 0.35787 0.66712
 H395 H 0.96613 0.30740 0.68748
 H396 H 0.93561 0.27230 0.65289
 H397 H 0.88971 0.24875 0.54490
 H398 H 0.88220 0.26421 0.48973
 H399 H 0.90478 0.31463 0.46933
 H400 H 0.93499 0.34989 0.50398
 C401 C 0.05640 0.84578 -0.06749
 C402 C 0.03773 0.81762 -0.06753
 C403 C 0.05073 0.78863 -0.07959
 C404 C 0.08234 0.78797 -0.09152
 C405 C 0.10092 0.81621 -0.09175
 C406 C 0.08791 0.84519 -0.07971
 C407 C 0.10698 0.87309 -0.08014
 C408 C 0.13799 0.87238 -0.09212
 C409 C 0.15070 0.84403 -0.10387
 C410 C 0.13250 0.81620 -0.10374
 C411 C 0.03163 0.76077 -0.07932
 C412 C 0.00056 0.76154 -0.06748
 C413 C -0.01214 0.78988 -0.05568
 C414 C 0.00612 0.81768 -0.05564
 C415 C 0.09589 0.75828 -0.10335
 C416 C 0.10751 0.73380 -0.11318
 C417 C 0.04358 0.87524 -0.05435
 C418 C 0.03383 0.89996 -0.04322
 H419 H 0.09816 0.89574 -0.07129
 H420 H 0.15222 0.89395 -0.09228
 H421 H 0.17481 0.84360 -0.11315
 H422 H 0.14346 0.79475 -0.11315
 H423 H 0.04047 0.73816 -0.08825
 H424 H -0.01372 0.74001 -0.06746
 H425 H -0.03629 0.79034 -0.04652
 H426 H -0.00480 0.83916 -0.04625
 C427 C 0.55145 0.65829 1.06354
 C428 C 0.54444 0.66805 1.09498
 C429 C 0.55727 0.69709 1.10693
 C430 C 0.57704 0.71618 1.08738
 C431 C 0.58353 0.70674 1.05574
 C432 C 0.57069 0.67771 1.04378
 C433 C 0.57764 0.66870 1.01210
 C434 C 0.59672 0.68782 0.99281
 C435 C 0.60928 0.71619 1.00451
 C436 C 0.60285 0.72566 1.03560
 C437 C 0.55007 0.70629 1.13849
 C438 C 0.53072 0.68733 1.15768
 C439 C 0.51819 0.65894 1.14599
 C440 C 0.52490 0.64928 1.11502
 C441 C 0.59134 0.74511 1.09999
 C442 C 0.60363 0.76893 1.11042
 C443 C 0.53977 0.62785 1.05177
 C444 C 0.53092 0.60243 1.04161
 H445 H 0.56840 0.64687 1.00189
 H446 H 0.60177 0.68057 0.96864
 H447 H 0.62409 0.73095 0.98943
 H448 H 0.61315 0.74795 1.04360
 H449 H 0.55923 0.72820 1.14863
 H450 H 0.52543 0.69473 1.18175
 H451 H 0.50317 0.64430 1.16099
 H452 H 0.51456 0.62702 1.10696
 C453 C 0.43204 0.44564 1.15398
 C454 C 0.43199 0.46485 1.18167
 C455 C 0.42018 0.45227 1.21074
 C456 C 0.40850 0.42056 1.21195
 C457 C 0.40827 0.40146 1.18417
 C458 C 0.42005 0.41404 1.15511
 C459 C 0.41962 0.39444 1.12768
 C460 C 0.40789 0.36333 1.12894
 C461 C 0.39639 0.35103 1.15736
 C462 C 0.39652 0.36976 1.18473
 C463 C 0.42045 0.47190 1.23813
 C464 C 0.43205 0.50306 1.23683
 C465 C 0.44360 0.51535 1.20841
 C466 C 0.44363 0.49657 1.18107
 C467 C 0.39697 0.40742 1.24172
 C468 C 0.38740 0.39605 1.26623
 C469 C 0.44496 0.45802 1.12445
 C470 C 0.45591 0.46743 1.09969
 H471 H 0.42829 0.40292 1.10500
 H472 H 0.40774 0.34869 1.10773
 H473 H 0.38731 0.32684 1.15821
 H474 H 0.38730 0.35911 1.20626
 H475 H 0.41171 0.46340 1.26077
 H476 H 0.43208 0.51775 1.25800
 H477 H 0.45258 0.53957 1.20753
 H478 H 0.45283 0.50718 1.15951
 C479 C 0.56482 -0.05332 0.34060
 C480 C 0.59566 -0.04490 0.32972
 C481 C 0.60747 -0.05788 0.30079
 C482 C 0.58836 -0.07920 0.28293
 C483 C 0.55733 -0.08723 0.29355
 C484 C 0.54551 -0.07424 0.32246
 C485 C 0.51445 -0.08272 0.33265
 C486 C 0.49561 -0.10343 0.31479
 C487 C 0.50718 -0.11614 0.28653
 C488 C 0.53766 -0.10822 0.27592
 C489 C 0.63842 -0.04922 0.29046
 C490 C 0.65717 -0.02832 0.30819
 C491 C 0.64563 -0.01564 0.33648
 C492 C 0.61524 -0.02376 0.34724
 C493 C 0.60082 -0.09337 0.25397
 C494 C 0.61113 -0.10550 0.23010
 C495 C 0.55316 -0.04109 0.37074
 C496 C 0.54321 -0.03157 0.39590
 H497 H 0.50437 -0.07343 0.35445
 H498 H 0.47191 -0.10964 0.32293
 H499 H 0.49245 -0.13221 0.27275
 H500 H 0.54558 -0.11870 0.25377
 H501 H 0.64843 -0.05844 0.26859
 H502 H 0.68078 -0.02194 0.29994
 H503 H 0.66029 0.00058 0.35017
 H504 H 0.60729 -0.01325 0.36937
 C505 C -0.06929 1.05517 -0.15315
 C506 C -0.06916 1.03594 -0.18083
 C507 C -0.08131 1.04836 -0.20985
 C508 C -0.09350 1.07994 -0.21101
 C509 C -0.09397 1.09904 -0.18324
 C510 C -0.08185 1.08662 -0.15423
 C511 C -0.08251 1.10621 -0.12680
 C512 C -0.09481 1.13716 -0.12800
 C513 C -0.10666 1.14931 -0.15637
 C514 C -0.10629 1.13058 -0.18374
 C515 C -0.08086 1.02872 -0.23722
 C516 C -0.06877 0.99768 -0.23595
 C517 C -0.05689 0.98555 -0.20759
 C518 C -0.05701 1.00435 -0.18026
 C519 C -0.10525 1.09296 -0.24076
 C520 C -0.11492 1.10425 -0.26529
 C521 C -0.05600 1.04296 -0.12369
 C522 C -0.04476 1.03362 -0.09903
 H523 H -0.07360 1.09785 -0.10416
 H524 H -0.09515 1.15180 -0.10679
 H525 H -0.11619 1.17337 -0.15718
 H526 H -0.11579 1.14111 -0.20523
 H527 H -0.08985 1.03710 -0.25982
 H528 H -0.06862 0.98297 -0.25711
 H529 H -0.04752 0.96142 -0.20674
 H530 H -0.04754 0.99386 -0.15874
 C531 C 1.06609 0.55341 0.65901
 C532 C 1.04558 0.57149 0.67890
 C533 C 1.05740 0.58458 0.70774
 C534 C 1.08963 0.57948 0.71655
 C535 C 1.10999 0.56098 0.69692
 C536 C 1.09819 0.54791 0.66806
 C537 C 1.11903 0.52963 0.64877
 C538 C 1.15063 0.52437 0.65773
 C539 C 1.16217 0.53713 0.68595
 C540 C 1.14220 0.55525 0.70541
 C541 C 1.03650 0.60270 0.72713
 C542 C 1.00482 0.60772 0.71831
 C543 C 0.99326 0.59491 0.69012
 C544 C 1.01329 0.57700 0.67055
 C545 C 1.10197 0.59377 0.74547
 C546 C 1.11226 0.60593 0.76931
 C547 C 1.05431 0.54116 0.62895
 C548 C 1.04429 0.53160 0.60386
 H549 H 1.11113 0.51918 0.62662
 H550 H 1.16624 0.51031 0.64270
 H551 H 1.18674 0.53297 0.69282
 H552 H 1.15227 0.56465 0.72715
 H553 H 1.04437 0.61313 0.74930
 H554 H 0.98915 0.62162 0.73344
 H555 H 0.96862 0.59887 0.68338
 H556 H 1.00318 0.56751 0.64887
 C557 C 0.84312 0.56500 0.55458
 C558 C 0.82955 0.55128 0.58220
 C559 C 0.80034 0.56345 0.59448
 C560 C 0.78486 0.58927 0.57910
 C561 C 0.79820 0.60273 0.55127
 C562 C 0.82742 0.59056 0.53897
 C563 C 0.84034 0.60444 0.51118
 C564 C 0.82482 0.62963 0.49594
 C565 C 0.79625 0.64153 0.50796
 C566 C 0.78299 0.62834 0.53531
 C567 C 0.78730 0.54939 0.62216
 C568 C 0.80266 0.52402 0.63725
 C569 C 0.83122 0.51213 0.62525
 C570 C 0.84463 0.52550 0.59806
 C571 C 0.75549 0.60220 0.59225
 C572 C 0.73129 0.61274 0.60375
 C573 C 0.87341 0.55303 0.54264
 C574 C 0.89870 0.54269 0.53355
 H575 H 0.86250 0.59598 0.50093
 H576 H 0.83502 0.63996 0.47468
 H577 H 0.78429 0.66109 0.49603
 H578 H 0.76071 0.63839 0.54376
 H579 H 0.76511 0.55778 0.63241
 H580 H 0.79233 0.51355 0.65838
 H581 H 0.84306 0.49242 0.63706
 H582 H 0.86687 0.51538 0.58963
 C583 C 0.65898 0.43612 1.05329
 C584 C 0.67055 0.40555 1.04447
 C585 C 0.69957 0.39386 1.05764
 C586 C 0.71684 0.41280 1.07955
 C587 C 0.70554 0.44358 1.08797
 C588 C 0.67654 0.45528 1.07480
 C589 C 0.66567 0.48609 1.08368
 C590 C 0.68296 0.50480 1.10495
 C591 C 0.71131 0.49335 1.11784
 C592 C 0.72258 0.46311 1.10954
 C593 C 0.71059 0.36317 1.04855
 C594 C 0.69344 0.34458 1.02708
 C595 C 0.66506 0.35601 1.01422
 C596 C 0.65363 0.38612 1.02274
 C597 C 0.74584 0.40040 1.09391
 C598 C 0.76973 0.39001 1.10615
 C599 C 0.62870 0.44760 1.04089
 C600 C 0.60339 0.45736 1.03124
 H601 H 0.64378 0.49607 1.07427
 H602 H 0.67431 0.52831 1.11146
 H603 H 0.72465 0.50797 1.13436
 H604 H 0.74477 0.45527 1.12018
 H605 H 0.73255 0.35326 1.05789
 H606 H 0.70222 0.32117 1.02038
 H607 H 0.65183 0.34147 0.99754
 H608 H 0.63146 0.39400 1.01208
 C609 C 0.15867 1.06603 -0.05252
 C610 C 0.17840 1.04513 -0.07036
 C611 C 0.20752 1.05648 -0.08345
 C612 C 0.21678 1.08864 -0.07859
 C613 C 0.19733 1.10938 -0.06030
 C614 C 0.16817 1.09804 -0.04724
 C615 C 0.14905 1.11925 -0.02917
 C616 C 0.15847 1.15077 -0.02412
 C617 C 0.18698 1.16185 -0.03688
 C618 C 0.20627 1.14151 -0.05479
 C619 C 0.22676 1.03520 -0.10133
 C620 C 0.21750 1.00359 -0.10612
 C621 C 0.18903 0.99248 -0.09330
 C622 C 0.16961 1.01290 -0.07563
 C623 C 0.24597 1.10053 -0.09290
 C624 C 0.27001 1.11050 -0.10509
 C625 C 0.12832 1.05471 -0.04027
 C626 C 0.10304 1.04493 -0.03071
 H627 H 0.12669 1.11171 -0.01873
 H628 H 0.14357 1.16667 -0.01022
 H629 H 0.19419 1.18636 -0.03288
 H630 H 0.22825 1.15123 -0.06419
 H631 H 0.24913 1.04271 -0.11175
 H632 H 0.23251 0.98763 -0.11984
 H633 H 0.18195 0.96790 -0.09708
 H634 H 0.14770 1.00313 -0.06612
 C635 C 0.34189 -0.06434 0.44590
 C636 C 0.32592 -0.04814 0.42099
 C637 C 0.29681 -0.06047 0.40877
 C638 C 0.28383 -0.08893 0.42153
 C639 C 0.29953 -0.10485 0.44677
 C640 C 0.32865 -0.09251 0.45900
 C641 C 0.34397 -0.10890 0.48415
 C642 C 0.33088 -0.13668 0.49689
 C643 C 0.30242 -0.14873 0.48494
 C644 C 0.28682 -0.13311 0.46016
 C645 C 0.28136 -0.04393 0.38377
 C646 C 0.29427 -0.01600 0.37122
 C647 C 0.32273 -0.00394 0.38316
 C648 C 0.33848 -0.01972 0.40775
 C649 C 0.25469 -0.10205 0.40823
 C650 C 0.23068 -0.11275 0.39662
 C651 C 0.37222 -0.05230 0.45751
 C652 C 0.39754 -0.04201 0.46642
 H653 H 0.36614 -0.10042 0.49426
 H654 H 0.34290 -0.14890 0.51615
 H655 H 0.29235 -0.17031 0.49492
 H656 H 0.26472 -0.14338 0.45167
 H657 H 0.25915 -0.05235 0.37369
 H658 H 0.28213 -0.00365 0.35212
 H659 H 0.33266 0.01777 0.37334
 H660 H 0.36052 -0.00937 0.41625
 C661 C 0.55202 -0.15754 0.56344
 C662 C 0.57204 -0.17667 0.54405
 C663 C 0.58486 -0.20572 0.55609
 C664 C 0.57757 -0.21550 0.58744
 C665 C 0.55708 -0.19667 0.60663
 C666 C 0.54427 -0.16759 0.59460
 C667 C 0.52399 -0.14909 0.61427
 C668 C 0.51655 -0.15904 0.64496
 C669 C 0.52906 -0.18746 0.65673
 C670 C 0.54912 -0.20616 0.63789
 C671 C 0.60496 -0.22435 0.53632
 C672 C 0.61217 -0.21456 0.50553
 C673 C 0.59963 -0.18617 0.49375
 C674 C 0.57980 -0.16734 0.51268
 C675 C 0.59168 -0.24454 0.60011
 C676 C 0.60381 -0.26850 0.61055
 C677 C 0.54022 -0.12714 0.55158
 C678 C 0.53123 -0.10175 0.54137
 H679 H 0.51365 -0.12683 0.60614
 H680 H 0.50097 -0.14461 0.65969
 H681 H 0.52320 -0.19508 0.68059
 H682 H 0.55824 -0.22810 0.64808
 H683 H 0.61527 -0.24665 0.54440
 H684 H 0.62757 -0.22911 0.49073
 H685 H 0.60529 -0.17867 0.46980
 H686 H 0.57061 -0.14547 0.50242
 C687 C 1.05509 0.65461 0.43291
 C688 C 1.08658 0.65526 0.42065
 C689 C 1.09941 0.68429 0.40875
 C690 C 1.08068 0.71252 0.40913
 C691 C 1.04909 0.71180 0.42108
 C692 C 1.03625 0.68276 0.43301
 C693 C 1.00465 0.68263 0.44490
 C694 C 0.98623 0.71042 0.44500
 C695 C 0.99877 0.73882 0.43334
 C696 C 1.02983 0.73964 0.42149
 C697 C 1.13099 0.68436 0.39672
 C698 C 1.14934 0.65653 0.39643
 C699 C 1.13679 0.62813 0.40804
 C700 C 1.10579 0.62736 0.42005
 C701 C 1.09406 0.74225 0.39742
 C702 C 1.10558 0.76673 0.38765
 C703 C 1.04247 0.62511 0.44596
 C704 C 1.03293 0.60034 0.45702
 H705 H 0.99385 0.66111 0.45419
 H706 H 0.96209 0.70991 0.45417
 H707 H 0.98436 0.76033 0.43346
 H708 H 1.03854 0.76229 0.41266
 H709 H 1.14182 0.70585 0.38740
 H710 H 1.17343 0.65701 0.38712
 H711 H 1.15113 0.60657 0.40776
 H712 H 1.09711 0.60468 0.42879
 C713 C -0.05363 1.15958 0.06724
 C714 C -0.04800 1.16859 0.09916
 C715 C -0.06087 1.19771 0.11104
 C716 C -0.07931 1.21763 0.09095
 C717 C -0.08452 1.20886 0.05889
 C718 C -0.07164 1.17976 0.04699
 C719 C -0.07728 1.17145 0.01489
 C720 C -0.09514 1.19132 -0.00489
 C721 C -0.10775 1.21976 0.00675
 C722 C -0.10259 1.22855 0.03825
 C723 C -0.05502 1.20616 0.14307
 C724 C -0.03698 1.18639 0.16279
 C725 C -0.02442 1.15791 0.15117
 C726 C -0.02979 1.14899 0.11974
 C727 C -0.09346 1.24677 0.10339
 C728 C -0.10557 1.27080 0.11374
 C729 C -0.04158 1.12926 0.05538
 C730 C -0.03214 1.10397 0.04530
 H731 H -0.06794 1.14959 0.00472
 H732 H -0.09921 1.18460 -0.02938
 H733 H -0.12162 1.23511 -0.00870
 H734 H -0.11287 1.25093 0.04620
 H735 H -0.06426 1.22809 0.15319
 H736 H -0.03274 1.19321 0.18722
 H737 H -0.01042 1.14265 0.16658
 H738 H -0.01949 1.12663 0.11177
 C739 C 0.44864 0.34040 0.93394
 C740 C 0.43113 0.32013 0.95444
 C741 C 0.41840 0.29095 0.94273
 C742 C 0.42326 0.28221 0.91060
 C743 C 0.44131 0.30217 0.89027
 C744 C 0.45403 0.33136 0.90198
 C745 C 0.47183 0.35101 0.88117
 C746 C 0.47696 0.34206 0.84970
 C747 C 0.46455 0.31351 0.83826
 C748 C 0.44690 0.29370 0.85820
 C749 C 0.40083 0.27116 0.96362
 C750 C 0.39600 0.27994 0.99519
 C751 C 0.40846 0.30846 1.00664
 C752 C 0.42584 0.32842 0.98661
 C753 C 0.40904 0.25311 0.89829
 C754 C 0.39683 0.22917 0.88804
 C755 C 0.46033 0.37089 0.94556
 C756 C 0.46940 0.39634 0.95547
 H757 H 0.48201 0.37342 0.88900
 H758 H 0.49066 0.35737 0.83411
 H759 H 0.46861 0.30666 0.81379
 H760 H 0.43777 0.27171 0.84822
 H761 H 0.39069 0.24872 0.95582
 H762 H 0.38253 0.26451 1.01084
 H763 H 0.40466 0.31517 1.03119
 H764 H 0.43508 0.35033 0.99665
 C765 C 0.56479 0.55417 0.84099
 C766 C 0.54624 0.57675 0.82398
 C767 C 0.55796 0.58974 0.79507
 C768 C 0.58814 0.58006 0.78332
 C769 C 0.60649 0.55714 0.80007
 C770 C 0.59478 0.54415 0.82900
 C771 C 0.61359 0.52138 0.84540
 C772 C 0.64314 0.51169 0.83354
 C773 C 0.65459 0.52437 0.80526
 C774 C 0.63658 0.54685 0.78861
 C775 C 0.53906 0.61239 0.77858
 C776 C 0.50941 0.62193 0.79030
 C777 C 0.49794 0.60922 0.81856
 C778 C 0.51603 0.58690 0.83531
 C779 C 0.60051 0.59409 0.75430
 C780 C 0.61076 0.60606 0.73036
 C781 C 0.55324 0.54181 0.87109
 C782 C 0.54336 0.53220 0.89621
 H783 H 0.60568 0.51081 0.86748
 H784 H 0.65723 0.49423 0.84638
 H785 H 0.67756 0.51676 0.79615
 H786 H 0.64648 0.55601 0.76671
 H787 H 0.54694 0.62294 0.75648
 H788 H 0.49527 0.63927 0.77738
 H789 H 0.47489 0.61670 0.82757
 H790 H 0.50606 0.57769 0.85716
 C791 C 0.43122 0.05474 0.65370
 C792 C 0.41911 0.08636 0.65501
 C793 C 0.40716 0.09877 0.68411
 C794 C 0.40735 0.07950 0.71174
 C795 C 0.41911 0.04777 0.71035
 C796 C 0.43109 0.03535 0.68124
 C797 C 0.44281 0.00361 0.68045
 C798 C 0.44270 -0.01536 0.70765
 C799 C 0.43099 -0.00322 0.73611
 C800 C 0.41931 0.02796 0.73759
 C801 C 0.39530 0.13049 0.68484
 C802 C 0.39522 0.14938 0.65760
 C803 C 0.40689 0.13725 0.62914
 C804 C 0.41873 0.10613 0.62772
 C805 C 0.39576 0.09251 0.74158
 C806 C 0.38618 0.10380 0.76616
 C807 C 0.44431 0.04252 0.62414
 C808 C 0.45538 0.03320 0.59937
 H809 H 0.45213 -0.00689 0.65885
 H810 H 0.45174 -0.03960 0.70662
 H811 H 0.43096 -0.01805 0.75716
 H812 H 0.41043 0.03633 0.76025
 H813 H 0.38594 0.14101 0.70641
 H814 H 0.38605 0.17358 0.65859
 H815 H 0.40677 0.15202 0.60804
 H816 H 0.42753 0.09778 0.60502
 C817 C 0.06543 0.94700 0.15921
 C818 C 0.04409 0.93131 0.18010
 C819 C 0.05557 0.91817 0.20906
 C820 C 0.08831 0.92084 0.21698
 C821 C 0.10954 0.93700 0.19636
 C822 C 0.09806 0.95010 0.16738
 C823 C 0.11976 0.96601 0.14707
 C824 C 0.15188 0.96890 0.15517
 C825 C 0.16310 0.95610 0.18351
 C826 C 0.14228 0.94030 0.20396
 C827 C 0.03383 0.90245 0.22947
 C828 C 0.00165 0.89981 0.22151
 C829 C -0.00959 0.91267 0.19321
 C830 C 0.01128 0.92825 0.17264
 C831 C 0.10025 0.90646 0.24603
 C832 C 0.11033 0.89427 0.26995
 C833 C 0.05391 0.95921 0.12904
 C834 C 0.04404 0.96874 0.10387
 H835 H 0.11215 0.97639 0.12478
 H836 H 0.16815 0.98116 0.13936
 H837 H 0.18807 0.95843 0.18970
 H838 H 0.15214 0.93078 0.22575
 H839 H 0.04143 0.89209 0.25177
 H840 H -0.01466 0.88773 0.23741
 H841 H -0.03461 0.91058 0.18713
 H842 H 0.00139 0.93789 0.15092
 C843 C 0.93175 0.44432 0.34679
 C844 C 0.91990 0.41266 0.34567
 C845 C 0.90779 0.40013 0.31671
 C846 C 0.90757 0.41934 0.28903
 C847 C 0.91911 0.45110 0.29022
 C848 C 0.93124 0.46363 0.31919
 C849 C 0.94273 0.49540 0.31979
 C850 C 0.94223 0.51429 0.29254
 C851 C 0.93037 0.50205 0.26423
 C852 C 0.91892 0.47083 0.26294
 C853 C 0.89617 0.36838 0.31617
 C854 C 0.89648 0.34956 0.34345
 C855 C 0.90829 0.36181 0.37177
 C856 C 0.91991 0.39297 0.37301
 C857 C 0.89573 0.40625 0.25934
 C858 C 0.88594 0.39495 0.23488
 C859 C 0.94494 0.45668 0.37622
 C860 C 0.95608 0.46613 0.40089
 H861 H 0.95216 0.50598 0.34127
 H862 H 0.95109 0.53856 0.29342
 H863 H 0.93003 0.51682 0.24313
 H864 H 0.90991 0.46237 0.24037
 H865 H 0.88672 0.35777 0.29471
 H866 H 0.88748 0.32534 0.34261
 H867 H 0.90847 0.34710 0.39292
 H868 H 0.92884 0.40140 0.39561
   
