data_POSCAR
  _audit_creation_date              2014-09-24
  _audit_creation_method            'ToBaCCo'
  _symmetry_space_group_name_H-M    'P1'
  _symmetry_Int_Tables_number       1
  _symmetry_cell_setting            triclinic
  loop_
  _symmetry_equiv_pos_as_xyz
 x,y,z
_cell_length_a 45.8121
_cell_length_b 37.7622
_cell_length_c 31.4615
_cell_angle_alpha 89.649300
_cell_angle_beta 89.266700
_cell_angle_gamma 89.712900
loop_
  _atom_site_label
  _atom_site_type_symbol
  _atom_site_fract_x
  _atom_site_fract_y
  _atom_site_fract_z
C1 C 1.25286 0.24595 0.25369
 C2 C 0.74627 -0.25109 0.25010
 C3 C 0.74598 0.24738 -0.25616
 C4 C 1.25235 -0.25328 -0.24891
 C5 C 0.25533 0.25029 0.74474
 C6 C 0.74656 0.75614 0.74859
 C7 C 0.74895 0.25296 0.25831
 C8 C 0.25243 0.75389 0.25107
 O9 O 1.04103 0.06300 0.07585
 O10 O 1.07360 0.03218 0.03406
 C11 C 1.06746 0.05472 0.06395
 O12 O 0.96027 -0.06388 0.07321
 O13 O 0.92748 -0.03015 0.03601
 C14 C 0.93382 -0.05514 0.06297
 O15 O 1.04147 -0.05972 0.07628
 O16 O 1.07384 -0.02863 0.03444
 C17 C 1.06781 -0.05127 0.06455
 O18 O 0.95959 0.06603 0.07369
 O19 O 0.92704 0.03297 0.03608
 C20 C 0.93321 0.05735 0.06354
 Zr21 Zr 1.00029 0.04606 0.05245
 O22 O 0.99764 0.04513 0.11967
 O23 O 1.00314 0.10201 0.05243
 Zr24 Zr 1.00076 -0.04272 0.05277
 O25 O 0.99922 -0.03865 0.11973
 O26 O 1.00406 -0.09860 0.05568
 O27 O 1.02683 0.00167 0.06031
 O28 O 0.97480 0.00152 0.06086
 O29 O 0.95912 0.06696 -0.07397
 O30 O 0.92694 0.03299 -0.03527
 C31 C 0.93279 0.05793 -0.06265
 O32 O 1.04176 -0.05968 -0.07905
 O33 O 1.07392 -0.02781 -0.03942
 C34 C 1.06809 -0.05085 -0.06851
 O35 O 0.96006 -0.06290 -0.07395
 O36 O 0.92731 -0.02971 -0.03519
 C37 C 0.93360 -0.05419 -0.06277
 O38 O 1.04068 0.06368 -0.07968
 O39 O 1.07344 0.03239 -0.03947
 C40 C 1.06713 0.05519 -0.06909
 Zr41 Zr 1.00005 0.04640 -0.05484
 O42 O 0.99660 0.04567 -0.12189
 O43 O 1.00299 0.10233 -0.05580
 Zr44 Zr 1.00072 -0.04255 -0.05465
 O45 O 0.99748 -0.04134 -0.12174
 O46 O 1.00421 -0.09847 -0.05526
 Zr47 Zr 1.04429 0.00189 -0.00196
 Zr48 Zr 0.95655 0.00164 -0.00016
 O49 O 0.97476 0.00187 -0.06194
 O50 O 1.02665 0.00205 -0.06361
 O51 O 0.97404 0.05322 -0.00062
 O52 O 1.02614 -0.04920 -0.00139
 O53 O 1.02552 0.05289 -0.00175
 O54 O 0.97475 -0.04979 -0.00041
 H55 H 0.96155 0.00130 0.08602
 H56 H 1.03923 -0.07016 -0.00147
 H57 H 0.96149 0.00197 -0.08656
 H58 H 1.03840 0.07389 -0.00203
 H59 H 0.99033 -0.10814 0.03470
 H60 H 0.98825 -0.10796 -0.03712
 H61 H 1.01458 -0.02832 -0.13313
 H62 H 1.01360 0.03237 -0.13332
 H63 H 0.98736 0.11162 -0.03693
 H64 H 0.98685 0.11135 0.03528
 H65 H 1.01233 0.02783 0.12979
 H66 H 0.99932 -0.06326 0.13085
 O67 O 1.04258 0.56042 0.58002
 O68 O 1.07472 0.52913 0.53807
 C69 C 1.06885 0.55157 0.56808
 O70 O 0.95905 0.43664 0.57180
 O71 O 0.92727 0.47237 0.53537
 C72 C 0.93288 0.44642 0.56136
 O73 O 1.04048 0.43722 0.57497
 O74 O 1.07379 0.46882 0.53521
 C75 C 1.06703 0.44491 0.56348
 O76 O 0.96152 0.56715 0.57596
 O77 O 0.92846 0.53604 0.53702
 C78 C 0.93509 0.56014 0.56454
 Zr79 Zr 1.00170 0.54510 0.55595
 O80 O 0.99824 0.54074 0.62296
 O81 O 1.00594 0.60072 0.56070
 Zr82 Zr 1.00020 0.45650 0.55245
 O83 O 1.00125 0.45348 0.61974
 O84 O 0.99991 0.40074 0.54685
 O85 O 1.02716 0.49974 0.56229
 O86 O 0.97505 0.50143 0.56208
 O87 O 0.96237 0.57182 0.43098
 O88 O 0.92885 0.53772 0.46696
 C89 C 0.93578 0.56376 0.44166
 O90 O 1.04172 0.44151 0.42114
 O91 O 1.07422 0.47147 0.46233
 C92 C 1.06811 0.44893 0.43279
 O93 O 0.96050 0.43999 0.42615
 O94 O 0.92794 0.47346 0.46497
 C95 C 0.93417 0.44874 0.43768
 O96 O 1.04331 0.56548 0.42552
 O97 O 1.07526 0.53239 0.46514
 C98 C 1.06947 0.55647 0.43674
 Zr99 Zr 1.00232 0.54834 0.44834
 O100 O 0.99947 0.54755 0.38121
 O101 O 1.00646 0.60411 0.44672
 Zr102 Zr 1.00107 0.45999 0.44518
 O103 O 1.00017 0.46698 0.37852
 O104 O 1.00229 0.40421 0.43966
 Zr105 Zr 1.04504 0.50130 0.50028
 Zr106 Zr 0.95737 0.50396 0.50081
 O107 O 0.97577 0.50511 0.43922
 O108 O 1.02817 0.50364 0.43836
 O109 O 0.97630 0.55472 0.50259
 O110 O 1.02587 0.45088 0.49849
 O111 O 1.02729 0.55278 0.50227
 O112 O 0.97457 0.45211 0.49874
 H113 H 0.96123 0.50148 0.58653
 H114 H 1.03830 0.42934 0.49755
 H115 H 0.96237 0.50622 0.41476
 H116 H 1.04041 0.57353 0.50313
 H117 H 1.00017 0.39115 0.57624
 H118 H 0.99328 0.39455 0.46599
 H119 H 0.99974 0.44287 0.36631
 H120 H 1.01626 0.53361 0.37020
 H121 H 0.99367 0.61367 0.46948
 H122 H 0.99203 0.61157 0.54064
 H123 H 1.01337 0.52371 0.63233
 H124 H 0.98385 0.46579 0.63142
 O125 O 0.54898 -0.05597 0.57246
 O126 O 0.52358 -0.09420 0.53018
 C127 C 0.54209 -0.08749 0.56013
 O128 O 0.44803 0.04616 0.57346
 O129 O 0.47565 0.08613 0.53550
 C130 C 0.45547 0.07823 0.56343
 O131 O 0.44839 -0.05168 0.57558
 O132 O 0.47235 -0.09187 0.53297
 C133 C 0.45392 -0.08370 0.56323
 O134 O 0.55447 0.04168 0.57035
 O135 O 0.52871 0.08372 0.53310
 C136 C 0.54874 0.07420 0.55995
 Zr137 Zr 0.53632 -0.00597 0.54920
 O138 O 0.53621 -0.00387 0.61645
 O139 O 0.58232 -0.01183 0.54769
 Zr140 Zr 0.46362 -0.00305 0.55177
 O141 O 0.46767 -0.00291 0.61863
 O142 O 0.41749 -0.00470 0.55594
 O143 O 0.49925 -0.03678 0.55793
 O144 O 0.50072 0.02674 0.55892
 O145 O 0.55341 0.04528 0.42277
 O146 O 0.52742 0.08564 0.46242
 C147 C 0.54741 0.07742 0.43435
 O148 O 0.44738 -0.04917 0.42028
 O149 O 0.47199 -0.09100 0.45934
 C150 C 0.45335 -0.08174 0.43040
 O151 O 0.44617 0.04873 0.42612
 O152 O 0.47379 0.08710 0.46510
 C153 C 0.45318 0.08022 0.43825
 O154 O 0.54824 -0.05239 0.41594
 O155 O 0.52238 -0.09236 0.45654
 C156 C 0.54097 -0.08444 0.42640
 Zr157 Zr 0.53557 -0.00346 0.44210
 O158 O 0.53457 0.00243 0.37514
 O159 O 0.58156 -0.00930 0.43981
 Zr160 Zr 0.46275 -0.00091 0.44446
 O161 O 0.46402 0.00469 0.37740
 O162 O 0.41660 -0.00312 0.44405
 Zr163 Zr 0.49832 -0.05677 0.49557
 Zr164 Zr 0.50068 0.05023 0.49812
 O165 O 0.49974 0.02937 0.43631
 O166 O 0.49841 -0.03401 0.43413
 O167 O 0.54254 0.02666 0.49621
 O168 O 0.45690 -0.03246 0.49765
 O169 O 0.54080 -0.03574 0.49470
 O170 O 0.45793 0.02974 0.49907
 H171 H 0.50133 0.04226 0.58418
 H172 H 0.43912 -0.04729 0.49797
 H173 H 0.49981 0.04612 0.41193
 H174 H 0.55778 -0.05208 0.49368
 H175 H 0.40984 0.01385 0.53670
 H176 H 0.40924 0.01418 0.46512
 H177 H 0.47279 -0.01710 0.36536
 H178 H 0.52266 -0.01703 0.36376
 H179 H 0.58992 0.00916 0.45813
 H180 H 0.59038 0.00770 0.53013
 H181 H 0.52161 -0.02114 0.62703
 H182 H 0.44753 -0.00201 0.63045
 O183 O 0.53821 0.55851 0.08122
 O184 O 0.57122 0.52907 0.03876
 C185 C 0.56469 0.55115 0.06885
 O186 O 0.45934 0.42803 0.06932
 O187 O 0.42631 0.46357 0.03502
 C188 C 0.43282 0.43676 0.05910
 O189 O 0.54073 0.43465 0.07501
 O190 O 0.57253 0.46903 0.03605
 C191 C 0.56686 0.44457 0.06412
 O192 O 0.45700 0.55980 0.07835
 O193 O 0.42540 0.52690 0.03906
 C194 C 0.43096 0.55122 0.06674
 Zr195 Zr 0.49791 0.54055 0.05768
 O196 O 0.49490 0.53555 0.12468
 O197 O 0.49935 0.59639 0.06259
 Zr198 Zr 0.49976 0.45208 0.05335
 O199 O 0.49775 0.45561 0.12032
 O200 O 0.50214 0.39623 0.05784
 O201 O 0.52518 0.49670 0.06332
 O202 O 0.47296 0.49523 0.06357
 O203 O 0.45624 0.56618 -0.06505
 O204 O 0.42487 0.52849 -0.03009
 C205 C 0.43015 0.55563 -0.05435
 O206 O 0.54186 0.44114 -0.07898
 O207 O 0.57310 0.47237 -0.03712
 C208 C 0.56789 0.45014 -0.06731
 O209 O 0.46049 0.43427 -0.07346
 O210 O 0.42715 0.46572 -0.03382
 C211 C 0.43399 0.44147 -0.06126
 O212 O 0.53817 0.56493 -0.07232
 O213 O 0.57133 0.53244 -0.03412
 C214 C 0.56469 0.55674 -0.06179
 Zr215 Zr 0.49779 0.54478 -0.05013
 O216 O 0.49649 0.54109 -0.11704
 O217 O 0.49741 0.60065 -0.05480
 Zr218 Zr 0.50040 0.45628 -0.05441
 O219 O 0.49732 0.46100 -0.12132
 O220 O 0.50484 0.40065 -0.05958
 Zr221 Zr 0.54256 0.49979 0.00105
 Zr222 Zr 0.45544 0.49712 0.00221
 O223 O 0.47325 0.50002 -0.05963
 O224 O 0.52544 0.50179 -0.06081
 O225 O 0.47203 0.54903 0.00457
 O226 O 0.52548 0.44825 -0.00112
 O227 O 0.52286 0.55017 0.00374
 O228 O 0.47462 0.44629 -0.00067
 H229 H 0.45920 0.49373 0.08808
 H230 H 0.53903 0.42777 -0.00248
 H231 H 0.45959 0.50064 -0.08381
 H232 H 0.53527 0.57153 0.00478
 H233 H 0.50748 0.38740 0.02929
 H234 H 0.49124 0.38990 -0.03856
 H235 H 0.51375 0.47596 -0.13130
 H236 H 0.49502 0.56575 -0.12773
 H237 H 0.50131 0.60975 -0.02608
 H238 H 0.48505 0.60616 0.04227
 H239 H 0.51196 0.52152 0.13414
 H240 H 0.49731 0.43090 0.13104
 C241 C 1.19687 0.17299 0.18374
 C242 C 1.18524 0.20411 0.20085
 C243 C 1.20293 0.22739 0.22309
 C244 C 1.23272 0.21958 0.23040
 C245 C 1.24453 0.18917 0.21030
 C246 C 1.22670 0.16578 0.18798
 C247 C 1.17776 0.14911 0.16175
 C248 C 1.16021 0.13050 0.14435
 C249 C 1.13753 0.10993 0.12486
 C250 C 1.10872 0.11377 0.13946
 C251 C 1.08613 0.09544 0.12004
 C252 C 1.09190 0.07282 0.08548
 C253 C 1.12103 0.06866 0.07131
 C254 C 1.14367 0.08717 0.09084
 H255 H 1.16239 0.21062 0.19668
 H256 H 1.19302 0.25185 0.23373
 H257 H 1.26764 0.18337 0.21219
 H258 H 1.23620 0.14221 0.17394
 H259 H 1.10364 0.13132 0.16569
 H260 H 1.06408 0.09930 0.13196
 H261 H 1.12628 0.05155 0.04476
 H262 H 1.16587 0.08402 0.07912
 C263 C 1.19785 0.67327 0.68065
 C264 C 1.22315 0.68657 0.66117
 C265 C 1.24085 0.71043 0.68285
 C266 C 1.23300 0.72223 0.72407
 C267 C 1.20802 0.70709 0.74363
 C268 C 1.19050 0.68339 0.72200
 C269 C 1.17888 0.64951 0.65876
 C270 C 1.16147 0.63029 0.64232
 C271 C 1.13897 0.60863 0.62476
 C272 C 1.14486 0.58568 0.59092
 C273 C 1.12222 0.56608 0.57318
 C274 C 1.09345 0.56946 0.58903
 C275 C 1.08802 0.59201 0.62370
 C276 C 1.11061 0.61140 0.64137
 H277 H 1.22937 0.67824 0.62941
 H278 H 1.26095 0.71858 0.66750
 H279 H 1.20202 0.71385 0.77600
 H280 H 1.17118 0.67285 0.73767
 H281 H 1.16677 0.58333 0.57786
 H282 H 1.12714 0.54899 0.54651
 H283 H 1.06620 0.59520 0.63682
 H284 H 1.10585 0.62903 0.66764
 C285 C 0.68146 0.18945 0.67084
 C286 C 0.70444 0.20617 0.64910
 C287 C 0.72658 0.22294 0.67172
 C288 C 0.72543 0.22440 0.71664
 C289 C 0.70367 0.20425 0.73779
 C290 C 0.68173 0.18751 0.71518
 C291 C 0.65730 0.17438 0.64837
 C292 C 0.63652 0.16089 0.63181
 C293 C 0.61167 0.14269 0.61488
 C294 C 0.59949 0.11494 0.63859
 C295 C 0.57749 0.09427 0.62148
 C296 C 0.56715 0.10107 0.58032
 C297 C 0.57819 0.13027 0.55747
 C298 C 0.60053 0.15094 0.57463
 H299 H 0.70503 0.20674 0.61467
 H300 H 0.74405 0.23518 0.65368
 H301 H 0.70264 0.20343 0.77219
 H302 H 0.66447 0.17387 0.73244
 H303 H 0.60775 0.10841 0.66982
 H304 H 0.56932 0.07198 0.63984
 H305 H 0.57084 0.13576 0.52559
 H306 H 0.60975 0.17245 0.55601
 C307 C 0.69382 0.67583 0.17646
 C308 C 0.69418 0.71191 0.16641
 C309 C 0.71190 0.73489 0.18907
 C310 C 0.73018 0.72217 0.22171
 C311 C 0.72904 0.68556 0.23166
 C312 C 0.71136 0.66271 0.20891
 C313 C 0.67347 0.65276 0.15641
 C314 C 0.65562 0.63361 0.14100
 C315 C 0.63337 0.61143 0.12393
 C316 C 0.63962 0.58868 0.09005
 C317 C 0.61744 0.56818 0.07277
 C318 C 0.58875 0.57037 0.08921
 C319 C 0.58292 0.59283 0.12383
 C320 C 0.60510 0.61318 0.14103
 H321 H 0.68008 0.72248 0.14197
 H322 H 0.71086 0.76293 0.18183
 H323 H 0.74062 0.67440 0.25832
 H324 H 0.71054 0.63495 0.21777
 H325 H 0.66150 0.58713 0.07670
 H326 H 0.62262 0.55128 0.04601
 H327 H 0.56111 0.59515 0.13726
 H328 H 0.60011 0.63065 0.16737
 C329 C 0.80290 -0.17673 0.18110
 C330 C 0.79582 -0.17145 0.22395
 C331 C 0.77723 -0.19500 0.24536
 C332 C 0.76468 -0.22400 0.22418
 C333 C 0.77280 -0.22939 0.18113
 C334 C 0.79138 -0.20576 0.15982
 C335 C 0.82361 -0.15384 0.15981
 C336 C 0.84171 -0.13545 0.14247
 C337 C 0.86441 -0.11455 0.12263
 C338 C 0.85792 -0.08929 0.09128
 C339 C 0.88039 -0.06965 0.07190
 C340 C 0.90965 -0.07515 0.08364
 C341 C 0.91579 -0.10054 0.11532
 C342 C 0.89338 -0.12001 0.13458
 H343 H 0.80513 -0.14952 0.24111
 H344 H 0.77275 -0.19082 0.27884
 H345 H 0.76576 -0.25243 0.16392
 H346 H 0.79737 -0.21071 0.12695
 H347 H 0.83556 -0.08489 0.08169
 H348 H 0.87489 -0.05042 0.04759
 H349 H 0.93799 -0.10550 0.12529
 H350 H 0.89869 -0.13949 0.15874
 C351 C 0.80285 0.32039 0.67273
 C352 C 0.77289 0.31965 0.66503
 C353 C 0.75496 0.29585 0.68739
 C354 C 0.76669 0.27146 0.71707
 C355 C 0.79692 0.27388 0.72546
 C356 C 0.81470 0.29761 0.70312
 C357 C 0.82183 0.34483 0.65063
 C358 C 0.83936 0.36422 0.63371
 C359 C 0.86224 0.38576 0.61550
 C360 C 0.85622 0.41300 0.58642
 C361 C 0.87909 0.43321 0.56897
 C362 C 0.90821 0.42626 0.58042
 C363 C 0.91382 0.39894 0.60990
 C364 C 0.89105 0.37895 0.62722
 H365 H 0.76332 0.33770 0.64216
 H366 H 0.73172 0.29654 0.68162
 H367 H 0.80712 0.25842 0.75019
 H368 H 0.83778 0.29860 0.71017
 H369 H 0.83397 0.41852 0.57713
 H370 H 0.87400 0.45402 0.54639
 H371 H 0.93588 0.39278 0.61956
 H372 H 0.89598 0.35798 0.64973
 C373 C 0.32177 -0.20042 0.67821
 C374 C 0.29318 -0.20034 0.66293
 C375 C 0.27069 -0.21624 0.68686
 C376 C 0.27668 -0.23385 0.72557
 C377 C 0.30518 -0.23054 0.74197
 C378 C 0.32745 -0.21474 0.71821
 C379 C 0.34548 -0.18465 0.65446
 C380 C 0.36626 -0.17100 0.63721
 C381 C 0.39136 -0.15305 0.61968
 C382 C 0.40486 -0.12721 0.64413
 C383 C 0.42709 -0.10654 0.62654
 C384 C 0.43631 -0.11150 0.58419
 C385 C 0.42407 -0.13905 0.56059
 C386 C 0.40152 -0.15968 0.57823
 H387 H 0.28828 -0.18810 0.63261
 H388 H 0.24872 -0.21575 0.67456
 H389 H 0.31062 -0.24034 0.77326
 H390 H 0.34922 -0.21362 0.73122
 H391 H 0.39735 -0.12201 0.67631
 H392 H 0.43615 -0.08545 0.64540
 H393 H 0.43051 -0.14301 0.52779
 H394 H 0.39129 -0.17973 0.55905
 C395 C 0.30415 0.30252 0.15739
 C396 C 0.27419 0.30916 0.16146
 C397 C 0.25731 0.28921 0.19021
 C398 C 0.27056 0.26391 0.21722
 C399 C 0.29993 0.25456 0.20829
 C400 C 0.31663 0.27417 0.17938
 C401 C 0.32306 0.32648 0.13460
 C402 C 0.34069 0.34621 0.11860
 C403 C 0.36347 0.36895 0.10268
 C404 C 0.35720 0.39788 0.07628
 C405 C 0.37969 0.42031 0.06242
 C406 C 0.40871 0.41402 0.07491
 C407 C 0.41465 0.38486 0.10153
 C408 C 0.39220 0.36258 0.11528
 H409 H 0.26411 0.33056 0.14378
 H410 H 0.23427 0.29526 0.19355
 H411 H 0.31056 0.23284 0.22456
 H412 H 0.33965 0.26805 0.17548
 H413 H 0.33500 0.40316 0.06654
 H414 H 0.37435 0.44242 0.04183
 H415 H 0.43668 0.37914 0.11171
 H416 H 0.39725 0.34038 0.13596
 C417 C 0.79903 0.17191 -0.18346
 C418 C 0.77840 0.19290 -0.16204
 C419 C 0.76038 0.21625 -0.18470
 C420 C 0.76339 0.22000 -0.22932
 C421 C 0.78263 0.19639 -0.25051
 C422 C 0.80053 0.17311 -0.22785
 C423 C 0.81980 0.15060 -0.16023
 C424 C 0.83830 0.13362 -0.14191
 C425 C 0.86166 0.11440 -0.12145
 C426 C 0.89063 0.12224 -0.13237
 C427 C 0.91362 0.10393 -0.11322
 C428 C 0.90809 0.07730 -0.08266
 C429 C 0.87886 0.06958 -0.07173
 C430 C 0.85583 0.08801 -0.09102
 H431 H 0.77650 0.19163 -0.12770
 H432 H 0.74434 0.23124 -0.16685
 H433 H 0.78470 0.19720 -0.28484
 H434 H 0.81608 0.15665 -0.24498
 H435 H 0.89549 0.14257 -0.15583
 H436 H 0.93575 0.11068 -0.12249
 H437 H 0.87377 0.04931 -0.04833
 H438 H 0.83351 0.08167 -0.08223
 C439 C 0.80960 0.69194 0.32774
 C440 C 0.79011 0.71543 0.34747
 C441 C 0.77024 0.73486 0.32310
 C442 C 0.76892 0.73014 0.27860
 C443 C 0.79036 0.70837 0.25919
 C444 C 0.81013 0.68910 0.28353
 C445 C 0.82940 0.67069 0.35225
 C446 C 0.84673 0.65236 0.37075
 C447 C 0.86863 0.63055 0.39028
 C448 C 0.89796 0.63695 0.38059
 C449 C 0.91962 0.61511 0.39726
 C450 C 0.91231 0.58635 0.42400
 C451 C 0.88271 0.58019 0.43391
 C452 C 0.86096 0.60219 0.41703
 H453 H 0.79020 0.71867 0.38166
 H454 H 0.75603 0.75337 0.33943
 H455 H 0.79103 0.70526 0.22500
 H456 H 0.82564 0.67163 0.26782
 H457 H 0.90411 0.65871 0.35977
 H458 H 0.94213 0.62082 0.38900
 H459 H 0.87636 0.55839 0.45447
 H460 H 0.83824 0.59693 0.42452
 C461 C 0.31725 0.19888 0.33886
 C462 C 0.31738 0.23508 0.32977
 C463 C 0.29565 0.24989 0.30450
 C464 C 0.27374 0.22865 0.28636
 C465 C 0.27218 0.19287 0.29955
 C466 C 0.29410 0.17802 0.32487
 C467 C 0.34210 0.18288 0.35926
 C468 C 0.36354 0.16911 0.37418
 C469 C 0.38926 0.15124 0.38954
 C470 C 0.39791 0.15426 0.43197
 C471 C 0.42088 0.13329 0.44736
 C472 C 0.43521 0.10906 0.42051
 C473 C 0.42736 0.10759 0.37753
 C474 C 0.40465 0.12862 0.36215
 H475 H 0.33491 0.25167 0.34086
 H476 H 0.29696 0.27784 0.29686
 H477 H 0.25454 0.17598 0.28988
 H478 H 0.29340 0.15003 0.33259
 H479 H 0.38609 0.17157 0.45355
 H480 H 0.42591 0.13402 0.48077
 H481 H 0.43786 0.08877 0.35635
 H482 H 0.39824 0.12605 0.32928
 C483 C 0.29618 0.67286 -0.16320
 C484 C 0.27475 0.69550 -0.14633
 C485 C 0.25934 0.71850 -0.17324
 C486 C 0.26618 0.72017 -0.21718
 C487 C 0.28616 0.69491 -0.23361
 C488 C 0.30116 0.67195 -0.20695
 C489 C 0.31516 0.65235 -0.13659
 C490 C 0.33338 0.63553 -0.11788
 C491 C 0.35720 0.61623 -0.09944
 C492 C 0.35236 0.58531 -0.07574
 C493 C 0.37609 0.56547 -0.06100
 C494 C 0.40492 0.57631 -0.07004
 C495 C 0.40943 0.60760 -0.09361
 C496 C 0.38574 0.62735 -0.10818
 H497 H 0.27031 0.69581 -0.11243
 H498 H 0.24243 0.73488 -0.15929
 H499 H 0.29118 0.69411 -0.26731
 H500 H 0.31744 0.65423 -0.22045
 H501 H 0.33034 0.57631 -0.06917
 H502 H 0.37183 0.54154 -0.04289
 H503 H 0.43127 0.61683 -0.10098
 H504 H 0.38971 0.65110 -0.12685
 C505 C 1.19976 -0.16950 -0.18905
 C506 C 1.22775 -0.17722 -0.17408
 C507 C 1.24497 -0.20321 -0.19411
 C508 C 1.23394 -0.22326 -0.22812
 C509 C 1.20680 -0.21251 -0.24507
 C510 C 1.18977 -0.18654 -0.22527
 C511 C 1.18039 -0.14540 -0.16692
 C512 C 1.16246 -0.12668 -0.14953
 C513 C 1.13931 -0.10608 -0.13008
 C514 C 1.14493 -0.08241 -0.09709
 C515 C 1.12187 -0.06388 -0.07745
 C516 C 1.09286 -0.06893 -0.09048
 C517 C 1.08760 -0.09243 -0.12405
 C518 C 1.11062 -0.11078 -0.14361
 H519 H 1.23610 -0.16357 -0.14664
 H520 H 1.26661 -0.20853 -0.18211
 H521 H 1.19833 -0.22426 -0.27360
 H522 H 1.16852 -0.18009 -0.23802
 H523 H 1.16703 -0.07858 -0.08624
 H524 H 1.12673 -0.04608 -0.05166
 H525 H 1.06564 -0.09696 -0.13503
 H526 H 1.10596 -0.12904 -0.16906
 C527 C 1.19932 0.31990 0.32816
 C528 C 1.22221 0.33296 0.30295
 C529 C 1.24029 0.30966 0.28028
 C530 C 1.23501 0.27276 0.28090
 C531 C 1.21377 0.26000 0.31008
 C532 C 1.19569 0.28334 0.33270
 C533 C 1.17861 0.34395 0.34739
 C534 C 1.16045 0.36374 0.36216
 C535 C 1.13783 0.38667 0.37864
 C536 C 1.14362 0.41053 0.41131
 C537 C 1.12114 0.43168 0.42813
 C538 C 1.09254 0.42911 0.41252
 C539 C 1.08717 0.40554 0.37906
 C540 C 1.10964 0.38453 0.36229
 H541 H 1.22583 0.36122 0.30025
 H542 H 1.25823 0.32093 0.26225
 H543 H 1.21028 0.23180 0.31378
 H544 H 1.17843 0.27284 0.35290
 H545 H 1.16537 0.41243 0.42420
 H546 H 1.12605 0.44940 0.45398
 H547 H 1.06547 0.40284 0.36624
 H548 H 1.10493 0.36620 0.33694
 C549 C 0.66960 -0.20672 0.31499
 C550 C 0.67938 -0.24084 0.32473
 C551 C 0.70455 -0.25425 0.30494
 C552 C 0.72101 -0.23354 0.27567
 C553 C 0.71033 -0.19931 0.26578
 C554 C 0.68516 -0.18601 0.28561
 C555 C 0.64330 -0.19279 0.33416
 C556 C 0.62171 -0.17905 0.34907
 C557 C 0.59707 -0.15941 0.36540
 C558 C 0.58881 -0.12841 0.34421
 C559 C 0.56868 -0.10533 0.36287
 C560 C 0.55642 -0.11291 0.40311
 C561 C 0.56290 -0.14553 0.42269
 C562 C 0.58346 -0.16856 0.40409
 H563 H 0.66730 -0.25732 0.34702
 H564 H 0.71098 -0.28127 0.31193
 H565 H 0.72052 -0.18303 0.24151
 H566 H 0.67743 -0.15973 0.27726
 H567 H 0.59908 -0.12111 0.31422
 H568 H 0.56381 -0.08062 0.34672
 H569 H 0.55353 -0.15215 0.45342
 H570 H 0.58969 -0.19257 0.42074
 C571 C 0.69649 0.32687 -0.18373
 C572 C 0.72587 0.32045 -0.17469
 C573 C 0.74157 0.29477 -0.19766
 C574 C 0.72790 0.27410 -0.22905
 C575 C 0.69859 0.28265 -0.23888
 C576 C 0.68311 0.30815 -0.21608
 C577 C 0.67927 0.35250 -0.16074
 C578 C 0.66233 0.37259 -0.14373
 C579 C 0.63961 0.39457 -0.12588
 C580 C 0.64448 0.41569 -0.09028
 C581 C 0.62133 0.43483 -0.07191
 C582 C 0.59305 0.43279 -0.08881
 C583 C 0.58867 0.41216 -0.12521
 C584 C 0.61178 0.39326 -0.14355
 H585 H 0.73666 0.33536 -0.15020
 H586 H 0.76448 0.29089 -0.19090
 H587 H 0.68738 0.27059 -0.26504
 H588 H 0.66058 0.31358 -0.22414
 H589 H 0.66593 0.41682 -0.07628
 H590 H 0.62540 0.45035 -0.04379
 H591 H 0.56726 0.41007 -0.13915
 H592 H 0.60778 0.37699 -0.17111
 C593 C 1.19656 0.17538 -0.19146
 C594 C 1.19811 0.21052 -0.17810
 C595 C 1.21700 0.23415 -0.19862
 C596 C 1.23556 0.22297 -0.23223
 C597 C 1.23259 0.18778 -0.24667
 C598 C 1.21361 0.16415 -0.22605
 C599 C 1.17630 0.15157 -0.17088
 C600 C 1.15856 0.13263 -0.15365
 C601 C 1.13624 0.11140 -0.13350
 C602 C 1.10749 0.11442 -0.14742
 C603 C 1.08521 0.09565 -0.12688
 C604 C 1.09130 0.07346 -0.09192
 C605 C 1.12041 0.07003 -0.07855
 C606 C 1.14273 0.08899 -0.09920
 H607 H 1.18445 0.21980 -0.15206
 H608 H 1.21728 0.26135 -0.18799
 H609 H 1.24447 0.17843 -0.27434
 H610 H 1.21191 0.13726 -0.23753
 H611 H 1.10219 0.13172 -0.17385
 H612 H 1.06312 0.09886 -0.13820
 H613 H 1.12585 0.05326 -0.05172
 H614 H 1.16493 0.08656 -0.08805
 C615 C 1.19073 0.69348 0.32576
 C616 C 1.20828 0.71814 0.34614
 C617 C 1.22739 0.73951 0.32234
 C618 C 1.23036 0.73531 0.27764
 C619 C 1.20983 0.71299 0.25773
 C620 C 1.19081 0.69191 0.28151
 C621 C 1.17251 0.66935 0.34943
 C622 C 1.15648 0.64829 0.36651
 C623 C 1.13590 0.62321 0.38360
 C624 C 1.10949 0.61877 0.36268
 C625 C 1.08852 0.59574 0.37911
 C626 C 1.09362 0.57666 0.41685
 C627 C 1.12069 0.58017 0.43700
 C628 C 1.14175 0.60350 0.42045
 H629 H 1.20744 0.72060 0.38042
 H630 H 1.24005 0.75876 0.33937
 H631 H 1.20974 0.71029 0.22349
 H632 H 1.17660 0.67370 0.26529
 H633 H 1.10487 0.63363 0.33394
 H634 H 1.06799 0.59347 0.36267
 H635 H 1.12511 0.56599 0.46625
 H636 H 1.16226 0.60662 0.43674
 C637 C 0.67475 0.20720 0.32794
 C638 C 0.68288 0.24228 0.33469
 C639 C 0.70719 0.25628 0.31325
 C640 C 0.72443 0.23528 0.28531
 C641 C 0.71525 0.20013 0.27826
 C642 C 0.69100 0.18625 0.29974
 C643 C 0.64940 0.19225 0.34862
 C644 C 0.62882 0.17682 0.36409
 C645 C 0.60579 0.15434 0.37988
 C646 C 0.58682 0.16453 0.41305
 C647 C 0.56650 0.14022 0.42985
 C648 C 0.56543 0.10548 0.41397
 C649 C 0.58377 0.09637 0.37942
 C650 C 0.60368 0.12051 0.36269
 H651 H 0.67018 0.25897 0.35592
 H652 H 0.71240 0.28390 0.31799
 H653 H 0.72586 0.18339 0.25498
 H654 H 0.68449 0.15923 0.29355
 H655 H 0.58817 0.19081 0.42645
 H656 H 0.55237 0.14821 0.45593
 H657 H 0.58338 0.07010 0.36582
 H658 H 0.61812 0.11235 0.33695
 C659 C 0.69264 0.68509 -0.17362
 C660 C 0.71106 0.67104 -0.20493
 C661 C 0.72888 0.69330 -0.22931
 C662 C 0.72933 0.73029 -0.22211
 C663 C 0.70992 0.74399 -0.19093
 C664 C 0.69206 0.72159 -0.16663
 C665 C 0.67250 0.66224 -0.15156
 C666 C 0.65488 0.64301 -0.13476
 C667 C 0.63276 0.62052 -0.11663
 C668 C 0.63948 0.59570 -0.08496
 C669 C 0.61750 0.57425 -0.06753
 C670 C 0.58856 0.57752 -0.08167
 C671 C 0.58224 0.60225 -0.11395
 C672 C 0.60418 0.62353 -0.13126
 H673 H 0.71096 0.64291 -0.21153
 H674 H 0.74127 0.68125 -0.25487
 H675 H 0.70838 0.77227 -0.18584
 H676 H 0.67726 0.73285 -0.14315
 H677 H 0.66161 0.59309 -0.07356
 H678 H 0.62306 0.55557 -0.04262
 H679 H 0.56026 0.60546 -0.12566
 H680 H 0.59880 0.64254 -0.15593
 C681 C 0.80225 -0.16951 -0.18348
 C682 C 0.79658 -0.16474 -0.22674
 C683 C 0.77809 -0.18806 -0.24784
 C684 C 0.76424 -0.21631 -0.22600
 C685 C 0.77084 -0.22106 -0.18247
 C686 C 0.78929 -0.19771 -0.16151
 C687 C 0.82305 -0.14728 -0.16227
 C688 C 0.84122 -0.12976 -0.14456
 C689 C 0.86400 -0.11014 -0.12396
 C690 C 0.89316 -0.11707 -0.13478
 C691 C 0.91561 -0.09892 -0.11482
 C692 C 0.90936 -0.07336 -0.08350
 C693 C 0.87993 -0.06648 -0.07274
 C694 C 0.85742 -0.08480 -0.09284
 H695 H 0.80701 -0.14350 -0.24445
 H696 H 0.77485 -0.18440 -0.28162
 H697 H 0.76285 -0.24357 -0.16454
 H698 H 0.79414 -0.20234 -0.12831
 H699 H 0.89859 -0.13666 -0.15868
 H700 H 0.93792 -0.10498 -0.12405
 H701 H 0.87430 -0.04705 -0.04879
 H702 H 0.83492 -0.07926 -0.08404
 C703 C 0.81064 0.31522 0.33117
 C704 C 0.79156 0.29246 0.35290
 C705 C 0.77246 0.27098 0.33023
 C706 C 0.77148 0.27293 0.28534
 C707 C 0.79272 0.29383 0.26418
 C708 C 0.81172 0.31510 0.28683
 C709 C 0.82936 0.33888 0.35368
 C710 C 0.84590 0.35918 0.37013
 C711 C 0.86715 0.38309 0.38685
 C712 C 0.86058 0.40529 0.42125
 C713 C 0.88204 0.42780 0.43721
 C714 C 0.91024 0.42810 0.41891
 C715 C 0.91622 0.40625 0.38375
 C716 C 0.89486 0.38400 0.36791
 H717 H 0.79125 0.29151 0.38732
 H718 H 0.75848 0.25329 0.34818
 H719 H 0.79359 0.29497 0.22979
 H720 H 0.82691 0.33198 0.26964
 H721 H 0.83908 0.40490 0.43598
 H722 H 0.87682 0.44420 0.46440
 H723 H 0.93762 0.40593 0.36869
 H724 H 0.90010 0.36716 0.34107
 C725 C 0.32625 -0.20333 0.31740
 C726 C 0.31198 -0.18280 0.28693
 C727 C 0.28765 -0.19593 0.26601
 C728 C 0.27606 -0.22985 0.27601
 C729 C 0.29181 -0.25061 0.30599
 C730 C 0.31618 -0.23731 0.32681
 C731 C 0.35158 -0.18926 0.33794
 C732 C 0.37235 -0.17516 0.35371
 C733 C 0.39607 -0.15491 0.37055
 C734 C 0.40285 -0.12260 0.35109
 C735 C 0.42285 -0.09990 0.36949
 C736 C 0.43654 -0.10908 0.40784
 C737 C 0.43117 -0.14265 0.42585
 C738 C 0.41075 -0.16537 0.40747
 H739 H 0.32007 -0.15671 0.27861
 H740 H 0.27876 -0.17958 0.24096
 H741 H 0.28535 -0.27757 0.31308
 H742 H 0.32741 -0.25379 0.34976
 H743 H 0.39177 -0.11426 0.32246
 H744 H 0.42680 -0.07449 0.35439
 H745 H 0.44166 -0.15059 0.45502
 H746 H 0.40572 -0.19042 0.42276
 C747 C 0.30822 0.31517 -0.17213
 C748 C 0.30389 0.32490 -0.21439
 C749 C 0.28693 0.30393 -0.24039
 C750 C 0.27303 0.27321 -0.22440
 C751 C 0.27876 0.26289 -0.18201
 C752 C 0.29592 0.28401 -0.15597
 C753 C 0.32728 0.33618 -0.14704
 C754 C 0.34450 0.35436 -0.12887
 C755 C 0.36655 0.37600 -0.11061
 C756 C 0.39541 0.37161 -0.12444
 C757 C 0.41720 0.39331 -0.10882
 C758 C 0.41040 0.41984 -0.07905
 C759 C 0.38123 0.42419 -0.06533
 C760 C 0.35938 0.40234 -0.08112
 H761 H 0.31406 0.34847 -0.22753
 H762 H 0.28447 0.31186 -0.27328
 H763 H 0.27066 0.23821 -0.16901
 H764 H 0.30007 0.27567 -0.12359
 H765 H 0.40107 0.35145 -0.14754
 H766 H 0.43939 0.38913 -0.12002
 H767 H 0.37533 0.44429 -0.04233
 H768 H 0.33699 0.40606 -0.07054
 C769 C 1.19735 -0.17077 0.18551
 C770 C 1.20441 -0.16590 0.22813
 C771 C 1.22253 -0.19021 0.24890
 C772 C 1.23497 -0.21965 0.22724
 C773 C 1.22623 -0.22473 0.18450
 C774 C 1.20815 -0.20034 0.16393
 C775 C 1.17725 -0.14703 0.16472
 C776 C 1.15958 -0.12816 0.14747
 C777 C 1.13722 -0.10705 0.12755
 C778 C 1.14360 -0.08542 0.09229
 C779 C 1.12120 -0.06657 0.07205
 C780 C 1.09213 -0.06936 0.08678
 C781 C 1.08617 -0.09075 0.12265
 C782 C 1.10851 -0.10938 0.14278
 H783 H 1.19547 -0.14364 0.24562
 H784 H 1.22688 -0.18608 0.28226
 H785 H 1.23245 -0.24809 0.16683
 H786 H 1.20197 -0.20509 0.13133
 H787 H 1.16576 -0.08349 0.08012
 H788 H 1.12653 -0.05042 0.04450
 H789 H 1.06413 -0.09344 0.13507
 H790 H 1.10328 -0.12604 0.16996
 C791 C 1.19336 0.31435 0.67272
 C792 C 1.20355 0.32634 0.71159
 C793 C 1.22302 0.30582 0.73486
 C794 C 1.23372 0.27321 0.71898
 C795 C 1.22151 0.26030 0.68112
 C796 C 1.20192 0.28101 0.65776
 C797 C 1.17310 0.33607 0.64977
 C798 C 1.15565 0.35525 0.63286
 C799 C 1.13391 0.37840 0.61532
 C800 C 1.14093 0.40236 0.58266
 C801 C 1.11940 0.42491 0.56637
 C802 C 1.09066 0.42361 0.58267
 C803 C 1.08410 0.39980 0.61600
 C804 C 1.10558 0.37743 0.63215
 H805 H 1.19621 0.35154 0.72422
 H806 H 1.22945 0.31569 0.76552
 H807 H 1.22755 0.23437 0.66932
 H808 H 1.19337 0.27098 0.62826
 H809 H 1.16293 0.40347 0.56968
 H810 H 1.12510 0.44280 0.54057
 H811 H 1.06225 0.39811 0.62938
 H812 H 1.10002 0.35920 0.65771
 C813 C 0.67296 -0.20113 0.67666
 C814 C 0.68248 -0.23593 0.67069
 C815 C 0.70659 -0.24882 0.69285
 C816 C 0.72232 -0.22701 0.72090
 C817 C 0.71197 -0.19205 0.72703
 C818 C 0.68780 -0.17924 0.70478
 C819 C 0.64731 -0.18811 0.65534
 C820 C 0.62590 -0.17601 0.63848
 C821 C 0.60074 -0.15920 0.61982
 C822 C 0.59436 -0.16355 0.57666
 C823 C 0.57287 -0.14241 0.55751
 C824 C 0.55791 -0.11658 0.58134
 C825 C 0.56321 -0.11402 0.62511
 C826 C 0.58439 -0.13525 0.64421
 H827 H 0.67094 -0.25336 0.64953
 H828 H 0.71280 -0.27628 0.68857
 H829 H 0.72160 -0.17474 0.75011
 H830 H 0.68024 -0.15241 0.71033
 H831 H 0.60699 -0.18186 0.55737
 H832 H 0.56963 -0.14426 0.52363
 H833 H 0.55211 -0.09408 0.64405
 H834 H 0.58912 -0.13156 0.67755
 C835 C 0.69664 0.32379 0.17929
 C836 C 0.69608 0.28723 0.17302
 C837 C 0.71325 0.26491 0.19798
 C838 C 0.73198 0.27875 0.22908
 C839 C 0.73137 0.31581 0.23575
 C840 C 0.71421 0.33800 0.21071
 C841 C 0.67699 0.34643 0.15660
 C842 C 0.65939 0.36509 0.13929
 C843 C 0.63684 0.38635 0.12081
 C844 C 0.60841 0.38314 0.13681
 C845 C 0.58584 0.40268 0.11882
 C846 C 0.59139 0.42581 0.08446
 C847 C 0.62020 0.42945 0.06902
 C848 C 0.64284 0.40970 0.08712
 H849 H 0.68182 0.27588 0.14955
 H850 H 0.71184 0.23659 0.19327
 H851 H 0.74318 0.32801 0.26124
 H852 H 0.71395 0.36622 0.21680
 H853 H 0.60361 0.36523 0.16301
 H854 H 0.56397 0.39935 0.13169
 H855 H 0.62513 0.44696 0.04253
 H856 H 0.66487 0.41236 0.07462
 C857 C 0.80460 0.17749 0.18905
 C858 C 0.79945 0.17350 0.23273
 C859 C 0.78149 0.19764 0.25442
 C860 C 0.76759 0.22582 0.23274
 C861 C 0.77414 0.23015 0.18891
 C862 C 0.79207 0.20600 0.16736
 C863 C 0.82444 0.15399 0.16697
 C864 C 0.84193 0.13540 0.14858
 C865 C 0.86423 0.11470 0.12742
 C866 C 0.89330 0.11923 0.13900
 C867 C 0.91549 0.10044 0.11827
 C868 C 0.90906 0.07662 0.08543
 C869 C 0.87970 0.07194 0.07407
 C870 C 0.85741 0.09096 0.09494
 H871 H 0.80967 0.15206 0.25018
 H872 H 0.77830 0.19433 0.28838
 H873 H 0.76629 0.25269 0.17104
 H874 H 0.79671 0.21008 0.13382
 H875 H 0.89887 0.13755 0.16397
 H876 H 0.93776 0.10473 0.12808
 H877 H 0.87400 0.05390 0.04891
 H878 H 0.83495 0.08734 0.08559
 C879 C 0.81104 0.69484 0.67620
 C880 C 0.81069 0.69414 0.72058
 C881 C 0.79080 0.71506 0.74320
 C882 C 0.77007 0.73633 0.72193
 C883 C 0.77254 0.73913 0.67716
 C884 C 0.79251 0.71806 0.65453
 C885 C 0.83049 0.67146 0.65345
 C886 C 0.84736 0.65138 0.63629
 C887 C 0.86869 0.62757 0.61821
 C888 C 0.89667 0.62670 0.63526
 C889 C 0.91790 0.60413 0.61834
 C890 C 0.91152 0.58190 0.58394
 C891 C 0.88313 0.58242 0.56733
 C892 C 0.86181 0.60522 0.58440
 H893 H 0.82545 0.67690 0.73777
 H894 H 0.79062 0.71336 0.77757
 H895 H 0.75902 0.75720 0.65925
 H896 H 0.79329 0.71966 0.62014
 H897 H 0.90217 0.64369 0.66159
 H898 H 0.93945 0.60438 0.63208
 H899 H 0.87759 0.56579 0.54073
 H900 H 0.84012 0.60560 0.57108
 C901 C 0.32995 0.20699 0.67433
 C902 C 0.32201 0.19345 0.71421
 C903 C 0.29745 0.20655 0.73558
 C904 C 0.27959 0.23294 0.71715
 C905 C 0.28844 0.24697 0.67716
 C906 C 0.31312 0.23373 0.65577
 C907 C 0.35518 0.19250 0.65286
 C908 C 0.37587 0.17750 0.63705
 C909 C 0.39916 0.15544 0.62108
 C910 C 0.40227 0.12179 0.63903
 C911 C 0.42190 0.09764 0.62150
 C912 C 0.43892 0.10663 0.58550
 C913 C 0.43737 0.14144 0.56942
 C914 C 0.41721 0.16569 0.58684
 H915 H 0.33507 0.17296 0.72911
 H916 H 0.29263 0.19647 0.76717
 H917 H 0.27710 0.26908 0.66284
 H918 H 0.31933 0.24477 0.62512
 H919 H 0.38864 0.11367 0.66574
 H920 H 0.42293 0.07136 0.63542
 H921 H 0.45072 0.14939 0.54243
 H922 H 0.41512 0.19187 0.57292
 C923 C 0.30365 0.68272 0.17316
 C924 C 0.28750 0.66945 0.20742
 C925 C 0.27065 0.69210 0.23248
 C926 C 0.26845 0.72891 0.22300
 C927 C 0.28626 0.74185 0.18908
 C928 C 0.30323 0.71896 0.16414
 C929 C 0.32305 0.65937 0.15060
 C930 C 0.34023 0.63938 0.13419
 C931 C 0.36217 0.61588 0.11758
 C932 C 0.38950 0.61526 0.13668
 C933 C 0.41151 0.59330 0.12088
 C934 C 0.40649 0.57151 0.08565
 C935 C 0.37867 0.57157 0.06717
 C936 C 0.35658 0.59377 0.08308
 H937 H 0.28870 0.64159 0.21575
 H938 H 0.26019 0.68046 0.26017
 H939 H 0.28714 0.76993 0.18203
 H940 H 0.31658 0.72968 0.13851
 H941 H 0.39393 0.63210 0.16360
 H942 H 0.43262 0.59380 0.13599
 H943 H 0.37422 0.55523 0.03987
 H944 H 0.33537 0.59401 0.06824
   
