data_POSCAR
  _audit_creation_date              2014-09-24
  _audit_creation_method            'ToBaCCo'
  _symmetry_space_group_name_H-M    'P1'
  _symmetry_Int_Tables_number       1
  _symmetry_cell_setting            triclinic
  loop_
  _symmetry_equiv_pos_as_xyz
 x,y,z
_cell_length_a 38.9377
_cell_length_b 39.0031
_cell_length_c 38.3566
_cell_angle_alpha 93.394500
_cell_angle_beta 93.286400
_cell_angle_gamma 92.930500
loop_
  _atom_site_label
  _atom_site_type_symbol
  _atom_site_fract_x
  _atom_site_fract_y
  _atom_site_fract_z
N1 N 0.20067 1.27046 0.17782
 N2 N 0.17469 1.26700 0.19794
 C3 C 0.15172 1.29056 0.19033
 C4 C 0.16391 1.30993 0.16389
 C5 C 0.19522 1.29630 0.15683
 H6 H 0.12787 1.29313 0.20305
 H7 H 0.21262 1.30391 0.13740
 Cu8 Cu 0.17303 1.23175 0.23186
 Cu9 Cu 0.23878 1.24018 0.17871
 Cu10 Cu 0.23942 1.18024 0.24150
 N11 N 0.17496 1.19865 0.26798
 N12 N 0.20151 1.17956 0.27224
 C13 C 0.19614 1.15868 0.29826
 C14 C 0.16418 1.16456 0.31106
 C15 C 0.15159 1.19036 0.29112
 H16 H 0.21376 1.13967 0.30610
 H17 H 0.12712 1.20200 0.29291
 N18 N 0.27542 1.18456 0.20788
 N19 N 0.27509 1.20719 0.18370
 C20 C 0.30127 1.20173 0.16292
 C21 C 0.31893 1.17415 0.17446
 C22 C 0.30178 1.16410 0.20316
 H23 H 0.30617 1.21591 0.14021
 H24 H 0.30704 1.14248 0.21858
 H25 H 0.21309 1.19869 0.19863
 H26 H 0.23550 1.23142 0.23096
 N27 N 0.79904 0.73174 0.14723
 N28 N 0.81519 0.72603 0.17715
 C29 C 0.83587 0.69982 0.17232
 C30 C 0.83263 0.68827 0.13732
 C31 C 0.80887 0.70922 0.12225
 H32 H 0.85253 0.69051 0.19276
 H33 H 0.79969 0.70856 0.09508
 Cu34 Cu 0.80946 0.75461 0.21919
 Cu35 Cu 0.76673 0.76822 0.14311
 Cu36 Cu 0.75372 0.81684 0.21979
 N37 N 0.81319 0.79185 0.25531
 N38 N 0.79054 0.81561 0.25621
 C39 C 0.79899 0.83823 0.28359
 C40 C 0.82927 0.82863 0.30048
 C41 C 0.83731 0.79882 0.28166
 H42 H 0.78496 0.86087 0.28938
 H43 H 0.85925 0.78343 0.28618
 N44 N 0.72941 0.82376 0.17454
 N45 N 0.73487 0.80607 0.14516
 C46 C 0.71582 0.81846 0.11878
 C47 C 0.69766 0.84543 0.13216
 C48 C 0.70698 0.84792 0.16766
 H49 H 0.71568 0.80898 0.09172
 H50 H 0.69855 0.86626 0.18714
 H51 H 0.78815 0.80008 0.18486
 H52 H 0.75281 0.76819 0.19329
 N53 N 0.81140 1.25014 -0.17759
 N54 N 0.83774 1.24520 -0.19683
 C55 C 0.85974 1.27306 -0.19272
 C56 C 0.84669 1.29683 -0.16933
 C57 C 0.81578 1.28133 -0.16046
 H58 H 0.88416 1.27506 -0.20466
 H59 H 0.79882 1.29098 -0.14126
 Cu60 Cu 0.84316 1.20125 -0.22187
 Cu61 Cu 0.77645 1.21358 -0.17251
 Cu62 Cu 0.77674 1.14177 -0.23039
 N63 N 0.84161 1.16289 -0.25656
 N64 N 0.81577 1.13972 -0.26013
 C65 C 0.82185 1.11621 -0.28592
 C66 C 0.85334 1.12514 -0.29934
 C67 C 0.86492 1.15509 -0.27987
 H68 H 0.80461 1.09422 -0.29400
 H69 H 0.88848 1.17037 -0.28226
 N70 N 0.73988 1.14915 -0.19772
 N71 N 0.73946 1.17699 -0.17644
 C72 C 0.71183 1.17433 -0.15708
 C73 C 0.69416 1.14315 -0.16616
 C74 C 0.71270 1.12780 -0.19201
 H75 H 0.70586 1.19299 -0.13665
 H76 H 0.70713 1.10270 -0.20521
 H77 H 0.80120 1.16978 -0.18879
 H78 H 0.78068 1.19491 -0.22343
 N79 N 0.17045 0.75060 -0.15668
 N80 N 0.14277 0.75507 -0.17676
 C81 C 0.11750 0.73220 -0.16934
 C82 C 0.13004 0.71242 -0.14302
 C83 C 0.16380 0.72491 -0.13581
 H84 H 0.09182 0.73049 -0.18182
 H85 H 0.18229 0.71617 -0.11670
 Cu86 Cu 0.14200 0.79086 -0.21007
 Cu87 Cu 0.21263 0.77922 -0.15763
 Cu88 Cu 0.21647 0.83500 -0.22384
 N89 N 0.14654 0.81896 -0.25003
 N90 N 0.17599 0.83487 -0.25597
 C91 C 0.17200 0.85210 -0.28511
 C92 C 0.13799 0.84720 -0.29823
 C93 C 0.12263 0.82588 -0.27508
 H94 H 0.19223 0.86807 -0.29506
 H95 H 0.09615 0.81594 -0.27630
 N96 N 0.25462 0.83161 -0.18845
 N97 N 0.25299 0.81044 -0.16299
 C98 C 0.28123 0.81631 -0.14110
 C99 C 0.30167 0.84262 -0.15323
 C100 C 0.28398 0.85154 -0.18346
 H101 H 0.28580 0.80336 -0.11728
 H102 H 0.29088 0.87248 -0.19938
 H103 H 0.19219 0.82161 -0.17955
 H104 H 0.20382 0.78553 -0.21046
 C105 C 0.48476 1.04247 0.03443
 C106 C 0.51327 1.02134 0.05051
 C107 C 0.52844 1.00043 0.02688
 C108 C 0.51407 1.00289 -0.01103
 C109 C 0.50286 1.06199 0.00645
 C110 C 0.51824 1.04147 -0.01740
 C111 C 0.46005 1.01590 0.01385
 C112 C 0.47509 0.99522 -0.00989
 H113 H 0.52141 1.02298 0.07795
 H114 H 0.52625 0.98593 -0.03041
 H115 H 0.50556 1.08980 0.00731
 H116 H 0.43259 1.01434 0.01729
 C117 C 0.03195 0.47784 1.03048
 C118 C 0.04910 0.50596 1.00973
 C119 C 0.02663 0.52270 0.98912
 C120 C -0.01115 0.50982 0.99086
 C121 C 0.00482 0.49664 1.05056
 C122 C -0.01762 0.51369 1.03012
 C123 C 0.01123 0.45449 1.00254
 C124 C -0.01128 0.47088 0.98182
 H125 H 0.07637 0.51255 1.01079
 H126 H -0.02916 0.52346 0.97382
 H127 H 0.00442 0.49719 1.07878
 H128 H 0.01395 0.42696 0.99985
 C129 C 1.03295 0.02070 0.47076
 C130 C 1.00956 0.03969 0.49526
 C131 C 0.98856 0.01883 0.51310
 C132 C 0.99244 -0.01973 0.50412
 C133 C 1.05204 -0.00383 0.49411
 C134 C 1.03099 -0.02487 0.51165
 C135 C 1.00847 -0.00353 0.44683
 C136 C 0.98718 -0.02443 0.46406
 H137 H 1.01014 0.06749 0.49831
 H138 H 0.97541 -0.03736 0.51792
 H139 H 1.07968 -0.00501 0.49662
 H140 H 1.00833 -0.00436 0.41854
 C141 C 0.11420 0.38799 1.11229
 C142 C 0.14731 0.37949 1.10345
 C143 C 0.16390 0.35402 1.12079
 C144 C 0.14775 0.33660 1.14707
 C145 C 0.11465 0.34628 1.15533
 N146 N 0.09893 0.37104 1.13780
 C147 C 0.09460 0.41330 1.09318
 N148 N 0.05958 0.41050 1.09185
 C149 C 0.03982 0.43150 1.07318
 C150 C 0.05508 0.45719 1.05389
 C151 C 0.09130 0.46121 1.05603
 C152 C 0.11098 0.43953 1.07567
 H153 H 0.18926 0.34800 1.11306
 H154 H 0.10076 0.33396 1.17518
 H155 H 0.01207 0.42758 1.07261
 H156 H 0.10507 0.48046 1.04247
 H157 H 0.16004 0.39147 1.08261
 H158 H 0.13874 0.44342 1.07697
 C159 C -0.11037 0.60995 1.08739
 C160 C -0.13499 0.62680 1.06747
 C161 C -0.15390 0.65201 1.08375
 C162 C -0.14837 0.66068 1.11978
 C163 C -0.12371 0.64297 1.13871
 N164 N -0.10556 0.61868 1.12226
 C165 C -0.08809 0.58420 1.07176
 N166 N -0.05842 0.57749 1.08998
 C167 C -0.03604 0.55482 1.07761
 C168 C -0.04287 0.53711 1.04477
 C169 C -0.07353 0.54327 1.02568
 C170 C -0.09625 0.56659 1.03907
 H171 H -0.17247 0.66491 1.06789
 H172 H -0.11835 0.64852 1.16647
 H173 H -0.01252 0.55150 1.09315
 H174 H -0.08024 0.52995 1.00053
 H175 H -0.13914 0.62148 1.03953
 H176 H -0.11995 0.57028 1.02401
 C177 C -0.09873 0.38463 0.88385
 C178 C -0.13420 0.37917 0.88784
 C179 C -0.15239 0.35130 0.86945
 C180 C -0.13544 0.32884 0.84708
 C181 C -0.10034 0.33624 0.84265
 N182 N -0.08312 0.36314 0.86122
 C183 C -0.07681 0.41023 0.90629
 N184 N -0.04272 0.40460 0.91117
 C185 C -0.02112 0.42463 0.93381
 C186 C -0.03362 0.45211 0.95369
 C187 C -0.06821 0.45964 0.94783
 C188 C -0.08995 0.43876 0.92417
 H189 H -0.17947 0.34691 0.87357
 H190 H -0.08602 0.31994 0.82569
 H191 H 0.00565 0.41852 0.93683
 H192 H -0.07881 0.48067 0.96252
 H193 H -0.14759 0.39500 0.90613
 H194 H -0.11667 0.44474 0.92045
 C195 C 0.07800 0.63224 0.90884
 C196 C 0.06190 0.64492 0.87884
 C197 C 0.07876 0.67109 0.86181
 C198 C 0.11152 0.68468 0.87453
 C199 C 0.12642 0.67144 0.90474
 N200 N 0.10954 0.64611 0.92078
 C201 C 0.06221 0.60466 0.92868
 N202 N 0.07623 0.60017 0.96130
 C203 C 0.06488 0.57477 0.98112
 C204 C 0.03789 0.55147 0.96820
 C205 C 0.02252 0.55574 0.93487
 C206 C 0.03465 0.58221 0.91493
 H207 H 0.06613 0.68051 0.83870
 H208 H 0.15132 0.68120 0.91599
 H209 H 0.07702 0.57289 1.00698
 H210 H 0.00188 0.53803 0.92381
 H211 H 0.03653 0.63531 0.86875
 H212 H 0.02313 0.58419 0.88887
 C213 C 1.11335 0.10941 0.38616
 C214 C 1.14766 0.10320 0.37988
 C215 C 1.16461 0.12180 0.35548
 C216 C 1.14765 0.14680 0.33700
 C217 C 1.11336 0.15257 0.34463
 N218 N 1.09728 0.13376 0.36830
 C219 C 1.09364 0.08862 0.41003
 N220 N 1.05893 0.08359 0.40398
 C221 C 1.03952 0.06306 0.42352
 C222 C 1.05499 0.04535 0.45070
 C223 C 1.09051 0.05214 0.45872
 C224 C 1.10983 0.07345 0.43840
 H225 H 1.19096 0.11610 0.35116
 H226 H 1.09883 0.17133 0.33138
 H227 H 1.01202 0.05997 0.41734
 H228 H 1.10378 0.04159 0.48074
 H229 H 1.16111 0.08341 0.39276
 H230 H 1.13709 0.07816 0.44514
 C231 C 1.09148 -0.10735 0.61525
 C232 C 1.12737 -0.10453 0.62131
 C233 C 1.14272 -0.11976 0.64973
 C234 C 1.12256 -0.13822 0.67235
 C235 C 1.08659 -0.14083 0.66492
 N236 N 1.07218 -0.12516 0.63729
 C237 C 1.07444 -0.08958 0.58659
 N238 N 1.04390 -0.07501 0.59157
 C239 C 1.02868 -0.05561 0.56733
 C240 C 1.04466 -0.04952 0.53622
 C241 C 1.07522 -0.06579 0.52991
 C242 C 1.09014 -0.08577 0.55494
 H243 H 1.17045 -0.11691 0.65363
 H244 H 1.06967 -0.15446 0.68140
 H245 H 1.00504 -0.04364 0.57319
 H246 H 1.08786 -0.06276 0.50578
 H247 H 1.14349 -0.08984 0.60485
 H248 H 1.11391 -0.09781 0.54969
 C249 C 0.89045 -0.11511 0.38060
 C250 C 0.85707 -0.10515 0.37211
 C251 C 0.83647 -0.12415 0.34610
 C252 C 0.84880 -0.15339 0.32856
 C253 C 0.88198 -0.16316 0.33909
 N254 N 0.90179 -0.14372 0.36390
 C255 C 0.91478 -0.09355 0.40464
 N256 N 0.94869 -0.09179 0.39775
 C257 C 0.97234 -0.07072 0.41706
 C258 C 0.96227 -0.04983 0.44528
 C259 C 0.92778 -0.05218 0.45381
 C260 C 0.90384 -0.07387 0.43341
 H261 H 0.81109 -0.11546 0.33964
 H262 H 0.89298 -0.18536 0.32686
 H263 H 0.99890 -0.06992 0.41005
 H264 H 0.91913 -0.03635 0.47534
 H265 H 0.84746 -0.08210 0.38430
 H266 H 0.87715 -0.07504 0.43993
 C267 C 0.90481 0.07423 0.62020
 C268 C 0.87242 0.06090 0.62900
 C269 C 0.85531 0.07767 0.65563
 C270 C 0.87014 0.10783 0.67366
 C271 C 0.90255 0.12020 0.66381
 N272 N 0.91859 0.10340 0.63794
 C273 C 0.92496 0.05840 0.59227
 N274 N 0.95502 0.07510 0.58499
 C275 C 0.97547 0.06310 0.56005
 C276 C 0.96614 0.03223 0.54029
 C277 C 0.93547 0.01425 0.54752
 C278 C 0.91481 0.02717 0.57335
 H279 H 0.83044 0.06683 0.66179
 H280 H 0.91555 0.14313 0.67644
 H281 H 0.99929 0.07751 0.55625
 H282 H 0.92711 -0.00961 0.53305
 H283 H 0.85999 0.03802 0.61570
 H284 H 0.89145 0.01255 0.57812
 C285 C 0.39798 1.12169 0.12312
 C286 C 0.38613 1.10990 0.15442
 C287 C 0.36107 1.12749 0.17155
 C288 C 0.34736 1.15673 0.15764
 C289 C 0.36033 1.16800 0.12658
 N290 N 0.38467 1.15033 0.11027
 C291 C 0.42270 1.10270 0.10236
 N292 N 0.42386 1.10793 0.06768
 C293 C 0.44430 1.09016 0.04635
 C294 C 0.46547 1.06516 0.05957
 C295 C 0.46471 1.05954 0.09543
 C296 C 0.44394 1.07853 0.11687
 H297 H 0.35208 1.11755 0.19531
 H298 H 0.35080 1.19040 0.11475
 H299 H 0.44323 1.09486 0.01880
 H300 H 0.47907 1.03984 0.10720
 H301 H 0.39498 1.08672 0.16521
 H302 H 0.44447 1.07382 0.14437
 C303 C 0.61049 1.10055 -0.11223
 C304 C 0.61550 1.13640 -0.11305
 C305 C 0.64225 1.15021 -0.13141
 C306 C 0.66401 1.12853 -0.14914
 C307 C 0.65763 1.09283 -0.14847
 N308 N 0.63171 1.07993 -0.12989
 C309 C 0.58459 1.08479 -0.09038
 N310 N 0.59083 1.05419 -0.07657
 C311 C 0.56947 1.03932 -0.05428
 C312 C 0.53992 1.05562 -0.04431
 C313 C 0.53234 1.08656 -0.05925
 C314 C 0.55449 1.10116 -0.08229
 H315 H 0.64614 1.17790 -0.13134
 H316 H 0.67395 1.07517 -0.16154
 H317 H 0.57650 1.01556 -0.04330
 H318 H 0.50936 1.09958 -0.05302
 H319 H 0.59990 1.15374 -0.09859
 H320 H 0.54805 1.12499 -0.09350
 C321 C 0.38698 0.89969 -0.09818
 C322 C 0.38053 0.90352 -0.13412
 C323 C 0.35339 0.88410 -0.15240
 C324 C 0.33268 0.86082 -0.13510
 C325 C 0.34085 0.85690 -0.09948
 N326 N 0.36702 0.87645 -0.08216
 C327 C 0.41233 0.92239 -0.07627
 N328 N 0.40724 0.92729 -0.04156
 C329 C 0.42761 0.94945 -0.01980
 C330 C 0.45505 0.96857 -0.03273
 C331 C 0.46180 0.96298 -0.06806
 C332 C 0.44047 0.93996 -0.08998
 H333 H 0.34828 0.88786 -0.17990
 H334 H 0.32570 0.83943 -0.08488
 H335 H 0.42203 0.95241 0.00750
 H336 H 0.48277 0.97725 -0.07899
 H337 H 0.39511 0.92229 -0.14776
 H338 H 0.44595 0.93623 -0.11722
 C339 C 0.62900 0.90956 0.07793
 C340 C 0.63981 0.87968 0.06044
 C341 C 0.66232 0.85878 0.07799
 C342 C 0.67416 0.86750 0.11284
 C343 C 0.66312 0.89788 0.12906
 N344 N 0.64127 0.91773 0.11147
 C345 C 0.60460 0.93273 0.06162
 N346 N 0.60287 0.96500 0.07675
 C347 C 0.57976 0.98734 0.06534
 C348 C 0.55590 0.97747 0.03729
 C349 C 0.55762 0.94465 0.02064
 C350 C 0.58183 0.92215 0.03274
 H351 H 0.67017 0.83573 0.06426
 H352 H 0.67182 0.90613 0.15563
 H353 H 0.57990 1.01266 0.07851
 H354 H 0.53936 0.93582 -0.00076
 H355 H 0.63144 0.87254 0.03352
 H356 H 0.58161 0.89650 0.02038
   
