data_POSCAR
  _audit_creation_date              2014-09-24
  _audit_creation_method            'ToBaCCo'
  _symmetry_space_group_name_H-M    'P1'
  _symmetry_Int_Tables_number       1
  _symmetry_cell_setting            triclinic
  loop_
  _symmetry_equiv_pos_as_xyz
 x,y,z
_cell_length_a 56.5520
_cell_length_b 55.8910
_cell_length_c 54.0876
_cell_angle_alpha 89.946700
_cell_angle_beta 90.059200
_cell_angle_gamma 90.044600
loop_
  _atom_site_label
  _atom_site_type_symbol
  _atom_site_fract_x
  _atom_site_fract_y
  _atom_site_fract_z
O1 O 0.31496 0.35114 0.02440
 O2 O 0.34755 0.31456 -0.02050
 O3 O 0.31617 0.34859 -0.02360
 O4 O 0.34665 0.31790 0.02713
 O5 O 0.31841 0.29051 0.02840
 O6 O 0.28762 0.32155 -0.02269
 O7 O 0.31922 0.28728 -0.01954
 O8 O 0.28651 0.32399 0.02562
 Cu9 Cu 0.33413 0.33582 0.00165
 Cu10 Cu 0.30000 0.30311 0.00296
 C11 C 0.29535 0.34368 0.03276
 C12 C 0.33911 0.29460 -0.02732
 C13 C 0.29673 0.34043 -0.03166
 C14 C 0.33782 0.29903 0.03629
 O15 O 0.69346 0.66016 0.02284
 O16 O 0.66012 0.69202 -0.02518
 O17 O 0.69358 0.65988 -0.02482
 O18 O 0.66036 0.69276 0.02253
 O19 O 0.68740 0.72137 0.02231
 O20 O 0.72079 0.68832 -0.02536
 O21 O 0.68704 0.72073 -0.02571
 O22 O 0.72079 0.68848 0.02260
 Cu23 Cu 0.67416 0.67337 -0.00111
 Cu24 Cu 0.70674 0.70763 -0.00156
 C25 C 0.71294 0.66860 0.03050
 C26 C 0.66766 0.71188 -0.03330
 C27 C 0.71297 0.66828 -0.03278
 C28 C 0.66801 0.71279 0.03012
 O29 O 0.67853 0.35185 0.97659
 O30 O 0.64610 0.31565 1.02214
 O31 O 0.67741 0.34994 1.02456
 O32 O 0.64686 0.31842 0.97437
 O33 O 0.67518 0.29115 0.97346
 O34 O 0.70602 0.32301 1.02396
 O35 O 0.67451 0.28849 1.02152
 O36 O 0.70703 0.32479 0.97574
 Cu37 Cu 0.65939 0.33670 0.99959
 Cu38 Cu 0.69360 0.30413 0.99869
 C39 C 0.69820 0.34441 0.96839
 C40 C 0.65463 0.29582 1.02928
 C41 C 0.69695 0.34202 1.03260
 C42 C 0.65575 0.29950 0.96544
 O43 O 0.31296 0.65172 0.97797
 O44 O 0.34750 0.68378 1.02498
 O45 O 0.31298 0.65289 1.02570
 O46 O 0.34729 0.68271 0.97699
 O47 O 0.32137 0.71230 0.97612
 O48 O 0.28682 0.68228 1.02513
 O49 O 0.32161 0.71340 1.02443
 O50 O 0.28678 0.68109 0.97710
 Cu51 Cu 0.33282 0.66485 1.00150
 Cu52 Cu 0.30155 0.70031 1.00064
 C53 C 0.29396 0.66078 0.96977
 C54 C 0.34052 0.70402 1.03258
 C55 C 0.29398 0.66230 1.03342
 C56 C 0.34021 0.70254 0.96835
 O57 O -0.02683 0.33759 0.30316
 O58 O 0.02142 0.30938 0.33801
 O59 O 0.01860 0.34156 0.30340
 O60 O -0.02421 0.30494 0.33783
 O61 O -0.02174 0.27662 0.30945
 O62 O 0.02134 0.31342 0.27482
 O63 O 0.02417 0.28103 0.30967
 O64 O -0.02433 0.30952 0.27449
 Cu65 Cu -0.00310 0.32614 0.32348
 Cu66 Cu 0.00004 0.29222 0.28927
 C67 C -0.03333 0.32874 0.28268
 C68 C 0.03091 0.29044 0.32984
 C69 C 0.02701 0.33384 0.28320
 C70 C -0.02996 0.28447 0.32971
 O71 O 0.02422 0.68951 0.65516
 O72 O -0.02245 0.65623 0.68741
 O73 O -0.02137 0.69190 0.65618
 O74 O 0.02338 0.65421 0.68632
 O75 O 0.02545 0.67973 0.71747
 O76 O -0.01957 0.71764 0.68715
 O77 O -0.02065 0.68171 0.71861
 O78 O 0.02626 0.71527 0.68612
 Cu79 Cu 0.00067 0.67036 0.66819
 Cu80 Cu 0.00298 0.70115 0.70554
 C81 C 0.03299 0.70807 0.66502
 C82 C -0.02926 0.66313 0.70855
 C83 C -0.02772 0.71133 0.66627
 C84 C 0.03201 0.66057 0.70693
 O85 O 1.02102 0.65729 0.31418
 O86 O 0.97232 0.68968 0.34365
 O87 O 0.97525 0.65444 0.31252
 O88 O 1.01786 0.69299 0.34495
 O89 O 1.01725 0.71860 0.31377
 O90 O 0.97436 0.67995 0.28125
 O91 O 0.97143 0.71546 0.31260
 O92 O 1.02042 0.68266 0.28278
 Cu93 Cu 0.99672 0.67101 0.33193
 Cu94 Cu 0.99581 0.70172 0.29439
 C95 C 1.02885 0.66431 0.29347
 C96 C 0.96382 0.70815 0.33336
 C97 C 0.96765 0.66063 0.29140
 C98 C 1.02454 0.71243 0.33504
 O99 O 0.97619 0.30750 0.66237
 O100 O 1.02368 0.33845 0.69580
 O101 O 1.02188 0.30596 0.66104
 O102 O 0.97809 0.33969 0.69711
 O103 O 0.97787 0.31127 0.72560
 O104 O 1.02194 0.27737 0.68932
 O105 O 1.02371 0.31011 0.72436
 O106 O 0.97598 0.27885 0.69060
 Cu107 Cu 1.00001 0.32573 0.67623
 Cu108 Cu 0.99992 0.29148 0.71032
 C109 C 0.96822 0.28786 0.67063
 C110 C 1.03137 0.32986 0.71595
 C111 C 1.02904 0.28581 0.66882
 C112 C 0.97081 0.33139 0.71757
 O113 O 0.33668 0.02404 0.30597
 O114 O 0.30814 -0.02567 0.33862
 O115 O 0.34102 -0.02184 0.30538
 O116 O 0.30304 0.02046 0.33897
 O117 O 0.27621 0.01810 0.30931
 O118 O 0.31429 -0.02450 0.27562
 O119 O 0.28120 -0.02836 0.30908
 O120 O 0.31015 0.02164 0.27601
 Cu121 Cu 0.32483 -0.00041 0.32526
 Cu122 Cu 0.29266 -0.00343 0.28955
 C123 C 0.32871 0.03083 0.28522
 C124 C 0.28990 -0.03543 0.32947
 C125 C 0.33422 -0.03013 0.28474
 C126 C 0.28310 0.02621 0.33001
 O127 O 0.69012 -0.02188 0.65849
 O128 O 0.65710 0.02427 0.69219
 O129 O 0.69138 0.02436 0.65958
 O130 O 0.65572 -0.02192 0.69002
 O131 O 0.68162 -0.02388 0.72062
 O132 O 0.71767 0.02269 0.68982
 O133 O 0.68311 0.02263 0.72269
 O134 O 0.71625 -0.02378 0.68889
 Cu135 Cu 0.67097 0.00152 0.67202
 Cu136 Cu 0.70230 -0.00061 0.70862
 C137 C 0.70876 -0.03059 0.66793
 C138 C 0.66422 0.03089 0.71334
 C139 C 0.71076 0.03098 0.66916
 C140 C 0.66256 -0.03073 0.71040
 O141 O 0.30895 1.02290 0.65550
 O142 O 0.34264 0.97750 0.68986
 O143 O 0.30972 0.97660 0.65586
 O144 O 0.34201 1.02373 0.68887
 O145 O 0.31487 1.02378 0.71829
 O146 O 0.28224 0.97638 0.68490
 O147 O 0.31539 0.97728 0.71916
 O148 O 0.28158 1.02294 0.68468
 Cu149 Cu 0.32855 1.00013 0.66959
 Cu150 Cu 0.29574 1.00002 0.70472
 C151 C 0.28953 1.03049 0.66418
 C152 C 0.33496 0.97001 0.71050
 C153 C 0.29038 0.96878 0.66451
 C154 C 0.33408 1.03159 0.70921
 O155 O 0.68609 1.02566 0.34859
 O156 O 0.65477 0.97702 0.31690
 O157 O 0.69037 0.97963 0.34762
 O158 O 0.65130 1.02335 0.31748
 O159 O 0.67626 1.02614 0.28616
 O160 O 0.71546 0.98218 0.31639
 O161 O 0.67961 0.97953 0.28546
 O162 O 0.71127 1.02850 0.31747
 Cu163 Cu 0.66810 1.00105 0.33575
 Cu164 Cu 0.69815 1.00426 0.29815
 C165 C 0.70398 1.03525 0.33854
 C166 C 0.66167 0.97019 0.29577
 C167 C 0.70968 0.97382 0.33735
 C168 C 0.65720 1.03222 0.29680
 C169 C 0.88242 0.79301 0.50229
 C170 C 0.87114 0.79873 0.48003
 C171 C 0.85241 0.81513 0.48010
 C172 C 0.84601 0.82743 0.50192
 C173 C 0.85809 0.82160 0.52406
 C174 C 0.87588 0.80412 0.52441
 C175 C 0.82770 0.84693 0.50134
 C176 C 0.81605 0.85423 0.52318
 C177 C 0.80064 0.87388 0.52309
 C178 C 0.79532 0.88524 0.50072
 C179 C 0.80579 0.87784 0.47862
 C180 C 0.82230 0.85913 0.47909
 H181 H 0.89624 0.77958 0.50239
 H182 H 0.84339 0.81854 0.46285
 H183 H 0.85448 0.83100 0.54108
 H184 H 0.81913 0.84518 0.54054
 H185 H 0.78258 0.89972 0.50050
 H186 H 0.83124 0.85485 0.46203
 C187 C 0.12098 0.21355 0.49791
 C188 C 0.13244 0.20736 0.47589
 C189 C 0.14919 0.18885 0.47611
 C190 C 0.15370 0.17549 0.49780
 C191 C 0.14150 0.18189 0.51964
 C192 C 0.12548 0.20109 0.51989
 C193 C 0.17049 0.15463 0.49741
 C194 C 0.18145 0.14647 0.51936
 C195 C 0.19590 0.12607 0.51930
 C196 C 0.20075 0.11457 0.49691
 C197 C 0.19086 0.12267 0.47471
 C198 C 0.17538 0.14229 0.47513
 H199 H 0.10819 0.22797 0.49787
 H200 H 0.15866 0.18516 0.45920
 H201 H 0.14367 0.17164 0.53644
 H202 H 0.17869 0.15563 0.53670
 H203 H 0.21282 0.09952 0.49671
 H204 H 0.16689 0.14735 0.45801
 C205 C 0.11637 0.79486 0.49747
 C206 C 0.12873 0.79887 0.51950
 C207 C 0.14983 0.81206 0.51895
 C208 C 0.15792 0.82277 0.49683
 C209 C 0.14472 0.81879 0.47495
 C210 C 0.12439 0.80438 0.47507
 C211 C 0.17972 0.83821 0.49663
 C212 C 0.19233 0.84232 0.47450
 C213 C 0.21187 0.85778 0.47386
 C214 C 0.22006 0.86793 0.49594
 C215 C 0.20844 0.86362 0.51836
 C216 C 0.18794 0.84942 0.51845
 H217 H 0.10075 0.78361 0.49771
 H218 H 0.15960 0.81399 0.53600
 H219 H 0.14972 0.82711 0.45769
 H220 H 0.18721 0.83361 0.45750
 H221 H 0.23495 0.88013 0.49556
 H222 H 0.17858 0.84733 0.53570
 C223 C 0.88338 0.20641 0.49915
 C224 C 0.87215 0.20139 0.52162
 C225 C 0.85200 0.18673 0.52175
 C226 C 0.84383 0.17569 0.49985
 C227 C 0.85588 0.18071 0.47752
 C228 C 0.87526 0.19642 0.47699
 C229 C 0.82323 0.15868 0.50039
 C230 C 0.80978 0.15421 0.47886
 C231 C 0.79134 0.13741 0.47888
 C232 C 0.78542 0.12576 0.50096
 C233 C 0.79805 0.13016 0.52277
 C234 C 0.81711 0.14626 0.52229
 H235 H 0.89826 0.21864 0.49889
 H236 H 0.84306 0.18381 0.53914
 H237 H 0.85078 0.17210 0.46044
 H238 H 0.81331 0.16381 0.46190
 H239 H 0.77106 0.11292 0.50111
 H240 H 0.82746 0.14833 0.53896
 C241 C 0.49845 0.87634 0.78490
 C242 C 0.47742 0.86929 0.79648
 C243 C 0.47788 0.85021 0.81339
 C244 C 0.49896 0.83737 0.81809
 C245 C 0.51969 0.84453 0.80552
 C246 C 0.51969 0.86429 0.78952
 C247 C 0.49943 0.81677 0.83602
 C248 C 0.52079 0.80954 0.84742
 C249 C 0.52151 0.78975 0.86340
 C250 C 0.50042 0.77797 0.86939
 C251 C 0.47883 0.78524 0.85915
 C252 C 0.47856 0.80411 0.84200
 H253 H 0.49828 0.89137 0.77224
 H254 H 0.46173 0.84595 0.82311
 H255 H 0.53600 0.83469 0.80766
 H256 H 0.53708 0.81905 0.84397
 H257 H 0.50075 0.76357 0.88282
 H258 H 0.46193 0.80851 0.83327
 C259 C 0.49414 0.12544 0.21878
 C260 C 0.47333 0.13241 0.20671
 C261 C 0.47422 0.15106 0.18939
 C262 C 0.49547 0.16353 0.18468
 C263 C 0.51610 0.15634 0.19734
 C264 C 0.51563 0.13708 0.21403
 C265 C 0.49601 0.18372 0.16645
 C266 C 0.51684 0.18945 0.15331
 C267 C 0.51700 0.20793 0.13569
 C268 C 0.49605 0.22043 0.13077
 C269 C 0.47512 0.21496 0.14338
 C270 C 0.47538 0.19709 0.16156
 H271 H 0.49363 0.11074 0.23184
 H272 H 0.45827 0.15532 0.17926
 H273 H 0.53259 0.16581 0.19465
 H274 H 0.53284 0.17918 0.15602
 H275 H 0.49598 0.23432 0.11678
 H276 H 0.45932 0.19385 0.17187
 C277 C 0.49855 0.11925 0.79007
 C278 C 0.51990 0.12778 0.79978
 C279 C 0.51959 0.14758 0.81568
 C280 C 0.49832 0.15978 0.82102
 C281 C 0.47716 0.15120 0.81030
 C282 C 0.47708 0.13054 0.79557
 C283 C 0.49821 0.18090 0.83815
 C284 C 0.47769 0.18711 0.85158
 C285 C 0.47776 0.20646 0.86809
 C286 C 0.49872 0.21930 0.87188
 C287 C 0.51944 0.21328 0.85919
 C288 C 0.51890 0.19461 0.84190
 H289 H 0.49864 0.10399 0.77772
 H290 H 0.53605 0.15291 0.82423
 H291 H 0.46055 0.16020 0.81357
 H292 H 0.46171 0.17659 0.85004
 H293 H 0.49900 0.23382 0.88512
 H294 H 0.53479 0.19101 0.83147
 C295 C 0.50172 0.87732 0.21511
 C296 C 0.52289 0.86535 0.20993
 C297 C 0.52280 0.84658 0.19270
 C298 C 0.50198 0.84028 0.17977
 C299 C 0.48102 0.85302 0.18506
 C300 C 0.48069 0.87119 0.20296
 C301 C 0.50217 0.82080 0.16068
 C302 C 0.48130 0.80818 0.15459
 C303 C 0.48126 0.79051 0.13615
 C304 C 0.50253 0.78465 0.12437
 C305 C 0.52359 0.79654 0.13031
 C306 C 0.52322 0.81481 0.14808
 H307 H 0.50164 0.89162 0.22861
 H308 H 0.53906 0.83681 0.18981
 H309 H 0.46491 0.84942 0.17494
 H310 H 0.46496 0.81167 0.16431
 H311 H 0.50266 0.77085 0.11032
 H312 H 0.53937 0.82464 0.15143
 C313 C 0.78360 0.50281 0.87403
 C314 C 0.78937 0.48108 0.86269
 C315 C 0.80813 0.48035 0.84574
 C316 C 0.82198 0.50088 0.84087
 C317 C 0.81600 0.52243 0.85303
 C318 C 0.79667 0.52357 0.86922
 C319 C 0.84292 0.49968 0.82381
 C320 C 0.85168 0.52052 0.81216
 C321 C 0.87221 0.51980 0.79763
 C322 C 0.88323 0.49779 0.79327
 C323 C 0.87452 0.47668 0.80384
 C324 C 0.85475 0.47780 0.81947
 H325 H 0.76903 0.50351 0.88700
 H326 H 0.81160 0.46365 0.83637
 H327 H 0.82664 0.53834 0.85074
 H328 H 0.84292 0.53753 0.81452
 H329 H 0.89842 0.49705 0.78111
 H330 H 0.84919 0.46153 0.82858
 C331 C 0.22090 0.50333 0.13479
 C332 C 0.21285 0.48148 0.14423
 C333 C 0.19360 0.48128 0.16058
 C334 C 0.18136 0.50257 0.16647
 C335 C 0.18937 0.52423 0.15581
 C336 C 0.20950 0.52478 0.14069
 C337 C 0.16042 0.50217 0.18354
 C338 C 0.15353 0.52294 0.19653
 C339 C 0.13366 0.52289 0.21203
 C340 C 0.12114 0.50155 0.21562
 C341 C 0.12785 0.48049 0.20350
 C342 C 0.14707 0.48105 0.18711
 H343 H 0.23560 0.50359 0.12195
 H344 H 0.18854 0.46438 0.16872
 H345 H 0.18018 0.54085 0.15915
 H346 H 0.16369 0.53927 0.19516
 H347 H 0.10604 0.50133 0.22793
 H348 H 0.15111 0.46495 0.17692
 C349 C 0.78039 0.50051 0.12541
 C350 C 0.79361 0.52119 0.13031
 C351 C 0.81285 0.51986 0.14668
 C352 C 0.81855 0.49827 0.15895
 C353 C 0.80443 0.47794 0.15414
 C354 C 0.78588 0.47874 0.13691
 C355 C 0.83950 0.49673 0.17600
 C356 C 0.85091 0.47462 0.18037
 C357 C 0.87060 0.47304 0.19607
 C358 C 0.87974 0.49393 0.20667
 C359 C 0.86923 0.51620 0.20224
 C360 C 0.84872 0.51739 0.18762
 H361 H 0.76596 0.50130 0.11226
 H362 H 0.82367 0.53564 0.14902
 H363 H 0.80758 0.46127 0.16374
 H364 H 0.84507 0.45848 0.17122
 H365 H 0.89489 0.49281 0.21891
 H366 H 0.84034 0.53459 0.18516
 C367 C 0.22367 0.49853 0.86701
 C368 C 0.21204 0.51995 0.86130
 C369 C 0.19212 0.51940 0.84580
 C370 C 0.18455 0.49783 0.83466
 C371 C 0.19713 0.47666 0.84022
 C372 C 0.21610 0.47676 0.85695
 C373 C 0.16363 0.49729 0.81750
 C374 C 0.15077 0.47592 0.81366
 C375 C 0.13169 0.47505 0.79710
 C376 C 0.12454 0.49605 0.78511
 C377 C 0.13650 0.51768 0.78902
 C378 C 0.15628 0.51807 0.80474
 H379 H 0.23814 0.49873 0.88015
 H380 H 0.18273 0.53594 0.84256
 H381 H 0.19251 0.45988 0.83156
 H382 H 0.15509 0.45981 0.82376
 H383 H 0.10953 0.49556 0.77266
 H384 H 0.16600 0.53464 0.80645
 C385 C 0.25828 0.43744 0.12061
 C386 C 0.24374 0.41919 0.11149
 C387 C 0.21930 0.42017 0.11540
 C388 C 0.20932 0.43986 0.12743
 C389 C 0.28307 0.35797 0.05059
 C390 C 0.24835 0.45715 0.13256
 C391 C 0.25376 0.40086 0.09607
 C392 C 0.26253 0.38648 0.08228
 C393 C 0.27333 0.37068 0.06540
 C394 C 0.22370 0.45887 0.13549
 H395 H 0.27722 0.43688 0.11764
 H396 H 0.20787 0.40621 0.10828
 H397 H 0.19027 0.44085 0.12920
 H398 H 0.25985 0.47142 0.13880
 C399 C 0.77308 0.56534 0.08167
 C400 C 0.77074 0.58632 0.09555
 C401 C 0.77735 0.58642 0.12052
 C402 C 0.78566 0.56541 0.13169
 C403 C 0.72679 0.65442 0.04725
 C404 C 0.78127 0.54437 0.09279
 C405 C 0.76009 0.60702 0.08425
 C406 C 0.75029 0.62326 0.07372
 C407 C 0.73794 0.64084 0.06008
 C408 C 0.78723 0.54406 0.11803
 H409 H 0.76804 0.56504 0.06234
 H410 H 0.77551 0.60253 0.13148
 H411 H 0.78999 0.56562 0.15120
 H412 H 0.78262 0.52829 0.08174
 C413 C 0.74054 0.43982 0.88444
 C414 C 0.75353 0.41981 0.89202
 C415 C 0.77789 0.41884 0.88754
 C416 C 0.78940 0.43829 0.87655
 C417 C 0.71071 0.35872 0.95068
 C418 C 0.75201 0.45928 0.87352
 C419 C 0.74220 0.40156 0.90660
 C420 C 0.73251 0.38722 0.91981
 C421 C 0.72090 0.37143 0.93617
 C422 C 0.77666 0.45899 0.87011
 H423 H 0.72169 0.44079 0.88786
 H424 H 0.78813 0.40350 0.89348
 H425 H 0.80842 0.43768 0.87437
 H426 H 0.74175 0.47491 0.86851
 C427 C 0.21416 0.57948 0.89511
 C428 C 0.23858 0.58370 0.89584
 C429 C 0.25402 0.56786 0.88407
 C430 C 0.24524 0.54753 0.87224
 C431 C 0.28018 0.64722 0.95244
 C432 C 0.20530 0.55912 0.88315
 C433 C 0.24824 0.60303 0.91026
 C434 C 0.25742 0.61814 0.92295
 C435 C 0.26927 0.63448 0.93852
 C436 C 0.22084 0.54271 0.87202
 H437 H 0.20205 0.59154 0.90433
 H438 H 0.27294 0.57089 0.88457
 H439 H 0.25757 0.53534 0.86356
 H440 H 0.18644 0.55574 0.88341
 C441 C 0.11132 0.25461 0.43074
 C442 C 0.10553 0.24059 0.41017
 C443 C 0.11074 0.21611 0.41024
 C444 C 0.12077 0.20550 0.43120
 C445 C 0.04902 0.27918 0.34433
 C446 C 0.12129 0.24404 0.45172
 C447 C 0.09192 0.25086 0.39033
 C448 C 0.07936 0.25959 0.37473
 C449 C 0.06347 0.27002 0.35772
 C450 C 0.12553 0.21925 0.45241
 H451 H 0.10728 0.27356 0.43093
 H452 H 0.10614 0.20505 0.39451
 H453 H 0.12360 0.18634 0.43130
 H454 H 0.12502 0.25510 0.46768
 C455 C 0.12370 0.76646 0.58100
 C456 C 0.09944 0.76876 0.58568
 C457 C 0.08521 0.78188 0.56944
 C458 C 0.09496 0.79212 0.54828
 C459 C 0.05008 0.72158 0.65133
 C460 C 0.13355 0.77684 0.55979
 C461 C 0.08841 0.75629 0.60585
 C462 C 0.07763 0.74556 0.62154
 C463 C 0.06341 0.73275 0.63836
 C464 C 0.11913 0.78938 0.54301
 H465 H 0.13483 0.75617 0.59338
 H466 H 0.06642 0.78372 0.57284
 H467 H 0.08354 0.80197 0.53581
 H468 H 0.15220 0.77438 0.55606
 C469 C 0.91349 0.77783 0.43068
 C470 C 0.89817 0.76777 0.41326
 C471 C 0.87369 0.76842 0.41719
 C472 C 0.86465 0.77886 0.43876
 C473 C 0.94621 0.72153 0.34638
 C474 C 0.90455 0.78809 0.45217
 C475 C 0.90822 0.75560 0.39238
 C476 C 0.91856 0.74511 0.37625
 C477 C 0.93267 0.73254 0.35920
 C478 C 0.88008 0.78845 0.45661
 H479 H 0.93246 0.77738 0.42785
 H480 H 0.86169 0.76053 0.40387
 H481 H 0.84572 0.77888 0.44180
 H482 H 0.91680 0.79572 0.46541
 C483 C 0.91653 0.22006 0.57026
 C484 C 0.90207 0.23104 0.58786
 C485 C 0.87753 0.23166 0.58431
 C486 C 0.86756 0.22161 0.56297
 C487 C 0.95105 0.27516 0.65619
 C488 C 0.90666 0.21014 0.54898
 C489 C 0.91298 0.24272 0.60864
 C490 C 0.92364 0.25274 0.62493
 C491 C 0.93775 0.26471 0.64253
 C492 C 0.88212 0.21106 0.54493
 H493 H 0.93553 0.21950 0.57280
 H494 H 0.86619 0.24025 0.59777
 H495 H 0.84862 0.22267 0.56023
 H496 H 0.91824 0.20180 0.53559
 C497 C 0.42899 0.08409 0.22300
 C498 C 0.40877 0.09765 0.22802
 C499 C 0.40920 0.12248 0.22460
 C500 C 0.43002 0.13376 0.21680
 C501 C 0.34211 0.04803 0.27141
 C502 C 0.44979 0.09531 0.21531
 C503 C 0.38837 0.08601 0.23845
 C504 C 0.37240 0.07520 0.24810
 C505 C 0.35522 0.06121 0.26031
 C506 C 0.45065 0.12031 0.21255
 H507 H 0.42887 0.06487 0.22563
 H508 H 0.39370 0.13316 0.22859
 H509 H 0.43025 0.15306 0.21501
 H510 H 0.46531 0.08449 0.21185
 C511 C 0.58259 0.11928 0.77657
 C512 C 0.58370 0.09434 0.77443
 C513 C 0.56458 0.08032 0.78218
 C514 C 0.54413 0.09116 0.79128
 C515 C 0.64976 0.04697 0.72737
 C516 C 0.56214 0.13017 0.78576
 C517 C 0.60354 0.08302 0.76262
 C518 C 0.61920 0.07264 0.75201
 C519 C 0.63631 0.05936 0.73893
 C520 C 0.54251 0.11622 0.79272
 H521 H 0.59724 0.13030 0.77048
 H522 H 0.56524 0.06101 0.78058
 H523 H 0.52941 0.07996 0.79680
 H524 H 0.56129 0.14952 0.78646
 C525 C 0.43429 0.91829 0.77900
 C526 C 0.41434 0.90498 0.77224
 C527 C 0.41433 0.88010 0.77537
 C528 C 0.43452 0.86851 0.78443
 C529 C 0.34937 0.95391 0.72468
 C530 C 0.45446 0.90676 0.78795
 C531 C 0.39481 0.91690 0.76034
 C532 C 0.37945 0.92771 0.74961
 C533 C 0.36265 0.94136 0.73638
 C534 C 0.45499 0.88170 0.79023
 H535 H 0.43452 0.93754 0.77667
 H536 H 0.39903 0.86961 0.77008
 H537 H 0.43452 0.84918 0.78581
 H538 H 0.46987 0.91738 0.79256
 C539 C 0.56549 0.89016 0.25754
 C540 C 0.58540 0.89491 0.24299
 C541 C 0.58563 0.88799 0.21812
 C542 C 0.56566 0.87718 0.20761
 C543 C 0.64820 0.95215 0.28316
 C544 C 0.54552 0.87946 0.24707
 C545 C 0.60447 0.90890 0.25316
 C546 C 0.61939 0.92167 0.26211
 C547 C 0.63557 0.93769 0.27317
 C548 C 0.54518 0.87339 0.22184
 H549 H 0.56508 0.89548 0.27679
 H550 H 0.60088 0.89172 0.20664
 H551 H 0.56581 0.87290 0.18808
 H552 H 0.53010 0.87651 0.25853
 C553 C 0.41465 0.22524 0.88154
 C554 C 0.41634 0.23165 0.90651
 C555 C 0.43759 0.22813 0.91926
 C556 C 0.45732 0.21907 0.90697
 C557 C 0.35292 0.27980 0.95659
 C558 C 0.43441 0.21605 0.86919
 C559 C 0.39709 0.24348 0.91883
 C560 C 0.38204 0.25427 0.92995
 C561 C 0.36572 0.26775 0.94389
 C562 C 0.45608 0.21340 0.88168
 H563 H 0.39831 0.22799 0.87146
 H564 H 0.43910 0.23303 0.93858
 H565 H 0.47370 0.21690 0.91711
 H566 H 0.43305 0.21196 0.84967
 C567 C 0.58163 0.78877 0.89498
 C568 C 0.58599 0.76413 0.89623
 C569 C 0.56975 0.74807 0.88595
 C570 C 0.54904 0.75650 0.87492
 C571 C 0.65318 0.72487 0.94951
 C572 C 0.56089 0.79728 0.88385
 C573 C 0.60614 0.75495 0.90949
 C574 C 0.62209 0.74629 0.92130
 C575 C 0.63953 0.73514 0.93604
 C576 C 0.54421 0.78117 0.87402
 H577 H 0.59400 0.80136 0.90306
 H578 H 0.57288 0.72897 0.88688
 H579 H 0.53668 0.74371 0.86721
 H580 H 0.55755 0.81635 0.88360
 C581 C 0.41864 0.78191 0.11261
 C582 C 0.41873 0.75751 0.10674
 C583 C 0.43852 0.74355 0.11252
 C584 C 0.45848 0.75407 0.12319
 C585 C 0.35484 0.71665 0.05021
 C586 C 0.43861 0.79247 0.12339
 C587 C 0.39959 0.74709 0.09282
 C588 C 0.38449 0.73795 0.08018
 C589 C 0.36795 0.72673 0.06440
 C590 C 0.45896 0.77875 0.12820
 H591 H 0.40349 0.79292 0.10808
 H592 H 0.43882 0.72466 0.10802
 H593 H 0.47379 0.74302 0.12696
 H594 H 0.43856 0.81155 0.12683
 C595 C 0.57991 0.22763 0.12242
 C596 C 0.57853 0.23264 0.09707
 C597 C 0.55770 0.22764 0.08411
 C598 C 0.53801 0.21858 0.09652
 C599 C 0.64097 0.28116 0.04572
 C600 C 0.56018 0.21842 0.13490
 C601 C 0.59755 0.24468 0.08448
 C602 C 0.61235 0.25560 0.07307
 C603 C 0.62838 0.26914 0.05875
 C604 C 0.53886 0.21441 0.12214
 H605 H 0.59592 0.23153 0.13267
 H606 H 0.55642 0.23145 0.06450
 H607 H 0.52189 0.21537 0.08620
 H608 H 0.56123 0.21550 0.15467
 C609 C 0.22823 0.12089 0.58070
 C610 C 0.22761 0.09607 0.58441
 C611 C 0.21557 0.08145 0.56763
 C612 C 0.20476 0.09140 0.54687
 C613 C 0.27596 0.04717 0.64986
 C614 C 0.21726 0.13094 0.55988
 C615 C 0.24052 0.08501 0.60430
 C616 C 0.25155 0.07429 0.61983
 C617 C 0.26465 0.06025 0.63665
 C618 C 0.20583 0.11618 0.54253
 H619 H 0.23762 0.13235 0.59352
 H620 H 0.21500 0.06224 0.57030
 H621 H 0.19579 0.07967 0.53396
 H622 H 0.21843 0.15006 0.55688
 C623 C 0.74359 0.11680 0.43467
 C624 C 0.75702 0.11044 0.41398
 C625 C 0.78132 0.11525 0.41359
 C626 C 0.79232 0.12540 0.43426
 C627 C 0.71573 0.05260 0.35108
 C628 C 0.75454 0.12686 0.45535
 C629 C 0.74629 0.09651 0.39462
 C630 C 0.73701 0.08364 0.37960
 C631 C 0.72575 0.06736 0.36350
 C632 C 0.77913 0.13063 0.45562
 H633 H 0.72479 0.11307 0.43521
 H634 H 0.79192 0.11020 0.39776
 H635 H 0.81131 0.12788 0.43406
 H636 H 0.74394 0.13096 0.47146
 C637 C 0.78066 0.91790 0.57158
 C638 C 0.76931 0.90298 0.58859
 C639 C 0.76912 0.87817 0.58489
 C640 C 0.77989 0.86840 0.56387
 C641 C 0.72199 0.95227 0.65399
 C642 C 0.79125 0.90825 0.55062
 C643 C 0.75665 0.91379 0.60870
 C644 C 0.74584 0.92454 0.62429
 C645 C 0.73304 0.93884 0.64101
 C646 C 0.79065 0.88346 0.54633
 H647 H 0.78088 0.93712 0.57424
 H648 H 0.76025 0.86649 0.59791
 H649 H 0.77914 0.84926 0.56090
 H650 H 0.79974 0.92019 0.53756
 C651 C 0.25691 0.87856 0.42669
 C652 C 0.24218 0.88607 0.40739
 C653 C 0.21779 0.88203 0.40880
 C654 C 0.20805 0.87151 0.42993
 C655 C 0.27873 0.94566 0.34305
 C656 C 0.24722 0.86807 0.44785
 C657 C 0.25175 0.90044 0.38772
 C658 C 0.25994 0.91371 0.37239
 C659 C 0.26986 0.93047 0.35586
 C660 C 0.22261 0.86506 0.44998
 H661 H 0.27580 0.88171 0.42584
 H662 H 0.20620 0.88799 0.39408
 H663 H 0.18903 0.86968 0.43115
 H664 H 0.25886 0.86305 0.46289
 C665 C 0.12139 0.41052 0.77834
 C666 C 0.09679 0.41017 0.77546
 C667 C 0.08350 0.43045 0.78150
 C668 C 0.09478 0.45129 0.78952
 C669 C 0.04798 0.34370 0.73001
 C670 C 0.13272 0.43137 0.78646
 C671 C 0.08513 0.38993 0.76439
 C672 C 0.07444 0.37407 0.75422
 C673 C 0.06076 0.35693 0.74146
 C674 C 0.11955 0.45213 0.79158
 H675 H 0.13186 0.39498 0.77357
 H676 H 0.06446 0.43040 0.77930
 H677 H 0.08418 0.46691 0.79362
 H678 H 0.15184 0.43159 0.78768
 C679 C 0.11264 0.58675 0.22014
 C680 C 0.10395 0.58609 0.24435
 C681 C 0.10675 0.56539 0.25863
 C682 C 0.11737 0.54511 0.24848
 C683 C 0.04701 0.65051 0.28174
 C684 C 0.12335 0.56648 0.20995
 C685 C 0.09017 0.60562 0.25391
 C686 C 0.07750 0.62094 0.26224
 C687 C 0.06152 0.63756 0.27248
 C688 C 0.12529 0.54527 0.22384
 H689 H 0.11039 0.60262 0.20886
 H690 H 0.10003 0.56467 0.27737
 H691 H 0.11890 0.52912 0.25968
 H692 H 0.12909 0.56701 0.19086
 C693 C 0.87776 0.40895 0.21790
 C694 C 0.90241 0.40716 0.21950
 C695 C 0.91659 0.42616 0.21146
 C696 C 0.90623 0.44723 0.20280
 C697 C 0.94999 0.34183 0.26794
 C698 C 0.86733 0.43003 0.20911
 C699 C 0.91341 0.38699 0.23144
 C700 C 0.92375 0.37133 0.24232
 C701 C 0.93724 0.35459 0.25587
 C702 C 0.88149 0.44960 0.20207
 H703 H 0.86661 0.39442 0.22423
 H704 H 0.93568 0.42501 0.21267
 H705 H 0.91754 0.46192 0.19724
 H706 H 0.84824 0.43147 0.20892
 C707 C 0.87930 0.57994 0.76551
 C708 C 0.90387 0.58299 0.76675
 C709 C 0.91780 0.56584 0.77868
 C710 C 0.90737 0.54554 0.78897
 C711 C 0.95380 0.64883 0.72163
 C712 C 0.86877 0.55958 0.77592
 C713 C 0.91532 0.60286 0.75477
 C714 C 0.92627 0.61849 0.74455
 C715 C 0.94053 0.63550 0.73233
 C716 C 0.88279 0.54202 0.78746
 H717 H 0.86836 0.59305 0.75618
 H718 H 0.93682 0.56800 0.77973
 H719 H 0.91855 0.53250 0.79809
 H720 H 0.84982 0.55725 0.77438
 C721 C 0.77880 0.58834 0.87865
 C722 C 0.77220 0.58810 0.90360
 C723 C 0.77525 0.56728 0.91763
 C724 C 0.78406 0.54655 0.90664
 C725 C 0.72609 0.65477 0.95154
 C726 C 0.78775 0.56757 0.86761
 C727 C 0.76079 0.60841 0.91475
 C728 C 0.75041 0.62428 0.92519
 C729 C 0.73752 0.64144 0.93876
 C730 C 0.78995 0.54633 0.88140
 H731 H 0.77643 0.60434 0.86760
 H732 H 0.77022 0.56688 0.93695
 H733 H 0.78587 0.53053 0.91776
 H734 H 0.79202 0.56781 0.84809
 C735 C 0.22267 0.41451 0.88377
 C736 C 0.24701 0.41367 0.88838
 C737 C 0.26152 0.43248 0.88050
 C738 C 0.25164 0.45254 0.86904
 C739 C 0.28537 0.35269 0.95022
 C740 C 0.21274 0.43455 0.87225
 C741 C 0.25681 0.39498 0.90355
 C742 C 0.26535 0.38044 0.91738
 C743 C 0.27585 0.36480 0.93468
 C744 C 0.22706 0.45406 0.86539
 H745 H 0.21124 0.40015 0.88999
 H746 H 0.28037 0.43206 0.88406
 H747 H 0.26310 0.46718 0.86372
 H748 H 0.19373 0.43533 0.86993
 C749 C 0.25249 0.57243 0.11961
 C750 C 0.23750 0.58850 0.10747
 C751 C 0.21302 0.58459 0.10754
 C752 C 0.20366 0.56427 0.11916
 C753 C 0.28082 0.65015 0.05023
 C754 C 0.24321 0.55214 0.13108
 C755 C 0.24771 0.60754 0.09308
 C756 C 0.25733 0.62228 0.08029
 C757 C 0.26962 0.63805 0.06447
 C758 C 0.21876 0.54759 0.13057
 H759 H 0.27145 0.57521 0.11957
 H760 H 0.20127 0.59681 0.09800
 H761 H 0.18478 0.56109 0.11836
 H762 H 0.25520 0.53971 0.13999
 C763 C 0.73734 0.43712 0.11483
 C764 C 0.75036 0.41674 0.10851
 C765 C 0.77460 0.41584 0.11365
 C766 C 0.78596 0.43562 0.12415
 C767 C 0.70859 0.35476 0.05017
 C768 C 0.74866 0.45692 0.12528
 C769 C 0.73929 0.39797 0.09442
 C770 C 0.72987 0.38324 0.08145
 C771 C 0.71857 0.36725 0.06506
 C772 C 0.77321 0.45661 0.12947
 H773 H 0.71858 0.43805 0.11085
 H774 H 0.78490 0.40025 0.10864
 H775 H 0.80492 0.43496 0.12691
 H776 H 0.73835 0.47273 0.12943
 C777 C 0.92343 0.78434 0.56918
 C778 C 0.90998 0.77765 0.58976
 C779 C 0.88552 0.78160 0.58979
 C780 C 0.87446 0.79141 0.56893
 C781 C 0.95736 0.72601 0.65376
 C782 C 0.91243 0.79400 0.54834
 C783 C 0.92126 0.76479 0.60960
 C784 C 0.93168 0.75317 0.62491
 C785 C 0.94501 0.73878 0.64124
 C786 C 0.88777 0.79710 0.54776
 H787 H 0.94235 0.78134 0.56892
 H788 H 0.87491 0.77635 0.60556
 H789 H 0.85542 0.79347 0.56887
 H790 H 0.92312 0.79848 0.53238
 C791 C 0.92258 0.21391 0.43084
 C792 C 0.90893 0.22160 0.41076
 C793 C 0.88429 0.21917 0.41153
 C794 C 0.87331 0.20985 0.43267
 C795 C 0.95565 0.27044 0.34367
 C796 C 0.91167 0.20470 0.45196
 C797 C 0.92030 0.23377 0.39049
 C798 C 0.93063 0.24474 0.37458
 C799 C 0.94367 0.25833 0.35727
 C800 C 0.88689 0.20308 0.45334
 H801 H 0.94166 0.21572 0.43049
 H802 H 0.87352 0.22519 0.39616
 H803 H 0.85419 0.20898 0.43331
 H804 H 0.92258 0.19936 0.46748
 C805 C 0.07782 0.22313 0.56347
 C806 C 0.09064 0.22668 0.58531
 C807 C 0.11458 0.22031 0.58627
 C808 C 0.12578 0.21106 0.56524
 C809 C 0.04370 0.27271 0.65424
 C810 C 0.08896 0.21400 0.54248
 C811 C 0.07929 0.23820 0.60598
 C812 C 0.06895 0.24856 0.62228
 C813 C 0.05582 0.26135 0.64014
 C814 C 0.11318 0.20828 0.54298
 H815 H 0.05928 0.22795 0.56249
 H816 H 0.12471 0.22305 0.60304
 H817 H 0.14448 0.20696 0.56609
 H818 H 0.07873 0.21174 0.52571
 C819 C 0.07529 0.78827 0.43050
 C820 C 0.08813 0.77904 0.41058
 C821 C 0.11287 0.78037 0.41070
 C822 C 0.12473 0.78996 0.43116
 C823 C 0.03910 0.72717 0.34796
 C824 C 0.08709 0.79776 0.45097
 C825 C 0.07588 0.76611 0.39143
 C826 C 0.06495 0.75443 0.37657
 C827 C 0.05138 0.73998 0.36052
 C828 C 0.11194 0.79811 0.45180
 H829 H 0.05615 0.78729 0.43065
 H830 H 0.12300 0.77313 0.39545
 H831 H 0.14387 0.78981 0.43142
 H832 H 0.07680 0.80413 0.46650
 C833 C 0.56265 0.89174 0.74387
 C834 C 0.58261 0.89516 0.75877
 C835 C 0.58264 0.88677 0.78316
 C836 C 0.56247 0.87572 0.79287
 C837 C 0.64794 0.95166 0.72216
 C838 C 0.54247 0.88078 0.75354
 C839 C 0.60212 0.90906 0.74952
 C840 C 0.61756 0.92169 0.74141
 C841 C 0.63451 0.93747 0.73135
 C842 C 0.54199 0.87311 0.77831
 H843 H 0.56242 0.89820 0.72498
 H844 H 0.59794 0.88947 0.79490
 H845 H 0.56251 0.87020 0.81207
 H846 H 0.52706 0.87874 0.74183
 C847 C 0.41714 0.88226 0.22220
 C848 C 0.41747 0.90696 0.22650
 C849 C 0.43796 0.92014 0.22149
 C850 C 0.45827 0.90863 0.21297
 C851 C 0.34988 0.95457 0.27117
 C852 C 0.43747 0.87069 0.21359
 C853 C 0.39750 0.91875 0.23760
 C854 C 0.38161 0.92931 0.24764
 C855 C 0.36401 0.94253 0.26009
 C856 C 0.45840 0.88371 0.20938
 H857 H 0.40140 0.87187 0.22613
 H858 H 0.43841 0.93926 0.22475
 H859 H 0.47403 0.91914 0.20956
 H860 H 0.43714 0.85146 0.21117
 C861 C 0.57787 0.11330 0.22210
 C862 C 0.57733 0.10572 0.24677
 C863 C 0.55736 0.11026 0.26126
 C864 C 0.53764 0.12147 0.25091
 C865 C 0.64178 0.04922 0.28522
 C866 C 0.55815 0.12460 0.21170
 C867 C 0.59631 0.09156 0.25677
 C868 C 0.61139 0.07884 0.26541
 C869 C 0.62816 0.06314 0.27590
 C870 C 0.53762 0.12826 0.22587
 H871 H 0.59320 0.10975 0.21068
 H872 H 0.55675 0.10445 0.28037
 H873 H 0.52217 0.12433 0.26232
 H874 H 0.55853 0.12943 0.19231
 C875 C 0.43052 0.08492 0.77833
 C876 C 0.41333 0.09920 0.76703
 C877 C 0.41649 0.12404 0.76581
 C878 C 0.43703 0.13448 0.77553
 C879 C 0.34789 0.04883 0.72251
 C880 C 0.45100 0.09526 0.78792
 C881 C 0.39339 0.08778 0.75546
 C882 C 0.37779 0.07675 0.74543
 C883 C 0.36095 0.06231 0.73328
 C884 C 0.45464 0.12009 0.78634
 H885 H 0.42829 0.06568 0.77934
 H886 H 0.40335 0.13524 0.75695
 H887 H 0.43946 0.15364 0.77397
 H888 H 0.46411 0.08380 0.79650
 C889 C 0.58716 0.77701 0.12055
 C890 C 0.58706 0.77173 0.09525
 C891 C 0.56672 0.77605 0.08119
 C892 C 0.54633 0.78489 0.09244
 C893 C 0.65358 0.72643 0.04672
 C894 C 0.56673 0.78596 0.13186
 C895 C 0.60709 0.76044 0.08374
 C896 C 0.62288 0.75025 0.07312
 C897 C 0.64009 0.73763 0.05948
 C898 C 0.54597 0.78953 0.11798
 H899 H 0.60277 0.77363 0.13163
 H900 H 0.56645 0.77204 0.06159
 H901 H 0.53070 0.78778 0.08125
 H902 H 0.56688 0.78921 0.15160
 C903 C 0.41212 0.22373 0.12161
 C904 C 0.41227 0.24805 0.11545
 C905 C 0.43220 0.26202 0.12069
 C906 C 0.45231 0.25152 0.13102
 C907 C 0.35063 0.28698 0.05545
 C908 C 0.43221 0.21319 0.13203
 C909 C 0.39332 0.25812 0.10110
 C910 C 0.37859 0.26682 0.08777
 C911 C 0.36280 0.27743 0.07084
 C912 C 0.45274 0.22686 0.13617
 H913 H 0.39687 0.21271 0.11740
 H914 H 0.43253 0.28084 0.11587
 H915 H 0.46779 0.26250 0.13428
 H916 H 0.43215 0.19412 0.13557
 C917 C 0.58239 0.22259 0.88083
 C918 C 0.58230 0.24711 0.88608
 C919 C 0.56257 0.26099 0.87992
 C920 C 0.54252 0.25022 0.86973
 C921 C 0.64303 0.28721 0.94636
 C922 C 0.56235 0.21179 0.87055
 C923 C 0.60101 0.25752 0.90054
 C924 C 0.61550 0.26651 0.91397
 C925 C 0.63103 0.27743 0.93098
 C926 C 0.54195 0.22539 0.86564
 H927 H 0.59748 0.21165 0.88574
 H928 H 0.56228 0.27996 0.88401
 H929 H 0.52713 0.26114 0.86589
 H930 H 0.56230 0.19259 0.86784
 C931 C 0.41720 0.77786 0.88551
 C932 C 0.41667 0.75326 0.89036
 C933 C 0.43557 0.73883 0.88291
 C934 C 0.45535 0.74905 0.87160
 C935 C 0.35428 0.71428 0.94990
 C936 C 0.43697 0.78814 0.87413
 C937 C 0.39797 0.74311 0.90507
 C938 C 0.38325 0.73435 0.91840
 C939 C 0.36710 0.72372 0.93501
 C940 C 0.45652 0.77391 0.86765
 H941 H 0.40274 0.78923 0.89136
 H942 H 0.43538 0.71977 0.88662
 H943 H 0.47003 0.73763 0.86655
 H944 H 0.43747 0.80735 0.87157
 C945 C 0.78216 0.88677 0.41372
 C946 C 0.77896 0.91162 0.41327
 C947 C 0.78671 0.92551 0.43320
 C948 C 0.79660 0.91459 0.45398
 C949 C 0.72562 0.95836 0.35040
 C950 C 0.79219 0.87579 0.43451
 C951 C 0.76564 0.92286 0.39377
 C952 C 0.75362 0.93317 0.37876
 C953 C 0.73876 0.94627 0.36274
 C954 C 0.79886 0.88957 0.45512
 H955 H 0.77607 0.87583 0.39846
 H956 H 0.78427 0.94474 0.43309
 H957 H 0.80182 0.92562 0.46952
 H958 H 0.79358 0.85647 0.43502
 C959 C 0.21164 0.89735 0.57928
 C960 C 0.23607 0.89757 0.58357
 C961 C 0.25123 0.88581 0.56717
 C962 C 0.24213 0.87435 0.54630
 C963 C 0.27721 0.95174 0.65018
 C964 C 0.20246 0.88580 0.55839
 C965 C 0.24597 0.91124 0.60363
 C966 C 0.25511 0.92332 0.61945
 C967 C 0.26669 0.93825 0.63670
 C968 C 0.21768 0.87449 0.54148
 H969 H 0.19975 0.90657 0.59175
 H970 H 0.27017 0.88593 0.57024
 H971 H 0.25423 0.86554 0.53376
 H972 H 0.18359 0.88639 0.55503
 C973 C 0.20868 0.07467 0.42906
 C974 C 0.21690 0.08843 0.40922
 C975 C 0.21451 0.11337 0.40984
 C976 C 0.20477 0.12454 0.43066
 C977 C 0.26780 0.04139 0.34423
 C978 C 0.19906 0.08577 0.44986
 C979 C 0.22966 0.07690 0.38949
 C980 C 0.24113 0.06646 0.37409
 C981 C 0.25527 0.05335 0.35737
 C982 C 0.19756 0.11086 0.45116
 H983 H 0.21046 0.05537 0.42882
 H984 H 0.22093 0.12422 0.39465
 H985 H 0.20400 0.14389 0.43126
 H986 H 0.19342 0.07479 0.46528
 C987 C 0.77648 0.08196 0.56656
 C988 C 0.77304 0.09496 0.58836
 C989 C 0.77941 0.11917 0.58926
 C990 C 0.78853 0.13048 0.56817
 C991 C 0.72554 0.04714 0.65544
 C992 C 0.78546 0.09322 0.54552
 C993 C 0.76140 0.08357 0.60894
 C994 C 0.75078 0.07307 0.62498
 C995 C 0.73748 0.05964 0.64221
 C996 C 0.79113 0.11771 0.54593
 H997 H 0.77162 0.06323 0.56563
 H998 H 0.77673 0.12945 0.60599
 H999 H 0.79261 0.14940 0.56894
 H1000 H 0.78758 0.08287 0.52875
 C1001 C 0.87753 0.57602 0.23458
 C1002 C 0.90217 0.57845 0.23367
 C1003 C 0.91578 0.56102 0.22184
 C1004 C 0.90494 0.54104 0.21134
 C1005 C 0.95167 0.64501 0.27857
 C1006 C 0.86659 0.55599 0.22397
 C1007 C 0.91394 0.59811 0.24569
 C1008 C 0.92493 0.61374 0.25590
 C1009 C 0.93892 0.63105 0.26802
 C1010 C 0.88026 0.53814 0.21253
 H1011 H 0.86683 0.58938 0.24380
 H1012 H 0.93486 0.56271 0.22101
 H1013 H 0.91589 0.52778 0.20230
 H1014 H 0.84757 0.55413 0.22528
 C1015 C 0.92159 0.43097 0.78836
 C1016 C 0.90786 0.41165 0.78031
 C1017 C 0.88317 0.41283 0.78196
 C1018 C 0.87226 0.43362 0.79081
 C1019 C 0.95515 0.34574 0.73224
 C1020 C 0.91075 0.45174 0.79709
 C1021 C 0.91926 0.39171 0.76841
 C1022 C 0.92969 0.37608 0.75762
 C1023 C 0.94294 0.35908 0.74420
 C1024 C 0.88595 0.45351 0.79786
 H1025 H 0.94070 0.43029 0.78714
 H1026 H 0.87236 0.39804 0.77564
 H1027 H 0.85313 0.43458 0.79102
 H1028 H 0.92173 0.46668 0.80268
 C1029 C 0.11378 0.58098 0.78089
 C1030 C 0.10534 0.58021 0.75656
 C1031 C 0.10886 0.55968 0.74225
 C1032 C 0.11996 0.53967 0.75247
 C1033 C 0.04918 0.64542 0.71860
 C1034 C 0.12498 0.56096 0.79114
 C1035 C 0.09136 0.59955 0.74679
 C1036 C 0.07876 0.61488 0.73828
 C1037 C 0.06313 0.63181 0.72790
 C1038 C 0.12766 0.53990 0.77720
 H1039 H 0.11103 0.59674 0.79218
 H1040 H 0.10238 0.55888 0.72341
 H1041 H 0.12205 0.52379 0.74121
 H1042 H 0.13054 0.56156 0.81030
 C1043 C 0.11580 0.41611 0.22176
 C1044 C 0.09119 0.41640 0.22459
 C1045 C 0.07845 0.43707 0.21861
 C1046 C 0.09029 0.45765 0.21072
 C1047 C 0.04252 0.34908 0.26929
 C1048 C 0.12769 0.43669 0.21378
 C1049 C 0.07904 0.39636 0.23548
 C1050 C 0.06822 0.38047 0.24548
 C1051 C 0.05475 0.36299 0.25802
 C1052 C 0.11508 0.45784 0.20874
 H1053 H 0.12585 0.40025 0.22646
 H1054 H 0.05941 0.43752 0.22075
 H1055 H 0.08011 0.47358 0.20667
 H1056 H 0.14680 0.43640 0.21262
   
