data_POSCAR
  _audit_creation_date              2014-09-24
  _audit_creation_method            'ToBaCCo'
  _symmetry_space_group_name_H-M    'P1'
  _symmetry_Int_Tables_number       1
  _symmetry_cell_setting            triclinic
  loop_
  _symmetry_equiv_pos_as_xyz
 x,y,z
_cell_length_a 29.4494
_cell_length_b 29.4500
_cell_length_c 29.4418
_cell_angle_alpha 89.957800
_cell_angle_beta 90.126100
_cell_angle_gamma 89.999700
loop_
  _atom_site_label
  _atom_site_type_symbol
  _atom_site_fract_x
  _atom_site_fract_y
  _atom_site_fract_z
O1 O -0.11670 0.06588 0.00103
 O2 O 0.11635 0.06218 -0.00401
 O3 O -0.00029 0.11942 0.05791
 O4 O 0.00170 0.11720 -0.06271
 O5 O -0.00009 0.06234 -0.11815
 O6 O -0.00152 0.06610 0.11508
 O7 O 0.06085 0.11720 -0.00496
 O8 O -0.05976 0.11936 -0.00056
 Zr9 Zr -0.00008 0.08082 -0.00176
 O10 O 0.04009 0.04156 -0.04272
 O11 O -0.04189 0.04462 0.04050
 C12 C -0.10203 0.10754 0.00079
 C13 C 0.10277 0.10417 -0.00606
 C14 C -0.00124 0.10773 0.10025
 C15 C 0.00187 0.10447 -0.10476
 H16 H 0.06050 0.06230 0.05873
 O17 O 0.04067 0.04278 0.03990
 H18 H -0.06165 0.06244 -0.06164
 O19 O -0.04242 0.04301 -0.04206
 O20 O 0.11461 -0.06053 0.00172
 O21 O -0.11907 -0.05697 -0.00021
 O22 O 0.05966 0.00101 0.11619
 O23 O 0.05798 0.00058 -0.11779
 O24 O -0.06505 -0.00090 -0.11640
 O25 O -0.06299 0.00697 0.11649
 O26 O -0.00119 -0.11403 0.06443
 O27 O -0.00533 -0.11614 -0.06065
 O28 O -0.00052 -0.05678 0.11774
 O29 O -0.00560 -0.06066 -0.11605
 O30 O 0.11552 -0.00075 0.06143
 O31 O -0.11782 0.00698 0.06064
 O32 O -0.11878 0.00113 -0.05991
 O33 O 0.11463 0.00074 -0.06357
 O34 O 0.05930 -0.11602 0.00313
 O35 O -0.06574 -0.11419 0.00034
 Zr36 Zr 0.07863 0.00085 -0.00088
 Zr37 Zr -0.08090 0.00334 0.00015
 Zr38 Zr -0.00137 0.00346 0.07946
 Zr39 Zr -0.00260 0.00084 -0.08023
 Zr40 Zr -0.00268 -0.07873 0.00117
 O41 O -0.04349 -0.03943 -0.04035
 O42 O 0.03907 -0.03901 0.04113
 C43 C 0.10146 -0.10248 0.00362
 C44 C -0.10756 -0.09951 -0.00052
 C45 C 0.10171 -0.00103 0.10348
 C46 C 0.10030 0.00096 -0.10552
 C47 C -0.10688 -0.00098 -0.10214
 C48 C -0.10492 0.00862 0.10262
 C49 C -0.00014 -0.09932 0.10625
 C50 C -0.00675 -0.10263 -0.10282
 H51 H -0.06254 -0.05653 0.06147
 O52 O -0.04282 -0.03802 0.04160
 H53 H 0.05721 -0.06026 -0.05996
 O54 O 0.03828 -0.04033 -0.04073
 O55 O 0.38152 0.55871 -0.00032
 O56 O 0.61559 0.56212 -0.00009
 O57 O 0.49556 0.61826 0.05934
 O58 O 0.49953 0.61669 -0.06116
 O59 O 0.50073 0.56172 -0.11673
 O60 O 0.49480 0.56460 0.11607
 O61 O 0.56026 0.61751 -0.00188
 O62 O 0.43518 0.61573 0.00027
 Zr63 Zr 0.49816 0.58012 -0.00044
 O64 O 0.54028 0.54145 -0.04044
 O65 O 0.45648 0.54160 0.04032
 C66 C 0.39339 0.60109 0.00044
 C67 C 0.60250 0.60410 -0.00185
 C68 C 0.49411 0.60642 0.10165
 C69 C 0.50074 0.60373 -0.10308
 H70 H 0.55803 0.56220 0.06095
 O71 O 0.53918 0.54231 0.04151
 H72 H 0.43824 0.55925 -0.06129
 O73 O 0.45781 0.54043 -0.04147
 O74 O 0.61666 0.43944 0.00484
 O75 O 0.38392 0.43585 -0.00227
 O76 O 0.55779 0.50146 0.11840
 O77 O 0.56086 0.50233 -0.11556
 O78 O 0.43789 0.49705 -0.11711
 O79 O 0.43490 0.50316 0.11588
 O80 O 0.50213 0.38496 0.06430
 O81 O 0.49994 0.38326 -0.06078
 O82 O 0.49976 0.44169 0.11822
 O83 O 0.49954 0.43890 -0.11592
 O84 O 0.61472 0.50035 0.06487
 O85 O 0.38133 0.50006 0.05892
 O86 O 0.38311 0.49579 -0.06163
 O87 O 0.61652 0.50252 -0.06031
 O88 O 0.56125 0.38424 0.00471
 O89 O 0.44067 0.38214 -0.00021
 Zr90 Zr 0.57923 0.50090 0.00168
 Zr91 Zr 0.41967 0.49849 -0.00076
 Zr92 Zr 0.49750 0.50202 0.08026
 Zr93 Zr 0.49955 0.50004 -0.07942
 Zr94 Zr 0.50035 0.42056 0.00133
 O95 O 0.45907 0.45785 -0.04113
 O96 O 0.53992 0.46054 0.04286
 C97 C 0.60310 0.39744 0.00645
 C98 C 0.39845 0.39412 -0.00193
 C99 C 0.60023 0.50033 0.10674
 C100 C 0.60291 0.50344 -0.10250
 C101 C 0.39579 0.49526 -0.10369
 C102 C 0.39321 0.50232 0.10117
 C103 C 0.50196 0.39943 0.10614
 C104 C 0.49939 0.39683 -0.10298
 H105 H 0.43891 0.43964 0.06086
 O106 O 0.45827 0.45906 0.04153
 H107 H 0.56092 0.44024 -0.05854
 O108 O 0.54104 0.45960 -0.03968
 O109 O -0.11602 0.56281 0.50399
 O110 O 0.11674 0.56320 0.49799
 O111 O -0.00075 0.61514 0.56448
 O112 O 0.00139 0.61770 0.43933
 O113 O 0.00089 0.56239 0.38395
 O114 O 0.00141 0.55806 0.61815
 O115 O 0.06060 0.61754 0.50012
 O116 O -0.05992 0.61710 0.50413
 Zr117 Zr 0.00048 0.57995 0.50132
 O118 O 0.04115 0.54237 0.45881
 O119 O -0.03948 0.54029 0.54266
 C120 C -0.10208 0.60477 0.50522
 C121 C 0.10266 0.60507 0.49851
 C122 C -0.00038 0.60042 0.60627
 C123 C 0.00175 0.60439 0.39706
 H124 H 0.06194 0.55963 0.56088
 O125 O 0.04225 0.54064 0.54138
 H126 H -0.06036 0.56144 0.44111
 O127 O -0.04075 0.54173 0.45999
 O128 O 0.11774 0.44037 0.49899
 O129 O -0.11634 0.43990 0.49890
 O130 O 0.06539 0.49569 0.61558
 O131 O 0.06148 0.50387 0.38262
 O132 O -0.06131 0.49989 0.38392
 O133 O -0.05763 0.49889 0.61792
 O134 O 0.00319 0.38172 0.55822
 O135 O -0.00192 0.38422 0.43765
 O136 O 0.00472 0.43507 0.61530
 O137 O -0.00236 0.43962 0.38244
 O138 O 0.11882 0.49824 0.55869
 O139 O -0.11471 0.50131 0.56417
 O140 O -0.11684 0.49982 0.43903
 O141 O 0.11663 0.50428 0.43814
 O142 O 0.06347 0.38396 0.49914
 O143 O -0.06158 0.38392 0.49698
 Zr144 Zr 0.08027 0.50100 0.49894
 Zr145 Zr -0.07935 0.50074 0.50110
 Zr146 Zr 0.00262 0.49795 0.57987
 Zr147 Zr 0.00008 0.50100 0.42017
 Zr148 Zr 0.00089 0.42039 0.49864
 O149 O -0.04097 0.45993 0.45893
 O150 O 0.04304 0.45813 0.53974
 C151 C 0.10544 0.39811 0.49955
 C152 C -0.10363 0.39781 0.49694
 C153 C 0.10707 0.49577 0.60093
 C154 C 0.10350 0.50565 0.39622
 C155 C -0.10334 0.49915 0.39686
 C156 C -0.10001 0.50070 0.60599
 C157 C 0.00497 0.39342 0.60051
 C158 C -0.00361 0.39752 0.39582
 H159 H -0.05862 0.43870 0.56002
 O160 O -0.03960 0.45850 0.54071
 H161 H 0.06077 0.44086 0.43780
 O162 O 0.04158 0.45979 0.45779
 O163 O 0.38454 0.05882 0.50139
 O164 O 0.61826 0.05749 0.49920
 O165 O 0.50004 0.11392 0.56347
 O166 O 0.50372 0.11513 0.43852
 O167 O 0.50429 0.05927 0.38363
 O168 O 0.50007 0.05707 0.61742
 O169 O 0.56425 0.11421 0.49949
 O170 O 0.43930 0.11485 0.50215
 Zr171 Zr 0.50165 0.07814 0.50063
 O172 O 0.54280 0.03899 0.45947
 O173 O 0.46051 0.03838 0.54108
 C174 C 0.39726 0.10094 0.50271
 C175 C 0.60609 0.09980 0.49863
 C176 C 0.49913 0.09940 0.60532
 C177 C 0.50503 0.10136 0.39647
 H178 H 0.56198 0.05704 0.56103
 O179 O 0.54242 0.03811 0.54135
 H180 H 0.44175 0.05865 0.43976
 O181 O 0.46094 0.03903 0.45916
 O182 O 0.61723 -0.06550 0.50219
 O183 O 0.38420 -0.06388 0.49666
 O184 O 0.56355 -0.00575 0.61669
 O185 O 0.56428 -0.00025 0.38368
 O186 O 0.44148 -0.00253 0.38258
 O187 O 0.44063 -0.00173 0.61657
 O188 O 0.50245 -0.11948 0.55903
 O189 O 0.49885 -0.11830 0.43851
 O190 O 0.50325 -0.06574 0.61575
 O191 O 0.49965 -0.06364 0.38265
 O192 O 0.61803 -0.00557 0.56075
 O193 O 0.38453 -0.00082 0.56178
 O194 O 0.38502 -0.00289 0.43676
 O195 O 0.61846 -0.00153 0.44014
 O196 O 0.56074 -0.11943 0.50101
 O197 O 0.44021 -0.11840 0.49635
 Zr198 Zr 0.58083 -0.00321 0.50027
 Zr199 Zr 0.42122 -0.00220 0.49948
 Zr200 Zr 0.50159 -0.00342 0.57971
 Zr201 Zr 0.50214 -0.00196 0.42003
 Zr202 Zr 0.50076 -0.08139 0.49913
 O203 O 0.46001 -0.04277 0.45794
 O204 O 0.54233 -0.04438 0.54100
 C205 C 0.60291 -0.10730 0.50271
 C206 C 0.39819 -0.10572 0.49495
 C207 C 0.60544 -0.00685 0.60277
 C208 C 0.60611 -0.00008 0.39799
 C209 C 0.39924 -0.00321 0.39484
 C210 C 0.39846 -0.00034 0.60386
 C211 C 0.50407 -0.10742 0.60121
 C212 C 0.49803 -0.10560 0.39646
 H213 H 0.44041 -0.06324 0.55960
 O214 O 0.45981 -0.04354 0.54056
 H215 H 0.56183 -0.06312 0.43915
 O216 O 0.54256 -0.04359 0.45845
 C217 C 0.12271 0.18549 -0.01919
 C218 C 0.15389 0.22099 -0.02070
 C219 C 0.19983 0.21282 -0.01263
 C220 C 0.21466 0.16824 -0.00372
 C221 C 0.18339 0.13245 -0.00225
 C222 C 0.13695 0.14084 -0.00947
 N223 N 0.23034 0.25058 -0.01286
 N224 N 0.27258 0.24595 -0.00538
 C225 C 0.30295 0.28382 -0.00495
 C226 C 0.34905 0.27563 0.00215
 C227 C 0.37981 0.31152 0.00313
 C228 C 0.36497 0.35663 -0.00288
 C229 C 0.31847 0.36488 -0.00990
 C230 C 0.28763 0.32870 -0.01100
 H231 H 0.08729 0.19326 -0.02542
 H232 H 0.14215 0.25513 -0.02776
 H233 H 0.25019 0.16116 0.00255
 H234 H 0.19541 0.09851 0.00526
 H235 H 0.36116 0.24123 0.00696
 H236 H 0.41531 0.30373 0.00879
 H237 H 0.30596 0.39913 -0.01473
 H238 H 0.25197 0.33580 -0.01646
 C239 C 0.12212 -0.31279 0.50532
 C240 C 0.15311 -0.27716 0.50446
 C241 C 0.19890 -0.28556 0.49614
 C242 C 0.21375 -0.33038 0.48878
 C243 C 0.18267 -0.36632 0.48975
 C244 C 0.13646 -0.35783 0.49792
 N245 N 0.22944 -0.24791 0.49580
 N246 N 0.27148 -0.25256 0.48756
 C247 C 0.30188 -0.21477 0.48794
 C248 C 0.34777 -0.22266 0.47957
 C249 C 0.37877 -0.18703 0.48129
 C250 C 0.36433 -0.14258 0.49148
 C251 C 0.31795 -0.13447 0.49897
 C252 C 0.28689 -0.17037 0.49732
 H253 H 0.08685 -0.30487 0.51196
 H254 H 0.14141 -0.24279 0.51029
 H255 H 0.24920 -0.33759 0.48236
 H256 H 0.19473 -0.40055 0.48382
 H257 H 0.35960 -0.25667 0.47214
 H258 H 0.41418 -0.19449 0.47481
 H259 H 0.30581 -0.10068 0.50682
 H260 H 0.25139 -0.16350 0.50381
 C261 C 0.81089 0.88367 -0.00211
 C262 C 0.77491 0.85281 -0.00277
 C263 C 0.78309 0.80615 -0.00290
 C264 C 0.82827 0.79050 -0.00241
 C265 C 0.86460 0.82140 -0.00167
 C266 C 0.85651 0.86862 -0.00143
 N267 N 0.74494 0.77575 -0.00329
 N268 N 0.74962 0.73281 -0.00422
 C269 C 0.71177 0.70206 -0.00432
 C270 C 0.72063 0.65555 -0.00582
 C271 C 0.68513 0.62419 -0.00536
 C272 C 0.63950 0.63860 -0.00329
 C273 C 0.63051 0.68555 -0.00213
 C274 C 0.66637 0.71707 -0.00262
 H275 H 0.80258 0.91950 -0.00206
 H276 H 0.74034 0.86538 -0.00316
 H277 H 0.83553 0.75446 -0.00249
 H278 H 0.89892 0.80816 -0.00124
 H279 H 0.75534 0.64349 -0.00721
 H280 H 0.69372 0.58846 -0.00648
 H281 H 0.59592 0.69789 -0.00054
 H282 H 0.65864 0.75298 -0.00145
 C283 C 0.81370 0.37822 0.49284
 C284 C 0.77816 0.34694 0.49213
 C285 C 0.78700 0.30043 0.49368
 C286 C 0.83233 0.28530 0.49557
 C287 C 0.86819 0.31669 0.49627
 C288 C 0.85925 0.36363 0.49517
 N289 N 0.74925 0.26968 0.49375
 N290 N 0.75424 0.22680 0.49513
 C291 C 0.71634 0.19622 0.49559
 C292 C 0.72488 0.14962 0.49653
 C293 C 0.68908 0.11862 0.49740
 C294 C 0.64360 0.13359 0.49745
 C295 C 0.63500 0.18058 0.49640
 C296 C 0.67109 0.21168 0.49546
 H297 H 0.80524 0.41398 0.49171
 H298 H 0.74345 0.35903 0.49060
 H299 H 0.84002 0.24937 0.49675
 H300 H 0.90275 0.30425 0.49800
 H301 H 0.75952 0.13727 0.49665
 H302 H 0.69728 0.08278 0.49815
 H303 H 0.60051 0.19332 0.49634
 H304 H 0.66361 0.24766 0.49477
 C305 C 0.87933 0.18989 -0.00650
 C306 C 0.84869 0.22586 -0.00543
 C307 C 0.80293 0.21798 0.00367
 C308 C 0.78778 0.17333 0.01154
 C309 C 0.81847 0.13708 0.01035
 C310 C 0.86464 0.14505 0.00145
 N311 N 0.77266 0.25587 0.00428
 N312 N 0.73080 0.25144 0.01355
 C313 C 0.70031 0.28916 0.01346
 C314 C 0.65466 0.28116 0.02297
 C315 C 0.62342 0.31659 0.02136
 C316 C 0.63736 0.36096 0.01015
 C317 C 0.68354 0.36923 0.00164
 C318 C 0.71486 0.33351 0.00316
 H319 H 0.91459 0.19736 -0.01372
 H320 H 0.86063 0.26008 -0.01169
 H321 H 0.75238 0.16647 0.01856
 H322 H 0.80615 0.10302 0.01672
 H323 H 0.64317 0.24719 0.03112
 H324 H 0.58819 0.30902 0.02867
 H325 H 0.69529 0.40298 -0.00703
 H326 H 0.75018 0.34045 -0.00421
 C327 C 0.88024 -0.31425 0.50870
 C328 C 0.84901 -0.27880 0.50972
 C329 C 0.80259 -0.28775 0.50941
 C330 C 0.78735 -0.33303 0.50850
 C331 C 0.81864 -0.36887 0.50748
 C332 C 0.86567 -0.35998 0.50726
 N333 N 0.77192 -0.25010 0.50932
 N334 N 0.72910 -0.25526 0.50912
 C335 C 0.69868 -0.21740 0.50835
 C336 C 0.65211 -0.22588 0.50862
 C337 C 0.62128 -0.19006 0.50701
 C338 C 0.63648 -0.14471 0.50500
 C339 C 0.68344 -0.13616 0.50509
 C340 C 0.71436 -0.17226 0.50673
 H341 H 0.91594 -0.30541 0.50880
 H342 H 0.86108 -0.24406 0.51047
 H343 H 0.75141 -0.34070 0.50828
 H344 H 0.80589 -0.40336 0.50652
 H345 H 0.63967 -0.26047 0.50990
 H346 H 0.58540 -0.19813 0.50723
 H347 H 0.69627 -0.10173 0.50367
 H348 H 0.75037 -0.16491 0.50649
 C349 C 0.18839 0.37916 0.49811
 C350 C 0.22425 0.34822 0.49878
 C351 C 0.21588 0.30168 0.50164
 C352 C 0.17066 0.28621 0.50379
 C353 C 0.13447 0.31727 0.50304
 C354 C 0.14293 0.36422 0.50019
 N355 N 0.25392 0.27123 0.50206
 N356 N 0.24932 0.22841 0.50540
 C357 C 0.28732 0.19790 0.50552
 C358 C 0.27891 0.15143 0.50938
 C359 C 0.31465 0.12036 0.50886
 C360 C 0.36001 0.13506 0.50440
 C361 C 0.36854 0.18197 0.50100
 C362 C 0.33247 0.21317 0.50151
 H363 H 0.19653 0.41495 0.49588
 H364 H 0.25884 0.36061 0.49708
 H365 H 0.16330 0.25027 0.50600
 H366 H 0.10002 0.30456 0.50479
 H367 H 0.24438 0.13920 0.51258
 H368 H 0.30649 0.08463 0.51183
 H369 H 0.40292 0.19450 0.49754
 H370 H 0.33984 0.24906 0.49852
 C371 C 0.18356 0.87750 0.01288
 C372 C 0.21914 0.84629 0.01374
 C373 C 0.21072 0.80006 0.00786
 C374 C 0.16570 0.78509 0.00162
 C375 C 0.12978 0.81644 0.00080
 C376 C 0.13838 0.86315 0.00603
 N377 N 0.24863 0.76950 0.00788
 N378 N 0.24416 0.72688 0.00258
 C379 C 0.28232 0.69661 0.00224
 C380 C 0.27431 0.65017 -0.00257
 C381 C 0.31038 0.61947 -0.00318
 C382 C 0.35564 0.63461 0.00094
 C383 C 0.36372 0.68146 0.00566
 C384 C 0.32735 0.71224 0.00637
 H385 H 0.19170 0.91307 0.01744
 H386 H 0.25357 0.85824 0.01872
 H387 H 0.15835 0.74937 -0.00294
 H388 H 0.09550 0.80422 -0.00452
 H389 H 0.23987 0.63768 -0.00586
 H390 H 0.30260 0.58374 -0.00700
 H391 H 0.39803 0.69430 0.00898
 H392 H 0.33443 0.74812 0.01008
 C393 C 0.00457 0.19040 0.11836
 C394 C 0.00403 0.22645 0.14895
 C395 C -0.00261 0.21848 0.19514
 C396 C -0.00854 0.17367 0.21074
 C397 C -0.00787 0.13737 0.18010
 C398 C -0.00142 0.14539 0.13350
 N399 N -0.00287 0.25644 0.22538
 N400 N -0.01008 0.25176 0.26764
 C401 C -0.00984 0.28938 0.29826
 C402 C -0.01752 0.28092 0.34418
 C403 C -0.01607 0.31625 0.37551
 C404 C -0.00683 0.36104 0.36145
 C405 C 0.00001 0.36974 0.31502
 C406 C -0.00137 0.33409 0.28358
 H407 H 0.00981 0.19799 0.08276
 H408 H 0.00874 0.26078 0.13662
 H409 H -0.01364 0.16672 0.24647
 H410 H -0.01266 0.10320 0.19283
 H411 H -0.02423 0.24667 0.35579
 H412 H -0.02203 0.30824 0.41091
 H413 H 0.00714 0.40380 0.30314
 H414 H 0.00458 0.34137 0.24805
 C415 C 0.50151 0.37695 0.81432
 C416 C 0.50127 0.34569 0.77877
 C417 C 0.49862 0.29921 0.78757
 C418 C 0.49623 0.28414 0.83293
 C419 C 0.49654 0.31556 0.86884
 C420 C 0.49915 0.36246 0.85993
 N421 N 0.49860 0.26853 0.74972
 N422 N 0.49562 0.22568 0.75434
 C423 C 0.49587 0.19533 0.71619
 C424 C 0.49241 0.14875 0.72424
 C425 C 0.49315 0.11796 0.68823
 C426 C 0.49745 0.13309 0.64297
 C427 C 0.50052 0.18008 0.63483
 C428 C 0.49978 0.21097 0.67113
 H429 H 0.50364 0.41266 0.80580
 H430 H 0.50317 0.35777 0.74407
 H431 H 0.49418 0.24824 0.84060
 H432 H 0.49463 0.30318 0.90343
 H433 H 0.48929 0.13622 0.75869
 H434 H 0.49044 0.08213 0.69608
 H435 H 0.50383 0.19296 0.60054
 H436 H 0.50247 0.24693 0.66398
 C437 C -0.01689 0.87704 0.81526
 C438 C -0.01763 0.84572 0.77978
 C439 C -0.01086 0.79961 0.78830
 C440 C -0.00391 0.78487 0.83331
 C441 C -0.00320 0.81632 0.86911
 C442 C -0.00928 0.86291 0.86040
 N443 N -0.01059 0.76895 0.75050
 N444 N -0.00456 0.72644 0.75513
 C445 C -0.00384 0.69607 0.71709
 C446 C 0.00163 0.64971 0.72527
 C447 C 0.00274 0.61894 0.68928
 C448 C -0.00150 0.63394 0.64397
 C449 C -0.00693 0.68070 0.63574
 C450 C -0.00816 0.71154 0.67201
 H451 H -0.02210 0.91252 0.80707
 H452 H -0.02315 0.85750 0.74535
 H453 H 0.00135 0.74925 0.84074
 H454 H 0.00273 0.80427 0.90337
 H455 H 0.00506 0.63735 0.75976
 H456 H 0.00706 0.58328 0.69716
 H457 H -0.01039 0.69343 0.60139
 H458 H -0.01238 0.74734 0.66481
 C459 C 0.49170 -0.31238 0.11855
 C460 C 0.49097 -0.27666 0.14948
 C461 C 0.49074 -0.28527 0.19600
 C462 C 0.49084 -0.33044 0.21160
 C463 C 0.49161 -0.36652 0.18063
 C464 C 0.49233 -0.35801 0.13353
 N465 N 0.49109 -0.24745 0.22645
 N466 N 0.49059 -0.25257 0.26929
 C467 C 0.49162 -0.21485 0.29984
 C468 C 0.49039 -0.22361 0.34633
 C469 C 0.49223 -0.18804 0.37739
 C470 C 0.49546 -0.14264 0.36251
 C471 C 0.49632 -0.13378 0.31560
 C472 C 0.49443 -0.16966 0.28442
 H473 H 0.49205 -0.30385 0.08276
 H474 H 0.49084 -0.24201 0.13713
 H475 H 0.49065 -0.33787 0.24761
 H476 H 0.49195 -0.40092 0.19370
 H477 H 0.48819 -0.25823 0.35856
 H478 H 0.49125 -0.19638 0.41321
 H479 H 0.49868 -0.09930 0.30302
 H480 H 0.49542 -0.16213 0.24844
 C481 C 0.00200 0.88392 0.18787
 C482 C 0.00271 0.85311 0.22394
 C483 C 0.00249 0.80643 0.21589
 C484 C 0.00170 0.79071 0.17073
 C485 C 0.00096 0.82157 0.13430
 C486 C 0.00098 0.86882 0.14227
 N487 N 0.00286 0.77609 0.25416
 N488 N 0.00314 0.73312 0.24963
 C489 C 0.00326 0.70241 0.28757
 C490 C 0.00398 0.65587 0.27877
 C491 C 0.00370 0.62453 0.31432
 C492 C 0.00263 0.63895 0.35999
 C493 C 0.00211 0.68592 0.36893
 C494 C 0.00242 0.71744 0.33299
 H495 H 0.00218 0.91976 0.19611
 H496 H 0.00335 0.86574 0.25848
 H497 H 0.00154 0.75467 0.16356
 H498 H 0.00026 0.80828 0.10001
 H499 H 0.00466 0.64378 0.24404
 H500 H 0.00423 0.58879 0.30573
 H501 H 0.00130 0.69828 0.40354
 H502 H 0.00185 0.75337 0.34069
 C503 C 0.49567 -0.31417 0.87702
 C504 C 0.49653 -0.27880 0.84576
 C505 C 0.50320 -0.28774 0.79982
 C506 C 0.50896 -0.33280 0.78506
 C507 C 0.50802 -0.36851 0.81642
 C508 C 0.50144 -0.35949 0.86280
 N509 N 0.50357 -0.25028 0.76909
 N510 N 0.51006 -0.25527 0.72679
 C511 C 0.50975 -0.21740 0.69650
 C512 C 0.51627 -0.22531 0.65031
 C513 C 0.51484 -0.18942 0.61957
 C514 C 0.50679 -0.14473 0.63461
 C515 C 0.50099 -0.13669 0.68124
 C516 C 0.50236 -0.17281 0.71201
 H517 H 0.49031 -0.30580 0.91241
 H518 H 0.49196 -0.24421 0.85737
 H519 H 0.51411 -0.34038 0.74947
 H520 H 0.51266 -0.40297 0.80446
 H521 H 0.52213 -0.25949 0.63809
 H522 H 0.51994 -0.19687 0.58392
 H523 H 0.49481 -0.10272 0.69384
 H524 H 0.49731 -0.16593 0.74776
 C525 C 0.50322 0.38067 0.18918
 C526 C 0.50434 0.34969 0.22501
 C527 C 0.50616 0.30312 0.21651
 C528 C 0.50705 0.28767 0.17126
 C529 C 0.50587 0.31875 0.13514
 C530 C 0.50378 0.36570 0.14370
 N531 N 0.50659 0.27253 0.25443
 N532 N 0.50880 0.22970 0.24947
 C533 C 0.50873 0.19892 0.28722
 C534 C 0.51161 0.15247 0.27842
 C535 C 0.51077 0.12115 0.31394
 C536 C 0.50695 0.13563 0.35942
 C537 C 0.50449 0.18251 0.36832
 C538 C 0.50534 0.21395 0.33248
 H539 H 0.50174 0.41649 0.19733
 H540 H 0.50366 0.36203 0.25965
 H541 H 0.50846 0.25171 0.16382
 H542 H 0.50645 0.30602 0.10065
 H543 H 0.51428 0.14047 0.24377
 H544 H 0.51297 0.08544 0.30552
 H545 H 0.50156 0.19486 0.40282
 H546 H 0.50309 0.24983 0.34012
 C547 C 0.00578 0.18527 0.87696
 C548 C 0.00721 0.22056 0.84556
 C549 C 0.00686 0.21144 0.79917
 C550 C 0.00529 0.16611 0.78415
 C551 C 0.00380 0.13038 0.81565
 C552 C 0.00384 0.13947 0.86265
 N553 N 0.00762 0.24906 0.76844
 N554 N 0.00801 0.24411 0.72558
 C555 C 0.00821 0.28224 0.69541
 C556 C 0.00918 0.27422 0.64875
 C557 C 0.00852 0.31038 0.61820
 C558 C 0.00676 0.35562 0.63377
 C559 C 0.00619 0.36368 0.68082
 C560 C 0.00690 0.32727 0.71144
 H561 H 0.00605 0.19431 0.91262
 H562 H 0.00845 0.25533 0.85748
 H563 H 0.00499 0.15833 0.74822
 H564 H 0.00245 0.09584 0.80311
 H565 H 0.01024 0.23975 0.63602
 H566 H 0.00918 0.30267 0.58225
 H567 H 0.00487 0.39799 0.69395
 H568 H 0.00613 0.33430 0.74751
 C569 C 0.12115 -0.00734 0.18606
 C570 C 0.15230 -0.00859 0.22175
 C571 C 0.19880 -0.00597 0.21323
 C572 C 0.21405 -0.00248 0.16804
 C573 C 0.18276 -0.00123 0.13203
 C574 C 0.13584 -0.00335 0.14068
 N575 N 0.22941 -0.00650 0.25115
 N576 N 0.27226 -0.00432 0.24639
 C577 C 0.30279 -0.00446 0.28439
 C578 C 0.34935 -0.00274 0.27598
 C579 C 0.38033 -0.00245 0.31185
 C580 C 0.36538 -0.00379 0.35732
 C581 C 0.31842 -0.00558 0.36579
 C582 C 0.28732 -0.00594 0.32961
 H583 H 0.08538 -0.00939 0.19428
 H584 H 0.14013 -0.01139 0.25633
 H585 H 0.24997 -0.00046 0.16061
 H586 H 0.19526 0.00176 0.09759
 H587 H 0.36169 -0.00156 0.24137
 H588 H 0.41615 -0.00104 0.30373
 H589 H 0.30571 -0.00669 0.40026
 H590 H 0.25135 -0.00725 0.33697
 C591 C 0.31495 0.49144 0.87793
 C592 C 0.27965 0.49025 0.84646
 C593 C 0.28877 0.49065 0.80008
 C594 C 0.33412 0.49194 0.78514
 C595 C 0.36985 0.49317 0.81670
 C596 C 0.36076 0.49319 0.86370
 N597 N 0.25116 0.49040 0.76927
 N598 N 0.25615 0.49031 0.72641
 C599 C 0.21806 0.49070 0.69612
 C600 C 0.22615 0.49004 0.64948
 C601 C 0.19004 0.49133 0.61882
 C602 C 0.14480 0.49343 0.63428
 C603 C 0.13667 0.49368 0.68131
 C604 C 0.17303 0.49234 0.71203
 H605 H 0.30592 0.49122 0.91357
 H606 H 0.24487 0.48923 0.85832
 H607 H 0.34191 0.49226 0.74923
 H608 H 0.40439 0.49437 0.80421
 H609 H 0.26063 0.48873 0.63684
 H610 H 0.19780 0.49085 0.58289
 H611 H 0.10235 0.49523 0.69435
 H612 H 0.16594 0.49288 0.74809
 C613 C 0.81199 -0.00270 0.88067
 C614 C 0.77635 -0.00444 0.84963
 C615 C 0.78508 -0.00676 0.80324
 C616 C 0.83027 -0.00748 0.78784
 C617 C 0.86626 -0.00563 0.81891
 C618 C 0.85763 -0.00308 0.86589
 N619 N 0.74736 -0.00775 0.77266
 N620 N 0.75254 -0.01088 0.72997
 C621 C 0.71480 -0.01114 0.69940
 C622 C 0.72339 -0.01500 0.65305
 C623 C 0.68775 -0.01409 0.62195
 C624 C 0.64251 -0.00919 0.63670
 C625 C 0.63381 -0.00593 0.68350
 C626 C 0.66974 -0.00686 0.71469
 H627 H 0.80339 -0.00090 0.91638
 H628 H 0.74166 -0.00387 0.86179
 H629 H 0.83775 -0.00924 0.75190
 H630 H 0.90069 -0.00615 0.80602
 H631 H 0.75794 -0.01839 0.64096
 H632 H 0.69588 -0.01701 0.58622
 H633 H 0.59944 -0.00217 0.69595
 H634 H 0.66235 -0.00385 0.75056
 C635 C -0.38271 0.49945 0.18825
 C636 C -0.35177 0.49884 0.22420
 C637 C -0.30517 0.49818 0.21595
 C638 C -0.28962 0.49801 0.17076
 C639 C -0.32061 0.49864 0.13445
 C640 C -0.36779 0.49946 0.14261
 N641 N -0.27470 0.49793 0.25408
 N642 N -0.23178 0.49702 0.24938
 C643 C -0.20106 0.49703 0.28729
 C644 C -0.15455 0.49590 0.27854
 C645 C -0.12325 0.49637 0.31414
 C646 C -0.13775 0.49803 0.35974
 C647 C -0.18469 0.49890 0.36861
 C648 C -0.21615 0.49842 0.33265
 H649 H -0.41851 0.49996 0.19662
 H650 H -0.36423 0.49896 0.25879
 H651 H -0.25361 0.49749 0.16349
 H652 H -0.30749 0.49856 0.10010
 H653 H -0.14246 0.49478 0.24384
 H654 H -0.08750 0.49553 0.30565
 H655 H -0.19708 0.50013 0.40318
 H656 H -0.25208 0.49929 0.34028
 C657 C 0.11931 -0.00018 0.81146
 C658 C 0.15035 -0.00001 0.77570
 C659 C 0.19696 0.00157 0.78427
 C660 C 0.21236 0.00299 0.82958
 C661 C 0.18121 0.00277 0.86564
 C662 C 0.13420 0.00117 0.85700
 N663 N 0.22755 0.00149 0.74636
 N664 N 0.27045 0.00347 0.75122
 C665 C 0.30115 0.00315 0.71340
 C666 C 0.34769 0.00550 0.72214
 C667 C 0.37891 0.00466 0.68656
 C668 C 0.36428 0.00138 0.64103
 C669 C 0.31732 -0.00059 0.63219
 C670 C 0.28598 0.00025 0.66808
 H671 H 0.08348 -0.00143 0.80319
 H672 H 0.13799 -0.00114 0.74104
 H673 H 0.24833 0.00420 0.83712
 H674 H 0.19392 0.00388 0.90016
 H675 H 0.35986 0.00784 0.75680
 H676 H 0.41468 0.00650 0.69497
 H677 H 0.30482 -0.00307 0.59767
 H678 H 0.25005 -0.00156 0.66043
 C679 C 0.31050 0.49815 0.11933
 C680 C 0.27455 0.49917 0.14993
 C681 C 0.28273 0.50554 0.19614
 C682 C 0.32763 0.51086 0.21172
 C683 C 0.36386 0.50972 0.18105
 C684 C 0.35564 0.50338 0.13445
 N685 N 0.24484 0.50594 0.22638
 N686 N 0.24959 0.51276 0.26871
 C687 C 0.21191 0.51248 0.29920
 C688 C 0.22027 0.51983 0.34522
 C689 C 0.18486 0.51820 0.37639
 C690 C 0.14009 0.50909 0.36206
 C691 C 0.13151 0.50258 0.31555
 C692 C 0.16723 0.50417 0.28427
 H693 H 0.30272 0.49308 0.08372
 H694 H 0.24013 0.49494 0.13762
 H695 H 0.33472 0.51575 0.24748
 H696 H 0.39813 0.51394 0.19378
 H697 H 0.25451 0.52640 0.35701
 H698 H 0.19279 0.52388 0.41187
 H699 H 0.09747 0.49557 0.30345
 H700 H 0.16002 0.49846 0.24866
 C701 C 0.81384 0.02218 0.12235
 C702 C 0.77831 0.02343 0.15344
 C703 C 0.78640 0.01467 0.19928
 C704 C 0.83093 0.00548 0.21415
 C705 C 0.86673 0.00430 0.18300
 C706 C 0.85840 0.01208 0.13664
 N707 N 0.74865 0.01432 0.22969
 N708 N 0.75339 0.00572 0.27171
 C709 C 0.71570 0.00459 0.30215
 C710 C 0.72415 -0.00376 0.34800
 C711 C 0.68846 -0.00539 0.37886
 C712 C 0.64331 0.00121 0.36434
 C713 C 0.63478 0.00940 0.31807
 C714 C 0.67077 0.01116 0.28714
 H715 H 0.80619 0.02885 0.08696
 H716 H 0.74419 0.03071 0.14169
 H717 H 0.83796 -0.00131 0.24961
 H718 H 0.90061 -0.00353 0.19504
 H719 H 0.75860 -0.00901 0.35985
 H720 H 0.69642 -0.01199 0.41418
 H721 H 0.60047 0.01476 0.30586
 H722 H 0.66349 0.01758 0.25165
 C723 C -0.37719 0.50985 0.81505
 C724 C -0.34593 0.51053 0.77953
 C725 C -0.29950 0.50676 0.78826
 C726 C -0.28444 0.50268 0.83354
 C727 C -0.31584 0.50202 0.86940
 C728 C -0.36272 0.50531 0.86052
 N729 N -0.26886 0.50675 0.75042
 N730 N -0.22603 0.50347 0.75509
 C731 C -0.19570 0.50313 0.71698
 C732 C -0.14909 0.50022 0.72518
 C733 C -0.11834 0.49951 0.68917
 C734 C -0.13356 0.50161 0.64376
 C735 C -0.18056 0.50458 0.63550
 C736 C -0.21140 0.50536 0.67180
 H737 H -0.41288 0.51275 0.80661
 H738 H -0.35800 0.51378 0.74490
 H739 H -0.24858 0.49976 0.84116
 H740 H -0.30348 0.49852 0.90389
 H741 H -0.13650 0.49846 0.75973
 H742 H -0.08250 0.49721 0.69714
 H743 H -0.19351 0.50632 0.60109
 H744 H -0.24738 0.50761 0.66454
   
