data_POSCAR
  _audit_creation_date              2014-09-24
  _audit_creation_method            'ToBaCCo'
  _symmetry_space_group_name_H-M    'P1'
  _symmetry_Int_Tables_number       1
  _symmetry_cell_setting            triclinic
  loop_
  _symmetry_equiv_pos_as_xyz
 x,y,z
_cell_length_a 36.2165
_cell_length_b 36.3180
_cell_length_c 36.4530
_cell_angle_alpha 90.008700
_cell_angle_beta 89.999600
_cell_angle_gamma 90.008400
loop_
  _atom_site_label
  _atom_site_type_symbol
  _atom_site_fract_x
  _atom_site_fract_y
  _atom_site_fract_z
N1 N 0.30862 0.23477 0.20607
 N2 N 0.29448 0.26527 0.19262
 C3 C 0.31448 0.27579 0.16325
 C4 C 0.34226 0.25029 0.15790
 C5 C 0.33772 0.22458 0.18545
 H6 H 0.30909 0.29990 0.14669
 H7 H 0.35462 0.20054 0.19035
 Cu8 Cu 0.25078 0.28766 0.21426
 Cu9 Cu 0.28899 0.21118 0.24990
 Cu10 Cu 0.21088 0.25016 0.28877
 N11 N 0.20608 0.30835 0.23558
 N12 N 0.19129 0.29419 0.26534
 C13 C 0.16166 0.31436 0.27503
 C14 C 0.15744 0.34233 0.24972
 C15 C 0.18596 0.33770 0.22497
 H16 H 0.14422 0.30890 0.29849
 H17 H 0.19178 0.35475 0.20135
 N18 N 0.23475 0.20560 0.30849
 N19 N 0.26509 0.19134 0.29428
 C20 C 0.27532 0.16201 0.31452
 C21 C 0.24996 0.15741 0.34241
 C22 C 0.22456 0.18536 0.33777
 H23 H 0.29920 0.14496 0.30923
 H24 H 0.20072 0.19072 0.35480
 H25 H 0.23523 0.22865 0.24216
 H26 H 0.26502 0.25759 0.27244
 N27 N 0.69110 -0.23482 0.20511
 N28 N 0.70589 -0.26466 0.19089
 C29 C 0.68619 -0.27478 0.16118
 C30 C 0.65794 -0.24960 0.15633
 C31 C 0.66200 -0.22447 0.18458
 H32 H 0.69198 -0.29852 0.14422
 H33 H 0.64440 -0.20112 0.19042
 Cu34 Cu 0.74990 -0.28694 0.21229
 Cu35 Cu 0.70858 -0.21410 0.25122
 Cu36 Cu 0.78860 -0.25063 0.28815
 N37 N 0.79386 -0.30842 0.23446
 N38 N 0.80797 -0.29487 0.26485
 C39 C 0.83715 -0.31543 0.27502
 C40 C 0.84197 -0.34296 0.24926
 C41 C 0.81415 -0.33764 0.22380
 H42 H 0.85401 -0.31034 0.29899
 H43 H 0.80890 -0.35410 0.19963
 N44 N 0.76458 -0.20599 0.30769
 N45 N 0.73363 -0.19244 0.29410
 C46 C 0.72358 -0.16283 0.31405
 C47 C 0.74961 -0.15743 0.34122
 C48 C 0.77527 -0.18510 0.33634
 H49 H 0.69928 -0.14625 0.30915
 H50 H 0.79956 -0.18993 0.35289
 H51 H 0.76295 -0.22867 0.24245
 H52 H 0.73541 -0.26036 0.27211
 N53 N 0.69187 0.23528 0.79365
 N54 N 0.70621 0.26558 0.80735
 C55 C 0.68609 0.27615 0.83662
 C56 C 0.65805 0.25083 0.84169
 C57 C 0.66256 0.22522 0.81404
 H58 H 0.69157 0.30014 0.85334
 H59 H 0.64551 0.20130 0.80893
 Cu60 Cu 0.75045 0.28746 0.78615
 Cu61 Cu 0.71153 0.21170 0.74982
 Cu62 Cu 0.78934 0.25101 0.71065
 N63 N 0.79470 0.30876 0.76436
 N64 N 0.80888 0.29521 0.73400
 C65 C 0.83814 0.31577 0.72395
 C66 C 0.84287 0.34333 0.74973
 C67 C 0.81492 0.33800 0.77508
 H68 H 0.85509 0.31068 0.70005
 H69 H 0.80950 0.35455 0.79917
 N70 N 0.76559 0.20625 0.69105
 N71 N 0.73539 0.19186 0.70543
 C72 C 0.72521 0.16242 0.68531
 C73 C 0.75045 0.15785 0.65731
 C74 C 0.77574 0.18595 0.66177
 H75 H 0.70142 0.14527 0.69075
 H76 H 0.79948 0.19137 0.64462
 H77 H 0.76548 0.22882 0.75723
 H78 H 0.73544 0.25835 0.72777
 N79 N 0.30814 -0.23507 0.79501
 N80 N 0.29327 -0.26491 0.80917
 C81 C 0.31328 -0.27543 0.83855
 C82 C 0.34181 -0.25056 0.84317
 C83 C 0.33768 -0.22527 0.81518
 H84 H 0.30748 -0.29914 0.85553
 H85 H 0.35522 -0.20182 0.80963
 Cu86 Cu 0.24904 -0.28647 0.78764
 Cu87 Cu 0.28893 -0.21174 0.75077
 Cu88 Cu 0.21101 -0.25113 0.71153
 N89 N 0.20481 -0.30805 0.76611
 N90 N 0.19113 -0.29498 0.73532
 C91 C 0.16205 -0.31565 0.72511
 C92 C 0.15684 -0.34281 0.75120
 C93 C 0.18436 -0.33713 0.77695
 H94 H 0.14554 -0.31095 0.70083
 H95 H 0.18940 -0.35334 0.80132
 N96 N 0.23512 -0.20667 0.69165
 N97 N 0.26532 -0.19225 0.70602
 C98 C 0.27553 -0.16288 0.68583
 C99 C 0.25029 -0.15838 0.65781
 C100 C 0.22500 -0.18646 0.66232
 H101 H 0.29925 -0.14565 0.69130
 H102 H 0.20119 -0.19184 0.64524
 H103 H 0.23484 -0.22817 0.75770
 H104 H 0.26484 -0.25835 0.72897
 N105 N 0.69233 -0.23448 0.79467
 N106 N 0.70724 -0.26428 0.80881
 C107 C 0.68735 -0.27479 0.83826
 C108 C 0.65887 -0.24992 0.84293
 C109 C 0.66287 -0.22466 0.81492
 H110 H 0.69320 -0.29849 0.85523
 H111 H 0.64530 -0.20122 0.80940
 Cu112 Cu 0.75133 -0.28586 0.78727
 Cu113 Cu 0.71139 -0.21124 0.75036
 Cu114 Cu 0.78920 -0.25071 0.71102
 N115 N 0.79544 -0.30742 0.76572
 N116 N 0.80906 -0.29446 0.73487
 C117 C 0.83805 -0.31521 0.72463
 C118 C 0.84321 -0.34230 0.75077
 C119 C 0.81581 -0.33650 0.77658
 H120 H 0.85451 -0.31063 0.70028
 H121 H 0.81077 -0.35267 0.80098
 N122 N 0.76506 -0.20636 0.69113
 N123 N 0.73489 -0.19191 0.70554
 C124 C 0.72464 -0.16260 0.68530
 C125 C 0.74983 -0.15820 0.65724
 C126 C 0.77513 -0.18624 0.66174
 H127 H 0.70095 -0.14534 0.69078
 H128 H 0.79889 -0.19166 0.64462
 H129 H 0.73544 -0.25790 0.72859
 H130 H 0.76551 -0.22767 0.75719
 N131 N 0.30853 0.23488 0.79392
 N132 N 0.29441 0.26538 0.80737
 C133 C 0.31442 0.27590 0.83672
 C134 C 0.34218 0.25038 0.84202
 C135 C 0.33762 0.22467 0.81450
 H136 H 0.30907 0.30002 0.85328
 H137 H 0.35453 0.20063 0.80957
 Cu138 Cu 0.25081 0.28782 0.78575
 Cu139 Cu 0.28897 0.21130 0.75014
 Cu140 Cu 0.21089 0.25029 0.71128
 N141 N 0.20612 0.30844 0.76448
 N142 N 0.19134 0.29428 0.73470
 C143 C 0.16172 0.31443 0.72502
 C144 C 0.15750 0.34237 0.75035
 C145 C 0.18600 0.33776 0.77511
 H146 H 0.14428 0.30897 0.70156
 H147 H 0.19181 0.35481 0.79873
 N148 N 0.23476 0.20578 0.69160
 N149 N 0.26510 0.19152 0.70581
 C150 C 0.27533 0.16219 0.68561
 C151 C 0.24997 0.15759 0.65774
 C152 C 0.22457 0.18553 0.66234
 H153 H 0.29920 0.14513 0.69091
 H154 H 0.20072 0.19086 0.64531
 H155 H 0.26506 0.25772 0.72761
 H156 H 0.23524 0.22881 0.75793
 N157 N 0.30907 -0.23470 0.20614
 N158 N 0.29466 -0.26496 0.19243
 C159 C 0.31465 -0.27552 0.16308
 C160 C 0.34270 -0.25027 0.15804
 C161 C 0.33834 -0.22468 0.18571
 H162 H 0.30908 -0.29947 0.14635
 H163 H 0.35548 -0.20084 0.19083
 Cu164 Cu 0.25079 -0.28701 0.21389
 Cu165 Cu 0.28957 -0.21115 0.25003
 Cu166 Cu 0.21131 -0.25005 0.28875
 N167 N 0.20622 -0.30782 0.23514
 N168 N 0.19166 -0.29388 0.26512
 C169 C 0.16206 -0.31404 0.27482
 C170 C 0.15763 -0.34175 0.24930
 C171 C 0.18597 -0.33701 0.22439
 H172 H 0.14477 -0.30873 0.29842
 H173 H 0.19157 -0.35389 0.20059
 N174 N 0.23532 -0.20570 0.30858
 N175 N 0.26570 -0.19145 0.29444
 C176 C 0.27594 -0.16218 0.31474
 C177 C 0.25053 -0.15763 0.34257
 C178 C 0.22511 -0.18552 0.33787
 H179 H 0.29984 -0.14513 0.30950
 H180 H 0.20122 -0.19087 0.35485
 H181 H 0.26536 -0.25757 0.27225
 H182 H 0.23566 -0.22819 0.24233
 N183 N 0.69108 0.23422 0.20584
 N184 N 0.70594 0.26406 0.19172
 C185 C 0.68589 0.27472 0.16247
 C186 C 0.65737 0.24992 0.15786
 C187 C 0.66148 0.22452 0.18573
 H188 H 0.69177 0.29839 0.14545
 H189 H 0.64399 0.20100 0.19115
 Cu190 Cu 0.75061 0.28538 0.21223
 Cu191 Cu 0.71056 0.21075 0.24973
 Cu192 Cu 0.78866 0.24976 0.28855
 N193 N 0.79421 0.30706 0.23456
 N194 N 0.80830 0.29363 0.26499
 C195 C 0.83737 0.31432 0.27516
 C196 C 0.84192 0.34189 0.24950
 C197 C 0.81420 0.33651 0.22406
 H198 H 0.85424 0.30946 0.29915
 H199 H 0.80885 0.35310 0.20001
 N200 N 0.76473 0.20534 0.30832
 N201 N 0.73438 0.19107 0.29413
 C202 C 0.72413 0.16179 0.31439
 C203 C 0.74951 0.15724 0.34226
 C204 C 0.77491 0.18516 0.33761
 H205 H 0.70026 0.14471 0.30911
 H206 H 0.79877 0.19052 0.35461
 H207 H 0.73494 0.25759 0.27104
 H208 H 0.76472 0.22706 0.24233
 O209 O 0.21964 0.03575 0.46473
 O210 O 0.21967 -0.03629 0.53593
 O211 O 0.21964 0.03575 0.53587
 O212 O 0.21976 -0.03624 0.46478
 O213 O 0.28078 -0.03585 0.46452
 O214 O 0.28065 0.03552 0.53620
 O215 O 0.28068 -0.03589 0.53630
 O216 O 0.28065 0.03551 0.46444
 Cu217 Cu 0.21355 -0.00027 0.50033
 Cu218 Cu 0.28682 -0.00017 0.50038
 C219 C 0.25014 0.04780 0.45241
 C220 C 0.25018 -0.04828 0.54828
 C221 C 0.25013 0.04782 0.54816
 C222 C 0.25030 -0.04819 0.45249
 O223 O 0.78042 0.03563 0.53537
 O224 O 0.78017 -0.03631 0.46405
 O225 O 0.78016 0.03565 0.46425
 O226 O 0.78026 -0.03644 0.53524
 O227 O 0.71925 -0.03606 0.53570
 O228 O 0.71915 0.03536 0.46406
 O229 O 0.71916 -0.03600 0.46388
 O230 O 0.71941 0.03538 0.53583
 Cu231 Cu 0.78638 -0.00039 0.49973
 Cu232 Cu 0.71312 -0.00034 0.49990
 C233 C 0.74996 0.04771 0.54775
 C234 C 0.74964 -0.04827 0.45173
 C235 C 0.74963 0.04767 0.45202
 C236 C 0.74977 -0.04843 0.54760
 O237 O 0.46421 0.22050 0.03550
 O238 O 0.53592 0.22072 -0.03618
 O239 O 0.53569 0.22047 0.03556
 O240 O 0.46434 0.22053 -0.03619
 O241 O 0.46395 0.28137 -0.03583
 O242 O 0.53606 0.28132 0.03537
 O243 O 0.53622 0.28156 -0.03581
 O244 O 0.46387 0.28134 0.03534
 Cu245 Cu 0.50006 0.21445 -0.00036
 Cu246 Cu 0.50002 0.28752 -0.00023
 C247 C 0.45183 0.25088 0.04759
 C248 C 0.54830 0.25115 -0.04814
 C249 C 0.54802 0.25086 0.04765
 C250 C 0.45194 0.25094 -0.04814
 O251 O 0.53623 0.77945 0.03644
 O252 O 0.46485 0.77915 -0.03556
 O253 O 0.46477 0.77930 0.03613
 O254 O 0.53643 0.77938 -0.03537
 O255 O 0.53674 0.71854 -0.03531
 O256 O 0.46484 0.71846 0.03616
 O257 O 0.46446 0.71832 -0.03506
 O258 O 0.53723 0.71862 0.03577
 Cu259 Cu 0.50057 0.78542 0.00039
 Cu260 Cu 0.50081 0.71235 0.00041
 C261 C 0.54897 0.74911 0.04824
 C262 C 0.45240 0.74872 -0.04745
 C263 C 0.45262 0.74888 0.04830
 C264 C 0.54879 0.74901 -0.04748
 O265 O 0.03545 0.46489 0.21841
 O266 O -0.03719 0.53603 0.21816
 O267 O 0.03520 0.53631 0.21828
 O268 O -0.03671 0.46470 0.21848
 O269 O -0.03659 0.46485 0.27910
 O270 O 0.03510 0.53652 0.27891
 O271 O -0.03640 0.53687 0.27877
 O272 O 0.03491 0.46459 0.27902
 Cu273 Cu -0.00080 0.50049 0.21222
 Cu274 Cu -0.00076 0.50074 0.28504
 C275 C 0.04739 0.45253 0.24876
 C276 C -0.04904 0.54861 0.24846
 C277 C 0.04737 0.54856 0.24858
 C278 C -0.04882 0.45257 0.24885
 O279 O 0.03583 0.53604 0.78184
 O280 O -0.03694 0.46489 0.78146
 O281 O 0.03538 0.46463 0.78158
 O282 O -0.03662 0.53627 0.78167
 O283 O -0.03618 0.53667 0.72105
 O284 O 0.03543 0.46480 0.72096
 O285 O -0.03607 0.46448 0.72085
 O286 O 0.03532 0.53683 0.72124
 Cu287 Cu -0.00060 0.50046 0.78773
 Cu288 Cu -0.00039 0.50072 0.71495
 C289 C 0.04784 0.54861 0.75159
 C290 C -0.04870 0.45245 0.75106
 C291 C 0.04759 0.45252 0.75124
 C292 C -0.04859 0.54867 0.75135
 N293 N 0.37745 0.28140 0.10935
 C294 C 0.37067 0.25046 0.12913
 N295 N 0.39065 0.21967 0.12196
 N296 N 0.41636 0.21976 0.09582
 C297 C 0.42329 0.25075 0.07616
 N298 N 0.40343 0.28160 0.08346
 N299 N 0.62746 0.72104 0.10598
 C300 C 0.63077 0.75010 0.12923
 N301 N 0.60697 0.77879 0.12568
 N302 N 0.58108 0.77857 0.09970
 C303 C 0.57763 0.74938 0.07668
 N304 N 0.60120 0.72056 0.08037
 N305 N 0.62282 0.28184 -0.10971
 C306 C 0.62958 0.25096 -0.12960
 N307 N 0.60956 0.22016 -0.12254
 N308 N 0.58382 0.22018 -0.09643
 C309 C 0.57690 0.25111 -0.07668
 N310 N 0.59681 0.28197 -0.08384
 N311 N 0.37707 0.71835 -0.10825
 C312 C 0.37054 0.74914 -0.12836
 N313 N 0.39107 0.77971 -0.12179
 N314 N 0.41703 0.77959 -0.09589
 C315 C 0.42370 0.74877 -0.07590
 N316 N 0.40332 0.71811 -0.08261
 N317 N 0.12238 0.39111 0.21868
 C318 C 0.12883 0.37098 0.24940
 N319 N 0.10839 0.37778 0.27987
 N320 N 0.08257 0.40390 0.27970
 C321 C 0.07597 0.42390 0.24893
 N322 N 0.09627 0.41697 0.21839
 N323 N 0.12533 0.60743 0.78081
 C324 C 0.12965 0.62998 0.75138
 N325 N 0.10689 0.62558 0.72208
 N326 N 0.08101 0.59950 0.72208
 C327 C 0.07654 0.57717 0.75160
 N328 N 0.09909 0.58167 0.78102
 N329 N -0.10770 0.62578 0.27805
 C330 C -0.13083 0.62988 0.24900
 N331 N -0.12690 0.60705 0.21973
 N332 N -0.10065 0.58133 0.21940
 C333 C -0.07772 0.57714 0.24856
 N334 N -0.08182 0.59972 0.27795
 N335 N -0.12637 0.39349 0.77937
 C336 C -0.13000 0.37060 0.75010
 N337 N -0.10671 0.37480 0.72119
 N338 N -0.08099 0.40105 0.72141
 C339 C -0.07723 0.42373 0.75077
 N340 N -0.10029 0.41939 0.77981
 N341 N 0.28090 0.10887 0.37782
 C342 C 0.25001 0.12890 0.37101
 N343 N 0.21916 0.12216 0.39108
 N344 N 0.21915 0.09619 0.41690
 C345 C 0.25010 0.07629 0.42385
 N346 N 0.28101 0.08317 0.40391
 N347 N 0.78111 0.12241 0.60865
 C348 C 0.75033 0.12922 0.62880
 N349 N 0.71943 0.10912 0.62219
 N350 N 0.71925 0.08328 0.59622
 C351 C 0.75008 0.07633 0.57621
 N352 N 0.78105 0.09630 0.58296
 N353 N 0.28108 -0.10953 0.62266
 C354 C 0.25026 -0.12972 0.62935
 N355 N 0.21940 -0.12300 0.60930
 N356 N 0.21931 -0.09690 0.58360
 C357 C 0.25020 -0.07685 0.57676
 N358 N 0.28111 -0.08370 0.59670
 N359 N 0.78062 -0.12201 0.38963
 C360 C 0.74965 -0.12886 0.36978
 N361 N 0.71865 -0.10913 0.37701
 N362 N 0.71858 -0.08359 0.40327
 C363 C 0.74960 -0.07662 0.42300
 N364 N 0.78065 -0.09621 0.41563
 N365 N 0.60985 0.78030 -0.12180
 C366 C 0.63031 0.74973 -0.12854
 N367 N 0.62385 0.71888 -0.10852
 N368 N 0.59771 0.71856 -0.08280
 C369 C 0.57738 0.74921 -0.07594
 N370 N 0.58399 0.78011 -0.09582
 N371 N 0.37743 0.28149 -0.10957
 C372 C 0.37061 0.25056 -0.12934
 N373 N 0.39062 0.21977 -0.12228
 N374 N 0.41642 0.21985 -0.09624
 C375 C 0.42338 0.25084 -0.07661
 N376 N 0.40349 0.28169 -0.08378
 N377 N 0.37795 0.71849 0.10968
 C378 C 0.37122 0.74944 0.12946
 N379 N 0.39136 0.78016 0.12245
 N380 N 0.41719 0.77999 0.09644
 C381 C 0.42408 0.74899 0.07680
 N382 N 0.40406 0.71821 0.08393
 N383 N 0.62258 0.28109 0.10919
 C384 C 0.62891 0.25025 0.12925
 N385 N 0.60855 0.21965 0.12237
 N386 N 0.58289 0.21981 0.09620
 C387 C 0.57641 0.25070 0.07626
 N388 N 0.59663 0.28138 0.08328
 N389 N -0.10714 0.62579 0.72163
 C390 C -0.12979 0.63040 0.75096
 N391 N -0.12559 0.60793 0.78046
 N392 N -0.09953 0.58202 0.78071
 C393 C -0.07709 0.57730 0.75126
 N394 N -0.08144 0.59955 0.72167
 N395 N -0.10988 0.37804 0.28003
 C396 C -0.12976 0.37074 0.24932
 N397 N -0.12296 0.39049 0.21845
 N398 N -0.09703 0.41650 0.21824
 C399 C -0.07727 0.42392 0.24901
 N400 N -0.08422 0.40430 0.27993
 N401 N 0.12237 0.39102 0.78143
 C402 C 0.12892 0.37099 0.75067
 N403 N 0.10863 0.37788 0.72013
 N404 N 0.08283 0.40401 0.72028
 C405 C 0.07612 0.42390 0.75110
 N406 N 0.09628 0.41688 0.78171
 N407 N 0.10878 0.62287 0.27958
 C408 C 0.12898 0.62974 0.24899
 N409 N 0.12225 0.60981 0.21820
 N410 N 0.09606 0.58404 0.21797
 C411 C 0.07598 0.57706 0.24864
 N412 N 0.08287 0.59685 0.27947
 N413 N 0.78064 -0.12300 0.60862
 C414 C 0.74981 -0.12966 0.62874
 N415 N 0.71898 -0.10951 0.62206
 N416 N 0.71891 -0.08375 0.59605
 C417 C 0.74979 -0.07696 0.57606
 N418 N 0.78069 -0.09697 0.58287
 N419 N 0.28133 -0.10910 0.37800
 C420 C 0.25047 -0.12916 0.37112
 N421 N 0.21956 -0.12249 0.39110
 N422 N 0.21945 -0.09654 0.41693
 C423 C 0.25036 -0.07662 0.42396
 N424 N 0.28133 -0.08342 0.40410
 N425 N 0.78041 0.12207 0.39079
 C426 C 0.74952 0.12877 0.37080
 N427 N 0.71865 0.10872 0.37763
 N428 N 0.71862 0.08299 0.40369
 C429 C 0.74958 0.07616 0.42354
 N430 N 0.78050 0.09608 0.41657
 N431 N 0.28091 0.10904 0.62249
 C432 C 0.25001 0.12907 0.62925
 N433 N 0.21916 0.12230 0.60921
 N434 N 0.21914 0.09626 0.58347
 C435 C 0.25009 0.07635 0.57659
 N436 N 0.28101 0.08327 0.59649
   
