data_POSCAR
  _audit_creation_date              2014-09-24
  _audit_creation_method            'ToBaCCo'
  _symmetry_space_group_name_H-M    'P1'
  _symmetry_Int_Tables_number       1
  _symmetry_cell_setting            triclinic
  loop_
  _symmetry_equiv_pos_as_xyz
 x,y,z
_cell_length_a 18.7868
_cell_length_b 18.9081
_cell_length_c 18.8973
_cell_angle_alpha 90.576600
_cell_angle_beta 89.924900
_cell_angle_gamma 90.142200
loop_
  _atom_site_label
  _atom_site_type_symbol
  _atom_site_fract_x
  _atom_site_fract_y
  _atom_site_fract_z
C1 C 0.30544 0.93819 -0.48007
 C2 C 0.30585 0.94063 -0.55258
 C3 C 0.36143 0.98521 -0.57146
 N4 N 0.39271 1.01175 -0.51234
 C5 C 0.35711 0.98504 -0.45647
 C6 C 0.38079 1.00765 -0.64051
 C7 C 0.44963 1.03729 -0.64777
 C8 C 0.46964 1.09469 -0.68858
 C9 C 0.54290 1.09818 -0.68621
 C10 C 0.56484 1.04398 -0.64268
 N11 N 0.50785 1.00917 -0.61707
 C12 C 0.63577 1.02405 -0.62985
 C13 C 0.65738 1.01375 -0.55887
 C14 C 0.72703 1.00666 -0.53612
 C15 C 0.72477 1.00348 -0.46418
 C16 C 0.65360 1.00708 -0.44444
 N17 N 0.61268 1.01520 -0.50262
 C18 C 0.62757 1.00847 -0.37381
 C19 C 0.55564 1.02659 -0.36014
 C20 C 0.53198 1.06395 -0.30153
 C21 C 0.45921 1.06176 -0.30274
 C22 C 0.43929 1.02692 -0.36485
 N23 N 0.49909 1.00622 -0.39983
 C24 C 0.36864 1.00842 -0.38586
 H25 H 0.27083 0.90503 -0.44883
 H26 H 0.26903 0.91180 -0.58571
 H27 H 0.50110 0.97269 -0.44398
 H28 H 0.43534 1.13035 -0.71710
 H29 H 0.57633 1.13587 -0.71345
 H30 H 0.77544 1.00729 -0.56705
 H31 H 0.77165 1.00270 -0.43127
 H32 H 0.42711 1.08287 -0.26046
 H33 H 0.50919 0.96354 -0.58634
 H34 H 0.56362 1.08972 -0.26099
 C35 C -0.72413 1.53864 0.02552
 C36 C -0.72569 1.46684 0.03112
 C37 C -0.65570 1.44423 0.02857
 N38 N -0.61130 1.50048 0.02292
 C39 C -0.65314 1.55846 0.01852
 C40 C -0.63314 1.37297 0.03396
 C41 C -0.56133 1.35939 0.04999
 C42 C -0.53737 1.31209 0.10001
 C43 C -0.46433 1.31024 0.09379
 C44 C -0.44646 1.35494 0.03872
 N45 N -0.50569 1.38730 0.01474
 C46 C -0.37869 1.36383 0.00738
 C47 C -0.35972 1.43325 -0.01354
 C48 C -0.30394 1.45287 -0.05738
 C49 C -0.30364 1.52536 -0.05872
 C50 C -0.35585 1.54813 -0.01208
 N51 N -0.39138 1.49179 0.01373
 C52 C -0.36773 1.61858 0.01147
 C53 C -0.43870 1.64045 0.02785
 C54 C -0.45871 1.70511 0.05743
 C55 C -0.53143 1.70645 0.05934
 C56 C -0.55522 1.64482 0.02712
 N57 N -0.49855 1.60390 0.00981
 C58 C -0.62766 1.62918 0.01151
 H59 H -0.77070 1.57184 0.02946
 H60 H -0.77332 1.43568 0.03897
 H61 H -0.50064 1.55739 -0.02021
 H62 H -0.56937 1.28213 0.13684
 H63 H -0.42880 1.27964 0.12639
 H64 H -0.26677 1.42024 -0.08619
 H65 H -0.26855 1.55728 -0.09075
 H66 H -0.56306 1.74920 0.08111
 H67 H -0.50876 1.42056 -0.02897
 H68 H -0.42657 1.74928 0.07428
 C69 C -0.06474 0.53423 0.29577
 C70 C -0.06778 0.46192 0.29380
 C71 C -0.02702 0.43893 0.34985
 N72 N 0.00215 0.49428 0.38508
 C73 C -0.01859 0.55282 0.35018
 C74 C -0.01878 0.36770 0.36900
 C75 C -0.03160 0.35007 0.44025
 C76 C -0.07481 0.29498 0.46175
 C77 C -0.07520 0.29690 0.53432
 C78 C -0.02939 0.35097 0.55530
 N79 N -0.00560 0.38537 0.49733
 C80 C -0.00740 0.36543 0.62599
 C81 C 0.00241 0.43729 0.64836
 C82 C 0.01121 0.45985 0.71792
 C83 C 0.01525 0.53166 0.71720
 C84 C 0.00564 0.55262 0.64770
 N85 N -0.00114 0.49451 0.60547
 C86 C 0.00522 0.62439 0.62461
 C87 C 0.02274 0.64069 0.55308
 C88 C 0.05893 0.70084 0.53213
 C89 C 0.05740 0.70220 0.45986
 C90 C 0.02436 0.64028 0.43691
 N91 N 0.00355 0.60291 0.49477
 C92 C 0.00831 0.62149 0.36511
 H93 H -0.09426 0.56885 0.26139
 H94 H -0.09914 0.43029 0.25740
 H95 H -0.02915 0.55831 0.49471
 H96 H -0.10479 0.25864 0.42868
 H97 H -0.10596 0.26214 0.56776
 H98 H 0.01260 0.42919 0.76575
 H99 H 0.02551 0.56392 0.76359
 H100 H 0.07711 0.74632 0.43020
 H101 H 0.03236 0.42572 0.49636
 H102 H 0.08311 0.74111 0.56536
 O103 O -0.18372 0.99275 -0.09315
 O104 O 0.18176 1.00162 -0.10604
 O105 O -0.00581 1.09165 -0.18523
 O106 O -0.00103 0.90258 -0.18744
 O107 O 0.00568 0.81588 -0.10275
 O108 O -0.00368 1.17925 -0.09941
 O109 O 0.09182 0.99736 -0.18883
 O110 O -0.09975 0.99784 -0.18198
 Zr111 Zr -0.00164 0.99724 -0.12792
 O112 O 0.06677 0.93432 -0.07147
 O113 O -0.06582 1.05998 -0.06562
 C114 C -0.16480 0.99554 -0.15895
 C115 C 0.15824 0.99974 -0.17071
 C116 C -0.00532 1.15729 -0.16499
 C117 C 0.00188 0.83716 -0.16785
 H118 H 0.09273 1.09412 -0.09877
 O119 O 0.06321 1.06298 -0.06888
 H120 H -0.09319 0.90023 -0.09584
 O121 O -0.06226 0.93125 -0.06670
 O122 O 0.18773 1.00365 0.08557
 O123 O -0.17876 0.99297 0.09488
 O124 O 0.09604 1.18073 0.00263
 O125 O 0.10295 0.81800 -0.01053
 O126 O -0.08785 0.81213 -0.00024
 O127 O -0.09920 1.17633 -0.00398
 O128 O 0.00522 1.09316 0.17911
 O129 O 0.00804 0.90000 0.17715
 O130 O -0.00124 1.17963 0.09373
 O131 O 0.00835 0.81493 0.08871
 O132 O 0.18361 1.09557 -0.00288
 O133 O -0.18294 1.08689 -0.00055
 O134 O -0.17704 0.89550 0.00522
 O135 O 0.18752 0.90650 -0.01322
 O136 O 0.10404 1.00151 0.17512
 O137 O -0.09122 0.99467 0.18029
 Zr138 Zr 0.12692 1.00011 -0.00796
 Zr139 Zr -0.12224 0.99332 -0.00045
 Zr140 Zr -0.00055 1.12219 -0.00293
 Zr141 Zr 0.00565 0.87289 -0.00573
 Zr142 Zr 0.00530 0.99681 0.12109
 O143 O -0.05889 0.93068 0.06169
 O144 O 0.06643 1.06257 0.05895
 C145 C 0.16916 1.00439 0.15171
 C146 C -0.15748 0.99494 0.15987
 C147 C 0.16222 1.16034 0.00297
 C148 C 0.16810 0.84065 -0.01317
 C149 C -0.15400 0.83073 0.00458
 C150 C -0.16440 1.15300 -0.00205
 C151 C 0.00172 1.15868 0.15900
 C152 C 0.00885 0.83468 0.15465
 H153 H -0.09184 1.08863 0.09229
 O154 O -0.06112 1.05898 0.06173
 H155 H 0.10168 0.90578 0.08608
 O156 O 0.06953 0.93511 0.05729
 C157 C 0.32893 1.00647 0.30174
 C158 C 0.26547 1.05530 0.31865
 C159 C 0.21343 1.05507 0.26895
 C160 C 0.22821 1.00608 0.20572
 C161 C 0.30117 1.03007 0.17750
 C162 C 0.35394 1.02884 0.22687
 C163 C 0.29626 0.93302 0.28613
 C164 C 0.24297 0.93315 0.23730
 H165 H 0.26246 1.08872 0.36564
 H166 H 0.16664 1.08827 0.27354
 H167 H 0.31244 1.03959 0.12204
 H168 H 0.40890 1.03215 0.20988
 H169 H 0.31814 0.88398 0.30600
 H170 H 0.21941 0.88464 0.21708
 C171 C -0.31303 1.01665 0.31263
 C172 C -0.34222 1.01588 0.23613
 C173 C -0.29105 1.00918 0.18557
 C174 C -0.21483 1.00207 0.21526
 C175 C -0.20493 1.06743 0.26294
 C176 C -0.25623 1.07546 0.31307
 C177 C -0.27127 0.94622 0.31546
 C178 C -0.21959 0.93934 0.26543
 H179 H -0.39809 1.01400 0.22195
 H180 H -0.30471 1.00437 0.12994
 H181 H -0.16115 1.10447 0.25760
 H182 H -0.25643 1.11990 0.34994
 H183 H -0.28374 0.90372 0.35170
 H184 H -0.18879 0.89142 0.25907
 C185 C -0.31921 1.00141 -0.31227
 C186 C -0.27418 1.06904 -0.30451
 C187 C -0.22380 1.06638 -0.25349
 C188 C -0.22240 0.99652 -0.21349
 C189 C -0.29874 0.98626 -0.18560
 C190 C -0.34913 0.98724 -0.23733
 C191 C -0.26556 0.94008 -0.32096
 C192 C -0.21418 0.93854 -0.27032
 H193 H -0.28190 1.11571 -0.33658
 H194 H -0.18856 1.11065 -0.24197
 H195 H -0.31160 0.97171 -0.13164
 H196 H -0.40322 0.97035 -0.22649
 H197 H -0.26995 0.89903 -0.36131
 H198 H -0.17450 0.89696 -0.26819
 C199 C 0.30767 1.00865 -0.33049
 C200 C 0.23047 0.99736 -0.35689
 C201 C 0.18114 0.99251 -0.30443
 C202 C 0.21210 1.00272 -0.22958
 C203 C 0.27046 0.94696 -0.22364
 C204 C 0.31996 0.95009 -0.27582
 C205 C 0.29939 1.07779 -0.28711
 C206 C 0.25112 1.07404 -0.23330
 H207 H 0.21296 1.00598 -0.41071
 H208 H 0.12459 0.99150 -0.31619
 H209 H 0.27238 0.90769 -0.18216
 H210 H 0.36416 0.91326 -0.27859
 H211 H 0.32381 1.12761 -0.30187
 H212 H 0.23696 1.11979 -0.20109
 C213 C 0.31585 1.31517 0.02593
 C214 C 0.34664 1.24021 0.01318
 C215 C 0.29631 1.18870 0.00625
 C216 C 0.21916 1.21614 0.01117
 C217 C 0.21592 1.25563 0.08239
 C218 C 0.26620 1.30704 0.09020
 C219 C 0.26615 1.32415 -0.03860
 C220 C 0.21524 1.27343 -0.04523
 H221 H 0.40249 1.22851 0.00458
 H222 H 0.31058 1.13434 -0.00597
 H223 H 0.17920 1.24204 0.12449
 H224 H 0.27164 1.33778 0.13874
 H225 H 0.27215 1.36557 -0.07756
 H226 H 0.17780 1.27249 -0.08869
 C227 C 0.32139 0.68654 0.00099
 C228 C 0.28195 0.70446 0.07019
 C229 C 0.23196 0.75545 0.06415
 C230 C 0.22522 0.78554 -0.01039
 C231 C 0.30063 0.81028 -0.03025
 C232 C 0.35058 0.75831 -0.02593
 C233 C 0.26276 0.67063 -0.05451
 C234 C 0.21186 0.72146 -0.05912
 H235 H 0.29290 0.67908 0.12031
 H236 H 0.20035 0.77346 0.10899
 H237 H 0.31261 0.86165 -0.05252
 H238 H 0.40373 0.76603 -0.04707
 H239 H 0.26319 0.62501 -0.08988
 H240 H 0.16863 0.71817 -0.09700
 C241 C -0.30609 0.67330 0.01298
 C242 C -0.30004 0.71870 0.08120
 C243 C -0.25066 0.77164 0.07797
 C244 C -0.20861 0.77254 0.00825
 C245 C -0.17849 0.69708 0.00174
 C246 C -0.22891 0.64552 0.00591
 C247 C -0.31496 0.72618 -0.04769
 C248 C -0.26454 0.77746 -0.05019
 H249 H -0.32758 0.70638 0.13011
 H250 H -0.23821 0.80536 0.12316
 H251 H -0.12216 0.68458 0.00337
 H252 H -0.21298 0.59149 0.01588
 H253 H -0.35767 0.72297 -0.08626
 H254 H -0.26425 0.81781 -0.09070
 C255 C -0.32380 1.30313 0.00336
 C256 C -0.34908 1.22778 0.02294
 C257 C -0.29654 1.17830 0.02263
 C258 C -0.22334 1.20712 -0.00002
 C259 C -0.23771 1.24123 -0.07193
 C260 C -0.29084 1.29030 -0.07047
 C261 C -0.26053 1.31841 0.05284
 C262 C -0.20856 1.26874 0.05116
 H263 H -0.40420 1.21113 0.02554
 H264 H -0.30821 1.12259 0.02999
 H265 H -0.21425 1.22250 -0.12106
 H266 H -0.31255 1.31206 -0.11877
 H267 H -0.25733 1.36465 0.08724
 H268 H -0.16130 1.27278 0.08397
 C269 C -0.01376 1.31287 0.31458
 C270 C -0.08558 1.28823 0.28383
 C271 C -0.07982 1.23759 0.23232
 C272 C -0.00295 1.21498 0.21609
 C273 C 0.03599 1.28400 0.19818
 C274 C 0.03097 1.33473 0.24948
 C275 C 0.02315 1.24431 0.33892
 C276 C 0.02799 1.19327 0.28794
 H277 H -0.13665 1.30913 0.30085
 H278 H -0.12591 1.21603 0.20500
 H279 H 0.06529 1.29241 0.14949
 H280 H 0.05740 1.38555 0.24431
 H281 H 0.04534 1.23684 0.39133
 H282 H 0.05315 1.14276 0.29774
 C283 C -0.00454 1.30846 -0.32173
 C284 C 0.06059 1.31133 -0.27167
 C285 C 0.05952 1.26212 -0.21941
 C286 C -0.00473 1.21197 -0.22278
 C287 C -0.07014 1.25985 -0.22169
 C288 C -0.07037 1.30949 -0.27306
 C289 C 0.00034 1.23134 -0.34988
 C290 C -0.00161 1.18134 -0.29865
 H291 H 0.10597 1.34610 -0.27937
 H292 H 0.10339 1.25560 -0.18302
 H293 H -0.11289 1.25516 -0.18353
 H294 H -0.11385 1.34677 -0.27860
 H295 H 0.01430 1.21672 -0.40378
 H296 H 0.00703 1.12586 -0.31116
 C297 C 0.00071 0.68166 -0.32249
 C298 C -0.05291 0.66944 -0.26139
 C299 C -0.05187 0.72046 -0.20998
 C300 C 0.00020 0.78124 -0.22504
 C301 C 0.07273 0.74638 -0.23619
 C302 C 0.07313 0.69493 -0.28667
 C303 C -0.02364 0.75506 -0.34904
 C304 C -0.02219 0.80715 -0.29873
 H305 H -0.09170 0.62679 -0.26080
 H306 H -0.08861 0.72020 -0.16557
 H307 H 0.12053 0.76229 -0.20799
 H308 H 0.12137 0.66661 -0.30091
 H309 H -0.04667 0.76427 -0.40077
 H310 H -0.04183 0.85996 -0.30920
 C311 C 0.01288 0.67736 0.30535
 C312 C -0.04875 0.73031 0.31256
 C313 C -0.04969 0.78155 0.26288
 C314 C 0.01103 0.77677 0.20923
 C315 C 0.07943 0.77579 0.25367
 C316 C 0.08127 0.72284 0.30235
 C317 C 0.00936 0.64976 0.22798
 C318 C 0.00642 0.70121 0.17836
 H319 H -0.08871 0.72762 0.35402
 H320 H -0.08992 0.82236 0.26220
 H321 H 0.12531 0.80868 0.24266
 H322 H 0.13005 0.70964 0.32989
 H323 H 0.02030 0.59564 0.21196
 H324 H 0.01015 0.68852 0.12233
   
