data_POSCAR
  _audit_creation_date              2014-09-24
  _audit_creation_method            'ToBaCCo'
  _symmetry_space_group_name_H-M    'P1'
  _symmetry_Int_Tables_number       1
  _symmetry_cell_setting            triclinic
  loop_
  _symmetry_equiv_pos_as_xyz
 x,y,z
_cell_length_a 38.6861
_cell_length_b 40.5583
_cell_length_c 21.6660
_cell_angle_alpha 89.992200
_cell_angle_beta 89.591200
_cell_angle_gamma 90.220800
loop_
  _atom_site_label
  _atom_site_type_symbol
  _atom_site_fract_x
  _atom_site_fract_y
  _atom_site_fract_z
C1 C 0.80330 0.20311 0.44410
 C2 C 0.81638 0.19169 0.50027
 C3 C 0.81167 0.20849 0.55638
 C4 C 0.79155 0.23783 0.55649
 C5 C 0.77634 0.24900 0.50061
 C6 C 0.78260 0.23192 0.44423
 C7 C 0.76654 0.24320 0.39020
 C8 C 0.74685 0.27172 0.39023
 C9 C 0.74057 0.28923 0.44499
 C10 C 0.75516 0.27771 0.50088
 C11 C 0.78831 0.25776 0.60936
 C12 C 0.76731 0.28551 0.60969
 C13 C 0.74898 0.29504 0.55688
 C14 C 0.72683 0.32302 0.55737
 C15 C 0.71432 0.33475 0.50072
 C16 C 0.72046 0.31825 0.44518
 H17 H 0.76866 0.22999 0.34705
 H18 H 0.73654 0.27975 0.34652
 H19 H 0.80261 0.25273 0.65091
 H20 H 0.76645 0.30006 0.65152
 H21 H 0.83145 0.16920 0.50002
 H22 H 0.69696 0.35567 0.49986
 C23 C 0.28268 0.68250 0.44580
 C24 C 0.29172 0.66849 0.50233
 C25 C 0.28328 0.68357 0.55841
 C26 C 0.26436 0.71335 0.55842
 C27 C 0.25395 0.72740 0.50151
 C28 C 0.26347 0.71209 0.44494
 C29 C 0.25327 0.72658 0.38914
 C30 C 0.23446 0.75572 0.38869
 C31 C 0.22424 0.77106 0.44404
 C32 C 0.23409 0.75686 0.50115
 C33 C 0.25558 0.72941 0.61366
 C34 C 0.23676 0.75855 0.61326
 C35 C 0.22441 0.77213 0.55781
 C36 C 0.20452 0.80163 0.55703
 C37 C 0.19630 0.81568 0.49968
 C38 C 0.20503 0.80061 0.44374
 H39 H 0.25974 0.71553 0.34513
 H40 H 0.22822 0.76619 0.34425
 H41 H 0.26337 0.71972 0.65794
 H42 H 0.23260 0.77056 0.65719
 H43 H 0.30672 0.64594 0.50266
 H44 H 0.18025 0.83754 0.49814
 C45 C 0.29538 0.30005 -0.55147
 C46 C 0.30126 0.31513 -0.49412
 C47 C 0.29306 0.29954 -0.43840
 C48 C 0.27673 0.26832 -0.43899
 C49 C 0.26814 0.25345 -0.49617
 C50 C 0.27754 0.26924 -0.55255
 C51 C 0.26739 0.25449 -0.60828
 C52 C 0.25077 0.22414 -0.60911
 C53 C 0.24087 0.20810 -0.55417
 C54 C 0.25017 0.22266 -0.49693
 C55 C 0.26863 0.25172 -0.38392
 C56 C 0.25250 0.22105 -0.38473
 C57 C 0.24195 0.20643 -0.44047
 C58 C 0.22549 0.17503 -0.44156
 C59 C 0.21831 0.16044 -0.49889
 C60 C 0.22361 0.17706 -0.55504
 H61 H 0.27186 0.26630 -0.65232
 H62 H 0.24628 0.21324 -0.65386
 H63 H 0.27500 0.26212 -0.33944
 H64 H 0.24892 0.20877 -0.34087
 H65 H 0.31529 0.33832 -0.49215
 H66 H 0.20409 0.13734 -0.49926
 C67 C -0.30021 0.70062 -0.44558
 C68 C -0.31276 0.68862 -0.50173
 C69 C -0.30758 0.70506 -0.55811
 C70 C -0.28752 0.73456 -0.55869
 C71 C -0.27320 0.74657 -0.50259
 C72 C -0.27957 0.72962 -0.44606
 C73 C -0.26384 0.74134 -0.39197
 C74 C -0.24509 0.77052 -0.39180
 C75 C -0.23943 0.78839 -0.44642
 C76 C -0.25317 0.77617 -0.50263
 C77 C -0.28357 0.75383 -0.61235
 C78 C -0.26387 0.78260 -0.61236
 C79 C -0.24752 0.79382 -0.55854
 C80 C -0.22812 0.82371 -0.55789
 C81 C -0.21637 0.83591 -0.50107
 C82 C -0.22094 0.81851 -0.44604
 H83 H -0.26572 0.72805 -0.34884
 H84 H -0.23530 0.77895 -0.34793
 H85 H -0.29652 0.74755 -0.65477
 H86 H -0.26267 0.79664 -0.65478
 H87 H -0.32816 0.66620 -0.50133
 H88 H -0.20091 0.85829 -0.49996
 N89 N 0.03993 1.03201 0.10921
 N90 N 0.06366 1.03719 0.15151
 N91 N -0.03117 1.06003 0.07018
 N92 N -0.05370 1.08357 0.08269
 N93 N -0.03258 1.03688 0.11248
 N94 N -0.05624 1.04382 0.15448
 N95 N 0.04120 1.05513 0.06679
 N96 N 0.06574 1.07679 0.07951
 C97 C 0.07988 1.06496 0.13210
 C98 C -0.06939 1.07288 0.13519
 N99 N -0.03494 1.03614 -0.10497
 N100 N -0.05671 1.04458 -0.14865
 N101 N 0.03970 1.05446 -0.06683
 N102 N 0.06532 1.07485 -0.08110
 N103 N 0.03738 1.03085 -0.10805
 N104 N 0.06136 1.03432 -0.15102
 N105 N -0.03284 1.05944 -0.06305
 N106 N -0.05339 1.08428 -0.07711
 Mn107 Mn 0.00426 1.05765 0.00177
 C108 C -0.06848 1.07439 -0.13029
 C109 C 0.07881 1.06168 -0.13353
 N110 N -0.03814 0.96634 0.11396
 N111 N -0.06262 0.96332 0.15614
 N112 N 0.03183 0.93780 0.06915
 N113 N 0.05354 0.91364 0.08152
 N114 N 0.03433 0.96127 0.11061
 N115 N 0.05788 0.95384 0.15200
 N116 N -0.04064 0.94287 0.07252
 N117 N -0.06689 0.92303 0.08581
 Mn118 Mn 0.00092 0.99912 0.11207
 C119 C -0.08054 0.93636 0.13797
 C120 C 0.06993 0.92422 0.13300
 N121 N 0.03166 0.96026 -0.10670
 N122 N 0.05443 0.95271 -0.14990
 N123 N -0.04194 0.94210 -0.06101
 N124 N -0.06593 0.92002 -0.07440
 N125 N -0.04081 0.96530 -0.10332
 N126 N -0.06418 0.95976 -0.14614
 N127 N 0.03038 0.93720 -0.06421
 N128 N 0.05218 0.91318 -0.07770
 Mn129 Mn -0.00170 0.99814 -0.10619
 Mn130 Mn -0.00513 0.93961 0.00415
 Cl131 Cl -0.00041 0.99863 0.00293
 C132 C 0.06729 0.92344 -0.13106
 C133 C -0.07999 0.93170 -0.12713
 N134 N 0.46528 0.46069 0.10773
 N135 N 0.44266 0.45325 0.15137
 N136 N 0.53853 0.44054 0.06411
 N137 N 0.56217 0.41827 0.07747
 N138 N 0.53790 0.46381 0.10624
 N139 N 0.56123 0.45815 0.14898
 N140 N 0.46607 0.43755 0.06536
 N141 N 0.44412 0.41361 0.07945
 C142 C 0.42934 0.42402 0.13291
 C143 C 0.57647 0.42989 0.13012
 N144 N 0.53748 0.46450 -0.11111
 N145 N 0.56186 0.46007 -0.15309
 N146 N 0.46588 0.43800 -0.06830
 N147 N 0.44273 0.41489 -0.08058
 N148 N 0.46480 0.46152 -0.10987
 N149 N 0.44073 0.45529 -0.15103
 N150 N 0.53850 0.44114 -0.06920
 N151 N 0.56362 0.42013 -0.08170
 Mn152 Mn 0.50224 0.43893 -0.00206
 C153 C 0.57818 0.43246 -0.13397
 C154 C 0.42697 0.42627 -0.13204
 N155 N 0.53480 0.53469 0.10709
 N156 N 0.55769 0.54191 0.14980
 N157 N 0.46108 0.55496 0.06691
 N158 N 0.43643 0.57630 0.08065
 N159 N 0.46215 0.53141 0.10842
 N160 N 0.43812 0.53582 0.15098
 N161 N 0.53368 0.55810 0.06531
 N162 N 0.55582 0.58192 0.07868
 Mn163 Mn 0.50005 0.49766 0.10784
 C164 C 0.57097 0.57122 0.13120
 C165 C 0.42206 0.56373 0.13291
 N166 N 0.46177 0.53218 -0.10895
 N167 N 0.43769 0.53698 -0.15066
 N168 N 0.53337 0.55849 -0.06774
 N169 N 0.55585 0.58215 -0.08054
 N170 N 0.53440 0.53544 -0.11025
 N171 N 0.55762 0.54276 -0.15298
 N172 N 0.46085 0.55544 -0.06683
 N173 N 0.43630 0.57698 -0.07934
 Mn174 Mn 0.49964 0.49840 -0.11058
 Mn175 Mn 0.49720 0.55712 -0.00058
 Cl176 Cl 0.49978 0.49802 -0.00133
 C177 C 0.42178 0.56481 -0.13143
 C178 C 0.57108 0.57179 -0.13356
 C179 C 0.34378 0.34787 0.29764
 C180 C 0.34603 0.31344 0.30296
 C181 C 0.32923 0.29743 0.35179
 C182 C 0.30970 0.31540 0.39527
 C183 C 0.30813 0.34985 0.38779
 N184 N 0.32495 0.36485 0.34022
 C185 C 0.36372 0.36681 0.25090
 N186 N 0.37079 0.39907 0.26283
 C187 C 0.39059 0.41795 0.22470
 C188 C 0.40493 0.40443 0.17080
 C189 C 0.39706 0.37159 0.15613
 C190 C 0.37642 0.35267 0.19599
 H191 H 0.33311 0.27116 0.35732
 H192 H 0.29345 0.36494 0.41971
 H193 H 0.39570 0.44331 0.23738
 H194 H 0.40742 0.36034 0.11466
 H195 H 0.36190 0.29904 0.27187
 H196 H 0.37071 0.32740 0.18378
 C197 C -0.18330 0.87608 0.29460
 C198 C -0.20264 0.89307 0.33946
 C199 C -0.21902 0.87555 0.38659
 C200 C -0.21766 0.84094 0.38830
 C201 C -0.20078 0.82475 0.33920
 N202 N -0.18371 0.84248 0.29504
 C203 C -0.15992 0.89361 0.25075
 N204 N -0.14726 0.87730 0.20043
 C205 C -0.12305 0.89082 0.16194
 C206 C -0.10951 0.92227 0.17425
 C207 C -0.12260 0.93970 0.22502
 C208 C -0.14759 0.92556 0.26327
 H209 H -0.23242 0.88915 0.42251
 H210 H -0.19849 0.79816 0.33880
 H211 H -0.11358 0.87657 0.12318
 H212 H -0.11281 0.96400 0.23633
 H213 H -0.20448 0.91965 0.33970
 H214 H -0.15564 0.93920 0.30367
 C215 C 0.64661 0.65451 0.29406
 C216 C 0.62719 0.66148 0.34696
 C217 C 0.64190 0.67976 0.39415
 C218 C 0.67619 0.69129 0.38932
 C219 C 0.69433 0.68485 0.33391
 N220 N 0.67937 0.66658 0.28837
 C221 C 0.63239 0.63153 0.24832
 N222 N 0.62360 0.64226 0.19102
 C223 C 0.60560 0.62280 0.15114
 C224 C 0.59491 0.59102 0.16912
 C225 C 0.60514 0.57923 0.22697
 C226 C 0.62371 0.59945 0.26668
 H227 H 0.62650 0.68451 0.43515
 H228 H 0.72108 0.69230 0.32851
 H229 H 0.59844 0.63264 0.10661
 H230 H 0.59762 0.55486 0.24261
 H231 H 0.60109 0.65207 0.35232
 H232 H 0.63022 0.59059 0.31232
 C233 C 0.17251 1.13361 0.29354
 C234 C 0.17086 1.16788 0.30199
 C235 C 0.18863 1.18245 0.35084
 C236 C 0.20863 1.16320 0.39114
 C237 C 0.20973 1.12897 0.38032
 N238 N 0.19184 1.11534 0.33295
 C239 C 0.15112 1.11626 0.24729
 N240 N 0.14195 1.08438 0.25860
 C241 C 0.12039 1.06725 0.22113
 C242 C 0.10639 1.08228 0.16870
 C243 C 0.11652 1.11466 0.15455
 C244 C 0.13889 1.13176 0.19370
 H245 H 0.18503 1.20856 0.35906
 H246 H 0.22476 1.11294 0.40964
 H247 H 0.11356 1.04216 0.23328
 H248 H 0.10648 1.12704 0.11421
 H249 H 0.15460 1.18318 0.27352
 H250 H 0.14624 1.15678 0.18215
 C251 C 0.67775 0.36752 -0.28958
 C252 C 0.68369 0.33335 -0.28909
 C253 C 0.70171 0.31875 -0.33804
 C254 C 0.71402 0.33795 -0.38781
 C255 C 0.70867 0.37224 -0.38482
 N256 N 0.69082 0.38576 -0.33706
 C257 C 0.65468 0.38418 -0.24441
 N258 N 0.64206 0.41438 -0.25966
 C259 C 0.61870 0.43062 -0.22403
 C260 C 0.60614 0.41629 -0.16942
 C261 C 0.61956 0.38573 -0.15129
 C262 C 0.64391 0.36962 -0.18848
 H263 H 0.70366 0.29213 -0.33897
 H264 H 0.71818 0.38835 -0.42104
 H265 H 0.60935 0.45435 -0.23937
 H266 H 0.61077 0.37401 -0.10907
 H267 H 0.67297 0.31756 -0.25358
 H268 H 0.65375 0.34607 -0.17346
 C269 C 0.15565 0.84835 -0.29189
 C270 C 0.15570 0.81375 -0.29514
 C271 C 0.17295 0.79809 -0.34382
 C272 C 0.19049 0.81665 -0.38929
 C273 C 0.19010 0.85121 -0.38346
 N274 N 0.17295 0.86581 -0.33602
 C275 C 0.13486 0.86691 -0.24594
 N276 N 0.12726 0.89891 -0.25877
 C277 C 0.10676 0.91753 -0.22172
 C278 C 0.09214 0.90401 -0.16798
 C279 C 0.10043 0.87144 -0.15237
 C280 C 0.12183 0.85278 -0.19115
 H281 H 0.17076 0.77154 -0.34778
 H282 H 0.20333 0.86672 -0.41682
 H283 H 0.10136 0.94269 -0.23513
 H284 H 0.08987 0.86022 -0.11095
 H285 H 0.14125 0.79880 -0.26263
 H286 H 0.12784 0.82773 -0.17815
 C287 C 0.32780 0.63290 -0.28960
 C288 C 0.30053 0.61816 -0.32221
 C289 C 0.28481 0.63542 -0.37000
 C290 C 0.29575 0.66744 -0.38465
 C291 C 0.32179 0.68199 -0.34904
 N292 N 0.33712 0.66452 -0.30321
 C293 C 0.34853 0.61409 -0.24462
 N294 N 0.36547 0.63048 -0.19892
 C295 C 0.38757 0.61500 -0.15988
 C296 C 0.39456 0.58131 -0.16729
 C297 C 0.37703 0.56390 -0.21339
 C298 C 0.35395 0.58009 -0.25189
 H299 H 0.26479 0.62350 -0.39678
 H300 H 0.33097 0.70662 -0.35951
 H301 H 0.40076 0.62929 -0.12498
 H302 H 0.38182 0.53789 -0.22073
 H303 H 0.29187 0.59335 -0.31194
 H304 H 0.34192 0.56633 -0.28878
 C305 C -0.14219 1.15921 -0.29410
 C306 C -0.17501 1.17309 -0.28550
 C307 C -0.19025 1.19050 -0.33408
 C308 C -0.17242 1.19481 -0.39057
 C309 C -0.13889 1.18153 -0.39538
 N310 N -0.12520 1.16403 -0.34837
 C311 C -0.12638 1.13701 -0.24871
 N312 N -0.10969 1.10988 -0.27029
 C313 C -0.09248 1.08899 -0.23270
 C314 C -0.09027 1.09553 -0.16935
 C315 C -0.10744 1.12328 -0.14567
 C316 C -0.12600 1.14393 -0.18526
 H317 H -0.21668 1.19878 -0.32861
 H318 H -0.12358 1.18469 -0.43700
 H319 H -0.07948 1.06797 -0.25289
 H320 H -0.10621 1.12912 -0.09696
 H321 H -0.18943 1.16895 -0.24316
 H322 H -0.13869 1.16563 -0.16702
 C323 C 0.65813 0.64967 -0.29255
 C324 C 0.65857 0.68433 -0.29224
 C325 C 0.67388 0.70136 -0.34145
 C326 C 0.68901 0.68411 -0.39105
 C327 C 0.68876 0.64944 -0.38838
 N328 N 0.67345 0.63349 -0.34036
 C329 C 0.63842 0.62990 -0.24668
 N330 N 0.62973 0.59841 -0.26208
 C331 C 0.60948 0.57909 -0.22554
 C332 C 0.59619 0.59140 -0.16986
 C333 C 0.60580 0.62331 -0.15159
 C334 C 0.62700 0.64263 -0.18973
 H335 H 0.67182 0.72798 -0.34255
 H336 H 0.70032 0.63494 -0.42501
 H337 H 0.60305 0.55446 -0.24100
 H338 H 0.59634 0.63357 -0.10856
 H339 H 0.64566 0.69836 -0.25656
 H340 H 0.63394 0.66716 -0.17467
 C341 C 0.17799 1.12400 -0.29436
 C342 C 0.20028 1.10712 -0.33473
 C343 C 0.21713 1.12430 -0.38184
 C344 C 0.21300 1.15857 -0.38812
 C345 C 0.19210 1.17481 -0.34424
 N346 N 0.17511 1.15733 -0.29970
 C347 C 0.15542 1.10627 -0.24964
 N348 N 0.14188 1.12287 -0.20042
 C349 C 0.11858 1.10881 -0.16087
 C350 C 0.10691 1.07647 -0.17097
 C351 C 0.12087 1.05882 -0.22075
 C352 C 0.14501 1.07352 -0.26004
 H353 H 0.23334 1.11070 -0.41385
 H354 H 0.18715 1.20098 -0.34799
 H355 H 0.10831 1.12327 -0.12303
 H356 H 0.11247 1.03385 -0.23035
 H357 H 0.20430 1.08083 -0.33104
 H358 H 0.15398 1.05968 -0.29962
 C359 C 0.33511 0.35274 -0.28688
 C360 C 0.30693 0.36588 -0.31911
 C361 C 0.29187 0.34766 -0.36651
 C362 C 0.30439 0.31624 -0.38111
 C363 C 0.33128 0.30321 -0.34570
 N364 N 0.34594 0.32162 -0.30031
 C365 C 0.35525 0.37279 -0.24266
 N366 N 0.37354 0.35746 -0.19749
 C367 C 0.39524 0.37421 -0.15935
 C368 C 0.40039 0.40821 -0.16717
 C369 C 0.38148 0.42454 -0.21275
 C370 C 0.35883 0.40703 -0.25032
 H371 H 0.27122 0.35845 -0.39320
 H372 H 0.34173 0.27911 -0.35619
 H373 H 0.40950 0.36073 -0.12481
 H374 H 0.38481 0.45076 -0.22037
 H375 H 0.29709 0.39023 -0.30897
 H376 H 0.34571 0.42003 -0.28686
 C377 C -0.16872 0.86145 -0.29241
 C378 C -0.16098 0.82894 -0.30986
 C379 C -0.17855 0.81457 -0.35913
 C380 C -0.20431 0.83220 -0.38998
 C381 C -0.21154 0.86445 -0.37066
 N382 N -0.19358 0.87821 -0.32347
 C383 C -0.14828 0.87903 -0.24535
 N384 N -0.14259 0.91194 -0.25259
 C385 C -0.12197 0.92943 -0.21397
 C386 C -0.10559 0.91373 -0.16456
 C387 C -0.11222 0.88012 -0.15454
 C388 C -0.13345 0.86264 -0.19500
 H389 H -0.17153 0.79000 -0.37416
 H390 H -0.23089 0.87894 -0.39410
 H391 H -0.11780 0.95542 -0.22277
 H392 H -0.10014 0.86716 -0.11674
 H393 H -0.14053 0.81528 -0.28775
 H394 H -0.13797 0.83661 -0.18717
 C395 C 0.32753 0.63079 0.29413
 C396 C 0.30130 0.61561 0.32939
 C397 C 0.28546 0.63308 0.37718
 C398 C 0.29520 0.66573 0.38920
 C399 C 0.32017 0.68061 0.35102
 N400 N 0.33567 0.66295 0.30527
 C401 C 0.34845 0.61210 0.24870
 N402 N 0.36458 0.62852 0.20169
 C403 C 0.38681 0.61330 0.16199
 C404 C 0.39477 0.57986 0.16991
 C405 C 0.37808 0.56239 0.21737
 C406 C 0.35489 0.57830 0.25663
 H407 H 0.26626 0.62091 0.40592
 H408 H 0.32842 0.70574 0.35939
 H409 H 0.39930 0.62764 0.12602
 H410 H 0.38363 0.53656 0.22515
 H411 H 0.29352 0.59036 0.32112
 H412 H 0.34356 0.56453 0.29451
 C413 C -0.15772 1.14887 0.29350
 C414 C -0.15739 1.18346 0.29062
 C415 C -0.17192 1.20172 0.33899
 C416 C -0.18711 1.18563 0.39006
 C417 C -0.18810 1.15095 0.38943
 N418 N -0.17350 1.13386 0.34231
 C419 C -0.13849 1.12848 0.24805
 N420 N -0.12112 1.14293 0.20012
 C421 C -0.10032 1.12546 0.16125
 C422 C -0.09531 1.09160 0.17087
 C423 C -0.11378 1.07608 0.21858
 C424 C -0.13551 1.09431 0.25687
 H425 H -0.16925 1.22831 0.33822
 H426 H -0.19993 1.13736 0.42713
 H427 H -0.08658 1.13827 0.12469
 H428 H -0.11083 1.04994 0.22721
 H429 H -0.14468 1.19629 0.25293
 H430 H -0.14882 1.08186 0.29437
 C431 C 0.66689 0.36027 0.29264
 C432 C 0.66025 0.32733 0.30916
 C433 C 0.67836 0.31321 0.35793
 C434 C 0.70354 0.33155 0.38922
 C435 C 0.70974 0.36417 0.37074
 N436 N 0.69128 0.37764 0.32403
 C437 C 0.64577 0.37761 0.24640
 N438 N 0.63984 0.41040 0.25422
 C439 C 0.61881 0.42774 0.21634
 C440 C 0.60221 0.41200 0.16708
 C441 C 0.60898 0.37852 0.15651
 C442 C 0.63067 0.36118 0.19622
 H443 H 0.67216 0.28829 0.37234
 H444 H 0.72861 0.37918 0.39458
 H445 H 0.61454 0.45364 0.22557
 H446 H 0.59676 0.36555 0.11877
 H447 H 0.64019 0.31312 0.28682
 H448 H 0.63536 0.33528 0.18785
 C449 C 0.15746 0.84756 0.28988
 C450 C 0.15091 0.81396 0.30112
 C451 C 0.16755 0.79818 0.34981
 C452 C 0.19104 0.81559 0.38662
 C453 C 0.19754 0.84882 0.37293
 N454 N 0.18056 0.86384 0.32607
 C455 C 0.13726 0.86671 0.24462
 N456 N 0.13249 0.89946 0.25520
 C457 C 0.11217 0.91843 0.21885
 C458 C 0.09491 0.90449 0.16843
 C459 C 0.10048 0.87109 0.15499
 C460 C 0.12162 0.85209 0.19298
 H461 H 0.16115 0.77276 0.36027
 H462 H 0.21519 0.86310 0.40090
 H463 H 0.10891 0.94421 0.23032
 H464 H 0.08783 0.85949 0.11617
 H465 H 0.13185 0.80039 0.27501
 H466 H 0.12541 0.82632 0.18211
   
