data_POSCAR
  _audit_creation_date              2014-09-24
  _audit_creation_method            'ToBaCCo'
  _symmetry_space_group_name_H-M    'P1'
  _symmetry_Int_Tables_number       1
  _symmetry_cell_setting            triclinic
  loop_
  _symmetry_equiv_pos_as_xyz
 x,y,z
_cell_length_a 33.7820
_cell_length_b 34.7119
_cell_length_c 41.9182
_cell_angle_alpha 90.452000
_cell_angle_beta 88.609200
_cell_angle_gamma 90.356200
loop_
  _atom_site_label
  _atom_site_type_symbol
  _atom_site_fract_x
  _atom_site_fract_y
  _atom_site_fract_z
Si1 Si 1.25139 0.24267 0.25257
 Si2 Si 0.75869 -0.25359 0.24898
 Si3 Si 0.74677 0.24269 -0.24909
 Si4 Si 1.24843 -0.26030 -0.24958
 Si5 Si 0.25624 0.26300 0.74810
 Si6 Si 0.74779 0.75676 0.74958
 Si7 Si 0.74605 0.25225 0.25020
 Si8 Si 0.24143 0.75937 0.24842
 O9 O 1.06884 0.02879 0.03640
 O10 O 0.93470 -0.01592 0.03674
 O11 O 0.97816 0.07085 0.03653
 O12 O 1.02577 -0.05860 0.03672
 O13 O 0.92526 0.04778 0.01813
 O14 O 1.07968 -0.03567 0.01816
 O15 O 0.95966 -0.06849 0.02010
 O16 O 1.04501 0.08063 0.01901
 C17 C 1.06171 0.06325 0.04082
 C18 C 0.94138 -0.05024 0.04154
 C19 C 0.94237 0.06467 0.04028
 C20 C 1.06152 -0.05306 0.04001
 O21 O 1.07256 -0.01185 -0.04312
 O22 O 0.93562 0.02214 -0.04313
 O23 O 1.02222 0.07169 -0.04273
 O24 O 0.98518 -0.06168 -0.04212
 O25 O 0.92957 -0.04260 -0.02417
 O26 O 1.07714 0.05343 -0.02519
 O27 O 1.05152 -0.06562 -0.02560
 O28 O 0.95534 0.07629 -0.02565
 Co29 Co 1.06759 0.00844 -0.00339
 Co30 Co 0.93823 0.00313 -0.00315
 Co31 Co 1.00044 0.06832 -0.00315
 Co32 Co 1.00527 -0.05696 -0.00274
 O33 O 1.00289 0.00571 -0.00314
 C34 C 1.06862 -0.04690 -0.04727
 C35 C 0.93997 0.05708 -0.04745
 C36 C 1.05825 0.06861 -0.04694
 C37 C 0.94923 -0.05913 -0.04572
 O38 O 1.06673 0.51825 0.53655
 O39 O 0.93032 0.48239 0.54401
 O40 O 0.97524 0.56623 0.53804
 O41 O 1.02110 0.43523 0.53992
 O42 O 0.92143 0.54535 0.52075
 O43 O 1.07379 0.45326 0.51668
 O44 O 0.95363 0.42804 0.52900
 O45 O 1.04175 0.57127 0.52129
 C46 C 1.05997 0.55276 0.54184
 C47 C 0.93666 0.44818 0.55007
 C48 C 0.93938 0.56186 0.54243
 C49 C 1.05740 0.43836 0.54042
 O50 O 1.06303 0.47822 0.45685
 O51 O 0.92716 0.51413 0.46243
 O52 O 1.01915 0.56236 0.45823
 O53 O 0.97202 0.43115 0.46403
 O54 O 0.91958 0.45115 0.48599
 O55 O 1.07300 0.54363 0.47661
 O56 O 1.03913 0.42571 0.47552
 O57 O 0.95245 0.56879 0.47469
 Co58 Co 1.06185 0.49833 0.49693
 Co59 Co 0.93172 0.49824 0.50301
 Co60 Co 0.99708 0.56085 0.49823
 Co61 Co 0.99646 0.43633 0.50192
 O62 O 0.99677 0.49846 0.50002
 C63 C 1.05606 0.44340 0.45308
 C64 C 0.93322 0.54833 0.45562
 C65 C 1.05531 0.55957 0.45475
 C66 C 0.93592 0.43491 0.46279
 O67 O 0.57475 0.03794 0.51939
 O68 O 0.42006 -0.04834 0.52217
 O69 O 0.45465 0.06869 0.52123
 O70 O 0.53980 -0.07882 0.52477
 O71 O 0.42967 0.01668 0.53916
 O72 O 0.56413 -0.02537 0.54002
 O73 O 0.47315 -0.06912 0.54113
 O74 O 0.52098 0.06083 0.53782
 C75 C 0.55684 0.05627 0.54090
 C76 C 0.43727 -0.06393 0.54461
 C77 C 0.43607 0.05141 0.54299
 C78 C 0.55713 -0.05962 0.54560
 O79 O 0.57233 -0.05425 0.47991
 O80 O 0.42446 0.03987 0.47764
 O81 O 0.54618 0.06432 0.47495
 O82 O 0.45076 -0.07865 0.47899
 O83 O 0.43066 -0.02582 0.46033
 O84 O 0.56747 0.00967 0.45930
 O85 O 0.51791 -0.07421 0.46219
 O86 O 0.47999 0.05843 0.45908
 Co87 Co 0.56267 -0.00785 0.49967
 Co88 Co 0.43319 -0.00459 0.49980
 Co89 Co 0.50018 0.05647 0.49848
 Co90 Co 0.49566 -0.06868 0.50159
 O91 O 0.49793 -0.00616 0.49989
 C92 C 0.55397 -0.07059 0.45819
 C93 C 0.44413 0.05482 0.45540
 C94 C 0.56361 0.04438 0.45405
 C95 C 0.43530 -0.06086 0.45674
 O96 O 0.57788 0.54792 0.02078
 O97 O 0.42296 0.46046 0.02633
 O98 O 0.45815 0.57763 0.02761
 O99 O 0.54305 0.43096 0.02857
 O100 O 0.43335 0.52495 0.04471
 O101 O 0.56870 0.48470 0.04208
 O102 O 0.47633 0.44037 0.04520
 O103 O 0.52514 0.57003 0.04133
 C104 C 0.56092 0.56448 0.04365
 C105 C 0.44022 0.44419 0.04837
 C106 C 0.43976 0.55960 0.04916
 C107 C 0.56304 0.45029 0.04781
 O108 O 0.57491 0.45510 -0.01747
 O109 O 0.42575 0.55015 -0.01567
 O110 O 0.54706 0.57392 -0.02270
 O111 O 0.45361 0.43161 -0.01727
 O112 O 0.43212 0.48469 -0.03479
 O113 O 0.56842 0.51916 -0.03857
 O114 O 0.52003 0.43559 -0.03414
 O115 O 0.48029 0.56823 -0.03596
 Co116 Co 0.56542 0.50188 0.00189
 Co117 Co 0.43567 0.50491 0.00498
 Co118 Co 0.50244 0.56600 0.00273
 Co119 Co 0.49853 0.44110 0.00546
 O120 O 0.50054 0.50347 0.00382
 C121 C 0.55597 0.43852 -0.03869
 C122 C 0.44424 0.56515 -0.03845
 C123 C 0.56407 0.55385 -0.04385
 C124 C 0.43787 0.44988 -0.03918
 C125 C 1.24082 0.18158 0.20914
 C126 C 1.21962 0.15776 0.18865
 C127 C 1.17879 0.16281 0.18510
 C128 C 1.15924 0.19136 0.20353
 C129 C 1.18055 0.21517 0.22414
 C130 C 1.22156 0.21080 0.22659
 C131 C 1.15810 0.13780 0.16194
 C132 C 1.12447 0.14774 0.14784
 C133 C 1.10683 0.12469 0.12179
 C134 C 1.08349 0.14351 0.09955
 C135 C 1.06837 0.12343 0.07348
 C136 C 1.07605 0.08397 0.06926
 C137 C 1.09797 0.06470 0.09222
 C138 C 1.11313 0.08480 0.11829
 H139 H 1.27244 0.17752 0.21106
 H140 H 1.23535 0.13578 0.17504
 H141 H 1.12757 0.19525 0.20235
 H142 H 1.16494 0.23696 0.23796
 H143 H 1.17324 0.11184 0.15423
 H144 H 1.11124 0.17540 0.15330
 H145 H 1.07777 0.17409 0.10190
 H146 H 1.05111 0.13894 0.05640
 H147 H 1.10379 0.03414 0.08986
 H148 H 1.12965 0.06894 0.13558
 C149 C 1.23641 0.70482 0.68963
 C150 C 1.21781 0.68044 0.66795
 C151 C 1.18354 0.66005 0.67699
 C152 C 1.16850 0.66378 0.70841
 C153 C 1.18788 0.68740 0.73043
 C154 C 1.22193 0.70832 0.72119
 C155 C 1.16481 0.63464 0.65325
 C156 C 1.12556 0.63270 0.64987
 C157 C 1.10789 0.61096 0.62325
 C158 C 1.07654 0.62716 0.60675
 C159 C 1.06111 0.60832 0.58016
 C160 C 1.07598 0.57236 0.57020
 C161 C 1.10636 0.55543 0.58751
 C162 C 1.12243 0.57472 0.61363
 H163 H 1.26225 0.72056 0.68140
 H164 H 1.22989 0.67797 0.64384
 H165 H 1.14229 0.64792 0.71605
 H166 H 1.17586 0.68963 0.75451
 H167 H 1.18407 0.62019 0.63597
 H168 H 1.10638 0.65056 0.66479
 H169 H 1.06480 0.65498 0.61388
 H170 H 1.03755 0.62189 0.56736
 H171 H 1.11820 0.52761 0.58049
 H172 H 1.14615 0.56129 0.62635
 C173 C 0.68102 0.19327 0.73760
 C174 C 0.65547 0.17292 0.71766
 C175 C 0.65915 0.17634 0.68441
 C176 C 0.68731 0.20223 0.67154
 C177 C 0.71251 0.22276 0.69146
 C178 C 0.71045 0.21765 0.72464
 C179 C 0.63326 0.15308 0.66358
 C180 C 0.64607 0.13984 0.63504
 C181 C 0.62177 0.11648 0.61311
 C182 C 0.64135 0.09339 0.59018
 C183 C 0.62008 0.07299 0.56740
 C184 C 0.57864 0.07564 0.56672
 C185 C 0.55880 0.09820 0.58999
 C186 C 0.58015 0.11847 0.61301
 H187 H 0.67754 0.18988 0.76308
 H188 H 0.63337 0.15383 0.72819
 H189 H 0.68975 0.20689 0.64606
 H190 H 0.73352 0.24253 0.68061
 H191 H 0.60422 0.14491 0.67280
 H192 H 0.67659 0.14508 0.62769
 H193 H 0.67336 0.09146 0.58967
 H194 H 0.63623 0.05580 0.54985
 H195 H 0.52686 0.10084 0.58998
 H196 H 0.56410 0.13663 0.62988
 C197 C 0.69784 0.74000 0.20467
 C198 C 0.67183 0.72063 0.18468
 C199 C 0.67144 0.68026 0.18311
 C200 C 0.69684 0.65951 0.20277
 C201 C 0.72272 0.67899 0.22295
 C202 C 0.72333 0.71933 0.22396
 C203 C 0.64438 0.66110 0.16061
 C204 C 0.65185 0.62665 0.14719
 C205 C 0.62720 0.60985 0.12182
 C206 C 0.64510 0.58517 0.09917
 C207 C 0.62347 0.57032 0.07387
 C208 C 0.58329 0.57946 0.07095
 C209 C 0.56488 0.60298 0.09427
 C210 C 0.58661 0.61806 0.11949
 H211 H 0.69816 0.77121 0.20499
 H212 H 0.65252 0.73728 0.16989
 H213 H 0.69667 0.62835 0.20278
 H214 H 0.74241 0.66245 0.23741
 H215 H 0.61942 0.67765 0.15273
 H216 H 0.67891 0.61179 0.15265
 H217 H 0.67618 0.57807 0.10064
 H218 H 0.63830 0.55184 0.05648
 H219 H 0.53378 0.61002 0.09285
 H220 H 0.57149 0.63592 0.13713
 C221 C 0.81135 -0.24526 0.19653
 C222 C 0.83365 -0.22499 0.17372
 C223 C 0.83462 -0.18456 0.17415
 C224 C 0.81239 -0.16475 0.19792
 C225 C 0.79008 -0.18515 0.22078
 C226 C 0.78962 -0.22549 0.22025
 C227 C 0.85740 -0.16462 0.14843
 C228 C 0.86844 -0.12745 0.14960
 C229 C 0.88921 -0.10804 0.12261
 C230 C 0.88389 -0.06834 0.11863
 C231 C 0.90128 -0.04938 0.09251
 C232 C 0.92464 -0.06978 0.07001
 C233 C 0.93135 -0.10918 0.07469
 C234 C 0.91393 -0.12814 0.10077
 H235 H 0.81086 -0.27645 0.19552
 H236 H 0.85007 -0.24099 0.15554
 H237 H 0.81107 -0.13367 0.19858
 H238 H 0.77269 -0.16928 0.23836
 H239 H 0.86488 -0.18160 0.12741
 H240 H 0.86072 -0.10990 0.17021
 H241 H 0.86542 -0.05213 0.13534
 H242 H 0.89594 -0.01886 0.08970
 H243 H 0.94985 -0.12546 0.05805
 H244 H 0.92008 -0.15842 0.10377
 C245 C 0.80612 0.25281 0.70269
 C246 C 0.83047 0.27402 0.68189
 C247 C 0.83107 0.31447 0.68324
 C248 C 0.80696 0.33323 0.70640
 C249 C 0.78260 0.31187 0.72726
 C250 C 0.78182 0.27153 0.72541
 C251 C 0.85546 0.33530 0.65886
 C252 C 0.86271 0.37341 0.65900
 C253 C 0.88455 0.39300 0.63252
 C254 C 0.87626 0.43176 0.62620
 C255 C 0.89401 0.45025 0.59992
 C256 C 0.92054 0.43027 0.57955
 C257 C 0.93042 0.39216 0.58685
 C258 C 0.91284 0.37377 0.61313
 H259 H 0.80557 0.22169 0.70055
 H260 H 0.84845 0.25871 0.66425
 H261 H 0.80567 0.36425 0.70811
 H262 H 0.76368 0.32709 0.74422
 H263 H 0.86690 0.31805 0.63914
 H264 H 0.85068 0.39149 0.67790
 H265 H 0.85504 0.44741 0.64103
 H266 H 0.88611 0.47978 0.59505
 H267 H 0.95144 0.37631 0.57198
 H268 H 0.92147 0.34449 0.61804
 C269 C 0.31831 -0.24539 0.71325
 C270 C 0.34347 -0.22294 0.69397
 C271 C 0.33523 -0.18392 0.68886
 C272 C 0.30235 -0.16728 0.70486
 C273 C 0.27722 -0.18979 0.72416
 C274 C 0.28466 -0.22914 0.72808
 C275 C 0.36101 -0.16202 0.66623
 C276 C 0.34850 -0.13139 0.64999
 C277 C 0.37241 -0.11249 0.62435
 C278 C 0.35270 -0.09221 0.60069
 C279 C 0.37379 -0.07585 0.57506
 C280 C 0.41515 -0.07925 0.57265
 C281 C 0.43511 -0.09811 0.59700
 C282 C 0.41402 -0.11448 0.62265
 H283 H 0.32448 -0.27577 0.71581
 H284 H 0.36875 -0.23642 0.68217
 H285 H 0.29572 -0.13702 0.70242
 H286 H 0.25147 -0.17648 0.73530
 H287 H 0.38991 -0.17393 0.66068
 H288 H 0.31827 -0.12177 0.65340
 H289 H 0.32073 -0.08981 0.60163
 H290 H 0.35764 -0.06108 0.55684
 H291 H 0.46705 -0.10053 0.59610
 H292 H 0.43048 -0.12853 0.64101
 C293 C 0.31246 0.29788 0.24230
 C294 C 0.33725 0.32158 0.22364
 C295 C 0.33530 0.32052 0.19025
 C296 C 0.30924 0.29429 0.17580
 C297 C 0.28482 0.27045 0.19441
 C298 C 0.28622 0.27210 0.22776
 C299 C 0.36084 0.34650 0.17082
 C300 C 0.34856 0.36121 0.14332
 C301 C 0.37335 0.38543 0.12179
 C302 C 0.35435 0.40832 0.09946
 C303 C 0.37624 0.42854 0.07639
 C304 C 0.41771 0.42596 0.07491
 C305 C 0.43696 0.40403 0.09785
 C306 C 0.41500 0.38385 0.12108
 H307 H 0.31355 0.29987 0.26806
 H308 H 0.35728 0.34138 0.23528
 H309 H 0.30779 0.29199 0.15009
 H310 H 0.26453 0.25125 0.18252
 H311 H 0.38936 0.35470 0.18003
 H312 H 0.31839 0.35572 0.13623
 H313 H 0.32233 0.40992 0.09944
 H314 H 0.36058 0.44534 0.05912
 H315 H 0.46891 0.40150 0.09723
 H316 H 0.43068 0.36587 0.13745
 C317 C 0.75338 0.18490 -0.20212
 C318 C 0.77347 0.15944 -0.18267
 C319 C 0.81479 0.15623 -0.18513
 C320 C 0.83555 0.17813 -0.20823
 C321 C 0.81536 0.20344 -0.22779
 C322 C 0.77406 0.20693 -0.22500
 C323 C 0.83513 0.13060 -0.16275
 C324 C 0.87193 0.13756 -0.15277
 C325 C 0.89034 0.11528 -0.12712
 C326 C 0.91762 0.13402 -0.10756
 C327 C 0.93400 0.11488 -0.08192
 C328 C 0.92397 0.07631 -0.07564
 C329 C 0.89797 0.05692 -0.09602
 C330 C 0.88116 0.07626 -0.12150
 H331 H 0.72184 0.18814 -0.19841
 H332 H 0.75680 0.14311 -0.16493
 H333 H 0.86735 0.17587 -0.21125
 H334 H 0.83243 0.22066 -0.24453
 H335 H 0.81780 0.10765 -0.15187
 H336 H 0.88774 0.16286 -0.16123
 H337 H 0.92550 0.16392 -0.11161
 H338 H 0.95432 0.13042 -0.06683
 H339 H 0.89005 0.02705 -0.09190
 H340 H 0.86114 0.06062 -0.13673
 C341 C 0.83125 0.71635 0.27071
 C342 C 0.85430 0.69443 0.29089
 C343 C 0.83639 0.67005 0.31363
 C344 C 0.79475 0.66803 0.31579
 C345 C 0.77175 0.69008 0.29564
 C346 C 0.78984 0.71434 0.27301
 C347 C 0.86187 0.64977 0.33627
 C348 C 0.85042 0.61806 0.35213
 C349 C 0.87447 0.60006 0.37701
 C350 C 0.86776 0.56120 0.38450
 C351 C 0.88769 0.54400 0.40946
 C352 C 0.91439 0.56556 0.42772
 C353 C 0.92161 0.60427 0.41994
 C354 C 0.90180 0.62142 0.39492
 H355 H 0.84596 0.73556 0.25400
 H356 H 0.88625 0.69697 0.28908
 H357 H 0.77976 0.65068 0.33373
 H358 H 0.73978 0.68886 0.29821
 H359 H 0.89134 0.66134 0.33953
 H360 H 0.82259 0.60424 0.34657
 H361 H 0.84666 0.54421 0.37124
 H362 H 0.88149 0.51408 0.41490
 H363 H 0.94198 0.62160 0.43364
 H364 H 0.90697 0.65172 0.39055
 C365 C 0.25462 0.18468 0.29901
 C366 C 0.27293 0.16095 0.32089
 C367 C 0.31425 0.16138 0.32362
 C368 C 0.33698 0.18598 0.30371
 C369 C 0.31854 0.20982 0.28188
 C370 C 0.27722 0.20983 0.27988
 C371 C 0.33194 0.13778 0.34885
 C372 C 0.36996 0.12681 0.34849
 C373 C 0.38817 0.10613 0.37523
 C374 C 0.42929 0.10901 0.37871
 C375 C 0.44756 0.09186 0.40448
 C376 C 0.42504 0.07123 0.42729
 C377 C 0.38411 0.06700 0.42321
 C378 C 0.36583 0.08412 0.39738
 H379 H 0.22265 0.18402 0.29753
 H380 H 0.25471 0.14242 0.33595
 H381 H 0.36879 0.18795 0.30552
 H382 H 0.33666 0.22854 0.26701
 H383 H 0.31260 0.12995 0.36872
 H384 H 0.38929 0.13467 0.32862
 H385 H 0.44726 0.12538 0.36181
 H386 H 0.47925 0.09529 0.40682
 H387 H 0.36616 0.05065 0.44011
 H388 H 0.33433 0.07981 0.39491
 C389 C 0.25169 0.68220 -0.20204
 C390 C 0.26968 0.66067 -0.17842
 C391 C 0.30998 0.66576 -0.17211
 C392 C 0.33181 0.69346 -0.18962
 C393 C 0.31372 0.71505 -0.21314
 C394 C 0.27363 0.70930 -0.21980
 C395 C 0.32747 0.64365 -0.14584
 C396 C 0.36629 0.63592 -0.14446
 C397 C 0.38504 0.61614 -0.11741
 C398 C 0.42634 0.61883 -0.11493
 C399 C 0.44555 0.60196 -0.08948
 C400 C 0.42386 0.58185 -0.06588
 C401 C 0.38267 0.57818 -0.06867
 C402 C 0.36341 0.59502 -0.09420
 H403 H 0.22046 0.67803 -0.20592
 H404 H 0.25198 0.64010 -0.16488
 H405 H 0.36245 0.69960 -0.18452
 H406 H 0.33100 0.73700 -0.22529
 H407 H 0.30729 0.63378 -0.12721
 H408 H 0.38587 0.64543 -0.16368
 H409 H 0.44385 0.63458 -0.13253
 H410 H 0.47740 0.60504 -0.08813
 H411 H 0.36530 0.56235 -0.05106
 H412 H 0.33176 0.59104 -0.09555
 C413 C 1.17433 -0.22557 -0.23154
 C414 C 1.15002 -0.20241 -0.21193
 C415 C 1.16606 -0.18109 -0.18667
 C416 C 1.20687 -0.18364 -0.18120
 C417 C 1.23096 -0.20709 -0.20052
 C418 C 1.21486 -0.22846 -0.22560
 C419 C 1.13950 -0.15846 -0.16515
 C420 C 1.15159 -0.12654 -0.14990
 C421 C 1.12710 -0.10585 -0.12558
 C422 C 1.13497 -0.06674 -0.11957
 C423 C 1.11505 -0.04716 -0.09478
 C424 C 1.08740 -0.06660 -0.07507
 C425 C 1.07901 -0.10557 -0.08138
 C426 C 1.09859 -0.12502 -0.10640
 H427 H 1.16134 -0.24110 -0.25117
 H428 H 1.11865 -0.20103 -0.21652
 H429 H 1.22010 -0.16849 -0.16143
 H430 H 1.26222 -0.20891 -0.19559
 H431 H 1.10914 -0.16823 -0.16219
 H432 H 1.18069 -0.11475 -0.15547
 H433 H 1.15701 -0.05142 -0.13385
 H434 H 1.12214 -0.01712 -0.09048
 H435 H 1.05780 -0.12125 -0.06658
 H436 H 1.09246 -0.15539 -0.10978
 C437 C 1.19968 0.30632 0.25995
 C438 C 1.17709 0.33328 0.27735
 C439 C 1.17443 0.33136 0.31075
 C440 C 1.19591 0.30294 0.32650
 C441 C 1.21875 0.27641 0.30916
 C442 C 1.22030 0.27749 0.27577
 C443 C 1.15009 0.35954 0.32906
 C444 C 1.12988 0.34910 0.35551
 C445 C 1.10765 0.37584 0.37683
 C446 C 1.07889 0.36011 0.39763
 C447 C 1.06091 0.38273 0.42135
 C448 C 1.07156 0.42165 0.42507
 C449 C 1.09898 0.43810 0.40333
 C450 C 1.11701 0.41534 0.37938
 H451 H 1.20118 0.30803 0.23416
 H452 H 1.16127 0.35529 0.26475
 H453 H 1.19565 0.30162 0.35230
 H454 H 1.23537 0.25542 0.32211
 H455 H 1.14800 0.38861 0.32012
 H456 H 1.12941 0.31895 0.36206
 H457 H 1.07114 0.32982 0.39616
 H458 H 1.03954 0.36930 0.43750
 H459 H 1.10773 0.46804 0.40568
 H460 H 1.13957 0.42828 0.36409
 C461 C 0.75357 -0.19868 0.29891
 C462 C 0.73403 -0.17630 0.32216
 C463 C 0.69254 -0.17703 0.32514
 C464 C 0.67098 -0.20107 0.30454
 C465 C 0.69059 -0.22341 0.28132
 C466 C 0.73195 -0.22217 0.27824
 C467 C 0.67320 -0.15429 0.35116
 C468 C 0.63507 -0.14365 0.35111
 C469 C 0.61510 -0.12336 0.37820
 C470 C 0.57382 -0.12678 0.38182
 C471 C 0.55385 -0.10939 0.40765
 C472 C 0.57482 -0.08798 0.43033
 C473 C 0.61595 -0.08344 0.42620
 C474 C 0.63593 -0.10082 0.40036
 H475 H 0.78561 -0.19792 0.29724
 H476 H 0.75140 -0.15851 0.33799
 H477 H 0.63916 -0.20381 0.30682
 H478 H 0.67327 -0.24226 0.26640
 H479 H 0.69133 -0.14663 0.37119
 H480 H 0.61697 -0.15128 0.33107
 H481 H 0.55701 -0.14359 0.36491
 H482 H 0.52205 -0.11306 0.41005
 H483 H 0.63276 -0.06649 0.44300
 H484 H 0.66751 -0.09616 0.39778
 C485 C 0.74405 0.29194 -0.19543
 C486 C 0.72587 0.31509 -0.17205
 C487 C 0.68496 0.32190 -0.17234
 C488 C 0.66255 0.30485 -0.19673
 C489 C 0.68087 0.28168 -0.22016
 C490 C 0.72166 0.27494 -0.21949
 C491 C 0.66702 0.34527 -0.14596
 C492 C 0.63091 0.36107 -0.14667
 C493 C 0.61279 0.38231 -0.11921
 C494 C 0.57137 0.38318 -0.11609
 C495 C 0.55297 0.40166 -0.09005
 C496 C 0.57565 0.42006 -0.06668
 C497 C 0.61708 0.42038 -0.07029
 C498 C 0.63552 0.40173 -0.09632
 H499 H 0.77563 0.28698 -0.19454
 H500 H 0.74386 0.32759 -0.15354
 H501 H 0.63084 0.30836 -0.19754
 H502 H 0.66302 0.26883 -0.23854
 H503 H 0.68452 0.34902 -0.12487
 H504 H 0.61290 0.35722 -0.16742
 H505 H 0.55316 0.36886 -0.13356
 H506 H 0.52095 0.40132 -0.08812
 H507 H 0.63526 0.43486 -0.05291
 H508 H 0.66747 0.40297 -0.09850
 C509 C 1.25184 0.20153 -0.20797
 C510 C 1.23319 0.17704 -0.18596
 C511 C 1.19206 0.17840 -0.18075
 C512 C 1.16983 0.20454 -0.19845
 C513 C 1.18862 0.22913 -0.22041
 C514 C 1.22989 0.22852 -0.22472
 C515 C 1.17404 0.15396 -0.15538
 C516 C 1.13577 0.14341 -0.15444
 C517 C 1.11687 0.12205 -0.12752
 C518 C 1.07561 0.12427 -0.12327
 C519 C 1.05654 0.10646 -0.09737
 C520 C 1.07835 0.08584 -0.07514
 C521 C 1.11944 0.08233 -0.07993
 C522 C 1.13855 0.10010 -0.10592
 H523 H 1.28347 0.19917 -0.21185
 H524 H 1.25099 0.15702 -0.17284
 H525 H 1.13817 0.20712 -0.19476
 H526 H 1.17068 0.24884 -0.23349
 H527 H 1.19335 0.14518 -0.13661
 H528 H 1.11672 0.15213 -0.17344
 H529 H 1.05812 0.14059 -0.13970
 H530 H 1.02475 0.10933 -0.09450
 H531 H 1.13687 0.06601 -0.06348
 H532 H 1.17015 0.09631 -0.10891
 C533 C 1.18352 0.70382 0.25858
 C534 C 1.15874 0.68038 0.27758
 C535 C 1.16074 0.68183 0.31099
 C536 C 1.18684 0.70833 0.32502
 C537 C 1.21127 0.73189 0.30612
 C538 C 1.21059 0.72933 0.27266
 C539 C 1.13474 0.65650 0.33088
 C540 C 1.14644 0.64281 0.35896
 C541 C 1.12160 0.61883 0.38080
 C542 C 1.14073 0.59665 0.40354
 C543 C 1.11901 0.57646 0.42676
 C544 C 1.07748 0.57832 0.42811
 C545 C 1.05805 0.59970 0.40488
 C546 C 1.07990 0.61981 0.38140
 H547 H 1.18155 0.70191 0.23286
 H548 H 1.13834 0.66073 0.26619
 H549 H 1.18792 0.71147 0.35070
 H550 H 1.23021 0.75226 0.31810
 H551 H 1.10637 0.64791 0.32159
 H552 H 1.17645 0.64871 0.36625
 H553 H 1.17277 0.59546 0.40371
 H554 H 1.13490 0.56015 0.44421
 H555 H 1.02605 0.60171 0.40538
 H556 H 1.06413 0.63721 0.36465
 C557 C 0.67255 0.21766 0.26982
 C558 C 0.64837 0.19448 0.28935
 C559 C 0.66486 0.17150 0.31292
 C560 C 0.70618 0.17192 0.31642
 C561 C 0.73025 0.19533 0.29705
 C562 C 0.71360 0.21896 0.27404
 C563 C 0.63815 0.14980 0.33492
 C564 C 0.64929 0.11807 0.35028
 C565 C 0.62426 0.09888 0.37502
 C566 C 0.63071 0.05987 0.38157
 C567 C 0.61006 0.04171 0.40660
 C568 C 0.58303 0.06248 0.42595
 C569 C 0.57604 0.10135 0.41908
 C570 C 0.59644 0.11941 0.39391
 H571 H 0.65888 0.23460 0.25166
 H572 H 0.61664 0.19465 0.28617
 H573 H 0.71997 0.15530 0.33479
 H574 H 0.76182 0.19530 0.30052
 H575 H 0.60823 0.16035 0.33826
 H576 H 0.67776 0.10530 0.34452
 H577 H 0.65219 0.04353 0.36753
 H578 H 0.61608 0.01170 0.41136
 H579 H 0.55537 0.11806 0.43360
 H580 H 0.59142 0.14977 0.39019
 C581 C 0.67303 0.72509 -0.22986
 C582 C 0.64838 0.70288 -0.20991
 C583 C 0.66450 0.67888 -0.18686
 C584 C 0.70592 0.67714 -0.18447
 C585 C 0.73045 0.69957 -0.20426
 C586 C 0.71424 0.72458 -0.22647
 C587 C 0.63753 0.65825 -0.16433
 C588 C 0.64766 0.62576 -0.14957
 C589 C 0.62283 0.60725 -0.12433
 C590 C 0.62838 0.56804 -0.11806
 C591 C 0.60828 0.55034 -0.09255
 C592 C 0.58263 0.57172 -0.07243
 C593 C 0.57640 0.61078 -0.07905
 C594 C 0.59630 0.62843 -0.10471
 H595 H 0.65957 0.74269 -0.24766
 H596 H 0.61659 0.70457 -0.21238
 H597 H 0.71953 0.65951 -0.16666
 H598 H 0.76210 0.69750 -0.20185
 H599 H 0.60834 0.67022 -0.16009
 H600 H 0.67522 0.61176 -0.15624
 H601 H 0.64884 0.55117 -0.13266
 H602 H 0.61369 0.52015 -0.08806
 H603 H 0.55680 0.62796 -0.06395
 H604 H 0.59200 0.65894 -0.10824
 C605 C 0.76912 -0.17114 -0.22234
 C606 C 0.78950 -0.14738 -0.20118
 C607 C 0.81726 -0.16292 -0.18062
 C608 C 0.82393 -0.20289 -0.18137
 C609 C 0.80336 -0.22661 -0.20241
 C610 C 0.77557 -0.21102 -0.22290
 C611 C 0.83722 -0.13704 -0.15776
 C612 C 0.87272 -0.14470 -0.14575
 C613 C 0.89185 -0.12020 -0.12141
 C614 C 0.93300 -0.12254 -0.11810
 C615 C 0.95186 -0.10190 -0.09403
 C616 C 0.92979 -0.07884 -0.07251
 C617 C 0.88869 -0.07603 -0.07604
 C618 C 0.86984 -0.09658 -0.10016
 H619 H 0.74828 -0.15805 -0.23803
 H620 H 0.78368 -0.11672 -0.20096
 H621 H 0.84437 -0.21613 -0.16536
 H622 H 0.80968 -0.25708 -0.20284
 H623 H 0.82254 -0.11030 -0.15151
 H624 H 0.88910 -0.16948 -0.15452
 H625 H 0.95057 -0.14071 -0.13401
 H626 H 0.98360 -0.10463 -0.09188
 H627 H 0.87093 -0.05855 -0.05974
 H628 H 0.83796 -0.09484 -0.10130
 C629 C 0.81011 0.26172 0.29159
 C630 C 0.83442 0.28158 0.31262
 C631 C 0.82696 0.32021 0.32062
 C632 C 0.79519 0.33898 0.30621
 C633 C 0.77086 0.31900 0.28505
 C634 C 0.77781 0.28005 0.27800
 C635 C 0.85331 0.33961 0.34365
 C636 C 0.84278 0.37064 0.36105
 C637 C 0.86788 0.38758 0.38620
 C638 C 0.84950 0.40888 0.41092
 C639 C 0.87166 0.42425 0.43572
 C640 C 0.91282 0.41893 0.43622
 C641 C 0.93152 0.39860 0.41104
 C642 C 0.90932 0.38315 0.38621
 H643 H 0.81692 0.23204 0.28573
 H644 H 0.85899 0.26655 0.32292
 H645 H 0.78927 0.36912 0.31079
 H646 H 0.74678 0.33412 0.27431
 H647 H 0.88125 0.32578 0.34806
 H648 H 0.81342 0.38244 0.35878
 H649 H 0.81775 0.41311 0.41134
 H650 H 0.85648 0.44021 0.45460
 H651 H 0.96330 0.39459 0.41056
 H652 H 0.92484 0.36815 0.36702
 C653 C 0.26537 -0.16962 0.27292
 C654 C 0.28731 -0.14636 0.29348
 C655 C 0.31520 -0.16252 0.31369
 C656 C 0.32103 -0.20266 0.31254
 C657 C 0.29913 -0.22587 0.29197
 C658 C 0.27038 -0.20975 0.27256
 C659 C 0.33546 -0.13699 0.33689
 C660 C 0.36898 -0.14640 0.35146
 C661 C 0.38681 -0.12290 0.37722
 C662 C 0.41122 -0.14138 0.39889
 C663 C 0.42724 -0.12111 0.42448
 C664 C 0.41956 -0.08167 0.42881
 C665 C 0.39634 -0.06270 0.40649
 C666 C 0.38009 -0.08307 0.38094
 H667 H 0.24437 -0.15591 0.25772
 H668 H 0.28223 -0.11557 0.29380
 H669 H 0.34137 -0.21666 0.32816
 H670 H 0.30388 -0.25672 0.29200
 H671 H 0.32125 -0.10988 0.34262
 H672 H 0.38328 -0.17343 0.34565
 H673 H 0.41726 -0.17189 0.39643
 H674 H 0.44543 -0.13643 0.44105
 H675 H 0.39036 -0.03218 0.40899
 H676 H 0.36260 -0.06742 0.36416
 C677 C 0.27871 0.33699 -0.22755
 C678 C 0.29889 0.36174 -0.20695
 C679 C 0.32675 0.34725 -0.18589
 C680 C 0.33425 0.30739 -0.18612
 C681 C 0.31404 0.28279 -0.20666
 C682 C 0.28551 0.29718 -0.22705
 C683 C 0.34514 0.37386 -0.16257
 C684 C 0.37921 0.36619 -0.14816
 C685 C 0.39488 0.38940 -0.12141
 C686 C 0.41959 0.37114 -0.09986
 C687 C 0.43355 0.39090 -0.07327
 C688 C 0.42359 0.42965 -0.06786
 C689 C 0.40000 0.44851 -0.08999
 C690 C 0.38568 0.42856 -0.11653
 H691 H 0.25754 0.34916 -0.24346
 H692 H 0.29247 0.39227 -0.20726
 H693 H 0.35462 0.29467 -0.16980
 H694 H 0.32062 0.25242 -0.20624
 H695 H 0.32905 0.39983 -0.15642
 H696 H 0.39541 0.34041 -0.15466
 H697 H 0.42742 0.34113 -0.10320
 H698 H 0.45209 0.37574 -0.05687
 H699 H 0.39230 0.47854 -0.08661
 H700 H 0.36775 0.44399 -0.13314
 C701 C 1.17914 -0.19175 0.23711
 C702 C 1.15476 -0.16996 0.21768
 C703 C 1.16061 -0.17023 0.18442
 C704 C 1.18993 -0.19427 0.17086
 C705 C 1.21403 -0.21614 0.19018
 C706 C 1.20973 -0.21428 0.22357
 C707 C 1.13538 -0.14620 0.16415
 C708 C 1.14920 -0.13094 0.13672
 C709 C 1.12513 -0.10844 0.11445
 C710 C 1.14495 -0.08504 0.09199
 C711 C 1.12410 -0.06610 0.06849
 C712 C 1.08287 -0.07048 0.06667
 C713 C 1.06274 -0.09309 0.08962
 C714 C 1.08364 -0.11198 0.11328
 H715 H 1.17443 -0.19052 0.26276
 H716 H 1.13179 -0.15231 0.22866
 H717 H 1.19400 -0.19663 0.14522
 H718 H 1.23581 -0.23446 0.17856
 H719 H 1.10563 -0.13987 0.17271
 H720 H 1.18022 -0.13451 0.13026
 H721 H 1.17687 -0.08191 0.09227
 H722 H 1.14043 -0.04876 0.05124
 H723 H 1.03094 -0.09704 0.08878
 H724 H 1.06737 -0.13039 0.12971
 C725 C 1.19167 0.31315 0.73615
 C726 C 1.16584 0.33326 0.71677
 C727 C 1.16968 0.33073 0.68341
 C728 C 1.19910 0.30677 0.66983
 C729 C 1.22469 0.28661 0.68918
 C730 C 1.22123 0.28958 0.72249
 C731 C 1.14240 0.35262 0.66326
 C732 C 1.15366 0.36583 0.63445
 C733 C 1.12749 0.38659 0.61263
 C734 C 1.14527 0.40833 0.58808
 C735 C 1.12232 0.42588 0.56521
 C736 C 1.08093 0.42183 0.56616
 C737 C 1.06284 0.40080 0.59111
 C738 C 1.08591 0.38321 0.61414
 H739 H 1.18871 0.31618 0.76183
 H740 H 1.14327 0.35133 0.72782
 H741 H 1.20216 0.30312 0.64422
 H742 H 1.24720 0.26885 0.67783
 H743 H 1.11327 0.35926 0.67304
 H744 H 1.18417 0.36216 0.62650
 H745 H 1.17720 0.41131 0.58630
 H746 H 1.13712 0.44207 0.54638
 H747 H 1.03097 0.39715 0.59237
 H748 H 1.07113 0.36601 0.63228
 C749 C 0.73404 -0.21122 0.68877
 C750 C 0.71512 -0.18748 0.66727
 C751 C 0.68193 -0.16605 0.67705
 C752 C 0.66848 -0.16788 0.70898
 C753 C 0.68810 -0.19091 0.73071
 C754 C 0.72061 -0.21326 0.72064
 C755 C 0.66279 -0.14122 0.65367
 C756 C 0.62345 -0.13778 0.65231
 C757 C 0.60508 -0.11614 0.62647
 C758 C 0.57251 -0.13208 0.61092
 C759 C 0.55675 -0.11358 0.58464
 C760 C 0.57257 -0.07822 0.57419
 C761 C 0.60399 -0.06137 0.59075
 C762 C 0.62039 -0.08036 0.61650
 H763 H 0.75960 -0.22733 0.68041
 H764 H 0.72619 -0.18610 0.64282
 H765 H 0.64352 -0.15079 0.71728
 H766 H 0.67811 -0.19099 0.75545
 H767 H 0.68146 -0.12819 0.63526
 H768 H 0.60443 -0.15426 0.66838
 H769 H 0.56019 -0.15955 0.61840
 H770 H 0.53236 -0.12702 0.57237
 H771 H 0.61660 -0.03403 0.58325
 H772 H 0.64511 -0.06721 0.62854
 C773 C 0.68482 0.30630 0.23915
 C774 C 0.66025 0.32836 0.22013
 C775 C 0.66699 0.32996 0.18703
 C776 C 0.69827 0.30868 0.17317
 C777 C 0.72211 0.28590 0.19205
 C778 C 0.71562 0.28450 0.22520
 C779 C 0.64024 0.35239 0.16699
 C780 C 0.65404 0.37317 0.14233
 C781 C 0.62806 0.39414 0.12068
 C782 C 0.64093 0.42959 0.10837
 C783 C 0.61879 0.44856 0.08568
 C784 C 0.58396 0.43178 0.07408
 C785 C 0.57078 0.39641 0.08661
 C786 C 0.59246 0.37789 0.11000
 H787 H 0.67912 0.30544 0.26467
 H788 H 0.63611 0.34433 0.23126
 H789 H 0.70356 0.30874 0.14758
 H790 H 0.74518 0.26909 0.18046
 H791 H 0.60892 0.35270 0.17322
 H792 H 0.68575 0.37588 0.13828
 H793 H 0.66843 0.44243 0.11611
 H794 H 0.62975 0.47571 0.07632
 H795 H 0.54405 0.38290 0.07801
 H796 H 0.58228 0.35018 0.11873
 C797 C 0.81225 0.24281 0.20857
 C798 C 0.83806 0.22231 0.18833
 C799 C 0.83248 0.18268 0.18307
 C800 C 0.80118 0.16368 0.19944
 C801 C 0.77530 0.18430 0.21961
 C802 C 0.78047 0.22403 0.22401
 C803 C 0.85969 0.16258 0.16026
 C804 C 0.85021 0.12970 0.14515
 C805 C 0.87538 0.11199 0.11962
 C806 C 0.85725 0.08788 0.09720
 C807 C 0.87918 0.07213 0.07171
 C808 C 0.91988 0.07994 0.06820
 C809 C 0.93849 0.10282 0.09128
 C810 C 0.91649 0.11866 0.11681
 H811 H 0.81686 0.27347 0.21193
 H812 H 0.86208 0.23761 0.17631
 H813 H 0.79660 0.13296 0.19698
 H814 H 0.75117 0.16914 0.23154
 H815 H 0.88703 0.17729 0.15384
 H816 H 0.82136 0.11681 0.14943
 H817 H 0.82576 0.08187 0.09901
 H818 H 0.86412 0.05418 0.05453
 H819 H 0.96997 0.10882 0.08942
 H820 H 0.93187 0.13591 0.13423
 C821 C 0.82292 0.73459 0.72349
 C822 C 0.84782 0.71281 0.70337
 C823 C 0.83281 0.68167 0.68570
 C824 C 0.79216 0.67262 0.68881
 C825 C 0.76736 0.69438 0.70897
 C826 C 0.78252 0.72554 0.72628
 C827 C 0.85965 0.66164 0.66251
 C828 C 0.85181 0.62694 0.64975
 C829 C 0.87591 0.60955 0.62346
 C830 C 0.85724 0.58408 0.60240
 C831 C 0.87799 0.56854 0.57620
 C832 C 0.91812 0.57770 0.57074
 C833 C 0.93735 0.60201 0.59246
 C834 C 0.91645 0.61788 0.61859
 H835 H 0.83510 0.75916 0.73596
 H836 H 0.87881 0.72081 0.70110
 H837 H 0.77883 0.64989 0.67488
 H838 H 0.73604 0.68753 0.71034
 H839 H 0.88616 0.67703 0.65495
 H840 H 0.82539 0.61139 0.65719
 H841 H 0.82618 0.57688 0.60579
 H842 H 0.86251 0.54945 0.56012
 H843 H 0.96841 0.60909 0.58908
 H844 H 0.93220 0.63636 0.63492
 C845 C 0.32935 0.24446 0.71647
 C846 C 0.35342 0.22294 0.69548
 C847 C 0.33835 0.19029 0.67978
 C848 C 0.29846 0.17974 0.68542
 C849 C 0.27452 0.20123 0.70642
 C850 C 0.28974 0.23374 0.72195
 C851 C 0.36412 0.16959 0.65625
 C852 C 0.35755 0.13304 0.64702
 C853 C 0.38076 0.11289 0.62150
 C854 C 0.37736 0.07264 0.61906
 C855 C 0.39604 0.05258 0.59398
 C856 C 0.41841 0.07240 0.57060
 C857 C 0.42256 0.11256 0.57329
 C858 C 0.40379 0.13267 0.59835
 H859 H 0.34154 0.26981 0.72785
 H860 H 0.38382 0.23202 0.69126
 H861 H 0.28515 0.15572 0.67299
 H862 H 0.24379 0.19290 0.71005
 H863 H 0.38960 0.18509 0.64677
 H864 H 0.33423 0.11659 0.65881
 H865 H 0.35967 0.05667 0.63640
 H866 H 0.39237 0.02158 0.59259
 H867 H 0.43957 0.12860 0.55558
 H868 H 0.40644 0.16371 0.59872
 C869 C 0.30460 0.75324 0.20640
 C870 C 0.33022 0.73377 0.18530
 C871 C 0.32844 0.69353 0.18222
 C872 C 0.30083 0.67303 0.20143
 C873 C 0.27509 0.69260 0.22257
 C874 C 0.27603 0.73298 0.22459
 C875 C 0.35378 0.67478 0.15716
 C876 C 0.36237 0.63707 0.15636
 C877 C 0.38458 0.61805 0.12956
 C878 C 0.38001 0.57813 0.12533
 C879 C 0.39848 0.55911 0.09957
 C880 C 0.42222 0.57957 0.07744
 C881 C 0.42812 0.61927 0.08224
 C882 C 0.40964 0.63833 0.10807
 H883 H 0.30631 0.78440 0.20768
 H884 H 0.35110 0.75034 0.17087
 H885 H 0.29784 0.64209 0.19951
 H886 H 0.25401 0.67594 0.23661
 H887 H 0.36484 0.69320 0.13823
 H888 H 0.35131 0.61865 0.17530
 H889 H 0.36130 0.56167 0.14164
 H890 H 0.39360 0.52841 0.09672
 H891 H 0.44677 0.63567 0.06587
 H892 H 0.41530 0.66881 0.11103
   
