data_POSCAR
  _audit_creation_date              2014-09-24
  _audit_creation_method            'ToBaCCo'
  _symmetry_space_group_name_H-M    'P1'
  _symmetry_Int_Tables_number       1
  _symmetry_cell_setting            triclinic
  loop_
  _symmetry_equiv_pos_as_xyz
 x,y,z
_cell_length_a 31.7405
_cell_length_b 31.8456
_cell_length_c 31.9792
_cell_angle_alpha 89.994900
_cell_angle_beta 89.999100
_cell_angle_gamma 90.003000
loop_
  _atom_site_label
  _atom_site_type_symbol
  _atom_site_fract_x
  _atom_site_fract_y
  _atom_site_fract_z
N1 N 0.31725 0.23309 0.20024
 N2 N 0.29998 0.26686 0.18386
 C3 C 0.32233 0.27857 0.14997
 C4 C 0.35510 0.25057 0.14512
 C5 C 0.35113 0.22212 0.17733
 H6 H 0.31537 0.30525 0.13025
 H7 H 0.37131 0.19546 0.18360
 Cu8 Cu 0.24972 0.29175 0.20839
 Cu9 Cu 0.29449 0.20583 0.24993
 Cu10 Cu 0.20510 0.25033 0.29420
 N11 N 0.19980 0.31673 0.23348
 N12 N 0.18241 0.30023 0.26701
 C13 C 0.14839 0.32308 0.27777
 C14 C 0.14450 0.35547 0.24948
 C15 C 0.17743 0.35075 0.22177
 H16 H 0.12802 0.31664 0.30413
 H17 H 0.18440 0.37052 0.19518
 N18 N 0.23278 0.19982 0.31709
 N19 N 0.26680 0.18288 0.30025
 C20 C 0.27812 0.14906 0.32297
 C21 C 0.24993 0.14476 0.35542
 C22 C 0.22160 0.17720 0.35096
 H23 H 0.30486 0.12903 0.31654
 H24 H 0.19494 0.18377 0.37097
 H25 H 0.23276 0.22478 0.24154
 H26 H 0.26664 0.25873 0.27511
 N27 N 0.68170 -0.23342 0.19949
 N28 N 0.69870 -0.26747 0.18338
 C29 C 0.67632 -0.27919 0.14948
 C30 C 0.64384 -0.25091 0.14443
 C31 C 0.64795 -0.22228 0.17648
 H32 H 0.68312 -0.30605 0.12991
 H33 H 0.62803 -0.19540 0.18256
 Cu34 Cu 0.74880 -0.29243 0.20824
 Cu35 Cu 0.70463 -0.20595 0.24906
 Cu36 Cu 0.79408 -0.25047 0.29329
 N37 N 0.79900 -0.31737 0.23295
 N38 N 0.81666 -0.30054 0.26623
 C39 C 0.85084 -0.32321 0.27688
 C40 C 0.85459 -0.35577 0.24876
 C41 C 0.82141 -0.35138 0.22127
 H42 H 0.87140 -0.31648 0.30303
 H43 H 0.81430 -0.37136 0.19483
 N44 N 0.76652 -0.19983 0.31609
 N45 N 0.73249 -0.18287 0.29927
 C46 C 0.72121 -0.14903 0.32200
 C47 C 0.74946 -0.14473 0.35441
 C48 C 0.77774 -0.17721 0.34994
 H49 H 0.69443 -0.12904 0.31563
 H50 H 0.80438 -0.18383 0.36996
 H51 H 0.76614 -0.22528 0.24060
 H52 H 0.73229 -0.25867 0.27473
 N53 N 0.68376 0.23343 0.79994
 N54 N 0.70148 0.26675 0.81678
 C55 C 0.67916 0.27834 0.85075
 C56 C 0.64598 0.25075 0.85515
 C57 C 0.64965 0.22267 0.82258
 H58 H 0.68632 0.30479 0.87073
 H59 H 0.62904 0.19647 0.81586
 Cu60 Cu 0.75164 0.29162 0.79195
 Cu61 Cu 0.70620 0.20644 0.74992
 Cu62 Cu 0.79562 0.25098 0.70558
 N63 N 0.80165 0.31675 0.76709
 N64 N 0.81862 0.30068 0.73309
 C65 C 0.85237 0.32384 0.72206
 C66 C 0.85653 0.35592 0.75070
 C67 C 0.82405 0.35074 0.77886
 H68 H 0.87228 0.31784 0.69526
 H69 H 0.81728 0.37028 0.80569
 N70 N 0.76766 0.20065 0.68248
 N71 N 0.73363 0.18374 0.69935
 C72 C 0.72225 0.14992 0.67665
 C73 C 0.75042 0.14556 0.64420
 C74 C 0.77878 0.17799 0.64861
 H75 H 0.69556 0.12985 0.68317
 H76 H 0.80551 0.18445 0.62864
 H77 H 0.76803 0.22498 0.75802
 H78 H 0.73415 0.25941 0.72498
 N79 N 0.31744 -0.23404 0.80025
 N80 N 0.30047 -0.26811 0.81635
 C81 C 0.32294 -0.27983 0.85019
 C82 C 0.35546 -0.25157 0.85524
 C83 C 0.35123 -0.22294 0.82321
 H84 H 0.31622 -0.30671 0.86975
 H85 H 0.37116 -0.19607 0.81712
 Cu86 Cu 0.25034 -0.29304 0.79148
 Cu87 Cu 0.29452 -0.20655 0.75072
 Cu88 Cu 0.20508 -0.25101 0.70643
 N89 N 0.20009 -0.31795 0.76678
 N90 N 0.18246 -0.30110 0.73349
 C91 C 0.14824 -0.32371 0.72284
 C92 C 0.14441 -0.35627 0.75097
 C93 C 0.17760 -0.35193 0.77847
 H94 H 0.12769 -0.31694 0.69670
 H95 H 0.18467 -0.37189 0.80492
 N96 N 0.23269 -0.20037 0.68366
 N97 N 0.26670 -0.18343 0.70054
 C98 C 0.27798 -0.14953 0.67789
 C99 C 0.24976 -0.14516 0.64548
 C100 C 0.22148 -0.17767 0.64985
 H101 H 0.30474 -0.12953 0.68433
 H102 H 0.19485 -0.18424 0.62980
 H103 H 0.23296 -0.22589 0.75912
 H104 H 0.26683 -0.25925 0.72500
 N105 N 0.68302 -0.23343 0.79978
 N106 N 0.70003 -0.26747 0.81586
 C107 C 0.67769 -0.27918 0.84976
 C108 C 0.64521 -0.25094 0.85484
 C109 C 0.64930 -0.22232 0.82281
 H110 H 0.68446 -0.30603 0.86933
 H111 H 0.62933 -0.19547 0.81677
 Cu112 Cu 0.75001 -0.29242 0.79098
 Cu113 Cu 0.70574 -0.20600 0.75021
 Cu114 Cu 0.79507 -0.25056 0.70579
 N115 N 0.80005 -0.31735 0.76619
 N116 N 0.81766 -0.30058 0.73286
 C117 C 0.85180 -0.32328 0.72218
 C118 C 0.85553 -0.35579 0.75036
 C119 C 0.82244 -0.35136 0.77790
 H120 H 0.87232 -0.31661 0.69599
 H121 H 0.81535 -0.37129 0.80437
 N122 N 0.76743 -0.19999 0.68307
 N123 N 0.73345 -0.18303 0.69999
 C124 C 0.72212 -0.14918 0.67735
 C125 C 0.75029 -0.14487 0.64491
 C126 C 0.77858 -0.17734 0.64923
 H127 H 0.69538 -0.12916 0.68381
 H128 H 0.80518 -0.18391 0.62914
 H129 H 0.73332 -0.25875 0.72454
 H130 H 0.76727 -0.22532 0.75853
 N131 N 0.31744 0.23349 0.79951
 N132 N 0.30048 0.26756 0.81558
 C133 C 0.32293 0.27934 0.84938
 C134 C 0.35541 0.25110 0.85439
 C135 C 0.35122 0.22242 0.82245
 H136 H 0.31622 0.30622 0.86892
 H137 H 0.37116 0.19555 0.81642
 Cu138 Cu 0.25046 0.29245 0.79082
 Cu139 Cu 0.29457 0.20595 0.75010
 Cu140 Cu 0.20518 0.25044 0.70581
 N141 N 0.20044 0.31733 0.76606
 N142 N 0.18276 0.30051 0.73281
 C143 C 0.14863 0.32320 0.72218
 C144 C 0.14495 0.35576 0.75028
 C145 C 0.17810 0.35135 0.77772
 H146 H 0.12802 0.31651 0.69608
 H147 H 0.18521 0.37133 0.80414
 N148 N 0.23269 0.19982 0.68319
 N149 N 0.26670 0.18289 0.70005
 C150 C 0.27795 0.14897 0.67748
 C151 C 0.24968 0.14462 0.64515
 C152 C 0.22143 0.17711 0.64944
 H153 H 0.30470 0.12896 0.68391
 H154 H 0.19479 0.18366 0.62939
 H155 H 0.26694 0.25870 0.72440
 H156 H 0.23305 0.22533 0.75855
 N157 N 0.31838 -0.23309 0.20079
 N158 N 0.30137 -0.26712 0.18466
 C159 C 0.32384 -0.27891 0.15089
 C160 C 0.35639 -0.25074 0.14593
 C161 C 0.35221 -0.22207 0.17790
 H162 H 0.31707 -0.30575 0.13130
 H163 H 0.37218 -0.19522 0.18396
 Cu164 Cu 0.25118 -0.29187 0.20923
 Cu165 Cu 0.29542 -0.20551 0.25016
 Cu166 Cu 0.20579 -0.24984 0.29414
 N167 N 0.20098 -0.31661 0.23379
 N168 N 0.18328 -0.29978 0.26701
 C169 C 0.14902 -0.32234 0.27751
 C170 C 0.14525 -0.35481 0.24933
 C171 C 0.17851 -0.35051 0.22198
 H172 H 0.12836 -0.31560 0.30356
 H173 H 0.18560 -0.37047 0.19554
 N174 N 0.23336 -0.19934 0.31693
 N175 N 0.26744 -0.18242 0.30017
 C176 C 0.27870 -0.14858 0.32287
 C177 C 0.25036 -0.14428 0.35516
 C178 C 0.22206 -0.17670 0.35071
 H179 H 0.30551 -0.12861 0.31656
 H180 H 0.19538 -0.18327 0.37069
 H181 H 0.26762 -0.25820 0.27572
 H182 H 0.23390 -0.22473 0.24151
 N183 N 0.68191 0.23289 0.20041
 N184 N 0.69887 0.26698 0.18435
 C185 C 0.67649 0.27873 0.15051
 C186 C 0.64404 0.25048 0.14545
 C187 C 0.64818 0.22180 0.17741
 H188 H 0.68324 0.30562 0.13096
 H189 H 0.62825 0.19491 0.18342
 Cu190 Cu 0.74884 0.29192 0.20911
 Cu191 Cu 0.70481 0.20537 0.24983
 Cu192 Cu 0.79419 0.24993 0.29409
 N193 N 0.79879 0.31686 0.23389
 N194 N 0.81653 0.30004 0.26711
 C195 C 0.85059 0.32283 0.27776
 C196 C 0.85416 0.35542 0.24969
 C197 C 0.82103 0.35095 0.22225
 H198 H 0.87121 0.31619 0.30387
 H199 H 0.81385 0.37096 0.19587
 N200 N 0.76674 0.19927 0.31671
 N201 N 0.73272 0.18232 0.29989
 C202 C 0.72147 0.14844 0.32253
 C203 C 0.74975 0.14414 0.35486
 C204 C 0.77802 0.17661 0.35049
 H205 H 0.69470 0.12844 0.31616
 H206 H 0.80465 0.18321 0.37053
 H207 H 0.73241 0.25813 0.27554
 H208 H 0.76630 0.22480 0.24136
 O209 O 0.28504 0.04089 0.45985
 O210 O 0.28494 -0.04107 0.54127
 O211 O 0.28519 -0.04085 0.45976
 O212 O 0.28491 0.04070 0.54129
 O213 O 0.21522 0.04062 0.54114
 O214 O 0.21550 -0.04092 0.45962
 O215 O 0.21527 -0.04114 0.54111
 O216 O 0.21536 0.04079 0.45973
 Cu217 Cu 0.29206 -0.00009 0.50057
 Cu218 Cu 0.20831 -0.00018 0.50040
 C219 C 0.25020 0.05464 0.44602
 C220 C 0.25008 -0.05491 0.55496
 C221 C 0.25039 -0.05459 0.44588
 C222 C 0.25002 0.05442 0.55496
 O223 O 0.71512 0.04086 0.54070
 O224 O 0.71468 -0.04112 0.45931
 O225 O 0.71498 -0.04098 0.54085
 O226 O 0.71481 0.04058 0.45928
 O227 O 0.78449 0.04047 0.45905
 O228 O 0.78466 -0.04107 0.54060
 O229 O 0.78435 -0.04121 0.45908
 O230 O 0.78479 0.04076 0.54045
 Cu231 Cu 0.70786 -0.00018 0.50009
 Cu232 Cu 0.79160 -0.00030 0.49980
 C233 C 0.75003 0.05470 0.55427
 C234 C 0.74945 -0.05492 0.44537
 C235 C 0.74986 -0.05478 0.55450
 C236 C 0.74963 0.05426 0.44538
 O237 O 0.45887 0.28589 0.04038
 O238 O 0.54128 0.28604 -0.04085
 O239 O 0.45920 0.28611 -0.04111
 O240 O 0.54082 0.28586 0.04061
 O241 O 0.54075 0.21640 0.04045
 O242 O 0.45916 0.21666 -0.04124
 O243 O 0.54121 0.21659 -0.04098
 O244 O 0.45884 0.21644 0.04020
 Cu245 Cu 0.50004 0.29299 -0.00025
 Cu246 Cu 0.49998 0.20951 -0.00044
 C247 C 0.44502 0.25113 0.05406
 C248 C 0.55517 0.25133 -0.05461
 C249 C 0.44541 0.25142 -0.05495
 C250 C 0.55450 0.25108 0.05436
 O251 O 0.54191 0.71394 0.04122
 O252 O 0.45969 0.71365 -0.04018
 O253 O 0.54174 0.71394 -0.04030
 O254 O 0.45992 0.71401 0.04128
 O255 O 0.45987 0.78347 0.04111
 O256 O 0.54164 0.78339 -0.04043
 O257 O 0.45961 0.78310 -0.04033
 O258 O 0.54183 0.78338 0.04107
 Cu259 Cu 0.50084 0.70687 0.00051
 Cu260 Cu 0.50074 0.79034 0.00033
 C261 C 0.55568 0.74870 0.05496
 C262 C 0.44578 0.74833 -0.05401
 C263 C 0.55546 0.74866 -0.05416
 C264 C 0.44614 0.74877 0.05499
 O265 O 0.04003 0.46013 0.28290
 O266 O -0.04206 0.54193 0.28265
 O267 O -0.04189 0.46019 0.28306
 O268 O 0.04005 0.54178 0.28282
 O269 O 0.04011 0.54164 0.21366
 O270 O -0.04193 0.45996 0.21389
 O271 O -0.04207 0.54177 0.21350
 O272 O 0.04007 0.45992 0.21375
 Cu273 Cu -0.00098 0.50106 0.28983
 Cu274 Cu -0.00097 0.50084 0.20669
 C275 C 0.05389 0.44621 0.24838
 C276 C -0.05598 0.55562 0.24804
 C277 C -0.05569 0.44625 0.24854
 C278 C 0.05399 0.55541 0.24823
 O279 O 0.04067 0.54172 0.71706
 O280 O -0.04144 0.45981 0.71683
 O281 O -0.04150 0.54168 0.71677
 O282 O 0.04051 0.46004 0.71675
 O283 O 0.04047 0.45990 0.78591
 O284 O -0.04162 0.54162 0.78592
 O285 O -0.04154 0.45969 0.78598
 O286 O 0.04060 0.54163 0.78620
 Cu287 Cu -0.00047 0.50086 0.70989
 Cu288 Cu -0.00057 0.50074 0.79299
 C289 C 0.05460 0.55541 0.75166
 C290 C -0.05527 0.44583 0.75137
 C291 C -0.05542 0.55543 0.75132
 C292 C 0.05433 0.44619 0.75130
 C293 C 0.38668 0.25086 0.11294
 C294 C 0.41325 0.25103 0.08599
 C295 C 0.61396 0.74892 0.11394
 C296 C 0.58740 0.74881 0.08695
 C297 C 0.61407 0.25116 -0.11296
 C298 C 0.58721 0.25132 -0.08628
 C299 C 0.38718 0.74825 -0.11267
 C300 C 0.41388 0.74823 -0.08584
 C301 C 0.11262 0.38748 0.24890
 C302 C 0.08582 0.41431 0.24856
 C303 C 0.11395 0.61364 0.75148
 C304 C 0.08686 0.58705 0.75168
 C305 C -0.11507 0.61406 0.24826
 C306 C -0.08810 0.58737 0.24803
 C307 C -0.11354 0.38653 0.75101
 C308 C -0.08697 0.41364 0.75123
 C309 C 0.25008 0.11304 0.38738
 C310 C 0.25018 0.08640 0.41418
 C311 C 0.75033 0.11359 0.61246
 C312 C 0.75020 0.08671 0.58588
 C313 C 0.24991 -0.11337 0.61356
 C314 C 0.25001 -0.08670 0.58679
 C315 C 0.74933 -0.11309 0.38647
 C316 C 0.74933 -0.08656 0.41339
 C317 C 0.61367 0.74882 -0.11302
 C318 C 0.58713 0.74869 -0.08609
 C319 C 0.38705 0.25137 -0.11360
 C320 C 0.41368 0.25146 -0.08679
 C321 C 0.38795 0.74901 0.11384
 C322 C 0.41449 0.74885 0.08692
 C323 C 0.61252 0.25075 0.11332
 C324 C 0.58605 0.25094 0.08635
 C325 C -0.11424 0.61400 0.75089
 C326 C -0.08739 0.58723 0.75121
 C327 C -0.11410 0.38744 0.24912
 C328 C -0.08743 0.41432 0.24875
 C329 C 0.11306 0.38765 0.75086
 C330 C 0.08625 0.41440 0.75118
 C331 C 0.11314 0.61351 0.24862
 C332 C 0.08612 0.58698 0.24829
 C333 C 0.75010 -0.11313 0.61305
 C334 C 0.74996 -0.08649 0.58630
 C335 C 0.25046 -0.11267 0.38712
 C336 C 0.25046 -0.08615 0.41397
 C337 C 0.74965 0.11247 0.38676
 C338 C 0.74960 0.08590 0.41355
 C339 C 0.24978 0.11285 0.61336
 C340 C 0.24990 0.08617 0.58668
   
