data_POSCAR
  _audit_creation_date              2014-09-24
  _audit_creation_method            'ToBaCCo'
  _symmetry_space_group_name_H-M    'P1'
  _symmetry_Int_Tables_number       1
  _symmetry_cell_setting            triclinic
  loop_
  _symmetry_equiv_pos_as_xyz
 x,y,z
_cell_length_a 31.8242
_cell_length_b 31.8458
_cell_length_c 48.0350
_cell_angle_alpha 90.001400
_cell_angle_beta 90.041800
_cell_angle_gamma 120.120300
loop_
  _atom_site_label
  _atom_site_type_symbol
  _atom_site_fract_x
  _atom_site_fract_y
  _atom_site_fract_z
C1 C 0.02471 0.51280 1.27562
 C2 C -0.02661 0.48713 1.27566
 C3 C -0.05192 0.47452 1.25031
 C4 C -0.02676 0.48715 1.22495
 C5 C 0.02445 0.51278 1.22492
 C6 C 0.04979 0.52541 1.25022
 H7 H 0.08923 0.54514 1.25010
 H8 H -0.09138 0.45477 1.25032
 C9 C 0.51221 0.48795 1.22511
 C10 C 0.48684 0.51359 1.22506
 C11 C 0.47412 0.52615 1.25035
 C12 C 0.48650 0.51339 1.27572
 C13 C 0.51198 0.48776 1.27575
 C14 C 0.52464 0.47521 1.25043
 H15 H 0.54422 0.45546 1.25045
 H16 H 0.45452 0.54590 1.25023
 C17 C 0.48655 0.97406 1.27630
 C18 C 0.51215 1.02535 1.27634
 C19 C 0.52461 1.05056 1.25099
 C20 C 0.51191 1.02534 1.22567
 C21 C 0.48643 0.97425 1.22563
 C22 C 0.47390 0.94893 1.25090
 H23 H 0.45424 0.90952 1.25075
 H24 H 0.54429 1.08998 1.25091
 C25 C 0.97529 0.48689 0.72523
 C26 C 1.02642 0.51242 0.72518
 C27 C 1.05182 0.52529 0.75046
 C28 C 1.02668 0.51291 0.77583
 C29 C 0.97546 0.48732 0.77587
 C30 C 0.95013 0.47449 0.75056
 H31 H 0.91071 0.45481 0.75058
 H32 H 1.09126 0.54499 0.75034
 C33 C 0.51285 0.48725 0.72464
 C34 C 0.48722 0.51266 0.72458
 C35 C 0.47457 0.52527 0.74987
 C36 C 0.48720 0.51277 0.77522
 C37 C 0.51279 0.48733 0.77528
 C38 C 0.52547 0.47473 0.74999
 H39 H 0.54520 0.45514 0.75003
 H40 H 0.45483 0.54487 0.74983
 C41 C 0.48697 -0.02672 0.77561
 C42 C 0.51293 0.02447 0.77565
 C43 C 0.52572 0.04973 0.75034
 C44 C 0.51293 0.02454 0.72500
 C45 C 0.48703 -0.02656 0.72494
 C46 C 0.47420 -0.05189 0.75023
 H47 H 0.45423 -0.09129 0.75010
 H48 H 0.54567 0.08911 0.75036
 O49 O 0.40426 0.66995 0.96797
 O50 O 0.40638 0.75173 0.97612
 C51 C 0.37570 0.75764 0.96231
 O52 O 0.33084 0.73633 0.96789
 O53 O 0.24897 0.65651 0.97619
 C54 C 0.24290 0.61981 0.96244
 O55 O 0.26418 0.59632 0.96805
 O56 O 0.34399 0.59445 0.97630
 C57 C 0.38068 0.62506 0.96248
 O58 O 0.40658 0.65716 1.02352
 O59 O 0.40437 0.73677 1.03169
 C60 C 0.38071 0.75788 1.03725
 O61 O 0.34398 0.75169 1.02344
 O62 O 0.26425 0.66975 1.03174
 C63 C 0.24302 0.62493 1.03734
 O64 O 0.24912 0.59434 1.02359
 O65 O 0.33110 0.59679 1.03183
 C66 C 0.37600 0.62048 1.03735
 Cr67 Cr 0.40273 0.70257 0.99983
 Cr68 Cr 0.29835 0.70224 0.99982
 Cr69 Cr 0.29843 0.59815 0.99994
 O70 O 0.33317 0.66765 0.99986
 O71 O 0.59359 0.34414 0.97672
 O72 O 0.59581 0.26453 0.96859
 C73 C 0.61945 0.24335 0.96316
 O74 O 0.65610 0.24954 0.97706
 O75 O 0.73590 0.33152 0.96898
 C76 C 0.75718 0.37636 0.96343
 O77 O 0.75102 0.40692 0.97717
 O78 O 0.66915 0.40458 0.96866
 C79 C 0.62430 0.38091 0.96300
 O80 O 0.59537 0.33114 1.03228
 O81 O 0.59329 0.24937 1.02415
 C82 C 0.62384 0.24336 1.03805
 O83 O 0.66876 0.26471 1.03262
 O84 O 0.75073 0.34455 1.02456
 C85 C 0.75673 0.38120 1.03833
 O86 O 0.73550 0.40472 1.03267
 O87 O 0.65576 0.40665 1.02416
 C88 C 0.61894 0.37599 1.03786
 Cr89 Cr 0.59719 0.29864 1.00044
 Cr90 Cr 0.70154 0.29891 1.00080
 Cr91 Cr 0.70152 0.40305 1.00066
 O92 O 0.66675 0.33353 1.00064
 O93 O 0.65680 0.40610 0.52363
 O94 O 0.73657 0.40406 0.53169
 C95 C 0.75781 0.38050 0.53720
 O96 O 0.75165 0.34384 0.52337
 O97 O 0.66975 0.26407 0.53173
 C98 C 0.62491 0.24278 0.53738
 O99 O 0.59421 0.24880 0.52366
 O100 O 0.59648 0.33063 0.53194
 C101 C 0.62012 0.37550 0.53746
 O102 O 0.66944 0.40389 0.46807
 O103 O 0.75139 0.40616 0.47611
 C104 C 0.75734 0.37556 0.46227
 O105 O 0.73608 0.33072 0.46784
 O106 O 0.65633 0.24880 0.47620
 C107 C 0.61952 0.24264 0.46249
 O108 O 0.59598 0.26386 0.46812
 O109 O 0.59397 0.34354 0.47642
 C110 C 0.62452 0.38026 0.46261
 Cr111 Cr 0.70222 0.40238 0.49988
 Cr112 Cr 0.70212 0.29819 0.49979
 Cr113 Cr 0.59783 0.29804 0.50003
 O114 O 0.66739 0.33287 0.49990
 O115 O 0.33018 0.59461 0.53119
 O116 O 0.24832 0.59238 0.52292
 C117 C 0.24229 0.62293 0.53676
 O118 O 0.26356 0.66779 0.53125
 O119 O 0.34337 0.74975 0.52315
 C120 C 0.38005 0.75584 0.53697
 O121 O 0.40364 0.73465 0.53140
 O122 O 0.40572 0.65502 0.52309
 C123 C 0.37505 0.61825 0.53681
 O124 O 0.34328 0.59269 0.47565
 O125 O 0.26355 0.59475 0.46737
 C126 C 0.24233 0.61832 0.46184
 O127 O 0.24844 0.65495 0.47568
 O128 O 0.33042 0.73477 0.46758
 C129 C 0.37531 0.75609 0.46208
 O130 O 0.40590 0.74999 0.47587
 O131 O 0.40370 0.66821 0.46755
 C132 C 0.38007 0.62338 0.46193
 Cr133 Cr 0.29767 0.59628 0.49928
 Cr134 Cr 0.29778 0.70048 0.49942
 Cr135 Cr 0.40207 0.70063 0.49947
 O136 O 0.33251 0.66580 0.49939
 C137 C 0.40301 0.57844 0.36415
 C138 C 0.45539 0.60233 0.35257
 C139 C 0.44823 0.55158 0.34728
 C140 C 0.39604 0.52746 0.35850
 C141 C 0.42267 0.57772 0.39326
 C142 C 0.41549 0.52694 0.38801
 C143 C 0.47487 0.60184 0.38205
 C144 C 0.46795 0.55081 0.37637
 C145 C 0.46220 0.53750 0.32143
 C146 C 0.47359 0.52617 0.30001
 C147 C 0.40799 0.59306 0.41840
 C148 C 0.39547 0.60647 0.43857
 H149 H 0.37614 0.58995 0.35939
 H150 H 0.47193 0.63317 0.33771
 H151 H 0.36379 0.49674 0.34851
 H152 H 0.39894 0.49612 0.40288
 H153 H 0.50713 0.63257 0.39204
 H154 H 0.49483 0.53928 0.38106
 C155 C 0.39647 0.87170 0.38188
 C156 C 0.44710 0.91691 0.37668
 C157 C 0.44792 0.89692 0.34770
 C158 C 0.39755 0.85223 0.35250
 C159 C 0.42147 0.84487 0.39357
 C160 C 0.42233 0.82499 0.36456
 C161 C 0.47186 0.88958 0.38881
 C162 C 0.47292 0.87011 0.35940
 C163 C 0.46217 0.92518 0.32190
 C164 C 0.47363 0.94808 0.30054
 C165 C 0.40597 0.81467 0.41866
 C166 C 0.39241 0.78858 0.43878
 H167 H 0.36489 0.87206 0.39141
 H168 H 0.45746 0.95506 0.38133
 H169 H 0.36717 0.83718 0.33729
 H170 H 0.41198 0.78686 0.35984
 H171 H 0.50223 0.90461 0.40402
 H172 H 0.50450 0.86975 0.34985
 C173 C 0.10873 0.52605 0.38806
 C174 C 0.08195 0.55149 0.37611
 C175 C 0.10191 0.55081 0.34710
 C176 C 0.12818 0.52514 0.35864
 C177 C 0.15383 0.57607 0.39309
 C178 C 0.17368 0.57535 0.36405
 C179 C 0.12754 0.60175 0.38157
 C180 C 0.14699 0.60081 0.35216
 C181 C 0.07368 0.53698 0.32125
 C182 C 0.05076 0.52569 0.29987
 C183 C 0.18395 0.59061 0.41825
 C184 C 0.20994 0.60301 0.43844
 H185 H 0.09331 0.49548 0.40311
 H186 H 0.04386 0.54149 0.38074
 H187 H 0.12816 0.49350 0.34891
 H188 H 0.21173 0.58531 0.35936
 H189 H 0.12758 0.63339 0.39130
 H190 H 0.16242 0.63138 0.33711
 C191 C 0.58250 0.47275 0.38966
 C192 C 0.60334 0.47465 0.36024
 C193 C 0.55141 0.44862 0.34851
 C194 C 0.53029 0.44695 0.37752
 C195 C 0.57806 0.42293 0.39428
 C196 C 0.52611 0.39690 0.38256
 C197 C 0.59911 0.42465 0.36525
 C198 C 0.54698 0.39884 0.35316
 C199 C 0.53708 0.46265 0.32276
 C200 C 0.52559 0.47406 0.30140
 C201 C 0.59367 0.40819 0.41929
 C202 C 0.60732 0.39565 0.43936
 H203 H 0.59725 0.50295 0.40496
 H204 H 0.63493 0.50675 0.35077
 H205 H 0.50181 0.45631 0.38222
 H206 H 0.49452 0.36478 0.39204
 H207 H 0.62759 0.41532 0.36048
 H208 H 0.53224 0.36861 0.33787
 C209 C 0.60143 0.12702 0.38246
 C210 C 0.55075 0.08206 0.37691
 C211 C 0.55072 0.10225 0.34786
 C212 C 0.60114 0.14670 0.35301
 C213 C 0.57650 0.15412 0.39383
 C214 C 0.57642 0.17420 0.36476
 C215 C 0.52606 0.10966 0.38871
 C216 C 0.52579 0.12934 0.35925
 C217 C 0.53664 0.07408 0.32202
 C218 C 0.52518 0.05125 0.30063
 C219 C 0.59132 0.18422 0.41897
 C220 C 0.60396 0.21023 0.43914
 H221 H 0.63268 0.12638 0.39230
 H222 H 0.54002 0.04382 0.38156
 H223 H 0.63184 0.16163 0.33805
 H224 H 0.58714 0.21241 0.36004
 H225 H 0.49536 0.09474 0.40368
 H226 H 0.49456 0.12999 0.34941
 C227 C 0.89091 0.47148 0.38886
 C228 C 0.91680 0.44580 0.37602
 C229 C 0.89682 0.44819 0.34729
 C230 C 0.87144 0.47411 0.35971
 C231 C 0.84530 0.42164 0.39338
 C232 C 0.82543 0.42408 0.36463
 C233 C 0.87071 0.39573 0.38097
 C234 C 0.85123 0.39839 0.35185
 C235 C 0.92482 0.46252 0.32139
 C236 C 0.94755 0.47407 0.29997
 C237 C 0.81539 0.40612 0.41859
 C238 C 0.78956 0.39259 0.43883
 H239 H 0.90691 0.50134 0.40437
 H240 H 0.95473 0.45492 0.38036
 H241 H 0.87203 0.50649 0.35067
 H242 H 0.78753 0.41500 0.36021
 H243 H 0.87011 0.36335 0.38999
 H244 H 0.83521 0.36850 0.33635
 C245 C 0.52589 0.41612 1.11142
 C246 C 0.52567 0.39636 1.14093
 C247 C 0.55082 0.44853 1.15222
 C248 C 0.55081 0.46858 1.12312
 C249 C 0.57623 0.42200 1.10633
 C250 C 0.60139 0.47420 1.11759
 C251 C 0.57619 0.40202 1.13545
 C252 C 0.60113 0.45440 1.14709
 C253 C 0.53698 0.46283 1.17804
 C254 C 0.52572 0.47431 1.19944
 C255 C 0.59088 0.40649 1.08125
 C256 C 0.60343 0.39296 1.06114
 H257 H 0.49513 0.40024 1.09647
 H258 H 0.49440 0.36452 1.15083
 H259 H 0.54019 0.49612 1.11840
 H260 H 0.63266 0.50603 1.10770
 H261 H 0.58678 0.37448 1.14025
 H262 H 0.63190 0.47027 1.16204
 C263 C 0.88965 0.41828 1.11209
 C264 C 0.91681 0.47032 1.12441
 C265 C 0.89659 0.44911 1.15330
 C266 C 0.86994 0.39734 1.14141
 C267 C 0.84488 0.42371 1.10723
 C268 C 0.82477 0.40256 1.13614
 C269 C 0.87156 0.47550 1.11912
 C270 C 0.85184 0.45452 1.14840
 C271 C 0.92468 0.46299 1.17920
 C272 C 0.94745 0.47430 1.20063
 C273 C 0.81489 0.40909 1.08202
 C274 C 0.78899 0.39661 1.06178
 H275 H 0.90488 0.40324 1.09687
 H276 H 0.95501 0.49836 1.11992
 H277 H 0.86957 0.36535 1.15087
 H278 H 0.78660 0.37453 1.14070
 H279 H 0.87192 0.50748 1.10966
 H280 H 0.83659 0.46956 1.16361
 C281 C 0.60337 0.12934 1.11895
 C282 C 0.60091 0.14870 1.14812
 C283 C 0.55103 0.10321 1.15268
 C284 C 0.55322 0.08335 1.12390
 C285 C 0.57750 0.15492 1.10668
 C286 C 0.52759 0.10941 1.11120
 C287 C 0.57526 0.17467 1.13549
 C288 C 0.52515 0.12876 1.14042
 C289 C 0.53682 0.07517 1.17856
 C290 C 0.52544 0.05249 1.19999
 C291 C 0.59304 0.18497 1.08154
 C292 C 0.60665 0.21095 1.06138
 H293 H 0.63568 0.12989 1.10983
 H294 H 0.63089 0.16456 1.16359
 H295 H 0.54397 0.04543 1.11947
 H296 H 0.49763 0.09358 1.09573
 H297 H 0.58448 0.21255 1.13999
 H298 H 0.49285 0.12821 1.14954
 C299 C 0.47199 0.58287 1.11069
 C300 C 0.47402 0.60427 1.13997
 C301 C 0.44820 0.55261 1.15201
 C302 C 0.44642 0.53095 1.12315
 C303 C 0.42203 0.57814 1.10600
 C304 C 0.39623 0.52647 1.11804
 C305 C 0.42386 0.59975 1.13488
 C306 C 0.39827 0.54790 1.14729
 C307 C 0.46224 0.53865 1.17789
 C308 C 0.47348 0.52726 1.19934
 C309 C 0.40664 0.59278 1.08086
 C310 C 0.39311 0.60523 1.06069
 H311 H 0.50212 0.59738 1.09534
 H312 H 0.50615 0.63609 1.14929
 H313 H 0.45589 0.50249 1.11867
 H314 H 0.36409 0.49465 1.10873
 H315 H 0.41443 0.62821 1.13944
 H316 H 0.36813 0.53339 1.16262
 C317 C 0.17475 0.59880 1.13516
 C318 C 0.12999 0.60454 1.14075
 C319 C 0.10272 0.55236 1.15200
 C320 C 0.14706 0.54641 1.14677
 C321 C 0.15460 0.57887 1.10604
 C322 C 0.12731 0.52667 1.11727
 C323 C 0.11023 0.58483 1.11124
 C324 C 0.08245 0.53236 1.12290
 C325 C 0.07455 0.53804 1.17784
 C326 C 0.05175 0.52652 1.19924
 C327 C 0.18469 0.59438 1.08090
 C328 C 0.21066 0.60790 1.06072
 H329 H 0.21303 0.62630 1.13994
 H330 H 0.13080 0.63640 1.15070
 H331 H 0.16192 0.53048 1.16165
 H332 H 0.12652 0.49482 1.10732
 H333 H 0.09539 0.60076 1.09635
 H334 H 0.04414 0.50486 1.11819
 C335 C 0.42272 0.82526 1.13518
 C336 C 0.47319 0.87018 1.14093
 C337 C 0.44796 0.89690 1.15241
 C338 C 0.39769 0.85239 1.14702
 C339 C 0.42282 0.84572 1.10619
 C340 C 0.39757 0.87245 1.11766
 C341 C 0.47311 0.89024 1.11156
 C342 C 0.44811 0.91747 1.12345
 C343 C 0.46170 0.92468 1.17839
 C344 C 0.47291 0.94722 1.19989
 C345 C 0.40835 0.81594 1.08092
 C346 C 0.39598 0.79014 1.06067
 H347 H 0.41212 0.78702 1.13973
 H348 H 0.50442 0.86953 1.15080
 H349 H 0.36684 0.83712 1.16189
 H350 H 0.36634 0.87307 1.10779
 H351 H 0.50395 0.90550 1.09668
 H352 H 0.45873 0.95574 1.11898
 C353 C 0.52670 0.41433 0.61131
 C354 C 0.52771 0.39559 0.64094
 C355 C 0.55183 0.44798 0.65181
 C356 C 0.55059 0.46700 0.62260
 C357 C 0.57752 0.42157 0.60598
 C358 C 0.60165 0.47398 0.61683
 C359 C 0.57872 0.40261 0.63521
 C360 C 0.60262 0.45521 0.64645
 C361 C 0.53782 0.46222 0.67760
 C362 C 0.52645 0.47366 0.69898
 C363 C 0.59227 0.40609 0.58091
 C364 C 0.60479 0.39256 0.56078
 H365 H 0.49566 0.39738 0.59658
 H366 H 0.49717 0.36352 0.65114
 H367 H 0.53885 0.49364 0.61775
 H368 H 0.63220 0.50603 0.60663
 H369 H 0.59043 0.37597 0.64014
 H370 H 0.63368 0.47215 0.66118
 C371 C 0.60190 0.12497 0.61689
 C372 C 0.60392 0.14525 0.64647
 C373 C 0.55258 0.10262 0.65206
 C374 C 0.55028 0.08183 0.62287
 C375 C 0.57907 0.15443 0.60609
 C376 C 0.52770 0.11179 0.61164
 C377 C 0.58132 0.17512 0.63530
 C378 C 0.52976 0.13207 0.64125
 C379 C 0.53826 0.07450 0.67792
 C380 C 0.52671 0.05174 0.69933
 C381 C 0.59454 0.18449 0.58094
 C382 C 0.60800 0.21044 0.56076
 H383 H 0.63171 0.12236 0.60658
 H384 H 0.63510 0.15872 0.66108
 H385 H 0.53734 0.04311 0.61810
 H386 H 0.49654 0.09834 0.59703
 H387 H 0.59425 0.21381 0.64015
 H388 H 0.49995 0.13469 0.65157
 C389 C 0.87325 0.39792 0.61733
 C390 C 0.91805 0.44859 0.62314
 C391 C 0.89749 0.44809 0.65215
 C392 C 0.85322 0.39769 0.64674
 C393 C 0.84606 0.42280 0.60600
 C394 C 0.82563 0.42236 0.63504
 C395 C 0.89036 0.47323 0.61138
 C396 C 0.87032 0.47297 0.64081
 C397 C 0.92541 0.46192 0.67809
 C398 C 0.94807 0.47323 0.69955
 C399 C 0.81614 0.40825 0.58078
 C400 C 0.79022 0.39583 0.56056
 H401 H 0.87415 0.36692 0.60737
 H402 H 0.95641 0.45956 0.61859
 H403 H 0.83824 0.36680 0.66157
 H404 H 0.78730 0.41142 0.63966
 H405 H 0.90532 0.50411 0.59654
 H406 H 0.86941 0.50396 0.65076
 C407 C 0.47138 0.58153 0.61028
 C408 C 0.47287 0.60259 0.63959
 C409 C 0.44769 0.55087 0.65153
 C410 C 0.44644 0.52955 0.62264
 C411 C 0.42109 0.57598 0.60552
 C412 C 0.39591 0.52425 0.61746
 C413 C 0.42238 0.59724 0.63444
 C414 C 0.39743 0.54534 0.64674
 C415 C 0.46204 0.53717 0.67741
 C416 C 0.47355 0.52603 0.69886
 C417 C 0.40555 0.59047 0.58037
 C418 C 0.39203 0.60289 0.56018
 H419 H 0.50160 0.59654 0.59499
 H420 H 0.50466 0.63464 0.64899
 H421 H 0.45651 0.50154 0.61813
 H422 H 0.36411 0.49219 0.60807
 H423 H 0.41233 0.62525 0.63903
 H424 H 0.36718 0.53033 0.66201
 C425 C 0.47197 0.89025 0.61037
 C426 C 0.44538 0.91533 0.62306
 C427 C 0.44809 0.89573 0.65183
 C428 C 0.47491 0.87116 0.63956
 C429 C 0.42258 0.84409 0.60577
 C430 C 0.42533 0.82460 0.63457
 C431 C 0.39576 0.86867 0.61803
 C432 C 0.39873 0.84959 0.64721
 C433 C 0.46203 0.92373 0.67775
 C434 C 0.47339 0.94638 0.69921
 C435 C 0.40792 0.81409 0.58058
 C436 C 0.39542 0.78816 0.56037
 H437 H 0.50191 0.90666 0.59493
 H438 H 0.45381 0.95300 0.61866
 H439 H 0.50759 0.87247 0.64871
 H440 H 0.41694 0.78696 0.63904
 H441 H 0.36307 0.86734 0.60888
 H442 H 0.36877 0.83316 0.66264
 C443 C 0.12985 0.60349 0.61829
 C444 C 0.08342 0.55373 0.62332
 C445 C 0.10352 0.55099 0.65194
 C446 C 0.14945 0.60049 0.64730
 C447 C 0.15454 0.57702 0.60569
 C448 C 0.17454 0.57424 0.63433
 C449 C 0.10860 0.52749 0.61028
 C450 C 0.12819 0.52451 0.63933
 C451 C 0.07584 0.53702 0.67794
 C452 C 0.05339 0.52580 0.69944
 C453 C 0.18426 0.59235 0.58042
 C454 C 0.21004 0.60585 0.56017
 H455 H 0.13083 0.63611 0.60934
 H456 H 0.04559 0.54511 0.61914
 H457 H 0.16596 0.63034 0.66280
 H458 H 0.21233 0.58282 0.63858
 H459 H 0.09211 0.49766 0.59477
 H460 H 0.12721 0.49190 0.64829
 C461 C 0.40356 0.57953 0.86481
 C462 C 0.45595 0.60313 0.85326
 C463 C 0.44852 0.55224 0.84809
 C464 C 0.39632 0.52842 0.85928
 C465 C 0.42312 0.57885 0.89396
 C466 C 0.41567 0.52793 0.88882
 C467 C 0.47533 0.60267 0.88278
 C468 C 0.46813 0.55151 0.87722
 C469 C 0.46238 0.53790 0.82228
 C470 C 0.47366 0.52641 0.80089
 C471 C 0.40851 0.59441 0.91904
 C472 C 0.39603 0.60799 0.93917
 H473 H 0.37685 0.59121 0.85997
 H474 H 0.47264 0.63388 0.83836
 H475 H 0.36400 0.49774 0.84931
 H476 H 0.39897 0.49719 0.90374
 H477 H 0.50765 0.63335 0.89274
 H478 H 0.49486 0.53980 0.88198
 C479 C 0.12466 0.59950 0.88323
 C480 C 0.14528 0.60280 0.85360
 C481 C 0.10317 0.55140 0.84750
 C482 C 0.08204 0.54783 0.87673
 C483 C 0.15470 0.57703 0.89361
 C484 C 0.11258 0.52561 0.88753
 C485 C 0.17572 0.58056 0.86436
 C486 C 0.13320 0.52895 0.85789
 C487 C 0.07519 0.53739 0.82158
 C488 C 0.05247 0.52594 0.80013
 C489 C 0.18464 0.59177 0.91883
 C490 C 0.21055 0.60434 0.93905
 H491 H 0.12147 0.62865 0.89396
 H492 H 0.15842 0.63437 0.83935
 H493 H 0.04316 0.53420 0.88146
 H494 H 0.09946 0.49405 0.90178
 H495 H 0.21458 0.59417 0.85954
 H496 H 0.13641 0.49980 0.84717
 C497 C 0.41592 0.89002 0.88809
 C498 C 0.46833 0.91738 0.87630
 C499 C 0.44799 0.89694 0.84728
 C500 C 0.39586 0.87009 0.85866
 C501 C 0.42156 0.84552 0.89340
 C502 C 0.40129 0.82519 0.86435
 C503 C 0.47371 0.87239 0.88203
 C504 C 0.45363 0.85246 0.85261
 C505 C 0.46230 0.92488 0.82136
 C506 C 0.47387 0.94755 0.79991
 C507 C 0.40612 0.81567 0.91862
 C508 C 0.39265 0.78986 0.93887
 H509 H 0.40028 0.90516 0.90297
 H510 H 0.49607 0.95565 0.88087
 H511 H 0.36402 0.86943 0.84875
 H512 H 0.37355 0.78696 0.85970
 H513 H 0.50556 0.87304 0.89194
 H514 H 0.46926 0.83731 0.83774
 C515 C 0.58333 0.47326 0.88937
 C516 C 0.60402 0.47457 0.85999
 C517 C 0.55206 0.44875 0.84829
 C518 C 0.53109 0.44766 0.87726
 C519 C 0.57846 0.42332 0.89426
 C520 C 0.52648 0.39749 0.88258
 C521 C 0.59936 0.42445 0.86526
 C522 C 0.54720 0.39884 0.85321
 C523 C 0.53783 0.46262 0.82243
 C524 C 0.52639 0.47387 0.80100
 C525 C 0.59391 0.40872 0.91940
 C526 C 0.60738 0.39626 0.93959
 H527 H 0.59832 0.50368 0.90453
 H528 H 0.63574 0.50641 0.85040
 H529 H 0.50284 0.45739 0.88186
 H530 H 0.49477 0.36565 0.89216
 H531 H 0.62761 0.41476 0.86060
 H532 H 0.53221 0.36840 0.83806
 C533 C 0.86949 0.39511 0.88201
 C534 C 0.85068 0.39941 0.85302
 C535 C 0.89738 0.44843 0.84881
 C536 C 0.91670 0.44439 0.87742
 C537 C 0.84567 0.42228 0.89481
 C538 C 0.89238 0.47133 0.89064
 C539 C 0.82645 0.42636 0.86618
 C540 C 0.87358 0.47561 0.86161
 C541 C 0.92545 0.46251 0.82295
 C542 C 0.94819 0.47382 0.80154
 C543 C 0.81562 0.40691 0.91995
 C544 C 0.78963 0.39342 0.94011
 H545 H 0.86750 0.36186 0.89070
 H546 H 0.83384 0.37001 0.83726
 H547 H 0.95416 0.45198 0.88170
 H548 H 0.90921 0.50072 0.90641
 H549 H 0.78901 0.41879 0.86183
 H550 H 0.87557 0.50886 0.85291
 C551 C 0.59937 0.17435 0.86572
 C552 C 0.60348 0.12847 0.86089
 C553 C 0.55195 0.10278 0.84858
 C554 C 0.54766 0.14823 0.85305
 C555 C 0.57728 0.15471 0.89453
 C556 C 0.52574 0.12899 0.88223
 C557 C 0.58159 0.10924 0.89010
 C558 C 0.52980 0.08303 0.87737
 C559 C 0.53806 0.07460 0.82273
 C560 C 0.52668 0.05179 0.80133
 C561 C 0.59182 0.18486 0.91966
 C562 C 0.60421 0.21091 0.93981
 H563 H 0.62815 0.21223 0.86120
 H564 H 0.63529 0.12795 0.85181
 H565 H 0.53358 0.16397 0.83754
 H566 H 0.49393 0.12951 0.89130
 H567 H 0.59568 0.09352 0.90562
 H568 H 0.50103 0.04512 0.88182
   
