data_POSCAR
  _audit_creation_date              2014-09-24
  _audit_creation_method            'ToBaCCo'
  _symmetry_space_group_name_H-M    'P1'
  _symmetry_Int_Tables_number       1
  _symmetry_cell_setting            triclinic
  loop_
  _symmetry_equiv_pos_as_xyz
 x,y,z
_cell_length_a 25.0757
_cell_length_b 25.0757
_cell_length_c 25.1257
_cell_angle_alpha 90.123200
_cell_angle_beta 90.123300
_cell_angle_gamma 90.000000
loop_
  _atom_site_label
  _atom_site_type_symbol
  _atom_site_fract_x
  _atom_site_fract_y
  _atom_site_fract_z
O1 O 0.44920 1.04442 -0.55085
 O2 O 0.55307 1.04436 -0.44715
 O3 O 0.55302 1.04374 -0.55085
 O4 O 0.44919 1.04367 -0.44722
 O5 O 0.44928 0.95547 -0.44754
 O6 O 0.55295 0.95555 -0.55101
 O7 O 0.55316 0.95618 -0.44731
 O8 O 0.44913 0.95622 -0.55118
 Cu9 Cu 0.50113 1.05294 -0.49898
 Cu10 Cu 0.50115 0.94696 -0.49927
 C11 C 0.43163 1.00038 -0.56855
 C12 C 0.57066 1.00031 -0.42968
 C13 C 0.57044 0.99961 -0.56846
 C14 C 0.43170 0.99950 -0.42993
 O15 O -0.55379 1.44812 0.04425
 O16 O -0.45000 1.55191 0.04407
 O17 O -0.55387 1.55206 0.04346
 O18 O -0.44991 1.44810 0.04349
 O19 O -0.45025 1.44790 -0.04453
 O20 O -0.55404 1.55170 -0.04455
 O21 O -0.45017 1.55171 -0.04395
 O22 O -0.55412 1.44776 -0.04376
 Cu23 Cu -0.50190 1.50007 0.05269
 Cu24 Cu -0.50220 1.49974 -0.05308
 C25 C -0.57146 1.43036 0.00033
 C26 C -0.43251 1.56930 0.00008
 C27 C -0.57146 1.56946 -0.00060
 C28 C -0.43251 1.43051 -0.00057
 O29 O -0.04360 0.44897 0.44881
 O30 O -0.04365 0.55299 0.55270
 O31 O -0.04428 0.55279 0.44899
 O32 O -0.04435 0.44911 0.55245
 O33 O 0.04384 0.44902 0.55278
 O34 O 0.04392 0.55285 0.44915
 O35 O 0.04454 0.55290 0.55286
 O36 O 0.04460 0.44904 0.44914
 Cu37 Cu -0.05287 0.50098 0.50073
 Cu38 Cu 0.05312 0.50097 0.50102
 C39 C 0.00056 0.43147 0.43144
 C40 C 0.00049 0.57049 0.57032
 C41 C -0.00022 0.57028 0.43155
 C42 C -0.00032 0.43152 0.57006
 O43 O -0.13713 1.00162 -0.07234
 O44 O 0.13715 0.99804 -0.07202
 O45 O -0.00184 1.07192 -0.13696
 O46 O 0.00173 0.92762 -0.13710
 O47 O 0.00177 0.86269 -0.07233
 O48 O -0.00180 1.13697 -0.07203
 O49 O 0.07210 0.99798 -0.13696
 O50 O -0.07220 1.00155 -0.13711
 Zr51 Zr -0.00001 0.99981 -0.09374
 O52 O 0.04842 0.95145 -0.04847
 O53 O -0.04838 1.04826 -0.04849
 C54 C -0.12157 1.00238 -0.12160
 C55 C 0.12149 0.99719 -0.12132
 C56 C -0.00264 1.12132 -0.12133
 C57 C 0.00255 0.87825 -0.12159
 H58 H 0.07091 1.07075 -0.07080
 O59 O 0.04818 1.04802 -0.04813
 H60 H -0.07092 0.92892 -0.07110
 O61 O -0.04813 0.95170 -0.04833
 O62 O 0.13731 1.00178 0.07198
 O63 O -0.13697 0.99820 0.07172
 O64 O 0.07219 1.13706 0.00181
 O65 O 0.07219 0.86276 -0.00202
 O66 O -0.07211 0.86277 0.00140
 O67 O -0.07212 1.13705 -0.00190
 O68 O 0.00203 1.07221 0.13674
 O69 O -0.00156 0.92798 0.13660
 O70 O 0.00193 1.13714 0.07197
 O71 O -0.00165 0.86286 0.07173
 O72 O 0.13722 1.07210 0.00181
 O73 O -0.13707 1.07203 -0.00203
 O74 O -0.13707 0.92779 0.00140
 O75 O 0.13721 0.92772 -0.00188
 O76 O 0.07237 1.00187 0.13674
 O77 O -0.07186 0.99828 0.13659
 Zr78 Zr 0.09386 0.99991 -0.00007
 Zr79 Zr -0.09369 0.99991 -0.00027
 Zr80 Zr 0.00006 1.09368 -0.00008
 Zr81 Zr 0.00006 0.90614 -0.00026
 Zr82 Zr 0.00020 1.00003 0.09336
 O83 O -0.04828 0.95157 0.04803
 O84 O 0.04855 1.04839 0.04822
 C85 C 0.12174 1.00264 0.12124
 C86 C -0.12127 0.99744 0.12101
 C87 C 0.12159 1.12148 0.00264
 C88 C 0.12158 0.87834 -0.00275
 C89 C -0.12149 0.87841 0.00218
 C90 C -0.12150 1.12142 -0.00277
 C91 C 0.00280 1.12158 0.12123
 C92 C -0.00240 0.87857 0.12102
 H93 H -0.07077 1.07092 0.07060
 O94 O -0.04804 1.04813 0.04788
 H95 H 0.07107 0.92907 0.07060
 O96 O 0.04829 0.95181 0.04787
 C97 C 0.18909 1.00377 0.25671
 C98 C 0.24300 1.00343 0.24251
 C99 C 0.25736 1.00350 0.18873
 C100 C 0.21799 1.00361 0.14925
 C101 C 0.39121 1.00062 0.39099
 C102 C 0.14962 1.00388 0.21734
 C103 C 0.28356 1.00267 0.28311
 C104 C 0.31752 1.00194 0.31712
 C105 C 0.35726 1.00113 0.35697
 C106 C 0.16358 1.00362 0.16306
 H107 H 0.17754 1.00375 0.29824
 H108 H 0.29900 1.00327 0.17730
 H109 H 0.23026 1.00344 0.10796
 H110 H 0.10822 1.00394 0.22951
 C111 C -0.18809 0.99635 0.25645
 C112 C -0.24205 0.99673 0.24225
 C113 C -0.25664 0.99668 0.18847
 C114 C -0.21743 0.99656 0.14898
 C115 C -0.38935 0.99942 0.39102
 C116 C -0.14879 0.99623 0.21708
 C117 C -0.28242 0.99747 0.28287
 C118 C -0.31616 0.99817 0.31697
 C119 C -0.35563 0.99895 0.35692
 C120 C -0.16296 0.99651 0.16280
 H121 H -0.17636 0.99635 0.29798
 H122 H -0.29833 0.99693 0.17704
 H123 H -0.22987 0.99674 0.10768
 H124 H -0.10734 0.99615 0.22926
 C125 C -0.25720 1.00330 -0.18909
 C126 C -0.24286 1.00310 -0.24287
 C127 C -0.18895 1.00330 -0.25707
 C128 C -0.14947 1.00342 -0.21770
 C129 C -0.39108 1.00048 -0.39138
 C130 C -0.21783 1.00342 -0.14961
 C131 C -0.28343 1.00237 -0.28347
 C132 C -0.31738 1.00168 -0.31750
 C133 C -0.35713 1.00093 -0.35735
 C134 C -0.16342 1.00330 -0.16342
 H135 H -0.29884 1.00318 -0.17766
 H136 H -0.17740 1.00318 -0.29861
 H137 H -0.10807 1.00338 -0.22987
 H138 H -0.23010 1.00337 -0.10831
 C139 C 0.18881 0.99622 -0.25655
 C140 C 0.24273 0.99642 -0.24211
 C141 C 0.25708 0.99620 -0.18828
 C142 C 0.21772 0.99608 -0.14897
 C143 C 0.39122 0.99926 -0.38968
 C144 C 0.14934 0.99610 -0.21734
 C145 C 0.28332 0.99719 -0.28251
 C146 C 0.31734 0.99792 -0.31632
 C147 C 0.35719 0.99874 -0.35589
 C148 C 0.16330 0.99622 -0.16300
 H149 H 0.17726 0.99635 -0.29813
 H150 H 0.29872 0.99632 -0.17667
 H151 H 0.23001 0.99613 -0.10763
 H152 H 0.10793 0.99617 -0.22967
 C153 C 0.18870 1.25722 0.00377
 C154 C 0.24264 1.24299 0.00342
 C155 C 0.25710 1.18910 0.00349
 C156 C 0.21781 1.14954 0.00361
 C157 C 0.39040 1.39195 0.00058
 C158 C 0.14931 1.21777 0.00389
 C159 C 0.28311 1.28369 0.00265
 C160 C 0.31695 1.31782 0.00191
 C161 C 0.35656 1.35781 0.00110
 C162 C 0.16337 1.16338 0.00362
 H163 H 0.17706 1.29883 0.00375
 H164 H 0.29876 1.17764 0.00325
 H165 H 0.23016 1.10816 0.00343
 H166 H 0.10788 1.22997 0.00394
 C167 C 0.25709 0.81073 -0.00349
 C168 C 0.24263 0.75684 -0.00349
 C169 C 0.18869 0.74261 -0.00390
 C170 C 0.14930 0.78206 -0.00402
 C171 C 0.39040 0.60787 -0.00080
 C172 C 0.21780 0.85029 -0.00361
 C173 C 0.28310 0.71613 -0.00275
 C174 C 0.31695 0.68200 -0.00204
 C175 C 0.35656 0.64201 -0.00127
 C176 C 0.16336 0.83645 -0.00369
 H177 H 0.29875 0.82218 -0.00321
 H178 H 0.17705 0.70099 -0.00393
 H179 H 0.10787 0.76986 -0.00413
 H180 H 0.23015 0.89167 -0.00340
 C181 C -0.25721 0.81131 0.00317
 C182 C -0.24298 0.75737 0.00284
 C183 C -0.18909 0.74290 0.00291
 C184 C -0.14953 0.78219 0.00305
 C185 C -0.39193 0.60961 0.00023
 C186 C -0.21776 0.85070 0.00331
 C187 C -0.28367 0.71690 0.00211
 C188 C -0.31780 0.68305 0.00142
 C189 C -0.35779 0.64345 0.00067
 C190 C -0.16337 0.83663 0.00307
 H191 H -0.29882 0.82294 0.00315
 H192 H -0.17763 0.70124 0.00269
 H193 H -0.10815 0.76984 0.00290
 H194 H -0.22996 0.89212 0.00337
 C195 C -0.25722 1.18852 -0.00392
 C196 C -0.24298 1.24246 -0.00351
 C197 C -0.18909 1.25692 -0.00352
 C198 C -0.14953 1.21763 -0.00364
 C199 C -0.39193 1.39020 -0.00078
 C200 C -0.21777 1.14913 -0.00404
 C201 C -0.28367 1.28293 -0.00277
 C202 C -0.31780 1.31677 -0.00205
 C203 C -0.35779 1.35637 -0.00126
 C204 C -0.16338 1.16319 -0.00372
 H205 H -0.29883 1.17688 -0.00396
 H206 H -0.17764 1.29859 -0.00324
 H207 H -0.10815 1.22998 -0.00342
 H208 H -0.22997 1.10771 -0.00415
 C209 C 0.00392 1.18894 0.25670
 C210 C 0.00360 1.24285 0.24249
 C211 C 0.00369 1.25720 0.18871
 C212 C 0.00380 1.21783 0.14923
 C213 C 0.00079 1.39105 0.39097
 C214 C 0.00403 1.14947 0.21733
 C215 C 0.00284 1.28342 0.28308
 C216 C 0.00211 1.31737 0.31710
 C217 C 0.00130 1.35711 0.35695
 C218 C 0.00378 1.16342 0.16305
 H219 H 0.00388 1.17740 0.29823
 H220 H 0.00348 1.29884 0.17728
 H221 H 0.00365 1.23010 0.10794
 H222 H 0.00405 1.10807 0.22950
 C223 C -0.00360 1.18863 -0.25656
 C224 C -0.00341 1.24254 -0.24213
 C225 C -0.00363 1.25690 -0.18830
 C226 C -0.00376 1.21754 -0.14898
 C227 C -0.00056 1.39104 -0.38970
 C228 C -0.00372 1.14916 -0.21735
 C229 C -0.00264 1.28313 -0.28253
 C230 C -0.00190 1.31716 -0.31633
 C231 C -0.00108 1.35701 -0.35590
 C232 C -0.00361 1.16312 -0.16301
 H233 H -0.00346 1.17708 -0.29814
 H234 H -0.00352 1.29854 -0.17669
 H235 H -0.00371 1.22983 -0.10764
 H236 H -0.00365 1.10775 -0.22968
 C237 C 0.00348 0.81087 -0.25706
 C238 C 0.00327 0.75696 -0.24285
 C239 C 0.00346 0.74261 -0.18908
 C240 C 0.00358 0.78199 -0.14959
 C241 C 0.00066 0.60874 -0.39137
 C242 C 0.00360 0.85035 -0.21769
 C243 C 0.00254 0.71639 -0.28346
 C244 C 0.00186 0.68243 -0.31748
 C245 C 0.00111 0.64269 -0.35734
 C246 C 0.00347 0.83640 -0.16341
 H247 H 0.00337 0.82242 -0.29859
 H248 H 0.00333 0.70098 -0.17764
 H249 H 0.00352 0.76972 -0.10830
 H250 H 0.00356 0.89175 -0.22986
 C251 C -0.00313 0.74321 0.18849
 C252 C -0.00310 0.75780 0.24227
 C253 C -0.00350 0.81177 0.25646
 C254 C -0.00363 0.85106 0.21709
 C255 C -0.00040 0.61050 0.39104
 C256 C -0.00325 0.78241 0.14900
 C257 C -0.00236 0.71743 0.28290
 C258 C -0.00165 0.68370 0.31699
 C259 C -0.00088 0.64423 0.35694
 C260 C -0.00332 0.83688 0.16281
 H261 H -0.00285 0.70152 0.17706
 H262 H -0.00353 0.82350 0.29799
 H263 H -0.00373 0.89251 0.22927
 H264 H -0.00305 0.76997 0.10770
   
