data_POSCAR
  _audit_creation_date              2014-09-24
  _audit_creation_method            'ToBaCCo'
  _symmetry_space_group_name_H-M    'P1'
  _symmetry_Int_Tables_number       1
  _symmetry_cell_setting            triclinic
  loop_
  _symmetry_equiv_pos_as_xyz
 x,y,z
_cell_length_a 29.0719
_cell_length_b 29.1394
_cell_length_c 29.0091
_cell_angle_alpha 89.919900
_cell_angle_beta 89.981900
_cell_angle_gamma 90.025100
loop_
  _atom_site_label
  _atom_site_type_symbol
  _atom_site_fract_x
  _atom_site_fract_y
  _atom_site_fract_z
N1 N 0.54940 0.09311 0.02188
 N2 N 0.58251 0.11987 0.03758
 N3 N 0.45259 0.09262 -0.02311
 N4 N 0.41944 0.11904 -0.03933
 N5 N 0.45266 0.09297 0.02218
 N6 N 0.41956 0.11965 0.03804
 N7 N 0.54934 0.09268 -0.02339
 N8 N 0.58240 0.11915 -0.03979
 C9 C 0.60286 0.13548 -0.00132
 C10 C 0.39907 0.13526 -0.00076
 N11 N 0.45246 -0.02300 -0.09212
 N12 N 0.41921 -0.03922 -0.11847
 N13 N 0.54921 0.02210 -0.09298
 N14 N 0.58184 0.03784 -0.12050
 N15 N 0.54924 -0.02295 -0.09220
 N16 N 0.58391 -0.03958 -0.12084
 N17 N 0.45246 0.02207 -0.09261
 N18 N 0.41923 0.03780 -0.11929
 Mn19 Mn 0.50091 0.05772 -0.05838
 C20 C 0.39872 -0.00085 -0.13479
 C21 C 0.60283 -0.00027 -0.13688
 N22 N 0.45289 0.02364 0.09318
 N23 N 0.41968 0.03976 0.11966
 N24 N 0.54970 -0.02124 0.09347
 N25 N 0.58235 -0.03695 0.12094
 N26 N 0.54969 0.02380 0.09270
 N27 N 0.58437 0.04047 0.12133
 N28 N 0.45297 -0.02144 0.09364
 N29 N 0.41983 -0.03727 0.12042
 Mn30 Mn 0.50114 0.05874 0.05786
 C31 C 0.39931 0.00132 0.13603
 C32 C 0.60333 0.00118 0.13732
 N33 N 0.54941 -0.09221 -0.02141
 N34 N 0.58253 -0.11882 -0.03733
 N35 N 0.45284 -0.09198 0.02413
 N36 N 0.41981 -0.11850 0.04052
 N37 N 0.45268 -0.09231 -0.02115
 N38 N 0.41956 -0.11905 -0.03685
 N39 N 0.54960 -0.09181 0.02387
 N40 N 0.58284 -0.11815 0.04004
 Mn41 Mn 0.50093 -0.05797 -0.05709
 Mn42 Mn 0.50128 -0.05697 0.05913
 Cl43 Cl 0.50105 0.00038 0.00039
 C44 C 0.60315 -0.13435 0.00142
 C45 C 0.39928 -0.13474 0.00204
 N46 N 0.09338 0.45154 0.02192
 N47 N 0.11984 0.41827 0.03779
 N48 N 0.09403 0.54849 -0.02252
 N49 N 0.12072 0.58170 -0.03818
 N50 N 0.09383 0.54806 0.02276
 N51 N 0.12039 0.58095 0.03919
 N52 N 0.09356 0.45197 -0.02336
 N53 N 0.12015 0.41901 -0.03958
 C54 C 0.13589 0.39821 -0.00100
 C55 C 0.13654 0.60169 0.00074
 N56 N -0.02092 0.54973 -0.09334
 N57 N -0.03669 0.58253 -0.12056
 N58 N 0.02373 0.45300 -0.09389
 N59 N 0.03967 0.41987 -0.12048
 N60 N -0.02145 0.45322 -0.09406
 N61 N -0.03754 0.42028 -0.12077
 N62 N 0.02424 0.54957 -0.09288
 N63 N 0.04091 0.58429 -0.12146
 Mn64 Mn 0.05924 0.50074 -0.05854
 C65 C 0.00151 0.60345 -0.13709
 C66 C 0.00100 0.39973 -0.13664
 N67 N 0.02343 0.54769 0.09272
 N68 N 0.03945 0.58056 0.11958
 N69 N -0.02220 0.45136 0.09170
 N70 N -0.03847 0.41818 0.11813
 N71 N 0.02299 0.45117 0.09188
 N72 N 0.03873 0.41787 0.11843
 N73 N -0.02175 0.54787 0.09251
 N74 N -0.03776 0.58086 0.11921
 Mn75 Mn 0.05876 0.49961 0.05768
 C76 C 0.00085 0.60100 0.13547
 C77 C -0.00003 0.39752 0.13415
 N78 N -0.09182 0.45285 -0.02411
 N79 N -0.11841 0.41996 -0.04052
 N80 N -0.09151 0.54888 0.02200
 N81 N -0.11804 0.58187 0.03825
 N82 N -0.09131 0.54938 -0.02328
 N83 N -0.11771 0.58271 -0.03912
 N84 N -0.09197 0.45238 0.02117
 N85 N -0.11865 0.41917 0.03685
 Mn86 Mn -0.05673 0.50131 -0.05905
 Mn87 Mn -0.05722 0.50011 0.05720
 Cl88 Cl 0.00102 0.50044 -0.00067
 C89 C -0.13452 0.39920 -0.00206
 C90 C -0.13374 0.60274 -0.00030
 N91 N 0.02152 0.09168 0.45166
 N92 N 0.03762 0.11819 0.41842
 N93 N -0.02379 0.09195 0.54855
 N94 N -0.03980 0.11877 0.58151
 N95 N 0.02139 0.09187 0.54861
 N96 N 0.03741 0.11862 0.58160
 N97 N -0.02366 0.09169 0.45159
 N98 N -0.03959 0.11822 0.41830
 C99 C -0.00094 0.13410 0.39784
 C100 C -0.00118 0.13475 0.60191
 N101 N -0.09405 -0.02301 0.54891
 N102 N -0.12086 -0.03883 0.58208
 N103 N -0.09386 0.02181 0.45177
 N104 N -0.12056 0.03771 0.41859
 N105 N -0.09392 -0.02327 0.45196
 N106 N -0.12066 -0.03932 0.41891
 N107 N -0.09397 0.02207 0.54871
 N108 N -0.12071 0.03820 0.58172
 Mn109 Mn -0.05917 0.05723 0.50015
 C110 C -0.13683 -0.00022 0.60231
 C111 C -0.13662 -0.00085 0.39832
 N112 N 0.09139 0.02187 0.54895
 N113 N 0.11809 0.03787 0.58205
 N114 N 0.09149 -0.02336 0.45212
 N115 N 0.11827 -0.03936 0.41907
 N116 N 0.09152 0.02172 0.45200
 N117 N 0.11830 0.03766 0.41888
 N118 N 0.09134 -0.02320 0.54908
 N119 N 0.11799 -0.03916 0.58227
 Mn120 Mn 0.05681 0.05714 0.50031
 C121 C 0.13402 -0.00063 0.60261
 C122 C 0.13433 -0.00086 0.39856
 N123 N -0.02389 -0.09325 0.45227
 N124 N -0.03987 -0.11990 0.41915
 N125 N 0.02116 -0.09309 0.54924
 N126 N 0.03711 -0.11983 0.58236
 N127 N -0.02402 -0.09304 0.54923
 N128 N -0.04010 -0.11976 0.58232
 N129 N 0.02129 -0.09324 0.45230
 N130 N 0.03734 -0.11987 0.41922
 Mn131 Mn -0.05933 -0.05850 0.50060
 Mn132 Mn 0.05667 -0.05858 0.50068
 Cl133 Cl -0.00126 -0.00068 0.50044
 C134 C -0.00123 -0.13586 0.39877
 C135 C -0.00154 -0.13580 0.60278
 C136 C -0.23214 0.25565 0.03236
 C137 C -0.28443 0.26431 0.03788
 C138 C -0.29358 0.23121 -0.00226
 C139 C -0.24185 0.22196 -0.00780
 C140 C -0.22983 0.29529 -0.00255
 C141 C -0.23896 0.26220 -0.04271
 C142 C -0.28158 0.30446 0.00298
 C143 C -0.29124 0.27086 -0.03716
 C144 C -0.32977 0.19622 -0.00201
 C145 C -0.36019 0.16813 -0.00172
 C146 C -0.19502 0.33164 -0.00257
 C147 C -0.16706 0.36217 -0.00243
 H148 H -0.20744 0.24981 0.06094
 H149 H -0.30352 0.26480 0.07102
 H150 H -0.22593 0.18763 -0.01224
 H151 H -0.21986 0.26175 -0.07585
 H152 H -0.29755 0.33877 0.00742
 H153 H -0.31594 0.27673 -0.06574
 C154 C 0.23973 0.74017 -0.03733
 C155 C 0.24381 0.77903 -0.00111
 C156 C 0.29568 0.76958 0.00236
 C157 C 0.29215 0.73131 -0.03385
 C158 C 0.23189 0.70555 0.00188
 C159 C 0.28378 0.69618 0.00534
 C160 C 0.23538 0.74380 0.03811
 C161 C 0.28782 0.73495 0.04156
 C162 C 0.33189 0.80455 0.00247
 C163 C 0.36233 0.83262 0.00238
 C164 C 0.19706 0.66922 0.00153
 C165 C 0.16908 0.63871 0.00119
 H166 H 0.21956 0.74191 -0.06977
 H167 H 0.22779 0.81351 -0.00375
 H168 H 0.31589 0.72655 -0.06344
 H169 H 0.29985 0.66172 0.00799
 H170 H 0.21163 0.74852 0.06770
 H171 H 0.30798 0.73319 0.07400
 C172 C 0.26268 0.28357 -0.04245
 C173 C 0.30440 0.28194 -0.00932
 C174 C 0.29525 0.23063 -0.00120
 C175 C 0.25405 0.23170 -0.03434
 C176 C 0.23132 0.29448 -0.00127
 C177 C 0.22210 0.24319 0.00687
 C178 C 0.27254 0.29337 0.03186
 C179 C 0.26390 0.24153 0.04000
 C180 C 0.33153 0.19577 -0.00110
 C181 C 0.36203 0.16779 -0.00097
 C182 C 0.19643 0.33074 -0.00124
 C183 C 0.16843 0.36121 -0.00117
 H184 H 0.26180 0.30125 -0.07636
 H185 H 0.33862 0.29751 -0.01598
 H186 H 0.24686 0.20594 -0.06156
 H187 H 0.18785 0.22767 0.01352
 H188 H 0.27977 0.31911 0.05908
 H189 H 0.26480 0.22384 0.07391
 C190 C -0.23226 0.74583 -0.03464
 C191 C -0.28464 0.73694 -0.03882
 C192 C -0.29295 0.77039 0.00121
 C193 C -0.24114 0.77988 0.00542
 C194 C -0.22904 0.70654 0.00059
 C195 C -0.23733 0.73998 0.04064
 C196 C -0.28088 0.69714 -0.00362
 C197 C -0.28970 0.73109 0.03641
 C198 C -0.32925 0.80523 0.00146
 C199 C -0.35978 0.83318 0.00153
 C200 C -0.19418 0.67028 0.00023
 C201 C -0.16622 0.63978 -0.00004
 H202 H -0.20824 0.75148 -0.06385
 H203 H -0.30449 0.73607 -0.07150
 H204 H -0.22522 0.81431 0.00915
 H205 H -0.21748 0.74082 0.07330
 H206 H -0.29685 0.66273 -0.00735
 H207 H -0.31372 0.72541 0.06563
 C208 C -0.02304 -0.22651 0.24737
 C209 C 0.02080 -0.24717 0.22513
 C210 C 0.00022 -0.29539 0.23113
 C211 C -0.04359 -0.27531 0.25279
 C212 C -0.00054 -0.23146 0.29504
 C213 C -0.02111 -0.27968 0.30098
 C214 C 0.04327 -0.25153 0.27338
 C215 C 0.02269 -0.30027 0.27881
 C216 C 0.00059 -0.33164 0.19621
 C217 C 0.00079 -0.36208 0.16815
 C218 C -0.00092 -0.19653 0.33131
 C219 C -0.00114 -0.16848 0.36178
 H220 H -0.04185 -0.19578 0.23487
 H221 H 0.03805 -0.23423 0.19353
 H222 H -0.07931 -0.28549 0.24392
 H223 H -0.03835 -0.29268 0.33256
 H224 H 0.07899 -0.24135 0.28225
 H225 H 0.04151 -0.33098 0.29136
 C226 C 0.00092 0.28280 0.69477
 C227 C -0.03713 0.29033 0.73133
 C228 C 0.00025 0.29548 0.76839
 C229 C 0.03830 0.28847 0.73233
 C230 C -0.00053 0.23107 0.70497
 C231 C 0.03686 0.23619 0.74203
 C232 C -0.03861 0.23805 0.74102
 C233 C -0.00121 0.24376 0.77867
 C234 C 0.00064 0.33199 0.80305
 C235 C 0.00087 0.36262 0.83091
 C236 C -0.00091 0.19587 0.66896
 C237 C -0.00111 0.16761 0.63869
 H238 H 0.00178 0.29848 0.65988
 H239 H -0.06755 0.31299 0.72730
 H240 H 0.06993 0.30959 0.72913
 H241 H 0.06728 0.21351 0.74602
 H242 H -0.07023 0.21692 0.74419
 H243 H -0.00207 0.22813 0.81358
 C244 C -0.03802 0.26653 0.28843
 C245 C 0.00015 0.30300 0.28173
 C246 C -0.00059 0.29352 0.22965
 C247 C -0.03878 0.25756 0.23580
 C248 C -0.00073 0.22955 0.29371
 C249 C -0.00148 0.21998 0.24164
 C250 C 0.03743 0.26552 0.28752
 C251 C 0.03671 0.25655 0.23490
 C252 C -0.00047 0.32985 0.19471
 C253 C -0.00031 0.36040 0.16669
 C254 C -0.00080 0.19464 0.33009
 C255 C -0.00085 0.16664 0.36068
 H256 H -0.06875 0.27025 0.31084
 H257 H 0.00081 0.33753 0.29785
 H258 H -0.07011 0.25469 0.21414
 H259 H -0.00214 0.18543 0.22558
 H260 H 0.06877 0.26841 0.30918
 H261 H 0.06744 0.25285 0.21248
 C262 C -0.00112 -0.28374 0.69636
 C263 C 0.03679 -0.29001 0.73330
 C264 C -0.00076 -0.29622 0.77007
 C265 C -0.03867 -0.29047 0.73364
 C266 C -0.00137 -0.23196 0.70629
 C267 C -0.03894 -0.23814 0.74304
 C268 C 0.03656 -0.23769 0.74272
 C269 C -0.00100 -0.24445 0.78007
 C270 C -0.00020 -0.33261 0.80496
 C271 C 0.00051 -0.36311 0.83305
 C272 C -0.00156 -0.19684 0.67011
 C273 C -0.00160 -0.16862 0.63970
 H274 H -0.00117 -0.29953 0.66156
 H275 H 0.06794 -0.31173 0.72967
 H276 H -0.06960 -0.31257 0.73028
 H277 H -0.07008 -0.21640 0.74664
 H278 H 0.06749 -0.21559 0.74605
 H279 H -0.00095 -0.22872 0.81490
 C280 C 0.28181 -0.00491 0.69645
 C281 C 0.29084 0.03448 0.73104
 C282 C 0.29435 -0.00111 0.77002
 C283 C 0.28583 -0.04050 0.73592
 C284 C 0.23004 -0.00086 0.70626
 C285 C 0.23350 -0.03646 0.74522
 C286 C 0.23853 0.03855 0.74035
 C287 C 0.24259 0.00295 0.77991
 C288 C 0.33085 -0.00117 0.80482
 C289 C 0.36151 -0.00110 0.83274
 C290 C 0.19493 -0.00072 0.67006
 C291 C 0.16676 -0.00064 0.63961
 H292 H 0.29757 -0.00814 0.66174
 H293 H 0.31482 0.06365 0.72559
 H294 H 0.30567 -0.07300 0.73448
 H295 H 0.20951 -0.06562 0.75064
 H296 H 0.21868 0.07105 0.74177
 H297 H 0.22689 0.00618 0.81464
 C298 C -0.26968 0.03619 0.28953
 C299 C -0.26064 0.03735 0.23692
 C300 C -0.29664 -0.00074 0.23057
 C301 C -0.30619 -0.00188 0.28265
 C302 C -0.23256 -0.00099 0.29457
 C303 C -0.26857 -0.03907 0.28820
 C304 C -0.22294 0.00015 0.24250
 C305 C -0.25953 -0.03795 0.23556
 C306 C -0.33292 -0.00037 0.19554
 C307 C -0.36333 0.00023 0.16732
 C308 C -0.19753 -0.00100 0.33086
 C309 C -0.16938 -0.00094 0.36133
 H310 H -0.27348 0.06669 0.31211
 H311 H -0.25779 0.06878 0.21543
 H312 H -0.34081 -0.00271 0.29879
 H313 H -0.27144 -0.07050 0.30968
 H314 H -0.18830 0.00099 0.22641
 H315 H -0.25578 -0.06843 0.21296
 C316 C 0.27837 -0.02190 0.30058
 C317 C 0.27368 -0.04295 0.25182
 C318 C 0.29496 0.00083 0.23132
 C319 C 0.30017 0.02187 0.27957
 C320 C 0.23057 -0.00011 0.29504
 C321 C 0.25185 0.04367 0.27455
 C322 C 0.22530 -0.02118 0.24681
 C323 C 0.24717 0.02263 0.22573
 C324 C 0.33147 0.00125 0.19652
 C325 C 0.36213 0.00141 0.16856
 C326 C 0.19541 -0.00057 0.33122
 C327 C 0.16717 -0.00081 0.36163
 H328 H 0.29083 -0.04022 0.33174
 H329 H 0.28306 -0.07857 0.24208
 H330 H 0.33134 0.03959 0.29267
 H331 H 0.24248 0.07929 0.28429
 H332 H 0.19411 -0.03889 0.23376
 H333 H 0.23476 0.04095 0.19455
 C334 C -0.28483 0.00028 0.69619
 C335 C -0.29101 -0.03692 0.73384
 C336 C -0.29705 0.00116 0.76992
 C337 C -0.29139 0.03836 0.73277
 C338 C -0.23290 0.00067 0.70597
 C339 C -0.23890 0.03877 0.74203
 C340 C -0.23854 -0.03655 0.74311
 C341 C -0.24513 0.00155 0.77977
 C342 C -0.33338 0.00111 0.80492
 C343 C -0.36381 0.00066 0.83312
 C344 C -0.19782 0.00030 0.66972
 C345 C -0.16963 0.00001 0.63927
 H346 H -0.30079 -0.00026 0.66143
 H347 H -0.31283 -0.06804 0.73085
 H348 H -0.31352 0.06917 0.72891
 H349 H -0.21706 0.06989 0.74499
 H350 H -0.21641 -0.06735 0.74696
 H351 H -0.22923 0.00209 0.81455
   
