data_POSCAR
  _audit_creation_date              2014-09-24
  _audit_creation_method            'ToBaCCo'
  _symmetry_space_group_name_H-M    'P1'
  _symmetry_Int_Tables_number       1
  _symmetry_cell_setting            triclinic
  loop_
  _symmetry_equiv_pos_as_xyz
 x,y,z
_cell_length_a 37.3083
_cell_length_b 49.5291
_cell_length_c 43.2708
_cell_angle_alpha 89.647600
_cell_angle_beta 88.929100
_cell_angle_gamma 90.694300
loop_
  _atom_site_label
  _atom_site_type_symbol
  _atom_site_fract_x
  _atom_site_fract_y
  _atom_site_fract_z
C1 C 1.24365 0.27025 0.31580
 H2 H 1.26624 0.25845 0.32304
 C3 C 1.23097 0.29086 0.33470
 H4 H 1.24352 0.29419 0.35672
 C5 C 1.20029 0.28018 0.27826
 H6 H 1.18858 0.27619 0.25613
 C7 C 1.18705 0.30134 0.29629
 H8 H 1.16560 0.31355 0.28750
 N9 N 1.22853 0.26542 0.28801
 C10 C 1.21042 0.19646 0.23643
 H11 H 1.22127 0.18409 0.25454
 C12 C 1.18924 0.18441 0.21393
 H13 H 1.18428 0.16285 0.21507
 C14 C 1.20625 0.23897 0.21150
 H15 H 1.21408 0.26004 0.21004
 C16 C 1.18474 0.22781 0.18869
 H17 H 1.17530 0.24074 0.17038
 Zn18 Zn 1.25131 0.23918 0.26268
 N19 N 1.21858 0.22329 0.23482
 C20 C 1.24682 0.20121 0.30996
 N21 N 1.27022 0.21221 0.28897
 C22 C 1.30514 0.20477 0.28806
 C23 C 1.31773 0.18552 0.30899
 C24 C 1.25813 0.18221 0.33142
 C25 C 1.30481 0.24221 0.21596
 C26 C 1.32723 0.25537 0.19428
 C27 C 1.31522 0.29757 0.21992
 C28 C 1.29317 0.28359 0.24117
 N29 N 1.28774 0.25651 0.23842
 H30 H 1.21907 0.20733 0.31002
 H31 H 1.32350 0.21407 0.27145
 H32 H 1.34606 0.18130 0.30798
 H33 H 1.23759 0.17344 0.34639
 H34 H 1.29974 0.22073 0.21407
 H35 H 1.33988 0.24370 0.17613
 H36 H 1.31751 0.31932 0.22159
 H37 H 1.27904 0.29467 0.25895
 C38 C 1.17644 0.20006 0.18938
 C39 C 1.20289 0.30725 0.32471
 C40 C 1.33184 0.28357 0.19553
 C41 C 1.29441 0.17399 0.33190
 C42 C 0.72828 -0.23377 0.29937
 H43 H 0.74181 -0.25167 0.30699
 C44 C 0.71597 -0.21563 0.32147
 H45 H 0.71971 -0.22013 0.34572
 C46 C 0.70807 -0.20568 0.25896
 H47 H 0.70617 -0.20143 0.23451
 C48 C 0.69516 -0.18692 0.28046
 H49 H 0.68315 -0.16844 0.27238
 N50 N 0.72463 -0.22852 0.26868
 C51 C 0.72227 -0.29250 0.19955
 H52 H 0.74805 -0.30120 0.20424
 C53 C 0.69827 -0.30638 0.18084
 H54 H 0.70596 -0.32577 0.17161
 C55 C 0.68022 -0.25782 0.20811
 H56 H 0.67291 -0.23917 0.21912
 C57 C 0.65557 -0.27083 0.18912
 H58 H 0.62988 -0.26155 0.18542
 Zn59 Zn 0.74662 -0.25316 0.24036
 N60 N 0.71288 -0.26880 0.21302
 C61 C 0.74236 -0.29968 0.27636
 N62 N 0.76617 -0.28163 0.26365
 C63 C 0.80179 -0.28284 0.26961
 C64 C 0.81448 -0.30225 0.29021
 C65 C 0.75382 -0.31927 0.29703
 C66 C 0.80199 -0.24973 0.19546
 C67 C 0.82697 -0.23692 0.17573
 C68 C 0.81457 -0.19480 0.20133
 C69 C 0.79011 -0.20848 0.22080
 N70 N 0.78346 -0.23531 0.21694
 H71 H 0.71417 -0.29813 0.27130
 H72 H 0.82012 -0.26807 0.25945
 H73 H 0.84265 -0.30232 0.29579
 H74 H 0.73432 -0.33310 0.30743
 H75 H 0.79691 -0.27113 0.19321
 H76 H 0.84104 -0.24877 0.15853
 H77 H 0.81791 -0.17319 0.20382
 H78 H 0.77582 -0.19740 0.23842
 C79 C 0.66419 -0.29573 0.17555
 C80 C 0.69979 -0.19161 0.31216
 C81 C 0.83278 -0.20890 0.17788
 C82 C 0.79014 -0.32030 0.30478
 C83 C 0.70297 0.26087 -0.19277
 H84 H 0.70620 0.23930 -0.19018
 C85 C 0.68016 0.27472 -0.17253
 H86 H 0.66556 0.26361 -0.15461
 C87 C 0.71953 0.30177 -0.21822
 H88 H 0.73528 0.31231 -0.23579
 C89 C 0.69726 0.31641 -0.19839
 H90 H 0.69553 0.33808 -0.20137
 N91 N 0.72208 0.27452 -0.21505
 C92 C 0.75614 0.22401 -0.29166
 H93 H 0.78231 0.23332 -0.29489
 C94 C 0.74417 0.20541 -0.31318
 H95 H 0.76101 0.20177 -0.33330
 C96 C 0.70274 0.21853 -0.26182
 H97 H 0.68671 0.22372 -0.24173
 C98 C 0.69014 0.19891 -0.28239
 H99 H 0.66467 0.18900 -0.27743
 Zn100 Zn 0.75652 0.25607 -0.23940
 N101 N 0.73541 0.23050 -0.26671
 C102 C 0.79516 0.21127 -0.21885
 N103 N 0.78713 0.23740 -0.21261
 C104 C 0.79797 0.24941 -0.18613
 C105 C 0.81660 0.23463 -0.16411
 C106 C 0.81396 0.19588 -0.19769
 C107 C 0.76799 0.28770 -0.29143
 C108 C 0.78774 0.30173 -0.31396
 C109 C 0.83596 0.30665 -0.27785
 C110 C 0.81586 0.29099 -0.25653
 N111 N 0.78290 0.28133 -0.26404
 H112 H 0.78604 0.20196 -0.23982
 H113 H 0.79093 0.27016 -0.18161
 H114 H 0.82422 0.24420 -0.14274
 H115 H 0.81877 0.17481 -0.20259
 H116 H 0.74120 0.28059 -0.29641
 H117 H 0.77478 0.30594 -0.33560
 H118 H 0.86271 0.31295 -0.27156
 H119 H 0.82707 0.28586 -0.23443
 C120 C 0.71108 0.19194 -0.30855
 C121 C 0.67739 0.30292 -0.17503
 C122 C 0.82293 0.31090 -0.30797
 C123 C 0.82426 0.20736 -0.16961
 C124 C 1.18334 -0.22980 -0.21605
 H125 H 1.16610 -0.24195 -0.23033
 C126 C 1.16829 -0.21305 -0.19342
 H127 H 1.13945 -0.21250 -0.19026
 C128 C 1.24183 -0.21552 -0.20259
 H129 H 1.27044 -0.21591 -0.20683
 C130 C 1.22805 -0.19880 -0.17971
 H131 H 1.24631 -0.18660 -0.16634
 N132 N 1.21959 -0.23095 -0.21988
 C133 C 1.21311 -0.25464 -0.30919
 H134 H 1.23288 -0.23911 -0.31427
 C135 C 1.19259 -0.26482 -0.33313
 H136 H 1.19635 -0.25590 -0.35583
 C137 C 1.18339 -0.28364 -0.27325
 H138 H 1.17985 -0.29087 -0.24973
 C139 C 1.16366 -0.29554 -0.29687
 H140 H 1.14591 -0.31223 -0.29089
 Zn141 Zn 1.24221 -0.25334 -0.24945
 N142 N 1.20911 -0.26470 -0.28003
 C143 C 1.25215 -0.30942 -0.23544
 N144 N 1.26175 -0.28360 -0.22831
 C145 C 1.28399 -0.27847 -0.20438
 C146 C 1.29539 -0.29941 -0.18536
 C147 C 1.26220 -0.33089 -0.21654
 C148 C 1.27177 -0.20728 -0.27791
 C149 C 1.29828 -0.19065 -0.29123
 C150 C 1.34110 -0.22625 -0.28393
 C151 C 1.31360 -0.24235 -0.27095
 N152 N 1.27973 -0.23265 -0.26828
 H153 H 1.23607 -0.31352 -0.25533
 H154 H 1.29227 -0.25804 -0.19950
 H155 H 1.31205 -0.29491 -0.16577
 H156 H 1.25314 -0.35121 -0.22165
 H157 H 1.24470 -0.19996 -0.27511
 H158 H 1.29144 -0.17044 -0.29853
 H159 H 1.36790 -0.23426 -0.28612
 H160 H 1.31932 -0.26257 -0.26304
 C161 C 1.16896 -0.28681 -0.32772
 C162 C 1.19090 -0.19759 -0.17467
 C163 C 1.33347 -0.20008 -0.29438
 C164 C 1.28346 -0.32581 -0.19085
 C165 C 0.24588 0.21463 0.69456
 H166 H 0.21781 0.21904 0.69239
 C167 C 0.26190 0.19671 0.67395
 H168 H 0.24541 0.18658 0.65716
 C169 C 0.30181 0.22381 0.71749
 H170 H 0.31766 0.23506 0.73368
 C171 C 0.31898 0.20612 0.69719
 H172 H 0.34777 0.20393 0.69826
 N173 N 0.26585 0.22783 0.71583
 C174 C 0.18156 0.22208 0.75666
 H175 H 0.18057 0.21690 0.73256
 C176 C 0.15739 0.20961 0.77754
 H177 H 0.13799 0.19559 0.76833
 C178 C 0.20643 0.24787 0.79678
 H179 H 0.22521 0.26304 0.80441
 C180 C 0.18308 0.23589 0.81842
 H181 H 0.18650 0.24162 0.84222
 Zn182 Zn 0.24354 0.25492 0.74039
 N183 N 0.20643 0.24012 0.76671
 C184 C 0.20209 0.30055 0.72517
 N185 N 0.22475 0.28153 0.71386
 C186 C 0.23637 0.28219 0.68390
 C187 C 0.22561 0.30268 0.66411
 C188 C 0.19083 0.32165 0.70613
 C189 C 0.29396 0.25526 0.78760
 C190 C 0.31580 0.26671 0.80992
 C191 C 0.30655 0.31047 0.78660
 C192 C 0.28495 0.29816 0.76462
 N193 N 0.27831 0.27112 0.76603
 H194 H 0.19358 0.29972 0.74920
 H195 H 0.25489 0.26725 0.67543
 H196 H 0.23521 0.30267 0.64034
 H197 H 0.17373 0.33711 0.71574
 H198 H 0.28811 0.23381 0.78825
 H199 H 0.32722 0.25383 0.82739
 H200 H 0.30991 0.33221 0.78611
 H201 H 0.27232 0.31040 0.74729
 C202 C 0.15841 0.21570 0.80942
 C203 C 0.29904 0.19259 0.67475
 C204 C 0.32150 0.29477 0.81014
 C205 C 0.20312 0.32311 0.67524
 C206 C 0.77110 0.73509 0.69777
 H207 H 0.75808 0.75345 0.69105
 C208 C 0.78384 0.71792 0.67478
 H209 H 0.78021 0.72338 0.65078
 C210 C 0.79301 0.70629 0.73673
 H211 H 0.79733 0.70208 0.76085
 C212 C 0.80614 0.68843 0.71439
 H213 H 0.81938 0.67021 0.72173
 N214 N 0.77469 0.72867 0.72818
 C215 C 0.68298 0.74088 0.78383
 H216 H 0.67573 0.75946 0.77252
 C217 C 0.65686 0.72638 0.80081
 H218 H 0.63028 0.73476 0.80219
 C219 C 0.72717 0.70962 0.79781
 H220 H 0.75474 0.70339 0.79725
 C221 C 0.70203 0.69449 0.81510
 H222 H 0.71121 0.67619 0.82592
 Zn223 Zn 0.75322 0.75160 0.75853
 N224 N 0.71730 0.73206 0.78202
 C225 C 0.70471 0.77811 0.71873
 N226 N 0.73297 0.78187 0.73781
 C227 C 0.74951 0.80642 0.73990
 C228 C 0.73929 0.82783 0.72101
 C229 C 0.69313 0.79919 0.69987
 C230 C 0.82114 0.77300 0.77465
 C231 C 0.84579 0.78503 0.79446
 C232 C 0.80375 0.77757 0.83690
 C233 C 0.77987 0.76596 0.81632
 N234 N 0.78870 0.76415 0.78580
 H235 H 0.69230 0.75834 0.71701
 H236 H 0.77176 0.80921 0.75518
 H237 H 0.75371 0.84691 0.72198
 H238 H 0.67160 0.79562 0.68389
 H239 H 0.82736 0.77150 0.75020
 H240 H 0.87122 0.79251 0.78521
 H241 H 0.79559 0.77968 0.86090
 H242 H 0.75372 0.75928 0.82460
 C243 C 0.66579 0.70237 0.81664
 C244 C 0.80081 0.69386 0.68293
 C245 C 0.83700 0.78766 0.82600
 C246 C 0.71126 0.82413 0.70030
 C247 C 0.79257 0.24227 0.19169
 H248 H 0.78709 0.26325 0.18689
 C249 C 0.80975 0.22667 0.16924
 H250 H 0.81746 0.23573 0.14723
 C251 C 0.78776 0.20455 0.22551
 H252 H 0.77839 0.19564 0.24696
 C253 C 0.80545 0.18836 0.20395
 H254 H 0.80929 0.16718 0.20911
 N255 N 0.78091 0.23086 0.21882
 C256 C 0.68156 0.23051 0.26125
 H257 H 0.67178 0.24496 0.24474
 C258 C 0.65726 0.21339 0.27683
 H259 H 0.62899 0.21514 0.27214
 C260 C 0.72983 0.21190 0.28861
 H261 H 0.75812 0.21192 0.29364
 C262 C 0.70659 0.19398 0.30424
 H263 H 0.71764 0.17966 0.32034
 Zn264 Zn 0.75020 0.25171 0.24464
 N265 N 0.71724 0.22900 0.26674
 C266 C 0.70918 0.26462 0.19354
 N267 N 0.72492 0.27558 0.21872
 C268 C 0.72445 0.30266 0.22382
 C269 C 0.70805 0.31991 0.20277
 C270 C 0.69314 0.28113 0.17170
 C271 C 0.81317 0.27330 0.27163
 C272 C 0.83219 0.28675 0.29459
 C273 C 0.77601 0.29519 0.32137
 C274 C 0.75811 0.28194 0.29780
 N275 N 0.77682 0.27117 0.27374
 H276 H 0.71009 0.24304 0.18999
 H277 H 0.73741 0.31098 0.24382
 H278 H 0.70850 0.34149 0.20667
 H279 H 0.68147 0.27217 0.15139
 H280 H 0.82740 0.26441 0.25229
 H281 H 0.86115 0.28815 0.29290
 H282 H 0.76068 0.30359 0.34043
 H283 H 0.72921 0.27986 0.29885
 C284 C 0.66972 0.19426 0.29812
 C285 C 0.81560 0.19921 0.17506
 C286 C 0.81352 0.29755 0.32003
 C287 C 0.69280 0.30914 0.17606
 C288 C 0.26031 0.72102 0.20346
 H289 H 0.23173 0.72318 0.20709
 C290 C 0.27295 0.70338 0.18101
 H291 H 0.25390 0.69171 0.16784
 C292 C 0.31955 0.73409 0.21586
 H293 H 0.33768 0.74714 0.22793
 C294 C 0.33346 0.71638 0.19366
 H295 H 0.36217 0.71543 0.18973
 N296 N 0.28345 0.73556 0.22090
 C297 C 0.19262 0.74913 0.28295
 H298 H 0.18865 0.77062 0.28128
 C299 C 0.16676 0.73324 0.29838
 H300 H 0.14300 0.74259 0.30802
 C301 C 0.22855 0.71080 0.27380
 H302 H 0.25297 0.70216 0.26465
 C303 C 0.20368 0.69424 0.28953
 H304 H 0.20876 0.67285 0.29180
 Zn305 Zn 0.25833 0.75863 0.24870
 N306 N 0.22234 0.73765 0.27011
 C307 C 0.20309 0.78981 0.21937
 N308 N 0.23872 0.78582 0.22333
 C309 C 0.26366 0.80159 0.20849
 C310 C 0.25327 0.82281 0.18948
 C311 C 0.19146 0.81152 0.20153
 C312 C 0.32018 0.77260 0.28742
 C313 C 0.33517 0.78703 0.31191
 C314 C 0.27752 0.80718 0.32149
 C315 C 0.26455 0.79383 0.29580
 N316 N 0.28540 0.77641 0.27966
 H317 H 0.18349 0.77634 0.22992
 H318 H 0.29184 0.79755 0.21141
 H319 H 0.27398 0.83435 0.17738
 H320 H 0.16297 0.81489 0.20021
 H321 H 0.33623 0.75784 0.27567
 H322 H 0.36267 0.78299 0.31778
 H323 H 0.25969 0.82108 0.33310
 H324 H 0.23740 0.79731 0.28879
 C325 C 0.17213 0.70544 0.30162
 C326 C 0.30994 0.70083 0.17590
 C327 C 0.31345 0.80404 0.33029
 C328 C 0.21667 0.82863 0.18633
 N329 N 1.05801 0.03952 0.02756
 N330 N 1.07610 0.06226 0.03092
 N331 N 1.04676 -0.01996 0.05042
 N332 N 1.05848 -0.03655 0.07193
 N333 N 1.07144 -0.01599 0.02876
 N334 N 1.10073 -0.02938 0.03518
 N335 N 1.03440 0.03606 0.05016
 N336 N 1.03616 0.05639 0.06982
 C337 C 1.06217 0.07266 0.05725
 C338 C 1.09201 -0.04249 0.06180
 N339 N 0.94642 -0.03365 0.03009
 N340 N 0.92978 -0.05712 0.03322
 N341 N 0.95801 0.02556 0.05117
 N342 N 0.94961 0.04611 0.06911
 N343 N 0.93397 0.02227 0.02969
 N344 N 0.90867 0.04051 0.03237
 N345 N 0.97028 -0.03044 0.05173
 N346 N 0.97010 -0.05163 0.07053
 Mn347 Mn 1.00233 0.00276 0.05131
 C348 C 0.94463 -0.06809 0.05854
 C349 C 0.91863 0.05515 0.05714
 N350 N 1.07120 -0.01699 -0.03770
 N351 N 1.09562 -0.03597 -0.03900
 N352 N 1.03471 0.03512 -0.06045
 N353 N 1.03440 0.05600 -0.07960
 N354 N 1.05816 0.03905 -0.03865
 N355 N 1.07399 0.06287 -0.04198
 N356 N 1.04715 -0.02074 -0.05910
 N357 N 1.05478 -0.04230 -0.07567
 Mn358 Mn 1.06504 0.01146 -0.00510
 C359 C 1.08527 -0.05147 -0.06295
 C360 C 1.05905 0.07310 -0.06770
 N361 N 0.93442 0.02201 -0.03679
 N362 N 0.91107 0.04176 -0.03757
 N363 N 0.97079 -0.03096 -0.05839
 N364 N 0.97118 -0.05230 -0.07660
 N365 N 0.94681 -0.03415 -0.03604
 N366 N 0.93072 -0.05790 -0.03804
 N367 N 0.95860 0.02501 -0.05904
 N368 N 0.95214 0.04685 -0.07563
 Mn369 Mn 0.93999 -0.00592 -0.00328
 Mn370 Mn 1.00282 0.00207 -0.05967
 Cl371 Cl 1.00255 0.00257 -0.00413
 C372 C 0.92218 0.05692 -0.06210
 C373 C 0.94601 -0.06890 -0.06351
 N374 N 1.05193 0.54379 0.51903
 N375 N 1.07068 0.56643 0.51976
 N376 N 1.04433 0.48628 0.54839
 N377 N 1.05651 0.46920 0.56920
 N378 N 1.06705 0.48872 0.52497
 N379 N 1.09529 0.47353 0.52922
 N380 N 1.03005 0.54187 0.54310
 N381 N 1.03355 0.56332 0.56096
 C382 C 1.05886 0.57858 0.54584
 C383 C 1.08837 0.46140 0.55681
 N384 N 0.94286 0.46980 0.53494
 N385 N 0.92743 0.44626 0.54043
 N386 N 0.95414 0.53032 0.54950
 N387 N 0.94486 0.55059 0.56758
 N388 N 0.92884 0.52512 0.52964
 N389 N 0.90173 0.54163 0.53362
 N390 N 0.96823 0.47463 0.55485
 N391 N 0.97034 0.45435 0.57488
 Mn392 Mn 0.99922 0.50827 0.54946
 C393 C 0.94456 0.43683 0.56536
 C394 C 0.91207 0.55748 0.55729
 N395 N 1.06261 0.48284 0.45922
 N396 N 1.09104 0.46788 0.45448
 N397 N 1.02205 0.53199 0.43372
 N398 N 1.02047 0.55039 0.41165
 N399 N 1.04773 0.53786 0.45296
 N400 N 1.06479 0.56021 0.44420
 N401 N 1.03724 0.47654 0.43981
 N402 N 1.04793 0.45687 0.42129
 Mn403 Mn 1.05761 0.51341 0.48904
 C404 C 1.08162 0.45164 0.43095
 C405 C 1.04728 0.56786 0.41850
 N406 N 0.92435 0.51927 0.46372
 N407 N 0.89774 0.53619 0.46030
 N408 N 0.96093 0.46524 0.44604
 N409 N 0.95770 0.44364 0.42846
 N410 N 0.93834 0.46386 0.46963
 N411 N 0.91952 0.44121 0.46904
 N412 N 0.94673 0.52072 0.44000
 N413 N 0.93593 0.53885 0.41975
 Mn414 Mn 0.93328 0.49454 0.49953
 Mn415 Mn 0.99174 0.49849 0.43948
 Cl416 Cl 0.99549 0.50367 0.49438
 C417 C 0.90521 0.54827 0.43277
 C418 C 0.93197 0.42870 0.44338
 N419 N 0.56871 0.03824 0.52743
 N420 N 0.59389 0.05697 0.53002
 N421 N 0.56123 -0.01728 0.56069
 N422 N 0.57340 -0.03387 0.58194
 N423 N 0.58265 -0.01676 0.53625
 N424 N 0.61024 -0.03275 0.54039
 N425 N 0.54752 0.03801 0.55210
 N426 N 0.55783 0.05680 0.57176
 C427 C 0.58635 0.06886 0.55737
 C428 C 0.60403 -0.04335 0.56898
 N429 N 0.45917 -0.03423 0.55432
 N430 N 0.44226 -0.05591 0.56519
 N431 N 0.47166 0.02745 0.56275
 N432 N 0.46469 0.05023 0.57738
 N433 N 0.44494 0.02071 0.54495
 N434 N 0.41936 0.03871 0.54660
 N435 N 0.48624 -0.02780 0.57183
 N436 N 0.48865 -0.04508 0.59506
 Mn437 Mn 0.51665 0.00518 0.56218
 C438 C 0.46103 -0.06255 0.59054
 C439 C 0.43184 0.05691 0.56697
 N440 N 0.57312 -0.02615 0.47110
 N441 N 0.60087 -0.04164 0.46530
 N442 N 0.53138 0.02204 0.44470
 N443 N 0.52890 0.03849 0.42085
 N444 N 0.55858 0.02895 0.46193
 N445 N 0.57541 0.05040 0.45006
 N446 N 0.54615 -0.03280 0.45349
 N447 N 0.55504 -0.05294 0.43504
 Mn448 Mn 0.57107 0.00615 0.49908
 C449 C 0.58923 -0.05839 0.44293
 C450 C 0.55634 0.05618 0.42448
 N451 N 0.43541 0.01112 0.48054
 N452 N 0.40879 0.02811 0.47780
 N453 N 0.47050 -0.04362 0.46473
 N454 N 0.46284 -0.06457 0.44710
 N455 N 0.44984 -0.04378 0.48964
 N456 N 0.42776 -0.06471 0.48962
 N457 N 0.45625 0.01182 0.45580
 N458 N 0.44431 0.02954 0.43550
 Mn459 Mn 0.44710 -0.01162 0.51744
 Mn460 Mn 0.50105 -0.01074 0.45433
 Cl461 Cl 0.50906 -0.00272 0.50825
 C462 C 0.41447 0.03946 0.44961
 C463 C 0.43644 -0.07779 0.46326
 N464 N 0.54217 0.53268 0.03263
 N465 N 0.55916 0.55605 0.03640
 N466 N 0.53147 0.47292 0.05375
 N467 N 0.54175 0.45295 0.07180
 N468 N 0.55448 0.47663 0.03069
 N469 N 0.58072 0.45910 0.03224
 N470 N 0.51850 0.52862 0.05512
 N471 N 0.51838 0.54905 0.07440
 C472 C 0.54378 0.56601 0.06260
 C473 C 0.57253 0.44454 0.05803
 N474 N 0.42966 0.45943 0.03822
 N475 N 0.41277 0.43611 0.04211
 N476 N 0.44256 0.51849 0.05981
 N477 N 0.43681 0.54029 0.07663
 N478 N 0.41710 0.51538 0.03955
 N479 N 0.39360 0.53492 0.04189
 N480 N 0.45499 0.46232 0.05861
 N481 N 0.45560 0.44111 0.07736
 Mn482 Mn 0.48695 0.49554 0.05724
 C483 C 0.42909 0.42491 0.06660
 C484 C 0.40592 0.55016 0.06532
 N485 N 0.55036 0.47735 -0.03595
 N486 N 0.57323 0.45726 -0.03928
 N487 N 0.51176 0.53051 -0.05382
 N488 N 0.51111 0.55068 -0.07378
 N489 N 0.53826 0.53362 -0.03457
 N490 N 0.55673 0.55597 -0.04129
 N491 N 0.52389 0.47459 -0.05535
 N492 N 0.52778 0.45264 -0.07200
 Mn493 Mn 0.54689 0.50520 -0.00182
 C494 C 0.55884 0.44225 -0.06219
 C495 C 0.53916 0.56648 -0.06570
 N496 N 0.41257 0.51614 -0.02665
 N497 N 0.38398 0.53112 -0.03078
 N498 N 0.44816 0.46431 -0.05088
 N499 N 0.44675 0.44382 -0.07024
 N500 N 0.42564 0.46040 -0.02761
 N501 N 0.40861 0.43709 -0.03019
 N502 N 0.43612 0.52023 -0.04913
 N503 N 0.42446 0.53828 -0.06897
 Mn504 Mn 0.42090 0.48779 0.00598
 Mn505 Mn 0.48005 0.49747 -0.05259
 Cl506 Cl 0.48376 0.49653 0.00222
 C507 C 0.39202 0.54505 -0.05710
 C508 C 0.42204 0.42697 -0.05689
 C509 C 1.11796 0.15212 0.14366
 C510 C 1.12550 0.16102 0.11407
 C511 C 1.14814 0.18287 0.10759
 C512 C 1.16395 0.19600 0.13260
 C513 C 1.15700 0.18718 0.16349
 C514 C 1.13322 0.16500 0.16895
 O515 O 1.09759 0.12991 0.14462
 C516 C 1.09235 0.12461 0.11496
 C517 C 1.10890 0.14309 0.09537
 C518 C 1.10928 0.14042 0.06343
 C519 C 1.09249 0.11752 0.05116
 C520 C 1.07559 0.09797 0.07081
 C521 C 1.07485 0.10187 0.10318
 H522 H 1.15422 0.18914 0.08404
 H523 H 1.18268 0.21240 0.12771
 H524 H 1.12735 0.15759 0.19210
 H525 H 1.12300 0.15500 0.04853
 H526 H 1.09333 0.11470 0.02635
 H527 H 1.06295 0.08693 0.11873
 C528 C 1.11047 0.66556 0.62513
 C529 C 1.12765 0.66747 0.59686
 C530 C 1.15723 0.68409 0.59136
 C531 C 1.17002 0.69926 0.61607
 C532 C 1.15275 0.69827 0.64577
 C533 C 1.12197 0.68124 0.64992
 O534 O 1.08501 0.64650 0.62610
 C535 C 1.08633 0.63620 0.59779
 C536 C 1.11181 0.64859 0.57901
 C537 C 1.11941 0.64026 0.54908
 C538 C 1.10044 0.61787 0.53811
 C539 C 1.07475 0.60404 0.55718
 C540 C 1.06706 0.61371 0.58732
 H541 H 1.17102 0.68448 0.56912
 H542 H 1.19443 0.71077 0.61196
 H543 H 1.10775 0.67952 0.67184
 H544 H 1.13988 0.65022 0.53492
 H545 H 1.10665 0.61084 0.51499
 H546 H 1.04803 0.60335 0.60257
 C547 C 0.65342 0.14597 0.64162
 C548 C 0.67970 0.13310 0.62489
 C549 C 0.71596 0.13721 0.62976
 C550 C 0.72572 0.15577 0.65246
 C551 C 0.69941 0.17067 0.66922
 C552 C 0.66252 0.16521 0.66384
 O553 O 0.62049 0.13817 0.63400
 C554 C 0.62630 0.12014 0.61183
 C555 C 0.66213 0.11666 0.60519
 C556 C 0.67453 0.09935 0.58236
 C557 C 0.64898 0.08465 0.56591
 C558 C 0.61186 0.08697 0.57298
 C559 C 0.60031 0.10509 0.59625
 H560 H 0.73610 0.12625 0.61679
 H561 H 0.75398 0.15827 0.65692
 H562 H 0.64149 0.17592 0.67594
 H563 H 0.70290 0.09715 0.57746
 H564 H 0.65824 0.07074 0.54836
 H565 H 0.57215 0.10725 0.60209
 C566 C 0.62191 0.65544 0.11900
 C567 C 0.58664 0.65640 0.12860
 C568 C 0.57476 0.67307 0.15227
 C569 C 0.60032 0.68927 0.16694
 C570 C 0.63712 0.68866 0.15779
 C571 C 0.64777 0.67164 0.13303
 O572 O 0.62794 0.63674 0.09765
 C573 C 0.59576 0.62557 0.09382
 C574 C 0.56961 0.63697 0.11223
 C575 C 0.53457 0.62721 0.11380
 C576 C 0.52626 0.60443 0.09617
 C577 C 0.55278 0.59194 0.07735
 C578 C 0.58790 0.60305 0.07560
 H579 H 0.54695 0.67298 0.15987
 H580 H 0.59150 0.70144 0.18625
 H581 H 0.67548 0.67049 0.12535
 H582 H 0.51462 0.63625 0.12884
 H583 H 0.49930 0.59611 0.09777
 H584 H 0.60885 0.59352 0.06206
 C585 C 0.89236 -0.15589 0.13847
 C586 C 0.89000 -0.16397 0.10825
 C587 C 0.87124 -0.18698 0.09949
 C588 C 0.85372 -0.20216 0.12278
 C589 C 0.85510 -0.19418 0.15424
 C590 C 0.87533 -0.17083 0.16211
 O591 O 0.90912 -0.13223 0.14150
 C592 C 0.91726 -0.12516 0.11251
 C593 C 0.90607 -0.14395 0.09134
 C594 C 0.90862 -0.13968 0.05962
 C595 C 0.92266 -0.11482 0.04928
 C596 C 0.93422 -0.09500 0.07050
 C597 C 0.93224 -0.10046 0.10263
 H598 H 0.86910 -0.19254 0.07543
 H599 H 0.83770 -0.21943 0.11601
 H600 H 0.87684 -0.16397 0.18576
 H601 H 0.89885 -0.15451 0.04345
 H602 H 0.92374 -0.11071 0.02472
 H603 H 0.93983 -0.08532 0.11931
 C604 C 0.88886 0.35504 0.65093
 C605 C 0.88324 0.34688 0.62114
 C606 C 0.85848 0.32709 0.61358
 C607 C 0.83830 0.31521 0.63765
 C608 C 0.84353 0.32260 0.66916
 C609 C 0.87035 0.34249 0.67563
 O610 O 0.90986 0.37691 0.65246
 C611 C 0.91765 0.38250 0.62295
 C612 C 0.90237 0.36433 0.60302
 C613 C 0.90400 0.36727 0.57114
 C614 C 0.92092 0.39046 0.55918
 C615 C 0.93535 0.41032 0.57905
 C616 C 0.93490 0.40589 0.61142
 H617 H 0.85402 0.32152 0.58980
 H618 H 0.81959 0.29938 0.63140
 H619 H 0.87447 0.34992 0.69878
 H620 H 0.89121 0.35288 0.55604
 H621 H 0.92107 0.39364 0.53438
 H622 H 0.94464 0.42116 0.62708
 C623 C 0.38079 -0.14913 0.65359
 C624 C 0.41342 -0.14677 0.66768
 C625 C 0.42213 -0.16200 0.69356
 C626 C 0.39599 -0.18013 0.70553
 C627 C 0.36187 -0.18245 0.69168
 C628 C 0.35450 -0.16685 0.66512
 O629 O 0.37734 -0.13250 0.62975
 C630 C 0.40839 -0.11921 0.62879
 C631 C 0.43147 -0.12704 0.65151
 C632 C 0.46490 -0.11481 0.65529
 C633 C 0.47475 -0.09362 0.63493
 C634 C 0.45128 -0.08530 0.61134
 C635 C 0.41777 -0.09851 0.60820
 H636 H 0.44789 -0.15974 0.70441
 H637 H 0.40190 -0.19174 0.72605
 H638 H 0.32884 -0.16824 0.65391
 H639 H 0.48254 -0.12110 0.67348
 H640 H 0.50050 -0.08366 0.63760
 H641 H 0.39907 -0.09246 0.59068
 C642 C 0.38444 0.33753 0.15076
 C643 C 0.37832 0.32943 0.12097
 C644 C 0.35920 0.30606 0.11406
 C645 C 0.34535 0.29054 0.13885
 C646 C 0.35057 0.29861 0.16993
 C647 C 0.37096 0.32235 0.17582
 O648 O 0.40139 0.36125 0.15222
 C649 C 0.40581 0.36834 0.12270
 C650 C 0.39203 0.34956 0.10270
 C651 C 0.39105 0.35376 0.07094
 C652 C 0.40437 0.37848 0.05934
 C653 C 0.41868 0.39823 0.07941
 C654 C 0.42003 0.39288 0.11153
 H655 H 0.35418 0.30038 0.09041
 H656 H 0.32917 0.27291 0.13370
 H657 H 0.37531 0.32926 0.19915
 H658 H 0.37943 0.33890 0.05573
 H659 H 0.40305 0.38241 0.03474
 H660 H 0.42993 0.40791 0.12742
 C661 C 0.87531 0.15175 -0.13070
 C662 C 0.86097 0.15299 -0.10124
 C663 C 0.83678 0.17268 -0.09212
 C664 C 0.82630 0.19149 -0.11448
 C665 C 0.83979 0.19011 -0.14533
 C666 C 0.86524 0.17020 -0.15327
 O667 O 0.89660 0.13077 -0.13500
 C668 C 0.89547 0.11837 -0.10773
 C669 C 0.87389 0.13108 -0.08632
 C670 C 0.86697 0.12060 -0.05692
 C671 C 0.88298 0.09603 -0.04929
 C672 C 0.90566 0.08267 -0.07082
 C673 C 0.91218 0.09416 -0.10041
 H674 H 0.82559 0.17307 -0.06887
 H675 H 0.80638 0.20628 -0.10814
 H676 H 0.87589 0.16853 -0.17662
 H677 H 0.84943 0.13072 -0.04063
 H678 H 0.87776 0.08743 -0.02660
 H679 H 0.92894 0.08422 -0.11746
 C680 C 0.84311 0.62878 0.35034
 C681 C 0.82189 0.62655 0.37658
 C682 C 0.79056 0.64102 0.38085
 C683 C 0.78053 0.65846 0.35702
 C684 C 0.80176 0.66115 0.32955
 C685 C 0.83373 0.64617 0.32633
 O686 O 0.87150 0.61283 0.35086
 C687 C 0.86804 0.60032 0.37804
 C688 C 0.83813 0.60808 0.39462
 C689 C 0.82898 0.59743 0.42350
 C690 C 0.85152 0.57786 0.43582
 C691 C 0.88248 0.56929 0.41920
 C692 C 0.89093 0.58082 0.38989
 H693 H 0.77436 0.63891 0.40176
 H694 H 0.75635 0.67010 0.36009
 H695 H 0.85036 0.64766 0.30560
 H696 H 0.80526 0.60389 0.43604
 H697 H 0.84469 0.56933 0.45830
 H698 H 0.91433 0.57470 0.37665
 C699 C 0.34878 0.12258 0.37210
 C700 C 0.32847 0.11905 0.39856
 C701 C 0.29729 0.13311 0.40440
 C702 C 0.28619 0.15154 0.38199
 C703 C 0.30614 0.15598 0.35371
 C704 C 0.33850 0.14104 0.34938
 O705 O 0.37731 0.10669 0.37102
 C706 C 0.37485 0.09295 0.39753
 C707 C 0.34541 0.09992 0.41517
 C708 C 0.33726 0.08819 0.44369
 C709 C 0.36039 0.06839 0.45457
 C710 C 0.39099 0.06055 0.43693
 C711 C 0.39835 0.07311 0.40790
 H712 H 0.28202 0.13014 0.42570
 H713 H 0.26281 0.16314 0.38808
 H714 H 0.35464 0.14230 0.32843
 H715 H 0.31389 0.09407 0.45711
 H716 H 0.35430 0.05913 0.47682
 H717 H 0.42147 0.06762 0.39393
 C718 C 0.33325 0.62594 -0.14005
 C719 C 0.30506 0.61336 -0.12458
 C720 C 0.26942 0.61912 -0.13046
 C721 C 0.26262 0.63880 -0.15303
 C722 C 0.29129 0.65244 -0.16871
 C723 C 0.32711 0.64592 -0.16210
 O724 O 0.36502 0.61698 -0.13167
 C725 C 0.35672 0.59846 -0.11035
 C726 C 0.32042 0.59564 -0.10489
 C727 C 0.30596 0.57756 -0.08315
 C728 C 0.32990 0.56150 -0.06666
 C729 C 0.36736 0.56350 -0.07261
 C730 C 0.38089 0.58240 -0.09464
 H731 H 0.24767 0.60883 -0.11818
 H732 H 0.23512 0.64385 -0.15790
 H733 H 0.34939 0.65604 -0.17387
 H734 H 0.27731 0.57579 -0.07914
 H735 H 0.31923 0.54703 -0.04992
 H736 H 0.40937 0.58442 -0.09957
 C737 C 1.13766 -0.14388 -0.13333
 C738 C 1.15501 -0.14318 -0.10557
 C739 C 1.18261 -0.16057 -0.09837
 C740 C 1.19325 -0.17914 -0.12094
 C741 C 1.17641 -0.17991 -0.15010
 C742 C 1.14769 -0.16232 -0.15610
 O743 O 1.11328 -0.12472 -0.13601
 C744 C 1.11544 -0.11161 -0.10941
 C745 C 1.14063 -0.12210 -0.09003
 C746 C 1.14873 -0.11067 -0.06173
 C747 C 1.13014 -0.08742 -0.05302
 C748 C 1.10394 -0.07620 -0.07252
 C749 C 1.09630 -0.08865 -0.10104
 H750 H 1.19597 -0.15950 -0.07641
 H751 H 1.21504 -0.19264 -0.11593
 H752 H 1.13480 -0.16209 -0.17831
 H753 H 1.16901 -0.11911 -0.04708
 H754 H 1.13624 -0.07815 -0.03111
 H755 H 1.07677 -0.08035 -0.11655
 C756 C 1.14696 0.36220 0.36232
 C757 C 1.17319 0.37603 0.37777
 C758 C 1.20902 0.36883 0.37669
 C759 C 1.21834 0.34632 0.35900
 C760 C 1.19191 0.33120 0.34309
 C761 C 1.15559 0.33950 0.34472
 O762 O 1.11454 0.37268 0.36648
 C763 C 1.12057 0.39353 0.38501
 C764 C 1.15607 0.39627 0.39259
 C765 C 1.16862 0.41626 0.41205
 C766 C 1.14358 0.43423 0.42434
 C767 C 1.10673 0.43215 0.41691
 C768 C 1.09505 0.41150 0.39677
 H769 H 1.22917 0.38024 0.38889
 H770 H 1.24635 0.34096 0.35744
 H771 H 1.13466 0.32846 0.33305
 H772 H 1.19669 0.41787 0.41773
 H773 H 1.15309 0.44988 0.43962
 H774 H 1.06710 0.40930 0.39083
 C775 C 0.64908 -0.13915 0.35851
 C776 C 0.67352 -0.13388 0.38117
 C777 C 0.70671 -0.14618 0.38225
 C778 C 0.71502 -0.16493 0.35918
 C779 C 0.69029 -0.17102 0.33557
 C780 C 0.65691 -0.15766 0.33509
 O781 O 0.61900 -0.12525 0.36199
 C782 C 0.62470 -0.11093 0.38738
 C783 C 0.65770 -0.11551 0.39990
 C784 C 0.66946 -0.10266 0.42635
 C785 C 0.64637 -0.08412 0.44043
 C786 C 0.61218 -0.07884 0.42803
 C787 C 0.60112 -0.09262 0.40116
 H788 H 0.72552 -0.14157 0.40027
 H789 H 0.74086 -0.17463 0.35961
 H790 H 0.63746 -0.16197 0.31748
 H791 H 0.69558 -0.10665 0.43573
 H792 H 0.65526 -0.07382 0.46097
 H793 H 0.57528 -0.08894 0.39107
 C794 C 0.64153 0.35782 -0.12275
 C795 C 0.60769 0.34783 -0.11618
 C796 C 0.59536 0.32317 -0.12728
 C797 C 0.61883 0.30822 -0.14605
 C798 C 0.65373 0.31823 -0.15364
 C799 C 0.66523 0.34335 -0.14149
 O800 O 0.64733 0.38224 -0.11112
 C801 C 0.61637 0.38787 -0.09706
 C802 C 0.59122 0.36746 -0.09960
 C803 C 0.55610 0.36983 -0.08879
 C804 C 0.54632 0.39441 -0.07537
 C805 C 0.57166 0.41579 -0.07256
 C806 C 0.60742 0.41232 -0.08299
 H807 H 0.56842 0.31592 -0.12212
 H808 H 0.60942 0.28926 -0.15544
 H809 H 0.69168 0.35156 -0.14681
 H810 H 0.53660 0.35372 -0.09160
 H811 H 0.51875 0.39707 -0.06776
 H812 H 0.62688 0.42867 -0.08199
 C813 C 1.10656 0.15993 -0.15079
 C814 C 1.10331 0.17031 -0.12156
 C815 C 1.11473 0.19618 -0.11426
 C816 C 1.13113 0.21178 -0.13782
 C817 C 1.13707 0.20122 -0.16817
 C818 C 1.12315 0.17492 -0.17456
 O819 O 1.09544 0.13443 -0.15257
 C820 C 1.08522 0.12855 -0.12374
 C821 C 1.08978 0.14978 -0.10378
 C822 C 1.08414 0.14731 -0.07200
 C823 C 1.07357 0.12187 -0.06035
 C824 C 1.06817 0.09985 -0.08056
 C825 C 1.07355 0.10332 -0.11275
 H826 H 1.11152 0.20402 -0.09109
 H827 H 1.13886 0.23215 -0.13189
 H828 H 1.12736 0.16509 -0.19652
 H829 H 1.08883 0.16410 -0.05665
 H830 H 1.06979 0.11923 -0.03563
 H831 H 1.07058 0.08656 -0.12849
 C832 C 1.12861 0.65295 0.35391
 C833 C 1.09359 0.65428 0.34464
 C834 C 1.08239 0.67230 0.32212
 C835 C 1.10841 0.68955 0.30851
 C836 C 1.14480 0.68813 0.31727
 C837 C 1.15494 0.66961 0.34041
 O838 O 1.13378 0.63423 0.37537
 C839 C 1.10138 0.62337 0.37962
 C840 C 1.07585 0.63478 0.36125
 C841 C 1.04051 0.62553 0.36091
 C842 C 1.03122 0.60350 0.38013
 C843 C 1.05705 0.59160 0.39944
 C844 C 1.09253 0.60190 0.39938
 H845 H 1.05471 0.67293 0.31513
 H846 H 1.10044 0.70355 0.29065
 H847 H 1.18251 0.66818 0.34757
 H848 H 1.02099 0.63460 0.34598
 H849 H 1.00397 0.59570 0.37997
 H850 H 1.11293 0.59288 0.41348
 C851 C 0.62740 0.14437 0.35541
 C852 C 0.59877 0.13524 0.33875
 C853 C 0.59154 0.14457 0.30922
 C854 C 0.61486 0.16412 0.29623
 C855 C 0.64462 0.17420 0.31292
 C856 C 0.65065 0.16414 0.34315
 O857 O 0.63036 0.13192 0.38253
 C858 C 0.60297 0.11452 0.38291
 C859 C 0.58275 0.11590 0.35670
 C860 C 0.55330 0.09917 0.35182
 C861 C 0.54447 0.08004 0.37477
 C862 C 0.56523 0.07777 0.40183
 C863 C 0.59475 0.09550 0.40606
 H864 H 0.56918 0.13666 0.29636
 H865 H 0.61013 0.17078 0.27282
 H866 H 0.67282 0.17131 0.35677
 H867 H 0.53790 0.10060 0.33093
 H868 H 0.52177 0.06667 0.37113
 H869 H 0.61118 0.09420 0.42636
 C870 C 0.62229 0.65207 -0.12883
 C871 C 0.58719 0.65404 -0.13733
 C872 C 0.57613 0.67179 -0.16006
 C873 C 0.60231 0.68812 -0.17485
 C874 C 0.63930 0.68657 -0.16702
 C875 C 0.64886 0.66812 -0.14314
 O876 O 0.62735 0.63317 -0.10744
 C877 C 0.59467 0.62287 -0.10252
 C878 C 0.56915 0.63496 -0.12031
 C879 C 0.53353 0.62646 -0.12018
 C880 C 0.52390 0.60431 -0.10132
 C881 C 0.54970 0.59127 -0.08291
 C882 C 0.58554 0.60102 -0.08315
 H883 H 0.54833 0.67263 -0.16672
 H884 H 0.59341 0.70082 -0.19351
 H885 H 0.67601 0.66632 -0.13520
 H886 H 0.51401 0.63610 -0.13464
 H887 H 0.49639 0.59705 -0.10142
 H888 H 0.60594 0.59115 -0.06983
 C889 C 0.89487 -0.15746 -0.13973
 C890 C 0.89735 -0.16675 -0.10984
 C891 C 0.88314 -0.19151 -0.10011
 C892 C 0.86493 -0.20710 -0.12191
 C893 C 0.86094 -0.19764 -0.15269
 C894 C 0.87695 -0.17268 -0.16182
 O895 O 0.90784 -0.13254 -0.14363
 C896 C 0.91849 -0.12589 -0.11554
 C897 C 0.91253 -0.14611 -0.09401
 C898 C 0.91840 -0.14261 -0.06265
 C899 C 0.93044 -0.11714 -0.05304
 C900 C 0.93674 -0.09600 -0.07473
 C901 C 0.93140 -0.10058 -0.10653
 H902 H 0.88505 -0.19823 -0.07635
 H903 H 0.85306 -0.22620 -0.11459
 H904 H 0.87355 -0.16453 -0.18484
 H905 H 0.91276 -0.15861 -0.04604
 H906 H 0.93449 -0.11372 -0.02870
 H907 H 0.93507 -0.08449 -0.12339
 C908 C 0.87414 0.34515 0.36334
 C909 C 0.86390 0.33915 0.39333
 C910 C 0.83870 0.31918 0.40090
 C911 C 0.82305 0.30503 0.37653
 C912 C 0.83272 0.31108 0.34535
 C913 C 0.85916 0.33114 0.33874
 O914 O 0.89653 0.36616 0.36109
 C915 C 0.90037 0.37363 0.39028
 C916 C 0.88096 0.35772 0.41089
 C917 C 0.87885 0.36311 0.44235
 C918 C 0.89698 0.38612 0.45294
 C919 C 0.91678 0.40307 0.43212
 C920 C 0.91910 0.39640 0.40042
 H921 H 0.83071 0.31509 0.42466
 H922 H 0.80300 0.28963 0.38189
 H923 H 0.86646 0.33658 0.31516
 H924 H 0.86291 0.35055 0.45802
 H925 H 0.89491 0.39105 0.47725
 H926 H 0.93331 0.40932 0.38392
 C927 C 0.37361 -0.15918 0.38253
 C928 C 0.35011 -0.15414 0.40653
 C929 C 0.31468 -0.16279 0.40678
 C930 C 0.30264 -0.17694 0.38103
 C931 C 0.32621 -0.18305 0.35563
 C932 C 0.36279 -0.17452 0.35725
 O933 O 0.40488 -0.14632 0.38533
 C934 C 0.40093 -0.13306 0.41179
 C935 C 0.36804 -0.13762 0.42584
 C936 C 0.35731 -0.12503 0.45297
 C937 C 0.38118 -0.10649 0.46593
 C938 C 0.41467 -0.10034 0.45126
 C939 C 0.42498 -0.11424 0.42403
 H940 H 0.29655 -0.15813 0.42578
 H941 H 0.27505 -0.18395 0.38175
 H942 H 0.38162 -0.17738 0.33825
 H943 H 0.33113 -0.12886 0.46340
 H944 H 0.37276 -0.09605 0.48670
 H945 H 0.45017 -0.10976 0.41215
 C946 C 0.37567 0.34436 -0.14314
 C947 C 0.36759 0.33537 -0.11366
 C948 C 0.34648 0.31259 -0.10762
 C949 C 0.33266 0.29871 -0.13300
 C950 C 0.33993 0.30785 -0.16371
 C951 C 0.36231 0.33082 -0.16872
 O952 O 0.39419 0.36741 -0.14379
 C953 C 0.39763 0.37320 -0.11408
 C954 C 0.38175 0.35426 -0.09469
 C955 C 0.37951 0.35742 -0.06281
 C956 C 0.39379 0.38126 -0.05047
 C957 C 0.41012 0.40114 -0.07002
 C958 C 0.41266 0.39679 -0.10223
 H959 H 0.33995 0.30620 -0.08420
 H960 H 0.31498 0.28157 -0.12861
 H961 H 0.36822 0.33846 -0.19178
 H962 H 0.36626 0.34249 -0.04808
 H963 H 0.39162 0.38444 -0.02577
 H964 H 0.42419 0.41193 -0.11773
 C965 C 1.16102 -0.12453 0.13688
 C966 C 1.18472 -0.10339 0.13230
 C967 C 1.21856 -0.10276 0.14505
 C968 C 1.22849 -0.12490 0.16320
 C969 C 1.20513 -0.14764 0.16755
 C970 C 1.17074 -0.14717 0.15397
 O971 O 1.12966 -0.12070 0.12360
 C972 C 1.13379 -0.09664 0.11021
 C973 C 1.16721 -0.08537 0.11451
 C974 C 1.17778 -0.06067 0.10167
 C975 C 1.15280 -0.04699 0.08373
 C976 C 1.11786 -0.05781 0.07978
 C977 C 1.10813 -0.08295 0.09328
 H978 H 1.23647 -0.08561 0.14162
 H979 H 1.25428 -0.12388 0.17412
 H980 H 1.15203 -0.16393 0.15611
 H981 H 1.20435 -0.05235 0.10514
 H982 H 1.16037 -0.02772 0.07341
 H983 H 1.08168 -0.09167 0.09027
 C984 C 1.15158 0.37841 0.63517
 C985 C 1.17738 0.38783 0.61458
 C986 C 1.21190 0.37771 0.61319
 C987 C 1.22016 0.35680 0.63370
 C988 C 1.19391 0.34615 0.65483
 C989 C 1.15915 0.35745 0.65573
 O990 O 1.12035 0.39074 0.63235
 C991 C 1.12664 0.40824 0.60942
 C992 C 1.16112 0.40714 0.59772
 C993 C 1.17332 0.42302 0.57304
 C994 C 1.14897 0.44082 0.55982
 C995 C 1.11329 0.44257 0.57154
 C996 C 1.10202 0.42608 0.59683
 H997 H 1.23178 0.38561 0.59687
 H998 H 1.24712 0.34897 0.63311
 H999 H 1.13840 0.34974 0.67134
 H1000 H 1.20051 0.42159 0.56410
 H1001 H 1.15800 0.45328 0.54048
 H1002 H 1.07487 0.42678 0.60603
 C1003 C 0.66175 -0.12507 0.65203
 C1004 C 0.68918 -0.11579 0.63293
 C1005 C 0.72417 -0.12488 0.63507
 C1006 C 0.73114 -0.14439 0.65777
 C1007 C 0.70322 -0.15462 0.67741
 C1008 C 0.66796 -0.14486 0.67440
 O1009 O 0.63064 -0.11336 0.64657
 C1010 C 0.63860 -0.09643 0.62345
 C1011 C 0.67399 -0.09730 0.61407
 C1012 C 0.68793 -0.08159 0.58983
 C1013 C 0.66445 -0.06417 0.57472
 C1014 C 0.62802 -0.06246 0.58440
 C1015 C 0.61496 -0.07888 0.60913
 H1016 H 0.74534 -0.11719 0.61988
 H1017 H 0.75815 -0.15189 0.65976
 H1018 H 0.64623 -0.15229 0.68919
 H1019 H 0.71584 -0.08275 0.58276
 H1020 H 0.67478 -0.05170 0.55586
 H1021 H 0.58721 -0.07817 0.61685
 C1022 C 0.64057 0.36350 0.13570
 C1023 C 0.65309 0.36050 0.10583
 C1024 C 0.67805 0.34113 0.09744
 C1025 C 0.69063 0.32414 0.12080
 C1026 C 0.67852 0.32703 0.15188
 C1027 C 0.65318 0.34709 0.15942
 O1028 O 0.61661 0.38298 0.13864
 C1029 C 0.61412 0.39256 0.11003
 C1030 C 0.63609 0.37961 0.08914
 C1031 C 0.63849 0.38686 0.05807
 C1032 C 0.61744 0.40841 0.04813
 C1033 C 0.59422 0.42189 0.06911
 C1034 C 0.59241 0.41371 0.10050
 H1035 H 0.68746 0.33914 0.07376
 H1036 H 0.71021 0.30897 0.11484
 H1037 H 0.64339 0.34963 0.18292
 H1038 H 0.65615 0.37646 0.04212
 H1039 H 0.61902 0.41445 0.02404
 H1040 H 0.57518 0.42381 0.11706
 C1041 C 0.86513 0.14417 0.13266
 C1042 C 0.84802 0.14475 0.10478
 C1043 C 0.82161 0.16331 0.09797
 C1044 C 0.81216 0.18188 0.12099
 C1045 C 0.82878 0.18131 0.15021
 C1046 C 0.85584 0.16224 0.15601
 O1047 O 0.88910 0.12465 0.13454
 C1048 C 0.88688 0.11254 0.10734
 C1049 C 0.86195 0.12395 0.08839
 C1050 C 0.85401 0.11370 0.05946
 C1051 C 0.87264 0.09079 0.04960
 C1052 C 0.89903 0.07895 0.06840
 C1053 C 0.90627 0.09006 0.09771
 H1054 H 0.80839 0.16325 0.07592
 H1055 H 0.79100 0.19607 0.11647
 H1056 H 0.86880 0.16127 0.17817
 H1057 H 0.83388 0.12279 0.04516
 H1058 H 0.86652 0.08232 0.02731
 H1059 H 0.92590 0.08124 0.11274
 C1060 C 0.85240 0.64143 0.63726
 C1061 C 0.82961 0.63741 0.61306
 C1062 C 0.79748 0.65100 0.61029
 C1063 C 0.78843 0.66955 0.63340
 C1064 C 0.81143 0.67425 0.65869
 C1065 C 0.84392 0.65982 0.66057
 O1066 O 0.88139 0.62613 0.63564
 C1067 C 0.87669 0.61214 0.60989
 C1068 C 0.84540 0.61832 0.59526
 C1069 C 0.83477 0.60580 0.56822
 C1070 C 0.85721 0.58595 0.55582
 C1071 C 0.88961 0.57906 0.57047
 C1072 C 0.89957 0.59253 0.59784
 H1073 H 0.77986 0.64731 0.59114
 H1074 H 0.76314 0.67993 0.63183
 H1075 H 0.86215 0.66295 0.67942
 H1076 H 0.80995 0.61098 0.55719
 H1077 H 0.84920 0.57589 0.53485
 H1078 H 0.92400 0.58763 0.60964
 C1079 C 0.36131 0.14223 0.63687
 C1080 C 0.34900 0.14271 0.60714
 C1081 C 0.32116 0.15909 0.59790
 C1082 C 0.30522 0.17565 0.62027
 C1083 C 0.31696 0.17533 0.65133
 C1084 C 0.34572 0.15845 0.65957
 O1085 O 0.38719 0.12444 0.64102
 C1086 C 0.39114 0.11338 0.61329
 C1087 C 0.36829 0.12385 0.59180
 C1088 C 0.36619 0.11416 0.56184
 C1089 C 0.38815 0.09248 0.55380
 C1090 C 0.41187 0.08123 0.57551
 C1091 C 0.41388 0.09215 0.60555
 H1092 H 0.31191 0.15903 0.57434
 H1093 H 0.28381 0.18879 0.61330
 H1094 H 0.35502 0.15739 0.68309
 H1095 H 0.34763 0.12250 0.54550
 H1096 H 0.38637 0.08421 0.53075
 H1097 H 0.43120 0.08352 0.62271
 C1098 C 0.35995 0.64496 0.13520
 C1099 C 0.34240 0.64457 0.10753
 C1100 C 0.31574 0.66273 0.10020
 C1101 C 0.30626 0.68183 0.12254
 C1102 C 0.32328 0.68237 0.15161
 C1103 C 0.35106 0.66395 0.15776
 O1104 O 0.38327 0.62504 0.13797
 C1105 C 0.38019 0.61177 0.11153
 C1106 C 0.35546 0.62293 0.09219
 C1107 C 0.34641 0.61158 0.06409
 C1108 C 0.36345 0.58765 0.05554
 C1109 C 0.38915 0.57565 0.07495
 C1110 C 0.39790 0.58808 0.10326
 H1111 H 0.30220 0.66187 0.07832
 H1112 H 0.28522 0.69595 0.11741
 H1113 H 0.36406 0.66357 0.17992
 H1114 H 0.32652 0.62060 0.04948
 H1115 H 0.35653 0.57846 0.03377
 H1116 H 0.41709 0.57922 0.11869
   
