data_POSCAR
  _audit_creation_date              2014-09-24
  _audit_creation_method            'ToBaCCo'
  _symmetry_space_group_name_H-M    'P1'
  _symmetry_Int_Tables_number       1
  _symmetry_cell_setting            triclinic
  loop_
  _symmetry_equiv_pos_as_xyz
 x,y,z
_cell_length_a 26.3658
_cell_length_b 26.4154
_cell_length_c 52.0980
_cell_angle_alpha 85.946100
_cell_angle_beta 91.346600
_cell_angle_gamma 118.958200
loop_
  _atom_site_label
  _atom_site_type_symbol
  _atom_site_fract_x
  _atom_site_fract_y
  _atom_site_fract_z
C1 C 0.00281 0.11770 0.50874
 H2 H 0.03749 0.13396 0.49472
 C3 C -0.00440 0.15732 0.52229
 H4 H 0.02482 0.20313 0.51815
 C5 C -0.07546 0.03906 0.53155
 H6 H -0.10241 -0.00719 0.53542
 C7 C -0.08385 0.07751 0.54587
 H8 H -0.11767 0.06036 0.56048
 N9 N -0.03186 0.05964 0.51368
 C10 C 0.02303 -0.07232 0.50907
 H11 H 0.03157 -0.06851 0.48866
 C12 C 0.02728 -0.11532 0.52462
 H13 H 0.03893 -0.14430 0.51586
 C14 C -0.00401 -0.04020 0.54500
 H15 H -0.01639 -0.01112 0.55295
 C16 C -0.00096 -0.08309 0.56123
 H17 H -0.01119 -0.08637 0.58149
 Zn18 Zn -0.01235 0.01032 0.49584
 N19 N 0.00578 -0.03701 0.51925
 C20 C 0.10721 0.07533 0.48180
 N21 N 0.05201 0.05846 0.47407
 C22 C 0.04094 0.08094 0.45172
 C23 C 0.08633 0.12332 0.43643
 C24 C 0.15409 0.11791 0.46708
 C25 C -0.13008 -0.05664 0.47912
 C26 C -0.17331 -0.09864 0.46452
 C27 C -0.09860 -0.10414 0.44086
 C28 C -0.05723 -0.06253 0.45595
 N29 N -0.07334 -0.04020 0.47488
 H30 H 0.11479 0.05750 0.49989
 H31 H -0.00340 0.06753 0.44629
 H32 H 0.07623 0.14153 0.41906
 H33 H 0.19772 0.13199 0.47388
 H34 H -0.14215 -0.03829 0.49416
 H35 H -0.21816 -0.11154 0.46871
 H36 H -0.08362 -0.12113 0.42622
 H37 H -0.01186 -0.04838 0.45266
 C38 C 0.01325 -0.12241 0.55092
 C39 C -0.04740 0.13761 0.54150
 C40 C -0.15806 -0.12401 0.44522
 C41 C 0.14384 0.14332 0.44430
 C42 C 1.14391 0.04671 0.15596
 H43 H 1.15793 0.08103 0.16889
 C44 C 1.18570 0.04125 0.14242
 H45 H 1.23099 0.07136 0.14545
 C46 C 1.06856 -0.03230 0.13580
 H47 H 1.02276 -0.06026 0.13293
 C48 C 1.10919 -0.03898 0.12160
 H49 H 1.09409 -0.07254 0.10810
 N50 N 1.08643 0.01085 0.15227
 C51 C 0.95488 0.06743 0.15461
 H52 H 0.95738 0.07731 0.17451
 C53 C 0.91339 0.07163 0.13877
 H54 H 0.88412 0.08446 0.14677
 C55 C 0.98858 0.03699 0.12029
 H56 H 1.01756 0.02323 0.11304
 C57 C 0.94711 0.03962 0.10391
 H58 H 0.94484 0.02776 0.08427
 Zn59 Zn 1.03370 0.02785 0.16953
 N60 N 0.99012 0.04837 0.14545
 C61 C 1.09587 0.14549 0.18296
 N62 N 1.07779 0.08911 0.19083
 C63 C 1.09610 0.07436 0.21330
 C64 C 1.13526 0.11711 0.22864
 C65 C 1.13538 0.18988 0.19774
 C66 C 0.96788 -0.09158 0.18901
 C67 C 0.92355 -0.13687 0.20398
 C68 C 0.90631 -0.06638 0.22361
 C69 C 0.95044 -0.02277 0.20823
 N70 N 0.97959 -0.03587 0.19102
 H71 H 1.08142 0.15606 0.16477
 H72 H 1.08179 0.02919 0.21884
 H73 H 1.15012 0.10412 0.24614
 H74 H 1.15051 0.23457 0.19088
 H75 H 0.99191 -0.10126 0.17552
 H76 H 0.91402 -0.18105 0.20175
 H77 H 0.88334 -0.05456 0.23683
 H78 H 0.96127 0.02185 0.20996
 C79 C 0.90767 0.05538 0.11335
 C80 C 1.16872 -0.00125 0.12458
 C81 C 0.89157 -0.12450 0.22132
 C82 C 1.15640 0.17585 0.22070
 C83 C 0.04902 0.92936 0.86691
 H84 H 0.01053 0.88828 0.86450
 C85 C 0.09421 0.93124 0.88189
 H86 H 0.09000 0.89129 0.89107
 C87 C 0.10093 1.03113 0.85748
 H88 H 0.10339 1.06967 0.84762
 C89 C 0.14701 1.03515 0.87278
 H90 H 0.18493 1.07705 0.87461
 N91 N 0.05323 0.97866 0.85493
 C92 C -0.12720 0.93521 0.84486
 H93 H -0.13322 0.92927 0.82446
 C94 C -0.17206 0.93212 0.85984
 H95 H -0.21273 0.92269 0.85070
 C96 C -0.06534 0.95840 0.88088
 H97 H -0.02315 0.97039 0.88888
 C98 C -0.10832 0.95717 0.89640
 H99 H -0.09849 0.96708 0.91632
 Zn100 Zn -0.01065 0.96674 0.83415
 N101 N -0.07499 0.94863 0.85551
 C102 C -0.07342 0.85455 0.81363
 N103 N -0.02325 0.90592 0.81337
 C104 C 0.02343 0.91529 0.79916
 C105 C 0.02060 0.87275 0.78396
 C106 C -0.07806 0.81041 0.79876
 C107 C 0.00503 1.07900 0.82528
 C108 C 0.00562 1.12591 0.81084
 C109 C 0.00542 1.08081 0.77206
 C110 C 0.00377 1.03432 0.78723
 N111 N 0.00319 1.03400 0.81335
 H112 H -0.10948 0.84737 0.82562
 H113 H 0.06320 0.95608 0.79979
 H114 H 0.05851 0.88149 0.77285
 H115 H -0.11822 0.76973 0.79921
 H116 H 0.00348 1.07721 0.84608
 H117 H 0.00535 1.16053 0.82070
 H118 H 0.00431 1.07946 0.75132
 H119 H 0.00063 0.99761 0.77801
 C120 C -0.16235 0.94515 0.88586
 C121 C 0.14407 0.98454 0.88494
 C122 C 0.00493 1.12672 0.78386
 C123 C -0.03055 0.81933 0.78364
 C124 C 0.46259 -0.01139 -0.01103
 C125 C 0.47026 0.00049 0.01522
 C126 C 0.52163 0.00863 0.02725
 C127 C 0.56431 0.00272 0.01418
 C128 C 0.55540 -0.01161 -0.01194
 C129 C 0.50435 -0.01863 -0.02402
 H130 H 0.49806 -0.02738 -0.04420
 H131 H 0.52761 0.01749 0.04742
 C132 C -0.04150 0.43034 0.65077
 C133 C -0.04554 0.42358 0.67802
 C134 C -0.04850 0.46644 0.69145
 C135 C -0.04299 0.51748 0.67875
 C136 C -0.03545 0.52587 0.65167
 C137 C -0.03551 0.48176 0.63812
 H138 H -0.03204 0.48701 0.61730
 H139 H -0.05147 0.46195 0.71229
 C140 C 0.55731 0.56685 0.32009
 C141 C 0.55275 0.56608 0.34717
 C142 C 0.50528 0.51964 0.36023
 C143 C 0.46182 0.47443 0.34700
 C144 C 0.46541 0.47623 0.31982
 C145 C 0.51330 0.52219 0.30681
 H146 H 0.51642 0.52318 0.28604
 H147 H 0.50220 0.51857 0.38100
 C148 C -0.05272 0.25944 0.58745
 N149 N -0.08791 0.20178 0.59305
 N150 N -0.08728 0.16281 0.57826
 C151 C -0.05148 0.18010 0.55732
 N152 N -0.01685 0.23781 0.55173
 N153 N -0.01746 0.27663 0.56645
 C154 C -0.05097 0.30310 0.60397
 N155 N -0.01357 0.36011 0.59826
 N156 N -0.01046 0.40024 0.61325
 C157 C -0.04437 0.38497 0.63467
 N158 N -0.08241 0.32791 0.64024
 N159 N -0.08546 0.28765 0.62523
 C160 C 0.74932 0.74351 0.26324
 N161 N 0.76845 0.80006 0.26723
 N162 N 0.81390 0.84173 0.25408
 C163 C 0.84224 0.82863 0.23647
 N164 N 0.82316 0.77190 0.23260
 N165 N 0.77759 0.73014 0.24574
 C166 C 0.69888 0.69775 0.27768
 N167 N 0.67843 0.64112 0.27330
 N168 N 0.63312 0.59969 0.28666
 C169 C 0.60677 0.61329 0.30499
 N170 N 0.62667 0.67001 0.30907
 N171 N 0.67194 0.71145 0.29569
 C172 C 0.28020 -0.01219 -0.07064
 N173 N 0.27417 0.03604 -0.07427
 N174 N 0.23127 0.03541 -0.08857
 C175 C 0.19257 -0.01365 -0.09958
 N176 N 0.19876 -0.06178 -0.09587
 N177 N 0.24185 -0.06101 -0.08178
 C178 C 0.32729 -0.01197 -0.05497
 N179 N 0.33997 -0.05594 -0.05564
 N180 N 0.38276 -0.05595 -0.04155
 C181 C 0.41390 -0.01241 -0.02598
 N182 N 0.40128 0.03163 -0.02532
 N183 N 0.35878 0.03188 -0.03959
 C184 C -0.00366 0.73073 0.59492
 N185 N 0.02467 0.74687 0.57188
 N186 N 0.03105 0.79413 0.55816
 C187 C 0.00979 0.82742 0.56701
 N188 N -0.01800 0.81150 0.59022
 N189 N -0.02464 0.76407 0.60390
 C190 C -0.01227 0.67757 0.60964
 N191 N -0.04639 0.65750 0.63110
 N192 N -0.05425 0.60917 0.64436
 C193 C -0.02791 0.57929 0.63682
 N194 N 0.00556 0.59909 0.61513
 N195 N 0.01321 0.64724 0.60179
 C196 C 0.28887 0.30442 0.26234
 N197 N 0.26756 0.31926 0.24085
 N198 N 0.22502 0.27860 0.22776
 C199 C 0.20202 0.22157 0.23570
 N200 N 0.22334 0.20701 0.25729
 N201 N 0.26583 0.24757 0.27036
 C202 C 0.33585 0.34893 0.27681
 N203 N 0.35706 0.33359 0.29818
 N204 N 0.39876 0.37388 0.31170
 C205 C 0.42060 0.43106 0.30443
 N206 N 0.40017 0.44632 0.28275
 N207 N 0.35849 0.40602 0.26922
 C208 C 0.71749 -0.03776 -0.07152
 N209 N 0.77105 -0.02245 -0.06216
 N210 N 0.80929 -0.02916 -0.07573
 C211 C 0.79588 -0.05086 -0.09935
 N212 N 0.74203 -0.06624 -0.10863
 N213 N 0.70346 -0.06022 -0.09491
 C214 C 0.67569 -0.02995 -0.05652
 N215 N 0.61809 -0.06024 -0.06121
 N216 N 0.58018 -0.05427 -0.04701
 C217 C 0.59832 -0.01763 -0.02766
 N218 N 0.65615 0.01397 -0.02360
 N219 N 0.69406 0.00749 -0.03755
 C220 C 0.29561 -0.00369 0.07821
 N221 N 0.23844 -0.03936 0.07402
 N222 N 0.19799 -0.03942 0.08894
 C223 C 0.21317 -0.00387 0.10864
 N224 N 0.27043 0.03144 0.11282
 N225 N 0.31081 0.03148 0.09796
 C226 C 0.34058 -0.00239 0.06162
 N227 N 0.39750 0.03310 0.06629
 N228 N 0.43855 0.03455 0.05135
 C229 C 0.42433 0.00091 0.03102
 N230 N 0.36730 -0.03482 0.02646
 N231 N 0.32620 -0.03632 0.04140
 C232 C 0.72004 0.74553 0.40474
 N233 N 0.70385 0.76958 0.42286
 N234 N 0.74359 0.81253 0.43599
 C235 C 0.80122 0.83326 0.43157
 N236 N 0.81695 0.80898 0.41328
 N237 N 0.77731 0.76616 0.40015
 C238 C 0.67659 0.69817 0.39019
 N239 N 0.69340 0.67531 0.37177
 N240 N 0.65419 0.63303 0.35821
 C241 C 0.59666 0.61217 0.36250
 N242 N 0.57988 0.63436 0.38125
 N243 N 0.61910 0.67668 0.39481
 C244 C -0.01516 0.25362 0.73872
 N245 N 0.00611 0.22207 0.72819
 N246 N 0.01325 0.18232 0.74259
 C247 C 0.00000 0.17300 0.76814
 N248 N -0.02074 0.20506 0.77869
 N249 N -0.02829 0.24451 0.76425
 C250 C -0.02422 0.29654 0.72275
 N251 N -0.05434 0.32091 0.73212
 N252 N -0.06232 0.36007 0.71766
 C253 C -0.04065 0.37635 0.69325
 N254 N -0.00997 0.35228 0.68407
 N255 N -0.00234 0.31279 0.69843
 C256 C 0.76340 0.03544 0.07036
 N257 N 0.79277 0.00736 0.06454
 N258 N 0.83946 0.01492 0.07781
 C259 C 0.85847 0.05064 0.09748
 N260 N 0.82907 0.07882 0.10323
 N261 N 0.78264 0.07165 0.08982
 C262 C 0.71138 0.02636 0.05600
 N263 N 0.68843 0.06205 0.05828
 N264 N 0.64176 0.05434 0.04496
 C265 C 0.61619 0.01064 0.02887
 N266 N 0.63823 -0.02607 0.02719
 N267 N 0.68523 -0.01806 0.04033
 C268 C 0.27955 0.28524 0.40341
 N269 N 0.22407 0.26337 0.39530
 N270 N 0.18125 0.21788 0.40811
 C271 C 0.19213 0.19229 0.42950
 N272 N 0.24780 0.21414 0.43752
 N273 N 0.29070 0.25967 0.42469
 C274 C 0.32661 0.33552 0.38924
 N275 N 0.38236 0.35704 0.39699
 N276 N 0.42513 0.40173 0.38372
 C277 C 0.41377 0.42643 0.36218
 N278 N 0.35785 0.40564 0.35476
 N279 N 0.31509 0.36094 0.36801
 C280 C -0.03690 0.68958 0.73941
 N281 N -0.08129 0.67788 0.75570
 N282 N -0.07958 0.71905 0.76967
 C283 C -0.03340 0.77344 0.76791
 N284 N 0.01084 0.78489 0.75157
 N285 N 0.00910 0.74386 0.73757
 C286 C -0.03838 0.64461 0.72391
 N287 N 0.00488 0.65777 0.70672
 N288 N 0.00351 0.61736 0.69238
 C289 C -0.04131 0.56233 0.69464
 N290 N -0.08409 0.54889 0.71214
 N291 N -0.08278 0.58937 0.72645
   
