data_POSCAR
  _audit_creation_date              2014-09-24
  _audit_creation_method            'ToBaCCo'
  _symmetry_space_group_name_H-M    'P1'
  _symmetry_Int_Tables_number       1
  _symmetry_cell_setting            triclinic
  loop_
  _symmetry_equiv_pos_as_xyz
 x,y,z
_cell_length_a 34.7311
_cell_length_b 34.7028
_cell_length_c 34.7470
_cell_angle_alpha 89.999400
_cell_angle_beta 90.000600
_cell_angle_gamma 89.999600
loop_
  _atom_site_label
  _atom_site_type_symbol
  _atom_site_fract_x
  _atom_site_fract_y
  _atom_site_fract_z
N1 N 0.31180 0.30958 1.30762
 N2 N 1.19376 0.69149 0.81038
 N3 N 0.68824 -0.19039 0.19235
 N4 N -0.19370 1.19150 -0.31040
 N5 N 0.69376 0.69149 0.68960
 N6 N 0.81182 0.30958 0.19235
 N7 N 0.30630 0.19151 0.81040
 N8 N 0.18827 0.80957 0.30763
 Zn9 Zn -0.05196 1.01871 -0.00334
 Zn10 Zn 0.02757 1.02935 0.02898
 Zn11 Zn -0.00521 0.95002 0.01787
 Zn12 Zn 0.01630 0.99707 -0.05045
 O13 O -0.00325 0.99887 -0.00166
 O14 O -0.05642 1.06160 0.02453
 O15 O 0.04719 1.00349 0.06945
 O16 O -0.05287 0.93527 0.03082
 O17 O 0.00206 1.06995 0.04876
 O18 O -0.08767 0.98647 0.01530
 O19 O 0.02252 0.94520 0.06071
 O20 O 0.02950 0.94944 -0.06522
 O21 O 0.06810 1.04900 0.00325
 O22 O 0.01347 0.91437 -0.01440
 O23 O 0.05908 1.02501 -0.05522
 O24 O -0.01615 1.01554 -0.08605
 O25 O -0.06688 1.03173 -0.05091
 C26 C -0.03273 1.08040 0.04491
 C27 C 0.04303 0.96863 0.07968
 C28 C -0.08483 0.95278 0.02906
 C29 C 0.02759 0.91737 -0.04788
 C30 C 0.07817 1.04525 -0.03165
 C31 C -0.04969 1.02958 -0.08301
 Zn32 Zn 0.49478 -0.04997 0.48213
 Zn33 Zn 0.51629 -0.00292 0.55045
 Zn34 Zn 0.52755 0.02936 0.47102
 Zn35 Zn 0.44802 0.01872 0.50334
 O36 O 0.49674 -0.00112 0.50166
 O37 O 0.51347 -0.08562 0.51440
 O38 O 0.55906 0.02502 0.55521
 O39 O 0.54717 0.00350 0.43055
 O40 O 0.52949 -0.05055 0.56522
 O41 O 0.52251 -0.05479 0.43929
 O42 O 0.56808 0.04901 0.49675
 O43 O 0.44356 0.06160 0.47546
 O44 O 0.48383 0.01555 0.58605
 O45 O 0.50204 0.06997 0.45124
 O46 O 0.43310 0.03173 0.55091
 O47 O 0.41231 -0.01353 0.48470
 O48 O 0.44713 -0.06473 0.46918
 C49 C 0.52759 -0.08261 0.54788
 C50 C 0.57816 0.04526 0.53165
 C51 C 0.54301 -0.03135 0.42032
 C52 C 0.46724 0.08041 0.45509
 C53 C 0.45029 0.02959 0.58301
 C54 C 0.41516 -0.04722 0.47094
 Zn55 Zn 1.00527 0.45002 0.48211
 Zn56 Zn 1.05203 0.51871 0.50333
 Zn57 Zn 0.97249 0.52935 0.47101
 Zn58 Zn 0.98376 0.49706 0.55044
 O59 O 1.00331 0.49887 0.50165
 O60 O 1.05292 0.43527 0.46916
 O61 O 1.05649 0.56160 0.47546
 O62 O 0.95288 0.50350 0.43053
 O63 O 1.08773 0.48646 0.48469
 O64 O 0.97754 0.44521 0.43927
 O65 O 0.99801 0.56996 0.45123
 O66 O 0.94099 0.52501 0.55520
 O67 O 1.06694 0.53172 0.55090
 O68 O 0.93196 0.54901 0.49673
 O69 O 1.01621 0.51554 0.58604
 O70 O 0.97056 0.44944 0.56520
 O71 O 0.98658 0.41437 0.51438
 C72 C 1.08489 0.45277 0.47093
 C73 C 1.03281 0.58040 0.45508
 C74 C 0.95704 0.46865 0.42030
 C75 C 0.92189 0.54525 0.53164
 C76 C 1.04975 0.52957 0.58300
 C77 C 0.97246 0.41737 0.54787
 Zn78 Zn 0.50528 0.45003 1.01788
 Zn79 Zn 0.47250 0.52936 1.02898
 Zn80 Zn 0.55203 0.51872 0.99666
 Zn81 Zn 0.48377 0.49708 0.94955
 O82 O 0.50331 0.49888 0.99835
 O83 O 0.47754 0.44522 1.06072
 O84 O 0.49801 0.56997 1.04876
 O85 O 0.58774 0.48648 1.01531
 O86 O 0.45288 0.50351 1.06945
 O87 O 0.55293 0.43528 1.03083
 O88 O 0.55649 0.56161 1.02454
 O89 O 0.51622 0.51555 0.91395
 O90 O 0.43197 0.54902 1.00325
 O91 O 0.56695 0.53173 0.94909
 O92 O 0.44099 0.52503 0.94479
 O93 O 0.47056 0.44945 0.93479
 O94 O 0.48659 0.41438 0.98561
 C95 C 0.45704 0.46865 1.07968
 C96 C 0.53281 0.58041 1.04491
 C97 C 0.58489 0.45279 1.02907
 C98 C 0.54976 0.52958 0.91700
 C99 C 0.42189 0.54527 0.96835
 C100 C 0.47247 0.41739 0.95212
 C101 C 1.17833 0.40241 0.42012
 C102 C 1.19159 0.36541 0.43101
 C103 C 1.22087 0.34696 0.40915
 C104 C 1.23671 0.36567 0.37658
 C105 C 1.22454 0.40329 0.36661
 C106 C 1.19525 0.42172 0.38843
 C107 C 1.18329 0.45921 0.37765
 C108 C 1.19984 0.47794 0.34626
 C109 C 1.22852 0.45991 0.32495
 C110 C 1.24083 0.42302 0.33487
 C111 C 1.23341 0.30981 0.42032
 C112 C 1.21758 0.29145 0.45229
 C113 C 1.18896 0.30949 0.47368
 C114 C 1.17596 0.34604 0.46326
 C115 C 1.26431 0.34570 0.35241
 C116 C 1.28662 0.32898 0.33173
 C117 C 1.14599 0.41985 0.44008
 C118 C 1.11842 0.43463 0.45513
 H119 H 1.16117 0.47449 0.39341
 H120 H 1.19038 0.50662 0.33846
 H121 H 1.24132 0.47458 0.30061
 H122 H 1.26330 0.41022 0.31750
 H123 H 1.25559 0.29464 0.40457
 H124 H 1.22757 0.26305 0.46048
 H125 H 1.17675 0.29511 0.49848
 H126 H 1.15370 0.35897 0.48081
 C127 C 0.32735 0.59721 0.92140
 C128 C 0.31357 0.63363 0.93352
 C129 C 0.28398 0.65237 0.91231
 C130 C 0.26842 0.63455 0.87911
 C131 C 0.28101 0.59740 0.86798
 C132 C 0.31057 0.57867 0.88917
 C133 C 0.32296 0.54168 0.87720
 C134 C 0.30657 0.52373 0.84527
 C135 C 0.27764 0.54206 0.82458
 C136 C 0.26490 0.57847 0.83567
 C137 C 0.27086 0.68890 0.92475
 C138 C 0.28647 0.70642 0.95730
 C139 C 0.31543 0.68811 0.97802
 C140 C 0.32898 0.65214 0.96636
 C141 C 0.24086 0.65505 0.85532
 C142 C 0.21870 0.67200 0.83467
 C143 C 0.36012 0.57960 0.94052
 C144 C 0.38803 0.56436 0.95446
 H145 H 0.34529 0.52618 0.89243
 H146 H 0.31637 0.49543 0.83657
 H147 H 0.26496 0.52799 0.79983
 H148 H 0.24221 0.59150 0.81876
 H149 H 0.24836 0.70421 0.90958
 H150 H 0.27603 0.73434 0.96648
 H151 H 0.32746 0.70184 1.00327
 H152 H 0.35147 0.63896 0.98343
 C153 C -0.17828 0.90243 0.07987
 C154 C -0.19154 0.86542 0.06898
 C155 C -0.22082 0.84698 0.09084
 C156 C -0.23666 0.86569 0.12340
 C157 C -0.22450 0.90331 0.13337
 C158 C -0.19520 0.92174 0.11156
 C159 C -0.18324 0.95922 0.12234
 C160 C -0.19980 0.97796 0.15372
 C161 C -0.22847 0.95993 0.17504
 C162 C -0.24078 0.92304 0.16511
 C163 C -0.23337 0.80983 0.07966
 C164 C -0.21754 0.79147 0.04770
 C165 C -0.18891 0.80951 0.02631
 C166 C -0.17591 0.84605 0.03673
 C167 C -0.26427 0.84572 0.14757
 C168 C -0.28658 0.82901 0.16825
 C169 C -0.14594 0.91987 0.05991
 C170 C -0.11837 0.93464 0.04486
 H171 H -0.16112 0.97450 0.10658
 H172 H -0.19033 1.00664 0.16152
 H173 H -0.24128 0.97460 0.19937
 H174 H -0.26326 0.91025 0.18248
 H175 H -0.25555 0.79466 0.09541
 H176 H -0.22752 0.76307 0.03951
 H177 H -0.17670 0.79512 0.00151
 H178 H -0.15365 0.85898 0.01918
 C179 C 0.67270 0.09721 0.57859
 C180 C 0.68948 0.07867 0.61083
 C181 C 0.71905 0.09740 0.63201
 C182 C 0.73163 0.13455 0.62087
 C183 C 0.71607 0.15236 0.58768
 C184 C 0.68648 0.13362 0.56647
 C185 C 0.67108 0.15213 0.53362
 C186 C 0.68463 0.18810 0.52196
 C187 C 0.71359 0.20640 0.54267
 C188 C 0.72920 0.18889 0.57523
 C189 C 0.73516 0.07847 0.66432
 C190 C 0.72241 0.04206 0.67542
 C191 C 0.69347 0.02374 0.65473
 C192 C 0.67709 0.04168 0.62280
 C193 C 0.75919 0.15505 0.64466
 C194 C 0.78136 0.17200 0.66531
 C195 C 0.63994 0.07959 0.55947
 C196 C 0.61203 0.06436 0.54554
 H197 H 0.64859 0.13894 0.51656
 H198 H 0.67260 0.20183 0.49670
 H199 H 0.72404 0.23432 0.53349
 H200 H 0.75170 0.20420 0.59039
 H201 H 0.75784 0.09150 0.68123
 H202 H 0.73509 0.02800 0.70017
 H203 H 0.68368 -0.00457 0.66344
 H204 H 0.65476 0.02618 0.60758
 C205 C 0.42140 0.17525 0.40259
 C206 C 0.43325 0.18807 0.36576
 C207 C 0.41240 0.21781 0.34683
 C208 C 0.37986 0.23448 0.36484
 C209 C 0.36907 0.22288 0.40238
 C210 C 0.38988 0.19315 0.42130
 C211 C 0.37824 0.18174 0.45866
 C212 C 0.34701 0.19924 0.47680
 C213 C 0.32671 0.22836 0.45829
 C214 C 0.33748 0.24015 0.42151
 C215 C 0.42456 0.22996 0.30990
 C216 C 0.45647 0.21327 0.29220
 C217 C 0.47682 0.18416 0.31070
 C218 C 0.46544 0.17155 0.34706
 C219 C 0.35633 0.26217 0.34420
 C220 C 0.33587 0.28447 0.32717
 C221 C 0.44004 0.14234 0.42046
 C222 C 0.45364 0.11434 0.43587
 H223 H 0.39320 0.15932 0.47431
 H224 H 0.33855 0.19019 0.50539
 H225 H 0.30251 0.24192 0.47250
 H226 H 0.32092 0.26302 0.40835
 H227 H 0.40965 0.25254 0.29443
 H228 H 0.46543 0.22298 0.26398
 H229 H 0.50158 0.17128 0.29682
 H230 H 0.48221 0.14890 0.36038
 C231 C 0.92051 0.32423 0.59771
 C232 C 0.93132 0.31043 0.63450
 C233 C 0.90905 0.28130 0.65271
 C234 C 0.87616 0.26614 0.63399
 C235 C 0.86623 0.27886 0.59658
 C236 C 0.88846 0.30800 0.57838
 C237 C 0.87774 0.32051 0.54110
 C238 C 0.84599 0.30464 0.52236
 C239 C 0.82426 0.27613 0.54017
 C240 C 0.83413 0.26328 0.57686
 C241 C 0.92016 0.26821 0.68965
 C242 C 0.95244 0.28337 0.70804
 C243 C 0.97423 0.31185 0.69021
 C244 C 0.96389 0.32537 0.65388
 C245 C 0.85163 0.23868 0.65375
 C246 C 0.83068 0.21651 0.67032
 C247 C 0.94094 0.35644 0.58052
 C248 C 0.95634 0.38392 0.56591
 H249 H 0.89380 0.34253 0.52600
 H250 H 0.83824 0.31452 0.49384
 H251 H 0.79964 0.26387 0.52550
 H252 H 0.81642 0.24097 0.58949
 H253 H 0.90410 0.24613 0.70465
 H254 H 0.96056 0.27298 0.73627
 H255 H 0.99928 0.32354 0.70461
 H256 H 0.98176 0.34750 0.64111
 C257 C 0.07954 0.82423 -0.09773
 C258 C 0.11159 0.80800 -0.07840
 C259 C 0.13383 0.77886 -0.09660
 C260 C 0.12390 0.76614 -0.13401
 C261 C 0.09100 0.78130 -0.15273
 C262 C 0.06873 0.81043 -0.13452
 C263 C 0.03615 0.82537 -0.15389
 C264 C 0.02581 0.81184 -0.19023
 C265 C 0.04760 0.78336 -0.20805
 C266 C 0.07989 0.76821 -0.18967
 C267 C 0.16594 0.76329 -0.07689
 C268 C 0.17580 0.77615 -0.04020
 C269 C 0.15408 0.80466 -0.02239
 C270 C 0.12233 0.82052 -0.04113
 C271 C 0.14842 0.73868 -0.15377
 C272 C 0.16937 0.71651 -0.17034
 C273 C 0.05912 0.85644 -0.08054
 C274 C 0.04371 0.88392 -0.06593
 H275 H 0.01829 0.84749 -0.14113
 H276 H 0.00076 0.82353 -0.20462
 H277 H 0.03948 0.77297 -0.23628
 H278 H 0.09595 0.74612 -0.20467
 H279 H 0.18364 0.74098 -0.08952
 H280 H 0.20043 0.76389 -0.02553
 H281 H 0.16183 0.81454 0.00613
 H282 H 0.10626 0.84254 -0.02602
 C283 C 0.57864 0.67526 1.09740
 C284 C 0.56679 0.68810 1.13421
 C285 C 0.58763 0.71784 1.15314
 C286 C 0.62018 0.73450 1.13513
 C287 C 0.63098 0.72288 1.09761
 C288 C 0.61018 0.69316 1.07869
 C289 C 0.62183 0.68172 1.04134
 C290 C 0.65306 0.69922 1.02321
 C291 C 0.67336 0.72834 1.04171
 C292 C 0.66258 0.74014 1.07849
 C293 C 0.57546 0.73001 1.19006
 C294 C 0.54354 0.71333 1.20776
 C295 C 0.52319 0.68422 1.18926
 C296 C 0.53458 0.67159 1.15292
 C297 C 0.64371 0.76219 1.15577
 C298 C 0.66416 0.78449 1.17280
 C299 C 0.56000 0.64235 1.07953
 C300 C 0.54641 0.61435 1.06412
 H301 H 0.60687 0.65931 1.02569
 H302 H 0.66153 0.69016 0.99462
 H303 H 0.69757 0.74189 1.02750
 H304 H 0.67914 0.76301 1.09164
 H305 H 0.59037 0.75259 1.20553
 H306 H 0.53457 0.72305 1.23597
 H307 H 0.49843 0.67135 1.20314
 H308 H 0.51782 0.64894 1.13959
 C309 C 0.40558 0.42119 1.17417
 C310 C 0.42422 0.38885 1.19069
 C311 C 0.40564 0.36743 1.22018
 C312 C 0.36855 0.37846 1.23295
 C313 C 0.35062 0.41173 1.21762
 C314 C 0.36921 0.43318 1.18811
 C315 C 0.35060 0.46611 1.17295
 C316 C 0.31466 0.47762 1.18664
 C317 C 0.29649 0.45666 1.21551
 C318 C 0.31411 0.42403 1.23088
 C319 C 0.42464 0.33500 1.23600
 C320 C 0.46099 0.32402 1.22307
 C321 C 0.47918 0.34495 1.19422
 C322 C 0.46115 0.37700 1.17810
 C323 C 0.34823 0.35452 1.26050
 C324 C 0.33134 0.33383 1.28267
 C325 C 0.42301 0.44054 1.14146
 C326 C 0.43809 0.45464 1.11356
 H327 H 0.36368 0.48336 1.15054
 H328 H 0.30085 0.50294 1.17479
 H329 H 0.26859 0.46571 1.22605
 H330 H 0.29890 0.40866 1.25330
 H331 H 0.41172 0.31789 1.25860
 H332 H 0.47511 0.29917 1.23553
 H333 H 0.50744 0.33634 1.18428
 H334 H 0.47654 0.39241 1.15583
 C335 C 0.59446 -0.07880 0.32582
 C336 C 0.63084 -0.06682 0.31189
 C337 C 0.64942 -0.08826 0.28237
 C338 C 0.63149 -0.12152 0.26703
 C339 C 0.59439 -0.13254 0.27979
 C340 C 0.57582 -0.11112 0.30928
 C341 C 0.53888 -0.12297 0.32186
 C342 C 0.52084 -0.15500 0.30573
 C343 C 0.53902 -0.17592 0.27687
 C344 C 0.57538 -0.16496 0.26395
 C345 C 0.68594 -0.07597 0.26912
 C346 C 0.70357 -0.04335 0.28451
 C347 C 0.68540 -0.02240 0.31338
 C348 C 0.64946 -0.03390 0.32706
 C349 C 0.65181 -0.14546 0.23947
 C350 C 0.66870 -0.16615 0.21730
 C351 C 0.57704 -0.05946 0.35854
 C352 C 0.56196 -0.04536 0.38644
 H353 H 0.52349 -0.10756 0.34414
 H354 H 0.49257 -0.16361 0.31566
 H355 H 0.52489 -0.20077 0.26440
 H356 H 0.58830 -0.18206 0.24135
 H357 H 0.70115 -0.09133 0.24670
 H358 H 0.73147 -0.03430 0.27398
 H359 H 0.69922 0.00292 0.32524
 H360 H 0.63638 -0.01665 0.34948
 C361 C -0.10065 1.07967 -0.17652
 C362 C -0.13770 1.06866 -0.18946
 C363 C -0.15626 1.09023 -0.21889
 C364 C -0.13763 1.12265 -0.23516
 C365 C -0.09995 1.13271 -0.22333
 C366 C -0.08140 1.11117 -0.19390
 C367 C -0.04386 1.12205 -0.18228
 C368 C -0.02519 1.15324 -0.19931
 C369 C -0.04332 1.17426 -0.22813
 C370 C -0.08027 1.16424 -0.24011
 C371 C -0.19343 1.07891 -0.23116
 C372 C -0.21172 1.04709 -0.21490
 C373 C -0.19358 1.02600 -0.18611
 C374 C -0.15700 1.03656 -0.17339
 C375 C -0.15774 1.14666 -0.26282
 C376 C -0.17444 1.16732 -0.28517
 C377 C -0.08303 1.06000 -0.14410
 C378 C -0.06807 1.04517 -0.11651
 H379 H -0.02850 1.10651 -0.16007
 H380 H 0.00354 1.16111 -0.19010
 H381 H -0.02868 1.19843 -0.24132
 H382 H -0.09313 1.18135 -0.26273
 H383 H -0.20866 1.09441 -0.25346
 H384 H -0.24012 1.03878 -0.22468
 H385 H -0.20791 1.00131 -0.17357
 H386 H -0.14399 1.01923 -0.15100
 C387 C 1.10070 0.57966 0.67651
 C388 C 1.13775 0.56864 0.68946
 C389 C 1.15631 0.59022 0.71888
 C390 C 1.13768 0.62265 0.73515
 C391 C 1.10000 0.63270 0.72332
 C392 C 1.08146 0.61117 0.69389
 C393 C 1.04392 0.62204 0.68226
 C394 C 1.02524 0.65324 0.69928
 C395 C 1.04338 0.67426 0.72811
 C396 C 1.08032 0.66424 0.74009
 C397 C 1.19348 0.57889 0.73116
 C398 C 1.21177 0.54707 0.71490
 C399 C 1.19362 0.52598 0.68612
 C400 C 1.15705 0.53654 0.67339
 C401 C 1.15779 0.64665 0.76281
 C402 C 1.17450 0.66731 0.78516
 C403 C 1.08308 0.55999 0.64409
 C404 C 1.06812 0.54516 0.61651
 H405 H 1.02856 0.60651 0.66005
 H406 H 0.99652 0.66111 0.69008
 H407 H 1.02874 0.69843 0.74129
 H408 H 1.09319 0.68135 0.76271
 H409 H 1.20871 0.59440 0.75347
 H410 H 1.24017 0.53875 0.72469
 H411 H 1.20795 0.50129 0.67358
 H412 H 1.14404 0.51921 0.65100
 C413 C 0.82735 0.59720 0.57858
 C414 C 0.81055 0.57865 0.61080
 C415 C 0.78099 0.59739 0.63199
 C416 C 0.76842 0.63455 0.62086
 C417 C 0.78398 0.65236 0.58767
 C418 C 0.81357 0.63363 0.56646
 C419 C 0.82898 0.65214 0.53362
 C420 C 0.81544 0.68811 0.52197
 C421 C 0.78648 0.70642 0.54269
 C422 C 0.77087 0.68890 0.57523
 C423 C 0.76487 0.57845 0.66429
 C424 C 0.77761 0.54204 0.67538
 C425 C 0.80655 0.52371 0.65469
 C426 C 0.82294 0.54167 0.62277
 C427 C 0.74086 0.65505 0.64465
 C428 C 0.71870 0.67200 0.66531
 C429 C 0.86011 0.57959 0.55946
 C430 C 0.88802 0.56435 0.54552
 H431 H 0.85147 0.63895 0.51656
 H432 H 0.82748 0.70185 0.49672
 H433 H 0.77605 0.73434 0.53351
 H434 H 0.74837 0.70421 0.59040
 H435 H 0.74219 0.59148 0.68120
 H436 H 0.76492 0.52797 0.70013
 H437 H 0.81633 0.49541 0.66339
 H438 H 0.84527 0.52616 0.60754
 C439 C 0.67833 0.40242 1.07988
 C440 C 0.69524 0.42172 1.11159
 C441 C 0.72454 0.40329 1.13340
 C442 C 0.73671 0.36567 1.12341
 C443 C 0.72088 0.34698 1.09083
 C444 C 0.69160 0.36542 1.06898
 C445 C 0.67598 0.34607 1.03671
 C446 C 0.68899 0.30953 1.02628
 C447 C 0.71761 0.29148 1.04767
 C448 C 0.73343 0.30983 1.07964
 C449 C 0.74081 0.42299 1.16516
 C450 C 0.72849 0.45988 1.17510
 C451 C 0.69981 0.47791 1.15379
 C452 C 0.68327 0.45919 1.12238
 C453 C 0.76432 0.34569 1.14757
 C454 C 0.78663 0.32898 1.16825
 C455 C 0.64599 0.41987 1.05992
 C456 C 0.61843 0.43464 1.04487
 H457 H 0.65372 0.35901 1.01916
 H458 H 0.67679 0.29516 1.00147
 H459 H 0.72760 0.26309 1.03947
 H460 H 0.75561 0.29465 1.09539
 H461 H 0.76328 0.41020 1.18252
 H462 H 0.74128 0.47454 1.19944
 H463 H 0.69034 0.50658 1.16160
 H464 H 0.66115 0.47447 1.10663
 C465 C 0.17272 1.09719 -0.07859
 C466 C 0.18950 1.07866 -0.11082
 C467 C 0.21907 1.09739 -0.13200
 C468 C 0.23165 1.13455 -0.12087
 C469 C 0.21609 1.15235 -0.08767
 C470 C 0.18650 1.13361 -0.06646
 C471 C 0.17109 1.15212 -0.03361
 C472 C 0.18464 1.18808 -0.02195
 C473 C 0.21360 1.20639 -0.04266
 C474 C 0.22921 1.18889 -0.07522
 C475 C 0.23518 1.07847 -0.16432
 C476 C 0.22244 1.04206 -0.17541
 C477 C 0.19350 1.02373 -0.15472
 C478 C 0.17711 1.04167 -0.12280
 C479 C 0.25920 1.15505 -0.14465
 C480 C 0.28136 1.17201 -0.16531
 C481 C 0.13996 1.07958 -0.05947
 C482 C 0.11204 1.06434 -0.04554
 H483 H 0.14860 1.13893 -0.01655
 H484 H 0.17261 1.20181 0.00331
 H485 H 0.22404 1.23431 -0.03348
 H486 H 0.25171 1.20420 -0.09038
 H487 H 0.25786 1.09150 -0.18122
 H488 H 0.23512 1.02800 -0.20017
 H489 H 0.18371 0.99543 -0.16343
 H490 H 0.15478 1.02617 -0.10757
 C491 C 0.32173 -0.09759 0.42013
 C492 C 0.30480 -0.07828 0.38844
 C493 C 0.27551 -0.09671 0.36662
 C494 C 0.26335 -0.13434 0.37659
 C495 C 0.27919 -0.15305 0.40915
 C496 C 0.30847 -0.13460 0.43102
 C497 C 0.32410 -0.15397 0.46327
 C498 C 0.31111 -0.19051 0.47369
 C499 C 0.28249 -0.20856 0.45229
 C500 C 0.26665 -0.19020 0.42033
 C501 C 0.25922 -0.07700 0.33487
 C502 C 0.27153 -0.04010 0.32495
 C503 C 0.30020 -0.02206 0.34627
 C504 C 0.31676 -0.04079 0.37766
 C505 C 0.23575 -0.15432 0.35242
 C506 C 0.21345 -0.17103 0.33173
 C507 C 0.35406 -0.08015 0.44009
 C508 C 0.38163 -0.06537 0.45514
 H509 H 0.34636 -0.14103 0.48082
 H510 H 0.32332 -0.20490 0.49849
 H511 H 0.27251 -0.23696 0.46048
 H512 H 0.24448 -0.20538 0.40458
 H513 H 0.23676 -0.08979 0.31751
 H514 H 0.25873 -0.02543 0.30062
 H515 H 0.30966 0.00662 0.33847
 H516 H 0.33887 -0.02551 0.39342
 C517 C 0.57955 -0.17575 0.59773
 C518 C 0.61160 -0.19198 0.57840
 C519 C 0.63384 -0.22112 0.59660
 C520 C 0.62390 -0.23384 0.63400
 C521 C 0.59101 -0.21870 0.65272
 C522 C 0.56874 -0.18956 0.63451
 C523 C 0.53616 -0.17463 0.65389
 C524 C 0.52582 -0.18816 0.69022
 C525 C 0.54761 -0.21664 0.70804
 C526 C 0.57990 -0.23179 0.68966
 C527 C 0.66594 -0.23669 0.57688
 C528 C 0.67581 -0.22383 0.54020
 C529 C 0.65408 -0.19531 0.52239
 C530 C 0.62233 -0.17946 0.54113
 C531 C 0.64843 -0.26131 0.65375
 C532 C 0.66938 -0.28349 0.67032
 C533 C 0.55912 -0.14355 0.58054
 C534 C 0.54371 -0.11607 0.56593
 H535 H 0.51830 -0.15250 0.64113
 H536 H 0.50077 -0.17647 0.70462
 H537 H 0.53949 -0.22703 0.73627
 H538 H 0.59596 -0.25388 0.70465
 H539 H 0.68365 -0.25900 0.58950
 H540 H 0.70044 -0.23608 0.52553
 H541 H 0.66184 -0.18543 0.49387
 H542 H 0.60627 -0.15743 0.52602
 C543 C 1.07865 0.67524 0.40258
 C544 C 1.11018 0.69314 0.42130
 C545 C 1.13099 0.72286 0.40237
 C546 C 1.12020 0.73447 0.36484
 C547 C 1.08765 0.71780 0.34683
 C548 C 1.06681 0.68807 0.36576
 C549 C 1.03461 0.67155 0.34705
 C550 C 1.02323 0.68417 0.31070
 C551 C 1.04359 0.71328 0.29220
 C552 C 1.07550 0.72996 0.30990
 C553 C 1.16259 0.74012 0.42150
 C554 C 1.17336 0.72833 0.45828
 C555 C 1.15306 0.69922 0.47679
 C556 C 1.12182 0.68172 0.45866
 C557 C 1.14374 0.76216 0.34420
 C558 C 1.16419 0.78445 0.32717
 C559 C 1.06001 0.64233 0.42046
 C560 C 1.04641 0.61433 0.43587
 H561 H 1.01784 0.64891 0.36038
 H562 H 0.99847 0.67129 0.29682
 H563 H 1.03462 0.72299 0.26398
 H564 H 1.09041 0.75253 0.29443
 H565 H 1.17915 0.76299 0.40835
 H566 H 1.19757 0.74188 0.47250
 H567 H 1.16151 0.69016 0.50538
 H568 H 1.10686 0.65930 0.47431
 C569 C -0.07857 1.17525 0.09739
 C570 C -0.06670 1.18811 0.13419
 C571 C -0.08754 1.21785 0.15312
 C572 C -0.12012 1.23449 0.13512
 C573 C -0.13093 1.22285 0.09761
 C574 C -0.11012 1.19312 0.07869
 C575 C -0.12179 1.18167 0.04135
 C576 C -0.15304 1.19915 0.02323
 C577 C -0.17334 1.22826 0.04173
 C578 C -0.16255 1.24009 0.07849
 C579 C -0.07537 1.23004 0.19003
 C580 C -0.04343 1.21338 0.20772
 C581 C -0.02307 1.18427 0.18922
 C582 C -0.03448 1.17162 0.15289
 C583 C -0.14365 1.26218 0.15576
 C584 C -0.16410 1.28447 0.17280
 C585 C -0.05993 1.14234 0.07952
 C586 C -0.04633 1.11434 0.06412
 H587 H -0.10683 1.15925 0.02570
 H588 H -0.16151 1.19007 -0.00535
 H589 H -0.19756 1.24180 0.02752
 H590 H -0.17911 1.26296 0.09164
 H591 H -0.09027 1.25262 0.20550
 H592 H -0.03444 1.22312 0.23592
 H593 H 0.00171 1.17141 0.20309
 H594 H -0.01771 1.14898 0.13956
 C595 C 0.42052 0.32425 0.90228
 C596 C 0.38848 0.30801 0.92162
 C597 C 0.36624 0.27886 0.90342
 C598 C 0.37616 0.26616 0.86601
 C599 C 0.40905 0.28132 0.84728
 C600 C 0.43132 0.31045 0.86549
 C601 C 0.46389 0.32540 0.84611
 C602 C 0.47422 0.31188 0.80977
 C603 C 0.45243 0.28340 0.79195
 C604 C 0.42015 0.26823 0.81033
 C605 C 0.33414 0.26329 0.92314
 C606 C 0.32428 0.27613 0.95983
 C607 C 0.34601 0.30464 0.97764
 C608 C 0.37775 0.32051 0.95890
 C609 C 0.35164 0.23869 0.84625
 C610 C 0.33068 0.21652 0.82968
 C611 C 0.44094 0.35645 0.91947
 C612 C 0.45635 0.38393 0.93408
 H613 H 0.48175 0.34752 0.85887
 H614 H 0.49926 0.32357 0.79537
 H615 H 0.46055 0.27301 0.76371
 H616 H 0.40409 0.24615 0.79534
 H617 H 0.31644 0.24097 0.91052
 H618 H 0.29967 0.26387 0.97451
 H619 H 0.33826 0.31452 1.00616
 H620 H 0.39382 0.34253 0.97400
 C621 C 0.60071 0.57966 0.82348
 C622 C 0.58146 0.61117 0.80609
 C623 C 0.60001 0.63270 0.77666
 C624 C 0.63769 0.62265 0.76484
 C625 C 0.65632 0.59023 0.78111
 C626 C 0.63777 0.56865 0.81053
 C627 C 0.65707 0.53656 0.82661
 C628 C 0.69365 0.52600 0.81389
 C629 C 0.71179 0.54709 0.78510
 C630 C 0.69349 0.57890 0.76884
 C631 C 0.58033 0.66423 0.75988
 C632 C 0.54338 0.67424 0.77186
 C633 C 0.52524 0.65323 0.80068
 C634 C 0.54393 0.62204 0.81771
 C635 C 0.65780 0.64665 0.73717
 C636 C 0.67450 0.66731 0.71483
 C637 C 0.58310 0.55999 0.85590
 C638 C 0.56814 0.54517 0.88349
 H639 H 0.64406 0.51923 0.84900
 H640 H 0.70798 0.50131 0.82643
 H641 H 0.74019 0.53877 0.77532
 H642 H 0.70872 0.59441 0.74653
 H643 H 0.59319 0.68134 0.73726
 H644 H 0.52874 0.69841 0.75867
 H645 H 0.49652 0.66110 0.80989
 H646 H 0.52857 0.60651 0.83993
 C647 C 0.39934 0.07968 0.67651
 C648 C 0.41858 0.11119 0.69389
 C649 C 0.40004 0.13273 0.72332
 C650 C 0.36236 0.12267 0.73515
 C651 C 0.34373 0.09024 0.71889
 C652 C 0.36229 0.06867 0.68946
 C653 C 0.34299 0.03656 0.67340
 C654 C 0.30642 0.02600 0.68613
 C655 C 0.28828 0.04709 0.71491
 C656 C 0.30657 0.07892 0.73116
 C657 C 0.41972 0.16427 0.74009
 C658 C 0.45666 0.17429 0.72810
 C659 C 0.47480 0.15327 0.69928
 C660 C 0.45612 0.12207 0.68226
 C661 C 0.34226 0.14667 0.76282
 C662 C 0.32555 0.16733 0.78517
 C663 C 0.41696 0.06001 0.64409
 C664 C 0.43192 0.04518 0.61651
 H665 H 0.35600 0.01924 0.65101
 H666 H 0.29209 0.00131 0.67359
 H667 H 0.25988 0.03878 0.72470
 H668 H 0.29134 0.09442 0.75347
 H669 H 0.40686 0.18138 0.76271
 H670 H 0.47130 0.19846 0.74128
 H671 H 0.50351 0.16114 0.69007
 H672 H 0.47148 0.10654 0.66005
 C673 C 0.09449 0.92117 0.17416
 C674 C 0.13087 0.93315 0.18809
 C675 C 0.14945 0.91170 0.21760
 C676 C 0.13152 0.87844 0.23295
 C677 C 0.09442 0.86743 0.22019
 C678 C 0.07584 0.88884 0.19070
 C679 C 0.03890 0.87700 0.17813
 C680 C 0.02086 0.84497 0.19426
 C681 C 0.03905 0.82404 0.22312
 C682 C 0.07541 0.83500 0.23603
 C683 C 0.18598 0.92399 0.23085
 C684 C 0.20360 0.95660 0.21546
 C685 C 0.18543 0.97756 0.18659
 C686 C 0.14949 0.96607 0.17292
 C687 C 0.15184 0.85450 0.26050
 C688 C 0.16873 0.83381 0.28268
 C689 C 0.07706 0.94052 0.14145
 C690 C 0.06197 0.95462 0.11355
 H691 H 0.02351 0.89241 0.15585
 H692 H -0.00740 0.83636 0.18433
 H693 H 0.02492 0.79919 0.23559
 H694 H 0.08834 0.81790 0.25863
 H695 H 0.20119 0.90862 0.25327
 H696 H 0.23151 0.96565 0.22599
 H697 H 0.19925 1.00287 0.17473
 H698 H 0.13641 0.98331 0.15050
 C699 C 0.90558 0.42120 0.32581
 C700 C 0.92425 0.38890 0.30925
 C701 C 0.90567 0.36748 0.27976
 C702 C 0.86856 0.37847 0.26702
 C703 C 0.85061 0.41171 0.28239
 C704 C 0.86919 0.43315 0.31189
 C705 C 0.85055 0.46605 0.32709
 C706 C 0.81460 0.47753 0.31343
 C707 C 0.79643 0.45657 0.28456
 C708 C 0.81407 0.42397 0.26915
 C709 C 0.92470 0.33508 0.26389
 C710 C 0.96108 0.32414 0.27679
 C711 C 0.97926 0.34506 0.30564
 C712 C 0.96120 0.37708 0.32180
 C713 C 0.84825 0.35452 0.23947
 C714 C 0.83136 0.33383 0.21730
 C715 C 0.92301 0.44054 0.35852
 C716 C 0.93809 0.45464 0.38642
 H717 H 0.86363 0.48330 0.34951
 H718 H 0.80076 0.50283 0.32531
 H719 H 0.76851 0.46560 0.27405
 H720 H 0.79886 0.40860 0.24674
 H721 H 0.91178 0.31797 0.24129
 H722 H 0.97522 0.29930 0.26430
 H723 H 1.00754 0.33648 0.31556
 H724 H 0.97659 0.39248 0.34407
   
