data_POSCAR
  _audit_creation_date              2014-09-24
  _audit_creation_method            'ToBaCCo'
  _symmetry_space_group_name_H-M    'P1'
  _symmetry_Int_Tables_number       1
  _symmetry_cell_setting            triclinic
  loop_
  _symmetry_equiv_pos_as_xyz
 x,y,z
_cell_length_a 29.8793
_cell_length_b 29.9291
_cell_length_c 29.8434
_cell_angle_alpha 79.019900
_cell_angle_beta 98.591900
_cell_angle_gamma 82.237000
loop_
  _atom_site_label
  _atom_site_type_symbol
  _atom_site_fract_x
  _atom_site_fract_y
  _atom_site_fract_z
O1 O 0.56794 0.48065 0.04074
 O2 O 0.44280 0.48817 0.02953
 O3 O 0.51009 0.42516 0.02632
 O4 O 0.50037 0.54524 0.04198
 O5 O 0.49419 0.57001 -0.03364
 O6 O 0.50062 0.45080 -0.04947
 O7 O 0.43434 0.51569 -0.04582
 O8 O 0.56020 0.50570 -0.03501
 Cu9 Cu 0.50606 0.48237 0.04225
 Cu10 Cu 0.49649 0.51290 -0.04862
 C11 C 0.58543 0.49202 0.00486
 C12 C 0.41709 0.50312 -0.00992
 C13 C 0.50641 0.41764 -0.01444
 C14 C 0.49638 0.57801 0.00678
 O15 O -0.03239 0.57021 0.50175
 O16 O -0.04089 0.44791 0.50727
 O17 O -0.02810 0.49877 0.56818
 O18 O -0.04421 0.51799 0.44048
 O19 O 0.03080 0.50066 0.44517
 O20 O 0.04707 0.48534 0.57224
 O21 O 0.03433 0.43077 0.51375
 O22 O 0.04216 0.55421 0.50326
 Cu23 Cu -0.04391 0.51048 0.50393
 Cu24 Cu 0.04612 0.49094 0.50912
 C25 C 0.00636 0.58321 0.50156
 C26 C -0.00490 0.41847 0.51135
 C27 C 0.01230 0.48969 0.59185
 C28 C -0.00940 0.51185 0.42115
 O29 O 0.49612 0.04643 0.53827
 O30 O 0.48543 0.03236 0.41744
 O31 O 0.42783 0.04482 0.47344
 O32 O 0.55328 0.03431 0.48242
 O33 O 0.56079 -0.04124 0.50667
 O34 O 0.43552 -0.03081 0.49710
 O35 O 0.49365 -0.04320 0.44193
 O36 O 0.50216 -0.02892 0.56234
 Cu37 Cu 0.48988 0.04709 0.47541
 Cu38 Cu 0.49883 -0.04363 0.50451
 C39 C 0.50038 0.01118 0.57096
 C40 C 0.48832 -0.00791 0.40916
 C41 C 0.41035 0.00869 0.48406
 C42 C 0.57836 -0.00524 0.49571
 C43 C 0.49909 -0.01838 0.00852
 C44 C 0.50193 0.01669 -0.02712
 C45 C 0.50101 0.01006 -0.07548
 C46 C 0.50624 0.06379 -0.01952
 C47 C 0.49418 -0.01004 0.05526
 C48 C 0.50099 -0.06704 0.00314
 C49 C 0.53295 0.02758 -0.10116
 C50 C 0.53225 0.02231 -0.14672
 C51 C 0.50016 -0.00134 -0.16716
 C52 C 0.46787 -0.01852 -0.14182
 C53 C 0.46775 -0.01213 -0.09666
 C54 C 0.54053 0.07054 0.01505
 C55 C 0.54393 0.11495 0.02198
 C56 C 0.51364 0.15349 -0.00617
 C57 C 0.48031 0.14673 -0.04162
 C58 C 0.47654 0.10232 -0.04811
 C59 C 0.45945 0.02402 0.06086
 C60 C 0.45517 0.03109 0.10510
 C61 C 0.48496 0.00354 0.14453
 C62 C 0.51893 -0.03117 0.13886
 C63 C 0.52362 -0.03776 0.09467
 C64 C 0.46850 -0.09277 0.01946
 C65 C 0.47020 -0.13869 0.01555
 C66 C 0.50405 -0.15959 -0.00532
 C67 C 0.53699 -0.13413 -0.02110
 C68 C 0.53585 -0.08845 -0.01632
 H69 H 0.55864 0.04521 -0.08582
 H70 H 0.55729 0.03603 -0.16580
 H71 H 0.44214 -0.03599 -0.15734
 H72 H 0.44171 -0.02450 -0.07826
 H73 H 0.56471 0.04142 0.03662
 H74 H 0.57078 0.11913 0.04875
 H75 H 0.45013 0.09795 -0.07525
 H76 H 0.43552 0.04492 0.03101
 H77 H 0.42795 0.05735 0.10850
 H78 H 0.54229 -0.05292 0.16866
 H79 H 0.55041 -0.06444 0.09117
 H80 H 0.44159 -0.07717 0.03503
 H81 H 0.44453 -0.15766 0.02810
 H82 H 0.56413 -0.14980 -0.03632
 H83 H 0.56218 -0.06983 -0.02777
 H84 H 0.45662 0.17581 -0.06391
 C85 C -0.01342 0.49842 0.98994
 C86 C 0.02039 0.50438 1.02302
 C87 C 0.06895 0.49904 1.01690
 C88 C 0.01185 0.51334 1.06860
 C89 C -0.06208 0.50370 0.99549
 C90 C -0.00461 0.48946 0.94456
 C91 C 0.09858 0.45743 1.03770
 C92 C 0.14563 0.45364 1.03718
 C93 C 0.16372 0.49141 1.01559
 C94 C 0.13376 0.53264 0.99364
 C95 C 0.08684 0.53667 0.99500
 C96 C -0.00587 0.48144 1.09920
 C97 C -0.00852 0.48738 1.14417
 C98 C 0.00811 0.52435 1.15992
 C99 C 0.02531 0.55658 1.12922
 C100 C 0.02695 0.55122 1.08395
 C101 C -0.09050 0.54680 0.97916
 C102 C -0.13789 0.55082 0.97787
 C103 C -0.15747 0.51173 0.99307
 C104 C -0.12861 0.46893 1.01089
 C105 C -0.08141 0.46482 1.01140
 C106 C 0.00673 0.52427 0.91162
 C107 C 0.00934 0.51793 0.86681
 C108 C -0.00121 0.47745 0.85365
 C109 C -0.01218 0.44244 0.88664
 C110 C -0.01353 0.44829 0.93182
 H111 H 0.08537 0.42831 1.05537
 H112 H 0.16795 0.42132 1.05398
 H113 H 0.14697 0.56235 0.97721
 H114 H 0.06475 0.56958 0.98028
 H115 H -0.01561 0.45076 1.08920
 H116 H -0.02128 0.46172 1.16747
 H117 H 0.04117 0.57606 1.06124
 H118 H -0.07613 0.57699 0.96611
 H119 H -0.15922 0.58438 0.96460
 H120 H -0.14283 0.43825 1.02262
 H121 H -0.06010 0.43110 1.02320
 H122 H 0.01154 0.55713 0.91987
 H123 H 0.01719 0.54563 0.84168
 H124 H -0.02028 0.41087 0.87724
 H125 H -0.02281 0.42116 0.95646
 H126 H 0.03810 0.58555 1.14049
 C127 C 0.01305 -0.01853 0.50688
 C128 C -0.01848 0.01862 0.50765
 C129 C -0.06799 0.01607 0.50718
 C130 C -0.00552 0.06478 0.50894
 C131 C 0.06226 -0.01522 0.50736
 C132 C 0.00105 -0.06500 0.50528
 C133 C -0.09395 -0.00171 0.47347
 C134 C -0.14099 -0.00127 0.47264
 C135 C -0.16301 0.01858 0.50427
 C136 C -0.13718 0.03649 0.53771
 C137 C -0.09012 0.03494 0.53935
 C138 C -0.03040 0.10354 0.47629
 C139 C -0.02217 0.14776 0.47907
 C140 C 0.01150 0.15426 0.51430
 C141 C 0.03719 0.11544 0.54657
 C142 C 0.02840 0.07106 0.54420
 C143 C 0.09549 -0.04533 0.54202
 C144 C 0.14206 -0.04621 0.54103
 C145 C 0.15644 -0.01720 0.50503
 C146 C 0.12316 0.01403 0.47105
 C147 C 0.07636 0.01473 0.47195
 C148 C -0.02235 -0.08775 0.53786
 C149 C -0.03019 -0.13276 0.53716
 C150 C -0.01356 -0.15610 0.50475
 C151 C 0.00987 -0.13335 0.47242
 C152 C 0.01675 -0.08822 0.47244
 H153 H -0.07804 -0.01523 0.44743
 H154 H -0.16050 -0.01498 0.44638
 H155 H -0.15345 0.05159 0.56269
 H156 H -0.07094 0.04904 0.56552
 H157 H -0.05689 0.09956 0.44900
 H158 H -0.04241 0.17704 0.45374
 H159 H 0.04717 0.04181 0.57053
 H160 H 0.08523 -0.06862 0.56965
 H161 H 0.16678 -0.06972 0.56850
 H162 H 0.13332 0.03682 0.44299
 H163 H 0.05119 0.03774 0.44448
 H164 H -0.03367 -0.07112 0.56436
 H165 H -0.04764 -0.14994 0.56300
 H166 H 0.02301 -0.15062 0.44712
 H167 H 0.03510 -0.07156 0.44714
 H168 H 0.06273 0.11950 0.57464
 C169 C -0.30125 0.51599 0.97959
 C170 C -0.27119 0.48866 1.01882
 N171 N -0.28838 0.46295 1.05268
 C172 C -0.33435 0.46334 1.04911
 C173 C -0.36457 0.49021 1.00956
 N174 N -0.34711 0.51589 0.97567
 N175 N -0.28412 0.54231 0.94614
 C176 C -0.23821 0.54249 0.95004
 C177 C -0.20782 0.51465 0.98901
 N178 N -0.22530 0.48826 1.02242
 H179 H -0.34711 0.44260 1.07670
 H180 H -0.22555 0.56321 0.92239
 C181 C 0.30689 0.48711 1.02288
 C182 C 0.27625 0.50736 0.98134
 N183 N 0.29284 0.52567 0.94323
 C184 C 0.33874 0.52469 0.94475
 C185 C 0.36963 0.50504 0.98663
 N186 N 0.35256 0.48679 1.02466
 N187 N 0.29055 0.46787 1.06075
 C188 C 0.24483 0.46800 1.05905
 C189 C 0.21380 0.48882 1.01770
 N190 N 0.23043 0.50822 0.97979
 H191 H 0.35080 0.53950 0.91369
 H192 H 0.23276 0.45294 1.09000
 C193 C -0.02503 -0.29562 0.50497
 C194 C 0.01610 -0.27924 0.49974
 N195 N 0.05310 -0.30854 0.49517
 C196 C 0.05097 -0.35369 0.49563
 C197 C 0.00960 -0.37038 0.50023
 N198 N -0.02750 -0.34057 0.50466
 N199 N -0.06161 -0.26643 0.51086
 C200 C -0.05891 -0.22152 0.51166
 C201 C -0.01793 -0.20483 0.50565
 N202 N 0.01855 -0.23434 0.49974
 H203 H 0.08126 -0.37612 0.49210
 H204 H -0.08866 -0.19890 0.51605
 C205 C 0.02585 0.29173 0.52213
 C206 C -0.01737 0.27978 0.50952
 N207 N -0.05545 0.31270 0.49909
 C208 C -0.05236 0.35730 0.50040
 C209 C -0.00908 0.36981 0.51215
 N210 N 0.02913 0.33649 0.52283
 N211 N 0.06380 0.25840 0.53301
 C212 C 0.06046 0.21370 0.53164
 C213 C 0.01720 0.20182 0.51818
 N214 N -0.02060 0.23546 0.50751
 H215 H -0.08339 0.38282 0.49154
 H216 H 0.09132 0.18801 0.53992
 C217 C 0.50066 -0.01693 -0.30491
 C218 C 0.50358 0.02587 -0.29302
 N219 N 0.50560 0.06297 -0.32633
 C220 C 0.50471 0.05932 -0.37116
 C221 C 0.50232 0.01630 -0.38327
 N222 N 0.50054 -0.02081 -0.34948
 N223 N 0.49719 -0.05371 -0.27186
 C224 C 0.49648 -0.04962 -0.22735
 C225 C 0.49999 -0.00693 -0.21519
 N226 N 0.50365 0.02979 -0.24846
 H227 H 0.50613 0.08969 -0.39690
 H228 H 0.49391 -0.07951 -0.20159
 C229 C 0.47702 0.01999 0.28105
 C230 C 0.48805 -0.02394 0.27161
 N231 N 0.49740 -0.06179 0.30683
 C232 C 0.49662 -0.05773 0.35129
 C233 C 0.48653 -0.01370 0.36111
 N234 N 0.47682 0.02417 0.32552
 N235 N 0.46754 0.05778 0.24568
 C236 C 0.46880 0.05366 0.20124
 C237 C 0.48063 0.00970 0.19176
 N238 N 0.48991 -0.02800 0.22745
 H239 H 0.50465 -0.08853 0.37871
 H240 H 0.46189 0.08448 0.17390
 C241 C 0.50434 -0.29769 -0.01926
 C242 C 0.49502 -0.28415 0.02134
 N243 N 0.48634 -0.31585 0.05665
 C244 C 0.48657 -0.36058 0.05319
 C245 C 0.49536 -0.37410 0.01230
 N246 N 0.50398 -0.34209 -0.02295
 N247 N 0.51389 -0.26632 -0.05424
 C248 C 0.51459 -0.22185 -0.05050
 C249 C 0.50484 -0.20792 -0.01007
 N250 N 0.49509 -0.23960 0.02487
 H251 H 0.47964 -0.38517 0.08187
 H252 H 0.52180 -0.19746 -0.07918
 C253 C 0.51868 0.28986 0.01195
 C254 C 0.50750 0.28083 -0.03243
 N255 N 0.49738 0.31630 -0.07012
 C256 C 0.49765 0.36057 -0.06546
 C257 C 0.50808 0.36993 -0.02097
 N258 N 0.51846 0.33411 0.01672
 N259 N 0.52894 0.25431 0.04960
 C260 C 0.52842 0.21004 0.04492
 C261 C 0.51666 0.20083 0.00049
 N262 N 0.50645 0.23676 -0.03709
 H263 H 0.48911 0.38818 -0.09615
 H264 H 0.53596 0.18256 0.07567
 C265 C -0.30609 0.02733 0.49919
 C266 C -0.27863 -0.01477 0.49962
 N267 N -0.29819 -0.05316 0.49962
 C268 C -0.34402 -0.05135 0.49911
 C269 C -0.37172 -0.00906 0.49794
 N270 N -0.35189 0.02930 0.49793
 N271 N -0.28648 0.06551 0.50033
 C272 C -0.24055 0.06353 0.50201
 C273 C -0.21296 0.02157 0.50197
 N274 N -0.23280 -0.01665 0.50057
 H275 H -0.35875 -0.08244 0.49891
 H276 H -0.22573 0.09448 0.50289
 C277 C 0.29797 -0.02514 0.49897
 C278 C 0.26792 0.01718 0.48377
 N279 N 0.28470 0.05601 0.46794
 C280 C 0.33029 0.05446 0.46692
 C281 C 0.36051 0.01209 0.48247
 N282 N 0.34333 -0.02670 0.49796
 N283 N 0.28147 -0.06396 0.51503
 C284 C 0.23622 -0.06243 0.51708
 C285 C 0.20585 -0.02001 0.50252
 N286 N 0.22260 0.01880 0.48573
 H287 H 0.34277 0.08600 0.45445
 H288 H 0.22411 -0.09420 0.52945
 C289 C 0.01762 0.52631 1.30246
 C290 C -0.02328 0.51964 1.27663
 N291 N -0.05959 0.51268 1.29801
 C292 C -0.05670 0.51159 1.34419
 C293 C -0.01526 0.51674 1.37046
 N294 N 0.02089 0.52411 1.34871
 N295 N 0.05368 0.53409 1.28105
 C296 C 0.05089 0.53516 1.23497
 C297 C 0.01047 0.52719 1.20913
 N298 N -0.02575 0.51958 1.23077
 H299 H -0.08598 0.50543 1.36045
 H300 H 0.08047 0.54069 1.21898
 C301 C -0.01180 0.47286 0.71177
 C302 C 0.02778 0.48388 0.73602
 N303 N 0.06235 0.49439 0.71328
 C304 C 0.05895 0.49487 0.66721
 C305 C 0.01868 0.48545 0.64244
 N306 N -0.01574 0.47454 0.66553
 N307 N -0.04598 0.46143 0.73469
 C308 C -0.04260 0.46095 0.78074
 C309 C -0.00369 0.47345 0.80483
 N310 N 0.03065 0.48462 0.78173
 H311 H 0.08681 0.50391 0.64983
 H312 H -0.07067 0.45242 0.79802
   
