data_POSCAR
  _audit_creation_date              2014-09-24
  _audit_creation_method            'ToBaCCo'
  _symmetry_space_group_name_H-M    'P1'
  _symmetry_Int_Tables_number       1
  _symmetry_cell_setting            triclinic
  loop_
  _symmetry_equiv_pos_as_xyz
 x,y,z
_cell_length_a 40.4363
_cell_length_b 40.3044
_cell_length_c 40.3032
_cell_angle_alpha 90.002000
_cell_angle_beta 89.938100
_cell_angle_gamma 89.935300
loop_
  _atom_site_label
  _atom_site_type_symbol
  _atom_site_fract_x
  _atom_site_fract_y
  _atom_site_fract_z
C1 C 0.17382 1.21814 0.21760
 C2 C 0.15974 1.24628 0.20273
 C3 C 0.17400 1.26004 0.17415
 C4 C 0.20263 1.24595 0.16044
 C5 C 0.21701 1.21781 0.17501
 C6 C 0.20256 1.20378 0.20369
 C7 C 0.15924 1.20366 0.24569
 C8 C 0.17299 1.17503 0.25984
 C9 C 0.20163 1.16087 0.24620
 C10 C 0.21651 1.17504 0.21812
 C11 C 0.24466 1.16056 0.20376
 C12 C 0.25882 1.17440 0.17520
 C13 C 0.24516 1.20300 0.16097
 H14 H 0.13745 1.25716 0.21309
 H15 H 0.21342 1.25658 0.13819
 H16 H 0.13694 1.21437 0.25622
 H17 H 0.21203 1.13858 0.25713
 H18 H 0.25528 1.13827 0.21444
 H19 H 0.25617 1.21338 0.13873
 C20 C 0.82665 0.78203 0.21784
 C21 C 0.84112 0.75395 0.20321
 C22 C 0.82722 0.73988 0.17464
 C23 C 0.79853 0.75358 0.16071
 C24 C 0.78375 0.78165 0.17504
 C25 C 0.79786 0.79600 0.20372
 C26 C 0.84088 0.79682 0.24591
 C27 C 0.82674 0.82539 0.25984
 C28 C 0.79805 0.83917 0.24598
 C29 C 0.78351 0.82468 0.21791
 C30 C 0.75531 0.83878 0.20333
 C31 C 0.74150 0.82463 0.17479
 C32 C 0.75555 0.79608 0.16079
 H33 H 0.86346 0.74337 0.21374
 H34 H 0.78801 0.74272 0.13847
 H35 H 0.86321 0.78640 0.25662
 H36 H 0.78735 0.86142 0.25673
 H37 H 0.74439 0.86102 0.21383
 H38 H 0.74481 0.78546 0.13856
 C39 C 0.82503 1.21740 -0.21786
 C40 C 0.83939 1.24549 -0.20324
 C41 C 0.82552 1.25943 -0.17458
 C42 C 0.79700 1.24561 -0.16049
 C43 C 0.78231 1.21752 -0.17478
 C44 C 0.79638 1.20329 -0.20358
 C45 C 0.83923 1.20272 -0.24606
 C46 C 0.82518 1.17413 -0.25995
 C47 C 0.79663 1.16022 -0.24594
 C48 C 0.78213 1.17459 -0.21774
 C49 C 0.75408 1.16036 -0.20300
 C50 C 0.74031 1.17440 -0.17434
 C51 C 0.75427 1.20296 -0.16037
 H52 H 0.86161 1.25623 -0.21382
 H53 H 0.78659 1.25644 -0.13816
 H54 H 0.86145 1.21324 -0.25688
 H55 H 0.78601 1.13796 -0.25667
 H56 H 0.74323 1.13811 -0.21349
 H57 H 0.74356 1.21350 -0.13804
 C58 C 0.17451 0.78231 -0.21787
 C59 C 0.16017 0.75418 -0.20328
 C60 C 0.17410 0.74014 -0.17470
 C61 C 0.20269 0.75393 -0.16071
 C62 C 0.21733 0.78206 -0.17499
 C63 C 0.20320 0.79638 -0.20368
 C64 C 0.16025 0.79708 -0.24596
 C65 C 0.17427 0.82568 -0.25981
 C66 C 0.20282 0.83955 -0.24592
 C67 C 0.21740 0.82511 -0.21783
 C68 C 0.24549 0.83931 -0.20320
 C69 C 0.25934 0.82519 -0.17464
 C70 C 0.24542 0.79659 -0.16068
 H71 H 0.13791 0.74353 -0.21386
 H72 H 0.21323 0.74309 -0.13845
 H73 H 0.13800 0.78667 -0.25676
 H74 H 0.21334 0.86184 -0.25669
 H75 H 0.25630 0.86159 -0.21367
 H76 H 0.25619 0.78600 -0.13843
 C77 C 0.55047 1.04519 -0.00933
 H78 H 0.55115 1.04506 0.01750
 C79 C 0.57309 1.06434 -0.02716
 H80 H 0.59121 1.07914 -0.01405
 C81 C 0.52673 1.02521 -0.05929
 H82 H 0.50912 1.00939 -0.07171
 C83 C 0.54894 1.04400 -0.07807
 H84 H 0.54818 1.04283 -0.10491
 N85 N 0.52782 1.02624 -0.02554
 C86 C 0.44945 1.00922 0.04686
 H87 H 0.44881 0.98238 0.04677
 C88 C 0.42677 1.02703 0.06601
 H89 H 0.40865 1.01391 0.08085
 C90 C 0.47311 1.05919 0.02679
 H91 H 0.49071 1.07162 0.01093
 C92 C 0.45084 1.07796 0.04558
 H93 H 0.45155 1.10480 0.04436
 Zn94 Zn 0.49997 0.99918 0.00075
 N95 N 0.47209 1.02544 0.02786
 C96 C 0.52686 0.97315 0.06070
 N97 N 0.52789 0.97210 0.02694
 C98 C 0.55055 0.95314 0.01066
 C99 C 0.57326 0.93401 0.02840
 C100 C 0.54916 0.95438 0.07940
 C101 C 0.44942 0.98922 -0.04519
 C102 C 0.42678 0.97146 -0.06433
 C103 C 0.45095 0.92048 -0.04406
 C104 C 0.47319 0.93920 -0.02528
 N105 N 0.47210 0.97296 -0.02628
 H106 H 0.50924 0.98897 0.07318
 H107 H 0.55119 0.95325 -0.01618
 H108 H 0.59140 0.91921 0.01523
 H109 H 0.54845 0.95558 0.10625
 H110 H 0.44873 1.01606 -0.04505
 H111 H 0.40864 0.98461 -0.07910
 H112 H 0.45172 0.89364 -0.04290
 H113 H 0.49082 0.92673 -0.00949
 C114 C 0.42741 1.06170 0.06526
 C115 C 0.57238 1.06365 -0.06183
 C116 C 0.42749 0.93678 -0.06366
 C117 C 0.57262 0.93474 0.06308
 C118 C -0.00905 0.55094 1.04582
 H119 H 0.01770 0.55160 1.04568
 C120 C -0.02680 0.57365 1.06502
 H121 H -0.01372 0.59182 1.07982
 C122 C -0.05885 0.52716 1.02588
 H123 H -0.07125 0.50950 1.01006
 C124 C -0.07756 0.54946 1.04471
 H125 H -0.10432 0.54871 1.04356
 N126 N -0.02521 0.52822 1.02688
 C127 C 0.04685 0.44948 1.00977
 H128 H 0.04676 0.44881 0.98293
 C129 C 0.06591 0.42673 1.02756
 H130 H 0.08068 0.40852 1.01443
 C131 C 0.02687 0.47331 1.05976
 H132 H 0.01108 0.49099 1.07221
 C133 C 0.04557 0.45097 1.07851
 H134 H 0.04435 0.45172 1.10535
 Zn135 Zn 0.00096 0.50023 0.99978
 N136 N 0.02794 0.47223 1.02601
 C137 C 0.06076 0.52708 0.97369
 N138 N 0.02712 0.52818 0.97269
 C139 C 0.01093 0.55093 0.95376
 C140 C 0.02865 0.57364 0.93460
 C141 C 0.07944 0.54938 0.95488
 C142 C -0.04490 0.44957 0.98981
 C143 C -0.06402 0.42689 0.97204
 C144 C -0.04376 0.45111 0.92107
 C145 C -0.02500 0.47338 0.93980
 N146 N -0.02601 0.47229 0.97356
 H147 H 0.07317 0.50939 0.98950
 H148 H -0.01582 0.55163 0.95391
 H149 H 0.01555 0.59185 0.91981
 H150 H 0.10620 0.54860 0.95604
 H151 H -0.04476 0.44888 1.01665
 H152 H -0.07878 0.40872 0.98519
 H153 H -0.04261 0.45188 0.89423
 H154 H -0.00923 0.49104 0.92734
 C155 C 0.06517 0.42741 1.06224
 C156 C -0.06136 0.57297 1.06436
 C157 C -0.06335 0.42761 0.93737
 C158 C 0.06321 0.57293 0.93526
 C159 C 1.04492 -0.00925 0.55016
 H160 H 1.04473 0.01759 0.55088
 C161 C 1.06405 -0.02705 0.57282
 H162 H 1.07877 -0.01394 0.59103
 C163 C 1.02514 -0.05922 0.52625
 H164 H 1.00941 -0.07166 0.50856
 C165 C 1.04392 -0.07799 0.54851
 H166 H 1.04282 -0.10483 0.54770
 N167 N 1.02608 -0.02547 0.52740
 C168 C 1.00900 0.04690 0.44883
 H169 H 0.98226 0.04677 0.44816
 C170 C 1.02673 0.06610 0.42614
 H171 H 1.01364 0.08092 0.40796
 C172 C 1.05883 0.02691 0.47261
 H173 H 1.07125 0.01106 0.49026
 C174 C 1.07752 0.04574 0.45033
 H175 H 1.10427 0.04456 0.45108
 Zn176 Zn 0.99906 0.00079 0.49947
 N177 N 1.02519 0.02792 0.47154
 C178 C 0.97296 0.06071 0.52647
 N179 N 0.97200 0.02695 0.52749
 C180 C 0.95313 0.01066 0.55021
 C181 C 0.93400 0.02839 0.57298
 C182 C 0.95419 0.07940 0.54884
 C183 C 0.98926 -0.04517 0.44870
 C184 C 0.97161 -0.06437 0.42599
 C185 C 0.92074 -0.04417 0.45026
 C186 C 0.93936 -0.02534 0.47257
 N187 N 0.97300 -0.02628 0.47147
 H188 H 0.98871 0.07320 0.50881
 H189 H 0.95331 -0.01618 0.55083
 H190 H 0.91927 0.01521 0.59116
 H191 H 0.95532 0.10625 0.54814
 H192 H 1.01601 -0.04499 0.44801
 H193 H 0.98476 -0.07913 0.40778
 H194 H 0.89398 -0.04307 0.45104
 H195 H 0.92688 -0.00956 0.49027
 C196 C 1.06129 0.06541 0.42682
 C197 C 1.06345 -0.06173 0.57206
 C198 C 0.93705 -0.06377 0.42671
 C199 C 0.93464 0.06307 0.57236
 C200 C 0.15923 0.28634 1.15891
 C201 C 0.14580 0.30918 1.14505
 C202 C 0.12962 0.33536 1.12839
 C203 C 0.11543 0.35723 1.11378
 C204 C 0.09837 0.38227 1.09626
 C205 C 0.08344 0.40314 1.08094
 C206 C -0.15764 0.71365 1.15962
 C207 C -0.14386 0.69087 1.14597
 C208 C -0.12728 0.66476 1.12955
 C209 C -0.11274 0.64295 1.11517
 C210 C -0.09529 0.61799 1.09790
 C211 C -0.08001 0.59718 1.08280
 C212 C -0.15858 0.28715 0.84127
 C213 C -0.14489 0.30989 0.85496
 C214 C -0.12845 0.33597 0.87148
 C215 C -0.11406 0.35774 0.88598
 C216 C -0.09681 0.38267 0.90342
 C217 C -0.08174 0.40344 0.91869
 C218 C 0.15908 0.71385 0.84028
 C219 C 0.14540 0.69102 0.85388
 C220 C 0.12892 0.66485 0.87025
 C221 C 0.11445 0.64300 0.88459
 C222 C 0.09706 0.61800 0.90181
 C223 C 0.08184 0.59716 0.91686
 C224 C 1.15775 0.16017 0.28608
 C225 C 1.14390 0.14664 0.30887
 C226 C 1.12726 0.13035 0.33499
 C227 C 1.11269 0.11605 0.35681
 C228 C 1.09521 0.09886 0.38179
 C229 C 1.07993 0.08382 0.40260
 C230 C 1.15847 -0.15832 0.71247
 C231 C 1.14485 -0.14451 0.68974
 C232 C 1.12847 -0.12787 0.66368
 C233 C 1.11412 -0.11329 0.64191
 C234 C 1.09690 -0.09577 0.61699
 C235 C 1.08185 -0.08045 0.59622
 C236 C 0.84166 -0.15945 0.28607
 C237 C 0.85524 -0.14569 0.30884
 C238 C 0.87163 -0.12917 0.33495
 C239 C 0.88602 -0.11471 0.35675
 C240 C 0.90333 -0.09737 0.38171
 C241 C 0.91849 -0.08224 0.40251
 C242 C 0.84006 0.15907 0.71369
 C243 C 0.85359 0.14536 0.69080
 C244 C 0.86987 0.12884 0.66456
 C245 C 0.88414 0.11436 0.64265
 C246 C 0.90129 0.09695 0.61757
 C247 C 0.91629 0.08170 0.59667
 C248 C 0.28661 1.15836 0.15962
 C249 C 0.30941 1.14452 0.14616
 C250 C 0.33555 1.12786 0.12994
 C251 C 0.35738 1.11327 0.11570
 C252 C 0.38237 1.09574 0.09859
 C253 C 0.40319 1.08042 0.08360
 C254 C 0.71263 1.15862 -0.15837
 C255 C 0.68991 1.14501 -0.14459
 C256 C 0.66388 1.12864 -0.12797
 C257 C 0.64213 1.11430 -0.11340
 C258 C 0.61724 1.09709 -0.09589
 C259 C 0.59650 1.08204 -0.08056
 C260 C 0.28706 0.84095 -0.15878
 C261 C 0.30981 0.85458 -0.14513
 C262 C 0.33589 0.87103 -0.12871
 C263 C 0.35766 0.88549 -0.11434
 C264 C 0.38258 0.90288 -0.09711
 C265 C 0.40334 0.91812 -0.08205
 C266 C 0.71365 0.84028 0.15897
 C267 C 0.69081 0.85378 0.14530
 C268 C 0.66462 0.87004 0.12882
 C269 C 0.64275 0.88430 0.11435
 C270 C 0.61772 0.90142 0.09696
 C271 C 0.59687 0.91641 0.08172
   
