data_POSCAR
  _audit_creation_date              2014-09-24
  _audit_creation_method            'ToBaCCo'
  _symmetry_space_group_name_H-M    'P1'
  _symmetry_Int_Tables_number       1
  _symmetry_cell_setting            triclinic
  loop_
  _symmetry_equiv_pos_as_xyz
 x,y,z
_cell_length_a 55.0094
_cell_length_b 54.7976
_cell_length_c 14.9574
_cell_angle_alpha 90.136700
_cell_angle_beta 89.828900
_cell_angle_gamma 119.438300
loop_
  _atom_site_label
  _atom_site_type_symbol
  _atom_site_fract_x
  _atom_site_fract_y
  _atom_site_fract_z
C1 C 0.23065 0.48378 0.45464
 C2 C 0.22518 0.47932 0.54845
 C3 C 0.24276 0.47358 0.60220
 C4 C 0.26732 0.47515 0.56760
 C5 C 0.27206 0.47851 0.47392
 C6 C 0.25409 0.48317 0.41954
 H7 H 0.25771 0.48479 0.34795
 H8 H 0.23935 0.47185 0.67391
 C9 C 0.45471 -0.28927 0.44554
 C10 C 0.45535 -0.29004 0.54043
 C11 C 0.45295 -0.26973 0.59087
 C12 C 0.45176 -0.24724 0.54996
 C13 C 0.45129 -0.24639 0.45505
 C14 C 0.45191 -0.26769 0.40478
 H15 H 0.45173 -0.26644 0.33242
 H16 H 0.45363 -0.27073 0.66319
 C17 C 1.28034 0.77201 0.46278
 C18 C 1.27844 0.76720 0.55686
 C19 C 1.25438 0.74454 0.59322
 C20 C 1.23158 0.72728 0.53904
 C21 C 1.23296 0.73260 0.44637
 C22 C 1.25701 0.75487 0.40937
 H23 H 1.25795 0.75780 0.33752
 H24 H 1.25276 0.74124 0.66494
 C25 C 0.77459 0.48614 0.45305
 C26 C 0.77123 0.47843 0.54483
 C27 C 0.74703 0.47451 0.58965
 C28 C 0.72699 0.47937 0.54742
 C29 C 0.73040 0.48648 0.45530
 C30 C 0.75423 0.49009 0.40979
 H31 H 0.75603 0.49418 0.33846
 H32 H 0.74508 0.47021 0.66080
 C33 C 0.47854 0.27050 0.46559
 C34 C 0.47932 0.26762 0.55991
 C35 C 0.47743 0.24283 0.59430
 C36 C 0.47471 0.22099 0.53818
 C37 C 0.47462 0.22446 0.44402
 C38 C 0.47645 0.24903 0.40934
 H39 H 0.47600 0.25139 0.33748
 H40 H 0.47788 0.24039 0.66611
 C41 C 0.71837 0.24029 0.45761
 C42 C 0.72181 0.24171 0.55114
 C43 C 0.74784 0.26048 0.58816
 C44 C 0.77095 0.27763 0.53329
 C45 C 0.76683 0.27684 0.43902
 C46 C 0.74068 0.25818 0.40296
 H47 H 0.73767 0.25739 0.33115
 H48 H 0.75032 0.26054 0.66005
 O49 O 0.95933 0.44517 0.18528
 O50 O 0.93413 0.45602 0.08674
 C51 C 0.93629 0.44350 0.15701
 O52 O 1.05562 0.56288 0.13721
 O53 O 1.07983 0.54324 0.07260
 C54 C 1.07848 0.56215 0.12105
 O55 O 0.97781 0.53585 0.14235
 O56 O 0.94310 0.49879 0.06605
 C57 C 0.95174 0.51946 0.12182
 O58 O 1.03529 0.46609 0.18049
 O59 O 1.07072 0.49795 0.09175
 C60 C 1.06134 0.47990 0.15673
 Zr61 Zr 1.00012 0.46743 0.13092
 O62 O 1.00377 0.47414 0.27087
 O63 O 0.98869 0.42488 0.15040
 Zr64 Zr 1.01395 0.53430 0.09874
 O65 O 1.01752 0.54202 0.23808
 O66 O 1.01930 0.57471 0.07442
 O67 O 0.98289 0.49383 0.13084
 O68 O 1.03073 0.50902 0.13258
 O69 O 1.03479 0.45355 -0.12425
 O70 O 1.07025 0.49245 -0.05670
 C71 C 1.06094 0.47001 -0.10507
 O72 O 0.97726 0.52224 -0.18430
 O73 O 0.94266 0.49235 -0.08921
 C74 C 0.95126 0.50806 -0.15978
 O75 O 1.05508 0.55110 -0.16838
 O76 O 1.08002 0.53817 -0.07608
 C77 C 1.07836 0.55312 -0.14039
 O78 O 0.95763 0.43071 -0.13679
 O79 O 0.93365 0.44920 -0.06405
 C80 C 0.93465 0.43081 -0.11594
 Zr81 Zr 0.99943 0.45792 -0.09245
 O82 O 1.00147 0.45233 -0.23182
 O83 O 0.98957 0.41625 -0.06489
 Zr84 Zr 1.01345 0.52489 -0.12480
 O85 O 1.01672 0.52028 -0.26415
 O86 O 1.01845 0.56528 -0.14597
 Zr87 Zr 0.96634 0.48325 0.00070
 Zr88 Zr 1.04739 0.50911 0.00559
 O89 O 1.03015 0.49836 -0.12348
 O90 O 0.98213 0.48293 -0.12752
 O91 O 1.02317 0.46544 0.02305
 O92 O 0.99084 0.52679 -0.01692
 O93 O 0.97502 0.45033 0.02037
 O94 O 1.03920 0.54251 -0.01387
 H95 H 1.04312 0.51487 0.18554
 H96 H 0.98122 0.53789 -0.02514
 H97 H 1.04253 0.50040 -0.17453
 H98 H 0.95940 0.43095 0.02792
 H99 H 1.03729 0.58569 0.04272
 H100 H 1.03438 0.57858 -0.10902
 H101 H 0.99964 0.50312 -0.28295
 H102 H 0.98837 0.45732 -0.26085
 H103 H 0.98802 0.40726 -0.12374
 H104 H 0.99966 0.42044 0.10737
 H105 H 0.99093 0.48113 0.28836
 H106 H 1.00113 0.52624 0.26674
 O107 O 0.53937 0.58176 -0.16096
 O108 O 0.50141 0.57303 -0.07447
 C109 C 0.51964 0.58684 -0.13597
 O110 O 0.49689 0.45594 -0.16554
 O111 O 0.53604 0.46469 -0.08624
 C112 C 0.51685 0.45084 -0.14488
 O113 O 0.45749 0.49542 -0.17017
 O114 O 0.46242 0.53176 -0.08127
 C115 C 0.45060 0.51387 -0.14542
 O116 O 0.58212 0.54532 -0.16327
 O117 O 0.57608 0.50679 -0.08500
 C118 C 0.58901 0.52644 -0.14369
 Zr119 Zr 0.54867 0.55051 -0.11593
 O120 O 0.55025 0.55051 -0.25739
 O121 O 0.58462 0.59070 -0.11153
 Zr122 Zr 0.48882 0.48784 -0.11850
 O123 O 0.48922 0.48592 -0.25975
 O124 O 0.44979 0.45044 -0.11452
 O125 O 0.50559 0.53111 -0.13336
 O126 O 0.53154 0.50782 -0.13553
 O127 O 0.58345 0.54454 0.14704
 O128 O 0.57638 0.50600 0.06596
 C129 C 0.59027 0.52592 0.12292
 O130 O 0.45625 0.49358 0.15869
 O131 O 0.46184 0.53074 0.07359
 C132 C 0.44937 0.51233 0.13566
 O133 O 0.49624 0.45345 0.14489
 O134 O 0.53541 0.46327 0.06332
 C135 C 0.51591 0.44817 0.12016
 O136 O 0.53793 0.57784 0.16576
 O137 O 0.50053 0.57113 0.08053
 C138 C 0.51820 0.58336 0.14494
 Zr139 Zr 0.54859 0.54878 0.10965
 O140 O 0.55069 0.54616 0.25033
 O141 O 0.58383 0.58946 0.11246
 Zr142 Zr 0.48870 0.48657 0.10740
 O143 O 0.49089 0.48478 0.24837
 O144 O 0.44974 0.44914 0.10760
 Zr145 Zr 0.49674 0.53826 -0.00188
 Zr146 Zr 0.54081 0.49862 -0.00766
 O147 O 0.53158 0.50596 0.12305
 O148 O 0.50546 0.52944 0.12759
 O149 O 0.56653 0.54253 -0.00499
 O150 O 0.47158 0.49437 -0.00442
 O151 O 0.54006 0.56577 -0.00079
 O152 O 0.49744 0.47049 -0.00756
 H153 H 0.53802 0.50220 -0.18962
 H154 H 0.45101 0.48610 -0.00483
 H155 H 0.53846 0.49962 0.17422
 H156 H 0.54702 0.58621 0.00190
 H157 H 0.45280 0.43570 -0.08737
 H158 H 0.45140 0.43587 0.06648
 H159 H 0.49032 0.50125 0.27319
 H160 H 0.53233 0.54199 0.27481
 H161 H 0.59797 0.58937 0.07169
 H162 H 0.59955 0.58877 -0.08121
 H163 H 0.53254 0.54874 -0.27970
 H164 H 0.49475 0.50490 -0.28220
 O165 O 0.47991 0.04449 0.17050
 O166 O 0.51995 0.07460 0.09440
 C167 C 0.50084 0.06926 0.15394
 O168 O 0.51827 -0.04290 0.14186
 O169 O 0.47917 -0.06943 0.05727
 C170 C 0.49814 -0.06673 0.11385
 O171 O 0.55878 0.03473 0.17581
 O172 O 0.55726 0.06975 0.09684
 C173 C 0.56741 0.06097 0.15927
 O174 O 0.43326 -0.03345 0.14381
 O175 O 0.43958 -0.06470 0.05770
 C176 C 0.42577 -0.05856 0.11529
 Zr177 Zr 0.46926 0.00510 0.11169
 O178 O 0.46664 0.00320 0.25316
 O179 O 0.43361 0.01005 0.10165
 Zr180 Zr 0.52720 -0.00151 0.11264
 O181 O 0.52266 -0.00800 0.25251
 O182 O 0.56546 -0.00191 0.11615
 O183 O 0.51202 0.02610 0.13548
 O184 O 0.48422 -0.02291 0.12270
 O185 O 0.43793 -0.02618 -0.16421
 O186 O 0.44181 -0.06100 -0.09242
 C187 C 0.42959 -0.05242 -0.14797
 O188 O 0.56524 0.04288 -0.15025
 O189 O 0.56009 0.07410 -0.06040
 C190 C 0.57308 0.06805 -0.12156
 O191 O 0.52183 -0.03519 -0.16652
 O192 O 0.48162 -0.06564 -0.09270
 C193 C 0.50121 -0.06015 -0.15090
 O194 O 0.48435 0.05164 -0.15301
 O195 O 0.52134 0.07797 -0.06065
 C196 C 0.50401 0.07551 -0.12324
 Zr197 Zr 0.47278 0.01028 -0.11295
 O198 O 0.47364 0.01057 -0.25451
 O199 O 0.43788 0.01674 -0.11304
 Zr200 Zr 0.53088 0.00403 -0.11207
 O201 O 0.53161 0.00494 -0.25359
 O202 O 0.56865 0.00259 -0.10954
 Zr203 Zr 0.52367 0.04597 0.00990
 Zr204 Zr 0.47656 -0.03712 -0.01034
 O205 O 0.48833 -0.01665 -0.13482
 O206 O 0.51622 0.03246 -0.12421
 O207 O 0.45252 -0.01676 -0.00674
 O208 O 0.54705 0.02505 0.00670
 O209 O 0.48067 0.03246 0.00534
 O210 O 0.51953 -0.02410 -0.00605
 H211 H 0.47636 -0.03707 0.17091
 H212 H 0.56766 0.03615 0.01100
 H213 H 0.48189 -0.02782 -0.19056
 H214 H 0.47427 0.04649 0.00837
 H215 H 0.56436 -0.01560 0.07087
 H216 H 0.56467 -0.01536 -0.08168
 H217 H 0.53182 0.02233 -0.27245
 H218 H 0.49200 0.02608 -0.27345
 H219 H 0.42434 0.00356 -0.06910
 H220 H 0.42727 0.00999 0.16377
 H221 H 0.46578 -0.01442 0.27284
 H222 H 0.51727 0.00546 0.27709
 C223 C 1.18312 0.47082 0.40607
 C224 C 1.16495 0.47495 0.35089
 C225 C 1.17573 0.49468 0.28072
 C226 C 1.20462 0.50956 0.26604
 C227 C 1.22268 0.50550 0.32191
 C228 C 1.21227 0.48669 0.39458
 C229 C 1.15746 0.49931 0.22697
 C230 C 1.12856 0.48444 0.24299
 C231 C 1.11793 0.46445 0.31276
 C232 C 1.13613 0.45978 0.36589
 C233 C 1.08921 0.44956 0.32909
 C234 C 1.07106 0.45455 0.27765
 C235 C 1.08119 0.47456 0.20851
 C236 C 1.11009 0.48934 0.19110
 H237 H 1.17441 0.45495 0.45775
 H238 H 1.21331 0.52471 0.21231
 H239 H 1.24493 0.51819 0.31062
 H240 H 1.16573 0.51460 0.17343
 H241 H 1.12788 0.44459 0.41976
 H242 H 1.08075 0.43415 0.38215
 H243 H 1.04897 0.44272 0.29272
 H244 H 1.11823 0.50478 0.13804
 C245 C 0.47919 0.68488 0.40649
 C246 C 0.48282 0.66632 0.35081
 C247 C 0.46505 0.65413 0.27660
 C248 C 0.44410 0.66096 0.25911
 C249 C 0.44073 0.67962 0.31478
 C250 C 0.45782 0.69139 0.39048
 C251 C 0.46879 0.63566 0.22053
 C252 C 0.49024 0.62943 0.23757
 C253 C 0.50809 0.64182 0.31163
 C254 C 0.50427 0.66016 0.36774
 C255 C 0.52949 0.63561 0.32858
 C256 C 0.53303 0.61704 0.27337
 C257 C 0.51530 0.60432 0.19990
 C258 C 0.49406 0.61089 0.18199
 H259 H 0.49421 0.69552 0.45893
 H260 H 0.43036 0.65195 0.20221
 H261 H 0.42416 0.68426 0.29989
 H262 H 0.45511 0.62622 0.16364
 H263 H 0.51794 0.66959 0.42467
 H264 H 0.54335 0.64495 0.38502
 H265 H 0.54954 0.61240 0.28908
 H266 H 0.48031 0.60143 0.12540
 C267 C 0.30358 -0.19000 0.35309
 C268 C 0.32803 -0.16778 0.31689
 C269 C 0.35438 -0.16297 0.34677
 C270 C 0.35586 -0.18047 0.41194
 C271 C 0.33150 -0.20214 0.44887
 C272 C 0.30499 -0.20692 0.42158
 C273 C 0.37884 -0.14059 0.31175
 C274 C 0.37731 -0.12264 0.24818
 C275 C 0.35096 -0.12720 0.21890
 C276 C 0.32649 -0.14989 0.25288
 C277 C 0.34956 -0.10880 0.15663
 C278 C 0.37403 -0.08612 0.12366
 C279 C 0.40013 -0.08178 0.15178
 C280 C 0.40174 -0.10001 0.21390
 H281 H 0.28349 -0.19301 0.33148
 H282 H 0.37588 -0.17725 0.43500
 H283 H 0.33346 -0.21553 0.49807
 H284 H 0.39904 -0.13691 0.33487
 H285 H 0.30629 -0.15340 0.23038
 H286 H 0.32957 -0.11191 0.13363
 H287 H 0.37266 -0.07213 0.07544
 H288 H 0.42200 -0.09631 0.23620
 C289 C 0.81954 0.50883 0.36642
 C290 C 0.84078 0.50682 0.32028
 C291 C 0.83718 0.48006 0.29899
 C292 C 0.81294 0.45587 0.32624
 C293 C 0.79263 0.45810 0.37588
 C294 C 0.79586 0.48447 0.39669
 C295 C 0.85807 0.47782 0.25232
 C296 C 0.88306 0.50192 0.22989
 C297 C 0.88732 0.52867 0.25411
 C298 C 0.86587 0.53101 0.29762
 C299 C 0.91313 0.55252 0.23534
 C300 C 0.93448 0.54978 0.19324
 C301 C 0.92996 0.52327 0.16695
 C302 C 0.90410 0.49951 0.18496
 H303 H 0.82199 0.52919 0.38298
 H304 H 0.80998 0.43524 0.31093
 H305 H 0.77436 0.43921 0.39860
 H306 H 0.85514 0.45729 0.23517
 H307 H 0.86893 0.55152 0.31556
 H308 H 0.91689 0.57320 0.25404
 H309 H 0.95431 0.56834 0.17992
 H310 H 0.90052 0.47892 0.16566
 C311 C 0.49771 0.31187 0.36279
 C312 C 0.49712 0.33516 0.32629
 C313 C 0.47535 0.34065 0.35005
 C314 C 0.45450 0.32269 0.40965
 C315 C 0.45535 0.29967 0.44605
 C316 C 0.47708 0.29428 0.42373
 C317 C 0.47479 0.36401 0.31409
 C318 C 0.49578 0.38202 0.25484
 C319 C 0.51756 0.37655 0.23136
 C320 C 0.51808 0.35316 0.26710
 C321 C 0.53853 0.39459 0.17244
 C322 C 0.53793 0.41779 0.13673
 C323 C 0.51635 0.42351 0.15917
 C324 C 0.49532 0.40545 0.21866
 H325 H 0.51450 0.30772 0.34559
 H326 H 0.43764 0.32653 0.42849
 H327 H 0.43917 0.28614 0.49243
 H328 H 0.45808 0.36818 0.33232
 H329 H 0.53483 0.34901 0.24903
 H330 H 0.55541 0.39075 0.15386
 H331 H 0.55447 0.43129 0.09137
 H332 H 0.47854 0.40952 0.23672
 C333 C 0.68469 0.19056 0.42089
 C334 C 0.66194 0.17035 0.37224
 C335 C 0.64668 0.17870 0.31613
 C336 C 0.65412 0.20710 0.31138
 C337 C 0.67698 0.22713 0.35972
 C338 C 0.69244 0.21898 0.41426
 C339 C 0.62476 0.15864 0.26406
 C340 C 0.61810 0.13043 0.26686
 C341 C 0.63302 0.12207 0.32445
 C342 C 0.65477 0.14206 0.37697
 C343 C 0.62615 0.09386 0.32781
 C344 C 0.60484 0.07407 0.27413
 C345 C 0.59010 0.08213 0.21558
 C346 C 0.59691 0.11046 0.21238
 H347 H 0.69708 0.18435 0.46120
 H348 H 0.64266 0.21388 0.26884
 H349 H 0.68294 0.24906 0.35353
 H350 H 0.61321 0.16505 0.22033
 H351 H 0.66641 0.13568 0.42039
 H352 H 0.63732 0.08710 0.37175
 H353 H 0.60005 0.05243 0.27811
 H354 H 0.58565 0.11699 0.16793
 C355 C 0.49029 0.19787 -0.35422
 C356 C 0.48942 0.17349 -0.32116
 C357 C 0.46930 0.14701 -0.35439
 C358 C 0.45034 0.14532 -0.41958
 C359 C 0.45170 0.16965 -0.45340
 C360 C 0.47209 0.19629 -0.42295
 C361 C 0.46851 0.12262 -0.32234
 C362 C 0.48781 0.12434 -0.25815
 C363 C 0.50814 0.15080 -0.22544
 C364 C 0.50874 0.17521 -0.25682
 C365 C 0.52750 0.15237 -0.16173
 C366 C 0.52650 0.12795 -0.12978
 C367 C 0.50611 0.10147 -0.16089
 C368 C 0.48696 0.09994 -0.22585
 H369 H 0.50624 0.21815 -0.33009
 H370 H 0.43457 0.12518 -0.44501
 H371 H 0.43648 0.16758 -0.50287
 H372 H 0.45297 0.10232 -0.34769
 H373 H 0.52431 0.19551 -0.23161
 H374 H 0.54330 0.17247 -0.13614
 H375 H 0.54156 0.12984 -0.07988
 H376 H 0.47112 0.07973 -0.25069
 C377 C 0.69830 0.50033 -0.40981
 C378 C 0.67820 0.50128 -0.35454
 C379 C 0.66422 0.48025 -0.28951
 C380 C 0.67093 0.45882 -0.28022
 C381 C 0.69150 0.45838 -0.33422
 C382 C 0.70522 0.47891 -0.40064
 C383 C 0.64413 0.48128 -0.23398
 C384 C 0.63826 0.50340 -0.24176
 C385 C 0.65267 0.52466 -0.30593
 C386 C 0.67239 0.52338 -0.36223
 C387 C 0.64706 0.54688 -0.31304
 C388 C 0.62699 0.54784 -0.25828
 C389 C 0.61207 0.52657 -0.19531
 C390 C 0.61809 0.50451 -0.18681
 H391 H 0.70979 0.51736 -0.45617
 H392 H 0.66050 0.44255 -0.23051
 H393 H 0.69618 0.44151 -0.32536
 H394 H 0.63324 0.46504 -0.18443
 H395 H 0.68329 0.53963 -0.41176
 H396 H 0.65801 0.56341 -0.36160
 H397 H 0.62285 0.56509 -0.26645
 H398 H 0.60671 0.48788 -0.13892
 C399 C 0.79983 0.31040 -0.34952
 C400 C 0.82618 0.32964 -0.31543
 C401 C 0.85063 0.33254 -0.35654
 C402 C 0.84824 0.31576 -0.43039
 C403 C 0.82198 0.29708 -0.46512
 C404 C 0.79741 0.29471 -0.42699
 C405 C 0.87702 0.35242 -0.32400
 C406 C 0.87924 0.36986 -0.25186
 C407 C 0.85465 0.36685 -0.21113
 C408 C 0.82838 0.34666 -0.24249
 C409 C 0.85663 0.38435 -0.14017
 C410 C 0.88265 0.40489 -0.11012
 C411 C 0.90743 0.40838 -0.14983
 C412 C 0.90556 0.39051 -0.22046
 H413 H 0.78131 0.30910 -0.31910
 H414 H 0.86669 0.31734 -0.46216
 H415 H 0.82093 0.28428 -0.52182
 H416 H 0.89576 0.35466 -0.35576
 H417 H 0.80963 0.34456 -0.21117
 H418 H 0.83802 0.38231 -0.10819
 H419 H 0.88327 0.41804 -0.05502
 H420 H 0.92443 0.39296 -0.25174
 C421 C 0.47130 -0.19733 -0.41469
 C422 C 0.47324 -0.17596 -0.35845
 C423 C 0.45614 -0.18274 -0.28162
 C424 C 0.43771 -0.21093 -0.26166
 C425 C 0.43633 -0.23217 -0.31707
 C426 C 0.45268 -0.22569 -0.39538
 C427 C 0.45813 -0.16127 -0.22530
 C428 C 0.47749 -0.13316 -0.24398
 C429 C 0.49494 -0.12656 -0.32007
 C430 C 0.49253 -0.14793 -0.37714
 C431 C 0.51464 -0.09865 -0.33796
 C432 C 0.51697 -0.07733 -0.28158
 C433 C 0.49949 -0.08339 -0.20641
 C434 C 0.47977 -0.11150 -0.18786
 H435 H 0.48556 -0.19182 -0.47061
 H436 H 0.42455 -0.21658 -0.20274
 H437 H 0.42183 -0.25375 -0.29986
 H438 H 0.44488 -0.16646 -0.16661
 H439 H 0.50582 -0.14276 -0.43577
 H440 H 0.52822 -0.09327 -0.39581
 H441 H 0.53225 -0.05594 -0.29805
 H442 H 0.46619 -0.11653 -0.13011
 C443 C 0.31630 0.49584 -0.38785
 C444 C 0.33714 0.49676 -0.33252
 C445 C 0.32979 0.47872 -0.25801
 C446 C 0.30149 0.46042 -0.23953
 C447 C 0.28074 0.45941 -0.29596
 C448 C 0.28791 0.47645 -0.37278
 C449 C 0.35084 0.47923 -0.20382
 C450 C 0.37908 0.49735 -0.22423
 C451 C 0.38627 0.51559 -0.29859
 C452 C 0.36526 0.51531 -0.35169
 C453 C 0.41442 0.53344 -0.31981
 C454 C 0.43533 0.53292 -0.26885
 C455 C 0.42839 0.51496 -0.19530
 C456 C 0.40033 0.49727 -0.17262
 H457 H 0.32231 0.51081 -0.44198
 H458 H 0.29541 0.44657 -0.18224
 H459 H 0.25915 0.44442 -0.28139
 H460 H 0.34528 0.46530 -0.14678
 H461 H 0.37081 0.52913 -0.40908
 H462 H 0.42024 0.54745 -0.37666
 H463 H 0.45697 0.54625 -0.28757
 H464 H 0.39514 0.48325 -0.11598
 C465 C 1.20557 0.68258 -0.37376
 C466 C 1.18057 0.66095 -0.33788
 C467 C 1.15554 0.66207 -0.34730
 C468 C 1.15593 0.68481 -0.39127
 C469 C 1.18081 0.70617 -0.42639
 C470 C 1.20568 0.70506 -0.41908
 C471 C 1.13050 0.64054 -0.31241
 C472 C 1.13009 0.61795 -0.26732
 C473 C 1.15505 0.61680 -0.25717
 C474 C 1.18013 0.63824 -0.29296
 C475 C 1.15448 0.59432 -0.21055
 C476 C 1.12953 0.57343 -0.17329
 C477 C 1.10460 0.57442 -0.18307
 C478 C 1.10508 0.59668 -0.23107
 H479 H 1.22479 0.68176 -0.36788
 H480 H 1.13698 0.68607 -0.39855
 H481 H 1.18068 0.72360 -0.45984
 H482 H 1.11135 0.64146 -0.31982
 H483 H 1.19928 0.63735 -0.28537
 H484 H 1.17338 0.59306 -0.20203
 H485 H 1.12975 0.55652 -0.13669
 H486 H 1.08610 0.59790 -0.23837
 C487 C 0.82037 0.49537 -0.41685
 C488 C 0.84076 0.49352 -0.36608
 C489 C 0.83270 0.47193 -0.30229
 C490 C 0.80436 0.45244 -0.29094
 C491 C 0.78416 0.45445 -0.34178
 C492 C 0.79183 0.47575 -0.40628
 C493 C 0.85302 0.47048 -0.24974
 C494 C 0.88129 0.49052 -0.25987
 C495 C 0.88938 0.51198 -0.32432
 C496 C 0.86907 0.51334 -0.37705
 C497 C 0.91768 0.53183 -0.33463
 C498 C 0.93782 0.53057 -0.28123
 C499 C 0.92999 0.50953 -0.21618
 C500 C 0.90161 0.48950 -0.20616
 H501 H 0.82675 0.51321 -0.46040
 H502 H 0.79779 0.43573 -0.24233
 H503 H 0.76247 0.43883 -0.33189
 H504 H 0.84681 0.45398 -0.20040
 H505 H 0.87526 0.52989 -0.42621
 H506 H 0.92424 0.54837 -0.38387
 H507 H 0.95952 0.54621 -0.29042
 H508 H 0.89529 0.47294 -0.15702
 C509 C 0.50058 0.31713 -0.39524
 C510 C 0.50136 0.33794 -0.33862
 C511 C 0.48278 0.33029 -0.26532
 C512 C 0.46468 0.30189 -0.24748
 C513 C 0.46433 0.28125 -0.30333
 C514 C 0.48153 0.28858 -0.37984
 C515 C 0.48244 0.35112 -0.21143
 C516 C 0.50082 0.37952 -0.22908
 C517 C 0.52032 0.38712 -0.29998
 C518 C 0.52032 0.36630 -0.35466
 C519 C 0.53933 0.41550 -0.31558
 C520 C 0.53860 0.43618 -0.26280
 C521 C 0.51862 0.42878 -0.19484
 C522 C 0.49989 0.40050 -0.17749
 H523 H 0.51513 0.32317 -0.45067
 H524 H 0.45049 0.29562 -0.19102
 H525 H 0.44939 0.25955 -0.28922
 H526 H 0.46780 0.34524 -0.15624
 H527 H 0.53488 0.37217 -0.41013
 H528 H 0.55457 0.42169 -0.36901
 H529 H 0.55320 0.45803 -0.27629
 H530 H 0.48463 0.39493 -0.12431
 C531 C 0.69779 0.19867 -0.35570
 C532 C 0.67419 0.17876 -0.30912
 C533 C 0.65165 0.18374 -0.29273
 C534 C 0.65310 0.20856 -0.32408
 C535 C 0.67631 0.22782 -0.37321
 C536 C 0.69864 0.22290 -0.38951
 C537 C 0.62778 0.16354 -0.24754
 C538 C 0.62578 0.13799 -0.22152
 C539 C 0.64819 0.13293 -0.23966
 C540 C 0.67240 0.15351 -0.28174
 C541 C 0.64582 0.10704 -0.21731
 C542 C 0.62131 0.08612 -0.17884
 C543 C 0.59899 0.09090 -0.15985
 C544 C 0.60145 0.11707 -0.17998
 H545 H 0.71494 0.19477 -0.36961
 H546 H 0.63600 0.21270 -0.31272
 H547 H 0.67670 0.24638 -0.39979
 H548 H 0.61051 0.16736 -0.23487
 H549 H 0.68953 0.14954 -0.29546
 H550 H 0.66274 0.10280 -0.23103
 H551 H 0.61982 0.06613 -0.16332
 H552 H 0.58413 0.12071 -0.16630
 C553 C 1.18630 0.46547 -0.34619
 C554 C 1.16561 0.47015 -0.30756
 C555 C 1.16540 0.49536 -0.32590
 C556 C 1.18521 0.51502 -0.38442
 C557 C 1.20479 0.50961 -0.42590
 C558 C 1.20551 0.48475 -0.40791
 C559 C 1.14515 0.50041 -0.28660
 C560 C 1.12427 0.48003 -0.23239
 C561 C 1.12362 0.45427 -0.21690
 C562 C 1.14467 0.44973 -0.25305
 C563 C 1.10171 0.43342 -0.16631
 C564 C 1.08072 0.43813 -0.13133
 C565 C 1.08189 0.46400 -0.14435
 C566 C 1.10372 0.48489 -0.19455
 H567 H 1.18644 0.44613 -0.33235
 H568 H 1.18530 0.53441 -0.39921
 H569 H 1.21980 0.52518 -0.47111
 H570 H 1.14529 0.51995 -0.29968
 H571 H 1.14442 0.43013 -0.24032
 H572 H 1.10072 0.41346 -0.15432
 H573 H 1.06394 0.42188 -0.09250
 H574 H 1.10435 0.50477 -0.20541
 C575 C 0.48252 0.69277 -0.37258
 C576 C 0.48485 0.67116 -0.33069
 C577 C 0.46083 0.64457 -0.31986
 C578 C 0.43518 0.63978 -0.35468
 C579 C 0.43343 0.66102 -0.40086
 C580 C 0.45706 0.68753 -0.41013
 C581 C 0.46295 0.62315 -0.27567
 C582 C 0.48902 0.62756 -0.24633
 C583 C 0.51327 0.65362 -0.26186
 C584 C 0.51093 0.67549 -0.30189
 C585 C 0.53949 0.65725 -0.23785
 C586 C 0.54167 0.63526 -0.19871
 C587 C 0.51761 0.60974 -0.18003
 C588 C 0.49131 0.60612 -0.20304
 H589 H 0.50075 0.71332 -0.38010
 H590 H 0.41662 0.61948 -0.34764
 H591 H 0.41365 0.65687 -0.42909
 H592 H 0.44447 0.60290 -0.26585
 H593 H 0.52945 0.69565 -0.31239
 H594 H 0.55831 0.67699 -0.25011
 H595 H 0.56209 0.63838 -0.18105
 H596 H 0.47270 0.58643 -0.18860
 C597 C 0.30670 -0.18380 -0.38625
 C598 C 0.32834 -0.16361 -0.33391
 C599 C 0.34240 -0.17198 -0.27277
 C600 C 0.33418 -0.20052 -0.26423
 C601 C 0.31280 -0.22048 -0.31772
 C602 C 0.29938 -0.21217 -0.38044
 C603 C 0.36466 -0.15167 -0.22232
 C604 C 0.37317 -0.12312 -0.23302
 C605 C 0.35894 -0.11485 -0.29376
 C606 C 0.33653 -0.13516 -0.34345
 C607 C 0.36758 -0.08635 -0.30466
 C608 C 0.39035 -0.06611 -0.25672
 C609 C 0.40489 -0.07398 -0.19671
 C610 C 0.39596 -0.10266 -0.18479
 H611 H 0.29603 -0.17740 -0.43366
 H612 H 0.34465 -0.20732 -0.21751
 H613 H 0.30729 -0.24231 -0.31221
 H614 H 0.37558 -0.15804 -0.17580
 H615 H 0.32575 -0.12878 -0.39056
 H616 H 0.35687 -0.07967 -0.35089
 H617 H 0.39666 -0.04424 -0.26719
 H618 H 0.40692 -0.10913 -0.13885
 C619 C 0.47273 -0.20499 0.35435
 C620 C 0.47240 -0.18256 0.31075
 C621 C 0.44815 -0.17982 0.31427
 C622 C 0.42486 -0.19930 0.36333
 C623 C 0.42580 -0.22100 0.40954
 C624 C 0.44972 -0.22390 0.40528
 C625 C 0.44783 -0.15737 0.27026
 C626 C 0.47188 -0.13697 0.22646
 C627 C 0.49637 -0.13935 0.22563
 C628 C 0.49626 -0.16244 0.26596
 C629 C 0.52083 -0.11821 0.18631
 C630 C 0.52125 -0.09460 0.14978
 C631 C 0.49700 -0.09226 0.14911
 C632 C 0.47219 -0.11373 0.18592
 H633 H 0.49127 -0.20719 0.35186
 H634 H 0.40616 -0.19747 0.36719
 H635 H 0.40789 -0.23556 0.44852
 H636 H 0.42918 -0.15538 0.27210
 H637 H 0.51499 -0.16433 0.26469
 H638 H 0.53979 -0.11963 0.18561
 H639 H 0.54051 -0.07816 0.12153
 H640 H 0.45354 -0.11175 0.18607
 C641 C 0.31443 0.49710 0.37656
 C642 C 0.33721 0.49551 0.34105
 C643 C 0.33994 0.47152 0.35683
 C644 C 0.31971 0.44952 0.40843
 C645 C 0.29729 0.45149 0.44495
 C646 C 0.29464 0.47538 0.42990
 C647 C 0.36289 0.47006 0.32119
 C648 C 0.38318 0.49238 0.27047
 C649 C 0.38038 0.51641 0.25602
 C650 C 0.35748 0.51779 0.29111
 C651 C 0.40045 0.53877 0.20605
 C652 C 0.42286 0.53726 0.16893
 C653 C 0.42591 0.51341 0.18102
 C654 C 0.40610 0.49108 0.23315
 H655 H 0.31256 0.51567 0.36560
 H656 H 0.32139 0.43096 0.42141
 H657 H 0.28213 0.43451 0.48589
 H658 H 0.36493 0.45162 0.33288
 H659 H 0.35544 0.53624 0.27953
 H660 H 0.39870 0.55738 0.19485
 H661 H 0.43778 0.55492 0.12984
 H662 H 0.40815 0.47259 0.24301
 C663 C 1.20487 0.68676 0.37007
 C664 C 1.18168 0.66810 0.31957
 C665 C 1.16304 0.67673 0.28638
 C666 C 1.16864 0.70431 0.30125
 C667 C 1.19210 0.72292 0.35042
 C668 C 1.20992 0.71403 0.38654
 C669 C 1.13903 0.65758 0.23981
 C670 C 1.13370 0.63009 0.22475
 C671 C 1.15303 0.62193 0.25479
 C672 C 1.17673 0.64088 0.30268
 C673 C 1.14824 0.59481 0.23707
 C674 C 1.12430 0.57575 0.19133
 C675 C 1.10446 0.58327 0.16395
 C676 C 1.10931 0.61055 0.18052
 H677 H 1.21881 0.68004 0.39786
 H678 H 1.15472 0.71137 0.27579
 H679 H 1.19586 0.74398 0.36296
 H680 H 1.12446 0.66402 0.21573
 H681 H 1.19124 0.63441 0.32715
 H682 H 1.16292 0.58828 0.25909
 H683 H 1.12088 0.55478 0.17958
 H684 H 1.09419 0.61653 0.15871
 C685 C 0.49519 0.19566 0.38600
 C686 C 0.49283 0.17288 0.33624
 C687 C 0.46974 0.15814 0.27868
 C688 C 0.44996 0.16711 0.26969
 C689 C 0.45238 0.18971 0.32012
 C690 C 0.47451 0.20355 0.38049
 C691 C 0.46655 0.13443 0.23235
 C692 C 0.48623 0.12538 0.24250
 C693 C 0.50973 0.14063 0.29822
 C694 C 0.51279 0.16419 0.34499
 C695 C 0.52980 0.13204 0.30629
 C696 C 0.52666 0.10858 0.25953
 C697 C 0.50321 0.09310 0.20556
 C698 C 0.48294 0.10142 0.19739
 H699 H 0.51245 0.20655 0.43204
 H700 H 0.43225 0.15619 0.22545
 H701 H 0.43629 0.19559 0.31516
 H702 H 0.44868 0.12294 0.18900
 H703 H 0.53058 0.17560 0.38872
 H704 H 0.54799 0.14354 0.34824
 H705 H 0.54241 0.10232 0.26604
 H706 H 0.46506 0.08964 0.15438
 C707 C 0.70873 0.50925 0.36450
 C708 C 0.68568 0.50776 0.31923
 C709 C 0.66135 0.48146 0.30713
 C710 C 0.66026 0.45724 0.34216
 C711 C 0.68284 0.45908 0.39004
 C712 C 0.70711 0.48501 0.40175
 C713 C 0.63832 0.47984 0.26178
 C714 C 0.63883 0.50427 0.23140
 C715 C 0.66281 0.53065 0.24588
 C716 C 0.68628 0.53218 0.28813
 C717 C 0.66272 0.55513 0.21928
 C718 C 0.63901 0.55354 0.17967
 C719 C 0.61532 0.52743 0.16365
 C720 C 0.61545 0.50282 0.18870
 H721 H 0.72745 0.52928 0.37414
 H722 H 0.64176 0.43696 0.33397
 H723 H 0.68143 0.44023 0.41827
 H724 H 0.61977 0.45964 0.25199
 H725 H 0.70472 0.55240 0.29866
 H726 H 0.68083 0.57553 0.23029
 H727 H 0.63925 0.57272 0.16060
 H728 H 0.59702 0.48263 0.17756
 C729 C 0.80230 0.32547 0.39241
 C730 C 0.82464 0.34376 0.33805
 C731 C 0.83267 0.33298 0.26458
 C732 C 0.81806 0.30417 0.24633
 C733 C 0.79629 0.28604 0.30214
 C734 C 0.78863 0.29646 0.37648
 C735 C 0.85557 0.35103 0.21181
 C736 C 0.87099 0.37959 0.23295
 C737 C 0.86293 0.39044 0.30627
 C738 C 0.83958 0.37249 0.35768
 C739 C 0.87880 0.41897 0.32806
 C740 C 0.90278 0.43641 0.27895
 C741 C 0.91082 0.42561 0.20681
 C742 C 0.89479 0.39737 0.18319
 H743 H 0.79611 0.33360 0.44896
 H744 H 0.82392 0.29559 0.19024
 H745 H 0.78587 0.26374 0.28874
 H746 H 0.86182 0.34274 0.15577
 H747 H 0.83350 0.38072 0.41430
 H748 H 0.87294 0.42765 0.38386
 H749 H 0.91518 0.45827 0.29749
 H750 H 0.90122 0.38921 0.12724
   
