data_POSCAR
  _audit_creation_date              2014-09-24
  _audit_creation_method            'ToBaCCo'
  _symmetry_space_group_name_H-M    'P1'
  _symmetry_Int_Tables_number       1
  _symmetry_cell_setting            triclinic
  loop_
  _symmetry_equiv_pos_as_xyz
 x,y,z
_cell_length_a 50.9205
_cell_length_b 50.8004
_cell_length_c 40.9170
_cell_angle_alpha 90.043800
_cell_angle_beta 89.954100
_cell_angle_gamma 120.373400
loop_
  _atom_site_label
  _atom_site_type_symbol
  _atom_site_fract_x
  _atom_site_fract_y
  _atom_site_fract_z
C1 C -0.04807 0.49199 -0.08979
 C2 C -0.04749 0.46530 -0.09017
 C3 C -0.03287 0.46487 -0.06173
 N4 N -0.02468 0.49035 -0.04399
 C5 C -0.03376 0.50709 -0.06114
 C6 C -0.02933 0.44025 -0.05151
 C7 C -0.01215 0.44133 -0.02386
 C8 C -0.01278 0.41617 -0.00969
 C9 C 0.00816 0.42701 0.01531
 C10 C 0.02102 0.45847 0.01575
 N11 N 0.00871 0.46700 -0.00836
 C12 C 0.04466 0.47844 0.03695
 C13 C 0.05373 0.50945 0.04142
 C14 C 0.07837 0.52994 0.06013
 C15 C 0.07793 0.55671 0.06041
 C16 C 0.05306 0.55173 0.04182
 N17 N 0.03822 0.52278 0.03043
 C18 C 0.04320 0.57298 0.03777
 C19 C 0.01929 0.56843 0.01671
 C20 C 0.00560 0.58610 0.01666
 C21 C -0.01555 0.57522 -0.00812
 C22 C -0.01418 0.55121 -0.02262
 N23 N 0.00732 0.54745 -0.00750
 C24 C -0.03134 0.53465 -0.05021
 H25 H -0.05820 0.49928 -0.10831
 H26 H -0.05711 0.44798 -0.10902
 H27 H 0.01560 0.53363 -0.01551
 H28 H -0.02676 0.39248 -0.01676
 H29 H 0.01344 0.41328 0.03121
 H30 H 0.09472 0.52591 0.07267
 H31 H 0.09385 0.57735 0.07323
 H32 H -0.03014 0.58412 -0.01486
 H33 H 0.01650 0.48921 -0.01608
 H34 H 0.01044 0.60498 0.03271
 C35 C 0.47793 0.55164 0.06566
 C36 C 0.45030 0.52511 0.06479
 C37 C 0.45411 0.50480 0.04555
 N38 N 0.48318 0.51799 0.03486
 C39 C 0.49775 0.54670 0.04691
 C40 C 0.43150 0.47410 0.04004
 C41 C 0.43484 0.45444 0.01821
 C42 C 0.41537 0.42312 0.01650
 C43 C 0.42551 0.41270 -0.00882
 C44 C 0.45091 0.43796 -0.02187
 N45 N 0.45623 0.46329 -0.00544
 C46 C 0.46738 0.43732 -0.04935
 C47 C 0.49607 0.46181 -0.05887
 C48 C 0.51140 0.46238 -0.08715
 C49 C 0.53909 0.48882 -0.08623
 C50 C 0.53985 0.50362 -0.05739
 N51 N 0.51359 0.48692 -0.04066
 C52 C 0.56529 0.53090 -0.04598
 C53 C 0.56476 0.54696 -0.01795
 C54 C 0.59031 0.57056 -0.00297
 C55 C 0.58006 0.58100 0.02220
 C56 C 0.54854 0.56349 0.02197
 N57 N 0.53943 0.54304 -0.00274
 C58 C 0.52912 0.56780 0.04317
 H59 H 0.48293 0.57211 0.07890
 H60 H 0.42983 0.52114 0.07722
 H61 H 0.51724 0.52958 -0.01096
 H62 H 0.39577 0.40923 0.03176
 H63 H 0.41521 0.38924 -0.01684
 H64 H 0.50365 0.44532 -0.10625
 H65 H 0.55682 0.49612 -0.10449
 H66 H 0.59421 0.59950 0.03867
 H67 H 0.47141 0.48561 -0.01231
 H68 H 0.61390 0.57947 -0.00963
 C69 C 0.51649 1.05607 -0.07948
 C70 C 0.54299 1.05525 -0.07934
 C71 C 0.54281 1.04033 -0.05088
 N72 N 0.51716 1.03217 -0.03363
 C73 C 0.50087 1.04153 -0.05115
 C74 C 0.56703 1.03643 -0.04032
 C75 C 0.56578 1.01942 -0.01248
 C76 C 0.59075 1.01988 0.00171
 C77 C 0.57984 0.99924 0.02704
 C78 C 0.54850 0.98668 0.02758
 N79 N 0.54014 0.99893 0.00324
 C80 C 0.52846 0.96333 0.04905
 C81 C 0.49747 0.95426 0.05306
 C82 C 0.47685 0.92967 0.07180
 C83 C 0.44999 0.92978 0.07104
 C84 C 0.45507 0.95447 0.05194
 N85 N 0.48415 0.96948 0.04118
 C86 C 0.43367 0.96393 0.04674
 C87 C 0.43839 0.98786 0.02554
 C88 C 0.42037 1.00115 0.02465
 C89 C 0.43158 1.02245 -0.00002
 C90 C 0.45610 1.02154 -0.01366
 N91 N 0.45987 1.00019 0.00192
 C92 C 0.47311 1.03893 -0.04094
 H93 H 0.50964 1.06646 -0.09816
 H94 H 0.56056 1.06490 -0.09787
 H95 H 0.47401 0.99212 -0.00545
 H96 H 0.61437 1.03354 -0.00555
 H97 H 0.59343 0.99391 0.04305
 H98 H 0.48083 0.91352 0.08494
 H99 H 0.42920 0.91373 0.08350
 H100 H 0.42253 1.03680 -0.00730
 H101 H 0.51805 0.99132 -0.00451
 H102 H 0.40104 0.99592 0.04006
 C103 C 0.92449 0.47487 0.56428
 C104 C 0.92520 0.44826 0.56513
 C105 C 0.94990 0.45304 0.54630
 N106 N 0.96440 0.48174 0.53424
 C107 C 0.94881 0.49508 0.54500
 C108 C 0.95982 0.43180 0.54248
 C109 C 0.98330 0.43584 0.52099
 C110 C 0.99683 0.41802 0.52089
 C111 C 1.01730 0.42816 0.49543
 C112 C 1.01573 0.45193 0.48063
 N113 N 0.99476 0.45623 0.49623
 C114 C 1.03218 0.46777 0.45239
 C115 C 1.03455 0.49524 0.44122
 C116 C 1.04840 0.50987 0.41222
 C117 C 1.04794 0.53661 0.41164
 C118 C 1.03383 0.53755 0.44031
 N119 N 1.02585 0.51232 0.45838
 C120 C 1.03061 0.56242 0.45036
 C121 C 1.01373 0.56186 0.47811
 C122 C 1.01438 0.58725 0.49169
 C123 C 0.99363 0.57688 0.51689
 C124 C 0.98089 0.54546 0.51806
 N125 N 0.99308 0.53650 0.49419
 C126 C 0.95743 0.52586 0.53961
 H127 H 0.90817 0.47899 0.57679
 H128 H 0.90951 0.42783 0.57841
 H129 H 0.98527 0.51417 0.48694
 H130 H 0.99225 0.39945 0.53728
 H131 H 1.03155 0.41893 0.48844
 H132 H 1.05823 0.50226 0.39364
 H133 H 1.05731 0.55363 0.39250
 H134 H 0.98839 0.59087 0.53244
 H135 H 0.98634 0.46992 0.48825
 H136 H 1.02816 0.61079 0.48403
 C137 C 0.46070 0.50689 0.41017
 C138 C 0.48811 0.53372 0.41014
 C139 C 0.50296 0.53404 0.43867
 N140 N 0.48546 0.50843 0.45615
 C141 C 0.45968 0.49170 0.43872
 C142 C 0.53110 0.55869 0.44922
 C143 C 0.54713 0.55765 0.47687
 C144 C 0.57182 0.58284 0.49099
 C145 C 0.58178 0.57209 0.51612
 C146 C 0.56288 0.54064 0.51670
 N147 N 0.54205 0.53203 0.49249
 C148 C 0.56618 0.52073 0.53815
 C149 C 0.54377 0.48981 0.54283
 C150 C 0.54749 0.46938 0.56191
 C151 C 0.51996 0.44270 0.56219
 C152 C 0.50031 0.44767 0.54322
 N153 N 0.51488 0.47654 0.53161
 C154 C 0.46904 0.42644 0.53889
 C155 C 0.44996 0.43079 0.51728
 C156 C 0.41845 0.41300 0.51664
 C157 C 0.40862 0.42367 0.49130
 C158 C 0.43440 0.44766 0.47715
 N159 N 0.45947 0.45162 0.49293
 C160 C 0.43432 0.46407 0.44934
 H161 H 0.44332 0.49962 0.39152
 H162 H 0.49600 0.55119 0.39147
 H163 H 0.48180 0.46544 0.48528
 H164 H 0.58175 0.60649 0.48382
 H165 H 0.60085 0.58587 0.53207
 H166 H 0.56780 0.47340 0.57469
 H167 H 0.51490 0.42212 0.57521
 H168 H 0.38517 0.41465 0.48401
 H169 H 0.52745 0.50980 0.48484
 H170 H 0.40402 0.39417 0.53263
 C171 C 0.46154 -0.05180 0.41567
 C172 C 0.48842 -0.05190 0.41580
 C173 C 0.50289 -0.03862 0.44506
 N174 N 0.48559 -0.03062 0.46280
 C175 C 0.46039 -0.03844 0.44484
 C176 C 0.53048 -0.03610 0.45584
 C177 C 0.54628 -0.02001 0.48426
 C178 C 0.57015 -0.02160 0.49862
 C179 C 0.58030 -0.00139 0.52438
 C180 C 0.56237 0.01199 0.52510
 N181 N 0.54191 0.00070 0.50042
 C182 C 0.56636 0.03522 0.54705
 C183 C 0.54499 0.04486 0.55137
 C184 C 0.54964 0.06937 0.57056
 C185 C 0.52297 0.06987 0.57004
 C186 C 0.50284 0.04559 0.55062
 N187 N 0.51631 0.03025 0.53944
 C188 C 0.47206 0.03679 0.54547
 C189 C 0.45246 0.01332 0.52388
 C190 C 0.42109 0.00038 0.52298
 C191 C 0.41069 -0.02018 0.49756
 C192 C 0.43604 -0.01918 0.48353
 N193 N 0.46138 0.00144 0.49965
 C194 C 0.43548 -0.03556 0.45531
 H195 H 0.44462 -0.06082 0.39645
 H196 H 0.49628 -0.06100 0.39668
 H197 H 0.48365 0.00952 0.49218
 H198 H 0.57945 -0.03568 0.49114
 H199 H 0.59892 0.00310 0.54057
 H200 H 0.57001 0.08507 0.58385
 H201 H 0.51875 0.08602 0.58288
 H202 H 0.38718 -0.03405 0.49002
 H203 H 0.52811 0.00911 0.49279
 H204 H 0.40714 0.00540 0.53885
 O205 O 0.17192 0.39942 0.21760
 O206 O 0.22239 0.39721 0.28080
 O207 O 0.17110 0.39755 0.28131
 O208 O 0.22295 0.39900 0.21727
 O209 O 0.24859 0.44945 0.21912
 O210 O 0.19702 0.44799 0.28286
 O211 O 0.24806 0.44766 0.28237
 O212 O 0.19784 0.44985 0.21946
 Cu213 Cu 0.19445 0.39317 0.24915
 Cu214 Cu 0.22544 0.45380 0.25120
 C215 C 0.17646 0.42510 0.20787
 C216 C 0.24394 0.42212 0.29196
 C217 C 0.17524 0.42262 0.29269
 C218 C 0.24456 0.42453 0.20748
 O219 O 0.60497 0.77663 0.22139
 O220 O 0.60461 0.82719 0.28594
 O221 O 0.60479 0.77568 0.28490
 O222 O 0.60420 0.82782 0.22246
 O223 O 0.55386 0.80177 0.22283
 O224 O 0.55444 0.74997 0.28496
 O225 O 0.55426 0.80122 0.28600
 O226 O 0.55462 0.75089 0.22175
 Cu227 Cu 0.60975 0.80445 0.25368
 Cu228 Cu 0.54924 0.77336 0.25391
 C229 C 0.57977 0.75502 0.21093
 C230 C 0.57932 0.82292 0.29655
 C231 C 0.57964 0.75382 0.29517
 C232 C 0.57882 0.82370 0.21239
 O233 O 0.17076 0.77759 0.28477
 O234 O 0.22325 0.83019 0.22218
 O235 O 0.17162 0.77870 0.22118
 O236 O 0.22270 0.82945 0.28576
 O237 O 0.24743 0.80407 0.28533
 O238 O 0.19660 0.75355 0.22113
 O239 O 0.24795 0.80477 0.22208
 O240 O 0.19581 0.75252 0.28440
 Cu241 Cu 0.19455 0.80655 0.25360
 Cu242 Cu 0.22445 0.77618 0.25331
 C243 C 0.17427 0.75595 0.29483
 C244 C 0.24450 0.82631 0.21164
 C245 C 0.17552 0.75751 0.21034
 C246 C 0.24393 0.82550 0.29611
 O247 O 0.82500 0.60057 0.71800
 O248 O 0.77418 0.60079 0.78229
 O249 O 0.82612 0.60187 0.78167
 O250 O 0.77323 0.59945 0.71856
 O251 O 0.74870 0.54901 0.71995
 O252 O 0.80130 0.55142 0.78272
 O253 O 0.74966 0.55035 0.78335
 O254 O 0.80020 0.55012 0.71934
 Cu255 Cu 0.80213 0.60580 0.75007
 Cu256 Cu 0.77248 0.54516 0.75151
 C257 C 0.82112 0.57522 0.70786
 C258 C 0.75323 0.57554 0.79352
 C259 C 0.82268 0.57697 0.79267
 C260 C 0.75203 0.57374 0.70863
 O261 O 0.39427 0.22010 0.72032
 O262 O 0.39749 0.17156 0.78555
 O263 O 0.39487 0.22178 0.78375
 O264 O 0.39604 0.16962 0.72175
 O265 O 0.44634 0.19674 0.72090
 O266 O 0.44518 0.24868 0.78259
 O267 O 0.44777 0.19875 0.78438
 O268 O 0.44459 0.24694 0.71949
 Cu269 Cu 0.39056 0.19294 0.75301
 Cu270 Cu 0.45103 0.22543 0.75180
 C271 C 0.41901 0.24188 0.70911
 C272 C 0.42326 0.17696 0.79585
 C273 C 0.41990 0.24431 0.79325
 C274 C 0.42143 0.17446 0.71084
 O275 O 0.83015 0.22392 0.78449
 O276 O 0.77711 0.17063 0.72262
 O277 O 0.82874 0.22261 0.72106
 O278 O 0.77882 0.17167 0.78620
 O279 O 0.75359 0.19656 0.78648
 O280 O 0.80322 0.24721 0.72164
 O281 O 0.75191 0.19554 0.72324
 O282 O 0.80461 0.24849 0.78477
 Cu283 Cu 0.80626 0.19467 0.75355
 Cu284 Cu 0.77575 0.22441 0.75407
 C285 C 0.82646 0.24541 0.79476
 C286 C 0.75540 0.17403 0.71271
 C287 C 0.82457 0.24374 0.71067
 C288 C 0.75761 0.17543 0.79712
 C289 C 0.12270 0.43307 0.13916
 C290 C 0.13544 0.44648 0.10857
 C291 C 0.11843 0.45349 0.08631
 C292 C 0.08877 0.44698 0.09476
 C293 C 0.07555 0.43238 0.12477
 C294 C 0.09259 0.42544 0.14706
 C295 C 0.07907 0.41125 0.17711
 C296 C 0.04949 0.40398 0.18485
 C297 C 0.03281 0.41073 0.16303
 C298 C 0.04559 0.42481 0.13331
 C299 C 0.13179 0.46727 0.05606
 C300 C 0.16108 0.47382 0.04796
 C301 C 0.17769 0.46691 0.06970
 C302 C 0.16516 0.45346 0.09972
 C303 C 0.07262 0.45694 0.07356
 C304 C 0.05968 0.46620 0.05656
 C305 C 0.14119 0.42884 0.16321
 C306 C 0.15703 0.42648 0.18347
 H307 H 0.09114 0.40552 0.19485
 H308 H 0.03947 0.39305 0.20790
 H309 H 0.00984 0.40503 0.16916
 H310 H 0.03171 0.42956 0.11711
 H311 H 0.11973 0.47302 0.03832
 H312 H 0.17093 0.48431 0.02469
 H313 H 0.20042 0.47201 0.06329
 H314 H 0.17897 0.44851 0.11582
 C315 C 0.57440 0.69135 0.14605
 C316 C 0.56677 0.66241 0.15876
 C317 C 0.56040 0.63801 0.13712
 C318 C 0.56166 0.64268 0.10290
 C319 C 0.57056 0.67194 0.09023
 C320 C 0.57693 0.69636 0.11187
 C321 C 0.58537 0.72531 0.09864
 C322 C 0.58758 0.73003 0.06495
 C323 C 0.58139 0.70615 0.04378
 C324 C 0.57292 0.67737 0.05614
 C325 C 0.55247 0.60917 0.15036
 C326 C 0.55086 0.60458 0.18405
 C327 C 0.55699 0.62842 0.20522
 C328 C 0.56489 0.65705 0.19288
 C329 C 0.55176 0.61691 0.08097
 C330 C 0.54218 0.59490 0.06340
 C331 C 0.57782 0.71525 0.16814
 C332 C 0.57940 0.73408 0.18723
 H333 H 0.59044 0.74457 0.11416
 H334 H 0.59414 0.75234 0.05523
 H335 H 0.58317 0.70994 0.01764
 H336 H 0.56837 0.65950 0.03874
 H337 H 0.54752 0.58993 0.13488
 H338 H 0.54479 0.58240 0.19377
 H339 H 0.55558 0.62469 0.23136
 H340 H 0.56954 0.67488 0.21037
 C341 C 0.30681 0.88294 0.14441
 C342 C 0.30874 0.87080 0.11393
 C343 C 0.33339 0.88872 0.09248
 C344 C 0.35588 0.91867 0.10161
 C345 C 0.35318 0.93130 0.13140
 C346 C 0.32859 0.91334 0.15291
 C347 C 0.32668 0.92621 0.18288
 C348 C 0.34841 0.95603 0.19130
 C349 C 0.37242 0.97363 0.17020
 C350 C 0.37490 0.96151 0.14056
 C351 C 0.33519 0.87592 0.06241
 C352 C 0.31322 0.84626 0.05376
 C353 C 0.28907 0.82875 0.07472
 C354 C 0.28674 0.84076 0.10450
 C355 C 0.38284 0.93554 0.08154
 C356 C 0.40571 0.94882 0.06542
 C357 C 0.28377 0.86345 0.16789
 C358 C 0.26539 0.84674 0.18772
 H359 H 0.30837 0.91344 0.20004
 H360 H 0.34661 0.96553 0.21431
 H361 H 0.38922 0.99679 0.17683
 H362 H 0.39393 0.97608 0.12491
 H363 H 0.35351 0.88868 0.04526
 H364 H 0.31495 0.83682 0.03068
 H365 H 0.27205 0.80572 0.06790
 H366 H 0.26752 0.82628 0.11996
 C367 C 0.87548 0.56938 0.63807
 C368 C 0.86151 0.55035 0.61063
 C369 C 0.87921 0.54390 0.58873
 C370 C 0.91079 0.55663 0.59432
 C371 C 0.92503 0.57694 0.62076
 C372 C 0.90731 0.58331 0.64275
 C373 C 0.92196 0.60330 0.66930
 C374 C 0.95327 0.61673 0.67394
 C375 C 0.97060 0.61053 0.65241
 C376 C 0.95675 0.59085 0.62610
 C377 C 0.86466 0.52439 0.56178
 C378 C 0.83353 0.51174 0.55653
 C379 C 0.81623 0.51811 0.57789
 C380 C 0.82993 0.53713 0.60471
 C381 C 0.92809 0.54718 0.57424
 C382 C 0.94180 0.53812 0.55820
 C383 C 0.85679 0.57294 0.66250
 C384 C 0.84076 0.57465 0.68310
 H385 H 0.90943 0.60886 0.68663
 H386 H 0.96413 0.63203 0.69434
 H387 H 0.99490 0.62102 0.65611
 H388 H 0.97117 0.58677 0.60995
 H389 H 0.87718 0.51881 0.54444
 H390 H 0.82278 0.49691 0.53576
 H391 H 0.79206 0.50827 0.57368
 H392 H 0.81552 0.54144 0.62062
 C393 C 0.42197 0.30252 0.64154
 C394 C 0.42185 0.32883 0.65276
 C395 C 0.42851 0.35304 0.63072
 C396 C 0.43519 0.35075 0.59760
 C397 C 0.43364 0.32373 0.58601
 C398 C 0.42702 0.29953 0.60807
 C399 C 0.42603 0.27292 0.59603
 C400 C 0.43131 0.27024 0.56310
 C401 C 0.43778 0.29391 0.54154
 C402 C 0.43901 0.32043 0.55274
 C403 C 0.42874 0.37934 0.64259
 C404 C 0.42239 0.38157 0.67528
 C405 C 0.41578 0.35785 0.69681
 C406 C 0.41559 0.33178 0.68585
 C407 C 0.44573 0.37691 0.57612
 C408 C 0.45571 0.39915 0.55885
 C409 C 0.41924 0.27972 0.66486
 C410 C 0.41837 0.26182 0.68475
 H411 H 0.42101 0.25389 0.61188
 H412 H 0.43037 0.24969 0.55428
 H413 H 0.44186 0.29171 0.51598
 H414 H 0.44407 0.33820 0.53503
 H415 H 0.43366 0.39833 0.62674
 H416 H 0.42255 0.40179 0.68393
 H417 H 0.41074 0.35965 0.72214
 H418 H 0.41030 0.31393 0.70352
 C419 C 0.69008 0.11454 0.64962
 C420 C 0.66064 0.09495 0.66250
 C421 C 0.63605 0.07677 0.64108
 C422 C 0.64105 0.07824 0.60690
 C423 C 0.67073 0.09688 0.59415
 C424 C 0.69531 0.11513 0.61557
 C425 C 0.72469 0.13392 0.60224
 C426 C 0.72969 0.13456 0.56868
 C427 C 0.70566 0.11669 0.54773
 C428 C 0.67646 0.09805 0.56018
 C429 C 0.60674 0.05770 0.65450
 C430 C 0.60188 0.05657 0.68812
 C431 C 0.62592 0.07436 0.70906
 C432 C 0.65500 0.09337 0.69655
 C433 C 0.61534 0.06211 0.58493
 C434 C 0.59340 0.04947 0.56731
 C435 C 0.71440 0.13525 0.67127
 C436 C 0.73372 0.15283 0.68982
 H437 H 0.74409 0.14819 0.61759
 H438 H 0.75232 0.14900 0.55889
 H439 H 0.70967 0.11726 0.52169
 H440 H 0.65849 0.08451 0.54295
 H441 H 0.58731 0.04341 0.63921
 H442 H 0.57933 0.04183 0.69798
 H443 H 0.62200 0.07348 0.73515
 H444 H 0.67297 0.10672 0.71386
 C445 C 0.43269 0.12417 0.86490
 C446 C 0.45812 0.13844 0.88609
 C447 C 0.46482 0.12043 0.90724
 C448 C 0.44599 0.08827 0.90716
 C449 C 0.41985 0.07410 0.88699
 C450 C 0.41317 0.09211 0.86577
 C451 C 0.38710 0.07741 0.84557
 C452 C 0.36808 0.04582 0.84640
 C453 C 0.37460 0.02821 0.86715
 C454 C 0.40020 0.04207 0.88722
 C455 C 0.49063 0.13517 0.92785
 C456 C 0.50927 0.16681 0.92760
 C457 C 0.50269 0.18443 0.90698
 C458 C 0.47744 0.17054 0.88641
 C459 C 0.45454 0.06984 0.92652
 C460 C 0.46273 0.05509 0.94202
 C461 C 0.42781 0.14237 0.84095
 C462 C 0.42502 0.15793 0.82058
 H463 H 0.38107 0.09017 0.82908
 H464 H 0.34815 0.03494 0.83087
 H465 H 0.35976 0.00369 0.86769
 H466 H 0.40434 0.02745 0.90299
 H467 H 0.49665 0.12246 0.94441
 H468 H 0.52892 0.17770 0.94352
 H469 H 0.51722 0.20901 0.90690
 H470 H 0.47321 0.18523 0.87089
 C471 C 0.69163 0.57086 0.86086
 C472 C 0.67246 0.58265 0.85305
 C473 C 0.64784 0.57682 0.87406
 C474 C 0.64254 0.55924 0.90273
 C475 C 0.66256 0.54867 0.91131
 C476 C 0.68719 0.55451 0.89031
 C477 C 0.70666 0.54337 0.89918
 C478 C 0.70197 0.52697 0.92801
 C479 C 0.67789 0.52125 0.94853
 C480 C 0.65831 0.53189 0.94039
 C481 C 0.62874 0.58848 0.86552
 C482 C 0.63387 0.60550 0.83707
 C483 C 0.65793 0.61118 0.81653
 C484 C 0.67706 0.59992 0.82429
 C485 C 0.61540 0.55024 0.92211
 C486 C 0.59221 0.54168 0.93742
 C487 C 0.71454 0.57379 0.83761
 C488 C 0.73269 0.57517 0.81775
 H489 H 0.72572 0.54727 0.88400
 H490 H 0.71712 0.51867 0.93444
 H491 H 0.67434 0.50849 0.97089
 H492 H 0.63991 0.52691 0.95715
 H493 H 0.60975 0.58468 0.88076
 H494 H 0.61907 0.61431 0.83094
 H495 H 0.66182 0.62441 0.79446
 H496 H 0.69551 0.60497 0.80757
 C497 C 0.88703 0.31175 0.85628
 C498 C 0.88186 0.31052 0.89038
 C499 C 0.90079 0.33622 0.91026
 C500 C 0.92470 0.36300 0.89586
 C501 C 0.93070 0.36373 0.86197
 C502 C 0.91184 0.33800 0.84213
 C503 C 0.91810 0.33937 0.80825
 C504 C 0.94231 0.36540 0.79438
 C505 C 0.96068 0.39060 0.81377
 C506 C 0.95504 0.38991 0.84719
 C507 C 0.89499 0.33459 0.94424
 C508 C 0.87113 0.30834 0.95820
 C509 C 0.85259 0.28323 0.93875
 C510 C 0.85779 0.28418 0.90521
 C511 C 0.94191 0.39035 0.91545
 C512 C 0.95562 0.41351 0.93118
 C513 C 0.86575 0.28699 0.83539
 C514 C 0.84784 0.26739 0.81730
 H515 H 0.90448 0.32034 0.79215
 H516 H 0.94685 0.36601 0.76846
 H517 H 0.97944 0.41079 0.80286
 H518 H 0.97002 0.41005 0.86128
 H519 H 0.90886 0.35352 0.96036
 H520 H 0.86700 0.30747 0.98424
 H521 H 0.83407 0.26290 0.94971
 H522 H 0.84283 0.26406 0.89109
 C523 C 0.57401 0.88182 0.36054
 C524 C 0.56993 0.87583 0.39451
 C525 C 0.56343 0.89436 0.41514
 C526 C 0.56099 0.91868 0.40165
 C527 C 0.56641 0.92550 0.36791
 C528 C 0.57301 0.90705 0.34730
 C529 C 0.57813 0.91417 0.31359
 C530 C 0.57679 0.93883 0.30065
 C531 C 0.57020 0.95679 0.32078
 C532 C 0.56502 0.95029 0.35404
 C533 C 0.55911 0.88776 0.44897
 C534 C 0.56117 0.86354 0.46205
 C535 C 0.56750 0.84541 0.44187
 C536 C 0.57183 0.85137 0.40845
 C537 C 0.55113 0.93553 0.42194
 C538 C 0.54192 0.94903 0.43814
 C539 C 0.57723 0.86100 0.33885
 C540 C 0.57878 0.84357 0.32004
 H541 H 0.58335 0.90089 0.29693
 H542 H 0.58094 0.94406 0.27486
 H543 H 0.56913 0.97589 0.31059
 H544 H 0.56006 0.96498 0.36873
 H545 H 0.55422 0.90128 0.46565
 H546 H 0.55783 0.85881 0.48799
 H547 H 0.56908 0.82663 0.45215
 H548 H 0.57679 0.83670 0.39372
 C549 C 0.30659 0.42439 0.35589
 C550 C 0.30755 0.43370 0.38869
 C551 C 0.33244 0.43920 0.40902
 C552 C 0.35618 0.43537 0.39637
 C553 C 0.35452 0.42474 0.36402
 C554 C 0.32961 0.41919 0.34372
 C555 C 0.32860 0.40892 0.31132
 C556 C 0.35158 0.40431 0.29931
 C557 C 0.37598 0.40980 0.31917
 C558 C 0.37757 0.41991 0.35117
 C559 C 0.33317 0.44892 0.44160
 C560 C 0.30993 0.45308 0.45374
 C561 C 0.28559 0.44770 0.43385
 C562 C 0.28430 0.43812 0.40167
 C563 C 0.38320 0.44429 0.41580
 C564 C 0.40619 0.45275 0.43134
 C565 C 0.28321 0.42230 0.33400
 C566 C 0.26472 0.42165 0.31519
 H567 H 0.31004 0.40426 0.29499
 H568 H 0.35045 0.39646 0.27446
 H569 H 0.39379 0.40619 0.30974
 H570 H 0.39697 0.42381 0.36570
 H571 H 0.35161 0.45333 0.45802
 H572 H 0.31083 0.46052 0.47872
 H573 H 0.26760 0.45098 0.44339
 H574 H 0.26487 0.43414 0.38715
 C575 C 0.11391 0.68958 0.35638
 C576 C 0.11626 0.69248 0.39082
 C577 C 0.09738 0.66696 0.41092
 C578 C 0.07635 0.63871 0.39642
 C579 C 0.07313 0.63615 0.36202
 C580 C 0.09196 0.66167 0.34193
 C581 C 0.08859 0.65844 0.30755
 C582 C 0.06725 0.63080 0.29346
 C583 C 0.04882 0.60586 0.31312
 C584 C 0.05163 0.60836 0.34701
 C585 C 0.10031 0.67030 0.44528
 C586 C 0.12131 0.69809 0.45939
 C587 C 0.13981 0.72303 0.43973
 C588 C 0.13744 0.72038 0.40581
 C589 C 0.05930 0.61181 0.41662
 C590 C 0.04564 0.58891 0.43271
 C591 C 0.13517 0.71450 0.33567
 C592 C 0.15301 0.73412 0.31756
 H593 H 0.10233 0.67721 0.29121
 H594 H 0.06504 0.62872 0.26715
 H595 H 0.03225 0.58445 0.30205
 H596 H 0.03673 0.58833 0.36126
 H597 H 0.08638 0.65154 0.46156
 H598 H 0.12323 0.70028 0.48572
 H599 H 0.15609 0.74456 0.45082
 H600 H 0.15227 0.74041 0.39150
 C601 C 0.88098 0.57389 0.85896
 C602 C 0.91233 0.58727 0.85157
 C603 C 0.93142 0.58154 0.87205
 C604 C 0.91901 0.56245 0.89974
 C605 C 0.88800 0.55034 0.90803
 C606 C 0.86892 0.55609 0.88757
 C607 C 0.83788 0.54341 0.89608
 C608 C 0.82604 0.52556 0.92405
 C609 C 0.84470 0.51991 0.94404
 C610 C 0.87534 0.53209 0.93624
 C611 C 0.96261 0.59480 0.86397
 C612 C 0.97460 0.61326 0.83643
 C613 C 0.95593 0.61885 0.81639
 C614 C 0.92511 0.60604 0.82374
 C615 C 0.93753 0.55359 0.91839
 C616 C 0.95237 0.54519 0.93331
 C617 C 0.86073 0.57651 0.83599
 C618 C 0.84352 0.57740 0.81643
 H619 H 0.82248 0.54721 0.88132
 H620 H 0.80225 0.51607 0.93022
 H621 H 0.83538 0.50601 0.96572
 H622 H 0.88897 0.52713 0.95259
 H623 H 0.97803 0.59116 0.87887
 H624 H 0.99852 0.62326 0.83062
 H625 H 0.96536 0.63321 0.79504
 H626 H 0.91149 0.61109 0.80747
 C627 C 0.42430 0.31039 0.85375
 C628 C 0.41894 0.30611 0.88781
 C629 C 0.42492 0.33130 0.90806
 C630 C 0.43622 0.36056 0.89410
 C631 C 0.44018 0.36453 0.85984
 C632 C 0.43427 0.33938 0.83960
 C633 C 0.43890 0.34403 0.80546
 C634 C 0.44896 0.37267 0.79173
 C635 C 0.45460 0.39722 0.81151
 C636 C 0.45032 0.39334 0.84519
 C637 C 0.41969 0.32658 0.94208
 C638 C 0.40872 0.29774 0.95571
 C639 C 0.40288 0.27311 0.93591
 C640 C 0.40796 0.27713 0.90233
 C641 C 0.44566 0.38696 0.91496
 C642 C 0.45484 0.40952 0.93160
 C643 C 0.42118 0.28557 0.83336
 C644 C 0.41989 0.26603 0.81558
 H645 H 0.43472 0.32562 0.78901
 H646 H 0.45240 0.37582 0.76559
 H647 H 0.46233 0.41941 0.80072
 H648 H 0.45489 0.41311 0.85954
 H649 H 0.42385 0.34505 0.95844
 H650 H 0.40471 0.29449 0.98177
 H651 H 0.39435 0.25075 0.94662
 H652 H 0.40307 0.25730 0.88789
 C653 C 0.69466 0.11720 0.86286
 C654 C 0.66856 0.09102 0.85044
 C655 C 0.64356 0.07297 0.87144
 C656 C 0.64487 0.08116 0.90473
 C657 C 0.67159 0.10638 0.91752
 C658 C 0.69657 0.12450 0.89649
 C659 C 0.72287 0.14989 0.90968
 C660 C 0.72451 0.15710 0.94277
 C661 C 0.70010 0.13935 0.96335
 C662 C 0.67386 0.11427 0.95099
 C663 C 0.61750 0.04719 0.85837
 C664 C 0.61627 0.03936 0.82553
 C665 C 0.64076 0.05695 0.80501
 C666 C 0.66663 0.08257 0.81716
 C667 C 0.61805 0.06484 0.92515
 C668 C 0.59516 0.05173 0.94128
 C669 C 0.71839 0.13770 0.84054
 C670 C 0.73699 0.15491 0.82118
 H671 H 0.74245 0.16431 0.89462
 H672 H 0.74483 0.17657 0.95249
 H673 H 0.70150 0.14503 0.98903
 H674 H 0.65547 0.10109 0.96794
 H675 H 0.59791 0.03274 0.87339
 H676 H 0.59621 0.01949 0.81597
 H677 H 0.63975 0.05071 0.77955
 H678 H 0.68510 0.09552 0.80023
 C679 C 0.11704 0.42654 0.35883
 C680 C 0.12766 0.43942 0.39015
 C681 C 0.10887 0.44536 0.41096
 C682 C 0.07959 0.43840 0.40031
 C683 C 0.06842 0.42415 0.36965
 C684 C 0.08721 0.41821 0.34884
 C685 C 0.07569 0.40434 0.31811
 C686 C 0.04641 0.39645 0.30826
 C687 C 0.02804 0.40223 0.32863
 C688 C 0.03882 0.41597 0.35898
 C689 C 0.12011 0.45861 0.44199
 C690 C 0.14906 0.46571 0.45222
 C691 C 0.16744 0.45991 0.43187
 C692 C 0.15700 0.44697 0.40115
 C693 C 0.06188 0.44774 0.41985
 C694 C 0.04771 0.45661 0.43541
 C695 C 0.13744 0.42376 0.33608
 C696 C 0.15461 0.42260 0.31660
 H697 H 0.08911 0.39933 0.30145
 H698 H 0.03794 0.38579 0.28471
 H699 H 0.00530 0.39603 0.32089
 H700 H 0.02367 0.41998 0.37399
 H701 H 0.10662 0.46348 0.45870
 H702 H 0.15728 0.47577 0.47607
 H703 H 0.18992 0.46548 0.43994
 H704 H 0.17209 0.44283 0.38620
 C705 C 0.57519 0.68892 0.35758
 C706 C 0.56691 0.68817 0.39075
 C707 C 0.56056 0.66263 0.41055
 C708 C 0.56242 0.63797 0.39700
 C709 C 0.57201 0.63934 0.36424
 C710 C 0.57850 0.66495 0.34449
 C711 C 0.58781 0.66570 0.31172
 C712 C 0.59062 0.64185 0.29884
 C713 C 0.58411 0.61673 0.31810
 C714 C 0.57489 0.61536 0.35044
 C715 C 0.55197 0.66221 0.44354
 C716 C 0.54967 0.68631 0.45658
 C717 C 0.55585 0.71127 0.43720
 C718 C 0.56437 0.71231 0.40464
 C719 C 0.55260 0.61043 0.41604
 C720 C 0.54337 0.58713 0.43136
 C721 C 0.57814 0.71314 0.33632
 C722 C 0.57944 0.73232 0.31797
 H723 H 0.59313 0.68476 0.29578
 H724 H 0.59791 0.64287 0.27379
 H725 H 0.58625 0.59822 0.30795
 H726 H 0.57016 0.59540 0.36450
 H727 H 0.54703 0.64332 0.45958
 H728 H 0.54304 0.68561 0.48185
 H729 H 0.55401 0.72993 0.44745
 H730 H 0.56902 0.73223 0.39055
 C731 C 0.30862 0.88410 0.36019
 C732 C 0.30687 0.87768 0.39402
 C733 C 0.33224 0.89582 0.41457
 C734 C 0.35921 0.92023 0.40109
 C735 C 0.36040 0.92757 0.36754
 C736 C 0.33499 0.90949 0.34704
 C737 C 0.33675 0.91710 0.31351
 C738 C 0.36287 0.94191 0.30061
 C739 C 0.38776 0.95955 0.32063
 C740 C 0.38668 0.95255 0.35371
 C741 C 0.33006 0.88879 0.44827
 C742 C 0.30354 0.86454 0.46132
 C743 C 0.27875 0.84680 0.44121
 C744 C 0.28028 0.85316 0.40791
 C745 C 0.38624 0.93669 0.42124
 C746 C 0.40911 0.94986 0.43744
 C747 C 0.28433 0.86349 0.33848
 C748 C 0.26521 0.84615 0.31963
 H749 H 0.31795 0.90410 0.29698
 H750 H 0.36378 0.94746 0.27493
 H751 H 0.40800 0.97879 0.31048
 H752 H 0.40659 0.96697 0.36832
 H753 H 0.34874 0.90200 0.46487
 H754 H 0.30223 0.85951 0.48717
 H755 H 0.25820 0.82801 0.45145
 H756 H 0.26039 0.83878 0.39323
 C757 C 0.57179 0.88272 0.15020
 C758 C 0.57873 0.88449 0.11649
 C759 C 0.57218 0.90271 0.09545
 C760 C 0.55863 0.91893 0.10827
 C761 C 0.55270 0.91803 0.14220
 C762 C 0.55935 0.89991 0.16324
 C763 C 0.55301 0.89920 0.19705
 C764 C 0.54043 0.91587 0.20967
 C765 C 0.53392 0.93357 0.18909
 C766 C 0.53990 0.93470 0.15573
 C767 C 0.57916 0.90401 0.06181
 C768 C 0.59227 0.88778 0.04928
 C769 C 0.59861 0.86992 0.06984
 C770 C 0.59193 0.86818 0.10308
 C771 C 0.54933 0.93531 0.08653
 C772 C 0.54045 0.94834 0.06912
 C773 C 0.57589 0.86211 0.17132
 C774 C 0.57798 0.84467 0.18960
 H775 H 0.55775 0.88585 0.21409
 H776 H 0.53567 0.91501 0.23556
 H777 H 0.52417 0.94650 0.19903
 H778 H 0.53445 0.94883 0.14073
 H779 H 0.57468 0.91764 0.04489
 H780 H 0.59754 0.88909 0.02349
 H781 H 0.60878 0.85735 0.05999
 H782 H 0.59732 0.85404 0.11814
 C783 C 0.30586 0.43125 0.13863
 C784 C 0.31085 0.44976 0.11080
 C785 C 0.33512 0.45614 0.08903
 C786 C 0.35417 0.44386 0.09515
 C787 C 0.34833 0.42424 0.12215
 C788 C 0.32412 0.41796 0.14401
 C789 C 0.31901 0.39867 0.17114
 C790 C 0.33724 0.38588 0.17647
 C791 C 0.36087 0.39197 0.15506
 C792 C 0.36647 0.41094 0.12818
 C793 C 0.33999 0.47513 0.06167
 C794 C 0.32135 0.48738 0.05592
 C795 C 0.29756 0.48107 0.07717
 C796 C 0.29228 0.46251 0.10434
 C797 C 0.38089 0.45309 0.07497
 C798 C 0.40362 0.46199 0.05878
 C799 C 0.28324 0.42750 0.16268
 C800 C 0.26517 0.42552 0.18298
 H801 H 0.30085 0.39321 0.18841
 H802 H 0.33298 0.37113 0.19732
 H803 H 0.37494 0.38195 0.15930
 H804 H 0.38506 0.41496 0.11215
 H805 H 0.35816 0.48062 0.04439
 H806 H 0.32538 0.50183 0.03487
 H807 H 0.28311 0.49060 0.07258
 H808 H 0.27346 0.45823 0.12013
 C809 C 0.11986 0.69661 0.14143
 C810 C 0.09170 0.67130 0.15117
 C811 C 0.07456 0.64726 0.12870
 C812 C 0.08570 0.64870 0.09663
 C813 C 0.11308 0.67477 0.08640
 C814 C 0.13022 0.69881 0.10888
 C815 C 0.15773 0.72446 0.09827
 C816 C 0.16801 0.72635 0.06630
 C817 C 0.15126 0.70284 0.04431
 C818 C 0.12410 0.67728 0.05412
 C819 C 0.04668 0.62198 0.13914
 C820 C 0.03598 0.62055 0.17084
 C821 C 0.05272 0.64410 0.19278
 C822 C 0.08031 0.66921 0.18323
 C823 C 0.07007 0.62258 0.07498
 C824 C 0.05762 0.60033 0.05769
 C825 C 0.13911 0.71922 0.16543
 C826 C 0.15555 0.73718 0.18574
 H827 H 0.17150 0.74335 0.11447
 H828 H 0.18908 0.74616 0.05857
 H829 H 0.15934 0.70443 0.01951
 H830 H 0.11181 0.65962 0.03613
 H831 H 0.03280 0.60317 0.12290
 H832 H 0.01458 0.60107 0.17840
 H833 H 0.04425 0.64293 0.21732
 H834 H 0.09249 0.68698 0.20115
 C835 C 0.42810 0.11917 0.64285
 C836 C 0.44723 0.13296 0.61546
 C837 C 0.45386 0.11508 0.59400
 C838 C 0.44124 0.08350 0.60001
 C839 C 0.42096 0.06944 0.62648
 C840 C 0.41439 0.08735 0.64801
 C841 C 0.39443 0.07290 0.67462
 C842 C 0.38126 0.04162 0.67977
 C843 C 0.38763 0.02410 0.65868
 C844 C 0.40726 0.03773 0.63231
 C845 C 0.47344 0.12947 0.56708
 C846 C 0.48606 0.16062 0.56148
 C847 C 0.47954 0.17811 0.58245
 C848 C 0.46039 0.16457 0.60918
 C849 C 0.45071 0.06604 0.58021
 C850 C 0.45980 0.05232 0.56422
 C851 C 0.42423 0.13808 0.66673
 C852 C 0.42229 0.15439 0.68680
 H853 H 0.38872 0.08559 0.69161
 H854 H 0.36602 0.03092 0.70024
 H855 H 0.37733 -0.00020 0.66278
 H856 H 0.41148 0.02317 0.61650
 H857 H 0.47913 0.11681 0.55003
 H858 H 0.50096 0.17125 0.54076
 H859 H 0.48939 0.20230 0.57801
 H860 H 0.45594 0.17911 0.62476
 C861 C 0.69018 0.56555 0.63993
 C862 C 0.66874 0.57466 0.64715
 C863 C 0.64469 0.56780 0.62488
 C864 C 0.64219 0.55180 0.59563
 C865 C 0.66430 0.54369 0.58786
 C866 C 0.68839 0.55063 0.61008
 C867 C 0.71004 0.54201 0.60197
 C868 C 0.70798 0.52701 0.57272
 C869 C 0.68441 0.52023 0.55100
 C870 C 0.66273 0.52838 0.55837
 C871 C 0.62337 0.57691 0.63274
 C872 C 0.62573 0.59233 0.66178
 C873 C 0.64920 0.59893 0.68359
 C874 C 0.67051 0.59024 0.67649
 C875 C 0.61595 0.54203 0.57455
 C876 C 0.59361 0.53290 0.55767
 C877 C 0.71294 0.56986 0.66400
 C878 C 0.73118 0.57230 0.68427
 H879 H 0.72880 0.54681 0.61808
 H880 H 0.72476 0.52063 0.56690
 H881 H 0.68291 0.50858 0.52832
 H882 H 0.64483 0.52263 0.54069
 H883 H 0.60474 0.57229 0.61653
 H884 H 0.60926 0.59917 0.66738
 H885 H 0.65092 0.61088 0.70613
 H886 H 0.68839 0.59592 0.69419
 C887 C 0.88251 0.30867 0.64640
 C888 C 0.89955 0.33882 0.65867
 C889 C 0.91722 0.36338 0.63701
 C890 C 0.91784 0.35764 0.60322
 C891 C 0.90187 0.32736 0.59119
 C892 C 0.88411 0.30279 0.61286
 C893 C 0.86799 0.27275 0.60024
 C894 C 0.86942 0.26714 0.56712
 C895 C 0.88681 0.29117 0.54593
 C896 C 0.90290 0.32100 0.55769
 C897 C 0.93365 0.39340 0.64974
 C898 C 0.93264 0.39897 0.68294
 C899 C 0.91538 0.37495 0.70414
 C900 C 0.89902 0.34517 0.69231
 C901 C 0.93342 0.38308 0.58083
 C902 C 0.94573 0.40489 0.56297
 C903 C 0.86214 0.28421 0.66809
 C904 C 0.84498 0.26501 0.68699
 H905 H 0.85422 0.25334 0.61582
 H906 H 0.85697 0.24402 0.55786
 H907 H 0.88785 0.28669 0.52023
 H908 H 0.91619 0.33896 0.54032
 H909 H 0.94746 0.41285 0.63424
 H910 H 0.94531 0.42207 0.69224
 H911 H 0.91462 0.37940 0.72990
 H912 H 0.88602 0.32725 0.70982
   
