data_POSCAR
  _audit_creation_date              2014-09-24
  _audit_creation_method            'ToBaCCo'
  _symmetry_space_group_name_H-M    'P1'
  _symmetry_Int_Tables_number       1
  _symmetry_cell_setting            triclinic
  loop_
  _symmetry_equiv_pos_as_xyz
 x,y,z
_cell_length_a 29.7884
_cell_length_b 30.2482
_cell_length_c 35.5217
_cell_angle_alpha 88.698500
_cell_angle_beta 86.829600
_cell_angle_gamma 92.865400
loop_
  _atom_site_label
  _atom_site_type_symbol
  _atom_site_fract_x
  _atom_site_fract_y
  _atom_site_fract_z
Si1 Si 1.25452 0.23203 0.25520
 Si2 Si 0.74186 -0.28084 0.26125
 Si3 Si 0.73319 0.22438 -0.22081
 Si4 Si 1.22817 -0.26054 -0.26233
 Si5 Si 0.25788 0.25994 0.74369
 Si6 Si 0.77421 0.77146 0.73668
 Si7 Si 0.74997 0.27852 0.22270
 Si8 Si 0.24936 0.76299 0.26157
 O9 O 1.10563 0.02557 0.02101
 O10 O 0.90972 -0.04182 0.03547
 O11 O 0.98200 0.08289 0.03524
 O12 O 1.03480 -0.09975 0.03270
 O13 O 0.93933 0.02887 0.05807
 O14 O 1.07748 -0.04490 0.04823
 O15 O 0.96301 -0.07866 0.05389
 O16 O 1.05271 0.05839 0.04787
 C17 C 1.09192 0.04765 0.04791
 C18 C 0.92454 -0.06644 0.05986
 C19 C 0.95549 0.06710 0.06117
 C20 C 1.06331 -0.08373 0.05408
 O21 O 1.07709 -0.07677 -0.02172
 O22 O 0.93667 0.06211 -0.01264
 O23 O 1.07619 0.06254 -0.02861
 O24 O 0.93605 -0.07772 -0.01938
 O25 O 0.92442 -0.01099 -0.03553
 O26 O 1.08493 -0.00251 -0.04808
 O27 O 1.01185 -0.08627 -0.04126
 O28 O 1.00056 0.07160 -0.04084
 Co29 Co 1.07811 -0.02280 0.00041
 Co30 Co 0.93546 0.00773 0.01088
 Co31 Co 1.02594 0.06165 0.00360
 Co32 Co 0.98831 -0.07832 0.00633
 O33 O 1.00683 -0.00799 0.00540
 C34 C 1.05223 -0.09274 -0.04534
 C35 C 0.95975 0.07616 -0.04099
 C36 C 1.08808 0.03787 -0.05464
 C37 C 0.92164 -0.05079 -0.04264
 O38 O 1.07292 0.47752 0.54455
 O39 O 0.91177 0.46613 0.55524
 O40 O 0.98964 0.54983 0.54974
 O41 O 0.99566 0.39201 0.54876
 O42 O 0.92274 0.54132 0.53319
 O43 O 1.06033 0.40401 0.52232
 O44 O 0.91959 0.40095 0.53510
 O45 O 1.06358 0.54269 0.52457
 C46 C 1.07711 0.51771 0.54937
 C47 C 0.90619 0.42575 0.56077
 C48 C 0.94953 0.55587 0.55627
 C49 C 1.03674 0.39056 0.55067
 O50 O 1.05730 0.43769 0.45120
 O51 O 0.92072 0.51322 0.46113
 O52 O 1.03287 0.54259 0.45365
 O53 O 0.94514 0.40522 0.45912
 O54 O 0.89342 0.44149 0.48464
 O55 O 1.08741 0.50648 0.47120
 O56 O 1.01736 0.38138 0.47282
 O57 O 0.96322 0.56658 0.47834
 Co58 Co 1.06182 0.45807 0.49795
 Co59 Co 0.91984 0.48885 0.50797
 Co60 Co 1.01020 0.54293 0.50172
 Co61 Co 0.97147 0.40221 0.50384
 O62 O 0.99080 0.47299 0.50289
 C63 C 1.04166 0.39992 0.44658
 C64 C 0.93670 0.55130 0.45539
 C65 C 1.07189 0.53189 0.44765
 C66 C 0.90773 0.42056 0.45701
 O67 O 0.59133 0.03187 0.54581
 O68 O 0.43446 -0.00787 0.54329
 O69 O 0.50393 0.08740 0.54061
 O70 O 0.52342 -0.06908 0.54807
 O71 O 0.43888 0.06682 0.52384
 O72 O 0.59056 -0.04517 0.53168
 O73 O 0.44979 -0.07077 0.52320
 O74 O 0.58040 0.09018 0.51589
 C75 C 0.59157 0.07261 0.54545
 C76 C 0.43228 -0.04829 0.54853
 C77 C 0.46285 0.08567 0.54724
 C78 C 0.56352 -0.06505 0.55530
 O79 O 0.59534 -0.02339 0.45656
 O80 O 0.44966 0.03969 0.44929
 O81 O 0.55269 0.08001 0.44620
 O82 O 0.48848 -0.06716 0.45233
 O83 O 0.42973 -0.03311 0.46918
 O84 O 0.60981 0.05013 0.46808
 O85 O 0.56039 -0.08188 0.47844
 O86 O 0.47810 0.09810 0.47032
 Co87 Co 0.58926 0.00409 0.50056
 Co88 Co 0.44550 0.01583 0.49644
 Co89 Co 0.52745 0.08089 0.49362
 Co90 Co 0.50668 -0.06407 0.50014
 O91 O 0.51718 0.00899 0.49759
 C92 C 0.58831 -0.06356 0.45485
 C93 C 0.45891 0.07945 0.44464
 C94 C 0.59299 0.07170 0.44220
 C95 C 0.45056 -0.05539 0.44523
 O96 O 0.56669 0.55310 0.03051
 O97 O 0.41083 0.50233 0.04683
 O98 O 0.47664 0.60244 0.04138
 O99 O 0.50375 0.44977 0.04134
 O100 O 0.40957 0.57691 0.03316
 O101 O 0.56710 0.47737 0.01752
 O102 O 0.42604 0.44156 0.02291
 O103 O 0.54797 0.61150 0.00510
 C104 C 0.56637 0.59361 0.03127
 C105 C 0.40930 0.46188 0.04989
 C106 C 0.43691 0.59738 0.05326
 C107 C 0.54472 0.45729 0.04434
 O108 O 0.55572 0.49816 -0.05788
 O109 O 0.40782 0.55665 -0.04445
 O110 O 0.50509 0.60148 -0.05762
 O111 O 0.45543 0.44954 -0.04955
 O112 O 0.39680 0.48136 -0.02766
 O113 O 0.56816 0.57298 -0.04808
 O114 O 0.53198 0.43829 -0.03074
 O115 O 0.43533 0.61423 -0.02195
 Co116 Co 0.55734 0.52571 -0.01365
 Co117 Co 0.41332 0.52918 0.00106
 Co118 Co 0.49061 0.59910 -0.00808
 Co119 Co 0.47994 0.45327 -0.00428
 O120 O 0.48528 0.52662 -0.00634
 C121 C 0.55431 0.45759 -0.05751
 C122 C 0.41375 0.59708 -0.04699
 C123 C 0.54455 0.59624 -0.06837
 C124 C 0.41577 0.45916 -0.05295
 C125 C 1.22726 0.17484 0.19907
 C126 C 1.19696 0.15207 0.17693
 C127 C 1.15023 0.15691 0.18330
 C128 C 1.13472 0.18327 0.21278
 C129 C 1.16535 0.20542 0.23511
 C130 C 1.21180 0.20228 0.22767
 C131 C 1.11997 0.13554 0.16000
 C132 C 1.13604 0.10942 0.13054
 C133 C 1.18275 0.10353 0.12508
 C134 C 1.21289 0.12487 0.14833
 C135 C 1.19870 0.07704 0.09594
 C136 C 1.16882 0.05773 0.07154
 C137 C 1.12258 0.06470 0.07585
 C138 C 1.10624 0.08985 0.10591
 H139 H 1.26297 0.17096 0.19400
 H140 H 1.09898 0.18671 0.21856
 H141 H 1.15236 0.22453 0.25814
 H142 H 1.08412 0.13973 0.16443
 H143 H 1.24877 0.12088 0.14378
 H144 H 1.23435 0.07195 0.09159
 H145 H 1.18209 0.03821 0.04869
 H146 H 1.07053 0.09503 0.10962
 C147 C 1.19947 0.66602 0.69514
 C148 C 1.17158 0.64332 0.67075
 C149 C 1.13516 0.66483 0.65585
 C150 C 1.12613 0.70782 0.66686
 C151 C 1.15323 0.72955 0.69216
 C152 C 1.19003 0.70890 0.70643
 C153 C 1.10879 0.64335 0.62977
 C154 C 1.11784 0.60031 0.61896
 C155 C 1.15262 0.57773 0.63535
 C156 C 1.17969 0.59962 0.66088
 C157 C 1.16006 0.53391 0.62536
 C158 C 1.13419 0.51325 0.59844
 C159 C 1.10130 0.53653 0.58071
 C160 C 1.09304 0.57983 0.59142
 H161 H 1.22858 0.65028 0.70513
 H162 H 1.09826 0.72470 0.65578
 H163 H 1.14565 0.76278 0.69992
 H164 H 1.08149 0.66023 0.61765
 H165 H 1.20711 0.58282 0.67286
 H166 H 1.18623 0.51590 0.63793
 H167 H 1.14103 0.47980 0.59047
 H168 H 1.06763 0.59794 0.57783
 C169 C 0.68042 0.19826 0.72055
 C170 C 0.66367 0.16895 0.69429
 C171 C 0.66921 0.12299 0.69868
 C172 C 0.69103 0.10726 0.72999
 C173 C 0.70872 0.13702 0.75564
 C174 C 0.70390 0.18265 0.75064
 C175 C 0.65428 0.09398 0.67107
 C176 C 0.63517 0.11074 0.63872
 C177 C 0.62975 0.15686 0.63484
 C178 C 0.64330 0.18543 0.66283
 C179 C 0.61191 0.17416 0.60249
 C180 C 0.60017 0.14632 0.57374
 C181 C 0.60508 0.10040 0.57692
 C182 C 0.62227 0.08255 0.60974
 H183 H 0.67712 0.23360 0.71655
 H184 H 0.69576 0.07221 0.73389
 H185 H 0.72732 0.12439 0.77850
 H186 H 0.65875 0.05874 0.67419
 H187 H 0.63935 0.22076 0.65950
 H188 H 0.60763 0.20938 0.59913
 H189 H 0.58683 0.16103 0.54893
 H190 H 0.62625 0.04720 0.61240
 C191 C 0.68841 0.70307 0.19988
 C192 C 0.66856 0.67728 0.17244
 C193 C 0.67410 0.63109 0.17227
 C194 C 0.69973 0.61163 0.19946
 C195 C 0.71980 0.63770 0.22643
 C196 C 0.71375 0.68338 0.22705
 C197 C 0.65454 0.60528 0.14464
 C198 C 0.63000 0.62519 0.11690
 C199 C 0.62473 0.67145 0.11705
 C200 C 0.64379 0.69712 0.14492
 C201 C 0.60068 0.69141 0.08912
 C202 C 0.58218 0.66591 0.06114
 C203 C 0.58703 0.61993 0.06074
 C204 C 0.61088 0.59967 0.08882
 H205 H 0.68451 0.73853 0.19994
 H206 H 0.70481 0.57640 0.19951
 H207 H 0.74068 0.62205 0.24622
 H208 H 0.65879 0.56987 0.14450
 H209 H 0.63970 0.73256 0.14498
 H210 H 0.59631 0.72677 0.08882
 H211 H 0.56372 0.68225 0.03989
 H212 H 0.61472 0.56420 0.08872
 C213 C 0.78086 -0.20546 0.21931
 C214 C 0.81251 -0.18426 0.19306
 C215 C 0.85088 -0.20665 0.18033
 C216 C 0.85671 -0.24982 0.19362
 C217 C 0.82440 -0.27106 0.21860
 C218 C 0.78671 -0.24897 0.23202
 C219 C 0.88202 -0.18627 0.15351
 C220 C 0.87458 -0.14438 0.13807
 C221 C 0.83602 -0.12207 0.15038
 C222 C 0.80563 -0.14181 0.17827
 C223 C 0.82795 -0.08087 0.13381
 C224 C 0.85707 -0.06256 0.10467
 C225 C 0.89533 -0.08459 0.09215
 C226 C 0.90434 -0.12515 0.10954
 H227 H 0.75091 -0.18890 0.22852
 H228 H 0.88556 -0.26769 0.18376
 H229 H 0.82858 -0.30518 0.22703
 H230 H 0.91131 -0.20361 0.14376
 H231 H 0.77601 -0.12473 0.18762
 H232 H 0.79859 -0.06327 0.14281
 H233 H 0.84962 -0.03116 0.09179
 H234 H 0.93357 -0.14259 0.09985
 C235 C 0.77233 0.29638 0.73172
 C236 C 0.80082 0.31390 0.70144
 C237 C 0.83058 0.28612 0.68194
 C238 C 0.83219 0.24174 0.69357
 C239 C 0.80405 0.22476 0.72368
 C240 C 0.77394 0.25173 0.74297
 C241 C 0.85761 0.30281 0.65068
 C242 C 0.85558 0.34709 0.63865
 C243 C 0.82684 0.37526 0.65878
 C244 C 0.79950 0.35847 0.68988
 C245 C 0.82566 0.41977 0.64726
 C246 C 0.85211 0.43610 0.61582
 C247 C 0.87985 0.40815 0.59491
 C248 C 0.88161 0.36362 0.60665
 H249 H 0.74819 0.31710 0.74548
 H250 H 0.85469 0.21993 0.67897
 H251 H 0.80511 0.19000 0.73143
 H252 H 0.87990 0.28122 0.63552
 H253 H 0.77703 0.38000 0.70491
 H254 H 0.80408 0.44193 0.66243
 H255 H 0.85019 0.47058 0.60743
 H256 H 0.90327 0.34193 0.59097
 C257 C 0.28576 -0.18966 0.70465
 C258 C 0.31659 -0.17100 0.67659
 C259 C 0.33813 -0.19872 0.65042
 C260 C 0.32942 -0.24465 0.65346
 C261 C 0.29800 -0.26275 0.68091
 C262 C 0.27495 -0.23536 0.70587
 C263 C 0.36711 -0.18007 0.62114
 C264 C 0.37411 -0.13394 0.61715
 C265 C 0.35317 -0.10628 0.64372
 C266 C 0.32499 -0.12499 0.67349
 C267 C 0.35991 -0.06023 0.63956
 C268 C 0.38613 -0.04163 0.60888
 C269 C 0.40636 -0.06869 0.58180
 C270 C 0.40081 -0.11497 0.58650
 H271 H 0.26961 -0.16841 0.72475
 H272 H 0.34593 -0.26648 0.63395
 H273 H 0.29092 -0.29819 0.68195
 H274 H 0.38320 -0.20137 0.60088
 H275 H 0.30853 -0.10367 0.69353
 H276 H 0.34427 -0.03853 0.65969
 H277 H 0.39014 -0.00589 0.60611
 H278 H 0.41645 -0.13616 0.56593
 C279 C 0.28735 0.30910 0.21225
 C280 C 0.31421 0.33129 0.18315
 C281 C 0.34690 0.30811 0.16217
 C282 C 0.35314 0.26371 0.17133
 C283 C 0.32652 0.24207 0.20025
 C284 C 0.29312 0.26428 0.22054
 C285 C 0.37239 0.32937 0.13203
 C286 C 0.36592 0.37371 0.12256
 C287 C 0.33424 0.39734 0.14420
 C288 C 0.30849 0.37598 0.17423
 C289 C 0.32861 0.44196 0.13525
 C290 C 0.35360 0.46282 0.10491
 C291 C 0.38429 0.43934 0.08256
 C292 C 0.39047 0.39475 0.09166
 H293 H 0.26150 0.32630 0.22776
 H294 H 0.37819 0.24551 0.15578
 H295 H 0.33173 0.20754 0.20628
 H296 H 0.39696 0.31129 0.11574
 H297 H 0.28378 0.39400 0.19041
 H298 H 0.30474 0.46071 0.15161
 H299 H 0.34832 0.49730 0.09853
 H300 H 0.41446 0.37659 0.07486
 C301 C 0.80922 0.19781 -0.18243
 C302 C 0.83030 0.17385 -0.15476
 C303 C 0.80370 0.14928 -0.12656
 C304 C 0.75666 0.14899 -0.12656
 C305 C 0.73607 0.17224 -0.15460
 C306 C 0.76212 0.19636 -0.18280
 C307 C 0.82446 0.12518 -0.09894
 C308 C 0.87147 0.12494 -0.09928
 C309 C 0.89824 0.14902 -0.12759
 C310 C 0.87746 0.17358 -0.15509
 C311 C 0.94534 0.14806 -0.12782
 C312 C 0.96566 0.12383 -0.10000
 C313 C 0.93915 0.10048 -0.07146
 C314 C 0.89206 0.10096 -0.07152
 H315 H 0.82954 0.21695 -0.20376
 H316 H 0.73583 0.13035 -0.10517
 H317 H 0.69967 0.17087 -0.15455
 H318 H 0.80402 0.10648 -0.07726
 H319 H 0.89789 0.19218 -0.17681
 H320 H 0.96641 0.16615 -0.14939
 H321 H 1.00205 0.12380 -0.10051
 H322 H 0.87129 0.08272 -0.04981
 C323 C 0.80926 0.68986 0.30837
 C324 C 0.82612 0.66125 0.33517
 C325 C 0.79760 0.62682 0.35236
 C326 C 0.75233 0.62276 0.34363
 C327 C 0.73577 0.65176 0.31733
 C328 C 0.76446 0.68430 0.29862
 C329 C 0.81467 0.59717 0.37812
 C330 C 0.85956 0.60221 0.38773
 C331 C 0.88771 0.63753 0.37158
 C332 C 0.87096 0.66649 0.34502
 C333 C 0.93197 0.64362 0.38270
 C334 C 0.94796 0.61535 0.40995
 C335 C 0.92048 0.57977 0.42553
 C336 C 0.87646 0.57302 0.41398
 H337 H 0.83099 0.71624 0.29524
 H338 H 0.72983 0.59706 0.35697
 H339 H 0.70074 0.64792 0.31072
 H340 H 0.79291 0.57051 0.39097
 H341 H 0.89267 0.69325 0.33227
 H342 H 0.95391 0.67068 0.37086
 H343 H 0.98182 0.62125 0.41889
 H344 H 0.85485 0.54604 0.42647
 C345 C 0.33023 0.19931 0.28859
 C346 C 0.35127 0.17016 0.31226
 C347 C 0.32901 0.12922 0.32368
 C348 C 0.28686 0.11752 0.31016
 C349 C 0.26564 0.14732 0.28746
 C350 C 0.28685 0.18857 0.27720
 C351 C 0.34799 0.10177 0.35001
 C352 C 0.38815 0.11542 0.36598
 C353 C 0.41112 0.15574 0.35384
 C354 C 0.39285 0.18256 0.32656
 C355 C 0.45092 0.16946 0.37047
 C356 C 0.46692 0.14417 0.39975
 C357 C 0.44372 0.10460 0.41235
 C358 C 0.40457 0.09026 0.39518
 H359 H 0.34619 0.23158 0.28125
 H360 H 0.26937 0.08630 0.31864
 H361 H 0.23186 0.13878 0.27937
 H362 H 0.33051 0.07078 0.35934
 H363 H 0.40987 0.21397 0.31782
 H364 H 0.46900 0.20021 0.36151
 H365 H 0.49719 0.15573 0.41284
 H366 H 0.38547 0.06084 0.40594
 C367 C 0.29077 0.71584 -0.20957
 C368 C 0.30837 0.68885 -0.18194
 C369 C 0.28808 0.64627 -0.17330
 C370 C 0.24960 0.63212 -0.19155
 C371 C 0.23147 0.65982 -0.21810
 C372 C 0.25263 0.70127 -0.22803
 C373 C 0.30589 0.61902 -0.14594
 C374 C 0.34278 0.63443 -0.12617
 C375 C 0.36209 0.67759 -0.13402
 C376 C 0.34530 0.70419 -0.16228
 C377 C 0.39745 0.69380 -0.11301
 C378 C 0.41346 0.66763 -0.08438
 C379 C 0.39549 0.62427 -0.07700
 C380 C 0.36015 0.60775 -0.09811
 H381 H 0.30622 0.74850 -0.21623
 H382 H 0.23293 0.60006 -0.18466
 H383 H 0.20043 0.64900 -0.23024
 H384 H 0.29054 0.58624 -0.13956
 H385 H 0.36042 0.73712 -0.16846
 H386 H 0.41233 0.72693 -0.11836
 H387 H 0.44021 0.68132 -0.06809
 H388 H 0.34553 0.57468 -0.09211
 C389 C 1.18103 -0.23129 -0.19699
 C390 C 1.15488 -0.20269 -0.17563
 C391 C 1.14310 -0.16200 -0.19171
 C392 C 1.15674 -0.15136 -0.22942
 C393 C 1.18213 -0.18057 -0.25074
 C394 C 1.19522 -0.22029 -0.23446
 C395 C 1.11796 -0.13280 -0.16983
 C396 C 1.10439 -0.14402 -0.13216
 C397 C 1.11534 -0.18540 -0.11660
 C398 C 1.14043 -0.21436 -0.13841
 C399 C 1.10198 -0.19682 -0.07909
 C400 C 1.07941 -0.16694 -0.05664
 C401 C 1.06935 -0.12550 -0.07142
 C402 C 1.08116 -0.11422 -0.10933
 H403 H 1.18971 -0.26240 -0.18436
 H404 H 1.14754 -0.12064 -0.24249
 H405 H 1.19131 -0.17216 -0.28003
 H406 H 1.10943 -0.10129 -0.18195
 H407 H 1.14923 -0.24578 -0.12623
 H408 H 1.11003 -0.22838 -0.06681
 H409 H 1.07079 -0.17566 -0.02729
 H410 H 1.07395 -0.08182 -0.12045
 C411 C 1.19351 0.29137 0.29002
 C412 C 1.16947 0.30750 0.32167
 C413 C 1.18411 0.29880 0.35822
 C414 C 1.22247 0.27490 0.36258
 C415 C 1.24481 0.25750 0.33132
 C416 C 1.22989 0.26435 0.29491
 C417 C 1.15983 0.31331 0.39002
 C418 C 1.12062 0.33609 0.38601
 C419 C 1.10562 0.34501 0.34963
 C420 C 1.13026 0.33077 0.31761
 C421 C 1.06662 0.36867 0.34604
 C422 C 1.04377 0.38454 0.37809
 C423 C 1.05895 0.37592 0.41406
 C424 C 1.09689 0.35118 0.41794
 H425 H 1.18237 0.29761 0.26196
 H426 H 1.23434 0.26830 0.39036
 H427 H 1.27311 0.23769 0.33626
 H428 H 1.17131 0.30661 0.41795
 H429 H 1.11878 0.33746 0.28970
 H430 H 1.05462 0.37603 0.31846
 H431 H 1.01509 0.40467 0.37479
 H432 H 1.10926 0.34575 0.44575
 C433 C 0.71740 -0.21095 0.30797
 C434 C 0.68798 -0.18845 0.33208
 C435 C 0.64168 -0.20175 0.33549
 C436 C 0.62549 -0.23653 0.31365
 C437 C 0.65508 -0.25863 0.28954
 C438 C 0.70116 -0.24617 0.28684
 C439 C 0.61263 -0.18060 0.36109
 C440 C 0.62924 -0.14589 0.38290
 C441 C 0.67536 -0.13186 0.37837
 C442 C 0.70439 -0.15341 0.35333
 C443 C 0.69187 -0.09627 0.39890
 C444 C 0.66310 -0.07452 0.42361
 C445 C 0.61748 -0.08854 0.42907
 C446 C 0.60062 -0.12456 0.40887
 H447 H 0.75315 -0.20185 0.30638
 H448 H 0.59018 -0.24726 0.31581
 H449 H 0.64212 -0.28650 0.27412
 H450 H 0.57726 -0.19118 0.36407
 H451 H 0.73981 -0.14293 0.35041
 H452 H 0.72700 -0.08495 0.39560
 H453 H 0.67671 -0.04674 0.43882
 H454 H 0.56528 -0.13503 0.41260
 C455 C 0.70108 0.30088 -0.18414
 C456 C 0.66875 0.32429 -0.16345
 C457 C 0.62546 0.30422 -0.15433
 C458 C 0.61453 0.26205 -0.16772
 C459 C 0.64634 0.23969 -0.18929
 C460 C 0.68986 0.25869 -0.19746
 C461 C 0.59405 0.32630 -0.13158
 C462 C 0.60484 0.36888 -0.11880
 C463 C 0.64721 0.38990 -0.12986
 C464 C 0.67911 0.36725 -0.15149
 C465 C 0.65714 0.43331 -0.11899
 C466 C 0.62592 0.45544 -0.09672
 C467 C 0.58464 0.43424 -0.08382
 C468 C 0.57410 0.39088 -0.09512
 H469 H 0.73500 0.31516 -0.18922
 H470 H 0.58153 0.24615 -0.16117
 H471 H 0.63722 0.20674 -0.19849
 H472 H 0.56131 0.31036 -0.12386
 H473 H 0.71193 0.38311 -0.15910
 H474 H 0.68915 0.45016 -0.12761
 H475 H 0.63475 0.48890 -0.08859
 H476 H 0.54208 0.37455 -0.08572
 C477 C 1.21439 0.18443 -0.21774
 C478 C 1.18624 0.16346 -0.18894
 C479 C 1.16063 0.18943 -0.16396
 C480 C 1.16295 0.23564 -0.16855
 C481 C 1.19129 0.25612 -0.19701
 C482 C 1.21719 0.23079 -0.22161
 C483 C 1.13412 0.16899 -0.13411
 C484 C 1.13342 0.12298 -0.12841
 C485 C 1.15815 0.09674 -0.15370
 C486 C 1.18422 0.11715 -0.18402
 C487 C 1.15716 0.05064 -0.14760
 C488 C 1.13325 0.03098 -0.11597
 C489 C 1.10998 0.05715 -0.09003
 C490 C 1.10939 0.10302 -0.09701
 H491 H 1.23506 0.16474 -0.23617
 H492 H 1.14359 0.25598 -0.14963
 H493 H 1.19344 0.29193 -0.19952
 H494 H 1.11499 0.18902 -0.11469
 H495 H 1.20372 0.09716 -0.20319
 H496 H 1.17566 0.02993 -0.16681
 H497 H 1.13393 -0.00449 -0.11130
 H498 H 1.09111 0.12350 -0.07742
 C499 C 1.21686 0.69095 0.30529
 C500 C 1.18515 0.66678 0.32904
 C501 C 1.14474 0.68606 0.34100
 C502 C 1.13687 0.72926 0.32882
 C503 C 1.16872 0.75314 0.30496
 C504 C 1.20900 0.73420 0.29289
 C505 C 1.11310 0.66192 0.36506
 C506 C 1.12177 0.61900 0.37760
 C507 C 1.16220 0.59973 0.36545
 C508 C 1.19345 0.62362 0.34100
 C509 C 1.17118 0.55722 0.37867
 C510 C 1.14105 0.53453 0.40468
 C511 C 1.10115 0.55365 0.41728
 C512 C 1.09126 0.59554 0.40303
 H513 H 1.24726 0.67531 0.29588
 H514 H 1.10607 0.74460 0.33775
 H515 H 1.16143 0.78628 0.29614
 H516 H 1.08213 0.67672 0.37445
 H517 H 1.22454 0.60891 0.33177
 H518 H 1.20198 0.54199 0.36960
 H519 H 1.14920 0.50225 0.41538
 H520 H 1.06090 0.61078 0.41311
 C521 C 0.72314 0.22051 0.28298
 C522 C 0.69357 0.19424 0.30702
 C523 C 0.64663 0.19594 0.30383
 C524 C 0.63038 0.22254 0.27521
 C525 C 0.66041 0.24758 0.25043
 C526 C 0.70693 0.24803 0.25510
 C527 C 0.61700 0.17062 0.32895
 C528 C 0.63400 0.14315 0.35669
 C529 C 0.68110 0.14025 0.35853
 C530 C 0.71050 0.16600 0.33392
 C531 C 0.69824 0.11210 0.38540
 C532 C 0.66916 0.08827 0.41133
 C533 C 0.62237 0.09237 0.41113
 C534 C 0.60486 0.11913 0.38309
 H535 H 0.75908 0.21878 0.28560
 H536 H 0.59457 0.22320 0.27146
 H537 H 0.64704 0.26505 0.22711
 H538 H 0.58092 0.17242 0.32703
 H539 H 0.74660 0.16424 0.33585
 H540 H 0.73422 0.10919 0.38686
 H541 H 0.68354 0.06770 0.43243
 H542 H 0.56882 0.12221 0.38246
 C543 C 0.69810 0.73909 -0.21688
 C544 C 0.67341 0.70672 -0.19436
 C545 C 0.69076 0.66444 -0.18901
 C546 C 0.73132 0.65451 -0.20788
 C547 C 0.75480 0.68637 -0.23129
 C548 C 0.73851 0.72883 -0.23582
 C549 C 0.66781 0.63314 -0.16431
 C550 C 0.62719 0.64326 -0.14550
 C551 C 0.60853 0.68455 -0.15277
 C552 C 0.63197 0.71618 -0.17675
 C553 C 0.56709 0.69400 -0.13523
 C554 C 0.54530 0.66376 -0.10942
 C555 C 0.56481 0.62382 -0.10017
 C556 C 0.60542 0.61327 -0.11887
 H557 H 0.68632 0.77230 -0.21890
 H558 H 0.74510 0.62230 -0.20429
 H559 H 0.78638 0.67796 -0.24515
 H560 H 0.68182 0.60124 -0.15937
 H561 H 0.61819 0.74825 -0.18141
 H562 H 0.55203 0.72521 -0.14077
 H563 H 0.51415 0.67277 -0.09526
 H564 H 0.62045 0.58237 -0.11208
 C565 C 0.81197 -0.16324 -0.21656
 C566 C 0.83648 -0.14887 -0.18610
 C567 C 0.86377 -0.17853 -0.16765
 C568 C 0.86678 -0.22178 -0.18060
 C569 C 0.84184 -0.23592 -0.21067
 C570 C 0.81419 -0.20688 -0.22878
 C571 C 0.88645 -0.16492 -0.13593
 C572 C 0.88192 -0.12208 -0.12227
 C573 C 0.85533 -0.09220 -0.14128
 C574 C 0.83289 -0.10574 -0.17305
 C575 C 0.85123 -0.04928 -0.12799
 C576 C 0.87289 -0.03608 -0.09598
 C577 C 0.89874 -0.06565 -0.07636
 C578 C 0.90326 -0.10867 -0.08977
 H579 H 0.78956 -0.14099 -0.22939
 H580 H 0.88733 -0.24507 -0.16674
 H581 H 0.84308 -0.27007 -0.21886
 H582 H 0.90695 -0.18785 -0.12153
 H583 H 0.81207 -0.08292 -0.18726
 H584 H 0.83117 -0.02591 -0.14229
 H585 H 0.86906 -0.00267 -0.08637
 H586 H 0.92360 -0.13152 -0.07512
 C587 C 0.78163 0.33689 0.27889
 C588 C 0.81009 0.34957 0.30771
 C589 C 0.85020 0.32732 0.31223
 C590 C 0.86095 0.29279 0.28840
 C591 C 0.83183 0.27944 0.26098
 C592 C 0.79229 0.30159 0.25541
 C593 C 0.87811 0.33856 0.34145
 C594 C 0.86592 0.37087 0.36718
 C595 C 0.82579 0.39314 0.36302
 C596 C 0.79842 0.38280 0.33300
 C597 C 0.81339 0.42478 0.38944
 C598 C 0.83997 0.43362 0.41998
 C599 C 0.87978 0.41142 0.42447
 C600 C 0.89280 0.38046 0.39756
 H601 H 0.75036 0.35309 0.27578
 H602 H 0.89099 0.27473 0.29205
 H603 H 0.83957 0.25013 0.24576
 H604 H 0.90871 0.32121 0.34480
 H605 H 0.76755 0.39976 0.32993
 H606 H 0.78284 0.44231 0.38675
 H607 H 0.82940 0.45794 0.44009
 H608 H 0.92346 0.36316 0.40062
 C609 C 0.30624 -0.17174 0.29219
 C610 C 0.33742 -0.15750 0.31843
 C611 C 0.35783 -0.18906 0.34100
 C612 C 0.34763 -0.23416 0.33636
 C613 C 0.31589 -0.24789 0.31108
 C614 C 0.29362 -0.21701 0.28959
 C615 C 0.38735 -0.17517 0.36841
 C616 C 0.39582 -0.12994 0.37446
 C617 C 0.37580 -0.09827 0.35164
 C618 C 0.34739 -0.11221 0.32340
 C619 C 0.38346 -0.05309 0.35825
 C620 C 0.40907 -0.03953 0.38807
 C621 C 0.42815 -0.07056 0.41144
 C622 C 0.42254 -0.11581 0.40390
 H623 H 0.29168 -0.14738 0.27454
 H624 H 0.36344 -0.25889 0.35295
 H625 H 0.30877 -0.28303 0.30873
 H626 H 0.40256 -0.19955 0.38585
 H627 H 0.33178 -0.08783 0.30625
 H628 H 0.36872 -0.02827 0.34098
 H629 H 0.41403 -0.00468 0.39302
 H630 H 0.43704 -0.13995 0.42204
 C631 C 0.29359 0.33120 -0.21396
 C632 C 0.32107 0.34970 -0.18671
 C633 C 0.35620 0.32523 -0.17287
 C634 C 0.36233 0.28231 -0.18561
 C635 C 0.33352 0.26349 -0.21125
 C636 C 0.29978 0.28803 -0.22639
 C637 C 0.38350 0.34327 -0.14546
 C638 C 0.37489 0.38466 -0.13030
 C639 C 0.33888 0.40856 -0.14325
 C640 C 0.31286 0.39142 -0.17193
 C641 C 0.32880 0.44876 -0.12660
 C642 C 0.35366 0.46481 -0.09709
 C643 C 0.39003 0.44184 -0.08446
 C644 C 0.40084 0.40194 -0.10157
 H645 H 0.26620 0.34954 -0.22420
 H646 H 0.38836 0.26266 -0.17467
 H647 H 0.33712 0.22928 -0.21863
 H648 H 0.41054 0.32448 -0.13508
 H649 H 0.28542 0.40992 -0.18194
 H650 H 0.30114 0.46740 -0.13592
 H651 H 0.34459 0.49542 -0.08420
 H652 H 0.42846 0.38364 -0.09166
 C653 C 1.20879 -0.20812 0.19794
 C654 C 1.18226 -0.18047 0.17743
 C655 C 1.17084 -0.13915 0.19173
 C656 C 1.18450 -0.12744 0.22756
 C657 C 1.20868 -0.15669 0.24897
 C658 C 1.22201 -0.19707 0.23411
 C659 C 1.14518 -0.11101 0.17028
 C660 C 1.12907 -0.12498 0.13568
 C661 C 1.13845 -0.16772 0.12292
 C662 C 1.16584 -0.19457 0.14330
 C663 C 1.12026 -0.18317 0.08990
 C664 C 1.09381 -0.15626 0.06898
 C665 C 1.08613 -0.11289 0.07997
 C666 C 1.10367 -0.09731 0.11354
 H667 H 1.21745 -0.23898 0.18558
 H668 H 1.17518 -0.09636 0.23957
 H669 H 1.21585 -0.14801 0.27748
 H670 H 1.13715 -0.07878 0.18076
 H671 H 1.17368 -0.22692 0.13291
 H672 H 1.12673 -0.21603 0.08008
 H673 H 1.08091 -0.16879 0.04316
 H674 H 1.09760 -0.06391 0.12226
 C675 C 1.18227 0.29451 0.70999
 C676 C 1.16176 0.31779 0.68147
 C677 C 1.18844 0.34628 0.65612
 C678 C 1.23486 0.35211 0.66058
 C679 C 1.25500 0.32836 0.68875
 C680 C 1.22902 0.29904 0.71320
 C681 C 1.16861 0.36718 0.62597
 C682 C 1.12253 0.35964 0.62062
 C683 C 1.09560 0.33230 0.64666
 C684 C 1.11536 0.31164 0.67696
 C685 C 1.04941 0.32549 0.64158
 C686 C 1.03019 0.34486 0.61062
 C687 C 1.05690 0.37092 0.58391
 C688 C 1.10306 0.37847 0.58930
 H689 H 1.16215 0.27110 0.72820
 H690 H 1.25581 0.37382 0.64146
 H691 H 1.29119 0.33162 0.69054
 H692 H 1.18922 0.38845 0.60619
 H693 H 1.09482 0.29000 0.69651
 H694 H 1.02820 0.30489 0.66139
 H695 H 0.99451 0.33886 0.60723
 H696 H 1.12385 0.39897 0.56910
 C697 C 0.69849 -0.18879 0.70644
 C698 C 0.67870 -0.15901 0.68223
 C699 C 0.70540 -0.12385 0.66423
 C700 C 0.75099 -0.11821 0.67177
 C701 C 0.77042 -0.14825 0.69559
 C702 C 0.74448 -0.18373 0.71301
 C703 C 0.68674 -0.09626 0.63762
 C704 C 0.64191 -0.10385 0.62829
 C705 C 0.61470 -0.13793 0.64730
 C706 C 0.63320 -0.16515 0.67430
 C707 C 0.56981 -0.14514 0.63806
 C708 C 0.55259 -0.12020 0.60908
 C709 C 0.58003 -0.08773 0.58876
 C710 C 0.62437 -0.07895 0.59922
 H711 H 0.67872 -0.21744 0.71783
 H712 H 0.77202 -0.09160 0.65809
 H713 H 0.80625 -0.14466 0.69932
 H714 H 0.70755 -0.06996 0.62319
 H715 H 0.61261 -0.19195 0.68823
 H716 H 0.54835 -0.17085 0.65255
 H717 H 0.51822 -0.12739 0.60174
 H718 H 0.64564 -0.05359 0.58404
 C719 C 0.68814 0.34071 0.19553
 C720 C 0.67011 0.36561 0.16648
 C721 C 0.69602 0.37477 0.13238
 C722 C 0.73962 0.35943 0.12819
 C723 C 0.75623 0.33288 0.15644
 C724 C 0.73010 0.32191 0.18973
 C725 C 0.67751 0.39782 0.10261
 C726 C 0.63263 0.41012 0.10580
 C727 C 0.60661 0.40072 0.13984
 C728 C 0.62584 0.37955 0.17025
 C729 C 0.56127 0.41134 0.14248
 C730 C 0.54149 0.42993 0.11145
 C731 C 0.56687 0.43937 0.07742
 C732 C 0.61280 0.43018 0.07505
 H733 H 0.66894 0.33513 0.22207
 H734 H 0.76017 0.36643 0.10242
 H735 H 0.78913 0.31981 0.15161
 H736 H 0.69746 0.40463 0.07646
 H737 H 0.60570 0.37216 0.19622
 H738 H 0.54077 0.40428 0.16828
 H739 H 0.50615 0.43692 0.11405
 H740 H 0.63260 0.43701 0.04885
 C741 C 0.81801 0.23714 0.17797
 C742 C 0.83714 0.20095 0.16031
 C743 C 0.81026 0.16200 0.15486
 C744 C 0.76484 0.15982 0.16768
 C745 C 0.74670 0.19524 0.18683
 C746 C 0.77338 0.23374 0.19294
 C747 C 0.82919 0.12594 0.13678
 C748 C 0.87490 0.12812 0.12457
 C749 C 0.90202 0.16664 0.13120
 C750 C 0.88294 0.20283 0.14877
 C751 C 0.94765 0.16886 0.11923
 C752 C 0.96569 0.13450 0.09881
 C753 C 0.93865 0.09703 0.09033
 C754 C 0.89360 0.09320 0.10453
 H755 H 0.83846 0.26725 0.18149
 H756 H 0.74357 0.13040 0.16358
 H757 H 0.71180 0.19218 0.19712
 H758 H 0.80834 0.09639 0.13201
 H759 H 0.90371 0.23250 0.15337
 H760 H 0.96900 0.19791 0.12438
 H761 H 1.00049 0.13809 0.08812
 H762 H 0.87240 0.06462 0.09775
 C763 C 0.84199 0.72629 0.69501
 C764 C 0.85549 0.69620 0.66757
 C765 C 0.82503 0.68212 0.64048
 C766 C 0.78184 0.69821 0.64118
 C767 C 0.76822 0.72661 0.66934
 C768 C 0.79790 0.74050 0.69652
 C769 C 0.83767 0.65131 0.61367
 C770 C 0.88007 0.63354 0.61393
 C771 C 0.91058 0.64718 0.64105
 C772 C 0.89825 0.67875 0.66753
 C773 C 0.95284 0.62882 0.64124
 C774 C 0.96497 0.59790 0.61439
 C775 C 0.93514 0.58497 0.58687
 C776 C 0.89245 0.60244 0.58721
 H777 H 0.86499 0.73689 0.71593
 H778 H 0.75807 0.68765 0.62076
 H779 H 0.73384 0.73673 0.67040
 H780 H 0.81425 0.64068 0.59294
 H781 H 0.92157 0.68918 0.68839
 H782 H 0.97660 0.63857 0.66193
 H783 H 0.99784 0.58436 0.61499
 H784 H 0.86922 0.59270 0.56608
 C785 C 0.32856 0.21918 0.70156
 C786 C 0.34561 0.19090 0.67403
 C787 C 0.31568 0.16475 0.65312
 C788 C 0.26915 0.16676 0.66071
 C789 C 0.25253 0.19461 0.68847
 C790 C 0.28202 0.22073 0.70923
 C791 C 0.33271 0.13769 0.62461
 C792 C 0.37935 0.13632 0.61684
 C793 C 0.40915 0.16168 0.63852
 C794 C 0.39214 0.18885 0.66681
 C795 C 0.45564 0.15992 0.63131
 C796 C 0.47260 0.13423 0.60230
 C797 C 0.44355 0.10993 0.57959
 C798 C 0.39677 0.11058 0.58741
 H799 H 0.35157 0.24065 0.71612
 H800 H 0.24562 0.14713 0.64496
 H801 H 0.21645 0.19610 0.69352
 H802 H 0.30971 0.11812 0.60825
 H803 H 0.41514 0.20865 0.68301
 H804 H 0.47896 0.17882 0.64784
 H805 H 0.50872 0.13404 0.59726
 H806 H 0.37403 0.09170 0.57034
 C807 C 0.31644 0.72594 0.21736
 C808 C 0.33244 0.69636 0.19048
 C809 C 0.30253 0.66400 0.17601
 C810 C 0.25753 0.66063 0.18977
 C811 C 0.24197 0.68986 0.21672
 C812 C 0.27101 0.72325 0.23030
 C813 C 0.31776 0.63629 0.14740
 C814 C 0.36257 0.64053 0.13301
 C815 C 0.39290 0.67167 0.14861
 C816 C 0.37767 0.69933 0.17721
 C817 C 0.43782 0.67540 0.13472
 C818 C 0.45222 0.64987 0.10466
 C819 C 0.42195 0.62026 0.08769
 C820 C 0.37730 0.61501 0.10259
 H821 H 0.33920 0.75159 0.22738
 H822 H 0.23414 0.63597 0.17914
 H823 H 0.20663 0.68729 0.22590
 H824 H 0.29453 0.61214 0.13578
 H825 H 0.40079 0.72378 0.18857
 H826 H 0.46162 0.69874 0.14656
 H827 H 0.48694 0.65438 0.09395
 H828 H 0.35382 0.59197 0.08997
   
