data_POSCAR
  _audit_creation_date              2014-09-24
  _audit_creation_method            'ToBaCCo'
  _symmetry_space_group_name_H-M    'P1'
  _symmetry_Int_Tables_number       1
  _symmetry_cell_setting            triclinic
  loop_
  _symmetry_equiv_pos_as_xyz
 x,y,z
_cell_length_a 30.7969
_cell_length_b 30.5685
_cell_length_c 30.6585
_cell_angle_alpha 89.956600
_cell_angle_beta 90.036900
_cell_angle_gamma 89.988200
loop_
  _atom_site_label
  _atom_site_type_symbol
  _atom_site_fract_x
  _atom_site_fract_y
  _atom_site_fract_z
C1 C 0.49869 0.99967 -0.47805
 C2 C 0.49950 0.99880 -0.52237
 C3 C 0.45926 0.99705 -0.54906
 C4 C 0.54074 0.99947 -0.54746
 C5 C 0.53904 1.00008 -0.45146
 C6 C 0.45745 1.00002 -0.45296
 C7 C 0.45393 0.96293 -0.57886
 C8 C 0.41923 0.96282 -0.60809
 C9 C 0.38852 0.99745 -0.60922
 C10 C 0.39361 1.03094 -0.57741
 C11 C 0.42855 1.03076 -0.54809
 C12 C 0.57124 0.96551 -0.54396
 C13 C 0.60751 0.96450 -0.57153
 C14 C 0.61382 0.99745 -0.60303
 C15 C 0.58359 1.03179 -0.60568
 C16 C 0.54741 1.03267 -0.57834
 C17 C 0.56903 1.03456 -0.45427
 C18 C 0.60464 1.03621 -0.42583
 C19 C 0.61079 1.00343 -0.39413
 C20 C 0.58098 0.96869 -0.39201
 C21 C 0.54546 0.96716 -0.42023
 C22 C 0.44991 1.03396 -0.42316
 C23 C 0.41378 1.03295 -0.39575
 C24 C 0.38449 0.99773 -0.39724
 C25 C 0.39168 0.96401 -0.42768
 C26 C 0.42788 0.96515 -0.45532
 H27 H 0.47709 0.93625 -0.57974
 H28 H 0.41650 0.93430 -0.62866
 H29 H 0.37286 1.05938 -0.57641
 H30 H 0.43260 1.05794 -0.52580
 H31 H 0.56631 0.93921 -0.52080
 H32 H 0.63038 0.93777 -0.56853
 H33 H 0.52398 1.05888 -0.58185
 H34 H 0.56427 1.06066 -0.47769
 H35 H 0.62720 1.06324 -0.42843
 H36 H 0.58432 0.94334 -0.36755
 H37 H 0.52242 0.94054 -0.41725
 H38 H 0.47261 1.06089 -0.42053
 H39 H 0.40964 1.05904 -0.37225
 H40 H 0.36954 0.93659 -0.42978
 H41 H 0.43352 0.93828 -0.47761
 H42 H 0.58705 1.05726 -0.63000
 C43 C -0.50015 1.47768 -0.00057
 C44 C -0.50113 1.52205 -0.00005
 C45 C -0.46100 1.54886 -0.00036
 C46 C -0.54236 1.54707 0.00064
 C47 C -0.54027 1.45088 -0.00155
 C48 C -0.45882 1.45280 -0.00015
 C49 C -0.43080 1.54679 0.03390
 C50 C -0.39592 1.57614 0.03533
 C51 C -0.39098 1.60817 0.00270
 C52 C -0.42059 1.60909 -0.03217
 C53 C -0.45529 1.57988 -0.03356
 C54 C -0.54952 1.57696 0.03453
 C55 C -0.58491 1.60533 0.03318
 C56 C -0.61372 1.60474 -0.00237
 C57 C -0.60749 1.57360 -0.03558
 C58 C -0.57194 1.54504 -0.03415
 C59 C -0.54597 1.42069 -0.03531
 C60 C -0.58071 1.39151 -0.03475
 C61 C -0.61078 1.39116 0.00009
 C62 C -0.60550 1.42299 0.03325
 C63 C -0.57054 1.45226 0.03249
 C64 C -0.42884 1.45619 -0.03445
 C65 C -0.39223 1.42904 -0.03542
 C66 C -0.38511 1.39815 -0.00211
 C67 C -0.41486 1.39558 0.03253
 C68 C -0.45139 1.42250 0.03337
 H69 H -0.43512 1.52354 0.06022
 H70 H -0.37382 1.57490 0.06279
 H71 H -0.41720 1.63282 -0.05819
 H72 H -0.47830 1.58197 -0.06022
 H73 H -0.52699 1.57900 0.06160
 H74 H -0.58932 1.62834 0.05965
 H75 H -0.56650 1.52266 -0.06097
 H76 H -0.52306 1.41943 -0.06210
 H77 H -0.58403 1.36989 -0.06242
 H78 H -0.62652 1.42395 0.06144
 H79 H -0.56616 1.47485 0.05933
 H80 H -0.43441 1.47895 -0.06095
 H81 H -0.36972 1.43189 -0.06238
 H82 H -0.41070 1.37166 0.05826
 H83 H -0.47443 1.41915 0.05985
 H84 H -0.62897 1.57262 -0.06353
 C85 C 0.00103 0.52232 0.49969
 C86 C 0.00116 0.47804 0.50123
 C87 C 0.00353 0.45080 0.46143
 C88 C -0.00106 0.45370 0.54288
 C89 C 0.00171 0.54943 0.53965
 C90 C 0.00036 0.54667 0.45800
 C91 C -0.02969 0.45113 0.43026
 C92 C -0.02883 0.42166 0.39537
 C93 C 0.00517 0.39075 0.39112
 C94 C 0.03911 0.39214 0.42215
 C95 C 0.03807 0.42150 0.45683
 C96 C -0.03604 0.42549 0.55010
 C97 C -0.03709 0.39872 0.58685
 C98 C -0.00268 0.39891 0.61739
 C99 C 0.03201 0.42845 0.61018
 C100 C 0.03275 0.45547 0.57334
 C101 C 0.03609 0.57860 0.54600
 C102 C 0.03612 0.60714 0.58138
 C103 C 0.00132 0.60774 0.61143
 C104 C -0.03295 0.57755 0.60492
 C105 C -0.03270 0.54881 0.56944
 C106 C 0.03510 0.54438 0.42851
 C107 C 0.03550 0.57108 0.39142
 C108 C 0.00114 0.60036 0.38339
 C109 C -0.03392 0.60176 0.41264
 C110 C -0.03418 0.57531 0.44965
 H111 H -0.05706 0.47309 0.43383
 H112 H -0.05642 0.42173 0.37356
 H113 H 0.06731 0.37123 0.41962
 H114 H 0.06423 0.42114 0.48048
 H115 H -0.06218 0.42340 0.52651
 H116 H -0.06384 0.37597 0.58928
 H117 H 0.06016 0.47703 0.56808
 H118 H 0.06267 0.57985 0.52289
 H119 H 0.06253 0.63035 0.58322
 H120 H -0.05976 0.57512 0.62753
 H121 H -0.05971 0.52661 0.56479
 H122 H 0.06232 0.52284 0.43484
 H123 H 0.06282 0.56923 0.36929
 H124 H -0.06046 0.62448 0.40774
 H125 H -0.06103 0.57774 0.47233
 H126 H 0.05850 0.43151 0.63313
 O127 O -0.11295 1.00374 -0.05831
 O128 O 0.11078 0.99835 -0.06012
 O129 O -0.00214 1.06134 -0.11109
 O130 O -0.00090 0.94257 -0.11280
 O131 O -0.00090 0.88892 -0.06001
 O132 O -0.00122 1.11339 -0.05682
 O133 O 0.05707 0.99943 -0.11255
 O134 O -0.06011 1.00433 -0.11155
 Zr135 Zr -0.00122 1.00141 -0.07656
 O136 O 0.03822 0.96098 -0.04028
 O137 O -0.04002 1.04075 -0.03853
 C138 C -0.10028 1.00524 -0.09875
 C139 C 0.09744 0.99796 -0.10039
 C140 C -0.00225 1.10156 -0.09741
 C141 C -0.00056 0.90196 -0.10026
 H142 H 0.05745 1.05867 -0.05748
 O143 O 0.03886 1.03987 -0.03903
 H144 H -0.05957 0.94355 -0.05811
 O145 O -0.04067 0.96185 -0.03948
 O146 O 0.11179 1.00017 0.05863
 O147 O -0.11198 0.99883 0.06037
 O148 O 0.05891 1.11196 0.00325
 O149 O 0.05685 0.88750 -0.00386
 O150 O -0.05999 0.88853 0.00118
 O151 O -0.05795 1.11308 0.00009
 O152 O 0.00199 1.05791 0.11309
 O153 O -0.00115 0.93923 0.11145
 O154 O 0.00208 1.11162 0.06036
 O155 O -0.00216 0.88718 0.05719
 O156 O 0.11179 1.05865 0.00178
 O157 O -0.11186 1.06082 -0.00008
 O158 O -0.11288 0.94185 0.00214
 O159 O 0.11067 0.93985 -0.00330
 O160 O 0.05901 1.00008 0.11193
 O161 O -0.05827 0.99721 0.11279
 Zr162 Zr 0.07614 0.99957 -0.00047
 Zr163 Zr -0.07731 1.00100 0.00076
 Zr164 Zr 0.00014 1.07672 0.00125
 Zr165 Zr -0.00125 0.92382 -0.00090
 Zr166 Zr 0.00007 0.99912 0.07687
 O167 O -0.04009 0.96053 0.03949
 O168 O 0.03961 1.03883 0.03997
 C169 C 0.09917 1.00081 0.09910
 C170 C -0.09866 0.99701 0.10061
 C171 C 0.09908 1.09915 0.00358
 C172 C 0.09722 0.89958 -0.00486
 C173 C -0.10014 0.90132 0.00268
 C174 C -0.09836 1.10109 -0.00082
 C175 C 0.00280 1.09852 0.10059
 C176 C -0.00214 0.89902 0.09779
 H177 H -0.05757 1.05805 0.05935
 O178 O -0.03930 1.03942 0.04044
 H179 H 0.05742 0.94084 0.05684
 O180 O 0.03882 0.95997 0.03870
 C181 C 0.29018 1.00216 0.29465
 C182 C 0.32647 0.97557 0.28892
 C183 C 0.35889 0.97380 0.32075
 C184 C 0.35612 0.99877 0.35980
 C185 C 0.31869 1.02556 0.36469
 C186 C 0.28632 1.02708 0.33259
 C187 C 0.25707 1.00361 0.26141
 C188 C 0.22969 1.00412 0.23321
 C189 C 0.19707 1.00407 0.19945
 C190 C 0.20923 1.00347 0.15545
 C191 C 0.17752 1.00252 0.12272
 C192 C 0.13309 1.00208 0.13358
 C193 C 0.12130 1.00288 0.17800
 C194 C 0.15305 1.00384 0.21059
 H195 H 0.33008 0.95644 0.25939
 H196 H 0.38701 0.95435 0.31268
 H197 H 0.31258 1.04420 0.39394
 H198 H 0.25802 1.04753 0.33761
 H199 H 0.24324 1.00357 0.14643
 H200 H 0.18784 1.00200 0.08896
 H201 H 0.08749 1.00265 0.18770
 H202 H 0.14322 1.00422 0.24452
 C203 C -0.28480 0.99250 0.30056
 C204 C -0.29523 1.03212 0.32085
 C205 C -0.32733 1.03354 0.35305
 C206 C -0.34955 0.99527 0.36545
 C207 C -0.33815 0.95539 0.34559
 C208 C -0.30603 0.95406 0.31332
 C209 C -0.25304 0.99164 0.26603
 C210 C -0.22654 0.99156 0.23703
 C211 C -0.19467 0.99208 0.20261
 C212 C -0.15043 0.99174 0.21293
 C213 C -0.11932 0.99318 0.17979
 C214 C -0.13195 0.99504 0.13563
 C215 C -0.17659 0.99513 0.12557
 C216 C -0.20768 0.99370 0.15886
 H217 H -0.27890 1.06206 0.31140
 H218 H -0.33497 1.06464 0.36809
 H219 H -0.35501 0.92547 0.35400
 H220 H -0.29828 0.92319 0.29782
 H221 H -0.13995 0.99055 0.24665
 H222 H -0.08534 0.99297 0.18888
 H223 H -0.18755 0.99648 0.09202
 H224 H -0.24185 0.99404 0.15047
 C225 C -0.28862 1.00955 -0.29680
 C226 C -0.29857 0.96978 -0.31704
 C227 C -0.33050 0.96798 -0.34943
 C228 C -0.35302 1.00601 -0.36208
 C229 C -0.34217 1.04603 -0.34219
 C230 C -0.31021 1.04774 -0.30972
 C231 C -0.25675 1.01081 -0.26234
 C232 C -0.23002 1.01114 -0.23352
 C233 C -0.19772 1.01078 -0.19945
 C234 C -0.15364 1.01126 -0.21032
 C235 C -0.12207 1.00972 -0.17759
 C236 C -0.13409 1.00761 -0.13329
 C237 C -0.17857 1.00748 -0.12265
 C238 C -0.21013 1.00901 -0.15554
 H239 H -0.28193 0.94004 -0.30749
 H240 H -0.33769 0.93678 -0.36449
 H241 H -0.35927 1.07576 -0.35080
 H242 H -0.30281 1.07873 -0.29428
 H243 H -0.14362 1.01256 -0.24417
 H244 H -0.08822 1.00998 -0.18713
 H245 H -0.18905 1.00594 -0.08898
 H246 H -0.24419 1.00855 -0.14673
 C247 C 0.28337 0.99293 -0.30054
 C248 C 0.30564 0.95472 -0.31211
 C249 C 0.33768 0.95595 -0.34447
 C250 C 0.34797 0.99551 -0.36559
 C251 C 0.32472 1.03351 -0.35436
 C252 C 0.29269 1.03219 -0.32208
 C253 C 0.25166 0.99224 -0.26596
 C254 C 0.22519 0.99230 -0.23693
 C255 C 0.19333 0.99300 -0.20249
 C256 C 0.20637 0.99335 -0.15872
 C257 C 0.17531 0.99486 -0.12540
 C258 C 0.13069 0.99611 -0.13545
 C259 C 0.11803 0.99556 -0.17963
 C260 C 0.14911 0.99404 -0.21280
 H261 H 0.29874 0.92413 -0.29564
 H262 H 0.35535 0.92627 -0.35195
 H263 H 0.33149 1.06434 -0.37039
 H264 H 0.27555 1.06194 -0.31356
 H265 H 0.24054 0.99262 -0.15033
 H266 H 0.18629 0.99517 -0.09184
 H267 H 0.08406 0.99640 -0.18873
 H268 H 0.13861 0.99384 -0.24654
 C269 C 0.28991 1.29451 0.00644
 C270 C 0.28450 1.33444 0.02791
 C271 C 0.31699 1.36640 0.02591
 C272 C 0.35571 1.35912 0.00210
 C273 C 0.36033 1.31831 -0.01927
 C274 C 0.32785 1.28657 -0.01707
 C275 C 0.25664 1.26150 0.00810
 C276 C 0.22921 1.23338 0.00869
 C277 C 0.19668 1.19960 0.00855
 C278 C 0.15267 1.21078 0.00944
 C279 C 0.12098 1.17812 0.00804
 C280 C 0.13288 1.13366 0.00567
 C281 C 0.17730 1.12276 0.00512
 C282 C 0.20894 1.15555 0.00651
 H283 H 0.25499 1.34105 0.04597
 H284 H 0.31060 1.39727 0.04183
 H285 H 0.38976 1.30952 -0.03635
 H286 H 0.33255 1.25556 -0.03351
 H287 H 0.14283 1.24478 0.01094
 H288 H 0.08716 1.18780 0.00864
 H289 H 0.18767 1.08896 0.00338
 H290 H 0.24296 1.14656 0.00573
 C291 C 0.28589 0.70215 -0.01045
 C292 C 0.32757 0.71351 0.00361
 C293 C 0.36010 0.68182 0.00600
 C294 C 0.35142 0.63814 -0.00558
 C295 C 0.30953 0.62702 -0.02018
 C296 C 0.27691 0.65888 -0.02249
 C297 C 0.25250 0.73505 -0.01172
 C298 C 0.22521 0.76333 -0.01195
 C299 C 0.19313 0.79754 -0.01136
 C300 C 0.20608 0.84140 -0.00982
 C301 C 0.17498 0.87469 -0.00793
 C302 C 0.13040 0.86449 -0.00749
 C303 C 0.11778 0.82022 -0.00938
 C304 C 0.14894 0.78704 -0.01127
 H305 H 0.33492 0.74691 0.01285
 H306 H 0.39222 0.69160 0.01654
 H307 H 0.30185 0.59364 -0.02907
 H308 H 0.24469 0.64974 -0.03335
 H309 H 0.24024 0.84987 -0.00979
 H310 H 0.18590 0.90833 -0.00659
 H311 H 0.08381 0.81108 -0.00921
 H312 H 0.13857 0.75319 -0.01238
 C313 C -0.29098 0.70602 0.00941
 C314 C -0.28145 0.66261 0.02052
 C315 C -0.31397 0.63065 0.01875
 C316 C -0.35634 0.64180 0.00563
 C317 C -0.36559 0.68563 -0.00497
 C318 C -0.33314 0.71744 -0.00313
 C319 C -0.25760 0.73894 0.01000
 C320 C -0.23013 0.76702 0.00976
 C321 C -0.19760 0.80078 0.00877
 C322 C -0.20989 0.84486 0.00790
 C323 C -0.17829 0.87767 0.00599
 C324 C -0.13388 0.86676 0.00485
 C325 C -0.12195 0.82226 0.00594
 C326 C -0.15359 0.78958 0.00785
 H327 H -0.24886 0.65342 0.03019
 H328 H -0.30584 0.59714 0.02683
 H329 H -0.39807 0.69540 -0.01441
 H330 H -0.34091 0.75095 -0.01166
 H331 H -0.24391 0.85388 0.00852
 H332 H -0.18868 0.91151 0.00529
 H333 H -0.08813 0.81256 0.00523
 H334 H -0.14373 0.75556 0.00844
 C335 C -0.28319 1.30234 -0.00657
 C336 C -0.30519 1.31401 -0.04481
 C337 C -0.33745 1.34621 -0.04370
 C338 C -0.34818 1.36701 -0.00422
 C339 C -0.32512 1.35578 0.03380
 C340 C -0.29287 1.32366 0.03260
 C341 C -0.25156 1.26769 -0.00707
 C342 C -0.22522 1.23852 -0.00685
 C343 C -0.19360 1.20387 -0.00595
 C344 C -0.14934 1.21399 -0.00562
 C345 C -0.11845 1.18058 -0.00397
 C346 C -0.13139 1.13638 -0.00257
 C347 C -0.17605 1.12653 -0.00307
 C348 C -0.20692 1.16009 -0.00472
 H349 H -0.29798 1.29766 -0.07531
 H350 H -0.35501 1.35375 -0.07338
 H351 H -0.33230 1.37160 0.06456
 H352 H -0.27591 1.31500 0.06236
 H353 H -0.13868 1.24776 -0.00651
 H354 H -0.08442 1.18949 -0.00375
 H355 H -0.18720 1.09295 -0.00211
 H356 H -0.24114 1.15191 -0.00489
 C357 C 0.00366 1.29358 0.29201
 C358 C -0.01837 1.33302 0.28565
 C359 C -0.01791 1.36518 0.31807
 C360 C 0.00486 1.35856 0.35765
 C361 C 0.02690 1.31826 0.36320
 C362 C 0.02625 1.28631 0.33076
 C363 C 0.00321 1.26032 0.25895
 C364 C 0.00324 1.23212 0.23156
 C365 C 0.00354 1.19848 0.19889
 C366 C 0.00487 1.20989 0.15477
 C367 C 0.00498 1.17736 0.12286
 C368 C 0.00373 1.13282 0.13467
 C369 C 0.00270 1.12169 0.17922
 C370 C 0.00259 1.15437 0.21110
 H371 H -0.03574 1.33906 0.25549
 H372 H -0.03421 1.39570 0.31101
 H373 H 0.04328 1.31001 0.39330
 H374 H 0.04308 1.25563 0.33616
 H375 H 0.00571 1.24396 0.14501
 H376 H 0.00586 1.18721 0.08893
 H377 H 0.00173 1.08780 0.18948
 H378 H 0.00165 1.14524 0.24524
 C379 C -0.00145 1.30390 -0.28149
 C380 C 0.03750 1.32205 -0.29617
 C381 C 0.03719 1.35436 -0.32846
 C382 C -0.00231 1.36894 -0.34712
 C383 C -0.04139 1.35108 -0.33058
 C384 C -0.04085 1.31891 -0.29827
 C385 C -0.00114 1.26910 -0.24998
 C386 C -0.00134 1.23974 -0.22379
 C387 C -0.00189 1.20489 -0.19235
 C388 C -0.00111 1.16122 -0.20604
 C389 C -0.00154 1.12742 -0.17527
 C390 C -0.00274 1.13699 -0.13038
 C391 C -0.00378 1.18110 -0.11710
 C392 C -0.00335 1.21473 -0.14789
 H393 H 0.06825 1.31052 -0.28336
 H394 H 0.06829 1.36567 -0.34027
 H395 H -0.07279 1.36234 -0.34168
 H396 H -0.07127 1.30549 -0.28660
 H397 H -0.00006 1.15331 -0.24047
 H398 H -0.00072 1.09390 -0.18665
 H399 H -0.00481 1.18977 -0.08287
 H400 H -0.00407 1.24843 -0.13698
 C401 C -0.00150 0.70439 -0.28910
 C402 C -0.04020 0.68585 -0.30399
 C403 C -0.03939 0.65327 -0.33596
 C404 C 0.00037 0.63873 -0.35402
 C405 C 0.03917 0.65726 -0.33752
 C406 C 0.03812 0.68971 -0.30554
 C407 C -0.00224 0.73879 -0.25722
 C408 C -0.00227 0.76760 -0.23047
 C409 C -0.00183 0.80154 -0.19811
 C410 C -0.00038 0.79037 -0.15394
 C411 C 0.00026 0.82305 -0.12221
 C412 C -0.00055 0.86754 -0.13424
 C413 C -0.00182 0.87846 -0.17884
 C414 C -0.00246 0.84560 -0.21056
 H415 H -0.07112 0.69712 -0.29145
 H416 H -0.07031 0.64151 -0.34785
 H417 H 0.07076 0.64617 -0.34818
 H418 H 0.06835 0.70343 -0.29370
 H419 H 0.00024 0.75635 -0.14399
 H420 H 0.00131 0.81334 -0.08825
 H421 H -0.00247 0.91231 -0.18926
 H422 H -0.00347 0.85454 -0.24475
 C423 C 0.00311 0.69633 0.28140
 C424 C -0.03493 0.67287 0.28997
 C425 C -0.03521 0.64053 0.32215
 C426 C 0.00261 0.63130 0.34621
 C427 C 0.04104 0.65417 0.33648
 C428 C 0.04123 0.68656 0.30428
 C429 C 0.00252 0.73131 0.25010
 C430 C 0.00154 0.76077 0.22403
 C431 C 0.00006 0.79566 0.19267
 C432 C -0.00344 0.78588 0.14830
 C433 C -0.00460 0.81953 0.11755
 C434 C -0.00225 0.86360 0.13078
 C435 C 0.00088 0.87312 0.17559
 C436 C 0.00205 0.83930 0.20632
 H437 H -0.06456 0.68008 0.27228
 H438 H -0.06512 0.62309 0.32863
 H439 H 0.07049 0.64814 0.35485
 H440 H 0.07083 0.70460 0.29788
 H441 H -0.00512 0.75219 0.13743
 H442 H -0.00713 0.81089 0.08339
 H443 H 0.00277 0.90662 0.18691
 H444 H 0.00467 0.84717 0.24067
   
