data_POSCAR
  _audit_creation_date              2014-09-24
  _audit_creation_method            'ToBaCCo'
  _symmetry_space_group_name_H-M    'P1'
  _symmetry_Int_Tables_number       1
  _symmetry_cell_setting            triclinic
  loop_
  _symmetry_equiv_pos_as_xyz
 x,y,z
_cell_length_a 28.1737
_cell_length_b 27.8719
_cell_length_c 30.6349
_cell_angle_alpha 90.142100
_cell_angle_beta 89.969900
_cell_angle_gamma 121.595200
loop_
  _atom_site_label
  _atom_site_type_symbol
  _atom_site_fract_x
  _atom_site_fract_y
  _atom_site_fract_z
O1 O 0.05590 0.56378 1.29298
 O2 O -0.05057 0.51512 1.20677
 O3 O -0.05151 0.51431 1.29206
 O4 O 0.05727 0.56563 1.20811
 O5 O 0.04856 0.48216 1.20636
 O6 O -0.05871 0.43152 1.29160
 O7 O -0.05913 0.43176 1.20669
 O8 O 0.04927 0.48126 1.29127
 Cu9 Cu 0.00337 0.54800 1.25004
 Cu10 Cu -0.00572 0.44833 1.24894
 C11 C 0.07083 0.53072 1.30677
 C12 C -0.07284 0.46530 1.19176
 C13 C -0.07311 0.46453 1.30660
 C14 C 0.07108 0.53240 1.19259
 O15 O 0.43356 0.48399 1.29345
 O16 O 0.49275 0.43807 1.20726
 O17 O 0.49223 0.43682 1.29280
 O18 O 0.43409 0.48560 1.20806
 O19 O 0.51227 0.56868 1.20882
 O20 O 0.56967 0.52058 1.29365
 O21 O 0.57075 0.52132 1.20896
 O22 O 0.51083 0.56779 1.29411
 Cu23 Cu 0.45539 0.45271 1.25028
 Cu24 Cu 0.54851 0.55301 1.25150
 C25 C 0.46224 0.53368 1.30879
 C26 C 0.54185 0.47180 1.19342
 C27 C 0.54080 0.47048 1.30774
 C28 C 0.46380 0.53550 1.19361
 O29 O 0.51631 0.95086 1.29461
 O30 O 0.56298 1.05831 1.20856
 O31 O 0.56280 1.05928 1.29377
 O32 O 0.51710 0.94958 1.20971
 O33 O 0.43467 0.94110 1.20801
 O34 O 0.47981 1.04946 1.29326
 O35 O 0.48048 1.04968 1.20871
 O36 O 0.43307 0.94038 1.29330
 Cu37 Cu 0.54816 1.00554 1.25170
 Cu38 Cu 0.44857 0.99398 1.25079
 C39 C 0.46667 0.92732 1.30882
 C40 C 0.52982 1.07251 1.19408
 C41 C 0.52924 1.07315 1.30796
 C42 C 0.46815 0.92689 1.19429
 O43 O 0.94828 0.51320 0.70684
 O44 O 1.05560 0.56631 0.79268
 O45 O 1.05683 0.56930 0.70753
 O46 O 0.94764 0.51286 0.79179
 O47 O 0.94659 0.43310 0.79154
 O48 O 1.05427 0.48885 0.70552
 O49 O 1.05482 0.48672 0.79078
 O50 O 0.94613 0.43288 0.70619
 Cu51 Cu 1.00239 0.54850 0.74975
 Cu52 Cu 1.00019 0.45232 0.74838
 C53 C 0.92900 0.46386 0.69177
 C54 C 1.07325 0.53551 0.80661
 C55 C 1.07405 0.53886 0.69183
 C56 C 0.92894 0.46357 0.80646
 O57 O 0.48844 0.43309 0.70739
 O58 O 0.43254 0.48224 0.79300
 O59 O 0.43067 0.48145 0.70820
 O60 O 0.48914 0.43309 0.79226
 O61 O 0.56664 0.51686 0.79242
 O62 O 0.50911 0.56439 0.70677
 O63 O 0.50992 0.56610 0.79169
 O64 O 0.56662 0.51629 0.70739
 Cu65 Cu 0.45231 0.44905 0.75020
 Cu66 Cu 0.54598 0.54930 0.74953
 C67 C 0.53709 0.46645 0.69270
 C68 C 0.46174 0.53247 0.80703
 C69 C 0.45990 0.53100 0.69300
 C70 C 0.53767 0.46696 0.80704
 O71 O 0.56454 0.05665 0.70672
 O72 O 0.51456 -0.05125 0.79246
 O73 O 0.51610 -0.05249 0.70744
 O74 O 0.56500 0.05761 0.79183
 O75 O 0.48275 0.04954 0.79181
 O76 O 0.43461 -0.05905 0.70572
 O77 O 0.43221 -0.05959 0.79098
 O78 O 0.48279 0.04969 0.70644
 Cu79 Cu 0.54826 0.00336 0.74963
 Cu80 Cu 0.44989 -0.00554 0.74865
 C81 C 0.53198 0.07134 0.69177
 C82 C 0.46500 -0.07356 0.80656
 C83 C 0.46720 -0.07443 0.69189
 C84 C 0.53202 0.07181 0.80671
 O85 O 0.41334 0.66442 0.94891
 O86 O 0.41989 0.75971 0.96297
 C87 C 0.38600 0.76831 0.94230
 O88 O 0.33467 0.74391 0.95163
 O89 O 0.23947 0.65143 0.96497
 C90 C 0.23004 0.60890 0.94253
 O91 O 0.25304 0.58100 0.95031
 O92 O 0.34278 0.57748 0.96295
 C93 C 0.38523 0.61209 0.94092
 O94 O 0.41653 0.64948 1.03547
 O95 O 0.41890 0.74272 1.04953
 C96 C 0.39393 0.76822 1.05884
 O97 O 0.35104 0.76014 1.03852
 O98 O 0.25765 0.66545 1.05176
 C99 C 0.23092 0.61303 1.05937
 O100 O 0.23713 0.57823 1.03713
 O101 O 0.32959 0.57996 1.04988
 C102 C 0.38149 0.60728 1.05785
 Cr103 Cr 0.41404 0.70251 0.99926
 Cr104 Cr 0.29717 0.70364 1.00168
 Cr105 Cr 0.29228 0.58230 1.00007
 O106 O 0.33451 0.66288 1.00037
 O107 O 0.58624 0.33758 0.95079
 O108 O 0.57884 0.24160 0.96305
 C109 C 0.61174 0.23108 0.94273
 O110 O 0.66295 0.25397 0.95221
 O111 O 0.75972 0.34570 0.96338
 C112 C 0.77063 0.38892 0.94145
 O113 O 0.74888 0.41792 0.94955
 O114 O 0.66038 0.42361 0.96136
 C115 C 0.61588 0.38932 0.94120
 O116 O 0.58599 0.35264 1.03799
 O117 O 0.58175 0.25811 1.05020
 C118 C 0.60654 0.23247 1.05952
 O119 O 0.64951 0.24056 1.03938
 O120 O 0.74425 0.33473 1.05061
 C121 C 0.77095 0.38716 1.05857
 O122 O 0.76467 0.42203 1.03664
 O123 O 0.67376 0.42329 1.04837
 C124 C 0.62235 0.39690 1.05793
 Cr125 Cr 0.58651 0.29908 1.00050
 Cr126 Cr 0.70261 0.29547 1.00136
 Cr127 Cr 0.71012 0.41837 0.99903
 O128 O 0.66635 0.33761 1.00032
 O129 O 0.65837 0.42230 0.53800
 O130 O 0.74681 0.41680 0.55055
 C131 C 0.76946 0.38854 0.55792
 O132 O 0.75927 0.34585 0.53536
 O133 O 0.66286 0.25430 0.54783
 C134 C 0.61149 0.23057 0.55686
 O135 O 0.57819 0.24011 0.53613
 O136 O 0.58558 0.33588 0.54983
 C137 C 0.61466 0.38786 0.55885
 O138 O 0.67244 0.42117 0.45128
 O139 O 0.76345 0.42049 0.46373
 C140 C 0.76885 0.38542 0.44110
 O141 O 0.74158 0.33294 0.44849
 O142 O 0.64736 0.23884 0.46102
 C143 C 0.60488 0.23141 0.44047
 O144 O 0.58072 0.25778 0.44939
 O145 O 0.58451 0.35183 0.46302
 C146 C 0.62085 0.39530 0.44244
 Cr147 Cr 0.70854 0.41700 0.50085
 Cr148 Cr 0.70133 0.29464 0.49822
 Cr149 Cr 0.58541 0.29793 0.49959
 O150 O 0.66503 0.33649 0.49955
 O151 O 0.32773 0.58030 0.55055
 O152 O 0.23620 0.57982 0.53806
 C153 C 0.22979 0.61609 0.55809
 O154 O 0.25663 0.66790 0.54841
 O155 O 0.35107 0.76140 0.53593
 C156 C 0.39314 0.76901 0.55740
 O157 O 0.41784 0.74293 0.54912
 O158 O 0.41530 0.64900 0.53746
 C159 C 0.37936 0.60613 0.55878
 O160 O 0.34115 0.57592 0.46353
 O161 O 0.25188 0.57961 0.45107
 C162 C 0.22923 0.60721 0.44150
 O163 O 0.24012 0.65199 0.46137
 O164 O 0.33659 0.74359 0.44883
 C165 C 0.38817 0.76799 0.44062
 O166 O 0.42121 0.75879 0.46207
 O167 O 0.41370 0.66231 0.45037
 C168 C 0.38467 0.61003 0.44206
 Cr169 Cr 0.29098 0.58217 0.50076
 Cr170 Cr 0.29757 0.70453 0.49865
 Cr171 Cr 0.41381 0.70170 0.49974
 O172 O 0.33408 0.66278 0.49967
 C173 C 0.44052 0.55171 0.34305
 C174 C 0.47849 0.57318 0.38353
 C175 C 0.45947 0.59205 0.41614
 C176 C 0.40400 0.58764 0.40571
 C177 C 0.41425 0.61942 0.36240
 C178 C 0.43340 0.60074 0.32971
 C179 C 0.38292 0.50646 0.36097
 C180 C 0.36393 0.52528 0.39368
 H181 H 0.51680 0.57299 0.38654
 H182 H 0.48155 0.60797 0.44686
 H183 H 0.40660 0.65341 0.35774
 H184 H 0.44201 0.61879 0.29718
 H185 H 0.35887 0.46339 0.34911
 H186 H 0.32390 0.49816 0.40923
 C187 C 0.44808 0.88622 0.34270
 C188 C 0.49248 0.87536 0.36141
 C189 C 0.47311 0.83614 0.39376
 C190 C 0.41111 0.81111 0.40464
 C191 C 0.40640 0.86241 0.41499
 C192 C 0.42579 0.90169 0.38274
 C193 C 0.40000 0.82775 0.32846
 C194 C 0.38077 0.78851 0.36081
 H195 H 0.53539 0.89638 0.35034
 H196 H 0.49960 0.82402 0.40981
 H197 H 0.38988 0.86774 0.44542
 H198 H 0.42584 0.94055 0.38573
 H199 H 0.38306 0.81780 0.29558
 H200 H 0.34753 0.74513 0.35550
 C201 C 0.11367 0.55034 0.34248
 C202 C 0.16693 0.60740 0.33316
 C203 C 0.20519 0.62600 0.36601
 C204 C 0.18697 0.58579 0.40515
 C205 C 0.13048 0.57680 0.41912
 C206 C 0.09221 0.55839 0.38634
 C207 C 0.13440 0.51031 0.35266
 C208 C 0.17271 0.52881 0.38536
 H209 H 0.17408 0.63098 0.30320
 H210 H 0.24496 0.66548 0.36415
 H211 H 0.12123 0.58389 0.45208
 H212 H 0.05026 0.54972 0.39128
 H213 H 0.12059 0.47097 0.33558
 H214 H 0.19105 0.50490 0.39592
 C215 C 0.56362 0.45112 0.34336
 C216 C 0.62622 0.49084 0.35282
 C217 C 0.64574 0.47284 0.38556
 C218 C 0.60093 0.41668 0.40607
 C219 C 0.55450 0.42676 0.42027
 C220 C 0.53491 0.44458 0.38746
 C221 C 0.55685 0.39354 0.33455
 C222 C 0.57622 0.37546 0.36741
 H223 H 0.65317 0.52957 0.33516
 H224 H 0.68910 0.49649 0.39566
 H225 H 0.53866 0.42077 0.45339
 H226 H 0.50235 0.45383 0.39254
 H227 H 0.53877 0.36927 0.30489
 H228 H 0.57464 0.33572 0.36583
 C229 C 0.54729 0.11450 0.34158
 C230 C 0.60482 0.16736 0.33285
 C231 C 0.62333 0.20603 0.36567
 C232 C 0.58266 0.18880 0.40414
 C233 C 0.52749 0.17638 0.38346
 C234 C 0.50892 0.13747 0.35074
 C235 C 0.55309 0.09220 0.38581
 C236 C 0.57140 0.13096 0.41851
 H237 H 0.62873 0.17412 0.30324
 H238 H 0.66301 0.24561 0.36414
 H239 H 0.50499 0.19645 0.39339
 H240 H 0.47082 0.12490 0.33292
 H241 H 0.54291 0.04929 0.39113
 H242 H 0.57687 0.12116 0.45173
 C243 C 0.88437 0.44434 0.34242
 C244 C 0.87440 0.48948 0.36146
 C245 C 0.83602 0.47023 0.39405
 C246 C 0.81090 0.40745 0.40479
 C247 C 0.78785 0.37684 0.36100
 C248 C 0.82638 0.39604 0.32839
 C249 C 0.89987 0.42152 0.38202
 C250 C 0.86135 0.40207 0.41457
 H251 H 0.89538 0.53281 0.35034
 H252 H 0.82446 0.49732 0.41025
 H253 H 0.74481 0.34348 0.35594
 H254 H 0.81630 0.37901 0.29549
 H255 H 0.93810 0.42110 0.38439
 H256 H 0.86660 0.38498 0.44473
 C257 C 0.56512 0.45291 1.15752
 C258 C 0.53562 0.44515 1.11361
 C259 C 0.55525 0.42735 1.08069
 C260 C 0.60256 0.41849 1.09452
 C261 C 0.64703 0.47531 1.11464
 C262 C 0.62745 0.49330 1.14752
 C263 C 0.55958 0.39593 1.16643
 C264 C 0.57899 0.37789 1.13347
 H265 H 0.50249 0.45355 1.10871
 H266 H 0.53884 0.42057 1.04770
 H267 H 0.69019 0.49941 1.10413
 H268 H 0.65412 0.53249 1.16487
 H269 H 0.54225 0.37202 1.19625
 H270 H 0.57820 0.33856 1.13515
 C271 C 0.88685 0.44650 1.15755
 C272 C 0.90233 0.42374 1.11770
 C273 C 0.86375 0.40420 1.08513
 C274 C 0.81320 0.40939 1.09497
 C275 C 0.79026 0.37879 1.13865
 C276 C 0.82877 0.39808 1.17134
 C277 C 0.87666 0.49156 1.13864
 C278 C 0.83824 0.47217 1.10600
 H279 H 0.94065 0.42346 1.11513
 H280 H 0.86907 0.38722 1.05485
 H281 H 0.74725 0.34535 1.14360
 H282 H 0.81855 0.38097 1.20417
 H283 H 0.89751 0.53496 1.14980
 H284 H 0.82663 0.49919 1.08988
 C285 C 0.54918 0.11590 1.15848
 C286 C 0.51020 0.13781 1.14863
 C287 C 0.52867 0.17658 1.11595
 C288 C 0.58446 0.18994 1.09591
 C289 C 0.62461 0.20785 1.13488
 C290 C 0.60611 0.16925 1.16766
 C291 C 0.55618 0.09379 1.11450
 C292 C 0.57441 0.13236 1.08178
 H293 H 0.47164 0.12448 1.16598
 H294 H 0.50562 0.19586 1.10558
 H295 H 0.66397 0.24775 1.13671
 H296 H 0.62968 0.17626 1.19751
 H297 H 0.54706 0.05119 1.10944
 H298 H 0.58078 0.12266 1.04874
 C299 C 0.44175 0.55519 1.15754
 C300 C 0.42295 0.51685 1.11702
 C301 C 0.40275 0.53411 1.08420
 C302 C 0.40334 0.58833 1.09464
 C303 C 0.37075 0.57593 1.13766
 C304 C 0.39080 0.55844 1.17055
 C305 C 0.48418 0.61426 1.14006
 C306 C 0.46419 0.63155 1.10734
 H307 H 0.42531 0.47931 1.11438
 H308 H 0.38792 0.51138 1.05354
 H309 H 0.33520 0.58074 1.14195
 H310 H 0.37242 0.54837 1.20291
 H311 H 0.52630 0.64072 1.15243
 H312 H 0.48946 0.67271 1.09242
 C313 C 0.11408 0.55298 1.15711
 C314 C 0.17202 0.60080 1.17179
 C315 C 0.21101 0.62042 1.13950
 C316 C 0.18844 0.59063 1.09538
 C317 C 0.16280 0.52759 1.10548
 C318 C 0.12397 0.50796 1.13773
 C319 C 0.09937 0.57673 1.11767
 C320 C 0.13834 0.59655 1.08546
 H321 H 0.18172 0.61721 1.20489
 H322 H 0.25405 0.65351 1.14501
 H323 H 0.17432 0.50059 1.08909
 H324 H 0.10259 0.46441 1.14838
 H325 H 0.06133 0.57750 1.11517
 H326 H 0.13365 0.61430 1.05543
 C327 C 0.44963 0.88385 1.15852
 C328 C 0.48898 0.86228 1.14891
 C329 C 0.47109 0.82379 1.11592
 C330 C 0.41552 0.81043 1.09543
 C331 C 0.37479 0.79206 1.13399
 C332 C 0.39269 0.83036 1.16706
 C333 C 0.44319 0.90627 1.11461
 C334 C 0.42555 0.86799 1.08159
 H335 H 0.52732 0.87564 1.16661
 H336 H 0.49441 0.80474 1.10559
 H337 H 0.33547 0.75207 1.13533
 H338 H 0.36871 0.82304 1.19671
 H339 H 0.45228 0.94887 1.10980
 H340 H 0.41963 0.87790 1.04853
 C341 C 0.55926 0.44653 0.65710
 C342 C 0.52173 0.42597 0.61645
 C343 C 0.54053 0.40672 0.58403
 C344 C 0.59529 0.40994 0.59502
 C345 C 0.63613 0.47205 0.60741
 C346 C 0.61728 0.49116 0.63986
 C347 C 0.56492 0.39671 0.67063
 C348 C 0.58390 0.37759 0.63814
 H349 H 0.48385 0.42693 0.61331
 H350 H 0.51872 0.39119 0.55315
 H351 H 0.67660 0.49876 0.59237
 H352 H 0.64173 0.53402 0.65210
 H353 H 0.55540 0.37844 0.70308
 H354 H 0.59057 0.34295 0.64280
 C355 C 0.55206 0.11420 0.65582
 C356 C 0.50845 0.12668 0.63822
 C357 C 0.52771 0.16529 0.60548
 C358 C 0.58895 0.18810 0.59319
 C359 C 0.62117 0.21073 0.63632
 C360 C 0.60192 0.17202 0.66906
 C361 C 0.57182 0.09674 0.61538
 C362 C 0.59119 0.13542 0.58268
 H363 H 0.46612 0.10717 0.65039
 H364 H 0.50166 0.17846 0.59013
 H365 H 0.65586 0.25364 0.64081
 H366 H 0.62012 0.18183 0.70152
 H367 H 0.57020 0.05707 0.61255
 H368 H 0.60616 0.12883 0.55193
 C369 C 0.88593 0.44250 0.65611
 C370 C 0.83074 0.43658 0.67021
 C371 C 0.79187 0.41817 0.63780
 C372 C 0.81177 0.40758 0.59410
 C373 C 0.86603 0.46315 0.58372
 C374 C 0.90485 0.48134 0.61607
 C375 C 0.86909 0.38424 0.63767
 C376 C 0.83039 0.36599 0.60530
 H377 H 0.82274 0.44554 0.70299
 H378 H 0.75066 0.41142 0.64289
 H379 H 0.87348 0.48596 0.55331
 H380 H 0.94551 0.51968 0.61327
 H381 H 0.88580 0.35916 0.64906
 H382 H 0.81429 0.32540 0.58957
 C383 C 0.43689 0.55026 0.65752
 C384 C 0.44458 0.60830 0.66617
 C385 C 0.42520 0.62652 0.63343
 C386 C 0.39955 0.58497 0.59508
 C387 C 0.44523 0.57397 0.58052
 C388 C 0.46484 0.55599 0.61320
 C389 C 0.37411 0.51108 0.64868
 C390 C 0.35456 0.52922 0.61609
 H391 H 0.46326 0.63276 0.69565
 H392 H 0.42737 0.66656 0.63489
 H393 H 0.46058 0.57948 0.54727
 H394 H 0.49691 0.54610 0.60787
 H395 H 0.34709 0.47263 0.66663
 H396 H 0.31103 0.50592 0.60642
 C397 C 0.44900 0.88462 0.65772
 C398 C 0.48692 0.86105 0.64888
 C399 C 0.46882 0.82277 0.61576
 C400 C 0.41440 0.81129 0.59421
 C401 C 0.37283 0.79385 0.63213
 C402 C 0.39093 0.83201 0.66540
 C403 C 0.44458 0.90788 0.61345
 C404 C 0.42667 0.86965 0.58030
 H405 H 0.52445 0.87274 0.66722
 H406 H 0.49123 0.80251 0.60611
 H407 H 0.33283 0.75447 0.63297
 H408 H 0.36634 0.82507 0.69464
 H409 H 0.45526 0.95100 0.60847
 H410 H 0.42203 0.88013 0.54709
 C411 C 0.11483 0.56011 0.65780
 C412 C 0.16445 0.55273 0.66656
 C413 C 0.20248 0.57148 0.63353
 C414 C 0.18786 0.59626 0.59473
 C415 C 0.12899 0.54960 0.58083
 C416 C 0.09089 0.53065 0.61375
 C417 C 0.14186 0.62342 0.64794
 C418 C 0.17992 0.64222 0.61509
 H419 H 0.16954 0.53478 0.69631
 H420 H 0.23988 0.56943 0.63510
 H421 H 0.11809 0.53317 0.54780
 H422 H 0.04748 0.49806 0.60872
 H423 H 0.13257 0.65147 0.66541
 H424 H 0.20241 0.68597 0.60489
 C425 C 0.43981 0.55262 0.84265
 C426 C 0.43242 0.60122 0.82860
 C427 C 0.41373 0.62062 0.86109
 C428 C 0.40433 0.58977 0.90473
 C429 C 0.36414 0.52708 0.89359
 C430 C 0.38271 0.50769 0.86113
 C431 C 0.47854 0.57513 0.88257
 C432 C 0.46004 0.59467 0.91498
 H433 H 0.44061 0.61845 0.79581
 H434 H 0.40595 0.65447 0.85611
 H435 H 0.32427 0.50019 0.90943
 H436 H 0.35865 0.46442 0.84971
 H437 H 0.51704 0.57526 0.88524
 H438 H 0.48272 0.61157 0.94536
 C439 C 0.11565 0.55625 0.84277
 C440 C 0.13176 0.61398 0.86183
 C441 C 0.16972 0.63165 0.89470
 C442 C 0.18842 0.59007 0.90580
 C443 C 0.13412 0.53413 0.91519
 C444 C 0.09602 0.51652 0.88232
 C445 C 0.17129 0.56277 0.82925
 C446 C 0.20943 0.58059 0.86220
 H447 H 0.11518 0.63917 0.85046
 H448 H 0.18526 0.67190 0.91085
 H449 H 0.12613 0.51064 0.94531
 H450 H 0.05543 0.47797 0.88439
 H451 H 0.18010 0.55462 0.79648
 H452 H 0.25083 0.58762 0.85758
 C453 C 0.44483 0.88380 0.84268
 C454 C 0.48863 0.87191 0.86071
 C455 C 0.46945 0.83361 0.89362
 C456 C 0.40804 0.81043 0.90570
 C457 C 0.40528 0.86292 0.91571
 C458 C 0.42461 0.90133 0.88281
 C459 C 0.39528 0.82569 0.82958
 C460 C 0.37607 0.78725 0.86253
 H461 H 0.53102 0.89154 0.84866
 H462 H 0.49570 0.82085 0.90921
 H463 H 0.38995 0.86955 0.94626
 H464 H 0.42582 0.94083 0.88527
 H465 H 0.37723 0.81551 0.79707
 H466 H 0.34155 0.74422 0.85820
 C467 C 0.56018 0.44744 0.84273
 C468 C 0.61822 0.49218 0.85997
 C469 C 0.63717 0.47331 0.89249
 C470 C 0.59640 0.41126 0.90495
 C471 C 0.54166 0.40815 0.91589
 C472 C 0.52278 0.42715 0.88341
 C473 C 0.56585 0.39750 0.82930
 C474 C 0.58488 0.37862 0.86183
 H475 H 0.64260 0.53495 0.84770
 H476 H 0.67764 0.50016 0.90755
 H477 H 0.51991 0.39286 0.94675
 H478 H 0.48489 0.42810 0.88655
 H479 H 0.55627 0.37899 0.79686
 H480 H 0.59153 0.34393 0.85720
 C481 C 0.88611 0.44202 0.84240
 C482 C 0.90557 0.48096 0.88257
 C483 C 0.86713 0.46304 0.91516
 C484 C 0.81261 0.40757 0.90495
 C485 C 0.79235 0.41815 0.86148
 C486 C 0.83083 0.43627 0.82881
 C487 C 0.86927 0.38378 0.86059
 C488 C 0.83092 0.36577 0.89324
 H489 H 0.94633 0.51920 0.88528
 H490 H 0.87504 0.48599 0.94564
 H491 H 0.75115 0.41156 0.85671
 H492 H 0.82248 0.44512 0.79617
 H493 H 0.88573 0.35858 0.84883
 H494 H 0.81488 0.32523 0.90888
 C495 C 0.55187 0.11471 0.84295
 C496 C 0.50842 0.12744 0.86058
 C497 C 0.52775 0.16601 0.89357
 C498 C 0.58893 0.18855 0.90609
 C499 C 0.59078 0.13564 0.91628
 C500 C 0.57135 0.09704 0.88336
 C501 C 0.60197 0.17249 0.83011
 C502 C 0.62130 0.21112 0.86308
 H503 H 0.46617 0.10811 0.84823
 H504 H 0.50180 0.17931 0.90900
 H505 H 0.60554 0.12883 0.94701
 H506 H 0.56949 0.05725 0.88600
 H507 H 0.62028 0.18235 0.79771
 H508 H 0.65616 0.25396 0.85884
   
