data_POSCAR
  _audit_creation_date              2014-09-24
  _audit_creation_method            'ToBaCCo'
  _symmetry_space_group_name_H-M    'P1'
  _symmetry_Int_Tables_number       1
  _symmetry_cell_setting            triclinic
  loop_
  _symmetry_equiv_pos_as_xyz
 x,y,z
_cell_length_a 42.1898
_cell_length_b 55.1237
_cell_length_c 38.0609
_cell_angle_alpha 89.930200
_cell_angle_beta 89.999500
_cell_angle_gamma 89.936800
loop_
  _atom_site_label
  _atom_site_type_symbol
  _atom_site_fract_x
  _atom_site_fract_y
  _atom_site_fract_z
O1 O 0.21199 0.22613 0.24228
 O2 O 0.25613 0.27334 0.28989
 O3 O 0.21185 0.27326 0.24228
 O4 O 0.25628 0.22604 0.28986
 O5 O 0.29266 0.22609 0.24833
 O6 O 0.24823 0.27334 0.20067
 O7 O 0.29254 0.27343 0.24831
 O8 O 0.24837 0.22618 0.20067
 Cu9 Cu 0.23046 0.24968 0.27028
 Cu10 Cu 0.27413 0.24976 0.22037
 C11 C 0.22256 0.21811 0.21327
 C12 C 0.28184 0.28154 0.27722
 C13 C 0.22237 0.28135 0.21327
 C14 C 0.28207 0.21786 0.27726
 O15 O 0.79224 0.27328 0.25203
 O16 O 0.74795 0.22601 0.29965
 O17 O 0.79229 0.22594 0.25205
 O18 O 0.74793 0.27317 0.29967
 O19 O 0.71156 0.27320 0.25805
 O20 O 0.75589 0.22600 0.21046
 O21 O 0.71161 0.22607 0.25807
 O22 O 0.75584 0.27330 0.21045
 Cu23 Cu 0.77378 0.24959 0.27997
 Cu24 Cu 0.73012 0.24965 0.23006
 C25 C 0.78156 0.28146 0.22312
 C26 C 0.72209 0.21794 0.28712
 C27 C 0.78163 0.21781 0.22314
 C28 C 0.72209 0.28123 0.28706
 O29 O 0.75623 0.77334 0.78985
 O30 O 0.71189 0.72620 0.74232
 O31 O 0.75618 0.72604 0.78990
 O32 O 0.71195 0.77333 0.74225
 O33 O 0.74833 0.77329 0.70063
 O34 O 0.79255 0.72596 0.74837
 O35 O 0.74827 0.72613 0.70070
 O36 O 0.79264 0.77330 0.74828
 Cu37 Cu 0.73046 0.74973 0.77028
 Cu38 Cu 0.77413 0.74967 0.72037
 C39 C 0.78198 0.78147 0.77717
 C40 C 0.72242 0.71813 0.71332
 C41 C 0.78193 0.71778 0.77731
 C42 C 0.72251 0.78138 0.71322
 O43 O 0.24792 0.72684 0.79966
 O44 O 0.29229 0.77408 0.75205
 O45 O 0.24796 0.77400 0.79967
 O46 O 0.29224 0.72673 0.75203
 O47 O 0.25584 0.72685 0.71044
 O48 O 0.21162 0.77408 0.75809
 O49 O 0.25589 0.77416 0.71047
 O50 O 0.21155 0.72695 0.75804
 Cu51 Cu 0.27379 0.75040 0.77998
 Cu52 Cu 0.23012 0.75052 0.73006
 C53 C 0.22208 0.71885 0.78704
 C54 C 0.28163 0.78227 0.72315
 C55 C 0.22210 0.78213 0.78714
 C56 C 0.28156 0.71863 0.72312
 C57 C 0.98230 -0.00034 -0.00004
 C58 C 1.01462 -0.00033 -0.00007
 C59 C 1.03311 0.01918 0.01732
 C60 C 1.03316 -0.01984 -0.01750
 C61 C 0.96387 -0.01838 -0.02057
 C62 C 0.96383 0.01769 0.02052
 C63 C 1.02823 0.04367 0.00866
 C64 C 1.04545 0.06185 0.02563
 C65 C 1.06807 0.05586 0.05138
 C66 C 1.07333 0.03128 0.05943
 C67 C 1.05610 0.01313 0.04246
 C68 C 1.05608 -0.01378 -0.04269
 C69 C 1.07334 -0.03193 -0.05970
 C70 C 1.06818 -0.05650 -0.05163
 C71 C 1.04563 -0.06250 -0.02584
 C72 C 1.02837 -0.04433 -0.00883
 C73 C 0.94110 -0.03278 -0.00368
 C74 C 0.92436 -0.05037 -0.02242
 C75 C 0.92989 -0.05377 -0.05852
 C76 C 0.95216 -0.03888 -0.07557
 C77 C 0.96888 -0.02127 -0.05680
 C78 C 0.96889 0.02059 0.05674
 C79 C 0.95213 0.03818 0.07554
 C80 C 0.92978 0.05306 0.05853
 C81 C 0.92420 0.04966 0.02244
 C82 C 0.94098 0.03208 0.00367
 H83 H 1.01097 0.04868 -0.01113
 H84 H 1.04073 0.08062 0.01901
 H85 H 1.09097 0.02607 0.07869
 H86 H 1.06043 -0.00567 0.04925
 H87 H 1.06033 0.00503 -0.04949
 H88 H 1.09093 -0.02671 -0.07899
 H89 H 1.01116 -0.04935 0.01099
 H90 H 0.93668 -0.03065 0.02418
 H91 H 0.90696 -0.06126 -0.00868
 H92 H 0.95709 -0.04115 -0.10329
 H93 H 0.98598 -0.01005 -0.07045
 H94 H 0.98605 0.00938 0.07035
 H95 H 0.95709 0.04045 0.10325
 H96 H 0.90674 0.06053 0.00874
 H97 H 0.93652 0.02995 -0.02418
 H98 H 1.04098 -0.08127 -0.01920
 C99 C 0.48153 0.49996 0.50022
 C100 C 0.51386 0.49992 0.50024
 C101 C 0.53238 0.51942 0.51763
 C102 C 0.53236 0.48038 0.48286
 C103 C 0.46308 0.48194 0.47968
 C104 C 0.46309 0.51803 0.52075
 C105 C 0.52756 0.54391 0.50893
 C106 C 0.54481 0.56208 0.52589
 C107 C 0.56740 0.55607 0.55166
 C108 C 0.57259 0.53149 0.55976
 C109 C 0.55533 0.51336 0.54280
 C110 C 0.55533 0.48639 0.45769
 C111 C 0.57256 0.46821 0.44073
 C112 C 0.56733 0.44364 0.44882
 C113 C 0.54474 0.43769 0.47460
 C114 C 0.52751 0.45591 0.49156
 C115 C 0.44028 0.46757 0.49654
 C116 C 0.42355 0.44997 0.47780
 C117 C 0.42913 0.44654 0.44172
 C118 C 0.45143 0.46142 0.42468
 C119 C 0.46814 0.47903 0.44346
 C120 C 0.46812 0.52093 0.55697
 C121 C 0.45140 0.53857 0.57573
 C122 C 0.42912 0.55349 0.55868
 C123 C 0.42356 0.55007 0.52260
 C124 C 0.44029 0.53244 0.50386
 H125 H 0.51032 0.54894 0.48912
 H126 H 0.54014 0.58085 0.51923
 H127 H 0.59021 0.52627 0.57904
 H128 H 0.55960 0.49455 0.54962
 H129 H 0.55963 0.50518 0.45087
 H130 H 0.59018 0.47338 0.42145
 H131 H 0.51026 0.45092 0.51137
 H132 H 0.43582 0.46971 0.52440
 H133 H 0.40612 0.43910 0.49152
 H134 H 0.45640 0.45913 0.39698
 H135 H 0.48527 0.49023 0.42983
 H136 H 0.48524 0.50970 0.57061
 H137 H 0.45635 0.54085 0.60344
 H138 H 0.40614 0.56097 0.50886
 H139 H 0.43586 0.53031 0.47601
 H140 H 0.54004 0.41894 0.48126
 C141 C 0.01371 0.50013 0.00003
 C142 C -0.01862 0.50013 0.00000
 C143 C -0.03705 0.48207 0.02056
 C144 C -0.03708 0.51819 -0.02058
 C145 C 0.03220 0.51968 -0.01735
 C146 C 0.03223 0.48059 0.01743
 C147 C -0.05983 0.46770 0.00370
 C148 C -0.07655 0.45007 0.02246
 C149 C -0.07098 0.44662 0.05855
 C150 C -0.04871 0.46149 0.07558
 C151 C -0.03201 0.47913 0.05679
 C152 C -0.03200 0.52113 -0.05680
 C153 C -0.04875 0.53876 -0.07563
 C154 C -0.07109 0.55362 -0.05864
 C155 C -0.07669 0.55017 -0.02256
 C156 C -0.05993 0.53256 -0.00376
 C157 C 0.02731 0.54415 -0.00868
 C158 C 0.04455 0.56236 -0.02564
 C159 C 0.06718 0.55642 -0.05136
 C160 C 0.07244 0.53186 -0.05944
 C161 C 0.05520 0.51367 -0.04249
 C162 C 0.05518 0.48658 0.04261
 C163 C 0.07245 0.46840 0.05959
 C164 C 0.06727 0.44384 0.05150
 C165 C 0.04469 0.43790 0.02573
 C166 C 0.02743 0.45612 0.00875
 H167 H -0.06427 0.46986 -0.02416
 H168 H -0.09395 0.43920 0.00875
 H169 H -0.04376 0.45918 0.10329
 H170 H -0.01491 0.49033 0.07041
 H171 H -0.01484 0.50993 -0.07040
 H172 H -0.04377 0.54106 -0.10334
 H173 H -0.06440 0.53040 0.02409
 H174 H 0.01004 0.54913 0.01110
 H175 H 0.03983 0.58111 -0.01900
 H176 H 0.09009 0.52668 -0.07868
 H177 H 0.05953 0.49488 -0.04929
 H178 H 0.05945 0.50537 0.04942
 H179 H 0.09006 0.47357 0.07886
 H180 H 0.04003 0.41915 0.01907
 H181 H 0.01020 0.45114 -0.01106
 H182 H -0.09415 0.56104 -0.00887
 C183 C 0.51447 1.00039 0.49971
 C184 C 0.48215 1.00043 0.49974
 C185 C 0.46369 0.98241 0.52033
 C186 C 0.46370 1.01851 0.47916
 C187 C 0.53300 1.01989 0.48228
 C188 C 0.53297 0.98083 0.51712
 C189 C 0.44086 0.96806 0.50351
 C190 C 0.42410 0.95048 0.52231
 C191 C 0.42968 0.94704 0.55840
 C192 C 0.45201 0.96188 0.57539
 C193 C 0.46876 0.97947 0.55655
 C194 C 0.46873 1.02143 0.44294
 C195 C 0.45198 1.03905 0.42412
 C196 C 0.42967 1.05394 0.44112
 C197 C 0.42412 1.05052 0.47722
 C198 C 0.44089 1.03290 0.49601
 C199 C 0.52818 1.04438 0.49093
 C200 C 0.54544 1.06256 0.47393
 C201 C 0.56803 1.05656 0.44818
 C202 C 0.57322 1.03199 0.44013
 C203 C 0.55596 1.01384 0.45713
 C204 C 0.55595 0.98681 0.54227
 C205 C 0.57318 0.96861 0.55926
 C206 C 0.56794 0.94405 0.55121
 C207 C 0.54533 0.93813 0.52547
 C208 C 0.52810 0.95636 0.50847
 H209 H 0.43640 0.97022 0.47565
 H210 H 0.40665 0.93964 0.50863
 H211 H 0.45698 0.95958 0.60310
 H212 H 0.48590 0.99066 0.57015
 H213 H 0.48586 1.01021 0.42932
 H214 H 0.45692 1.04134 0.39640
 H215 H 0.43646 1.03076 0.52387
 H216 H 0.51094 1.04940 0.51072
 H217 H 0.54078 1.08132 0.48055
 H218 H 0.59085 1.02678 0.42088
 H219 H 0.56023 0.99504 0.45035
 H220 H 0.56027 1.00560 0.54905
 H221 H 0.59082 0.97377 0.57851
 H222 H 0.54061 0.91938 0.51885
 H223 H 0.51084 0.95139 0.48869
 H224 H 0.40669 1.06140 0.49092
 C225 C 1.17029 0.16363 0.15729
 C226 C 1.19875 0.17253 0.14352
 C227 C 1.21582 0.19025 0.16173
 C228 C 1.20460 0.19927 0.19400
 C229 C 1.17596 0.19018 0.20761
 C230 C 1.15895 0.17248 0.18936
 C231 C 1.15277 0.14534 0.13864
 C232 C 1.13802 0.12994 0.12324
 C233 C 1.12039 0.11146 0.10514
 C234 C 1.10891 0.09137 0.12369
 C235 C 1.09186 0.07332 0.10622
 C236 C 1.08604 0.07513 0.06990
 C237 C 1.09759 0.09544 0.05150
 C238 C 1.11467 0.11347 0.06903
 H239 H 1.20775 0.16579 0.11872
 H240 H 1.23777 0.19686 0.15053
 H241 H 1.16667 0.19674 0.23237
 H242 H 1.13695 0.16568 0.20026
 H243 H 1.11311 0.08968 0.15167
 H244 H 1.08290 0.05809 0.12120
 H245 H 1.09381 0.09720 0.02347
 H246 H 1.12351 0.12892 0.05441
 C247 C 0.66993 0.66373 0.65743
 C248 C 0.69843 0.67256 0.64365
 C249 C 0.71557 0.69025 0.66183
 C250 C 0.70439 0.69933 0.69408
 C251 C 0.67571 0.69031 0.70771
 C252 C 0.65863 0.67263 0.68948
 C253 C 0.65234 0.64546 0.63881
 C254 C 0.63755 0.63009 0.62343
 C255 C 0.61985 0.61162 0.60537
 C256 C 0.60831 0.59158 0.62394
 C257 C 0.59121 0.57354 0.60649
 C258 C 0.58542 0.57533 0.57017
 C259 C 0.59703 0.59560 0.55174
 C260 C 0.61416 0.61361 0.56925
 H261 H 0.70741 0.66577 0.61886
 H262 H 0.73755 0.69681 0.65061
 H263 H 0.66644 0.69692 0.73245
 H264 H 0.63660 0.66590 0.70039
 H265 H 0.61249 0.58990 0.65193
 H266 H 0.58220 0.55834 0.62150
 H267 H 0.59327 0.59734 0.52371
 H268 H 0.62305 0.62904 0.55461
 C269 C -0.16785 0.33751 0.16826
 C270 C -0.19605 0.32825 0.15436
 C271 C -0.21248 0.30996 0.17215
 C272 C -0.20089 0.30068 0.20413
 C273 C -0.17247 0.31009 0.21786
 C274 C -0.15608 0.32839 0.20001
 C275 C -0.15103 0.35635 0.14988
 C276 C -0.13702 0.37209 0.13429
 C277 C -0.12039 0.39080 0.11542
 C278 C -0.10922 0.38634 0.08142
 C279 C -0.09318 0.40449 0.06293
 C280 C -0.08810 0.42739 0.07823
 C281 C -0.09938 0.43168 0.11246
 C282 C -0.11544 0.41350 0.13090
 H283 H -0.20536 0.33518 0.12978
 H284 H -0.23427 0.30314 0.16086
 H285 H -0.16291 0.30336 0.24242
 H286 H -0.13426 0.33542 0.21100
 H287 H -0.11284 0.36881 0.06922
 H288 H -0.08439 0.40050 0.03684
 H289 H -0.09616 0.44920 0.12479
 H290 H -0.12408 0.41717 0.15718
 C291 C 0.33239 0.83823 0.66828
 C292 C 0.34413 0.82909 0.70004
 C293 C 0.32768 0.81083 0.71790
 C294 C 0.29923 0.80148 0.70417
 C295 C 0.28767 0.81078 0.67218
 C296 C 0.30416 0.82903 0.65439
 C297 C 0.34929 0.85702 0.64988
 C298 C 0.36336 0.87272 0.63427
 C299 C 0.38007 0.89137 0.61537
 C300 C 0.38512 0.91407 0.63083
 C301 C 0.40125 0.93221 0.61235
 C302 C 0.41250 0.92786 0.57812
 C303 C 0.40732 0.90496 0.56286
 C304 C 0.39121 0.88686 0.58138
 H305 H 0.36597 0.83608 0.71102
 H306 H 0.33722 0.80408 0.74245
 H307 H 0.26585 0.80399 0.66090
 H308 H 0.29487 0.83596 0.62981
 H309 H 0.37651 0.91778 0.65710
 H310 H 0.40455 0.94972 0.62465
 H311 H 0.41609 0.90093 0.53677
 H312 H 0.38751 0.86933 0.56921
 C313 C -0.16824 0.66264 -0.16858
 C314 C -0.15647 0.67174 -0.20032
 C315 C -0.17286 0.69002 -0.21823
 C316 C -0.20140 0.69952 -0.20462
 C317 C -0.21293 0.69018 -0.17255
 C318 C -0.19646 0.67191 -0.15475
 C319 C -0.15137 0.64382 -0.15015
 C320 C -0.13734 0.62809 -0.13452
 C321 C -0.12066 0.60939 -0.11562
 C322 C -0.10954 0.61387 -0.08161
 C323 C -0.09346 0.59574 -0.06308
 C324 C -0.08827 0.57284 -0.07836
 C325 C -0.09949 0.56852 -0.11260
 C326 C -0.11560 0.58669 -0.13108
 H327 H -0.13461 0.66469 -0.21125
 H328 H -0.16312 0.69665 -0.24276
 H329 H -0.23474 0.69692 -0.16112
 H330 H -0.20577 0.66499 -0.13017
 H331 H -0.11325 0.63140 -0.06942
 H332 H -0.08471 0.59974 -0.03698
 H333 H -0.09618 0.55100 -0.12491
 H334 H -0.12419 0.58301 -0.15736
 C335 C 0.33215 1.16281 0.33128
 C336 C 0.34388 1.17196 0.29956
 C337 C 0.32741 1.19021 0.28168
 C338 C 0.29883 1.19962 0.29530
 C339 C 0.28733 1.19024 0.32736
 C340 C 0.30389 1.17199 0.34513
 C341 C 0.34910 1.14402 0.34969
 C342 C 0.36320 1.12831 0.36529
 C343 C 0.37996 1.10965 0.38418
 C344 C 0.38500 1.08694 0.36874
 C345 C 0.40117 1.06879 0.38720
 C346 C 0.41246 1.07314 0.42141
 C347 C 0.40728 1.09605 0.43666
 C348 C 0.39114 1.11416 0.41815
 H349 H 0.36577 1.16498 0.28862
 H350 H 0.33711 1.19688 0.25715
 H351 H 0.26550 1.19692 0.33880
 H352 H 0.29461 1.16504 0.36971
 H353 H 0.37636 1.08323 0.34249
 H354 H 0.40446 1.05126 0.37491
 H355 H 0.41608 1.10007 0.46273
 H356 H 0.38744 1.13170 0.43031
 C357 C 1.17059 -0.16425 -0.15773
 C358 C 1.15924 -0.17310 -0.18976
 C359 C 1.17626 -0.19081 -0.20806
 C360 C 1.20502 -0.19998 -0.19455
 C361 C 1.21619 -0.19087 -0.16222
 C362 C 1.19908 -0.17315 -0.14401
 C363 C 1.15304 -0.14596 -0.13906
 C364 C 1.13827 -0.13057 -0.12363
 C365 C 1.12060 -0.11209 -0.10550
 C366 C 1.10903 -0.09201 -0.12402
 C367 C 1.09194 -0.07396 -0.10652
 C368 C 1.08619 -0.07577 -0.07019
 C369 C 1.09784 -0.09607 -0.05181
 C370 C 1.11495 -0.11410 -0.06938
 H371 H 1.13721 -0.16631 -0.20062
 H372 H 1.16678 -0.19728 -0.23278
 H373 H 1.23815 -0.19739 -0.15086
 H374 H 1.20808 -0.16640 -0.11923
 H375 H 1.11316 -0.09032 -0.15202
 H376 H 1.08291 -0.05874 -0.12149
 H377 H 1.09412 -0.09783 -0.02378
 H378 H 1.12387 -0.12955 -0.05478
 C379 C 0.66965 0.33572 0.34300
 C380 C 0.69814 0.32682 0.35678
 C381 C 0.71526 0.30910 0.33859
 C382 C 0.70407 0.30005 0.30632
 C383 C 0.67540 0.30914 0.29270
 C384 C 0.65833 0.32685 0.31095
 C385 C 0.65209 0.35403 0.36163
 C386 C 0.63732 0.36944 0.37702
 C387 C 0.61967 0.38795 0.39509
 C388 C 0.60816 0.40803 0.37653
 C389 C 0.59110 0.42611 0.39398
 C390 C 0.58531 0.42434 0.43031
 C391 C 0.59689 0.40403 0.44873
 C392 C 0.61398 0.38597 0.43121
 H393 H 0.70712 0.33357 0.38157
 H394 H 0.73723 0.30248 0.34979
 H395 H 0.66612 0.30257 0.26796
 H396 H 0.63632 0.33364 0.30004
 H397 H 0.61233 0.40970 0.34854
 H398 H 0.58211 0.44134 0.37899
 H399 H 0.59313 0.40230 0.47677
 H400 H 0.62285 0.37052 0.44584
 C401 C 0.83272 -0.16262 -0.16805
 C402 C 0.84446 -0.17173 -0.19979
 C403 C 0.82803 -0.18998 -0.21761
 C404 C 0.79958 -0.19935 -0.20387
 C405 C 0.78801 -0.19008 -0.17190
 C406 C 0.80449 -0.17184 -0.15414
 C407 C 0.84960 -0.14383 -0.14970
 C408 C 0.86365 -0.12813 -0.13413
 C409 C 0.88035 -0.10946 -0.11530
 C410 C 0.88531 -0.08674 -0.13080
 C411 C 0.90142 -0.06860 -0.11239
 C412 C 0.91274 -0.07296 -0.07817
 C413 C 0.90764 -0.09588 -0.06286
 C414 C 0.89156 -0.11399 -0.08132
 H415 H 0.86631 -0.16472 -0.21078
 H416 H 0.83757 -0.19671 -0.24216
 H417 H 0.76620 -0.19689 -0.16061
 H418 H 0.79520 -0.16493 -0.12957
 H419 H 0.87665 -0.08303 -0.15706
 H420 H 0.90465 -0.05107 -0.12472
 H421 H 0.91646 -0.09992 -0.03678
 H422 H 0.88792 -0.13153 -0.06911
 C423 C 0.33233 0.33755 0.33208
 C424 C 0.34412 0.32849 0.30033
 C425 C 0.32776 0.31021 0.28248
 C426 C 0.29936 0.30075 0.29621
 C427 C 0.28775 0.30997 0.32819
 C428 C 0.30415 0.32824 0.34598
 C429 C 0.34913 0.35637 0.35047
 C430 C 0.36311 0.37210 0.36605
 C431 C 0.37973 0.39079 0.38491
 C432 C 0.38471 0.41350 0.36939
 C433 C 0.40076 0.43167 0.38781
 C434 C 0.41201 0.42734 0.42206
 C435 C 0.40690 0.40443 0.43740
 C436 C 0.39087 0.38630 0.41892
 H437 H 0.36593 0.33556 0.28935
 H438 H 0.33733 0.30353 0.25793
 H439 H 0.26597 0.30310 0.33947
 H440 H 0.29482 0.33512 0.37056
 H441 H 0.37610 0.41719 0.34310
 H442 H 0.40401 0.44919 0.37545
 H443 H 0.41567 0.40042 0.46350
 H444 H 0.38723 0.36876 0.43115
 C445 C 0.16962 0.66435 -0.15705
 C446 C 0.19810 0.67317 -0.14326
 C447 C 0.21523 0.69089 -0.16145
 C448 C 0.20405 0.70002 -0.19371
 C449 C 0.17538 0.69101 -0.20733
 C450 C 0.15831 0.67330 -0.18910
 C451 C 0.15204 0.64604 -0.13844
 C452 C 0.13726 0.63062 -0.12307
 C453 C 0.11959 0.61211 -0.10502
 C454 C 0.10811 0.59207 -0.12360
 C455 C 0.09103 0.57399 -0.10617
 C456 C 0.08518 0.57572 -0.06985
 C457 C 0.09673 0.59598 -0.05142
 C458 C 0.11384 0.61405 -0.06891
 H459 H 0.20708 0.66635 -0.11848
 H460 H 0.23720 0.69744 -0.15023
 H461 H 0.16611 0.69765 -0.23208
 H462 H 0.13629 0.66657 -0.20002
 H463 H 0.11233 0.59044 -0.15158
 H464 H 0.08207 0.55880 -0.12117
 H465 H 0.09293 0.59769 -0.02339
 H466 H 0.12268 0.62946 -0.05427
 C467 C 0.67055 1.16432 0.34221
 C468 C 0.65921 1.17325 0.31019
 C469 C 0.67624 1.19096 0.29190
 C470 C 0.70500 1.20006 0.30542
 C471 C 0.71616 1.19086 0.33775
 C472 C 0.69904 1.17314 0.35594
 C473 C 0.65299 1.14603 0.36087
 C474 C 0.63820 1.13063 0.37628
 C475 C 0.62052 1.11215 0.39438
 C476 C 0.61481 1.11411 0.43049
 C477 C 0.59767 1.09609 0.44804
 C478 C 0.58607 1.07583 0.42964
 C479 C 0.59188 1.07407 0.39332
 C480 C 0.60898 1.09211 0.37585
 H481 H 0.63718 1.16652 0.29932
 H482 H 0.66677 1.19750 0.26718
 H483 H 0.73813 1.19731 0.34911
 H484 H 0.70804 1.16632 0.38072
 H485 H 0.62370 1.12953 0.44510
 H486 H 0.59391 1.09781 0.47606
 H487 H 0.58287 1.05887 0.37835
 H488 H 0.61317 1.09046 0.34786
 C489 C 0.16984 0.33588 0.15733
 C490 C 0.15853 0.32694 0.18938
 C491 C 0.17563 0.30922 0.20763
 C492 C 0.20432 0.30019 0.19401
 C493 C 0.21550 0.30930 0.16175
 C494 C 0.19834 0.32703 0.14355
 C495 C 0.15224 0.35420 0.13870
 C496 C 0.13744 0.36961 0.12331
 C497 C 0.11974 0.38813 0.10523
 C498 C 0.11405 0.38620 0.06912
 C499 C 0.09692 0.40427 0.05159
 C500 C 0.08529 0.42453 0.07002
 C501 C 0.09108 0.42625 0.10634
 C502 C 0.10819 0.40817 0.12380
 H503 H 0.13650 0.33369 0.20029
 H504 H 0.16637 0.30260 0.23237
 H505 H 0.23748 0.30273 0.15054
 H506 H 0.20731 0.33384 0.11876
 H507 H 0.12295 0.37078 0.05449
 H508 H 0.09316 0.40257 0.02356
 H509 H 0.08206 0.44145 0.12133
 H510 H 0.11236 0.40980 0.15178
 C511 C 0.67019 0.83598 0.65719
 C512 C 0.65885 0.82710 0.68926
 C513 C 0.67588 0.80935 0.70753
 C514 C 0.70453 0.80025 0.69393
 C515 C 0.71574 0.80930 0.66165
 C516 C 0.69866 0.82706 0.64343
 C517 C 0.65266 0.85432 0.63853
 C518 C 0.63791 0.86976 0.62312
 C519 C 0.62027 0.88830 0.60501
 C520 C 0.60879 0.90837 0.62354
 C521 C 0.59173 0.92647 0.60607
 C522 C 0.58592 0.92473 0.56975
 C523 C 0.59748 0.90443 0.55136
 C524 C 0.61456 0.88635 0.56890
 H525 H 0.63685 0.83391 0.70016
 H526 H 0.66659 0.80277 0.73229
 H527 H 0.73770 0.80267 0.65046
 H528 H 0.70766 0.83383 0.61862
 H529 H 0.61297 0.91002 0.65153
 H530 H 0.58276 0.94169 0.62104
 H531 H 0.59370 0.90272 0.52333
 H532 H 0.62341 0.87090 0.55429
 C533 C 0.83239 0.16186 0.16828
 C534 C 0.84412 0.17093 0.20004
 C535 C 0.82767 0.18918 0.21789
 C536 C 0.79923 0.19861 0.20416
 C537 C 0.78767 0.18939 0.17217
 C538 C 0.80416 0.17114 0.15438
 C539 C 0.84929 0.14307 0.14988
 C540 C 0.86337 0.12737 0.13429
 C541 C 0.88010 0.10872 0.11541
 C542 C 0.88517 0.08600 0.13090
 C543 C 0.90133 0.06787 0.11246
 C544 C 0.91257 0.07224 0.07822
 C545 C 0.90736 0.09516 0.06292
 C546 C 0.89123 0.11325 0.08141
 H547 H 0.86597 0.16388 0.21102
 H548 H 0.83721 0.19587 0.24245
 H549 H 0.76586 0.19624 0.16088
 H550 H 0.79488 0.16426 0.12979
 H551 H 0.87657 0.08228 0.15718
 H552 H 0.90464 0.05034 0.12478
 H553 H 0.91612 0.09920 0.03683
 H554 H 0.88751 0.13080 0.06921
 C555 C 0.33215 0.66258 0.66826
 C556 C 0.30395 0.67192 0.65435
 C557 C 0.28752 0.69020 0.67214
 C558 C 0.29911 0.69941 0.70413
 C559 C 0.32753 0.68993 0.71786
 C560 C 0.34391 0.67163 0.70001
 C561 C 0.34898 0.64375 0.64988
 C562 C 0.36299 0.62801 0.63431
 C563 C 0.37964 0.60930 0.61546
 C564 C 0.38461 0.58658 0.63098
 C565 C 0.40069 0.56839 0.61257
 C566 C 0.41197 0.57271 0.57833
 C567 C 0.40686 0.59563 0.56300
 C568 C 0.39080 0.61378 0.58146
 H569 H 0.29465 0.66505 0.62977
 H570 H 0.26573 0.69709 0.66085
 H571 H 0.33708 0.69660 0.74242
 H572 H 0.36573 0.66454 0.71100
 H573 H 0.37598 0.58289 0.65726
 H574 H 0.40394 0.55086 0.62492
 H575 H 0.41565 0.59964 0.53690
 H576 H 0.38716 0.63132 0.56923
   
