data_POSCAR
  _audit_creation_date              2014-09-24
  _audit_creation_method            'ToBaCCo'
  _symmetry_space_group_name_H-M    'P1'
  _symmetry_Int_Tables_number       1
  _symmetry_cell_setting            triclinic
  loop_
  _symmetry_equiv_pos_as_xyz
 x,y,z
_cell_length_a 31.0560
_cell_length_b 31.0563
_cell_length_c 31.0558
_cell_angle_alpha 90.000200
_cell_angle_beta 90.000000
_cell_angle_gamma 90.000000
loop_
  _atom_site_label
  _atom_site_type_symbol
  _atom_site_fract_x
  _atom_site_fract_y
  _atom_site_fract_z
N1 N 0.35889 0.35889 0.35889
 N2 N 0.35888 0.85888 -0.14112
 N3 N 0.85889 0.35889 -0.14111
 N4 N 0.85889 0.85889 0.35888
 N5 N 0.64111 0.64112 0.35889
 N6 N 0.64111 0.14111 -0.14111
 N7 N 0.14111 0.64111 -0.14112
 N8 N 0.14111 0.14111 0.35888
 N9 N 0.64111 0.35889 0.64112
 N10 N 0.64111 0.85889 1.14111
 N11 N 0.14111 0.35888 1.14111
 N12 N 0.14111 0.85888 0.64111
 N13 N 0.35889 0.64111 0.64111
 N14 N 0.35889 0.14112 1.14112
 N15 N 0.85888 0.64112 1.14112
 N16 N 0.85888 0.14112 0.64112
 N17 N 0.35889 0.35888 0.64112
 N18 N 0.35889 0.85889 0.14111
 N19 N 0.85889 0.35889 0.14112
 N20 N 0.85889 0.85889 0.64112
 N21 N 0.64112 0.64111 0.64111
 N22 N 0.64112 0.14112 0.14112
 N23 N 0.14111 0.64111 0.14111
 N24 N 0.14111 0.14111 0.64111
 N25 N 0.35889 0.64112 0.35888
 N26 N 0.35889 0.14111 0.85889
 N27 N 0.85889 0.64111 0.85889
 N28 N 0.85889 0.14112 0.35889
 N29 N 0.64111 0.35889 0.35889
 N30 N 0.64111 0.85889 0.85888
 N31 N 0.14112 0.35889 0.85889
 N32 N 0.14112 0.85889 0.35888
 O33 O 0.30490 0.95816 0.24546
 O34 O 0.24546 1.04183 0.30489
 O35 O 0.24546 0.95816 0.30489
 O36 O 0.30490 1.04183 0.24546
 O37 O 0.25454 1.04183 0.19510
 O38 O 0.19511 0.95816 0.25454
 O39 O 0.19511 1.04183 0.25454
 O40 O 0.25454 0.95816 0.19510
 Cu41 Cu 0.28026 1.00000 0.28026
 Cu42 Cu 0.21974 1.00000 0.21974
 C43 C 0.28989 0.94424 0.21011
 C44 C 0.21011 1.05575 0.28989
 C45 C 0.21011 0.94424 0.28989
 C46 C 0.28989 1.05575 0.21011
 O47 O 0.25454 0.54183 0.69510
 O48 O 0.19511 0.45816 0.75454
 O49 O 0.19511 0.54183 0.75454
 O50 O 0.25454 0.45816 0.69510
 O51 O 0.30490 0.45816 0.74546
 O52 O 0.24546 0.54183 0.80489
 O53 O 0.24546 0.45817 0.80490
 O54 O 0.30490 0.54183 0.74546
 Cu55 Cu 0.21974 0.50000 0.71974
 Cu56 Cu 0.28026 0.50000 0.78026
 C57 C 0.28989 0.55575 0.71011
 C58 C 0.21011 0.44424 0.78989
 C59 C 0.21011 0.55575 0.78988
 C60 C 0.28989 0.44424 0.71011
 O61 O 0.75454 -0.04183 0.30490
 O62 O 0.69511 0.04184 0.24546
 O63 O 0.69511 -0.04183 0.24546
 O64 O 0.75454 0.04184 0.30490
 O65 O 0.80490 0.04184 0.25454
 O66 O 0.74546 -0.04183 0.19510
 O67 O 0.74546 0.04184 0.19511
 O68 O 0.80490 -0.04183 0.25454
 Cu69 Cu 0.71974 0.00000 0.28026
 Cu70 Cu 0.78026 0.00000 0.21974
 C71 C 0.78989 -0.05575 0.28989
 C72 C 0.71011 0.05576 0.21012
 C73 C 0.71011 -0.05575 0.21011
 C74 C 0.78989 0.05576 0.28989
 O75 O 0.80490 0.54183 0.75454
 O76 O 0.74546 0.45816 0.69511
 O77 O 0.74546 0.54183 0.69510
 O78 O 0.80490 0.45816 0.75454
 O79 O 0.75454 0.45816 0.80490
 O80 O 0.69511 0.54183 0.74546
 O81 O 0.69510 0.45817 0.74546
 O82 O 0.75454 0.54183 0.80490
 Cu83 Cu 0.78026 0.50000 0.71974
 Cu84 Cu 0.71974 0.50000 0.78026
 C85 C 0.78989 0.55575 0.78989
 C86 C 0.71011 0.44425 0.71011
 C87 C 0.71012 0.55575 0.71011
 C88 C 0.78989 0.44424 0.78989
 O89 O 0.19510 0.54183 0.24546
 O90 O 0.25454 0.45817 0.30490
 O91 O 0.25454 0.54184 0.30489
 O92 O 0.19510 0.45816 0.24546
 O93 O 0.24546 0.45816 0.19510
 O94 O 0.30490 0.54183 0.25454
 O95 O 0.30490 0.45816 0.25454
 O96 O 0.24546 0.54183 0.19510
 Cu97 Cu 0.21974 0.50000 0.28026
 Cu98 Cu 0.28026 0.50000 0.21974
 C99 C 0.21011 0.55575 0.21011
 C100 C 0.28989 0.44425 0.28989
 C101 C 0.28989 0.55576 0.28988
 C102 C 0.21011 0.44424 0.21011
 O103 O 0.74546 1.04183 0.80490
 O104 O 0.80489 0.95817 0.74546
 O105 O 0.80489 1.04184 0.74546
 O106 O 0.74546 0.95816 0.80490
 O107 O 0.69510 0.95817 0.75454
 O108 O 0.75454 1.04184 0.69511
 O109 O 0.75454 0.95817 0.69511
 O110 O 0.69510 1.04183 0.75454
 Cu111 Cu 0.78026 1.00000 0.78026
 Cu112 Cu 0.71974 1.00000 0.71974
 C113 C 0.71011 1.05575 0.78989
 C114 C 0.78989 0.94425 0.71011
 C115 C 0.78988 1.05576 0.71012
 C116 C 0.71011 0.94424 0.78989
 O117 O 0.80489 0.45817 0.24546
 O118 O 0.74546 0.54184 0.30490
 O119 O 0.74546 0.45817 0.30490
 O120 O 0.80489 0.54184 0.24546
 O121 O 0.75454 0.54184 0.19511
 O122 O 0.69510 0.45817 0.25454
 O123 O 0.69510 0.54184 0.25454
 O124 O 0.75454 0.45817 0.19511
 Cu125 Cu 0.78026 0.50000 0.28026
 Cu126 Cu 0.71974 0.50000 0.21974
 C127 C 0.78989 0.44425 0.21012
 C128 C 0.71011 0.55576 0.28989
 C129 C 0.71011 0.44425 0.28989
 C130 C 0.78988 0.55576 0.21012
 O131 O 0.25454 -0.04184 0.80489
 O132 O 0.19510 0.04183 0.74546
 O133 O 0.19510 -0.04184 0.74546
 O134 O 0.25454 0.04183 0.80489
 O135 O 0.30490 0.04183 0.75454
 O136 O 0.24546 -0.04184 0.69510
 O137 O 0.24546 0.04183 0.69510
 O138 O 0.30489 -0.04184 0.75454
 Cu139 Cu 0.21974 -0.00000 0.78026
 Cu140 Cu 0.28026 -0.00000 0.71974
 C141 C 0.28989 -0.05576 0.78988
 C142 C 0.21011 0.05575 0.71011
 C143 C 0.21011 -0.05576 0.71011
 C144 C 0.28989 0.05575 0.78989
 O145 O 0.24546 0.30489 0.95816
 O146 O 0.30490 0.24546 1.04183
 O147 O 0.30490 0.24546 0.95816
 O148 O 0.24546 0.30489 1.04183
 O149 O 0.19511 0.25454 1.04183
 O150 O 0.25454 0.19510 0.95816
 O151 O 0.25454 0.19510 1.04183
 O152 O 0.19511 0.25454 0.95816
 Cu153 Cu 0.28026 0.28026 1.00000
 Cu154 Cu 0.21974 0.21974 1.00000
 C155 C 0.21012 0.28989 0.94424
 C156 C 0.28989 0.21011 1.05576
 C157 C 0.28989 0.21011 0.94424
 C158 C 0.21011 0.28989 1.05575
 O159 O 0.24546 0.80490 0.45816
 O160 O 0.30490 0.74546 0.54183
 O161 O 0.30490 0.74546 0.45816
 O162 O 0.24546 0.80489 0.54183
 O163 O 0.19511 0.75454 0.54183
 O164 O 0.25454 0.69510 0.45816
 O165 O 0.25454 0.69510 0.54183
 O166 O 0.19511 0.75454 0.45816
 Cu167 Cu 0.28026 0.78026 0.50000
 Cu168 Cu 0.21974 0.71974 0.50000
 C169 C 0.21011 0.78989 0.44424
 C170 C 0.28989 0.71011 0.55575
 C171 C 0.28989 0.71011 0.44424
 C172 C 0.21012 0.78988 0.55575
 O173 O 0.25454 0.80489 0.04183
 O174 O 0.19510 0.74546 -0.04184
 O175 O 0.19510 0.74546 0.04183
 O176 O 0.25454 0.80489 -0.04184
 O177 O 0.30489 0.75454 -0.04184
 O178 O 0.24546 0.69510 0.04183
 O179 O 0.24546 0.69510 -0.04184
 O180 O 0.30489 0.75454 0.04183
 Cu181 Cu 0.21974 0.78026 -0.00000
 Cu182 Cu 0.28026 0.71974 -0.00000
 C183 C 0.28989 0.78988 0.05575
 C184 C 0.21011 0.71011 -0.05576
 C185 C 0.21011 0.71011 0.05575
 C186 C 0.28989 0.78988 -0.05576
 O187 O 0.19510 0.24546 0.45816
 O188 O 0.25454 0.30489 0.54184
 O189 O 0.25454 0.30490 0.45817
 O190 O 0.19510 0.24546 0.54183
 O191 O 0.24546 0.19510 0.54183
 O192 O 0.30489 0.25454 0.45817
 O193 O 0.30490 0.25454 0.54183
 O194 O 0.24546 0.19510 0.45816
 Cu195 Cu 0.21974 0.28026 0.50000
 Cu196 Cu 0.28026 0.21974 0.50000
 C197 C 0.21011 0.21011 0.44424
 C198 C 0.28989 0.28988 0.55576
 C199 C 0.28989 0.28989 0.44425
 C200 C 0.21011 0.21011 0.55575
 O201 O 0.74546 0.80490 0.95816
 O202 O 0.80489 0.74546 1.04183
 O203 O 0.80489 0.74546 0.95816
 O204 O 0.74546 0.80490 1.04183
 O205 O 0.69510 0.75454 1.04183
 O206 O 0.75454 0.69511 0.95817
 O207 O 0.75454 0.69511 1.04184
 O208 O 0.69510 0.75454 0.95816
 Cu209 Cu 0.78026 0.78026 1.00000
 Cu210 Cu 0.71974 0.71974 1.00000
 C211 C 0.71011 0.78989 0.94424
 C212 C 0.78988 0.71012 1.05576
 C213 C 0.78989 0.71011 0.94424
 C214 C 0.71011 0.78989 1.05575
 O215 O 0.74546 0.30490 0.45817
 O216 O 0.80489 0.24546 0.54184
 O217 O 0.80489 0.24546 0.45817
 O218 O 0.74546 0.30490 0.54184
 O219 O 0.69510 0.25454 0.54184
 O220 O 0.75454 0.19511 0.45817
 O221 O 0.75454 0.19511 0.54184
 O222 O 0.69510 0.25454 0.45817
 Cu223 Cu 0.78026 0.28026 0.50000
 Cu224 Cu 0.71974 0.21974 0.50000
 C225 C 0.71011 0.28989 0.44425
 C226 C 0.78988 0.21012 0.55576
 C227 C 0.78989 0.21012 0.44425
 C228 C 0.71011 0.28989 0.55576
 O229 O 0.80490 0.25454 -0.04183
 O230 O 0.74546 0.19511 0.04184
 O231 O 0.74546 0.19511 -0.04183
 O232 O 0.80490 0.25454 0.04184
 O233 O 0.75454 0.30490 0.04184
 O234 O 0.69510 0.24546 -0.04183
 O235 O 0.69511 0.24546 0.04184
 O236 O 0.75454 0.30490 -0.04183
 Cu237 Cu 0.78026 0.21974 0.00000
 Cu238 Cu 0.71974 0.28026 0.00000
 C239 C 0.78989 0.28989 -0.05575
 C240 C 0.71011 0.21012 0.05576
 C241 C 0.71011 0.21011 -0.05575
 C242 C 0.78989 0.28989 0.05576
 O243 O 0.69510 0.74546 0.45817
 O244 O 0.75454 0.80490 0.54183
 O245 O 0.75454 0.80490 0.45816
 O246 O 0.69511 0.74546 0.54184
 O247 O 0.74546 0.69511 0.54183
 O248 O 0.80490 0.75454 0.45816
 O249 O 0.80490 0.75454 0.54183
 O250 O 0.74546 0.69511 0.45817
 Cu251 Cu 0.71974 0.78026 0.50000
 Cu252 Cu 0.78026 0.71974 0.50000
 C253 C 0.71011 0.71011 0.44425
 C254 C 0.78989 0.78989 0.55575
 C255 C 0.78989 0.78989 0.44424
 C256 C 0.71012 0.71011 0.55576
 O257 O 1.04183 0.30490 0.24546
 O258 O 0.95817 0.24546 0.30490
 O259 O 1.04183 0.24546 0.30490
 O260 O 0.95817 0.30490 0.24546
 O261 O 0.95816 0.25454 0.19511
 O262 O 1.04183 0.19510 0.25454
 O263 O 0.95816 0.19511 0.25454
 O264 O 1.04183 0.25454 0.19510
 Cu265 Cu 1.00000 0.28026 0.28026
 Cu266 Cu 1.00000 0.21974 0.21974
 C267 C 1.05575 0.28989 0.21011
 C268 C 0.94424 0.21011 0.28989
 C269 C 1.05575 0.21011 0.28989
 C270 C 0.94424 0.28989 0.21012
 O271 O 0.45817 0.24545 0.80490
 O272 O 0.54183 0.30489 0.74546
 O273 O 0.45817 0.30489 0.74546
 O274 O 0.54184 0.24546 0.80490
 O275 O 0.54184 0.19510 0.75454
 O276 O 0.45817 0.25454 0.69511
 O277 O 0.54184 0.25454 0.69511
 O278 O 0.45817 0.19510 0.75454
 Cu279 Cu 0.50000 0.28026 0.78026
 Cu280 Cu 0.50000 0.21974 0.71974
 C281 C 0.44425 0.21011 0.78989
 C282 C 0.55576 0.28989 0.71012
 C283 C 0.44425 0.28988 0.71012
 C284 C 0.55576 0.21011 0.78989
 O285 O 0.04184 0.25454 0.80490
 O286 O -0.04183 0.19511 0.74546
 O287 O 0.04184 0.19510 0.74546
 O288 O -0.04183 0.25454 0.80490
 O289 O -0.04183 0.30490 0.75454
 O290 O 0.04183 0.24546 0.69510
 O291 O -0.04183 0.24546 0.69511
 O292 O 0.04184 0.30490 0.75454
 Cu293 Cu 0.00000 0.21974 0.78026
 Cu294 Cu 0.00000 0.28026 0.71974
 C295 C 0.05576 0.28989 0.78989
 C296 C -0.05576 0.21011 0.71012
 C297 C 0.05576 0.21011 0.71011
 C298 C -0.05575 0.28989 0.78989
 O299 O 0.54183 0.25455 0.30490
 O300 O 0.45817 0.19511 0.24546
 O301 O 0.54184 0.19511 0.24547
 O302 O 0.45816 0.25454 0.30490
 O303 O 0.45816 0.30490 0.25454
 O304 O 0.54183 0.24546 0.19511
 O305 O 0.45817 0.24546 0.19511
 O306 O 0.54183 0.30490 0.25454
 Cu307 Cu 0.50000 0.21975 0.28026
 Cu308 Cu 0.50000 0.28026 0.21974
 C309 C 0.55575 0.28989 0.28989
 C310 C 0.44425 0.21012 0.21012
 C311 C 0.55576 0.21012 0.21012
 C312 C 0.44424 0.28989 0.28989
 O313 O 1.04183 0.80489 0.74546
 O314 O 0.95816 0.74546 0.80490
 O315 O 1.04183 0.74546 0.80489
 O316 O 0.95816 0.80490 0.74546
 O317 O 0.95816 0.75454 0.69510
 O318 O 1.04183 0.69510 0.75454
 O319 O 0.95816 0.69510 0.75454
 O320 O 1.04183 0.75454 0.69510
 Cu321 Cu 1.00000 0.78026 0.78026
 Cu322 Cu 1.00000 0.71974 0.71974
 C323 C 1.05575 0.78989 0.71011
 C324 C 0.94424 0.71011 0.78989
 C325 C 1.05575 0.71011 0.78988
 C326 C 0.94424 0.78989 0.71011
 O327 O 0.45817 0.75454 0.19510
 O328 O 0.54184 0.69511 0.25454
 O329 O 0.45817 0.69511 0.25453
 O330 O 0.54184 0.75454 0.19510
 O331 O 0.54184 0.80490 0.24546
 O332 O 0.45817 0.74546 0.30489
 O333 O 0.54183 0.74546 0.30490
 O334 O 0.45817 0.80490 0.24546
 Cu335 Cu 0.50000 0.71974 0.21974
 Cu336 Cu 0.50000 0.78026 0.28026
 C337 C 0.44425 0.78989 0.21011
 C338 C 0.55576 0.71012 0.28989
 C339 C 0.44425 0.71011 0.28988
 C340 C 0.55576 0.78989 0.21011
 O341 O -0.04183 0.80490 0.25454
 O342 O 0.04184 0.74546 0.19510
 O343 O -0.04183 0.74546 0.19510
 O344 O 0.04184 0.80489 0.25454
 O345 O 0.04184 0.75454 0.30489
 O346 O -0.04183 0.69511 0.24546
 O347 O 0.04183 0.69510 0.24546
 O348 O -0.04183 0.75454 0.30490
 Cu349 Cu 0.00000 0.78026 0.21974
 Cu350 Cu 0.00000 0.71974 0.28026
 C351 C -0.05575 0.78989 0.28989
 C352 C 0.05576 0.71011 0.21011
 C353 C -0.05576 0.71011 0.21011
 C354 C 0.05576 0.78989 0.28989
 O355 O 0.54183 0.75454 0.80489
 O356 O 0.45817 0.69510 0.74546
 O357 O 0.54184 0.69510 0.74546
 O358 O 0.45816 0.75454 0.80489
 O359 O 0.45816 0.80489 0.75454
 O360 O 0.54184 0.74546 0.69510
 O361 O 0.45817 0.74545 0.69510
 O362 O 0.54183 0.80489 0.75454
 Cu363 Cu 0.50000 0.71974 0.78026
 Cu364 Cu 0.50000 0.78026 0.71974
 C365 C 0.55575 0.78989 0.78988
 C366 C 0.44425 0.71011 0.71011
 C367 C 0.55576 0.71011 0.71011
 C368 C 0.44424 0.78988 0.78988
 C369 C 0.38745 0.33461 0.33461
 C370 C 0.41293 0.31389 0.31389
 C371 C 0.38745 0.83461 0.83461
 C372 C 0.41293 0.81388 0.81388
 C373 C -0.11255 0.33461 0.83461
 C374 C -0.08706 0.31389 0.81389
 C375 C -0.11255 0.83461 0.33461
 C376 C -0.08706 0.81389 0.31388
 C377 C 0.61255 0.66539 0.33461
 C378 C 0.58707 0.68612 0.31389
 C379 C 0.61255 0.16539 0.83462
 C380 C 0.58707 0.18611 0.81389
 C381 C 1.11255 0.66539 0.83461
 C382 C 1.08707 0.68611 0.81388
 C383 C 1.11255 0.16539 0.33461
 C384 C 1.08707 0.18611 0.31388
 C385 C 0.61255 0.33461 0.66539
 C386 C 0.58707 0.31389 0.68612
 C387 C 0.61255 0.83462 0.16539
 C388 C 0.58707 0.81389 0.18611
 C389 C 1.11255 0.33461 0.16539
 C390 C 1.08707 0.31388 0.18611
 C391 C 1.11255 0.83461 0.66539
 C392 C 1.08707 0.81388 0.68611
 C393 C 0.38745 0.66538 0.66538
 C394 C 0.41294 0.68611 0.68611
 C395 C 0.38745 0.16539 0.16539
 C396 C 0.41293 0.18612 0.18612
 C397 C -0.11255 0.66539 0.16539
 C398 C -0.08707 0.68612 0.18612
 C399 C -0.11255 0.16539 0.66539
 C400 C -0.08707 0.18612 0.68612
 C401 C 0.33461 0.38745 0.33461
 C402 C 0.31389 0.41294 0.31389
 C403 C 0.33461 -0.11255 0.83461
 C404 C 0.31388 -0.08707 0.81388
 C405 C 0.83461 0.38745 0.83461
 C406 C 0.81389 0.41293 0.81389
 C407 C 0.83461 -0.11255 0.33461
 C408 C 0.81389 -0.08707 0.31388
 C409 C 0.33461 0.61254 0.66538
 C410 C 0.31389 0.58706 0.68611
 C411 C 0.33461 1.11255 0.16539
 C412 C 0.31389 1.08707 0.18612
 C413 C 0.83461 0.61255 0.16539
 C414 C 0.81388 0.58707 0.18612
 C415 C 0.83461 1.11255 0.66539
 C416 C 0.81388 1.08707 0.68612
 C417 C 0.66538 0.61255 0.33461
 C418 C 0.68611 0.58707 0.31389
 C419 C 0.66539 1.11255 0.83462
 C420 C 0.68611 1.08706 0.81389
 C421 C 0.16539 0.61255 0.83461
 C422 C 0.18612 0.58707 0.81388
 C423 C 0.16539 1.11255 0.33461
 C424 C 0.18611 1.08706 0.31388
 C425 C 0.66539 0.38745 0.66539
 C426 C 0.68611 0.41294 0.68612
 C427 C 0.66539 -0.11254 0.16539
 C428 C 0.68612 -0.08706 0.18611
 C429 C 0.16539 0.38745 0.16539
 C430 C 0.18611 0.41293 0.18611
 C431 C 0.16539 -0.11255 0.66539
 C432 C 0.18611 -0.08707 0.68611
 C433 C 0.33461 0.33461 0.38745
 C434 C 0.31388 0.31389 0.41294
 C435 C 0.33461 0.83461 -0.11255
 C436 C 0.31388 0.81388 -0.08707
 C437 C 0.83461 0.33461 -0.11255
 C438 C 0.81389 0.31389 -0.08706
 C439 C 0.83461 0.83461 0.38745
 C440 C 0.81389 0.81389 0.41293
 C441 C 0.66539 0.33461 0.61255
 C442 C 0.68611 0.31389 0.58707
 C443 C 0.66539 0.83462 1.11255
 C444 C 0.68611 0.81389 1.08706
 C445 C 0.16539 0.33461 1.11255
 C446 C 0.18612 0.31388 1.08707
 C447 C 0.16539 0.83461 0.61255
 C448 C 0.18612 0.81388 0.58707
 C449 C 0.33461 0.66538 0.61254
 C450 C 0.31389 0.68611 0.58706
 C451 C 0.33461 0.16539 1.11255
 C452 C 0.31389 0.18612 1.08707
 C453 C 0.83461 0.66539 1.11255
 C454 C 0.81388 0.68612 1.08707
 C455 C 0.83461 0.16539 0.61255
 C456 C 0.81388 0.18612 0.58707
 C457 C 0.66539 0.66539 0.38745
 C458 C 0.68611 0.68612 0.41294
 C459 C 0.66539 0.16539 -0.11254
 C460 C 0.68612 0.18611 -0.08706
 C461 C 0.16539 0.66539 -0.11255
 C462 C 0.18611 0.68611 -0.08707
 C463 C 0.16539 0.16539 0.38745
 C464 C 0.18611 0.18611 0.41293
 C465 C 0.33461 0.38745 0.66539
 C466 C 0.31389 0.41293 0.68612
 C467 C 0.33461 0.88745 0.16539
 C468 C 0.31389 0.91293 0.18611
 C469 C 0.83461 0.38746 0.16539
 C470 C 0.81389 0.41294 0.18612
 C471 C 0.83461 0.88745 0.66539
 C472 C 0.81388 0.91294 0.68612
 C473 C 0.66539 0.61255 0.66539
 C474 C 0.68612 0.58707 0.68611
 C475 C 0.66539 0.11255 0.16539
 C476 C 0.68612 0.08707 0.18612
 C477 C 0.16539 0.61254 0.16539
 C478 C 0.18611 0.58706 0.18611
 C479 C 0.16539 0.11255 0.66539
 C480 C 0.18611 0.08706 0.68611
 C481 C 0.33461 0.61255 0.33460
 C482 C 0.31389 0.58707 0.31388
 C483 C 0.33461 0.11255 0.83461
 C484 C 0.31389 0.08706 0.81388
 C485 C 0.83461 0.61255 0.83461
 C486 C 0.81389 0.58706 0.81389
 C487 C 0.83461 0.11255 0.33461
 C488 C 0.81389 0.08707 0.31389
 C489 C 0.66539 0.38746 0.33462
 C490 C 0.68611 0.41294 0.31389
 C491 C 0.66539 0.88745 0.83461
 C492 C 0.68611 0.91293 0.81389
 C493 C 0.16539 0.38745 0.83461
 C494 C 0.18612 0.41293 0.81389
 C495 C 0.16539 0.88745 0.33461
 C496 C 0.18612 0.91293 0.31388
 C497 C 0.38745 0.33460 0.66539
 C498 C 0.41293 0.31388 0.68612
 C499 C 0.38745 0.83461 0.16538
 C500 C 0.41294 0.81389 0.18611
 C501 C 0.88745 0.33462 0.16539
 C502 C 0.91293 0.31389 0.18612
 C503 C 0.88745 0.83461 0.66539
 C504 C 0.91293 0.81389 0.68612
 C505 C 0.61255 0.33462 0.33461
 C506 C 0.58706 0.31389 0.31389
 C507 C 0.61254 0.83461 0.83461
 C508 C 0.58706 0.81389 0.81388
 C509 C 0.11255 0.33461 0.83461
 C510 C 0.08707 0.31389 0.81389
 C511 C 0.11255 0.83461 0.33461
 C512 C 0.08707 0.81388 0.31388
 C513 C 0.61255 0.66539 0.66539
 C514 C 0.58707 0.68611 0.68611
 C515 C 0.61255 0.16539 0.16539
 C516 C 0.58707 0.18612 0.18612
 C517 C 0.11255 0.66539 0.16539
 C518 C 0.08707 0.68611 0.18611
 C519 C 0.11255 0.16539 0.66539
 C520 C 0.08707 0.18611 0.68611
 C521 C 0.38745 0.66539 0.33460
 C522 C 0.41293 0.68612 0.31388
 C523 C 0.38745 0.16538 0.83461
 C524 C 0.41294 0.18611 0.81389
 C525 C 0.88745 0.66539 0.83461
 C526 C 0.91293 0.68611 0.81389
 C527 C 0.88745 0.16539 0.33461
 C528 C 0.91293 0.18612 0.31389
 C529 C 0.33461 0.33460 0.61255
 C530 C 0.31388 0.31388 0.58707
 C531 C 0.33461 0.83461 0.11255
 C532 C 0.31389 0.81388 0.08706
 C533 C 0.83461 0.33462 0.11255
 C534 C 0.81389 0.31389 0.08707
 C535 C 0.83461 0.83461 0.61255
 C536 C 0.81389 0.81389 0.58707
 C537 C 0.33461 0.66539 0.38744
 C538 C 0.31389 0.68612 0.41293
 C539 C 0.33461 0.16539 0.88745
 C540 C 0.31389 0.18611 0.91293
 C541 C 0.83461 0.66539 0.88745
 C542 C 0.81388 0.68611 0.91293
 C543 C 0.83461 0.16539 0.38745
 C544 C 0.81388 0.18612 0.41294
 C545 C 0.66539 0.33462 0.38746
 C546 C 0.68611 0.31389 0.41294
 C547 C 0.66539 0.83461 0.88745
 C548 C 0.68611 0.81389 0.91293
 C549 C 0.16539 0.33461 0.88745
 C550 C 0.18612 0.31389 0.91293
 C551 C 0.16539 0.83461 0.38745
 C552 C 0.18612 0.81389 0.41293
 C553 C 0.66539 0.66539 0.61255
 C554 C 0.68612 0.68611 0.58707
 C555 C 0.66539 0.16539 0.11255
 C556 C 0.68612 0.18612 0.08707
 C557 C 0.16539 0.66539 0.11255
 C558 C 0.18611 0.68611 0.08706
 C559 C 0.16539 0.16539 0.61255
 C560 C 0.18611 0.18611 0.58706
   
