data_POSCAR
  _audit_creation_date              2014-09-24
  _audit_creation_method            'ToBaCCo'
  _symmetry_space_group_name_H-M    'P1'
  _symmetry_Int_Tables_number       1
  _symmetry_cell_setting            triclinic
  loop_
  _symmetry_equiv_pos_as_xyz
 x,y,z
_cell_length_a 28.5702
_cell_length_b 28.5313
_cell_length_c 28.5889
_cell_angle_alpha 116.598400
_cell_angle_beta 104.373500
_cell_angle_gamma 114.013100
loop_
  _atom_site_label
  _atom_site_type_symbol
  _atom_site_fract_x
  _atom_site_fract_y
  _atom_site_fract_z
O1 O 0.59708 0.55964 0.06550
 O2 O 0.44523 0.51184 0.03137
 O3 O 0.50880 0.47471 0.06174
 O4 O 0.53135 0.59519 0.03566
 O5 O 0.49546 0.52109 -0.06246
 O6 O 0.47479 0.40132 -0.03591
 O7 O 0.40800 0.43558 -0.06626
 O8 O 0.56000 0.48503 -0.03272
 Cu9 Cu 0.52465 0.54283 0.05865
 Cu10 Cu 0.48057 0.45321 -0.05932
 C11 C 0.60451 0.53059 0.02227
 C12 C 0.40047 0.46560 -0.02350
 C13 C 0.48845 0.41766 0.01735
 C14 C 0.51663 0.57843 -0.01788
 O15 O -0.03565 0.54579 0.48931
 O16 O -0.04893 0.39502 0.43990
 O17 O -0.06457 0.46796 0.52007
 O18 O -0.02107 0.47186 0.41016
 O19 O 0.07462 0.53271 0.48208
 O20 O 0.03096 0.52658 0.59120
 O21 O 0.04653 0.45433 0.51184
 O22 O 0.05871 0.60462 0.56307
 Cu23 Cu -0.05221 0.46431 0.45794
 Cu24 Cu 0.06234 0.53547 0.54397
 C25 C 0.01406 0.60124 0.53439
 C26 C -0.00360 0.39896 0.46780
 C27 C -0.02438 0.49554 0.57406
 C28 C 0.03432 0.50387 0.42764
 O29 O 0.52707 0.02077 0.58902
 O30 O 0.55179 0.07130 0.49429
 O31 O 0.48960 0.07125 0.54790
 O32 O 0.58844 0.02041 0.53508
 O33 O 0.50935 -0.07841 0.45161
 O34 O 0.41056 -0.02735 0.46405
 O35 O 0.47270 -0.02734 0.41054
 O36 O 0.44749 -0.07755 0.50553
 Cu37 Cu 0.54701 0.05582 0.54991
 Cu38 Cu 0.45221 -0.06254 0.44953
 C39 C 0.48262 -0.03678 0.56372
 C40 C 0.51697 0.03040 0.43613
 C41 C 0.43317 0.03059 0.50879
 C42 C 0.56579 -0.03770 0.49067
 O43 O 0.43731 -0.06389 -0.09762
 O44 O 0.46723 -0.01302 0.05597
 O45 O 0.44211 0.02564 -0.00686
 O46 O 0.46272 -0.10108 -0.03268
 O47 O 0.55946 -0.03187 0.00457
 O48 O 0.53893 0.09485 0.03063
 O49 O 0.56421 0.05753 0.09559
 O50 O 0.53429 0.00698 -0.05786
 Cu51 Cu 0.44246 -0.04519 -0.02452
 Cu52 Cu 0.55913 0.03898 0.02254
 C53 C 0.48062 -0.03686 -0.10390
 C54 C 0.52092 0.03074 0.10200
 C55 C 0.48709 0.08173 0.01603
 C56 C 0.51453 -0.08798 -0.01833
 O57 O -0.00519 0.57528 1.04360
 O58 O 0.09046 0.52524 1.01249
 O59 O 0.02181 0.54495 0.95805
 O60 O 0.06556 0.55716 1.09777
 O61 O -0.01163 0.45385 1.04341
 O62 O -0.05604 0.44197 0.90383
 O63 O 0.01316 0.42149 0.95607
 O64 O -0.08198 0.47161 0.98834
 Cu65 Cu 0.05076 0.56108 1.03337
 Cu66 Cu -0.04170 0.43679 0.96758
 C67 C -0.06001 0.53180 1.02135
 C68 C 0.06807 0.46492 0.97865
 C69 C -0.02448 0.49132 0.90705
 C70 C 0.03437 0.50772 1.09452
 O71 O -0.02035 -0.09601 0.47519
 O72 O -0.02592 0.00497 0.42980
 O73 O 0.05124 -0.01914 0.46080
 O74 O -0.09680 -0.07226 0.44461
 O75 O -0.05160 0.01195 0.54169
 O76 O 0.09647 0.06562 0.55765
 O77 O 0.01981 0.08891 0.52713
 O78 O 0.02645 -0.01145 0.57257
 Cu79 Cu -0.02744 -0.05386 0.44284
 Cu80 Cu 0.02708 0.04695 0.55950
 C81 C 0.00517 -0.07039 0.53190
 C82 C -0.00460 0.06392 0.47057
 C83 C 0.09918 0.03189 0.51215
 C84 C -0.09953 -0.03886 0.49022
 C85 C -0.27077 0.52255 1.00886
 C86 C -0.22057 0.58336 1.06137
 C87 C -0.22452 0.62903 1.10343
 C88 C -0.28248 0.61122 1.09049
 C89 C -0.33473 0.54925 1.03583
 C90 C -0.32844 0.50459 0.99445
 O91 O -0.25783 0.48492 0.97634
 C92 C -0.19814 0.52275 1.00866
 C93 C -0.17287 0.58381 1.06076
 C94 C -0.11076 0.63115 1.10069
 C95 C -0.07346 0.61442 1.08660
 C96 C -0.09885 0.55090 1.03411
 C97 C -0.16214 0.50475 0.99457
 H98 H -0.18456 0.67619 1.14509
 H99 H -0.28665 0.64572 1.12281
 H100 H -0.36731 0.45659 0.95277
 H101 H -0.09168 0.67911 1.14121
 H102 H -0.02502 0.65036 1.11723
 H103 H -0.18291 0.45602 0.95404
 C104 C 0.27774 0.47112 0.99271
 C105 C 0.22829 0.41518 0.93574
 C106 C 0.23296 0.37410 0.89022
 C107 C 0.29089 0.39141 0.90403
 C108 C 0.34268 0.44825 0.96313
 C109 C 0.33537 0.48820 1.00810
 O110 O 0.26432 0.50574 1.02819
 C111 C 0.20503 0.47074 0.99305
 C112 C 0.18047 0.41439 0.93624
 C113 C 0.11896 0.37084 0.89229
 C114 C 0.08154 0.38659 0.90742
 C115 C 0.10642 0.44563 0.96501
 C116 C 0.16899 0.48787 1.00845
 H117 H 0.19356 0.33095 0.84529
 H118 H 0.29513 0.36020 0.86866
 H119 H 0.37350 0.53259 1.05331
 H120 H 0.10054 0.32670 0.84790
 H121 H 0.03364 0.35399 0.87369
 H122 H 0.18914 0.53317 1.05275
 C123 C -0.01160 -0.28331 0.52865
 C124 C 0.03837 -0.22488 0.58359
 C125 C 0.08103 -0.22094 0.62454
 C126 C 0.07219 -0.27951 0.60801
 C127 C 0.02050 -0.34095 0.55183
 C128 C -0.02257 -0.34243 0.51226
 O129 O -0.04371 -0.27595 0.49388
 C130 C -0.01346 -0.21144 0.52778
 C131 C 0.03669 -0.17802 0.58346
 C132 C 0.07575 -0.11009 0.62546
 C133 C 0.06311 -0.07516 0.60907
 C134 C 0.01294 -0.10837 0.55097
 C135 C -0.02623 -0.17765 0.51003
 H136 H 0.12071 -0.17426 0.66689
 H137 H 0.10592 -0.27669 0.63913
 H138 H -0.06178 -0.38786 0.46837
 H139 H 0.11515 -0.08487 0.66883
 H140 H 0.09386 -0.02223 0.64059
 H141 H -0.06459 -0.20440 0.46518
 C142 C 0.01499 0.27968 0.47785
 C143 C -0.02726 0.22293 0.41842
 C144 C -0.06218 0.22078 0.37271
 C145 C -0.05347 0.27937 0.38911
 C146 C -0.00987 0.33855 0.45005
 C147 C 0.02524 0.33860 0.49477
 O148 O 0.04089 0.27072 0.51522
 C149 C 0.01460 0.20696 0.47864
 C150 C -0.02713 0.17545 0.41883
 C151 C -0.06083 0.10829 0.37331
 C152 C -0.05158 0.07213 0.39029
 C153 C -0.00987 0.10330 0.45210
 C154 C 0.02405 0.17195 0.49664
 H155 H -0.09582 0.17541 0.32646
 H156 H -0.08080 0.27863 0.35453
 H157 H 0.05782 0.38264 0.54196
 H158 H -0.09367 0.08443 0.32659
 H159 H -0.07818 0.01966 0.35568
 H160 H 0.05604 0.19732 0.54423
 C161 C 0.49750 -0.02830 -0.29958
 C162 C 0.44583 -0.08821 -0.32687
 C163 C 0.40569 -0.13401 -0.39019
 C164 C 0.41908 -0.11715 -0.42681
 C165 C 0.47157 -0.05483 -0.39968
 C166 C 0.51145 -0.01019 -0.33483
 O167 O 0.52927 0.00861 -0.23872
 C168 C 0.49679 -0.02866 -0.22727
 C169 C 0.44510 -0.08828 -0.27953
 C170 C 0.40334 -0.13360 -0.27762
 C171 C 0.41535 -0.11655 -0.21946
 C172 C 0.46869 -0.05546 -0.16499
 C173 C 0.51011 -0.01126 -0.16927
 H174 H 0.36521 -0.18083 -0.41064
 H175 H 0.38769 -0.15228 -0.47614
 H176 H 0.55186 0.03782 -0.31201
 H177 H 0.36262 -0.17996 -0.31930
 H178 H 0.38327 -0.15086 -0.21685
 H179 H 0.55080 0.03610 -0.12858
 C180 C 0.50251 0.02439 0.29832
 C181 C 0.55615 0.08254 0.32538
 C182 C 0.59778 0.12672 0.38843
 C183 C 0.58376 0.10995 0.42490
 C184 C 0.52911 0.04961 0.39786
 C185 C 0.48780 0.00660 0.33354
 O186 O 0.46983 -0.01149 0.23763
 C187 C 0.50363 0.02460 0.22602
 C188 C 0.55705 0.08252 0.27801
 C189 C 0.60027 0.12614 0.27577
 C190 C 0.58795 0.10909 0.21752
 C191 C 0.53296 0.04963 0.16328
 C192 C 0.49011 0.00723 0.16798
 H193 H 0.63987 0.17205 0.40872
 H194 H 0.61613 0.14334 0.47395
 H195 H 0.44593 -0.03999 0.31125
 H196 H 0.64232 0.17115 0.31722
 H197 H 0.62117 0.14203 0.21466
 H198 H 0.44813 -0.03891 0.12751
 C199 C 0.50852 -0.29232 -0.01425
 C200 C 0.53614 -0.28239 -0.04549
 C201 C 0.55703 -0.31782 -0.07032
 C202 C 0.54956 -0.36485 -0.06205
 C203 C 0.52289 -0.37410 -0.02832
 C204 C 0.50205 -0.33742 -0.00426
 O205 O 0.49049 -0.25507 0.00443
 C206 C 0.50751 -0.22033 -0.01487
 C207 C 0.53633 -0.23444 -0.04504
 C208 C 0.56012 -0.20136 -0.06661
 C209 C 0.55364 -0.15203 -0.05680
 C210 C 0.52254 -0.13833 -0.02739
 C211 C 0.49907 -0.17308 -0.00633
 H212 H 0.57787 -0.30991 -0.09548
 H213 H 0.56552 -0.39303 -0.08067
 H214 H 0.48082 -0.34436 0.02095
 H215 H 0.58340 -0.21254 -0.08941
 H216 H 0.57185 -0.12530 -0.07287
 H217 H 0.47594 -0.16269 0.01707
 C218 C 0.49525 0.28751 0.01314
 C219 C 0.46720 0.27743 0.04402
 C220 C 0.44645 0.31305 0.06882
 C221 C 0.45454 0.36046 0.06091
 C222 C 0.48170 0.36991 0.02759
 C223 C 0.50230 0.33295 0.00347
 O224 O 0.51298 0.24996 -0.00566
 C225 C 0.49529 0.21482 0.01314
 C226 C 0.46634 0.22898 0.04313
 C227 C 0.44194 0.19555 0.06421
 C228 C 0.44789 0.14582 0.05407
 C229 C 0.47921 0.13215 0.02496
 C230 C 0.50333 0.16727 0.00442
 H231 H 0.42510 0.30488 0.09353
 H232 H 0.43868 0.38877 0.07950
 H233 H 0.52387 0.33999 -0.02146
 H234 H 0.41875 0.20692 0.08706
 H235 H 0.42918 0.11878 0.06972
 H236 H 0.52667 0.15695 -0.01874
 C237 C -0.29457 -0.03015 0.51193
 C238 C -0.31977 -0.09253 0.46216
 C239 C -0.38174 -0.13986 0.42179
 C240 C -0.41922 -0.12196 0.43270
 C241 C -0.39437 -0.05751 0.48313
 C242 C -0.33095 -0.01134 0.52376
 O243 O -0.23472 0.00835 0.54288
 C244 C -0.22185 -0.03047 0.51184
 C245 C -0.27228 -0.09270 0.46199
 C246 C -0.26920 -0.14008 0.42109
 C247 C -0.21188 -0.12239 0.43163
 C248 C -0.15910 -0.05835 0.48257
 C249 C -0.16440 -0.01211 0.52366
 H250 H -0.40055 -0.18845 0.38254
 H251 H -0.46751 -0.15793 0.40094
 H252 H -0.31029 0.03844 0.56226
 H253 H -0.30955 -0.18847 0.38169
 H254 H -0.20873 -0.15831 0.39961
 H255 H -0.12521 0.03753 0.56215
 C256 C 0.29364 0.02288 0.48897
 C257 C 0.31902 0.08516 0.53904
 C258 C 0.38100 0.13248 0.57905
 C259 C 0.41835 0.11468 0.56747
 C260 C 0.39336 0.05031 0.51677
 C261 C 0.32989 0.00411 0.47651
 O262 O 0.23381 -0.01555 0.45830
 C263 C 0.22114 0.02323 0.48985
 C264 C 0.27167 0.08533 0.53978
 C265 C 0.26884 0.13263 0.58116
 C266 C 0.21162 0.11505 0.57094
 C267 C 0.15871 0.05121 0.51978
 C268 C 0.16378 0.00499 0.47830
 H269 H 0.39994 0.18101 0.61851
 H270 H 0.46667 0.15067 0.59893
 H271 H 0.30914 -0.04564 0.43787
 H272 H 0.30929 0.18088 0.62068
 H273 H 0.20867 0.15093 0.60334
 H274 H 0.12449 -0.04451 0.43960
 C275 C 0.02423 0.48298 1.28456
 C276 C 0.08341 0.52919 1.30738
 C277 C 0.12905 0.56619 1.36796
 C278 C 0.11288 0.55576 1.40681
 C279 C 0.05183 0.50949 1.38479
 C280 C 0.00713 0.47202 1.32236
 O281 O -0.01257 0.45484 1.22644
 C282 C 0.02411 0.48413 1.21229
 C283 C 0.08329 0.53024 1.26026
 C284 C 0.12862 0.56943 1.25654
 C285 C 0.11216 0.56103 1.20130
 C286 C 0.05143 0.51357 1.15106
 C287 C 0.00697 0.47413 1.15662
 H288 H 0.17527 0.60268 1.38504
 H289 H 0.14765 0.58520 1.45446
 H290 H -0.03992 0.43666 1.30405
 H291 H 0.17475 0.60608 1.29518
 H292 H 0.14664 0.59161 1.19772
 H293 H -0.03993 0.43856 1.11963
 C294 C -0.01424 0.51556 0.71679
 C295 C -0.07351 0.46986 0.69418
 C296 C -0.11923 0.43329 0.63374
 C297 C -0.10305 0.44375 0.59489
 C298 C -0.04193 0.48963 0.61678
 C299 C 0.00286 0.52650 0.67900
 O300 O 0.02261 0.54353 0.77482
 C301 C -0.01410 0.51462 0.78915
 C302 C -0.07338 0.46892 0.74137
 C303 C -0.11878 0.43021 0.74535
 C304 C -0.10230 0.43862 0.80060
 C305 C -0.04148 0.48560 0.85059
 C306 C 0.00306 0.52466 0.84484
 H307 H -0.16552 0.39716 0.61678
 H308 H -0.13787 0.41473 0.54738
 H309 H 0.04997 0.56148 0.69719
 H310 H -0.16501 0.39391 0.70690
 H311 H -0.13680 0.40840 0.80441
 H312 H 0.05001 0.55996 0.88169
   
