data_POSCAR
  _audit_creation_date              2014-09-24
  _audit_creation_method            'ToBaCCo'
  _symmetry_space_group_name_H-M    'P1'
  _symmetry_Int_Tables_number       1
  _symmetry_cell_setting            triclinic
  loop_
  _symmetry_equiv_pos_as_xyz
 x,y,z
_cell_length_a 43.2219
_cell_length_b 39.3586
_cell_length_c 21.4328
_cell_angle_alpha 89.533200
_cell_angle_beta 89.985000
_cell_angle_gamma 114.575300
loop_
  _atom_site_label
  _atom_site_type_symbol
  _atom_site_fract_x
  _atom_site_fract_y
  _atom_site_fract_z
C1 C 0.47486 0.92584 0.55094
 C2 C 0.46562 0.91009 0.49148
 C3 C 0.47892 0.93053 0.43666
 C4 C 0.50246 0.96837 0.44064
 C5 C 0.51232 0.98530 0.49984
 C6 C 0.49849 0.96405 0.55512
 C7 C 0.50785 0.98216 0.61288
 C8 C 0.53035 1.01941 0.61666
 C9 C 0.54403 1.04131 0.56288
 C10 C 0.53567 1.02378 0.50369
 C11 C 0.51554 0.99008 0.38671
 C12 C 0.53875 1.02715 0.39036
 C13 C 0.55009 1.04462 0.44829
 C14 C 0.57402 1.08269 0.45232
 C15 C 0.58174 1.09907 0.51171
 C16 C 0.56652 1.07982 0.56691
 H17 H 0.49769 0.96839 0.65669
 H18 H 0.53707 1.03021 0.66318
 H19 H 0.50757 0.97894 0.34061
 H20 H 0.54656 1.04184 0.34646
 H21 H 0.44956 0.88057 0.48724
 H22 H 0.59976 1.12770 0.51496
 C23 C -0.07227 0.44006 0.44197
 C24 C -0.09062 0.42952 0.49785
 C25 C -0.07466 0.43697 0.55661
 C26 C -0.03837 0.45596 0.55845
 C27 C -0.01936 0.46598 0.50173
 C28 C -0.03641 0.45807 0.44351
 C29 C -0.01721 0.46935 0.38818
 C30 C 0.01806 0.48734 0.38961
 C31 C 0.03571 0.49498 0.44646
 C32 C 0.01686 0.48466 0.50310
 C33 C -0.02041 0.46684 0.61510
 C34 C 0.01486 0.48498 0.61631
 C35 C 0.03413 0.49361 0.56107
 C36 C 0.07012 0.51221 0.56222
 C37 C 0.08819 0.52174 0.50580
 C38 C 0.07164 0.51375 0.44816
 H39 H -0.02919 0.46493 0.34288
 H40 H 0.03120 0.49574 0.34538
 H41 H -0.03298 0.46270 0.65976
 H42 H 0.02670 0.49289 0.66148
 H43 H -0.11774 0.41319 0.49421
 H44 H 0.11576 0.53465 0.50664
 C45 C 0.52410 0.45585 0.44021
 C46 C 0.53832 0.45051 0.49597
 C47 C 0.53200 0.46330 0.55372
 C48 C 0.50983 0.48195 0.55480
 C49 C 0.49602 0.48865 0.49815
 C50 C 0.50313 0.47540 0.44088
 C51 C 0.48947 0.48252 0.38541
 C52 C 0.46889 0.50171 0.38591
 C53 C 0.46138 0.51518 0.44180
 C54 C 0.47471 0.50834 0.49870
 C55 C 0.49955 0.49245 0.61105
 C56 C 0.47840 0.51107 0.61167
 C57 C 0.46647 0.52067 0.55604
 C58 C 0.44532 0.54057 0.55613
 C59 C 0.43292 0.54715 0.49861
 C60 C 0.44043 0.53475 0.44209
 H61 H 0.49467 0.47360 0.34056
 H62 H 0.45869 0.50545 0.34164
 H63 H 0.50653 0.48542 0.65605
 H64 H 0.47103 0.51671 0.65714
 H65 H 0.55534 0.43684 0.49301
 H66 H 0.41899 0.56445 0.49629
 O67 O 0.35884 0.65998 -0.05604
 O68 O 0.35772 0.72455 -0.07666
 C69 C 0.34124 0.74366 -0.09016
 O70 O 0.31558 0.74195 -0.05915
 O71 O 0.25912 0.68237 -0.06937
 C72 C 0.24397 0.64770 -0.07939
 O73 O 0.24908 0.62312 -0.04748
 O74 O 0.30568 0.61652 -0.06557
 C75 C 0.33656 0.63136 -0.08218
 O76 O 0.36052 0.67312 0.06795
 O77 O 0.36178 0.73880 0.04717
 C78 C 0.34114 0.74810 0.07728
 O79 O 0.30957 0.73487 0.06627
 O80 O 0.25150 0.67716 0.05590
 C81 C 0.24654 0.64804 0.08796
 O82 O 0.26124 0.62686 0.07669
 O83 O 0.31667 0.61748 0.05870
 C84 C 0.34402 0.63950 0.08482
 Cr85 Cr 0.35773 0.69823 -0.00420
 Cr86 Cr 0.28492 0.70782 -0.00149
 Cr87 Cr 0.28418 0.62316 0.00541
 O88 O 0.30897 0.67639 -0.00002
 O89 O 0.63034 0.33578 -0.07076
 O90 O 0.63787 0.27588 -0.04025
 C91 C 0.66135 0.26975 -0.06698
 O92 O 0.69257 0.28772 -0.05514
 O93 O 0.74525 0.35149 -0.05069
 C94 C 0.74553 0.37720 -0.08751
 O95 O 0.72715 0.39479 -0.07964
 O96 O 0.66758 0.39535 -0.06496
 C97 C 0.64247 0.36912 -0.09038
 O98 O 0.62920 0.35368 0.05088
 O99 O 0.63927 0.29526 0.08129
 C100 C 0.65899 0.28088 0.09924
 O101 O 0.68612 0.28520 0.07031
 O102 O 0.73730 0.35055 0.07480
 C103 C 0.74915 0.38571 0.07925
 O104 O 0.74017 0.40598 0.04364
 O105 O 0.67936 0.40286 0.05901
 C106 C 0.64866 0.38470 0.07508
 Cr107 Cr 0.63608 0.31625 0.00517
 Cr108 Cr 0.71413 0.31975 0.00955
 Cr109 Cr 0.70284 0.39763 -0.01003
 O110 O 0.68432 0.34450 0.00156
 C111 C 0.46189 0.90290 -0.39550
 C112 C 0.43114 0.87084 -0.39414
 C113 C 0.41899 0.84720 -0.33756
 C114 C 0.38393 0.82898 -0.32569
 C115 C 0.37178 0.80637 -0.27259
 C116 C 0.39460 0.80120 -0.23087
 C117 C 0.42960 0.81867 -0.24367
 C118 C 0.44175 0.84162 -0.29628
 C119 C 0.38280 0.77649 -0.17544
 C120 C 0.35225 0.76918 -0.14435
 H121 H 0.41377 0.86479 -0.43309
 H122 H 0.36591 0.83242 -0.35740
 H123 H 0.34459 0.79238 -0.26519
 H124 H 0.44762 0.81460 -0.21276
 H125 H 0.46887 0.85434 -0.30517
 H126 H 0.39962 0.76479 -0.15684
 H127 H 0.47542 0.91050 -0.35198
 H128 H 0.33638 0.78299 -0.15897
 C129 C 0.08960 0.52088 -0.37849
 C130 C 0.11799 0.55468 -0.37041
 C131 C 0.13903 0.56516 -0.31318
 C132 C 0.16256 0.60244 -0.30691
 C133 C 0.18347 0.61387 -0.25459
 C134 C 0.18121 0.58818 -0.20684
 C135 C 0.15814 0.55073 -0.21353
 C136 C 0.13720 0.53924 -0.26605
 C137 C 0.20344 0.59923 -0.15113
 C138 C 0.21938 0.63610 -0.13087
 H139 H 0.12451 0.57534 -0.40760
 H140 H 0.16494 0.62288 -0.34292
 H141 H 0.20180 0.64267 -0.25275
 H142 H 0.15632 0.53025 -0.17797
 H143 H 0.12019 0.51003 -0.26962
 H144 H 0.20713 0.57755 -0.12493
 H145 H 0.08085 0.50077 -0.34074
 H146 H 0.21440 0.65779 -0.15413
 C147 C 0.43800 0.55546 -0.38848
 C148 C 0.41043 0.56521 -0.38203
 C149 C 0.40321 0.58150 -0.32471
 C150 C 0.36994 0.57799 -0.31478
 C151 C 0.36179 0.59306 -0.26188
 C152 C 0.38684 0.61207 -0.21739
 C153 C 0.42038 0.61663 -0.22813
 C154 C 0.42856 0.60144 -0.28120
 C155 C 0.37877 0.62831 -0.16084
 C156 C 0.34621 0.61398 -0.13471
 H157 H 0.39123 0.55754 -0.41800
 H158 H 0.35008 0.56346 -0.34814
 H159 H 0.33596 0.59031 -0.25680
 H160 H 0.44026 0.63182 -0.19522
 H161 H 0.45476 0.60598 -0.28832
 H162 H 0.39907 0.65156 -0.13859
 H163 H 0.45358 0.55879 -0.34784
 H164 H 0.32645 0.58909 -0.15399
 C165 C 0.57232 0.09953 -0.37588
 C166 C 0.60052 0.13319 -0.36414
 C167 C 0.60493 0.15531 -0.30655
 C168 C 0.63766 0.18183 -0.29210
 C169 C 0.64324 0.20421 -0.23954
 C170 C 0.61613 0.20047 -0.19963
 C171 C 0.58319 0.17457 -0.21472
 C172 C 0.57756 0.15213 -0.26764
 C173 C 0.62149 0.22442 -0.14403
 C174 C 0.65297 0.24068 -0.11452
 H175 H 0.62192 0.14275 -0.39597
 H176 H 0.65909 0.18548 -0.32192
 H177 H 0.66878 0.22499 -0.23146
 H178 H 0.56177 0.17173 -0.18552
 H179 H 0.55173 0.13305 -0.27834
 H180 H 0.60041 0.22973 -0.12654
 H181 H 0.55427 0.08835 -0.33832
 H182 H 0.67347 0.23360 -0.12937
 C183 C 0.90534 0.42416 -0.38835
 C184 C 0.87033 0.41499 -0.38509
 C185 C 0.84972 0.40229 -0.32724
 C186 C 0.81894 0.40616 -0.32378
 C187 C 0.79882 0.39541 -0.27010
 C188 C 0.80908 0.38058 -0.21822
 C189 C 0.83911 0.37519 -0.22244
 C190 C 0.85934 0.38596 -0.27638
 C191 C 0.78860 0.37016 -0.16001
 C192 C 0.76803 0.38796 -0.14238
 H193 H 0.85774 0.42095 -0.42452
 H194 H 0.81050 0.41786 -0.36269
 H195 H 0.77506 0.39844 -0.26986
 H196 H 0.84717 0.36305 -0.18362
 H197 H 0.88215 0.38107 -0.27802
 H198 H 0.79062 0.34908 -0.12956
 H199 H 0.91734 0.42216 -0.34542
 H200 H 0.76801 0.41096 -0.17037
 C201 C 0.54882 0.45887 -0.39186
 C202 C 0.56279 0.43257 -0.38588
 C203 C 0.58166 0.42875 -0.33044
 C204 C 0.58571 0.39540 -0.32284
 C205 C 0.60317 0.39007 -0.27170
 C206 C 0.61696 0.41802 -0.22647
 C207 C 0.61410 0.45199 -0.23505
 C208 C 0.59657 0.45737 -0.28651
 C209 C 0.63447 0.41226 -0.17059
 C210 C 0.62583 0.37674 -0.14512
 H211 H 0.55735 0.41126 -0.42088
 H212 H 0.57519 0.37319 -0.35660
 H213 H 0.60610 0.36413 -0.26827
 H214 H 0.62508 0.47421 -0.20148
 H215 H 0.59518 0.48404 -0.29180
 H216 H 0.65315 0.43643 -0.14735
 H217 H 0.55074 0.47598 -0.35187
 H218 H 0.60509 0.35299 -0.16517
 C219 C 0.90859 0.42992 0.38252
 C220 C 0.87960 0.43649 0.37268
 C221 C 0.85822 0.42432 0.31620
 C222 C 0.83742 0.44240 0.29947
 C223 C 0.81558 0.43034 0.24823
 C224 C 0.81393 0.39962 0.21310
 C225 C 0.83463 0.38148 0.23007
 C226 C 0.85662 0.39370 0.28089
 C227 C 0.78951 0.38404 0.16144
 C228 C 0.77465 0.40396 0.12790
 H229 H 0.87272 0.45198 0.40748
 H230 H 0.83784 0.46572 0.32652
 H231 H 0.79935 0.44439 0.23766
 H232 H 0.83347 0.35741 0.20430
 H233 H 0.87144 0.37830 0.29344
 H234 H 0.78344 0.35543 0.14836
 H235 H 0.91790 0.41784 0.34588
 H236 H 0.78217 0.43340 0.13629
 C237 C 0.59059 0.10414 0.39870
 C238 C 0.60479 0.14337 0.39618
 C239 C 0.62151 0.16617 0.34039
 C240 C 0.62474 0.20312 0.33762
 C241 C 0.63914 0.22562 0.28556
 C242 C 0.65066 0.21168 0.23471
 C243 C 0.64915 0.17541 0.23854
 C244 C 0.63461 0.15271 0.29087
 C245 C 0.66335 0.23436 0.17717
 C246 C 0.64902 0.25831 0.15669
 H247 H 0.60033 0.15861 0.43429
 H248 H 0.61560 0.21455 0.37558
 H249 H 0.64112 0.25396 0.28521
 H250 H 0.65844 0.16432 0.20034
 H251 H 0.63379 0.12489 0.29219
 H252 H 0.68193 0.23001 0.14829
 H253 H 0.59155 0.09012 0.35636
 H254 H 0.62789 0.25933 0.18257
 C255 C 0.53125 0.44008 0.38195
 C256 C 0.56392 0.44336 0.36790
 C257 C 0.57307 0.42743 0.31208
 C258 C 0.60768 0.43795 0.29949
 C259 C 0.61798 0.42358 0.24824
 C260 C 0.59380 0.39841 0.20777
 C261 C 0.55912 0.38714 0.22098
 C262 C 0.54876 0.40152 0.27253
 C263 C 0.60416 0.38267 0.15311
 C264 C 0.63580 0.40119 0.12436
 H265 H 0.58440 0.45961 0.39906
 H266 H 0.62696 0.45729 0.32971
 H267 H 0.64494 0.43177 0.24147
 H268 H 0.53999 0.36727 0.19118
 H269 H 0.52180 0.39180 0.28127
 H270 H 0.58639 0.35613 0.13483
 H271 H 0.51061 0.42649 0.34983
 H272 H 0.65273 0.42883 0.13967
 C273 C 0.09272 0.52413 0.39061
 C274 C 0.11993 0.55910 0.38368
 C275 C 0.14250 0.57022 0.32825
 C276 C 0.16053 0.60835 0.31424
 C277 C 0.18283 0.61996 0.26327
 C278 C 0.18772 0.59352 0.22556
 C279 C 0.17010 0.55542 0.24023
 C280 C 0.14763 0.54381 0.29086
 C281 C 0.21198 0.60451 0.17258
 C282 C 0.22230 0.63851 0.14042
 H283 H 0.12404 0.57978 0.41955
 H284 H 0.15742 0.62925 0.34296
 H285 H 0.19673 0.64960 0.25465
 H286 H 0.17383 0.53453 0.21247
 H287 H 0.13505 0.51425 0.30138
 H288 H 0.22106 0.58422 0.15661
 H289 H 0.08608 0.50437 0.35278
 H290 H 0.21164 0.65810 0.15229
 C291 C 0.46916 0.91080 0.37603
 C292 C 0.43579 0.88513 0.36452
 C293 C 0.42435 0.86206 0.30760
 C294 C 0.38939 0.84020 0.30044
 C295 C 0.37708 0.81692 0.24903
 C296 C 0.39953 0.81514 0.20293
 C297 C 0.43455 0.83671 0.21024
 C298 C 0.44692 0.85998 0.26191
 C299 C 0.38745 0.79002 0.14846
 C300 C 0.35384 0.77555 0.12769
 H301 H 0.41665 0.88189 0.39957
 H302 H 0.37144 0.84076 0.33527
 H303 H 0.35004 0.79981 0.24677
 H304 H 0.45245 0.83547 0.17591
 H305 H 0.47410 0.87563 0.26588
 H306 H 0.40575 0.78289 0.12360
 H307 H 0.48855 0.91673 0.34072
 H308 H 0.33564 0.78403 0.14947
 C309 C 0.42798 0.54507 0.38350
 C310 C 0.39481 0.54227 0.37780
 C311 C 0.38207 0.55412 0.32123
 C312 C 0.40412 0.58036 0.27852
 C313 C 0.39118 0.59191 0.22684
 C314 C 0.35586 0.57789 0.21709
 C315 C 0.33389 0.55128 0.25913
 C316 C 0.34685 0.53978 0.31100
 C317 C 0.34140 0.59056 0.16380
 C318 C 0.35813 0.62595 0.13682
 H319 H 0.37708 0.52972 0.41586
 H320 H 0.43136 0.59272 0.28527
 H321 H 0.40899 0.61168 0.19455
 H322 H 0.30660 0.53991 0.25246
 H323 H 0.32930 0.51963 0.34330
 H324 H 0.31611 0.57250 0.14791
 H325 H 0.44515 0.55434 0.34408
 H326 H 0.38212 0.64535 0.15584
   
