data_POSCAR
  _audit_creation_date              2014-09-24
  _audit_creation_method            'ToBaCCo'
  _symmetry_space_group_name_H-M    'P1'
  _symmetry_Int_Tables_number       1
  _symmetry_cell_setting            triclinic
  loop_
  _symmetry_equiv_pos_as_xyz
 x,y,z
_cell_length_a 27.4734
_cell_length_b 26.8687
_cell_length_c 26.4888
_cell_angle_alpha 113.736200
_cell_angle_beta 71.450200
_cell_angle_gamma 50.724800
loop_
  _atom_site_label
  _atom_site_type_symbol
  _atom_site_fract_x
  _atom_site_fract_y
  _atom_site_fract_z
O1 O 0.45766 0.58433 0.08885
 O2 O 0.31794 0.61156 0.06632
 O3 O 0.40513 0.52927 0.09325
 O4 O 0.37095 0.66761 0.06313
 O5 O 0.52646 0.49971 -0.08922
 O6 O 0.56000 0.36216 -0.05925
 O7 O 0.47225 0.44378 -0.08580
 O8 O 0.61144 0.41620 -0.06357
 Cu9 Cu 0.37219 0.61491 0.09299
 Cu10 Cu 0.55621 0.41528 -0.08897
 C11 C 0.55851 0.49633 0.01574
 C12 C 0.37183 0.52993 -0.01321
 C13 C 0.48772 0.42235 0.02216
 C14 C 0.44680 0.60581 -0.01806
 O15 O -0.08131 0.63787 0.53416
 O16 O -0.07525 0.49103 0.51625
 O17 O -0.07245 0.58234 0.59546
 O18 O -0.10300 0.56089 0.46511
 O19 O 0.07196 0.39688 0.33268
 O20 O 0.10314 0.41372 0.46179
 O21 O 0.10092 0.32736 0.38553
 O22 O 0.09464 0.47439 0.40786
 Cu23 Cu -0.10065 0.58473 0.54005
 Cu24 Cu 0.10887 0.38823 0.38135
 C25 C 0.00665 0.58156 0.47766
 C26 C 0.01442 0.38443 0.44958
 C27 C 0.02010 0.50025 0.55103
 C28 C -0.02030 0.47276 0.37609
 O29 O 0.43033 0.11382 0.64621
 O30 O 0.47258 0.10180 0.49303
 O31 O 0.39263 0.09669 0.57007
 O32 O 0.52772 0.09896 0.55751
 O33 O 0.67872 -0.08662 0.43680
 O34 O 0.54701 -0.09029 0.44241
 O35 O 0.62609 -0.08439 0.36954
 O36 O 0.57874 -0.07238 0.52286
 Cu37 Cu 0.44118 0.12150 0.57844
 Cu38 Cu 0.62413 -0.10150 0.43044
 C39 C 0.49470 0.02307 0.61130
 C40 C 0.55505 0.00675 0.40535
 C41 C 0.44612 0.00331 0.50902
 C42 C 0.62700 0.00521 0.49557
 C43 C 0.45274 0.01553 -0.01870
 C44 C 0.47476 -0.03910 -0.00675
 C45 C 0.50655 -0.04447 0.02605
 C46 C 0.52034 -0.00060 0.04427
 C47 C 0.50165 0.05035 0.02913
 C48 C 0.46982 0.05595 -0.00316
 H49 H 0.45872 0.09252 -0.01711
 H50 H 0.51911 -0.08216 0.03904
 C51 C -0.03002 0.47637 1.02011
 C52 C -0.05997 0.48157 0.98539
 C53 C -0.03830 0.49044 0.93730
 C54 C 0.00834 0.49937 0.92630
 C55 C 0.03252 0.50121 0.96633
 C56 C 0.01424 0.48796 1.01139
 H57 H 0.03567 0.48569 1.03954
 H58 H -0.05852 0.49084 0.90814
 C59 C 0.06730 0.01048 0.55316
 C60 C 0.02330 0.05283 0.53592
 C61 C -0.02184 0.04813 0.52857
 C62 C -0.02707 0.00514 0.54030
 C63 C 0.01382 -0.03448 0.56043
 C64 C 0.06277 -0.03353 0.56486
 H65 H 0.09645 -0.06605 0.57817
 H66 H -0.05135 0.07620 0.51123
 C67 C -0.27687 0.48107 1.01771
 C68 C -0.21793 0.38169 0.93996
 C69 C -0.27233 0.38608 0.94186
 C70 C -0.38515 0.48902 1.02080
 C71 C -0.44281 0.58685 1.10002
 C72 C -0.38902 0.58353 1.09843
 C73 C -0.22021 0.47885 1.01281
 C74 C -0.27941 0.57947 1.08873
 C75 C -0.22565 0.57854 1.08087
 C76 C -0.11386 0.47808 0.99783
 C77 C -0.05532 0.37722 0.92348
 C78 C -0.10823 0.37712 0.93067
 C79 C -0.44511 0.68145 1.17447
 C80 C -0.39133 0.67952 1.16962
 C81 C -0.10577 0.28063 0.86059
 C82 C -0.05191 0.27828 0.85630
 H83 H -0.53152 0.76085 1.23763
 H84 H -0.43788 0.75745 1.22911
 H85 H -0.05920 0.20299 0.80051
 H86 H 0.03452 0.19886 0.79318
 H87 H -0.22676 0.31004 0.88055
 H88 H -0.52942 0.66664 1.16097
 H89 H -0.27073 0.65645 1.13765
 H90 H 0.03065 0.30017 0.85931
 C91 C 0.22340 0.52882 0.97056
 C92 C 0.16034 0.62701 1.05529
 C93 C 0.20940 0.62837 1.05969
 C94 C 0.32133 0.53232 0.97986
 C95 C 0.38264 0.43527 0.89469
 C96 C 0.33434 0.43263 0.89026
 C97 C 0.17274 0.52522 0.96682
 C98 C 0.23660 0.42506 0.88326
 C99 C 0.18882 0.42021 0.88156
 C100 C 0.07834 0.51428 0.96239
 C101 C 0.01537 0.61448 1.04533
 C102 C 0.06215 0.62036 1.04802
 C103 C 0.39529 0.33430 0.80787
 C104 C 0.34748 0.33051 0.80444
 C105 C 0.04962 0.72100 1.13472
 C106 C 0.00147 0.71780 1.13114
 H107 H 0.48120 0.25861 0.74600
 H108 H 0.39811 0.25219 0.73989
 H109 H -0.00024 0.79741 1.20074
 H110 H -0.08384 0.79176 1.19451
 H111 H 0.16029 0.70377 1.12596
 H112 H 0.46865 0.35986 0.83254
 H113 H 0.23780 0.34189 0.81928
 H114 H -0.06913 0.68593 1.10863
 C115 C 0.00647 -0.24787 0.53548
 C116 C 0.10377 -0.36591 0.46075
 C117 C 0.10346 -0.42239 0.44098
 C118 C 0.00661 -0.36178 0.49513
 C119 C -0.09051 -0.24283 0.57086
 C120 C -0.09095 -0.18561 0.59112
 C121 C 0.00690 -0.18880 0.55382
 C122 C -0.09022 -0.07108 0.62667
 C123 C -0.08833 -0.01722 0.63727
 C124 C 0.00989 -0.08151 0.57212
 C125 C 0.10590 -0.19746 0.50454
 C126 C 0.10496 -0.25201 0.49448
 C127 C -0.18680 -0.06746 0.66531
 C128 C -0.18647 -0.01105 0.68286
 C129 C 0.19968 -0.42536 0.40651
 C130 C 0.20037 -0.36947 0.42243
 H131 H -0.26257 -0.01837 0.70920
 H132 H -0.26183 0.07979 0.73917
 H133 H 0.27519 -0.51633 0.34950
 H134 H 0.27625 -0.41880 0.37675
 H135 H 0.17876 -0.51347 0.38396
 H136 H -0.16589 -0.19450 0.61400
 H137 H -0.16215 0.07239 0.68967
 H138 H 0.18131 -0.24650 0.45458
 C139 C 0.02296 0.23225 0.47188
 C140 C -0.07403 0.33846 0.52511
 C141 C -0.07565 0.38582 0.51395
 C142 C 0.01884 0.32738 0.45004
 C143 C 0.11639 0.21837 0.39355
 C144 C 0.11870 0.17088 0.40501
 C145 C 0.02362 0.18620 0.48867
 C146 C 0.12017 0.08094 0.43672
 C147 C 0.12010 0.03769 0.45318
 C148 C 0.02381 0.10099 0.52309
 C149 C -0.07227 0.20657 0.57493
 C150 C -0.07254 0.24868 0.55681
 C151 C 0.21408 0.06514 0.35334
 C152 C 0.21482 0.02069 0.36881
 C153 C -0.16790 0.39659 0.59032
 C154 C -0.16681 0.35155 0.60504
 H155 H 0.28841 0.01711 0.30146
 H156 H 0.28967 -0.06072 0.32815
 H157 H -0.24298 0.47811 0.63117
 H158 H -0.24071 0.39857 0.65576
 H159 H -0.15078 0.46947 0.55710
 H160 H 0.18960 0.17285 0.34409
 H161 H 0.19472 -0.04568 0.41059
 H162 H -0.14626 0.25450 0.62801
 C163 C 0.43208 0.03475 -0.21350
 C164 C 0.36634 0.13479 -0.17418
 C165 C 0.38527 0.13143 -0.23216
 C166 C 0.47233 0.02795 -0.32963
 C167 C 0.53631 -0.07091 -0.36707
 C168 C 0.51517 -0.06762 -0.30925
 C169 C 0.41907 0.03525 -0.15493
 C170 C 0.48905 -0.06640 -0.19561
 C171 C 0.48870 -0.06979 -0.14405
 C172 C 0.41981 0.02749 -0.05343
 C173 C 0.34145 0.13147 -0.01008
 C174 C 0.34326 0.13512 -0.06154
 C175 C 0.57783 -0.16551 -0.34581
 C176 C 0.56490 -0.16492 -0.28985
 C177 C 0.28600 0.23511 -0.07847
 C178 C 0.27532 0.23502 -0.02316
 H179 H 0.63891 -0.24380 -0.41866
 H180 H 0.61818 -0.24345 -0.32180
 H181 H 0.23392 0.31313 -0.04707
 H182 H 0.21534 0.31298 0.04951
 H183 H 0.33502 0.20849 -0.20169
 H184 H 0.60394 -0.15100 -0.44142
 H185 H 0.55039 -0.15027 -0.17827
 H186 H 0.28758 0.20679 0.06032
 C187 C 0.56954 -0.00481 0.23569
 C188 C 0.49720 0.09711 0.32569
 C189 C 0.49572 0.09983 0.38011
 C190 C 0.56586 0.00148 0.34469
 C191 C 0.63940 -0.10037 0.25362
 C192 C 0.64019 -0.10347 0.19955
 C193 C 0.56698 -0.00678 0.18045
 C194 C 0.63501 -0.10717 0.09298
 C195 C 0.62800 -0.10713 0.04319
 C196 C 0.54891 -0.00613 0.08287
 C197 C 0.48315 0.09330 0.16935
 C198 C 0.49188 0.09343 0.21867
 C199 C 0.70691 -0.20209 0.11185
 C200 C 0.70458 -0.20407 0.05919
 C201 C 0.42501 0.19507 0.36076
 C202 C 0.42236 0.19326 0.30808
 H203 H 0.76005 -0.27772 0.08448
 H204 H 0.75655 -0.28158 -0.00789
 H205 H 0.36850 0.27431 0.43030
 H206 H 0.36366 0.27121 0.33853
 H207 H 0.43796 0.17892 0.45079
 H208 H 0.69240 -0.17598 0.22647
 H209 H 0.67851 -0.18372 -0.02341
 H210 H 0.42000 0.17205 0.20160
 C211 C 0.45558 -0.24751 -0.03620
 C212 C 0.55104 -0.36304 -0.10256
 C213 C 0.54685 -0.41151 -0.09987
 C214 C 0.44797 -0.34455 -0.02889
 C215 C 0.35264 -0.22827 0.03775
 C216 C 0.35611 -0.17953 0.03391
 C217 C 0.45992 -0.19544 -0.03676
 C218 C 0.36443 -0.07850 0.03278
 C219 C 0.36906 -0.02783 0.03672
 C220 C 0.46839 -0.09355 -0.02760
 C221 C 0.56315 -0.21129 -0.09901
 C222 C 0.55947 -0.26244 -0.10330
 C223 C 0.26236 -0.06338 0.10084
 C224 C 0.26643 -0.01388 0.10024
 C225 C 0.64883 -0.42687 -0.16778
 C226 C 0.65314 -0.37789 -0.16881
 H227 H 0.18499 -0.00970 0.15541
 H228 H 0.19209 0.07635 0.15447
 H229 H 0.72270 -0.51507 -0.21717
 H230 H 0.73042 -0.43029 -0.21980
 H231 H 0.62068 -0.50018 -0.14988
 H232 H 0.27622 -0.17555 0.09361
 H233 H 0.29597 0.06320 0.09352
 H234 H 0.63951 -0.26147 -0.14689
 C235 C 0.50765 0.26268 0.04507
 C236 C 0.40977 0.38096 0.12031
 C237 C 0.40541 0.43321 0.11481
 C238 C 0.49717 0.36787 0.03321
 C239 C 0.59533 0.24918 -0.04119
 C240 C 0.60100 0.19619 -0.03551
 C241 C 0.51087 0.20713 0.04844
 C242 C 0.60750 0.08842 -0.02888
 C243 C 0.60756 0.03573 -0.02943
 C244 C 0.51152 0.10117 0.04577
 C245 C 0.41651 0.22000 0.12422
 C246 C 0.41544 0.27340 0.12558
 C247 C 0.69697 0.07782 -0.11022
 C248 C 0.70016 0.02495 -0.10692
 C249 C 0.31680 0.44437 0.19755
 C250 C 0.31938 0.39134 0.19934
 H251 H 0.76982 0.02527 -0.17281
 H252 H 0.77519 -0.06664 -0.16725
 H253 H 0.24072 0.53554 0.25581
 H254 H 0.24508 0.44276 0.25772
 H255 H 0.32927 0.52424 0.17199
 H256 H 0.66652 0.19782 -0.10452
 H257 H 0.67964 -0.05557 -0.09157
 H258 H 0.34169 0.27043 0.18030
 C259 C -0.21843 0.00055 0.50302
 C260 C -0.16329 -0.10028 0.44186
 C261 C -0.21303 -0.09898 0.43696
 C262 C -0.31744 0.00242 0.49355
 C263 C -0.37054 0.10201 0.55251
 C264 C -0.32149 0.10172 0.55790
 C265 C -0.16818 0.00067 0.51108
 C266 C -0.22380 0.10176 0.57296
 C267 C -0.17609 0.10162 0.58102
 C268 C -0.07487 0.00226 0.52946
 C269 C -0.01854 -0.09923 0.46558
 C270 C -0.06565 -0.10014 0.45709
 C271 C -0.37445 0.20111 0.61872
 C272 C -0.32621 0.20110 0.62608
 C273 C -0.06077 -0.19962 0.38868
 C274 C -0.01268 -0.19947 0.39624
 H275 H -0.45409 0.27958 0.66154
 H276 H -0.36972 0.27955 0.67427
 H277 H -0.01784 -0.27773 0.34155
 H278 H 0.06612 -0.27734 0.35473
 H279 H -0.17180 -0.17604 0.39146
 H280 H -0.45093 0.18023 0.59603
 H281 H -0.21758 0.17880 0.62753
 H282 H 0.06128 -0.17673 0.42309
 C283 C 0.28311 0.00565 0.53363
 C284 C 0.22380 0.10845 0.60260
 C285 C 0.27777 0.10677 0.59425
 C286 C 0.39015 0.00390 0.51652
 C287 C 0.44849 -0.09839 0.44705
 C288 C 0.39527 -0.09806 0.45574
 C289 C 0.22670 0.00675 0.54286
 C290 C 0.28605 -0.09629 0.47426
 C291 C 0.23205 -0.09460 0.48227
 C292 C 0.12041 0.00913 0.55631
 C293 C 0.06172 0.11151 0.62539
 C294 C 0.11462 0.11090 0.61901
 C295 C 0.45191 -0.19928 0.38822
 C296 C 0.39813 -0.19845 0.39751
 C297 C 0.11177 0.21093 0.67832
 C298 C 0.05807 0.21220 0.68574
 H299 H 0.53845 -0.27973 0.32772
 H300 H 0.44467 -0.27828 0.34370
 H301 H 0.06535 0.29077 0.73177
 H302 H -0.02838 0.29299 0.74455
 H303 H 0.23192 0.18563 0.64861
 H304 H 0.53502 -0.17813 0.38659
 H305 H 0.27668 -0.17303 0.42832
 H306 H -0.02439 0.19113 0.68170
 C307 C -0.04407 0.43967 1.21706
 C308 C -0.13763 0.54022 1.31498
 C309 C -0.13064 0.54956 1.36748
 C310 C -0.03083 0.45810 1.32215
 C311 C 0.05960 0.35288 1.22413
 C312 C 0.05315 0.34372 1.17136
 C313 C -0.04599 0.43803 1.16134
 C314 C 0.05039 0.34228 1.06417
 C315 C 0.05330 0.35150 1.01512
 C316 C -0.04006 0.45556 1.06334
 C317 C -0.13901 0.54505 1.15784
 C318 C -0.14204 0.53664 1.20753
 C319 C 0.14288 0.24265 1.07326
 C320 C 0.14260 0.24243 1.02011
 C321 C -0.23490 0.63056 1.35741
 C322 C -0.23721 0.62825 1.30431
 H323 H 0.21552 0.16459 1.03717
 H324 H 0.21616 0.16519 0.94444
 H325 H -0.30937 0.70485 1.43216
 H326 H -0.31306 0.70245 1.34041
 H327 H -0.20121 0.62989 1.44263
 H328 H 0.13603 0.28017 1.18841
 H329 H 0.12916 0.28156 0.94176
 H330 H -0.21124 0.62466 1.19484
 C331 C 0.04478 0.50079 0.70342
 C332 C -0.04158 0.60452 0.74840
 C333 C -0.04864 0.60488 0.69799
 C334 C 0.03165 0.50207 0.60266
 C335 C 0.12074 0.39904 0.55770
 C336 C 0.12647 0.39795 0.60813
 C337 C 0.04659 0.49984 0.75836
 C338 C 0.12731 0.39659 0.71526
 C339 C 0.12040 0.39727 0.77051
 C340 C 0.03457 0.49937 0.86767
 C341 C -0.04057 0.60161 0.90843
 C342 C -0.03615 0.60252 0.85423
 C343 C 0.20990 0.29595 0.56607
 C344 C 0.20958 0.29547 0.61892
 C345 C -0.12026 0.70537 0.84339
 C346 C -0.11656 0.70418 0.89484
 H347 H 0.27401 0.21585 0.49239
 H348 H 0.27301 0.21513 0.58411
 H349 H -0.18640 0.78611 0.87882
 H350 H -0.17968 0.78404 0.96812
 H351 H -0.11702 0.68464 0.73305
 H352 H 0.18271 0.31957 0.48470
 H353 H 0.17803 0.31917 0.73961
 H354 H -0.10685 0.68058 0.98323
   
