data_POSCAR
  _audit_creation_date              2014-09-24
  _audit_creation_method            'ToBaCCo'
  _symmetry_space_group_name_H-M    'P1'
  _symmetry_Int_Tables_number       1
  _symmetry_cell_setting            triclinic
  loop_
  _symmetry_equiv_pos_as_xyz
 x,y,z
_cell_length_a 34.6461
_cell_length_b 34.6910
_cell_length_c 34.4437
_cell_angle_alpha 86.724000
_cell_angle_beta 97.957800
_cell_angle_gamma 79.115100
loop_
  _atom_site_label
  _atom_site_type_symbol
  _atom_site_fract_x
  _atom_site_fract_y
  _atom_site_fract_z
O1 O 0.57191 0.45275 0.02819
 O2 O 0.46823 0.45777 0.04355
 O3 O 0.52438 0.40236 0.02773
 O4 O 0.51519 0.50769 0.04324
 O5 O 0.49519 0.52287 -0.02040
 O6 O 0.50488 0.41788 -0.03588
 O7 O 0.44808 0.47207 -0.02005
 O8 O 0.55182 0.46830 -0.03533
 Cu9 Cu 0.52200 0.45349 0.04205
 Cu10 Cu 0.49794 0.47180 -0.03429
 C11 C 0.57960 0.46024 -0.00612
 C12 C 0.44030 0.46558 0.01447
 C13 C 0.51594 0.39213 -0.00678
 C14 C 0.50386 0.53326 0.01397
 O15 O -0.02416 0.59163 0.50232
 O16 O -0.03638 0.48835 0.50917
 O17 O -0.02228 0.53852 0.55920
 O18 O -0.03786 0.54066 0.45120
 O19 O 0.02668 0.52045 0.45278
 O20 O 0.04234 0.51897 0.56049
 O21 O 0.02811 0.46818 0.50986
 O22 O 0.04014 0.57158 0.50266
 Cu23 Cu -0.03666 0.54193 0.50521
 Cu24 Cu 0.04080 0.51788 0.50660
 C25 C 0.01016 0.59941 0.50152
 C26 C -0.00627 0.46065 0.51076
 C27 C 0.01263 0.52824 0.57832
 C28 C -0.00816 0.53043 0.43352
 O29 O 0.49302 0.06307 0.54660
 O30 O 0.47998 0.06493 0.43844
 O31 O 0.43213 0.07234 0.49142
 O32 O 0.54050 0.05628 0.49413
 O33 O 0.54425 -0.00801 0.49979
 O34 O 0.43510 0.00813 0.49327
 O35 O 0.48502 0.00046 0.44279
 O36 O 0.49408 -0.00073 0.55095
 Cu37 Cu 0.48602 0.07056 0.49217
 Cu38 Cu 0.48997 -0.00648 0.49720
 C39 C 0.49514 0.03104 0.56741
 C40 C 0.48099 0.03289 0.42209
 C41 C 0.41508 0.04301 0.49189
 C42 C 0.56099 0.02147 0.49740
 C43 C 0.50270 -0.05052 0.01444
 C44 C 0.50434 -0.02063 -0.01235
 C45 C 0.50311 -0.02565 -0.05521
 C46 C 0.50788 0.01910 -0.00027
 C47 C 0.50184 -0.04460 0.05685
 C48 C 0.50200 -0.09115 0.00326
 C49 C 0.53157 -0.01260 -0.07521
 C50 C 0.52988 -0.01485 -0.11573
 C51 C 0.49974 -0.03036 -0.13723
 C52 C 0.47141 -0.04381 -0.11726
 C53 C 0.47280 -0.04106 -0.07668
 C54 C 0.53965 0.02445 0.02762
 C55 C 0.54388 0.06239 0.03661
 C56 C 0.51673 0.09551 0.01740
 C57 C 0.48471 0.08994 -0.01007
 C58 C 0.48041 0.05212 -0.01887
 C59 C 0.47218 -0.01640 0.06903
 C60 C 0.47020 -0.01354 0.10916
 C61 C 0.49751 -0.03918 0.13773
 C62 C 0.52750 -0.06686 0.12536
 C63 C 0.52956 -0.06958 0.08541
 C64 C 0.47287 -0.11052 0.01493
 C65 C 0.47306 -0.14953 0.00708
 C66 C 0.50235 -0.16993 -0.01269
 C67 C 0.53123 -0.15045 -0.02490
 C68 C 0.53133 -0.11148 -0.01659
 H69 H 0.55514 -0.00048 -0.05938
 H70 H 0.55229 -0.00460 -0.13031
 H71 H 0.44759 -0.05545 -0.13324
 H72 H 0.44989 -0.05038 -0.06218
 H73 H 0.56161 -0.00066 0.04173
 H74 H 0.56903 0.06592 0.05759
 H75 H 0.45577 0.04857 -0.04051
 H76 H 0.45001 0.00267 0.04749
 H77 H 0.44653 0.00780 0.11780
 H78 H 0.54932 -0.08661 0.14666
 H79 H 0.55265 -0.09156 0.07669
 H80 H 0.45009 -0.09544 0.03041
 H81 H 0.45032 -0.16384 0.01651
 H82 H 0.55439 -0.16578 -0.03978
 H83 H 0.55466 -0.09742 -0.02502
 H84 H 0.46305 0.11493 -0.02489
 C85 C -0.00979 0.48426 0.99567
 C86 C 0.02375 0.48305 1.02180
 C87 C 0.06330 0.48273 1.00940
 C88 C 0.02258 0.48320 1.06466
 C89 C -0.04826 0.48102 1.00879
 C90 C -0.01042 0.48908 0.95243
 C91 C 0.07877 0.45559 0.98392
 C92 C 0.11693 0.45457 0.97442
 C93 C 0.14053 0.47997 0.99104
 C94 C 0.12501 0.50710 1.01636
 C95 C 0.08677 0.50856 1.02532
 C96 C 0.04783 0.45348 1.09059
 C97 C 0.04992 0.45524 1.13116
 C98 C 0.02712 0.48704 1.14656
 C99 C 0.00116 0.51638 1.12047
 C100 C -0.00101 0.51451 1.07983
 C101 C -0.08255 0.50910 0.99354
 C102 C -0.11971 0.50428 1.00181
 C103 C -0.12335 0.47123 1.02550
 C104 C -0.08888 0.44373 1.04188
 C105 C -0.05164 0.44844 1.03334
 C106 C 0.00387 0.52004 0.93483
 C107 C 0.00039 0.52563 0.89388
 C108 C -0.01837 0.50101 0.87000
 C109 C -0.03254 0.47008 0.88758
 C110 C -0.02845 0.46408 0.92841
 H111 H 0.06164 0.43474 0.97200
 H112 H 0.12852 0.43314 0.95514
 H113 H 0.14259 0.52715 1.02929
 H114 H 0.07556 0.52971 1.04505
 H115 H 0.06631 0.42918 1.07933
 H116 H 0.06970 0.43188 1.15050
 H117 H -0.02012 0.53810 1.06021
 H118 H -0.08060 0.53440 0.97451
 H119 H -0.14574 0.52617 0.98927
 H120 H -0.09096 0.41783 1.05994
 H121 H -0.02566 0.42602 1.04478
 H122 H 0.01693 0.54033 0.95271
 H123 H 0.01118 0.54989 0.88080
 H124 H -0.04684 0.45059 0.86966
 H125 H -0.03984 0.44014 0.94133
 H126 H -0.01635 0.54151 1.13144
 C127 C 0.00093 0.01725 0.48621
 C128 C -0.02590 0.05052 0.48952
 C129 C -0.06851 0.05061 0.49192
 C130 C -0.01386 0.08933 0.48877
 C131 C 0.04234 0.01957 0.48167
 C132 C -0.00845 -0.02292 0.48889
 C133 C -0.09161 0.03265 0.46429
 C134 C -0.13213 0.03470 0.46579
 C135 C -0.15042 0.05551 0.49438
 C136 C -0.12731 0.07324 0.52203
 C137 C -0.08684 0.07074 0.52087
 C138 C -0.01529 0.11091 0.45274
 C139 C -0.00542 0.14820 0.45194
 C140 C 0.00523 0.16464 0.48721
 C141 C 0.00723 0.14273 0.52323
 C142 C -0.00169 0.10507 0.52398
 C143 C 0.07095 0.01802 0.51505
 C144 C 0.11054 0.01802 0.51096
 C145 C 0.12205 0.01880 0.47345
 C146 C 0.09319 0.02117 0.44004
 C147 C 0.05346 0.02213 0.44412
 C148 C -0.02598 -0.03606 0.52033
 C149 C -0.03285 -0.07456 0.52338
 C150 C -0.02144 -0.10086 0.49556
 C151 C -0.00396 -0.08772 0.46424
 C152 C 0.00236 -0.04921 0.46088
 H153 H -0.07846 0.01767 0.44113
 H154 H -0.14946 0.02113 0.44390
 H155 H -0.14064 0.08911 0.54460
 H156 H -0.06996 0.08469 0.54270
 H157 H -0.02437 0.09897 0.42533
 H158 H -0.00717 0.16471 0.42388
 H159 H 0.00024 0.08844 0.55200
 H160 H 0.06266 0.01629 0.54419
 H161 H 0.13244 0.01610 0.53705
 H162 H 0.10151 0.02208 0.41088
 H163 H 0.03152 0.02397 0.41808
 H164 H -0.03374 -0.01676 0.54286
 H165 H -0.04605 -0.08414 0.54802
 H166 H 0.00469 -0.10729 0.44217
 H167 H 0.01573 -0.04009 0.43625
 H168 H 0.01571 0.15482 0.55071
 C169 C -0.34796 0.45323 1.02018
 C170 C -0.30912 0.45623 1.01498
 C171 C -0.30109 0.46656 0.97703
 C172 C -0.33179 0.47305 0.94489
 C173 C -0.37035 0.47016 0.95032
 C174 C -0.37895 0.46065 0.98799
 C175 C -0.26266 0.47078 0.97184
 C176 C -0.23213 0.46496 1.00413
 C177 C -0.23988 0.45401 1.04203
 C178 C -0.27835 0.44967 1.04722
 C179 C -0.20902 0.44792 1.07411
 C180 C -0.17098 0.45311 1.06878
 C181 C -0.16326 0.46472 1.03135
 C182 C -0.19398 0.47025 0.99910
 H183 H -0.35414 0.44584 1.04939
 H184 H -0.32609 0.48087 0.91560
 H185 H -0.39358 0.47597 0.92502
 H186 H -0.25662 0.47902 0.94275
 H187 H -0.28442 0.44160 1.07633
 H188 H -0.21438 0.43942 1.10335
 H189 H -0.14773 0.44876 1.09403
 H190 H -0.18807 0.47850 0.96998
 C191 C 0.36971 0.47121 0.98860
 C192 C 0.33043 0.47169 0.99495
 C193 C 0.32184 0.46881 1.03384
 C194 C 0.35263 0.46464 1.06563
 C195 C 0.39170 0.46330 1.05914
 C196 C 0.40082 0.46683 1.02063
 C197 C 0.28264 0.46998 1.04040
 C198 C 0.25193 0.47330 1.00859
 C199 C 0.26050 0.47515 0.96964
 C200 C 0.29968 0.47469 0.96305
 C201 C 0.22967 0.47743 0.93800
 C202 C 0.19068 0.47826 0.94489
 C203 C 0.18187 0.47741 0.98346
 C204 C 0.21269 0.47472 1.01518
 H205 H 0.37600 0.47361 0.95868
 H206 H 0.34654 0.46221 1.09561
 H207 H 0.41471 0.45989 1.08452
 H208 H 0.27607 0.46815 1.07027
 H209 H 0.30625 0.47647 0.93319
 H210 H 0.23570 0.47868 0.90796
 H211 H 0.16722 0.48040 0.92010
 H212 H 0.20608 0.47348 1.04504
 C213 C -0.01692 -0.33002 0.50216
 C214 C -0.01169 -0.29078 0.50092
 C215 C 0.02578 -0.28233 0.49605
 C216 C 0.05753 -0.31319 0.49331
 C217 C 0.05237 -0.35217 0.49536
 C218 C 0.01509 -0.36120 0.49955
 C219 C 0.03102 -0.24319 0.49413
 C220 C -0.00059 -0.21235 0.49762
 C221 C -0.03785 -0.22076 0.50343
 C222 C -0.04327 -0.25991 0.50474
 C223 C -0.06906 -0.18980 0.50780
 C224 C -0.06354 -0.15085 0.50600
 C225 C -0.02690 -0.14219 0.49932
 C226 C 0.00453 -0.17317 0.49537
 H227 H -0.04583 -0.33618 0.50574
 H228 H 0.08649 -0.30722 0.48974
 H229 H 0.07770 -0.37521 0.49326
 H230 H 0.05971 -0.23675 0.49004
 H231 H -0.07195 -0.26634 0.50886
 H232 H -0.09778 -0.19569 0.51244
 H233 H -0.08816 -0.12737 0.50897
 H234 H 0.03307 -0.16672 0.49077
 C235 C 0.01412 0.38986 0.49798
 C236 C 0.00840 0.35077 0.49988
 C237 C -0.02251 0.34086 0.51890
 C238 C -0.04765 0.37028 0.53490
 C239 C -0.04242 0.40923 0.53193
 C240 C -0.01144 0.41933 0.51372
 C241 C -0.02813 0.30185 0.52124
 C242 C -0.00398 0.27275 0.50384
 C243 C 0.02629 0.28279 0.48392
 C244 C 0.03265 0.32162 0.48255
 C245 C 0.04937 0.25387 0.46530
 C246 C 0.04239 0.21544 0.46620
 C247 C 0.01287 0.20514 0.48647
 C248 C -0.01006 0.23385 0.50547
 H249 H 0.03780 0.39753 0.48346
 H250 H -0.07158 0.36324 0.54941
 H251 H -0.06237 0.43146 0.54434
 H252 H -0.05167 0.29425 0.53609
 H253 H 0.05604 0.32925 0.46751
 H254 H 0.07254 0.26106 0.44972
 H255 H 0.06027 0.19357 0.45139
 H256 H -0.03323 0.22601 0.52070
 C257 C 0.49619 -0.00293 -0.36773
 C258 C 0.49765 -0.00215 -0.32674
 C259 C 0.50223 0.03274 -0.30888
 C260 C 0.50472 0.06631 -0.33221
 C261 C 0.50239 0.06562 -0.37293
 C262 C 0.49817 0.03107 -0.39137
 C263 C 0.50392 0.03369 -0.26803
 C264 C 0.50039 0.00040 -0.24474
 C265 C 0.49509 -0.03433 -0.26255
 C266 C 0.49410 -0.03551 -0.30340
 C267 C 0.49069 -0.06724 -0.23916
 C268 C 0.49170 -0.06580 -0.19851
 C269 C 0.49761 -0.03163 -0.18047
 C270 C 0.50187 0.00141 -0.20388
 H271 H 0.49265 -0.02980 -0.38118
 H272 H 0.50813 0.09331 -0.31898
 H273 H 0.50410 0.09233 -0.38994
 H274 H 0.50766 0.06045 -0.25440
 H275 H 0.49023 -0.06223 -0.31703
 H276 H 0.48649 -0.09408 -0.25228
 H277 H 0.48857 -0.09166 -0.18102
 H278 H 0.50586 0.02810 -0.19028
 C279 C 0.48341 -0.00241 0.36061
 C280 C 0.48317 -0.00243 0.31980
 C281 C 0.47741 0.03367 0.29648
 C282 C 0.47163 0.06917 0.31442
 C283 C 0.47222 0.06892 0.35512
 C284 C 0.47836 0.03319 0.37869
 C285 C 0.47801 0.03365 0.25576
 C286 C 0.48470 -0.00206 0.23813
 C287 C 0.49027 -0.03810 0.26154
 C288 C 0.48926 -0.03805 0.30211
 C289 C 0.49720 -0.07374 0.24408
 C290 C 0.49920 -0.07383 0.20390
 C291 C 0.49417 -0.03831 0.18026
 C292 C 0.48646 -0.00240 0.19756
 H293 H 0.48827 -0.03022 0.37835
 H294 H 0.46711 0.09713 0.29703
 H295 H 0.46820 0.09679 0.36818
 H296 H 0.47376 0.06135 0.23792
 H297 H 0.49372 -0.06576 0.31999
 H298 H 0.50135 -0.10161 0.26155
 H299 H 0.50446 -0.10185 0.19120
 H300 H 0.48280 0.02516 0.17968
 C301 C 0.50276 -0.39769 -0.01184
 C302 C 0.50193 -0.35784 -0.00616
 C303 C 0.49873 -0.34449 0.03152
 C304 C 0.49694 -0.37130 0.06294
 C305 C 0.49857 -0.41107 0.05720
 C306 C 0.50135 -0.42457 0.01982
 C307 C 0.49773 -0.30468 0.03728
 C308 C 0.50054 -0.27815 0.00601
 C309 C 0.50441 -0.29157 -0.03153
 C310 C 0.50475 -0.33129 -0.03746
 C311 C 0.50808 -0.26502 -0.06245
 C312 C 0.50782 -0.22551 -0.05628
 C313 C 0.50338 -0.21185 -0.01924
 C314 C 0.49981 -0.23838 0.01180
 H315 H 0.50537 -0.40793 -0.04070
 H316 H 0.49460 -0.36159 0.09202
 H317 H 0.49740 -0.43126 0.08199
 H318 H 0.49508 -0.29441 0.06615
 H319 H 0.50753 -0.34158 -0.06629
 H320 H 0.51119 -0.27482 -0.09138
 H321 H 0.51045 -0.20543 -0.08058
 H322 H 0.49698 -0.22810 0.04061
 C323 C 0.52595 0.32117 0.01875
 C324 C 0.52526 0.28164 0.01252
 C325 C 0.51693 0.27081 -0.02627
 C326 C 0.51007 0.29943 -0.05812
 C327 C 0.51053 0.33867 -0.05167
 C328 C 0.51805 0.35005 -0.01326
 C329 C 0.51493 0.23170 -0.03265
 C330 C 0.52075 0.20326 -0.00074
 C331 C 0.52965 0.21378 0.03806
 C332 C 0.53200 0.25293 0.04446
 C333 C 0.53555 0.18500 0.06979
 C334 C 0.53194 0.14634 0.06316
 C335 C 0.52226 0.13591 0.02472
 C336 C 0.51723 0.16449 -0.00710
 H337 H 0.53177 0.32954 0.04852
 H338 H 0.50377 0.29158 -0.08801
 H339 H 0.50449 0.36023 -0.07687
 H340 H 0.50820 0.22353 -0.06241
 H341 H 0.53848 0.26113 0.07423
 H342 H 0.54248 0.19248 0.09973
 H343 H 0.53584 0.12478 0.08811
 H344 H 0.51050 0.15651 -0.03691
 C345 C -0.37647 0.04790 0.49863
 C346 C -0.33551 0.04281 0.49749
 C347 C -0.31299 0.00473 0.49528
 C348 C -0.33186 -0.02767 0.49477
 C349 C -0.37270 -0.02236 0.49607
 C350 C -0.39546 0.01547 0.49774
 C351 C -0.27208 -0.00028 0.49357
 C352 C -0.25339 0.03231 0.49436
 C353 C -0.27598 0.07030 0.49706
 C354 C -0.31686 0.07531 0.49842
 C355 C -0.25731 0.10276 0.49851
 C356 C -0.21656 0.09772 0.49755
 C357 C -0.19376 0.06022 0.49473
 C358 C -0.21242 0.02758 0.49284
 H359 H -0.39357 0.07724 0.50005
 H360 H -0.31509 -0.05710 0.49318
 H361 H -0.38655 -0.04786 0.49526
 H362 H -0.25481 -0.02947 0.49172
 H363 H -0.33412 0.10451 0.50029
 H364 H -0.27418 0.13205 0.50057
 H365 H -0.20281 0.12328 0.49868
 H366 H -0.19490 -0.00148 0.49099
 C367 C 0.34984 0.02186 0.47686
 C368 C 0.30879 0.02740 0.47787
 C369 C 0.28950 0.06051 0.49482
 C370 C 0.31134 0.08820 0.50919
 C371 C 0.35200 0.08290 0.50730
 C372 C 0.37168 0.04948 0.49167
 C373 C 0.24880 0.06533 0.49727
 C374 C 0.22694 0.03788 0.48227
 C375 C 0.24593 0.00556 0.46399
 C376 C 0.28678 0.00032 0.46225
 C377 C 0.22372 -0.02111 0.44785
 C378 C 0.18319 -0.01613 0.45022
 C379 C 0.16439 0.01516 0.46932
 C380 C 0.18635 0.04216 0.48526
 H381 H 0.36475 -0.00379 0.46436
 H382 H 0.29701 0.11387 0.52205
 H383 H 0.36830 0.10450 0.51898
 H384 H 0.23416 0.09041 0.51081
 H385 H 0.30143 -0.02479 0.44877
 H386 H 0.23772 -0.04589 0.43354
 H387 H 0.16661 -0.03724 0.43790
 H388 H 0.17172 0.06653 0.49974
 C389 C 0.01897 0.51680 1.37117
 C390 C 0.01395 0.51400 1.33046
 C391 C -0.02454 0.52410 1.30821
 C392 C -0.05733 0.53710 1.32719
 C393 C -0.05208 0.53966 1.36790
 C394 C -0.01393 0.52936 1.39027
 C395 C -0.02956 0.52079 1.26748
 C396 C 0.00346 0.50746 1.24885
 C397 C 0.04192 0.49753 1.27125
 C398 C 0.04691 0.50091 1.31185
 C399 C 0.07486 0.48430 1.25269
 C400 C 0.06987 0.48084 1.21227
 C401 C 0.03183 0.49042 1.18961
 C402 C -0.00132 0.50380 1.20817
 H403 H 0.04858 0.50872 1.38801
 H404 H -0.08705 0.54501 1.31062
 H405 H -0.07793 0.54941 1.38189
 H406 H -0.05908 0.52844 1.25036
 H407 H 0.07643 0.49318 1.32898
 H408 H 0.10453 0.47676 1.26942
 H409 H 0.09597 0.47121 1.19861
 H410 H -0.03083 0.51094 1.19106
 C411 C -0.01410 0.52688 0.64188
 C412 C -0.00878 0.52385 0.68307
 C413 C 0.02961 0.52124 0.70458
 C414 C 0.06204 0.52153 0.68439
 C415 C 0.05657 0.52391 0.64329
 C416 C 0.01849 0.52658 0.62171
 C417 C 0.03499 0.51783 0.74585
 C418 C 0.00259 0.51614 0.76579
 C419 C -0.03572 0.51840 0.74414
 C420 C -0.04121 0.52267 0.70297
 C421 C -0.06788 0.51572 0.76403
 C422 C -0.06210 0.51025 0.80499
 C423 C -0.02424 0.50799 0.82674
 C424 C 0.00796 0.51143 0.80704
 H425 H -0.04356 0.52861 0.62556
 H426 H 0.09168 0.51950 0.70037
 H427 H 0.08213 0.52374 0.62838
 H428 H 0.06441 0.51583 0.76239
 H429 H -0.07060 0.52441 0.68643
 H430 H -0.09739 0.51737 0.74789
 H431 H -0.08728 0.50792 0.81982
 H432 H 0.03729 0.50933 0.82380
   
