data_POSCAR
  _audit_creation_date              2014-09-24
  _audit_creation_method            'ToBaCCo'
  _symmetry_space_group_name_H-M    'P1'
  _symmetry_Int_Tables_number       1
  _symmetry_cell_setting            triclinic
  loop_
  _symmetry_equiv_pos_as_xyz
 x,y,z
_cell_length_a 47.7448
_cell_length_b 47.7892
_cell_length_c 30.6055
_cell_angle_alpha 89.698600
_cell_angle_beta 89.822100
_cell_angle_gamma 86.607800
loop_
  _atom_site_label
  _atom_site_type_symbol
  _atom_site_fract_x
  _atom_site_fract_y
  _atom_site_fract_z
C1 C -0.01634 0.26012 0.03556
 C2 C -0.01777 0.25192 -0.00913
 C3 C 0.00737 0.24713 -0.03285
 C4 C 0.03364 0.25377 -0.01612
 C5 C 0.03462 0.26356 0.02753
 C6 C 0.00980 0.26696 0.05217
 H7 H 0.01115 0.27416 0.08562
 H8 H 0.00590 0.23893 -0.06551
 C9 C 0.48091 0.76922 0.51721
 C10 C 0.48151 0.77077 0.47097
 C11 C 0.50682 0.77527 0.44953
 C12 C 0.53151 0.77935 0.47291
 C13 C 0.53085 0.77839 0.51906
 C14 C 0.50566 0.77322 0.54067
 H15 H 0.50560 0.77185 0.57596
 H16 H 0.50720 0.77496 0.41417
 C17 C 1.03093 0.73981 0.03354
 C18 C 1.03387 0.73946 -0.01257
 C19 C 1.00981 0.73929 -0.03898
 C20 C 0.98268 0.73891 -0.02103
 C21 C 0.97978 0.73966 0.02521
 C22 C 1.00381 0.73947 0.05159
 H23 H 1.00087 0.74162 0.08653
 H24 H 1.01229 0.73787 -0.07412
 C25 C 0.53388 0.23252 0.54078
 C26 C 0.53560 0.23150 0.49471
 C27 C 0.51068 0.23233 0.47016
 C28 C 0.48423 0.23422 0.49078
 C29 C 0.48274 0.23454 0.53702
 C30 C 0.50755 0.23381 0.56127
 H31 H 0.50628 0.23386 0.59664
 H32 H 0.51183 0.23342 0.43488
 C33 C 0.71662 -0.01790 0.02129
 C34 C 0.72196 -0.01831 -0.02457
 C35 C 0.72161 0.00717 -0.04800
 C36 C 0.71732 0.03304 -0.02660
 C37 C 0.71253 0.03338 0.01894
 C38 C 0.71222 0.00811 0.04208
 H39 H 0.70807 0.00880 0.07696
 H40 H 0.72700 0.00684 -0.08240
 C41 C 0.23188 0.47340 0.51819
 C42 C 0.23397 0.47070 0.47222
 C43 C 0.23255 0.49500 0.44599
 C44 C 0.23008 0.52183 0.46452
 C45 C 0.22810 0.52447 0.51052
 C46 C 0.22907 0.50016 0.53663
 H47 H 0.22696 0.50201 0.57179
 H48 H 0.23493 0.49321 0.41088
 C49 C 0.27573 1.02184 0.00978
 C50 C 0.27392 1.02164 -0.03687
 C51 C 0.27212 0.99570 -0.05819
 C52 C 0.27199 0.97030 -0.03506
 C53 C 0.27334 0.97050 0.01095
 C54 C 0.27528 0.99611 0.03268
 H55 H 0.27837 0.99540 0.06762
 H56 H 0.26840 0.99515 -0.09291
 C57 C 0.75338 0.52987 0.51939
 C58 C 0.74663 0.52838 0.47454
 C59 C 0.74545 0.50227 0.45442
 C60 C 0.75170 0.47716 0.47731
 C61 C 0.75769 0.47837 0.52252
 C62 C 0.75862 0.50470 0.54285
 H63 H 0.76323 0.50543 0.57735
 H64 H 0.73942 0.50171 0.42035
 O65 O 0.25128 0.26882 0.30447
 O66 O 0.25953 0.19701 0.26119
 O67 O 0.29147 0.22964 0.30417
 O68 O 0.21947 0.23627 0.26171
 O69 O 0.23524 0.25329 0.19968
 O70 O 0.30755 0.24600 0.24194
 O71 O 0.27511 0.21377 0.19888
 O72 O 0.26740 0.28544 0.24240
 Cu73 Cu 0.25391 0.23125 0.28917
 Cu74 Cu 0.27299 0.25125 0.21446
 C75 C 0.25787 0.28935 0.28077
 C76 C 0.26848 0.19321 0.22245
 C77 C 0.31176 0.23675 0.28046
 C78 C 0.21507 0.24598 0.22353
 O79 O 0.74582 0.79051 0.20699
 O80 O 0.76106 0.73554 0.28912
 O81 O 0.78779 0.75486 0.22169
 O82 O 0.71886 0.77077 0.27268
 O83 O 0.70005 0.74055 0.22876
 O84 O 0.76932 0.72334 0.17973
 O85 O 0.74173 0.70490 0.24660
 O86 O 0.72773 0.75983 0.16312
 Cu87 Cu 0.75535 0.76596 0.25196
 Cu88 Cu 0.73291 0.72899 0.20019
 C89 C 0.73418 0.78467 0.17121
 C90 C 0.75365 0.71092 0.28214
 C91 C 0.79026 0.73643 0.19194
 C92 C 0.69767 0.75849 0.25915
 O93 O 0.79696 0.24492 0.24269
 O94 O 0.73112 0.23705 0.30563
 O95 O 0.76099 0.20556 0.25507
 O96 O 0.77049 0.27171 0.31005
 O97 O 0.74730 0.29491 0.25768
 O98 O 0.73798 0.22758 0.20119
 O99 O 0.70751 0.25845 0.25183
 O100 O 0.77211 0.26647 0.19049
 Cu101 Cu 0.76785 0.23816 0.28269
 Cu102 Cu 0.73930 0.26483 0.22094
 C103 C 0.79537 0.25644 0.20502
 C104 C 0.70794 0.24605 0.28848
 C105 C 0.74780 0.20499 0.21932
 C106 C 0.76012 0.29449 0.29418
 O107 O 0.25507 0.78718 0.22713
 O108 O 0.25094 0.72139 0.29028
 O109 O 0.22238 0.74492 0.22690
 O110 O 0.28411 0.76253 0.29066
 O111 O 0.25653 0.78461 0.33899
 O112 O 0.19472 0.76815 0.27395
 O113 O 0.22315 0.74372 0.33812
 O114 O 0.22792 0.80933 0.27596
 Cu115 Cu 0.25593 0.75191 0.25377
 Cu116 Cu 0.22277 0.77868 0.31150
 C117 C 0.24218 0.80948 0.24095
 C118 C 0.23633 0.72146 0.32507
 C119 C 0.19807 0.75354 0.23954
 C120 C 0.28085 0.77614 0.32603
 O121 O 0.76460 0.22049 0.76920
 O122 O 0.76940 0.29318 0.73160
 O123 O 0.79502 0.26173 0.79159
 O124 O 0.73744 0.25279 0.71361
 O125 O 0.70700 0.26745 0.76422
 O126 O 0.76415 0.27616 0.84167
 O127 O 0.73879 0.30784 0.78192
 O128 O 0.73360 0.23481 0.81921
 Cu129 Cu 0.76988 0.25569 0.74661
 Cu130 Cu 0.73300 0.27306 0.80704
 C131 C 0.74785 0.21518 0.79995
 C132 C 0.75453 0.31280 0.74959
 C133 C 0.78929 0.27034 0.83004
 C134 C 0.71233 0.25855 0.72593
 O135 O 0.30440 0.73024 0.76015
 O136 O 0.23266 0.72919 0.80562
 O137 O 0.26419 0.69564 0.75649
 O138 O 0.27391 0.76170 0.81277
 O139 O 0.25721 0.78550 0.75549
 O140 O 0.24747 0.71868 0.69853
 O141 O 0.21621 0.75243 0.74768
 O142 O 0.28730 0.75344 0.70262
 Cu143 Cu 0.27043 0.72673 0.78945
 Cu144 Cu 0.25037 0.75482 0.72026
 C145 C 0.30797 0.74220 0.72353
 C146 C 0.21229 0.74096 0.78443
 C147 C 0.25436 0.69576 0.71808
 C148 C 0.26722 0.78480 0.79400
 O149 O 0.23362 0.27151 0.69204
 O150 O 0.24968 0.20400 0.74815
 O151 O 0.27484 0.23346 0.68977
 O152 O 0.20869 0.24200 0.75162
 O153 O 0.18679 0.22059 0.69910
 O154 O 0.25331 0.21124 0.63775
 O155 O 0.22769 0.18219 0.69615
 O156 O 0.21211 0.24951 0.63975
 Cu157 Cu 0.24384 0.24002 0.72560
 Cu158 Cu 0.21776 0.21374 0.66294
 C159 C 0.22037 0.27193 0.65605
 C160 C 0.24127 0.18161 0.73175
 C161 C 0.27540 0.22084 0.65333
 C162 C 0.18653 0.23248 0.73612
 O163 O 0.72826 0.76292 0.70384
 O164 O 0.79927 0.75546 0.75244
 O165 O 0.76839 0.72387 0.70458
 O166 O 0.75975 0.79558 0.74739
 O167 O 0.74215 0.77939 0.80870
 O168 O 0.75022 0.70733 0.76520
 O169 O 0.78094 0.73876 0.81278
 O170 O 0.71047 0.74696 0.76517
 Cu171 Cu 0.76582 0.76107 0.72102
 Cu172 Cu 0.74423 0.74147 0.79408
 C173 C 0.70728 0.75612 0.72645
 C174 C 0.80210 0.74584 0.79110
 C175 C 0.76037 0.70344 0.72712
 C176 C 0.74945 0.79977 0.78519
 C177 C 0.27968 0.04703 0.03257
 C178 C 0.27387 0.05155 0.07702
 C179 C 0.27586 0.07926 0.09805
 C180 C 0.27876 0.08054 0.14362
 C181 C 0.27973 0.10637 0.16473
 C182 C 0.27749 0.13152 0.14055
 C183 C 0.27475 0.13023 0.09503
 C184 C 0.27365 0.10449 0.07399
 C185 C 0.27787 0.15944 0.16122
 C186 C 0.27066 0.16459 0.20479
 H187 H 0.26651 0.03493 0.09733
 H188 H 0.28039 0.06145 0.16294
 H189 H 0.28251 0.10644 0.19977
 H190 H 0.27283 0.14930 0.07568
 H191 H 0.27027 0.10467 0.03908
 H192 H 0.28203 0.17709 0.14030
 H193 H 0.28762 0.06434 0.01461
 H194 H 0.26484 0.14768 0.22595
 C195 C 0.75288 0.55740 0.54201
 C196 C 0.76859 0.56242 0.57937
 C197 C 0.76813 0.59014 0.60088
 C198 C 0.77352 0.59144 0.64586
 C199 C 0.77341 0.61729 0.66716
 C200 C 0.76820 0.64241 0.64363
 C201 C 0.76359 0.64110 0.59843
 C202 C 0.76344 0.61527 0.57723
 C203 C 0.76818 0.67029 0.66461
 C204 C 0.76236 0.67494 0.70885
 H205 H 0.78141 0.54553 0.59411
 H206 H 0.77767 0.57237 0.66463
 H207 H 0.77790 0.61748 0.70177
 H208 H 0.75998 0.66016 0.57943
 H209 H 0.76024 0.61515 0.54224
 H210 H 0.77104 0.68823 0.64361
 H211 H 0.73968 0.57443 0.52843
 H212 H 0.75729 0.65772 0.72997
 C213 C 0.71668 0.95812 0.04845
 C214 C 0.71189 0.93092 0.03496
 C215 C 0.71759 0.90623 0.06365
 C216 C 0.70433 0.88137 0.05540
 C217 C 0.70968 0.85768 0.08185
 C218 C 0.72876 0.85842 0.11676
 C219 C 0.74228 0.88317 0.12445
 C220 C 0.73697 0.90673 0.09807
 C221 C 0.73473 0.83447 0.14680
 C222 C 0.72789 0.80697 0.13879
 H223 H 0.70243 0.92758 0.00351
 H224 H 0.68956 0.88038 0.02872
 H225 H 0.69849 0.83918 0.07517
 H226 H 0.75720 0.88426 0.15091
 H227 H 0.74847 0.92511 0.10445
 H228 H 0.74570 0.83873 0.17678
 H229 H 0.71889 0.96125 0.08329
 H230 H 0.71801 0.80145 0.10856
 C231 C 0.23305 0.44902 0.54848
 C232 C 0.21791 0.42533 0.54128
 C233 C 0.21973 0.39995 0.56948
 C234 C 0.19968 0.37989 0.56429
 C235 C 0.20118 0.35512 0.58892
 C236 C 0.22306 0.34972 0.61906
 C237 C 0.24287 0.36992 0.62470
 C238 C 0.24142 0.39466 0.60001
 C239 C 0.22600 0.32340 0.64497
 C240 C 0.21474 0.29844 0.63210
 H241 H 0.20377 0.42551 0.51363
 H242 H 0.18276 0.38340 0.54104
 H243 H 0.18504 0.34047 0.58441
 H244 H 0.25994 0.36628 0.64768
 H245 H 0.25772 0.40913 0.60440
 H246 H 0.23929 0.32314 0.67363
 H247 H 0.24422 0.45110 0.57885
 H248 H 0.20292 0.29763 0.60209
 C249 C 0.96136 0.25992 0.06610
 C250 C 0.93863 0.24278 0.06360
 C251 C 0.91559 0.24382 0.09619
 C252 C 0.88833 0.23915 0.08223
 C253 C 0.86595 0.24042 0.11184
 C254 C 0.87046 0.24598 0.15630
 C255 C 0.89789 0.24959 0.17060
 C256 C 0.92026 0.24877 0.14081
 C257 C 0.84698 0.24728 0.18816
 C258 C 0.82011 0.25757 0.17639
 H259 H 0.93693 0.22859 0.03646
 H260 H 0.88430 0.23483 0.04818
 H261 H 0.84520 0.23660 0.09996
 H262 H 0.90196 0.25339 0.20480
 H263 H 0.94118 0.25150 0.15293
 H264 H 0.85108 0.24079 0.22162
 H265 H 0.96327 0.27196 0.09572
 H266 H 0.81671 0.26628 0.14396
 C267 C 0.45523 0.76131 0.54051
 C268 C 0.44775 0.77089 0.58219
 C269 C 0.42059 0.76514 0.60267
 C270 C 0.41848 0.76415 0.64838
 C271 C 0.39279 0.75968 0.66861
 C272 C 0.36866 0.75646 0.64330
 C273 C 0.37074 0.75787 0.59763
 C274 C 0.39641 0.76208 0.57744
 C275 C 0.34073 0.75338 0.66310
 C276 C 0.33644 0.74326 0.70532
 H277 H 0.46190 0.78323 0.60047
 H278 H 0.43674 0.76693 0.66846
 H279 H 0.39181 0.75957 0.70392
 H280 H 0.35235 0.75593 0.57746
 H281 H 0.39700 0.76376 0.54218
 H282 H 0.32258 0.75877 0.64289
 H283 H 0.44129 0.74805 0.52355
 H284 H 0.35401 0.73568 0.72520
 C285 C 0.05441 0.74311 0.06068
 C286 C 0.05535 0.73667 0.10528
 C287 C 0.07958 0.74341 0.13220
 C288 C 0.09196 0.72314 0.16051
 C289 C 0.11501 0.72938 0.18607
 C290 C 0.12530 0.75631 0.18474
 C291 C 0.11236 0.77682 0.15743
 C292 C 0.08994 0.77030 0.13077
 C293 C 0.14919 0.76340 0.21211
 C294 C 0.17367 0.74610 0.21394
 H295 H 0.03947 0.72442 0.12011
 H296 H 0.08406 0.70238 0.16230
 H297 H 0.12448 0.71336 0.20744
 H298 H 0.11991 0.79775 0.15622
 H299 H 0.08036 0.78638 0.10963
 H300 H 0.14856 0.78371 0.22776
 H301 H 0.07332 0.75073 0.04641
 H302 H 0.17564 0.72756 0.19367
 C303 C 0.55957 0.23174 0.56779
 C304 C 0.56177 0.24888 0.60422
 C305 C 0.58780 0.25064 0.62985
 C306 C 0.61444 0.24242 0.61290
 C307 C 0.63855 0.24509 0.63794
 C308 C 0.63654 0.25630 0.68035
 C309 C 0.60993 0.26459 0.69702
 C310 C 0.58586 0.26191 0.67200
 C311 C 0.66127 0.25970 0.70850
 C312 C 0.68918 0.25472 0.69543
 H313 H 0.54356 0.26186 0.61439
 H314 H 0.61699 0.23443 0.58006
 H315 H 0.65849 0.23832 0.62364
 H316 H 0.60771 0.27331 0.72954
 H317 H 0.56563 0.26862 0.68570
 H318 H 0.65719 0.26682 0.74161
 H319 H 0.57733 0.21837 0.55724
 H320 H 0.69453 0.24793 0.66271
 C321 C 0.72116 0.05985 0.95015
 C322 C 0.71481 0.06520 0.90639
 C323 C 0.71602 0.09397 0.88879
 C324 C 0.72646 0.09844 0.84664
 C325 C 0.72947 0.12576 0.83121
 C326 C 0.72170 0.14901 0.85767
 C327 C 0.70990 0.14441 0.89886
 C328 C 0.70715 0.11723 0.91435
 C329 C 0.72512 0.17826 0.84354
 C330 C 0.74489 0.18579 0.81269
 H331 H 0.70922 0.04849 0.88494
 H332 H 0.73294 0.08081 0.82613
 H333 H 0.73769 0.12854 0.79861
 H334 H 0.70325 0.16193 0.91951
 H335 H 0.69811 0.11443 0.94646
 H336 H 0.71255 0.19471 0.85990
 H337 H 0.72873 0.07691 0.96909
 H338 H 0.75861 0.16991 0.79727
 C339 C 0.23034 0.54631 0.43451
 C340 C 0.24643 0.56920 0.44258
 C341 C 0.24556 0.59458 0.41474
 C342 C 0.24949 0.62054 0.43426
 C343 C 0.24886 0.64505 0.40911
 C344 C 0.24469 0.64398 0.36371
 C345 C 0.24150 0.61792 0.34399
 C346 C 0.24166 0.59342 0.36928
 C347 C 0.24472 0.66954 0.33623
 C348 C 0.23489 0.69579 0.35146
 H349 H 0.25900 0.56932 0.47195
 H350 H 0.25285 0.62186 0.46918
 H351 H 0.25222 0.66470 0.42515
 H352 H 0.23869 0.61656 0.30897
 H353 H 0.23934 0.57362 0.35311
 H354 H 0.25160 0.66744 0.30258
 H355 H 0.21855 0.54549 0.40445
 H356 H 0.22541 0.69763 0.38359
 C357 C 0.26797 0.94387 0.94105
 C358 C 0.27853 0.93870 0.89902
 C359 C 0.27434 0.91251 0.87491
 C360 C 0.26911 0.88731 0.89652
 C361 C 0.26563 0.86292 0.87276
 C362 C 0.26774 0.86304 0.82690
 C363 C 0.27272 0.88823 0.80531
 C364 C 0.27625 0.91267 0.82912
 C365 C 0.26461 0.83733 0.80104
 C366 C 0.27108 0.81068 0.81823
 H367 H 0.28998 0.95460 0.88261
 H368 H 0.26814 0.88606 0.93176
 H369 H 0.26103 0.84412 0.89055
 H370 H 0.27427 0.88890 0.77001
 H371 H 0.28035 0.93181 0.81171
 H372 H 0.25815 0.83948 0.76722
 H373 H 0.25608 0.92826 0.95720
 H374 H 0.27965 0.80841 0.85083
 C375 C 0.75037 0.44995 0.45417
 C376 C 0.75754 0.44688 0.40997
 C377 C 0.75532 0.42066 0.38491
 C378 C 0.75557 0.39416 0.40513
 C379 C 0.75413 0.36993 0.38000
 C380 C 0.75261 0.37165 0.33410
 C381 C 0.75198 0.39812 0.31406
 C382 C 0.75363 0.42233 0.33916
 C383 C 0.75116 0.34636 0.30656
 C384 C 0.76280 0.32022 0.31958
 H385 H 0.76465 0.46480 0.39221
 H386 H 0.75736 0.39189 0.44019
 H387 H 0.75390 0.34995 0.39673
 H388 H 0.75062 0.40004 0.27883
 H389 H 0.75344 0.44248 0.32275
 H390 H 0.74156 0.34859 0.27460
 H391 H 0.74333 0.43222 0.47230
 H392 H 0.77420 0.31821 0.35006
 C393 C 0.05845 0.25063 0.95812
 C394 C 0.05914 0.24696 0.91258
 C395 C 0.08531 0.24528 0.88602
 C396 C 0.08317 0.24964 0.84067
 C397 C 0.10708 0.24851 0.81414
 C398 C 0.13379 0.24281 0.83241
 C399 C 0.13602 0.23842 0.87767
 C400 C 0.11207 0.23932 0.90420
 C401 C 0.15966 0.24183 0.80550
 C402 C 0.16018 0.23484 0.76124
 H403 H 0.03985 0.24781 0.89422
 H404 H 0.06288 0.25427 0.82569
 H405 H 0.10457 0.25267 0.77956
 H406 H 0.15638 0.23390 0.89249
 H407 H 0.11482 0.23497 0.93865
 H408 H 0.17932 0.24499 0.82183
 H409 H 0.07832 0.25267 0.97394
 H410 H 0.14121 0.22915 0.74515
 C411 C 0.55853 0.78183 0.44941
 C412 C 0.56067 0.79267 0.40717
 C413 C 0.58770 0.79199 0.38350
 C414 C 0.58792 0.78814 0.33812
 C415 C 0.61331 0.78531 0.31529
 C416 C 0.63892 0.78662 0.33754
 C417 C 0.63861 0.79209 0.38250
 C418 C 0.61325 0.79463 0.40539
 C419 C 0.66621 0.78218 0.31500
 C420 C 0.66994 0.76477 0.27878
 H421 H 0.54200 0.80012 0.38973
 H422 H 0.56843 0.78654 0.32050
 H423 H 0.61279 0.78214 0.28033
 H424 H 0.65807 0.79371 0.40016
 H425 H 0.61372 0.79865 0.44015
 H426 H 0.68438 0.79089 0.32966
 H427 H 0.57747 0.77385 0.46564
 H428 H 0.65239 0.75423 0.26565
 C429 C 0.96003 0.73773 0.94940
 C430 C 0.93427 0.72661 0.95934
 C431 C 0.90995 0.72732 0.92915
 C432 C 0.88796 0.70999 0.93843
 C433 C 0.86385 0.71105 0.91263
 C434 C 0.86108 0.72943 0.87680
 C435 C 0.88313 0.74678 0.86719
 C436 C 0.90730 0.74579 0.89318
 C437 C 0.83420 0.73102 0.85250
 C438 C 0.83017 0.74328 0.81123
 H439 H 0.93214 0.71509 0.98953
 H440 H 0.88926 0.69577 0.96613
 H441 H 0.84711 0.69763 0.92105
 H442 H 0.88149 0.76181 0.84066
 H443 H 0.92334 0.76014 0.88571
 H444 H 0.81651 0.72178 0.86809
 H445 H 0.96380 0.74324 0.91561
 H446 H 0.84762 0.75116 0.79330
 C447 C 0.45842 0.23854 0.46434
 C448 C 0.45423 0.22468 0.42512
 C449 C 0.42651 0.22563 0.40354
 C450 C 0.42497 0.22263 0.35805
 C451 C 0.39891 0.22322 0.33711
 C452 C 0.37392 0.22650 0.36154
 C453 C 0.37554 0.22865 0.40712
 C454 C 0.40150 0.22828 0.42794
 C455 C 0.34583 0.22707 0.34122
 C456 C 0.34051 0.23458 0.29777
 H457 H 0.47145 0.21241 0.41015
 H458 H 0.44397 0.21998 0.33870
 H459 H 0.39849 0.22061 0.30204
 H460 H 0.35661 0.23071 0.42675
 H461 H 0.40182 0.22951 0.46322
 H462 H 0.32820 0.22307 0.36230
 H463 H 0.44144 0.25186 0.47774
 H464 H 0.35739 0.24034 0.27650
 C465 C 0.73228 0.95573 0.95299
 C466 C 0.72112 0.94720 0.91352
 C467 C 0.72678 0.91858 0.89580
 C468 C 0.72306 0.91398 0.85101
 C469 C 0.72702 0.88699 0.83362
 C470 C 0.73450 0.86398 0.86094
 C471 C 0.73771 0.86852 0.90581
 C472 C 0.73405 0.89548 0.92309
 C473 C 0.73803 0.83497 0.84414
 C474 C 0.74597 0.82873 0.80124
 H475 H 0.70695 0.96163 0.89572
 H476 H 0.71695 0.93130 0.82943
 H477 H 0.72349 0.88418 0.79907
 H478 H 0.74305 0.85109 0.92762
 H479 H 0.73621 0.89788 0.95799
 H480 H 0.73562 0.81787 0.86699
 H481 H 0.74755 0.94206 0.96994
 H482 H 0.75068 0.84544 0.77887
 C483 C 0.24011 0.44290 0.45202
 C484 C 0.22906 0.43536 0.41191
 C485 C 0.23342 0.40678 0.39385
 C486 C 0.23234 0.40309 0.34848
 C487 C 0.23622 0.37633 0.33037
 C488 C 0.24108 0.35268 0.35750
 C489 C 0.24132 0.35632 0.40294
 C490 C 0.23759 0.38307 0.42101
 C491 C 0.24501 0.32394 0.33980
 C492 C 0.25438 0.31815 0.29740
 H493 H 0.21690 0.45086 0.39285
 H494 H 0.22859 0.42098 0.32696
 H495 H 0.23487 0.37431 0.29529
 H496 H 0.24448 0.33840 0.42456
 H497 H 0.23741 0.38495 0.45623
 H498 H 0.24145 0.30659 0.36167
 H499 H 0.25304 0.42762 0.47022
 H500 H 0.25988 0.33497 0.27582
 C501 C 0.27137 0.04695 0.93860
 C502 C 0.27665 0.04918 0.89362
 C503 C 0.27277 0.07587 0.86884
 C504 C 0.26851 0.07477 0.82355
 C505 C 0.26454 0.09938 0.79889
 C506 C 0.26482 0.12574 0.81913
 C507 C 0.27001 0.12684 0.86417
 C508 C 0.27396 0.10223 0.88884
 C509 C 0.26029 0.15242 0.79452
 C510 C 0.24689 0.15454 0.75405
 H511 H 0.28401 0.03097 0.87516
 H512 H 0.26806 0.05475 0.80720
 H513 H 0.26165 0.09753 0.76404
 H514 H 0.27087 0.14685 0.88043
 H515 H 0.27839 0.10409 0.92328
 H516 H 0.26640 0.17144 0.81005
 H517 H 0.26441 0.06594 0.95524
 H518 H 0.23910 0.13619 0.73882
 C519 C 0.74056 0.55336 0.44682
 C520 C 0.75965 0.57416 0.44204
 C521 C 0.75659 0.59681 0.40888
 C522 C 0.77145 0.62100 0.41429
 C523 C 0.76967 0.64252 0.38308
 C524 C 0.75292 0.64019 0.34561
 C525 C 0.73848 0.61575 0.33991
 C526 C 0.74030 0.59427 0.37102
 C527 C 0.75010 0.66224 0.31138
 C528 C 0.75873 0.68944 0.31622
 H529 H 0.77786 0.57361 0.46317
 H530 H 0.78451 0.62326 0.44280
 H531 H 0.78177 0.66057 0.38842
 H532 H 0.72576 0.61319 0.31112
 H533 H 0.72939 0.57557 0.36454
 H534 H 0.73961 0.65709 0.28137
 H535 H 0.72226 0.55332 0.42612
 H536 H 0.76842 0.69583 0.34612
 C537 C 0.06209 0.73610 0.96687
 C538 C 0.06850 0.74737 0.92615
 C539 C 0.09654 0.74314 0.90569
 C540 C 0.09873 0.74425 0.86004
 C541 C 0.12485 0.74039 0.83952
 C542 C 0.14946 0.73586 0.86444
 C543 C 0.14722 0.73469 0.91012
 C544 C 0.12109 0.73845 0.93062
 C545 C 0.17769 0.73242 0.84423
 C546 C 0.18367 0.74203 0.80232
 H547 H 0.05227 0.75903 0.90787
 H548 H 0.08011 0.74776 0.84014
 H549 H 0.12547 0.74065 0.80422
 H550 H 0.16583 0.73132 0.93008
 H551 H 0.12038 0.73827 0.96594
 H552 H 0.19482 0.72374 0.86421
 H553 H 0.07817 0.72375 0.98435
 H554 H 0.16734 0.75233 0.78261
 C555 C 0.56331 0.23257 0.47273
 C556 C 0.56984 0.22009 0.43257
 C557 C 0.59795 0.22132 0.41221
 C558 C 0.60033 0.22037 0.36657
 C559 C 0.62638 0.22259 0.34627
 C560 C 0.65069 0.22562 0.37134
 C561 C 0.64853 0.22516 0.41703
 C562 C 0.62244 0.22312 0.43734
 C563 C 0.67840 0.22917 0.35073
 C564 C 0.68092 0.24211 0.31011
 H565 H 0.55375 0.20993 0.41477
 H566 H 0.58189 0.21839 0.34654
 H567 H 0.62741 0.22172 0.31098
 H568 H 0.66701 0.22688 0.43706
 H569 H 0.62161 0.22273 0.47267
 H570 H 0.69719 0.22303 0.36899
 H571 H 0.57932 0.24359 0.48925
 H572 H 0.66224 0.25023 0.29325
 C573 C 0.95741 0.25064 0.96631
 C574 C 0.93314 0.26805 0.97250
 C575 C 0.90929 0.26811 0.94175
 C576 C 0.88190 0.27337 0.95745
 C577 C 0.85898 0.27291 0.92911
 C578 C 0.86315 0.26766 0.88418
 C579 C 0.89067 0.26308 0.86852
 C580 C 0.91349 0.26343 0.89683
 C581 C 0.83978 0.26609 0.85261
 C582 C 0.81174 0.27353 0.86210
 H583 H 0.93142 0.28225 0.99991
 H584 H 0.87820 0.27728 0.99189
 H585 H 0.83824 0.27625 0.94296
 H586 H 0.89458 0.25923 0.83411
 H587 H 0.93439 0.26042 0.88321
 H588 H 0.84498 0.25869 0.81999
 H589 H 0.95846 0.23801 0.93700
 H590 H 0.80562 0.28174 0.89374
 C591 C 0.45663 0.76688 0.44324
 C592 C 0.43048 0.78058 0.45138
 C593 C 0.40549 0.77762 0.42343
 C594 C 0.38268 0.79740 0.42716
 C595 C 0.35868 0.79532 0.40150
 C596 C 0.35693 0.77314 0.37175
 C597 C 0.37971 0.75335 0.36810
 C598 C 0.40362 0.75537 0.39384
 C599 C 0.33207 0.76998 0.34369
 C600 C 0.30531 0.78191 0.35300
 H601 H 0.42852 0.79498 0.47859
 H602 H 0.38352 0.81470 0.44976
 H603 H 0.34187 0.81136 0.40466
 H604 H 0.37886 0.73600 0.34559
 H605 H 0.42027 0.73917 0.39076
 H606 H 0.33461 0.75616 0.31581
 H607 H 0.46010 0.75549 0.41309
 H608 H 0.30166 0.79436 0.38209
 C609 C 0.27439 0.94385 0.03638
 C610 C 0.26132 0.94154 0.07704
 C611 C 0.26079 0.91492 0.10210
 C612 C 0.23971 0.91216 0.13358
 C613 C 0.23834 0.88749 0.15801
 C614 C 0.25843 0.86504 0.15200
 C615 C 0.27953 0.86779 0.12048
 C616 C 0.28085 0.89249 0.09593
 C617 C 0.25773 0.83842 0.17719
 C618 C 0.24330 0.83606 0.21668
 H619 H 0.24925 0.95964 0.08974
 H620 H 0.22396 0.92907 0.13892
 H621 H 0.22120 0.88607 0.18090
 H622 H 0.29525 0.85087 0.11512
 H623 H 0.29785 0.89399 0.07279
 H624 H 0.26968 0.82017 0.16477
 H625 H 0.28410 0.92530 0.02129
 H626 H 0.23252 0.85430 0.23108
 C627 C 0.76372 0.45241 0.54854
 C628 C 0.75490 0.44995 0.59192
 C629 C 0.75939 0.42402 0.61834
 C630 C 0.74193 0.42010 0.65454
 C631 C 0.74491 0.39564 0.67976
 C632 C 0.76578 0.37463 0.66955
 C633 C 0.78365 0.37889 0.63390
 C634 C 0.78063 0.40333 0.60865
 C635 C 0.76868 0.34746 0.69330
 C636 C 0.75461 0.34152 0.73208
 H637 H 0.74228 0.46713 0.60625
 H638 H 0.72550 0.43580 0.66284
 H639 H 0.73033 0.39322 0.70635
 H640 H 0.79996 0.36312 0.62534
 H641 H 0.79509 0.40591 0.58187
 H642 H 0.78190 0.33088 0.67850
 H643 H 0.77372 0.43442 0.53231
 H644 H 0.74209 0.35766 0.74897
 C645 C 0.70800 0.06019 0.04281
 C646 C 0.72224 0.06498 0.08149
 C647 C 0.72328 0.09295 0.10173
 C648 C 0.74586 0.09780 0.12928
 C649 C 0.74834 0.12401 0.14820
 C650 C 0.72793 0.14594 0.14061
 C651 C 0.70532 0.14117 0.11300
 C652 C 0.70286 0.11487 0.09392
 C653 C 0.73002 0.17393 0.16051
 C654 C 0.74437 0.17754 0.19946
 H655 H 0.73583 0.04810 0.09484
 H656 H 0.76198 0.08136 0.13555
 H657 H 0.76662 0.12707 0.16799
 H658 H 0.68936 0.15773 0.10658
 H659 H 0.68482 0.11182 0.07360
 H660 H 0.71921 0.19191 0.14503
 H661 H 0.69627 0.07730 0.02670
 H662 H 0.75332 0.15945 0.21699
 C663 C 0.22415 0.55222 0.53175
 C664 C 0.23898 0.55832 0.56941
 C665 C 0.23902 0.58633 0.58997
 C666 C 0.25872 0.59024 0.62293
 C667 C 0.25988 0.61606 0.64365
 C668 C 0.24104 0.63861 0.63222
 C669 C 0.22158 0.63495 0.59878
 C670 C 0.22039 0.60902 0.57797
 C671 C 0.24171 0.66614 0.65408
 C672 C 0.25158 0.66868 0.69663
 H673 H 0.25292 0.54188 0.58322
 H674 H 0.27352 0.57327 0.63256
 H675 H 0.27590 0.61830 0.66808
 H676 H 0.20700 0.65209 0.58916
 H677 H 0.20469 0.60699 0.55305
 H678 H 0.23355 0.68469 0.63677
 H679 H 0.21164 0.56848 0.51499
 H680 H 0.25772 0.65008 0.71539
 C681 C 0.95237 0.74511 0.04704
 C682 C 0.94463 0.72942 0.08314
 C683 C 0.91744 0.73455 0.10553
 C684 C 0.90426 0.71193 0.12430
 C685 C 0.87852 0.71627 0.14582
 C686 C 0.86585 0.74345 0.14963
 C687 C 0.87944 0.76616 0.13198
 C688 C 0.90489 0.76176 0.10971
 C689 C 0.83888 0.74874 0.17263
 C690 C 0.81756 0.73008 0.17099
 H691 H 0.95826 0.71171 0.09357
 H692 H 0.91379 0.69085 0.12194
 H693 H 0.86884 0.69845 0.16012
 H694 H 0.87018 0.78732 0.13504
 H695 H 0.91498 0.77969 0.09656
 H696 H 0.83482 0.76886 0.18830
 H697 H 0.93756 0.76066 0.03298
 H698 H 0.82024 0.71128 0.15146
 C699 C 0.45595 0.23672 0.56180
 C700 C 0.43302 0.22112 0.55155
 C701 C 0.40576 0.22363 0.57508
 C702 C 0.38614 0.20340 0.56782
 C703 C 0.36011 0.20506 0.58909
 C704 C 0.35309 0.22722 0.61794
 C705 C 0.37263 0.24747 0.62508
 C706 C 0.39855 0.24592 0.60365
 C707 C 0.32610 0.22962 0.64202
 C708 C 0.30183 0.21725 0.62854
 H709 H 0.43537 0.20589 0.52551
 H710 H 0.39105 0.18609 0.54584
 H711 H 0.34588 0.18869 0.58342
 H712 H 0.36771 0.26480 0.64704
 H713 H 0.41252 0.26249 0.60935
 H714 H 0.32498 0.24285 0.67071
 H715 H 0.45555 0.24912 0.59125
 H716 H 0.30172 0.20546 0.59847
 C717 C 0.06139 0.27025 0.04836
 C718 C 0.06884 0.25980 0.08963
 C719 C 0.09700 0.26189 0.10895
 C720 C 0.10010 0.25858 0.15425
 C721 C 0.12659 0.25848 0.17353
 C722 C 0.15070 0.26119 0.14762
 C723 C 0.14752 0.26505 0.10238
 C724 C 0.12101 0.26526 0.08312
 C725 C 0.17939 0.25988 0.16621
 C726 C 0.18611 0.24846 0.20719
 H727 H 0.05358 0.24874 0.10825
 H728 H 0.08192 0.25597 0.17483
 H729 H 0.12788 0.25634 0.20863
 H730 H 0.16572 0.26723 0.08167
 H731 H 0.11964 0.26711 0.04796
 H732 H 0.19621 0.26686 0.14575
 H733 H 0.07589 0.28231 0.02999
 H734 H 0.17008 0.24025 0.22779
 C735 C 0.55642 0.78320 0.54463
 C736 C 0.56492 0.76625 0.58003
 C737 C 0.59248 0.76759 0.60203
 C738 C 0.59652 0.75395 0.64242
 C739 C 0.62249 0.75351 0.66348
 C740 C 0.64515 0.76682 0.64453
 C741 C 0.64116 0.78027 0.60397
 C742 C 0.61521 0.78066 0.58286
 C743 C 0.67341 0.76614 0.66480
 C744 C 0.67878 0.75838 0.70814
 H745 H 0.55106 0.75059 0.59142
 H746 H 0.57955 0.74332 0.65760
 H747 H 0.62468 0.74211 0.69396
 H748 H 0.65832 0.79032 0.58828
 H749 H 0.61350 0.79059 0.55113
 H750 H 0.69079 0.77217 0.64466
 H751 H 0.56966 0.79923 0.53295
 H752 H 0.66181 0.75344 0.72975
   
