data_POSCAR
  _audit_creation_date              2014-09-24
  _audit_creation_method            'ToBaCCo'
  _symmetry_space_group_name_H-M    'P1'
  _symmetry_Int_Tables_number       1
  _symmetry_cell_setting            triclinic
  loop_
  _symmetry_equiv_pos_as_xyz
 x,y,z
_cell_length_a 37.8232
_cell_length_b 39.2871
_cell_length_c 38.5879
_cell_angle_alpha 89.927400
_cell_angle_beta 90.931200
_cell_angle_gamma 85.015900
loop_
  _atom_site_label
  _atom_site_type_symbol
  _atom_site_fract_x
  _atom_site_fract_y
  _atom_site_fract_z
C1 C 0.30573 0.22482 0.22880
 C2 C 0.29191 0.21128 0.25890
 C3 C 0.26018 0.22561 0.27197
 C4 C 0.24180 0.25369 0.25514
 C5 C 0.25543 0.26695 0.22550
 C6 C 0.28762 0.25252 0.21235
 C7 C 0.33620 0.21651 0.21044
 N8 N 0.33704 0.23865 0.18339
 C9 C 0.30733 0.26070 0.18441
 C10 C 0.23243 0.29414 0.21490
 N11 N 0.20508 0.29784 0.23739
 C12 C 0.21066 0.27315 0.26212
 C13 C 0.25341 0.20750 0.30133
 N14 N 0.28020 0.18246 0.30645
 C15 C 0.30386 0.18471 0.28054
 H16 H 0.35660 0.19631 0.21675
 H17 H 0.30036 0.28111 0.16603
 H18 H 0.23584 0.31048 0.19282
 H19 H 0.19329 0.26942 0.28355
 H20 H 0.23081 0.21258 0.31796
 H21 H 0.32782 0.16795 0.27726
 C22 C 0.70793 -0.22880 0.22901
 C23 C 0.72395 -0.21712 0.25910
 C24 C 0.75480 -0.23410 0.27221
 C25 C 0.76994 -0.26325 0.25520
 C26 C 0.75407 -0.27483 0.22548
 C27 C 0.72251 -0.25763 0.21246
 C28 C 0.67746 -0.21746 0.21130
 N29 N 0.67252 -0.23891 0.18426
 C30 C 0.70020 -0.26369 0.18500
 C31 C 0.77440 -0.30354 0.21482
 N32 N 0.80232 -0.31006 0.23745
 C33 C 0.79942 -0.28526 0.26228
 C34 C 0.76364 -0.21742 0.30213
 N35 N 0.73864 -0.19099 0.30742
 C36 C 0.71438 -0.19064 0.28109
 H37 H 0.65953 -0.19592 0.21888
 H38 H 0.70451 -0.28439 0.16669
 H39 H 0.76825 -0.31891 0.19268
 H40 H 0.81769 -0.28244 0.28369
 H41 H 0.78605 -0.22452 0.31924
 H42 H 0.69136 -0.17243 0.27810
 C43 C 0.73461 0.23976 0.74765
 C44 C 0.74961 0.22490 0.71773
 C45 C 0.77512 0.24088 0.70021
 C46 C 0.78580 0.27206 0.71229
 C47 C 0.77114 0.28667 0.74185
 C48 C 0.74504 0.27048 0.75957
 C49 C 0.70971 0.22952 0.76999
 N50 N 0.70420 0.25338 0.79545
 C51 C 0.72594 0.27860 0.78897
 C52 C 0.78759 0.31603 0.74804
 N53 N 0.81193 0.31982 0.72284
 C54 C 0.81057 0.29281 0.70081
 C55 C 0.78548 0.22040 0.67267
 N56 N 0.76671 0.19244 0.67299
 C57 C 0.74468 0.19503 0.70050
 H58 H 0.69605 0.20665 0.76686
 H59 H 0.72875 0.30095 0.80476
 H60 H 0.78157 0.33334 0.76931
 H61 H 0.82738 0.28735 0.67876
 H62 H 0.80501 0.22563 0.65362
 H63 H 0.72683 0.17627 0.70785
 C64 C 0.26108 -0.24588 0.75195
 C65 C 0.24848 -0.23027 0.72086
 C66 C 0.22163 -0.24391 0.70199
 C67 C 0.20721 -0.27349 0.71385
 C68 C 0.21981 -0.28872 0.74431
 C69 C 0.24701 -0.27501 0.76332
 C70 C 0.28611 -0.23793 0.77626
 N71 N 0.28789 -0.26181 0.80215
 C72 C 0.26379 -0.28456 0.79404
 C73 C 0.20053 -0.31604 0.75030
 N74 N 0.17602 -0.31817 0.72422
 C75 C 0.18034 -0.29207 0.70164
 C76 C 0.21413 -0.22303 0.67369
 N77 N 0.23583 -0.19720 0.67480
 C78 C 0.25695 -0.20149 0.70359
 H79 H 0.30227 -0.21663 0.77439
 H80 H 0.25760 -0.30602 0.80969
 H81 H 0.20490 -0.33318 0.77216
 H82 H 0.16444 -0.28585 0.67859
 H83 H 0.19439 -0.22650 0.65367
 H84 H 0.27650 -0.18449 0.71181
 C85 C 0.69730 -0.22119 0.77615
 C86 C 0.71336 -0.20819 0.74707
 C87 C 0.74408 -0.22486 0.73435
 C88 C 0.75910 -0.25478 0.75049
 C89 C 0.74335 -0.26756 0.77916
 C90 C 0.71195 -0.25079 0.79189
 C91 C 0.66704 -0.21056 0.79370
 N92 N 0.66244 -0.23317 0.81976
 C93 C 0.69006 -0.25793 0.81859
 C94 C 0.76369 -0.29676 0.78922
 N95 N 0.79145 -0.30234 0.76715
 C96 C 0.78848 -0.27647 0.74336
 C97 C 0.75329 -0.20706 0.70562
 N98 N 0.72879 -0.18004 0.70052
 C99 C 0.70427 -0.18056 0.72585
 H100 H 0.64917 -0.18854 0.78676
 H101 H 0.69476 -0.27933 0.83620
 H102 H 0.75767 -0.31309 0.81052
 H103 H 0.80668 -0.27268 0.72267
 H104 H 0.77568 -0.21385 0.68914
 H105 H 0.68148 -0.16219 0.72871
 C106 C 0.28782 0.22561 0.77172
 C107 C 0.26936 0.21066 0.74453
 C108 C 0.23667 0.22568 0.73341
 C109 C 0.22204 0.25574 0.74903
 C110 C 0.24020 0.27040 0.77564
 C111 C 0.27336 0.25534 0.78685
 C112 C 0.32007 0.21709 0.78809
 N113 N 0.32579 0.24114 0.81267
 C114 C 0.29697 0.26458 0.81175
 C115 C 0.22001 0.29946 0.78560
 N116 N 0.19005 0.30288 0.76553
 C117 C 0.19112 0.27619 0.74306
 C118 C 0.22504 0.20631 0.70662
 N119 N 0.24980 0.17981 0.70094
 C120 C 0.27706 0.18231 0.72404
 H121 H 0.33823 0.19534 0.78159
 H122 H 0.29245 0.28647 0.82855
 H123 H 0.22703 0.31722 0.80546
 H124 H 0.17084 0.27184 0.72386
 H125 H 0.20065 0.21164 0.69180
 H126 H 0.30072 0.16477 0.72592
 C127 C 0.25806 -0.24208 0.24802
 C128 C 0.24388 -0.22540 0.27751
 C129 C 0.21763 -0.23952 0.29599
 C130 C 0.20533 -0.27064 0.28530
 C131 C 0.21941 -0.28686 0.25637
 C132 C 0.24603 -0.27265 0.23778
 C133 C 0.28354 -0.23442 0.22480
 N134 N 0.28754 -0.25983 0.20064
 C135 C 0.26437 -0.28327 0.20877
 C136 C 0.20239 -0.31594 0.25152
 N137 N 0.17783 -0.31820 0.27677
 C138 C 0.17988 -0.29038 0.29773
 C139 C 0.20905 -0.21793 0.32324
 N140 N 0.22953 -0.19117 0.32189
 C141 C 0.25085 -0.19559 0.29392
 H142 H 0.29851 -0.21224 0.22635
 H143 H 0.26001 -0.30614 0.19436
 H144 H 0.20841 -0.33417 0.23106
 H145 H 0.16343 -0.28390 0.31981
 H146 H 0.18984 -0.22184 0.34303
 H147 H 0.26996 -0.17829 0.28590
 C148 C 0.74408 0.23199 0.24155
 C149 C 0.75860 0.21659 0.27196
 C150 C 0.78453 0.23180 0.29044
 C151 C 0.79615 0.26271 0.27893
 C152 C 0.78207 0.27782 0.24889
 C153 C 0.75564 0.26243 0.23006
 C154 C 0.71873 0.22276 0.21830
 N155 N 0.71445 0.24684 0.19289
 C156 C 0.73697 0.27123 0.19993
 C157 C 0.79913 0.30691 0.24368
 N158 N 0.82332 0.31006 0.26995
 C159 C 0.82125 0.28287 0.29163
 C160 C 0.79416 0.21109 0.31837
 N161 N 0.77462 0.18365 0.31736
 C162 C 0.75274 0.18688 0.28903
 H163 H 0.70410 0.20036 0.22010
 H164 H 0.73991 0.29355 0.18411
 H165 H 0.79353 0.32453 0.22237
 H166 H 0.83764 0.27695 0.31443
 H167 H 0.81370 0.21586 0.33818
 H168 H 0.73431 0.16868 0.28106
 O169 O 0.23319 0.03762 0.46989
 O170 O 0.23641 -0.03084 0.53494
 O171 O 0.23850 0.03521 0.53767
 O172 O 0.23400 -0.02887 0.46794
 O173 O 0.29246 -0.03363 0.46579
 O174 O 0.29690 0.03003 0.53503
 O175 O 0.29489 -0.03612 0.53315
 O176 O 0.29160 0.03269 0.46731
 Cu177 Cu 0.22970 0.00399 0.50282
 Cu178 Cu 0.29979 -0.00215 0.50012
 C179 C 0.26164 0.04673 0.45715
 C180 C 0.26605 -0.04544 0.54502
 C181 C 0.26859 0.04336 0.54846
 C182 C 0.26264 -0.04242 0.45516
 O183 O 0.78171 0.02574 0.53276
 O184 O 0.78863 -0.04351 0.46839
 O185 O 0.78317 0.02311 0.46569
 O186 O 0.78626 -0.04076 0.53591
 O187 O 0.72786 -0.03960 0.53360
 O188 O 0.72480 0.02379 0.46334
 O189 O 0.73026 -0.04255 0.46630
 O190 O 0.72332 0.02654 0.53051
 Cu191 Cu 0.79084 -0.00903 0.50090
 Cu192 Cu 0.72072 -0.00796 0.49817
 C193 C 0.75135 0.03807 0.54255
 C194 C 0.76054 -0.05482 0.45624
 C195 C 0.75340 0.03455 0.45265
 C196 C 0.75748 -0.05094 0.54692
 O197 O 0.49386 0.24494 0.02853
 O198 O 0.56083 0.24794 -0.03951
 O199 O 0.56253 0.24677 0.02822
 O200 O 0.49230 0.24525 -0.03904
 O201 O 0.48541 0.30157 -0.03829
 O202 O 0.55561 0.30308 0.02884
 O203 O 0.55423 0.30427 -0.03866
 O204 O 0.48707 0.30127 0.02891
 Cu205 Cu 0.52815 0.24058 -0.00553
 Cu206 Cu 0.51995 0.30817 -0.00482
 C207 C 0.47891 0.27268 0.04030
 C208 C 0.56899 0.27662 -0.05073
 C209 C 0.57097 0.27513 0.04019
 C210 C 0.47663 0.27321 -0.04999
 O211 O 0.50496 0.77666 0.03718
 O212 O 0.43459 0.78481 -0.03008
 O213 O 0.43593 0.78465 0.03814
 O214 O 0.50326 0.77777 -0.02978
 O215 O 0.50226 0.72167 -0.02992
 O216 O 0.43463 0.72864 0.03795
 O217 O 0.43318 0.72881 -0.03009
 O218 O 0.50387 0.72058 0.03662
 Cu219 Cu 0.46954 0.78663 0.00399
 Cu220 Cu 0.46798 0.71932 0.00366
 C221 C 0.51696 0.74721 0.04785
 C222 C 0.42234 0.75805 -0.04209
 C223 C 0.42407 0.75779 0.05002
 C224 C 0.51463 0.74858 -0.04114
 O225 O 0.03751 0.45768 0.23159
 O226 O -0.03156 0.53049 0.23096
 O227 O 0.03761 0.52384 0.23040
 O228 O -0.03172 0.46454 0.22816
 O229 O -0.03180 0.46300 0.28531
 O230 O 0.03735 0.52434 0.28757
 O231 O -0.03140 0.52940 0.28814
 O232 O 0.03742 0.45777 0.28873
 Cu233 Cu 0.00301 0.49417 0.22459
 Cu234 Cu 0.00288 0.49347 0.29315
 C235 C 0.04936 0.44538 0.26047
 C236 C -0.04317 0.54239 0.25967
 C237 C 0.04924 0.53451 0.25905
 C238 C -0.04371 0.45355 0.25614
 O239 O 0.02724 0.53200 0.77242
 O240 O -0.04267 0.47303 0.77256
 O241 O 0.02647 0.46589 0.77083
 O242 O -0.04199 0.53891 0.77168
 O243 O -0.04275 0.53935 0.71448
 O244 O 0.02511 0.46683 0.71367
 O245 O -0.04386 0.47302 0.71538
 O246 O 0.02611 0.53319 0.71525
 Cu247 Cu -0.00756 0.50241 0.77760
 Cu248 Cu -0.00897 0.50312 0.70896
 C249 C 0.03862 0.54283 0.74405
 C250 C -0.05527 0.46287 0.74411
 C251 C 0.03744 0.45386 0.74197
 C252 C -0.05402 0.55158 0.74306
 C253 C 0.38412 0.20870 0.14816
 C254 C 0.36472 0.23914 0.15820
 C255 C 0.37247 0.27016 0.14307
 C256 C 0.39891 0.27081 0.11809
 C257 C 0.41797 0.24003 0.10787
 C258 C 0.41045 0.20912 0.12317
 C259 C 0.44414 0.24070 0.08251
 C260 C 0.45163 0.27182 0.06733
 C261 C 0.43266 0.30227 0.07801
 C262 C 0.40653 0.30177 0.10309
 H263 H 0.35815 0.29388 0.15101
 H264 H 0.42479 0.18525 0.11568
 H265 H 0.45862 0.21702 0.07465
 H266 H 0.39220 0.32561 0.11068
 H267 H 0.37846 0.18447 0.15920
 H268 H 0.43783 0.32659 0.06679
 C269 C 0.62299 0.79493 0.15728
 C270 C 0.64437 0.76379 0.16124
 C271 C 0.63562 0.73550 0.14129
 C272 C 0.60607 0.73811 0.11866
 C273 C 0.58533 0.76960 0.11493
 C274 C 0.59408 0.79782 0.13426
 C275 C 0.55614 0.77239 0.09194
 C276 C 0.54693 0.74389 0.07299
 C277 C 0.56726 0.71244 0.07739
 C278 C 0.59670 0.70962 0.09988
 H279 H 0.65075 0.71098 0.14416
 H280 H 0.57852 0.82221 0.13162
 H281 H 0.54052 0.79672 0.08893
 H282 H 0.61216 0.68519 0.10252
 H283 H 0.62898 0.81768 0.17111
 H284 H 0.56080 0.69013 0.06295
 C285 C 0.66606 0.22140 -0.16928
 C286 C 0.68089 0.25213 -0.17769
 C287 C 0.67069 0.28153 -0.15789
 C288 C 0.64602 0.28037 -0.13117
 C289 C 0.63164 0.24935 -0.12334
 C290 C 0.64197 0.22004 -0.14242
 C291 C 0.60688 0.24817 -0.09677
 C292 C 0.59575 0.27781 -0.07817
 C293 C 0.61008 0.30864 -0.08628
 C294 C 0.63511 0.30988 -0.11240
 H295 H 0.68072 0.30578 -0.16380
 H296 H 0.63132 0.19597 -0.13664
 H297 H 0.59590 0.22426 -0.09096
 H298 H 0.64576 0.33396 -0.11806
 H299 H 0.67350 0.19784 -0.18272
 H300 H 0.60204 0.33185 -0.07230
 C301 C 0.31547 0.70691 -0.14886
 C302 C 0.30976 0.73704 -0.16900
 C303 C 0.32722 0.76583 -0.15856
 C304 C 0.34962 0.76447 -0.12910
 C305 C 0.35533 0.73388 -0.10984
 C306 C 0.33804 0.70535 -0.11986
 C307 C 0.37851 0.73214 -0.08104
 C308 C 0.39601 0.76076 -0.07096
 C309 C 0.38945 0.79141 -0.08975
 C310 C 0.36655 0.79322 -0.11862
 H311 H 0.32294 0.78970 -0.17260
 H312 H 0.34218 0.68164 -0.10539
 H313 H 0.38315 0.70839 -0.06668
 H314 H 0.36237 0.81701 -0.13294
 H315 H 0.30357 0.68383 -0.15588
 H316 H 0.40265 0.81382 -0.08260
 C317 C 0.16385 0.33800 0.20359
 C318 C 0.17591 0.32404 0.23569
 C319 C 0.15956 0.33652 0.26615
 C320 C 0.13197 0.36282 0.26466
 C321 C 0.12026 0.37682 0.23227
 C322 C 0.13627 0.36408 0.20188
 C323 C 0.09299 0.40352 0.23087
 C324 C 0.07742 0.41658 0.26151
 C325 C 0.08923 0.40223 0.29353
 C326 C 0.11618 0.37562 0.29509
 H327 H 0.16885 0.32637 0.29110
 H328 H 0.12759 0.37438 0.17680
 H329 H 0.08422 0.41431 0.20600
 H330 H 0.12481 0.36519 0.32014
 H331 H 0.17562 0.32856 0.17970
 H332 H 0.07772 0.41167 0.31756
 C333 C 0.13157 0.65411 0.69085
 C334 C 0.15120 0.65828 0.72183
 C335 C 0.14429 0.63762 0.75056
 C336 C 0.11872 0.61392 0.74857
 C337 C 0.09958 0.61001 0.71735
 C338 C 0.10628 0.63018 0.68864
 C339 C 0.07380 0.58629 0.71560
 C340 C 0.06659 0.56693 0.74497
 C341 C 0.08586 0.57120 0.77588
 C342 C 0.11176 0.59432 0.77762
 H343 H 0.15772 0.64042 0.77517
 H344 H 0.09188 0.62754 0.66442
 H345 H 0.05895 0.58341 0.69167
 H346 H 0.12619 0.59703 0.80181
 H347 H 0.13603 0.66867 0.66782
 H348 H 0.08097 0.55655 0.79884
 C349 C -0.16650 0.64383 0.20517
 C350 C -0.17168 0.66329 0.23576
 C351 C -0.14933 0.65441 0.26467
 C352 C -0.12300 0.62706 0.26319
 C353 C -0.11806 0.60820 0.23227
 C354 C -0.13993 0.61685 0.20343
 C355 C -0.09157 0.58083 0.23089
 C356 C -0.07048 0.57169 0.26036
 C357 C -0.07590 0.59055 0.29104
 C358 C -0.10174 0.61806 0.29240
 H359 H -0.15287 0.66783 0.28897
 H360 H -0.13653 0.60270 0.17945
 H361 H -0.08783 0.56632 0.20715
 H362 H -0.10521 0.63219 0.31638
 H363 H -0.18221 0.64976 0.18198
 H364 H -0.05993 0.58416 0.31407
 C365 C -0.14689 0.35049 0.68978
 C366 C -0.16541 0.34524 0.72061
 C367 C -0.15923 0.36637 0.74931
 C368 C -0.13454 0.39098 0.74764
 C369 C -0.11613 0.39552 0.71666
 C370 C -0.12279 0.37539 0.68782
 C371 C -0.09090 0.41967 0.71525
 C372 C -0.08323 0.43882 0.74475
 C373 C -0.10182 0.43415 0.77542
 C374 C -0.12738 0.41063 0.77679
 H375 H -0.17222 0.36292 0.77365
 H376 H -0.10909 0.37865 0.66375
 H377 H -0.07660 0.42289 0.69151
 H378 H -0.14120 0.40750 0.80081
 H379 H -0.15126 0.33591 0.66663
 H380 H -0.09656 0.44870 0.79847
 C381 C 0.31618 0.14285 0.34583
 C382 C 0.28285 0.15768 0.33427
 C383 C 0.25210 0.14777 0.35013
 C384 C 0.25453 0.12340 0.37688
 C385 C 0.28814 0.10855 0.38812
 C386 C 0.31880 0.11855 0.37247
 C387 C 0.29048 0.08381 0.41461
 C388 C 0.25957 0.07362 0.42999
 C389 C 0.22632 0.08884 0.41868
 C390 C 0.22382 0.11345 0.39242
 H391 H 0.22619 0.15852 0.34126
 H392 H 0.34482 0.10756 0.38080
 H393 H 0.31630 0.07232 0.42300
 H394 H 0.19783 0.12458 0.38415
 H395 H 0.34034 0.15029 0.33452
 H396 H 0.20206 0.08156 0.42999
 C397 C 0.80243 0.15472 0.63325
 C398 C 0.76970 0.16474 0.64855
 C399 C 0.73990 0.14734 0.63978
 C400 C 0.74267 0.12032 0.61601
 C401 C 0.77575 0.11030 0.60095
 C402 C 0.80547 0.12767 0.60974
 C403 C 0.77853 0.08321 0.57723
 C404 C 0.74855 0.06621 0.56803
 C405 C 0.71574 0.07653 0.58307
 C406 C 0.71285 0.10327 0.60693
 H407 H 0.71444 0.15518 0.65104
 H408 H 0.83104 0.12033 0.59845
 H409 H 0.80394 0.07565 0.56568
 H410 H 0.68728 0.11066 0.61819
 H411 H 0.82582 0.16751 0.63990
 H412 H 0.69225 0.06384 0.57647
 C413 C 0.20406 -0.15676 0.63364
 C414 C 0.23582 -0.16955 0.65023
 C415 C 0.26747 -0.15490 0.64263
 C416 C 0.26740 -0.12791 0.61871
 C417 C 0.23521 -0.11514 0.60244
 C418 C 0.20372 -0.12974 0.61008
 C419 C 0.23501 -0.08808 0.57870
 C420 C 0.26665 -0.07370 0.57054
 C421 C 0.29860 -0.08676 0.58664
 C422 C 0.29895 -0.11353 0.61062
 H423 H 0.29218 -0.16485 0.65494
 H424 H 0.17880 -0.12024 0.59784
 H425 H 0.21019 -0.07847 0.56631
 H426 H 0.32390 -0.12305 0.62278
 H427 H 0.17931 -0.16732 0.63936
 H428 H 0.32332 -0.07616 0.58082
 C429 C 0.70426 -0.15410 0.34865
 C430 C 0.73724 -0.16758 0.33611
 C431 C 0.76858 -0.15712 0.35122
 C432 C 0.76693 -0.13272 0.37785
 C433 C 0.73355 -0.11902 0.38982
 C434 C 0.70242 -0.13013 0.37530
 C435 C 0.73175 -0.09406 0.41576
 C436 C 0.76288 -0.08221 0.42988
 C437 C 0.79600 -0.09623 0.41810
 C438 C 0.79801 -0.12132 0.39235
 H439 H 0.79411 -0.16716 0.34153
 H440 H 0.67662 -0.12002 0.38430
 H441 H 0.70601 -0.08354 0.42457
 H442 H 0.82384 -0.13152 0.38354
 H443 H 0.67979 -0.16221 0.33785
 H444 H 0.82041 -0.08762 0.42858
 C445 C 0.61345 0.79948 -0.15256
 C446 C 0.63495 0.76864 -0.15731
 C447 C 0.62727 0.73973 -0.13788
 C448 C 0.59902 0.74158 -0.11462
 C449 C 0.57835 0.77285 -0.10990
 C450 C 0.58574 0.80157 -0.12901
 C451 C 0.55066 0.77493 -0.08606
 C452 C 0.54292 0.74595 -0.06719
 C453 C 0.56309 0.71472 -0.07267
 C454 C 0.59103 0.71259 -0.09604
 H455 H 0.64235 0.71535 -0.14140
 H456 H 0.57014 0.82579 -0.12568
 H457 H 0.53509 0.79910 -0.08227
 H458 H 0.60646 0.68832 -0.09946
 H459 H 0.61849 0.82261 -0.16609
 H460 H 0.55772 0.69205 -0.05838
 C461 C 0.37875 0.21243 -0.16030
 C462 C 0.35481 0.24174 -0.16544
 C463 C 0.36139 0.27173 -0.14704
 C464 C 0.39031 0.27226 -0.12388
 C465 C 0.41328 0.24243 -0.11840
 C466 C 0.40740 0.21275 -0.13693
 C467 C 0.44163 0.24280 -0.09441
 C468 C 0.44754 0.27285 -0.07613
 C469 C 0.42490 0.30258 -0.08246
 C470 C 0.39650 0.30226 -0.10599
 H471 H 0.34467 0.29519 -0.15104
 H472 H 0.42483 0.18962 -0.13315
 H473 H 0.45905 0.21975 -0.08999
 H474 H 0.37923 0.32546 -0.11000
 H475 H 0.37493 0.18866 -0.17328
 H476 H 0.42876 0.32605 -0.06877
 C477 C 0.31782 0.70738 0.15496
 C478 C 0.31052 0.73828 0.17329
 C479 C 0.32754 0.76710 0.16255
 C480 C 0.35083 0.76508 0.13447
 C481 C 0.35788 0.73382 0.11687
 C482 C 0.34123 0.70520 0.12731
 C483 C 0.38156 0.73162 0.08917
 C484 C 0.39818 0.76044 0.07851
 C485 C 0.39054 0.79160 0.09587
 C486 C 0.36718 0.79388 0.12363
 H487 H 0.32220 0.79150 0.17519
 H488 H 0.34642 0.68096 0.11416
 H489 H 0.38704 0.70744 0.07596
 H490 H 0.36202 0.81816 0.13671
 H491 H 0.30641 0.68423 0.16231
 H492 H 0.40300 0.81420 0.08828
 C493 C 0.68045 0.21533 0.15024
 C494 C 0.68996 0.24651 0.16387
 C495 C 0.67464 0.27726 0.14925
 C496 C 0.64975 0.27687 0.12186
 C497 C 0.64019 0.24534 0.10866
 C498 C 0.65588 0.21474 0.12289
 C499 C 0.61485 0.24491 0.08171
 C500 C 0.59863 0.27564 0.06781
 C501 C 0.60857 0.30686 0.08099
 C502 C 0.63390 0.30747 0.10772
 H503 H 0.68139 0.30147 0.15973
 H504 H 0.64899 0.19032 0.11300
 H505 H 0.60749 0.22063 0.07187
 H506 H 0.64089 0.33189 0.11749
 H507 H 0.69222 0.19129 0.16062
 H508 H 0.59658 0.33091 0.07079
 C509 C -0.17702 0.65025 0.79833
 C510 C -0.18255 0.67095 0.76840
 C511 C -0.16056 0.66332 0.73969
 C512 C -0.13413 0.63602 0.74074
 C513 C -0.12876 0.61594 0.77103
 C514 C -0.15034 0.62330 0.79966
 C515 C -0.10215 0.58867 0.77201
 C516 C -0.08136 0.58082 0.74272
 C517 C -0.08720 0.60084 0.71263
 C518 C -0.11318 0.62829 0.71170
 H519 H -0.16445 0.67769 0.71583
 H520 H -0.14661 0.60817 0.82315
 H521 H -0.09808 0.57322 0.79526
 H522 H -0.11700 0.64337 0.68819
 H523 H -0.19251 0.65519 0.82133
 H524 H -0.07148 0.59540 0.68977
 C525 C -0.13504 0.33955 0.30501
 C526 C -0.15375 0.33521 0.27349
 C527 C -0.14758 0.35709 0.24555
 C528 C -0.12288 0.38162 0.24862
 C529 C -0.10429 0.38527 0.28024
 C530 C -0.11084 0.36431 0.30833
 C531 C -0.07905 0.40941 0.28304
 C532 C -0.07164 0.42944 0.25427
 C533 C -0.09047 0.42564 0.22298
 C534 C -0.11596 0.40214 0.22024
 H535 H -0.16069 0.35441 0.22073
 H536 H -0.09700 0.36685 0.33288
 H537 H -0.06459 0.41196 0.30725
 H538 H -0.12994 0.39971 0.19575
 H539 H -0.13930 0.32435 0.32765
 H540 H -0.08544 0.44088 0.20046
 C541 C 0.15414 0.34664 0.79885
 C542 C 0.16247 0.33050 0.76716
 C543 C 0.14382 0.34192 0.73696
 C544 C 0.11740 0.36922 0.73828
 C545 C 0.10916 0.38524 0.77028
 C546 C 0.12764 0.37368 0.80043
 C547 C 0.08279 0.41267 0.77151
 C548 C 0.06480 0.42455 0.74105
 C549 C 0.07335 0.40840 0.70940
 C550 C 0.09930 0.38095 0.70803
 H551 H 0.15037 0.33004 0.71230
 H552 H 0.12168 0.38561 0.82521
 H553 H 0.07658 0.42496 0.79608
 H554 H 0.10531 0.36899 0.68328
 H555 H 0.16789 0.33807 0.82251
 H556 H 0.05988 0.41693 0.68555
 C557 C 0.13478 0.65331 0.31000
 C558 C 0.15488 0.65665 0.27977
 C559 C 0.15030 0.63350 0.25237
 C560 C 0.12633 0.60839 0.25476
 C561 C 0.10650 0.60549 0.28513
 C562 C 0.11110 0.62798 0.31265
 C563 C 0.08201 0.58058 0.28708
 C564 C 0.07664 0.55915 0.25862
 C565 C 0.09675 0.56227 0.22866
 C566 C 0.12147 0.58648 0.22681
 H567 H 0.16422 0.63539 0.22833
 H568 H 0.09618 0.62614 0.33623
 H569 H 0.06645 0.57857 0.31023
 H570 H 0.13648 0.58835 0.20330
 H571 H 0.13753 0.66975 0.33210
 H572 H 0.09329 0.54598 0.20645
 C573 C 0.69589 -0.14043 0.65927
 C574 C 0.72831 -0.15568 0.67256
 C575 C 0.76021 -0.14703 0.65802
 C576 C 0.75975 -0.12348 0.63062
 C577 C 0.72697 -0.10844 0.61743
 C578 C 0.69522 -0.11707 0.63194
 C579 C 0.72645 -0.08497 0.59001
 C580 C 0.75831 -0.07605 0.57560
 C581 C 0.79079 -0.09107 0.58900
 C582 C 0.79150 -0.11462 0.61622
 H583 H 0.78537 -0.15828 0.66833
 H584 H 0.66985 -0.10582 0.62209
 H585 H 0.70120 -0.07352 0.58006
 H586 H 0.81688 -0.12587 0.62604
 H587 H 0.67096 -0.14699 0.66967
 H588 H 0.81570 -0.08466 0.57839
 C589 C 0.19818 -0.15202 0.36369
 C590 C 0.22942 -0.16347 0.34639
 C591 C 0.26073 -0.14776 0.35365
 C592 C 0.26097 -0.12129 0.37801
 C593 C 0.22943 -0.11000 0.39527
 C594 C 0.19815 -0.12547 0.38780
 C595 C 0.22985 -0.08376 0.41998
 C596 C 0.26155 -0.06896 0.42799
 C597 C 0.29268 -0.08038 0.41049
 C598 C 0.29238 -0.10619 0.38568
 H599 H 0.28512 -0.15666 0.34094
 H600 H 0.17369 -0.11715 0.40073
 H601 H 0.20568 -0.07535 0.43337
 H602 H 0.31680 -0.11453 0.37270
 H603 H 0.17364 -0.16340 0.35829
 H604 H 0.31745 -0.06942 0.41605
 C605 C 0.80901 0.14584 0.35923
 C606 C 0.77673 0.15606 0.34212
 C607 C 0.74644 0.13927 0.34977
 C608 C 0.74824 0.11294 0.37448
 C609 C 0.78082 0.10295 0.39159
 C610 C 0.81108 0.11946 0.38367
 C611 C 0.78251 0.07691 0.41663
 C612 C 0.75193 0.06094 0.42516
 C613 C 0.71970 0.07102 0.40786
 C614 C 0.71789 0.09669 0.38267
 H615 H 0.72132 0.14723 0.33708
 H616 H 0.83629 0.11209 0.39648
 H617 H 0.80752 0.06952 0.42986
 H618 H 0.69269 0.10403 0.36981
 H619 H 0.83280 0.15806 0.35346
 H620 H 0.69576 0.05911 0.41386
 C621 C 0.21436 0.14453 0.66313
 C622 C 0.24759 0.15427 0.67434
 C623 C 0.27843 0.13943 0.65853
 C624 C 0.27607 0.11565 0.63159
 C625 C 0.24248 0.10630 0.62040
 C626 C 0.21182 0.12076 0.63650
 C627 C 0.24009 0.08277 0.59324
 C628 C 0.27090 0.06840 0.57699
 C629 C 0.30416 0.07791 0.58843
 C630 C 0.30672 0.10128 0.61542
 H631 H 0.30417 0.14698 0.66659
 H632 H 0.18585 0.11381 0.62840
 H633 H 0.21427 0.07568 0.58480
 H634 H 0.33270 0.10815 0.62362
 H635 H 0.19024 0.15517 0.67516
 H636 H 0.32836 0.06727 0.57648
   
