data_POSCAR
  _audit_creation_date              2014-09-24
  _audit_creation_method            'ToBaCCo'
  _symmetry_space_group_name_H-M    'P1'
  _symmetry_Int_Tables_number       1
  _symmetry_cell_setting            triclinic
  loop_
  _symmetry_equiv_pos_as_xyz
 x,y,z
_cell_length_a 21.9205
_cell_length_b 22.0014
_cell_length_c 21.5850
_cell_angle_alpha 80.821200
_cell_angle_beta 99.877000
_cell_angle_gamma 84.701800
loop_
  _atom_site_label
  _atom_site_type_symbol
  _atom_site_fract_x
  _atom_site_fract_y
  _atom_site_fract_z
C1 C 0.62648 0.55181 -0.01626
 C2 C 0.60854 0.61140 -0.00527
 C3 C 0.54966 0.62899 0.00799
 C4 C 0.50724 0.58423 0.01234
 C5 C 0.52299 0.52461 -0.00187
 C6 C 0.58214 0.50870 -0.01742
 C7 C 0.59387 0.45151 -0.03716
 C8 C 0.55175 0.40821 -0.03475
 C9 C 0.49552 0.42082 -0.01382
 C10 C 0.47968 0.48037 0.00023
 C11 C 0.45169 0.59566 0.03520
 C12 C 0.40965 0.55225 0.03768
 C13 C 0.42102 0.49548 0.01716
 C14 C 0.37744 0.45145 0.01782
 C15 C 0.39619 0.39164 0.00778
 C16 C 0.45409 0.37581 -0.00775
 H17 H 0.63548 0.43979 -0.05553
 H18 H 0.56354 0.36487 -0.05011
 H19 H 0.44078 0.63765 0.05326
 H20 H 0.36880 0.56315 0.05761
 H21 H 0.64165 0.64503 -0.00641
 H22 H 0.36416 0.35693 0.00904
 C23 C -0.00047 0.63741 0.44012
 C24 C 0.00028 0.62673 0.37803
 C25 C 0.00240 0.56677 0.36292
 C26 C -0.00037 0.51565 0.41195
 C27 C -0.00092 0.52550 0.47534
 C28 C -0.00061 0.58641 0.48950
 C29 C -0.00180 0.59477 0.55246
 C30 C -0.00111 0.54471 0.60081
 C31 C -0.00373 0.48426 0.58785
 C32 C -0.00333 0.47439 0.52455
 C33 C -0.00663 0.45553 0.39883
 C34 C -0.00585 0.40543 0.44714
 C35 C -0.00493 0.41355 0.51041
 C36 C -0.00557 0.36265 0.55991
 C37 C -0.00584 0.37358 0.62202
 C38 C -0.00602 0.43337 0.63660
 H39 H -0.00340 0.64017 0.56555
 H40 H 0.00143 0.55450 0.64857
 H41 H -0.01330 0.44600 0.35078
 H42 H -0.00670 0.36034 0.43356
 H43 H 0.00307 0.66597 0.34163
 H44 H -0.00740 0.33489 0.65954
 C45 C 0.56683 -0.00060 0.63775
 C46 C 0.62728 -0.00436 0.62383
 C47 C 0.63858 -0.00365 0.56153
 C48 C 0.58676 -0.00333 0.51124
 C49 C 0.52522 -0.00213 0.52441
 C50 C 0.51527 -0.00139 0.58765
 C51 C 0.45448 -0.00588 0.59968
 C52 C 0.40396 -0.00405 0.55066
 C53 C 0.41215 -0.00404 0.48766
 C54 C 0.47350 -0.00395 0.47447
 C55 C 0.59490 -0.00862 0.44894
 C56 C 0.54443 -0.00673 0.39985
 C57 C 0.48331 -0.00578 0.41150
 C58 C 0.43181 -0.00677 0.36191
 C59 C 0.37159 -0.00502 0.37561
 C60 C 0.36079 -0.00439 0.43760
 H61 H 0.44469 -0.01212 0.64744
 H62 H 0.35847 -0.00355 0.56350
 H63 H 0.64050 -0.01555 0.43689
 H64 H 0.55464 -0.00686 0.35271
 H65 H 0.66614 -0.00152 0.66140
 H66 H 0.33248 -0.00592 0.33755
 O67 O 0.46980 0.01132 -0.10295
 O68 O 0.43058 0.00138 0.05715
 O69 O 0.44544 0.09010 -0.03137
 O70 O 0.45669 -0.07961 -0.01449
 O71 O 0.55675 -0.08640 0.02759
 O72 O 0.54522 0.08251 0.01228
 O73 O 0.53100 -0.00885 0.09962
 O74 O 0.57016 0.00261 -0.06088
 Cu75 Cu 0.44048 0.00635 -0.02712
 Cu76 Cu 0.56090 -0.00298 0.02383
 C77 C 0.52647 0.00860 -0.10925
 C78 C 0.47422 -0.00554 0.10562
 C79 C 0.49332 0.11521 -0.01205
 C80 C 0.50897 -0.11199 0.00926
 O81 O -0.08611 0.55736 0.97115
 O82 O 0.08437 0.54378 0.99047
 O83 O -0.00737 0.53163 0.90046
 O84 O 0.00348 0.56992 1.06164
 O85 O 0.01114 0.47011 1.10207
 O86 O 0.00100 0.43177 0.94112
 O87 O 0.09021 0.44447 1.03171
 O88 O -0.08042 0.45794 1.01190
 Cu89 Cu -0.00178 0.56074 0.97691
 Cu90 Cu 0.00583 0.44100 1.02573
 C91 C -0.11245 0.51013 0.98820
 C92 C 0.11646 0.49167 1.01437
 C93 C -0.00495 0.47532 0.89342
 C94 C 0.00912 0.52637 1.10933
 O95 O -0.02078 -0.06327 0.43493
 O96 O -0.02172 0.09810 0.46311
 O97 O 0.06014 0.01817 0.43363
 O98 O -0.10065 0.01807 0.46411
 O99 O -0.06325 -0.01761 0.56638
 O100 O 0.09750 -0.01903 0.53567
 O101 O 0.01809 0.06323 0.56508
 O102 O 0.01782 -0.09817 0.53716
 Cu103 Cu -0.02420 0.02109 0.43866
 Cu104 Cu 0.02109 -0.02111 0.56136
 C105 C -0.00125 -0.10823 0.48116
 C106 C -0.00227 0.10817 0.51902
 C107 C 0.10622 -0.00097 0.47933
 C108 C -0.10942 0.00051 0.52054
 C109 C -0.27477 0.48210 1.01341
 C110 C -0.31073 0.53703 0.97800
 C111 C -0.28076 0.58054 0.94265
 C112 C -0.21681 0.57061 0.94437
 C113 C -0.18091 0.51692 0.98147
 C114 C -0.21063 0.47200 1.01473
 H115 H -0.29534 0.44860 1.04333
 H116 H -0.30684 0.62276 0.91371
 H117 H -0.19528 0.60569 0.91750
 H118 H -0.18390 0.43038 1.04414
 C119 C 0.27844 0.52067 0.98902
 C120 C 0.31468 0.46567 1.02390
 C121 C 0.28497 0.42167 1.05899
 C122 C 0.22103 0.43125 1.05749
 C123 C 0.18489 0.48505 1.02091
 C124 C 0.21435 0.53040 0.98793
 H125 H 0.29870 0.55455 0.95921
 H126 H 0.31122 0.37939 1.08758
 H127 H 0.19969 0.39583 1.08412
 H128 H 0.18745 0.57212 0.95890
 C129 C 0.04698 -0.28064 0.49563
 C130 C -0.00033 -0.29722 0.45098
 C131 C -0.04638 -0.25049 0.41428
 C132 C -0.04614 -0.18885 0.42327
 C133 C -0.00044 -0.17290 0.46991
 C134 C 0.04614 -0.21937 0.50599
 H135 H 0.08421 -0.31533 0.52295
 H136 H -0.08278 -0.26187 0.37883
 H137 H -0.08243 -0.15385 0.39471
 H138 H 0.08251 -0.20807 0.54152
 C139 C -0.05303 0.27995 0.50568
 C140 C -0.00536 0.29719 0.54939
 C141 C 0.04175 0.25107 0.58528
 C142 C 0.04224 0.18938 0.57626
 C143 C -0.00379 0.17283 0.53038
 C144 C -0.05148 0.21867 0.49523
 H145 H -0.09104 0.31416 0.47904
 H146 H 0.07845 0.26298 0.62003
 H147 H 0.07936 0.15486 0.60415
 H148 H -0.08813 0.20686 0.46035
 C149 C 0.60138 -0.03002 -0.24548
 C150 C 0.55996 0.00555 -0.29910
 C151 C 0.51263 0.04819 -0.28801
 C152 C 0.50230 0.04969 -0.22620
 C153 C 0.54121 0.01122 -0.17358
 C154 C 0.59212 -0.02706 -0.18343
 H155 H 0.63898 -0.06286 -0.25139
 H156 H 0.48281 0.07994 -0.32739
 H157 H 0.46375 0.08091 -0.21946
 H158 H 0.62292 -0.05694 -0.14332
 C159 C 0.47787 -0.05797 0.28136
 C160 C 0.43896 -0.00939 0.29506
 C161 C 0.40710 0.03723 0.24467
 C162 C 0.41666 0.03709 0.18225
 C163 C 0.45912 -0.00897 0.16969
 C164 C 0.48920 -0.05684 0.21945
 H165 H 0.50134 -0.09544 0.31917
 H166 H 0.37611 0.07457 0.25397
 H167 H 0.39293 0.07429 0.14427
 H168 H 0.52149 -0.09321 0.21033
 C169 C 0.58045 -0.27903 0.04946
 C170 C 0.53540 -0.30869 0.01477
 C171 C 0.47905 -0.27312 -0.01827
 C172 C 0.46911 -0.20944 -0.01813
 C173 C 0.51548 -0.17999 0.01450
 C174 C 0.57056 -0.21569 0.04942
 H175 H 0.62379 -0.30493 0.07668
 H176 H 0.44415 -0.29369 -0.04733
 H177 H 0.42633 -0.18288 -0.04580
 H178 H 0.60685 -0.19445 0.07579
 C179 C 0.42846 0.28429 -0.05761
 C180 C 0.46949 0.31086 -0.01536
 C181 C 0.52099 0.27347 0.02482
 C182 C 0.53050 0.21005 0.02381
 C183 C 0.48780 0.18298 -0.01640
 C184 C 0.43736 0.22081 -0.05793
 H185 H 0.38835 0.31245 -0.08880
 H186 H 0.55249 0.29300 0.05855
 H187 H 0.56955 0.18178 0.05654
 H188 H 0.40402 0.20111 -0.08969
 C189 C -0.24867 -0.03850 0.59548
 C190 C -0.29887 -0.00140 0.55189
 C191 C -0.28459 0.03984 0.50076
 C192 C -0.22329 0.04016 0.49054
 C193 C -0.17401 0.00119 0.53262
 C194 C -0.18717 -0.03722 0.58592
 H195 H -0.25707 -0.07051 0.63587
 H196 H -0.32085 0.07253 0.46879
 H197 H -0.21433 0.07161 0.45003
 H198 H -0.15006 -0.06752 0.61941
 C199 C 0.24836 0.04231 0.41205
 C200 C 0.29510 -0.00431 0.44769
 C201 C 0.27835 -0.05163 0.49115
 C202 C 0.21709 -0.05006 0.50184
 C203 C 0.17068 -0.00273 0.46715
 C204 C 0.18660 0.04280 0.42129
 H205 H 0.25988 0.07870 0.37747
 H206 H 0.31304 -0.08925 0.51758
 H207 H 0.20573 -0.08632 0.53667
 H208 H 0.15159 0.07961 0.39376
 C209 C 0.04950 0.51154 1.28844
 C210 C 0.00823 0.55987 1.29976
 C211 C -0.02652 0.60201 1.24639
 C212 C -0.02431 0.59257 1.18419
 C213 C 0.01241 0.54082 1.17399
 C214 C 0.05024 0.50112 1.22646
 H215 H 0.08070 0.48100 1.32776
 H216 H -0.05830 0.64034 1.25252
 H217 H -0.05360 0.62403 1.14421
 H218 H 0.08038 0.46192 1.21947
 C219 C 0.03644 0.40688 0.75442
 C220 C -0.00866 0.44077 0.70340
 C221 C -0.05590 0.48182 0.71642
 C222 C -0.05480 0.49293 0.77851
 C223 C -0.00841 0.46067 0.82899
 C224 C 0.03617 0.41633 0.81694
 H225 H 0.07273 0.37430 0.74561
 H226 H -0.09229 0.50695 0.67806
 H227 H -0.09007 0.52671 0.78721
 H228 H 0.07223 0.39093 0.85549
   
