data_POSCAR
  _audit_creation_date              2014-09-24
  _audit_creation_method            'ToBaCCo'
  _symmetry_space_group_name_H-M    'P1'
  _symmetry_Int_Tables_number       1
  _symmetry_cell_setting            triclinic
  loop_
  _symmetry_equiv_pos_as_xyz
 x,y,z
_cell_length_a 9.4524
_cell_length_b 9.7415
_cell_length_c 25.1694
_cell_angle_alpha 97.135900
_cell_angle_beta 81.949900
_cell_angle_gamma 124.138400
loop_
  _atom_site_label
  _atom_site_type_symbol
  _atom_site_fract_x
  _atom_site_fract_y
  _atom_site_fract_z
Si1 Si -0.07883 -0.11299 0.51430
 Si2 Si 0.87088 -0.05054 0.16173
 Si3 Si 0.09838 1.10008 0.82946
 O4 O 0.35686 0.04099 -0.06693
 O5 O 0.50326 -0.11347 0.02503
 O6 O 0.25835 -0.06051 0.03115
 O7 O 0.61901 0.01077 -0.06917
 O8 O 0.78457 0.26406 -0.03274
 O9 O 0.42922 0.19656 0.06404
 O10 O 0.66819 0.14073 0.06089
 O11 O 0.52994 0.29538 -0.03248
 Cu12 Cu 0.41739 -0.05634 -0.02370
 Cu13 Cu 0.61910 0.24937 0.01844
 C14 C 0.41923 0.19557 -0.06498
 C15 C 0.61075 -0.01302 0.05827
 C16 C 0.28485 0.05953 0.06447
 C17 C 0.76393 0.14927 -0.06709
 O18 O 0.02659 0.36372 0.73320
 O19 O -0.15032 0.50667 0.64816
 O20 O -0.08282 0.27568 0.63730
 O21 O 0.00072 0.62494 0.73685
 O22 O 0.26039 0.78197 0.69626
 O23 O 0.17439 0.44457 0.59687
 O24 O 0.10841 0.67050 0.60794
 O25 O 0.28273 0.52476 0.69107
 Cu26 Cu -0.07710 0.42645 0.69329
 Cu27 Cu 0.23175 0.62152 0.64429
 C28 C 0.18448 0.41698 0.72529
 C29 C -0.05086 0.61389 0.61404
 C30 C 0.03513 0.30345 0.60008
 C31 C 0.14468 0.76449 0.73221
 O32 O 0.51982 0.60538 0.28685
 O33 O 0.20970 0.33739 0.39077
 O34 O 0.52360 0.59149 0.39125
 O35 O 0.22195 0.32287 0.28747
 O36 O 0.33785 0.17640 0.27683
 O37 O 0.63889 0.44448 0.37616
 O38 O 0.32348 0.18902 0.38105
 O39 O 0.63746 0.46061 0.27389
 Cu40 Cu 0.35901 0.48042 0.33996
 Cu41 Cu 0.49542 0.30281 0.32564
 C42 C 0.63011 0.57988 0.26227
 C43 C 0.21247 0.21781 0.40361
 C44 C 0.63177 0.56113 0.40138
 C45 C 0.22829 0.20126 0.26542
 N46 N -0.10373 0.02386 0.56312
 N47 N 0.01968 0.17550 0.56218
 N48 N 0.71263 0.77259 0.19890
 N49 N 0.75229 0.69335 0.22325
 N50 N 0.24920 0.17983 -0.12853
 N51 N 0.36737 0.26277 -0.09916
 N52 N -0.01950 0.77636 0.54712
 N53 N -0.11596 0.67957 0.58431
 N54 N 0.00611 0.10779 0.20900
 N55 N 0.11113 0.08785 0.22750
 N56 N 0.90446 0.06260 -0.13383
 N57 N 0.90968 0.17601 -0.10155
 N58 N 0.00769 -0.08454 0.11345
 N59 N 0.15250 0.04764 0.10246
 N60 N 0.73824 0.75388 0.47688
 N61 N 0.75460 0.66255 0.43939
 N62 N 0.17534 0.24321 0.78514
 N63 N 0.25690 0.35609 0.75380
 N64 N 0.77384 0.02133 0.12710
 N65 N 0.67436 -0.07284 0.09104
 N66 N 0.09442 0.01100 0.46641
 N67 N 0.08578 0.11445 0.44348
 N68 N 0.05771 0.90924 0.79573
 N69 N 0.17540 0.90833 0.76478
   
