data_POSCAR
  _audit_creation_date              2014-09-24
  _audit_creation_method            'ToBaCCo'
  _symmetry_space_group_name_H-M    'P1'
  _symmetry_Int_Tables_number       1
  _symmetry_cell_setting            triclinic
  loop_
  _symmetry_equiv_pos_as_xyz
 x,y,z
_cell_length_a 39.7943
_cell_length_b 39.8871
_cell_length_c 39.9501
_cell_angle_alpha 89.726100
_cell_angle_beta 90.151000
_cell_angle_gamma 90.037700
loop_
  _atom_site_label
  _atom_site_type_symbol
  _atom_site_fract_x
  _atom_site_fract_y
  _atom_site_fract_z
N1 N 0.30652 0.23948 0.21208
 N2 N 0.29287 0.26626 0.19845
 C3 C 0.31074 0.27514 0.17120
 C4 C 0.33698 0.25266 0.16769
 C5 C 0.33346 0.23037 0.19398
 H6 H 0.30511 0.29632 0.15520
 H7 H 0.34954 0.20924 0.19963
 Cu8 Cu 0.25333 0.28696 0.21797
 Cu9 Cu 0.28894 0.21889 0.25269
 Cu10 Cu 0.21854 0.25571 0.28813
 N11 N 0.21380 0.30731 0.23783
 N12 N 0.20037 0.29507 0.26533
 C13 C 0.17373 0.31396 0.27386
 C14 C 0.17034 0.33942 0.25039
 C15 C 0.19608 0.33437 0.22791
 H16 H 0.15805 0.30941 0.29544
 H17 H 0.20143 0.34950 0.20605
 N18 N 0.24076 0.21576 0.30732
 N19 N 0.26752 0.20181 0.29376
 C20 C 0.27702 0.17547 0.31272
 C21 C 0.25533 0.17268 0.33945
 C22 C 0.23254 0.19859 0.33528
 H23 H 0.29828 0.15942 0.30762
 H24 H 0.21163 0.20460 0.35137
 H25 H 0.23966 0.23444 0.24608
 H26 H 0.26742 0.26199 0.27191
 N27 N 0.69266 -0.24104 0.21569
 N28 N 0.70514 -0.26938 0.20461
 C29 C 0.68614 -0.28024 0.17887
 C30 C 0.66036 -0.25757 0.17363
 C31 C 0.66527 -0.23293 0.19753
 H32 H 0.69077 -0.30283 0.16475
 H33 H 0.65042 -0.21061 0.20135
 Cu34 Cu 0.74531 -0.28933 0.22437
 Cu35 Cu 0.71315 -0.21645 0.25242
 Cu36 Cu 0.78824 -0.24723 0.28378
 N37 N 0.78776 -0.30583 0.24245
 N38 N 0.80547 -0.28819 0.26390
 C39 C 0.83406 -0.30475 0.27123
 C40 C 0.83394 -0.33473 0.25406
 C41 C 0.80417 -0.33460 0.23592
 H42 H 0.85292 -0.29631 0.28883
 H43 H 0.79527 -0.35374 0.21901
 N44 N 0.76661 -0.20642 0.30103
 N45 N 0.73766 -0.19502 0.28951
 C46 C 0.72858 -0.16800 0.30749
 C47 C 0.75301 -0.16224 0.33152
 C48 C 0.77668 -0.18700 0.32666
 H49 H 0.70567 -0.15395 0.30368
 H50 H 0.79925 -0.19088 0.34129
 H51 H 0.76113 -0.23299 0.24178
 H52 H 0.73776 -0.25637 0.27511
 N53 N 0.69503 0.23789 0.78779
 N54 N 0.70821 0.26497 0.80112
 C55 C 0.68939 0.27427 0.82749
 C56 C 0.66309 0.25171 0.83073
 C57 C 0.66751 0.22901 0.80519
 H58 H 0.69454 0.29569 0.84315
 H59 H 0.65180 0.20757 0.79976
 Cu60 Cu 0.74864 0.28546 0.78277
 Cu61 Cu 0.71442 0.21604 0.74903
 Cu62 Cu 0.78497 0.25279 0.71410
 N63 N 0.78750 0.30646 0.76179
 N64 N 0.80146 0.29363 0.73495
 C65 C 0.82750 0.31302 0.72559
 C66 C 0.83007 0.33944 0.74768
 C67 C 0.80423 0.33453 0.77043
 H68 H 0.84349 0.30827 0.70428
 H69 H 0.79801 0.35006 0.79161
 N70 N 0.76456 0.21139 0.69657
 N71 N 0.73754 0.19752 0.70980
 C72 C 0.72955 0.16986 0.69229
 C73 C 0.75272 0.16614 0.66683
 C74 C 0.77452 0.19284 0.67030
 H75 H 0.70848 0.15366 0.69776
 H76 H 0.79602 0.19829 0.65470
 H77 H 0.76323 0.23235 0.75642
 H78 H 0.73579 0.25915 0.72928
 N79 N 0.30607 -0.23992 0.78895
 N80 N 0.29236 -0.26703 0.80185
 C81 C 0.31076 -0.27710 0.82840
 C82 C 0.33731 -0.25516 0.83237
 C83 C 0.33359 -0.23179 0.80687
 H84 H 0.30534 -0.29877 0.84384
 H85 H 0.34956 -0.21047 0.80169
 Cu86 Cu 0.25185 -0.28668 0.78283
 Cu87 Cu 0.28721 -0.21722 0.74993
 Cu88 Cu 0.21604 -0.25250 0.71436
 N89 N 0.21245 -0.30665 0.76185
 N90 N 0.19868 -0.29321 0.73504
 C91 C 0.17212 -0.31187 0.72564
 C92 C 0.16902 -0.33845 0.74772
 C93 C 0.19509 -0.33439 0.77047
 H94 H 0.15613 -0.30650 0.70435
 H95 H 0.20102 -0.35027 0.79166
 N96 N 0.23725 -0.21135 0.69697
 N97 N 0.26443 -0.19794 0.71039
 C98 C 0.27274 -0.17018 0.69289
 C99 C 0.24959 -0.16598 0.66729
 C100 C 0.22752 -0.19246 0.67066
 H101 H 0.29396 -0.15423 0.69847
 H102 H 0.20593 -0.19747 0.65496
 H103 H 0.23823 -0.23285 0.75685
 H104 H 0.26528 -0.25955 0.72968
 N105 N 0.69384 -0.23855 0.79075
 N106 N 0.70818 -0.26510 0.80414
 C107 C 0.69009 -0.27514 0.83081
 C108 C 0.66307 -0.25376 0.83433
 C109 C 0.66621 -0.23074 0.80846
 H110 H 0.69594 -0.29650 0.84655
 H111 H 0.64967 -0.20999 0.80277
 Cu112 Cu 0.74885 -0.28436 0.78537
 Cu113 Cu 0.71172 -0.21651 0.75104
 Cu114 Cu 0.78304 -0.25117 0.71568
 N115 N 0.78825 -0.30402 0.76445
 N116 N 0.80150 -0.29090 0.73728
 C117 C 0.82799 -0.30952 0.72786
 C118 C 0.83153 -0.33579 0.75024
 C119 C 0.80587 -0.33154 0.77326
 H120 H 0.84347 -0.30450 0.70619
 H121 H 0.80023 -0.34726 0.79462
 N122 N 0.76072 -0.21101 0.69741
 N123 N 0.73353 -0.19783 0.71084
 C124 C 0.72398 -0.17114 0.69238
 C125 C 0.74612 -0.16739 0.66611
 C126 C 0.76919 -0.19305 0.67006
 H127 H 0.70233 -0.15560 0.69740
 H128 H 0.79039 -0.19843 0.65414
 H129 H 0.73421 -0.25894 0.73167
 H130 H 0.76111 -0.23097 0.75788
 N131 N 0.30486 0.24326 0.78833
 N132 N 0.28655 0.26482 0.80511
 C133 C 0.30354 0.27450 0.83260
 C134 C 0.33429 0.25854 0.83273
 C135 C 0.33437 0.23885 0.80431
 H136 H 0.29436 0.29202 0.85101
 H137 H 0.35395 0.22186 0.79644
 Cu138 Cu 0.24265 0.27901 0.78930
 Cu139 Cu 0.28794 0.22069 0.74857
 Cu140 Cu 0.21448 0.25205 0.71448
 N141 N 0.20634 0.30156 0.76575
 N142 N 0.19526 0.29085 0.73668
 C143 C 0.17037 0.31110 0.72604
 C144 C 0.16571 0.33588 0.74958
 C145 C 0.18895 0.32908 0.77457
 H146 H 0.15678 0.30823 0.70275
 H147 H 0.19308 0.34300 0.79736
 N148 N 0.23809 0.21303 0.69588
 N149 N 0.26635 0.20125 0.70865
 C150 C 0.27636 0.17473 0.69048
 C151 C 0.25338 0.16965 0.66505
 C152 C 0.22938 0.19437 0.66922
 H153 H 0.29867 0.16001 0.69537
 H154 H 0.20718 0.19848 0.65412
 H155 H 0.26146 0.26286 0.73401
 H156 H 0.23706 0.22871 0.75538
 N157 N 0.30526 -0.24021 0.21542
 N158 N 0.29151 -0.26767 0.20349
 C159 C 0.30999 -0.27862 0.17753
 C160 C 0.33669 -0.25692 0.17301
 C161 C 0.33291 -0.23278 0.19751
 H162 H 0.30435 -0.30050 0.16267
 H163 H 0.34879 -0.21125 0.20188
 Cu164 Cu 0.25021 -0.28543 0.22264
 Cu165 Cu 0.28613 -0.21583 0.25304
 Cu166 Cu 0.21118 -0.24628 0.28564
 N167 N 0.20890 -0.30317 0.24179
 N168 N 0.19275 -0.28649 0.26507
 C169 C 0.16432 -0.30301 0.27294
 C170 C 0.16296 -0.33187 0.25414
 C171 C 0.19159 -0.33128 0.23458
 H172 H 0.14644 -0.29521 0.29169
 H173 H 0.19890 -0.34970 0.21622
 N174 N 0.23412 -0.20624 0.30322
 N175 N 0.26278 -0.19483 0.29106
 C176 C 0.27286 -0.16846 0.30949
 C177 C 0.24961 -0.16317 0.33448
 C178 C 0.22529 -0.18750 0.32973
 H179 H 0.29581 -0.15447 0.30558
 H180 H 0.20319 -0.19173 0.34482
 H181 H 0.26104 -0.25582 0.27473
 H182 H 0.23709 -0.22981 0.24394
 N183 N 0.69148 0.23956 0.21412
 N184 N 0.70388 0.26737 0.20139
 C185 C 0.68451 0.27725 0.17547
 C186 C 0.65860 0.25435 0.17191
 C187 C 0.66384 0.23079 0.19678
 H188 H 0.68909 0.29925 0.16027
 H189 H 0.64870 0.20880 0.20171
 Cu190 Cu 0.74413 0.28777 0.21995
 Cu191 Cu 0.71216 0.21663 0.25198
 Cu192 Cu 0.78387 0.25280 0.28575
 N193 N 0.78439 0.30772 0.23893
 N194 N 0.79962 0.29416 0.26491
 C195 C 0.82644 0.31302 0.27312
 C196 C 0.82805 0.33982 0.25102
 C197 C 0.80109 0.33561 0.22966
 H198 H 0.84359 0.30738 0.29340
 H199 H 0.79429 0.35176 0.20891
 N200 N 0.76396 0.21095 0.30315
 N201 N 0.73667 0.19722 0.29027
 C202 C 0.72941 0.16900 0.30740
 C203 C 0.75334 0.16476 0.33223
 C204 C 0.77478 0.19176 0.32883
 H205 H 0.70827 0.15282 0.30218
 H206 H 0.79665 0.19695 0.34408
 H207 H 0.73398 0.25879 0.27282
 H208 H 0.76056 0.23380 0.24369
 C209 C 0.23470 -0.01241 0.39846
 C210 C 0.23522 0.02192 0.39925
 C211 C 0.24523 0.03082 0.43127
 N212 N 0.25089 0.00310 0.45004
 C213 C 0.24441 -0.02337 0.43002
 C214 C 0.25120 0.06395 0.44197
 C215 C 0.25754 0.07209 0.47583
 C216 C 0.27230 0.10161 0.48671
 C217 C 0.27207 0.10062 0.52112
 C218 C 0.25717 0.07052 0.53032
 N219 N 0.24856 0.05319 0.50257
 C220 C 0.25006 0.06058 0.56360
 C221 C 0.24430 0.02683 0.57265
 C222 C 0.23294 0.01608 0.60365
 C223 C 0.23284 -0.01830 0.60287
 C224 C 0.24439 -0.02740 0.57149
 N225 N 0.25132 0.00023 0.55303
 C226 C 0.25030 -0.06065 0.56090
 C227 C 0.25600 -0.06902 0.52706
 C228 C 0.26878 -0.09943 0.51625
 C229 C 0.26857 -0.09845 0.48185
 C230 C 0.25547 -0.06756 0.47255
 N231 N 0.24795 -0.04972 0.50027
 C232 C 0.24923 -0.05723 0.43917
 H233 H 0.22808 -0.02755 0.37701
 H234 H 0.22908 0.03841 0.37853
 H235 H 0.23463 -0.02730 0.50085
 H236 H 0.28224 0.12180 0.47149
 H237 H 0.28179 0.11990 0.53747
 H238 H 0.22548 0.03138 0.62466
 H239 H 0.22513 -0.03465 0.62313
 H240 H 0.27708 -0.11832 0.46559
 H241 H 0.23398 0.03152 0.50197
 H242 H 0.27736 -0.12021 0.53154
 C243 C 0.76652 -0.01618 0.60291
 C244 C 0.76726 0.01819 0.60240
 C245 C 0.75595 0.02804 0.57102
 N246 N 0.74852 0.00086 0.55229
 C247 C 0.75505 -0.02619 0.57172
 C248 C 0.75091 0.06157 0.56058
 C249 C 0.74535 0.07057 0.52677
 C250 C 0.73379 0.10162 0.51607
 C251 C 0.73407 0.10119 0.48168
 C252 C 0.74581 0.06988 0.47230
 N253 N 0.75260 0.05135 0.49993
 C254 C 0.75215 0.06009 0.43898
 C255 C 0.75734 0.02634 0.42974
 C256 C 0.77004 0.01579 0.39929
 C257 C 0.76907 -0.01860 0.39976
 C258 C 0.75579 -0.02789 0.43047
 N259 N 0.74868 -0.00039 0.44877
 C260 C 0.74865 -0.06112 0.44065
 C261 C 0.74202 -0.06976 0.47434
 C262 C 0.72806 -0.09987 0.48482
 C263 C 0.72795 -0.09943 0.51925
 C264 C 0.74210 -0.06916 0.52887
 N265 N 0.75045 -0.05116 0.50133
 C266 C 0.74892 -0.05970 0.56233
 H267 H 0.77374 -0.03197 0.62383
 H268 H 0.77527 0.03405 0.62282
 H269 H 0.76468 -0.02927 0.50103
 H270 H 0.72616 0.12255 0.53142
 H271 H 0.72671 0.12174 0.46546
 H272 H 0.77921 0.03120 0.37890
 H273 H 0.77736 -0.03484 0.37981
 H274 H 0.71869 -0.11929 0.53531
 H275 H 0.76520 0.02852 0.50040
 H276 H 0.71901 -0.12014 0.46929
 C277 C 0.39641 0.26139 -0.02195
 C278 C 0.39541 0.26207 0.01236
 C279 C 0.42745 0.25409 0.02350
 N280 N 0.44778 0.24803 -0.00284
 C281 C 0.42891 0.25253 -0.03067
 C282 C 0.43679 0.24959 0.05737
 C283 C 0.47031 0.24429 0.06790
 C284 C 0.47969 0.23387 0.09975
 C285 C 0.51421 0.23442 0.10080
 C286 C 0.52504 0.24517 0.06956
 N287 N 0.49810 0.25137 0.04975
 C288 C 0.55897 0.25121 0.06100
 C289 C 0.57021 0.25574 0.02775
 C290 C 0.60316 0.26223 0.01852
 C291 C 0.60405 0.26144 -0.01577
 C292 C 0.57162 0.25444 -0.02644
 N293 N 0.55112 0.25071 0.00022
 C294 C 0.56213 0.24784 -0.05986
 C295 C 0.52884 0.24000 -0.06930
 C296 C 0.51985 0.22413 -0.09880
 C297 C 0.48534 0.22324 -0.09968
 C298 C 0.47412 0.23927 -0.07106
 N299 N 0.50083 0.24910 -0.05249
 C300 C 0.44002 0.24617 -0.06360
 H301 H 0.37538 0.26635 -0.03845
 H302 H 0.37340 0.26738 0.02724
 H303 H 0.49999 0.26473 -0.03172
 H304 H 0.46340 0.22713 0.12037
 H305 H 0.52951 0.22814 0.12236
 H306 H 0.62467 0.26600 0.03467
 H307 H 0.62638 0.26436 -0.03087
 H308 H 0.47032 0.21214 -0.11933
 H309 H 0.49851 0.26350 0.02669
 H310 H 0.53637 0.21419 -0.11779
 C311 C 0.60273 0.76161 -0.01301
 C312 C 0.60267 0.76093 0.02131
 C313 C 0.57077 0.75086 0.03093
 N314 N 0.55136 0.74532 0.00367
 C315 C 0.57086 0.75193 -0.02322
 C316 C 0.56066 0.74493 0.06428
 C317 C 0.52688 0.73823 0.07305
 C318 C 0.51668 0.72332 0.10275
 C319 C 0.48213 0.72332 0.10254
 C320 C 0.47215 0.73825 0.07271
 N321 N 0.49959 0.74708 0.05476
 C322 C 0.43845 0.74504 0.06356
 C323 C 0.42853 0.75103 0.03011
 C324 C 0.39671 0.76116 0.02017
 C325 C 0.39679 0.76180 -0.01415
 C326 C 0.42866 0.75203 -0.02405
 N327 N 0.44803 0.74541 0.00304
 C328 C 0.43872 0.74720 -0.05753
 C329 C 0.47249 0.74081 -0.06648
 C330 C 0.48267 0.72670 -0.09644
 C331 C 0.51721 0.72669 -0.09623
 C332 C 0.52721 0.74078 -0.06615
 N333 N 0.49980 0.74914 -0.04804
 C334 C 0.56093 0.74717 -0.05681
 H335 H 0.62391 0.76831 -0.02861
 H336 H 0.62379 0.76701 0.03730
 H337 H 0.49975 0.76312 -0.02610
 H338 H 0.53246 0.71344 0.12257
 H339 H 0.46621 0.71343 0.12216
 H340 H 0.37555 0.76732 0.03594
 H341 H 0.37571 0.76855 -0.02997
 H342 H 0.53311 0.71728 -0.11601
 H343 H 0.49967 0.76173 0.03313
 H344 H 0.46689 0.71730 -0.11641
 C345 C -0.01796 0.39754 0.25918
 C346 C 0.01650 0.39759 0.25937
 C347 C 0.02648 0.42983 0.25089
 N348 N -0.00074 0.44932 0.24532
 C349 C -0.02795 0.42976 0.25058
 C350 C 0.05984 0.43991 0.24429
 C351 C 0.06831 0.47317 0.23550
 C352 C 0.09780 0.48272 0.21971
 C353 C 0.09751 0.51715 0.21792
 C354 C 0.06824 0.52775 0.23340
 N355 N 0.05035 0.50074 0.24364
 C356 C 0.05962 0.56153 0.23998
 C357 C 0.02603 0.57143 0.24556
 C358 C 0.01594 0.60298 0.25592
 C359 C -0.01856 0.60293 0.25555
 C360 C -0.02841 0.57136 0.24496
 N361 N -0.00112 0.55216 0.23888
 C362 C -0.06187 0.56132 0.23864
 C363 C -0.07008 0.52743 0.23191
 C364 C -0.09883 0.51647 0.21555
 C365 C -0.09890 0.48205 0.21753
 C366 C -0.06975 0.47284 0.23424
 N367 N -0.05221 0.50061 0.24275
 C368 C -0.06128 0.43973 0.24355
 H369 H -0.03363 0.37578 0.26341
 H370 H 0.03219 0.37588 0.26380
 H371 H -0.03144 0.50137 0.25867
 H372 H 0.11758 0.46664 0.21050
 H373 H 0.11690 0.53254 0.20674
 H374 H 0.03172 0.62393 0.26289
 H375 H -0.03447 0.62383 0.26222
 H376 H -0.11829 0.46574 0.20778
 H377 H 0.02921 0.50131 0.25894
 H378 H -0.11800 0.53162 0.20360
 C379 C -0.01712 0.60396 0.76903
 C380 C 0.01733 0.60363 0.76877
 C381 C 0.02684 0.57181 0.75872
 N382 N -0.00060 0.55271 0.75279
 C383 C -0.02751 0.57234 0.75911
 C384 C 0.06026 0.56158 0.75296
 C385 C 0.06892 0.52784 0.74649
 C386 C 0.09861 0.51743 0.73171
 C387 C 0.09819 0.48296 0.73188
 C388 C 0.06824 0.47325 0.74670
 N389 N 0.05044 0.50075 0.75538
 C390 C 0.05873 0.43972 0.75338
 C391 C 0.02508 0.43018 0.75906
 C392 C 0.01481 0.39848 0.76911
 C393 C -0.01963 0.39881 0.76909
 C394 C -0.02927 0.43071 0.75904
 N395 N -0.00190 0.44986 0.75290
 C396 C -0.06274 0.44092 0.75333
 C397 C -0.07151 0.47473 0.74697
 C398 C -0.10133 0.48526 0.73231
 C399 C -0.10090 0.51972 0.73242
 C400 C -0.07081 0.52932 0.74712
 N401 N -0.05294 0.50175 0.75576
 C402 C -0.06125 0.56280 0.75376
 H403 H -0.03268 0.62517 0.77558
 H404 H 0.03347 0.62452 0.77510
 H405 H -0.03108 0.50141 0.77013
 H406 H 0.11852 0.53301 0.72175
 H407 H 0.11772 0.46692 0.72209
 H408 H 0.03046 0.37722 0.77556
 H409 H -0.03569 0.37786 0.77553
 H410 H -0.12051 0.53584 0.72267
 H411 H 0.02873 0.50097 0.76986
 H412 H -0.12133 0.46977 0.72243
 C413 C 0.36351 0.25172 0.14203
 C414 C 0.36690 0.27556 0.11849
 C415 C 0.39340 0.27543 0.09260
 C416 C 0.41012 0.24796 0.08310
 H417 H 0.35036 0.29707 0.11860
 H418 H 0.39857 0.29900 0.08002
 H419 H 0.38105 0.23107 0.14339
 H420 H 0.40535 0.22386 0.09463
 C421 C 0.63553 0.74016 0.14885
 C422 C 0.61075 0.76278 0.14529
 C423 C 0.58435 0.76111 0.11918
 C424 C 0.58720 0.74389 0.09058
 H425 H 0.60859 0.78326 0.16280
 H426 H 0.56216 0.77631 0.12309
 H427 H 0.63662 0.71876 0.13235
 H428 H 0.61033 0.73095 0.08480
 C429 C 0.63600 0.25067 -0.14421
 C430 C 0.63219 0.27434 -0.12085
 C431 C 0.60540 0.27389 -0.09528
 C432 C 0.58850 0.24634 -0.08592
 H433 H 0.64874 0.29587 -0.12072
 H434 H 0.60032 0.29731 -0.08262
 H435 H 0.61857 0.22993 -0.14577
 H436 H 0.59321 0.22237 -0.09750
 C437 C 0.36324 0.74283 -0.14125
 C438 C 0.38841 0.76505 -0.13867
 C439 C 0.41476 0.76378 -0.11246
 C440 C 0.41205 0.74650 -0.08370
 H441 H 0.39073 0.78487 -0.15709
 H442 H 0.43693 0.77902 -0.11663
 H443 H 0.36139 0.72203 -0.12391
 H444 H 0.38901 0.73344 -0.07774
 C445 C 0.14511 0.36642 0.24851
 C446 C 0.12215 0.37135 0.27247
 C447 C 0.09628 0.39794 0.27137
 C448 C 0.08670 0.41420 0.24351
 H449 H 0.12248 0.35577 0.29470
 H450 H 0.08344 0.40332 0.29463
 H451 H 0.14625 0.38284 0.22695
 H452 H 0.09851 0.40929 0.21971
 C453 C 0.14420 0.63675 0.74641
 C454 C 0.14219 0.61141 0.76859
 C455 C 0.11590 0.58514 0.76787
 C456 C 0.08659 0.58803 0.75145
 H457 H 0.16102 0.60880 0.78800
 H458 H 0.12044 0.56292 0.78293
 H459 H 0.12623 0.63851 0.72613
 H460 H 0.08028 0.61112 0.73863
 C461 C -0.14130 0.64046 0.25597
 C462 C -0.14568 0.60952 0.24379
 C463 C -0.11986 0.58334 0.24736
 C464 C -0.08823 0.58794 0.23687
 H465 H -0.16968 0.60198 0.23349
 H466 H -0.12782 0.55927 0.25710
 H467 H -0.11824 0.64622 0.26929
 H468 H -0.08119 0.61236 0.22712
 C469 C -0.14571 0.36483 0.74637
 C470 C -0.14409 0.38999 0.76856
 C471 C -0.11820 0.41668 0.76794
 C472 C -0.08892 0.41435 0.75156
 H473 H -0.16286 0.39202 0.78798
 H474 H -0.12295 0.43862 0.78309
 H475 H -0.12784 0.36366 0.72606
 H476 H -0.08240 0.39151 0.73865
 C477 C 0.25721 0.14699 0.36604
 C478 C 0.23542 0.14543 0.39155
 C479 C 0.23631 0.11946 0.41817
 C480 C 0.25318 0.09047 0.41580
 H481 H 0.21604 0.16430 0.39370
 H482 H 0.22091 0.12382 0.44004
 H483 H 0.27759 0.12920 0.36425
 H484 H 0.26649 0.08430 0.39310
 C485 C 0.75468 0.13985 0.64107
 C486 C 0.73205 0.11502 0.63879
 C487 C 0.73318 0.08799 0.61358
 C488 C 0.75173 0.08901 0.58562
 H489 H 0.71186 0.11346 0.65680
 H490 H 0.71692 0.06662 0.61790
 H491 H 0.77569 0.14115 0.62403
 H492 H 0.76586 0.11127 0.57920
 C493 C 0.24765 -0.13945 0.64152
 C494 C 0.27021 -0.11457 0.63923
 C495 C 0.26867 -0.08729 0.61401
 C496 C 0.25031 -0.08846 0.58583
 H497 H 0.29044 -0.11310 0.65731
 H498 H 0.28437 -0.06557 0.61856
 H499 H 0.22654 -0.14056 0.62448
 H500 H 0.23688 -0.11106 0.57919
 C501 C 0.75413 -0.13640 0.35781
 C502 C 0.73041 -0.11277 0.36100
 C503 C 0.73135 -0.08619 0.38668
 C504 C 0.74858 -0.08850 0.41550
 H505 H 0.70995 -0.11157 0.34315
 H506 H 0.71618 -0.06411 0.38195
 H507 H 0.77560 -0.13676 0.37446
 H508 H 0.76117 -0.11163 0.42218
 C509 C 0.63709 0.74391 -0.13953
 C510 C 0.61154 0.76568 -0.13733
 C511 C 0.58509 0.76412 -0.11138
 C512 C 0.58769 0.74664 -0.08272
 H513 H 0.60901 0.78540 -0.15585
 H514 H 0.56290 0.77929 -0.11566
 H515 H 0.63926 0.72325 -0.12205
 H516 H 0.61070 0.73356 -0.07660
 C517 C 0.36021 0.26093 -0.14112
 C518 C 0.39262 0.25478 -0.14740
 C519 C 0.41865 0.25698 -0.12124
 C520 C 0.41408 0.24426 -0.09048
 H521 H 0.40074 0.24990 -0.17276
 H522 H 0.44255 0.26796 -0.12811
 H523 H 0.35258 0.26909 -0.11645
 H524 H 0.39010 0.23291 -0.08438
 C525 C 0.36262 0.74055 0.14681
 C526 C 0.38816 0.76238 0.14430
 C527 C 0.41455 0.76095 0.11832
 C528 C 0.41175 0.74399 0.08954
 H529 H 0.39076 0.78210 0.16261
 H530 H 0.43684 0.77596 0.12262
 H531 H 0.36048 0.71985 0.12957
 H532 H 0.38862 0.73114 0.08340
 C533 C 0.63140 0.25365 0.14687
 C534 C 0.62731 0.27786 0.12384
 C535 C 0.60099 0.27749 0.09768
 C536 C 0.58425 0.24997 0.08822
 H537 H 0.64358 0.29959 0.12413
 H538 H 0.59636 0.30084 0.08448
 H539 H 0.61437 0.23257 0.14799
 H540 H 0.58842 0.22602 0.10027
 C541 C -0.14389 0.63925 0.74873
 C542 C -0.14177 0.61395 0.77095
 C543 C -0.11596 0.58729 0.76978
 C544 C -0.08702 0.58975 0.75282
 H545 H -0.16022 0.61160 0.79066
 H546 H -0.12056 0.56511 0.78485
 H547 H -0.12633 0.64074 0.72817
 H548 H -0.08056 0.61275 0.73995
 C549 C -0.14700 0.36704 0.24915
 C550 C -0.12314 0.37132 0.27246
 C551 C -0.09742 0.39803 0.27115
 C552 C -0.08816 0.41403 0.24308
 H553 H -0.12265 0.35518 0.29430
 H554 H -0.08432 0.40356 0.29429
 H555 H -0.14906 0.38420 0.22821
 H556 H -0.10020 0.40882 0.21939
 C557 C 0.14075 0.36308 0.74749
 C558 C 0.13858 0.38741 0.77042
 C559 C 0.11338 0.41463 0.76919
 C560 C 0.08440 0.41273 0.75213
 H561 H 0.15653 0.38827 0.79078
 H562 H 0.11824 0.43646 0.78450
 H563 H 0.12418 0.36300 0.72599
 H564 H 0.07773 0.38995 0.73912
 C565 C 0.13645 0.64247 0.25533
 C566 C 0.14290 0.61023 0.24898
 C567 C 0.11693 0.58401 0.25120
 C568 C 0.08584 0.58823 0.23887
 H569 H 0.16847 0.60226 0.24430
 H570 H 0.12437 0.56011 0.26178
 H571 H 0.11163 0.64998 0.26348
 H572 H 0.07904 0.61230 0.22817
 C573 C 0.74427 -0.14142 0.63979
 C574 C 0.76620 -0.13974 0.61440
 C575 C 0.76500 -0.11419 0.58746
 C576 C 0.74787 -0.08534 0.58940
 H577 H 0.78572 -0.15847 0.61234
 H578 H 0.78019 -0.11890 0.56551
 H579 H 0.72373 -0.12380 0.64144
 H580 H 0.73490 -0.07873 0.61218
 C581 C 0.25195 -0.13758 0.36090
 C582 C 0.22957 -0.13538 0.38584
 C583 C 0.23134 -0.11042 0.41307
 C584 C 0.24987 -0.08238 0.41186
 H585 H 0.20922 -0.15330 0.38736
 H586 H 0.21542 -0.11483 0.43461
 H587 H 0.27334 -0.12090 0.35987
 H588 H 0.26379 -0.07597 0.38953
 C589 C 0.75610 0.13792 0.35756
 C590 C 0.73417 0.11243 0.35939
 C591 C 0.73566 0.08534 0.38475
 C592 C 0.75357 0.08695 0.41316
 H593 H 0.71416 0.11057 0.34112
 H594 H 0.71983 0.06367 0.38040
 H595 H 0.77705 0.13946 0.37474
 H596 H 0.76718 0.10951 0.41951
 C597 C 0.25501 0.14315 0.63948
 C598 C 0.23249 0.14069 0.61459
 C599 C 0.23368 0.11495 0.58811
 C600 C 0.25055 0.08597 0.59072
 H601 H 0.21270 0.15914 0.61234
 H602 H 0.21881 0.11972 0.56583
 H603 H 0.27590 0.12589 0.64109
 H604 H 0.26310 0.07933 0.61387
   
