data_POSCAR
  _audit_creation_date              2014-09-24
  _audit_creation_method            'ToBaCCo'
  _symmetry_space_group_name_H-M    'P1'
  _symmetry_Int_Tables_number       1
  _symmetry_cell_setting            triclinic
  loop_
  _symmetry_equiv_pos_as_xyz
 x,y,z
_cell_length_a 46.4191
_cell_length_b 46.4258
_cell_length_c 46.4332
_cell_angle_alpha 89.993100
_cell_angle_beta 90.062700
_cell_angle_gamma 89.992900
loop_
  _atom_site_label
  _atom_site_type_symbol
  _atom_site_fract_x
  _atom_site_fract_y
  _atom_site_fract_z
C1 C 0.25119 1.07883 0.00074
 C2 C 0.25469 1.06371 0.02649
 C3 C 0.25571 1.03353 0.02626
 C4 C 0.25154 1.01790 0.00039
 C5 C 0.24718 1.03378 -0.02528
 C6 C 0.24785 1.06395 -0.02517
 C7 C 0.25164 0.98544 0.00016
 C8 C 0.25643 0.96983 -0.02562
 C9 C 0.25559 0.93967 -0.02586
 C10 C 0.25164 0.92452 -0.00023
 C11 C 0.24769 0.93936 0.02557
 C12 C 0.24687 0.96951 0.02572
 H13 H 0.25104 1.10223 0.00086
 H14 H 0.25990 1.02264 0.04640
 H15 H 0.24307 1.02308 -0.04554
 H16 H 0.26095 0.98066 -0.04569
 H17 H 0.25162 0.90115 -0.00037
 H18 H 0.24232 0.98008 0.04593
 C19 C 0.75266 0.57656 0.50021
 C20 C 0.75615 0.56142 0.52593
 C21 C 0.75683 0.53125 0.52572
 C22 C 0.75239 0.51565 0.49988
 C23 C 0.74807 0.53157 0.47423
 C24 C 0.74902 0.56171 0.47436
 C25 C 0.75216 0.48318 0.49966
 C26 C 0.75656 0.46753 0.47384
 C27 C 0.75543 0.43738 0.47359
 C28 C 0.75154 0.42227 0.49926
 C29 C 0.74797 0.43714 0.52510
 C30 C 0.74747 0.46730 0.52526
 H31 H 0.75273 0.59993 0.50033
 H32 H 0.76098 0.52041 0.54589
 H33 H 0.74377 0.52101 0.45396
 H34 H 0.76101 0.47832 0.45372
 H35 H 0.75129 0.39890 0.49912
 H36 H 0.74323 0.47792 0.54551
 C37 C 0.74728 0.99901 1.07813
 C38 C 0.74388 0.97324 1.06302
 C39 C 0.74312 0.97343 1.03284
 C40 C 0.74748 0.99927 1.01720
 C41 C 0.75171 1.02496 1.03307
 C42 C 0.75077 1.02489 1.06323
 C43 C 0.74773 0.99941 0.98474
 C44 C 0.74327 1.02517 0.96898
 C45 C 0.74441 1.02530 0.93884
 C46 C 0.74838 0.99958 0.92384
 C47 C 0.75203 0.97380 0.93881
 C48 C 0.75255 0.97376 0.96895
 H49 H 0.74725 0.99892 1.10153
 H50 H 0.73899 0.95328 1.02196
 H51 H 0.75595 1.04519 1.02238
 H52 H 0.73874 1.04532 0.97969
 H53 H 0.74864 0.99963 0.90047
 H54 H 0.75690 0.95356 0.97964
 C55 C 0.24745 0.50012 0.57748
 C56 C 0.24373 0.47441 0.56240
 C57 C 0.24279 0.47459 0.53225
 C58 C 0.24722 0.50039 0.51657
 C59 C 0.25175 0.52604 0.53243
 C60 C 0.25105 0.52595 0.56258
 C61 C 0.24725 0.50054 0.48411
 C62 C 0.24297 0.52635 0.46839
 C63 C 0.24389 0.52648 0.43823
 C64 C 0.24744 0.50072 0.42320
 C65 C 0.25091 0.47490 0.43814
 C66 C 0.25163 0.47484 0.46828
 H67 H 0.24758 0.50002 0.60085
 H68 H 0.23846 0.45443 0.52148
 H69 H 0.25603 0.54629 0.52181
 H70 H 0.23878 0.54655 0.47913
 H71 H 0.24753 0.50078 0.39983
 H72 H 0.25582 0.45459 0.47893
 C73 C 1.07666 0.25134 0.00099
 C74 C 1.06139 0.25500 0.02661
 C75 C 1.03119 0.25574 0.02616
 C76 C 1.01574 0.25114 0.00022
 C77 C 1.03180 0.24666 -0.02527
 C78 C 1.06194 0.24758 -0.02494
 C79 C 0.98328 0.25089 -0.00024
 C80 C 0.96776 0.25537 -0.02616
 C81 C 0.93757 0.25419 -0.02659
 C82 C 0.92237 0.25019 -0.00098
 C83 C 0.93716 0.24653 0.02492
 C84 C 0.96730 0.24605 0.02523
 H85 H 1.10005 0.25138 0.00117
 H86 H 1.02013 0.26005 0.04618
 H87 H 1.02133 0.24226 -0.04557
 H88 H 0.97874 0.25993 -0.04616
 H89 H 0.89898 0.24992 -0.00114
 H90 H 0.97785 0.24171 0.04552
 C91 C 0.57826 0.75118 0.50013
 C92 C 0.56327 0.75495 0.52587
 C93 C 0.53311 0.75591 0.52576
 C94 C 0.51735 0.75148 0.50001
 C95 C 0.53311 0.74690 0.47432
 C96 C 0.56327 0.74756 0.47434
 C97 C 0.48489 0.75158 0.49995
 C98 C 0.46914 0.75616 0.47420
 C99 C 0.43898 0.75539 0.47412
 C100 C 0.42397 0.75167 0.49985
 C101 C 0.43895 0.74790 0.52563
 C102 C 0.46911 0.74704 0.52563
 H103 H 0.60164 0.75104 0.50018
 H104 H 0.52239 0.76028 0.54593
 H105 H 0.52239 0.74263 0.45411
 H106 H 0.47988 0.76048 0.45404
 H107 H 0.40060 0.75169 0.49982
 H108 H 0.47981 0.74265 0.54583
 C109 C 0.00076 0.74921 -0.07715
 C110 C 0.02641 0.74562 -0.06191
 C111 C 0.02606 0.74462 -0.03175
 C112 C 0.00014 0.74889 -0.01624
 C113 C -0.02545 0.75332 -0.03225
 C114 C -0.02520 0.75265 -0.06242
 C115 C -0.00022 0.74883 0.01621
 C116 C -0.02608 0.74419 0.03174
 C117 C -0.02641 0.74509 0.06193
 C118 C -0.00073 0.74895 0.07713
 C119 C 0.02512 0.75275 0.06234
 C120 C 0.02532 0.75352 0.03221
 H121 H 0.00106 0.74934 -0.10053
 H122 H 0.04618 0.74038 -0.02085
 H123 H -0.04574 0.75751 -0.02167
 H124 H -0.04613 0.73972 0.02077
 H125 H -0.00082 0.74901 0.10051
 H126 H 0.04558 0.75797 0.02169
 C127 C 0.49938 0.24839 0.42279
 C128 C 0.52517 0.24457 0.43774
 C129 C 0.52517 0.24354 0.46789
 C130 C 0.49946 0.24797 0.48369
 C131 C 0.47372 0.25261 0.46796
 C132 C 0.47363 0.25201 0.43781
 C133 C 0.49951 0.24781 0.51615
 C134 C 0.47378 0.24335 0.53191
 C135 C 0.47379 0.24408 0.56207
 C136 C 0.49960 0.24763 0.57705
 C137 C 0.52536 0.25127 0.56206
 C138 C 0.52527 0.25217 0.53191
 H139 H 0.49934 0.24857 0.39942
 H140 H 0.54538 0.23914 0.47856
 H141 H 0.45354 0.25689 0.47870
 H142 H 0.45355 0.23916 0.52120
 H143 H 0.49964 0.24759 0.60042
 H144 H 0.54547 0.25647 0.52121
 C145 C 1.07667 0.00157 0.25190
 C146 C 1.06119 0.02707 0.25569
 C147 C 1.03100 0.02638 0.25660
 C148 C 1.01575 0.00031 0.25204
 C149 C 1.03202 -0.02504 0.24743
 C150 C 1.06215 -0.02446 0.24818
 C151 C 0.98329 -0.00044 0.25191
 C152 C 0.96801 -0.02651 0.25626
 C153 C 0.93782 -0.02718 0.25515
 C154 C 0.92238 -0.00165 0.25137
 C155 C 0.93693 0.02438 0.24783
 C156 C 0.96706 0.02494 0.24728
 H157 H 1.10005 0.00193 0.25181
 H158 H 1.01980 0.04630 0.26100
 H159 H 1.02172 -0.04543 0.24303
 H160 H 0.97918 -0.04646 0.26066
 H161 H 0.89899 -0.00199 0.25114
 H162 H 0.97740 0.04534 0.24303
 C163 C 0.57743 0.49985 0.75257
 C164 C 0.56246 0.52561 0.75641
 C165 C 0.53231 0.52558 0.75728
 C166 C 0.51652 0.49990 0.75267
 C167 C 0.53226 0.47417 0.74803
 C168 C 0.56242 0.47411 0.74879
 C169 C 0.48406 0.49996 0.75266
 C170 C 0.46826 0.47425 0.75708
 C171 C 0.43811 0.47426 0.75622
 C172 C 0.42314 0.50005 0.75257
 C173 C 0.43817 0.52581 0.74896
 C174 C 0.46833 0.52572 0.74819
 H175 H 0.60081 0.49985 0.75250
 H176 H 0.52162 0.54577 0.76168
 H177 H 0.52151 0.45401 0.74363
 H178 H 0.47896 0.45403 0.76134
 H179 H 0.39977 0.50008 0.75251
 H180 H 0.47908 0.54591 0.74392
 C181 C 0.99927 1.07703 0.74888
 C182 C 0.97366 1.06176 0.74500
 C183 C 0.97414 1.03157 0.74391
 C184 C 1.00012 1.01612 0.74835
 C185 C 1.02558 1.03219 0.75307
 C186 C 1.02521 1.06232 0.75251
 C187 C 1.00068 0.98367 0.74821
 C188 C 1.02666 0.96828 0.74366
 C189 C 1.02719 0.93809 0.74457
 C190 C 1.00160 0.92276 0.74835
 C191 C 0.97565 0.93742 0.75206
 C192 C 0.97524 0.96754 0.75281
 H193 H 0.99907 1.10042 0.74910
 H194 H 0.95413 1.02052 0.73944
 H195 H 1.04591 1.02172 0.75740
 H196 H 1.04665 0.97937 0.73927
 H197 H 1.00184 0.89937 0.74844
 H198 H 0.95491 0.97797 0.75718
 C199 C 0.50011 0.57702 0.24728
 C200 C 0.47423 0.56221 0.24359
 C201 C 0.47406 0.53206 0.24268
 C202 C 0.49969 0.51611 0.24709
 C203 C 0.52554 0.53168 0.25159
 C204 C 0.52579 0.56184 0.25088
 C205 C 0.49945 0.48365 0.24704
 C206 C 0.52506 0.46772 0.24248
 C207 C 0.52491 0.43757 0.24331
 C208 C 0.49906 0.42274 0.24706
 C209 C 0.47339 0.43789 0.25079
 C210 C 0.47363 0.46805 0.25159
 H211 H 0.50025 0.60039 0.24738
 H212 H 0.45377 0.52150 0.23840
 H213 H 0.54568 0.52082 0.25586
 H214 H 0.54531 0.47830 0.23814
 H215 H 0.49893 0.39937 0.24710
 H216 H 0.45351 0.47889 0.25596
 O217 O 0.24914 0.17580 0.21006
 O218 O 0.28014 0.16727 0.25012
 O219 O 0.17348 0.21072 0.25218
 O220 O 0.16323 0.24827 0.28014
 O221 O 0.20843 0.25155 0.17565
 O222 O 0.24862 0.28260 0.16747
 O223 O 0.24972 0.29015 0.32494
 O224 O 0.21567 0.25186 0.33221
 O225 O 0.32293 0.25130 0.28989
 O226 O 0.33170 0.21839 0.24926
 O227 O 0.28845 0.32475 0.25143
 O228 O 0.24708 0.33353 0.21845
 O229 O 0.25002 0.32467 0.29013
 O230 O 0.21680 0.33371 0.24939
 O231 O 0.32292 0.28988 0.25131
 O232 O 0.33128 0.24851 0.21806
 O233 O 0.28858 0.25228 0.32481
 O234 O 0.25374 0.21902 0.33372
 O235 O 0.24915 0.21064 0.17553
 O236 O 0.28035 0.25075 0.16738
 O237 O 0.17373 0.25115 0.21028
 O238 O 0.16735 0.28429 0.25097
 O239 O 0.20804 0.17596 0.25053
 O240 O 0.24991 0.16684 0.28166
 Zr241 Zr 0.24725 0.19876 0.24920
 O242 O 0.27423 0.22341 0.27611
 Zr243 Zr 0.19682 0.24950 0.24942
 O244 O 0.22172 0.27630 0.27644
 Zr245 Zr 0.24738 0.24950 0.19872
 O246 O 0.27442 0.27632 0.22334
 Zr247 Zr 0.24956 0.25123 0.30177
 O248 O 0.22204 0.22391 0.27747
 Zr249 Zr 0.29980 0.25095 0.25094
 O250 O 0.27517 0.22385 0.22377
 Zr251 Zr 0.24932 0.30177 0.25109
 O252 O 0.22200 0.27730 0.22391
 O253 O 0.22047 0.22272 0.22246
 O254 O 0.27640 0.27809 0.27792
 C255 C 0.25008 0.18427 0.18375
 C256 C 0.18176 0.18434 0.25232
 C257 C 0.18208 0.25230 0.18394
 C258 C 0.25016 0.31646 0.31650
 C259 C 0.31486 0.25211 0.31628
 C260 C 0.31477 0.31627 0.25161
 H261 H 0.28591 0.21036 0.28826
 H262 H 0.28631 0.28819 0.21029
 H263 H 0.20810 0.21044 0.21016
 H264 H 0.20887 0.28809 0.28864
 H265 H 0.20266 0.23569 0.32731
 H266 H 0.17050 0.25779 0.29775
 H267 H 0.32787 0.26462 0.20454
 H268 H 0.29576 0.23769 0.17425
 H269 H 0.24137 0.20282 0.32767
 H270 H 0.23328 0.16957 0.29469
 H271 H 0.26290 0.32986 0.20468
 H272 H 0.23571 0.29806 0.17448
 H273 H 0.29567 0.17436 0.23736
 H274 H 0.32733 0.20418 0.26451
 H275 H 0.17328 0.29814 0.23588
 H276 H 0.20292 0.32971 0.26502
 O277 O 0.74970 0.82384 0.20944
 O278 O 0.71904 0.83247 0.24948
 O279 O 0.82566 0.78905 0.25112
 O280 O 0.83618 0.75143 0.27890
 O281 O 0.79032 0.74829 0.17453
 O282 O 0.75004 0.71717 0.16668
 O283 O 0.75010 0.70974 0.32407
 O284 O 0.78414 0.74795 0.33124
 O285 O 0.67645 0.74830 0.28965
 O286 O 0.66752 0.78136 0.24889
 O287 O 0.71078 0.67492 0.25088
 O288 O 0.75182 0.66608 0.21781
 O289 O 0.74944 0.67496 0.28954
 O290 O 0.78254 0.66614 0.24845
 O291 O 0.67628 0.70976 0.25094
 O292 O 0.66754 0.75103 0.21784
 O293 O 0.71132 0.74748 0.32414
 O294 O 0.74611 0.78073 0.33294
 O295 O 0.74949 0.78927 0.17465
 O296 O 0.71817 0.74906 0.16678
 O297 O 0.82503 0.74866 0.20923
 O298 O 0.83183 0.71550 0.24977
 O299 O 0.79105 0.82377 0.24964
 O300 O 0.74929 0.83282 0.28096
 Zr301 Zr 0.75187 0.80093 0.24848
 O302 O 0.72508 0.77630 0.27549
 Zr303 Zr 0.80230 0.75026 0.24842
 O304 O 0.77767 0.72342 0.27555
 Zr305 Zr 0.75146 0.75031 0.19787
 O306 O 0.72462 0.72343 0.22272
 Zr307 Zr 0.75006 0.74856 0.30093
 O308 O 0.77737 0.77588 0.27657
 Zr309 Zr 0.69934 0.74872 0.25048
 O310 O 0.72379 0.77583 0.22317
 Zr311 Zr 0.74989 0.69792 0.25039
 O312 O 0.77695 0.72247 0.22302
 O313 O 0.77848 0.77705 0.22156
 O314 O 0.72302 0.72163 0.27734
 C315 C 0.74860 0.81559 0.18309
 C316 C 0.81736 0.81543 0.25132
 C317 C 0.81668 0.74754 0.18289
 C318 C 0.74953 0.68338 0.31586
 C319 C 0.68493 0.74757 0.31596
 C320 C 0.68446 0.68338 0.25119
 H321 H 0.71349 0.78933 0.28771
 H322 H 0.71264 0.71155 0.20974
 H323 H 0.79077 0.78936 0.20924
 H324 H 0.79063 0.71166 0.28770
 H325 H 0.79714 0.76411 0.32627
 H326 H 0.82905 0.74197 0.29658
 H327 H 0.67106 0.73511 0.20414
 H328 H 0.70286 0.76215 0.17375
 H329 H 0.75844 0.79694 0.32685
 H330 H 0.76608 0.83024 0.29385
 H331 H 0.73610 0.66994 0.20395
 H332 H 0.76301 0.70173 0.17365
 H333 H 0.70332 0.82529 0.23697
 H334 H 0.67181 0.79539 0.26433
 H335 H 0.82577 0.70164 0.23475
 H336 H 0.79635 0.66997 0.26423
 O337 O 0.74931 0.17454 0.78957
 O338 O 0.71849 0.16615 0.74958
 O339 O 0.82499 0.20936 0.74906
 O340 O 0.83352 0.24938 0.71819
 O341 O 0.79026 0.25012 0.82444
 O342 O 0.74882 0.28032 0.83357
 O343 O 0.74911 0.28869 0.67516
 O344 O 0.78184 0.24787 0.66625
 O345 O 0.67588 0.25074 0.71007
 O346 O 0.66661 0.21830 0.75105
 O347 O 0.71144 0.32447 0.74820
 O348 O 0.74705 0.33133 0.78238
 O349 O 0.74807 0.32362 0.70954
 O350 O 0.78543 0.32934 0.74660
 O351 O 0.67655 0.28991 0.74839
 O352 O 0.66748 0.24870 0.78191
 O353 O 0.71036 0.25031 0.67527
 O354 O 0.75166 0.21665 0.66702
 O355 O 0.74936 0.20914 0.82434
 O356 O 0.71781 0.24950 0.83217
 O357 O 0.82508 0.25029 0.78993
 O358 O 0.83308 0.28152 0.74926
 O359 O 0.79038 0.17456 0.74886
 O360 O 0.74991 0.16661 0.71743
 Zr361 Zr 0.75131 0.19768 0.75069
 O362 O 0.72421 0.22234 0.72388
 Zr363 Zr 0.80192 0.24835 0.75091
 O364 O 0.77722 0.27496 0.72368
 Zr365 Zr 0.75127 0.24824 0.80133
 O366 O 0.72477 0.27535 0.77643
 Zr367 Zr 0.74948 0.24977 0.69830
 O368 O 0.77683 0.22283 0.72295
 Zr369 Zr 0.69898 0.25034 0.74901
 O370 O 0.72341 0.22289 0.77607
 Zr371 Zr 0.74984 0.30072 0.74867
 O372 O 0.77682 0.27636 0.77638
 O373 O 0.77810 0.22144 0.77761
 O374 O 0.72275 0.27691 0.72191
 C375 C 0.74836 0.18281 0.81592
 C376 C 0.81673 0.18299 0.74804
 C377 C 0.81664 0.25115 0.81624
 C378 C 0.74820 0.31508 0.68327
 C379 C 0.68405 0.25081 0.68371
 C380 C 0.68504 0.31626 0.74801
 H381 H 0.71220 0.20931 0.71208
 H382 H 0.71319 0.28761 0.78944
 H383 H 0.79041 0.20913 0.78994
 H384 H 0.79024 0.28700 0.71188
 H385 H 0.79614 0.26308 0.67053
 H386 H 0.82637 0.23683 0.70250
 H387 H 0.67124 0.26479 0.79536
 H388 H 0.70271 0.23607 0.82534
 H389 H 0.73534 0.20338 0.67037
 H390 H 0.76335 0.17330 0.70231
 H391 H 0.76447 0.32888 0.79443
 H392 H 0.76335 0.29512 0.82873
 H393 H 0.70271 0.17343 0.76192
 H394 H 0.67077 0.20387 0.73595
 H395 H 0.82648 0.29677 0.76261
 H396 H 0.77782 0.34910 0.74377
 O397 O 0.25207 0.82580 0.78981
 O398 O 0.28303 0.83397 0.74975
 O399 O 0.17627 0.79101 0.74796
 O400 O 0.16551 0.75347 0.72030
 O401 O 0.21110 0.75031 0.82473
 O402 O 0.25132 0.71913 0.83283
 O403 O 0.25151 0.71097 0.67540
 O404 O 0.21767 0.74952 0.66808
 O405 O 0.32530 0.74944 0.70997
 O406 O 0.33436 0.78247 0.75051
 O407 O 0.29029 0.67650 0.74896
 O408 O 0.24919 0.66794 0.78197
 O409 O 0.25179 0.67658 0.71035
 O410 O 0.21862 0.66802 0.75131
 O411 O 0.32522 0.71090 0.74877
 O412 O 0.33389 0.75241 0.78190
 O413 O 0.29053 0.74860 0.67538
 O414 O 0.25597 0.78195 0.66627
 O415 O 0.25202 0.79110 0.82449
 O416 O 0.28317 0.75095 0.83272
 O417 O 0.17649 0.75077 0.78994
 O418 O 0.16963 0.71760 0.74940
 O419 O 0.21079 0.82580 0.74943
 O420 O 0.25271 0.83439 0.71811
 Zr421 Zr 0.24995 0.80270 0.75077
 O422 O 0.27669 0.77773 0.72392
 Zr423 Zr 0.19934 0.75218 0.75082
 O424 O 0.22386 0.72514 0.72386
 Zr425 Zr 0.25003 0.75214 0.80149
 O426 O 0.27681 0.72505 0.77686
 Zr427 Zr 0.25171 0.74998 0.69844
 O428 O 0.22449 0.77758 0.72265
 Zr429 Zr 0.30230 0.75007 0.74906
 O430 O 0.27787 0.77746 0.77617
 Zr431 Zr 0.25139 0.69968 0.74929
 O432 O 0.22439 0.72438 0.77646
 O433 O 0.22318 0.77896 0.77766
 O434 O 0.27851 0.72301 0.72228
 C435 C 0.25302 0.81743 0.81616
 C436 C 0.18449 0.81739 0.74773
 C437 C 0.18476 0.74963 0.81631
 C438 C 0.25185 0.68468 0.68394
 C439 C 0.31690 0.74862 0.68365
 C440 C 0.31669 0.68460 0.74862
 H441 H 0.28839 0.79064 0.71167
 H442 H 0.28867 0.71314 0.78993
 H443 H 0.21089 0.79133 0.78992
 H444 H 0.21087 0.71339 0.71174
 H445 H 0.20485 0.76587 0.67289
 H446 H 0.17269 0.74409 0.70259
 H447 H 0.33043 0.73636 0.79547
 H448 H 0.29861 0.76386 0.82569
 H449 H 0.24396 0.79838 0.67238
 H450 H 0.23593 0.83181 0.70521
 H451 H 0.26495 0.67170 0.79582
 H452 H 0.23826 0.70374 0.82595
 H453 H 0.29859 0.82677 0.76244
 H454 H 0.32996 0.79666 0.73523
 H455 H 0.17548 0.70377 0.76454
 H456 H 0.20484 0.67185 0.73551
 O457 O 0.24881 0.32423 0.71031
 O458 O 0.21801 0.33297 0.75028
 O459 O 0.32466 0.28960 0.75228
 O460 O 0.33523 0.25209 0.78012
 O461 O 0.28944 0.24850 0.67577
 O462 O 0.24916 0.21739 0.66797
 O463 O 0.24911 0.21059 0.82541
 O464 O 0.28314 0.24888 0.83245
 O465 O 0.17548 0.24898 0.79073
 O466 O 0.16661 0.28194 0.74985
 O467 O 0.20987 0.17551 0.75236
 O468 O 0.25091 0.16648 0.71935
 O469 O 0.24849 0.17567 0.79101
 O470 O 0.28165 0.16672 0.74996
 O471 O 0.17538 0.21035 0.75221
 O472 O 0.16662 0.25144 0.71894
 O473 O 0.21032 0.24826 0.82526
 O474 O 0.24506 0.28159 0.83401
 O475 O 0.24866 0.28951 0.67565
 O476 O 0.21730 0.24928 0.66793
 O477 O 0.32411 0.24906 0.71051
 O478 O 0.33087 0.21606 0.75120
 O479 O 0.29005 0.32431 0.75059
 O480 O 0.24827 0.33355 0.78174
 Zr481 Zr 0.25089 0.30147 0.74944
 O482 O 0.22411 0.27696 0.77655
 Zr483 Zr 0.30135 0.25081 0.74966
 O484 O 0.27672 0.22408 0.77687
 Zr485 Zr 0.25056 0.25065 0.69904
 O486 O 0.22372 0.22387 0.72398
 Zr487 Zr 0.24908 0.24932 0.80211
 O488 O 0.27638 0.27655 0.77767
 Zr489 Zr 0.19842 0.24929 0.75161
 O490 O 0.22286 0.27628 0.72419
 Zr491 Zr 0.24898 0.19849 0.75178
 O492 O 0.27604 0.22292 0.72433
 O493 O 0.27755 0.27749 0.72266
 O494 O 0.22208 0.22231 0.77859
 C495 C 0.24776 0.31587 0.68399
 C496 C 0.31634 0.31596 0.75237
 C497 C 0.31579 0.24779 0.68417
 C498 C 0.24855 0.18420 0.81731
 C499 C 0.18394 0.24830 0.81705
 C500 C 0.18357 0.18399 0.75261
 H501 H 0.21251 0.29004 0.78870
 H502 H 0.21175 0.21193 0.71104
 H503 H 0.28987 0.28974 0.71031
 H504 H 0.28967 0.21237 0.78908
 H505 H 0.29611 0.26505 0.82743
 H506 H 0.32806 0.24278 0.79787
 H507 H 0.17020 0.23550 0.70528
 H508 H 0.20201 0.26244 0.67481
 H509 H 0.25733 0.29782 0.82785
 H510 H 0.26498 0.33097 0.79473
 H511 H 0.23520 0.17030 0.70546
 H512 H 0.26209 0.20197 0.67504
 H513 H 0.20237 0.32578 0.73770
 H514 H 0.17085 0.29599 0.76528
 H515 H 0.32486 0.20214 0.73620
 H516 H 0.29541 0.17057 0.76579
 O517 O 0.75198 0.67488 0.71054
 O518 O 0.78303 0.66639 0.75062
 O519 O 0.67637 0.70987 0.75261
 O520 O 0.66601 0.74744 0.78042
 O521 O 0.71144 0.75069 0.67606
 O522 O 0.75166 0.78164 0.66791
 O523 O 0.75241 0.78924 0.82542
 O524 O 0.71839 0.75090 0.83263
 O525 O 0.82571 0.75040 0.79045
 O526 O 0.83453 0.71744 0.74986
 O527 O 0.79130 0.82380 0.75202
 O528 O 0.75006 0.83267 0.71896
 O529 O 0.75280 0.82376 0.79061
 O530 O 0.71963 0.83275 0.74974
 O531 O 0.82575 0.78892 0.75190
 O532 O 0.83419 0.74758 0.71866
 O533 O 0.79131 0.75147 0.82532
 O534 O 0.75651 0.71813 0.83422
 O535 O 0.75206 0.70971 0.67600
 O536 O 0.78339 0.74979 0.66792
 O537 O 0.67669 0.75028 0.71064
 O538 O 0.67026 0.78343 0.75133
 O539 O 0.71092 0.67510 0.75101
 O540 O 0.75275 0.66589 0.78209
 Zr541 Zr 0.75012 0.69786 0.74967
 O542 O 0.77705 0.72249 0.77664
 Zr543 Zr 0.69970 0.74862 0.74982
 O544 O 0.72454 0.77541 0.77688
 Zr545 Zr 0.75034 0.74858 0.69919
 O546 O 0.77732 0.77540 0.72385
 Zr547 Zr 0.75234 0.75032 0.80224
 O548 O 0.72486 0.72302 0.77789
 Zr549 Zr 0.80265 0.75001 0.75148
 O550 O 0.77808 0.72292 0.72427
 Zr551 Zr 0.75217 0.80085 0.75156
 O552 O 0.72492 0.77639 0.72433
 O553 O 0.72339 0.72183 0.72289
 O554 O 0.77921 0.77716 0.77842
 C555 C 0.75293 0.68334 0.68423
 C556 C 0.68465 0.68350 0.75280
 C557 C 0.68509 0.75146 0.68432
 C558 C 0.75287 0.81555 0.81698
 C559 C 0.81760 0.75129 0.81682
 C560 C 0.81759 0.81530 0.75224
 H561 H 0.78871 0.70945 0.78881
 H562 H 0.78924 0.78727 0.71082
 H563 H 0.71100 0.70956 0.71059
 H564 H 0.71166 0.78719 0.78906
 H565 H 0.70541 0.73470 0.82771
 H566 H 0.67329 0.75681 0.79810
 H567 H 0.83078 0.76366 0.70511
 H568 H 0.79873 0.73665 0.67479
 H569 H 0.74419 0.70190 0.82814
 H570 H 0.73617 0.66866 0.79517
 H571 H 0.76587 0.82896 0.70519
 H572 H 0.73883 0.79715 0.67492
 H573 H 0.79853 0.67344 0.73781
 H574 H 0.83015 0.70325 0.76512
 H575 H 0.67617 0.79725 0.73621
 H576 H 0.70577 0.82883 0.76543
 O577 O 0.24916 0.67617 0.28939
 O578 O 0.21823 0.66793 0.24944
 O579 O 0.32474 0.71111 0.24881
 O580 O 0.33331 0.75117 0.21811
 O581 O 0.29018 0.75166 0.32439
 O582 O 0.24879 0.78179 0.33373
 O583 O 0.24881 0.79063 0.17530
 O584 O 0.28154 0.74979 0.16624
 O585 O 0.17566 0.75261 0.21025
 O586 O 0.16642 0.72009 0.25117
 O587 O 0.21136 0.82621 0.24842
 O588 O 0.24698 0.83299 0.28261
 O589 O 0.24791 0.82547 0.20978
 O590 O 0.28535 0.83104 0.24681
 O591 O 0.17644 0.79169 0.24858
 O592 O 0.16737 0.75045 0.28208
 O593 O 0.21006 0.75229 0.17538
 O594 O 0.25131 0.71863 0.16694
 O595 O 0.24928 0.71067 0.32426
 O596 O 0.21772 0.75106 0.33222
 O597 O 0.32494 0.75188 0.28982
 O598 O 0.33289 0.78325 0.24923
 O599 O 0.29012 0.67632 0.24856
 O600 O 0.24959 0.66843 0.21726
 Zr601 Zr 0.25108 0.69943 0.25058
 O602 O 0.22397 0.72417 0.22387
 Zr603 Zr 0.30172 0.75007 0.25085
 O604 O 0.27703 0.77677 0.22371
 Zr605 Zr 0.25116 0.74984 0.30136
 O606 O 0.22466 0.77704 0.27657
 Zr607 Zr 0.24923 0.75165 0.19832
 O608 O 0.27658 0.72464 0.22286
 Zr609 Zr 0.19882 0.75211 0.24913
 O610 O 0.22325 0.72456 0.27609
 Zr611 Zr 0.24972 0.80246 0.24883
 O612 O 0.27670 0.77801 0.27645
 O613 O 0.27794 0.72310 0.27751
 O614 O 0.22257 0.77874 0.22207
 C615 C 0.24826 0.68436 0.31577
 C616 C 0.31646 0.68476 0.24770
 C617 C 0.31654 0.75269 0.31614
 C618 C 0.24795 0.81700 0.18348
 C619 C 0.18378 0.75276 0.18388
 C620 C 0.18497 0.81802 0.24821
 H621 H 0.21193 0.71117 0.21206
 H622 H 0.21312 0.78928 0.28962
 H623 H 0.29026 0.71075 0.28978
 H624 H 0.29003 0.78882 0.21192
 H625 H 0.29580 0.76505 0.17047
 H626 H 0.32609 0.73876 0.20235
 H627 H 0.17115 0.76653 0.29554
 H628 H 0.20263 0.73761 0.32540
 H629 H 0.23499 0.70535 0.17028
 H630 H 0.26296 0.67517 0.20210
 H631 H 0.26440 0.83050 0.29465
 H632 H 0.26324 0.79665 0.32886
 H633 H 0.20251 0.67516 0.26188
 H634 H 0.17055 0.70568 0.23604
 H635 H 0.32636 0.79842 0.26270
 H636 H 0.27775 0.85082 0.24403
 O637 O 0.75047 0.32376 0.28907
 O638 O 0.78142 0.33190 0.24896
 O639 O 0.67466 0.28893 0.24720
 O640 O 0.66380 0.25136 0.21970
 O641 O 0.70953 0.24832 0.32404
 O642 O 0.74974 0.21711 0.33211
 O643 O 0.74983 0.20889 0.17469
 O644 O 0.71591 0.24743 0.16739
 O645 O 0.82359 0.24741 0.20918
 O646 O 0.83267 0.28047 0.24972
 O647 O 0.78859 0.17449 0.24819
 O648 O 0.74757 0.16588 0.28124
 O649 O 0.75011 0.17453 0.20966
 O650 O 0.71692 0.16601 0.25067
 O651 O 0.82352 0.20889 0.24793
 O652 O 0.83228 0.25035 0.28107
 O653 O 0.78878 0.24655 0.17462
 O654 O 0.75420 0.27987 0.16551
 O655 O 0.75046 0.28907 0.32376
 O656 O 0.78160 0.24890 0.33197
 O657 O 0.67489 0.24877 0.28927
 O658 O 0.66801 0.21553 0.24876
 O659 O 0.70918 0.32373 0.24868
 O660 O 0.75106 0.33238 0.21741
 Zr661 Zr 0.74832 0.30065 0.25003
 O662 O 0.77501 0.27568 0.22314
 Zr663 Zr 0.69771 0.25012 0.25013
 O664 O 0.72217 0.22308 0.22315
 Zr665 Zr 0.74843 0.25011 0.30076
 O666 O 0.77517 0.22302 0.27612
 Zr667 Zr 0.74999 0.24792 0.19771
 O668 O 0.72282 0.27552 0.22194
 Zr669 Zr 0.80063 0.24805 0.24828
 O670 O 0.77625 0.27542 0.27543
 Zr671 Zr 0.74971 0.19764 0.24858
 O672 O 0.72276 0.22234 0.27578
 O673 O 0.72157 0.27692 0.27695
 O674 O 0.77680 0.22098 0.22154
 C675 C 0.75146 0.31540 0.31542
 C676 C 0.68290 0.31530 0.24694
 C677 C 0.68318 0.24765 0.31562
 C678 C 0.75018 0.18261 0.18325
 C679 C 0.81515 0.24658 0.18287
 C680 C 0.81499 0.18261 0.24780
 H681 H 0.78669 0.28860 0.21088
 H682 H 0.78705 0.21111 0.28917
 H683 H 0.70929 0.28931 0.28920
 H684 H 0.70917 0.21132 0.21104
 H685 H 0.70309 0.26378 0.17221
 H686 H 0.67096 0.24205 0.20196
 H687 H 0.82882 0.23431 0.29465
 H688 H 0.79704 0.26179 0.32492
 H689 H 0.74219 0.29630 0.17163
 H690 H 0.73433 0.32974 0.20446
 H691 H 0.76331 0.16968 0.29510
 H692 H 0.73665 0.20173 0.32526
 H693 H 0.79696 0.32473 0.26170
 H694 H 0.82829 0.29462 0.23441
 H695 H 0.67384 0.20173 0.26395
 H696 H 0.70317 0.16978 0.23482
 C697 C 0.25612 0.07860 0.05177
 C698 C 0.25649 0.09266 0.07361
 C699 C 0.25602 0.11018 0.09846
 C700 C 0.25506 0.12598 0.11904
 C701 C 0.25348 0.14541 0.14238
 C702 C 0.25194 0.16276 0.16164
 C703 C 0.75797 0.57718 0.55259
 C704 C 0.75853 0.59135 0.57434
 C705 C 0.75828 0.60900 0.59911
 C706 C 0.75749 0.62489 0.61962
 C707 C 0.75610 0.64441 0.64290
 C708 C 0.75468 0.66180 0.66213
 C709 C 0.74237 0.94796 0.07790
 C710 C 0.74195 0.92608 0.09189
 C711 C 0.74240 0.90113 0.10929
 C712 C 0.74337 0.88046 0.12498
 C713 C 0.74500 0.85702 0.14430
 C714 C 0.74661 0.83770 0.16158
 C715 C 0.24198 0.44774 0.57816
 C716 C 0.24151 0.42594 0.59227
 C717 C 0.24187 0.40109 0.60980
 C718 C 0.24277 0.38049 0.62559
 C719 C 0.24431 0.35714 0.64501
 C720 C 0.24585 0.33789 0.66238
 C721 C 0.74261 0.05188 0.92294
 C722 C 0.74210 0.07354 0.90861
 C723 C 0.74246 0.09815 0.89076
 C724 C 0.74336 0.11853 0.87469
 C725 C 0.74490 0.14165 0.85500
 C726 C 0.74645 0.16078 0.83750
 C727 C 0.24225 0.55310 0.42238
 C728 C 0.24185 0.57479 0.40810
 C729 C 0.24229 0.59946 0.39032
 C730 C 0.24324 0.61989 0.37432
 C731 C 0.24482 0.64308 0.35471
 C732 C 0.24637 0.66227 0.33728
 C733 C 0.25770 0.92392 0.94750
 C734 C 0.25845 0.90973 0.92576
 C735 C 0.25837 0.89204 0.90103
 C736 C 0.25767 0.87609 0.88055
 C737 C 0.25632 0.85650 0.85733
 C738 C 0.25488 0.83905 0.83816
 C739 C 0.75720 0.42163 0.44693
 C740 C 0.75771 0.40747 0.42517
 C741 C 0.75737 0.38984 0.40040
 C742 C 0.75649 0.37395 0.37988
 C743 C 0.75496 0.35442 0.35662
 C744 C 0.75341 0.33700 0.33743
 C745 C 0.07616 0.25683 0.05195
 C746 C 0.09018 0.25754 0.07383
 C747 C 0.10771 0.25744 0.09872
 C748 C 0.12354 0.25675 0.11931
 C749 C 0.14304 0.25544 0.14265
 C750 C 0.16046 0.25406 0.16189
 C751 C 0.57912 0.75677 0.55248
 C752 C 0.59329 0.75732 0.57425
 C753 C 0.61087 0.75704 0.59907
 C754 C 0.62670 0.75622 0.61965
 C755 C 0.64615 0.75477 0.64299
 C756 C 0.66352 0.75330 0.66225
 C757 C 0.05316 0.74399 0.92245
 C758 C 0.07494 0.74359 0.90832
 C759 C 0.09971 0.74401 0.89069
 C760 C 0.12022 0.74491 0.87480
 C761 C 0.14348 0.74641 0.85526
 C762 C 0.16269 0.74787 0.83786
 C763 C 0.55173 0.24274 0.42184
 C764 C 0.57343 0.24217 0.40762
 C765 C 0.59816 0.24242 0.38995
 C766 C 0.61866 0.24320 0.37407
 C767 C 0.64192 0.24458 0.35456
 C768 C 0.66113 0.24596 0.33717
 C769 C 0.94832 0.74321 0.07676
 C770 C 0.92650 0.74246 0.09084
 C771 C 0.90170 0.74252 0.10843
 C772 C 0.88117 0.74317 0.12431
 C773 C 0.85790 0.74445 0.14385
 C774 C 0.83871 0.74580 0.16128
 C775 C 0.44722 0.24227 0.57795
 C776 C 0.42551 0.24174 0.59217
 C777 C 0.40078 0.24204 0.60983
 C778 C 0.38028 0.24288 0.62572
 C779 C 0.35702 0.24438 0.64523
 C780 C 0.33782 0.24589 0.66262
 C781 C 0.92274 0.25597 0.94810
 C782 C 0.90865 0.25663 0.92626
 C783 C 0.89104 0.25647 0.90144
 C784 C 0.87514 0.25574 0.88089
 C785 C 0.85560 0.25437 0.85760
 C786 C 0.83819 0.25295 0.83835
 C787 C 0.42309 0.75737 0.44754
 C788 C 0.40883 0.75804 0.42583
 C789 C 0.39110 0.75790 0.40112
 C790 C 0.37514 0.75719 0.38064
 C791 C 0.35556 0.75584 0.35740
 C792 C 0.33812 0.75445 0.33820
 C793 C 0.07578 0.05251 0.25746
 C794 C 0.08973 0.07443 0.25810
 C795 C 0.10725 0.09931 0.25790
 C796 C 0.12311 0.11987 0.25712
 C797 C 0.14266 0.14315 0.25569
 C798 C 0.16011 0.16233 0.25421
 C799 C 0.57834 0.55217 0.75834
 C800 C 0.59254 0.57388 0.75894
 C801 C 0.61019 0.59863 0.75868
 C802 C 0.62608 0.61913 0.75784
 C803 C 0.64560 0.64237 0.75631
 C804 C 0.66304 0.66153 0.75476
 C805 C 0.94831 0.07655 0.74326
 C806 C 0.92649 0.09066 0.74263
 C807 C 0.90171 0.10834 0.74280
 C808 C 0.88123 0.12431 0.74354
 C809 C 0.85800 0.14393 0.74489
 C810 C 0.83880 0.16140 0.74628
 C811 C 0.44774 0.57825 0.24183
 C812 C 0.42608 0.59257 0.24134
 C813 C 0.40140 0.61032 0.24170
 C814 C 0.38093 0.62625 0.24261
 C815 C 0.35770 0.64580 0.24417
 C816 C 0.33850 0.66321 0.24575
 C817 C 0.05257 0.92336 0.74280
 C818 C 0.07444 0.90935 0.74214
 C819 C 0.09930 0.89178 0.74231
 C820 C 0.11987 0.87592 0.74306
 C821 C 0.14318 0.85639 0.74444
 C822 C 0.16242 0.83898 0.74588
 C823 C 0.55141 0.42155 0.24142
 C824 C 0.57309 0.40728 0.24084
 C825 C 0.59782 0.38960 0.24111
 C826 C 0.61834 0.37372 0.24195
 C827 C 0.64162 0.35423 0.24346
 C828 C 0.66084 0.33685 0.24501
 C829 C 0.92320 0.94738 0.25677
 C830 C 0.90926 0.92545 0.25729
 C831 C 0.89177 0.90056 0.25698
 C832 C 0.87593 0.87998 0.25614
 C833 C 0.85642 0.85667 0.25466
 C834 C 0.83899 0.83745 0.25317
 C835 C 0.42223 0.44768 0.75799
 C836 C 0.40807 0.42593 0.75850
 C837 C 0.39052 0.40112 0.75817
 C838 C 0.37471 0.38055 0.75729
 C839 C 0.35528 0.35722 0.75577
 C840 C 0.33791 0.33798 0.75425
 C841 C 0.07803 0.24560 0.94867
 C842 C 0.09228 0.24485 0.92702
 C843 C 0.10988 0.24484 0.90228
 C844 C 0.12569 0.24534 0.88173
 C845 C 0.14509 0.24632 0.85840
 C846 C 0.16242 0.24728 0.83913
 C847 C 0.57914 0.74546 0.44780
 C848 C 0.59330 0.74461 0.42607
 C849 C 0.61087 0.74446 0.40128
 C850 C 0.62667 0.74485 0.38072
 C851 C 0.64608 0.74571 0.35736
 C852 C 0.66342 0.74659 0.33808
 C853 C 0.94975 0.75441 0.92238
 C854 C 0.92800 0.75512 0.90819
 C855 C 0.90318 0.75508 0.89066
 C856 C 0.88255 0.75451 0.87490
 C857 C 0.85914 0.75344 0.85555
 C858 C 0.83979 0.75241 0.83827
 C859 C 0.44703 0.25415 0.42197
 C860 C 0.42527 0.25502 0.40782
 C861 C 0.40045 0.25519 0.39025
 C862 C 0.37984 0.25482 0.37444
 C863 C 0.35643 0.25396 0.35504
 C864 C 0.33709 0.25309 0.33773
 C865 C 0.05159 0.75489 0.07835
 C866 C 0.07331 0.75575 0.09254
 C867 C 0.09816 0.75589 0.11006
 C868 C 0.11880 0.75548 0.12580
 C869 C 0.14224 0.75459 0.14513
 C870 C 0.16160 0.75371 0.16241
 C871 C 0.55197 0.25319 0.57790
 C872 C 0.57374 0.25390 0.59205
 C873 C 0.59858 0.25393 0.60961
 C874 C 0.61919 0.25347 0.62541
 C875 C 0.64258 0.25257 0.64483
 C876 C 0.66190 0.25171 0.66217
 C877 C 0.92112 0.24427 0.05132
 C878 C 0.90688 0.24333 0.07297
 C879 C 0.88928 0.24314 0.09771
 C880 C 0.87346 0.24354 0.11825
 C881 C 0.85403 0.24448 0.14156
 C882 C 0.83668 0.24545 0.16081
 C883 C 0.42308 0.74585 0.55217
 C884 C 0.40888 0.74506 0.57386
 C885 C 0.39125 0.74501 0.59860
 C886 C 0.37537 0.74549 0.61911
 C887 C 0.35587 0.74649 0.64239
 C888 C 0.33847 0.74748 0.66160
 C889 C 0.24613 0.07902 0.94970
 C890 C 0.24544 0.09311 0.92791
 C891 C 0.24544 0.11054 0.90302
 C892 C 0.24594 0.12622 0.88235
 C893 C 0.24686 0.14551 0.85888
 C894 C 0.24771 0.16276 0.83951
 C895 C 0.74716 0.57768 0.44785
 C896 C 0.74648 0.59187 0.42612
 C897 C 0.74649 0.60940 0.40130
 C898 C 0.74698 0.62516 0.38069
 C899 C 0.74788 0.64453 0.35729
 C900 C 0.74871 0.66185 0.33798
 C901 C 0.75244 0.05004 0.07828
 C902 C 0.75312 0.07186 0.09234
 C903 C 0.75311 0.09678 0.10973
 C904 C 0.75263 0.11747 0.12537
 C905 C 0.75175 0.14098 0.14462
 C906 C 0.75095 0.16038 0.16183
 C907 C 0.25314 0.55247 0.57850
 C908 C 0.25401 0.57421 0.59266
 C909 C 0.25422 0.59904 0.61017
 C910 C 0.25392 0.61967 0.62591
 C911 C 0.25321 0.64311 0.64524
 C912 C 0.25253 0.66247 0.66251
 C913 C 0.75429 0.94728 0.92293
 C914 C 0.75525 0.92557 0.90875
 C915 C 0.75551 0.90080 0.89117
 C916 C 0.75521 0.88024 0.87534
 C917 C 0.75445 0.85692 0.85588
 C918 C 0.75368 0.83765 0.83851
 C919 C 0.25280 0.44835 0.42225
 C920 C 0.25348 0.42662 0.40809
 C921 C 0.25346 0.40181 0.39055
 C922 C 0.25295 0.38122 0.37477
 C923 C 0.25199 0.35786 0.35536
 C924 C 0.25109 0.33857 0.33803
 C925 C 0.24545 0.92334 0.05202
 C926 C 0.24454 0.90904 0.07366
 C927 C 0.24437 0.89133 0.09835
 C928 C 0.24479 0.87542 0.11884
 C929 C 0.24576 0.85590 0.14211
 C930 C 0.24676 0.83851 0.16136
 C931 C 0.74579 0.42115 0.55157
 C932 C 0.74489 0.40688 0.57323
 C933 C 0.74472 0.38921 0.59795
 C934 C 0.74513 0.37333 0.61847
 C935 C 0.74606 0.35387 0.64179
 C936 C 0.74704 0.33653 0.66108
 C937 C 0.05161 0.07841 0.75469
 C938 C 0.07329 0.09262 0.75558
 C939 C 0.09809 0.11015 0.75574
 C940 C 0.11871 0.12589 0.75534
 C941 C 0.14211 0.14522 0.75446
 C942 C 0.16143 0.16251 0.75357
 C943 C 0.55246 0.57755 0.25294
 C944 C 0.57425 0.59165 0.25378
 C945 C 0.59908 0.60921 0.25395
 C946 C 0.61966 0.62503 0.25360
 C947 C 0.64302 0.64448 0.25282
 C948 C 0.66231 0.66185 0.25203
 C949 C 0.07846 0.94928 0.24607
 C950 C 0.09288 0.92773 0.24522
 C951 C 0.11065 0.90311 0.24510
 C952 C 0.12658 0.88264 0.24552
 C953 C 0.14609 0.85938 0.24642
 C954 C 0.16347 0.84014 0.24729
 C955 C 0.57832 0.44756 0.74658
 C956 C 0.59261 0.42590 0.74563
 C957 C 0.61039 0.40124 0.74536
 C958 C 0.62640 0.38080 0.74564
 C959 C 0.64602 0.35758 0.74638
 C960 C 0.66348 0.33838 0.74715
 C961 C 0.92069 0.05069 0.24575
 C962 C 0.90638 0.07232 0.24492
 C963 C 0.88878 0.09707 0.24480
 C964 C 0.87302 0.11767 0.24521
 C965 C 0.85368 0.14108 0.24608
 C966 C 0.83642 0.16042 0.24693
 C967 C 0.42233 0.55242 0.74693
 C968 C 0.40819 0.57418 0.74612
 C969 C 0.39064 0.59901 0.74597
 C970 C 0.37486 0.61963 0.74632
 C971 C 0.35547 0.64304 0.74710
 C972 C 0.33816 0.66239 0.74785
 C973 C 0.94929 0.92126 0.75418
 C974 C 0.92766 0.90696 0.75504
 C975 C 0.90293 0.88933 0.75519
 C976 C 0.88238 0.87350 0.75480
 C977 C 0.85904 0.85409 0.75396
 C978 C 0.83974 0.83677 0.75312
 C979 C 0.44674 0.42216 0.25293
 C980 C 0.42497 0.40803 0.25384
 C981 C 0.40016 0.39045 0.25409
 C982 C 0.37958 0.37461 0.25380
 C983 C 0.35623 0.35515 0.25309
 C984 C 0.33693 0.33779 0.25238
   
