data_POSCAR
  _audit_creation_date              2014-09-24
  _audit_creation_method            'ToBaCCo'
  _symmetry_space_group_name_H-M    'P1'
  _symmetry_Int_Tables_number       1
  _symmetry_cell_setting            triclinic
  loop_
  _symmetry_equiv_pos_as_xyz
 x,y,z
_cell_length_a 54.1745
_cell_length_b 54.2728
_cell_length_c 17.1617
_cell_angle_alpha 90.094500
_cell_angle_beta 89.951500
_cell_angle_gamma 119.889900
loop_
  _atom_site_label
  _atom_site_type_symbol
  _atom_site_fract_x
  _atom_site_fract_y
  _atom_site_fract_z
C1 C 0.21462 0.47786 0.46288
 C2 C 0.21453 0.47624 0.54620
 C3 C 0.23569 0.47255 0.58338
 C4 C 0.25892 0.47375 0.54264
 C5 C 0.26003 0.47790 0.46043
 C6 C 0.23805 0.47953 0.42253
 H7 H 0.23911 0.48135 0.35953
 H8 H 0.23497 0.47060 0.64628
 C9 C 0.52192 -0.26247 0.45844
 C10 C 0.52199 -0.26223 0.54153
 C11 C 0.52279 -0.23914 0.58120
 C12 C 0.52386 -0.21581 0.54183
 C13 C 0.52385 -0.21627 0.45870
 C14 C 0.52401 -0.23878 0.41911
 H15 H 0.52364 -0.23861 0.35589
 H16 H 0.52339 -0.23919 0.64431
 C17 C 1.26184 0.78601 0.45918
 C18 C 1.26156 0.78486 0.54235
 C19 C 1.23835 0.76271 0.58114
 C20 C 1.21565 0.74042 0.54078
 C21 C 1.21669 0.74039 0.45811
 C22 C 1.23915 0.76330 0.41899
 H23 H 1.23895 0.76289 0.35584
 H24 H 1.23826 0.76286 0.64432
 C25 C 0.78347 0.52388 0.46085
 C26 C 0.78478 0.52573 0.54386
 C27 C 0.76222 0.52652 0.58334
 C28 C 0.73878 0.52551 0.54386
 C29 C 0.73833 0.52372 0.46083
 C30 C 0.76077 0.52351 0.42137
 H31 H 0.76007 0.52207 0.35820
 H32 H 0.76295 0.52803 0.64628
 C33 C 0.47825 0.26094 0.45951
 C34 C 0.47684 0.26059 0.54259
 C35 C 0.47635 0.23740 0.58181
 C36 C 0.47727 0.21499 0.54196
 C37 C 0.47860 0.21616 0.45888
 C38 C 0.47852 0.23863 0.41975
 H39 H 0.47959 0.23922 0.35653
 H40 H 0.47519 0.23677 0.64480
 C41 C 0.74084 0.21586 0.45898
 C42 C 0.74175 0.21524 0.54158
 C43 C 0.76470 0.23802 0.58054
 C44 C 0.78678 0.26137 0.54028
 C45 C 0.78533 0.26125 0.45715
 C46 C 0.76287 0.23841 0.41847
 H47 H 0.76195 0.23874 0.35530
 H48 H 0.76538 0.23728 0.64351
 N49 N 0.96976 0.52943 0.08734
 N50 N 0.94877 0.53470 0.09983
 N51 N 1.02951 0.54165 0.14138
 N52 N 1.05053 0.55525 0.19145
 N53 N 1.02963 0.55921 0.08861
 N54 N 1.05066 0.58530 0.10159
 N55 N 0.96952 0.51173 0.13976
 N56 N 0.94824 0.50426 0.18899
 C57 C 0.93550 0.51871 0.16322
 C58 C 1.06354 0.58242 0.16577
 N59 N 1.03014 0.47228 0.08357
 N60 N 1.05025 0.46584 0.09737
 N61 N 0.96965 0.45894 0.13682
 N62 N 0.94833 0.44477 0.18545
 N63 N 0.97016 0.44199 0.08294
 N64 N 0.94924 0.41568 0.09386
 N65 N 1.02934 0.48847 0.13932
 N66 N 1.04854 0.49311 0.19319
 Mn67 Mn 0.99950 0.50021 0.14010
 C68 C 1.06160 0.47915 0.16573
 C69 C 0.93578 0.41787 0.15785
 N70 N 1.03009 0.56023 -0.07962
 N71 N 1.05002 0.58679 -0.09318
 N72 N 0.97025 0.51345 -0.13557
 N73 N 0.95044 0.50812 -0.18807
 N74 N 0.96996 0.53019 -0.08060
 N75 N 0.94962 0.53638 -0.09376
 N76 N 1.02976 0.54339 -0.13518
 N77 N 1.04908 0.55803 -0.18855
 Mn78 Mn 0.99988 0.54508 0.00396
 C79 C 1.06174 0.58495 -0.16113
 C80 C 0.93759 0.52231 -0.16082
 N81 N 0.97049 0.44302 -0.08494
 N82 N 0.95028 0.41664 -0.09927
 N83 N 1.03045 0.49070 -0.13723
 N84 N 1.05195 0.49859 -0.18590
 N85 N 1.03053 0.47329 -0.08430
 N86 N 1.05212 0.46884 -0.09558
 N87 N 0.97064 0.46036 -0.13847
 N88 N 0.95079 0.44622 -0.19121
 Mn89 Mn 1.00035 0.45735 -0.00075
 Mn90 Mn 1.00025 0.50194 -0.13734
 Cl91 Cl 1.00000 0.50116 0.00147
 C92 C 0.93812 0.41906 -0.16555
 C93 C 1.06528 0.48483 -0.15909
 N94 N 0.46975 0.43966 0.08659
 N95 N 0.46485 0.41354 0.09824
 N96 N 0.45648 0.48638 0.14078
 N97 N 0.44257 0.49383 0.18974
 N98 N 0.43927 0.46911 0.08713
 N99 N 0.41303 0.46407 0.09863
 N100 N 0.48708 0.45698 0.13994
 N101 N 0.49466 0.44326 0.18896
 C102 C 0.48067 0.41624 0.16213
 C103 C 0.41554 0.47977 0.16274
 N104 N 0.52585 0.55688 0.08836
 N105 N 0.53034 0.58284 0.10065
 N106 N 0.53956 0.51009 0.14082
 N107 N 0.55363 0.50293 0.18992
 N108 N 0.55677 0.52778 0.08798
 N109 N 0.58314 0.53335 0.10003
 N110 N 0.50897 0.53940 0.14205
 N111 N 0.50152 0.55290 0.19241
 Mn112 Mn 0.49802 0.49819 0.14167
 C113 C 0.51492 0.57991 0.16569
 C114 C 0.58074 0.51756 0.16365
 N115 N 0.43947 0.46941 -0.08126
 N116 N 0.41288 0.46267 -0.09581
 N117 N 0.48706 0.45725 -0.13532
 N118 N 0.49304 0.44316 -0.18765
 N119 N 0.47010 0.43994 -0.08131
 N120 N 0.46440 0.41365 -0.09495
 N121 N 0.45663 0.48649 -0.13534
 N122 N 0.44217 0.49159 -0.18848
 Mn123 Mn 0.45433 0.45423 0.00277
 C124 C 0.41500 0.47683 -0.16264
 C125 C 0.47899 0.41608 -0.16130
 N126 N 0.55693 0.52791 -0.08001
 N127 N 0.58354 0.53445 -0.09347
 N128 N 0.50960 0.54007 -0.13483
 N129 N 0.50452 0.55447 -0.18818
 N130 N 0.52598 0.55713 -0.07949
 N131 N 0.53199 0.58351 -0.09286
 N132 N 0.53997 0.51084 -0.13449
 N133 N 0.55458 0.50561 -0.18693
 Mn134 Mn 0.54167 0.54274 0.00420
 Mn135 Mn 0.49831 0.49865 -0.13572
 Cl136 Cl 0.49808 0.49846 0.00313
 C137 C 0.58164 0.52023 -0.16018
 C138 C 0.51832 0.58142 -0.16062
 N139 N 0.44217 -0.02985 0.08303
 N140 N 0.41566 -0.04999 0.09650
 N141 N 0.48938 0.03015 0.13721
 N142 N 0.49667 0.05141 0.18620
 N143 N 0.47212 0.03003 0.08338
 N144 N 0.46696 0.05113 0.09474
 N145 N 0.45918 -0.02948 0.13807
 N146 N 0.44473 -0.04907 0.19089
 C147 C 0.41771 -0.06185 0.16380
 C148 C 0.48257 0.06430 0.15892
 N149 N 0.55968 0.02993 0.08689
 N150 N 0.58589 0.05079 0.09992
 N151 N 0.51212 -0.02992 0.13977
 N152 N 0.50473 -0.05100 0.18941
 N153 N 0.52979 -0.02983 0.08718
 N154 N 0.53509 -0.05074 0.09992
 N155 N 0.54216 0.02993 0.13976
 N156 N 0.55586 0.05084 0.18994
 Mn157 Mn 0.50071 0.00015 0.13946
 C158 C 0.58306 0.06368 0.16422
 C159 C 0.51919 -0.06380 0.16368
 N160 N 0.47295 0.02999 -0.08466
 N161 N 0.46707 0.05046 -0.09846
 N162 N 0.46035 -0.03016 -0.13755
 N163 N 0.44655 -0.05136 -0.18696
 N164 N 0.44289 -0.02984 -0.08496
 N165 N 0.41666 -0.05072 -0.09748
 N166 N 0.49000 0.02960 -0.13851
 N167 N 0.49593 0.04958 -0.19085
 Mn168 Mn 0.45723 0.00008 -0.00085
 C169 C 0.48168 0.06254 -0.16469
 C170 C 0.41935 -0.06399 -0.16108
 N171 N 0.53036 -0.03014 -0.08085
 N172 N 0.53664 -0.05041 -0.09400
 N173 N 0.54337 0.02952 -0.13645
 N174 N 0.55794 0.04903 -0.18944
 N175 N 0.56031 0.02990 -0.08113
 N176 N 0.58683 0.05007 -0.09432
 N177 N 0.51365 -0.02990 -0.13588
 N178 N 0.50841 -0.04966 -0.18842
 Mn179 Mn 0.54534 -0.00003 0.00303
 Mn180 Mn 0.50183 -0.00023 -0.13786
 Cl181 Cl 0.50128 -0.00001 0.00090
 C182 C 0.52263 -0.06244 -0.16115
 C183 C 0.58492 0.06186 -0.16188
 C184 C 1.14793 0.47273 0.33190
 N185 N 1.14406 0.46491 0.40784
 N186 N 1.16529 0.46597 0.44944
 C187 C 1.19157 0.47576 0.41802
 N188 N 1.19495 0.48257 0.34085
 N189 N 1.17362 0.48111 0.29866
 C190 C 1.12516 0.47359 0.28813
 N191 N 1.10583 0.47816 0.32610
 N192 N 1.08570 0.48010 0.28677
 C193 C 1.08393 0.47713 0.20817
 N194 N 1.10308 0.47227 0.17008
 N195 N 1.12354 0.47080 0.20935
 C196 C 0.51348 0.66998 0.32618
 N197 N 0.52616 0.69662 0.29618
 N198 N 0.52845 0.71825 0.33858
 C199 C 0.51863 0.71427 0.41318
 N200 N 0.50506 0.68735 0.44171
 N201 N 0.50265 0.66568 0.39934
 C202 C 0.51265 0.64641 0.28194
 N203 N 0.49913 0.61969 0.31158
 N204 N 0.49956 0.59848 0.27373
 C205 C 0.51365 0.60322 0.20507
 N206 N 0.52706 0.62990 0.17507
 N207 N 0.52656 0.65112 0.21285
 C208 C 0.32550 -0.14834 0.33063
 N209 N 0.30340 -0.17063 0.29435
 N210 N 0.28288 -0.19161 0.33584
 C211 C 0.28346 -0.19121 0.41527
 N212 N 0.30530 -0.16834 0.45060
 N213 N 0.32598 -0.14752 0.40950
 C214 C 0.34915 -0.12588 0.28626
 N215 N 0.37448 -0.10914 0.32188
 N216 N 0.39630 -0.08891 0.28236
 C217 C 0.39352 -0.08447 0.20595
 N218 N 0.36814 -0.10108 0.17017
 N219 N 0.34636 -0.12159 0.20956
 C220 C 0.84431 0.51862 0.32226
 N221 N 0.84026 0.54131 0.31667
 N222 N 0.82078 0.54287 0.36049
 C223 C 0.80473 0.52184 0.41165
 N224 N 0.80811 0.49871 0.41541
 N225 N 0.82774 0.49725 0.37200
 C226 C 0.86706 0.51779 0.27795
 N227 N 0.87512 0.49847 0.29578
 N228 N 0.89677 0.49861 0.25852
 C229 C 0.91100 0.51795 0.20174
 N230 N 0.90277 0.53709 0.18325
 N231 N 0.88125 0.53709 0.22095
 C232 C 0.48226 0.32612 0.32051
 N233 N 0.50402 0.33121 0.36931
 N234 N 0.50294 0.31042 0.41293
 C235 C 0.47980 0.28394 0.41040
 N236 N 0.45837 0.27867 0.36016
 N237 N 0.45955 0.29942 0.31610
 C238 C 0.48270 0.34941 0.27613
 N239 N 0.46316 0.34404 0.21943
 N240 N 0.46281 0.36533 0.18182
 C241 C 0.48182 0.39271 0.20015
 N242 N 0.50139 0.39807 0.25660
 N243 N 0.50189 0.37680 0.29373
 C244 C 0.67377 0.15416 0.32525
 N245 N 0.70112 0.16135 0.30968
 N246 N 0.72241 0.18104 0.35215
 C247 C 0.71711 0.19413 0.41203
 N248 N 0.68983 0.18750 0.42628
 N249 N 0.66852 0.16772 0.38399
 C250 C 0.65020 0.13145 0.28107
 N251 N 0.62284 0.12186 0.30307
 N252 N 0.60146 0.10044 0.26515
 C253 C 0.60665 0.08791 0.20371
 N254 N 0.63399 0.09762 0.18122
 N255 N 0.65540 0.11898 0.21937
 C256 C 0.47686 0.14996 -0.32978
 N257 N 0.47533 0.17138 -0.29340
 N258 N 0.47526 0.19216 -0.33470
 C259 C 0.47654 0.19237 -0.41408
 N260 N 0.47736 0.17040 -0.44948
 N261 N 0.47774 0.14981 -0.40858
 C262 C 0.47826 0.12753 -0.28560
 N263 N 0.48779 0.11143 -0.32082
 N264 N 0.48916 0.09098 -0.28181
 C265 C 0.48079 0.08565 -0.20630
 N266 N 0.47115 0.10166 -0.17092
 N267 N 0.47008 0.12239 -0.20976
 C268 C 0.67461 0.52674 -0.32672
 N269 N 0.69752 0.52805 -0.29073
 N270 N 0.71826 0.52791 -0.33244
 C271 C 0.71709 0.52661 -0.41181
 N272 N 0.69437 0.52608 -0.44683
 N273 N 0.67352 0.52591 -0.40553
 C274 C 0.65074 0.52521 -0.28218
 N275 N 0.65361 0.53307 -0.20604
 N276 N 0.63164 0.53161 -0.16678
 C277 C 0.60599 0.52188 -0.20210
 N278 N 0.60313 0.51386 -0.27792
 N279 N 0.62512 0.51563 -0.31731
 C280 C 0.85151 0.32651 -0.33188
 N281 N 0.83035 0.30347 -0.29545
 N282 N 0.80967 0.28248 -0.33668
 C283 C 0.80932 0.28346 -0.41603
 N284 N 0.83104 0.30635 -0.45155
 N285 N 0.85153 0.32747 -0.41070
 C286 C 0.87379 0.35042 -0.28758
 N287 N 0.88963 0.37605 -0.32249
 N288 N 0.90988 0.39796 -0.28314
 C289 C 0.91525 0.39498 -0.20761
 N290 N 0.89950 0.36933 -0.17258
 N291 N 0.87899 0.34746 -0.21175
 C292 C 0.52743 -0.14961 -0.32794
 N293 N 0.52895 -0.14815 -0.40668
 N294 N 0.52835 -0.16915 -0.44821
 C295 C 0.52561 -0.19285 -0.41354
 N296 N 0.52463 -0.19391 -0.33415
 N297 N 0.52557 -0.17275 -0.29218
 C298 C 0.52655 -0.12696 -0.28343
 N299 N 0.53309 -0.12304 -0.20632
 N300 N 0.53207 -0.10234 -0.16695
 C301 C 0.52409 -0.08518 -0.20318
 N302 N 0.51740 -0.08926 -0.27999
 N303 N 0.51877 -0.10966 -0.31947
 C304 C 0.32243 0.47030 -0.33096
 N305 N 0.29881 0.46728 -0.29477
 N306 N 0.27824 0.46796 -0.33569
 C307 C 0.28026 0.47155 -0.41451
 N308 N 0.30369 0.47375 -0.45001
 N309 N 0.32438 0.47334 -0.40939
 C310 C 0.34616 0.47151 -0.28651
 N311 N 0.37209 0.48193 -0.32046
 N312 N 0.39400 0.48375 -0.28055
 C313 C 0.39074 0.47502 -0.20537
 N314 N 0.36477 0.46444 -0.17131
 N315 N 0.34288 0.46288 -0.21107
 C316 C 1.14806 0.67710 -0.32793
 N317 N 1.14471 0.68017 -0.40493
 N318 N 1.16585 0.70051 -0.44615
 C319 C 1.19144 0.71817 -0.41280
 N320 N 1.19448 0.71533 -0.33516
 N321 N 1.17321 0.69527 -0.29347
 C322 C 1.12530 0.65363 -0.28398
 N323 N 1.12316 0.65524 -0.20547
 N324 N 1.10268 0.63349 -0.16600
 C325 C 1.08400 0.60925 -0.20361
 N326 N 1.08627 0.60762 -0.28192
 N327 N 1.10643 0.62948 -0.32147
 C328 C 0.85054 0.52780 -0.32686
 N329 N 0.82869 0.52866 -0.29079
 N330 N 0.80769 0.52826 -0.33244
 C331 C 0.80767 0.52710 -0.41184
 N332 N 0.83011 0.52704 -0.44692
 N333 N 0.85092 0.52715 -0.40568
 C334 C 0.87304 0.52654 -0.28243
 N335 N 0.88944 0.51742 -0.31785
 N336 N 0.90979 0.51589 -0.27859
 C337 C 0.91473 0.52370 -0.20260
 N338 N 0.89845 0.53298 -0.16698
 N339 N 0.87780 0.53420 -0.20612
 C340 C 0.47504 0.32432 -0.32757
 N341 N 0.47569 0.32534 -0.40637
 N342 N 0.47574 0.30464 -0.44775
 C343 C 0.47561 0.28214 -0.41286
 N344 N 0.47451 0.28105 -0.33347
 N345 N 0.47415 0.30163 -0.29167
 C346 C 0.47613 0.34796 -0.28299
 N347 N 0.46809 0.34492 -0.20700
 N348 N 0.46894 0.36660 -0.16785
 C349 C 0.47821 0.39213 -0.20310
 N350 N 0.48644 0.39517 -0.27876
 N351 N 0.48528 0.37346 -0.31805
 C352 C 0.67809 0.14831 -0.32610
 N353 N 0.69611 0.17362 -0.29213
 N354 N 0.71644 0.19467 -0.33389
 C355 C 0.71968 0.19122 -0.41108
 N356 N 0.70224 0.16545 -0.44374
 N357 N 0.68166 0.14456 -0.40251
 C358 C 0.65421 0.12576 -0.28260
 N359 N 0.63017 0.10698 -0.32083
 N360 N 0.60806 0.08680 -0.28200
 C361 C 0.60931 0.08441 -0.20365
 N362 N 0.63342 0.10302 -0.16529
 N363 N 0.65542 0.12354 -0.20403
 C364 C 1.15778 0.48640 -0.31516
 N365 N 1.16841 0.46969 -0.29154
 N366 N 1.18713 0.46685 -0.33559
 C367 C 1.19553 0.48015 -0.40576
 N368 N 1.18591 0.49800 -0.42704
 N369 N 1.16725 0.50089 -0.38306
 C370 C 1.13506 0.48744 -0.27102
 N371 N 1.12357 0.50303 -0.29778
 N372 N 1.10162 0.50251 -0.26123
 C373 C 1.09031 0.48633 -0.19666
 N374 N 1.10194 0.47091 -0.16935
 N375 N 1.12391 0.47143 -0.20596
 C376 C 0.52485 0.67461 -0.32373
 N377 N 0.53945 0.68332 -0.39176
 N378 N 0.53915 0.70383 -0.43352
 C379 C 0.52348 0.71576 -0.41027
 N380 N 0.50957 0.70757 -0.34090
 N381 N 0.51029 0.68743 -0.29832
 C382 C 0.52366 0.65075 -0.28071
 N383 N 0.52322 0.65027 -0.20160
 N384 N 0.52177 0.62826 -0.16307
 C385 C 0.52004 0.60573 -0.20240
 N386 N 0.52021 0.60611 -0.28143
 N387 N 0.52223 0.62833 -0.31989
 C388 C 0.32789 -0.15488 -0.31899
 N389 N 0.33259 -0.17134 -0.36970
 N390 N 0.31142 -0.19084 -0.41290
 C391 C 0.28488 -0.19423 -0.40793
 N392 N 0.28000 -0.17831 -0.35574
 N393 N 0.30114 -0.15895 -0.31213
 C394 C 0.35160 -0.13219 -0.27506
 N395 N 0.34664 -0.11801 -0.21747
 N396 N 0.36824 -0.09656 -0.18012
 C397 C 0.39556 -0.08838 -0.19953
 N398 N 0.40052 -0.10260 -0.25693
 N399 N 0.37893 -0.12417 -0.29386
 C400 C 0.51904 -0.15501 0.32158
 N401 N 0.54136 -0.15965 0.31416
 N402 N 0.54279 -0.17928 0.35736
 C403 C 0.52201 -0.19489 0.40973
 N404 N 0.49923 -0.19091 0.41527
 N405 N 0.49790 -0.17115 0.37247
 C406 C 0.51832 -0.13214 0.27788
 N407 N 0.49925 -0.12381 0.29683
 N408 N 0.49939 -0.10217 0.25988
 C409 C 0.51849 -0.08820 0.20231
 N410 N 0.53741 -0.09667 0.18277
 N411 N 0.53740 -0.11819 0.22013
 C412 C 0.32514 0.48187 0.32006
 N413 N 0.29834 0.45928 0.31564
 N414 N 0.27759 0.45818 0.35984
 C415 C 0.28293 0.47960 0.41013
 N416 N 0.30950 0.50262 0.41278
 N417 N 0.33030 0.50361 0.36900
 C418 C 0.34849 0.48216 0.27583
 N419 N 0.37593 0.50125 0.29358
 N420 N 0.39725 0.50061 0.25676
 C421 C 0.39191 0.48099 0.20046
 N422 N 0.36448 0.46207 0.18197
 N423 N 0.34313 0.46257 0.21929
 C424 C 1.15515 0.67333 0.32369
 N425 N 1.16213 0.70060 0.30857
 N426 N 1.18191 0.72193 0.35084
 C427 C 1.19532 0.71675 0.41002
 N428 N 1.18893 0.68955 0.42362
 N429 N 1.16908 0.66822 0.38158
 C430 C 1.13215 0.64968 0.28030
 N431 N 1.12252 0.62240 0.30269
 N432 N 1.10081 0.60097 0.26567
 C433 C 1.08801 0.60602 0.20472
 N434 N 1.09776 0.63326 0.18185
 N435 N 1.11939 0.65472 0.21913
 C436 C 0.48321 0.15556 0.31804
 N437 N 0.46021 0.15921 0.31474
 N438 N 0.45883 0.17860 0.35939
 C439 C 0.48036 0.19491 0.40912
 N440 N 0.50379 0.19193 0.41052
 N441 N 0.50506 0.17240 0.36632
 C442 C 0.48389 0.13287 0.27324
 N443 N 0.50337 0.12493 0.29034
 N444 N 0.50309 0.10327 0.25303
 C445 C 0.48347 0.08891 0.19685
 N446 N 0.46417 0.09703 0.17896
 N447 N 0.46430 0.11857 0.21680
 C448 C 0.67223 0.51819 0.32208
 N449 N 0.66758 0.49674 0.37130
 N450 N 0.68867 0.49828 0.41476
 C451 C 0.71504 0.52160 0.41160
 N452 N 0.71988 0.54273 0.36096
 N453 N 0.69883 0.54108 0.31707
 C454 C 0.64860 0.51722 0.27781
 N455 N 0.65354 0.53658 0.22108
 N456 N 0.63193 0.53641 0.18350
 C457 C 0.60464 0.51703 0.20185
 N458 N 0.59971 0.49765 0.25835
 N459 N 0.62129 0.49768 0.29547
 C460 C 0.84510 0.32667 0.31598
 N461 N 0.84187 0.30023 0.31234
 N462 N 0.82272 0.27939 0.35700
 C463 C 0.80623 0.28430 0.40708
 N464 N 0.80878 0.31048 0.40880
 N465 N 0.82807 0.33136 0.36459
 C466 C 0.86760 0.35017 0.27133
 N467 N 0.87514 0.37743 0.28870
 N468 N 0.89666 0.39895 0.25164
 C469 C 0.91129 0.39399 0.19543
 N470 N 0.90357 0.36674 0.17726
 N471 N 0.88217 0.34520 0.21485
   
