data_POSCAR
  _audit_creation_date              2014-09-24
  _audit_creation_method            'ToBaCCo'
  _symmetry_space_group_name_H-M    'P1'
  _symmetry_Int_Tables_number       1
  _symmetry_cell_setting            triclinic
  loop_
  _symmetry_equiv_pos_as_xyz
 x,y,z
_cell_length_a 34.3090
_cell_length_b 34.5815
_cell_length_c 34.3114
_cell_angle_alpha 91.242200
_cell_angle_beta 91.109700
_cell_angle_gamma 91.161000
loop_
  _atom_site_label
  _atom_site_type_symbol
  _atom_site_fract_x
  _atom_site_fract_y
  _atom_site_fract_z
C1 C 0.70371 0.69721 0.97021
 H2 H 0.73337 0.70489 0.96298
 C3 C 0.67287 0.71749 0.95384
 H4 H 0.67916 0.74066 0.93410
 C5 C 0.65946 0.65612 1.00267
 H6 H 0.65411 0.63157 1.02081
 C7 C 0.62781 0.67577 0.98714
 H8 H 0.59841 0.66609 0.99337
 N9 N 0.69649 0.66601 0.99269
 C10 C 0.81833 0.64001 1.01155
 H11 H 0.81748 0.61099 0.99920
 C12 C 0.85408 0.65723 1.02250
 H13 H 0.88068 0.64137 1.01864
 C14 C 0.78469 0.69545 1.03324
 H15 H 0.75744 0.70982 1.03798
 C16 C 0.81994 0.71372 1.04480
 H17 H 0.81953 0.74221 1.05841
 Zn18 Zn 0.73766 0.63172 1.00406
 N19 N 0.78456 0.65912 1.01721
 C20 C 0.75816 0.56379 0.96147
 N21 N 0.74715 0.60125 0.95865
 C22 C 0.74705 0.61927 0.92378
 C23 C 0.75945 0.60010 0.89029
 C24 C 0.77114 0.54359 0.92859
 C25 C 0.73817 0.60945 1.08259
 C26 C 0.72433 0.59036 1.11517
 C27 C 0.68208 0.55113 1.07251
 C28 C 0.69673 0.57102 1.04075
 N29 N 0.72359 0.60016 1.04638
 H30 H 0.75891 0.55026 0.98958
 H31 H 0.73894 0.64910 0.92201
 H32 H 0.76071 0.61536 0.86309
 H33 H 0.78155 0.51447 0.93164
 H34 H 0.75934 0.63285 1.08648
 H35 H 0.73511 0.59924 1.14395
 H36 H 0.65964 0.52919 1.06713
 H37 H 0.68543 0.56432 1.01168
 C38 C 0.85505 0.69425 1.03981
 C39 C 0.63443 0.70563 0.96105
 C40 C 0.69519 0.56140 1.11052
 C41 C 0.77271 0.56228 0.89276
 C42 C 0.71949 0.31975 0.52724
 H43 H 0.74850 0.31621 0.53940
 C44 C 0.68842 0.29736 0.54067
 H45 H 0.69387 0.27658 0.56312
 C46 C 0.67698 0.35293 0.48487
 H47 H 0.67243 0.37476 0.46337
 C48 C 0.64508 0.33121 0.49754
 H49 H 0.61615 0.33686 0.48612
 N50 N 0.71299 0.34813 0.50121
 C51 C 0.83306 0.35776 0.49758
 H52 H 0.83500 0.37525 0.52400
 C53 C 0.86634 0.33952 0.48415
 H54 H 0.89369 0.34370 0.50005
 C55 C 0.79544 0.33125 0.44447
 H56 H 0.76770 0.32844 0.42903
 C57 C 0.82809 0.31290 0.42978
 H58 H 0.82553 0.29610 0.40281
 Zn59 Zn 0.75482 0.38334 0.49195
 N60 N 0.79881 0.35446 0.47694
 C61 C 0.79536 0.44014 0.53782
 N62 N 0.76659 0.41251 0.53841
 C63 C 0.74758 0.40464 0.57189
 C64 C 0.75925 0.42281 0.60703
 C65 C 0.80786 0.45911 0.57235
 C66 C 0.75779 0.41658 0.41669
 C67 C 0.74255 0.43723 0.38558
 C68 C 0.69446 0.46348 0.42867
 C69 C 0.71049 0.44217 0.45894
 N70 N 0.74041 0.41789 0.45202
 H71 H 0.80975 0.44616 0.51077
 H72 H 0.72406 0.38348 0.57180
 H73 H 0.74511 0.41492 0.63375
 H74 H 0.83212 0.47957 0.57176
 H75 H 0.78242 0.39832 0.41191
 H76 H 0.75506 0.43406 0.35697
 H77 H 0.66909 0.48069 0.43413
 H78 H 0.69760 0.44320 0.48747
 C79 C 0.86414 0.31760 0.44936
 C80 C 0.65051 0.30413 0.52679
 C81 C 0.70975 0.45994 0.39119
 C82 C 0.79008 0.44991 0.60751
 C83 C 0.21237 -0.17501 0.02935
 H84 H 0.23978 -0.17411 0.04550
 C85 C 0.18018 -0.19483 0.04408
 H86 H 0.18290 -0.20936 0.07162
 C87 C 0.17432 -0.15445 -0.02449
 H88 H 0.17169 -0.13755 -0.05046
 C89 C 0.14156 -0.17425 -0.01101
 H90 H 0.11407 -0.17247 -0.02682
 N91 N 0.20867 -0.15465 -0.00393
 C92 C 0.32062 -0.12450 -0.05319
 H93 H 0.31644 -0.09361 -0.05421
 C94 C 0.35410 -0.14036 -0.06847
 H95 H 0.37538 -0.12130 -0.08131
 C96 C 0.29732 -0.18645 -0.03503
 H97 H 0.27494 -0.20412 -0.02201
 C98 C 0.33063 -0.20362 -0.05010
 H99 H 0.33389 -0.23465 -0.04878
 Zn100 Zn 0.24997 -0.12072 -0.01730
 N101 N 0.29321 -0.14746 -0.03667
 C102 C 0.30371 -0.09418 0.04039
 N103 N 0.26582 -0.09209 0.02833
 C104 C 0.23922 -0.07325 0.05035
 C105 C 0.25051 -0.05583 0.08621
 C106 C 0.31614 -0.07712 0.07564
 C107 C 0.23074 -0.10577 -0.09365
 C108 C 0.21610 -0.08592 -0.12536
 C109 C 0.20644 -0.03047 -0.08277
 C110 C 0.22182 -0.05138 -0.05177
 N111 N 0.23270 -0.08862 -0.05764
 H112 H 0.32434 -0.11006 0.02337
 H113 H 0.20906 -0.07276 0.04062
 H114 H 0.22908 -0.04155 0.10388
 H115 H 0.34630 -0.07958 0.08504
 H116 H 0.23968 -0.13540 -0.09748
 H117 H 0.21379 -0.10052 -0.15361
 H118 H 0.19677 -0.00135 -0.07719
 H119 H 0.22401 -0.03824 -0.02293
 C120 C 0.35942 -0.18035 -0.06700
 C121 C 0.14417 -0.19393 0.02411
 C122 C 0.20274 -0.04813 -0.12003
 C123 C 0.28937 -0.05815 0.09915
 C124 C 0.21152 0.19149 0.45269
 H125 H 0.23920 0.19192 0.43812
 C126 C 0.18082 0.21335 0.43827
 H127 H 0.18506 0.23062 0.41269
 C128 C 0.17081 0.16538 0.50100
 H129 H 0.16636 0.14555 0.52445
 C130 C 0.13950 0.18689 0.48767
 H131 H 0.11134 0.18331 0.50099
 N132 N 0.20570 0.16715 0.48279
 C133 C 0.31877 0.12939 0.52705
 H134 H 0.31057 0.09971 0.53226
 C135 C 0.35556 0.14300 0.53913
 H136 H 0.37526 0.12323 0.55288
 C137 C 0.30173 0.19158 0.50570
 H138 H 0.28045 0.21060 0.49334
 C139 C 0.33841 0.20655 0.51766
 H140 H 0.34516 0.23703 0.51450
 Zn141 Zn 0.24368 0.13010 0.49638
 N142 N 0.29274 0.15344 0.51037
 C143 C 0.27509 0.06480 0.45870
 N144 N 0.25087 0.09502 0.45355
 C145 C 0.23515 0.10218 0.41772
 C146 C 0.24680 0.08110 0.38492
 C147 C 0.28728 0.04288 0.42679
 C148 C 0.22803 0.12341 0.57500
 C149 C 0.21384 0.10668 0.60862
 C150 C 0.19711 0.04878 0.57069
 C151 C 0.21168 0.06663 0.53768
 N152 N 0.22635 0.10344 0.54041
 H153 H 0.28614 0.05840 0.48742
 H154 H 0.21499 0.12537 0.41401
 H155 H 0.23607 0.08869 0.35625
 H156 H 0.30818 0.02039 0.43145
 H157 H 0.23973 0.15271 0.57621
 H158 H 0.21447 0.12315 0.63584
 H159 H 0.18463 0.01986 0.56794
 H160 H 0.21032 0.05151 0.50977
 C161 C 0.36568 0.18203 0.53465
 C162 C 0.14416 0.21049 0.45543
 C163 C 0.19774 0.06917 0.60650
 C164 C 0.27432 0.05211 0.38923
 C165 C 0.19769 0.46389 0.20945
 H166 H 0.20049 0.45214 0.23831
 C167 C 0.21881 0.44786 0.17889
 H168 H 0.23803 0.42419 0.18473
 C169 C 0.16637 0.50629 0.16610
 H170 H 0.14500 0.52819 0.16088
 C171 C 0.18679 0.49100 0.13472
 H172 H 0.18100 0.50122 0.10560
 N173 N 0.17094 0.49154 0.20234
 C174 C 0.13299 0.53111 0.31775
 H175 H 0.10216 0.53205 0.31141
 C176 C 0.14693 0.54342 0.35439
 H177 H 0.12632 0.55299 0.37577
 C178 C 0.19713 0.51976 0.29667
 H179 H 0.21671 0.51138 0.27387
 C180 C 0.21242 0.53196 0.33319
 H181 H 0.24367 0.53277 0.33833
 Zn182 Zn 0.13395 0.50482 0.24083
 N183 N 0.15790 0.51944 0.28969
 C184 C 0.06734 0.46658 0.27004
 N185 N 0.09991 0.46148 0.24865
 C186 C 0.10998 0.42550 0.23596
 C187 C 0.08944 0.39283 0.24815
 C188 C 0.04606 0.43467 0.28299
 C189 C 0.11840 0.58346 0.23355
 C190 C 0.09962 0.61585 0.21943
 C191 C 0.05337 0.57325 0.18501
 C192 C 0.07290 0.54158 0.20001
 N193 N 0.10500 0.54726 0.22347
 H194 H 0.05851 0.49535 0.27822
 H195 H 0.13500 0.42168 0.21792
 H196 H 0.09923 0.36428 0.23987
 H197 H 0.02158 0.43935 0.30177
 H198 H 0.14426 0.58720 0.25187
 H199 H 0.11102 0.64453 0.22696
 H200 H 0.02845 0.56827 0.16564
 H201 H 0.06310 0.51247 0.19218
 C202 C 0.18709 0.54424 0.36237
 C203 C 0.21223 0.46048 0.14080
 C204 C 0.06713 0.61086 0.19439
 C205 C 0.05822 0.39729 0.27335
 C206 C -0.17164 0.03748 0.22215
 H207 H -0.17129 0.05222 0.25030
 C208 C -0.19294 0.05244 0.19104
 H209 H -0.20878 0.07875 0.19594
 C210 C -0.14835 -0.01283 0.18142
 H211 H -0.13014 -0.03770 0.17757
 C212 C -0.16905 0.00124 0.14945
 H213 H -0.16642 -0.01295 0.12119
 N214 N -0.14934 0.00589 0.21667
 C215 C -0.11723 -0.03959 0.33020
 H216 H -0.08597 -0.03955 0.32657
 C217 C -0.13315 -0.05408 0.36400
 H218 H -0.11383 -0.06515 0.38616
 C219 C -0.18003 -0.02520 0.30512
 H220 H -0.19809 -0.01413 0.28192
 C221 C -0.19726 -0.03939 0.33877
 H222 H -0.22867 -0.03938 0.34136
 Zn223 Zn -0.11424 -0.00747 0.25714
 N224 N -0.14060 -0.02558 0.30154
 C225 C -0.08615 0.05082 0.30962
 N226 N -0.08524 0.03827 0.27178
 C227 C -0.06807 0.06029 0.24416
 C228 C -0.05090 0.09633 0.25436
 C229 C -0.06937 0.08631 0.32095
 C230 C -0.09213 -0.08460 0.24881
 C231 C -0.07285 -0.11618 0.23307
 C232 C -0.03283 -0.07212 0.19670
 C233 C -0.05260 -0.04116 0.21360
 N234 N -0.08202 -0.04790 0.23879
 H235 H -0.10108 0.03416 0.33110
 H236 H -0.06909 0.05067 0.21397
 H237 H -0.03798 0.11393 0.23213
 H238 H -0.07091 0.09603 0.35111
 H239 H -0.11641 -0.08969 0.26771
 H240 H -0.08208 -0.14522 0.24042
 H241 H -0.01048 -0.06638 0.17567
 H242 H -0.04537 -0.01196 0.20543
 C243 C -0.17363 -0.05433 0.36845
 C244 C -0.19123 0.03469 0.15381
 C245 C -0.04354 -0.11012 0.20600
 C246 C -0.05190 0.10962 0.29317
 C247 C 0.32232 0.53243 0.71640
 H248 H 0.32183 0.54571 0.74522
 C249 C 0.30136 0.54861 0.68570
 H250 H 0.28454 0.57419 0.69128
 C251 C 0.34767 0.48499 0.67347
 H252 H 0.36681 0.46106 0.66846
 C253 C 0.32743 0.50044 0.64195
 H254 H 0.33092 0.48814 0.61295
 N255 N 0.34538 0.50157 0.70969
 C256 C 0.37873 0.44974 0.81973
 H257 H 0.40948 0.44732 0.81394
 C258 C 0.36373 0.43472 0.85374
 H259 H 0.38327 0.42070 0.87378
 C260 C 0.31624 0.47083 0.79994
 H261 H 0.29788 0.48470 0.77871
 C262 C 0.29993 0.45609 0.83382
 H263 H 0.26897 0.45861 0.83861
 Zn264 Zn 0.38069 0.48664 0.74940
 N265 N 0.35515 0.46772 0.79383
 C266 C 0.41560 0.54089 0.80245
 N267 N 0.41147 0.53102 0.76398
 C268 C 0.42506 0.55479 0.73591
 C269 C 0.44254 0.59065 0.74621
 C270 C 0.43331 0.57595 0.81393
 C271 C 0.39268 0.41085 0.72728
 C272 C 0.41183 0.37883 0.71243
 C273 C 0.46908 0.41937 0.70367
 C274 C 0.44891 0.45073 0.71930
 N275 N 0.41120 0.44595 0.73012
 H276 H 0.40406 0.52231 0.82443
 H277 H 0.42086 0.54659 0.70548
 H278 H 0.45215 0.60988 0.72370
 H279 H 0.43568 0.58369 0.84467
 H280 H 0.36271 0.40794 0.73617
 H281 H 0.39650 0.35117 0.70974
 H282 H 0.49872 0.42360 0.69418
 H283 H 0.46302 0.47893 0.72201
 C284 C 0.32390 0.43787 0.86113
 C285 C 0.30463 0.53306 0.64782
 C286 C 0.45018 0.38307 0.69983
 C287 C 0.44614 0.60160 0.78569
 C288 C 0.69500 0.95688 0.71585
 H289 H 0.69549 0.94304 0.74381
 C290 C 0.71490 0.94039 0.68466
 H291 H 0.73116 0.91435 0.68921
 C292 C 0.66964 1.00498 0.67481
 H293 H 0.65070 1.02912 0.67049
 C294 C 0.68890 0.98932 0.64289
 H295 H 0.68491 1.00175 0.61442
 N296 N 0.67206 0.98799 0.71020
 C297 C 0.63737 1.03873 0.82128
 H298 H 0.60840 1.04631 0.81159
 C299 C 0.65089 1.05128 0.85797
 H300 H 0.63183 1.06863 0.87554
 C301 C 0.69753 1.00924 0.80824
 H302 H 0.71578 0.99329 0.78858
 C303 C 0.71240 1.02138 0.84497
 H304 H 0.74216 1.01482 0.85313
 Zn305 Zn 0.63600 1.00264 0.74893
 N306 N 0.66035 1.01773 0.79735
 C307 C 0.57938 0.96001 0.78949
 N308 N 0.60181 0.95966 0.75724
 C309 C 0.60297 0.92766 0.73341
 C310 C 0.58322 0.89354 0.74319
 C311 C 0.55945 0.92657 0.80041
 C312 C 0.62845 1.07984 0.73007
 C313 C 0.61094 1.11256 0.71520
 C314 C 0.55166 1.07474 0.70369
 C315 C 0.57028 1.04264 0.71902
 N316 N 0.60820 1.04567 0.73119
 H317 H 0.57828 0.98563 0.80785
 H318 H 0.62026 0.92802 0.70745
 H319 H 0.58584 0.86781 0.72499
 H320 H 0.54335 0.92671 0.82726
 H321 H 0.65858 1.08134 0.73999
 H322 H 0.62766 1.13937 0.71356
 H323 H 0.52184 1.07171 0.69311
 H324 H 0.55485 1.01513 0.72025
 C325 C 0.68878 1.04237 0.87059
 C326 C 0.71083 0.95601 0.64745
 C327 C 0.57237 1.11000 0.70122
 C328 C 0.56215 0.89265 0.77768
 C329 C 0.03454 0.21940 -0.17323
 H330 H 0.04894 0.24751 -0.17359
 C331 C 0.04922 0.18859 -0.19506
 H332 H 0.07484 0.19332 -0.21234
 C333 C -0.01444 0.17834 -0.14769
 H334 H -0.03849 0.17408 -0.12830
 C335 C -0.00053 0.14675 -0.16878
 H336 H -0.01403 0.11844 -0.16562
 N337 N 0.00356 0.21367 -0.14976
 C338 C -0.04800 0.32334 -0.11765
 H339 H -0.05100 0.31802 -0.08689
 C340 C -0.06292 0.35684 -0.13333
 H341 H -0.07743 0.37698 -0.11428
 C342 C -0.02558 0.30287 -0.17952
 H343 H -0.01125 0.28158 -0.19740
 C344 C -0.04018 0.33621 -0.19650
 H345 H -0.03709 0.34053 -0.22746
 Zn346 Zn -0.01047 0.25363 -0.11454
 N347 N -0.02941 0.29735 -0.14061
 C348 C 0.04329 0.30654 -0.07854
 N349 N 0.03462 0.26828 -0.08441
 C350 C 0.05999 0.24069 -0.07304
 C351 C 0.09627 0.25137 -0.05620
 C352 C 0.07876 0.31836 -0.06140
 C353 C -0.08698 0.23311 -0.10092
 C354 C -0.11871 0.21753 -0.08161
 C355 C -0.07641 0.20653 -0.02594
 C356 C -0.04538 0.22287 -0.04630
 N357 N -0.05116 0.23508 -0.08333
 H358 H 0.02335 0.32819 -0.08819
 H359 H 0.05270 0.21045 -0.07853
 H360 H 0.11672 0.22929 -0.04837
 H361 H 0.08552 0.34897 -0.05765
 H362 H -0.09066 0.24294 -0.13045
 H363 H -0.14686 0.21550 -0.09649
 H364 H -0.07096 0.19603 0.00306
 H365 H -0.01656 0.22478 -0.03300
 C366 C -0.05902 0.36360 -0.17319
 C367 C 0.03202 0.15163 -0.19224
 C368 C -0.11357 0.20314 -0.04397
 C369 C 0.10601 0.29070 -0.05091
 C370 C 0.45460 0.20357 0.19206
 H371 H 0.43877 0.23030 0.19137
 C372 C 0.43859 0.17146 0.21036
 H373 H 0.41038 0.17353 0.22379
 C374 C 0.50924 0.16740 0.17301
 H375 H 0.53668 0.16576 0.15829
 C376 C 0.49447 0.13468 0.19132
 H377 H 0.51037 0.10800 0.18987
 N378 N 0.48818 0.20034 0.17192
 C379 C 0.48941 0.31826 0.16632
 H380 H 0.46255 0.31628 0.14944
 C381 C 0.50080 0.35369 0.18373
 H382 H 0.48302 0.37878 0.17935
 C383 C 0.54542 0.28838 0.19233
 H384 H 0.56297 0.26290 0.19503
 C385 C 0.55816 0.32336 0.20981
 H386 H 0.58564 0.32477 0.22589
 Zn387 Zn 0.50189 0.24138 0.13850
 N388 N 0.51268 0.28696 0.16930
 C389 C 0.46350 0.28149 0.07980
 N390 N 0.45984 0.25048 0.10324
 C391 C 0.42623 0.22881 0.10333
 C392 C 0.39333 0.24056 0.08244
 C393 C 0.43128 0.29444 0.05879
 C394 C 0.57932 0.25022 0.10971
 C395 C 0.61290 0.23709 0.09166
 C396 C 0.57664 0.18000 0.06936
 C397 C 0.54369 0.19435 0.08748
 N398 N 0.54605 0.22799 0.10875
 H399 H 0.49075 0.29779 0.07965
 H400 H 0.42426 0.20324 0.12071
 H401 H 0.36615 0.22439 0.08460
 H402 H 0.43377 0.32080 0.04247
 H403 H 0.58030 0.27774 0.12513
 H404 H 0.63957 0.25429 0.09409
 H405 H 0.57497 0.15214 0.05432
 H406 H 0.51667 0.17766 0.08634
 C407 C 0.53621 0.35667 0.20461
 C408 C 0.45803 0.13623 0.20888
 C409 C 0.61192 0.20106 0.07224
 C410 C 0.39545 0.27454 0.06111
 C411 C 0.96394 0.71037 0.70331
 H412 H 0.95229 0.73886 0.70813
 C413 C 0.94943 0.67926 0.72431
 H414 H 0.92671 0.68423 0.74513
 C415 C 1.00548 0.66885 0.66830
 H416 H 1.02660 0.66451 0.64584
 C417 C 0.99175 0.63697 0.68861
 H418 H 1.00221 0.60840 0.68140
 N419 N 0.99003 0.70437 0.67452
 C420 C 1.01388 0.82244 0.63642
 H421 H 1.00924 0.81720 0.60552
 C422 C 1.02472 0.85940 0.65002
 H423 H 1.02801 0.88231 0.62931
 C424 C 1.01667 0.79837 0.70054
 H425 H 1.01457 0.77428 0.71996
 C426 C 1.02741 0.83515 0.71546
 H427 H 1.03338 0.83923 0.74640
 Zn428 Zn 0.99954 0.74368 0.63756
 N429 N 1.01057 0.79269 0.66150
 C430 C 0.95859 0.76263 0.56847
 N431 N 0.95445 0.74896 0.60510
 C432 C 0.91849 0.74393 0.62053
 C433 C 0.88521 0.75498 0.60003
 C434 C 0.92597 0.77415 0.54695
 C435 C 1.07816 0.74739 0.61569
 C436 C 1.11163 0.73518 0.59690
 C437 C 1.07200 0.68816 0.56017
 C438 C 1.03919 0.70148 0.57939
 N439 N 1.04294 0.73008 0.60713
 H440 H 0.98740 0.76667 0.55679
 H441 H 0.91540 0.73323 0.64953
 H442 H 0.85702 0.75285 0.61360
 H443 H 0.93002 0.78706 0.51885
 H444 H 1.08062 0.76966 0.63824
 H445 H 1.13965 0.74816 0.60512
 H446 H 1.06896 0.66420 0.53941
 H447 H 1.01094 0.68795 0.57341
 C448 C 1.03238 0.86589 0.68986
 C449 C 0.96213 0.64183 0.71562
 C450 C 1.10872 0.70491 0.56919
 C451 C 0.88896 0.77150 0.56345
 C452 C 0.53491 0.71316 0.32242
 H453 H 0.55193 0.73972 0.32236
 C454 C 0.54868 0.68043 0.30314
 H455 H 0.57635 0.68201 0.28852
 C456 C 0.47941 0.67788 0.34312
 H457 H 0.45262 0.67685 0.35911
 C458 C 0.49207 0.64442 0.32397
 H459 H 0.47515 0.61780 0.32575
 N460 N 0.50158 0.71104 0.34316
 C461 C 0.47094 0.83047 0.36780
 H462 H 0.48043 0.83247 0.39804
 C463 C 0.45646 0.86292 0.34956
 H464 H 0.45483 0.88993 0.36600
 C465 C 0.46078 0.79240 0.31007
 H466 H 0.46232 0.76465 0.29508
 C467 C 0.44576 0.82420 0.29066
 H468 H 0.43587 0.82038 0.26071
 Zn469 Zn 0.49008 0.75356 0.37683
 N470 N 0.47237 0.79602 0.34811
 C471 C 0.56064 0.79333 0.38253
 N472 N 0.53686 0.76992 0.40327
 C473 C 0.54693 0.75937 0.44007
 C474 C 0.58245 0.77233 0.45707
 C475 C 0.59607 0.80692 0.39835
 C476 C 0.41639 0.75782 0.41186
 C477 C 0.38475 0.74419 0.43290
 C478 C 0.42407 0.69145 0.45476
 C479 C 0.45519 0.70634 0.43366
 N480 N 0.45058 0.73849 0.41197
 H481 H 0.55198 0.80166 0.35349
 H482 H 0.52762 0.74097 0.45627
 H483 H 0.59031 0.76391 0.48636
 H484 H 0.61426 0.82541 0.38101
 H485 H 0.41283 0.78288 0.39402
 H486 H 0.35729 0.75895 0.43100
 H487 H 0.42738 0.66467 0.47016
 H488 H 0.48227 0.69091 0.43266
 C489 C 0.44296 0.85996 0.31071
 C490 C 0.52770 0.64538 0.30475
 C491 C 0.38823 0.71019 0.45396
 C492 C 0.60732 0.79650 0.43607
 Si493 Si 0.36283 -0.00374 0.25079
 Si494 Si 0.11427 1.01212 0.74676
 Si495 Si 0.61637 0.50703 0.25104
 Si496 Si 0.86599 0.50299 0.75888
 Si497 Si 0.25846 0.36303 0.00289
 Si498 Si 0.75166 0.11630 1.01563
 Si499 Si 0.24855 0.62204 0.51001
 Si500 Si 0.75608 0.86539 0.50469
 Si501 Si 0.00393 0.26093 0.36422
 Si502 Si 1.00640 0.75054 0.11395
 Si503 Si 0.51189 0.24542 0.61337
 Si504 Si 0.50073 0.75268 0.85834
 C505 C 0.42660 -0.06508 0.24929
 C506 C 0.44493 -0.06962 0.29047
 C507 C 0.42481 -0.10736 0.29361
 C508 C 0.40736 -0.10550 0.25414
 C509 C 0.39063 -0.09026 0.31202
 C510 C 0.40956 -0.04967 0.30873
 C511 C 0.39076 -0.04615 0.26773
 C512 C 0.37109 -0.08645 0.27153
 H513 H 0.44257 -0.05517 0.22339
 H514 H 0.47606 -0.06427 0.29879
 H515 H 0.40659 -0.12899 0.23159
 H516 H 0.37643 -0.10195 0.33823
 H517 H 0.41142 -0.02732 0.33240
 H518 H 0.34040 -0.09479 0.26411
 C519 C 0.91505 0.42951 0.75482
 C520 C 0.94689 0.43058 0.78755
 C521 C 0.92404 0.39906 0.80907
 C522 C 0.89261 0.39746 0.77648
 C523 C 0.90141 0.43009 0.83159
 C524 C 0.92401 0.46190 0.80995
 C525 C 0.89244 0.46039 0.77753
 C526 C 0.86990 0.42862 0.79892
 H527 H 0.92057 0.42961 0.72306
 H528 H 0.97884 0.43112 0.78304
 H529 H 0.87960 0.37070 0.76280
 H530 H 0.89490 0.43168 0.86312
 H531 H 0.93729 0.48865 0.82337
 H532 H 0.83801 0.42734 0.80358
 C533 C 0.05149 1.05390 0.79252
 C534 C 0.07187 1.08762 0.81574
 C535 C 0.05068 1.11673 0.78996
 C536 C 0.02991 1.08337 0.76688
 C537 C 0.08448 1.11679 0.76114
 C538 C 0.10576 1.08751 0.78685
 C539 C 0.08529 1.05401 0.76376
 C540 C 0.06405 1.08301 0.73792
 H541 H 0.03801 1.02769 0.80516
 H542 H 0.07519 1.08975 0.84797
 H543 H -0.00154 1.08202 0.75866
 H544 H 0.09845 1.14229 0.74767
 H545 H 0.13714 1.08924 0.79531
 H546 H 0.06083 1.08072 0.70570
 C547 C 0.60197 0.58916 0.27040
 C548 C 0.56526 0.60474 0.24982
 C549 C 0.54594 0.60902 0.28972
 C550 C 0.58251 0.59361 0.31030
 C551 C 0.52843 0.56772 0.28571
 C552 C 0.54818 0.56301 0.24560
 C553 C 0.58480 0.54778 0.26627
 C554 C 0.56536 0.55206 0.30611
 H555 H 0.63239 0.59826 0.26431
 H556 H 0.56516 0.62660 0.22661
 H557 H 0.59671 0.60636 0.33708
 H558 H 0.49797 0.55875 0.29188
 H559 H 0.53418 0.54990 0.21890
 H560 H 0.56547 0.53018 0.32930
 C561 C 0.60805 0.42263 0.23513
 C562 C 0.57374 0.40402 0.25696
 C563 C 0.55289 0.39543 0.21757
 C564 C 0.58706 0.41383 0.19572
 C565 C 0.53245 0.43467 0.21968
 C566 C 0.55368 0.44371 0.25927
 C567 C 0.58791 0.46199 0.23738
 C568 C 0.56698 0.45339 0.19802
 H569 H 0.63934 0.41739 0.24120
 H570 H 0.57650 0.38356 0.28129
 H571 H 0.60086 0.40132 0.16943
 H572 H 0.50113 0.43980 0.21353
 H573 H 0.53995 0.45652 0.28543
 H574 H 0.56424 0.47390 0.17374
 C575 C 0.10378 0.93731 0.70545
 C576 C 0.08595 0.90606 0.73141
 C577 C 0.04966 0.90399 0.70436
 C578 C 0.06748 0.93519 0.67827
 C579 C 0.02992 0.93524 0.72926
 C580 C 0.06655 0.93772 0.75643
 C581 C 0.08439 0.96883 0.73031
 C582 C 0.04809 0.96689 0.70331
 H583 H 0.13431 0.93758 0.69542
 H584 H 0.10178 0.88096 0.74299
 H585 H 0.06871 0.93501 0.64598
 H586 H -0.00075 0.93409 0.73896
 H587 H 0.06610 0.93895 0.78876
 H588 H 0.03259 0.99232 0.69200
 C589 C 0.88286 0.57994 0.72736
 C590 C 0.90513 0.60691 0.75687
 C591 C 0.94041 0.60689 0.72985
 C592 C 0.91819 0.58004 0.70032
 C593 C 0.95720 0.57165 0.75050
 C594 C 0.92152 0.57124 0.77765
 C595 C 0.89927 0.54455 0.74801
 C596 C 0.93457 0.54447 0.72107
 H597 H 0.85227 0.58374 0.71742
 H598 H 0.89238 0.63210 0.77218
 H599 H 0.91669 0.58379 0.66828
 H600 H 0.98804 0.56857 0.76008
 H601 H 0.92285 0.56730 0.80965
 H602 H 0.94674 0.51853 0.70656
 C603 C 0.43057 0.05445 0.26356
 C604 C 0.45383 0.05914 0.22557
 C605 C 0.43741 0.10001 0.22141
 C606 C 0.41456 0.09574 0.25923
 C607 C 0.40245 0.08351 0.19721
 C608 C 0.41853 0.04239 0.20153
 C609 C 0.39557 0.03808 0.23929
 C610 C 0.37944 0.07901 0.23504
 H611 H 0.44212 0.04197 0.29088
 H612 H 0.48461 0.05073 0.22193
 H613 H 0.41300 0.11787 0.28304
 H614 H 0.39085 0.09565 0.16974
 H615 H 0.42020 0.02033 0.17769
 H616 H 0.34865 0.08734 0.23871
 C617 C 0.25316 0.41101 -0.07144
 C618 C 0.28521 0.44327 -0.07091
 C619 C 0.30693 0.42086 -0.10278
 C620 C 0.27501 0.38896 -0.10382
 C621 C 0.33021 0.39915 -0.07156
 C622 C 0.30835 0.42132 -0.03939
 C623 C 0.27659 0.38932 -0.04037
 C624 C 0.29820 0.36717 -0.07247
 H625 H 0.22132 0.41594 -0.07122
 H626 H 0.28001 0.47485 -0.07051
 H627 H 0.26135 0.37556 -0.13056
 H628 H 0.36190 0.39343 -0.07030
 H629 H 0.32172 0.43497 -0.01264
 H630 H 0.30353 0.33564 -0.07344
 C631 C 0.79884 0.87296 0.43153
 C632 C 0.77660 0.89584 0.40041
 C633 C 0.80843 0.92776 0.40357
 C634 C 0.83079 0.90492 0.43460
 C635 C 0.78573 0.94898 0.43552
 C636 C 0.75373 0.91670 0.43281
 C637 C 0.77619 0.89386 0.46373
 C638 C 0.80792 0.92586 0.46689
 H639 H 0.80433 0.84151 0.42936
 H640 H 0.76374 0.88336 0.37287
 H641 H 0.86244 0.89910 0.43640
 H642 H 0.78049 0.98054 0.43690
 H643 H 0.72191 0.92174 0.43212
 H644 H 0.82047 0.93842 0.49452
 C645 C 0.79007 0.10683 1.09223
 C646 C 0.76456 0.08432 1.12080
 C647 C 0.79268 0.05271 1.12003
 C648 C 0.81872 0.07314 1.09344
 C649 C 0.77174 0.03196 1.08778
 C650 C 0.74180 0.06484 1.08614
 C651 C 0.76802 0.08666 1.05746
 C652 C 0.79736 0.05340 1.05809
 H653 H 0.79862 0.13788 1.09541
 H654 H 0.75056 0.09674 1.14698
 H655 H 0.85081 0.07598 1.09791
 H656 H 0.76465 0.00048 1.08761
 H657 H 0.70966 0.06069 1.08389
 H658 H 0.81145 0.03968 1.03260
 C659 C 0.23722 0.56968 0.57908
 C660 C 0.26514 0.53498 0.57838
 C661 C 0.28814 0.55354 0.61320
 C662 C 0.26035 0.58789 0.61429
 C663 C 0.31512 0.57507 0.58524
 C664 C 0.29198 0.55692 0.55008
 C665 C 0.26425 0.59128 0.55123
 C666 C 0.28726 0.60953 0.58616
 H667 H 0.20498 0.56749 0.57616
 H668 H 0.25601 0.50406 0.57550
 H669 H 0.24675 0.60108 0.64033
 H670 H 0.34738 0.57737 0.58800
 H671 H 0.30477 0.54429 0.52332
 H672 H 0.29661 0.64035 0.58942
 C673 C 0.20677 0.61438 0.43456
 C674 C 0.23147 0.59581 0.40237
 C675 C 0.20289 0.56096 0.40050
 C676 C 0.17810 0.57948 0.43263
 C677 C 0.22742 0.54015 0.43138
 C678 C 0.25612 0.57538 0.43371
 C679 C 0.23122 0.59390 0.46569
 C680 C 0.20276 0.55898 0.46388
 H681 H 0.19810 0.64511 0.43543
 H682 H 0.24325 0.61112 0.37691
 H683 H 0.14595 0.58201 0.43351
 H684 H 0.23580 0.50933 0.42978
 H685 H 0.28839 0.57373 0.43446
 H686 H 0.19126 0.54380 0.48955
 C687 C 0.75753 0.06931 0.93864
 C688 C 0.72735 0.03539 0.93536
 C689 C 0.70422 0.05739 0.90717
 C690 C 0.73234 0.09001 0.90804
 C691 C 0.68036 0.07483 0.93794
 C692 C 0.70422 0.05368 0.96923
 C693 C 0.73366 0.08803 0.97157
 C694 C 0.70919 0.10944 0.94081
 H695 H 0.78967 0.06638 0.93795
 H696 H 0.73393 0.00425 0.93150
 H697 H 0.74314 0.10439 0.88158
 H698 H 0.64814 0.07677 0.93827
 H699 H 0.69207 0.03766 0.99407
 H700 H 0.70071 0.14022 0.94119
 C701 C 0.71899 0.93264 0.54861
 C702 C 0.69560 0.91567 0.58252
 C703 C 0.72491 0.93478 0.61192
 C704 C 0.74819 0.95213 0.57836
 C705 C 0.74999 0.89840 0.61118
 C706 C 0.72075 0.87919 0.58159
 C707 C 0.74401 0.89626 0.54790
 C708 C 0.77338 0.91542 0.57720
 H709 H 0.70644 0.94670 0.52258
 H710 H 0.66338 0.91572 0.58491
 H711 H 0.75955 0.98236 0.57736
 H712 H 0.76328 0.88383 0.63652
 H713 H 0.70920 0.84907 0.58297
 H714 H 0.80557 0.91540 0.57477
 C715 C 0.27577 0.41877 0.07167
 C716 C 0.24872 0.45419 0.07101
 C717 C 0.22713 0.43812 0.10628
 C718 C 0.25407 0.40309 0.10738
 C719 C 0.19819 0.41572 0.07889
 C720 C 0.21987 0.43141 0.04331
 C721 C 0.24671 0.39635 0.04444
 C722 C 0.22516 0.38063 0.07986
 H723 H 0.30788 0.41992 0.06834
 H724 H 0.25848 0.48472 0.06767
 H725 H 0.26872 0.39088 0.13333
 H726 H 0.16604 0.41436 0.08199
 H727 H 0.20603 0.44319 0.01671
 H728 H 0.21518 0.35031 0.08389
 C729 C -0.05423 0.25936 0.43068
 C730 C -0.05843 0.30035 0.44916
 C731 C -0.09976 0.30220 0.43105
 C732 C -0.09599 0.26141 0.41295
 C733 C -0.08339 0.32043 0.39414
 C734 C -0.04179 0.31840 0.41195
 C735 C -0.03794 0.27766 0.39373
 C736 C -0.07935 0.27960 0.37587
 H737 H -0.04175 0.23422 0.44573
 H738 H -0.04949 0.30866 0.47949
 H739 H -0.11848 0.23791 0.41344
 H740 H -0.09557 0.34570 0.37907
 H741 H -0.01952 0.34208 0.41177
 H742 H -0.08804 0.27116 0.34550
 C743 C 0.45835 0.80104 0.91769
 C744 C 0.42766 0.82466 0.89552
 C745 C 0.39505 0.80193 0.91584
 C746 C 0.42546 0.77844 0.93821
 C747 C 0.39361 0.77141 0.88254
 C748 C 0.42637 0.79405 0.86214
 C749 C 0.45706 0.77070 0.88426
 C750 C 0.42458 0.74779 0.90456
 H751 H 0.48513 0.81287 0.93262
 H752 H 0.43036 0.85623 0.89092
 H753 H 0.42484 0.77216 0.96978
 H754 H 0.36673 0.75930 0.86802
 H755 H 0.42639 0.80043 0.83060
 H756 H 0.42330 0.71604 0.90844
 C757 C 1.08841 0.77237 0.09936
 C758 C 1.10528 0.75134 0.06350
 C759 C 1.10823 0.79031 0.04293
 C760 C 1.09154 0.81135 0.07864
 C761 C 1.06690 0.78421 0.02518
 C762 C 1.06353 0.74502 0.04619
 C763 C 1.04697 0.76615 0.08196
 C764 C 1.04996 0.80508 0.06127
 H765 H 1.09771 0.76786 0.13001
 H766 H 1.12822 0.72918 0.06440
 H767 H 1.10325 0.83878 0.09209
 H768 H 1.05788 0.78888 -0.00556
 H769 H 1.05150 0.71769 0.03283
 H770 H 1.02708 0.82726 0.06027
 C771 C 0.55244 0.28982 0.54891
 C772 C 0.58715 0.31263 0.56821
 C773 C 0.61565 0.28664 0.54618
 C774 C 0.58128 0.26397 0.52649
 C775 C 0.61642 0.25825 0.58012
 C776 C 0.58778 0.28420 0.60219
 C777 C 0.55329 0.26150 0.58284
 C778 C 0.58164 0.23543 0.56078
 H779 H 0.52581 0.30254 0.53608
 H780 H 0.58959 0.34461 0.57138
 H781 H 0.57895 0.25565 0.49510
 H782 H 0.64225 0.24463 0.59357
 H783 H 0.59052 0.29284 0.63347
 H784 H 0.57897 0.20346 0.55779
 C785 C 0.46719 0.19767 0.55033
 C786 C 0.43542 0.17407 0.57128
 C787 C 0.40376 0.19804 0.55117
 C788 C 0.43514 0.22147 0.52986
 C789 C 0.40504 0.22765 0.58526
 C790 C 0.43674 0.20375 0.60544
 C791 C 0.46837 0.22715 0.58452
 C792 C 0.43688 0.25121 0.56436
 H793 H 0.49312 0.18566 0.53590
 H794 H 0.43618 0.14228 0.57479
 H795 H 0.43417 0.22862 0.49848
 H796 H 0.37930 0.23995 0.59978
 H797 H 0.43688 0.19620 0.63668
 H798 H 0.43778 0.28312 0.56155
 C799 C 0.93786 0.75619 0.05540
 C800 C 0.93066 0.71729 0.03273
 C801 C 0.89313 0.71067 0.05579
 C802 C 0.89983 0.74937 0.07812
 C803 C 0.91615 0.68923 0.08727
 C804 C 0.95402 0.69603 0.06456
 C805 C 0.96075 0.73468 0.08697
 C806 C 0.92302 0.72793 0.10969
 H807 H 0.94726 0.78368 0.04202
 H808 H 0.93348 0.71285 0.00079
 H809 H 0.87799 0.77185 0.08414
 H810 H 0.90707 0.66158 0.10059
 H811 H 0.97647 0.67408 0.05890
 H812 H 0.91929 0.73187 0.14152
 C813 C 0.53842 0.71224 0.92715
 C814 C 0.57527 0.69220 0.91222
 C815 C 0.60085 0.72048 0.93736
 C816 C 0.56431 0.74042 0.95264
 C817 C 0.60327 0.74877 0.90342
 C818 C 0.57751 0.72051 0.87823
 C819 C 0.54084 0.74043 0.89318
 C820 C 0.56630 0.76883 0.91830
 H821 H 0.51159 0.69748 0.93727
 H822 H 0.57907 0.66045 0.90959
 H823 H 0.55917 0.74865 0.98353
 H824 H 0.62956 0.76429 0.89301
 H825 H 0.58323 0.71206 0.84754
 H826 H 0.56231 0.80055 0.92072
 C827 C 0.06718 0.27244 0.42844
 C828 C 0.06942 0.23568 0.45344
 C829 C 0.10897 0.22649 0.43531
 C830 C 0.10724 0.26309 0.41070
 C831 C 0.08839 0.20251 0.40242
 C832 C 0.04861 0.21180 0.42026
 C833 C 0.04672 0.24831 0.39554
 C834 C 0.08638 0.23912 0.37766
 H835 H 0.05795 0.30125 0.43924
 H836 H 0.06245 0.23449 0.48485
 H837 H 0.13150 0.28430 0.40685
 H838 H 0.09726 0.17356 0.39164
 H839 H 0.02450 0.19055 0.42444
 H840 H 0.09349 0.24044 0.34631
 C841 C 0.53411 0.16420 0.62552
 C842 C 0.57456 0.16179 0.64559
 C843 C 0.55513 0.14414 0.68132
 C844 C 0.51470 0.14632 0.66136
 C845 C 0.55057 0.18470 0.69983
 C846 C 0.56980 0.20263 0.66379
 C847 C 0.52943 0.20486 0.64377
 C848 C 0.50995 0.18732 0.67953
 H849 H 0.52751 0.15561 0.59472
 H850 H 0.60125 0.15109 0.63150
 H851 H 0.49152 0.12346 0.65995
 H852 H 0.55742 0.19288 0.73070
 H853 H 0.59253 0.22592 0.66490
 H854 H 0.48342 0.19837 0.69363
 C855 C 1.05632 0.70819 0.17323
 C856 C 1.03160 0.68003 0.19765
 C857 C 1.04964 0.64561 0.17585
 C858 C 1.07453 0.67342 0.15173
 C859 C 1.01669 0.64569 0.14476
 C860 C 0.99850 0.68056 0.16624
 C861 C 1.02346 0.70829 0.14211
 C862 C 1.04153 0.67371 0.12058
 H863 H 1.07231 0.73410 0.18531
 H864 H 1.02754 0.68230 0.22962
 H865 H 1.10598 0.67034 0.14561
 H866 H 0.99991 0.62035 0.13249
 H867 H 0.96707 0.68379 0.17231
 H868 H 1.04585 0.67099 0.08869
 C869 C 0.96642 0.79290 0.18017
 C870 C 0.99423 0.82173 0.20264
 C871 C 0.97242 0.85559 0.18447
 C872 C 0.94453 0.82706 0.16230
 C873 C 1.00028 0.85586 0.14987
 C874 C 1.02222 0.82149 0.16764
 C875 C 0.99416 0.79307 0.14551
 C876 C 0.97241 0.82714 0.12764
 H877 H 0.95287 0.76688 0.19308
 H878 H 1.00322 0.81984 0.23378
 H879 H 0.91235 0.82944 0.15990
 H880 H 1.01455 0.88149 0.13691
 H881 H 1.05436 0.81878 0.16977
 H882 H 0.96313 0.82964 0.09667
 C883 C 0.45644 0.28915 0.66391
 C884 C 0.47674 0.31022 0.69920
 C885 C 0.46892 0.34924 0.68011
 C886 C 0.44851 0.32840 0.64504
 C887 C 0.50833 0.34798 0.65950
 C888 C 0.51634 0.30843 0.67822
 C889 C 0.49574 0.28770 0.64318
 C890 C 0.48792 0.32684 0.62431
 H891 H 0.43498 0.26490 0.66597
 H892 H 0.47205 0.30365 0.73030
 H893 H 0.42048 0.33674 0.63121
 H894 H 0.52998 0.37208 0.65741
 H895 H 0.54432 0.29966 0.69183
 H896 H 0.49238 0.33377 0.59328
 C897 C 0.47286 0.67212 0.85323
 C898 C 0.43713 0.66671 0.82566
 C899 C 0.46144 0.64081 0.79886
 C900 C 0.49714 0.64619 0.82632
 C901 C 0.47423 0.67621 0.77539
 C902 C 0.45010 0.70248 0.80266
 C903 C 0.48576 0.70777 0.83028
 C904 C 0.51014 0.68207 0.80331
 H905 H 0.47201 0.66978 0.88537
 H906 H 0.40691 0.66032 0.83498
 H907 H 0.51652 0.62284 0.83613
 H908 H 0.47480 0.67783 0.74315
 H909 H 0.43085 0.72604 0.79311
 H910 H 0.54023 0.68876 0.79385
 C911 C 0.01459 0.18621 0.31711
 C912 C -0.00609 0.15364 0.33954
 C913 C -0.03625 0.14876 0.30600
 C914 C -0.01572 0.18088 0.28315
 C915 C -0.06268 0.17864 0.32545
 C916 C -0.03250 0.18357 0.35910
 C917 C -0.01190 0.21596 0.33675
 C918 C -0.04199 0.21123 0.30306
 H919 H 0.04655 0.18956 0.31365
 H920 H 0.00875 0.12980 0.35463
 H921 H -0.00876 0.17967 0.25170
 H922 H -0.09468 0.17539 0.32893
 H923 H -0.03987 0.18432 0.39043
 H924 H -0.05653 0.23532 0.28809
 C925 C 0.03845 0.33781 0.35074
 C926 C 0.06879 0.33739 0.31824
 C927 C 0.04184 0.36261 0.29349
 C928 C 0.01153 0.36314 0.32597
 C929 C 0.02228 0.32618 0.27464
 C930 C 0.04907 0.30063 0.29979
 C931 C 0.01882 0.30127 0.33227
 C932 C -0.00821 0.32632 0.30750
 H933 H 0.04559 0.34282 0.38213
 H934 H 0.10067 0.34210 0.32280
 H935 H -0.00450 0.38836 0.33744
 H936 H 0.01563 0.32174 0.24306
 H937 H 0.06430 0.27461 0.28904
 H938 H -0.04007 0.32131 0.30324
 C939 C 0.50090 0.81019 0.79104
 C940 C 0.50498 0.85117 0.80996
 C941 C 0.54592 0.85546 0.79298
 C942 C 0.54214 0.81491 0.77361
 C943 C 0.56428 0.83820 0.82977
 C944 C 0.52334 0.83385 0.84687
 C945 C 0.51929 0.79311 0.82797
 C946 C 0.56024 0.79735 0.81084
 H947 H 0.47478 0.79817 0.77507
 H948 H 0.48216 0.87346 0.80963
 H949 H 0.54981 0.80712 0.74321
 H950 H 0.59049 0.84988 0.84585
 H951 H 0.51612 0.84245 0.87713
 H952 H 0.58306 0.77508 0.81113
 C953 C 0.66692 0.49644 0.17911
 C954 C 0.64630 0.51556 0.14425
 C955 C 0.67712 0.54588 0.14432
 C956 C 0.69889 0.52852 0.17670
 C957 C 0.65566 0.57156 0.17067
 C958 C 0.62281 0.54067 0.17267
 C959 C 0.64414 0.52236 0.20755
 C960 C 0.67656 0.55390 0.20611
 H961 H 0.67226 0.46506 0.18184
 H962 H 0.63383 0.49941 0.11851
 H963 H 0.73085 0.52402 0.17668
 H964 H 0.65156 0.60288 0.16579
 H965 H 0.59121 0.54645 0.16971
 H966 H 0.69015 0.57027 0.23119
 C967 C 0.17808 1.00847 0.68575
 C968 C 0.15848 1.01300 0.64511
 C969 C 0.17889 1.05280 0.64180
 C970 C 0.19881 1.04843 0.68199
 C971 C 0.14417 1.07280 0.66078
 C972 C 0.12364 1.03298 0.66434
 C973 C 0.14332 1.02850 0.70462
 C974 C 0.16378 1.06824 0.70128
 H975 H 0.19219 0.98207 0.69660
 H976 H 0.15592 0.98976 0.62234
 H977 H 0.23003 1.05487 0.68895
 H978 H 0.13012 1.09938 0.65029
 H979 H 0.09246 1.02667 0.65707
 H980 H 0.16602 1.09096 0.72459
 C981 C 0.12785 0.98926 0.82863
 C982 C 0.14852 0.95024 0.83012
 C983 C 0.18303 0.96977 0.84819
 C984 C 0.16456 1.00785 0.84858
 C985 C 0.20129 0.97620 0.81037
 C986 C 0.16546 0.95684 0.78949
 C987 C 0.14547 0.99640 0.78824
 C988 C 0.18171 1.01608 0.80811
 H989 H 0.09741 0.99420 0.83754
 H990 H 0.13547 0.92273 0.84045
 H991 H 0.16442 1.02883 0.87350
 H992 H 0.23234 0.97025 0.80447
 H993 H 0.16683 0.93475 0.76566
 H994 H 0.19642 1.04337 0.79947
 C995 C 0.68435 0.46965 0.29318
 C996 C 0.70570 0.49796 0.32243
 C997 C 0.68836 0.47537 0.35642
 C998 C 0.66739 0.44700 0.32748
 C999 C 0.65259 0.50151 0.35685
 C1000 C 0.66953 0.52420 0.32239
 C1001 C 0.64855 0.49568 0.29360
 C1002 C 0.63155 0.47316 0.32776
 H1003 H 0.69743 0.45679 0.26668
 H1004 H 0.73646 0.50820 0.32058
 H1005 H 0.66640 0.41502 0.32970
 H1006 H 0.63908 0.51514 0.38271
 H1007 H 0.67031 0.55615 0.31989
 H1008 H 0.60092 0.46271 0.33019
 C1009 C 0.86163 0.47885 0.67556
 C1010 C 0.83633 0.44179 0.66912
 C1011 C 0.80671 0.46524 0.64571
 C1012 C 0.83188 0.50226 0.65191
 C1013 C 0.78410 0.47427 0.68305
 C1014 C 0.81407 0.45100 0.70682
 C1015 C 0.83929 0.48797 0.71301
 C1016 C 0.80959 0.51145 0.68971
 H1017 H 0.89373 0.48053 0.67237
 H1018 H 0.84739 0.41299 0.66040
 H1019 H 0.83928 0.52369 0.62946
 H1020 H 0.75195 0.47246 0.68592
 H1021 H 0.80688 0.43000 0.72974
 H1022 H 0.79826 0.54006 0.69864
 C1023 C 0.35668 -0.03978 0.17267
 C1024 C 0.32220 -0.06889 0.16826
 C1025 C 0.30319 -0.04239 0.13820
 C1026 C 0.33757 -0.01331 0.14254
 C1027 C 0.28122 -0.02114 0.17073
 C1028 C 0.30066 -0.04752 0.20122
 C1029 C 0.33516 -0.01853 0.20543
 C1030 C 0.31603 0.00807 0.17553
 H1031 H 0.38786 -0.04769 0.17322
 H1032 H 0.32477 -0.10075 0.16516
 H1033 H 0.35281 0.00079 0.11821
 H1034 H 0.24999 -0.01341 0.16984
 H1035 H 0.28555 -0.06136 0.22576
 H1036 H 0.31369 0.03992 0.17896
 C1037 C 0.35024 0.03155 0.32779
 C1038 C 0.31776 0.06167 0.32764
 C1039 C 0.29349 0.03533 0.35390
 C1040 C 0.32594 0.00522 0.35413
 C1041 C 0.27396 0.01542 0.31780
 C1042 C 0.29866 0.04160 0.29119
 C1043 C 0.33111 0.01158 0.29155
 C1044 C 0.30678 -0.01484 0.31764
 H1045 H 0.38171 0.03863 0.33218
 H1046 H 0.32242 0.09335 0.33192
 H1047 H 0.33785 -0.01049 0.37942
 H1048 H 0.24231 0.00879 0.31404
 H1049 H 0.28746 0.05632 0.26495
 H1050 H 0.30232 -0.04651 0.31311
 C1051 C 0.81322 0.55904 0.80078
 C1052 C 0.77622 0.53905 0.81678
 C1053 C 0.79297 0.54473 0.85849
 C1054 C 0.82962 0.56491 0.84275
 C1055 C 0.81274 0.50525 0.85608
 C1056 C 0.79639 0.49934 0.81390
 C1057 C 0.83309 0.51962 0.79831
 C1058 C 0.84949 0.52544 0.84016
 H1059 H 0.81325 0.58128 0.77797
 H1060 H 0.74575 0.54470 0.80745
 H1061 H 0.84348 0.59201 0.85480
 H1062 H 0.81290 0.48262 0.87850
 H1063 H 0.78258 0.47241 0.80145
 H1064 H 0.87977 0.52021 0.85029
 C1065 C 0.20345 0.66966 0.56845
 C1066 C 0.18574 0.70609 0.55025
 C1067 C 0.14480 0.68732 0.55298
 C1068 C 0.16223 0.65123 0.57138
 C1069 C 0.14824 0.66912 0.51192
 C1070 C 0.18960 0.68751 0.50898
 C1071 C 0.20692 0.65135 0.52744
 C1072 C 0.16589 0.63287 0.53030
 H1073 H 0.22634 0.66995 0.59175
 H1074 H 0.19391 0.73647 0.55832
 H1075 H 0.15077 0.63625 0.59719
 H1076 H 0.12543 0.66893 0.48853
 H1077 H 0.20139 0.70244 0.48330
 H1078 H 0.15756 0.60254 0.52223
 C1079 C 0.70674 0.16513 1.07358
 C1080 C 0.68962 0.20156 1.05478
 C1081 C 0.64844 0.18329 1.05728
 C1082 C 0.66527 0.14721 1.07630
 C1083 C 0.65211 0.16456 1.01651
 C1084 C 0.69369 0.18245 1.01378
 C1085 C 0.71040 0.14630 1.03282
 C1086 C 0.66914 0.12833 1.03549
 H1087 H 0.72931 0.16549 1.09718
 H1088 H 0.69831 0.23187 1.06255
 H1089 H 0.65339 0.13266 1.10218
 H1090 H 0.62945 0.16435 0.99297
 H1091 H 0.70590 0.19701 0.98808
 H1092 H 0.66055 0.09799 1.02774
 C1093 C 0.79527 0.16745 0.96066
 C1094 C 0.81706 0.20200 0.98110
 C1095 C 0.85442 0.18335 0.97358
 C1096 C 0.83547 0.15006 0.95297
 C1097 C 0.85469 0.16379 1.01130
 C1098 C 0.81470 0.18137 1.02062
 C1099 C 0.79389 0.14642 0.99986
 C1100 C 0.83379 0.12833 0.99160
 H1101 H 0.77133 0.16995 0.93872
 H1102 H 0.81176 0.23312 0.97621
 H1103 H 0.84532 0.13778 0.92472
 H1104 H 0.87975 0.16246 1.03211
 H1105 H 0.80661 0.19532 1.04867
 H1106 H 0.84198 0.09774 0.99544
 C1107 C 0.31081 0.68710 0.51719
 C1108 C 0.35118 0.66945 0.50937
 C1109 C 0.35283 0.69101 0.47066
 C1110 C 0.31293 0.70905 0.47831
 C1111 C 0.33289 0.65644 0.44887
 C1112 C 0.33096 0.63472 0.48759
 C1113 C 0.29099 0.65253 0.49524
 C1114 C 0.29277 0.67420 0.45664
 H1115 H 0.30120 0.69963 0.54537
 H1116 H 0.37543 0.66758 0.53109
 H1117 H 0.30531 0.73983 0.47478
 H1118 H 0.34213 0.64378 0.42060
 H1119 H 0.33834 0.60392 0.49137
 H1120 H 0.26859 0.67624 0.43488
 C1121 C 0.67504 0.86434 0.47470
 C1122 C 0.67183 0.84224 0.43525
 C1123 C 0.64503 0.81191 0.45404
 C1124 C 0.64808 0.83398 0.49344
 C1125 C 0.68050 0.78761 0.46520
 C1126 C 0.70756 0.81816 0.44652
 C1127 C 0.71070 0.84035 0.48579
 C1128 C 0.68410 0.81005 0.50478
 H1129 H 0.67250 0.89610 0.47879
 H1130 H 0.66808 0.85659 0.40686
 H1131 H 0.62335 0.84060 0.51270
 H1132 H 0.68248 0.75580 0.46107
 H1133 H 0.73230 0.81154 0.42728
 H1134 H 0.68960 0.79675 0.53346
 C1135 C 0.17622 0.35842 -0.02278
 C1136 C 0.17022 0.33280 -0.05980
 C1137 C 0.14553 0.30434 -0.03621
 C1138 C 0.15144 0.32985 0.00076
 C1139 C 0.18211 0.28126 -0.02590
 C1140 C 0.20716 0.31014 -0.04929
 C1141 C 0.21299 0.33576 -0.01235
 C1142 C 0.18849 0.30716 0.01128
 H1143 H 0.17343 0.39031 -0.02165
 H1144 H 0.16261 0.34344 -0.08922
 H1145 H 0.12832 0.33799 0.02140
 H1146 H 0.18456 0.24931 -0.02717
 H1147 H 0.23045 0.30218 -0.06980
 H1148 H 0.19642 0.29631 0.04052
 C1149 C 0.30190 0.31294 0.06023
 C1150 C 0.31754 0.27561 0.04089
 C1151 C 0.35933 0.29257 0.04501
 C1152 C 0.34394 0.32951 0.06456
 C1153 C 0.35586 0.31076 0.00465
 C1154 C 0.31365 0.29423 0.00027
 C1155 C 0.29843 0.33126 0.01989
 C1156 C 0.34033 0.34784 0.02419
 H1157 H 0.27956 0.31382 0.08317
 H1158 H 0.30806 0.24566 0.04760
 H1159 H 0.35659 0.34412 0.09117
 H1160 H 0.37822 0.30983 -0.01828
 H1161 H 0.30067 0.27973 -0.02623
 H1162 H 0.35021 0.37769 0.01770
 C1163 C 0.79641 0.81050 0.55960
 C1164 C 0.81322 0.77472 0.53835
 C1165 C 0.85469 0.79146 0.54574
 C1166 C 0.83812 0.82685 0.56718
 C1167 C 0.85316 0.81268 0.50682
 C1168 C 0.81123 0.79635 0.49919
 C1169 C 0.79486 0.83180 0.52074
 C1170 C 0.83646 0.84815 0.52826
 H1171 H 0.77290 0.80959 0.58134
 H1172 H 0.80396 0.74418 0.54254
 H1173 H 0.84936 0.83959 0.59528
 H1174 H 0.87614 0.81391 0.48455
 H1175 H 0.79959 0.78369 0.47124
 H1176 H 0.84651 0.87848 0.52441
   
