data_POSCAR
  _audit_creation_date              2014-09-24
  _audit_creation_method            'ToBaCCo'
  _symmetry_space_group_name_H-M    'P1'
  _symmetry_Int_Tables_number       1
  _symmetry_cell_setting            triclinic
  loop_
  _symmetry_equiv_pos_as_xyz
 x,y,z
_cell_length_a 24.2066
_cell_length_b 34.3898
_cell_length_c 25.0934
_cell_angle_alpha 90.105900
_cell_angle_beta 90.000100
_cell_angle_gamma 90.110400
loop_
  _atom_site_label
  _atom_site_type_symbol
  _atom_site_fract_x
  _atom_site_fract_y
  _atom_site_fract_z
O1 O 0.31962 0.21168 0.25631
 O2 O 0.24538 0.28716 0.18121
 O3 O 0.31936 0.28736 0.25651
 O4 O 0.24548 0.21144 0.18112
 O5 O 0.17946 0.21130 0.24157
 O6 O 0.25329 0.28719 0.31702
 O7 O 0.17931 0.28701 0.24173
 O8 O 0.25354 0.21150 0.31681
 Cu9 Cu 0.28906 0.24942 0.21272
 Cu10 Cu 0.20978 0.24923 0.28533
 C11 C 0.29933 0.19867 0.29945
 C12 C 0.19963 0.30005 0.19862
 C13 C 0.29898 0.30029 0.29970
 C14 C 0.19973 0.19828 0.19835
 O15 O 0.75369 0.21138 0.18256
 O16 O 0.67945 0.28702 0.25778
 O17 O 0.75343 0.28709 0.18249
 O18 O 0.67961 0.21132 0.25780
 O19 O 0.74563 0.21156 0.31825
 O20 O 0.81950 0.28736 0.24301
 O21 O 0.74553 0.28728 0.31830
 O22 O 0.81977 0.21166 0.24306
 Cu23 Cu 0.70993 0.24917 0.21410
 Cu24 Cu 0.78922 0.24948 0.28672
 C25 C 0.79947 0.19857 0.19991
 C26 C 0.69978 0.30012 0.30092
 C27 C 0.79912 0.30022 0.19985
 C28 C 0.69988 0.19838 0.30101
 O29 O 0.74677 0.78846 0.68267
 O30 O 0.82035 0.71271 0.75788
 O31 O 0.74638 0.71275 0.68259
 O32 O 0.82084 0.78840 0.75792
 O33 O 0.75483 0.78859 0.81836
 O34 O 0.68031 0.71291 0.74311
 O35 O 0.75428 0.71288 0.81840
 O36 O 0.68069 0.78861 0.74317
 Cu37 Cu 0.79020 0.75057 0.71421
 Cu38 Cu 0.71091 0.75077 0.78682
 C39 C 0.70110 0.80151 0.70002
 C40 C 0.79993 0.69981 0.80103
 C41 C 0.70058 0.69985 0.69995
 C42 C 0.80070 0.80153 0.80113
 O43 O 0.24570 0.71288 0.81842
 O44 O 0.31987 0.78854 0.74320
 O45 O 0.24573 0.78860 0.81839
 O46 O 0.31968 0.71284 0.74313
 O47 O 0.25361 0.71275 0.68261
 O48 O 0.17971 0.78847 0.75794
 O49 O 0.25379 0.78845 0.68270
 O50 O 0.17964 0.71277 0.75790
 Cu51 Cu 0.28936 0.75073 0.78685
 Cu52 Cu 0.21007 0.75061 0.71424
 C53 C 0.19997 0.69984 0.80104
 C54 C 0.29957 0.80145 0.70005
 C55 C 0.19997 0.80159 0.80115
 C56 C 0.29932 0.69981 0.69996
 C57 C 1.02989 0.02818 0.02844
 C58 C 0.97169 0.02807 0.02848
 C59 C 0.94295 -0.00049 -0.00023
 C60 C 0.97170 -0.02896 -0.02896
 C61 C 1.02990 -0.02886 -0.02898
 C62 C 1.05864 -0.00029 -0.00028
 H63 H 1.10346 -0.00021 -0.00030
 H64 H 0.89813 -0.00057 -0.00021
 C65 C 0.52858 0.52858 0.52890
 C66 C 0.47038 0.52860 0.52880
 C67 C 0.44158 0.50008 0.50006
 C68 C 0.47028 0.47154 0.47144
 C69 C 0.52848 0.47150 0.47157
 C70 C 0.55728 0.50002 0.50029
 H71 H 0.60209 0.50000 0.50037
 H72 H 0.39677 0.50011 0.49998
 C73 C -0.02972 0.47142 0.02876
 C74 C 0.02848 0.47139 0.02863
 C75 C 0.05728 0.49991 0.00006
 C76 C 0.02858 0.52847 -0.02840
 C77 C -0.02962 0.52849 -0.02830
 C78 C -0.05842 0.49997 0.00029
 H79 H -0.10324 0.50000 0.00037
 H80 H 0.10210 0.49989 -0.00002
 C81 C 0.47170 0.97194 0.52851
 C82 C 0.52990 0.97204 0.52853
 C83 C 0.55864 1.00049 0.49977
 C84 C 0.52989 1.02885 0.47099
 C85 C 0.47169 1.02874 0.47095
 C86 C 0.44295 1.00029 0.49972
 H87 H 0.39814 1.00021 0.49970
 H88 H 0.60346 1.00057 0.49979
 C89 C 1.11478 0.11120 0.11179
 C90 C 1.09263 0.12560 0.15935
 C91 C 1.12065 0.15439 0.18805
 C92 C 1.17149 0.16929 0.16956
 C93 C 1.19334 0.15446 0.12153
 C94 C 1.16514 0.12567 0.09296
 C95 C 1.08559 0.08176 0.08222
 C96 C 1.06062 0.05725 0.05762
 H97 H 1.05365 0.11458 0.17426
 H98 H 1.10232 0.16492 0.22471
 H99 H 1.23224 0.16504 0.10584
 H100 H 1.18262 0.11472 0.05613
 C101 C 0.61375 0.61150 0.61217
 C102 C 0.59160 0.62608 0.65966
 C103 C 0.61981 0.65483 0.68827
 C104 C 0.67065 0.66939 0.66969
 C105 C 0.69258 0.65451 0.62189
 C106 C 0.66426 0.62576 0.59335
 C107 C 0.58442 0.58209 0.58266
 C108 C 0.55938 0.55761 0.55808
 H109 H 0.55252 0.61523 0.67458
 H110 H 0.60178 0.66565 0.72489
 H111 H 0.73160 0.66507 0.60650
 H112 H 0.68174 0.61469 0.55659
 C113 C -0.11464 0.38859 0.11200
 C114 C -0.16501 0.37404 0.09313
 C115 C -0.19314 0.34529 0.12170
 C116 C -0.17117 0.33070 0.16958
 C117 C -0.12049 0.34555 0.18821
 C118 C -0.09247 0.37430 0.15957
 C119 C -0.08547 0.41797 0.08245
 C120 C -0.06050 0.44242 0.05788
 H121 H -0.18250 0.38488 0.05630
 H122 H -0.23204 0.33449 0.10626
 H123 H -0.10245 0.33496 0.22489
 H124 H -0.05352 0.38538 0.17453
 C125 C 0.38649 0.88941 0.61205
 C126 C 0.33591 0.87514 0.59331
 C127 C 0.30754 0.84654 0.62194
 C128 C 0.32948 0.83182 0.66975
 C129 C 0.38037 0.84639 0.68826
 C130 C 0.40863 0.87499 0.65956
 C131 C 0.41587 0.91865 0.58244
 C132 C 0.44094 0.94301 0.55779
 H133 H 0.31843 0.88609 0.55654
 H134 H 0.26848 0.83596 0.60659
 H135 H 0.39841 0.83568 0.72488
 H136 H 0.44776 0.88584 0.67442
 C137 C -0.11420 0.61141 -0.11127
 C138 C -0.16451 0.62590 -0.09238
 C139 C -0.19252 0.65466 -0.12089
 C140 C -0.17049 0.66932 -0.16874
 C141 C -0.11986 0.65454 -0.18739
 C142 C -0.09196 0.62577 -0.15881
 C143 C -0.08517 0.58200 -0.08180
 C144 C -0.06029 0.55753 -0.05731
 H145 H -0.18206 0.61500 -0.05559
 H146 H -0.23138 0.66542 -0.10544
 H147 H -0.10176 0.66518 -0.22405
 H148 H -0.05305 0.61474 -0.17379
 C149 C 0.38638 1.11098 0.38739
 C150 C 0.33574 1.12502 0.40610
 C151 C 0.30732 1.15353 0.37748
 C152 C 0.32928 1.16838 0.32972
 C153 C 0.38024 1.15404 0.31125
 C154 C 0.40855 1.12553 0.33993
 C155 C 0.41581 1.08184 0.41699
 C156 C 0.44091 1.05756 0.44166
 H157 H 0.31824 1.11396 0.44282
 H158 H 0.26822 1.16394 0.39279
 H159 H 0.39829 1.16486 0.27466
 H160 H 0.44772 1.11486 0.32511
 C161 C 1.11489 -0.11160 -0.11235
 C162 C 1.16529 -0.12586 -0.09353
 C163 C 1.19353 -0.15456 -0.12209
 C164 C 1.17169 -0.16950 -0.17009
 C165 C 1.12081 -0.15480 -0.18857
 C166 C 1.09274 -0.12611 -0.15988
 C167 C 1.08564 -0.08226 -0.08279
 C168 C 1.06065 -0.05783 -0.05818
 H169 H 1.18276 -0.11483 -0.05672
 H170 H 1.23246 -0.16499 -0.10640
 H171 H 1.10248 -0.16542 -0.22521
 H172 H 1.05372 -0.11524 -0.17479
 C173 C 0.61331 0.38849 0.38855
 C174 C 0.59108 0.37384 0.34111
 C175 C 0.61917 0.34507 0.31255
 C176 C 0.66996 0.33058 0.33114
 C177 C 0.69197 0.34553 0.37891
 C178 C 0.66377 0.37429 0.40740
 C179 C 0.58412 0.41793 0.41799
 C180 C 0.55917 0.44243 0.44249
 H181 H 0.55205 0.38464 0.32618
 H182 H 0.60109 0.33420 0.27596
 H183 H 0.73095 0.33501 0.39431
 H184 H 0.68131 0.38542 0.44412
 C185 C 0.88645 -0.11179 -0.11233
 C186 C 0.90849 -0.12631 -0.15985
 C187 C 0.88021 -0.15497 -0.18856
 C188 C 0.82920 -0.16961 -0.17009
 C189 C 0.80747 -0.15466 -0.12209
 C190 C 0.83593 -0.12600 -0.09352
 C191 C 0.91586 -0.08245 -0.08277
 C192 C 0.94094 -0.05800 -0.05817
 H193 H 0.94759 -0.11548 -0.17475
 H194 H 0.89845 -0.16560 -0.22520
 H195 H 0.76845 -0.16504 -0.10641
 H196 H 0.81853 -0.11495 -0.05671
 C197 C 0.38530 0.38870 0.38783
 C198 C 0.40747 0.37435 0.34022
 C199 C 0.37942 0.34559 0.31149
 C200 C 0.32870 0.33080 0.33005
 C201 C 0.30673 0.34547 0.37796
 C202 C 0.33490 0.37422 0.40663
 C203 C 0.41451 0.41808 0.41749
 C204 C 0.43950 0.44253 0.44217
 H205 H 0.44645 0.38537 0.32532
 H206 H 0.39746 0.33494 0.27478
 H207 H 0.26781 0.33472 0.39335
 H208 H 0.31740 0.38512 0.44348
 C209 C 0.11356 0.61142 -0.11138
 C210 C 0.09139 0.62583 -0.15888
 C211 C 0.11946 0.65461 -0.18742
 C212 C 0.17018 0.66936 -0.16876
 C213 C 0.19213 0.65466 -0.12094
 C214 C 0.16395 0.62588 -0.09246
 C215 C 0.08435 0.58199 -0.08194
 C216 C 0.05937 0.55751 -0.05745
 H217 H 0.05241 0.61482 -0.17387
 H218 H 0.10143 0.66528 -0.22406
 H219 H 0.23106 0.66538 -0.10548
 H220 H 0.18144 0.61495 -0.05569
 C221 C 0.61484 1.11156 0.38753
 C222 C 0.59270 1.12585 0.33999
 C223 C 0.62076 1.15455 0.31128
 C224 C 0.67162 1.16946 0.32977
 C225 C 0.69347 1.15473 0.37779
 C226 C 0.66523 1.12604 0.40636
 C227 C 0.58561 1.08223 0.41712
 C228 C 0.56062 1.05781 0.44175
 H229 H 0.55370 1.11482 0.32508
 H230 H 0.60243 1.16500 0.27463
 H231 H 0.73238 1.16533 0.39348
 H232 H 0.68270 1.11517 0.44318
 C233 C 0.11325 0.38838 0.11128
 C234 C 0.16368 0.37411 0.09236
 C235 C 0.19184 0.34535 0.12075
 C236 C 0.16984 0.33048 0.16848
 C237 C 0.11907 0.34503 0.18714
 C238 C 0.09102 0.37378 0.15869
 C239 C 0.08409 0.41781 0.08196
 C240 C 0.05917 0.44232 0.05757
 H241 H 0.18122 0.38519 0.05567
 H242 H 0.23080 0.33479 0.10530
 H243 H 0.10100 0.33421 0.22371
 H244 H 0.05201 0.38464 0.17367
 C245 C 0.61485 0.88959 0.61208
 C246 C 0.66531 0.87527 0.59331
 C247 C 0.69346 0.84663 0.62192
 C248 C 0.67142 0.83193 0.66975
 C249 C 0.62066 0.84657 0.68828
 C250 C 0.59262 0.87521 0.65960
 C251 C 0.58564 0.91884 0.58246
 C252 C 0.56065 0.94318 0.55780
 H253 H 0.68285 0.88619 0.55653
 H254 H 0.73242 0.83599 0.60656
 H255 H 0.60256 0.83589 0.72492
 H256 H 0.55359 0.88611 0.67447
 C257 C 0.88644 0.11062 0.11193
 C258 C 0.90861 0.12527 0.15941
 C259 C 0.88033 0.15387 0.18810
 C260 C 0.82941 0.16821 0.16961
 C261 C 0.80745 0.15326 0.12183
 C262 C 0.83584 0.12466 0.09321
 C263 C 0.91583 0.08137 0.08235
 C264 C 0.94091 0.05700 0.05772
 H265 H 0.94775 0.11459 0.17426
 H266 H 0.89838 0.16475 0.22471
 H267 H 0.76838 0.16367 0.10650
 H268 H 0.81834 0.11353 0.05646
 C269 C 0.38561 0.61149 0.61207
 C270 C 0.33518 0.62578 0.59327
 C271 C 0.30703 0.65451 0.62185
 C272 C 0.32905 0.66935 0.66968
 C273 C 0.37980 0.65476 0.68824
 C274 C 0.40783 0.62603 0.65959
 C275 C 0.41476 0.58210 0.58253
 C276 C 0.43969 0.55763 0.55794
 H277 H 0.31763 0.61474 0.55649
 H278 H 0.26808 0.66511 0.60647
 H279 H 0.39788 0.66555 0.72488
 H280 H 0.44684 0.61515 0.67449
   
