data_POSCAR
  _audit_creation_date              2014-09-24
  _audit_creation_method            'ToBaCCo'
  _symmetry_space_group_name_H-M    'P1'
  _symmetry_Int_Tables_number       1
  _symmetry_cell_setting            triclinic
  loop_
  _symmetry_equiv_pos_as_xyz
 x,y,z
_cell_length_a 42.6895
_cell_length_b 42.1939
_cell_length_c 45.7118
_cell_angle_alpha 90.046000
_cell_angle_beta 89.984800
_cell_angle_gamma 119.662400
loop_
  _atom_site_label
  _atom_site_type_symbol
  _atom_site_fract_x
  _atom_site_fract_y
  _atom_site_fract_z
C1 C -0.00023 0.50431 1.32924
 C2 C 0.03212 0.51617 1.31414
 C3 C 0.03215 0.51480 1.28350
 C4 C 0.00000 0.50340 1.26738
 C5 C -0.03225 0.49250 1.28319
 C6 C -0.03247 0.49201 1.31385
 C7 C 0.00009 0.50276 1.23445
 C8 C -0.03186 0.48053 1.21851
 C9 C -0.03188 0.48072 1.18787
 C10 C 0.00026 0.50149 1.17261
 C11 C 0.03231 0.52289 1.18781
 C12 C 0.03213 0.52433 1.21842
 H13 H -0.00034 0.50455 1.35300
 H14 H 0.05737 0.52242 1.27258
 H15 H -0.05741 0.48446 1.27202
 H16 H -0.05695 0.46275 1.22951
 H17 H 0.00032 0.50102 1.14888
 H18 H 0.05716 0.54254 1.22933
 C19 C 0.49514 0.49544 1.32099
 C20 C 0.47411 0.50672 1.30567
 C21 C 0.47401 0.50649 1.27501
 C22 C 0.49660 0.49688 1.25915
 C23 C 0.51844 0.48653 1.27527
 C24 C 0.51691 0.48490 1.30589
 C25 C 0.49748 0.49775 1.22619
 C26 C 0.51020 0.47772 1.21010
 C27 C 0.51200 0.47943 1.17950
 C28 C 0.49923 0.49946 1.16432
 C29 C 0.48559 0.51864 1.17965
 C30 C 0.48566 0.51866 1.21030
 H31 H 0.49465 0.49498 1.34475
 H32 H 0.45609 0.51374 1.26391
 H33 H 0.53698 0.47992 1.26441
 H34 H 0.51864 0.46044 1.22093
 H35 H 0.49988 0.50010 1.14060
 H36 H 0.47658 0.53532 1.22132
 C37 C 0.50483 1.00012 1.33752
 C38 C 0.49248 0.96751 1.32209
 C39 C 0.49288 0.96769 1.29147
 C40 C 0.50372 1.00029 1.27568
 C41 C 0.51515 1.03283 1.29178
 C42 C 0.51665 1.03286 1.32240
 C43 C 0.50295 1.00035 1.24280
 C44 C 0.52437 1.03272 1.22676
 C45 C 0.52276 1.03283 1.19618
 C46 C 0.50140 1.00047 1.18104
 C47 C 0.48081 0.96805 1.19629
 C48 C 0.48074 0.96803 1.22691
 H49 H 0.50510 0.99993 1.36126
 H50 H 0.48471 0.94216 1.28036
 H51 H 0.52274 1.05835 1.28085
 H52 H 0.54257 1.05801 1.23762
 H53 H 0.50082 1.00052 1.15730
 H54 H 0.46311 0.94268 1.23792
 C55 C 1.00064 0.49560 0.67087
 C56 C 0.96846 0.48422 0.68601
 C57 C 0.96848 0.48577 0.71661
 C58 C 1.00055 0.49680 0.73274
 C59 C 1.03269 0.50719 0.71687
 C60 C 1.03284 0.50760 0.68621
 C61 C 1.00050 0.49759 0.76570
 C62 C 1.03276 0.51854 0.78166
 C63 C 1.03273 0.51840 0.81229
 C64 C 1.00036 0.49917 0.82755
 C65 C 0.96806 0.47916 0.81234
 C66 C 0.96816 0.47746 0.78175
 H67 H 1.00059 0.49520 0.64713
 H68 H 0.94329 0.47852 0.72735
 H69 H 1.05784 0.51495 0.72794
 H70 H 1.05816 0.53530 0.77075
 H71 H 1.00031 0.49976 0.85128
 H72 H 0.94281 0.46014 0.77095
 C73 C 0.50456 0.50432 0.68027
 C74 C 0.52577 0.49328 0.69557
 C75 C 0.52596 0.49354 0.72619
 C76 C 0.50340 0.50319 0.74201
 C77 C 0.48145 0.51342 0.72599
 C78 C 0.48276 0.51478 0.69539
 C79 C 0.50268 0.50246 0.77486
 C80 C 0.49169 0.52394 0.79089
 C81 C 0.49011 0.52247 0.82148
 C82 C 0.50122 0.50102 0.83665
 C83 C 0.51305 0.48028 0.82128
 C84 C 0.51292 0.48024 0.79065
 H85 H 0.50492 0.50465 0.65654
 H86 H 0.54388 0.48630 0.73731
 H87 H 0.46302 0.52013 0.73692
 H88 H 0.48443 0.54209 0.77993
 H89 H 0.50067 0.50047 0.86038
 H90 H 0.52072 0.46262 0.77948
 C91 C 0.49463 -0.00095 0.66301
 C92 C 0.50758 0.03180 0.67838
 C93 C 0.50736 0.03169 0.70903
 C94 C 0.49598 -0.00099 0.72487
 C95 C 0.48387 -0.03369 0.70881
 C96 C 0.48233 -0.03377 0.67816
 C97 C 0.49689 -0.00096 0.75779
 C98 C 0.47468 -0.03303 0.77393
 C99 C 0.47630 -0.03308 0.80457
 C100 C 0.49867 -0.00082 0.81958
 C101 C 0.52014 0.03132 0.80420
 C102 C 0.52000 0.03116 0.77357
 H103 H 0.49427 -0.00081 0.63927
 H104 H 0.51603 0.05732 0.72015
 H105 H 0.47584 -0.05926 0.71981
 H106 H 0.45585 -0.05807 0.76304
 H107 H 0.49941 -0.00065 0.84332
 H108 H 0.53819 0.05621 0.76242
 O109 O 0.38456 0.67820 0.96586
 O110 O 0.38448 0.73932 0.97514
 C111 C 0.36143 0.74357 0.96056
 O112 O 0.32800 0.72606 0.96615
 O113 O 0.26816 0.66571 0.97626
 C114 C 0.26348 0.63803 0.96169
 O115 O 0.28099 0.62158 0.96677
 O116 O 0.34146 0.62138 0.97571
 C117 C 0.36890 0.64412 0.96120
 O118 O 0.38713 0.66843 1.02378
 O119 O 0.38381 0.72766 1.03334
 C120 C 0.36634 0.74402 1.03887
 O121 O 0.33892 0.73877 1.02415
 O122 O 0.28066 0.67681 1.03412
 C123 C 0.26423 0.64290 1.03945
 O124 O 0.26992 0.62040 1.02504
 O125 O 0.33189 0.62315 1.03384
 C126 C 0.36562 0.64036 1.03841
 Cr127 Cr 0.38302 0.70243 0.99955
 Cr128 Cr 0.30498 0.70088 1.00016
 Cr129 Cr 0.30698 0.62362 1.00032
 O130 O 0.33166 0.67560 0.99999
 O131 O 0.61594 0.32240 0.96583
 O132 O 0.61610 0.26133 0.97513
 C133 C 0.63909 0.25700 0.96053
 O134 O 0.67254 0.27449 0.96609
 O135 O 0.73239 0.33489 0.97612
 C136 C 0.73712 0.36255 0.96155
 O137 O 0.71968 0.37908 0.96665
 O138 O 0.65917 0.37925 0.97551
 C139 C 0.63168 0.35646 0.96106
 O140 O 0.61350 0.33228 1.02374
 O141 O 0.61685 0.27309 1.03332
 C142 C 0.63438 0.25680 1.03884
 O143 O 0.66180 0.26207 1.02411
 O144 O 0.72010 0.32408 1.03399
 C145 C 0.73644 0.35800 1.03933
 O146 O 0.73066 0.38043 1.02494
 O147 O 0.66870 0.37774 1.03367
 C148 C 0.63498 0.36045 1.03829
 Cr149 Cr 0.61758 0.29826 0.99952
 Cr150 Cr 0.69565 0.29984 1.00007
 Cr151 Cr 0.69363 0.37712 1.00018
 O152 O 0.66896 0.32512 0.99990
 O153 O 0.67271 0.39796 0.53304
 O154 O 0.73236 0.39727 0.52262
 C155 C 0.73696 0.37436 0.53737
 O156 O 0.71920 0.34031 0.53257
 O157 O 0.65867 0.27947 0.52386
 C158 C 0.63131 0.27485 0.53845
 O159 O 0.61580 0.29339 0.53385
 O160 O 0.61607 0.35465 0.52450
 C161 C 0.63935 0.38207 0.53889
 O162 O 0.66118 0.39931 0.47513
 O163 O 0.71921 0.39529 0.46484
 C164 C 0.73574 0.37789 0.45968
 O165 O 0.73015 0.34987 0.47428
 O166 O 0.66805 0.29062 0.46572
 C167 C 0.63430 0.27408 0.46127
 O168 O 0.61286 0.28072 0.47593
 O169 O 0.61610 0.34322 0.46630
 C170 C 0.63348 0.37705 0.46069
 Cr171 Cr 0.69531 0.39545 0.49892
 Cr172 Cr 0.69311 0.31613 0.49912
 Cr173 Cr 0.61718 0.31899 0.50011
 O174 O 0.66852 0.34349 0.49940
 O175 O 0.33806 0.59992 0.52405
 O176 O 0.27989 0.60369 0.53415
 C177 C 0.26345 0.62115 0.53947
 O178 O 0.26904 0.64927 0.52501
 O179 O 0.33101 0.70860 0.53371
 C180 C 0.36475 0.72526 0.53822
 O181 O 0.38624 0.71862 0.52365
 O182 O 0.38280 0.65604 0.53336
 C183 C 0.36547 0.62217 0.53880
 O184 O 0.32689 0.60160 0.46608
 O185 O 0.26704 0.60201 0.47634
 C186 C 0.26232 0.62497 0.46177
 O187 O 0.28003 0.65898 0.46672
 O188 O 0.34058 0.71974 0.47555
 C189 C 0.36800 0.72432 0.46106
 O190 O 0.38357 0.70587 0.46577
 O191 O 0.38343 0.64470 0.47520
 C192 C 0.36033 0.61743 0.46055
 Cr193 Cr 0.30401 0.60381 0.50014
 Cr194 Cr 0.30608 0.68308 0.50023
 Cr195 Cr 0.38205 0.68032 0.49951
 O196 O 0.33070 0.65577 0.49994
 C197 C 0.42237 0.60573 0.40771
 C198 C 0.39805 0.57426 0.39251
 C199 C 0.36123 0.55740 0.39898
 C200 C 0.34882 0.57170 0.42083
 C201 C 0.45504 0.51926 0.32099
 C202 C 0.41007 0.62006 0.42956
 C203 C 0.41135 0.55852 0.37134
 C204 C 0.42369 0.54564 0.35443
 C205 C 0.43975 0.53108 0.33577
 C206 C 0.37317 0.60303 0.43658
 H207 H 0.45096 0.61892 0.40294
 H208 H 0.34219 0.53294 0.38743
 H209 H 0.32025 0.55793 0.42563
 H210 H 0.42954 0.64423 0.44116
 C211 C 0.38332 0.80464 0.41394
 C212 C 0.41570 0.81311 0.39996
 C213 C 0.43147 0.79133 0.40469
 C214 C 0.41537 0.76168 0.42387
 C215 C 0.47782 0.93356 0.33778
 C216 C 0.36719 0.77506 0.43313
 C217 C 0.43344 0.84517 0.38193
 C218 C 0.44802 0.87263 0.36750
 C219 C 0.46451 0.90532 0.35124
 C220 C 0.38330 0.75353 0.43867
 H221 H 0.37090 0.82135 0.41045
 H222 H 0.45657 0.79768 0.39401
 H223 H 0.42852 0.74572 0.42762
 H224 H 0.34252 0.76958 0.44410
 C225 C 0.19793 0.62111 0.40270
 C226 C 0.17828 0.58361 0.39700
 C227 C 0.18694 0.55990 0.41168
 C228 C 0.21470 0.57346 0.43233
 C229 C 0.06355 0.52964 0.32946
 C230 C 0.22578 0.63478 0.42337
 C231 C 0.14806 0.56915 0.37723
 C232 C 0.12205 0.55669 0.36141
 C233 C 0.09084 0.54199 0.34376
 C234 C 0.23422 0.61104 0.43868
 H235 H 0.19135 0.63970 0.39153
 H236 H 0.17184 0.53082 0.40750
 H237 H 0.22050 0.55439 0.44361
 H238 H 0.24024 0.66382 0.42769
 C239 C 0.57667 0.38209 0.39893
 C240 C 0.59502 0.41945 0.39269
 C241 C 0.62641 0.44279 0.40812
 C242 C 0.63917 0.42894 0.42999
 C243 C 0.53577 0.47226 0.32135
 C244 C 0.58937 0.36815 0.42079
 C245 C 0.58053 0.43411 0.37164
 C246 C 0.56754 0.44638 0.35481
 C247 C 0.55110 0.46054 0.33617
 C248 C 0.62061 0.39148 0.43678
 H249 H 0.55223 0.36380 0.38721
 H250 H 0.64072 0.47179 0.40357
 H251 H 0.66335 0.44767 0.44178
 H252 H 0.57447 0.33919 0.42539
 C253 C 0.56633 0.19641 0.41420
 C254 C 0.58828 0.18525 0.40002
 C255 C 0.62557 0.20431 0.40468
 C256 C 0.64080 0.23393 0.42397
 C257 C 0.53039 0.06485 0.33748
 C258 C 0.58145 0.22597 0.43349
 C259 C 0.57228 0.15311 0.38194
 C260 C 0.55880 0.12565 0.36744
 C261 C 0.54323 0.09301 0.35107
 C262 C 0.61883 0.24477 0.43895
 H263 H 0.53742 0.18181 0.41079
 H264 H 0.64280 0.19582 0.39385
 H265 H 0.66963 0.24776 0.42766
 H266 H 0.56373 0.23359 0.44458
 C267 C 0.81163 0.38831 0.41018
 C268 C 0.82013 0.42054 0.39527
 C269 C 0.79998 0.43792 0.40041
 C270 C 0.77190 0.42355 0.42082
 C271 C 0.93591 0.47837 0.32891
 C272 C 0.78359 0.37389 0.43061
 C273 C 0.85067 0.43664 0.37584
 C274 C 0.87693 0.45012 0.36030
 C275 C 0.90842 0.46562 0.34296
 C276 C 0.76367 0.39160 0.43647
 H277 H 0.82712 0.37468 0.40642
 H278 H 0.80638 0.46293 0.38904
 H279 H 0.75713 0.43789 0.42475
 H280 H 0.77799 0.34926 0.44221
 C281 C 0.56702 0.36896 1.08628
 C282 C 0.58865 0.40247 1.10007
 C283 C 0.62583 0.42149 1.09479
 C284 C 0.64122 0.40744 1.07530
 C285 C 0.52784 0.46137 1.16357
 C286 C 0.58228 0.35489 1.06680
 C287 C 0.57230 0.41801 1.11847
 C288 C 0.55824 0.43121 1.13322
 C289 C 0.54169 0.44713 1.14984
 C290 C 0.61951 0.37418 1.06075
 H291 H 0.53821 0.35402 1.09016
 H292 H 0.64284 0.44752 1.10530
 H293 H 0.66992 0.42301 1.07114
 H294 H 0.56475 0.32918 1.05607
 C295 C 0.80105 0.36276 1.09850
 C296 C 0.82029 0.40024 1.10425
 C297 C 0.81114 0.42368 1.08967
 C298 C 0.78334 0.40986 1.06903
 C299 C 0.93497 0.46063 1.17178
 C300 C 0.77319 0.34884 1.07787
 C301 C 0.85053 0.41505 1.12400
 C302 C 0.87654 0.42835 1.13982
 C303 C 0.90773 0.44513 1.15748
 C304 C 0.76429 0.37231 1.06261
 H305 H 0.80797 0.34438 1.10961
 H306 H 0.82591 0.45275 1.09389
 H307 H 0.77721 0.42870 1.05775
 H308 H 0.75910 0.31981 1.07350
 C309 C 0.57911 0.19575 1.10149
 C310 C 0.59812 0.17746 1.10785
 C311 C 0.62936 0.18570 1.09218
 C312 C 0.64137 0.21180 1.06996
 C313 C 0.54201 0.06620 1.17992
 C314 C 0.59106 0.22190 1.07926
 C315 C 0.58440 0.14871 1.12920
 C316 C 0.57215 0.12366 1.14623
 C317 C 0.55660 0.09321 1.16501
 C318 C 0.62217 0.22998 1.06304
 H319 H 0.55474 0.18939 1.11340
 H320 H 0.64416 0.17155 1.09684
 H321 H 0.66548 0.21742 1.05800
 H322 H 0.57570 0.23543 1.07455
 C323 C 0.37429 0.57952 1.09526
 C324 C 0.41154 0.59809 1.10026
 C325 C 0.43342 0.63127 1.08615
 C326 C 0.41833 0.64547 1.06663
 C327 C 0.47052 0.53747 1.16378
 C328 C 0.35908 0.59369 1.07575
 C329 C 0.42761 0.58231 1.11868
 C330 C 0.44129 0.56875 1.13345
 C331 C 0.45725 0.55227 1.15007
 C332 C 0.38102 0.62661 1.06088
 H333 H 0.35709 0.55375 1.10602
 H334 H 0.46229 0.64585 1.08980
 H335 H 0.43603 0.67090 1.05565
 H336 H 0.33031 0.57845 1.07183
 C337 C 0.18910 0.57755 1.08958
 C338 C 0.18032 0.60121 1.10429
 C339 C 0.19996 0.63870 1.09872
 C340 C 0.22783 0.65241 1.07812
 C341 C 0.06553 0.54240 1.17173
 C342 C 0.21693 0.59117 1.06897
 C343 C 0.15006 0.58668 1.12400
 C344 C 0.12403 0.57372 1.13980
 C345 C 0.09280 0.55743 1.15743
 C346 C 0.23637 0.62874 1.06272
 H347 H 0.17401 0.54846 1.09368
 H348 H 0.19333 0.65725 1.10992
 H349 H 0.24223 0.68147 1.07388
 H350 H 0.22277 0.57218 1.05758
 C351 C 0.42172 0.80478 1.10165
 C352 C 0.40307 0.82347 1.10791
 C353 C 0.37201 0.81562 1.09211
 C354 C 0.35983 0.78948 1.06987
 C355 C 0.46088 0.93472 1.18006
 C356 C 0.40960 0.77861 1.07941
 C357 C 0.41705 0.85225 1.12928
 C358 C 0.42967 0.87729 1.14633
 C359 C 0.44576 0.90773 1.16514
 C360 C 0.37868 0.77090 1.06306
 H361 H 0.44594 0.81084 1.11366
 H362 H 0.35751 0.83010 1.09668
 H363 H 0.33588 0.78415 1.05781
 H364 H 0.42469 0.76476 1.07480
 C365 C 0.57803 0.39370 0.59249
 C366 C 0.60250 0.42533 0.60741
 C367 C 0.63921 0.44235 0.60051
 C368 C 0.65135 0.42803 0.57849
 C369 C 0.54600 0.48021 0.67937
 C370 C 0.59005 0.37935 0.57047
 C371 C 0.58944 0.44109 0.62872
 C372 C 0.57722 0.45395 0.64573
 C373 C 0.56124 0.46846 0.66449
 C374 C 0.62683 0.39653 0.56301
 H375 H 0.54952 0.38039 0.59760
 H376 H 0.65836 0.46695 0.61186
 H377 H 0.67984 0.44191 0.57334
 H378 H 0.57047 0.35503 0.55909
 C379 C 0.61630 0.19447 0.58549
 C380 C 0.58397 0.18588 0.59960
 C381 C 0.56807 0.20757 0.59492
 C382 C 0.58401 0.23723 0.57570
 C383 C 0.52244 0.06576 0.66257
 C384 C 0.63227 0.22405 0.56626
 C385 C 0.56647 0.15387 0.61782
 C386 C 0.55208 0.12651 0.63244
 C387 C 0.53574 0.09393 0.64894
 C388 C 0.61606 0.24552 0.56080
 H389 H 0.62885 0.17786 0.58891
 H390 H 0.54301 0.20116 0.60570
 H391 H 0.57077 0.25312 0.57202
 H392 H 0.65692 0.22962 0.55522
 C393 C 0.81212 0.43964 0.58746
 C394 C 0.82072 0.41599 0.60230
 C395 C 0.80112 0.37847 0.59670
 C396 C 0.77337 0.36470 0.57596
 C397 C 0.93526 0.47015 0.66988
 C398 C 0.78446 0.42598 0.56673
 C399 C 0.85087 0.43054 0.62209
 C400 C 0.87684 0.44308 0.63792
 C401 C 0.90802 0.45782 0.65557
 C402 C 0.76499 0.38838 0.56049
 H403 H 0.82720 0.46873 0.59155
 H404 H 0.80767 0.35993 0.60800
 H405 H 0.75892 0.33564 0.57172
 H406 H 0.77869 0.44500 0.55532
 C407 C 0.42136 0.61723 0.60128
 C408 C 0.40320 0.57982 0.60728
 C409 C 0.37223 0.55637 0.59144
 C410 C 0.35968 0.57020 0.56940
 C411 C 0.46259 0.52778 0.67906
 C412 C 0.40887 0.63114 0.57925
 C413 C 0.41760 0.56525 0.62846
 C414 C 0.43060 0.55314 0.64540
 C415 C 0.44714 0.53925 0.66414
 C416 C 0.37807 0.60772 0.56284
 H417 H 0.44549 0.63559 0.61332
 H418 H 0.35809 0.52733 0.59581
 H419 H 0.33583 0.55141 0.55728
 H420 H 0.42362 0.66015 0.57484
 C421 C 0.37308 0.79496 0.59489
 C422 C 0.41038 0.81421 0.59961
 C423 C 0.43246 0.80326 0.58535
 C424 C 0.41749 0.77373 0.56599
 C425 C 0.46824 0.93418 0.66303
 C426 C 0.35801 0.76536 0.57553
 C427 C 0.42622 0.84623 0.61793
 C428 C 0.43963 0.87356 0.63265
 C429 C 0.45524 0.90607 0.64928
 C430 C 0.38011 0.75469 0.56053
 H431 H 0.35572 0.80324 0.60576
 H432 H 0.46136 0.81798 0.58878
 H433 H 0.43532 0.76628 0.55489
 H434 H 0.32918 0.75137 0.57185
 C435 C 0.19970 0.56111 0.59894
 C436 C 0.17963 0.57851 0.60430
 C437 C 0.18798 0.61073 0.58944
 C438 C 0.21583 0.62514 0.56884
 C439 C 0.06439 0.52097 0.67111
 C440 C 0.22758 0.57546 0.57836
 C441 C 0.14929 0.56244 0.62389
 C442 C 0.12316 0.54899 0.63955
 C443 C 0.09180 0.53358 0.65700
 C444 C 0.23567 0.60741 0.56278
 H445 H 0.19340 0.53610 0.61027
 H446 H 0.17253 0.62437 0.59338
 H447 H 0.22133 0.64977 0.55730
 H448 H 0.24230 0.56111 0.57427
 C449 C 0.43216 0.63970 0.90503
 C450 C 0.41576 0.60210 0.90006
 C451 C 0.38313 0.57852 0.91385
 C452 C 0.36733 0.59230 0.93307
 C453 C 0.47587 0.54203 0.83738
 C454 C 0.41638 0.65359 0.92424
 C455 C 0.43304 0.58734 0.88193
 C456 C 0.44714 0.57403 0.86739
 C457 C 0.46303 0.55732 0.85098
 C458 C 0.38402 0.62997 0.93883
 H459 H 0.45746 0.65820 0.89449
 H460 H 0.37022 0.54936 0.91018
 H461 H 0.34242 0.57333 0.94386
 H462 H 0.42997 0.68271 0.92818
 C463 C 0.18937 0.62885 0.91077
 C464 C 0.18033 0.59626 0.89624
 C465 C 0.19932 0.57785 0.90232
 C466 C 0.22689 0.59170 0.92322
 C467 C 0.06601 0.53712 0.82837
 C468 C 0.21683 0.64271 0.93166
 C469 C 0.15032 0.58088 0.87630
 C470 C 0.12443 0.56771 0.86038
 C471 C 0.09328 0.55167 0.84268
 C472 C 0.23568 0.62410 0.93839
 H473 H 0.17478 0.64325 0.90631
 H474 H 0.19242 0.55250 0.89126
 H475 H 0.24085 0.57672 0.92785
 H476 H 0.22294 0.66778 0.94282
 C477 C 0.36269 0.80452 0.89890
 C478 C 0.39951 0.82420 0.89231
 C479 C 0.42368 0.81689 0.90749
 C480 C 0.41125 0.79037 0.92942
 C481 C 0.45716 0.93551 0.82011
 C482 C 0.35016 0.77791 0.92083
 C483 C 0.41297 0.85307 0.87099
 C484 C 0.42548 0.87814 0.85394
 C485 C 0.44174 0.90857 0.83508
 C486 C 0.37436 0.77075 0.93654
 H487 H 0.34376 0.81006 0.88736
 H488 H 0.45226 0.83204 0.90264
 H489 H 0.43063 0.78553 0.94098
 H490 H 0.32159 0.76331 0.92571
 C491 C 0.56841 0.36103 0.90501
 C492 C 0.58524 0.39858 0.89971
 C493 C 0.61812 0.42202 0.91323
 C494 C 0.63375 0.40818 0.93253
 C495 C 0.52664 0.46007 0.83704
 C496 C 0.58403 0.34707 0.92430
 C497 C 0.56820 0.41352 0.88152
 C498 C 0.55441 0.42711 0.86697
 C499 C 0.53900 0.44429 0.85059
 C500 C 0.61665 0.37058 0.93863
 H501 H 0.54291 0.34264 0.89468
 H502 H 0.63136 0.45114 0.90931
 H503 H 0.65888 0.42706 0.94310
 H504 H 0.57012 0.31801 0.92851
 C505 C 0.80171 0.42259 0.90238
 C506 C 0.82026 0.40377 0.89612
 C507 C 0.81078 0.37098 0.91046
 C508 C 0.78331 0.35732 0.93133
 C509 C 0.93472 0.46114 0.82840
 C510 C 0.77412 0.40893 0.92327
 C511 C 0.85030 0.41887 0.87621
 C512 C 0.87623 0.43166 0.86033
 C513 C 0.90742 0.44714 0.84268
 C514 C 0.76490 0.37632 0.93824
 H515 H 0.80897 0.44809 0.89147
 H516 H 0.82503 0.35626 0.90585
 H517 H 0.77686 0.33208 0.94232
 H518 H 0.76050 0.42421 0.92805
 C519 C 0.63730 0.19551 0.89900
 C520 C 0.60048 0.17616 0.89234
 C521 C 0.57652 0.18388 0.90743
 C522 C 0.58914 0.21046 0.92934
 C523 C 0.54114 0.06460 0.82037
 C524 C 0.65003 0.22220 0.92091
 C525 C 0.58674 0.14721 0.87105
 C526 C 0.57385 0.12207 0.85405
 C527 C 0.55705 0.09157 0.83526
 C528 C 0.62602 0.22975 0.93653
 H529 H 0.65607 0.18965 0.88753
 H530 H 0.54795 0.16898 0.90253
 H531 H 0.56991 0.21561 0.94082
 H532 H 0.67858 0.23654 0.92586
   
