data_POSCAR
  _audit_creation_date              2014-09-24
  _audit_creation_method            'ToBaCCo'
  _symmetry_space_group_name_H-M    'P1'
  _symmetry_Int_Tables_number       1
  _symmetry_cell_setting            triclinic
  loop_
  _symmetry_equiv_pos_as_xyz
 x,y,z
_cell_length_a 44.4164
_cell_length_b 44.3629
_cell_length_c 16.0897
_cell_angle_alpha 89.969000
_cell_angle_beta 89.973400
_cell_angle_gamma 119.934300
loop_
  _atom_site_label
  _atom_site_type_symbol
  _atom_site_fract_x
  _atom_site_fract_y
  _atom_site_fract_z
C1 C 0.17002 0.50271 0.49803
 C2 C 0.18732 0.50607 0.42341
 C3 C 0.21975 0.50789 0.42365
 C4 C 0.23451 0.50436 0.49886
 C5 C 0.21566 0.49992 0.57347
 C6 C 0.18421 0.50005 0.57291
 C7 C 0.26881 0.50485 0.49954
 C8 C 0.28704 0.50854 0.57490
 C9 C 0.31803 0.50749 0.57531
 C10 C 0.33242 0.50477 0.50089
 C11 C 0.31568 0.50202 0.42591
 C12 C 0.28376 0.50117 0.42495
 H13 H 0.14515 0.50190 0.49778
 H14 H 0.23291 0.51212 0.36478
 H15 H 0.22463 0.49594 0.63255
 H16 H 0.27784 0.51226 0.63389
 H17 H 0.35671 0.50446 0.50139
 H18 H 0.27103 0.49719 0.36563
 C19 C 0.49518 -0.33393 0.49984
 C20 C 0.49809 -0.31682 0.42512
 C21 C 0.49876 -0.28487 0.42516
 C22 C 0.49468 -0.27044 0.50029
 C23 C 0.49074 -0.28909 0.57498
 C24 C 0.49207 -0.31996 0.57464
 C25 C 0.49490 -0.23625 0.50110
 C26 C 0.49937 -0.21768 0.57631
 C27 C 0.49881 -0.18641 0.57684
 C28 C 0.49570 -0.17214 0.50259
 C29 C 0.49234 -0.18915 0.42764
 C30 C 0.49096 -0.22137 0.42666
 H31 H 0.49569 -0.35818 0.49986
 H32 H 0.50290 -0.27164 0.36637
 H33 H 0.48662 -0.28021 0.63405
 H34 H 0.50370 -0.22667 0.63496
 H35 H 0.49620 -0.14742 0.50306
 H36 H 0.48677 -0.23422 0.36741
 C37 C 1.33294 0.82789 0.49328
 C38 C 1.31581 0.81320 0.41907
 C39 C 1.28418 0.78179 0.42008
 C40 C 1.26999 0.76352 0.49568
 C41 C 1.28854 0.77892 0.57006
 C42 C 1.31920 0.81122 0.56856
 C43 C 1.23623 0.72916 0.49683
 C44 C 1.21809 0.71426 0.57221
 C45 C 1.18692 0.68228 0.57221
 C46 C 1.17252 0.66553 0.49738
 C47 C 1.18926 0.67986 0.42259
 C48 C 1.22125 0.71075 0.42208
 H49 H 1.35702 0.85270 0.49268
 H50 H 1.27106 0.77249 0.36139
 H51 H 1.27982 0.76647 0.62973
 H52 H 1.22734 0.72711 0.63126
 H53 H 1.14787 0.64128 0.49711
 H54 H 1.23374 0.71975 0.36259
 C55 C 0.83133 0.50130 0.49755
 C56 C 0.81711 0.50409 0.42280
 C57 C 0.78586 0.50463 0.42281
 C58 C 0.76720 0.50042 0.49772
 C59 C 0.78200 0.49678 0.57257
 C60 C 0.81420 0.49819 0.57237
 C61 C 0.73294 0.50004 0.49768
 C62 C 0.71796 0.50361 0.57244
 C63 C 0.68596 0.50275 0.57177
 C64 C 0.66929 0.50016 0.49646
 C65 C 0.68379 0.49747 0.42201
 C66 C 0.71471 0.49636 0.42255
 H67 H 0.85599 0.50174 0.49754
 H68 H 0.77694 0.50867 0.36378
 H69 H 0.76907 0.49274 0.63168
 H70 H 0.73076 0.50744 0.63165
 H71 H 0.64499 0.50044 0.49557
 H72 H 0.72387 0.49256 0.36358
 C73 C 0.50107 0.33175 0.49933
 C74 C 0.50380 0.31724 0.42493
 C75 C 0.50475 0.28618 0.42574
 C76 C 0.50084 0.26784 0.50107
 C77 C 0.49719 0.28285 0.57558
 C78 C 0.49825 0.31495 0.57466
 C79 C 0.50015 0.23341 0.50167
 C80 C 0.50362 0.21850 0.57671
 C81 C 0.50179 0.18600 0.57677
 C82 C 0.49849 0.16881 0.50187
 C83 C 0.49590 0.18321 0.42714
 C84 C 0.49573 0.21465 0.42700
 H85 H 0.50092 0.35615 0.49840
 H86 H 0.50860 0.27698 0.36688
 H87 H 0.49314 0.26996 0.63481
 H88 H 0.50784 0.23161 0.63562
 H89 H 0.49776 0.14397 0.50159
 H90 H 0.49179 0.22365 0.36795
 C91 C 0.66850 0.17043 0.50331
 C92 C 0.68504 0.18516 0.42837
 C93 C 0.71694 0.21635 0.42829
 C94 C 0.73213 0.23425 0.50364
 C95 C 0.71400 0.21893 0.57858
 C96 C 0.68306 0.18695 0.57825
 C97 C 0.76644 0.26816 0.50438
 C98 C 0.78449 0.28281 0.57986
 C99 C 0.81585 0.31451 0.58049
 C100 C 0.83072 0.33135 0.50584
 C101 C 0.81418 0.31721 0.43061
 C102 C 0.78198 0.28643 0.42970
 H103 H 0.64424 0.14584 0.50334
 H104 H 0.72936 0.22575 0.36889
 H105 H 0.72317 0.23116 0.63819
 H106 H 0.77504 0.27006 0.63892
 H107 H 0.85544 0.35550 0.50610
 H108 H 0.76973 0.27745 0.37002
 O109 O 1.04968 0.57573 0.14883
 O110 O 1.08778 0.56788 0.06769
 C111 C 1.08072 0.58295 0.12735
 O112 O 0.95187 0.42304 0.15146
 O113 O 0.91306 0.43137 0.07444
 C114 C 0.92062 0.41568 0.13173
 O115 O 1.04906 0.47372 0.15477
 O116 O 1.08744 0.51837 0.07091
 C117 C 1.08020 0.49695 0.13235
 O118 O 0.95309 0.53200 0.14250
 O119 O 0.91366 0.48364 0.07007
 C120 C 0.92168 0.50819 0.12416
 Zr121 Zr 1.00100 0.53916 0.09812
 O122 O 1.00037 0.54563 0.22816
 O123 O 1.00292 0.58716 0.07825
 Zr124 Zr 1.00037 0.46236 0.10497
 O125 O 0.99796 0.46045 0.23638
 O126 O 1.00373 0.41639 0.10182
 O127 O 1.03137 0.51605 0.11709
 O128 O 0.97085 0.48622 0.11838
 O129 O 0.95105 0.52779 -0.15183
 O130 O 0.91263 0.48105 -0.07294
 C131 C 0.91990 0.50417 -0.13044
 O132 O 1.04697 0.46957 -0.15482
 O133 O 1.08645 0.51627 -0.07795
 C134 C 1.07837 0.49313 -0.13568
 O135 O 0.95038 0.41928 -0.14392
 O136 O 0.91225 0.42946 -0.06916
 C137 C 0.91933 0.41240 -0.12385
 O138 O 1.04802 0.57367 -0.16081
 O139 O 1.08698 0.56669 -0.08094
 C140 C 1.07930 0.58138 -0.14050
 Zr141 Zr 0.99980 0.53634 -0.10920
 O142 O 0.99577 0.53485 -0.24039
 O143 O 1.00333 0.58575 -0.10687
 Zr144 Zr 0.99921 0.45956 -0.10274
 O145 O 0.99519 0.45270 -0.23309
 O146 O 1.00275 0.41391 -0.08951
 Zr147 Zr 1.05231 0.52511 -0.00417
 Zr148 Zr 0.94794 0.47356 -0.00033
 O149 O 0.96958 0.48302 -0.12065
 O150 O 1.03014 0.51292 -0.12398
 O151 O 0.96888 0.52794 -0.00480
 O152 O 1.03054 0.47074 0.00044
 O153 O 1.03133 0.55842 -0.00676
 O154 O 0.96821 0.43950 0.00265
 H155 H 0.95605 0.47948 0.16872
 H156 H 1.04657 0.46127 0.00128
 H157 H 0.95441 0.47503 -0.17033
 H158 H 1.04761 0.58386 -0.00800
 H159 H 0.98163 0.39759 0.07888
 H160 H 0.98030 0.39537 -0.06732
 H161 H 1.00778 0.47615 -0.25816
 H162 H 1.01310 0.52910 -0.26235
 H163 H 0.98285 0.58322 -0.07625
 H164 H 1.00452 0.59720 0.13415
 H165 H 0.99767 0.52421 0.25389
 H166 H 1.01456 0.48404 0.25695
 O167 O 0.42590 0.47245 0.15528
 O168 O 0.43273 0.51880 0.07714
 C169 C 0.41803 0.49602 0.13579
 O170 O 0.57983 0.52926 0.14181
 O171 O 0.57078 0.48208 0.06363
 C172 C 0.58706 0.50538 0.12035
 O173 O 0.52889 0.57543 0.15474
 O174 O 0.48280 0.56892 0.07633
 C175 C 0.50548 0.58350 0.13519
 O176 O 0.47243 0.42209 0.14528
 O177 O 0.51926 0.43095 0.06611
 C178 C 0.49623 0.41483 0.12365
 Zr179 Zr 0.46371 0.46230 0.10346
 O180 O 0.46360 0.45845 0.23463
 O181 O 0.41582 0.41542 0.09313
 Zr182 Zr 0.54011 0.53886 0.09996
 O183 O 0.54770 0.54322 0.22996
 O184 O 0.58552 0.58805 0.08561
 O185 O 0.48668 0.51590 0.12025
 O186 O 0.51695 0.48567 0.11612
 O187 O 0.46987 0.42206 -0.14975
 O188 O 0.51819 0.43107 -0.07702
 C189 C 0.49386 0.41465 -0.13150
 O190 O 0.52621 0.57597 -0.15599
 O191 O 0.48108 0.56870 -0.07265
 C192 C 0.50263 0.58337 -0.13352
 O193 O 0.57804 0.53071 -0.15363
 O194 O 0.57002 0.48317 -0.07856
 C195 C 0.58586 0.50707 -0.13455
 O196 O 0.42515 0.47438 -0.15476
 O197 O 0.43196 0.51937 -0.07139
 C198 C 0.41734 0.49771 -0.13207
 Zr199 Zr 0.46163 0.46204 -0.10396
 O200 O 0.45629 0.45563 -0.23422
 O201 O 0.41257 0.41645 -0.09005
 Zr202 Zr 0.53786 0.53858 -0.10769
 O203 O 0.54012 0.53854 -0.23913
 O204 O 0.58334 0.58815 -0.10365
 Zr205 Zr 0.47465 0.52655 0.00085
 Zr206 Zr 0.52701 0.47446 -0.00453
 O207 O 0.51465 0.48536 -0.12306
 O208 O 0.48425 0.51560 -0.12090
 O209 O 0.47278 0.44065 -0.00152
 O210 O 0.52889 0.55952 -0.00239
 O211 O 0.44180 0.47222 0.00142
 O212 O 0.56065 0.52884 -0.00564
 H213 H 0.52469 0.47807 0.16560
 H214 H 0.53804 0.58498 -0.00222
 H215 H 0.52189 0.47788 -0.17360
 H216 H 0.41635 0.46292 0.00226
 H217 H 0.60476 0.58403 0.06981
 H218 H 0.60192 0.58524 -0.07767
 H219 H 0.51693 0.53275 -0.26021
 H220 H 0.47645 0.47615 -0.25893
 H221 H 0.41655 0.39816 -0.06613
 H222 H 0.40816 0.40739 0.15079
 H223 H 0.47044 0.48173 0.25728
 H224 H 0.52657 0.52384 0.25488
 O225 O 0.52399 -0.04861 0.15924
 O226 O 0.47986 -0.08711 0.07466
 C227 C 0.50103 -0.07981 0.13649
 O228 O 0.46693 0.04775 0.14506
 O229 O 0.51556 0.08705 0.07306
 C230 C 0.49096 0.07913 0.12690
 O231 O 0.42138 -0.04910 0.14913
 O232 O 0.43008 -0.08737 0.07081
 C233 C 0.41429 -0.08019 0.12861
 O234 O 0.57578 0.04822 0.15286
 O235 O 0.56760 0.08721 0.07594
 C236 C 0.58346 0.07954 0.13267
 Zr237 Zr 0.53619 -0.00002 0.10701
 O238 O 0.54044 0.00080 0.23795
 O239 O 0.58289 -0.00131 0.09473
 Zr240 Zr 0.45960 -0.00043 0.10175
 O241 O 0.45789 0.00206 0.23293
 O242 O 0.41023 -0.00430 0.09209
 O243 O 0.48250 -0.03100 0.12031
 O244 O 0.51254 0.02969 0.12092
 O245 O 0.57910 0.04989 -0.14174
 O246 O 0.56869 0.08801 -0.06746
 C247 C 0.58571 0.08096 -0.12220
 O248 O 0.42675 -0.04756 -0.16130
 O249 O 0.43221 -0.08661 -0.07795
 C250 C 0.41861 -0.07891 -0.13970
 O251 O 0.47170 0.04973 -0.15034
 O252 O 0.51758 0.08819 -0.06960
 C253 C 0.49497 0.08095 -0.12824
 O254 O 0.52924 -0.04709 -0.15000
 O255 O 0.48209 -0.08638 -0.07390
 C256 C 0.50546 -0.07846 -0.13099
 Zr257 Zr 0.53869 0.00100 -0.10048
 O258 O 0.54370 0.00467 -0.23147
 O259 O 0.58473 -0.00189 -0.09042
 Zr260 Zr 0.46202 0.00062 -0.10585
 O261 O 0.45926 0.00345 -0.23645
 O262 O 0.41250 -0.00349 -0.09710
 Zr263 Zr 0.47330 -0.05198 -0.00080
 Zr264 Zr 0.52487 0.05246 0.00194
 O265 O 0.51529 0.03072 -0.11822
 O266 O 0.48543 -0.02978 -0.12081
 O267 O 0.55881 0.03211 0.00455
 O268 O 0.44016 -0.03080 -0.00339
 O269 O 0.52757 -0.03040 0.00308
 O270 O 0.47054 0.03165 -0.00170
 H271 H 0.51950 0.04462 0.17102
 H272 H 0.41477 -0.04713 -0.00540
 H273 H 0.52332 0.04588 -0.16800
 H274 H 0.53701 -0.04646 0.00437
 H275 H 0.41355 0.01723 0.06525
 H276 H 0.41608 0.01972 -0.08228
 H277 H 0.47920 0.00207 -0.25912
 H278 H 0.52098 -0.01249 -0.25526
 H279 H 0.60192 0.01887 -0.05935
 H280 H 0.59031 -0.00260 0.15203
 H281 H 0.52100 0.00315 0.26022
 H282 H 0.46366 -0.01517 0.25570
 C283 C 1.17115 0.50615 0.35143
 C284 C 1.15383 0.50502 0.29254
 C285 C 1.13041 0.50260 0.23010
 C286 C 1.10834 0.50006 0.18238
 C287 C 0.50027 0.66795 0.35352
 C288 C 0.50165 0.65171 0.29499
 C289 C 0.50289 0.62988 0.23291
 C290 C 0.50395 0.60944 0.18534
 C291 C 0.33068 -0.16981 0.34682
 C292 C 0.34650 -0.15259 0.28746
 C293 C 0.36792 -0.12978 0.22459
 C294 C 0.38822 -0.10819 0.17709
 C295 C 0.83503 0.50594 0.34656
 C296 C 0.85183 0.50679 0.28674
 C297 C 0.87373 0.50731 0.22237
 C298 C 0.89448 0.50765 0.17346
 C299 C 0.50411 0.33412 0.34805
 C300 C 0.50318 0.34977 0.28765
 C301 C 0.50113 0.37010 0.22264
 C302 C 0.49893 0.38938 0.17327
 C303 C 0.66848 0.16747 0.35230
 C304 C 0.65208 0.15053 0.29314
 C305 C 0.63029 0.12824 0.22986
 C306 C 0.60980 0.10713 0.18174
 C307 C 0.50208 0.16996 -0.35101
 C308 C 0.50130 0.15318 -0.29113
 C309 C 0.49944 0.13054 -0.22693
 C310 C 0.49744 0.10898 -0.17805
 C311 C 0.67034 0.50427 -0.35647
 C312 C 0.65421 0.50507 -0.29693
 C313 C 0.63266 0.50565 -0.23302
 C314 C 0.61226 0.50616 -0.18429
 C315 C 0.83239 0.32958 -0.34690
 C316 C 0.84882 0.34512 -0.28636
 C317 C 0.87059 0.36604 -0.22138
 C318 C 0.89154 0.38610 -0.17238
 C319 C 0.50120 -0.16812 -0.34733
 C320 C 0.50251 -0.15051 -0.28892
 C321 C 0.50357 -0.12749 -0.22702
 C322 C 0.50436 -0.10600 -0.17991
 C323 C 0.33511 0.50746 -0.34868
 C324 C 0.35140 0.50613 -0.29028
 C325 C 0.37253 0.50353 -0.22849
 C326 C 0.39217 0.50088 -0.18137
 C327 C 1.16966 0.66672 -0.35624
 C328 C 1.15201 0.65017 -0.29806
 C329 C 1.12876 0.62801 -0.23668
 C330 C 1.10705 0.60738 -0.18983
 C331 C 0.83100 0.49770 -0.35148
 C332 C 0.84781 0.49839 -0.29196
 C333 C 0.87042 0.50011 -0.22817
 C334 C 0.89196 0.50195 -0.17969
 C335 C 0.49668 0.33050 -0.35363
 C336 C 0.49586 0.34649 -0.29393
 C337 C 0.49526 0.36789 -0.22981
 C338 C 0.49475 0.38823 -0.18101
 C339 C 0.66634 0.16979 -0.34541
 C340 C 0.65085 0.15295 -0.28531
 C341 C 0.63064 0.13043 -0.22063
 C342 C 0.61132 0.10893 -0.17153
 C343 C 1.16685 0.49783 -0.35552
 C344 C 1.14954 0.49645 -0.29647
 C345 C 1.12690 0.49529 -0.23357
 C346 C 1.10568 0.49439 -0.18554
 C347 C 0.49210 0.66386 -0.35348
 C348 C 0.49344 0.64798 -0.29422
 C349 C 0.49621 0.62743 -0.23123
 C350 C 0.49911 0.60821 -0.18324
 C351 C 0.33667 -0.17103 -0.35647
 C352 C 0.35319 -0.15303 -0.29891
 C353 C 0.37439 -0.12907 -0.23777
 C354 C 0.39389 -0.10683 -0.19051
 C355 C 0.49198 -0.17181 0.35241
 C356 C 0.49304 -0.15407 0.29457
 C357 C 0.49541 -0.13028 0.23327
 C358 C 0.49793 -0.10800 0.18627
 C359 C 0.33221 0.50009 0.35084
 C360 C 0.34889 0.49902 0.29308
 C361 C 0.37112 0.49811 0.23189
 C362 C 0.39185 0.49730 0.18507
 C363 C 1.17191 0.66304 0.34677
 C364 C 1.15442 0.64729 0.28791
 C365 C 1.13096 0.62689 0.22519
 C366 C 1.10887 0.60775 0.17726
 C367 C 0.49389 0.16534 0.35084
 C368 C 0.49290 0.14872 0.29063
 C369 C 0.49222 0.12702 0.22571
 C370 C 0.49172 0.10635 0.17638
 C371 C 0.66710 0.49734 0.34518
 C372 C 0.65169 0.49837 0.28460
 C373 C 0.63163 0.50052 0.21934
 C374 C 0.61247 0.50275 0.16986
 C375 C 0.83155 0.33436 0.35475
 C376 C 0.84867 0.35031 0.29536
 C377 C 0.87144 0.37096 0.23142
 C378 C 0.89293 0.39036 0.18238
   
