data_POSCAR
  _audit_creation_date              2014-09-24
  _audit_creation_method            'ToBaCCo'
  _symmetry_space_group_name_H-M    'P1'
  _symmetry_Int_Tables_number       1
  _symmetry_cell_setting            triclinic
  loop_
  _symmetry_equiv_pos_as_xyz
 x,y,z
_cell_length_a 38.4149
_cell_length_b 39.3300
_cell_length_c 15.2595
_cell_angle_alpha 89.216300
_cell_angle_beta 91.325600
_cell_angle_gamma 120.571400
loop_
  _atom_site_label
  _atom_site_type_symbol
  _atom_site_fract_x
  _atom_site_fract_y
  _atom_site_fract_z
C1 C 0.24305 0.43891 0.48909
 C2 C 0.24290 0.43483 0.40062
 C3 C 0.20552 0.42045 0.34571
 C4 C 0.28057 0.44595 0.35344
 C5 C 0.27909 0.44801 0.54443
 C6 C 0.20823 0.43707 0.53318
 C7 C 0.17065 0.38394 0.36319
 C8 C 0.13716 0.36886 0.30575
 C9 C 0.13825 0.39013 0.23039
 C10 C 0.17252 0.42693 0.21389
 C11 C 0.20598 0.44195 0.27099
 C12 C 0.28126 0.42005 0.29193
 C13 C 0.31606 0.43134 0.24398
 C14 C 0.35058 0.46862 0.25764
 C15 C 0.34983 0.49450 0.31835
 C16 C 0.31488 0.48361 0.36476
 C17 C 0.30143 0.48474 0.58651
 C18 C 0.33674 0.49420 0.63448
 C19 C 0.34933 0.46644 0.64355
 C20 C 0.32619 0.42929 0.60418
 C21 C 0.29166 0.42032 0.55381
 C22 C 0.19433 0.46245 0.50651
 C23 C 0.16223 0.46163 0.54913
 C24 C 0.14354 0.43553 0.61878
 C25 C 0.15725 0.40998 0.64578
 C26 C 0.18969 0.41098 0.60343
 H27 H 0.16989 0.36662 0.41968
 H28 H 0.11084 0.34027 0.31904
 H29 H 0.17370 0.44365 0.15583
 H30 H 0.23256 0.47010 0.25618
 H31 H 0.25486 0.39112 0.28120
 H32 H 0.31625 0.41088 0.19755
 H33 H 0.31448 0.50476 0.40873
 H34 H 0.29208 0.50642 0.58010
 H35 H 0.35391 0.52288 0.66529
 H36 H 0.33542 0.40755 0.61116
 H37 H 0.27467 0.39178 0.52222
 H38 H 0.20874 0.48327 0.45347
 H39 H 0.15218 0.48177 0.52861
 H40 H 0.14345 0.38991 0.70025
 H41 H 0.20028 0.39141 0.62516
 H42 H 0.37631 0.52339 0.32886
 C43 C 0.44579 -0.26119 0.54010
 C44 C 0.43852 -0.27516 0.45633
 C45 C 0.45295 -0.30152 0.42642
 C46 C 0.42421 -0.25829 0.38659
 C47 C 0.43903 -0.22887 0.56973
 C48 C 0.46549 -0.27469 0.60517
 C49 C 0.49456 -0.28660 0.41816
 C50 C 0.50835 -0.30896 0.37732
 C51 C 0.48071 -0.34691 0.34550
 C52 C 0.43926 -0.36271 0.35825
 C53 C 0.42535 -0.33987 0.39717
 C54 C 0.44890 -0.24004 0.31404
 C55 C 0.44183 -0.21566 0.25882
 C56 C 0.40979 -0.20929 0.27508
 C57 C 0.38248 -0.23096 0.34120
 C58 C 0.38943 -0.25560 0.39664
 C59 C 0.41914 -0.23319 0.64888
 C60 C 0.41669 -0.20172 0.68354
 C61 C 0.43353 -0.16540 0.63897
 C62 C 0.45202 -0.16139 0.55844
 C63 C 0.45572 -0.19243 0.52519
 C64 C 0.44686 -0.31434 0.63241
 C65 C 0.46547 -0.32581 0.69684
 C66 C 0.50291 -0.29777 0.73354
 C67 C 0.52190 -0.25856 0.70470
 C68 C 0.50329 -0.24705 0.64115
 H69 H 0.51622 -0.25689 0.43961
 H70 H 0.54052 -0.29632 0.36885
 H71 H 0.41766 -0.39193 0.33407
 H72 H 0.39314 -0.35166 0.40261
 H73 H 0.47568 -0.24190 0.30406
 H74 H 0.46315 -0.19960 0.20755
 H75 H 0.36950 -0.27010 0.45108
 H76 H 0.40645 -0.26069 0.68513
 H77 H 0.40225 -0.20545 0.74591
 H78 H 0.46571 -0.13341 0.52401
 H79 H 0.47271 -0.18749 0.46609
 H80 H 0.41759 -0.33600 0.60548
 H81 H 0.45020 -0.35609 0.71987
 H82 H 0.55052 -0.23657 0.73373
 H83 H 0.51816 -0.21642 0.62062
 H84 H 0.35742 -0.22668 0.35346
 C85 C 1.26616 0.73286 0.56866
 C86 C 1.25839 0.72053 0.48353
 C87 C 1.26217 0.74774 0.41013
 C88 C 1.23801 0.67779 0.46155
 C89 C 1.25787 0.70436 0.64162
 C90 C 1.27268 0.77193 0.59400
 C91 C 1.22988 0.73600 0.34959
 C92 C 1.23124 0.76191 0.28459
 C93 C 1.26488 0.79995 0.27863
 C94 C 1.29775 0.81174 0.33688
 C95 C 1.29645 0.78576 0.40221
 C96 C 1.19991 0.65125 0.49621
 C97 C 1.17719 0.61287 0.46386
 C98 C 1.19132 0.60087 0.39411
 C99 C 1.23067 0.62639 0.36354
 C100 C 1.25383 0.66464 0.39712
 C101 C 1.27299 0.67843 0.64130
 C102 C 1.25657 0.64544 0.69674
 C103 C 1.22578 0.63883 0.75410
 C104 C 1.21349 0.66655 0.76046
 C105 C 1.22952 0.69922 0.70488
 C106 C 1.30526 0.79675 0.64955
 C107 C 1.30758 0.83042 0.68509
 C108 C 1.27723 0.83927 0.66561
 C109 C 1.24548 0.81538 0.60800
 C110 C 1.24306 0.78176 0.57268
 H111 H 1.20290 0.70713 0.35418
 H112 H 1.20566 0.75255 0.23991
 H113 H 1.32403 0.84113 0.33264
 H114 H 1.32188 0.79552 0.44746
 H115 H 1.18652 0.66102 0.54407
 H116 H 1.14669 0.59394 0.48671
 H117 H 1.28299 0.68475 0.36919
 H118 H 1.29522 0.68215 0.59386
 H119 H 1.26630 0.62409 0.69158
 H120 H 1.18966 0.66158 0.80467
 H121 H 1.21731 0.71867 0.70671
 H122 H 1.32793 0.78920 0.66781
 H123 H 1.33195 0.84853 0.73076
 H124 H 1.22152 0.82165 0.59399
 H125 H 1.21700 0.76231 0.53227
 H126 H 1.24219 0.61794 0.30906
 C127 C 0.82475 0.56829 0.57592
 C128 C 0.82372 0.56081 0.48923
 C129 C 0.85243 0.55114 0.44898
 C130 C 0.79266 0.56098 0.43133
 C131 C 0.79807 0.58128 0.61324
 C132 C 0.85725 0.57107 0.63443
 C133 C 0.87739 0.57488 0.38123
 C134 C 0.90390 0.56565 0.34144
 C135 C 0.90571 0.53224 0.36830
 C136 C 0.88085 0.50851 0.43603
 C137 C 0.85440 0.51788 0.47630
 C138 C 0.80051 0.59544 0.38646
 C139 C 0.77040 0.59564 0.33390
 C140 C 0.73208 0.56139 0.32668
 C141 C 0.72437 0.52709 0.37173
 C142 C 0.75455 0.52679 0.42365
 C143 C 0.76509 0.55579 0.66525
 C144 C 0.74415 0.57032 0.71111
 C145 C 0.75582 0.61032 0.70458
 C146 C 0.78732 0.63521 0.64901
 C147 C 0.80838 0.62083 0.60380
 C148 C 0.84780 0.54596 0.70730
 C149 C 0.87817 0.55104 0.76697
 C150 C 0.91812 0.58128 0.75429
 C151 C 0.92788 0.60576 0.68054
 C152 C 0.89756 0.60071 0.62079
 H153 H 0.87662 0.60076 0.35933
 H154 H 0.92270 0.58446 0.28918
 H155 H 0.88180 0.48260 0.45717
 H156 H 0.83513 0.49899 0.52795
 H157 H 0.82966 0.62224 0.39323
 H158 H 0.77680 0.62257 0.30027
 H159 H 0.74813 0.50014 0.45871
 H160 H 0.75663 0.52514 0.67308
 H161 H 0.72028 0.55089 0.75495
 H162 H 0.79715 0.66633 0.64467
 H163 H 0.83397 0.64098 0.56462
 H164 H 0.81691 0.52291 0.71873
 H165 H 0.87038 0.53220 0.82435
 H166 H 0.95867 0.62952 0.67088
 H167 H 0.90525 0.62063 0.56540
 H168 H 0.69482 0.50066 0.36689
 C169 C 0.51067 0.27467 0.55929
 C170 C 0.50827 0.26981 0.47086
 C171 C 0.52094 0.30360 0.40969
 C172 C 0.49201 0.23036 0.43098
 C173 C 0.49175 0.24053 0.62087
 C174 C 0.53019 0.31465 0.59769
 C175 C 0.49236 0.31289 0.37678
 C176 C 0.50319 0.34238 0.31332
 C177 C 0.54314 0.36405 0.28441
 C178 C 0.57211 0.35584 0.31959
 C179 C 0.56086 0.32508 0.38025
 C180 C 0.45952 0.21603 0.37061
 C181 C 0.44383 0.17874 0.33374
 C182 C 0.46045 0.15520 0.35666
 C183 C 0.49290 0.16940 0.41665
 C184 C 0.50879 0.20686 0.45336
 C185 C 0.51418 0.23797 0.69208
 C186 C 0.49572 0.20713 0.75301
 C187 C 0.45465 0.17855 0.74348
 C188 C 0.43236 0.18061 0.67183
 C189 C 0.45068 0.21142 0.61114
 C190 C 0.57238 0.33900 0.59686
 C191 C 0.59068 0.37773 0.62760
 C192 C 0.56700 0.39233 0.65992
 C193 C 0.52495 0.36772 0.66350
 C194 C 0.50659 0.32887 0.63286
 H195 H 0.46158 0.29705 0.39968
 H196 H 0.48078 0.34925 0.28880
 H197 H 0.60322 0.37294 0.29914
 H198 H 0.58324 0.31815 0.40463
 H199 H 0.44573 0.23325 0.35275
 H200 H 0.41872 0.16835 0.28745
 H201 H 0.53414 0.21757 0.49915
 H202 H 0.54577 0.26018 0.70120
 H203 H 0.51307 0.20637 0.80921
 H204 H 0.40035 0.15930 0.66499
 H205 H 0.43250 0.21324 0.55804
 H206 H 0.59096 0.32822 0.57082
 H207 H 0.62320 0.39667 0.62396
 H208 H 0.50638 0.37889 0.68764
 H209 H 0.47398 0.31029 0.63402
 H210 H 0.50610 0.15155 0.43428
 C211 C 0.71786 0.23851 0.55281
 C212 C 0.72005 0.23613 0.46379
 C213 C 0.68718 0.20350 0.40970
 C214 C 0.75544 0.26662 0.41417
 C215 C 0.75064 0.27108 0.60621
 C216 C 0.68164 0.20996 0.60231
 C217 C 0.66909 0.16348 0.43446
 C218 C 0.63851 0.13386 0.38206
 C219 C 0.62692 0.14354 0.30187
 C220 C 0.64604 0.18302 0.27520
 C221 C 0.67533 0.21274 0.32904
 C222 C 0.77451 0.25457 0.35495
 C223 C 0.80679 0.28235 0.30537
 C224 C 0.82102 0.32281 0.31514
 C225 C 0.80219 0.33502 0.37412
 C226 C 0.76900 0.30712 0.42182
 C227 C 0.74081 0.29341 0.66064
 C228 C 0.77102 0.32582 0.70673
 C229 C 0.81155 0.33641 0.69971
 C230 C 0.82156 0.31328 0.64882
 C231 C 0.79118 0.28043 0.60315
 C232 C 0.64307 0.20371 0.58066
 C233 C 0.60952 0.17690 0.62893
 C234 C 0.61416 0.15658 0.70011
 C235 C 0.65288 0.16356 0.72309
 C236 C 0.68632 0.19012 0.67463
 H237 H 0.67865 0.15506 0.49403
 H238 H 0.62451 0.10336 0.40304
 H239 H 0.63746 0.19087 0.21347
 H240 H 0.68885 0.24314 0.30748
 H241 H 0.76437 0.22353 0.34726
 H242 H 0.82119 0.27232 0.26075
 H243 H 0.75401 0.31713 0.46480
 H244 H 0.70983 0.28670 0.66470
 H245 H 0.76296 0.34381 0.74469
 H246 H 0.85288 0.32147 0.64189
 H247 H 0.79941 0.26315 0.56320
 H248 H 0.63899 0.21945 0.52637
 H249 H 0.57983 0.17182 0.61073
 H250 H 0.65723 0.14818 0.77775
 H251 H 0.71591 0.19493 0.69293
 H252 H 0.81287 0.36615 0.38206
 N253 N 1.02172 0.53238 0.13334
 N254 N 1.00677 0.55418 0.15932
 N255 N 1.07893 0.49983 0.16136
 N256 N 1.10533 0.50423 0.22413
 N257 N 1.09409 0.53134 0.11128
 N258 N 1.13136 0.55703 0.13580
 N259 N 1.00590 0.49907 0.17758
 N260 N 0.97981 0.49723 0.23515
 C261 C 0.98111 0.53201 0.22308
 C262 C 1.13846 0.53952 0.20456
 N263 N 1.01980 0.39665 0.04151
 N264 N 1.03411 0.37268 0.03209
 N265 N 0.96086 0.41633 0.13256
 N266 N 0.93297 0.40185 0.19334
 N267 N 0.94691 0.39586 0.05960
 N268 N 0.90934 0.36661 0.06923
 N269 N 1.03406 0.41714 0.11436
 N270 N 1.05882 0.40812 0.15590
 Mn271 Mn 1.01983 0.45789 0.14745
 C272 C 1.05818 0.38022 0.10396
 C273 C 0.90101 0.37135 0.15219
 N274 N 1.09565 0.55200 -0.06805
 N275 N 1.13557 0.57085 -0.06608
 N276 N 1.00858 0.53335 -0.12034
 N277 N 0.98630 0.54547 -0.16224
 N278 N 1.02385 0.55332 -0.04753
 N279 N 1.01287 0.57974 -0.03758
 N280 N 1.08122 0.53222 -0.14150
 N281 N 1.11103 0.53697 -0.19148
 Mn282 Mn 1.05898 0.54254 0.03244
 C283 C 1.14448 0.56164 -0.14401
 C284 C 0.98949 0.57436 -0.10919
 N285 N 0.94793 0.41649 -0.12482
 N286 N 0.90957 0.39293 -0.14877
 N287 N 1.03491 0.45033 -0.18705
 N288 N 1.06127 0.45370 -0.24515
 N289 N 1.02140 0.41738 -0.14211
 N290 N 1.03860 0.39750 -0.16812
 N291 N 0.96297 0.45071 -0.16538
 N292 N 0.93548 0.45177 -0.21658
 Mn293 Mn 0.98371 0.40603 -0.04174
 Mn294 Mn 1.02177 0.49177 -0.15444
 Cl295 Cl 1.02088 0.47442 -0.00409
 C296 C 0.90261 0.41569 -0.20588
 C297 C 1.06293 0.42051 -0.23307
 N298 N 0.53614 0.46714 0.02178
 N299 N 0.52857 0.43044 0.03076
 N300 N 0.49135 0.50567 0.10118
 N301 N 0.46314 0.50103 0.15540
 N302 N 0.47528 0.48623 0.02791
 N303 N 0.43533 0.46738 0.03052
 N304 N 0.55279 0.48709 0.09440
 N305 N 0.55807 0.46501 0.15272
 C306 C 0.54376 0.43017 0.11163
 C307 C 0.42861 0.47725 0.11041
 N308 N 0.57377 0.61835 0.11017
 N309 N 0.56969 0.64731 0.14080
 N310 N 0.61115 0.56613 0.14260
 N311 N 0.63262 0.55684 0.19540
 N312 N 0.63453 0.59907 0.10029
 N313 N 0.67284 0.61354 0.12373
 N314 N 0.54978 0.58509 0.15067
 N315 N 0.52824 0.59027 0.20972
 Mn316 Mn 0.55119 0.53597 0.12272
 C317 C 0.54117 0.62923 0.20224
 C318 C 0.67082 0.58664 0.18274
 N319 N 0.48664 0.50871 -0.15505
 N320 N 0.44875 0.49117 -0.18386
 N321 N 0.57097 0.52452 -0.20521
 N322 N 0.59361 0.52080 -0.26346
 N323 N 0.54861 0.49097 -0.16346
 N324 N 0.55488 0.46318 -0.19374
 N325 N 0.50882 0.54251 -0.19589
 N326 N 0.48644 0.54908 -0.25300
 Mn327 Mn 0.51146 0.48782 -0.06770
 C328 C 0.44916 0.51691 -0.24408
 C329 C 0.58308 0.48258 -0.25582
 N330 N 0.64554 0.62222 -0.08136
 N331 N 0.68523 0.63911 -0.07948
 N332 N 0.56804 0.62287 -0.14516
 N333 N 0.54701 0.63763 -0.18239
 N334 N 0.58434 0.64083 -0.07047
 N335 N 0.57480 0.66785 -0.05448
 N336 N 0.63028 0.60384 -0.15602
 N337 N 0.65939 0.60708 -0.20676
 Mn338 Mn 0.60991 0.62046 0.01457
 Mn339 Mn 0.56954 0.57365 -0.17679
 Cl340 Cl 0.56048 0.55434 -0.02698
 C341 C 0.69332 0.62930 -0.15757
 C342 C 0.55229 0.66603 -0.12507
 N343 N 0.33523 -0.05975 0.09120
 N344 N 0.29771 -0.08982 0.08736
 N345 N 0.40326 0.01485 0.18482
 N346 N 0.41901 0.04288 0.24456
 N347 N 0.38194 0.02175 0.12638
 N348 N 0.38233 0.05462 0.14512
 N349 N 0.35677 -0.06648 0.14940
 N350 N 0.33459 -0.10125 0.18709
 C351 C 0.29793 -0.11516 0.14777
 C352 C 0.40508 0.06692 0.21944
 N353 N 0.50150 0.01704 0.12050
 N354 N 0.53851 0.04483 0.14423
 N355 N 0.42943 -0.06995 0.14582
 N356 N 0.41568 -0.10397 0.18703
 N357 N 0.45594 -0.06515 0.08691
 N358 N 0.46109 -0.09589 0.08633
 N359 N 0.47575 0.01104 0.18244
 N360 N 0.49444 0.03394 0.25057
 Mn361 Mn 0.41617 -0.02781 0.16642
 C362 C 0.53331 0.05483 0.22558
 C363 C 0.43543 -0.11981 0.14836
 N364 N 0.38776 0.03787 -0.05915
 N365 N 0.38514 0.06986 -0.05305
 N366 N 0.36596 -0.04065 -0.15373
 N367 N 0.34583 -0.06424 -0.22012
 N368 N 0.34096 -0.04293 -0.09348
 N369 N 0.30312 -0.06744 -0.11757
 N370 N 0.41241 0.04161 -0.12187
 N371 N 0.42737 0.07663 -0.16028
 Mn372 Mn 0.36115 -0.01070 0.01639
 C373 C 0.40969 0.09353 -0.11645
 C374 C 0.30684 -0.08051 -0.19599
 N375 N 0.46130 -0.04994 -0.09771
 N376 N 0.46514 -0.08039 -0.11712
 N377 N 0.48504 0.03730 -0.12658
 N378 N 0.50800 0.06725 -0.17832
 N379 N 0.50713 0.03196 -0.06707
 N380 N 0.54589 0.05811 -0.07712
 N381 N 0.43948 -0.04460 -0.15799
 N382 N 0.42853 -0.07105 -0.22144
 Mn383 Mn 0.48199 -0.01633 0.01070
 Mn384 Mn 0.42565 -0.00162 -0.14130
 Cl385 Cl 0.42132 -0.01404 0.01283
 C386 C 0.44497 -0.09297 -0.19431
 C387 C 0.54565 0.08014 -0.14569
 N388 N 1.10942 0.37573 0.17577
 N389 N 1.08176 0.36209 0.12055
 N390 N 0.49412 0.63146 0.29553
 N391 N 0.52673 0.64956 0.25285
 N392 N 0.26474 -0.17542 0.22040
 N393 N 0.26345 -0.15287 0.16538
 N394 N 0.93174 0.52147 0.32627
 N395 N 0.95603 0.54309 0.26713
 N396 N 0.55517 0.39715 0.22720
 N397 N 0.53484 0.39500 0.15824
 N398 N 0.59570 0.11393 0.24700
 N399 N 0.56477 0.08438 0.27962
 N400 N 0.43574 0.15387 -0.19255
 N401 N 0.41682 0.13254 -0.13054
 N402 N 0.74263 0.62596 -0.23950
 N403 N 0.73368 0.64245 -0.18376
 N404 N 0.83972 0.37085 -0.27071
 N405 N 0.86476 0.40474 -0.24782
 N406 N 0.43561 -0.13147 -0.32142
 N407 N 0.44123 -0.12642 -0.23899
 N408 N 0.38492 0.47490 -0.30649
 N409 N 0.41471 0.50986 -0.29621
 N410 N 1.20530 0.60504 -0.20550
 N411 N 1.18450 0.57308 -0.16889
 N412 N 0.94545 0.58899 -0.18467
 N413 N 0.97069 0.59712 -0.12545
 N414 N 0.58395 0.42979 -0.32111
 N415 N 0.60071 0.46553 -0.30756
 N416 N 0.57907 0.12803 -0.25411
 N417 N 0.58140 0.10985 -0.18666
 N418 N 1.11248 0.43762 -0.33632
 N419 N 1.09121 0.41362 -0.27653
 N420 N 0.51790 0.69358 -0.19786
 N421 N 0.53235 0.68824 -0.12992
 N422 N 0.27566 -0.13335 -0.29051
 N423 N 0.27311 -0.10887 -0.24628
 N424 N 0.40828 -0.17698 0.23498
 N425 N 0.43406 -0.15482 0.17873
 N426 N 0.38743 0.48055 0.21382
 N427 N 0.38968 0.46388 0.14514
 N428 N 1.16198 0.56870 0.34171
 N429 N 1.17014 0.56302 0.26509
 N430 N 0.44558 0.11730 0.31803
 N431 N 0.41820 0.10419 0.25848
 N432 N 0.69999 0.56085 0.27664
 N433 N 0.70494 0.58939 0.22794
 N434 N 0.85541 0.35173 0.26805
 N435 N 0.86493 0.34355 0.19531
   
