data_POSCAR
  _audit_creation_date              2014-09-24
  _audit_creation_method            'ToBaCCo'
  _symmetry_space_group_name_H-M    'P1'
  _symmetry_Int_Tables_number       1
  _symmetry_cell_setting            triclinic
  loop_
  _symmetry_equiv_pos_as_xyz
 x,y,z
_cell_length_a 41.4592
_cell_length_b 43.7098
_cell_length_c 33.2792
_cell_angle_alpha 90.020200
_cell_angle_beta 89.861200
_cell_angle_gamma 90.296000
loop_
  _atom_site_label
  _atom_site_type_symbol
  _atom_site_fract_x
  _atom_site_fract_y
  _atom_site_fract_z
O1 O 0.28814 0.22078 0.25085
 O2 O 0.23486 0.27771 0.20500
 O3 O 0.28348 0.27973 0.25424
 O4 O 0.23802 0.21801 0.20344
 O5 O 0.20461 0.21576 0.25496
 O6 O 0.25089 0.27574 0.30647
 O7 O 0.20195 0.27460 0.25709
 O8 O 0.25475 0.21626 0.30229
 Cu9 Cu 0.26437 0.24934 0.22311
 Cu10 Cu 0.22484 0.24524 0.28549
 C11 C 0.28074 0.20891 0.28444
 C12 C 0.20930 0.28588 0.22305
 C13 C 0.27507 0.28806 0.28933
 C14 C 0.21308 0.20667 0.22028
 O15 O 0.79147 0.28162 0.24811
 O16 O 0.75089 0.21945 0.30333
 O17 O 0.79785 0.22265 0.25023
 O18 O 0.74449 0.27860 0.29949
 O19 O 0.70920 0.27287 0.25045
 O20 O 0.76254 0.21725 0.20120
 O21 O 0.71602 0.21416 0.25392
 O22 O 0.75647 0.27662 0.19870
 Cu23 Cu 0.77470 0.25094 0.28026
 Cu24 Cu 0.73262 0.24468 0.22107
 C25 C 0.78093 0.28983 0.21401
 C26 C 0.72618 0.20639 0.28845
 C27 C 0.78942 0.21062 0.21707
 C28 C 0.71763 0.28516 0.28340
 O29 O 0.78697 0.71917 0.76353
 O30 O 0.74159 0.77444 0.70307
 O31 O 0.78567 0.77834 0.75884
 O32 O 0.74168 0.71517 0.70942
 O33 O 0.70404 0.71760 0.75625
 O34 O 0.74857 0.77961 0.80631
 O35 O 0.70434 0.77690 0.75036
 O36 O 0.74903 0.72008 0.81016
 Cu37 Cu 0.76770 0.74663 0.72898
 Cu38 Cu 0.72275 0.74886 0.78549
 C39 C 0.77580 0.71008 0.79704
 C40 C 0.71514 0.78506 0.71618
 C41 C 0.77489 0.78953 0.79148
 C42 C 0.71521 0.70566 0.72438
 O43 O 0.28902 0.78156 0.74832
 O44 O 0.24531 0.71766 0.79572
 O45 O 0.29394 0.72259 0.74528
 O46 O 0.24026 0.77720 0.79658
 O47 O 0.20645 0.77455 0.74569
 O48 O 0.26014 0.72046 0.69422
 O49 O 0.21193 0.71562 0.74428
 O50 O 0.25556 0.77992 0.69692
 Cu51 Cu 0.27044 0.74976 0.77669
 Cu52 Cu 0.23022 0.74743 0.71509
 C53 C 0.27979 0.79174 0.71456
 C54 C 0.22095 0.70588 0.77840
 C55 C 0.28635 0.71247 0.71074
 C56 C 0.21406 0.78525 0.77991
 O57 O 1.03143 -0.04134 -0.00682
 O58 O 0.97043 0.00507 0.04488
 O59 O 0.96924 -0.03877 -0.00821
 O60 O 1.03359 0.00341 0.04488
 O61 O 1.03423 0.03792 -0.00356
 O62 O 0.97194 -0.00546 -0.05789
 O63 O 0.97201 0.03876 -0.00449
 O64 O 1.03479 -0.00683 -0.05511
 Cu65 Cu 1.00095 -0.02121 0.02372
 Cu66 Cu 1.00334 0.01944 -0.03527
 C67 C 1.04353 -0.03208 -0.03974
 C68 C 0.96082 0.02985 0.02914
 C69 C 0.96002 -0.02961 -0.04254
 C70 C 1.04464 0.02806 0.02982
 O71 O 0.53194 0.46367 0.48929
 O72 O 0.46925 0.50980 0.53819
 O73 O 0.46964 0.46486 0.48689
 O74 O 0.53222 0.50961 0.53947
 O75 O 0.53410 0.54202 0.48872
 O76 O 0.47126 0.49769 0.43661
 O77 O 0.47155 0.54306 0.48837
 O78 O 0.53404 0.49643 0.43887
 Cu79 Cu 0.50059 0.48378 0.51859
 Cu80 Cu 0.50278 0.52308 0.45806
 C81 C 0.54356 0.47198 0.45566
 C82 C 0.45984 0.53441 0.52185
 C83 C 0.45999 0.47347 0.45251
 C84 C 0.54393 0.53346 0.52299
 O85 O -0.02652 0.55209 0.02070
 O86 O 0.03363 0.50208 0.06773
 O87 O 0.03575 0.54802 0.01836
 O88 O -0.02911 0.50502 0.06951
 O89 O -0.03239 0.47370 0.01770
 O90 O 0.03253 0.51642 -0.03317
 O91 O 0.02985 0.47009 0.01658
 O92 O -0.03018 0.52039 -0.03075
 Cu93 Cu 0.00366 0.52995 0.04929
 Cu94 Cu -0.00034 0.49204 -0.01264
 C95 C -0.03839 0.54499 -0.01321
 C96 C 0.04188 0.47746 0.05034
 C97 C 0.04516 0.53962 -0.01627
 C98 C -0.04162 0.48179 0.05249
 O99 O 0.47035 1.03515 0.48893
 O100 O 0.52934 0.98930 0.54423
 O101 O 0.53287 1.03327 0.49098
 O102 O 0.46680 0.98988 0.53964
 O103 O 0.46812 0.95631 0.49017
 O104 O 0.53315 0.99983 0.44135
 O105 O 0.53056 0.95574 0.49477
 O106 O 0.47021 1.00129 0.43971
 Cu107 Cu 0.49986 1.01526 0.52090
 Cu108 Cu 0.50078 0.97498 0.46149
 C109 C 0.45998 1.02606 0.45510
 C110 C 0.53980 0.96452 0.52935
 C111 C 0.54399 1.02412 0.45744
 C112 C 0.45621 0.96558 0.52313
 C113 C 1.16412 0.17558 0.21636
 C114 C 1.14399 0.15564 0.19523
 C115 C 1.15386 0.14330 0.15843
 C116 C 1.18429 0.15121 0.14286
 C117 C 1.20415 0.17195 0.16339
 C118 C 1.19422 0.18460 0.20035
 C119 C 1.13096 0.12427 0.13550
 C120 C 1.13971 0.09893 0.11583
 C121 C 1.11584 0.08070 0.09320
 C122 C 1.11507 0.04876 0.09710
 C123 C 1.09165 0.03148 0.07686
 C124 C 1.06943 0.04589 0.05140
 C125 C 1.07090 0.07779 0.04664
 C126 C 1.09367 0.09507 0.06765
 H127 H 1.15546 0.18474 0.24462
 H128 H 1.12051 0.14992 0.20757
 H129 H 1.19217 0.14228 0.11413
 H130 H 1.22712 0.17822 0.15009
 H131 H 1.10570 0.13057 0.13647
 H132 H 1.16419 0.09058 0.11818
 H133 H 1.13210 0.03729 0.11651
 H134 H 1.09112 0.00688 0.08075
 H135 H 1.05403 0.08943 0.02719
 H136 H 1.09415 0.11967 0.06373
 C137 C 0.66853 0.66917 0.72200
 C138 C 0.65049 0.64653 0.70263
 C139 C 0.66016 0.63519 0.66509
 C140 C 0.68909 0.64613 0.64795
 C141 C 0.70723 0.66874 0.66743
 C142 C 0.69692 0.68078 0.70443
 C143 C 0.63938 0.61219 0.64491
 C144 C 0.63833 0.60873 0.60489
 C145 C 0.61499 0.58823 0.58441
 C146 C 0.60593 0.59514 0.54489
 C147 C 0.58307 0.57723 0.52490
 C148 C 0.56898 0.55172 0.54388
 C149 C 0.57874 0.54419 0.58305
 C150 C 0.60157 0.56221 0.60312
 H151 H 0.66003 0.67777 0.75063
 H152 H 0.62850 0.63829 0.71666
 H153 H 0.69791 0.63721 0.61969
 H154 H 0.72917 0.67698 0.65331
 H155 H 0.62243 0.59972 0.66359
 H156 H 0.65308 0.62335 0.58600
 H157 H 0.61611 0.61487 0.52966
 H158 H 0.57627 0.58354 0.49463
 H159 H 0.56858 0.52450 0.59833
 H160 H 0.60874 0.55555 0.63308
 C161 C -0.21277 0.32364 0.15349
 C162 C -0.19620 0.34644 0.13224
 C163 C -0.16914 0.36102 0.14900
 C164 C -0.15885 0.35216 0.18754
 C165 C -0.17538 0.32938 0.20875
 C166 C -0.20242 0.31474 0.19191
 C167 C -0.15101 0.38366 0.12447
 C168 C -0.13128 0.40492 0.14026
 C169 C -0.11057 0.42557 0.11583
 C170 C -0.09784 0.45207 0.13380
 C171 C -0.07614 0.47085 0.11293
 C172 C -0.06650 0.46339 0.07364
 C173 C -0.07963 0.43715 0.05539
 C174 C -0.10129 0.41838 0.07624
 H175 H -0.23345 0.31275 0.13961
 H176 H -0.20442 0.35258 0.10245
 H177 H -0.13749 0.36200 0.20104
 H178 H -0.16662 0.32291 0.23815
 H179 H -0.15454 0.38281 0.09229
 H180 H -0.13021 0.40766 0.17255
 H181 H -0.10435 0.45802 0.16436
 H182 H -0.06640 0.49086 0.12790
 H183 H -0.07253 0.43061 0.02526
 H184 H -0.10965 0.39774 0.06161
 C185 C 0.32423 0.83071 0.71538
 C186 C 0.34213 0.85396 0.69700
 C187 C 0.33426 0.86417 0.65832
 C188 C 0.30714 0.85148 0.63897
 C189 C 0.28915 0.82822 0.65742
 C190 C 0.29777 0.81730 0.69560
 C191 C 0.35514 0.88768 0.63924
 C192 C 0.35840 0.89052 0.59931
 C193 C 0.38235 0.91119 0.58014
 C194 C 0.39362 0.90381 0.54160
 C195 C 0.41732 0.92167 0.52301
 C196 C 0.43010 0.94758 0.54241
 C197 C 0.41808 0.95563 0.58048
 C198 C 0.39439 0.93765 0.59917
 H199 H 0.33138 0.82300 0.74495
 H200 H 0.36270 0.86353 0.71272
 H201 H 0.29961 0.85947 0.60972
 H202 H 0.26867 0.81862 0.64160
 H203 H 0.37050 0.90102 0.65890
 H204 H 0.34526 0.87515 0.57971
 H205 H 0.38455 0.88373 0.52612
 H206 H 0.42584 0.91495 0.49353
 H207 H 0.42721 0.97564 0.59601
 H208 H 0.38554 0.94467 0.62833
 C209 C -0.22099 0.66913 -0.15043
 C210 C -0.20322 0.64788 -0.12827
 C211 C -0.16974 0.64566 -0.13349
 C212 C -0.15438 0.66440 -0.16210
 C213 C -0.17220 0.68514 -0.18483
 C214 C -0.20563 0.68786 -0.17903
 C215 C -0.15132 0.62311 -0.10986
 C216 C -0.12173 0.62930 -0.09591
 C217 C -0.10238 0.60693 -0.07321
 C218 C -0.08129 0.61754 -0.04338
 C219 C -0.06125 0.59721 -0.02298
 C220 C -0.06129 0.56596 -0.03286
 C221 C -0.08241 0.55529 -0.06278
 C222 C -0.10298 0.57556 -0.08258
 H223 H -0.24678 0.67061 -0.14561
 H224 H -0.21555 0.63343 -0.10663
 H225 H -0.12868 0.66267 -0.16742
 H226 H -0.15975 0.69926 -0.20671
 H227 H -0.16294 0.60160 -0.10234
 H228 H -0.11167 0.65204 -0.09994
 H229 H -0.08025 0.64166 -0.03595
 H230 H -0.04502 0.60610 -0.00030
 H231 H -0.08285 0.53132 -0.07104
 H232 H -0.11850 0.56684 -0.10611
 C233 C 0.33606 1.18787 0.29322
 C234 C 0.35779 1.16836 0.31217
 C235 C 0.34694 1.14699 0.34059
 C236 C 0.31391 1.14566 0.35018
 C237 C 0.29221 1.16572 0.33186
 C238 C 0.30312 1.18699 0.30318
 C239 C 0.37089 1.12786 0.36146
 C240 C 0.36503 1.09893 0.37262
 C241 C 0.38955 1.08048 0.39362
 C242 C 0.39242 1.04919 0.38497
 C243 C 0.41569 1.03148 0.40442
 C244 C 0.43585 1.04465 0.43365
 C245 C 0.43248 1.07584 0.44284
 C246 C 0.40970 1.09362 0.42287
 H247 H 0.34519 1.20422 0.27149
 H248 H 0.38318 1.16994 0.30462
 H249 H 0.30501 1.12981 0.37266
 H250 H 0.26695 1.16464 0.34013
 H251 H 0.39474 1.13753 0.36599
 H252 H 0.34247 1.08802 0.36439
 H253 H 0.37693 1.03857 0.36276
 H254 H 0.41760 1.00742 0.39703
 H255 H 0.44762 1.08658 0.46532
 H256 H 0.40751 1.11755 0.43082
 C257 C 1.16243 -0.18812 -0.21625
 C258 C 1.14133 -0.16852 -0.19616
 C259 C 1.15093 -0.15367 -0.16084
 C260 C 1.18184 -0.15912 -0.14536
 C261 C 1.20270 -0.17940 -0.16477
 C262 C 1.19332 -0.19416 -0.20060
 C263 C 1.12770 -0.13399 -0.13954
 C264 C 1.13631 -0.10761 -0.12206
 C265 C 1.11260 -0.08837 -0.10080
 C266 C 1.11361 -0.05648 -0.10538
 C267 C 1.09092 -0.03805 -0.08589
 C268 C 1.06758 -0.05122 -0.06049
 C269 C 1.06717 -0.08309 -0.05511
 C270 C 1.08928 -0.10153 -0.07536
 H271 H 1.15416 -0.19905 -0.24360
 H272 H 1.11748 -0.16477 -0.20838
 H273 H 1.18956 -0.14834 -0.11767
 H274 H 1.22621 -0.18339 -0.15171
 H275 H 1.10249 -0.14069 -0.14001
 H276 H 1.16080 -0.09915 -0.12521
 H277 H 1.13158 -0.04592 -0.12463
 H278 H 1.09184 -0.01351 -0.09028
 H279 H 1.04941 -0.09380 -0.03570
 H280 H 1.08842 -0.12605 -0.07075
 C281 C 0.66247 0.30602 0.29543
 C282 C 0.64145 0.32572 0.31546
 C283 C 0.65330 0.34724 0.34302
 C284 C 0.68661 0.34844 0.35079
 C285 C 0.70760 0.32827 0.33137
 C286 C 0.69571 0.30692 0.30344
 C287 C 0.63024 0.36697 0.36466
 C288 C 0.63705 0.39586 0.37517
 C289 C 0.61336 0.41523 0.39638
 C290 C 0.61133 0.44643 0.38698
 C291 C 0.58854 0.46497 0.40608
 C292 C 0.56802 0.45272 0.43573
 C293 C 0.57076 0.42166 0.44594
 C294 C 0.59306 0.40304 0.42630
 H295 H 0.65263 0.28961 0.27430
 H296 H 0.61584 0.32424 0.30930
 H297 H 0.69633 0.36437 0.37260
 H298 H 0.73311 0.32938 0.33816
 H299 H 0.60626 0.35788 0.37017
 H300 H 0.65970 0.40619 0.36594
 H301 H 0.62697 0.45632 0.36426
 H302 H 0.58710 0.48889 0.39786
 H303 H 0.55530 0.41162 0.46872
 H304 H 0.59465 0.37919 0.43482
 C305 C 0.78137 -0.17584 -0.15130
 C306 C 0.79968 -0.15438 -0.13002
 C307 C 0.82921 -0.14371 -0.14528
 C308 C 0.84012 -0.15495 -0.18251
 C309 C 0.82190 -0.17651 -0.20379
 C310 C 0.79239 -0.18753 -0.18831
 C311 C 0.84883 -0.12258 -0.12034
 C312 C 0.87141 -0.10373 -0.13546
 C313 C 0.89235 -0.08408 -0.11010
 C314 C 0.90648 -0.05786 -0.12712
 C315 C 0.92781 -0.03972 -0.10488
 C316 C 0.93580 -0.04764 -0.06521
 C317 C 0.92152 -0.07380 -0.04806
 C318 C 0.90009 -0.09187 -0.07025
 H319 H 0.75884 -0.18364 -0.13822
 H320 H 0.79084 -0.14626 -0.10129
 H321 H 0.86320 -0.14797 -0.19477
 H322 H 0.83137 -0.18497 -0.23203
 H323 H 0.84378 -0.12216 -0.08842
 H324 H 0.87431 -0.10188 -0.16771
 H325 H 0.90116 -0.05152 -0.15785
 H326 H 0.93852 -0.01980 -0.11906
 H327 H 0.92736 -0.08068 -0.01769
 H328 H 0.89053 -0.11240 -0.05643
 C329 C 0.28524 0.32061 0.35000
 C330 C 0.30377 0.34201 0.37106
 C331 C 0.33115 0.35541 0.35336
 C332 C 0.33970 0.34686 0.31396
 C333 C 0.32117 0.32539 0.29290
 C334 C 0.29385 0.31188 0.31078
 C335 C 0.35109 0.37662 0.37782
 C336 C 0.37163 0.39721 0.36208
 C337 C 0.39274 0.41717 0.38684
 C338 C 0.40485 0.44434 0.37001
 C339 C 0.42612 0.46301 0.39162
 C340 C 0.43598 0.45472 0.43048
 C341 C 0.42376 0.42758 0.44743
 C342 C 0.40248 0.40895 0.42585
 H343 H 0.26441 0.31059 0.36473
 H344 H 0.29679 0.34798 0.40145
 H345 H 0.36115 0.35590 0.29964
 H346 H 0.32859 0.31898 0.26284
 H347 H 0.34791 0.37560 0.41008
 H348 H 0.37260 0.40034 0.32984
 H349 H 0.39799 0.45107 0.33990
 H350 H 0.43521 0.48369 0.37760
 H351 H 0.43111 0.42039 0.47715
 H352 H 0.39459 0.38773 0.43946
 C353 C 0.17506 0.66834 -0.21986
 C354 C 0.15643 0.64639 -0.19982
 C355 C 0.16454 0.63694 -0.16085
 C356 C 0.19262 0.64894 -0.14296
 C357 C 0.21129 0.67088 -0.16303
 C358 C 0.20246 0.68116 -0.20147
 C359 C 0.14308 0.61478 -0.13999
 C360 C 0.14075 0.61291 -0.09983
 C361 C 0.11711 0.59292 -0.07881
 C362 C 0.10759 0.60074 -0.03966
 C363 C 0.08454 0.58326 -0.01918
 C364 C 0.07065 0.55733 -0.03731
 C365 C 0.08087 0.54892 -0.07607
 C366 C 0.10392 0.56645 -0.09658
 H367 H 0.16768 0.67561 -0.24954
 H368 H 0.13514 0.63727 -0.21447
 H369 H 0.20037 0.64145 -0.11358
 H370 H 0.23246 0.68006 -0.14820
 H371 H 0.12684 0.60147 -0.15854
 H372 H 0.15484 0.62833 -0.08135
 H373 H 0.11759 0.62083 -0.02510
 H374 H 0.07735 0.59028 0.01073
 H375 H 0.07089 0.52888 -0.09072
 H376 H 0.11142 0.55901 -0.12614
 C377 C 0.71947 1.17580 0.34961
 C378 C 0.70172 1.15472 0.37238
 C379 C 0.67397 1.14076 0.35659
 C380 C 0.66424 1.14838 0.31739
 C381 C 0.68187 1.16952 0.29464
 C382 C 0.70959 1.18379 0.31052
 C383 C 0.65469 1.11995 0.38252
 C384 C 0.63509 1.09818 0.36781
 C385 C 0.61387 1.07863 0.39307
 C386 C 0.60228 1.05105 0.37691
 C387 C 0.58030 1.03298 0.39830
 C388 C 0.56913 1.04222 0.43630
 C389 C 0.58104 1.06962 0.45282
 C390 C 0.60313 1.08770 0.43143
 H391 H 0.74059 1.18624 0.36306
 H392 H 0.70958 1.14943 0.40261
 H393 H 0.64244 1.13889 0.30454
 H394 H 0.67327 1.17508 0.26482
 H395 H 0.65744 1.12237 0.41470
 H396 H 0.63485 1.09388 0.33578
 H397 H 0.60995 1.04363 0.34735
 H398 H 0.57157 1.01204 0.38462
 H399 H 0.57274 1.07749 0.48190
 H400 H 0.61074 1.10919 0.44451
 C401 C 0.15492 0.30952 0.21435
 C402 C 0.13417 0.32959 0.19454
 C403 C 0.14598 0.34938 0.16471
 C404 C 0.17889 0.34848 0.15454
 C405 C 0.19951 0.32799 0.17376
 C406 C 0.18773 0.30832 0.20385
 C407 C 0.12328 0.36961 0.14336
 C408 C 0.13158 0.39759 0.13048
 C409 C 0.10862 0.41771 0.10944
 C410 C 0.10930 0.44926 0.11704
 C411 C 0.08752 0.46871 0.09791
 C412 C 0.06534 0.45703 0.06991
 C413 C 0.06532 0.42555 0.06140
 C414 C 0.08659 0.40601 0.08123
 H415 H 0.14515 0.29442 0.23717
 H416 H 0.10884 0.32974 0.20260
 H417 H 0.18853 0.36299 0.13100
 H418 H 0.22467 0.32747 0.16499
 H419 H 0.09858 0.36179 0.13995
 H420 H 0.15520 0.40679 0.13763
 H421 H 0.12630 0.45876 0.13839
 H422 H 0.08818 0.49293 0.10480
 H423 H 0.04846 0.41598 0.03993
 H424 H 0.08607 0.38183 0.07415
 C425 C 0.70716 0.81403 0.65203
 C426 C 0.68916 0.83357 0.62769
 C427 C 0.66045 0.84656 0.64189
 C428 C 0.64982 0.83925 0.68097
 C429 C 0.66776 0.81958 0.70528
 C430 C 0.69661 0.80672 0.69107
 C431 C 0.64164 0.86644 0.61459
 C432 C 0.62132 0.88803 0.62777
 C433 C 0.60207 0.90778 0.60078
 C434 C 0.59065 0.93572 0.61571
 C435 C 0.57112 0.95443 0.59214
 C436 C 0.56225 0.94548 0.55311
 C437 C 0.57381 0.91758 0.53796
 C438 C 0.59347 0.89887 0.56154
 H439 H 0.72917 0.80437 0.64004
 H440 H 0.69774 0.83859 0.59761
 H441 H 0.62729 0.84801 0.69258
 H442 H 0.65882 0.81420 0.73507
 H443 H 0.64591 0.86397 0.58266
 H444 H 0.61949 0.89243 0.65971
 H445 H 0.59671 0.94303 0.64588
 H446 H 0.56253 0.97570 0.60484
 H447 H 0.56718 0.90990 0.50814
 H448 H 0.60098 0.87711 0.54931
 C449 C 0.84455 0.18954 0.20445
 C450 C 0.86554 0.17066 0.18294
 C451 C 0.85365 0.15053 0.15360
 C452 C 0.82034 0.14983 0.14577
 C453 C 0.79942 0.16913 0.16674
 C454 C 0.81133 0.18921 0.19625
 C455 C 0.87661 0.13177 0.13024
 C456 C 0.86937 0.10368 0.11676
 C457 C 0.89268 0.08510 0.09372
 C458 C 0.89374 0.05340 0.09993
 C459 C 0.91592 0.03540 0.07897
 C460 C 0.93680 0.04871 0.05053
 C461 C 0.93506 0.08033 0.04343
 C462 C 0.91337 0.09842 0.06504
 H463 H 0.85443 0.20498 0.22677
 H464 H 0.89114 0.17174 0.18923
 H465 H 0.81054 0.13505 0.12267
 H466 H 0.77394 0.16847 0.15970
 H467 H 0.90074 0.14081 0.12574
 H468 H 0.84652 0.09322 0.12485
 H469 H 0.87779 0.04265 0.12162
 H470 H 0.91662 0.01104 0.08483
 H471 H 0.95087 0.09117 0.02168
 H472 H 0.91254 0.12274 0.05899
 C473 C 0.34143 0.69116 0.69860
 C474 C 0.36263 0.67284 0.67658
 C475 C 0.35115 0.65412 0.64544
 C476 C 0.31807 0.65433 0.63627
 C477 C 0.29696 0.67311 0.65776
 C478 C 0.30843 0.69170 0.68914
 C479 C 0.37430 0.63571 0.62191
 C480 C 0.36689 0.60810 0.60700
 C481 C 0.39050 0.58959 0.58439
 C482 C 0.39107 0.55781 0.59002
 C483 C 0.41363 0.53986 0.56967
 C484 C 0.43539 0.55328 0.54238
 C485 C 0.43413 0.58499 0.53575
 C486 C 0.41206 0.60304 0.55683
 H487 H 0.35098 0.70548 0.72238
 H488 H 0.38807 0.67320 0.68393
 H489 H 0.30862 0.64065 0.61182
 H490 H 0.27166 0.67316 0.64973
 H491 H 0.39870 0.64444 0.61873
 H492 H 0.34367 0.59785 0.61380
 H493 H 0.37446 0.54697 0.61085
 H494 H 0.41396 0.51543 0.57512
 H495 H 0.45064 0.59589 0.51487
 H496 H 0.41164 0.62745 0.55129
   
