data_POSCAR
  _audit_creation_date              2014-09-24
  _audit_creation_method            'ToBaCCo'
  _symmetry_space_group_name_H-M    'P1'
  _symmetry_Int_Tables_number       1
  _symmetry_cell_setting            triclinic
  loop_
  _symmetry_equiv_pos_as_xyz
 x,y,z
_cell_length_a 20.7772
_cell_length_b 20.6948
_cell_length_c 33.1681
_cell_angle_alpha 77.647300
_cell_angle_beta 93.184700
_cell_angle_gamma 94.602000
loop_
  _atom_site_label
  _atom_site_type_symbol
  _atom_site_fract_x
  _atom_site_fract_y
  _atom_site_fract_z
O1 O 0.00674 0.54307 1.03753
 O2 O 0.01560 0.45000 0.95379
 O3 O 0.00772 0.57709 0.95916
 O4 O 0.03402 0.42689 1.03603
 O5 O -0.07019 0.39614 1.03467
 O6 O -0.09761 0.55350 0.95922
 O7 O -0.09022 0.43024 0.95443
 O8 O -0.09782 0.51422 1.03963
 Cu9 Cu 0.02585 0.50045 0.99522
 Cu10 Cu -0.09930 0.47102 0.99698
 C11 C -0.04781 0.54287 1.05340
 C12 C -0.03659 0.42481 0.93966
 C13 C -0.04879 0.59247 0.94638
 C14 C -0.01277 0.38609 1.04904
 O15 O 0.59374 0.00762 0.54090
 O16 O 0.45877 -0.05934 0.48369
 O17 O 0.58357 -0.03273 0.47220
 O18 O 0.47059 -0.00857 0.55006
 O19 O 0.46015 0.09334 0.51431
 O20 O 0.56424 0.06647 0.43555
 O21 O 0.44012 0.04086 0.44849
 O22 O 0.58272 0.10792 0.50315
 Cu23 Cu 0.52746 -0.03361 0.51500
 Cu24 Cu 0.50947 0.08691 0.47150
 C25 C 0.61245 0.06867 0.53172
 C26 C 0.42564 -0.02143 0.45680
 C27 C 0.59452 0.01434 0.44112
 C28 C 0.44857 0.04824 0.54595
 C29 C -0.02868 -0.16004 0.24228
 C30 C -0.08041 -0.14536 0.27007
 C31 C -0.06275 -0.09365 0.28864
 C32 C 0.00524 -0.06155 0.27830
 C33 C -0.01518 -0.09329 0.21217
 C34 C 0.00295 -0.04202 0.23093
 C35 C 0.03236 -0.16967 0.27034
 C36 C 0.05021 -0.11877 0.28962
 H37 H -0.12997 -0.16568 0.26996
 H38 H 0.01882 -0.01953 0.29369
 H39 H -0.02153 -0.08686 0.17894
 H40 H 0.05910 -0.21351 0.27417
 C41 C 0.10812 0.08446 0.72134
 C42 C 0.08699 0.01551 0.74663
 C43 C 0.02546 0.00971 0.76003
 C44 C -0.00947 0.07418 0.74675
 C45 C 0.05624 0.09925 0.68658
 C46 C -0.00491 0.09379 0.69978
 C47 C 0.09686 0.13148 0.75019
 C48 C 0.03500 0.12719 0.76273
 H49 H 0.11868 -0.02474 0.75374
 H50 H -0.05953 0.07027 0.75740
 H51 H 0.06727 0.11405 0.65420
 H52 H 0.13337 0.16694 0.75865
 C53 C -0.02163 -0.34094 0.12762
 C54 C -0.07342 -0.36221 0.15239
 C55 C -0.11698 -0.41445 0.14706
 C56 C -0.10723 -0.44568 0.11460
 C57 C -0.05432 -0.42476 0.08840
 C58 C -0.01038 -0.37202 0.09541
 O59 O 0.01233 -0.28867 0.13708
 C60 C -0.01885 -0.27685 0.16839
 C61 C -0.07143 -0.32057 0.17900
 C62 C -0.11132 -0.31685 0.21054
 C63 C -0.09707 -0.26529 0.23174
 C64 C -0.04428 -0.21762 0.22057
 C65 C -0.00380 -0.22514 0.18897
 H66 H -0.15764 -0.42991 0.16677
 H67 H -0.14116 -0.48613 0.10978
 H68 H 0.02991 -0.35443 0.07565
 H69 H -0.15204 -0.35247 0.21860
 H70 H -0.12718 -0.26380 0.25694
 H71 H 0.03774 -0.19093 0.18023
 C72 C -0.02294 0.21424 0.11750
 C73 C 0.03245 0.21836 0.14184
 C74 C 0.07379 0.27524 0.13786
 C75 C 0.05775 0.33013 0.10729
 C76 C 0.00087 0.32755 0.08167
 C77 C -0.04045 0.26877 0.08717
 O78 O -0.05451 0.15478 0.12589
 C79 C -0.01822 0.12093 0.15616
 C80 C 0.03534 0.15778 0.16714
 C81 C 0.07994 0.13241 0.19812
 C82 C 0.06874 0.06626 0.21883
 C83 C 0.01419 0.02701 0.20804
 C84 C -0.02987 0.05474 0.17610
 H85 H 0.11720 0.27711 0.15731
 H86 H 0.08973 0.37479 0.10365
 H87 H -0.08380 0.26513 0.06788
 H88 H 0.12184 0.16245 0.20607
 H89 H 0.10308 0.04536 0.24274
 H90 H -0.07232 0.02599 0.16755
 C91 C 0.32544 0.03866 0.62701
 C92 C 0.33493 0.10186 0.63426
 C93 C 0.38146 0.14824 0.61483
 C94 C 0.41943 0.12896 0.58646
 C95 C 0.41071 0.06416 0.57831
 C96 C 0.36375 0.01787 0.59945
 O97 O 0.27487 0.00452 0.64600
 C98 C 0.25219 0.04711 0.66560
 C99 C 0.28742 0.10717 0.65956
 C100 C 0.26934 0.16064 0.67438
 C101 C 0.21233 0.15210 0.69621
 C102 C 0.17489 0.09032 0.70354
 C103 C 0.19547 0.03740 0.68738
 H104 H 0.38714 0.19805 0.62044
 H105 H 0.45525 0.16479 0.57041
 H106 H 0.35512 -0.03131 0.59303
 H107 H 0.29676 0.20817 0.66793
 H108 H 0.19632 0.19499 0.70541
 H109 H 0.16647 -0.00895 0.68965
 C110 C -0.24755 0.07015 0.60568
 C111 C -0.22075 0.13360 0.59261
 C112 C -0.24839 0.17900 0.56047
 C113 C -0.30555 0.15781 0.54078
 C114 C -0.33314 0.09174 0.55299
 C115 C -0.30348 0.04788 0.58639
 O116 O -0.21366 0.03412 0.63617
 C117 C -0.16396 0.07551 0.64244
 C118 C -0.16560 0.13699 0.61647
 C119 C -0.11625 0.18662 0.61650
 C120 C -0.06320 0.17202 0.64428
 C121 C -0.06115 0.10912 0.67145
 C122 C -0.11246 0.06050 0.67073
 H123 H -0.22643 0.22873 0.55063
 H124 H -0.32711 0.19241 0.51542
 H125 H -0.32262 -0.00284 0.59693
 H126 H -0.11801 0.23436 0.59549
 H127 H -0.02380 0.20946 0.64477
 H128 H -0.11121 0.01172 0.69057
 C129 C -0.00892 -0.24504 0.87710
 C130 C -0.06914 -0.22799 0.86115
 C131 C -0.12502 -0.26815 0.87255
 C132 C -0.11836 -0.32827 0.90141
 C133 C -0.05637 -0.34721 0.91806
 C134 C -0.00112 -0.30419 0.90544
 O135 O 0.03823 -0.20062 0.86256
 C136 C 0.00730 -0.15435 0.83665
 C137 C -0.05845 -0.16845 0.83449
 C138 C -0.09957 -0.12638 0.80879
 C139 C -0.07169 -0.06776 0.78439
 C140 C -0.00379 -0.05219 0.78607
 C141 C 0.03587 -0.09648 0.81300
 H142 H -0.17205 -0.25381 0.85966
 H143 H -0.16142 -0.36001 0.91045
 H144 H 0.04714 -0.31612 0.91720
 H145 H -0.15120 -0.13842 0.80734
 H146 H -0.10318 -0.03538 0.76385
 H147 H 0.08758 -0.08623 0.81602
 C148 C 0.01114 0.31456 0.87041
 C149 C -0.04511 0.31136 0.84676
 C150 C -0.09816 0.34592 0.85064
 C151 C -0.09362 0.38461 0.88064
 C152 C -0.03655 0.38844 0.90592
 C153 C 0.01711 0.35366 0.90023
 O154 O 0.05480 0.27577 0.86254
 C155 C 0.02528 0.24762 0.83337
 C156 C -0.03591 0.26786 0.82271
 C157 C -0.07606 0.24395 0.79349
 C158 C -0.05213 0.19731 0.77425
 C159 C 0.01078 0.17518 0.78461
 C160 C 0.05011 0.20104 0.81463
 H161 H -0.14198 0.34224 0.83179
 H162 H -0.13502 0.41101 0.88454
 H163 H 0.06084 0.35481 0.91947
 H164 H -0.12404 0.26082 0.78565
 H165 H -0.08232 0.17966 0.75065
 H166 H 0.09812 0.18491 0.82345
 C167 C -0.27527 -0.04590 0.38518
 C168 C -0.25307 0.01335 0.36090
 C169 C -0.27999 0.07281 0.36008
 C170 C -0.33151 0.07152 0.38573
 C171 C -0.35474 0.01152 0.41204
 C172 C -0.32618 -0.04826 0.41155
 O173 O -0.24296 -0.09668 0.38068
 C174 C -0.19938 -0.06857 0.35319
 C175 C -0.20331 -0.00123 0.34046
 C176 C -0.16177 0.03852 0.31248
 C177 C -0.11442 0.00751 0.29656
 C178 C -0.11007 -0.06206 0.30837
 C179 C -0.15320 -0.10068 0.33718
 H180 H -0.26172 0.11870 0.34056
 H181 H -0.35215 0.11792 0.38577
 H182 H -0.34259 -0.09476 0.43125
 H183 H -0.16582 0.09149 0.30312
 H184 H -0.08237 0.03748 0.27414
 H185 H -0.15078 -0.15387 0.34671
 C186 C 0.27676 -0.04314 0.38796
 C187 C 0.26560 -0.11098 0.39788
 C188 C 0.30438 -0.15169 0.42613
 C189 C 0.35686 -0.12134 0.44508
 C190 C 0.36986 -0.05130 0.43561
 C191 C 0.32896 -0.01168 0.40646
 O192 O 0.23389 -0.01392 0.36013
 C193 C 0.19506 -0.06452 0.35241
 C194 C 0.21249 -0.12488 0.37473
 C195 C 0.17885 -0.18439 0.37141
 C196 C 0.12527 -0.18173 0.34362
 C197 C 0.10635 -0.12017 0.31961
 C198 C 0.14169 -0.06068 0.32468
 H199 H 0.29459 -0.20499 0.43336
 H200 H 0.38733 -0.15274 0.46722
 H201 H 0.33733 0.04176 0.39851
 H202 H 0.19333 -0.23127 0.38957
 H203 H 0.09823 -0.22778 0.34132
 H204 H 0.12909 -0.01282 0.30728
   
