data_POSCAR
  _audit_creation_date              2014-09-24
  _audit_creation_method            'ToBaCCo'
  _symmetry_space_group_name_H-M    'P1'
  _symmetry_Int_Tables_number       1
  _symmetry_cell_setting            triclinic
  loop_
  _symmetry_equiv_pos_as_xyz
 x,y,z
_cell_length_a 59.1908
_cell_length_b 28.0868
_cell_length_c 25.9401
_cell_angle_alpha 89.659300
_cell_angle_beta 89.880400
_cell_angle_gamma 90.003000
loop_
  _atom_site_label
  _atom_site_type_symbol
  _atom_site_fract_x
  _atom_site_fract_y
  _atom_site_fract_z
C1 C 0.70382 0.28378 0.54593
 C2 C 0.69318 0.29019 0.49812
 C3 C 0.70374 0.27859 0.45183
 C4 C 0.72604 0.26083 0.45220
 C5 C 0.73756 0.25475 0.49971
 C6 C 0.72645 0.26625 0.54686
 C7 C 0.73912 0.26462 0.59259
 C8 C 0.76151 0.25003 0.59274
 C9 C 0.77257 0.23604 0.54723
 C10 C 0.76059 0.23937 0.49977
 C11 C 0.73722 0.24996 0.40612
 C12 C 0.75970 0.23614 0.40596
 C13 C 0.77187 0.23004 0.45213
 C14 C 0.79540 0.21926 0.45213
 C15 C 0.80686 0.21862 0.49942
 C16 C 0.79589 0.22390 0.54703
 H17 H 0.73247 0.27723 0.62875
 H18 H 0.77031 0.25302 0.62895
 H19 H 0.72894 0.25343 0.36918
 H20 H 0.76737 0.23270 0.36853
 H21 H 0.67600 0.30361 0.49665
 H22 H 0.82463 0.20918 0.49941
 C23 C 0.29341 0.70972 0.45468
 C24 C 0.30453 0.70389 0.50173
 C25 C 0.29394 0.71367 0.54866
 C26 C 0.27153 0.73125 0.54880
 C27 C 0.25994 0.73775 0.50136
 C28 C 0.27086 0.72644 0.45409
 C29 C 0.25926 0.73400 0.40758
 C30 C 0.23752 0.75270 0.40722
 C31 C 0.22667 0.76570 0.45327
 C32 C 0.23774 0.75733 0.50102
 C33 C 0.26090 0.74510 0.59470
 C34 C 0.23924 0.76426 0.59442
 C35 C 0.22694 0.76968 0.54826
 C36 C 0.20501 0.79074 0.54721
 C37 C 0.19487 0.79983 0.49925
 C38 C 0.20505 0.78691 0.45283
 H39 H 0.26697 0.72626 0.37076
 H40 H 0.22945 0.75746 0.37019
 H41 H 0.26950 0.74277 0.63136
 H42 H 0.23285 0.77656 0.63094
 H43 H 0.32182 0.69102 0.50183
 H44 H 0.17815 0.81566 0.49774
 C45 C 0.20110 0.23563 -0.45217
 C46 C 0.18969 0.22716 -0.49817
 C47 C 0.20074 0.22668 -0.54624
 C48 C 0.22434 0.23785 -0.54791
 C49 C 0.23593 0.24901 -0.50134
 C50 C 0.22417 0.24810 -0.45356
 C51 C 0.23546 0.26186 -0.40853
 C52 C 0.25806 0.27486 -0.40969
 C53 C 0.27052 0.27380 -0.45579
 C54 C 0.25926 0.26203 -0.50248
 C55 C 0.23651 0.24114 -0.59449
 C56 C 0.25939 0.25202 -0.59541
 C57 C 0.27112 0.26409 -0.55031
 C58 C 0.29453 0.27609 -0.55101
 C59 C 0.30538 0.28427 -0.50382
 C60 C 0.29377 0.28552 -0.45693
 H61 H 0.22676 0.26398 -0.37190
 H62 H 0.26541 0.28617 -0.37379
 H63 H 0.22880 0.23639 -0.63158
 H64 H 0.26759 0.25014 -0.63246
 H65 H 0.17199 0.21735 -0.49567
 H66 H 0.32319 0.29343 -0.50360
 C67 C -0.29359 0.70093 -0.45342
 C68 C -0.30179 0.68465 -0.50081
 C69 C -0.29259 0.69966 -0.54806
 C70 C -0.27237 0.72708 -0.54785
 C71 C -0.26254 0.74075 -0.50015
 C72 C -0.27339 0.72839 -0.45281
 C73 C -0.26242 0.73928 -0.40623
 C74 C -0.24162 0.76190 -0.40570
 C75 C -0.23052 0.77402 -0.45166
 C76 C -0.24106 0.76407 -0.49962
 C77 C -0.26028 0.73625 -0.59355
 C78 C -0.23942 0.75885 -0.59305
 C79 C -0.22940 0.77394 -0.54680
 C80 C -0.20713 0.79369 -0.54537
 C81 C -0.19722 0.80177 -0.49704
 C82 C -0.20840 0.79258 -0.45083
 H83 H -0.26890 0.72787 -0.36928
 H84 H -0.23388 0.76782 -0.36855
 H85 H -0.26594 0.72314 -0.63037
 H86 H -0.23086 0.76113 -0.62962
 H87 H -0.31726 0.66392 -0.50107
 H88 H -0.18032 0.81660 -0.49475
 O89 O -0.03128 0.91788 0.09373
 O90 O -0.05658 0.95950 0.04387
 C91 C -0.05167 0.92991 0.08076
 O92 O 0.03073 1.08753 0.08892
 O93 O 0.05639 1.04278 0.04371
 C94 C 0.05122 1.07507 0.07731
 O95 O -0.03217 1.08201 0.09259
 O96 O -0.05704 1.03846 0.04409
 C97 C -0.05242 1.06884 0.08008
 O98 O 0.03170 0.91383 0.08885
 O99 O 0.05675 0.96071 0.04369
 C100 C 0.05203 0.92755 0.07711
 Zr101 Zr 0.00016 0.93983 0.06297
 O102 O 0.00166 0.93589 0.14435
 O103 O -0.00058 0.86492 0.05611
 Zr104 Zr -0.00052 1.05990 0.06387
 O105 O -0.00028 1.05353 0.14509
 O106 O -0.00011 1.13522 0.06824
 O107 O -0.02035 0.99935 0.07320
 O108 O 0.01945 1.00036 0.07335
 O109 O 0.03268 0.91492 -0.09027
 O110 O 0.05715 0.96188 -0.04433
 C111 C 0.05285 0.92909 -0.07789
 O112 O -0.03149 1.08321 -0.09590
 O113 O -0.05672 1.03930 -0.04802
 C114 C -0.05184 1.07011 -0.08381
 O115 O 0.03122 1.08972 -0.08964
 O116 O 0.05659 1.04396 -0.04439
 C117 C 0.05163 1.07720 -0.07750
 O118 O -0.03065 0.91824 -0.09688
 O119 O -0.05620 0.96022 -0.04831
 C120 C -0.05112 0.93046 -0.08456
 Zr121 Zr 0.00068 0.94079 -0.06609
 O122 O 0.00358 0.93992 -0.14742
 O123 O -0.00120 0.86553 -0.06403
 Zr124 Zr -0.00010 1.06124 -0.06562
 O125 O 0.00277 1.06266 -0.14698
 O126 O -0.00274 1.13636 -0.06396
 Zr127 Zr -0.03395 0.99978 -0.00186
 Zr128 Zr 0.03391 1.00162 -0.00075
 O129 O 0.01991 1.00170 -0.07527
 O130 O -0.01978 1.00061 -0.07655
 O131 O 0.02087 0.93178 -0.00119
 O132 O -0.02026 1.06881 -0.00119
 O133 O -0.01955 0.93125 -0.00181
 O134 O 0.01988 1.07053 -0.00055
 H135 H 0.02931 1.00032 0.10415
 H136 H -0.03088 1.09603 -0.00160
 H137 H 0.03007 1.00231 -0.10569
 H138 H -0.02978 0.90333 -0.00187
 H139 H -0.01146 1.14791 0.04390
 H140 H 0.00811 1.14793 -0.03790
 H141 H -0.00923 1.04193 -0.16093
 H142 H -0.00818 0.96138 -0.16136
 H143 H 0.01078 0.85409 -0.04045
 H144 H -0.00114 0.85221 0.09180
 H145 H -0.00661 0.96387 0.15765
 H146 H -0.00012 1.08646 0.15859
 O147 O 0.46865 0.41380 0.09338
 O148 O 0.44367 0.45770 0.04496
 C149 C 0.44836 0.42671 0.08073
 O150 O 0.53242 0.58161 0.09325
 O151 O 0.55715 0.53612 0.04634
 C152 C 0.55267 0.56798 0.08079
 O153 O 0.46920 0.57761 0.09765
 O154 O 0.44401 0.53674 0.04723
 C155 C 0.44884 0.56570 0.08442
 O156 O 0.53155 0.40809 0.08864
 O157 O 0.55693 0.45437 0.04381
 C158 C 0.55197 0.42101 0.07671
 Zr159 Zr 0.50015 0.43554 0.06340
 O160 O 0.50181 0.43124 0.14474
 O161 O 0.49731 0.36055 0.05840
 Zr162 Zr 0.50067 0.55585 0.06729
 O163 O 0.50150 0.54955 0.14852
 O164 O 0.49860 0.63103 0.07020
 O165 O 0.48027 0.49579 0.07513
 O166 O 0.51998 0.49506 0.07519
 O167 O 0.53240 0.41395 -0.09202
 O168 O 0.55727 0.45798 -0.04406
 C169 C 0.55269 0.42666 -0.07895
 O170 O 0.46983 0.58348 -0.09222
 O171 O 0.44432 0.53958 -0.04505
 C172 C 0.44939 0.57061 -0.08047
 O173 O 0.53312 0.58609 -0.08676
 O174 O 0.55759 0.53825 -0.04141
 C175 C 0.55329 0.57160 -0.07467
 O176 O 0.46944 0.42355 -0.10068
 O177 O 0.44397 0.46074 -0.04754
 C178 C 0.44902 0.43450 -0.08693
 Zr179 Zr 0.50065 0.43933 -0.06557
 O180 O 0.50322 0.43409 -0.14658
 O181 O 0.49710 0.36435 -0.06137
 Zr182 Zr 0.50114 0.56022 -0.06200
 O183 O 0.50374 0.56553 -0.14324
 O184 O 0.49891 0.63526 -0.05610
 Zr185 Zr 0.46667 0.49831 0.00014
 Zr186 Zr 0.53437 0.49710 0.00101
 O187 O 0.52031 0.49970 -0.07343
 O188 O 0.48101 0.50055 -0.07445
 O189 O 0.52076 0.42775 -0.00112
 O190 O 0.48101 0.56687 0.00262
 O191 O 0.48033 0.42918 -0.00173
 O192 O 0.52130 0.56690 0.00313
 H193 H 0.52990 0.49397 0.10588
 H194 H 0.47079 0.59482 0.00338
 H195 H 0.53026 0.50042 -0.10418
 H196 H 0.46965 0.40205 -0.00295
 H197 H 0.51096 0.64391 0.04852
 H198 H 0.51303 0.64677 -0.04009
 H199 H 0.49214 0.54432 -0.15808
 H200 H 0.49972 0.46601 -0.16059
 H201 H 0.51177 0.35095 -0.05024
 H202 H 0.51083 0.34870 0.04005
 H203 H 0.49344 0.45898 0.15831
 H204 H 0.50172 0.58249 0.16200
 C205 C 0.33469 0.30418 0.32171
 N206 N 0.34350 0.28503 0.36529
 N207 N 0.33035 0.27498 0.40548
 C208 C 0.30770 0.28281 0.40382
 N209 N 0.29889 0.30186 0.35984
 N210 N 0.31210 0.31241 0.31958
 C211 C 0.34994 0.31788 0.27940
 N212 N 0.34312 0.34703 0.24038
 N213 N 0.35786 0.36210 0.20479
 C214 C 0.37987 0.34835 0.20699
 N215 N 0.38649 0.31875 0.24557
 N216 N 0.37185 0.30393 0.28111
 C217 C 0.39690 0.36691 0.17080
 N218 N 0.41863 0.35227 0.17550
 N219 N 0.43476 0.37078 0.14586
 C220 C 0.42985 0.40473 0.11023
 N221 N 0.40805 0.41919 0.10492
 N222 N 0.39183 0.40060 0.13477
 C223 C -0.16596 0.82553 0.32985
 N224 N -0.18875 0.82918 0.32512
 N225 N -0.20225 0.81850 0.36489
 C226 C -0.19352 0.80386 0.41087
 N227 N -0.17067 0.80126 0.41522
 N228 N -0.15723 0.81147 0.37565
 C229 C -0.15046 0.83691 0.28728
 N230 N -0.12837 0.82487 0.29175
 N231 N -0.11360 0.83673 0.25527
 C232 C -0.12027 0.86136 0.21288
 N233 N -0.14243 0.87329 0.20799
 N234 N -0.15732 0.86110 0.24454
 C235 C -0.10317 0.87664 0.17515
 N236 N -0.10822 0.90705 0.13588
 N237 N -0.09196 0.92321 0.10461
 C238 C -0.07014 0.90944 0.11156
 N239 N -0.06525 0.87864 0.15038
 N240 N -0.08144 0.86257 0.18152
 C241 C 0.66912 0.66624 0.32419
 N242 N 0.67115 0.63514 0.36404
 N243 N 0.68378 0.64583 0.40474
 C244 C 0.69543 0.68751 0.40680
 N245 N 0.69341 0.71856 0.36657
 N246 N 0.68040 0.70827 0.32619
 C247 C 0.65413 0.65482 0.28105
 N248 N 0.64168 0.68922 0.25748
 N249 N 0.62656 0.67785 0.22154
 C250 C 0.62364 0.63177 0.20737
 N251 N 0.63638 0.59758 0.23034
 N252 N 0.65119 0.60884 0.26683
 C253 C 0.60605 0.61818 0.17047
 N254 N 0.60800 0.57707 0.14364
 N255 N 0.59126 0.56223 0.11352
 C256 C 0.57181 0.58757 0.10967
 N257 N 0.56986 0.62886 0.13632
 N258 N 0.58676 0.64408 0.16591
 C259 C 0.16066 1.18864 0.32992
 N260 N 0.18308 1.17859 0.32948
 N261 N 0.19615 1.19111 0.36900
 C262 C 0.18742 1.21429 0.41043
 N263 N 0.16483 1.22315 0.41089
 N264 N 0.15179 1.21096 0.37145
 C265 C 0.14587 1.17532 0.28698
 N266 N 0.12420 1.19091 0.28629
 N267 N 0.11025 1.17808 0.24875
 C268 C 0.11739 1.14905 0.21042
 N269 N 0.13913 1.13350 0.21083
 N270 N 0.15317 1.14657 0.24840
 C271 C 0.10115 1.13276 0.17162
 N272 N 0.10665 1.09890 0.13652
 N273 N 0.09100 1.08159 0.10471
 C274 C 0.06936 1.09768 0.10689
 N275 N 0.06406 1.13201 0.14141
 N276 N 0.07964 1.14923 0.17307
 C277 C 0.66563 0.32018 -0.32682
 N278 N 0.66445 0.34588 -0.37107
 N279 N 0.67679 0.33383 -0.41185
 C280 C 0.69133 0.29639 -0.40975
 N281 N 0.69236 0.27047 -0.36531
 N282 N 0.67964 0.28196 -0.32470
 C283 C 0.65151 0.33355 -0.28280
 N284 N 0.64069 0.30000 -0.25407
 N285 N 0.62623 0.31280 -0.21715
 C286 C 0.62245 0.35955 -0.20713
 N287 N 0.63360 0.39297 -0.23526
 N288 N 0.64771 0.38021 -0.27274
 C289 C 0.60538 0.37426 -0.16940
 N290 N 0.60724 0.41690 -0.14547
 N291 N 0.59078 0.43256 -0.11489
 C292 C 0.57169 0.40653 -0.10784
 N293 N 0.56984 0.36378 -0.13164
 N294 N 0.58648 0.34774 -0.16158
 C295 C 0.16652 0.82582 -0.32554
 N296 N 0.16626 0.85333 -0.36861
 N297 N 0.17874 0.84182 -0.40937
 C298 C 0.19252 0.80308 -0.40837
 N299 N 0.19261 0.77540 -0.36514
 N300 N 0.17977 0.78639 -0.32459
 C301 C 0.15219 0.83845 -0.28159
 N302 N 0.14114 0.80444 -0.25395
 N303 N 0.12661 0.81661 -0.21691
 C304 C 0.12298 0.86317 -0.20567
 N305 N 0.13434 0.89703 -0.23276
 N306 N 0.14852 0.88491 -0.27033
 C307 C 0.10588 0.87736 -0.16776
 N308 N 0.10761 0.91988 -0.14352
 N309 N 0.09107 0.93522 -0.11298
 C310 C 0.07203 0.90898 -0.10620
 N311 N 0.07032 0.86630 -0.13021
 N312 N 0.08705 0.85059 -0.16014
 C313 C 0.33472 0.68611 -0.32272
 N314 N 0.31355 0.66755 -0.32527
 N315 N 0.30018 0.67747 -0.36528
 C316 C 0.30749 0.70639 -0.40407
 N317 N 0.32863 0.72490 -0.40134
 N318 N 0.34193 0.71514 -0.36137
 C319 C 0.35032 0.67296 -0.28096
 N320 N 0.37142 0.69181 -0.28012
 N321 N 0.38632 0.67799 -0.24473
 C322 C 0.38074 0.64474 -0.20877
 N323 N 0.35954 0.62613 -0.20916
 N324 N 0.34459 0.64001 -0.24465
 C325 C 0.39797 0.62746 -0.17244
 N326 N 0.39320 0.59314 -0.13691
 N327 N 0.40941 0.57576 -0.10649
 C328 C 0.43097 0.59203 -0.11062
 N329 N 0.43564 0.62659 -0.14582
 N330 N 0.41946 0.64401 -0.17606
 C331 C -0.16443 1.19260 -0.32614
 N332 N -0.18705 1.18463 -0.32433
 N333 N -0.20009 1.19595 -0.36452
 C334 C -0.19105 1.21554 -0.40808
 N335 N -0.16837 1.22302 -0.40944
 N336 N -0.15540 1.21218 -0.36933
 C337 C -0.14938 1.17859 -0.28379
 N338 N -0.12747 1.19263 -0.28516
 N339 N -0.11298 1.17775 -0.24949
 C340 C -0.11975 1.14801 -0.21112
 N341 N -0.14175 1.13415 -0.20927
 N342 N -0.15635 1.14929 -0.24499
 C343 C -0.10287 1.12949 -0.17478
 N344 N -0.10809 1.09585 -0.13877
 N345 N -0.09200 1.07735 -0.10869
 C346 C -0.07018 1.09186 -0.11375
 N347 N -0.06513 1.12574 -0.14938
 N348 N -0.08114 1.14417 -0.17926
 C349 C 0.66696 0.66906 -0.32631
 N350 N 0.66947 0.63732 -0.36505
 N351 N 0.68229 0.64768 -0.40579
 C352 C 0.69364 0.68969 -0.40892
 N353 N 0.69095 0.72155 -0.37007
 N354 N 0.67779 0.71154 -0.32965
 C355 C 0.65228 0.65763 -0.28242
 N356 N 0.64043 0.69222 -0.25796
 N357 N 0.62590 0.68105 -0.22042
 C358 C 0.62307 0.63500 -0.20549
 N359 N 0.63520 0.60060 -0.22942
 N360 N 0.64942 0.61167 -0.26747
 C361 C 0.60605 0.62174 -0.16686
 N362 N 0.60802 0.58013 -0.14044
 N363 N 0.59158 0.56546 -0.10906
 C364 C 0.57244 0.59153 -0.10347
 N365 N 0.57052 0.63337 -0.12959
 N366 N 0.58713 0.64842 -0.16044
 C367 C 0.16276 1.20646 -0.31968
 N368 N 0.18378 1.18775 -0.32513
 N369 N 0.19634 1.19838 -0.36636
 C370 C 0.18837 1.22819 -0.40356
 N371 N 0.16737 1.24689 -0.39800
 N372 N 0.15486 1.23641 -0.35674
 C373 C 0.14803 1.19208 -0.27662
 N374 N 0.12707 1.21117 -0.27222
 N375 N 0.11287 1.19584 -0.23591
 C376 C 0.11904 1.16079 -0.20257
 N377 N 0.14012 1.14200 -0.20647
 N378 N 0.15437 1.15741 -0.24285
 C379 C 0.10238 1.14144 -0.16594
 N380 N 0.10747 1.10445 -0.13396
 N381 N 0.09155 1.08479 -0.10415
 C382 C 0.06999 1.10142 -0.10541
 N383 N 0.06506 1.13871 -0.13690
 N384 N 0.08093 1.15838 -0.16647
 C385 C 0.33356 0.33389 -0.33407
 N386 N 0.33421 0.35546 -0.38089
 N387 N 0.32102 0.34062 -0.41892
 C388 C 0.30671 0.30337 -0.41196
 N389 N 0.30614 0.28146 -0.36506
 N390 N 0.31922 0.29669 -0.32663
 C391 C 0.34955 0.34891 -0.29423
 N392 N 0.34605 0.33945 -0.24337
 N393 N 0.36115 0.35312 -0.20823
 C394 C 0.38035 0.37605 -0.22299
 N395 N 0.38378 0.38525 -0.27374
 N396 N 0.36860 0.37228 -0.30861
 C397 C 0.39784 0.38948 -0.18591
 N398 N 0.41953 0.39329 -0.20225
 N399 N 0.43572 0.40678 -0.17010
 C400 C 0.43083 0.41768 -0.12049
 N401 N 0.40909 0.41414 -0.10391
 N402 N 0.39286 0.39989 -0.13604
 C403 C -0.16785 0.81826 -0.32188
 N404 N -0.18827 0.84002 -0.32635
 N405 N -0.20170 0.83077 -0.36635
 C406 C -0.19517 0.79933 -0.40312
 N407 N -0.17482 0.77754 -0.39837
 N408 N -0.16147 0.78669 -0.35848
 C409 C -0.15196 0.83085 -0.28069
 N410 N -0.13115 0.81061 -0.27965
 N411 N -0.11588 0.82405 -0.24510
 C412 C -0.12082 0.85825 -0.21015
 N413 N -0.14174 0.87819 -0.21066
 N414 N -0.15704 0.86475 -0.24537
 C415 C -0.10320 0.87512 -0.17486
 N416 N -0.10763 0.90914 -0.13924
 N417 N -0.09115 0.92608 -0.10954
 C418 C -0.06965 0.90974 -0.11457
 N419 N -0.06529 0.87554 -0.14993
 N420 N -0.08176 0.85849 -0.17942
 C421 C 0.33370 0.67874 0.32625
 N422 N 0.31325 0.65734 0.33212
 N423 N 0.30002 0.66798 0.37215
 C424 C 0.30675 0.70050 0.40755
 N425 N 0.32718 0.72174 0.40157
 N426 N 0.34034 0.71120 0.36163
 C427 C 0.34922 0.66537 0.28449
 N428 N 0.36988 0.68607 0.28152
 N429 N 0.38479 0.67236 0.24616
 C430 C 0.37962 0.63744 0.21227
 N431 N 0.35883 0.61699 0.21472
 N432 N 0.34388 0.63071 0.25025
 C433 C 0.39696 0.62051 0.17616
 N434 N 0.39244 0.58609 0.14105
 N435 N 0.40881 0.56927 0.11071
 C436 C 0.43025 0.58615 0.11464
 N437 N 0.43466 0.62075 0.14946
 N438 N 0.41833 0.63767 0.17951
 C439 C -0.16502 1.18424 0.32613
 N440 N -0.15626 1.20763 0.36696
 N441 N -0.16920 1.21924 0.40685
 C442 C -0.19162 1.20868 0.40761
 N443 N -0.20033 1.18484 0.36663
 N444 N -0.18732 1.17285 0.32664
 C445 C -0.15003 1.17055 0.28353
 N446 N -0.15675 1.13991 0.24617
 N447 N -0.14225 1.12586 0.20976
 C448 C -0.12062 1.14218 0.20944
 N449 N -0.11412 1.17317 0.24643
 N450 N -0.12851 1.18700 0.28275
 C451 C -0.10377 1.12499 0.17230
 N452 N -0.08230 1.14154 0.17517
 N453 N -0.06623 1.12426 0.14472
 C454 C -0.07096 1.08978 0.11003
 N455 N -0.09253 1.07345 0.10652
 N456 N -0.10868 1.09076 0.13720
 C457 C 0.66454 0.30469 0.32059
 N458 N 0.68505 0.32576 0.32575
 N459 N 0.69786 0.31663 0.36686
 C460 C 0.69061 0.28604 0.40413
 N461 N 0.67008 0.26518 0.39900
 N462 N 0.65733 0.27419 0.35790
 C463 C 0.64962 0.31676 0.27737
 N464 N 0.62907 0.29568 0.27357
 N465 N 0.61466 0.30880 0.23686
 C466 C 0.62024 0.34347 0.20250
 N467 N 0.64092 0.36421 0.20578
 N468 N 0.65537 0.35104 0.24257
 C469 C 0.60332 0.36071 0.16560
 N470 N 0.60801 0.39702 0.13243
 N471 N 0.59185 0.41524 0.10249
 C472 C 0.57045 0.39782 0.10478
 N473 N 0.56590 0.36113 0.13741
 N474 N 0.58204 0.34286 0.16715
 C475 C 0.16542 0.81420 0.32235
 N476 N 0.18638 0.83361 0.32629
 N477 N 0.19935 0.82406 0.36708
 C478 C 0.19182 0.79473 0.40527
 N479 N 0.17088 0.77550 0.40127
 N480 N 0.15798 0.78488 0.36051
 C481 C 0.15030 0.82656 0.27942
 N482 N 0.12959 0.80609 0.27653
 N483 N 0.11504 0.81919 0.24009
 C484 C 0.12061 0.85330 0.20506
 N485 N 0.14144 0.87350 0.20747
 N486 N 0.15605 0.86032 0.24400
 C487 C 0.10359 0.87006 0.16795
 N488 N 0.10818 0.90578 0.13394
 N489 N 0.09197 0.92316 0.10347
 C490 C 0.07063 0.90544 0.10602
 N491 N 0.06619 0.86937 0.13954
 N492 N 0.08235 0.85197 0.16981
   
