data_POSCAR
  _audit_creation_date              2014-09-24
  _audit_creation_method            'ToBaCCo'
  _symmetry_space_group_name_H-M    'P1'
  _symmetry_Int_Tables_number       1
  _symmetry_cell_setting            triclinic
  loop_
  _symmetry_equiv_pos_as_xyz
 x,y,z
_cell_length_a 38.1200
_cell_length_b 38.1562
_cell_length_c 38.1114
_cell_angle_alpha 103.404000
_cell_angle_beta 77.949100
_cell_angle_gamma 77.983600
loop_
  _atom_site_label
  _atom_site_type_symbol
  _atom_site_fract_x
  _atom_site_fract_y
  _atom_site_fract_z
C1 C 0.52871 0.51042 -0.00585
 C2 C 0.49777 0.54168 0.00011
 C3 C 0.46196 0.53582 0.00379
 C4 C 0.45588 0.50005 -0.00043
 C5 C 0.48696 0.46912 -0.00711
 C6 C 0.52254 0.47469 -0.01035
 H7 H 0.54523 0.45097 -0.01286
 H8 H 0.43888 0.55896 0.00593
 C9 C 0.00272 0.46093 0.50725
 C10 C 0.00600 0.48948 0.53641
 C11 C 0.00782 0.52406 0.53046
 C12 C 0.00697 0.53117 0.49588
 C13 C 0.00355 0.50219 0.46667
 C14 C 0.00156 0.46770 0.47287
 H15 H -0.00141 0.44586 0.45066
 H16 H 0.01116 0.54526 0.55301
 C17 C 0.49879 0.00480 0.46485
 C18 C 0.47449 -0.00836 0.48864
 C19 C 0.48331 -0.01516 0.52076
 C20 C 0.51541 -0.00832 0.53078
 C21 C 0.54058 0.00420 0.50615
 C22 C 0.53102 0.01132 0.47411
 H23 H 0.55032 0.01922 0.45417
 H24 H 0.46299 -0.02302 0.53971
 O25 O 0.47239 0.00358 -0.04377
 O26 O 0.46452 0.01758 0.05690
 O27 O 0.46449 0.06057 0.01258
 O28 O 0.47159 -0.03936 0.00055
 O29 O 0.53270 -0.05143 -0.01097
 O30 O 0.52561 0.04868 0.00074
 O31 O 0.52562 0.00578 0.04512
 O32 O 0.53351 -0.00854 -0.05538
 Cu33 Cu 0.46213 0.01176 0.00776
 Cu34 Cu 0.53548 -0.00259 -0.00626
 C35 C 0.50430 -0.00452 -0.06677
 C36 C 0.49381 0.01383 0.06820
 C37 C 0.49384 0.07171 0.00828
 C38 C 0.50327 -0.06249 -0.00698
 O39 O -0.06556 0.53773 1.01852
 O40 O 0.03417 0.53019 1.00754
 O41 O -0.00911 0.52911 0.96272
 O42 O -0.02224 0.53826 1.06330
 O43 O -0.01074 0.47695 1.05108
 O44 O 0.00263 0.46779 0.95066
 O45 O 0.04587 0.46889 0.99554
 O46 O -0.05395 0.47640 1.00630
 Cu47 Cu -0.01683 0.53997 1.01423
 Cu48 Cu -0.00287 0.46636 0.99970
 C49 C -0.07680 0.50832 1.01395
 C50 C 0.05708 0.49833 0.99996
 C51 C -0.00132 0.49690 0.93950
 C52 C -0.01850 0.50909 1.07437
 O53 O 0.02051 -0.06357 0.46059
 O54 O 0.00869 0.03657 0.46875
 O55 O 0.06460 -0.01966 0.46037
 O56 O -0.03548 -0.00744 0.46868
 O57 O -0.04685 0.00508 0.53008
 O58 O 0.05326 -0.00702 0.52178
 O59 O -0.00271 0.04911 0.53016
 O60 O 0.00925 -0.05090 0.52200
 Cu61 Cu 0.01567 -0.01475 0.45845
 Cu62 Cu 0.00207 0.00034 0.53215
 C63 C 0.01673 -0.07435 0.48997
 C64 C 0.00133 0.05995 0.50082
 C65 C 0.07605 -0.01519 0.48968
 C66 C -0.05828 0.00058 0.50074
 C67 C -0.36784 0.48881 0.97739
 C68 C -0.36436 0.51856 1.00453
 C69 C -0.39620 0.54616 1.02782
 C70 C -0.43147 0.54389 1.02415
 C71 C -0.43551 0.51398 0.99688
 C72 C -0.40298 0.48640 0.97365
 C73 C -0.32805 0.52005 1.00884
 C74 C -0.29728 0.52035 1.01193
 C75 C -0.26089 0.51972 1.01486
 C76 C -0.22949 0.51847 1.01669
 C77 C -0.19166 0.51624 1.01797
 C78 C -0.17938 0.54866 1.02436
 C79 C -0.14214 0.54620 1.02378
 C80 C -0.11668 0.51121 1.01672
 C81 C -0.12947 0.47885 1.01094
 C82 C -0.16671 0.48139 1.01155
 H83 H -0.34333 0.46731 0.95914
 H84 H -0.39383 0.56913 1.04922
 H85 H -0.45560 0.56484 1.04370
 H86 H -0.40455 0.46329 0.95188
 H87 H -0.19846 0.57577 1.02929
 H88 H -0.13319 0.57163 1.02830
 H89 H -0.11061 0.45150 1.00542
 H90 H -0.17593 0.45611 1.00651
 C91 C 0.35192 0.52117 1.02360
 C92 C 0.34701 0.49073 0.99844
 C93 C 0.37810 0.46286 0.97413
 C94 C 0.41401 0.46553 0.97475
 C95 C 0.41955 0.49614 0.99993
 C96 C 0.38774 0.52397 1.02429
 C97 C 0.31002 0.48888 0.99690
 C98 C 0.27880 0.48818 0.99578
 C99 C 0.24198 0.48829 0.99479
 C100 C 0.21029 0.48916 0.99432
 C101 C 0.17217 0.49110 0.99436
 C102 C 0.16000 0.45858 0.98875
 C103 C 0.12264 0.46079 0.99000
 C104 C 0.09697 0.49563 0.99695
 C105 C 0.10962 0.52809 1.00210
 C106 C 0.14696 0.52580 1.00082
 H107 H 0.32802 0.54291 1.04259
 H108 H 0.37460 0.43941 0.95416
 H109 H 0.43730 0.44447 0.95413
 H110 H 0.39041 0.54765 1.04460
 H111 H 0.17929 0.43158 0.98375
 H112 H 0.11380 0.43530 0.98595
 H113 H 0.09061 0.55533 1.00752
 H114 H 0.15608 0.55115 1.00522
 C115 C 0.03542 -0.39547 0.45465
 C116 C 0.01723 -0.36312 0.48437
 C117 C -0.00415 -0.36580 0.51770
 C118 C -0.00749 -0.40059 0.52139
 C119 C 0.01025 -0.43358 0.49156
 C120 C 0.03213 -0.43041 0.45821
 C121 C 0.02055 -0.32705 0.48116
 C122 C 0.02260 -0.29631 0.47967
 C123 C 0.02414 -0.25977 0.47926
 C124 C 0.02468 -0.22816 0.47997
 C125 C 0.02438 -0.18996 0.48202
 C126 C 0.01825 -0.16412 0.51686
 C127 C 0.01630 -0.12662 0.51938
 C128 C 0.02044 -0.11441 0.48701
 C129 C 0.02712 -0.14070 0.45201
 C130 C 0.02903 -0.17824 0.44957
 H131 H 0.05249 -0.39376 0.42886
 H132 H -0.01840 -0.34090 0.54090
 H133 H -0.02509 -0.40137 0.54732
 H134 H 0.04798 -0.45497 0.43532
 H135 H 0.01455 -0.17289 0.54217
 H136 H 0.01114 -0.10713 0.54674
 H137 H 0.03040 -0.13220 0.42657
 H138 H 0.03371 -0.19801 0.42246
 C139 C -0.03043 0.37395 0.50608
 C140 C -0.00194 0.35168 0.51563
 C141 C 0.02773 0.36550 0.52344
 C142 C 0.02911 0.40132 0.52129
 C143 C 0.00072 0.42367 0.51141
 C144 C -0.02910 0.40972 0.50393
 C145 C -0.00261 0.31419 0.51599
 C146 C -0.00323 0.28263 0.51548
 C147 C -0.00389 0.24549 0.51408
 C148 C -0.00423 0.21362 0.51232
 C149 C -0.00421 0.17536 0.50964
 C150 C -0.00996 0.16347 0.54195
 C151 C -0.00877 0.12603 0.53918
 C152 C -0.00177 0.09996 0.50397
 C153 C 0.00348 0.11232 0.47170
 C154 C 0.00228 0.14977 0.47456
 H155 H -0.05346 0.36350 0.49987
 H156 H 0.05004 0.34841 0.53065
 H157 H 0.05259 0.41135 0.52666
 H158 H -0.05124 0.42651 0.49625
 H159 H -0.01500 0.18305 0.56925
 H160 H -0.01290 0.11743 0.56455
 H161 H 0.00896 0.09299 0.44420
 H162 H 0.00677 0.15868 0.44937
 C163 C 0.53171 0.01604 -0.37393
 C164 C 0.52121 -0.01220 -0.36006
 C165 C 0.50974 -0.03959 -0.38259
 C166 C 0.50839 -0.03863 -0.41870
 C167 C 0.51877 -0.01029 -0.43322
 C168 C 0.53044 0.01710 -0.41010
 C169 C 0.52089 -0.01247 -0.32227
 C170 C 0.51989 -0.01271 -0.29050
 C171 C 0.51805 -0.01288 -0.25316
 C172 C 0.51603 -0.01277 -0.22113
 C173 C 0.51323 -0.01219 -0.18272
 C174 C 0.47826 -0.00481 -0.15759
 C175 C 0.47535 -0.00296 -0.11998
 C176 C 0.50744 -0.00845 -0.10698
 C177 C 0.54252 -0.01637 -0.13260
 C178 C 0.54535 -0.01820 -0.17020
 H179 H 0.54022 0.03767 -0.35654
 H180 H 0.50158 -0.06163 -0.37215
 H181 H 0.49991 -0.06067 -0.43555
 H182 H 0.53715 0.04029 -0.41928
 H183 H 0.45321 -0.00010 -0.16699
 H184 H 0.44794 0.00323 -0.10101
 H185 H 0.56777 -0.02069 -0.12352
 H186 H 0.57256 -0.02392 -0.18940
 C187 C 0.48403 -0.01671 0.36758
 C188 C 0.48571 0.01655 0.35854
 C189 C 0.49063 0.04634 0.38466
 C190 C 0.49427 0.04275 0.41952
 C191 C 0.49290 0.00934 0.42866
 C192 C 0.48770 -0.02035 0.40239
 C193 C 0.48399 0.01942 0.32189
 C194 C 0.48335 0.02119 0.29084
 C195 C 0.48350 0.02250 0.25408
 C196 C 0.48438 0.02291 0.22237
 C197 C 0.48634 0.02249 0.18412
 C198 C 0.45396 0.02737 0.17189
 C199 C 0.45624 0.02523 0.13429
 C200 C 0.49100 0.01808 0.10842
 C201 C 0.52330 0.01378 0.12115
 C202 C 0.52094 0.01595 0.15872
 H203 H 0.48051 -0.04005 0.34748
 H204 H 0.49213 0.07215 0.37791
 H205 H 0.49834 0.06594 0.43932
 H206 H 0.48722 -0.04659 0.40855
 H207 H 0.42703 0.03236 0.19130
 H208 H 0.43086 0.02863 0.12539
 H209 H 0.55049 0.00825 0.10200
 H210 H 0.54619 0.01207 0.16786
 C211 C 0.53482 -0.38323 -0.03010
 C212 C 0.50775 -0.35106 -0.00647
 C213 C 0.47771 -0.35434 0.01954
 C214 C 0.47458 -0.38959 0.02191
 C215 C 0.50172 -0.42245 -0.00156
 C216 C 0.53182 -0.41860 -0.02780
 C217 C 0.51020 -0.31459 -0.00922
 C218 C 0.51139 -0.28372 -0.01105
 C219 C 0.51179 -0.24719 -0.01260
 C220 C 0.51130 -0.21568 -0.01333
 C221 C 0.50971 -0.17766 -0.01341
 C222 C 0.47528 -0.15223 -0.00737
 C223 C 0.47326 -0.11490 -0.00587
 C224 C 0.50573 -0.10245 -0.01039
 C225 C 0.54031 -0.12836 -0.01698
 C226 C 0.54225 -0.16572 -0.01844
 H227 H 0.55799 -0.38103 -0.05065
 H228 H 0.45660 -0.32958 0.03802
 H229 H 0.45133 -0.39099 0.04293
 H230 H 0.55246 -0.44294 -0.04754
 H231 H 0.44991 -0.16115 -0.00338
 H232 H 0.44621 -0.09572 -0.00075
 H233 H 0.56581 -0.11968 -0.02053
 H234 H 0.56905 -0.18517 -0.02308
 C235 C 0.50372 0.36384 -0.03127
 C236 C 0.48009 0.36000 0.00024
 C237 C 0.45767 0.39190 0.02879
 C238 C 0.45927 0.42750 0.02609
 C239 C 0.48320 0.43153 -0.00532
 C240 C 0.50534 0.39938 -0.03402
 C241 C 0.47990 0.32327 0.00371
 C242 C 0.48049 0.29228 0.00634
 C243 C 0.48189 0.25575 0.00898
 C244 C 0.48355 0.22433 0.01073
 C245 C 0.48595 0.18654 0.01209
 C246 C 0.52074 0.16150 0.00558
 C247 C 0.52331 0.12429 0.00512
 C248 C 0.49103 0.11163 0.01111
 C249 C 0.45612 0.13721 0.01828
 C250 C 0.45364 0.17440 0.01873
 H251 H 0.52126 0.33934 -0.05349
 H252 H 0.43942 0.38925 0.05338
 H253 H 0.44240 0.45188 0.04879
 H254 H 0.52407 0.40187 -0.05839
 H255 H 0.54594 0.17060 0.00036
 H256 H 0.55059 0.10533 -0.00052
 H257 H 0.43075 0.12837 0.02297
 H258 H 0.42656 0.19354 0.02375
 C259 C -0.37214 0.03519 0.50264
 C260 C -0.35062 0.00777 0.51394
 C261 C -0.36532 -0.02050 0.52342
 C262 C -0.40132 -0.02151 0.52137
 C263 C -0.42348 0.00597 0.50999
 C264 C -0.40809 0.03428 0.50052
 C265 C -0.31303 0.00804 0.51454
 C266 C -0.28139 0.00824 0.51431
 C267 C -0.24417 0.00832 0.51325
 C268 C -0.21222 0.00814 0.51174
 C269 C -0.17385 0.00748 0.50926
 C270 C -0.16137 0.01335 0.54161
 C271 C -0.12386 0.01166 0.53896
 C272 C -0.09832 0.00401 0.50383
 C273 C -0.11126 -0.00142 0.47152
 C274 C -0.14876 0.00030 0.47425
 H275 H -0.36104 0.05723 0.49524
 H276 H -0.34870 -0.04218 0.53176
 H277 H -0.41115 -0.04472 0.52733
 H278 H -0.42416 0.05636 0.49227
 H279 H -0.18056 0.01893 0.56886
 H280 H -0.11481 0.01594 0.56436
 H281 H -0.09235 -0.00738 0.44406
 H282 H -0.15811 -0.00430 0.44902
 C283 C 0.37742 0.01448 0.47515
 C284 C 0.36740 -0.01862 0.47618
 C285 C 0.39290 -0.04885 0.47986
 C286 C 0.42809 -0.04580 0.48307
 C287 C 0.43817 -0.01249 0.48254
 C288 C 0.41257 0.01758 0.47840
 C289 C 0.33035 -0.02087 0.47531
 C290 C 0.29901 -0.02222 0.47546
 C291 C 0.26198 -0.02316 0.47656
 C292 C 0.23011 -0.02336 0.47816
 C293 C 0.19178 -0.02285 0.48078
 C294 C 0.17920 -0.02873 0.44848
 C295 C 0.14163 -0.02680 0.45128
 C296 C 0.11613 -0.01889 0.48648
 C297 C 0.12917 -0.01350 0.51873
 C298 C 0.16673 -0.01546 0.51586
 H299 H 0.35780 0.03813 0.47259
 H300 H 0.38538 -0.07454 0.48084
 H301 H 0.44736 -0.06927 0.48634
 H302 H 0.41949 0.04374 0.47858
 H303 H 0.19834 -0.03441 0.42119
 H304 H 0.13250 -0.03106 0.42592
 H305 H 0.11030 -0.00736 0.54624
 H306 H 0.17617 -0.01081 0.54105
 C307 C 0.01727 0.48659 1.36246
 C308 C -0.01177 0.51539 1.36162
 C309 C -0.03574 0.54027 1.39521
 C310 C -0.03072 0.53624 1.42954
 C311 C -0.00152 0.50741 1.43050
 C312 C 0.02232 0.48254 1.39669
 C313 C -0.01702 0.51871 1.32611
 C314 C -0.02050 0.52027 1.29576
 C315 C -0.02348 0.52073 1.25959
 C316 C -0.02504 0.52000 1.22819
 C317 C -0.02568 0.51782 1.19014
 C318 C -0.03031 0.55008 1.17817
 C319 C -0.02874 0.54742 1.14061
 C320 C -0.02240 0.51238 1.11456
 C321 C -0.01844 0.48022 1.12707
 C322 C -0.02005 0.48296 1.16459
 H323 H 0.03592 0.46715 1.33664
 H324 H -0.05839 0.56256 1.39485
 H325 H -0.04968 0.55539 1.45534
 H326 H 0.04491 0.46009 1.39686
 H327 H -0.03457 0.57720 1.19772
 H328 H -0.03187 0.57269 1.13187
 H329 H -0.01354 0.45284 1.10777
 H330 H -0.01634 0.45780 1.17355
 C331 C 0.03753 0.48842 0.62398
 C332 C 0.00819 0.47953 0.64580
 C333 C -0.02144 0.47265 0.63138
 C334 C -0.02196 0.47518 0.59544
 C335 C 0.00723 0.48453 0.57361
 C336 C 0.03705 0.49095 0.58811
 C337 C 0.00786 0.47916 0.68352
 C338 C 0.00770 0.47979 0.71531
 C339 C 0.00747 0.48148 0.75273
 C340 C 0.00710 0.48358 0.78485
 C341 C 0.00626 0.48672 0.82339
 C342 C 0.01185 0.45469 0.83569
 C343 C 0.00997 0.45791 0.87338
 C344 C 0.00243 0.49330 0.89928
 C345 C -0.00269 0.52529 0.88653
 C346 C -0.00079 0.52198 0.84883
 H347 H 0.06053 0.49391 0.63491
 H348 H -0.04440 0.46596 0.64812
 H349 H -0.04543 0.47059 0.58495
 H350 H 0.05980 0.49820 0.57171
 H351 H 0.01733 0.42725 0.81622
 H352 H 0.01401 0.43275 0.88228
 H353 H -0.00857 0.55292 0.90573
 H354 H -0.00516 0.54696 0.83959
   
