data_POSCAR
  _audit_creation_date              2014-09-24
  _audit_creation_method            'ToBaCCo'
  _symmetry_space_group_name_H-M    'P1'
  _symmetry_Int_Tables_number       1
  _symmetry_cell_setting            triclinic
  loop_
  _symmetry_equiv_pos_as_xyz
 x,y,z
_cell_length_a 40.3044
_cell_length_b 40.1768
_cell_length_c 23.5133
_cell_angle_alpha 89.927100
_cell_angle_beta 89.921500
_cell_angle_gamma 120.173400
loop_
  _atom_site_label
  _atom_site_type_symbol
  _atom_site_fract_x
  _atom_site_fract_y
  _atom_site_fract_z
C1 C 0.45981 0.91910 0.55242
 C2 C 0.45003 0.89943 0.50063
 C3 C 0.45986 0.91933 0.44896
 C4 C 0.48002 0.96000 0.44844
 C5 C 0.49015 0.98036 0.50069
 C6 C 0.48001 0.95986 0.55299
 C7 C 0.49035 0.98067 0.60428
 C8 C 0.51022 1.02073 0.60423
 C9 C 0.52059 1.04166 0.55289
 C10 C 0.51045 1.02128 0.50063
 C11 C 0.49030 0.98082 0.39710
 C12 C 0.51019 1.02089 0.39701
 C13 C 0.52059 1.04174 0.44829
 C14 C 0.54085 1.08249 0.44877
 C15 C 0.55068 1.10223 0.50049
 C16 C 0.54084 1.08241 0.55228
 H17 H 0.48313 0.96608 0.64503
 H18 H 0.51743 1.03523 0.64496
 H19 H 0.48305 0.96628 0.35643
 H20 H 0.51737 1.03545 0.35624
 H21 H 0.43453 0.86816 0.50041
 H22 H 0.56625 1.13353 0.50044
 C23 C -0.08199 0.45924 0.44891
 C24 C -0.10181 0.44938 0.50059
 C25 C -0.08220 0.45914 0.55239
 C26 C -0.04157 0.47935 0.55294
 C27 C -0.02117 0.48949 0.50062
 C28 C -0.04145 0.47940 0.44836
 C29 C -0.02067 0.48972 0.39701
 C30 C 0.01929 0.50959 0.39695
 C31 C 0.03997 0.51988 0.44823
 C32 C 0.01959 0.50976 0.50054
 C33 C -0.02079 0.48969 0.60423
 C34 C 0.01917 0.50957 0.60412
 C35 C 0.03991 0.51987 0.55275
 C36 C 0.08047 0.54004 0.55210
 C37 C 0.10021 0.54985 0.50035
 C38 C 0.08053 0.54004 0.44869
 H39 H -0.03516 0.48250 0.35633
 H40 H 0.03386 0.51682 0.35623
 H41 H -0.03531 0.48248 0.64500
 H42 H 0.03370 0.51680 0.64477
 H43 H -0.13299 0.43387 0.50039
 H44 H 0.13137 0.56534 0.50028
 C45 C 0.54061 0.45924 0.44995
 C46 C 0.55049 0.44938 0.50161
 C47 C 0.54069 0.45923 0.55341
 C48 C 0.52040 0.47953 0.55401
 C49 C 0.51023 0.48969 0.50173
 C50 C 0.52038 0.47951 0.44945
 C51 C 0.51003 0.48985 0.39812
 C52 C 0.49009 0.50982 0.39808
 C53 C 0.47974 0.52021 0.44937
 C54 C 0.48988 0.51007 0.50169
 C55 C 0.51001 0.48993 0.60532
 C56 C 0.49007 0.50990 0.60528
 C57 C 0.47970 0.52028 0.55393
 C58 C 0.45944 0.54061 0.55325
 C59 C 0.44964 0.55041 0.50140
 C60 C 0.45951 0.54049 0.44979
 H61 H 0.51729 0.48258 0.35742
 H62 H 0.48284 0.51707 0.35736
 H63 H 0.51723 0.48269 0.64606
 H64 H 0.48281 0.51716 0.64599
 H65 H 0.56605 0.43379 0.50137
 H66 H 0.43409 0.56600 0.50110
 O67 O 0.39194 0.65813 -0.04872
 O68 O 0.39045 0.72138 -0.06568
 C69 C 0.37193 0.73830 -0.07693
 O70 O 0.34283 0.73331 -0.04886
 O71 O 0.27968 0.66833 -0.06552
 C72 C 0.26271 0.63274 -0.07661
 O73 O 0.26759 0.60851 -0.04855
 O74 O 0.33227 0.61026 -0.06541
 C75 C 0.36776 0.62894 -0.07667
 O76 O 0.39019 0.66838 0.06469
 O77 O 0.39205 0.73330 0.04774
 C78 C 0.36790 0.73820 0.07580
 O79 O 0.33244 0.72126 0.06461
 O80 O 0.26763 0.65797 0.04792
 C81 C 0.26257 0.62876 0.07601
 O82 O 0.27941 0.61015 0.06486
 O83 O 0.34242 0.60854 0.04802
 C84 C 0.37151 0.63278 0.07601
 Cr85 Cr 0.38903 0.69423 -0.00049
 Cr86 Cr 0.30671 0.69416 -0.00046
 Cr87 Cr 0.30649 0.61149 -0.00028
 O88 O 0.33408 0.66663 -0.00041
 O89 O 0.60828 0.34172 -0.04846
 O90 O 0.60979 0.27849 -0.06523
 C91 C 0.62833 0.26160 -0.07653
 O92 O 0.65739 0.26654 -0.04856
 O93 O 0.72055 0.33151 -0.06565
 C94 C 0.73751 0.36710 -0.07698
 O95 O 0.73263 0.39132 -0.04898
 O96 O 0.66796 0.38960 -0.06556
 C97 C 0.63247 0.37094 -0.07661
 O98 O 0.60997 0.33139 0.06497
 O99 O 0.60810 0.26647 0.04824
 C100 C 0.63224 0.26160 0.07628
 O101 O 0.66771 0.27853 0.06486
 O102 O 0.73252 0.34180 0.04773
 C103 C 0.73752 0.37097 0.07573
 O104 O 0.72073 0.38962 0.06451
 O105 O 0.65775 0.39125 0.04792
 C106 C 0.62864 0.36698 0.07611
 Cr107 Cr 0.61116 0.30558 -0.00013
 Cr108 Cr 0.69348 0.30566 -0.00040
 Cr109 Cr 0.69370 0.38832 -0.00053
 O110 O 0.66612 0.33319 -0.00036
 C111 C 0.42796 0.85406 -0.30500
 C112 C 0.40702 0.86497 -0.26076
 C113 C 0.39588 0.84210 -0.21355
 C114 C 0.40680 0.81059 -0.21526
 C115 C 0.45033 0.83211 -0.22544
 C116 C 0.46146 0.85497 -0.27263
 C117 C 0.40037 0.81135 -0.31776
 C118 C 0.38925 0.78851 -0.27061
 C119 C 0.43981 0.87834 -0.35608
 C120 C 0.44931 0.89773 -0.39868
 C121 C 0.39468 0.78565 -0.16484
 C122 C 0.38445 0.76443 -0.12422
 H123 H 0.40148 0.88859 -0.26602
 H124 H 0.38078 0.84611 -0.17836
 H125 H 0.47063 0.82965 -0.19797
 H126 H 0.49129 0.87210 -0.28559
 H127 H 0.39042 0.80003 -0.36012
 H128 H 0.36978 0.75763 -0.27261
 C129 C 0.14668 0.57326 -0.30319
 C130 C 0.18463 0.57364 -0.31167
 C131 C 0.20756 0.58524 -0.26484
 C132 C 0.19031 0.59536 -0.21407
 C133 C 0.15098 0.55930 -0.20389
 C134 C 0.12802 0.54768 -0.25079
 C135 C 0.15839 0.61416 -0.28372
 C136 C 0.18133 0.62578 -0.23687
 C137 C 0.12231 0.56097 -0.35395
 C138 C 0.10292 0.55125 -0.39633
 C139 C 0.21533 0.60810 -0.16399
 C140 C 0.23659 0.61909 -0.12363
 H141 H 0.19277 0.56547 -0.35100
 H142 H 0.23534 0.58702 -0.26406
 H143 H 0.14197 0.54425 -0.16345
 H144 H 0.09933 0.52268 -0.25054
 H145 H 0.14941 0.63239 -0.30482
 H146 H 0.19201 0.65396 -0.21785
 C147 C 0.42689 0.57279 -0.30435
 C148 C 0.38565 0.56520 -0.30820
 C149 C 0.37411 0.57638 -0.26111
 C150 C 0.40493 0.59408 -0.21473
 C151 C 0.44005 0.62714 -0.24431
 C152 C 0.45160 0.61594 -0.29143
 C153 C 0.42784 0.55237 -0.24965
 C154 C 0.41628 0.56357 -0.20249
 C155 C 0.43912 0.56085 -0.35537
 C156 C 0.44881 0.55124 -0.39791
 C157 C 0.39226 0.60625 -0.16438
 C158 C 0.38134 0.61648 -0.12384
 H159 H 0.36713 0.55216 -0.34472
 H160 H 0.34569 0.57293 -0.25730
 H161 H 0.45459 0.65673 -0.22952
 H162 H 0.47604 0.63593 -0.31700
 H163 H 0.43682 0.53104 -0.24811
 H164 H 0.41535 0.55184 -0.16052
 C165 C 0.57263 0.14688 -0.30498
 C166 C 0.61185 0.15581 -0.28185
 C167 C 0.62292 0.17841 -0.23455
 C168 C 0.59367 0.18987 -0.21502
 C169 C 0.55588 0.15165 -0.20731
 C170 C 0.54481 0.12903 -0.25464
 C171 C 0.57617 0.18634 -0.31443
 C172 C 0.58722 0.20892 -0.26717
 C173 C 0.56083 0.12285 -0.35617
 C174 C 0.55135 0.10363 -0.39881
 C175 C 0.60571 0.21455 -0.16448
 C176 C 0.61589 0.23561 -0.12381
 H177 H 0.62937 0.14526 -0.30090
 H178 H 0.64992 0.18724 -0.21308
 H179 H 0.53931 0.14310 -0.16816
 H180 H 0.51877 0.10109 -0.25604
 H181 H 0.57047 0.19572 -0.35472
 H182 H 0.59100 0.23765 -0.26699
 C183 C 0.85296 0.42646 -0.30503
 C184 C 0.87526 0.43316 -0.24931
 C185 C 0.85245 0.42156 -0.20209
 C186 C 0.80962 0.40441 -0.21529
 C187 C 0.80005 0.37182 -0.25774
 C188 C 0.82282 0.38341 -0.30489
 C189 C 0.83000 0.44716 -0.29704
 C190 C 0.80721 0.43557 -0.24987
 C191 C 0.87717 0.43874 -0.35611
 C192 C 0.89651 0.44847 -0.39870
 C193 C 0.78474 0.39170 -0.16488
 C194 C 0.76357 0.38075 -0.12426
 H195 H 0.90620 0.44590 -0.24715
 H196 H 0.86386 0.42436 -0.15945
 H197 H 0.77738 0.34222 -0.25130
 H198 H 0.81966 0.36373 -0.33883
 H199 H 0.83153 0.46902 -0.32586
 H200 H 0.78923 0.44750 -0.23829
 C201 C 0.57334 0.42720 -0.30414
 C202 C 0.59497 0.40579 -0.31775
 C203 C 0.60652 0.39460 -0.27070
 C204 C 0.59534 0.40589 -0.21458
 C205 C 0.55168 0.38863 -0.21802
 C206 C 0.54011 0.39984 -0.26513
 C207 C 0.60057 0.46082 -0.26582
 C208 C 0.61215 0.44961 -0.21871
 C209 C 0.56108 0.43912 -0.35514
 C210 C 0.55136 0.44868 -0.39770
 C211 C 0.60801 0.39370 -0.16427
 C212 C 0.61892 0.38344 -0.12376
 H213 H 0.60071 0.39994 -0.36060
 H214 H 0.62215 0.37915 -0.27326
 H215 H 0.53165 0.36936 -0.18623
 H216 H 0.51016 0.39020 -0.27370
 H217 H 0.60987 0.49076 -0.27483
 H218 H 0.63139 0.46996 -0.18737
 C219 C 0.85236 0.42684 0.30361
 C220 C 0.87124 0.45313 0.25194
 C221 C 0.84858 0.44202 0.20473
 C222 C 0.80930 0.40572 0.21389
 C223 C 0.79162 0.41503 0.26496
 C224 C 0.81425 0.42612 0.31210
 C225 C 0.84100 0.38625 0.28296
 C226 C 0.81835 0.37514 0.23578
 C227 C 0.87643 0.43867 0.35468
 C228 C 0.89565 0.44816 0.39724
 C229 C 0.78457 0.39363 0.16349
 C230 C 0.76350 0.38342 0.12291
 H231 H 0.89987 0.47823 0.25238
 H232 H 0.85780 0.45760 0.16472
 H233 H 0.76377 0.41309 0.26417
 H234 H 0.80578 0.43367 0.35168
 H235 H 0.84997 0.36787 0.30354
 H236 H 0.80793 0.34725 0.21594
 C237 C 0.57338 0.14704 0.30568
 C238 C 0.57192 0.18429 0.31215
 C239 C 0.58340 0.20686 0.26470
 C240 C 0.59521 0.18999 0.21538
 C241 C 0.56042 0.14974 0.20550
 C242 C 0.54893 0.12714 0.25301
 C243 C 0.61479 0.16020 0.28764
 C244 C 0.62627 0.18278 0.24018
 C245 C 0.56121 0.12302 0.35704
 C246 C 0.55152 0.10378 0.39978
 C247 C 0.60781 0.21463 0.16464
 C248 C 0.61867 0.23565 0.12378
 H249 H 0.56267 0.19224 0.35061
 H250 H 0.58397 0.23414 0.26254
 H251 H 0.54609 0.13986 0.16481
 H252 H 0.52477 0.09790 0.25304
 H253 H 0.63345 0.15243 0.31012
 H254 H 0.65477 0.19437 0.22202
 C255 C 0.57306 0.42604 0.30450
 C256 C 0.61578 0.45164 0.28999
 C257 C 0.62686 0.44010 0.24273
 C258 C 0.59413 0.40410 0.21460
 C259 C 0.56273 0.41420 0.20308
 C260 C 0.55164 0.42575 0.25038
 C261 C 0.56674 0.38514 0.30916
 C262 C 0.57781 0.37361 0.26194
 C263 C 0.56124 0.43826 0.35565
 C264 C 0.55173 0.44798 0.39825
 C265 C 0.60617 0.39146 0.16410
 C266 C 0.61630 0.38056 0.12342
 H267 H 0.63558 0.47665 0.31462
 H268 H 0.65615 0.45523 0.22688
 H269 H 0.55033 0.41248 0.16147
 H270 H 0.52974 0.43392 0.24931
 H271 H 0.55461 0.36683 0.34631
 H272 H 0.57517 0.34543 0.25864
 C273 C 0.14671 0.57256 0.30352
 C274 C 0.13737 0.53951 0.26207
 C275 C 0.16028 0.55068 0.21498
 C276 C 0.19024 0.59380 0.21400
 C277 C 0.21239 0.60123 0.26998
 C278 C 0.18952 0.59008 0.31701
 C279 C 0.14416 0.60320 0.26777
 C280 C 0.16706 0.61437 0.22068
 C281 C 0.12239 0.56067 0.35448
 C282 C 0.10301 0.55114 0.39701
 C283 C 0.21521 0.60595 0.16370
 C284 C 0.23645 0.61622 0.12318
 H285 H 0.11474 0.50996 0.26905
 H286 H 0.15728 0.53070 0.18163
 H287 H 0.24335 0.61414 0.27248
 H288 H 0.20089 0.59342 0.35978
 H289 H 0.12593 0.61502 0.27845
 H290 H 0.16846 0.63578 0.19103
 C291 C 0.42688 0.85346 0.30367
 C292 C 0.40868 0.81036 0.31697
 C293 C 0.39718 0.78764 0.26985
 C294 C 0.40499 0.81021 0.21399
 C295 C 0.44816 0.83964 0.21475
 C296 C 0.45967 0.86240 0.26193
 C297 C 0.39674 0.85688 0.26829
 C298 C 0.38523 0.83414 0.22113
 C299 C 0.43905 0.87762 0.35473
 C300 C 0.44870 0.89690 0.39728
 C301 C 0.39237 0.78538 0.16360
 C302 C 0.38148 0.76425 0.12302
 H303 H 0.40516 0.79871 0.35966
 H304 H 0.38381 0.75652 0.27221
 H305 H 0.46792 0.84239 0.18119
 H306 H 0.48929 0.88465 0.26879
 H307 H 0.38549 0.87557 0.27927
 H308 H 0.36411 0.83334 0.19170
 C309 C 0.42706 0.57362 0.30429
 C310 C 0.43110 0.55563 0.24902
 C311 C 0.42001 0.56718 0.20172
 C312 C 0.40599 0.59557 0.21442
 C313 C 0.43908 0.62879 0.24681
 C314 C 0.45016 0.61726 0.29404
 C315 C 0.38496 0.56357 0.30586
 C316 C 0.37388 0.57511 0.25863
 C317 C 0.43889 0.56140 0.35544
 C318 C 0.44839 0.55171 0.39805
 C319 C 0.39396 0.60824 0.16394
 C320 C 0.38384 0.61917 0.12329
 H321 H 0.44172 0.53560 0.24721
 H322 H 0.42114 0.55706 0.15937
 H323 H 0.45264 0.65875 0.23376
 H324 H 0.47321 0.63733 0.32144
 H325 H 0.36553 0.54867 0.34098
 H326 H 0.34496 0.57008 0.25329
   
