data_POSCAR
  _audit_creation_date              2014-09-24
  _audit_creation_method            'ToBaCCo'
  _symmetry_space_group_name_H-M    'P1'
  _symmetry_Int_Tables_number       1
  _symmetry_cell_setting            triclinic
  loop_
  _symmetry_equiv_pos_as_xyz
 x,y,z
_cell_length_a 27.8569
_cell_length_b 17.1813
_cell_length_c 16.9960
_cell_angle_alpha 89.849800
_cell_angle_beta 90.125000
_cell_angle_gamma 89.900300
loop_
  _atom_site_label
  _atom_site_type_symbol
  _atom_site_fract_x
  _atom_site_fract_y
  _atom_site_fract_z
O1 O 0.06428 0.13265 0.14680
 O2 O 0.11885 0.06539 0.07215
 C3 C 0.10796 0.11425 0.12740
 O4 O -0.06687 -0.14824 0.13185
 O5 O -0.11983 -0.07375 0.06070
 C6 C -0.11008 -0.12888 0.11048
 O7 O 0.06768 -0.13480 0.14577
 O8 O 0.12054 -0.06421 0.07160
 C9 C 0.11112 -0.11453 0.12663
 O10 O -0.07078 0.13768 0.13403
 O11 O -0.12134 0.06141 0.06067
 C12 C -0.11338 0.11590 0.11171
 Zr13 Zr -0.00227 0.09587 0.09909
 O14 O -0.00866 0.09930 0.22309
 O15 O -0.00103 0.21860 0.09125
 Zr16 Zr 0.00028 -0.10081 0.09892
 O17 O -0.00717 -0.10053 0.22289
 O18 O 0.00772 -0.22342 0.10063
 O19 O 0.04160 -0.00133 0.11592
 O20 O -0.04285 -0.00388 0.11212
 O21 O -0.06733 0.13878 -0.13786
 O22 O -0.12012 0.06197 -0.06949
 C23 C -0.11051 0.11703 -0.11942
 O24 O 0.07125 -0.13449 -0.14191
 O25 O 0.12196 -0.06223 -0.06461
 C26 C 0.11384 -0.11229 -0.11998
 O27 O -0.06431 -0.14652 -0.13914
 O28 O -0.11815 -0.07357 -0.06862
 C29 C -0.10781 -0.12772 -0.11878
 O30 O 0.06689 0.13508 -0.14279
 O31 O 0.11979 0.06737 -0.06513
 C32 C 0.11010 0.11667 -0.12091
 Zr33 Zr 0.00003 0.09628 -0.09944
 O34 O -0.00429 0.09691 -0.22381
 O35 O 0.00320 0.21934 -0.09817
 Zr36 Zr 0.00253 -0.10044 -0.10014
 O37 O -0.00166 -0.09935 -0.22454
 O38 O 0.00960 -0.22314 -0.10034
 Zr39 Zr 0.07159 -0.00023 0.00209
 Zr40 Zr -0.07103 -0.00449 -0.00271
 O41 O -0.04029 -0.00322 -0.11562
 O42 O 0.04424 -0.00067 -0.11373
 O43 O -0.04408 0.10985 -0.00159
 O44 O 0.04326 -0.11371 0.00085
 O45 O 0.04064 0.11152 0.00132
 O46 O -0.04103 -0.11724 -0.00199
 H47 H -0.06524 -0.00483 0.15734
 H48 H 0.06565 -0.15859 0.00164
 H49 H -0.06174 -0.00367 -0.16220
 H50 H 0.06196 0.15762 0.00208
 H51 H -0.01690 -0.24492 0.06480
 H52 H -0.01731 -0.24460 -0.06932
 H53 H 0.02570 -0.06837 -0.24426
 H54 H 0.02233 0.06437 -0.24377
 H55 H -0.02025 0.23751 -0.05859
 H56 H -0.00187 0.23787 0.14613
 H57 H 0.01524 0.06244 0.24486
 H58 H 0.01975 -0.06997 0.24483
 O59 O 0.57002 0.63450 0.63712
 O60 O 0.62136 0.56137 0.56220
 C61 C 0.61280 0.61288 0.61618
 O62 O 0.43178 0.36173 0.63928
 O63 O 0.37977 0.43780 0.56794
 C64 C 0.38875 0.38379 0.61929
 O65 O 0.56731 0.36488 0.64319
 O66 O 0.61942 0.43304 0.56477
 C67 C 0.61033 0.38420 0.62098
 O68 O 0.43563 0.64694 0.63292
 O69 O 0.38116 0.57295 0.56501
 C70 C 0.39200 0.62766 0.61440
 Zr71 Zr 0.50183 0.60016 0.59489
 O72 O 0.49858 0.60681 0.71910
 O73 O 0.50559 0.72257 0.58419
 Zr74 Zr 0.49956 0.40334 0.60017
 O75 O 0.49545 0.40755 0.72448
 O76 O 0.50360 0.28035 0.60380
 O77 O 0.54357 0.50065 0.61183
 O78 O 0.45923 0.50352 0.61314
 O79 O 0.43202 0.64307 0.36087
 O80 O 0.37996 0.56981 0.43457
 C81 C 0.38896 0.62315 0.38263
 O82 O 0.56379 0.35968 0.35601
 O83 O 0.61822 0.43000 0.42796
 C84 C 0.60745 0.37885 0.37476
 O85 O 0.42872 0.35682 0.36720
 O86 O 0.37823 0.43519 0.43813
 C87 C 0.38616 0.37952 0.38855
 O88 O 0.56739 0.63069 0.35000
 O89 O 0.61935 0.55993 0.42686
 C90 C 0.61041 0.60946 0.37114
 Zr91 Zr 0.49963 0.59639 0.39614
 O92 O 0.49288 0.59233 0.27211
 O93 O 0.50543 0.71911 0.39264
 Zr94 Zr 0.49725 0.39949 0.40092
 O95 O 0.49034 0.39796 0.27686
 O96 O 0.50126 0.27645 0.40307
 Zr97 Zr 0.57076 0.49728 0.49625
 Zr98 Zr 0.42846 0.50225 0.50011
 O99 O 0.45659 0.49908 0.38535
 O100 O 0.54107 0.49610 0.38201
 O101 O 0.45815 0.61476 0.49646
 O102 O 0.53985 0.38568 0.49972
 O103 O 0.54265 0.61097 0.49432
 O104 O 0.45558 0.38763 0.50202
 H105 H 0.43795 0.50523 0.65974
 H106 H 0.56117 0.33946 0.50018
 H107 H 0.43414 0.49892 0.34006
 H108 H 0.56492 0.65586 0.49306
 H109 H 0.47698 0.26006 0.57123
 H110 H 0.47497 0.25750 0.43708
 H111 H 0.51745 0.42806 0.25493
 H112 H 0.52025 0.56174 0.25173
 H113 H 0.48475 0.73970 0.43506
 H114 H 0.50652 0.74309 0.63861
 H115 H 0.52214 0.56901 0.74022
 H116 H 0.52394 0.43616 0.74361
 C117 C 0.22280 0.22715 0.24927
 C118 C 0.17564 0.23349 0.27782
 C119 C 0.13831 0.19647 0.23818
 C120 C 0.14764 0.15214 0.17071
 C121 C 0.19540 0.14534 0.14531
 N122 N 0.23117 0.18264 0.18451
 C123 C 0.26381 0.26710 0.28739
 N124 N 0.30923 0.24211 0.27174
 C125 C 0.34874 0.27653 0.30331
 C126 C 0.34379 0.34048 0.35392
 C127 C 0.29731 0.36749 0.37043
 C128 C 0.25743 0.33147 0.33714
 H129 H 0.10215 0.20235 0.26070
 H130 H 0.20433 0.11137 0.09381
 H131 H 0.38386 0.25385 0.28870
 H132 H 0.29164 0.41714 0.40845
 H133 H 0.16728 0.26569 0.33057
 H134 H 0.22233 0.35539 0.34931
 C135 C 0.77324 0.74877 0.21705
 C136 C 0.82006 0.71854 0.22229
 C137 C 0.85793 0.75836 0.18726
 C138 C 0.84948 0.82764 0.14567
 C139 C 0.80196 0.85447 0.13908
 N140 N 0.76562 0.81514 0.17476
 C141 C 0.73207 0.71087 0.25679
 N142 N 0.68655 0.72688 0.23190
 C143 C 0.64713 0.69524 0.26675
 C144 C 0.65236 0.64433 0.33099
 C145 C 0.69897 0.62769 0.35785
 C146 C 0.73864 0.66095 0.32149
 H147 H 0.89383 0.73459 0.19253
 H148 H 0.79375 0.90733 0.10694
 H149 H 0.61189 0.71002 0.24428
 H150 H 0.70495 0.58961 0.40783
 H151 H 0.82776 0.66445 0.25240
 H152 H 0.77380 0.64872 0.34557
 C153 C 0.77300 0.23684 0.76886
 C154 C 0.82009 0.24699 0.74125
 C155 C 0.85783 0.20798 0.77790
 C156 C 0.84911 0.15772 0.84141
 C157 C 0.80144 0.14750 0.86616
 N158 N 0.76514 0.18684 0.82985
 C159 C 0.73164 0.27762 0.73220
 N160 N 0.68659 0.24852 0.74231
 C161 C 0.64716 0.28198 0.70884
 C162 C 0.65200 0.34845 0.66131
 C163 C 0.69793 0.38034 0.65171
 C164 C 0.73758 0.34577 0.68742
 H165 H 0.89387 0.21674 0.75582
 H166 H 0.79302 0.10889 0.91457
 H167 H 0.61233 0.25578 0.71823
 H168 H 0.70331 0.43239 0.61680
 H169 H 0.82809 0.28340 0.69106
 H170 H 0.77220 0.37312 0.68025
 C171 C 0.23594 0.78749 0.76651
 C172 C 0.24139 0.85491 0.81232
 C173 C 0.20153 0.88741 0.84917
 C174 C 0.15599 0.85394 0.83983
 C175 C 0.15172 0.78801 0.79175
 N176 N 0.19124 0.75679 0.75709
 C177 C 0.27718 0.74875 0.72785
 N178 N 0.26855 0.69770 0.66829
 C179 C 0.30437 0.65878 0.63089
 C180 C 0.35240 0.67017 0.65323
 C181 C 0.36208 0.72217 0.71473
 C182 C 0.32477 0.76105 0.75237
 H183 H 0.20640 0.93920 0.88450
 H184 H 0.11722 0.76058 0.78254
 H185 H 0.29520 0.61906 0.58389
 H186 H 0.39849 0.73210 0.73474
 H187 H 0.27568 0.88337 0.81931
 H188 H 0.33353 0.79869 0.80113
 C189 C 0.22645 0.23150 0.76260
 C190 C 0.17962 0.23767 0.73229
 C191 C 0.14194 0.20004 0.77026
 C192 C 0.15049 0.15513 0.83792
 C193 C 0.19801 0.14832 0.86509
 N194 N 0.23421 0.18628 0.82742
 C195 C 0.26754 0.27236 0.72554
 N196 N 0.31304 0.24604 0.73885
 C197 C 0.35229 0.28059 0.70640
 C198 C 0.34694 0.34579 0.65705
 C199 C 0.30043 0.37454 0.64372
 C200 C 0.26090 0.33856 0.67802
 H201 H 0.10608 0.20592 0.74619
 H202 H 0.20635 0.11378 0.91670
 H203 H 0.38749 0.25667 0.71868
 H204 H 0.29444 0.42534 0.60709
 H205 H 0.17182 0.27021 0.67926
 H206 H 0.22579 0.36363 0.66807
 C207 C 0.77238 0.75705 0.77565
 C208 C 0.76695 0.79566 0.84785
 C209 C 0.80619 0.83243 0.88210
 C210 C 0.85132 0.83002 0.84577
 C211 C 0.85593 0.78793 0.77544
 N212 N 0.81681 0.75338 0.74234
 C213 C 0.73085 0.72096 0.73498
 N214 N 0.73834 0.66277 0.68200
 C215 C 0.70157 0.62747 0.64297
 C216 C 0.65386 0.65049 0.65656
 C217 C 0.64561 0.71127 0.70985
 C218 C 0.68373 0.74678 0.74851
 H219 H 0.80115 0.86257 0.93739
 H220 H 0.89022 0.78403 0.74589
 H221 H 0.70968 0.58143 0.60174
 H222 H 0.60960 0.73211 0.72143
 H223 H 0.73297 0.79733 0.87840
 H224 H 0.67602 0.79488 0.78739
 C225 C 0.22508 0.77585 0.24180
 C226 C 0.17768 0.76136 0.26560
 C227 C 0.13969 0.79820 0.22725
 C228 C 0.14816 0.85136 0.16553
 C229 C 0.19648 0.86661 0.14574
 N230 N 0.23291 0.82875 0.18341
 C231 C 0.26670 0.73521 0.27850
 N232 N 0.31170 0.76515 0.26961
 C233 C 0.35136 0.73069 0.30152
 C234 C 0.34695 0.66196 0.34582
 C235 C 0.30104 0.62967 0.35462
 C236 C 0.26116 0.66541 0.32078
 H237 H 0.10362 0.78477 0.24671
 H238 H 0.20553 0.90744 0.09946
 H239 H 0.38612 0.75740 0.29287
 H240 H 0.29584 0.57595 0.38698
 H241 H 0.16942 0.72259 0.31382
 H242 H 0.22676 0.63717 0.32695
 C243 C 0.76397 0.22577 0.21549
 C244 C 0.75807 0.17622 0.15049
 C245 C 0.79806 0.14064 0.11692
 C246 C 0.84423 0.15482 0.14674
 C247 C 0.84882 0.20622 0.21043
 N248 N 0.80919 0.23967 0.24275
 C249 C 0.72263 0.26391 0.25496
 N250 N 0.73090 0.32608 0.30271
 C251 C 0.69501 0.36367 0.34143
 C252 C 0.64720 0.33900 0.33320
 C253 C 0.63792 0.27468 0.28484
 C254 C 0.67532 0.23682 0.24622
 H255 H 0.79271 0.10226 0.06725
 H256 H 0.88372 0.21921 0.23514
 H257 H 0.70390 0.41292 0.37824
 H258 H 0.60175 0.25282 0.27750
 H259 H 0.72329 0.16530 0.12460
 H260 H 0.66686 0.18613 0.21142
   
