data_POSCAR
  _audit_creation_date              2014-09-24
  _audit_creation_method            'ToBaCCo'
  _symmetry_space_group_name_H-M    'P1'
  _symmetry_Int_Tables_number       1
  _symmetry_cell_setting            triclinic
  loop_
  _symmetry_equiv_pos_as_xyz
 x,y,z
_cell_length_a 37.4039
_cell_length_b 37.4039
_cell_length_c 37.1029
_cell_angle_alpha 89.958400
_cell_angle_beta 89.958600
_cell_angle_gamma 90.135600
loop_
  _atom_site_label
  _atom_site_type_symbol
  _atom_site_fract_x
  _atom_site_fract_y
  _atom_site_fract_z
O1 O -0.03439 0.28133 0.03471
 O2 O 0.03527 0.28127 -0.03553
 O3 O -0.03435 0.28130 -0.03547
 O4 O 0.03523 0.28130 0.03465
 O5 O 0.03506 0.22217 0.03471
 O6 O -0.03451 0.22217 -0.03540
 O7 O 0.03510 0.22215 -0.03545
 O8 O -0.03455 0.22221 0.03477
 Cu9 Cu 0.00046 0.28728 -0.00042
 Cu10 Cu 0.00026 0.21620 -0.00034
 C11 C -0.04623 0.25178 0.04659
 C12 C 0.04696 0.25170 -0.04734
 C13 C -0.04618 0.25173 -0.04726
 C14 C 0.04689 0.25173 0.04650
 O15 O 0.46544 0.78153 0.53540
 O16 O 0.53505 0.78156 0.46511
 O17 O 0.46538 0.78157 0.46518
 O18 O 0.53512 0.78145 0.53534
 O19 O 0.53493 0.72232 0.53530
 O20 O 0.46521 0.72245 0.46516
 O21 O 0.53487 0.72244 0.46509
 O22 O 0.46526 0.72240 0.53537
 Cu23 Cu 0.50027 0.78749 0.50026
 Cu24 Cu 0.50005 0.71644 0.50023
 C25 C 0.45359 0.75196 0.54723
 C26 C 0.54671 0.75200 0.45324
 C27 C 0.45352 0.75203 0.45333
 C28 C 0.54680 0.75186 0.54715
 O29 O 0.96527 0.71890 -0.03632
 O30 O 1.03487 0.71891 0.03396
 O31 O 0.96522 0.71895 0.03390
 O32 O 1.03495 0.71892 -0.03627
 O33 O 1.03508 0.77804 -0.03632
 O34 O 0.96537 0.77808 0.03383
 O35 O 1.03502 0.77804 0.03390
 O36 O 0.96542 0.77801 -0.03638
 Cu37 Cu 1.00006 0.71296 -0.00118
 Cu38 Cu 1.00024 0.78400 -0.00126
 C39 C 0.95358 0.74845 -0.04821
 C40 C 1.04669 0.74848 0.04580
 C41 C 0.95352 0.74852 0.04571
 C42 C 1.04680 0.74848 -0.04814
 O43 O 0.46484 0.21798 0.46528
 O44 O 0.53435 0.21808 0.53547
 O45 O 0.46473 0.21802 0.53548
 O46 O 0.53446 0.21809 0.46530
 O47 O 0.53451 0.27722 0.46525
 O48 O 0.46480 0.27715 0.53541
 O49 O 0.53442 0.27721 0.53541
 O50 O 0.46491 0.27711 0.46523
 Cu51 Cu 0.49958 0.21207 0.50039
 Cu52 Cu 0.49966 0.28314 0.50032
 C53 C 0.45315 0.24753 0.45341
 C54 C 0.54613 0.24767 0.54727
 C55 C 0.45300 0.24758 0.54728
 C56 C 0.54626 0.24768 0.45344
 O57 O 0.71870 0.03415 -0.03460
 O58 O 0.71873 -0.03549 0.03566
 O59 O 0.71865 0.03414 0.03558
 O60 O 0.71883 -0.03547 -0.03452
 O61 O 0.77796 -0.03523 -0.03449
 O62 O 0.77778 0.03436 0.03559
 O63 O 0.77785 -0.03525 0.03568
 O64 O 0.77783 0.03437 -0.03457
 Cu65 Cu 0.71276 -0.00069 0.00053
 Cu66 Cu 0.78383 -0.00042 0.00056
 C67 C 0.74826 0.04602 -0.04644
 C68 C 0.74830 -0.04714 0.04753
 C69 C 0.74819 0.04600 0.04741
 C70 C 0.74843 -0.04709 -0.04633
 O71 O 0.21830 0.46486 0.53527
 O72 O 0.21834 0.53446 0.46498
 O73 O 0.21843 0.46479 0.46505
 O74 O 0.21826 0.53453 0.53521
 O75 O 0.27738 0.53472 0.53524
 O76 O 0.27756 0.46500 0.46510
 O77 O 0.27746 0.53466 0.46503
 O78 O 0.27743 0.46506 0.53531
 Cu79 Cu 0.21237 0.49964 0.50012
 Cu80 Cu 0.28342 0.49988 0.50017
 C81 C 0.24786 0.45320 0.54715
 C82 C 0.24791 0.54631 0.45314
 C83 C 0.24803 0.45312 0.45324
 C84 C 0.24780 0.54640 0.54706
 O85 O 0.28120 1.03607 0.03519
 O86 O 0.28099 0.96644 -0.03507
 O87 O 0.28101 1.03611 -0.03505
 O88 O 0.28116 0.96641 0.03514
 O89 O 0.22204 0.96630 0.03533
 O90 O 0.22189 1.03599 -0.03484
 O91 O 0.22187 0.96633 -0.03487
 O92 O 0.22208 1.03595 0.03538
 Cu93 Cu 0.28705 1.00128 0.00003
 Cu94 Cu 0.21601 1.00114 0.00027
 C95 C 0.25168 1.04777 0.04716
 C96 C 0.25139 0.95462 -0.04681
 C97 C 0.25142 1.04782 -0.04680
 C98 C 0.25162 0.95458 0.04707
 O99 O 0.78190 0.53495 0.53485
 O100 O 0.78169 0.46543 0.46467
 O101 O 0.78179 0.53506 0.46466
 O102 O 0.78173 0.46533 0.53484
 O103 O 0.72260 0.46531 0.53494
 O104 O 0.72266 0.53502 0.46478
 O105 O 0.72256 0.46541 0.46478
 O106 O 0.72277 0.53492 0.53495
 Cu107 Cu 0.78775 0.50020 0.49974
 Cu108 Cu 0.71668 0.50016 0.49987
 C109 C 0.75237 0.54667 0.54674
 C110 C 0.75209 0.45368 0.45289
 C111 C 0.75223 0.54681 0.45288
 C112 C 0.75215 0.45355 0.54673
 C113 C 0.25030 0.22293 0.22288
 C114 C 0.22373 0.24958 0.22292
 C115 C 0.22385 0.27594 0.24974
 C116 C 0.25019 0.27602 0.27655
 C117 C 0.27675 0.24937 0.27652
 C118 C 0.27664 0.22302 0.24969
 H119 H 0.29711 0.20251 0.24970
 H120 H 0.20338 0.29644 0.24974
 C121 C 0.75005 0.77714 0.22267
 C122 C 0.77664 0.75052 0.22261
 C123 C 0.77653 0.72410 0.24939
 C124 C 0.75017 0.72394 0.27624
 C125 C 0.72357 0.75055 0.27630
 C126 C 0.72369 0.77697 0.24952
 H127 H 0.70321 0.79746 0.24956
 H128 H 0.79701 0.70361 0.24935
 C129 C 0.77663 0.25001 0.22325
 C130 C 0.74999 0.22332 0.22336
 C131 C 0.72358 0.22342 0.25014
 C132 C 0.72344 0.24987 0.27683
 C133 C 0.75007 0.27657 0.27672
 C134 C 0.77649 0.27647 0.24994
 H135 H 0.79699 0.29703 0.24987
 H136 H 0.70307 0.20285 0.25021
 C137 C 0.22328 0.75016 0.22303
 C138 C 0.24989 0.77689 0.22316
 C139 C 0.27625 0.77676 0.24998
 C140 C 0.27638 0.75026 0.27668
 C141 C 0.24976 0.72354 0.27656
 C142 C 0.22340 0.72366 0.24974
 H143 H 0.20292 0.70308 0.24966
 H144 H 0.29674 0.79735 0.25006
 C145 C 0.72333 0.24963 0.72335
 C146 C 0.75001 0.27627 0.72324
 C147 C 0.77647 0.27615 0.74993
 C148 C 0.77659 0.24973 0.77670
 C149 C 0.74992 0.22308 0.77681
 C150 C 0.72345 0.22320 0.75013
 H151 H 0.70290 0.20269 0.75020
 H152 H 0.79702 0.29666 0.74986
 C153 C 0.27610 0.75038 0.72354
 C154 C 0.24941 0.72373 0.72353
 C155 C 0.22293 0.72391 0.75026
 C156 C 0.22277 0.75037 0.77697
 C157 C 0.24945 0.77704 0.77697
 C158 C 0.27594 0.77686 0.75024
 H159 H 0.29648 0.79738 0.75023
 H160 H 0.20238 0.70339 0.75027
 C161 C 0.24936 0.27623 0.72398
 C162 C 0.27595 0.24961 0.72403
 C163 C 0.27578 0.22326 0.75087
 C164 C 0.24938 0.22316 0.77767
 C165 C 0.22277 0.24976 0.77761
 C166 C 0.22294 0.27613 0.75077
 H167 H 0.20247 0.29662 0.75072
 H168 H 0.29627 0.20277 0.75092
 C169 C 0.75098 0.72333 0.72337
 C170 C 0.72427 0.74983 0.72346
 C171 C 0.72441 0.77615 0.75029
 C172 C 0.75088 0.77632 0.77699
 C173 C 0.77760 0.74983 0.77690
 C174 C 0.77746 0.72350 0.75007
 H175 H 0.79801 0.70308 0.74997
 H176 H 0.70385 0.79657 0.75040
 C177 C 0.25174 0.07341 0.07306
 C178 C 0.25175 0.09619 0.09605
 C179 C 0.25169 0.12288 0.12297
 C180 C 0.25156 0.14569 0.14592
 C181 C 0.25131 0.17245 0.17276
 C182 C 0.25095 0.19537 0.19561
 C183 C 0.75244 0.57376 0.57404
 C184 C 0.75245 0.59654 0.59697
 C185 C 0.75239 0.62325 0.62379
 C186 C 0.75226 0.64608 0.64666
 C187 C 0.75200 0.67285 0.67340
 C188 C 0.75164 0.69578 0.69618
 C189 C 0.74832 0.92717 0.07338
 C190 C 0.74838 0.90432 0.09631
 C191 C 0.74851 0.87754 0.12313
 C192 C 0.74869 0.85464 0.14599
 C193 C 0.74900 0.82778 0.17272
 C194 C 0.74938 0.80478 0.19549
 C195 C 0.24786 0.42607 0.57448
 C196 C 0.24790 0.40324 0.59743
 C197 C 0.24800 0.37648 0.62428
 C198 C 0.24815 0.35361 0.64717
 C199 C 0.24841 0.32678 0.67394
 C200 C 0.24875 0.30382 0.69674
 C201 C 0.92661 0.25178 0.07390
 C202 C 0.90377 0.25172 0.09683
 C203 C 0.87699 0.25158 0.12366
 C204 C 0.85410 0.25140 0.14653
 C205 C 0.82724 0.25108 0.17327
 C206 C 0.80426 0.25068 0.19605
 C207 C 0.42642 0.75194 0.57454
 C208 C 0.40355 0.75189 0.59744
 C209 C 0.37673 0.75178 0.62422
 C210 C 0.35379 0.75163 0.64704
 C211 C 0.32687 0.75136 0.67371
 C212 C 0.30381 0.75101 0.69643
 C213 C 0.07379 0.74850 0.07319
 C214 C 0.09655 0.74855 0.09619
 C215 C 0.12324 0.74866 0.12311
 C216 C 0.14604 0.74882 0.14607
 C217 C 0.17280 0.74911 0.17291
 C218 C 0.19571 0.74948 0.19576
 C219 C 0.57325 0.24772 0.57454
 C220 C 0.59609 0.24782 0.59742
 C221 C 0.62287 0.24799 0.62416
 C222 C 0.64577 0.24820 0.64695
 C223 C 0.67265 0.24854 0.67359
 C224 C 0.69567 0.24895 0.69628
 C225 C 0.74827 0.07316 0.92623
 C226 C 0.74831 0.09599 0.90328
 C227 C 0.74843 0.12275 0.87644
 C228 C 0.74860 0.14563 0.85356
 C229 C 0.74889 0.17247 0.82680
 C230 C 0.74926 0.19545 0.80401
 C231 C 0.24793 0.57345 0.42580
 C232 C 0.24800 0.59627 0.40285
 C233 C 0.24814 0.62304 0.37602
 C234 C 0.24833 0.64594 0.35315
 C235 C 0.24865 0.67281 0.32643
 C236 C 0.24906 0.69584 0.30369
 C237 C 0.25130 0.92742 0.92590
 C238 C 0.25118 0.90454 0.90302
 C239 C 0.25100 0.87769 0.87626
 C240 C 0.25079 0.85473 0.85346
 C241 C 0.25046 0.82780 0.82680
 C242 C 0.25008 0.80475 0.80409
 C243 C 0.75200 0.42657 0.42561
 C244 C 0.75188 0.40374 0.40273
 C245 C 0.75170 0.37698 0.37597
 C246 C 0.75148 0.35409 0.35316
 C247 C 0.75114 0.32723 0.32651
 C248 C 0.75074 0.30422 0.30381
 C249 C 0.07267 0.25166 0.92683
 C250 C 0.09553 0.25158 0.90391
 C251 C 0.12234 0.25141 0.87711
 C252 C 0.14525 0.25120 0.85427
 C253 C 0.17213 0.25086 0.82755
 C254 C 0.19513 0.25045 0.80479
 C255 C 0.57383 0.75201 0.42589
 C256 C 0.59664 0.75198 0.40292
 C257 C 0.62338 0.75189 0.37606
 C258 C 0.64623 0.75176 0.35315
 C259 C 0.67304 0.75151 0.32636
 C260 C 0.69599 0.75116 0.30354
 C261 C 0.92787 0.74845 0.92595
 C262 C 0.90501 0.74848 0.90304
 C263 C 0.87819 0.74856 0.87626
 C264 C 0.85526 0.74869 0.85343
 C265 C 0.82834 0.74892 0.82674
 C266 C 0.80530 0.74924 0.80402
 C267 C 0.42609 0.24751 0.42607
 C268 C 0.40334 0.24755 0.40311
 C269 C 0.37669 0.24768 0.37624
 C270 C 0.35390 0.24787 0.35332
 C271 C 0.32718 0.24821 0.32654
 C272 C 0.30428 0.24864 0.30373
 C273 C 0.74853 0.92580 0.92639
 C274 C 0.74869 0.90301 0.90347
 C275 C 0.74896 0.87631 0.87666
 C276 C 0.74925 0.85349 0.85378
 C277 C 0.74969 0.82673 0.82702
 C278 C 0.75016 0.80383 0.80422
 C279 C 0.24812 0.42594 0.42594
 C280 C 0.24826 0.40308 0.40303
 C281 C 0.24848 0.37629 0.37622
 C282 C 0.24873 0.35340 0.35335
 C283 C 0.24910 0.32657 0.32659
 C284 C 0.24952 0.30361 0.30379
 C285 C 0.25134 0.07350 0.92734
 C286 C 0.25122 0.09632 0.90438
 C287 C 0.25102 0.12305 0.87751
 C288 C 0.25079 0.14589 0.85459
 C289 C 0.25043 0.17268 0.82778
 C290 C 0.25003 0.19560 0.80494
 C291 C 0.75221 0.57398 0.42558
 C292 C 0.75212 0.59682 0.40266
 C293 C 0.75193 0.62360 0.37584
 C294 C 0.75169 0.64650 0.35297
 C295 C 0.75131 0.67334 0.32622
 C296 C 0.75087 0.69632 0.30344
 C297 C 0.07252 0.74850 0.92605
 C298 C 0.09540 0.74858 0.90314
 C299 C 0.12222 0.74875 0.87636
 C300 C 0.14515 0.74896 0.85353
 C301 C 0.17205 0.74931 0.82684
 C302 C 0.19509 0.74971 0.80411
 C303 C 0.57344 0.24774 0.42615
 C304 C 0.59629 0.24786 0.40323
 C305 C 0.62309 0.24808 0.37642
 C306 C 0.64599 0.24834 0.35356
 C307 C 0.67284 0.24873 0.32682
 C308 C 0.69582 0.24917 0.30404
 C309 C 0.92668 0.25171 0.92549
 C310 C 0.90384 0.25162 0.90263
 C311 C 0.87705 0.25144 0.87589
 C312 C 0.85414 0.25121 0.85310
 C313 C 0.82727 0.25085 0.82647
 C314 C 0.80425 0.25042 0.80378
 C315 C 0.42634 0.75204 0.42604
 C316 C 0.40348 0.75199 0.40313
 C317 C 0.37669 0.75185 0.37631
 C318 C 0.35380 0.75165 0.35345
 C319 C 0.32695 0.75133 0.32670
 C320 C 0.30398 0.75093 0.30391
 C321 C 0.25166 0.92737 0.07434
 C322 C 0.25162 0.90447 0.09721
 C323 C 0.25149 0.87762 0.12395
 C324 C 0.25130 0.85465 0.14674
 C325 C 0.25098 0.82770 0.17339
 C326 C 0.25058 0.80462 0.19608
 C327 C 0.75210 0.42636 0.57401
 C328 C 0.75198 0.40349 0.59691
 C329 C 0.75176 0.37668 0.62370
 C330 C 0.75150 0.35377 0.64655
 C331 C 0.75112 0.32690 0.67327
 C332 C 0.75069 0.30390 0.69604
 C333 C 0.74815 0.07316 0.07464
 C334 C 0.74820 0.09602 0.09749
 C335 C 0.74835 0.12282 0.12421
 C336 C 0.74856 0.14574 0.14698
 C337 C 0.74891 0.17263 0.17360
 C338 C 0.74932 0.19565 0.19629
 C339 C 0.24776 0.57358 0.57436
 C340 C 0.24779 0.59644 0.59727
 C341 C 0.24791 0.62324 0.62407
 C342 C 0.24808 0.64615 0.64692
 C343 C 0.24838 0.67303 0.67363
 C344 C 0.24876 0.69605 0.69638
 C345 C 0.92637 0.74857 0.07302
 C346 C 0.90354 0.74867 0.09596
 C347 C 0.87679 0.74886 0.12281
 C348 C 0.85393 0.74910 0.14572
 C349 C 0.82714 0.74945 0.17251
 C350 C 0.80420 0.74986 0.19534
 C351 C 0.42584 0.24759 0.57460
 C352 C 0.40300 0.24767 0.59753
 C353 C 0.37624 0.24785 0.62437
 C354 C 0.35336 0.24808 0.64726
 C355 C 0.32653 0.24846 0.67402
 C356 C 0.30356 0.24890 0.69682
 C357 C 0.07401 0.25170 0.07377
 C358 C 0.09683 0.25160 0.09666
 C359 C 0.12357 0.25140 0.12344
 C360 C 0.14643 0.25116 0.14628
 C361 C 0.17323 0.25077 0.17298
 C362 C 0.19617 0.25031 0.19575
 C363 C 0.57400 0.75178 0.57443
 C364 C 0.59689 0.75166 0.59731
 C365 C 0.62372 0.75145 0.62408
 C366 C 0.64665 0.75121 0.64690
 C367 C 0.67356 0.75086 0.67359
 C368 C 0.69659 0.75046 0.69632
   
