data_POSCAR
  _audit_creation_date              2014-09-24
  _audit_creation_method            'ToBaCCo'
  _symmetry_space_group_name_H-M    'P1'
  _symmetry_Int_Tables_number       1
  _symmetry_cell_setting            triclinic
  loop_
  _symmetry_equiv_pos_as_xyz
 x,y,z
_cell_length_a 18.9031
_cell_length_b 21.2523
_cell_length_c 18.5617
_cell_angle_alpha 90.032200
_cell_angle_beta 89.408800
_cell_angle_gamma 87.996400
loop_
  _atom_site_label
  _atom_site_type_symbol
  _atom_site_fract_x
  _atom_site_fract_y
  _atom_site_fract_z
C1 C 0.23808 0.25307 0.23148
 C2 C 0.75186 0.75044 0.24932
 C3 C 0.75174 0.24436 0.73698
 C4 C 0.25929 0.74218 0.75001
 C5 C 0.09202 0.08762 0.02992
 H6 H 0.10036 0.08827 -0.02783
 C7 C 0.13052 0.12661 0.07399
 H8 H 0.16909 0.15594 0.04871
 C9 C 0.03354 0.04516 0.13141
 H10 H -0.00444 0.01344 0.15347
 C11 C 0.07043 0.08387 0.17758
 H12 H 0.06066 0.08140 0.23511
 N13 N 0.04584 0.04706 0.05915
 C14 C 0.04471 -0.10370 -0.09850
 H15 H -0.01155 -0.10688 -0.10737
 C16 C 0.09252 -0.14303 -0.13645
 H17 H 0.07098 -0.17658 -0.17315
 C18 C 0.13839 -0.05678 -0.03686
 H19 H 0.15616 -0.02393 0.00282
 C20 C 0.18810 -0.09526 -0.07330
 H21 H 0.24373 -0.09081 -0.06144
 Zn22 Zn 0.00058 -0.00650 -0.00532
 N23 N 0.06832 -0.06056 -0.05129
 C24 C -0.03504 0.03742 -0.14581
 N25 N -0.04712 0.04465 -0.07385
 C26 C -0.09281 0.09024 -0.04813
 C27 C -0.13020 0.12967 -0.09543
 C28 C -0.07164 0.07555 -0.19509
 C29 C -0.03785 -0.09944 0.09252
 C30 C -0.08329 -0.13859 0.12982
 C31 C -0.18167 -0.09012 0.06588
 C32 C -0.13438 -0.05199 0.02983
 N33 N -0.06404 -0.05681 0.04425
 H34 H 0.00310 0.00236 -0.16536
 H35 H -0.10008 0.09592 0.00943
 H36 H -0.16484 0.16625 -0.07287
 H37 H -0.06166 0.06898 -0.25222
 H38 H 0.01858 -0.10321 0.10161
 H39 H -0.06076 -0.17302 0.16665
 H40 H -0.23756 -0.08577 0.05371
 H41 H -0.15401 -0.01906 -0.01010
 C42 C 0.16585 -0.13842 -0.12496
 C43 C 0.11982 0.12517 0.14917
 C44 C -0.15649 -0.13368 0.11702
 C45 C -0.12059 0.12188 -0.17028
 C46 C 0.10201 0.59239 0.54784
 H47 H 0.10471 0.59852 0.49002
 C48 C 0.14322 0.62873 0.59243
 H49 H 0.17637 0.66274 0.56700
 C50 C 0.05201 0.54136 0.64862
 H51 H 0.01577 0.50774 0.67013
 C52 C 0.09188 0.57711 0.69545
 H53 H 0.08593 0.57017 0.75301
 N54 N 0.05813 0.54939 0.57627
 C55 C 0.03657 0.41652 0.39964
 H56 H -0.02007 0.41808 0.39164
 C57 C 0.08028 0.37689 0.35700
 H58 H 0.05626 0.34979 0.31512
 C59 C 0.13569 0.45128 0.46359
 H60 H 0.15726 0.47925 0.50605
 C61 C 0.18122 0.41234 0.42242
 H62 H 0.23751 0.41175 0.43292
 Zn63 Zn 0.00374 0.50502 0.50965
 N64 N 0.06485 0.45342 0.45101
 C65 C -0.04858 0.56656 0.38228
 N66 N -0.04710 0.56677 0.45553
 C67 C -0.08180 0.61276 0.49442
 C68 C -0.12113 0.66038 0.45987
 C69 C -0.08827 0.61283 0.34553
 C70 C -0.03486 0.40171 0.59405
 C71 C -0.08078 0.35908 0.62522
 C72 C -0.17955 0.42078 0.57812
 C73 C -0.13177 0.46200 0.54763
 N74 N -0.06090 0.45208 0.55642
 H75 H -0.01928 0.53062 0.35222
 H76 H -0.07904 0.61219 0.55261
 H77 H -0.14872 0.69649 0.49162
 H78 H -0.08859 0.61214 0.28723
 H79 H 0.02180 0.39405 0.59867
 H80 H -0.05815 0.31867 0.65306
 H81 H -0.23579 0.42946 0.57050
 H82 H -0.15153 0.50136 0.51607
 C83 C 0.15390 0.37435 0.36842
 C84 C 0.13863 0.62147 0.66779
 C85 C -0.15449 0.36867 0.61783
 C86 C -0.12582 0.66008 0.38469
 C87 C 0.58658 0.09391 0.53027
 H88 H 0.58903 0.09942 0.47254
 C89 C 0.62702 0.13232 0.57386
 H90 H 0.66003 0.16637 0.54813
 C91 C 0.53631 0.04618 0.63288
 H92 H 0.49941 0.01422 0.65622
 C93 C 0.57577 0.08350 0.67839
 H94 H 0.56944 0.07869 0.73618
 N95 N 0.54272 0.05135 0.56005
 C96 C 0.54230 -0.11119 0.43654
 H97 H 0.50886 -0.13387 0.47529
 C98 C 0.58446 -0.14850 0.38983
 H99 H 0.58233 -0.19922 0.39346
 C100 C 0.58291 -0.01829 0.38214
 H101 H 0.58115 0.03240 0.37807
 C102 C 0.62502 -0.05382 0.33369
 H103 H 0.65625 -0.02997 0.29352
 Zn104 Zn 0.48504 0.00304 0.49800
 N105 N 0.54282 -0.04715 0.43282
 C106 C 0.41693 0.05557 0.37373
 N107 N 0.42614 0.06097 0.44602
 C108 C 0.39213 0.10758 0.48449
 C109 C 0.34704 0.15137 0.45027
 C110 C 0.37237 0.09850 0.33726
 C111 C 0.45535 -0.09312 0.60015
 C112 C 0.41288 -0.13460 0.63820
 C113 C 0.31076 -0.08887 0.57820
 C114 C 0.35514 -0.04817 0.54171
 N115 N 0.42613 -0.05089 0.55300
 H116 H 0.44305 0.01729 0.34439
 H117 H 0.39983 0.11048 0.54205
 H118 H 0.32024 0.18802 0.48189
 H119 H 0.36457 0.09190 0.28018
 H120 H 0.51209 -0.09518 0.60754
 H121 H 0.43888 -0.16756 0.67427
 H122 H 0.25446 -0.08580 0.56765
 H123 H 0.33269 -0.01508 0.50337
 C124 C 0.62702 -0.11972 0.33787
 C125 C 0.62209 0.12721 0.64930
 C126 C 0.33905 -0.13308 0.62736
 C127 C 0.33707 0.14765 0.37565
 C128 C 0.59654 0.60015 0.03849
 H129 H 0.60323 0.60285 -0.01937
 C130 C 0.62776 0.64426 0.08290
 H131 H 0.65788 0.68085 0.05801
 C132 C 0.54528 0.55097 0.13989
 H133 H 0.51186 0.51552 0.16206
 C134 C 0.57570 0.59380 0.18620
 H135 H 0.56639 0.58997 0.24370
 N136 N 0.55703 0.55416 0.06757
 C137 C 0.55099 0.39821 -0.08481
 H138 H 0.49444 0.39191 -0.08381
 C139 C 0.59492 0.35803 -0.12610
 H140 H 0.57132 0.32016 -0.15520
 C141 C 0.64946 0.45420 -0.04474
 H142 H 0.67038 0.49148 -0.01255
 C143 C 0.69547 0.41501 -0.08539
 H144 H 0.75184 0.42249 -0.08420
 Zn145 Zn 0.51245 0.49738 0.00545
 N146 N 0.57857 0.44558 -0.04602
 C147 C 0.47213 0.54007 -0.13272
 N148 N 0.45785 0.54537 -0.06098
 C149 C 0.40850 0.58798 -0.03561
 C150 C 0.37020 0.62670 -0.08314
 C151 C 0.43537 0.57782 -0.18214
 C152 C 0.49222 0.40080 0.10287
 C153 C 0.45566 0.35953 0.14676
 C154 C 0.34569 0.40595 0.10326
 C155 C 0.38451 0.44625 0.05987
 N156 N 0.45642 0.44332 0.06100
 H157 H 0.51305 0.50742 -0.15200
 H158 H 0.39962 0.59251 0.02187
 H159 H 0.33247 0.66039 -0.06001
 H160 H 0.44808 0.57272 -0.23897
 H161 H 0.54949 0.39939 0.10245
 H162 H 0.48522 0.32609 0.17981
 H163 H 0.28865 0.41086 0.10251
 H164 H 0.35706 0.48010 0.02589
 C165 C 0.66827 0.36677 -0.12754
 C166 C 0.61834 0.64069 0.15816
 C167 C 0.38147 0.36140 0.14725
 C168 C 0.38338 0.62194 -0.15805
 C169 C 0.20412 -0.21770 -0.21765
 C170 C 0.21762 -0.17567 -0.16142
 H171 H 0.15153 -0.21820 -0.24005
 H172 H 0.27228 -0.17194 -0.14505
 C173 C 0.18540 0.28805 0.28116
 C174 C 0.20427 0.33560 0.32368
 H175 H 0.13115 0.27345 0.28203
 H176 H 0.25970 0.34693 0.32546
 C177 C 0.70328 -0.21261 0.30186
 C178 C 0.67199 -0.15661 0.28600
 H179 H 0.69300 -0.23350 0.35398
 H180 H 0.68259 -0.13490 0.23456
 C181 C 0.69883 0.28862 -0.22442
 C182 C 0.71802 0.32502 -0.16916
 H183 H 0.64497 0.29155 -0.24365
 H184 H 0.77325 0.32418 -0.15383
 C185 C -0.21417 0.20000 -0.20811
 C186 C -0.15739 0.16271 -0.22379
 H187 H -0.23910 0.19713 -0.15555
 H188 H -0.13655 0.16263 -0.27843
 C189 C -0.20562 0.69926 0.28884
 C190 C -0.16884 0.71005 0.34871
 H191 H -0.20269 0.65231 0.26574
 H192 H -0.17277 0.75614 0.37374
 C193 C 0.28999 0.20809 0.27037
 C194 C 0.28741 0.19387 0.34089
 H195 H 0.33053 0.18551 0.23671
 H196 H 0.24818 0.21721 0.37537
 C197 C 0.29273 0.70355 -0.19467
 C198 C 0.34847 0.65996 -0.20968
 H199 H 0.27093 0.70584 -0.14061
 H200 H 0.36543 0.65519 -0.26551
 C201 C -0.19517 -0.20613 0.21422
 C202 C -0.20770 -0.17500 0.15241
 H203 H -0.14679 -0.19802 0.24296
 H204 H -0.25871 -0.17866 0.12698
 C205 C -0.19194 0.28408 0.70168
 C206 C -0.20678 0.32537 0.64885
 H207 H -0.13979 0.28279 0.72518
 H208 H -0.26073 0.32944 0.62968
 C209 C 0.31106 -0.21835 0.71563
 C210 C 0.29234 -0.17376 0.66237
 H211 H 0.36533 -0.22202 0.73343
 H212 H 0.23689 -0.17002 0.64783
 C213 C 0.27636 0.30196 0.18670
 C214 C 0.34454 0.31628 0.19428
 H215 H 0.24489 0.32616 0.14629
 H216 H 0.37601 0.29256 0.23511
 C217 C 0.19708 0.21390 0.17890
 C218 C 0.16013 0.16411 0.19956
 H219 H 0.19566 0.22864 0.12319
 H220 H 0.15865 0.15197 0.25627
 C221 C 0.22821 0.70134 0.69730
 C222 C 0.17660 0.65789 0.71645
 H223 H 0.24541 0.70459 0.64172
 H224 H 0.16465 0.65275 0.77342
 C225 C 0.71426 0.20505 0.68113
 C226 C 0.66109 0.16761 0.69977
 H227 H 0.73324 0.20597 0.62602
 H228 H 0.64566 0.16598 0.75616
 C229 C 0.70906 0.71699 0.19265
 C230 C 0.65202 0.68391 0.20930
 H231 H 0.73295 0.71118 0.13976
 H232 H 0.63272 0.68458 0.26449
   
