data_POSCAR
  _audit_creation_date              2014-09-24
  _audit_creation_method            'ToBaCCo'
  _symmetry_space_group_name_H-M    'P1'
  _symmetry_Int_Tables_number       1
  _symmetry_cell_setting            triclinic
  loop_
  _symmetry_equiv_pos_as_xyz
 x,y,z
_cell_length_a 32.9129
_cell_length_b 33.1593
_cell_length_c 32.8264
_cell_angle_alpha 89.978500
_cell_angle_beta 90.019100
_cell_angle_gamma 90.023500
loop_
  _atom_site_label
  _atom_site_type_symbol
  _atom_site_fract_x
  _atom_site_fract_y
  _atom_site_fract_z
O1 O 0.39196 0.33611 -0.03948
 O2 O 0.33895 0.39178 0.04022
 O3 O 0.39108 0.33235 0.03852
 O4 O 0.33930 0.39379 -0.03873
 O5 O 0.28965 0.34921 -0.04164
 O6 O 0.34118 0.28784 0.03692
 O7 O 0.28844 0.34809 0.03855
 O8 O 0.34287 0.29078 -0.04175
 Cu9 Cu 0.37013 0.36801 0.00053
 Cu10 Cu 0.31024 0.31469 -0.00199
 C11 C 0.37720 0.30374 -0.05380
 C12 C 0.30446 0.38009 0.05274
 C13 C 0.37571 0.29908 0.04999
 C14 C 0.30571 0.38202 -0.05365
 O15 O 0.66280 0.60959 0.03908
 O16 O 0.60377 0.66114 -0.03973
 O17 O 0.66077 0.60753 -0.03906
 O18 O 0.60543 0.66388 0.03917
 O19 O 0.65107 0.71253 0.03683
 O20 O 0.70774 0.65491 -0.04187
 O21 O 0.65013 0.70913 -0.04313
 O22 O 0.70922 0.65767 0.03710
 Cu23 Cu 0.62851 0.63089 0.00027
 Cu24 Cu 0.68409 0.68860 -0.00287
 C25 C 0.69650 0.62413 0.05081
 C26 C 0.61676 0.69383 -0.05502
 C27 C 0.69391 0.62097 -0.05355
 C28 C 0.61825 0.69799 0.05114
 O29 O 0.66288 0.39062 0.96222
 O30 O 0.60567 0.33732 1.04096
 O31 O 0.66133 0.39277 1.04045
 O32 O 0.60766 0.33419 0.96265
 O33 O 0.65535 0.28741 0.96504
 O34 O 0.70944 0.34655 1.04354
 O35 O 0.65325 0.29050 1.04412
 O36 O 0.71095 0.34420 0.96461
 Cu37 Cu 0.62960 0.36836 1.00124
 Cu38 Cu 0.68708 0.31240 1.00458
 C39 C 0.69699 0.37710 0.95056
 C40 C 0.61921 0.30457 1.05557
 C41 C 0.69484 0.38022 1.05489
 C42 C 0.62186 0.30052 0.95103
 O43 O 0.33247 0.61261 0.96153
 O44 O 0.38783 0.66938 1.04015
 O45 O 0.33348 0.61213 1.04071
 O46 O 0.38753 0.66885 0.96096
 O47 O 0.33950 0.71530 0.96113
 O48 O 0.28516 0.65821 1.04159
 O49 O 0.33958 0.71561 1.04082
 O50 O 0.28396 0.65856 0.96186
 Cu51 Cu 0.36512 0.63619 1.00082
 Cu52 Cu 0.30719 0.69152 1.00134
 C53 C 0.29859 0.62565 0.94853
 C54 C 0.37340 0.70228 1.05370
 C55 C 0.30000 0.62523 1.05473
 C56 C 0.37310 0.70185 0.94764
 O57 O -0.04186 0.39329 0.33786
 O58 O 0.03720 0.34036 0.39439
 O59 O 0.03709 0.39442 0.33761
 O60 O -0.04044 0.33456 0.39119
 O61 O -0.03815 0.28881 0.34245
 O62 O 0.04018 0.34861 0.28899
 O63 O 0.04053 0.29375 0.34651
 O64 O -0.03948 0.34805 0.28869
 Cu65 Cu -0.00252 0.37034 0.36985
 Cu66 Cu 0.00092 0.31525 0.31168
 C67 C -0.05386 0.38052 0.30352
 C68 C 0.05198 0.30778 0.38075
 C69 C 0.05207 0.38174 0.30428
 C70 C -0.05174 0.30083 0.37658
 O71 O 0.03728 0.66537 0.60851
 O72 O -0.03944 0.60558 0.66293
 O73 O -0.04056 0.66058 0.60663
 O74 O 0.03934 0.60550 0.65995
 O75 O 0.03919 0.65044 0.70948
 O76 O -0.04195 0.70665 0.65506
 O77 O -0.04057 0.65089 0.71213
 O78 O 0.03664 0.71070 0.65779
 Cu79 Cu -0.00069 0.62968 0.62979
 Cu80 Cu -0.00183 0.68407 0.68872
 C81 C 0.04942 0.69864 0.62343
 C82 C -0.05307 0.61796 0.69693
 C83 C -0.05437 0.69340 0.62079
 C84 C 0.05285 0.61801 0.69381
 O85 O 1.03783 0.60919 0.33364
 O86 O 0.96094 0.66756 0.38948
 O87 O 0.95859 0.61077 0.33398
 O88 O 1.03841 0.66115 0.39238
 O89 O 1.04180 0.70957 0.34635
 O90 O 0.96171 0.65795 0.28661
 O91 O 0.96351 0.71511 0.34243
 O92 O 1.04138 0.65732 0.28728
 Cu93 Cu 0.99835 0.63224 0.36679
 Cu94 Cu 1.00221 0.68970 0.31081
 C95 C 1.05310 0.62356 0.30115
 C96 C 0.95010 0.70189 0.37611
 C97 C 0.94692 0.62508 0.30013
 C98 C 1.05332 0.69425 0.38002
 O99 O 0.96000 0.33465 0.61222
 O100 O 1.03897 0.38801 0.66919
 O101 O 1.03778 0.33154 0.61386
 O102 O 0.95989 0.38839 0.67002
 O103 O 0.95785 0.34061 0.71681
 O104 O 1.03713 0.28429 0.66125
 O105 O 1.03762 0.34122 0.71703
 O106 O 0.95879 0.28631 0.65846
 Cu107 Cu 0.99933 0.36550 0.63683
 Cu108 Cu 0.99771 0.30850 0.69333
 C109 C 0.94676 0.30091 0.62470
 C110 C 1.05155 0.37422 0.70295
 C111 C 1.05005 0.29772 0.62738
 C112 C 0.94557 0.37427 0.70303
 O113 O 0.38689 0.03892 0.33774
 O114 O 0.32742 -0.03902 0.38932
 O115 O 0.38538 -0.03839 0.33507
 O116 O 0.32836 0.03931 0.39079
 O117 O 0.28224 0.04078 0.34195
 O118 O 0.33978 -0.03692 0.28572
 O119 O 0.28153 -0.03795 0.34023
 O120 O 0.34140 0.04120 0.28834
 Cu121 Cu 0.36140 -0.00005 0.36828
 Cu122 Cu 0.30657 0.00199 0.30913
 C123 C 0.37484 0.05280 0.30384
 C124 C 0.29432 -0.05160 0.37406
 C125 C 0.37284 -0.05026 0.30049
 C126 C 0.29536 0.05300 0.37621
 O127 O 0.61294 0.03879 0.66961
 O128 O 0.67095 -0.03795 0.61365
 O129 O 0.61290 -0.03967 0.66785
 O130 O 0.66664 0.03915 0.61145
 O131 O 0.71516 0.04044 0.65787
 O132 O 0.65954 -0.03824 0.71617
 O133 O 0.71807 -0.03728 0.66158
 O134 O 0.66086 0.04089 0.71664
 Cu135 Cu 0.63600 -0.00013 0.63612
 Cu136 Cu 0.69302 0.00160 0.69301
 C137 C 0.62699 0.05294 0.70273
 C138 C 0.70493 -0.04989 0.62756
 C139 C 0.62644 -0.05215 0.70175
 C140 C 0.70052 0.05243 0.62405
 O141 O 0.39486 0.96089 0.65645
 O142 O 0.33922 1.04088 0.60380
 O143 O 0.39506 1.03878 0.65964
 O144 O 0.33798 0.96266 0.60196
 O145 O 0.29074 0.96141 0.64962
 O146 O 0.34854 1.03805 0.70801
 O147 O 0.29209 1.04056 0.65157
 O148 O 0.34814 0.95920 0.70463
 Cu149 Cu 0.37136 1.00097 0.62568
 Cu150 Cu 0.31510 0.99975 0.68328
 C151 C 0.38137 0.94650 0.68960
 C152 C 0.30613 1.05430 0.61825
 C153 C 0.38194 1.05122 0.69379
 C154 C 0.30467 0.94894 0.61576
 O155 O 0.61014 0.96215 0.33709
 O156 O 0.66897 1.04041 0.38942
 O157 O 0.61161 1.03956 0.33363
 O158 O 0.66547 0.96287 0.39324
 O159 O 0.71280 0.95880 0.34579
 O160 O 0.65838 1.03619 0.28554
 O161 O 0.71618 1.03716 0.34181
 O162 O 0.65692 0.95823 0.28906
 Cu163 Cu 0.63441 1.00184 0.36810
 Cu164 Cu 0.69091 0.99745 0.31079
 C165 C 0.62305 0.94722 0.30392
 C166 C 0.70317 1.05143 0.37531
 C167 C 0.62490 1.05002 0.29891
 C168 C 0.69841 0.94792 0.38004
 C169 C 0.84826 0.79396 0.47985
 C170 C 0.84498 0.78974 0.52349
 C171 C 0.81988 0.81750 0.54404
 C172 C 0.79578 0.84691 0.52451
 C173 C 0.79177 0.84411 0.48085
 C174 C 0.81937 0.81876 0.46032
 H175 H 0.81877 0.81877 0.42756
 H176 H 0.81958 0.81663 0.57678
 C177 C 0.15682 0.21524 0.48103
 C178 C 0.15445 0.21133 0.52474
 C179 C 0.18435 0.18743 0.54390
 C180 C 0.21150 0.16190 0.52296
 C181 C 0.20673 0.15882 0.47927
 C182 C 0.18196 0.18778 0.46013
 H183 H 0.18159 0.18839 0.42736
 H184 H 0.18577 0.18789 0.57664
 C185 C 0.15487 0.78957 0.52236
 C186 C 0.15825 0.78409 0.47884
 C187 C 0.18378 0.81090 0.45759
 C188 C 0.20732 0.84112 0.47616
 C189 C 0.21104 0.84011 0.51999
 C190 C 0.18364 0.81507 0.54129
 H191 H 0.18431 0.81604 0.57401
 H192 H 0.18443 0.80910 0.42491
 C193 C 0.84767 0.20636 0.52043
 C194 C 0.84742 0.20691 0.47650
 C195 C 0.81794 0.18305 0.45671
 C196 C 0.79459 0.15308 0.47628
 C197 C 0.79486 0.15259 0.52022
 C198 C 0.82394 0.17680 0.54003
 H199 H 0.82848 0.17225 0.57230
 H200 H 0.81331 0.18765 0.42446
 C201 C 0.47787 0.83761 0.78114
 C202 C 0.52147 0.83994 0.78592
 C203 C 0.54003 0.81003 0.80999
 C204 C 0.51870 0.78292 0.83526
 C205 C 0.47510 0.78757 0.83772
 C206 C 0.45648 0.81212 0.80808
 H207 H 0.42381 0.81234 0.80682
 H208 H 0.57272 0.80881 0.81014
 C209 C 0.47694 0.15433 0.21019
 C210 C 0.52055 0.15189 0.20703
 C211 C 0.53994 0.18150 0.18314
 C212 C 0.51943 0.20917 0.15776
 C213 C 0.47603 0.20449 0.15353
 C214 C 0.45650 0.17908 0.18182
 H215 H 0.42384 0.17835 0.18167
 H216 H 0.57260 0.18252 0.18383
 C217 C 0.52313 0.15894 0.78934
 C218 C 0.47928 0.15720 0.78900
 C219 C 0.45846 0.18110 0.81774
 C220 C 0.47746 0.20972 0.84317
 C221 C 0.52126 0.21076 0.84365
 C222 C 0.54161 0.18904 0.81313
 H223 H 0.57363 0.19482 0.80879
 H224 H 0.42617 0.17652 0.82119
 C225 C 0.52070 0.84447 0.21184
 C226 C 0.47695 0.84416 0.21289
 C227 C 0.45712 0.81349 0.19099
 C228 C 0.47597 0.79029 0.16051
 C229 C 0.51983 0.79087 0.15862
 C230 C 0.54010 0.81972 0.18277
 H231 H 0.57233 0.82377 0.17812
 H232 H 0.42516 0.80869 0.19676
 C233 C 0.78558 0.47855 0.84386
 C234 C 0.78646 0.52202 0.84383
 C235 C 0.81515 0.54101 0.81835
 C236 C 0.83931 0.52046 0.78949
 C237 C 0.83774 0.47694 0.78952
 C238 C 0.80734 0.45853 0.81307
 H239 H 0.80155 0.42677 0.80851
 H240 H 0.81967 0.57307 0.82192
 C241 C 0.21632 0.48000 0.16212
 C242 C 0.21801 0.52349 0.16398
 C243 C 0.19635 0.54247 0.19549
 C244 C 0.16508 0.52352 0.21749
 C245 C 0.16303 0.48007 0.21609
 C246 C 0.18743 0.46032 0.18696
 H247 H 0.18269 0.42840 0.18242
 H248 H 0.20230 0.57399 0.20134
 C249 C 0.78833 0.52341 0.15563
 C250 C 0.78811 0.47993 0.15578
 C251 C 0.81698 0.46026 0.18048
 C252 C 0.84174 0.47998 0.20926
 C253 C 0.84161 0.52355 0.20917
 C254 C 0.81174 0.54293 0.18559
 H255 H 0.80725 0.57490 0.19006
 H256 H 0.82096 0.42818 0.17650
 C257 C 0.21287 0.52230 0.84065
 C258 C 0.21732 0.47903 0.83825
 C259 C 0.19005 0.45818 0.81267
 C260 C 0.16009 0.47696 0.78855
 C261 C 0.16253 0.52026 0.78398
 C262 C 0.18849 0.54107 0.81088
 H263 H 0.18868 0.57350 0.80964
 H264 H 0.19120 0.42575 0.81259
 C265 C 0.28181 0.40573 0.08323
 C266 C 0.24054 0.41989 0.06727
 C267 C 0.21955 0.44318 0.09392
 C268 C 0.24189 0.45223 0.13407
 C269 C 0.25195 0.40954 0.15094
 C270 C 0.27238 0.38521 0.12414
 C271 C 0.30457 0.44443 0.09539
 C272 C 0.28436 0.46774 0.12260
 H273 H 0.22792 0.41071 0.03817
 H274 H 0.18886 0.45340 0.08753
 H275 H 0.24601 0.39999 0.18198
 H276 H 0.28271 0.35516 0.13215
 H277 H 0.33628 0.45010 0.08832
 H278 H 0.30061 0.49025 0.13972
 C279 C 0.72220 0.59933 0.07906
 C280 C 0.76233 0.61838 0.09350
 C281 C 0.78492 0.59337 0.11767
 C282 C 0.76498 0.55163 0.12609
 C283 C 0.72277 0.56271 0.14284
 C284 C 0.70033 0.58688 0.11819
 C285 C 0.73533 0.55997 0.05856
 C286 C 0.75865 0.53596 0.08246
 H287 H 0.77320 0.64776 0.08383
 H288 H 0.81542 0.60163 0.12701
 H289 H 0.71192 0.55320 0.17257
 H290 H 0.67040 0.59772 0.12673
 H291 H 0.73213 0.55448 0.02610
 H292 H 0.77725 0.51322 0.06846
 C293 C 0.72169 0.40234 0.92193
 C294 C 0.73447 0.44198 0.94213
 C295 C 0.75704 0.46629 0.91782
 C296 C 0.76292 0.45057 0.87414
 C297 C 0.78365 0.40921 0.88244
 C298 C 0.76186 0.38391 0.90696
 C299 C 0.69897 0.41431 0.88313
 C300 C 0.72059 0.43883 0.85810
 H301 H 0.73187 0.44740 0.97467
 H302 H 0.77577 0.48903 0.93163
 H303 H 0.81412 0.40148 0.87268
 H304 H 0.77338 0.35476 0.91655
 H305 H 0.66906 0.40300 0.87511
 H306 H 0.70906 0.44818 0.82858
 C307 C 0.27484 0.60004 0.91906
 C308 C 0.23350 0.61705 0.90531
 C309 C 0.21220 0.59152 0.88055
 C310 C 0.23441 0.55126 0.87089
 C311 C 0.27604 0.56508 0.85436
 C312 C 0.29718 0.59005 0.87953
 C313 C 0.26449 0.55922 0.93797
 C314 C 0.24178 0.53497 0.91398
 H315 H 0.22089 0.64538 0.91597
 H316 H 0.18106 0.59815 0.87201
 H317 H 0.28758 0.55635 0.82467
 H318 H 0.32660 0.60249 0.87141
 H319 H 0.27168 0.55110 0.96883
 H320 H 0.22549 0.51033 0.92750
 C321 C 0.08151 0.28457 0.40673
 C322 C 0.06533 0.24284 0.41798
 C323 C 0.09097 0.22098 0.44151
 C324 C 0.13043 0.24280 0.45356
 C325 C 0.14904 0.25546 0.41186
 C326 C 0.12319 0.27678 0.38729
 C327 C 0.09174 0.30512 0.44749
 C328 C 0.11810 0.28398 0.47106
 H329 H 0.03666 0.23078 0.40703
 H330 H 0.08413 0.19014 0.45031
 H331 H 0.18070 0.25138 0.40364
 H332 H 0.13256 0.28933 0.35822
 H333 H 0.08419 0.33621 0.45453
 H334 H 0.13410 0.29899 0.49531
 C335 C 0.07757 0.72442 0.59857
 C336 C 0.11690 0.70298 0.58675
 C337 C 0.14177 0.72542 0.56283
 C338 C 0.12501 0.76715 0.55112
 C339 C 0.08173 0.76067 0.53462
 C340 C 0.05764 0.73734 0.55848
 C341 C 0.09144 0.76441 0.61796
 C342 C 0.11580 0.78701 0.59306
 H343 H 0.12543 0.67334 0.59790
 H344 H 0.17167 0.71484 0.55384
 H345 H 0.06813 0.77897 0.51122
 H346 H 0.02538 0.73394 0.55241
 H347 H 0.08072 0.77547 0.64715
 H348 H 0.12378 0.81771 0.60121
 C349 C 0.92305 0.72769 0.40212
 C350 C 0.91117 0.76899 0.38429
 C351 C 0.88796 0.79173 0.41002
 C352 C 0.87760 0.77078 0.45114
 C353 C 0.85896 0.73023 0.43796
 C354 C 0.88276 0.70761 0.41314
 C355 C 0.94347 0.73813 0.44272
 C356 C 0.92045 0.76162 0.46749
 H357 H 0.92233 0.78062 0.35548
 H358 H 0.88124 0.82300 0.40303
 H359 H 0.82867 0.72058 0.44673
 H360 H 0.87293 0.67876 0.40100
 H361 H 0.97556 0.73311 0.44861
 H362 H 0.93499 0.77846 0.49139
 C363 C 0.91875 0.27689 0.59776
 C364 C 0.87804 0.26479 0.61705
 C365 C 0.85374 0.24274 0.59156
 C366 C 0.87277 0.23390 0.54908
 C367 C 0.88170 0.27681 0.53378
 C368 C 0.90653 0.29870 0.55828
 C369 C 0.93801 0.23715 0.58414
 C370 C 0.91391 0.21459 0.55960
 H371 H 0.86818 0.27467 0.64697
 H372 H 0.82282 0.23505 0.60000
 H373 H 0.86419 0.29185 0.51064
 H374 H 0.91141 0.33065 0.55298
 H375 H 0.96757 0.22673 0.59438
 H376 H 0.92294 0.18482 0.54923
 C377 C 0.40163 0.08138 0.28061
 C378 C 0.44194 0.09170 0.30192
 C379 C 0.46600 0.11728 0.28035
 C380 C 0.44923 0.12875 0.23818
 C381 C 0.43750 0.08918 0.21681
 C382 C 0.41356 0.06433 0.23904
 C383 C 0.38259 0.12263 0.27147
 C384 C 0.40756 0.14768 0.24985
 H385 H 0.44851 0.08446 0.33349
 H386 H 0.49052 0.13290 0.29529
 H387 H 0.44707 0.08154 0.18611
 H388 H 0.40301 0.03550 0.22745
 H389 H 0.35349 0.13237 0.28350
 H390 H 0.39963 0.17908 0.24502
 C391 C 0.60150 0.08219 0.72665
 C392 C 0.56243 0.06208 0.74141
 C393 C 0.53790 0.08637 0.76349
 C394 C 0.55269 0.13003 0.76712
 C395 C 0.59509 0.12380 0.78725
 C396 C 0.62066 0.09923 0.76580
 C397 C 0.58802 0.11936 0.70257
 C398 C 0.56330 0.14454 0.72385
 H399 H 0.55823 0.02995 0.74160
 H400 H 0.51610 0.07299 0.78384
 H401 H 0.60345 0.13467 0.81723
 H402 H 0.65051 0.09092 0.77705
 H403 H 0.59877 0.12642 0.67213
 H404 H 0.55334 0.17328 0.71155
 C405 C 0.40622 0.91573 0.71236
 C406 C 0.38570 0.87454 0.71873
 C407 C 0.40926 0.84765 0.73989
 C408 C 0.45106 0.86480 0.75373
 C409 C 0.46937 0.87782 0.71272
 C410 C 0.44688 0.90523 0.69186
 C411 C 0.41713 0.93016 0.75516
 C412 C 0.43942 0.90343 0.77684
 H413 H 0.35663 0.86635 0.70546
 H414 H 0.40019 0.81636 0.74318
 H415 H 0.49396 0.86224 0.69783
 H416 H 0.45475 0.91387 0.66096
 H417 H 0.40659 0.95838 0.76814
 H418 H 0.44766 0.90897 0.80839
 C419 C 0.59663 0.91825 0.28066
 C420 C 0.58319 0.93571 0.23968
 C421 C 0.55928 0.91065 0.21759
 C422 C 0.54904 0.87052 0.23863
 C423 C 0.59148 0.85239 0.24855
 C424 C 0.61642 0.87759 0.27016
 C425 C 0.55726 0.90654 0.30283
 C426 C 0.53331 0.88081 0.28148
 H427 H 0.59303 0.96484 0.22820
 H428 H 0.54905 0.91838 0.18711
 H429 H 0.60034 0.82160 0.24179
 H430 H 0.64633 0.86855 0.28068
 H431 H 0.55154 0.91277 0.33478
 H432 H 0.50987 0.86405 0.29691
 C433 C 0.40232 0.27942 0.91688
 C434 C 0.44149 0.30092 0.90357
 C435 C 0.46478 0.27909 0.87774
 C436 C 0.44889 0.23645 0.86897
 C437 C 0.43923 0.21668 0.91019
 C438 C 0.41591 0.23930 0.93536
 C439 C 0.38165 0.26793 0.87649
 C440 C 0.40607 0.24574 0.85115
 H441 H 0.44714 0.33285 0.90822
 H442 H 0.48714 0.29413 0.85924
 H443 H 0.44898 0.18646 0.91836
 H444 H 0.40622 0.22857 0.96507
 H445 H 0.35158 0.27815 0.86767
 H446 H 0.39659 0.23822 0.82042
 C447 C 0.59132 0.71577 0.91405
 C448 C 0.55081 0.69497 0.90389
 C449 C 0.52793 0.71521 0.87619
 C450 C 0.54573 0.75595 0.86268
 C451 C 0.55743 0.77915 0.90152
 C452 C 0.58011 0.75809 0.92848
 C453 C 0.61146 0.72203 0.87227
 C454 C 0.58751 0.74255 0.84515
 H455 H 0.54353 0.66422 0.91257
 H456 H 0.50391 0.69977 0.86027
 H457 H 0.54903 0.81036 0.90695
 H458 H 0.59075 0.77121 0.95683
 H459 H 0.64058 0.70911 0.86387
 H460 H 0.59628 0.74567 0.81344
 C461 C 0.39847 0.72654 0.08324
 C462 C 0.41223 0.70317 0.12101
 C463 C 0.43670 0.72475 0.14631
 C464 C 0.44671 0.76766 0.13138
 C465 C 0.46155 0.76395 0.08732
 C466 C 0.43741 0.74148 0.06296
 C467 C 0.37879 0.76516 0.10013
 C468 C 0.40404 0.78691 0.12488
 H469 H 0.40192 0.67292 0.12832
 H470 H 0.44692 0.71287 0.17538
 H471 H 0.48307 0.78426 0.07364
 H472 H 0.44194 0.74101 0.03058
 H473 H 0.34876 0.77576 0.09167
 H474 H 0.39524 0.81649 0.13576
 C475 C 0.59339 0.28081 0.08463
 C476 C 0.61312 0.27153 0.12599
 C477 C 0.58876 0.24937 0.15132
 C478 C 0.54702 0.23752 0.13247
 C479 C 0.52966 0.27923 0.12174
 C480 C 0.55298 0.30119 0.09582
 C481 C 0.58193 0.23971 0.06705
 C482 C 0.55872 0.21702 0.09218
 H483 H 0.64211 0.28386 0.13567
 H484 H 0.59710 0.24450 0.18292
 H485 H 0.50622 0.29404 0.13901
 H486 H 0.54630 0.33267 0.08971
 H487 H 0.59261 0.22860 0.03784
 H488 H 0.55003 0.18636 0.08443
 C489 C 0.28228 0.08498 0.59421
 C490 C 0.24016 0.06931 0.58280
 C491 C 0.21765 0.09579 0.56100
 C492 C 0.23938 0.13540 0.55010
 C493 C 0.25230 0.15214 0.59247
 C494 C 0.27434 0.12549 0.61563
 C495 C 0.30248 0.09715 0.55380
 C496 C 0.28085 0.12431 0.53181
 H497 H 0.22812 0.04050 0.59286
 H498 H 0.18629 0.08949 0.55284
 H499 H 0.24791 0.18308 0.60223
 H500 H 0.28715 0.13350 0.64501
 H501 H 0.33377 0.09021 0.54608
 H502 H 0.29555 0.14144 0.50812
 C503 C 0.72777 0.07781 0.39927
 C504 C 0.74100 0.05731 0.43900
 C505 C 0.76440 0.08081 0.46336
 C506 C 0.77093 0.12406 0.44770
 C507 C 0.79071 0.11589 0.40548
 C508 C 0.76800 0.09218 0.38010
 C509 C 0.70612 0.11665 0.41212
 C510 C 0.72873 0.14082 0.43669
 H511 H 0.73751 0.02519 0.44464
 H512 H 0.78253 0.06699 0.48678
 H513 H 0.82116 0.12528 0.39709
 H514 H 0.77886 0.08295 0.35031
 H515 H 0.67617 0.12535 0.40137
 H516 H 0.71795 0.17015 0.44664
 C517 C 0.73045 0.92265 0.60180
 C518 C 0.70912 0.88335 0.59031
 C519 C 0.73148 0.85917 0.56567
 C520 C 0.77305 0.87649 0.55313
 C521 C 0.76537 0.91934 0.53687
 C522 C 0.74211 0.94278 0.56143
 C523 C 0.77142 0.90952 0.62011
 C524 C 0.79393 0.88590 0.59457
 H525 H 0.67958 0.87446 0.60197
 H526 H 0.72089 0.82950 0.55649
 H527 H 0.78273 0.93317 0.51286
 H528 H 0.73779 0.97471 0.55545
 H529 H 0.78310 0.92010 0.64912
 H530 H 0.82513 0.87824 0.60193
 C531 C 0.26950 0.91902 0.39847
 C532 C 0.29286 0.88107 0.41071
 C533 C 0.27144 0.85572 0.43506
 C534 C 0.22874 0.87073 0.44664
 C535 C 0.23323 0.91390 0.46248
 C536 C 0.25555 0.93835 0.43832
 C537 C 0.22990 0.90332 0.37921
 C538 C 0.20825 0.87844 0.40450
 H539 H 0.32293 0.87367 0.39938
 H540 H 0.28329 0.82653 0.44419
 H541 H 0.21325 0.92713 0.48471
 H542 H 0.25613 0.97033 0.44340
 H543 H 0.21848 0.91291 0.34975
 H544 H 0.17783 0.86871 0.39640
 C545 C 0.08116 0.39936 0.72704
 C546 C 0.09522 0.38212 0.76824
 C547 C 0.12020 0.40757 0.78946
 C548 C 0.12968 0.44798 0.76725
 C549 C 0.14574 0.43432 0.72534
 C550 C 0.12041 0.40947 0.70432
 C551 C 0.06243 0.44014 0.73785
 C552 C 0.08668 0.46435 0.76035
 H553 H 0.08465 0.35372 0.78080
 H554 H 0.12909 0.40078 0.82054
 H555 H 0.17529 0.44300 0.71354
 H556 H 0.12826 0.39710 0.67474
 H557 H 0.03135 0.44801 0.73155
 H558 H 0.07344 0.48890 0.77700
 C559 C 0.08384 0.59896 0.27815
 C560 C 0.11996 0.58501 0.30392
 C561 C 0.14672 0.56136 0.28335
 C562 C 0.13469 0.55215 0.23900
 C563 C 0.09060 0.53722 0.23953
 C564 C 0.06470 0.56062 0.26100
 C565 C 0.10315 0.61933 0.24073
 C566 C 0.12933 0.59482 0.21999
 H567 H 0.12530 0.59484 0.33500
 H568 H 0.17511 0.55146 0.29690
 H569 H 0.07841 0.51658 0.21739
 H570 H 0.03240 0.55632 0.25864
 H571 H 0.09526 0.64927 0.22997
 H572 H 0.14192 0.60419 0.19105
 C573 C 0.91655 0.40575 0.27933
 C574 C 0.87599 0.38536 0.26855
 C575 C 0.85033 0.40962 0.24656
 C576 C 0.86799 0.45204 0.23650
 C577 C 0.87766 0.46802 0.27933
 C578 C 0.90379 0.44485 0.30104
 C579 C 0.93420 0.41907 0.23840
 C580 C 0.90873 0.44219 0.21589
 H581 H 0.86729 0.35559 0.27917
 H582 H 0.81948 0.40029 0.23968
 H583 H 0.86043 0.49132 0.29431
 H584 H 0.90974 0.45105 0.33296
 H585 H 0.96357 0.40938 0.22705
 H586 H 0.91648 0.45197 0.18528
 C587 C 0.91696 0.59257 0.72029
 C588 C 0.90422 0.55359 0.69852
 C589 C 0.87722 0.53095 0.71984
 C590 C 0.86678 0.54738 0.76240
 C591 C 0.90731 0.55666 0.78376
 C592 C 0.93361 0.57926 0.76165
 C593 C 0.87645 0.61355 0.73007
 C594 C 0.85001 0.58990 0.75168
 H595 H 0.91030 0.54759 0.66659
 H596 H 0.85907 0.50897 0.70404
 H597 H 0.91420 0.54723 0.81469
 H598 H 0.96294 0.58854 0.77351
 H599 H 0.86838 0.64335 0.71903
 H600 H 0.81918 0.59972 0.75788
 C601 C 0.71672 0.59663 0.91862
 C602 C 0.69500 0.55756 0.90561
 C603 C 0.71678 0.53441 0.87957
 C604 C 0.75962 0.55025 0.87015
 C605 C 0.74993 0.59268 0.85241
 C606 C 0.72783 0.61696 0.87795
 C607 C 0.75744 0.58314 0.93659
 C608 C 0.77995 0.55994 0.91115
 H609 H 0.66297 0.55163 0.91084
 H610 H 0.70162 0.51172 0.86167
 H611 H 0.75715 0.60204 0.82158
 H612 H 0.71743 0.64676 0.86906
 H613 H 0.76866 0.59269 0.96618
 H614 H 0.81044 0.55016 0.91905
 C615 C 0.28486 0.40654 0.91720
 C616 C 0.27818 0.38654 0.87542
 C617 C 0.25753 0.41039 0.84832
 C618 C 0.24439 0.45200 0.86574
 C619 C 0.22112 0.44067 0.90472
 C620 C 0.24230 0.41813 0.93173
 C621 C 0.30603 0.44668 0.90673
 C622 C 0.28561 0.46945 0.87906
 H623 H 0.29097 0.35756 0.86692
 H624 H 0.25427 0.40162 0.81665
 H625 H 0.18983 0.44946 0.91036
 H626 H 0.22911 0.40802 0.96028
 H627 H 0.33692 0.45411 0.91559
 H628 H 0.30081 0.49384 0.86357
 C629 C 0.27823 0.60106 0.08359
 C630 C 0.26299 0.56202 0.06405
 C631 C 0.24190 0.53761 0.08944
 C632 C 0.23955 0.55242 0.13358
 C633 C 0.28318 0.56309 0.14667
 C634 C 0.30345 0.58781 0.12053
 C635 C 0.23964 0.61986 0.10206
 C636 C 0.21922 0.59442 0.12766
 H637 H 0.26187 0.55752 0.03169
 H638 H 0.22157 0.51559 0.07668
 H639 H 0.29659 0.55297 0.17512
 H640 H 0.33406 0.59846 0.12665
 H641 H 0.22789 0.64939 0.09402
 H642 H 0.18965 0.60256 0.13949
 C643 C 0.71742 0.40516 0.08220
 C644 C 0.69582 0.44445 0.09459
 C645 C 0.71777 0.46794 0.12029
 C646 C 0.76058 0.45203 0.12986
 C647 C 0.75066 0.40991 0.14823
 C648 C 0.72850 0.38536 0.12310
 C649 C 0.75811 0.41833 0.06392
 C650 C 0.78074 0.44182 0.08893
 H651 H 0.66378 0.45029 0.08934
 H652 H 0.70261 0.49070 0.13803
 H653 H 0.75764 0.40104 0.17927
 H654 H 0.71785 0.35579 0.13250
 H655 H 0.76914 0.40850 0.03436
 H656 H 0.81117 0.45156 0.08074
 C657 C 0.91807 0.71675 0.59673
 C658 C 0.87721 0.72664 0.61708
 C659 C 0.85197 0.74939 0.59310
 C660 C 0.87030 0.76115 0.55099
 C661 C 0.91100 0.78094 0.56231
 C662 C 0.93606 0.75773 0.58514
 C663 C 0.90578 0.69688 0.55610
 C664 C 0.88006 0.71944 0.53322
 H665 H 0.86773 0.71444 0.64627
 H666 H 0.82072 0.75488 0.60200
 H667 H 0.91908 0.81153 0.55366
 H668 H 0.96549 0.76845 0.59551
 H669 H 0.91124 0.66541 0.54880
 H670 H 0.86259 0.70532 0.50942
 C671 C 0.92214 0.27571 0.40040
 C672 C 0.94297 0.26245 0.43998
 C673 C 0.91968 0.23845 0.46399
 C674 C 0.87624 0.23136 0.44821
 C675 C 0.85860 0.27307 0.43766
 C676 C 0.88260 0.29630 0.41347
 C677 C 0.90840 0.23573 0.38072
 C678 C 0.88489 0.21243 0.40576
 H679 H 0.97524 0.26645 0.44572
 H680 H 0.93394 0.22038 0.48715
 H681 H 0.82879 0.28305 0.44760
 H682 H 0.87331 0.32599 0.40307
 H683 H 0.91797 0.22544 0.35084
 H684 H 0.87610 0.18212 0.39697
 C685 C 0.07681 0.27423 0.60276
 C686 C 0.11613 0.29620 0.59149
 C687 C 0.14093 0.27470 0.56662
 C688 C 0.12431 0.23325 0.55365
 C689 C 0.11520 0.21197 0.59489
 C690 C 0.09090 0.23357 0.62065
 C691 C 0.05687 0.26260 0.56219
 C692 C 0.08101 0.24024 0.53743
 H693 H 0.12463 0.32554 0.60347
 H694 H 0.17064 0.28583 0.55760
 H695 H 0.12371 0.18116 0.60202
 H696 H 0.08062 0.22140 0.64957
 H697 H 0.02466 0.26636 0.55604
 H698 H 0.06752 0.22314 0.51309
 C699 C 0.08161 0.71548 0.40502
 C700 C 0.09190 0.69466 0.44572
 C701 C 0.11879 0.71544 0.46907
 C702 C 0.13151 0.75655 0.45156
 C703 C 0.14963 0.74368 0.40972
 C704 C 0.12330 0.72280 0.38531
 C705 C 0.06609 0.75740 0.41657
 C706 C 0.09227 0.77886 0.43981
 H707 H 0.08436 0.66352 0.45265
 H708 H 0.13527 0.69983 0.49259
 H709 H 0.18138 0.74685 0.40143
 H710 H 0.13247 0.70994 0.35631
 H711 H 0.03745 0.76992 0.40604
 H712 H 0.08598 0.80982 0.44855
 C713 C 0.60075 0.91839 0.72553
 C714 C 0.59093 0.87938 0.70271
 C715 C 0.56554 0.85424 0.72334
 C716 C 0.55103 0.87019 0.76500
 C717 C 0.59138 0.87963 0.78785
 C718 C 0.61739 0.90445 0.76705
 C719 C 0.55944 0.93693 0.73561
 C720 C 0.53469 0.91289 0.75775
 H721 H 0.60390 0.87154 0.67336
 H722 H 0.55702 0.82489 0.71143
 H723 H 0.59776 0.87066 0.81899
 H724 H 0.64583 0.91489 0.78004
 H725 H 0.55149 0.96770 0.72891
 H726 H 0.50970 0.92609 0.77394
 C727 C 0.39914 0.92146 0.27622
 C728 C 0.38114 0.90627 0.23579
 C729 C 0.40698 0.88206 0.21432
 C730 C 0.44850 0.87417 0.23549
 C731 C 0.46404 0.91758 0.24150
 C732 C 0.43910 0.94164 0.26373
 C733 C 0.41128 0.88320 0.29926
 C734 C 0.43638 0.85846 0.27793
 H735 H 0.35181 0.91544 0.22386
 H736 H 0.39949 0.87215 0.18376
 H737 H 0.48767 0.93113 0.22354
 H738 H 0.44450 0.97384 0.26656
 H739 H 0.39981 0.87539 0.32925
 H740 H 0.44609 0.82947 0.28983
 C741 C 0.59880 0.07708 0.27296
 C742 C 0.61636 0.08966 0.23145
 C743 C 0.59043 0.11287 0.20886
 C744 C 0.54931 0.12251 0.23016
 C745 C 0.53335 0.07973 0.23887
 C746 C 0.55838 0.05668 0.26214
 C747 C 0.58740 0.11670 0.29382
 C748 C 0.56227 0.14041 0.27143
 H749 H 0.64524 0.07913 0.21959
 H750 H 0.59736 0.12036 0.17745
 H751 H 0.50878 0.06572 0.22252
 H752 H 0.55250 0.02484 0.26723
 H753 H 0.59931 0.12604 0.32319
 H754 H 0.55290 0.17006 0.28185
 C755 C 0.40708 0.08072 0.71820
 C756 C 0.42026 0.06364 0.75941
 C757 C 0.44284 0.08949 0.78209
 C758 C 0.45225 0.13009 0.76144
 C759 C 0.46910 0.12041 0.71887
 C760 C 0.44652 0.09388 0.69698
 C761 C 0.38578 0.12071 0.72847
 C762 C 0.40940 0.14672 0.75066
 H763 H 0.41079 0.03439 0.77082
 H764 H 0.45205 0.08226 0.81302
 H765 H 0.49125 0.13875 0.70347
 H766 H 0.45286 0.08843 0.66500
 H767 H 0.35579 0.12879 0.71738
 H768 H 0.39933 0.17718 0.75727
 C769 C 0.59308 0.72196 0.08118
 C770 C 0.61447 0.73275 0.12139
 C771 C 0.59058 0.75437 0.14773
 C772 C 0.54738 0.76411 0.13118
 C773 C 0.55616 0.78456 0.09002
 C774 C 0.57898 0.76243 0.06386
 C775 C 0.55412 0.70027 0.09488
 C776 C 0.53130 0.72162 0.12170
 H777 H 0.64475 0.72246 0.12938
 H778 H 0.60076 0.76128 0.17839
 H779 H 0.54634 0.81496 0.08266
 H780 H 0.58805 0.77378 0.03421
 H781 H 0.54824 0.66850 0.08950
 H782 H 0.50935 0.70613 0.14027
 C783 C 0.40041 0.27230 0.07753
 C784 C 0.38132 0.23161 0.08955
 C785 C 0.40612 0.20824 0.11328
 C786 C 0.44771 0.22803 0.12388
 C787 C 0.46457 0.23646 0.08100
 C788 C 0.44076 0.26050 0.05753
 C789 C 0.41167 0.29222 0.11794
 C790 C 0.43548 0.26899 0.14220
 H791 H 0.35239 0.22076 0.07806
 H792 H 0.39818 0.17719 0.12000
 H793 H 0.48814 0.21892 0.06682
 H794 H 0.44711 0.26521 0.02541
 H795 H 0.40021 0.32138 0.12759
 H796 H 0.44402 0.27844 0.17269
 C797 C 0.59689 0.27544 0.92225
 C798 C 0.55700 0.26220 0.94215
 C799 C 0.53299 0.23942 0.91766
 C800 C 0.54917 0.23371 0.87406
 C801 C 0.56062 0.27585 0.85807
 C802 C 0.58478 0.29772 0.88329
 C803 C 0.61609 0.23578 0.90742
 C804 C 0.59109 0.21377 0.88268
 H805 H 0.55138 0.26456 0.97468
 H806 H 0.51043 0.22036 0.93140
 H807 H 0.55153 0.28703 0.82833
 H808 H 0.59593 0.32749 0.87524
 H809 H 0.64559 0.22480 0.91719
 H810 H 0.59944 0.18368 0.87287
 C811 C 0.39795 0.72585 0.91751
 C812 C 0.40842 0.70320 0.87833
 C813 C 0.43282 0.72434 0.85255
 C814 C 0.44593 0.76623 0.86818
 C815 C 0.40480 0.78743 0.87752
 C816 C 0.37971 0.76615 0.90294
 C817 C 0.43886 0.73766 0.93598
 C818 C 0.46263 0.76023 0.91135
 H819 H 0.39641 0.67364 0.87075
 H820 H 0.44141 0.71268 0.82287
 H821 H 0.39724 0.81794 0.86830
 H822 H 0.35088 0.77811 0.91349
 H823 H 0.44698 0.73210 0.96720
 H824 H 0.48689 0.77762 0.92442
 C825 C 0.72174 0.91871 0.40629
 C826 C 0.70080 0.90818 0.44679
 C827 C 0.72216 0.88201 0.47037
 C828 C 0.76396 0.87021 0.45317
 C829 C 0.75170 0.85188 0.41128
 C830 C 0.73014 0.87748 0.38671
 C831 C 0.76357 0.93505 0.41797
 C832 C 0.78566 0.90963 0.44149
 H833 H 0.66936 0.91541 0.45358
 H834 H 0.70697 0.86585 0.49439
 H835 H 0.75603 0.82052 0.40293
 H836 H 0.71773 0.86819 0.35754
 H837 H 0.77554 0.96369 0.40731
 H838 H 0.81662 0.91663 0.45053
 C839 C 0.28091 0.91859 0.59102
 C840 C 0.23880 0.93398 0.57915
 C841 C 0.21663 0.90731 0.55709
 C842 C 0.23859 0.86765 0.54671
 C843 C 0.28014 0.87914 0.52869
 C844 C 0.30146 0.90652 0.55081
 C845 C 0.27300 0.87805 0.61242
 C846 C 0.25133 0.85122 0.58922
 H847 H 0.22652 0.96271 0.58909
 H848 H 0.18526 0.91331 0.54881
 H849 H 0.29565 0.86151 0.50600
 H850 H 0.33291 0.91335 0.54359
 H851 H 0.28560 0.87015 0.64193
 H852 H 0.24701 0.82029 0.59910
 C853 C 0.27075 0.08188 0.40160
 C854 C 0.22932 0.09464 0.38390
 C855 C 0.20729 0.11891 0.40933
 C856 C 0.22893 0.12911 0.45017
 C857 C 0.23688 0.08667 0.46691
 C858 C 0.26027 0.06320 0.44283
 C859 C 0.29225 0.12148 0.41168
 C860 C 0.27034 0.14618 0.43640
 H861 H 0.21717 0.08363 0.35524
 H862 H 0.17606 0.12669 0.40228
 H863 H 0.21982 0.07282 0.49100
 H864 H 0.26735 0.03258 0.45100
 H865 H 0.32154 0.13008 0.39920
 H866 H 0.28108 0.17602 0.44476
 C867 C 0.72457 0.08061 0.59720
 C868 C 0.73586 0.12127 0.61647
 C869 C 0.75779 0.14578 0.59110
 C870 C 0.76740 0.12703 0.54870
 C871 C 0.78754 0.08656 0.55944
 C872 C 0.76508 0.06224 0.58387
 C873 C 0.70271 0.09228 0.55749
 C874 C 0.72448 0.11728 0.53308
 H875 H 0.72553 0.13091 0.64631
 H876 H 0.76489 0.17661 0.59956
 H877 H 0.81775 0.07812 0.54925
 H878 H 0.77603 0.03309 0.59420
 H879 H 0.67070 0.08667 0.55184
 H880 H 0.70927 0.13411 0.50956
 C881 C 0.91787 0.60036 0.27496
 C882 C 0.90416 0.61860 0.23408
 C883 C 0.87996 0.59339 0.21171
 C884 C 0.87089 0.55215 0.23246
 C885 C 0.91404 0.53631 0.23968
 C886 C 0.93749 0.56027 0.26324
 C887 C 0.87841 0.58889 0.29670
 C888 C 0.85385 0.56425 0.27447
 H889 H 0.91405 0.64774 0.22277
 H890 H 0.87075 0.60119 0.18098
 H891 H 0.92811 0.51277 0.22227
 H892 H 0.96877 0.55303 0.26944
 H893 H 0.86982 0.60030 0.32647
 H894 H 0.82421 0.55481 0.28541
 C895 C 0.91580 0.39944 0.72692
 C896 C 0.87845 0.41287 0.70266
 C897 C 0.85288 0.43729 0.72388
 C898 C 0.86714 0.44769 0.76731
 C899 C 0.87338 0.40550 0.78725
 C900 C 0.89838 0.38027 0.76588
 C901 C 0.93581 0.43824 0.74196
 C902 C 0.91115 0.46243 0.76402
 H903 H 0.87159 0.40235 0.67212
 H904 H 0.82402 0.44723 0.71138
 H905 H 0.86216 0.39702 0.81708
 H906 H 0.90670 0.35059 0.77705
 H907 H 0.96814 0.44270 0.74205
 H908 H 0.92444 0.48415 0.78438
 C909 C 0.08374 0.59286 0.71641
 C910 C 0.06930 0.58147 0.75911
 C911 C 0.09619 0.55884 0.78037
 C912 C 0.13501 0.54737 0.75698
 C913 C 0.12158 0.52985 0.71580
 C914 C 0.09404 0.55266 0.69536
 C915 C 0.12538 0.61285 0.72293
 C916 C 0.15243 0.58898 0.74360
 H917 H 0.04094 0.59185 0.77231
 H918 H 0.09066 0.55020 0.81180
 H919 H 0.13696 0.50547 0.70054
 H920 H 0.08511 0.54522 0.66443
 H921 H 0.13377 0.64180 0.70998
 H922 H 0.18405 0.59773 0.74668
 C923 C 0.08299 0.40707 0.28189
 C924 C 0.12360 0.38592 0.27269
 C925 C 0.15079 0.40974 0.25210
 C926 C 0.13467 0.45259 0.24183
 C927 C 0.09461 0.44395 0.21930
 C928 C 0.06756 0.42121 0.24035
 C929 C 0.09558 0.44554 0.30463
 C930 C 0.12334 0.46826 0.28444
 H931 H 0.13108 0.35577 0.28319
 H932 H 0.18158 0.39968 0.24610
 H933 H 0.08876 0.45358 0.18822
 H934 H 0.03866 0.41206 0.22741
 H935 H 0.08905 0.45086 0.33660
 H936 H 0.14166 0.48929 0.30131
   
