data_POSCAR
  _audit_creation_date              2014-09-24
  _audit_creation_method            'ToBaCCo'
  _symmetry_space_group_name_H-M    'P1'
  _symmetry_Int_Tables_number       1
  _symmetry_cell_setting            triclinic
  loop_
  _symmetry_equiv_pos_as_xyz
 x,y,z
_cell_length_a 23.6993
_cell_length_b 23.5761
_cell_length_c 23.6885
_cell_angle_alpha 77.396900
_cell_angle_beta 83.096200
_cell_angle_gamma 99.438400
loop_
  _atom_site_label
  _atom_site_type_symbol
  _atom_site_fract_x
  _atom_site_fract_y
  _atom_site_fract_z
O1 O 0.59031 0.50902 0.07452
 O2 O 0.44905 0.50329 0.02370
 O3 O 0.50298 0.42500 0.07302
 O4 O 0.53349 0.58722 0.02529
 O5 O 0.57706 0.58411 -0.06159
 O6 O 0.54240 0.42114 -0.01516
 O7 O 0.49049 0.50346 -0.06507
 O8 O 0.63005 0.50271 -0.01262
 Cu9 Cu 0.51527 0.50659 0.05817
 Cu10 Cu 0.56437 0.50217 -0.04729
 C11 C 0.63422 0.50660 0.03936
 C12 C 0.44587 0.50323 -0.02946
 C13 C 0.51626 0.39548 0.03640
 C14 C 0.55966 0.61324 -0.02611
 O15 O -0.05482 0.57769 0.48724
 O16 O -0.08480 0.41534 0.54814
 O17 O -0.06387 0.51006 0.58839
 O18 O -0.07865 0.48359 0.44402
 O19 O 0.01535 0.48530 0.42546
 O20 O 0.02932 0.50677 0.57355
 O21 O 0.00839 0.41447 0.52704
 O22 O 0.03853 0.57636 0.46909
 Cu23 Cu -0.08006 0.49633 0.51840
 Cu24 Cu 0.03235 0.49549 0.49744
 C25 C -0.00260 0.60478 0.46908
 C26 C -0.04341 0.38728 0.54668
 C27 C -0.01488 0.51439 0.60501
 C28 C -0.03440 0.47996 0.41014
 O29 O 0.51041 0.06959 0.53261
 O30 O 0.49157 0.01720 0.39948
 O31 O 0.43249 0.07140 0.46320
 O32 O 0.56763 0.01314 0.47053
 O33 O 0.51692 -0.07278 0.52440
 O34 O 0.38261 -0.01374 0.51952
 O35 O 0.43939 -0.06763 0.45418
 O36 O 0.46148 -0.01630 0.58817
 Cu37 Cu 0.50548 0.05143 0.46100
 Cu38 Cu 0.44508 -0.05122 0.52701
 C39 C 0.49019 0.03561 0.58293
 C40 C 0.46160 -0.03388 0.40415
 C41 C 0.38455 0.03855 0.48988
 C42 C 0.56514 -0.03973 0.49915
 C43 C 0.49645 -0.02454 0.01028
 C44 C 0.49798 0.02781 -0.02819
 C45 C 0.50219 0.03415 -0.09274
 C46 C 0.49484 0.08143 -0.00629
 C47 C 0.48469 -0.03025 0.07446
 C48 C 0.51051 -0.07702 -0.00906
 C49 C 0.54165 0.08126 -0.13197
 C50 C 0.54361 0.08963 -0.19236
 C51 C 0.50624 0.05120 -0.21540
 C52 C 0.46691 0.00362 -0.17632
 C53 C 0.46473 -0.00459 -0.11559
 C54 C 0.54603 0.11966 -0.00411
 C55 C 0.54351 0.17121 0.01496
 C56 C 0.48978 0.18401 0.03411
 C57 C 0.43857 0.14436 0.03452
 C58 C 0.44105 0.09357 0.01370
 C59 C 0.42824 -0.05201 0.10540
 C60 C 0.41748 -0.06089 0.16630
 C61 C 0.46269 -0.04650 0.19707
 C62 C 0.51894 -0.02275 0.16575
 C63 C 0.52995 -0.01525 0.10489
 C64 C 0.47422 -0.13273 0.01390
 C65 C 0.48961 -0.18310 -0.00016
 C66 C 0.54173 -0.17888 -0.03741
 C67 C 0.57735 -0.12298 -0.06177
 C68 C 0.56215 -0.07249 -0.04727
 H69 H 0.57128 0.11186 -0.11623
 H70 H 0.57455 0.12650 -0.22122
 H71 H 0.43695 -0.02643 -0.19240
 H72 H 0.43298 -0.04054 -0.08640
 H73 H 0.58788 0.10982 -0.01777
 H74 H 0.58339 0.20100 0.01521
 H75 H 0.40125 0.06380 0.01308
 H76 H 0.39269 -0.06295 0.08242
 H77 H 0.37376 -0.07876 0.18951
 H78 H 0.55455 -0.01168 0.18856
 H79 H 0.57374 0.00180 0.08151
 H80 H 0.43398 -0.13755 0.04296
 H81 H 0.46058 -0.22537 0.01818
 H82 H 0.61773 -0.11871 -0.09052
 H83 H 0.59136 -0.03010 -0.06471
 H84 H 0.39683 0.15374 0.04926
 C85 C 0.02079 0.50414 0.98438
 C86 C 0.06000 0.49147 1.02042
 C87 C 0.12189 0.49332 0.99805
 C88 C 0.04263 0.47714 1.08510
 C89 C -0.04060 0.50360 1.00719
 C90 C 0.03515 0.51893 0.91975
 C91 C 0.14925 0.44844 1.02494
 C92 C 0.20827 0.45125 1.00814
 C93 C 0.24076 0.49826 0.96327
 C94 C 0.21374 0.54265 0.93547
 C95 C 0.15501 0.54099 0.95362
 C96 C -0.00422 0.43113 1.11379
 C97 C -0.02542 0.42414 1.17299
 C98 C 0.00109 0.46166 1.20484
 C99 C 0.05056 0.50482 1.17711
 C100 C 0.07105 0.51258 1.11764
 C101 C -0.05535 0.54058 1.04347
 C102 C -0.11361 0.54093 1.06209
 C103 C -0.15775 0.50557 1.04337
 C104 C -0.14278 0.46847 1.00741
 C105 C -0.08485 0.46747 0.98958
 C106 C 0.02788 0.57423 0.88854
 C107 C 0.02551 0.58448 0.82890
 C108 C 0.02985 0.53949 0.79938
 C109 C 0.04229 0.48573 0.82946
 C110 C 0.04482 0.47544 0.88960
 H111 H 0.12499 0.41152 1.05961
 H112 H 0.22876 0.41673 1.02999
 H113 H 0.23874 0.57974 0.90146
 H114 H 0.13611 0.57774 0.93399
 H115 H -0.02587 0.40241 1.08969
 H116 H -0.06322 0.39019 1.19375
 H117 H 0.10749 0.54803 1.09633
 H118 H -0.02183 0.56961 1.05668
 H119 H -0.12423 0.57009 1.08955
 H120 H -0.17594 0.44010 0.99308
 H121 H -0.07444 0.43862 0.96165
 H122 H 0.02018 0.60813 0.91127
 H123 H 0.01627 0.62632 0.80652
 H124 H 0.04526 0.45013 0.80782
 H125 H 0.04973 0.43223 0.91337
 H126 H 0.07159 0.53456 1.20055
 C127 C -0.00354 -0.01648 0.49300
 C128 C -0.04907 0.00887 0.50707
 C129 C -0.10928 -0.01744 0.50368
 C130 C -0.04184 0.06584 0.52488
 C131 C 0.05676 0.01071 0.49568
 C132 C -0.01050 -0.07387 0.47562
 C133 C -0.13429 0.00478 0.45483
 C134 C -0.19371 -0.01268 0.45516
 C135 C -0.22883 -0.05304 0.50423
 C136 C -0.20330 -0.07653 0.55233
 C137 C -0.14424 -0.05798 0.55253
 C138 C -0.02215 0.11974 0.48274
 C139 C -0.02391 0.17363 0.49791
 C140 C -0.04713 0.17450 0.55514
 C141 C -0.06623 0.12053 0.59739
 C142 C -0.06332 0.06671 0.58247
 C143 C 0.08470 -0.01526 0.54065
 C144 C 0.14421 0.00345 0.53866
 C145 C 0.17681 0.04851 0.49153
 C146 C 0.14826 0.07580 0.44759
 C147 C 0.08893 0.05645 0.44919
 C148 C -0.03832 -0.12705 0.51597
 C149 C -0.03563 -0.18178 0.50287
 C150 C -0.00344 -0.18431 0.44995
 C151 C 0.02313 -0.13116 0.40909
 C152 C 0.01932 -0.07651 0.42162
 H153 H -0.10812 0.03719 0.41733
 H154 H -0.21239 0.00588 0.41750
 H155 H -0.22966 -0.10703 0.59093
 H156 H -0.12628 -0.07364 0.59161
 H157 H -0.00818 0.12010 0.43746
 H158 H -0.01026 0.21440 0.46406
 H159 H -0.07984 0.02559 0.61536
 H160 H 0.06071 -0.05140 0.57628
 H161 H 0.16489 -0.01801 0.57342
 H162 H 0.17244 0.11009 0.41048
 H163 H 0.06879 0.07524 0.41276
 H164 H -0.05890 -0.12656 0.55906
 H165 H -0.05514 -0.22210 0.53580
 H166 H 0.04859 -0.13210 0.36829
 H167 H 0.04196 -0.03621 0.39020
 H168 H -0.08461 0.12008 0.64163
 N169 N -0.23956 0.52255 1.10711
 N170 N -0.29564 0.52273 1.10796
 C171 C -0.30902 0.50875 1.05828
 C172 C -0.25983 0.49992 1.02713
 N173 N -0.21742 0.50870 1.05899
 H174 H -0.25515 0.48963 0.98465
 N175 N 0.32937 0.51019 0.89393
 N176 N 0.38535 0.51081 0.89457
 C177 C 0.39293 0.50339 0.95111
 C178 C 0.34005 0.49776 0.98516
 N179 N 0.30168 0.50215 0.94789
 H180 H 0.33030 0.49145 1.03223
 N181 N 0.06117 -0.24551 0.41853
 N182 N 0.06342 -0.30218 0.42404
 C183 C 0.01057 -0.33359 0.45065
 C184 C -0.02435 -0.29423 0.46137
 N185 N 0.00910 -0.23965 0.44096
 H186 H -0.06829 -0.30436 0.48486
 N187 N -0.10134 0.23340 0.60575
 N188 N -0.10242 0.28974 0.60443
 C189 C -0.05588 0.32232 0.56583
 C190 C -0.02642 0.28429 0.54320
 N191 N -0.05626 0.22911 0.56907
 H192 H 0.01143 0.29585 0.50941
 N193 N 0.53550 0.11236 -0.31525
 N194 N 0.53183 0.10982 -0.36998
 C195 C 0.50092 0.05580 -0.36761
 C196 C 0.48551 0.02516 -0.30939
 N197 N 0.50815 0.06210 -0.27802
 H198 H 0.46184 -0.01990 -0.29205
 N199 N 0.41159 -0.10177 0.29418
 N200 N 0.41061 -0.10049 0.34994
 C201 C 0.45125 -0.05363 0.35096
 C202 C 0.47737 -0.02624 0.29404
 N203 N 0.45139 -0.05768 0.25992
 H204 H 0.51079 0.01339 0.27891
 N205 N 0.59372 -0.23287 -0.09691
 N206 N 0.59989 -0.28807 -0.09551
 C207 C 0.56814 -0.32220 -0.04482
 C208 C 0.54223 -0.28668 -0.01545
 N209 N 0.55888 -0.23127 -0.04937
 H210 H 0.51375 -0.30014 0.02642
 N211 N 0.45147 0.24362 0.09622
 N212 N 0.45819 0.29990 0.09877
 C213 C 0.49956 0.33084 0.05335
 C214 C 0.51820 0.29209 0.02302
 N215 N 0.48728 0.23821 0.05118
 H216 H 0.54953 0.30221 -0.01679
 N217 N -0.32376 -0.11810 0.53893
 N218 N -0.37927 -0.11622 0.53839
 C219 C -0.38129 -0.06258 0.50508
 C220 C -0.32521 -0.03167 0.48489
 N221 N -0.29057 -0.06785 0.50700
 H222 H -0.31121 0.01387 0.45991
 N223 N 0.27092 0.11487 0.45357
 N224 N 0.32687 0.11397 0.45215
 C225 C 0.33040 0.06059 0.48491
 C226 C 0.27488 0.02887 0.50666
 N227 N 0.23890 0.06423 0.48614
 H228 H 0.26217 -0.01668 0.53187
 N229 N -0.08106 0.44247 1.28349
 N230 N -0.09251 0.44804 1.33792
 C231 C -0.04131 0.46835 1.35295
 C232 C 0.00192 0.47499 1.30631
 N233 N -0.02467 0.45850 1.26372
 H234 H 0.04797 0.49057 1.30361
 N235 N -0.02826 0.57652 0.72792
 N236 N -0.04244 0.56955 0.67730
 C237 C -0.01014 0.53287 0.65950
 C238 C 0.02465 0.51735 0.70084
 N239 N 0.01175 0.54563 0.74305
 H240 H 0.05477 0.48745 0.70102
   
