data_POSCAR
  _audit_creation_date              2014-09-24
  _audit_creation_method            'ToBaCCo'
  _symmetry_space_group_name_H-M    'P1'
  _symmetry_Int_Tables_number       1
  _symmetry_cell_setting            triclinic
  loop_
  _symmetry_equiv_pos_as_xyz
 x,y,z
_cell_length_a 34.8335
_cell_length_b 34.3434
_cell_length_c 34.5141
_cell_angle_alpha 92.903700
_cell_angle_beta 88.112300
_cell_angle_gamma 88.453100
loop_
  _atom_site_label
  _atom_site_type_symbol
  _atom_site_fract_x
  _atom_site_fract_y
  _atom_site_fract_z
C1 C 0.79451 0.66853 1.04554
 C2 C 0.80606 0.64218 1.00935
 C3 C 0.77525 0.62999 0.98895
 C4 C 0.73635 0.64635 1.00569
 C5 C 0.77064 0.70223 1.03030
 C6 C 0.74012 0.69066 1.00960
 C7 C 0.76536 0.64467 1.06827
 C8 C 0.73473 0.63336 1.04755
 H9 H 0.83496 0.63056 1.00328
 H10 H 0.71170 0.63757 0.98810
 H11 H 0.77699 0.73257 1.03643
 H12 H 0.76875 0.63754 1.09821
 C13 C 0.75739 0.36841 0.49439
 C14 C 0.76288 0.39213 0.53239
 C15 C 0.73566 0.42070 0.54052
 C16 C 0.70539 0.42345 0.50930
 C17 C 0.71637 0.35359 0.49775
 C18 C 0.68917 0.38235 0.50521
 C19 C 0.75569 0.39868 0.46312
 C20 C 0.72867 0.42759 0.47125
 H21 H 0.78604 0.38610 0.55162
 H22 H 0.68317 0.44691 0.51544
 H23 H 0.70942 0.32314 0.49355
 H24 H 0.77387 0.39723 0.43699
 C25 C 0.30262 -0.13586 -0.04275
 C26 C 0.30025 -0.11390 -0.00530
 C27 C 0.26238 -0.11066 0.01201
 C28 C 0.23391 -0.13045 -0.01155
 C29 C 0.28674 -0.17376 -0.03507
 C30 C 0.24848 -0.17084 -0.01772
 C31 C 0.27464 -0.11728 -0.06690
 C32 C 0.23688 -0.11359 -0.04958
 H33 H 0.32498 -0.10166 0.00865
 H34 H 0.20445 -0.12871 0.00144
 H35 H 0.30229 -0.20118 -0.04134
 H36 H 0.28186 -0.10613 -0.09500
 C37 C 0.26013 0.12664 0.52474
 C38 C 0.26034 0.10825 0.48347
 C39 C 0.22501 0.10380 0.46889
 C40 C 0.19218 0.11910 0.49670
 C41 C 0.23783 0.16548 0.52250
 C42 C 0.20213 0.16155 0.50782
 C43 C 0.23361 0.10144 0.54874
 C44 C 0.19805 0.09737 0.53408
 H45 H 0.28647 0.09825 0.46766
 H46 H 0.16333 0.11636 0.48442
 H47 H 0.24928 0.19328 0.53175
 H48 H 0.24212 0.08858 0.57528
 C49 C 0.17568 0.52291 0.32454
 C50 C 0.14219 0.49550 0.32980
 C51 C 0.11304 0.50140 0.30527
 C52 C 0.11988 0.53483 0.27806
 C53 C 0.18780 0.51736 0.28126
 C54 C 0.15845 0.52403 0.25708
 C55 C 0.15727 0.56414 0.32900
 C56 C 0.12840 0.57043 0.30446
 H57 H 0.14256 0.47217 0.34979
 H58 H 0.09618 0.54015 0.25816
 H59 H 0.21687 0.50984 0.27089
 H60 H 0.16893 0.58752 0.34683
 C61 C -0.12247 0.01096 0.24051
 C62 C -0.10188 0.04869 0.25190
 C63 C -0.07451 0.05865 0.22550
 C64 C -0.07032 0.02984 0.19005
 C65 C -0.13820 0.01790 0.20026
 C66 C -0.11078 0.02735 0.17366
 C67 C -0.09202 -0.01881 0.23325
 C68 C -0.06295 -0.00814 0.20568
 H69 H -0.10799 0.06546 0.27894
 H70 H -0.04894 0.03850 0.16804
 H71 H -0.16779 0.01326 0.19294
 H72 H -0.09152 -0.04653 0.24687
 C73 C 0.37100 0.47909 0.81309
 C74 C 0.40543 0.50531 0.81902
 C75 C 0.43459 0.49831 0.79209
 C76 C 0.42685 0.46489 0.76217
 C77 C 0.35958 0.48492 0.77110
 C78 C 0.38889 0.47747 0.74444
 C79 C 0.38792 0.43740 0.81280
 C80 C 0.41698 0.42998 0.78616
 H81 H 0.40525 0.52935 0.84061
 H82 H 0.45070 0.45834 0.74063
 H83 H 0.33153 0.49592 0.76350
 H84 H 0.37664 0.41511 0.83075
 C85 C 0.64231 1.00652 0.75020
 C86 C 0.62821 0.96489 0.75101
 C87 C 0.62638 0.94646 0.71542
 C88 C 0.63951 0.97156 0.68189
 C89 C 0.68170 1.00261 0.72855
 C90 C 0.68013 0.98439 0.69242
 C91 C 0.61737 1.02612 0.72401
 C92 C 0.61618 1.00749 0.68625
 H93 H 0.61965 0.95154 0.77762
 H94 H 0.63842 0.95597 0.65307
 H95 H 0.70755 1.01490 0.73991
 H96 H 0.60427 1.05471 0.73109
 C97 C -0.02402 0.27179 -0.14190
 C98 C 0.00735 0.28515 -0.11429
 C99 C 0.00930 0.26436 -0.08176
 C100 C -0.02022 0.23202 -0.07996
 C101 C -0.01533 0.22797 -0.15036
 C102 C -0.01375 0.20710 -0.11800
 C103 C -0.06131 0.27336 -0.11670
 C104 C -0.05892 0.25306 -0.08416
 H105 H 0.02578 0.30931 -0.11977
 H106 H -0.01922 0.21491 -0.05371
 H107 H -0.01237 0.21409 -0.17914
 H108 H -0.08700 0.28971 -0.12364
 C109 C 0.49625 0.28964 0.13802
 C110 C 0.45887 0.29273 0.11626
 C111 C 0.44167 0.25814 0.10953
 C112 C 0.46365 0.22321 0.12527
 C113 C 0.48539 0.26929 0.17535
 C114 C 0.46843 0.23424 0.16849
 C115 C 0.52135 0.25933 0.11412
 C116 C 0.50456 0.22452 0.10756
 H117 H 0.44666 0.32026 0.10781
 H118 H 0.44973 0.19495 0.12001
 H119 H 0.49183 0.28087 0.20406
 H120 H 0.55086 0.26441 0.10527
 C121 C 0.99749 0.75384 0.63018
 C122 C 0.97414 0.76416 0.59788
 C123 C 0.97365 0.73468 0.56731
 C124 C 0.99720 0.70016 0.57483
 C125 C 0.98294 0.71686 0.64255
 C126 C 0.98328 0.68696 0.61225
 C127 C 1.03593 0.74410 0.61307
 C128 C 1.03585 0.71403 0.58234
 H129 H 0.95809 0.79162 0.59712
 H130 H 0.99574 0.67731 0.55149
 H131 H 0.97671 0.71106 0.67269
 H132 H 1.06216 0.75550 0.62460
 C133 C 0.48982 0.80477 0.35880
 C134 C 0.52914 0.80774 0.37720
 C135 C 0.53467 0.78270 0.40596
 C136 C 0.49972 0.75742 0.41423
 C137 C 0.48704 0.76140 0.34585
 C138 C 0.49190 0.73676 0.37506
 C139 C 0.46056 0.81125 0.39299
 C140 C 0.46567 0.78619 0.42175
 H141 H 0.55118 0.82687 0.36715
 H142 H 0.50348 0.73727 0.43799
 H143 H 0.48180 0.75124 0.31632
 H144 H 0.43590 0.83112 0.39273
 C145 C 0.37500 -0.05451 0.29108
 H146 H 0.34927 -0.04709 0.30844
 C147 C 0.40007 -0.08390 0.30264
 H148 H 0.39302 -0.09896 0.32865
 C149 C 0.41595 -0.04352 0.23688
 H150 H 0.42262 -0.02685 0.21192
 C151 C 0.44175 -0.07269 0.24732
 H152 H 0.46770 -0.07832 0.22968
 N153 N 0.38303 -0.03530 0.25838
 C154 C 0.37552 0.07012 0.20090
 H155 H 0.35531 0.06075 0.17946
 C156 C 0.39496 0.10485 0.19677
 H157 H 0.38983 0.12185 0.17176
 C158 C 0.40585 0.06011 0.26022
 H159 H 0.40941 0.04270 0.28518
 C160 C 0.42548 0.09482 0.25748
 H161 H 0.44472 0.10340 0.28014
 Zn162 Zn 0.35006 0.00561 0.24240
 N163 N 0.38073 0.04899 0.23267
 C164 C 0.31460 0.05749 0.29957
 N165 N 0.31305 0.02091 0.28271
 C166 C 0.28554 -0.00404 0.29403
 C167 C 0.25873 0.00735 0.32387
 C168 C 0.28913 0.06962 0.32997
 C169 C 0.34421 -0.02968 0.16647
 C170 C 0.32504 -0.04499 0.13441
 C171 C 0.26513 -0.02025 0.16441
 C172 C 0.28544 -0.00535 0.19580
 N173 N 0.32419 -0.01109 0.19684
 H174 H 0.33580 0.07744 0.28986
 H175 H 0.28453 -0.03285 0.27996
 H176 H 0.23749 -0.01299 0.33309
 H177 H 0.29148 0.09852 0.34362
 H178 H 0.37501 -0.03340 0.16732
 H179 H 0.34143 -0.06051 0.11099
 H180 H 0.23431 -0.01555 0.16471
 H181 H 0.27001 0.01059 0.21946
 C182 C 0.41955 0.11807 0.22579
 C183 C 0.43387 -0.09352 0.28055
 C184 C 0.28487 -0.04113 0.13348
 C185 C 0.26090 0.04445 0.34250
 C186 C 0.04190 1.00846 0.81588
 H187 H 0.04689 0.97929 0.82545
 C188 C 0.02363 1.03673 0.84110
 H189 H 0.01402 1.02845 0.86952
 C190 C 0.05120 1.05480 0.76815
 H191 H 0.06329 1.06218 0.74034
 C192 C 0.03311 1.08399 0.79245
 H193 H 0.03090 1.11339 0.78262
 N194 N 0.05589 1.01801 0.78045
 C195 C 0.08265 0.90919 0.71204
 H196 H 0.11150 0.91493 0.70170
 C197 C 0.06461 0.87557 0.69843
 H198 H 0.07995 0.85536 0.67794
 C199 C 0.02718 0.92953 0.75001
 H200 H 0.01229 0.95098 0.76936
 C201 C 0.00811 0.89630 0.73726
 H202 H -0.02116 0.89293 0.74756
 Zn203 Zn 0.08955 0.98134 0.75243
 N204 N 0.06391 0.93521 0.73758
 C205 C 0.14411 0.93264 0.78820
 N206 N 0.12949 0.96967 0.78651
 C207 C 0.13542 0.99721 0.81530
 C208 C 0.15306 0.98697 0.84916
 C209 C 0.16323 0.92151 0.82106
 C210 C 0.07972 1.00695 0.67955
 C211 C 0.08884 1.02133 0.64353
 C212 C 0.15464 1.02703 0.66273
 C213 C 0.14422 1.01224 0.69858
 N214 N 0.10719 1.00270 0.70616
 H215 H 0.13870 0.91094 0.76549
 H216 H 0.12348 1.02642 0.81349
 H217 H 0.15489 1.00837 0.87314
 H218 H 0.17278 0.89143 0.82315
 H219 H 0.05053 0.99902 0.68646
 H220 H 0.06613 1.02474 0.62327
 H221 H 0.18419 1.03460 0.65695
 H222 H 0.16555 1.00835 0.72023
 C223 C 0.02680 0.86876 0.71098
 C224 C 0.01998 1.07540 0.82987
 C225 C 0.12677 1.03148 0.63458
 C226 C 0.16596 0.94842 0.85264
 C227 C 0.55199 0.54013 0.31281
 H228 H 0.55697 0.51132 0.32328
 C229 C 0.52878 0.56747 0.33472
 H230 H 0.51585 0.55899 0.36179
 C231 C 0.56529 0.58655 0.26606
 H232 H 0.58062 0.59446 0.24007
 C233 C 0.54246 0.61475 0.28704
 H234 H 0.54014 0.64387 0.27650
 N235 N 0.57011 0.55022 0.27947
 C236 C 0.61098 0.44621 0.21232
 H237 H 0.64049 0.45457 0.20815
 C238 C 0.59729 0.41467 0.19055
 H239 H 0.61639 0.39860 0.16969
 C240 C 0.54935 0.45901 0.24228
 H241 H 0.53049 0.47741 0.26126
 C242 C 0.53461 0.42687 0.22163
 H243 H 0.50441 0.42055 0.22484
 Zn244 Zn 0.60782 0.51547 0.25540
 N245 N 0.58681 0.46831 0.23668
 C246 C 0.65169 0.46883 0.30402
 N247 N 0.64473 0.50573 0.29290
 C248 C 0.65971 0.53703 0.31208
 C249 C 0.68104 0.53206 0.34512
 C250 C 0.67307 0.46252 0.33678
 C251 C 0.60454 0.54151 0.18184
 C252 C 0.61671 0.55633 0.14689
 C253 C 0.67974 0.56445 0.17287
 C254 C 0.66631 0.54921 0.20753
 N255 N 0.62919 0.53826 0.21127
 H256 H 0.63901 0.44439 0.28877
 H257 H 0.65334 0.56608 0.30285
 H258 H 0.69158 0.55755 0.36061
 H259 H 0.67686 0.43310 0.34620
 H260 H 0.57523 0.53237 0.18563
 H261 H 0.59617 0.55885 0.12429
 H262 H 0.70937 0.57300 0.17013
 H263 H 0.68550 0.54591 0.23120
 C264 C 0.55854 0.40533 0.19450
 C265 C 0.52459 0.60573 0.32233
 C266 C 0.65485 0.56783 0.14189
 C267 C 0.68684 0.49447 0.35859
 C268 C 0.92325 0.44938 0.79530
 H269 H 0.92794 0.47601 0.81236
 C270 C 0.94234 0.41471 0.80398
 H271 H 0.96177 0.41463 0.82784
 C272 C 0.89120 0.41656 0.74424
 H273 H 0.87042 0.41684 0.72180
 C274 C 0.91056 0.38166 0.75111
 H275 H 0.90448 0.35555 0.73373
 N276 N 0.89812 0.44967 0.76593
 C277 C 0.89151 0.56839 0.72791
 H278 H 0.86394 0.57816 0.74071
 C279 C 0.91119 0.59213 0.70291
 H280 H 0.89913 0.62063 0.69734
 C281 C 0.93895 0.51785 0.71660
 H282 H 0.94873 0.48829 0.72088
 C283 C 0.95889 0.54017 0.69032
 H284 H 0.98458 0.52806 0.67522
 Zn285 Zn 0.87186 0.49733 0.75713
 N286 N 0.90547 0.53196 0.73405
 C287 C 0.86083 0.55276 0.82193
 N288 N 0.85059 0.51790 0.80534
 C289 C 0.82504 0.49517 0.82344
 C290 C 0.80705 0.50807 0.85859
 C291 C 0.84343 0.56689 0.85720
 C292 C 0.84665 0.47720 0.68404
 C293 C 0.82134 0.47061 0.65422
 C294 C 0.76869 0.49105 0.69857
 C295 C 0.79516 0.49674 0.72791
 N296 N 0.83331 0.48914 0.72027
 H297 H 0.88234 0.56977 0.80788
 H298 H 0.81827 0.46708 0.81017
 H299 H 0.78661 0.48936 0.87203
 H300 H 0.85113 0.59511 0.86956
 H301 H 0.87719 0.47242 0.67841
 H302 H 0.83266 0.46049 0.62576
 H303 H 0.73841 0.49664 0.70520
 H304 H 0.78517 0.50738 0.75658
 C305 C 0.94444 0.57743 0.68275
 C306 C 0.93629 0.38049 0.78143
 C307 C 0.78184 0.47744 0.66125
 C308 C 0.81553 0.54480 0.87555
 C309 C 0.24552 0.45704 -0.01849
 H310 H 0.23396 0.47286 0.00726
 C311 C 0.26193 0.47766 -0.04835
 H312 H 0.26263 0.50914 -0.04513
 C313 C 0.26075 0.39688 -0.05298
 H314 H 0.26051 0.36535 -0.05427
 C315 C 0.27799 0.41631 -0.08324
 H316 H 0.29090 0.39951 -0.10794
 N317 N 0.24507 0.41737 -0.02136
 C318 C 0.22894 0.42101 0.09771
 H319 H 0.25168 0.39966 0.10134
 C320 C 0.21727 0.44658 0.12894
 H321 H 0.23139 0.44486 0.15631
 C322 C 0.18191 0.44845 0.05831
 H323 H 0.16795 0.44855 0.03077
 C324 C 0.16957 0.47468 0.08854
 H325 H 0.14578 0.49456 0.08386
 Zn326 Zn 0.22563 0.38871 0.01995
 N327 N 0.21150 0.42277 0.06310
 C328 C 0.29899 0.36656 0.04343
 N329 N 0.26445 0.35257 0.03312
 C330 C 0.25804 0.31363 0.03151
 C331 C 0.28659 0.28715 0.04184
 C332 C 0.32828 0.34115 0.05411
 C333 C 0.16779 0.36097 -0.03091
 C334 C 0.13487 0.34022 -0.03967
 C335 C 0.12969 0.32300 0.02727
 C336 C 0.16254 0.34397 0.03470
 N337 N 0.18117 0.36193 0.00571
 H338 H 0.30355 0.39762 0.04380
 H339 H 0.23076 0.30293 0.02232
 H340 H 0.28046 0.25644 0.04086
 H341 H 0.35538 0.35297 0.06281
 H342 H 0.18268 0.37604 -0.05338
 H343 H 0.12481 0.33929 -0.06905
 H344 H 0.11570 0.30905 0.05106
 H345 H 0.17354 0.34574 0.06367
 C346 C 0.18748 0.47410 0.12442
 C347 C 0.27876 0.45719 -0.08107
 C348 C 0.11561 0.32053 -0.01045
 C349 C 0.32219 0.30088 0.05370
 C350 C 0.79803 0.07587 0.99584
 H351 H 0.80425 0.08398 0.96645
 C352 C 0.82692 0.05890 1.01699
 H353 H 0.85488 0.05339 1.00299
 C354 C 0.75473 0.07683 1.05032
 H355 H 0.72716 0.08558 1.06371
 C356 C 0.78287 0.05999 1.07262
 H357 H 0.77627 0.05517 1.10285
 N358 N 0.76311 0.08525 1.01295
 C359 C 0.68912 0.12205 0.92223
 H360 H 0.68039 0.15002 0.93603
 C361 C 0.67078 0.10821 0.88936
 H362 H 0.64791 0.12565 0.87775
 C363 C 0.72797 0.06420 0.92215
 H364 H 0.74926 0.04668 0.93596
 C365 C 0.71090 0.04956 0.88844
 H366 H 0.71912 0.02073 0.87626
 Zn367 Zn 0.73130 0.12000 0.98712
 N368 N 0.71635 0.09966 0.93848
 C369 C 0.77338 0.17411 0.94514
 N370 N 0.76081 0.16444 0.98099
 C371 C 0.77497 0.18144 1.01372
 C372 C 0.80472 0.20764 1.01120
 C373 C 0.80328 0.20004 0.94127
 C374 C 0.66094 0.10208 1.02070
 C375 C 0.62419 0.10928 1.03725
 C376 C 0.63861 0.17764 1.04471
 C377 C 0.67505 0.16914 1.02791
 N378 N 0.68534 0.13187 1.01612
 H379 H 0.76227 0.15960 0.91953
 H380 H 0.76491 0.17258 1.04184
 H381 H 0.81660 0.21919 1.03778
 H382 H 0.81448 0.20563 0.91250
 H383 H 0.66974 0.07282 1.01039
 H384 H 0.60523 0.08511 1.04009
 H385 H 0.63067 0.20762 1.05332
 H386 H 0.69454 0.19250 1.02310
 C387 C 0.68113 0.07129 0.87265
 C388 C 0.81992 0.05201 1.05637
 C389 C 0.61242 0.14762 1.04899
 C390 C 0.82045 0.21583 0.97458
 C391 C 0.35176 0.57609 0.56798
 H392 H 0.36461 0.58206 0.54002
 C393 C 0.37013 0.55022 0.59163
 H394 H 0.39748 0.53706 0.58170
 C395 C 0.30048 0.58663 0.61447
 H396 H 0.27329 0.60088 0.62315
 C397 C 0.31807 0.56108 0.63928
 H398 H 0.30419 0.55583 0.66699
 N399 N 0.31723 0.59301 0.57927
 C400 C 0.26558 0.61155 0.46926
 H401 H 0.25970 0.64264 0.47297
 C402 C 0.25342 0.59094 0.43633
 H403 H 0.23832 0.60652 0.41466
 C404 C 0.29105 0.55349 0.49397
 H405 H 0.30465 0.53884 0.51707
 C406 C 0.27957 0.53167 0.46120
 H407 H 0.28470 0.50042 0.45946
 Zn408 Zn 0.29368 0.62403 0.54253
 N409 N 0.28374 0.59270 0.49739
 C410 C 0.34722 0.65898 0.49418
 N411 N 0.32743 0.66388 0.52879
 C412 C 0.33212 0.69597 0.55279
 C413 C 0.35544 0.72604 0.54091
 C414 C 0.37154 0.68770 0.48170
 C415 C 0.21846 0.61632 0.56634
 C416 C 0.17939 0.62605 0.56936
 C417 C 0.19448 0.69370 0.56288
 C418 C 0.23353 0.68257 0.55936
 N419 N 0.24458 0.64422 0.56022
 H420 H 0.34413 0.63273 0.47608
 H421 H 0.31708 0.69861 0.58076
 H422 H 0.35811 0.75189 0.55979
 H423 H 0.38654 0.68349 0.45374
 H424 H 0.22782 0.58600 0.56584
 H425 H 0.15883 0.60310 0.57170
 H426 H 0.18572 0.72382 0.55965
 H427 H 0.25437 0.70421 0.55294
 C428 C 0.25996 0.55044 0.43214
 C429 C 0.35300 0.54194 0.62760
 C430 C 0.16703 0.66491 0.56627
 C431 C 0.37512 0.72211 0.50471
 C432 C 0.82607 0.90126 0.39166
 H433 H 0.84642 0.87879 0.39906
 C434 C 0.83454 0.92427 0.36027
 H435 H 0.86134 0.91907 0.34378
 C436 C 0.76698 0.93589 0.40444
 H437 H 0.74077 0.94042 0.42198
 C438 C 0.77424 0.95947 0.37340
 H439 H 0.75306 0.98178 0.36759
 N440 N 0.79248 0.90712 0.41273
 C441 C 0.73125 0.90659 0.51784
 H442 H 0.71022 0.88759 0.50545
 C443 C 0.72276 0.92629 0.55351
 H444 H 0.69529 0.92193 0.56804
 C445 C 0.79228 0.93516 0.51419
 H446 H 0.81959 0.93795 0.49887
 C447 C 0.78509 0.95523 0.55015
 H448 H 0.80692 0.97381 0.56185
 Zn449 Zn 0.77938 0.87633 0.45533
 N450 N 0.76615 0.91004 0.49965
 C451 C 0.83578 0.84565 0.50326
 N452 N 0.82096 0.84233 0.46730
 C453 C 0.83397 0.81378 0.44093
 C454 C 0.86348 0.78767 0.45017
 C455 C 0.86530 0.82050 0.51356
 C456 C 0.71212 0.85302 0.41547
 C457 C 0.67741 0.83369 0.41258
 C458 C 0.69420 0.79711 0.46780
 C459 C 0.72843 0.81723 0.46976
 N460 N 0.73631 0.84528 0.44446
 H461 H 0.82436 0.86728 0.52455
 H462 H 0.82120 0.81112 0.41280
 H463 H 0.87342 0.76530 0.42872
 H464 H 0.87641 0.82378 0.54245
 H465 H 0.71890 0.87516 0.39543
 H466 H 0.65795 0.84112 0.39009
 H467 H 0.68819 0.77607 0.48928
 H468 H 0.74801 0.81179 0.49269
 C469 C 0.75030 0.94993 0.57080
 C470 C 0.80842 0.95381 0.35065
 C471 C 0.66769 0.80591 0.43946
 C472 C 0.87948 0.79093 0.48703
 C473 C -0.06981 0.32185 0.40989
 H474 H -0.05714 0.34443 0.39349
 C475 C -0.10535 0.32921 0.42907
 H476 H -0.11963 0.35740 0.42699
 C477 C -0.06653 0.25817 0.43313
 H478 H -0.05124 0.23043 0.43426
 C479 C -0.10199 0.26431 0.45285
 H480 H -0.11358 0.24093 0.46905
 N481 N -0.05160 0.28644 0.41144
 C482 C 0.05141 0.22210 0.40922
 H483 H 0.04380 0.20311 0.38496
 C484 C 0.08173 0.21112 0.43219
 H485 H 0.09730 0.18383 0.42512
 C486 C 0.04070 0.28064 0.44779
 H487 H 0.02466 0.30786 0.45345
 C488 C 0.07103 0.27097 0.47133
 H489 H 0.07770 0.29083 0.49534
 Zn490 Zn -0.00520 0.27466 0.38241
 N491 N 0.03238 0.25694 0.41661
 C492 C 0.04607 0.33555 0.36841
 N493 N 0.01217 0.31979 0.35836
 C494 C -0.00995 0.33606 0.33137
 C495 C 0.00068 0.37077 0.31503
 C496 C 0.05781 0.37011 0.35280
 C497 C -0.04756 0.21732 0.34124
 C498 C -0.05269 0.18723 0.31335
 C499 C 0.01171 0.19659 0.28811
 C500 C 0.01573 0.22630 0.31674
 N501 N -0.01345 0.23561 0.34299
 H502 H 0.06405 0.32165 0.38880
 H503 H -0.03639 0.32250 0.32325
 H504 H -0.01786 0.38349 0.29428
 H505 H 0.08458 0.38246 0.36179
 H506 H -0.07082 0.22564 0.36163
 H507 H -0.07984 0.17259 0.31283
 H508 H 0.03570 0.18910 0.26819
 H509 H 0.04244 0.24156 0.31853
 C510 C 0.09261 0.23620 0.46303
 C511 C -0.12211 0.30013 0.45057
 C512 C -0.02278 0.17634 0.28649
 C513 C 0.03475 0.38857 0.32624
 C514 C 1.10981 0.71933 0.08445
 H515 H 1.10835 0.69453 0.10234
 C516 C 1.14251 0.72371 0.06064
 H517 H 1.16555 0.70195 0.06058
 C518 C 1.08287 0.77889 0.06482
 H519 H 1.05989 0.80079 0.06721
 C520 C 1.11541 0.78481 0.04119
 H521 H 1.11701 0.81111 0.02524
 N522 N 1.08105 0.74707 0.08672
 C523 C 0.97456 0.70821 0.13968
 H524 H 0.98535 0.70778 0.16865
 C525 C 0.93719 0.69690 0.13333
 H526 H 0.91989 0.68714 0.15742
 C527 C 0.98282 0.72466 0.07410
 H528 H 1.00038 0.73697 0.05163
 C529 C 0.94529 0.71321 0.06634
 H530 H 0.93402 0.71675 0.03783
 Zn531 Zn 1.04197 0.74652 0.12686
 N532 N 0.99629 0.72265 0.11059
 C533 C 0.99197 0.81003 0.15166
 N534 N 1.02936 0.79862 0.14440
 C535 C 1.05831 0.82385 0.15011
 C536 C 1.05008 0.86259 0.16238
 C537 C 0.98250 0.84837 0.16461
 C538 C 1.06394 0.68009 0.16621
 C539 C 1.07443 0.65914 0.19798
 C540 C 1.07647 0.71980 0.23634
 C541 C 1.06591 0.73959 0.20385
 N542 N 1.06009 0.71963 0.16958
 H543 H 0.96937 0.78953 0.14725
 H544 H 1.08782 0.81390 0.14472
 H545 H 1.07347 0.88240 0.16615
 H546 H 0.95259 0.85722 0.16951
 H547 H 1.05798 0.66476 0.13902
 H548 H 1.07718 0.62766 0.19468
 H549 H 1.08104 0.73650 0.26310
 H550 H 1.06196 0.77089 0.20633
 C551 C 0.92170 0.70055 0.09670
 C552 C 1.14607 0.75736 0.03944
 C553 C 1.08082 0.67898 0.23365
 C554 C 1.01170 0.87528 0.16937
 C555 C 0.51263 0.28167 0.54326
 H556 H 0.48327 0.27787 0.53487
 C557 C 0.53559 0.30862 0.52491
 H558 H 0.52401 0.32503 0.50179
 C559 C 0.56291 0.26674 0.58527
 H560 H 0.57280 0.25138 0.60983
 C561 C 0.58703 0.29236 0.56714
 H562 H 0.61572 0.29626 0.57762
 N563 N 0.52662 0.26173 0.57307
 C564 C 0.41444 0.22695 0.59894
 H565 H 0.41199 0.24776 0.62348
 C566 C 0.38187 0.20726 0.58705
 H567 H 0.35444 0.21349 0.60209
 C568 C 0.45349 0.19040 0.55179
 H569 H 0.48175 0.18306 0.53917
 C570 C 0.42200 0.16933 0.53983
 H571 H 0.42602 0.14615 0.51748
 Zn572 Zn 0.49575 0.23158 0.60493
 N573 N 0.44950 0.21742 0.58189
 C574 C 0.46795 0.29796 0.64555
 N575 N 0.48568 0.26299 0.65090
 C576 C 0.49690 0.25327 0.68663
 C577 C 0.48843 0.27846 0.71907
 C578 C 0.45935 0.32412 0.67698
 C579 C 0.55018 0.17028 0.58814
 C580 C 0.56703 0.13330 0.59137
 C581 C 0.52505 0.12455 0.64718
 C582 C 0.50813 0.16117 0.64211
 N583 N 0.52166 0.18374 0.61370
 H584 H 0.46024 0.30537 0.61666
 H585 H 0.51268 0.22628 0.69014
 H586 H 0.49728 0.27011 0.74730
 H587 H 0.44461 0.35152 0.67210
 H588 H 0.55919 0.18776 0.56450
 H589 H 0.58986 0.12311 0.57099
 H590 H 0.51458 0.10718 0.67043
 H591 H 0.48393 0.17145 0.66062
 C592 C 0.38603 0.17688 0.55847
 C593 C 0.57319 0.31429 0.53720
 C594 C 0.55463 0.11023 0.62142
 C595 C 0.46904 0.31424 0.71439
 C596 C 0.49408 0.81078 0.87920
 H597 H 0.52221 0.82267 0.87451
 C598 C 0.46385 0.83499 0.89407
 H599 H 0.46950 0.86528 0.90109
 C600 C 0.45344 0.75664 0.87576
 H601 H 0.44929 0.72625 0.86797
 C602 C 0.42222 0.77993 0.89081
 H603 H 0.39437 0.76712 0.89467
 N604 N 0.48868 0.77230 0.87076
 C605 C 0.60151 0.71623 0.88049
 H606 H 0.60318 0.69905 0.85331
 C607 C 0.63153 0.71414 0.90621
 H608 H 0.65627 0.69512 0.89880
 C609 C 0.56745 0.76239 0.92297
 H610 H 0.54236 0.78093 0.92965
 C611 C 0.59723 0.76189 0.94907
 H612 H 0.59462 0.78000 0.97567
 Zn613 Zn 0.53314 0.74392 0.85053
 N614 N 0.57048 0.74042 0.88902
 C615 C 0.58717 0.79086 0.81417
 N616 N 0.55344 0.77246 0.80931
 C617 C 0.53233 0.77757 0.77735
 C618 C 0.54491 0.80226 0.74879
 C619 C 0.60029 0.81638 0.78686
 C620 C 0.50493 0.66853 0.85806
 C621 C 0.49673 0.63030 0.84602
 C622 C 0.52619 0.64127 0.78331
 C623 C 0.53310 0.67949 0.79628
 N624 N 0.52196 0.69253 0.83292
 H625 H 0.60313 0.78718 0.84010
 H626 H 0.50518 0.76328 0.77461
 H627 H 0.52726 0.80693 0.72411
 H628 H 0.62649 0.83188 0.79190
 H629 H 0.49755 0.67918 0.88747
 H630 H 0.48248 0.61174 0.86612
 H631 H 0.53473 0.63171 0.75385
 H632 H 0.54778 0.69855 0.77714
 C633 C 0.62992 0.73783 0.94052
 C634 C 0.42721 0.81972 0.89999
 C635 C 0.50748 0.61630 0.80825
 C636 C 0.57891 0.82262 0.75394
 C637 C 0.48419 -0.16812 0.32633
 C638 C 0.50764 -0.16807 0.29340
 C639 C 0.49233 -0.13995 0.27156
 C640 C 0.46045 -0.12481 0.29275
 O641 O 0.45556 -0.14202 0.32597
 H642 H 0.53277 -0.18656 0.28620
 H643 H 0.50312 -0.13202 0.24340
 C644 C 0.97236 0.29640 0.82331
 C645 C 0.97816 0.28364 0.78484
 C646 C 0.96656 0.31405 0.76381
 C647 C 0.95490 0.34326 0.79082
 O648 O 0.95866 0.33279 0.82685
 H649 H 0.98841 0.25537 0.77307
 H650 H 0.96586 0.31457 0.73252
 C651 C -0.00826 1.16426 0.87993
 C652 C -0.01523 1.14043 0.91020
 C653 C -0.00655 1.10352 0.89555
 C654 C 0.00516 1.10744 0.85730
 O655 O 0.00395 1.14433 0.84788
 H656 H -0.02561 1.14865 0.93941
 H657 H -0.00826 1.07721 0.91136
 C658 C 0.49141 0.69403 0.36969
 C659 C 0.47857 0.66978 0.39763
 C660 C 0.48725 0.63291 0.38296
 C661 C 0.50519 0.63737 0.34716
 O662 O 0.50739 0.67457 0.33905
 H663 H 0.46531 0.67802 0.42575
 H664 H 0.48223 0.60629 0.39753
 C665 C 0.51572 0.32809 0.14273
 C666 C 0.52987 0.34752 0.11151
 C667 C 0.54768 0.37896 0.12709
 C668 C 0.54265 0.37679 0.16667
 O669 O 0.52313 0.34600 0.17647
 H670 H 0.52815 0.33902 0.08100
 H671 H 0.56269 0.40090 0.11158
 C672 C -0.00484 0.78384 0.66080
 C673 C -0.03764 0.79195 0.68381
 C674 C -0.02992 0.82400 0.70649
 C675 C 0.00692 0.83388 0.69551
 O676 O 0.02218 0.80950 0.66770
 H677 H -0.06439 0.77662 0.68341
 H678 H -0.04949 0.83857 0.72780
 C679 C 0.97656 0.64817 0.62033
 C680 C 0.98568 0.61578 0.59595
 C681 C 0.97636 0.58450 0.61682
 C682 C 0.96181 0.60010 0.65204
 O683 O 0.96190 0.63856 0.65423
 H684 H 0.99842 0.61459 0.56691
 H685 H 0.97889 0.55404 0.60715
 C686 C 0.45816 0.20690 0.19851
 C687 C 0.46690 0.21062 0.23718
 C688 C 0.45390 0.17759 0.25302
 C689 C 0.43812 0.15617 0.22281
 O690 O 0.44067 0.17405 0.18986
 H691 H 0.48141 0.23418 0.25204
 H692 H 0.45550 0.17038 0.28307
 C693 C 0.33877 0.48683 -0.15725
 C694 C 0.32014 0.52242 -0.14931
 C695 C 0.29445 0.51646 -0.11959
 C696 C 0.29923 0.47756 -0.11187
 O697 O 0.32598 0.45968 -0.13476
 H698 H 0.32515 0.54945 -0.16320
 H699 H 0.27471 0.53793 -0.10540
 C700 C 0.84657 1.00219 0.27030
 C701 C 0.81371 1.02516 0.27678
 C702 C 0.79459 1.00990 0.30716
 C703 C 0.81725 0.97867 0.31755
 O704 O 0.84895 0.97403 0.29511
 H705 H 0.80514 1.05055 0.26148
 H706 H 0.76768 1.02109 0.32032
 C707 C 0.88125 0.03104 1.13231
 C708 C 0.90851 0.02651 1.10246
 C709 C 0.88918 0.03238 1.06951
 C710 C 0.85138 0.04017 1.08163
 O711 O 0.84660 0.03908 1.11979
 H712 H 0.93884 0.01947 1.10425
 H713 H 0.90165 0.03151 1.04038
 C714 C 0.38616 0.48576 0.70316
 C715 C 0.41035 0.46938 0.67404
 C716 C 0.40078 0.48758 0.64146
 C717 C 0.37149 0.51401 0.65308
 O718 O 0.36237 0.51263 0.69054
 H719 H 0.43257 0.44704 0.67623
 H720 H 0.41390 0.48214 0.61280
 C721 C 0.20747 0.51702 0.35238
 C722 C 0.22842 0.48283 0.35608
 C723 C 0.25194 0.49034 0.38642
 C724 C 0.24359 0.52865 0.39878
 O725 O 0.21677 0.54462 0.37808
 H726 H 0.22619 0.45561 0.33921
 H727 H 0.27235 0.47017 0.39813
 C728 C 0.64135 0.02645 0.79009
 C729 C 0.60752 0.03616 0.81077
 C730 C 0.61823 0.05462 0.84417
 C731 C 0.65780 0.05424 0.84181
 O732 O 0.67212 0.03698 0.80912
 H733 H 0.57849 0.03080 0.80205
 H734 H 0.59954 0.06665 0.86771
 C735 C 0.71251 0.98083 0.66364
 C736 C 0.74871 0.99537 0.66825
 C737 C 0.76817 0.98650 0.63376
 C738 C 0.74235 0.96720 0.61062
 O739 O 0.70872 0.96384 0.62885
 H740 H 0.75969 1.01074 0.69349
 H741 H 0.79772 0.99300 0.62679
 C742 C 0.16250 0.52228 0.21453
 C743 C 0.14273 0.54705 0.19162
 C744 C 0.15051 0.53332 0.15453
 C745 C 0.17423 0.50076 0.15748
 O746 O 0.18186 0.49426 0.19401
 H747 H 0.12425 0.57179 0.20091
 H748 H 0.13949 0.54543 0.12866
 C749 C -0.21226 0.33654 0.48774
 C750 C -0.21084 0.30328 0.50849
 C751 C -0.17726 0.28438 0.49687
 C752 C -0.16025 0.30777 0.47016
 O753 O -0.18147 0.33952 0.46477
 H754 H -0.23144 0.29447 0.53028
 H755 H -0.16624 0.25743 0.50769
 C756 C 0.34071 0.86377 0.93987
 C757 C 0.35945 0.89746 0.93141
 C758 C 0.39412 0.88551 0.91542
 C759 C 0.39446 0.84525 0.91513
 O760 O 0.36191 0.83193 0.92981
 H761 H 0.34879 0.92727 0.93627
 H762 H 0.41613 0.90425 0.90478
 C763 C 1.22716 0.79715 -0.00656
 C764 C 1.23945 0.75850 -0.01036
 C765 C 1.21043 0.73799 0.00566
 C766 C 1.18237 0.76548 0.01795
 O767 O 1.19248 0.80126 0.01038
 H768 H 1.26641 0.74648 -0.02273
 H769 H 1.21004 0.70674 0.00818
 C770 C 0.64813 0.37392 0.50871
 C771 C 0.61839 0.39853 0.49913
 C772 C 0.58568 0.37873 0.50671
 C773 C 0.59810 0.34379 0.52076
 O774 O 0.63593 0.34087 0.52184
 H775 H 0.62032 0.42729 0.48791
 H776 H 0.55638 0.38913 0.50375
 C777 C 0.30031 0.12887 0.53917
 C778 C 0.32394 0.09629 0.54193
 C779 C 0.35917 0.11017 0.54958
 C780 C 0.35443 0.15020 0.55125
 O781 O 0.31869 0.16179 0.54513
 H782 H 0.31655 0.06606 0.53718
 H783 H 0.38535 0.09323 0.55318
 C784 C 0.82620 0.68306 0.07076
 C785 C 0.81861 0.70217 0.10643
 C786 C 0.85338 0.71044 0.12067
 C787 C 0.87992 0.69633 0.09253
 O788 O 0.86357 0.67984 0.06184
 H789 H 0.79080 0.70909 0.12036
 H790 H 0.85880 0.72565 0.14810
 C791 C 0.71080 0.71772 0.99542
 C792 C 0.70468 0.75603 1.00877
 C793 C 0.67313 0.76884 0.99026
 C794 C 0.66250 0.73748 0.96681
 O795 O 0.68531 0.70648 0.96991
 H796 H 0.72060 0.77244 1.03013
 H797 H 0.65970 0.79766 0.99329
 C798 C 0.17483 0.19450 0.50339
 C799 C 0.17753 0.23135 0.52075
 C800 C 0.14649 0.25202 0.50886
 C801 C 0.12709 0.22629 0.48500
 O802 O 0.14432 0.19139 0.48177
 H803 H 0.19939 0.24200 0.53981
 H804 H 0.13957 0.28245 0.51613
 C805 C 0.59965 0.02674 0.65586
 C806 C 0.60385 0.01603 0.61672
 C807 C 0.58703 0.04587 0.59809
 C808 C 0.57334 0.07212 0.62718
 O809 O 0.58080 0.06054 0.66204
 H810 H 0.61877 -0.00932 0.60303
 H811 H 0.58539 0.04844 0.56706
 C812 C 1.11273 0.60959 0.29776
 C813 C 1.11314 0.64144 0.32370
 C814 C 1.10002 0.67211 0.30378
 C815 C 1.09279 0.65667 0.26702
 O816 O 1.10026 0.61871 0.26361
 H817 H 1.12267 0.64240 0.35324
 H818 H 1.09714 0.70212 0.31477
 C819 C 0.96843 0.96750 0.19318
 C820 C 1.00115 0.97986 0.17417
 C821 C 1.02281 0.94704 0.16493
 C822 C 1.00171 0.91685 0.17843
 O823 O 0.96885 0.92919 0.19596
 H824 H 1.00874 1.00920 0.16762
 H825 H 1.04986 0.94525 0.14850
 C826 C 0.43487 0.39097 0.77863
 C827 C 0.43905 0.36338 0.80597
 C828 C 0.45418 0.33097 0.78597
 C829 C 0.45774 0.34116 0.74782
 O830 O 0.44617 0.37764 0.74347
 H831 H 0.43133 0.36632 0.83662
 H832 H 0.46023 0.30291 0.79766
 C833 C 0.46669 0.52518 0.78834
 C834 C 0.49616 0.52130 0.76056
 C835 C 0.51630 0.55466 0.76473
 C836 C 0.49769 0.57640 0.79479
 O837 O 0.46778 0.55846 0.80923
 H838 H 0.50194 0.49769 0.73907
 H839 H 0.54123 0.56232 0.74752
 C840 C -0.05027 0.09292 0.23166
 C841 C -0.01943 0.10209 0.20801
 C842 C -0.00482 0.13486 0.22508
 C843 C -0.02781 0.14341 0.25793
 O844 O -0.05540 0.11799 0.26186
 H845 H -0.00834 0.08677 0.18170
 H846 H 0.01961 0.15053 0.21456
 C847 C 0.08033 0.47508 0.30272
 C848 C 0.04908 0.47973 0.27968
 C849 C 0.02725 0.44794 0.28517
 C850 C 0.04684 0.42613 0.31113
 O851 O 0.07894 0.44271 0.32176
 H852 H 0.04276 0.50319 0.26095
 H853 H 0.00041 0.44170 0.27161
 C854 C 0.61162 0.90673 0.71116
 C855 C 0.59700 0.88962 0.67798
 C856 C 0.58288 0.85488 0.68901
 C857 C 0.59045 0.85338 0.72794
 O858 O 0.60779 0.88474 0.74124
 H859 H 0.59536 0.90159 0.64966
 H860 H 0.56842 0.83355 0.67101
 C861 C 0.70299 0.61126 0.06425
 C862 C 0.67157 0.59890 0.04420
 C863 C 0.64932 0.58069 0.07040
 C864 C 0.66862 0.58329 0.10476
 O865 O 0.70132 0.60173 0.10095
 H866 H 0.66520 0.60254 0.01415
 H867 H 0.62237 0.56700 0.06468
 C868 C 0.16780 1.07539 0.55337
 C869 C 0.13406 1.06460 0.53664
 C870 C 0.11416 1.04618 0.56455
 C871 C 0.13715 1.04711 0.59649
 O872 O 0.16988 1.06462 0.58956
 H873 H 0.12490 1.06926 0.50757
 H874 H 0.08627 1.03353 0.56154
 C875 C 0.20710 0.90622 0.93270
 C876 C 0.17274 0.91916 0.95078
 C877 C 0.15354 0.93827 0.92335
 C878 C 0.17720 0.93504 0.89051
 O879 O 0.20966 0.91567 0.89597
 H880 H 0.16295 0.91614 0.98050
 H881 H 0.12525 0.95211 0.92652
 C882 C 0.72106 0.45937 0.44546
 C883 C 0.71633 0.49786 0.45815
 C884 C 0.70532 0.51693 0.42651
 C885 C 0.70355 0.48843 0.39686
 O886 O 0.71320 0.45341 0.40846
 H887 H 0.71933 0.51024 0.48733
 H888 H 0.69728 0.54753 0.42601
 C889 C 0.73585 0.44524 0.57679
 C890 C 0.70565 0.46839 0.59241
 C891 C 0.71835 0.48385 0.62684
 C892 C 0.75542 0.46911 0.62940
 O893 O 0.76589 0.44577 0.59911
 H894 H 0.67758 0.47296 0.58065
 H895 H 0.70253 0.50363 0.64732
 C896 C 0.25461 -0.09074 0.04806
 C897 C 0.21872 -0.08478 0.06602
 C898 C 0.22492 -0.06468 0.10019
 C899 C 0.26414 -0.05976 0.10085
 O900 O 0.28208 -0.07555 0.06922
 H901 H 0.19111 -0.09382 0.05601
 H902 H 0.20325 -0.05557 0.12217
 C903 C 0.22034 0.08363 0.43079
 C904 C 0.18841 0.06377 0.41926
 C905 C 0.19892 0.04589 0.38399
 C906 C 0.23625 0.05671 0.37669
 O907 O 0.24913 0.07946 0.40501
 H908 H 0.16141 0.06131 0.43522
 H909 H 0.18160 0.02715 0.36596
 C910 C 0.77712 0.59766 0.95907
 C911 C 0.74878 0.57062 0.95561
 C912 C 0.75986 0.54663 0.92463
 C913 C 0.79433 0.56069 0.91111
 O914 O 0.80497 0.59179 0.93216
 H915 H 0.72292 0.56859 0.97354
 H916 H 0.74383 0.52253 0.91283
 C917 C 0.06935 0.69508 0.56597
 C918 C 0.06957 0.66647 0.53614
 C919 C 0.10624 0.65242 0.53235
 C920 C 0.12617 0.67341 0.55962
 O921 O 0.10416 0.69981 0.57988
 H922 H 0.04616 0.65616 0.51900
 H923 H 0.11724 0.62920 0.51230
 C924 C 0.52631 0.19067 1.08927
 C925 C 0.51281 0.15349 1.08374
 C926 C 0.54323 0.13170 1.06779
 C927 C 0.57310 0.15724 1.06486
 O928 O 0.56269 0.19292 1.07783
 H929 H 0.48447 0.14318 1.09067
 H930 H 0.54327 0.10094 1.05942
 C931 C 0.90965 0.25137 0.94484
 C932 C 0.91413 0.25745 0.98409
 C933 C 0.88000 0.24786 1.00091
 C934 C 0.85735 0.23598 0.97051
 O935 O 0.87545 0.23840 0.93642
 H936 H 0.93972 0.26641 0.99866
 H937 H 0.87364 0.24755 1.03175
 C938 C 0.43695 0.78143 0.45312
 C939 C 0.41644 0.81121 0.47336
 C940 C 0.39159 0.79305 0.49755
 C941 C 0.39852 0.75360 0.48966
 O942 O 0.42611 0.74663 0.46284
 H943 H 0.41885 0.84225 0.47030
 H944 H 0.36977 0.80690 0.51704
 C945 C 0.57193 0.77865 0.42489
 C946 C 0.58049 0.75168 0.45183
 C947 C 0.61773 0.75771 0.46082
 C948 C 0.62938 0.78797 0.43868
 O949 O 0.60156 0.80056 0.41682
 H950 H 0.56216 0.72993 0.46355
 H951 H 0.63416 0.74165 0.48107
 C952 C 0.03611 0.27311 -0.05038
 C953 C 0.03437 0.25703 -0.01456
 C954 C 0.06369 0.27267 0.00537
 C955 C 0.08140 0.29738 -0.01958
 O956 O 0.06461 0.29764 -0.05350
 H957 H 0.01417 0.23653 -0.00370
 H958 H 0.07113 0.26622 0.03456
 C959 C 0.40440 0.25583 0.09061
 C960 C 0.38555 0.22201 0.08122
 C961 C 0.35203 0.23392 0.06552
 C962 C 0.35288 0.27420 0.06651
 O963 O 0.38470 0.28734 0.08164
 H964 H 0.39477 0.19224 0.08532
 H965 H 0.32981 0.21520 0.05488
 C966 C 0.95102 0.73913 0.53485
 C967 C 0.94909 0.71326 0.50295
 C968 C 0.92253 0.72937 0.47977
 C969 C 0.91007 0.76379 0.49920
 O970 O 0.92747 0.76964 0.53237
 H971 H 0.96471 0.68588 0.49696
 H972 H 0.91298 0.71690 0.45247
   
