data_POSCAR
  _audit_creation_date              2014-09-24
  _audit_creation_method            'ToBaCCo'
  _symmetry_space_group_name_H-M    'P1'
  _symmetry_Int_Tables_number       1
  _symmetry_cell_setting            triclinic
  loop_
  _symmetry_equiv_pos_as_xyz
 x,y,z
_cell_length_a 18.8329
_cell_length_b 19.5160
_cell_length_c 20.6875
_cell_angle_alpha 92.411200
_cell_angle_beta 90.951000
_cell_angle_gamma 87.312000
loop_
  _atom_site_label
  _atom_site_type_symbol
  _atom_site_fract_x
  _atom_site_fract_y
  _atom_site_fract_z
C1 C 1.21908 0.19937 0.20881
 C2 C 1.26573 0.24267 0.16839
 C3 C 1.30364 0.28875 0.20356
 C4 C 1.29344 0.28639 0.27698
 C5 C 1.27030 0.16575 0.25691
 C6 C 1.31035 0.21052 0.29240
 C7 C 1.17365 0.25117 0.24986
 C8 C 1.21239 0.29674 0.28607
 H9 H 1.27003 0.23596 0.11629
 H10 H 1.32543 0.32340 0.30586
 H11 H 1.27038 0.11132 0.26469
 H12 H 1.11616 0.25146 0.24963
 C13 C 0.71025 -0.28522 0.19222
 C14 C 0.75675 -0.24147 0.15250
 C15 C 0.79978 -0.20047 0.18808
 C16 C 0.79296 -0.20676 0.26175
 C17 C 0.76327 -0.32500 0.23615
 C18 C 0.80568 -0.28367 0.27398
 C19 C 0.67037 -0.23430 0.23807
 C20 C 0.71325 -0.19406 0.27532
 H21 H 0.75765 -0.24478 0.10005
 H22 H 0.82793 -0.17284 0.29111
 H23 H 0.76593 -0.38021 0.23809
 H24 H 0.61312 -0.23302 0.24278
 C25 C 0.70120 0.21719 -0.29863
 C26 C 0.74706 0.25174 -0.34074
 C27 C 0.79291 0.29799 -0.30807
 C28 C 0.78639 0.29913 -0.23727
 C29 C 0.74849 0.18226 -0.25330
 C30 C 0.79745 0.22646 -0.22013
 C31 C 0.66429 0.27081 -0.26004
 C32 C 0.71073 0.31505 -0.22400
 H33 H 0.74777 0.24244 -0.39289
 H34 H 0.82313 0.33423 -0.21131
 H35 H 0.73664 0.13326 -0.23485
 H36 H 0.60685 0.27476 -0.25648
 C37 C 1.21946 -0.27536 -0.30479
 C38 C 1.26773 -0.22564 -0.33583
 C39 C 1.31060 -0.19186 -0.29329
 C40 C 1.30230 -0.21081 -0.22291
 C41 C 1.27130 -0.32305 -0.26709
 C42 C 1.31346 -0.28942 -0.22302
 C43 C 1.17944 -0.23176 -0.25249
 C44 C 1.22290 -0.19791 -0.20992
 H45 H 1.27068 -0.22051 -0.38770
 H46 H 1.33749 -0.18281 -0.18831
 H47 H 1.27431 -0.37804 -0.27448
 H48 H 1.12198 -0.22665 -0.25059
 C49 C 0.18873 0.20360 0.77988
 C50 C 0.23913 0.23761 0.82229
 C51 C 0.29180 0.27280 0.78919
 C52 C 0.28401 0.26701 0.71912
 C53 C 0.15720 0.25912 0.73741
 C54 C 0.20671 0.29294 0.70506
 C55 C 0.23277 0.15652 0.73355
 C56 C 0.28291 0.18948 0.70226
 H57 H 0.23826 0.23433 0.87444
 H58 H 0.32408 0.29440 0.69249
 H59 H 0.10054 0.26442 0.72815
 H60 H 0.22203 0.10306 0.72313
 C61 C 0.68858 0.69404 0.80127
 C62 C 0.72818 0.73889 0.84437
 C63 C 0.78011 0.77637 0.81363
 C64 C 0.78287 0.76157 0.74289
 C65 C 0.65777 0.73886 0.75270
 C66 C 0.70967 0.77694 0.71982
 C67 C 0.74079 0.65001 0.76651
 C68 C 0.79173 0.68633 0.73213
 H69 H 0.71447 0.74893 0.89478
 H70 H 0.82332 0.79086 0.71870
 H71 H 0.60246 0.73682 0.73822
 H72 H 0.73402 0.59548 0.75764
 C73 C 0.70217 0.19584 0.29735
 C74 C 0.75356 0.23975 0.33631
 C75 C 0.79707 0.27556 0.29996
 C76 C 0.78562 0.26259 0.22621
 C77 C 0.66254 0.24561 0.25252
 C78 C 0.70604 0.28051 0.21427
 C79 C 0.74795 0.14943 0.25215
 C80 C 0.79074 0.18358 0.21382
 H81 H 0.75448 0.24286 0.38875
 H82 H 0.82108 0.29182 0.19644
 H83 H 0.60526 0.24743 0.24850
 H84 H 0.74036 0.09485 0.24543
 C85 C 0.19038 0.71082 0.28955
 C86 C 0.23915 0.75055 0.33616
 C87 C 0.28612 0.78926 0.30613
 C88 C 0.27910 0.78623 0.23256
 C89 C 0.15452 0.76527 0.24796
 C90 C 0.20034 0.80524 0.21816
 C91 C 0.24129 0.66975 0.24329
 C92 C 0.28830 0.70971 0.21412
 H93 H 0.23936 0.74481 0.38802
 H94 H 0.31676 0.81859 0.20822
 H95 H 0.09781 0.76690 0.23868
 H96 H 0.24141 0.61447 0.23602
 O97 O 1.11337 0.05486 0.07615
 O98 O 0.87014 -0.01443 0.06315
 O99 O 0.96687 0.13980 0.05587
 O100 O 1.01935 -0.09865 0.08728
 O101 O 0.86795 0.09674 0.02716
 O102 O 1.12317 -0.06705 0.06398
 O103 O 0.90576 -0.11416 0.03408
 O104 O 1.08610 0.13868 0.01857
 C105 C 1.11001 0.11765 0.07048
 C106 C 0.87287 -0.07587 0.07380
 C107 C 0.90354 0.13329 0.06623
 C108 C 1.08232 -0.09191 0.10313
 O109 O 1.12666 -0.05523 -0.06918
 O110 O 0.88880 0.04212 -0.09977
 O111 O 1.04168 0.10499 -0.10056
 O112 O 0.97038 -0.12139 -0.08151
 O113 O 0.86959 -0.06898 -0.06475
 O114 O 1.13670 0.06127 -0.05596
 O115 O 1.08284 -0.13653 -0.02327
 O116 O 0.91964 0.13894 -0.06541
 Co117 Co 1.11352 -0.00083 0.00308
 Co118 Co 0.88537 0.01328 -0.01789
 Co119 Co 1.00291 0.11753 -0.02171
 Co120 Co 0.99492 -0.10499 0.00278
 O121 O 0.99909 0.00616 -0.00812
 C122 C 1.11648 -0.11684 -0.06919
 C123 C 0.89100 0.10382 -0.10871
 C124 C 1.10622 0.08872 -0.10315
 C125 C 0.90774 -0.11105 -0.09874
 O126 O 1.12212 0.52982 0.57892
 O127 O 0.87893 0.49251 0.59530
 O128 O 0.97128 0.64366 0.57364
 O129 O 1.02386 0.39753 0.58565
 O130 O 0.86951 0.60662 0.55099
 O131 O 1.12306 0.41074 0.54451
 O132 O 0.90427 0.39297 0.55665
 O133 O 1.09004 0.62793 0.54221
 C134 C 1.11945 0.59318 0.58594
 C135 C 0.88132 0.43002 0.60300
 C136 C 0.90864 0.63992 0.58869
 C137 C 1.08861 0.39520 0.59176
 O138 O 1.10684 0.44891 0.41968
 O139 O 0.86537 0.54976 0.43133
 O140 O 1.04592 0.60893 0.41422
 O141 O 0.93909 0.39201 0.42787
 O142 O 0.84779 0.44141 0.47065
 O143 O 1.13813 0.56201 0.45616
 O144 O 1.05851 0.36426 0.45870
 O145 O 0.92423 0.64076 0.44723
 Co146 Co 1.10953 0.48945 0.49990
 Co147 Co 0.87846 0.52083 0.51174
 Co148 Co 1.00642 0.61856 0.49453
 Co149 Co 0.98307 0.39858 0.50670
 O150 O 0.99418 0.50749 0.50272
 C151 C 1.09203 0.38804 0.41408
 C152 C 0.88043 0.60692 0.41396
 C153 C 1.11031 0.59352 0.41078
 C154 C 0.87402 0.40331 0.42624
 O155 O 0.63654 0.01003 0.59174
 O156 O 0.38561 -0.00218 0.59211
 O157 O 0.48808 0.12665 0.57832
 O158 O 0.53394 -0.11822 0.59027
 O159 O 0.38937 0.10647 0.53658
 O160 O 0.63565 -0.10989 0.55280
 O161 O 0.41648 -0.10729 0.56707
 O162 O 0.60625 0.10828 0.55445
 C163 C 0.63203 0.07326 0.59941
 C164 C 0.38865 -0.06349 0.60630
 C165 C 0.42348 0.13232 0.58201
 C166 C 0.59796 -0.12804 0.59722
 O167 O 0.62855 -0.06577 0.43138
 O168 O 0.39445 0.03778 0.42381
 O169 O 0.57118 0.09005 0.42460
 O170 O 0.44511 -0.11663 0.43449
 O171 O 0.35853 -0.06246 0.47849
 O172 O 0.66187 0.04569 0.47056
 O173 O 0.56590 -0.14737 0.46112
 O174 O 0.45352 0.12773 0.44552
 Co175 Co 0.62712 -0.02746 0.51141
 Co176 Co 0.39526 0.01752 0.50780
 Co177 Co 0.52785 0.10270 0.50124
 Co178 Co 0.49243 -0.11189 0.51228
 O179 O 0.51069 -0.00484 0.50824
 C180 C 0.60638 -0.12371 0.42089
 C181 C 0.41393 0.09424 0.40769
 C182 C 0.63577 0.07833 0.42486
 C183 C 0.38042 -0.10366 0.43579
 O184 O 0.61067 0.51170 0.09121
 O185 O 0.36251 0.47950 0.07976
 O186 O 0.44494 0.61641 0.07450
 O187 O 0.51938 0.37577 0.08078
 O188 O 0.35588 0.58809 0.02193
 O189 O 0.62032 0.39206 0.04617
 O190 O 0.40400 0.37759 0.05580
 O191 O 0.56953 0.61024 0.05902
 C192 C 0.60454 0.57516 0.09973
 C193 C 0.37190 0.41880 0.09479
 C194 C 0.37981 0.61371 0.07217
 C195 C 0.58357 0.37078 0.08944
 O196 O 0.61707 0.44050 -0.07212
 O197 O 0.37403 0.52158 -0.08830
 O198 O 0.54759 0.59774 -0.07432
 O199 O 0.43666 0.37687 -0.07894
 O200 O 0.34500 0.41655 -0.03365
 O201 O 0.63650 0.55443 -0.02516
 O202 O 0.55642 0.35458 -0.04914
 O203 O 0.42517 0.61649 -0.06286
 Co204 Co 0.60732 0.47587 0.00921
 Co205 Co 0.37279 0.50003 -0.00437
 Co206 Co 0.49568 0.59967 -0.00049
 Co207 Co 0.48010 0.38152 0.00138
 O208 O 0.48942 0.48929 0.00126
 C209 C 0.59833 0.38172 -0.08582
 C210 C 0.38941 0.58047 -0.10261
 C211 C 0.61246 0.58638 -0.07188
 C212 C 0.37123 0.38101 -0.07830
 C213 C 1.17856 0.14755 0.16884
 C214 C 1.13832 0.16673 0.11868
 H215 H 1.18714 0.09338 0.17764
 H216 H 1.13097 0.22087 0.10932
 C217 C 1.17062 0.69195 0.64503
 C218 C 1.15772 0.62503 0.64107
 H219 H 1.14751 0.72505 0.60869
 H220 H 1.17798 0.59098 0.67752
 C221 C 0.65366 0.17605 0.66411
 C222 C 0.66265 0.10498 0.65317
 H223 H 0.61476 0.20382 0.63451
 H224 H 0.69613 0.07345 0.68405
 C225 C 0.65944 0.67590 0.14884
 C226 C 0.64689 0.60910 0.15119
 H227 H 0.63268 0.70569 0.11178
 H228 H 0.67222 0.57758 0.18740
 C229 C 0.85160 -0.15987 0.15576
 C230 C 0.83027 -0.10337 0.12500
 H231 H 0.90421 -0.18314 0.14754
 H232 H 0.77809 -0.07953 0.13430
 C233 C 0.84266 0.32988 0.65552
 C234 C 0.85205 0.40080 0.65705
 H235 H 0.85912 0.30097 0.61194
 H236 H 0.82926 0.43366 0.69561
 C237 C 0.36613 -0.14945 0.68369
 C238 C 0.34961 -0.08735 0.66122
 H239 H 0.41557 -0.17632 0.66978
 H240 H 0.30026 -0.06012 0.67480
 C241 C 0.35502 0.32964 0.17157
 C242 C 0.33684 0.39241 0.15129
 H243 H 0.40068 0.30143 0.15080
 H244 H 0.29026 0.42041 0.17052
 C245 C 0.84532 0.20239 -0.17207
 C246 C 0.85661 0.13163 -0.16224
 H247 H 0.87290 0.23928 -0.14153
 H248 H 0.83529 0.09445 -0.19661
 C249 C 0.85196 0.69214 0.32853
 C250 C 0.84115 0.63318 0.35702
 H251 H 0.89175 0.72572 0.34838
 H252 H 0.79934 0.60122 0.33867
 C253 C 0.35988 0.18831 0.34481
 C254 C 0.38339 0.12259 0.34854
 H255 H 0.37249 0.22536 0.38326
 H256 H 0.37162 0.08531 0.31022
 C257 C 0.35924 0.67667 -0.17348
 C258 C 0.35707 0.60978 -0.16119
 H259 H 0.39028 0.70965 -0.14177
 H260 H 0.32496 0.57606 -0.19085
 C261 C 1.19698 -0.15019 -0.15785
 C262 C 1.14365 -0.16526 -0.12002
 H263 H 1.22479 -0.10334 -0.14856
 H264 H 1.11987 -0.21469 -0.12588
 C265 C 1.18083 0.34976 0.33189
 C266 C 1.11908 0.34157 0.36129
 H267 H 1.21220 0.39320 0.34606
 H268 H 1.09093 0.29500 0.35187
 C269 C 0.68668 -0.14941 0.32965
 C270 C 0.63139 -0.16619 0.36496
 H271 H 0.71628 -0.10471 0.34352
 H272 H 0.60534 -0.21378 0.35439
 C273 C 0.68663 0.35817 -0.17209
 C274 C 0.62516 0.34341 -0.13876
 H275 H 0.72077 0.39716 -0.15211
 H276 H 0.59991 0.29554 -0.15002
 C277 C 1.13330 0.16847 -0.18464
 C278 C 1.15024 0.11115 -0.15430
 H279 H 1.08275 0.19581 -0.17542
 H280 H 1.20311 0.08717 -0.15900
 C281 C 1.13664 0.67075 0.32394
 C282 C 1.15686 0.61963 0.36181
 H283 H 1.08191 0.69061 0.32550
 H284 H 1.21238 0.60225 0.36290
 C285 C 0.65452 0.15734 0.33885
 C286 C 0.68093 0.10972 0.37854
 H287 H 0.59821 0.17173 0.33910
 H288 H 0.73756 0.09701 0.37987
 C289 C 0.63739 0.65710 -0.16456
 C290 C 0.65888 0.61316 -0.11521
 H291 H 0.58102 0.66884 -0.17195
 H292 H 0.71535 0.60253 -0.10737
 C293 C 0.80767 -0.16687 -0.15175
 C294 C 0.87957 -0.15232 -0.14965
 H295 H 0.77592 -0.14506 -0.11199
 H296 H 0.91591 -0.18332 -0.18016
 C297 C 0.84717 0.32429 0.33082
 C298 C 0.82647 0.36452 0.38216
 H299 H 0.90104 0.32472 0.31342
 H300 H 0.77095 0.36628 0.39550
 C301 C 0.34213 -0.17322 0.34062
 C302 C 0.32851 -0.14154 0.39740
 H303 H 0.39314 -0.16905 0.31803
 H304 H 0.27515 -0.14107 0.41640
 C305 C 0.34286 0.31215 -0.17836
 C306 C 0.32638 0.34362 -0.11848
 H307 H 0.39056 0.32513 -0.20278
 H308 H 0.27162 0.34388 -0.10295
 C309 C 1.17732 -0.14530 0.16901
 C310 C 1.10932 -0.12289 0.16231
 H311 H 1.21622 -0.13203 0.13419
 H312 H 1.07006 -0.13474 0.19719
 C313 C 1.18636 0.33920 0.65272
 C314 C 1.12101 0.36882 0.65048
 H315 H 1.22228 0.34266 0.61275
 H316 H 1.08605 0.36726 0.69133
 C317 C 0.69284 -0.18086 0.66739
 C318 C 0.62228 -0.16231 0.65155
 H319 H 0.73533 -0.16222 0.63919
 H320 H 0.58084 -0.17449 0.68411
 C321 C 0.68081 0.32243 0.15922
 C322 C 0.61175 0.33646 0.14696
 H323 H 0.72006 0.33938 0.12648
 H324 H 0.57193 0.32115 0.17968
 C325 C 0.82168 0.14725 0.15615
 C326 C 0.87134 0.17308 0.12075
 H327 H 0.80406 0.09625 0.14323
 H328 H 0.89433 0.22110 0.13571
 C329 C 0.82468 0.65261 0.67793
 C330 C 0.88217 0.67587 0.64431
 H331 H 0.80634 0.60238 0.66310
 H332 H 0.91238 0.71693 0.66617
 C333 C 0.32229 0.15470 0.64972
 C334 C 0.38809 0.16995 0.63549
 H335 H 0.29691 0.11302 0.62345
 H336 H 0.41664 0.20729 0.66470
 C337 C 0.34421 0.68380 0.16914
 C338 C 0.33098 0.63509 0.12444
 H339 H 0.39331 0.71047 0.16792
 H340 H 0.27892 0.61352 0.12225
   
