data_POSCAR
  _audit_creation_date              2014-09-24
  _audit_creation_method            'ToBaCCo'
  _symmetry_space_group_name_H-M    'P1'
  _symmetry_Int_Tables_number       1
  _symmetry_cell_setting            triclinic
  loop_
  _symmetry_equiv_pos_as_xyz
 x,y,z
_cell_length_a 38.6848
_cell_length_b 36.6509
_cell_length_c 40.6365
_cell_angle_alpha 87.922800
_cell_angle_beta 88.728900
_cell_angle_gamma 84.528500
loop_
  _atom_site_label
  _atom_site_type_symbol
  _atom_site_fract_x
  _atom_site_fract_y
  _atom_site_fract_z
C1 C 1.21524 0.23588 0.18244
 C2 C 1.24194 0.25982 0.16756
 C3 C 1.26020 0.27874 0.19042
 C4 C 1.24892 0.27194 0.22608
 C5 C 1.23454 0.21004 0.20709
 C6 C 1.25440 0.22700 0.23245
 C7 C 1.19027 0.26104 0.20283
 C8 C 1.20635 0.28210 0.22838
 H9 H 1.24603 0.26194 0.14120
 H10 H 1.26303 0.28679 0.24414
 H11 H 1.23376 0.18056 0.20696
 H12 H 1.16236 0.26141 0.20223
 C13 C 0.71620 -0.27948 0.22736
 C14 C 0.74482 -0.26138 0.20847
 C15 C 0.76622 -0.24160 0.22783
 C16 C 0.75703 -0.24319 0.26441
 C17 C 0.73401 -0.30450 0.25369
 C18 C 0.75789 -0.28698 0.27580
 C19 C 0.69566 -0.24903 0.24570
 C20 C 0.71579 -0.22672 0.26690
 H21 H 0.74734 -0.26293 0.18201
 H22 H 0.77389 -0.22792 0.27968
 H23 H 0.72984 -0.33323 0.25675
 H24 H 0.66780 -0.24313 0.24358
 C25 C 0.72784 0.19654 -0.30364
 C26 C 0.74782 0.22178 -0.32224
 C27 C 0.76790 0.24641 -0.30293
 C28 C 0.76039 0.23688 -0.26328
 C29 C 0.75192 0.17573 -0.28172
 C30 C 0.76919 0.19562 -0.25920
 C31 C 0.70318 0.21829 -0.28329
 C32 C 0.71767 0.24262 -0.25908
 H33 H 0.74922 0.22273 -0.34893
 H34 H 0.77418 0.25375 -0.24667
 H35 H 0.75546 0.14595 -0.28108
 H36 H 0.67532 0.21746 -0.28499
 C37 C 1.21609 -0.26401 -0.27663
 C38 C 1.24197 -0.24409 -0.29759
 C39 C 1.26436 -0.22376 -0.27989
 C40 C 1.25885 -0.22668 -0.24275
 C41 C 1.23722 -0.28887 -0.25238
 C42 C 1.26257 -0.27091 -0.23241
 C43 C 1.19632 -0.23493 -0.25617
 C44 C 1.21746 -0.21224 -0.23643
 H45 H 1.24197 -0.24496 -0.32414
 H46 H 1.27653 -0.21103 -0.22872
 H47 H 1.23453 -0.31797 -0.24955
 H48 H 1.16823 -0.23033 -0.25581
 C49 C 0.23842 0.22450 0.81611
 C50 C 0.26340 0.24687 0.82897
 C51 C 0.28307 0.26603 0.80499
 C52 C 0.27302 0.25921 0.76954
 C53 C 0.21553 0.24957 0.79309
 C54 C 0.23369 0.26822 0.76795
 C55 C 0.25913 0.19731 0.79405
 C56 C 0.27906 0.21410 0.76623
 H57 H 0.26659 0.24824 0.85522
 H58 H 0.28768 0.27417 0.75038
 H59 H 0.18757 0.25091 0.79534
 H60 H 0.25921 0.16786 0.79750
 C61 C 0.72573 0.73559 0.77303
 C62 C 0.74621 0.75685 0.79338
 C63 C 0.76660 0.78201 0.77601
 C64 C 0.76283 0.78080 0.73858
 C65 C 0.70311 0.76165 0.75399
 C66 C 0.72047 0.78894 0.73263
 C67 C 0.75001 0.71735 0.74965
 C68 C 0.77086 0.74052 0.73063
 H69 H 0.74640 0.75267 0.81984
 H70 H 0.77857 0.79977 0.72409
 H71 H 0.67513 0.76103 0.75389
 H72 H 0.75032 0.68835 0.74533
 C73 C 0.73916 0.23491 0.30260
 C74 C 0.76552 0.25584 0.31909
 C75 C 0.78498 0.27722 0.29704
 C76 C 0.77432 0.27486 0.26093
 C77 C 0.71631 0.26382 0.28333
 C78 C 0.73486 0.28520 0.26042
 C79 C 0.75992 0.21232 0.27677
 C80 C 0.77857 0.23374 0.25383
 H81 H 0.76708 0.25585 0.34559
 H82 H 0.78912 0.29183 0.24345
 H83 H 0.68832 0.26460 0.28481
 H84 H 0.76012 0.18284 0.27662
 C85 C 0.23730 0.70579 0.27388
 C86 C 0.26085 0.72398 0.29597
 C87 C 0.28173 0.75181 0.28030
 C88 C 0.27314 0.75438 0.24039
 C89 C 0.21521 0.73645 0.25589
 C90 C 0.23389 0.76207 0.23768
 C91 C 0.26073 0.68747 0.24776
 C92 C 0.28172 0.71217 0.22713
 H93 H 0.26235 0.71745 0.32216
 H94 H 0.28794 0.77467 0.22647
 H95 H 0.18719 0.73770 0.25697
 H96 H 0.26133 0.65851 0.24306
 N97 N 0.94749 0.05269 0.04494
 N98 N 0.92286 0.07708 0.05585
 N99 N 1.02519 0.03028 0.05762
 N100 N 1.05110 0.03835 0.07604
 N101 N 1.01898 0.05577 0.03439
 N102 N 1.04041 0.08132 0.03590
 N103 N 0.95336 0.02558 0.06678
 N104 N 0.93270 0.03053 0.09278
 C105 C 0.91365 0.06250 0.08555
 C106 C 1.06038 0.07016 0.06169
 N107 N 1.03612 -0.07340 0.03356
 N108 N 1.06138 -0.09972 0.03860
 N109 N 0.96366 -0.05368 0.06557
 N110 N 0.94106 -0.06214 0.08896
 N111 N 0.96437 -0.07719 0.04185
 N112 N 0.94238 -0.10191 0.04816
 N113 N 1.03563 -0.04915 0.05665
 N114 N 1.06059 -0.05838 0.07788
 Mn115 Mn 0.99450 -0.01175 0.06206
 C116 C 1.07684 -0.08962 0.06592
 C117 C 0.92810 -0.09236 0.07754
 N118 N 1.01060 0.05950 -0.03543
 N119 N 1.03351 0.08326 -0.04303
 N120 N 0.93877 0.03219 -0.04895
 N121 N 0.91478 0.04289 -0.07079
 N122 N 0.93861 0.05625 -0.02568
 N123 N 0.91460 0.08370 -0.03114
 N124 N 1.01038 0.03531 -0.05841
 N125 N 1.03270 0.04194 -0.08230
 Mn126 Mn 0.97884 0.05633 0.00459
 C127 C 1.04697 0.07179 -0.07243
 C128 C 0.89949 0.07466 -0.05890
 N129 N 0.95586 -0.07381 -0.02830
 N130 N 0.93642 -0.10080 -0.03310
 N131 N 1.02127 -0.04306 -0.05935
 N132 N 1.04658 -0.04386 -0.08174
 N133 N 1.02777 -0.06918 -0.03675
 N134 N 1.05759 -0.08842 -0.04305
 N135 N 0.94938 -0.04720 -0.05046
 N136 N 0.92560 -0.05551 -0.07105
 Mn137 Mn 0.99608 -0.07368 0.00256
 Mn138 Mn 0.97979 -0.00571 -0.05456
 Cl139 Cl 0.98717 -0.00871 0.00372
 C140 C 0.91745 -0.08884 -0.05961
 C141 C 1.06891 -0.07241 -0.07122
 N142 N 1.07657 0.52545 0.53778
 N143 N 1.10203 0.54654 0.54080
 N144 N 1.05242 0.45305 0.56805
 N145 N 1.06200 0.43114 0.59332
 N146 N 1.07521 0.44901 0.54367
 N147 N 1.10096 0.42421 0.55195
 N148 N 1.05434 0.52939 0.56256
 N149 N 1.06426 0.55318 0.58326
 C150 C 1.09382 0.56396 0.56905
 C151 C 1.09199 0.41287 0.58281
 N152 N 0.95189 0.46444 0.55337
 N153 N 0.92808 0.44290 0.56376
 N154 N 0.97954 0.53880 0.56844
 N155 N 0.97460 0.56388 0.59091
 N156 N 0.95330 0.54107 0.54822
 N157 N 0.92974 0.56788 0.55662
 N158 N 0.97772 0.46239 0.57401
 N159 N 0.97220 0.43938 0.59892
 Mn160 Mn 1.01597 0.49593 0.56847
 C161 C 0.94133 0.42719 0.59204
 C162 C 0.94382 0.58218 0.58299
 N163 N 1.06981 0.44655 0.47273
 N164 N 1.09516 0.42234 0.46320
 N165 N 1.04515 0.52573 0.44723
 N166 N 1.04888 0.55132 0.42416
 N167 N 1.07131 0.52300 0.46746
 N168 N 1.09385 0.54655 0.45849
 N169 N 1.04445 0.44929 0.45147
 N170 N 1.05227 0.42718 0.42685
 Mn171 Mn 1.07347 0.48589 0.50537
 C172 C 1.08363 0.41001 0.43492
 C173 C 1.07929 0.56404 0.43153
 N174 N 0.94781 0.53845 0.47715
 N175 N 0.92331 0.56505 0.46992
 N176 N 0.96933 0.45860 0.45768
 N177 N 0.95966 0.43550 0.43628
 N178 N 0.94685 0.46196 0.48239
 N179 N 0.92144 0.44095 0.47849
 N180 N 0.97095 0.53502 0.45304
 N181 N 0.96320 0.55952 0.42911
 Mn182 Mn 0.94960 0.50150 0.51533
 Mn183 Mn 1.00744 0.49211 0.45216
 Cl184 Cl 1.01160 0.49373 0.51035
 C185 C 0.93363 0.57820 0.44003
 C186 C 0.93000 0.42441 0.44979
 N187 N 0.44128 0.04604 0.43058
 N188 N 0.41690 0.05528 0.40880
 N189 N 0.51348 0.06878 0.44849
 N190 N 0.53730 0.09151 0.44096
 N191 N 0.51370 0.04359 0.42638
 N192 N 0.53726 0.04835 0.40321
 N193 N 0.44056 0.07068 0.45328
 N194 N 0.41560 0.09708 0.44787
 C195 C 0.40084 0.08690 0.42032
 C196 C 0.55190 0.07810 0.41265
 N197 N 0.51851 0.04253 0.54292
 N198 N 0.54421 0.04833 0.56246
 N199 N 0.44337 0.06984 0.52371
 N200 N 0.42111 0.09751 0.53245
 N201 N 0.44573 0.04405 0.54712
 N202 N 0.42533 0.05378 0.57244
 N203 N 0.51577 0.06766 0.51902
 N204 N 0.53919 0.09108 0.52146
 Mn205 Mn 0.47829 0.06953 0.48612
 C206 C 0.55681 0.07868 0.54843
 C207 C 0.40966 0.08687 0.56262
 N208 N 0.51968 -0.03474 0.42798
 N209 N 0.54637 -0.03854 0.40716
 N210 N 0.45010 -0.05975 0.45400
 N211 N 0.43023 -0.08567 0.44652
 N212 N 0.44676 -0.03261 0.43196
 N213 N 0.42431 -0.03883 0.40947
 N214 N 0.52276 -0.06028 0.45149
 N215 N 0.55154 -0.08210 0.44744
 Mn216 Mn 0.48026 0.00553 0.42897
 C217 C 0.56591 -0.06825 0.41967
 C218 C 0.41389 -0.07167 0.41896
 N219 N 0.45112 -0.03586 0.54819
 N220 N 0.42743 -0.04270 0.57101
 N221 N 0.52515 -0.06171 0.52230
 N222 N 0.55226 -0.08601 0.52720
 N223 N 0.52372 -0.03652 0.54458
 N224 N 0.54955 -0.04296 0.56521
 N225 N 0.45227 -0.06038 0.52523
 N226 N 0.42928 -0.08411 0.53149
 Mn227 Mn 0.48471 0.00349 0.54612
 Mn228 Mn 0.48759 -0.06098 0.48831
 Cl229 Cl 0.48258 0.00437 0.48746
 C230 C 0.41399 -0.07280 0.55999
 C231 C 0.56725 -0.07377 0.55401
 N232 N 0.58040 0.52193 0.02779
 N233 N 0.60698 0.54053 0.03386
 N234 N 0.54916 0.45134 0.05389
 N235 N 0.55700 0.43055 0.08038
 N236 N 0.57378 0.44627 0.03117
 N237 N 0.59868 0.42174 0.04176
 N238 N 0.55624 0.52676 0.05085
 N239 N 0.56591 0.54873 0.07334
 C240 C 0.59745 0.55744 0.06209
 C241 C 0.58756 0.41168 0.07222
 N242 N 0.45116 0.47122 0.02914
 N243 N 0.42654 0.44902 0.03356
 N244 N 0.48184 0.54206 0.04962
 N245 N 0.47748 0.56848 0.07094
 N246 N 0.45826 0.54681 0.02670
 N247 N 0.43687 0.57638 0.03214
 N248 N 0.47392 0.46627 0.05276
 N249 N 0.46494 0.44068 0.07433
 Mn250 Mn 0.51518 0.49656 0.05207
 C251 C 0.43527 0.43026 0.06178
 C252 C 0.44954 0.58979 0.05961
 N253 N 0.57530 0.44548 -0.04005
 N254 N 0.59933 0.41863 -0.04670
 N255 N 0.55863 0.52570 -0.06630
 N256 N 0.56527 0.55301 -0.08682
 N257 N 0.58173 0.52140 -0.04294
 N258 N 0.60465 0.54573 -0.04685
 N259 N 0.55239 0.44994 -0.06364
 N260 N 0.56061 0.42632 -0.08707
 Mn261 Mn 0.57799 0.48369 -0.00609
 C262 C 0.58959 0.40655 -0.07576
 C263 C 0.59414 0.56508 -0.07438
 N264 N 0.45978 0.54586 -0.04457
 N265 N 0.43704 0.57348 -0.05332
 N266 N 0.47702 0.46476 -0.06422
 N267 N 0.46884 0.43939 -0.08435
 N268 N 0.45288 0.47029 -0.04122
 N269 N 0.42798 0.44869 -0.04473
 N270 N 0.48419 0.54063 -0.06736
 N271 N 0.47888 0.56492 -0.09200
 Mn272 Mn 0.45528 0.50870 -0.00746
 Mn273 Mn 0.51808 0.49515 -0.06574
 Cl274 Cl 0.51666 0.49590 -0.00679
 C275 C 0.44960 0.58545 -0.08270
 C276 C 0.43816 0.42963 -0.07164
 C277 C 1.19963 0.21328 0.15724
 C278 C 1.16419 0.21368 0.15171
 C279 C 1.14897 0.18179 0.13883
 C280 C 1.11773 0.18751 0.12188
 C281 C 1.10177 0.15780 0.11090
 C282 C 1.11654 0.12166 0.11706
 C283 C 1.14715 0.11574 0.13499
 C284 C 1.16347 0.14560 0.14560
 C285 C 1.09985 0.09043 0.10465
 C286 C 1.08589 0.09335 0.07341
 H287 H 1.14667 0.23736 0.15765
 H288 H 1.10568 0.21505 0.11711
 H289 H 1.07756 0.16308 0.09792
 H290 H 1.15864 0.08811 0.14038
 H291 H 1.18689 0.14028 0.15977
 H292 H 1.09777 0.06604 0.12014
 H293 H 1.21698 0.19187 0.14629
 H294 H 1.09062 0.11698 0.05773
 C295 C 1.19180 0.71608 0.70349
 C296 C 1.20314 0.68588 0.68484
 C297 C 1.17899 0.66511 0.66678
 C298 C 1.19174 0.64418 0.64016
 C299 C 1.16973 0.62387 0.62288
 C300 C 1.13437 0.62401 0.63202
 C301 C 1.12185 0.64432 0.65910
 C302 C 1.14382 0.66464 0.67632
 C303 C 1.11024 0.60209 0.61512
 C304 C 1.11659 0.58855 0.58372
 H305 H 1.23075 0.67765 0.68301
 H306 H 1.21885 0.64353 0.63271
 H307 H 1.18082 0.60759 0.60294
 H308 H 1.09493 0.64435 0.66707
 H309 H 1.13323 0.67920 0.69749
 H310 H 1.08632 0.59655 0.62791
 H311 H 1.16470 0.72658 0.70290
 H312 H 1.13929 0.59507 0.56954
 C313 C 0.71080 0.17250 0.67638
 C314 C 0.68838 0.18483 0.65111
 C315 C 0.66715 0.15938 0.63539
 C316 C 0.66199 0.16264 0.60145
 C317 C 0.64185 0.13877 0.58621
 C318 C 0.62550 0.11193 0.60497
 C319 C 0.63113 0.10848 0.63892
 C320 C 0.65168 0.13203 0.65406
 C321 C 0.60150 0.08824 0.59027
 C322 C 0.58446 0.09836 0.56116
 H323 H 0.68685 0.21322 0.64239
 H324 H 0.67398 0.18335 0.58666
 H325 H 0.63940 0.14151 0.55978
 H326 H 0.61890 0.08811 0.65391
 H327 H 0.65473 0.12940 0.68049
 H328 H 0.59457 0.06411 0.60416
 H329 H 0.71250 0.14343 0.68298
 H330 H 0.58942 0.12341 0.54781
 C331 C 0.69287 0.70139 0.20568
 C332 C 0.70419 0.67006 0.18848
 C333 C 0.68048 0.65067 0.16852
 C334 C 0.69428 0.62884 0.14285
 C335 C 0.67258 0.61011 0.12368
 C336 C 0.63647 0.61272 0.12994
 C337 C 0.62284 0.63379 0.15616
 C338 C 0.64450 0.65256 0.17525
 C339 C 0.61247 0.59281 0.11073
 C340 C 0.62058 0.57951 0.07950
 H341 H 0.73144 0.66002 0.18912
 H342 H 0.72196 0.62635 0.13755
 H343 H 0.68441 0.59314 0.10451
 H344 H 0.59527 0.63572 0.16196
 H345 H 0.63296 0.66787 0.19562
 H346 H 0.58713 0.58893 0.12146
 H347 H 0.66650 0.71353 0.20242
 H348 H 0.64490 0.58454 0.06737
 C349 C 0.79130 -0.21904 0.21557
 C350 C 0.79783 -0.21189 0.18205
 C351 C 0.82134 -0.18467 0.16925
 C352 C 0.81759 -0.17160 0.13653
 C353 C 0.83942 -0.14664 0.12287
 C354 C 0.86600 -0.13445 0.14152
 C355 C 0.86931 -0.14668 0.17452
 C356 C 0.84742 -0.17179 0.18825
 C357 C 0.89106 -0.11015 0.12658
 C358 C 0.90137 -0.11301 0.09365
 H359 H 0.78347 -0.22473 0.16390
 H360 H 0.79759 -0.18071 0.12139
 H361 H 0.83538 -0.13693 0.09766
 H362 H 0.88958 -0.13767 0.18939
 H363 H 0.85171 -0.18157 0.21337
 H364 H 0.90387 -0.09244 0.14218
 H365 H 0.80462 -0.20467 0.23345
 H366 H 0.89123 -0.13355 0.07905
 C367 C 0.79043 0.27359 0.67859
 C368 C 0.81242 0.29691 0.69170
 C369 C 0.83261 0.32081 0.66993
 C370 C 0.85778 0.34070 0.68346
 C371 C 0.87727 0.36326 0.66333
 C372 C 0.87189 0.36641 0.62914
 C373 C 0.84638 0.34693 0.61573
 C374 C 0.82709 0.32423 0.63577
 C375 C 0.89128 0.39061 0.60690
 C376 C 0.92356 0.40202 0.61421
 H377 H 0.81553 0.29715 0.71817
 H378 H 0.86237 0.33881 0.70970
 H379 H 0.89596 0.37864 0.67479
 H380 H 0.84145 0.34911 0.58955
 H381 H 0.80774 0.30956 0.62443
 H382 H 0.88008 0.39892 0.58327
 H383 H 0.77987 0.26100 0.69403
 H384 H 0.93645 0.39240 0.63667
 C385 C 0.28748 -0.20006 0.70607
 C386 C 0.29086 -0.19239 0.67222
 C387 C 0.31281 -0.16465 0.65765
 C388 C 0.30672 -0.15218 0.62504
 C389 C 0.32716 -0.12691 0.60970
 C390 C 0.35453 -0.11375 0.62655
 C391 C 0.36013 -0.12534 0.65943
 C392 C 0.33972 -0.15079 0.67481
 C393 C 0.37823 -0.08923 0.60990
 C394 C 0.38695 -0.09247 0.57663
 H395 H 0.27532 -0.20552 0.65525
 H396 H 0.28604 -0.16209 0.61129
 H397 H 0.32146 -0.11775 0.58461
 H398 H 0.38109 -0.11558 0.67289
 H399 H 0.34585 -0.16005 0.69973
 H400 H 0.39196 -0.07141 0.62461
 H401 H 0.30195 -0.18551 0.72291
 H402 H 0.37608 -0.11307 0.56265
 C403 C 0.28782 0.30001 0.18249
 C404 C 0.30257 0.30328 0.15084
 C405 C 0.33271 0.32434 0.14234
 C406 C 0.35012 0.31783 0.11214
 C407 C 0.37720 0.33832 0.10175
 C408 C 0.38738 0.36624 0.12119
 C409 C 0.37107 0.37188 0.15203
 C410 C 0.34378 0.35135 0.16247
 C411 C 0.41335 0.39092 0.10875
 C412 C 0.41444 0.40174 0.07554
 H413 H 0.29289 0.28838 0.13110
 H414 H 0.34246 0.29702 0.09624
 H415 H 0.38990 0.33252 0.07826
 H416 H 0.37849 0.39321 0.16746
 H417 H 0.33088 0.35767 0.18571
 H418 H 0.42856 0.40408 0.12611
 H419 H 0.29921 0.31294 0.20256
 H420 H 0.39612 0.39185 0.05902
 C421 C 0.78848 0.17655 -0.23442
 C422 C 0.79851 0.19137 -0.20542
 C423 C 0.81238 0.16684 -0.17804
 C424 C 0.83647 0.17884 -0.15659
 C425 C 0.85172 0.15479 -0.13232
 C426 C 0.84286 0.11842 -0.12913
 C427 C 0.81771 0.10700 -0.14961
 C428 C 0.80214 0.13109 -0.17339
 C429 C 0.86129 0.09107 -0.10667
 C430 C 0.87499 0.10032 -0.07716
 H431 H 0.79601 0.22070 -0.20233
 H432 H 0.84442 0.20635 -0.15939
 H433 H 0.87147 0.16422 -0.11712
 H434 H 0.81026 0.07925 -0.14733
 H435 H 0.78226 0.12139 -0.18825
 H436 H 0.86457 0.06275 -0.11390
 H437 H 0.79360 0.14722 -0.23702
 H438 H 0.86939 0.12774 -0.06816
 C439 C 0.77812 0.69109 0.30404
 C440 C 0.80266 0.70474 0.32358
 C441 C 0.82116 0.68182 0.34961
 C442 C 0.85275 0.69194 0.36102
 C443 C 0.87134 0.67021 0.38488
 C444 C 0.85835 0.63821 0.39821
 C445 C 0.82613 0.62881 0.38774
 C446 C 0.80786 0.65014 0.36338
 C447 C 0.87817 0.61393 0.42249
 C448 C 0.91418 0.60705 0.42002
 H449 H 0.80986 0.73233 0.31864
 H450 H 0.86336 0.71641 0.35104
 H451 H 0.89577 0.67856 0.39301
 H452 H 0.81552 0.60439 0.39782
 H453 H 0.78332 0.64190 0.35544
 H454 H 0.86399 0.59769 0.43997
 H455 H 0.76897 0.70700 0.28970
 H456 H 0.92812 0.61991 0.40005
 C457 C 0.27456 0.20210 0.25843
 C458 C 0.29303 0.21272 0.28461
 C459 C 0.31086 0.18485 0.30700
 C460 C 0.32817 0.19613 0.33420
 C461 C 0.34573 0.17027 0.35541
 C462 C 0.34611 0.13253 0.34980
 C463 C 0.32895 0.12126 0.32252
 C464 C 0.31132 0.14709 0.30139
 C465 C 0.36600 0.10456 0.37059
 C466 C 0.37445 0.11077 0.40281
 H467 H 0.29438 0.24163 0.28886
 H468 H 0.32844 0.22503 0.33884
 H469 H 0.35974 0.18008 0.37552
 H470 H 0.32927 0.09240 0.31751
 H471 H 0.29837 0.13735 0.28053
 H472 H 0.37517 0.07869 0.35982
 H473 H 0.26565 0.22107 0.24687
 H474 H 0.36378 0.13535 0.41476
 C475 C 0.28642 0.70666 -0.20711
 C476 C 0.31405 0.71919 -0.19093
 C477 C 0.33495 0.69503 -0.16741
 C478 C 0.36936 0.70170 -0.16142
 C479 C 0.38969 0.67873 -0.13962
 C480 C 0.37561 0.64915 -0.12291
 C481 C 0.34093 0.64313 -0.12822
 C482 C 0.32090 0.66553 -0.15053
 C483 C 0.39606 0.62448 -0.09945
 C484 C 0.43145 0.61413 -0.10397
 H485 H 0.32167 0.74645 -0.19682
 H486 H 0.38064 0.72445 -0.17395
 H487 H 0.41615 0.68448 -0.13547
 H488 H 0.32947 0.62067 -0.11541
 H489 H 0.29429 0.66000 -0.15427
 H490 H 0.38205 0.61099 -0.07988
 H491 H 0.27553 0.72337 -0.21976
 H492 H 0.44525 0.62446 -0.12527
 C493 C 1.19876 -0.18119 -0.21603
 C494 C 1.21269 -0.15920 -0.19371
 C495 C 1.18906 -0.13263 -0.17573
 C496 C 1.19485 -0.12650 -0.14255
 C497 C 1.16986 -0.10554 -0.12405
 C498 C 1.13909 -0.08991 -0.13878
 C499 C 1.13468 -0.09367 -0.17255
 C500 C 1.15925 -0.11518 -0.19084
 C501 C 1.11029 -0.07167 -0.11927
 C502 C 1.10146 -0.08519 -0.08809
 H503 H 1.23979 -0.16401 -0.18701
 H504 H 1.21783 -0.13941 -0.13057
 H505 H 1.17428 -0.10220 -0.09816
 H506 H 1.11134 -0.08151 -0.18443
 H507 H 1.15451 -0.11894 -0.21661
 H508 H 1.09272 -0.05089 -0.13143
 H509 H 1.21488 -0.19636 -0.22499
 H510 H 1.11734 -0.10792 -0.07671
 C511 C 1.18318 0.30451 0.25364
 C512 C 1.19436 0.31987 0.28179
 C513 C 1.16946 0.33640 0.30649
 C514 C 1.18206 0.34822 0.33599
 C515 C 1.15919 0.36305 0.36020
 C516 C 1.12306 0.36625 0.35543
 C517 C 1.11050 0.35491 0.32571
 C518 C 1.13338 0.33998 0.30152
 C519 C 1.09803 0.38313 0.37995
 C520 C 1.10591 0.38657 0.41295
 H521 H 1.22192 0.31785 0.28690
 H522 H 1.20972 0.34599 0.34034
 H523 H 1.17011 0.37263 0.38220
 H524 H 1.08286 0.35751 0.32121
 H525 H 1.12273 0.33129 0.27900
 H526 H 1.07266 0.39410 0.37143
 H527 H 1.20041 0.29430 0.24201
 H528 H 1.13030 0.37430 0.42258
 C529 C 0.69685 -0.19411 0.28527
 C530 C 0.71042 -0.17226 0.30793
 C531 C 0.68723 -0.14348 0.32367
 C532 C 0.69190 -0.13558 0.35667
 C533 C 0.66736 -0.11185 0.37304
 C534 C 0.63819 -0.09522 0.35632
 C535 C 0.63498 -0.10100 0.32270
 C536 C 0.65907 -0.12524 0.30655
 C537 C 0.60973 -0.07367 0.37364
 C538 C 0.59847 -0.08442 0.40495
 H539 H 0.73683 -0.17841 0.31636
 H540 H 0.71364 -0.14905 0.37017
 H541 H 0.67084 -0.10706 0.39883
 H542 H 0.61289 -0.08814 0.30931
 H543 H 0.65526 -0.13035 0.28086
 H544 H 0.59414 -0.05254 0.35980
 H545 H 0.71258 -0.21052 0.27769
 H546 H 0.61219 -0.10751 0.41798
 C547 C 0.69349 0.26653 -0.23569
 C548 C 0.70389 0.28794 -0.21089
 C549 C 0.67832 0.30908 -0.18956
 C550 C 0.69009 0.32673 -0.16249
 C551 C 0.66664 0.34693 -0.14188
 C552 C 0.63076 0.34990 -0.14794
 C553 C 0.61902 0.33268 -0.17530
 C554 C 0.64247 0.31226 -0.19579
 C555 C 0.60539 0.37223 -0.12725
 C556 C 0.61160 0.37946 -0.09457
 H557 H 0.73138 0.28859 -0.20644
 H558 H 0.71756 0.32501 -0.15732
 H559 H 0.67688 0.36084 -0.12175
 H560 H 0.59160 0.33493 -0.18075
 H561 H 0.63248 0.29923 -0.21661
 H562 H 0.58120 0.38350 -0.13816
 H563 H 0.71092 0.25546 -0.24648
 H564 H 0.63453 0.36648 -0.08262
 C565 C 1.21706 0.20628 -0.15750
 C566 C 1.19486 0.18023 -0.16562
 C567 C 1.17099 0.16336 -0.14198
 C568 C 1.16125 0.12853 -0.14843
 C569 C 1.13690 0.11241 -0.12826
 C570 C 1.12083 0.13129 -0.10156
 C571 C 1.13134 0.16578 -0.09452
 C572 C 1.15617 0.18176 -0.11455
 C573 C 1.09312 0.11582 -0.08100
 C574 C 1.07377 0.08868 -0.09220
 H575 H 1.19555 0.17107 -0.19071
 H576 H 1.17254 0.11369 -0.16925
 H577 H 1.13098 0.08511 -0.13384
 H578 H 1.11967 0.18080 -0.07397
 H579 H 1.16273 0.20894 -0.10919
 H580 H 1.08699 0.12687 -0.05697
 H581 H 1.21735 0.21526 -0.13242
 H582 H 1.07821 0.07863 -0.11674
 C583 C 1.21652 0.67950 0.29330
 C584 C 1.19239 0.69206 0.31730
 C585 C 1.17668 0.66740 0.34153
 C586 C 1.14358 0.67795 0.35462
 C587 C 1.12823 0.65541 0.37798
 C588 C 1.14607 0.62216 0.38899
 C589 C 1.17973 0.61229 0.37688
 C590 C 1.19488 0.63457 0.35314
 C591 C 1.12992 0.59715 0.41261
 C592 C 1.09476 0.59237 0.41145
 H593 H 1.18497 0.72126 0.31855
 H594 H 1.12944 0.70352 0.34651
 H595 H 1.10257 0.66415 0.38761
 H596 H 1.19406 0.58698 0.38537
 H597 H 1.22099 0.62638 0.34440
 H598 H 1.14654 0.57920 0.42859
 H599 H 1.22306 0.65031 0.29092
 H600 H 1.07864 0.60741 0.39312
 C601 C 0.71875 0.21325 0.32696
 C602 C 0.69607 0.18877 0.31692
 C603 C 0.67241 0.17132 0.34020
 C604 C 0.66394 0.13592 0.33433
 C605 C 0.64056 0.11916 0.35514
 C606 C 0.62422 0.13809 0.38174
 C607 C 0.63327 0.17332 0.38793
 C608 C 0.65711 0.18987 0.36734
 C609 C 0.59738 0.12222 0.40297
 C610 C 0.57925 0.09372 0.39287
 H611 H 0.69618 0.18161 0.29128
 H612 H 0.67566 0.12108 0.31369
 H613 H 0.63567 0.09139 0.35016
 H614 H 0.62124 0.18843 0.40828
 H615 H 0.66266 0.21756 0.37211
 H616 H 0.59045 0.13447 0.42637
 H617 H 0.71960 0.21926 0.35282
 H618 H 0.58446 0.08217 0.36900
 C619 C 0.70644 0.70989 -0.20851
 C620 C 0.68377 0.71983 -0.18237
 C621 C 0.66199 0.69319 -0.16631
 C622 C 0.65677 0.69301 -0.13207
 C623 C 0.63757 0.66673 -0.11637
 C624 C 0.62277 0.64069 -0.13488
 C625 C 0.62658 0.64212 -0.16926
 C626 C 0.64625 0.66793 -0.18486
 C627 C 0.60328 0.61184 -0.11914
 C628 C 0.61195 0.59576 -0.08849
 H629 H 0.68312 0.74703 -0.17265
 H630 H 0.66823 0.71266 -0.11741
 H631 H 0.63417 0.66697 -0.08987
 H632 H 0.61494 0.62269 -0.18403
 H633 H 0.64897 0.66824 -0.21144
 H634 H 0.58364 0.60063 -0.13333
 H635 H 0.70744 0.68183 -0.21640
 H636 H 0.63344 0.60451 -0.07514
 C637 C 0.78812 -0.19455 -0.20934
 C638 C 0.79129 -0.19223 -0.17512
 C639 C 0.81395 -0.16829 -0.15847
 C640 C 0.81710 -0.17259 -0.12412
 C641 C 0.83787 -0.15100 -0.10686
 C642 C 0.85628 -0.12449 -0.12357
 C643 C 0.85266 -0.11957 -0.15782
 C644 C 0.83184 -0.14125 -0.17518
 C645 C 0.87887 -0.10127 -0.10608
 C646 C 0.89332 -0.11117 -0.07543
 H647 H 0.77666 -0.20919 -0.15887
 H648 H 0.80332 -0.19281 -0.11045
 H649 H 0.83890 -0.15491 -0.08039
 H650 H 0.86623 -0.09903 -0.17126
 H651 H 0.82981 -0.13637 -0.20146
 H652 H 0.88602 -0.07643 -0.11865
 H653 H 0.80275 -0.17768 -0.22571
 H654 H 0.88874 -0.13708 -0.06334
 C655 C 0.81087 0.29871 0.30705
 C656 C 0.82355 0.29628 0.33927
 C657 C 0.84745 0.32051 0.35355
 C658 C 0.85424 0.31565 0.38734
 C659 C 0.87543 0.33815 0.40289
 C660 C 0.89049 0.36621 0.38499
 C661 C 0.88465 0.37058 0.35100
 C662 C 0.86308 0.34815 0.33537
 C663 C 0.91273 0.39065 0.40118
 C664 C 0.90819 0.39953 0.43424
 H665 H 0.81543 0.27507 0.35601
 H666 H 0.84284 0.29441 0.40197
 H667 H 0.88027 0.33316 0.42886
 H668 H 0.89634 0.39181 0.33663
 H669 H 0.85883 0.35269 0.30930
 H670 H 0.93191 0.40366 0.38621
 H671 H 0.82139 0.31713 0.28893
 H672 H 0.88694 0.38975 0.44874
 C673 C 0.30482 -0.22815 0.30279
 C674 C 0.32472 -0.19937 0.29533
 C675 C 0.34283 -0.18238 0.32170
 C676 C 0.35783 -0.14961 0.31469
 C677 C 0.37368 -0.13210 0.33948
 C678 C 0.37481 -0.14705 0.37192
 C679 C 0.36095 -0.18050 0.37871
 C680 C 0.34488 -0.19792 0.35395
 C681 C 0.39114 -0.12863 0.39860
 C682 C 0.39137 -0.09070 0.39824
 H683 H 0.32569 -0.18793 0.27033
 H684 H 0.35699 -0.13731 0.29004
 H685 H 0.38537 -0.10709 0.33301
 H686 H 0.36202 -0.19284 0.40334
 H687 H 0.33395 -0.22345 0.36018
 H688 H 0.40353 -0.14515 0.41846
 H689 H 0.29502 -0.23490 0.28471
 H690 H 0.37739 -0.07414 0.37937
 C691 C 0.30864 0.28728 -0.18836
 C692 C 0.32033 0.29239 -0.15649
 C693 C 0.34818 0.31565 -0.14819
 C694 C 0.36044 0.31288 -0.11584
 C695 C 0.38484 0.33555 -0.10561
 C696 C 0.39753 0.36193 -0.12745
 C697 C 0.38651 0.36386 -0.16022
 C698 C 0.36183 0.34115 -0.17052
 C699 C 0.42117 0.38825 -0.11597
 C700 C 0.41762 0.40163 -0.08424
 H701 H 0.30933 0.27802 -0.13576
 H702 H 0.35077 0.29331 -0.09813
 H703 H 0.39359 0.33248 -0.08046
 H704 H 0.39607 0.38386 -0.17756
 H705 H 0.35303 0.34450 -0.19559
 H706 H 0.43921 0.39967 -0.13334
 H707 H 0.32124 0.30027 -0.20904
 H708 H 0.39686 0.39322 -0.06824
 C709 C 1.21883 -0.21012 0.21636
 C710 C 1.18405 -0.20776 0.20705
 C711 C 1.16910 -0.18110 0.18185
 C712 C 1.14280 -0.19154 0.16200
 C713 C 1.12686 -0.16688 0.13877
 C714 C 1.13652 -0.13092 0.13527
 C715 C 1.16259 -0.12025 0.15537
 C716 C 1.17909 -0.14526 0.17826
 C717 C 1.11767 -0.10369 0.11276
 C718 C 1.10321 -0.11373 0.08368
 H719 H 1.16764 -0.22853 0.21560
 H720 H 1.13442 -0.21890 0.16459
 H721 H 1.10612 -0.17567 0.12442
 H722 H 1.17003 -0.09248 0.15347
 H723 H 1.19877 -0.13622 0.19378
 H724 H 1.11404 -0.07535 0.11985
 H725 H 1.23572 -0.19146 0.20455
 H726 H 1.10945 -0.14113 0.07483
 C727 C 1.21796 0.29054 0.74251
 C728 C 1.18196 0.29911 0.74043
 C729 C 1.16406 0.32047 0.71299
 C730 C 1.17990 0.32704 0.68207
 C731 C 1.16102 0.34643 0.65682
 C732 C 1.12592 0.35940 0.66203
 C733 C 1.11036 0.35265 0.69287
 C734 C 1.12908 0.33338 0.71791
 C735 C 1.10454 0.38099 0.63695
 C736 C 1.11439 0.38775 0.60416
 H737 H 1.16529 0.29062 0.76035
 H738 H 1.20658 0.31693 0.67701
 H739 H 1.17413 0.35124 0.63354
 H740 H 1.08345 0.36234 0.69770
 H741 H 1.11608 0.32858 0.74134
 H742 H 1.07922 0.39288 0.64514
 H743 H 1.23482 0.30145 0.72381
 H744 H 1.13889 0.37592 0.59421
 C745 C 0.69853 -0.18391 0.70961
 C746 C 0.71003 -0.16443 0.68224
 C747 C 0.68455 -0.14223 0.66152
 C748 C 0.68976 -0.13958 0.62725
 C749 C 0.66451 -0.12053 0.60728
 C750 C 0.63411 -0.10314 0.62150
 C751 C 0.62965 -0.10464 0.65583
 C752 C 0.65437 -0.12435 0.67565
 C753 C 0.60682 -0.08261 0.60159
 C754 C 0.59770 -0.09283 0.57043
 H755 H 0.73703 -0.16833 0.67419
 H756 H 0.71295 -0.15301 0.61591
 H757 H 0.66895 -0.11908 0.58089
 H758 H 0.60658 -0.09111 0.66732
 H759 H 0.64992 -0.12554 0.70206
 H760 H 0.59092 -0.06068 0.61340
 H761 H 0.71575 -0.19592 0.72038
 H762 H 0.61135 -0.11642 0.55905
 C763 C 0.71901 0.30941 0.23643
 C764 C 0.68312 0.31937 0.23605
 C765 C 0.66418 0.33841 0.20808
 C766 C 0.67829 0.34009 0.17590
 C767 C 0.65819 0.35596 0.14988
 C768 C 0.62351 0.37023 0.15553
 C769 C 0.60976 0.36874 0.18773
 C770 C 0.62976 0.35293 0.21360
 C771 C 0.60088 0.38780 0.12924
 C772 C 0.60946 0.38892 0.09568
 H773 H 0.66742 0.31295 0.25743
 H774 H 0.70446 0.32851 0.17049
 H775 H 0.67009 0.35685 0.12561
 H776 H 0.58326 0.37964 0.19293
 H777 H 0.61810 0.35178 0.23806
 H778 H 0.57615 0.40157 0.13698
 H779 H 0.73542 0.32016 0.21725
 H780 H 0.63351 0.37527 0.08645
 C781 C 0.79772 0.22014 0.22636
 C782 C 0.79966 0.18343 0.21728
 C783 C 0.81876 0.16830 0.18788
 C784 C 0.81414 0.13220 0.17969
 C785 C 0.83235 0.11577 0.15322
 C786 C 0.85597 0.13500 0.13431
 C787 C 0.85988 0.17148 0.14169
 C788 C 0.84170 0.18797 0.16835
 C789 C 0.87736 0.11730 0.10753
 C790 C 0.88834 0.07991 0.10899
 H791 H 0.78568 0.16425 0.23185
 H792 H 0.79643 0.11644 0.19400
 H793 H 0.82782 0.08800 0.14764
 H794 H 0.87783 0.18692 0.12738
 H795 H 0.84640 0.21569 0.17372
 H796 H 0.88768 0.13449 0.08817
 H797 H 0.81045 0.23974 0.21109
 H798 H 0.88109 0.06318 0.13005
 C799 C 0.79492 0.72843 0.70611
 C800 C 0.80647 0.69142 0.70271
 C801 C 0.83023 0.67753 0.67614
 C802 C 0.85278 0.64605 0.68281
 C803 C 0.87376 0.63009 0.65790
 C804 C 0.87222 0.64497 0.62554
 C805 C 0.84942 0.67633 0.61867
 C806 C 0.82883 0.69284 0.64390
 C807 C 0.89283 0.62647 0.59881
 C808 C 0.92589 0.60931 0.60467
 H809 H 0.79993 0.67149 0.72155
 H810 H 0.85388 0.63348 0.70736
 H811 H 0.89031 0.60532 0.66380
 H812 H 0.84749 0.68792 0.59380
 H813 H 0.81099 0.71662 0.63796
 H814 H 0.88143 0.62522 0.57482
 H815 H 0.80593 0.74875 0.69009
 H816 H 0.93830 0.61368 0.62765
 C817 C 0.29914 0.18992 0.74020
 C818 C 0.31563 0.20230 0.71181
 C819 C 0.33218 0.17648 0.68765
 C820 C 0.34601 0.19039 0.65810
 C821 C 0.36163 0.16669 0.63472
 C822 C 0.36364 0.12842 0.64043
 C823 C 0.35009 0.11455 0.67013
 C824 C 0.33437 0.13824 0.69345
 C825 C 0.38128 0.10236 0.61697
 C826 C 0.38737 0.11126 0.58381
 H827 H 0.31545 0.23157 0.70655
 H828 H 0.34488 0.21971 0.65313
 H829 H 0.37273 0.17860 0.61267
 H830 H 0.35164 0.08524 0.67531
 H831 H 0.32412 0.12652 0.71604
 H832 H 0.39016 0.07509 0.62633
 H833 H 0.28986 0.20781 0.75204
 H834 H 0.37715 0.13746 0.57323
 C835 C 0.30388 0.69664 0.19770
 C836 C 0.32563 0.71508 0.17673
 C837 C 0.34327 0.69597 0.14879
 C838 C 0.37613 0.70499 0.13783
 C839 C 0.39405 0.68517 0.11290
 C840 C 0.37892 0.65661 0.09809
 C841 C 0.34529 0.64905 0.10778
 C842 C 0.32777 0.66821 0.13316
 C843 C 0.39807 0.63310 0.07373
 C844 C 0.43298 0.62094 0.07765
 H845 H 0.33102 0.74288 0.18161
 H846 H 0.38836 0.72656 0.14928
 H847 H 0.41974 0.69199 0.10537
 H848 H 0.33308 0.62732 0.09654
 H849 H 0.30214 0.66116 0.14070
 H850 H 0.38327 0.62023 0.05583
 H851 H 0.29388 0.71087 0.21266
 H852 H 0.44718 0.63090 0.09762
   
