data_POSCAR
  _audit_creation_date              2014-09-24
  _audit_creation_method            'ToBaCCo'
  _symmetry_space_group_name_H-M    'P1'
  _symmetry_Int_Tables_number       1
  _symmetry_cell_setting            triclinic
  loop_
  _symmetry_equiv_pos_as_xyz
 x,y,z
_cell_length_a 20.4485
_cell_length_b 20.4978
_cell_length_c 10.4359
_cell_angle_alpha 88.606300
_cell_angle_beta 90.949000
_cell_angle_gamma 119.810800
loop_
  _atom_site_label
  _atom_site_type_symbol
  _atom_site_fract_x
  _atom_site_fract_y
  _atom_site_fract_z
C1 C 0.34104 0.77120 0.42642
 C2 C 0.33489 0.77002 0.55754
 C3 C 0.38784 0.84086 0.59864
 N4 N 0.42596 0.88488 0.49745
 C5 C 0.39838 0.84228 0.39219
 C6 C 0.40312 0.86304 0.72766
 C7 C 0.44412 0.93911 0.76512
 C8 C 0.43551 0.96288 0.88291
 C9 C 0.48266 1.03897 0.88515
 C10 C 0.52019 1.06112 0.76805
 N11 N 0.49538 0.99891 0.69499
 C12 C 0.58000 1.13554 0.73616
 C13 C 0.60777 1.15760 0.60901
 C14 C 0.65939 1.23045 0.56856
 C15 C 0.65984 1.23063 0.43736
 C16 C 0.60941 1.15833 0.40124
 N17 N 0.57841 1.11362 0.50549
 C18 C 0.59468 1.13483 0.27346
 C19 C 0.56219 1.05899 0.23951
 C20 C 0.57659 1.03434 0.12684
 C21 C 0.53092 0.95761 0.12667
 C22 C 0.48912 0.93764 0.23857
 N23 N 0.50943 0.99992 0.30792
 C24 C 0.42986 0.86444 0.26847
 H25 H 0.30883 0.72454 0.36385
 H26 H 0.29608 0.72269 0.61608
 H27 H 0.48224 1.00388 0.38826
 H28 H 0.39836 0.92873 0.95961
 H29 H 0.48840 1.07206 0.96766
 H30 H 0.69105 1.27978 0.62571
 H31 H 0.69383 1.27813 0.37501
 H32 H 0.52761 0.92115 0.05064
 H33 H 0.51798 0.99528 0.60892
 H34 H 0.61559 1.06796 0.05194
 C35 C 0.23005 0.57464 0.44749
 C36 C 0.22818 0.57099 0.57880
 C37 C 0.15547 0.55199 0.61455
 N38 N 0.11312 0.54235 0.50828
 C39 C 0.15879 0.55702 0.40685
 C40 C 0.13266 0.55636 0.74050
 C41 C 0.05871 0.54414 0.76666
 C42 C 0.03662 0.56227 0.87987
 C43 C -0.03983 0.53332 0.87363
 C44 C -0.06333 0.49879 0.75694
 N45 N -0.00340 0.50572 0.69150
 C46 C -0.13955 0.46028 0.71745
 C47 C -0.16212 0.45187 0.58805
 C48 C -0.23416 0.43044 0.54487
 C49 C -0.23222 0.42844 0.41360
 C50 C -0.15926 0.44744 0.38130
 N51 N -0.11645 0.46292 0.48828
 C52 C -0.13558 0.44078 0.25807
 C53 C -0.06130 0.45649 0.23235
 C54 C -0.03963 0.43631 0.12156
 C55 C 0.03742 0.46926 0.12555
 C56 C 0.06079 0.50796 0.23917
 N57 N 0.00051 0.49947 0.30463
 C58 C 0.13651 0.55166 0.27769
 H59 H 0.27770 0.58724 0.38793
 H60 H 0.27631 0.58458 0.63964
 H61 H 0.00314 0.52950 0.38541
 H62 H 0.07018 0.59136 0.96215
 H63 H -0.07440 0.53717 0.94719
 H64 H -0.28277 0.41784 0.60201
 H65 H -0.27984 0.41146 0.34991
 H66 H 0.07197 0.46504 0.05252
 H67 H -0.00682 0.47728 0.60827
 H68 H -0.07528 0.40298 0.04373
 C69 C 0.56245 0.33194 0.57121
 C70 C 0.56492 0.33479 0.43959
 C71 C 0.54960 0.39082 0.40098
 N72 N 0.53604 0.42090 0.50394
 C73 C 0.54451 0.38565 0.60822
 C74 C 0.55761 0.42004 0.27503
 C75 C 0.54407 0.47956 0.24201
 C76 C 0.56865 0.52256 0.13010
 C77 C 0.53797 0.56878 0.12712
 C78 C 0.49631 0.55339 0.23789
 N79 N 0.50092 0.49980 0.30875
 C80 C 0.45290 0.58648 0.26844
 C81 C 0.44645 0.60487 0.39465
 C82 C 0.42687 0.65774 0.42702
 C83 C 0.42901 0.66041 0.55829
 C84 C 0.44943 0.60838 0.60211
 N85 N 0.46121 0.57561 0.50099
 C86 C 0.44458 0.58260 0.73093
 C87 C 0.45927 0.52290 0.76650
 C88 C 0.44248 0.48550 0.88507
 C89 C 0.47170 0.43828 0.88663
 C90 C 0.50573 0.44685 0.76972
 N91 N 0.49769 0.49792 0.69602
 C92 C 0.54058 0.40494 0.73571
 H93 H 0.57327 0.29507 0.63236
 H94 H 0.57894 0.30150 0.37923
 H95 H 0.52441 0.51992 0.60888
 H96 H 0.60377 0.52006 0.05639
 H97 H 0.54556 0.60905 0.05168
 H98 H 0.41313 0.69120 0.36235
 H99 H 0.41382 0.69448 0.61405
 H100 H 0.46740 0.40073 0.96493
 H101 H 0.46865 0.47266 0.38947
 H102 H 0.41370 0.49134 0.96581
 O103 O 0.44283 0.68063 -0.16239
 O104 O 0.43375 0.80230 -0.11753
 C105 C 0.38137 0.80776 -0.17502
 O106 O 0.31244 0.76776 -0.14518
 O107 O 0.19485 0.63711 -0.09468
 C108 C 0.18799 0.58302 -0.16134
 O109 O 0.22947 0.55340 -0.14346
 O110 O 0.36144 0.56253 -0.10740
 C111 C 0.41529 0.61026 -0.17593
 O112 O 0.45823 0.66378 0.09271
 O113 O 0.44319 0.78025 0.13520
 C114 C 0.40238 0.80783 0.16615
 O115 O 0.34028 0.79129 0.11090
 O116 O 0.22514 0.65749 0.15775
 C117 C 0.19488 0.58712 0.17755
 O118 O 0.21015 0.54537 0.11195
 O119 O 0.34629 0.56567 0.14643
 C120 C 0.41695 0.60700 0.16332
 Cr121 Cr 0.44027 0.72934 -0.01300
 Cr122 Cr 0.27072 0.71188 0.00692
 Cr123 Cr 0.28860 0.56080 0.00163
 O124 O 0.33321 0.66751 -0.00141
 O125 O 0.54592 0.31292 -0.13967
 O126 O 0.56125 0.19541 -0.09570
 C127 C 0.60807 0.19134 -0.16848
 O128 O 0.67855 0.23559 -0.15767
 O129 O 0.79908 0.36754 -0.12301
 C130 C 0.80266 0.42435 -0.18114
 O131 O 0.76129 0.45180 -0.15355
 O132 O 0.62765 0.43410 -0.10308
 C133 C 0.57284 0.38245 -0.16526
 O134 O 0.54622 0.33382 0.11632
 O135 O 0.57212 0.22143 0.15652
 C136 C 0.61398 0.19221 0.17055
 O137 O 0.66964 0.20829 0.09829
 O138 O 0.78540 0.34266 0.13104
 C139 C 0.81060 0.41089 0.15988
 O140 O 0.79086 0.45399 0.10237
 O141 O 0.65849 0.43441 0.14936
 C142 C 0.58953 0.39372 0.17561
 Cr143 Cr 0.56037 0.26842 0.00913
 Cr144 Cr 0.73072 0.29020 -0.01264
 Cr145 Cr 0.70807 0.43946 -0.00162
 O146 O 0.66665 0.33297 -0.00147
   
