data_POSCAR
  _audit_creation_date              2014-09-24
  _audit_creation_method            'ToBaCCo'
  _symmetry_space_group_name_H-M    'P1'
  _symmetry_Int_Tables_number       1
  _symmetry_cell_setting            triclinic
  loop_
  _symmetry_equiv_pos_as_xyz
 x,y,z
_cell_length_a 23.3214
_cell_length_b 23.3576
_cell_length_c 64.7316
_cell_angle_alpha 89.978800
_cell_angle_beta 90.073500
_cell_angle_gamma 119.939100
loop_
  _atom_site_label
  _atom_site_type_symbol
  _atom_site_fract_x
  _atom_site_fract_y
  _atom_site_fract_z
C1 C -0.05893 -0.07260 0.48332
 C2 C -0.01814 -0.03766 0.50009
 C3 C -0.01231 -0.07259 0.51686
 C4 C -0.04641 -0.14181 0.51678
 C5 C -0.08754 -0.17639 0.50009
 C6 C -0.09409 -0.14182 0.48340
 C7 C 0.01833 0.03529 0.50009
 C8 C 0.01221 0.07026 0.51679
 C9 C 0.04628 0.13944 0.51669
 C10 C 0.08765 0.17397 0.50010
 C11 C 0.09449 0.13941 0.48350
 C12 C 0.05940 0.07024 0.48340
 H13 H -0.06401 -0.04581 0.47041
 H14 H 0.01957 -0.04580 0.52977
 H15 H -0.01983 0.04366 0.52965
 H16 H 0.06484 0.04362 0.47053
 H17 H -0.11439 -0.23004 0.50009
 H18 H 0.11443 0.22756 0.50010
 C19 C 1.07319 0.01258 0.14963
 C20 C 1.03832 0.01846 0.16641
 C21 C 1.07347 0.05928 0.18314
 C22 C 1.14273 0.09439 0.18301
 C23 C 1.17725 0.08784 0.16634
 C24 C 1.14252 0.04668 0.14968
 C25 C 0.96526 -0.01800 0.16645
 C26 C 0.93044 -0.05877 0.18321
 C27 C 0.86116 -0.09382 0.18316
 C28 C 0.82636 -0.08726 0.16655
 C29 C 0.86077 -0.04618 0.14989
 C30 C 0.93005 -0.01215 0.14974
 H31 H 1.04625 -0.01933 0.13675
 H32 H 1.04690 0.06452 0.19606
 H33 H 0.95725 -0.06400 0.19609
 H34 H 0.95655 0.01968 0.13683
 H35 H 1.23095 0.11474 0.16636
 H36 H 0.77269 -0.11402 0.16659
 C37 C 0.05744 0.98744 0.85055
 C38 C 0.01644 0.98152 0.83381
 C39 C 0.01056 0.94072 0.81706
 C40 C 0.04479 0.90568 0.81714
 C41 C 0.08611 0.91226 0.83377
 C42 C 0.09275 0.95340 0.85044
 C43 C -0.02016 1.01800 0.83380
 C44 C -0.01428 1.05887 0.81707
 C45 C -0.04847 1.09396 0.81714
 C46 C -0.08975 1.08735 0.83374
 C47 C -0.09639 1.04615 0.85040
 C48 C -0.06113 1.01206 0.85052
 H49 H 0.06259 1.01935 0.86344
 H50 H -0.02143 0.93548 0.80416
 H51 H 0.01769 1.06415 0.80419
 H52 H -0.06627 0.98010 0.86340
 H53 H 0.11299 0.88543 0.83370
 H54 H -0.11658 1.11423 0.83367
 O55 O 0.58220 0.05566 -0.02038
 O56 O 0.47129 0.05582 0.01979
 O57 O 0.58179 0.05375 0.01989
 O58 O 0.46961 0.05361 -0.02048
 O59 O 0.41525 -0.05565 -0.02030
 O60 O 0.52691 -0.05551 0.01976
 O61 O 0.41641 -0.05345 0.01998
 O62 O 0.52784 -0.05360 -0.02051
 Cu63 Cu 0.53172 0.06572 -0.00030
 Cu64 Cu 0.46609 -0.06556 -0.00027
 C65 C 0.57380 0.00124 -0.02729
 C66 C 0.42534 0.00145 0.02674
 C67 C 0.57300 -0.00109 0.02666
 C68 C 0.42354 -0.00128 -0.02722
 O69 O -0.05719 0.41683 0.68660
 O70 O -0.05692 0.52797 0.64643
 O71 O -0.05496 0.41755 0.64633
 O72 O -0.05510 0.52924 0.68671
 O73 O 0.05433 0.58347 0.68665
 O74 O 0.05447 0.47230 0.64659
 O75 O 0.05251 0.58271 0.64637
 O76 O 0.05224 0.47107 0.68686
 Cu77 Cu -0.06707 0.46741 0.66651
 Cu78 Cu 0.06442 0.53288 0.66662
 C79 C -0.00275 0.42516 0.69358
 C80 C -0.00239 0.57390 0.63954
 C81 C 0.00002 0.42634 0.63964
 C82 C -0.00017 0.57513 0.69352
 O83 O 0.52990 0.58362 0.31360
 O84 O 0.41873 0.47235 0.35364
 O85 O 0.53108 0.58276 0.35388
 O86 O 0.41963 0.47121 0.31337
 O87 O 0.47485 0.41698 0.31356
 O88 O 0.58579 0.52803 0.35376
 O89 O 0.47344 0.41761 0.35383
 O90 O 0.58512 0.52940 0.31347
 Cu91 Cu 0.46930 0.53298 0.33362
 Cu92 Cu 0.53535 0.46752 0.33366
 C93 C 0.57606 0.57531 0.30670
 C94 C 0.42727 0.42638 0.36056
 C95 C 0.57720 0.57394 0.36067
 C96 C 0.42872 0.42532 0.30661
 C97 C 0.02385 0.24352 0.56414
 C98 C 0.05046 0.31637 0.55862
 C99 C 0.04371 0.35204 0.57410
 C100 C 0.01100 0.31141 0.59361
 C101 C 0.05340 0.28054 0.59958
 C102 C 0.06016 0.24485 0.58409
 C103 C -0.04826 0.21756 0.57069
 C104 C -0.05502 0.25329 0.58619
 C105 C 0.03149 0.20555 0.54740
 C106 C 0.03819 0.17511 0.53349
 C107 C 0.00453 0.35051 0.61022
 C108 C 0.00122 0.38424 0.62373
 H109 H 0.07263 0.33805 0.54384
 H110 H 0.06009 0.40427 0.57257
 H111 H 0.07605 0.28615 0.61466
 H112 H 0.08859 0.21990 0.58590
 H113 H -0.09028 0.17489 0.56377
 H114 H -0.10281 0.24123 0.59254
 C115 C 0.75776 0.78066 0.23086
 C116 C 0.75252 0.71263 0.22917
 C117 C 0.71709 0.67049 0.24475
 C118 C 0.69039 0.70054 0.26049
 C119 C 0.65062 0.72400 0.24765
 C120 C 0.68601 0.76608 0.23208
 C121 C 0.78688 0.80628 0.25241
 C122 C 0.75144 0.76414 0.26799
 C123 C 0.79543 0.82590 0.21402
 C124 C 0.82567 0.86275 0.20004
 C125 C 0.65156 0.65529 0.27719
 C126 C 0.61802 0.61846 0.29076
 H127 H 0.77474 0.69880 0.21684
 H128 H 0.70895 0.62058 0.24577
 H129 H 0.59912 0.70886 0.25053
 H130 H 0.66483 0.78698 0.22164
 H131 H 0.83142 0.85331 0.25518
 H132 H 0.76563 0.77507 0.28411
 C133 C 0.21681 -0.02494 -0.10288
 C134 C 0.28196 0.04136 -0.10323
 C135 C 0.32441 0.04806 -0.08769
 C136 C 0.29752 -0.01219 -0.07334
 C137 C 0.28002 -0.07103 -0.08767
 C138 C 0.23763 -0.07772 -0.10319
 C139 C 0.18825 -0.02932 -0.08120
 C140 C 0.23069 -0.02262 -0.06567
 C141 C 0.17124 -0.03250 -0.11967
 C142 C 0.13415 -0.03911 -0.13363
 C143 C 0.34309 -0.00577 -0.05669
 C144 C 0.38015 -0.00248 -0.04314
 H145 H 0.29369 0.07967 -0.11465
 H146 H 0.37249 0.09210 -0.08580
 H147 H 0.29927 -0.10453 -0.08580
 H148 H 0.22057 -0.11694 -0.11460
 H149 H 0.13907 -0.03694 -0.07832
 H150 H 0.21788 -0.02449 -0.04947
 C151 C -0.02518 0.75626 0.56362
 C152 C -0.03815 0.77499 0.58514
 C153 C -0.03164 0.73939 0.60073
 C154 C -0.01278 0.68857 0.59327
 C155 C 0.05065 0.72850 0.58060
 C156 C 0.04414 0.76411 0.56501
 C157 C -0.07265 0.68159 0.56181
 C158 C -0.06614 0.64602 0.57738
 C159 C -0.03256 0.79411 0.54677
 C160 C -0.03903 0.82446 0.53276
 C161 C -0.00656 0.64957 0.60998
 C162 C -0.00343 0.61593 0.62357
 H163 H -0.05122 0.81291 0.58789
 H164 H -0.03912 0.74682 0.61684
 H165 H 0.09662 0.72884 0.58363
 H166 H 0.08454 0.79496 0.55467
 H167 H -0.10827 0.65863 0.54938
 H168 H -0.09619 0.59260 0.57829
 C169 C 0.24674 0.22002 0.23068
 C170 C 0.31423 0.22529 0.23432
 C171 C 0.34972 0.26738 0.24989
 C172 C 0.31431 0.30015 0.26032
 C173 C 0.24732 0.24260 0.26730
 C174 C 0.21177 0.20044 0.25171
 C175 C 0.26222 0.29132 0.22709
 C176 C 0.29776 0.33346 0.24268
 C177 C 0.20892 0.17475 0.21384
 C178 C 0.17851 0.13787 0.19986
 C179 C 0.35322 0.34540 0.27703
 C180 C 0.38679 0.38221 0.29062
 H181 H 0.33254 0.19831 0.22545
 H182 H 0.39846 0.27645 0.25435
 H183 H 0.22937 0.23561 0.28309
 H184 H 0.16337 0.15733 0.25414
 H185 H 0.24660 0.30730 0.21352
 H186 H 0.31257 0.38552 0.24246
 C187 C 0.77981 0.02457 -0.10295
 C188 C 0.81269 0.07521 -0.08551
 C189 C 0.77039 0.06855 -0.06999
 C190 C 0.69932 0.01191 -0.07343
 C191 C 0.70573 -0.04975 -0.07670
 C192 C 0.74808 -0.04309 -0.09224
 C193 C 0.72140 0.03254 -0.11010
 C194 C 0.67911 0.02588 -0.09459
 C195 C 0.82527 0.03209 -0.11973
 C196 C 0.86229 0.03867 -0.13368
 C197 C 0.65388 0.00555 -0.05678
 C198 C 0.61697 0.00233 -0.04323
 H199 H 0.86465 0.11292 -0.08535
 H200 H 0.78613 0.10058 -0.05654
 H201 H 0.67938 -0.09462 -0.06763
 H202 H 0.75803 -0.08227 -0.09648
 H203 H 0.71389 0.04249 -0.12596
 H204 H 0.63536 0.03012 -0.09716
 C205 C 0.24402 0.02513 0.10280
 C206 C 0.26736 -0.02441 0.10755
 C207 C 0.30272 -0.03111 0.09193
 C208 C 0.31126 0.01238 0.07309
 C209 C 0.34249 0.08296 0.08166
 C210 C 0.30717 0.08965 0.09727
 C211 C 0.20531 0.00103 0.08245
 C212 C 0.24069 -0.00568 0.06682
 C213 C 0.20641 0.03268 0.11968
 C214 C 0.17619 0.03925 0.13370
 C215 C 0.35001 0.00595 0.05635
 C216 C 0.38348 0.00266 0.04274
 H217 H 0.25697 -0.05186 0.12191
 H218 H 0.32261 -0.06429 0.09291
 H219 H 0.38837 0.12411 0.07597
 H220 H 0.32277 0.13651 0.10493
 H221 H 0.15461 -0.00985 0.08049
 H222 H 0.22030 -0.02230 0.05147
 C223 C 0.78261 0.75625 0.43658
 C224 C 0.81241 0.77879 0.41495
 C225 C 0.77024 0.74319 0.39936
 C226 C 0.70241 0.68857 0.40694
 C227 C 0.67631 0.72398 0.42073
 C228 C 0.71849 0.75958 0.43632
 C229 C 0.75987 0.68229 0.43738
 C230 C 0.71775 0.64674 0.42181
 C231 C 0.82789 0.79409 0.45342
 C232 C 0.86476 0.82444 0.46742
 C233 C 0.65713 0.64958 0.39023
 C234 C 0.62031 0.61595 0.37664
 H235 H 0.86221 0.81917 0.41213
 H236 H 0.78390 0.75309 0.38318
 H237 H 0.62894 0.72139 0.41844
 H238 H 0.70724 0.78749 0.44739
 H239 H 0.77548 0.65979 0.44914
 H240 H 0.69728 0.59377 0.42025
 C241 C -0.02645 0.21968 0.76947
 C242 C -0.08566 0.23088 0.76735
 C243 C -0.07897 0.27301 0.75179
 C244 C -0.01372 0.29989 0.73985
 C245 C -0.01189 0.23834 0.73248
 C246 C -0.01858 0.19615 0.74807
 C247 C 0.03400 0.28907 0.77192
 C248 C 0.04069 0.33125 0.75634
 C249 C -0.03400 0.17438 0.78631
 C250 C -0.04058 0.13748 0.80028
 C251 C -0.00730 0.34518 0.72314
 C252 C -0.00399 0.38201 0.70956
 H253 H -0.12905 0.20774 0.77721
 H254 H -0.11667 0.28595 0.74832
 H255 H -0.00580 0.22878 0.71646
 H256 H -0.01824 0.15045 0.74539
 H257 H 0.06854 0.30375 0.78475
 H258 H 0.08095 0.38205 0.75582
 C259 C 0.75625 -0.02432 0.10234
 C260 C 0.78041 -0.02876 0.08066
 C261 C 0.74463 -0.02214 0.06512
 C262 C 0.68822 -0.01173 0.07279
 C263 C 0.72153 0.04857 0.08713
 C264 C 0.75732 0.04195 0.10267
 C265 C 0.68267 -0.07715 0.10265
 C266 C 0.64693 -0.07053 0.08713
 C267 C 0.79431 -0.03181 0.11912
 C268 C 0.82487 -0.03834 0.13307
 C269 C 0.64903 -0.00539 0.05613
 C270 C 0.61523 -0.00219 0.04259
 H271 H 0.82199 -0.03635 0.07778
 H272 H 0.75556 -0.02405 0.04892
 H273 H 0.71745 0.09258 0.08524
 H274 H 0.78389 0.08030 0.11410
 H275 H 0.66056 -0.11632 0.11407
 H276 H 0.59419 -0.10406 0.08526
 C277 C 0.22087 0.24348 0.43604
 C278 C 0.29021 0.25195 0.43845
 C279 C 0.33262 0.28766 0.42296
 C280 C 0.30151 0.31138 0.40658
 C281 C 0.27482 0.34963 0.41869
 C282 C 0.23246 0.31396 0.43416
 C283 C 0.19731 0.21277 0.41455
 C284 C 0.23973 0.24850 0.39905
 C285 C 0.17533 0.20551 0.45279
 C286 C 0.13822 0.17507 0.46670
 C287 C 0.34703 0.35051 0.38997
 C288 C 0.38401 0.38425 0.37646
 H289 H 0.30470 0.23163 0.45120
 H290 H 0.38342 0.29794 0.42242
 H291 H 0.28804 0.40034 0.41539
 H292 H 0.20941 0.33410 0.44412
 H293 H 0.15142 0.16701 0.41175
 H294 H 0.23018 0.23332 0.38298
 C295 C 0.02297 0.78024 0.76942
 C296 C 0.03251 0.81090 0.74782
 C297 C 0.02592 0.76881 0.73223
 C298 C 0.01042 0.70022 0.73977
 C299 C -0.05190 0.67530 0.75311
 C300 C -0.04530 0.71740 0.76871
 C301 C 0.07270 0.75551 0.77062
 C302 C 0.06612 0.71347 0.75504
 C303 C 0.03042 0.82544 0.78627
 C304 C 0.03695 0.86226 0.80026
 C305 C 0.00411 0.65502 0.72305
 C306 C 0.00092 0.61824 0.70947
 H307 H 0.04342 0.86118 0.74503
 H308 H 0.03116 0.78304 0.71607
 H309 H -0.09720 0.62878 0.75054
 H310 H -0.08496 0.70692 0.77950
 H311 H 0.10985 0.76975 0.78265
 H312 H 0.09764 0.69171 0.75374
   
