data_POSCAR
  _audit_creation_date              2014-09-24
  _audit_creation_method            'ToBaCCo'
  _symmetry_space_group_name_H-M    'P1'
  _symmetry_Int_Tables_number       1
  _symmetry_cell_setting            triclinic
  loop_
  _symmetry_equiv_pos_as_xyz
 x,y,z
_cell_length_a 29.1094
_cell_length_b 30.4010
_cell_length_c 28.4260
_cell_angle_alpha 90.942900
_cell_angle_beta 91.760000
_cell_angle_gamma 91.347900
loop_
  _atom_site_label
  _atom_site_type_symbol
  _atom_site_fract_x
  _atom_site_fract_y
  _atom_site_fract_z
O1 O 0.52260 0.08372 0.01320
 O2 O 0.46371 -0.03623 -0.08354
 O3 O 0.59016 0.00187 -0.04057
 O4 O 0.38211 0.02698 0.01514
 O5 O 0.54690 -0.05200 -0.07215
 O6 O 0.44181 0.07061 0.01634
 O7 O 0.43586 0.02293 -0.05255
 O8 O 0.58491 0.05149 0.03037
 C9 C 0.56515 0.08325 0.01243
 C10 C 0.44450 0.00056 -0.08862
 C11 C 0.57945 -0.02355 -0.07470
 C12 C 0.39885 0.06644 0.02184
 O13 O 0.45407 0.02200 0.09565
 O14 O 0.52530 -0.10233 0.00248
 O15 O 0.57389 -0.01764 0.08294
 O16 O 0.39689 -0.04677 -0.02690
 O17 O 0.44803 -0.08936 -0.00623
 O18 O 0.53591 0.04150 0.09710
 O19 O 0.42417 -0.03377 0.05793
 O20 O 0.58834 -0.06534 0.01290
 Co21 Co 0.48970 0.04884 0.05181
 Co22 Co 0.49596 -0.06487 -0.03622
 Co23 Co 0.57653 -0.00740 0.02054
 Co24 Co 0.43269 -0.00441 0.00395
 O25 O 0.50183 -0.00945 0.00961
 C26 C 0.43088 -0.01333 0.09585
 C27 C 0.56675 -0.10110 0.01322
 C28 C 0.56122 0.01091 0.11134
 C29 C 0.40790 -0.08534 -0.02091
 O30 O -0.10534 0.46406 -0.03391
 O31 O 0.05251 0.54188 0.07538
 O32 O -0.03163 0.43057 0.04712
 O33 O -0.08214 0.56590 0.03005
 O34 O 0.02858 0.46192 0.07950
 O35 O -0.10699 0.54551 -0.03887
 O36 O -0.01770 0.55101 0.07688
 O37 O -0.05747 0.41150 -0.03503
 C38 C -0.09811 0.42388 -0.03392
 C39 C 0.01957 0.55559 0.09732
 C40 C -0.00631 0.43707 0.08275
 C41 C -0.11386 0.56312 0.00016
 O42 O -0.04277 0.54684 -0.09864
 O43 O 0.07243 0.44799 -0.00164
 O44 O 0.01950 0.44216 -0.06752
 O45 O 0.03898 0.58601 0.00750
 O46 O 0.08067 0.52941 -0.00983
 O47 O -0.04293 0.46378 -0.10175
 O48 O -0.03032 0.59578 -0.04127
 O49 O 0.02540 0.39069 -0.00082
 Co50 Co -0.06883 0.50438 -0.06266
 Co51 Co 0.05114 0.49586 0.03209
 Co52 Co -0.00629 0.43976 -0.00945
 Co53 Co -0.02157 0.56926 0.01690
 O54 O -0.01506 0.50484 -0.00701
 C55 C -0.03270 0.58565 -0.08507
 C56 C 0.06734 0.40672 0.00538
 C57 C -0.00458 0.44595 -0.10416
 C58 C 0.07460 0.57018 -0.01022
 O59 O 0.00261 -0.07796 0.45653
 O60 O 0.09545 0.05654 0.53916
 O61 O 0.06028 -0.02204 0.42752
 O62 O 0.00612 -0.04436 0.59827
 O63 O 0.09644 0.03467 0.45560
 O64 O 0.00990 -0.08430 0.53660
 O65 O 0.07607 0.00331 0.58640
 O66 O -0.02062 -0.04104 0.40020
 C67 C -0.01038 -0.07780 0.41471
 C68 C 0.10583 0.02936 0.57102
 C69 C 0.09706 -0.00127 0.43358
 C70 C 0.01469 -0.08027 0.57976
 O71 O -0.06890 -0.03824 0.55031
 O72 O 0.01775 0.08121 0.43941
 O73 O -0.04967 0.03066 0.43367
 O74 O 0.02480 0.07130 0.58733
 O75 O 0.01619 0.10054 0.51994
 O76 O -0.07701 -0.02903 0.46491
 O77 O -0.04601 0.02191 0.58872
 O78 O 0.01715 0.03568 0.37987
 Co79 Co -0.03020 -0.05247 0.50186
 Co80 Co 0.05274 0.06255 0.48971
 Co81 Co 0.00653 0.00575 0.43332
 Co82 Co 0.01492 0.01230 0.58184
 O83 O 0.01072 0.00500 0.50478
 C84 C -0.07660 -0.00675 0.57870
 C85 C 0.02156 0.07598 0.39538
 C86 C -0.08358 0.00685 0.44377
 C87 C 0.01564 0.10391 0.56330
 C88 C -0.35039 0.19289 -0.02812
 C89 C -0.39735 0.19875 -0.02017
 C90 C -0.42572 0.16284 -0.00880
 C91 C -0.40731 0.12075 -0.00455
 C92 C -0.36080 0.11481 -0.01403
 C93 C -0.33272 0.15039 -0.02579
 C94 C -0.31869 0.23087 -0.03540
 C95 C -0.28328 0.22760 -0.06768
 C96 C -0.24920 0.26052 -0.06960
 C97 C -0.24983 0.29748 -0.03934
 C98 C -0.28654 0.30189 -0.00875
 C99 C -0.32066 0.26888 -0.00679
 C100 C -0.21112 0.33010 -0.03809
 C101 C -0.21919 0.37538 -0.03445
 C102 C -0.18245 0.40586 -0.03280
 C103 C -0.13690 0.39164 -0.03452
 C104 C -0.12885 0.34635 -0.03778
 C105 C -0.16556 0.31593 -0.03960
 H106 H -0.41189 0.23116 -0.02209
 H107 H -0.46152 0.16824 -0.00171
 H108 H -0.34576 0.08266 -0.01134
 H109 H -0.29662 0.14487 -0.03110
 H110 H -0.28135 0.19901 -0.09070
 H111 H -0.22188 0.25674 -0.09425
 H112 H -0.28775 0.32988 0.01519
 H113 H -0.34723 0.27205 0.01880
 H114 H -0.25394 0.38724 -0.03350
 H115 H -0.18974 0.44058 -0.03037
 H116 H -0.09416 0.33438 -0.03909
 H117 H -0.15826 0.28120 -0.04157
 C118 C 0.31631 0.80690 -0.03834
 C119 C 0.30145 0.84994 -0.04629
 C120 C 0.33205 0.88601 -0.04103
 C121 C 0.37834 0.88004 -0.02710
 C122 C 0.39320 0.83682 -0.01964
 C123 C 0.36269 0.80085 -0.02544
 C124 C 0.28334 0.76863 -0.04201
 C125 C 0.28708 0.73355 -0.01052
 C126 C 0.25494 0.69865 -0.01226
 C127 C 0.21797 0.69814 -0.04519
 C128 C 0.21463 0.73261 -0.07735
 C129 C 0.24708 0.76734 -0.07596
 C130 C 0.18109 0.66375 -0.04307
 C131 C 0.13486 0.67591 -0.04370
 C132 C 0.10018 0.64488 -0.03510
 C133 C 0.11080 0.60085 -0.02637
 C134 C 0.15677 0.58805 -0.02845
 C135 C 0.19167 0.61933 -0.03635
 H136 H 0.26583 0.85596 -0.05557
 H137 H 0.31910 0.91861 -0.04721
 H138 H 0.42858 0.83053 -0.00936
 H139 H 0.37562 0.76817 -0.01994
 H140 H 0.31396 0.73372 0.01665
 H141 H 0.25790 0.67295 0.01351
 H142 H 0.18664 0.73284 -0.10334
 H143 H 0.24360 0.79328 -0.10136
 H144 H 0.12570 0.70992 -0.04834
 H145 H 0.06513 0.65575 -0.03355
 H146 H 0.16598 0.55438 -0.02169
 H147 H 0.22705 0.60907 -0.03606
 C148 C 0.31093 0.17803 0.02837
 C149 C 0.29288 0.13504 0.03290
 C150 C 0.32150 0.09886 0.03093
 C151 C 0.36883 0.10486 0.02459
 C152 C 0.38707 0.14780 0.02048
 C153 C 0.35835 0.18404 0.02210
 C154 C 0.27998 0.21615 0.02946
 C155 C 0.28396 0.25008 -0.00332
 C156 C 0.25206 0.28386 -0.00477
 C157 C 0.21565 0.28434 0.02658
 C158 C 0.21310 0.25152 0.06074
 C159 C 0.24479 0.21779 0.06208
 C160 C 0.17846 0.31678 0.02173
 C161 C 0.13250 0.30270 0.02583
 C162 C 0.09691 0.33218 0.02053
 C163 C 0.10618 0.37659 0.01085
 C164 C 0.15207 0.39106 0.00689
 C165 C 0.18796 0.36130 0.01205
 H166 H 0.25639 0.12933 0.03713
 H167 H 0.30652 0.06615 0.03426
 H168 H 0.42349 0.15338 0.01564
 H169 H 0.37325 0.21678 0.01888
 H170 H 0.31059 0.24952 -0.02908
 H171 H 0.25472 0.30848 -0.03171
 H172 H 0.18605 0.25153 0.08606
 H173 H 0.24147 0.19263 0.08839
 H174 H 0.12391 0.26854 0.03240
 H175 H 0.06194 0.32001 0.02405
 H176 H 0.16014 0.42518 -0.00041
 H177 H 0.22309 0.37313 0.00893
 C178 C -0.35926 0.78015 0.03699
 C179 C -0.33676 0.82155 0.04044
 C180 C -0.36116 0.86000 0.03416
 C181 C -0.40867 0.85809 0.02395
 C182 C -0.43158 0.81683 0.02176
 C183 C -0.40708 0.77821 0.02822
 C184 C -0.33198 0.73952 0.03946
 C185 C -0.34164 0.70402 0.00810
 C186 C -0.31178 0.66875 0.00560
 C187 C -0.27145 0.66837 0.03415
 C188 C -0.26336 0.70267 0.06739
 C189 C -0.29340 0.73762 0.07021
 C190 C -0.23565 0.63512 0.02636
 C191 C -0.20764 0.62088 0.06406
 C192 C -0.16907 0.59579 0.05572
 C193 C -0.15811 0.58374 0.00957
 C194 C -0.18782 0.59518 -0.02783
 C195 C -0.22601 0.62087 -0.01958
 H196 H -0.29987 0.82429 0.04625
 H197 H -0.34247 0.89124 0.03603
 H198 H -0.46824 0.81434 0.01410
 H199 H -0.42546 0.74683 0.02585
 H200 H -0.37098 0.70450 -0.01621
 H201 H -0.31954 0.64247 -0.01977
 H202 H -0.23253 0.70386 0.08968
 H203 H -0.28549 0.76401 0.09542
 H204 H -0.21467 0.63031 0.09997
 H205 H -0.14703 0.58690 0.08529
 H206 H -0.18013 0.58642 -0.06378
 H207 H -0.24637 0.63159 -0.04957
 C208 C 0.02516 -0.34815 0.20892
 C209 C 0.06497 -0.35711 0.18390
 C210 C 0.06459 -0.39102 0.14985
 C211 C 0.02421 -0.41608 0.13994
 C212 C -0.01470 -0.40861 0.16669
 C213 C -0.01419 -0.37517 0.20089
 C214 C 0.02308 -0.30900 0.24072
 C215 C 0.00002 -0.31159 0.28332
 C216 C -0.00559 -0.27397 0.31125
 C217 C 0.01163 -0.23279 0.29721
 C218 C 0.03531 -0.23026 0.25495
 C219 C 0.04110 -0.26800 0.22707
 C220 C 0.00510 -0.19282 0.32687
 C221 C -0.00659 -0.15248 0.30656
 C222 C -0.01269 -0.11503 0.33493
 C223 C -0.00693 -0.11725 0.38405
 C224 C 0.00450 -0.15759 0.40424
 C225 C 0.01039 -0.19489 0.37604
 H226 H 0.09594 -0.33709 0.18975
 H227 H 0.09490 -0.39586 0.12939
 H228 H -0.04635 -0.42734 0.15957
 H229 H -0.04551 -0.36891 0.21921
 H230 H -0.01405 -0.34274 0.29489
 H231 H -0.02429 -0.27697 0.34343
 H232 H 0.04947 -0.19911 0.24350
 H233 H 0.05851 -0.26485 0.19413
 H234 H -0.01139 -0.15001 0.26879
 H235 H -0.02134 -0.08432 0.31847
 H236 H 0.00937 -0.16028 0.44201
 H237 H 0.01994 -0.22525 0.39273
 C238 C 0.02623 0.37228 0.77164
 C239 C -0.01354 0.39751 0.77297
 C240 C -0.02194 0.42394 0.81219
 C241 C 0.00903 0.42542 0.85112
 C242 C 0.05051 0.40301 0.84835
 C243 C 0.05914 0.37688 0.80884
 C244 C 0.02987 0.33698 0.73529
 C245 C 0.04582 0.29558 0.74849
 C246 C 0.04246 0.25995 0.71711
 C247 C 0.02270 0.26461 0.67182
 C248 C 0.00913 0.30644 0.65743
 C249 C 0.01265 0.34235 0.68894
 C250 C 0.01471 0.22514 0.64115
 C251 C 0.02496 0.22545 0.59313
 C252 C 0.02230 0.18632 0.56629
 C253 C 0.00954 0.14654 0.58733
 C254 C -0.00368 0.14697 0.63435
 C255 C -0.00134 0.18585 0.66088
 H256 H -0.03981 0.39455 0.74524
 H257 H -0.05411 0.44108 0.81315
 H258 H 0.07528 0.40397 0.87761
 H259 H 0.09064 0.35865 0.80839
 H260 H 0.05871 0.28996 0.78395
 H261 H 0.05423 0.22829 0.72878
 H262 H -0.00596 0.31097 0.62261
 H263 H 0.00065 0.37398 0.67749
 H264 H 0.03723 0.25537 0.57703
 H265 H 0.03278 0.18672 0.53007
 H266 H -0.01427 0.11682 0.65118
 H267 H -0.01086 0.18491 0.69739
 C268 C -0.01184 0.34230 0.19148
 C269 C 0.02431 0.37364 0.19116
 C270 C 0.02370 0.40764 0.15871
 C271 C -0.01271 0.41048 0.12531
 C272 C -0.05050 0.38101 0.12796
 C273 C -0.05019 0.34736 0.16102
 C274 C -0.00760 0.30250 0.22053
 C275 C -0.04334 0.28876 0.24931
 C276 C -0.03881 0.25108 0.27656
 C277 C 0.00110 0.22599 0.27468
 C278 C 0.03639 0.23924 0.24513
 C279 C 0.03224 0.27735 0.21861
 C280 C 0.00667 0.18717 0.30497
 C281 C 0.02048 0.14658 0.28631
 C282 C 0.02544 0.11011 0.31547
 C283 C 0.01759 0.11400 0.36384
 C284 C 0.00457 0.15486 0.38241
 C285 C -0.00124 0.19088 0.35325
 H286 H 0.05396 0.37072 0.21479
 H287 H 0.05342 0.42968 0.15754
 H288 H -0.07894 0.38219 0.10256
 H289 H -0.07850 0.32359 0.16068
 H290 H -0.07439 0.30755 0.25123
 H291 H -0.06656 0.24137 0.29900
 H292 H 0.06756 0.22061 0.24334
 H293 H 0.06002 0.28699 0.19616
 H294 H 0.02674 0.14300 0.24910
 H295 H 0.03553 0.07901 0.30032
 H296 H -0.00180 0.15894 0.41956
 H297 H -0.01138 0.22191 0.36853
 C298 C -0.00298 -0.32107 0.81279
 C299 C -0.01476 -0.36464 0.79984
 C300 C -0.02504 -0.39548 0.83387
 C301 C -0.02380 -0.38373 0.88223
 C302 C -0.01213 -0.33974 0.89507
 C303 C -0.00163 -0.30890 0.86074
 C304 C 0.00683 -0.28842 0.77605
 C305 C 0.04347 -0.25775 0.78202
 C306 C 0.05183 -0.22649 0.74759
 C307 C 0.02358 -0.22515 0.70660
 C308 C -0.01247 -0.25642 0.70032
 C309 C -0.02073 -0.28769 0.73462
 C310 C 0.02880 -0.18905 0.67251
 C311 C 0.02133 -0.19672 0.62386
 C312 C 0.01946 -0.16150 0.59280
 C313 C 0.02480 -0.11807 0.60999
 C314 C 0.03515 -0.11068 0.65812
 C315 C 0.03711 -0.14574 0.68902
 H316 H -0.01554 -0.37510 0.76321
 H317 H -0.03363 -0.42878 0.82189
 H318 H -0.01115 -0.32891 0.93159
 H319 H 0.00677 -0.27530 0.87163
 H320 H 0.06571 -0.25804 0.81326
 H321 H 0.08019 -0.20311 0.75319
 H322 H -0.03547 -0.25570 0.66969
 H323 H -0.04960 -0.31054 0.72933
 H324 H 0.01553 -0.22986 0.61005
 H325 H 0.01159 -0.16812 0.55583
 H326 H 0.03977 -0.07754 0.67233
 H327 H 0.04255 -0.13861 0.72624
 C328 C 0.38657 0.03039 0.78012
 C329 C 0.37984 0.05804 0.81938
 C330 C 0.40205 0.05022 0.86266
 C331 C 0.43047 0.01359 0.86817
 C332 C 0.44046 -0.01145 0.82771
 C333 C 0.41920 -0.00281 0.78426
 C334 C 0.35537 0.03224 0.73759
 C335 C 0.34052 -0.00703 0.71435
 C336 C 0.30522 -0.00698 0.68011
 C337 C 0.28315 0.03217 0.66865
 C338 C 0.30005 0.07195 0.68916
 C339 C 0.33593 0.07201 0.72317
 C340 C 0.23950 0.03043 0.64012
 C341 C 0.22860 0.06311 0.60739
 C342 C 0.18563 0.06234 0.58360
 C343 C 0.15277 0.02910 0.59253
 C344 C 0.16425 -0.00397 0.62445
 C345 C 0.20691 -0.00326 0.64793
 H346 H 0.35501 0.08395 0.81781
 H347 H 0.39395 0.07097 0.89251
 H348 H 0.46339 -0.03899 0.82973
 H349 H 0.42678 -0.02362 0.75436
 H350 H 0.35402 -0.03846 0.72453
 H351 H 0.29364 -0.03806 0.66419
 H352 H 0.28381 0.10271 0.68103
 H353 H 0.34713 0.10302 0.73946
 H354 H 0.25312 0.08937 0.60050
 H355 H 0.17775 0.08824 0.55914
 H356 H 0.13983 -0.03011 0.63216
 H357 H 0.21370 -0.02844 0.67356
 C358 C -0.36811 0.01730 0.24637
 C359 C -0.36635 -0.02048 0.21736
 C360 C -0.39137 -0.02337 0.17479
 C361 C -0.41873 0.01153 0.15986
 C362 C -0.42268 0.04835 0.18991
 C363 C -0.39751 0.05125 0.23274
 C364 C -0.33590 0.02244 0.28790
 C365 C -0.31259 0.06279 0.29750
 C366 C -0.27615 0.06554 0.33076
 C367 C -0.26189 0.02794 0.35490
 C368 C -0.28738 -0.01161 0.34762
 C369 C -0.32407 -0.01423 0.31480
 C370 C -0.21794 0.02839 0.38329
 C371 C -0.21244 0.00100 0.42241
 C372 C -0.16904 -0.00439 0.44372
 C373 C -0.13031 0.01798 0.42681
 C374 C -0.13624 0.04781 0.39006
 C375 C -0.17948 0.05274 0.36834
 H376 H -0.34363 -0.04700 0.22621
 H377 H -0.38768 -0.05229 0.15259
 H378 H -0.44366 0.07569 0.17945
 H379 H -0.40011 0.08054 0.25459
 H380 H -0.32064 0.09169 0.27739
 H381 H -0.25800 0.09679 0.33620
 H382 H -0.27742 -0.04139 0.36518
 H383 H -0.34193 -0.04559 0.30900
 H384 H -0.24143 -0.01744 0.43564
 H385 H -0.16553 -0.02717 0.47245
 H386 H -0.10698 0.06543 0.37619
 H387 H -0.18206 0.07370 0.33801
 C388 C 0.35453 -0.04633 0.21766
 C389 C 0.35194 -0.07392 0.17737
 C390 C 0.37885 -0.06483 0.13858
 C391 C 0.40902 -0.02805 0.13938
 C392 C 0.41400 -0.00235 0.18084
 C393 C 0.38699 -0.01131 0.21948
 C394 C 0.32037 -0.05087 0.25532
 C395 C 0.33264 -0.04135 0.30274
 C396 C 0.29901 -0.03955 0.33684
 C397 C 0.25242 -0.04745 0.32432
 C398 C 0.24049 -0.05902 0.27738
 C399 C 0.27400 -0.06066 0.24333
 C400 C 0.21574 -0.03988 0.35862
 C401 C 0.17610 -0.06721 0.35823
 C402 C 0.13843 -0.05600 0.38487
 C403 C 0.13957 -0.01718 0.41249
 C404 C 0.18027 0.00863 0.41533
 C405 C 0.21798 -0.00261 0.38866
 H406 H 0.32794 -0.10168 0.17517
 H407 H 0.37447 -0.08542 0.10723
 H408 H 0.43705 0.02617 0.18260
 H409 H 0.38967 0.01088 0.24967
 H410 H 0.36814 -0.03433 0.31330
 H411 H 0.30933 -0.03113 0.37285
 H412 H 0.20486 -0.06454 0.26635
 H413 H 0.26309 -0.06727 0.20710
 H414 H 0.17364 -0.09654 0.33605
 H415 H 0.10764 -0.07674 0.38218
 H416 H 0.18220 0.03870 0.43635
 H417 H 0.24785 0.01932 0.38949
 C418 C -0.33528 -0.01477 0.80476
 C419 C -0.36459 -0.05173 0.81003
 C420 C -0.39383 -0.05415 0.84826
 C421 C -0.39402 -0.01977 0.88193
 C422 C -0.36630 0.01794 0.87529
 C423 C -0.33752 0.02048 0.83712
 C424 C -0.30044 -0.01355 0.76759
 C425 C -0.25614 0.00385 0.77837
 C426 C -0.22306 0.00599 0.74405
 C427 C -0.23321 -0.00932 0.69794
 C428 C -0.27719 -0.02757 0.68712
 C429 C -0.31055 -0.02962 0.72165
 C430 C -0.19719 -0.00665 0.66211
 C431 C -0.18933 -0.04237 0.63159
 C432 C -0.15134 -0.04167 0.60246
 C433 C -0.12057 -0.00527 0.60346
 C434 C -0.13015 0.03143 0.63188
 C435 C -0.16803 0.03077 0.66075
 H436 H -0.36355 -0.07948 0.78576
 H437 H -0.41491 -0.08357 0.85247
 H438 H -0.36624 0.04535 0.90013
 H439 H -0.31634 0.04991 0.83338
 H440 H -0.24675 0.01535 0.81370
 H441 H -0.18913 0.01908 0.75388
 H442 H -0.28597 -0.03958 0.65183
 H443 H -0.34442 -0.04307 0.71224
 H444 H -0.21117 -0.07168 0.63194
 H445 H -0.14492 -0.07040 0.58083
 H446 H -0.10750 0.06023 0.63302
 H447 H -0.17382 0.05920 0.68304
   
