data_POSCAR
  _audit_creation_date              2014-09-24
  _audit_creation_method            'ToBaCCo'
  _symmetry_space_group_name_H-M    'P1'
  _symmetry_Int_Tables_number       1
  _symmetry_cell_setting            triclinic
  loop_
  _symmetry_equiv_pos_as_xyz
 x,y,z
_cell_length_a 27.5427
_cell_length_b 27.5399
_cell_length_c 27.5246
_cell_angle_alpha 90.202000
_cell_angle_beta 89.999700
_cell_angle_gamma 89.998700
loop_
  _atom_site_label
  _atom_site_type_symbol
  _atom_site_fract_x
  _atom_site_fract_y
  _atom_site_fract_z
C1 C 0.50160 0.99894 -0.63113
 C2 C 0.45760 1.00606 -0.60639
 C3 C 0.45830 1.00779 -0.55529
 C4 C 0.50168 0.99977 -0.52890
 C5 C 0.54503 0.99138 -0.55528
 C6 C 0.54565 0.99230 -0.60640
 C7 C 0.50170 1.00017 -0.47416
 C8 C 0.54468 1.01033 -0.44774
 C9 C 0.54509 1.00973 -0.39673
 C10 C 0.50173 1.00093 -0.37180
 C11 C 0.45836 0.99173 -0.39663
 C12 C 0.45875 0.99037 -0.44764
 H13 H 0.50156 0.99862 -0.67045
 H14 H 0.42493 1.01601 -0.53635
 H15 H 0.57844 0.98351 -0.53633
 H16 H 0.57793 1.01962 -0.46634
 H17 H 0.50175 1.00121 -0.33246
 H18 H 0.42550 0.98078 -0.46616
 C19 C -0.62975 1.49998 0.00008
 C20 C -0.60503 1.45600 0.00711
 C21 C -0.55395 1.45667 0.00842
 C22 C -0.52757 1.50000 0.00007
 C23 C -0.55397 1.54331 -0.00828
 C24 C -0.60505 1.54397 -0.00696
 C25 C -0.47285 1.50001 0.00007
 C26 C -0.44639 1.54309 0.00975
 C27 C -0.39541 1.54349 0.00878
 C28 C -0.37054 1.50003 0.00007
 C29 C -0.39539 1.45656 -0.00864
 C30 C -0.44638 1.45693 -0.00961
 H31 H -0.66905 1.49997 0.00008
 H32 H -0.53502 1.42333 0.01658
 H33 H -0.53506 1.57666 -0.01644
 H34 H -0.46493 1.57644 0.01898
 H35 H -0.33123 1.50004 0.00007
 H36 H -0.46490 1.42358 -0.01883
 C37 C -0.00707 0.37044 0.50223
 C38 C 0.00144 0.39415 0.45797
 C39 C 0.00347 0.44528 0.45783
 C40 C -0.00545 0.47266 0.50059
 C41 C -0.01487 0.44725 0.54419
 C42 C -0.01472 0.39634 0.54535
 C43 C -0.00547 0.52735 0.49961
 C44 C 0.00344 0.55474 0.54236
 C45 C 0.00137 0.60587 0.54222
 C46 C -0.00717 0.62957 0.49796
 C47 C -0.01480 0.60367 0.45485
 C48 C -0.01492 0.55276 0.45601
 H49 H -0.00738 0.33115 0.50349
 H50 H 0.01252 0.46347 0.42433
 H51 H -0.02339 0.46654 0.57735
 H52 H 0.01252 0.53655 0.57586
 H53 H -0.00751 0.66886 0.49671
 H54 H -0.02343 0.53346 0.42285
 O55 O -0.12313 1.00250 -0.06584
 O56 O 0.12626 0.99802 -0.06582
 O57 O -0.00064 1.06655 -0.12411
 O58 O 0.00364 0.93460 -0.12520
 O59 O 0.00347 0.87510 -0.06635
 O60 O -0.00044 1.12550 -0.06428
 O61 O 0.06702 0.99850 -0.12513
 O62 O -0.06384 1.00263 -0.12511
 Zr63 Zr 0.00159 1.00039 -0.08537
 O64 O 0.04554 0.95624 -0.04422
 O65 O -0.04233 1.04415 -0.04347
 C66 C -0.10867 1.00395 -0.11073
 C67 C 0.11183 0.99699 -0.11075
 C68 C -0.00192 1.11136 -0.10925
 C69 C 0.00475 0.88965 -0.11109
 H70 H 0.06628 1.06496 -0.06411
 O71 O 0.04555 1.04415 -0.04351
 H72 H -0.06314 0.93564 -0.06511
 O73 O -0.04239 0.95626 -0.04421
 O74 O 0.12616 1.00191 0.06628
 O75 O -0.12308 0.99759 0.06620
 O76 O 0.06769 1.12463 0.00327
 O77 O 0.06763 0.87535 -0.00305
 O78 O -0.06438 0.87528 0.00129
 O79 O -0.06433 1.12475 -0.00112
 O80 O 0.00367 1.06542 0.12538
 O81 O -0.00078 0.93344 0.12429
 O82 O 0.00351 1.12493 0.06655
 O83 O -0.00054 0.87449 0.06448
 O84 O 0.12682 1.06525 0.00258
 O85 O -0.12358 1.06547 -0.00142
 O86 O -0.12361 0.93459 0.00166
 O87 O 0.12679 0.93471 -0.00225
 O88 O 0.06679 1.00137 0.12545
 O89 O -0.06372 0.99752 0.12538
 Zr90 Zr 0.08698 0.99999 0.00017
 Zr91 Zr -0.08387 1.00002 0.00013
 Zr92 Zr 0.00163 1.08546 0.00081
 Zr93 Zr 0.00158 0.91455 -0.00060
 Zr94 Zr 0.00155 0.99962 0.08556
 O95 O -0.04238 0.95585 0.04371
 O96 O 0.04554 1.04378 0.04449
 C97 C 0.11161 1.00285 0.11118
 C98 C -0.10854 0.99623 0.11108
 C99 C 0.11256 1.11008 0.00428
 C100 C 0.11251 0.88988 -0.00400
 C101 C -0.10926 0.88974 0.00269
 C102 C -0.10921 1.11031 -0.00249
 C103 C 0.00479 1.11037 0.11128
 C104 C -0.00205 0.88863 0.10944
 H105 H -0.06312 1.06443 0.06532
 O106 O -0.04238 1.04379 0.04443
 H107 H 0.06620 0.93498 0.06437
 O108 O 0.04550 0.95581 0.04376
 N109 N 0.37493 1.01141 0.29128
 C110 C 0.33128 1.01499 0.31337
 N111 N 0.32930 1.01673 0.36263
 N112 N 0.37004 1.01464 0.38889
 C113 C 0.41413 1.01059 0.36679
 N114 N 0.41540 1.00926 0.31741
 C115 C 0.28831 1.01502 0.28397
 C116 C 0.25485 1.01398 0.25578
 C117 C 0.21783 1.01179 0.21919
 N118 N 0.17020 1.00960 0.23139
 N119 N 0.13632 1.00666 0.19691
 C120 C 0.14895 1.00568 0.14916
 N121 N 0.19669 1.00789 0.13715
 N122 N 0.23052 1.01083 0.17160
 N123 N -0.32603 0.98210 0.36253
 C124 C -0.32809 0.98303 0.31325
 N125 N -0.37181 0.98584 0.29120
 N126 N -0.41226 0.98804 0.31737
 C127 C -0.41090 0.98754 0.36676
 N128 N -0.36675 0.98423 0.38883
 C129 C -0.28515 0.98315 0.28380
 C130 C -0.25173 0.98433 0.25559
 C131 C -0.21472 0.98668 0.21901
 N132 N -0.22744 0.98803 0.17144
 N133 N -0.19362 0.99115 0.13702
 C134 C -0.14588 0.99315 0.14903
 N135 N -0.13322 0.99177 0.19675
 N136 N -0.16709 0.98867 0.23120
 N137 N -0.32494 1.01227 -0.36193
 C138 C -0.32789 1.02165 -0.31356
 N139 N -0.37198 1.02923 -0.29327
 N140 N -0.41198 1.02691 -0.32021
 C141 C -0.40956 1.01691 -0.36852
 N142 N -0.36511 1.01003 -0.38899
 C143 C -0.28580 1.02015 -0.28288
 C144 C -0.25264 1.01801 -0.25438
 C145 C -0.21548 1.01473 -0.21799
 N146 N -0.22791 1.01289 -0.17037
 N147 N -0.19388 1.00929 -0.13620
 C148 C -0.14619 1.00728 -0.14851
 N149 N -0.13382 1.00912 -0.19628
 N150 N -0.16791 1.01272 -0.23048
 N151 N 0.32837 0.98857 -0.36190
 C152 C 0.33136 0.98019 -0.31342
 N153 N 0.37552 0.97355 -0.29298
 N154 N 0.41552 0.97581 -0.31990
 C155 C 0.41305 0.98479 -0.36834
 N156 N 0.36855 0.99074 -0.38895
 C157 C 0.28920 0.98159 -0.28283
 C158 C 0.25599 0.98363 -0.25437
 C159 C 0.21877 0.98677 -0.21801
 N160 N 0.23113 0.98824 -0.17034
 N161 N 0.19706 0.99168 -0.13618
 C162 C 0.14940 0.99390 -0.14852
 N163 N 0.13709 0.99243 -0.19634
 N164 N 0.17122 0.98899 -0.23054
 N165 N 0.36393 1.32774 0.01801
 C166 C 0.31469 1.32976 0.01668
 N167 N 0.29265 1.37344 0.01333
 N168 N 0.31879 1.41387 0.01100
 C169 C 0.36814 1.41256 0.01190
 N170 N 0.39021 1.36845 0.01575
 C171 C 0.28526 1.28680 0.01681
 C172 C 0.25706 1.25335 0.01582
 C173 C 0.22049 1.21631 0.01366
 N174 N 0.17293 1.22900 0.01278
 N175 N 0.13851 1.19517 0.00975
 C176 C 0.15051 1.14743 0.00737
 N177 N 0.19822 1.13479 0.00829
 N178 N 0.23268 1.16867 0.01131
 N179 N 0.29259 0.62649 -0.01315
 C180 C 0.31462 0.67018 -0.01650
 N181 N 0.36386 0.67221 -0.01784
 N182 N 0.39015 0.63151 -0.01559
 C183 C 0.36811 0.58740 -0.01175
 N184 N 0.31876 0.58607 -0.01083
 C185 C 0.28518 0.71313 -0.01661
 C186 C 0.25698 0.74658 -0.01561
 C187 C 0.22042 0.78363 -0.01344
 N188 N 0.23261 0.83126 -0.01102
 N189 N 0.19817 0.86515 -0.00799
 C190 C 0.15045 0.85253 -0.00711
 N191 N 0.13844 0.80479 -0.00955
 N192 N 0.17285 0.77095 -0.01260
 N193 N -0.29187 0.62647 0.02726
 C194 C -0.31214 0.67055 0.01975
 N195 N -0.36051 0.67349 0.01072
 N196 N -0.38760 0.63331 0.00876
 C197 C -0.36715 0.58888 0.01557
 N198 N -0.31883 0.58648 0.02520
 C199 C -0.28146 0.71263 0.01812
 C200 C -0.25295 0.74577 0.01593
 C201 C -0.21655 0.78292 0.01270
 N202 N -0.22900 0.83052 0.01096
 N203 N -0.19479 0.86459 0.00756
 C204 C -0.14704 0.85221 0.00566
 N205 N -0.13478 0.80450 0.00739
 N206 N -0.16896 0.77047 0.01079
 N207 N -0.29181 1.37361 -0.02709
 C208 C -0.31207 1.32953 -0.01960
 N209 N -0.36045 1.32657 -0.01060
 N210 N -0.38755 1.36674 -0.00864
 C211 C -0.36711 1.41118 -0.01543
 N212 N -0.31879 1.41360 -0.02503
 C213 C -0.28138 1.28745 -0.01798
 C214 C -0.25287 1.25431 -0.01579
 C215 C -0.21648 1.21715 -0.01256
 N216 N -0.22894 1.16957 -0.01077
 N217 N -0.19473 1.13548 -0.00736
 C218 C -0.14698 1.14786 -0.00549
 N219 N -0.13471 1.19555 -0.00726
 N220 N -0.16888 1.22959 -0.01068
 N221 N 0.01562 1.36082 0.33047
 C222 C 0.01320 1.31166 0.33299
 N223 N 0.00797 1.29035 0.37683
 N224 N 0.00491 1.31717 0.41693
 C225 C 0.00692 1.36647 0.41505
 N226 N 0.01260 1.38775 0.37081
 C227 C 0.01424 1.28173 0.29024
 C228 C 0.01396 1.25355 0.25664
 C229 C 0.01255 1.21731 0.21909
 N230 N 0.01172 1.16962 0.23112
 N231 N 0.00926 1.13554 0.19677
 C232 C 0.00742 1.14800 0.14914
 N233 N 0.00831 1.19585 0.13716
 N234 N 0.01075 1.22996 0.17157
 N235 N -0.01190 1.36276 -0.32447
 C236 C -0.02401 1.31500 -0.32660
 N237 N -0.03539 1.29496 -0.37006
 N238 N -0.03402 1.32147 -0.41030
 C239 C -0.02124 1.36909 -0.40875
 N240 N -0.01064 1.38941 -0.36489
 C241 C -0.02117 1.28442 -0.28461
 C242 C -0.01807 1.25584 -0.25169
 C243 C -0.01387 1.21926 -0.21494
 N244 N -0.01182 1.17176 -0.22789
 N245 N -0.00772 1.13738 -0.19423
 C246 C -0.00542 1.14935 -0.14641
 N247 N -0.00744 1.19701 -0.13352
 N248 N -0.01154 1.23142 -0.16723
 N249 N 0.00786 0.70967 -0.37663
 C250 C 0.01312 0.68836 -0.33279
 N251 N 0.01558 0.63920 -0.33027
 N252 N 0.01256 0.61227 -0.37062
 C253 C 0.00685 0.63355 -0.41486
 N254 N 0.00480 0.68285 -0.41673
 C255 C 0.01416 0.71829 -0.29004
 C256 C 0.01388 0.74647 -0.25644
 C257 C 0.01248 0.78271 -0.21889
 N258 N 0.01068 0.77006 -0.17137
 N259 N 0.00824 0.80417 -0.13696
 C260 C 0.00736 0.85201 -0.14895
 N261 N 0.00920 0.86448 -0.19657
 N262 N 0.01166 0.83040 -0.23093
 N263 N -0.01202 0.63726 0.32467
 C264 C -0.02416 0.68500 0.32680
 N265 N -0.03555 0.70504 0.37026
 N266 N -0.03416 0.67853 0.41050
 C267 C -0.02135 0.63092 0.40895
 N268 N -0.01074 0.61061 0.36509
 C269 C -0.02133 0.71559 0.28481
 C270 C -0.01824 0.74418 0.25189
 C271 C -0.01405 0.78075 0.21513
 N272 N -0.01202 0.82826 0.22809
 N273 N -0.00791 0.86263 0.19442
 C274 C -0.00559 0.85065 0.14660
 N275 N -0.00758 0.80299 0.13372
 N276 N -0.01169 0.76858 0.16743
   
