data_POSCAR
  _audit_creation_date              2014-09-24
  _audit_creation_method            'ToBaCCo'
  _symmetry_space_group_name_H-M    'P1'
  _symmetry_Int_Tables_number       1
  _symmetry_cell_setting            triclinic
  loop_
  _symmetry_equiv_pos_as_xyz
 x,y,z
_cell_length_a 15.1054
_cell_length_b 14.3158
_cell_length_c 30.6090
_cell_angle_alpha 85.725100
_cell_angle_beta 94.381100
_cell_angle_gamma 121.265300
loop_
  _atom_site_label
  _atom_site_type_symbol
  _atom_site_fract_x
  _atom_site_fract_y
  _atom_site_fract_z
C1 C -0.11250 -0.05661 0.46419
 C2 C -0.03319 -0.01540 0.49700
 C3 C -0.02038 -0.08704 0.52701
 C4 C -0.09061 -0.20062 0.52574
 C5 C -0.17532 -0.23959 0.49497
 C6 C -0.18582 -0.16874 0.46320
 C7 C 0.03564 0.10350 0.49971
 C8 C 0.01493 0.16131 0.52856
 C9 C 0.07702 0.27577 0.52917
 C10 C 0.15905 0.33084 0.50066
 C11 C 0.17968 0.27411 0.47152
 C12 C 0.11775 0.15982 0.47130
 H13 H -0.11880 -0.00039 0.44020
 H14 H 0.04250 -0.05316 0.55159
 H15 H -0.04828 0.11715 0.55057
 H16 H 0.13035 0.11486 0.44803
 H17 H -0.22809 -0.32710 0.49367
 H18 H 0.20696 0.41932 0.50083
 C19 C 1.15398 -0.02425 0.13550
 C20 C 1.09340 0.00447 0.15739
 C21 C 1.14077 0.09491 0.18403
 C22 C 1.24841 0.15799 0.18931
 C23 C 1.30893 0.13177 0.16607
 C24 C 1.26325 0.04045 0.13931
 C25 C 0.97965 -0.05881 0.15363
 C26 C 0.92467 -0.13502 0.18727
 C27 C 0.81730 -0.18198 0.18888
 C28 C 0.76501 -0.15255 0.15571
 C29 C 0.81944 -0.07662 0.12183
 C30 C 0.92677 -0.03083 0.12058
 H31 H 1.11546 -0.09378 0.11471
 H32 H 1.09314 0.11511 0.20127
 H33 H 0.96633 -0.15459 0.21314
 H34 H 0.96945 0.02855 0.09470
 H35 H 1.39259 0.18387 0.16828
 H36 H 0.68151 -0.19108 0.15506
 C37 C 0.08811 0.97677 0.87247
 C38 C 0.00031 0.94812 0.84507
 C39 C -0.03841 0.86107 0.81728
 C40 C 0.01193 0.80292 0.81590
 C41 C 0.09858 0.82912 0.84480
 C42 C 0.13793 0.91700 0.87344
 C43 C -0.04879 1.01269 0.84426
 C44 C -0.01084 1.10765 0.81758
 C45 C -0.05943 1.16820 0.81527
 C46 C -0.14356 1.13580 0.84214
 C47 C -0.18070 1.04088 0.87038
 C48 C -0.13344 0.97876 0.87000
 H49 H 0.11655 1.04550 0.89345
 H50 H -0.10504 0.84189 0.79536
 H51 H 0.05412 1.13189 0.79731
 H52 H -0.16052 0.90485 0.89065
 H53 H 0.13496 0.78157 0.84377
 H54 H -0.17913 1.18474 0.84016
 O55 O 0.61384 0.10587 -0.04205
 O56 O 0.44059 0.04915 0.04352
 O57 O 0.62254 0.06846 0.04356
 O58 O 0.41197 0.01731 -0.04102
 O59 O 0.36925 -0.15558 -0.03979
 O60 O 0.56738 -0.10772 0.04394
 O61 O 0.38149 -0.12791 0.04424
 O62 O 0.57043 -0.06713 -0.04155
 Cu63 Cu 0.52652 0.07552 0.00087
 Cu64 Cu 0.46863 -0.13015 0.00201
 C65 C 0.62328 0.03168 -0.05668
 C66 C 0.37969 -0.04672 0.05821
 C67 C 0.63022 -0.01351 0.05770
 C68 C 0.35520 -0.07975 -0.05484
 O69 O 0.06672 0.45875 0.62825
 O70 O 0.09806 0.63488 0.71273
 O71 O 0.02786 0.42899 0.71248
 O72 O 0.07186 0.64967 0.62775
 O73 O -0.09739 0.57841 0.62310
 O74 O -0.13966 0.36940 0.70563
 O75 O -0.06945 0.57594 0.70907
 O76 O -0.10206 0.38866 0.62164
 Cu77 Cu 0.08120 0.54859 0.66978
 Cu78 Cu -0.11698 0.47237 0.66357
 C79 C -0.02019 0.39253 0.61058
 C80 C 0.02204 0.63617 0.72612
 C81 C -0.06532 0.36332 0.72408
 C82 C -0.00799 0.65138 0.61161
 O83 O 0.50989 0.37260 0.29688
 O84 O 0.63828 0.57011 0.38107
 O85 O 0.46738 0.37884 0.37827
 O86 O 0.64265 0.58312 0.29500
 O87 O 0.52977 0.63709 0.28249
 O88 O 0.35947 0.43830 0.36210
 O89 O 0.52746 0.62704 0.36941
 O90 O 0.39637 0.42472 0.28164
 Cu91 Cu 0.57490 0.47092 0.33906
 Cu92 Cu 0.44445 0.53751 0.32237
 C93 C 0.43184 0.36335 0.27492
 C94 C 0.60449 0.62961 0.39085
 C95 C 0.38367 0.37672 0.38475
 C96 C 0.61398 0.64475 0.27441
 C97 C 0.06589 0.34136 0.56110
 C98 C -0.02339 0.32022 0.57740
 H99 H 0.13740 0.41471 0.57070
 H100 H -0.09706 0.25161 0.56647
 C101 C 0.76187 0.73841 0.22526
 C102 C 0.67525 0.72582 0.24011
 H103 H 0.79457 0.69177 0.24081
 H104 H 0.64564 0.77663 0.22619
 C105 C 0.22462 -0.05151 -0.09713
 C106 C 0.27166 -0.10869 -0.08861
 H107 H 0.25213 0.02115 -0.07865
 H108 H 0.24389 -0.18551 -0.10367
 C109 C -0.08257 0.72201 0.55438
 C110 C 0.00082 0.73903 0.58000
 H111 H -0.14983 0.63973 0.55489
 H112 H 0.07408 0.81549 0.57833
 C113 C 0.29543 0.24994 0.21955
 C114 C 0.38498 0.27940 0.24187
 H115 H 0.25190 0.28789 0.22612
 H116 H 0.42470 0.23595 0.23769
 C117 C 0.73866 0.00556 -0.10049
 C118 C 0.69759 0.06461 -0.09125
 H119 H 0.71245 -0.07162 -0.08223
 H120 H 0.72485 0.14513 -0.10618
 C121 C 0.33025 0.02473 0.11528
 C122 C 0.30495 -0.06026 0.09036
 H123 H 0.41090 0.09056 0.11586
 H124 H 0.22939 -0.13421 0.09085
 C125 C 0.73918 0.79127 0.42824
 C126 C 0.65154 0.69331 0.43000
 H127 H 0.75572 0.83963 0.39769
 H128 H 0.62744 0.64735 0.46085
 C129 C -0.02391 0.26133 0.78288
 C130 C -0.09214 0.27843 0.75914
 H131 H 0.05740 0.30912 0.77556
 H132 H -0.17397 0.22562 0.76495
 C133 C 0.76172 -0.05518 0.08547
 C134 C 0.71113 -0.00262 0.09055
 H135 H 0.75376 -0.09196 0.05451
 H136 H 0.72337 0.04066 0.12015
 C137 C 0.25832 0.33854 0.43867
 C138 C 0.31413 0.30568 0.41956
 H139 H 0.27149 0.41949 0.43003
 H140 H 0.31032 0.22973 0.42985
 C141 C -0.02314 0.72044 0.78204
 C142 C 0.04597 0.71000 0.76169
 H143 H -0.10423 0.67519 0.77133
 H144 H 0.12757 0.76082 0.77092
   
