data_POSCAR
  _audit_creation_date              2014-09-24
  _audit_creation_method            'ToBaCCo'
  _symmetry_space_group_name_H-M    'P1'
  _symmetry_Int_Tables_number       1
  _symmetry_cell_setting            triclinic
  loop_
  _symmetry_equiv_pos_as_xyz
 x,y,z
_cell_length_a 29.4458
_cell_length_b 22.9048
_cell_length_c 27.8673
_cell_angle_alpha 90.097900
_cell_angle_beta 95.735600
_cell_angle_gamma 89.343600
loop_
  _atom_site_label
  _atom_site_type_symbol
  _atom_site_fract_x
  _atom_site_fract_y
  _atom_site_fract_z
C1 C 0.29117 0.34574 0.21236
 H2 H 0.26017 0.36930 0.21808
 C3 C 0.32533 0.37353 0.18977
 H4 H 0.32067 0.41868 0.17869
 C5 C 0.33421 0.25748 0.21725
 H6 H 0.33678 0.21173 0.22685
 C7 C 0.36963 0.28392 0.19599
 H8 H 0.39941 0.25817 0.18930
 N9 N 0.29633 0.28877 0.22581
 C10 C 0.15776 0.29121 0.25243
 H11 H 0.14827 0.25518 0.22865
 C12 C 0.12362 0.32679 0.26874
 H13 H 0.08837 0.31781 0.25656
 C14 C 0.21480 0.34333 0.30022
 H15 H 0.25042 0.34859 0.31307
 C16 C 0.18181 0.37968 0.31763
 H17 H 0.19240 0.41324 0.34367
 Zn18 Zn 0.24938 0.24832 0.25283
 N19 N 0.20237 0.30006 0.26831
 C20 C 0.23998 0.18051 0.33329
 N21 N 0.27139 0.21089 0.31121
 C22 C 0.31542 0.21461 0.33100
 C23 C 0.32957 0.18534 0.37396
 C24 C 0.25250 0.15124 0.37652
 C25 C 0.20282 0.20942 0.16563
 C26 C 0.18687 0.16857 0.13087
 C27 C 0.22467 0.09240 0.18034
 C28 C 0.23863 0.13443 0.21487
 N29 N 0.22728 0.19165 0.20714
 H30 H 0.20512 0.17871 0.31693
 H31 H 0.33964 0.24031 0.31376
 H32 H 0.36483 0.18821 0.38907
 H33 H 0.22704 0.12648 0.39286
 H34 H 0.19553 0.25538 0.15967
 H35 H 0.16692 0.18312 0.09823
 H36 H 0.23401 0.04703 0.18689
 H37 H 0.25930 0.12143 0.24741
 C38 C 0.13549 0.37128 0.30231
 C39 C 0.36527 0.34261 0.18183
 C40 C 0.19819 0.10944 0.13798
 C41 C 0.29792 0.15323 0.39724
 C42 C 0.82620 0.80445 0.26262
 H43 H 0.83249 0.78458 0.29782
 C44 C 0.86006 0.83821 0.24484
 H45 H 0.89204 0.84318 0.26703
 C46 C 0.77641 0.82213 0.19192
 H47 H 0.74372 0.81523 0.17144
 C48 C 0.80913 0.85626 0.17278
 H49 H 0.80099 0.87542 0.13741
 N50 N 0.78566 0.79633 0.23570
 C51 C 0.64922 0.76940 0.27766
 H52 H 0.64450 0.72332 0.27056
 C53 C 0.61420 0.80214 0.29524
 H54 H 0.58245 0.78106 0.30092
 C55 C 0.69779 0.85149 0.28313
 H56 H 0.73085 0.87009 0.27951
 C57 C 0.66415 0.88532 0.30220
 H58 H 0.67135 0.93007 0.31274
 Zn59 Zn 0.73991 0.74736 0.25585
 N60 N 0.69004 0.79441 0.27183
 C61 C 0.73886 0.70669 0.35145
 N62 N 0.76261 0.70402 0.31201
 C63 C 0.80228 0.67264 0.31313
 C64 C 0.81914 0.64226 0.35477
 C65 C 0.75425 0.67666 0.39357
 C66 C 0.67988 0.70095 0.17828
 C67 C 0.66781 0.66448 0.13891
 C68 C 0.74307 0.62082 0.15005
 C69 C 0.75353 0.65771 0.18942
 N70 N 0.72194 0.69637 0.20329
 H71 H 0.70799 0.73255 0.35078
 H72 H 0.82170 0.67238 0.28229
 H73 H 0.85091 0.61793 0.35500
 H74 H 0.73472 0.68024 0.42431
 H75 H 0.65587 0.73386 0.18777
 H76 H 0.63422 0.66890 0.11948
 H77 H 0.76884 0.59027 0.14021
 H78 H 0.78727 0.65600 0.20834
 C79 C 0.62192 0.86051 0.30863
 C80 C 0.85207 0.86408 0.19884
 C81 C 0.69967 0.62393 0.12421
 C82 C 0.79491 0.64379 0.39562
 C83 C 0.80355 0.34513 0.71815
 H84 H 0.77226 0.36726 0.72504
 C85 C 0.83741 0.37587 0.69753
 H86 H 0.83223 0.42181 0.68929
 C87 C 0.84720 0.25761 0.71710
 H88 H 0.84990 0.21099 0.72305
 C89 C 0.88237 0.28694 0.69763
 H90 H 0.91217 0.26256 0.68892
 N91 N 0.80898 0.28703 0.72740
 C92 C 0.66937 0.28781 0.74788
 H93 H 0.66021 0.25522 0.72073
 C94 C 0.63513 0.32261 0.76484
 H95 H 0.60020 0.31654 0.74982
 C96 C 0.72530 0.33178 0.80297
 H97 H 0.76051 0.33433 0.81813
 C98 C 0.69212 0.36713 0.82123
 H99 H 0.70215 0.39712 0.85037
 Zn100 Zn 0.76057 0.24335 0.74822
 N101 N 0.71354 0.29325 0.76681
 C102 C 0.74569 0.16508 0.81955
 N103 N 0.77947 0.19648 0.80258
 C104 C 0.82298 0.19364 0.82405
 C105 C 0.83407 0.15638 0.86332
 C106 C 0.75497 0.12797 0.85896
 C107 C 0.71582 0.21837 0.65629
 C108 C 0.69957 0.18290 0.61766
 C109 C 0.73586 0.09986 0.65967
 C110 C 0.74997 0.13651 0.69823
 N111 N 0.73927 0.19447 0.69617
 H112 H 0.71129 0.16864 0.80200
 H113 H 0.84920 0.22006 0.81086
 H114 H 0.86914 0.15459 0.87933
 H115 H 0.72684 0.10372 0.87066
 H116 H 0.70917 0.26491 0.65483
 H117 H 0.67987 0.20207 0.58660
 H118 H 0.74432 0.05374 0.66187
 H119 H 0.76995 0.11871 0.72957
 C120 C 0.64633 0.36269 0.80226
 C121 C 0.87737 0.34669 0.68713
 C122 C 0.70981 0.12305 0.61917
 C123 C 0.79993 0.12245 0.88148
 C124 C 0.29637 0.86187 0.72836
 H125 H 0.26343 0.88087 0.73351
 C126 C 0.33011 0.89664 0.71152
 H127 H 0.32318 0.94248 0.70418
 C128 C 0.34468 0.77838 0.72802
 H129 H 0.34932 0.73168 0.73212
 C130 C 0.37976 0.81184 0.71268
 H131 H 0.41149 0.79068 0.70559
 N132 N 0.30400 0.80372 0.73578
 C133 C 0.21768 0.82731 0.81649
 H134 H 0.25103 0.82087 0.83595
 C135 C 0.18430 0.85953 0.83736
 H136 H 0.19237 0.87791 0.87299
 C137 C 0.16676 0.81008 0.74670
 H138 H 0.16018 0.79083 0.71131
 C139 C 0.13228 0.84202 0.76627
 H140 H 0.09939 0.84647 0.74552
 Zn141 Zn 0.25487 0.75560 0.74992
 N142 N 0.20825 0.80271 0.77228
 C143 C 0.31672 0.70553 0.82474
 N144 N 0.27438 0.70190 0.80034
 C145 C 0.24392 0.66209 0.81328
 C146 C 0.25601 0.62272 0.85070
 C147 C 0.33038 0.66666 0.86212
 C148 C 0.25556 0.72265 0.65236
 C149 C 0.24121 0.69467 0.60913
 C150 C 0.17913 0.65292 0.64724
 C151 C 0.19491 0.68151 0.69002
 N152 N 0.23283 0.71533 0.69207
 H153 H 0.33979 0.73935 0.81625
 H154 H 0.20988 0.66125 0.79511
 H155 H 0.23120 0.59115 0.85973
 H156 H 0.36423 0.67025 0.88097
 H157 H 0.28482 0.75065 0.65368
 H158 H 0.26002 0.70192 0.57834
 H159 H 0.14887 0.62636 0.64633
 H160 H 0.17607 0.67768 0.72112
 C161 C 0.14071 0.86661 0.81254
 C162 C 0.37227 0.87149 0.70349
 C163 C 0.20263 0.65893 0.60616
 C164 C 0.29985 0.62462 0.87558
 C165 C -0.03266 -0.02356 0.06357
 C166 C -0.02738 0.00068 0.01822
 C167 C -0.06589 0.02221 -0.01035
 C168 C -0.10952 0.01845 0.00555
 C169 C -0.11429 -0.00696 0.05064
 C170 C -0.07608 -0.02791 0.07991
 C171 C 0.01802 -0.00067 -0.00042
 C172 C 0.02297 -0.02370 -0.04642
 C173 C 0.06655 -0.03182 -0.06209
 C174 C 0.10519 -0.01649 -0.03118
 C175 C 0.10059 0.00804 0.01424
 C176 C 0.05696 0.01636 0.02922
 H177 H -0.00313 -0.04168 0.08494
 H178 H -0.06192 0.04089 -0.04537
 H179 H -0.00702 -0.03796 -0.06878
 H180 H 0.05337 0.03431 0.06468
 H181 H -0.14770 -0.01000 0.06342
 H182 H 0.13895 -0.02299 -0.04272
 C183 C -0.01765 0.48478 0.55194
 C184 C -0.01775 0.51910 0.51039
 C185 C -0.05844 0.54533 0.49029
 C186 C -0.09911 0.53830 0.51187
 C187 C -0.09870 0.50299 0.55322
 C188 C -0.05830 0.47528 0.57312
 C189 C 0.02408 0.52308 0.48573
 C190 C 0.02592 0.49542 0.44109
 C191 C 0.06678 0.49352 0.41918
 C192 C 0.10537 0.52160 0.44164
 C193 C 0.10368 0.55121 0.48577
 C194 C 0.06291 0.55073 0.50802
 H195 H 0.01391 0.46371 0.56606
 H196 H -0.05825 0.57122 0.45779
 H197 H -0.00390 0.47276 0.42499
 H198 H 0.06116 0.57196 0.54259
 H199 H -0.13006 0.49539 0.56924
 H200 H 0.13679 0.51952 0.42466
 C201 C 0.47797 -0.00155 0.56507
 C202 C 0.47869 0.02615 0.52036
 C203 C 0.43874 0.05226 0.49823
 C204 C 0.39796 0.05086 0.52043
 C205 C 0.39768 0.02222 0.56508
 C206 C 0.43740 -0.00467 0.58742
 C207 C 0.52056 0.02296 0.49534
 C208 C 0.51985 -0.00528 0.45057
 C209 C 0.56072 -0.01698 0.42993
 C210 C 0.60220 0.00168 0.45422
 C211 C 0.60316 0.03072 0.49872
 C212 C 0.56215 0.04156 0.51885
 H213 H 0.50868 -0.02339 0.58074
 H214 H 0.43947 0.07297 0.46338
 H215 H 0.48761 -0.02075 0.43355
 H216 H 0.56267 0.06225 0.55392
 H217 H 0.36648 0.01969 0.58235
 H218 H 0.63393 -0.00738 0.43892
 C219 C 0.47821 0.47029 0.04717
 C220 C 0.48093 0.50135 0.00426
 C221 C 0.44093 0.52372 -0.02104
 C222 C 0.39827 0.51514 -0.00383
 C223 C 0.39615 0.48362 0.03918
 C224 C 0.43580 0.46017 0.06453
 C225 C 0.52525 0.50509 -0.01615
 C226 C 0.52987 0.48175 -0.06200
 C227 C 0.57297 0.47736 -0.07928
 C228 C 0.61134 0.49815 -0.05068
 C229 C 0.60718 0.52272 -0.00502
 C230 C 0.56390 0.52601 0.01196
 H231 H 0.50922 0.45211 0.06557
 H232 H 0.44311 0.54689 -0.05459
 H233 H 0.50019 0.46381 -0.08270
 H234 H 0.56031 0.54345 0.04758
 H235 H 0.36355 0.47636 0.05275
 H236 H 0.64444 0.49505 -0.06426
 C237 C 0.10474 -0.10194 -0.16368
 C238 C 0.06015 -0.09241 -0.18288
 C239 C 0.03935 -0.06435 -0.14761
 C240 C 0.07271 -0.05872 -0.10942
 O241 O 0.11222 -0.08132 -0.11928
 H242 H 0.04426 -0.10453 -0.21808
 H243 H 0.00416 -0.04969 -0.14983
 C244 C 0.10040 0.40632 0.32437
 C245 C 0.05418 0.40752 0.30952
 C246 C 0.03495 0.44164 0.34239
 C247 C 0.07079 0.45890 0.37488
 O248 O 0.11037 0.43781 0.36375
 H249 H 0.03630 0.38578 0.27888
 H250 H -0.00093 0.45215 0.34266
 C251 C 0.58812 -0.10626 0.33360
 C252 C 0.54149 -0.11306 0.32634
 C253 C 0.52411 -0.07828 0.36000
 C254 C 0.56154 -0.05312 0.38573
 O255 O 0.60027 -0.06991 0.36932
 H256 H 0.52251 -0.14089 0.30029
 H257 H 0.48847 -0.07376 0.36568
 C258 C 0.61079 0.39744 -0.17615
 C259 C 0.56579 0.40389 -0.19500
 C260 C 0.54527 0.43604 -0.16183
 C261 C 0.57920 0.44697 -0.12514
 O262 O 0.61888 0.42391 -0.13401
 H263 H 0.54954 0.38704 -0.22863
 H264 H 0.50978 0.44945 -0.16420
 C265 C -0.18933 0.08594 -0.08074
 C266 C -0.21973 0.05179 -0.05843
 C267 C -0.19408 0.02240 -0.02278
 C268 C -0.14984 0.04017 -0.02558
 O269 O -0.14690 0.07847 -0.06061
 H270 H -0.25624 0.04794 -0.06647
 H271 H -0.20636 -0.00910 0.00161
 C272 C -0.18721 0.61221 0.44006
 C273 C -0.21144 0.60130 0.47900
 C274 C -0.18196 0.57186 0.51139
 C275 C -0.14175 0.56672 0.48999
 O276 O -0.14501 0.59119 0.44675
 H277 H -0.24644 0.61294 0.48354
 H278 H -0.18920 0.55676 0.54653
 C279 C 0.31289 0.12116 0.44217
 C280 C 0.28459 0.10206 0.47535
 C281 C 0.31245 0.07372 0.50996
 C282 C 0.35589 0.07744 0.49542
 O283 O 0.35604 0.10645 0.45440
 H284 H 0.24804 0.10804 0.47468
 H285 H 0.30176 0.05242 0.54146
 C286 C 0.31404 0.58398 -0.08427
 C287 C 0.28488 0.55102 -0.05980
 C288 C 0.31224 0.52096 -0.02586
 C289 C 0.35627 0.53761 -0.03196
 O290 O 0.35729 0.57585 -0.06739
 H291 H 0.24805 0.54924 -0.06544
 H292 H 0.30103 0.49010 -0.00034
 C293 C -0.11423 -0.10413 0.17801
 C294 C -0.06982 -0.09534 0.19798
 C295 C -0.04929 -0.06499 0.16418
 C296 C -0.08248 -0.05709 0.12609
 O297 O -0.12173 -0.08052 0.13455
 H298 H -0.05360 -0.10977 0.23250
 H299 H -0.01428 -0.05050 0.16716
 C300 C -0.08808 0.37768 0.66227
 C301 C -0.04218 0.36387 0.66594
 C302 C -0.02392 0.40019 0.63446
 C303 C -0.06015 0.43342 0.61353
 O304 O -0.09897 0.41989 0.63078
 H305 H -0.02425 0.33076 0.68834
 H306 H 0.01141 0.40067 0.62706
 C307 C 0.40653 -0.09403 0.68131
 C308 C 0.45309 -0.10069 0.69118
 C309 C 0.47156 -0.06552 0.65903
 C310 C 0.43480 -0.04044 0.63139
 O311 O 0.39537 -0.05744 0.64535
 H312 H 0.47132 -0.12883 0.71788
 H313 H 0.50755 -0.06050 0.65559
 C314 C 0.40108 0.37069 0.15675
 C315 C 0.44690 0.35655 0.16345
 C316 C 0.46689 0.38988 0.13120
 C317 C 0.43170 0.42185 0.10681
 O318 O 0.39184 0.41035 0.12266
 H319 H 0.46369 0.32515 0.18842
 H320 H 0.50267 0.38906 0.12555
 C321 C 0.18258 0.06612 0.10105
 C322 C 0.20838 0.01937 0.08751
 C323 C 0.18149 -0.00814 0.05193
 C324 C 0.14113 0.02351 0.04695
 O325 O 0.14176 0.06866 0.07662
 H326 H 0.24279 0.00727 0.10153
 H327 H 0.18988 -0.04728 0.03273
 C328 C 0.18644 0.62869 0.56061
 C329 C 0.21097 0.62301 0.52108
 C330 C 0.18359 0.59299 0.48769
 C331 C 0.14415 0.58212 0.50906
 O332 O 0.14593 0.60382 0.55332
 H333 H 0.24486 0.63847 0.51671
 H334 H 0.19172 0.58133 0.45192
 C335 C 0.69232 0.08492 0.57916
 C336 C 0.71687 0.04049 0.56006
 C337 C 0.68732 0.01554 0.52537
 C338 C 0.64677 0.04625 0.52638
 O339 O 0.64985 0.08845 0.55895
 H340 H 0.75193 0.02758 0.57054
 H341 H 0.69403 -0.02208 0.50351
 C342 C 0.68745 0.58624 0.08172
 C343 C 0.71820 0.55607 0.05639
 C344 C 0.69249 0.52833 0.02014
 C345 C 0.64778 0.54348 0.02579
 O346 O 0.64476 0.57859 0.06316
 H347 H 0.75502 0.55468 0.06296
 H348 H 0.70515 0.49992 -0.00667
   
