data_POSCAR
  _audit_creation_date              2014-09-24
  _audit_creation_method            'ToBaCCo'
  _symmetry_space_group_name_H-M    'P1'
  _symmetry_Int_Tables_number       1
  _symmetry_cell_setting            triclinic
  loop_
  _symmetry_equiv_pos_as_xyz
 x,y,z
_cell_length_a 38.9196
_cell_length_b 38.4289
_cell_length_c 7.4960
_cell_angle_alpha 90.124400
_cell_angle_beta 90.156600
_cell_angle_gamma 90.058500
loop_
  _atom_site_label
  _atom_site_type_symbol
  _atom_site_fract_x
  _atom_site_fract_y
  _atom_site_fract_z
C1 C 0.35574 0.27289 0.23791
 C2 C 0.35791 0.23736 0.24431
 C3 C 0.32498 0.22511 0.27728
 N4 N 0.30276 0.25197 0.29032
 C5 C 0.32156 0.28119 0.26627
 C6 C 0.31627 0.18970 0.30239
 C7 C 0.28182 0.17746 0.29372
 C8 C 0.27100 0.14520 0.35511
 C9 C 0.23646 0.14290 0.32093
 C10 C 0.22677 0.17395 0.24154
 N11 N 0.25457 0.19495 0.22509
 C12 C 0.19273 0.18179 0.18698
 C13 C 0.18074 0.21638 0.16651
 C14 C 0.14928 0.22569 0.09305
 C15 C 0.14696 0.26118 0.10573
 C16 C 0.17733 0.27252 0.18300
 N17 N 0.19790 0.24512 0.22099
 C18 C 0.18486 0.30754 0.22460
 C19 C 0.21793 0.31951 0.27261
 C20 C 0.22527 0.35275 0.33480
 C21 C 0.26043 0.35511 0.34916
 C22 C 0.27353 0.32322 0.29595
 N23 N 0.24752 0.30176 0.24865
 C24 C 0.30879 0.31538 0.28192
 H25 H 0.37696 0.29061 0.21637
 H26 H 0.38109 0.22223 0.22637
 H27 H 0.25009 0.27804 0.18344
 H28 H 0.28624 0.12543 0.42059
 H29 H 0.22011 0.12110 0.35478
 H30 H 0.12995 0.20874 0.03567
 H31 H 0.12549 0.27686 0.06141
 H32 H 0.27473 0.37783 0.39195
 H33 H 0.25530 0.21848 0.15678
 H34 H 0.20725 0.37344 0.36333
 C35 C 0.64215 0.22914 0.22098
 C36 C 0.64165 0.26467 0.23561
 C37 C 0.67537 0.27510 0.26089
 N38 N 0.69643 0.24711 0.26537
 C39 C 0.67613 0.21885 0.24187
 C40 C 0.68574 0.30991 0.28878
 C41 C 0.72025 0.32123 0.28176
 C42 C 0.73151 0.35419 0.33039
 C43 C 0.76597 0.35574 0.29091
 C44 C 0.77487 0.32360 0.22062
 N45 N 0.74680 0.30284 0.21429
 C46 C 0.80775 0.31494 0.15482
 C47 C 0.81837 0.28050 0.11957
 C48 C 0.85012 0.27130 0.05063
 C49 C 0.85129 0.23564 0.05015
 C50 C 0.82012 0.22426 0.11765
 N51 N 0.80019 0.25169 0.16136
 C52 C 0.81176 0.18923 0.15215
 C53 C 0.77863 0.17775 0.20213
 C54 C 0.77152 0.14495 0.26922
 C55 C 0.73665 0.14332 0.29468
 C56 C 0.72317 0.17505 0.24048
 N57 N 0.74899 0.19590 0.18380
 C58 C 0.68771 0.18381 0.24495
 H59 H 0.61993 0.21280 0.19749
 H60 H 0.61907 0.28101 0.22699
 H61 H 0.74616 0.21976 0.12037
 H62 H 0.71635 0.37519 0.38559
 H63 H 0.78249 0.37808 0.31067
 H64 H 0.87061 0.28847 0.00863
 H65 H 0.87280 0.21991 0.00723
 H66 H 0.72288 0.12134 0.34951
 H67 H 0.74495 0.27909 0.14881
 H68 H 0.78958 0.12429 0.29786
 C69 C 0.64336 0.76425 0.78370
 C70 C 0.64481 0.72859 0.78588
 C71 C 0.67907 0.71970 0.76415
 N72 N 0.69853 0.74865 0.74916
 C73 C 0.67680 0.77588 0.76201
 C74 C 0.69141 0.68536 0.74548
 C75 C 0.72662 0.67682 0.73045
 C76 C 0.73894 0.64457 0.67780
 C77 C 0.77419 0.64633 0.68661
 C78 C 0.78247 0.67962 0.74447
 N79 N 0.75331 0.69793 0.77217
 C80 C 0.81615 0.69125 0.78292
 C81 C 0.82485 0.72635 0.81657
 C82 C 0.85634 0.73744 0.88196
 C83 C 0.85486 0.77303 0.89104
 C84 C 0.82268 0.78265 0.82791
 N85 N 0.80438 0.75401 0.78242
 C86 C 0.81077 0.81739 0.81219
 C87 C 0.77624 0.82567 0.76886
 C88 C 0.76560 0.85749 0.70106
 C89 C 0.73064 0.85563 0.68010
 C90 C 0.72074 0.82270 0.73515
 N91 N 0.74868 0.80459 0.78989
 C92 C 0.68632 0.81097 0.73937
 H93 H 0.62031 0.77984 0.79435
 H94 H 0.62305 0.71122 0.79852
 H95 H 0.74862 0.78072 0.85467
 H96 H 0.72408 0.62203 0.63779
 H97 H 0.79170 0.62531 0.65568
 H98 H 0.87799 0.72153 0.92122
 H99 H 0.87513 0.78980 0.94034
 H100 H 0.71437 0.87625 0.62988
 H101 H 0.75171 0.72197 0.83475
 H102 H 0.78148 0.87972 0.66848
 C103 C 0.34760 0.72536 0.54093
 C104 C 0.34929 0.76098 0.53454
 C105 C 0.31963 0.77325 0.61478
 N106 N 0.30007 0.74640 0.67125
 C107 C 0.31695 0.71708 0.62488
 C108 C 0.31238 0.80861 0.64765
 C109 C 0.28107 0.82045 0.72082
 C110 C 0.27588 0.85358 0.78923
 C111 C 0.24191 0.85562 0.83616
 C112 C 0.22701 0.82387 0.79246
 N113 N 0.25113 0.80248 0.72321
 C114 C 0.19153 0.81618 0.80877
 C115 C 0.17880 0.78156 0.80826
 C116 C 0.14449 0.77259 0.78705
 C117 C 0.14283 0.73710 0.79421
 C118 C 0.17617 0.72528 0.81868
 N119 N 0.19823 0.75254 0.82685
 C120 C 0.18540 0.68969 0.83333
 C121 C 0.21972 0.67781 0.81455
 C122 C 0.23132 0.64505 0.86419
 C123 C 0.26538 0.64321 0.81732
 C124 C 0.27388 0.67501 0.74250
 N125 N 0.24587 0.69591 0.74065
 C126 C 0.30630 0.68303 0.66849
 H127 H 0.36704 0.70764 0.49224
 H128 H 0.37027 0.77608 0.48022
 H129 H 0.24368 0.71961 0.67527
 H130 H 0.29450 0.87434 0.80293
 H131 H 0.22950 0.87812 0.89433
 H132 H 0.12290 0.78973 0.76415
 H133 H 0.11974 0.72169 0.77831
 H134 H 0.28193 0.62089 0.83575
 H135 H 0.24645 0.77868 0.66170
 H136 H 0.21675 0.62449 0.92715
 O137 O 1.02769 -0.03939 0.12770
 O138 O 0.96197 0.02942 0.12449
 O139 O 0.96263 -0.03617 0.04710
 O140 O 1.02641 0.02717 0.20702
 O141 O 1.03851 0.03864 -0.07429
 O142 O 0.97623 -0.02660 -0.23415
 O143 O 0.97297 0.03980 -0.15916
 O144 O 1.04074 -0.02685 -0.15110
 Cu145 Cu 0.99334 -0.00616 0.15386
 Cu146 Cu 1.00850 0.00779 -0.18192
 C147 C 1.04554 -0.04482 -0.01138
 C148 C 0.95600 0.04610 -0.01820
 C149 C 0.95853 -0.04246 -0.11760
 C150 C 1.04336 0.04391 0.09087
 O151 O 0.46256 0.47321 0.34626
 O152 O 0.52892 0.54142 0.38083
 O153 O 0.52842 0.47623 0.28445
 O154 O 0.46284 0.53817 0.43693
 O155 O 0.47222 0.52528 0.71916
 O156 O 0.53708 0.46204 0.56561
 O157 O 0.53845 0.52726 0.66144
 O158 O 0.47153 0.45997 0.62863
 Cu159 Cu 0.49469 0.50895 0.33509
 Cu160 Cu 0.50597 0.49206 0.67083
 C161 C 0.45554 0.45503 0.48296
 C162 C 0.54515 0.54594 0.52632
 C163 C 0.54391 0.45813 0.40128
 C164 C 0.45594 0.54231 0.60075
 O165 O 0.03006 0.52353 -0.21186
 O166 O -0.03695 0.46249 -0.06404
 O167 O -0.03594 0.52789 -0.15511
 O168 O 0.02912 0.45866 -0.12301
 O169 O 0.03807 0.47169 0.16015
 O170 O -0.02867 0.53933 0.13109
 O171 O -0.02766 0.47418 0.21999
 O172 O 0.03729 0.53746 0.07129
 Cu173 Cu -0.00462 0.49149 -0.16542
 Cu174 Cu 0.00596 0.50735 0.17263
 C175 C 0.04512 0.54128 -0.09164
 C176 C -0.04386 0.45758 0.09930
 C177 C -0.04368 0.54522 -0.01633
 C178 C 0.04492 0.45355 0.02286
 O179 O 0.46991 0.95846 0.45639
 O180 O 0.53470 1.02670 0.37011
 O181 O 0.53631 0.96225 0.47988
 O182 O 0.46790 1.02154 0.33616
 O183 O 0.46292 1.03953 0.61475
 O184 O 0.53214 0.98026 0.75843
 O185 O 0.52886 1.04455 0.64834
 O186 O 0.46576 0.97586 0.73636
 Cu187 Cu 0.50287 0.99031 0.38302
 Cu188 Cu 0.49686 1.01204 0.71687
 C189 C 0.45703 0.95535 0.61113
 C190 C 0.54251 1.04761 0.49580
 C191 C 0.54578 0.96062 0.64169
 C192 C 0.45367 1.04079 0.45219
 C193 C 1.17858 0.12680 0.04005
 C194 C 1.16973 0.15380 0.15842
 C195 C 1.13806 0.15216 0.24880
 C196 C 1.11539 0.12432 0.21885
 C197 C 1.12391 0.09839 0.09251
 C198 C 1.15564 0.09970 0.00503
 C199 C 1.10041 0.07175 0.05445
 C200 C 1.06895 0.07001 0.14493
 C201 C 1.06133 0.09472 0.27686
 C202 C 1.08424 0.12198 0.31219
 H203 H 1.13143 0.17221 0.34473
 H204 H 1.16267 0.07984 -0.09100
 H205 H 1.10646 0.05240 -0.04622
 H206 H 1.07744 0.14142 0.41083
 H207 H 1.20284 0.12739 -0.03050
 H208 H 1.03708 0.09372 0.34723
 C209 C 0.65847 0.63629 0.88075
 C210 C 0.66584 0.65692 0.73164
 C211 C 0.64823 0.65123 0.57072
 C212 C 0.62311 0.62514 0.55887
 C213 C 0.61552 0.60457 0.71003
 C214 C 0.63342 0.61028 0.87025
 C215 C 0.59008 0.57874 0.69862
 C216 C 0.57208 0.57312 0.53805
 C217 C 0.58002 0.59365 0.38852
 C218 C 0.60528 0.61943 0.39886
 H219 H 0.65401 0.66730 0.45579
 H220 H 0.62794 0.59478 0.98744
 H221 H 0.58430 0.56310 0.81491
 H222 H 0.61079 0.63498 0.28189
 H223 H 0.67190 0.64064 1.00567
 H224 H 0.56663 0.58985 0.26313
 C225 C -0.16453 0.35709 -0.05098
 C226 C -0.16748 0.34344 0.12144
 C227 C -0.14609 0.35586 0.25872
 C228 C -0.12151 0.38172 0.22313
 C229 C -0.11837 0.39495 0.04806
 C230 C -0.14014 0.38267 -0.08763
 C231 C -0.09325 0.41994 0.01052
 C232 C -0.07108 0.43223 0.14521
 C233 C -0.07479 0.41951 0.31974
 C234 C -0.09973 0.39433 0.35827
 H235 H -0.14843 0.34512 0.39170
 H236 H -0.13810 0.39264 -0.22234
 H237 H -0.09088 0.42969 -0.12455
 H238 H -0.10174 0.38450 0.49312
 H239 H -0.18086 0.34752 -0.15767
 H240 H -0.05802 0.42852 0.42561
 C241 C 0.34354 0.84746 0.43619
 C242 C 0.33942 0.83470 0.60981
 C243 C 0.36006 0.84766 0.74850
 C244 C 0.38424 0.87390 0.71477
 C245 C 0.38831 0.88673 0.53934
 C246 C 0.36793 0.87321 0.40093
 C247 C 0.41240 0.91309 0.50576
 C248 C 0.43188 0.92742 0.64600
 C249 C 0.42739 0.91472 0.81994
 C250 C 0.40406 0.88792 0.85371
 H251 H 0.35664 0.83782 0.88272
 H252 H 0.37046 0.88294 0.26621
 H253 H 0.41555 0.92287 0.37129
 H254 H 0.40142 0.87827 0.98841
 H255 H 0.32761 0.83765 0.32854
 H256 H 0.44234 0.92521 0.92959
 C257 C -0.13779 0.65610 -0.36366
 C258 C -0.15613 0.66491 -0.20937
 C259 C -0.14840 0.64854 -0.04738
 C260 C -0.12244 0.62330 -0.03919
 C261 C -0.10430 0.61409 -0.19562
 C262 C -0.11203 0.63081 -0.35690
 C263 C -0.07874 0.58838 -0.18793
 C264 C -0.07056 0.57229 -0.02511
 C265 C -0.08835 0.58209 0.13003
 C266 C -0.11430 0.60712 0.12269
 H267 H -0.16259 0.65557 0.07161
 H268 H -0.09806 0.62438 -0.47717
 H269 H -0.06494 0.58119 -0.30785
 H270 H -0.12809 0.61380 0.24321
 H271 H -0.14360 0.66872 -0.48920
 H272 H -0.08258 0.56992 0.25674
 C273 C 0.36500 1.17369 0.49184
 C274 C 0.34278 1.16614 0.34818
 C275 C 0.34733 1.13485 0.25268
 C276 C 0.37371 1.11167 0.29946
 C277 C 0.39515 1.11926 0.44706
 C278 C 0.39064 1.15033 0.54187
 C279 C 0.42092 1.09576 0.49707
 C280 C 0.42630 1.06516 0.39848
 C281 C 0.40556 1.05822 0.24887
 C282 C 0.37923 1.08113 0.20074
 H283 H 0.33083 1.12902 0.13963
 H284 H 0.40698 1.15661 0.65470
 H285 H 0.43716 1.10155 0.61112
 H286 H 0.36328 1.07502 0.08612
 H287 H 0.36183 1.19733 0.56919
 H288 H 0.40937 1.03477 0.17102
 C289 C 1.16893 -0.12847 -0.30199
 C290 C 1.16807 -0.15581 -0.17714
 C291 C 1.14341 -0.15484 -0.03984
 C292 C 1.11995 -0.12723 -0.02827
 C293 C 1.12060 -0.10053 -0.15752
 C294 C 1.14525 -0.10131 -0.29325
 C295 C 1.09646 -0.07356 -0.14978
 C296 C 1.07185 -0.07252 -0.01295
 C297 C 1.07201 -0.09864 0.11805
 C298 C 1.09576 -0.12587 0.10995
 H299 H 1.14295 -0.17527 0.05977
 H300 H 1.14611 -0.08101 -0.39326
 H301 H 1.09683 -0.05338 -0.25067
 H302 H 1.09506 -0.14597 0.21104
 H303 H 1.18737 -0.12870 -0.41008
 H304 H 1.05332 -0.09840 0.22483
 C305 C 0.64699 0.33760 0.51119
 C306 C 0.65898 0.33572 0.33535
 C307 C 0.64567 0.35828 0.20543
 C308 C 0.62041 0.38278 0.25149
 C309 C 0.60868 0.38471 0.42965
 C310 C 0.62208 0.36198 0.55834
 C311 C 0.58378 0.40935 0.47663
 C312 C 0.57008 0.43214 0.34819
 C313 C 0.58169 0.42984 0.17109
 C314 C 0.60668 0.40541 0.12317
 H315 H 0.65497 0.35664 0.06947
 H316 H 0.61331 0.36308 0.69530
 H317 H 0.57502 0.41067 0.61367
 H318 H 0.61529 0.40425 -0.01404
 H319 H 0.65715 0.32024 0.61204
 H320 H 0.57167 0.44712 0.06973
 C321 C 0.82626 -0.12873 -0.03497
 C322 C 0.83399 -0.15479 -0.16075
 C323 C 0.86451 -0.15218 -0.26060
 C324 C 0.88695 -0.12396 -0.23462
 C325 C 0.87940 -0.09879 -0.10269
 C326 C 0.84901 -0.10133 -0.00410
 C327 C 0.90257 -0.07166 -0.06982
 C328 C 0.93291 -0.06877 -0.16940
 C329 C 0.93956 -0.09278 -0.30618
 C330 C 0.91686 -0.12044 -0.33754
 H331 H 0.87030 -0.17162 -0.36114
 H332 H 0.84283 -0.08214 0.09703
 H333 H 0.89720 -0.05289 0.03470
 H334 H 0.92290 -0.13930 -0.44036
 H335 H 0.80294 -0.13017 0.04340
 H336 H 0.96297 -0.09097 -0.38343
 C337 C 0.34034 0.36500 0.14287
 C338 C 0.33387 0.34427 0.29282
 C339 C 0.35222 0.35000 0.45138
 C340 C 0.37731 0.37611 0.45996
 C341 C 0.38414 0.39671 0.30772
 C342 C 0.36536 0.39107 0.15009
 C343 C 0.40970 0.42246 0.31569
 C344 C 0.42849 0.42797 0.47389
 C345 C 0.42118 0.40751 0.62466
 C346 C 0.39586 0.38181 0.61773
 H347 H 0.34711 0.33384 0.56679
 H348 H 0.37018 0.40665 0.03254
 H349 H 0.41494 0.43814 0.19885
 H350 H 0.39086 0.36634 0.73563
 H351 H 0.32636 0.36060 0.01976
 H352 H 0.43513 0.41125 0.74849
 C353 C 0.13771 0.67003 0.01938
 C354 C 0.15925 0.66522 -0.12919
 C355 C 0.15369 0.63632 -0.24192
 C356 C 0.12649 0.61316 -0.20897
 C357 C 0.10558 0.61805 -0.05715
 C358 C 0.11150 0.64640 0.05654
 C359 C 0.07896 0.59456 -0.02146
 C360 C 0.07221 0.56662 -0.13761
 C361 C 0.09237 0.56247 -0.29123
 C362 C 0.11955 0.58538 -0.32573
 H363 H 0.16971 0.63268 -0.35865
 H364 H 0.09567 0.65049 0.17345
 H365 H 0.06330 0.59819 0.09656
 H366 H 0.13514 0.58137 -0.44353
 H367 H 0.14168 0.69183 0.10916
 H368 H 0.08766 0.54102 -0.38204
 C369 C 0.66369 1.12761 0.14881
 C370 C 0.66329 1.15667 0.26384
 C371 C 0.63864 1.15790 0.40086
 C372 C 0.61487 1.13083 0.42243
 C373 C 0.61506 1.10216 0.30389
 C374 C 0.63960 1.10084 0.16744
 C375 C 0.59101 1.07515 0.32547
 C376 C 0.56737 1.07617 0.46690
 C377 C 0.56780 1.10468 0.58490
 C378 C 0.59113 1.13184 0.56222
 H379 H 0.63864 1.17952 0.49417
 H380 H 0.64028 1.07902 0.07567
 H381 H 0.59114 1.05312 0.23489
 H382 H 0.59075 1.15352 0.65486
 H383 H 0.68227 1.12603 0.04164
 H384 H 0.54983 1.10616 0.69469
 C385 C 0.13818 0.34200 0.36953
 C386 C 0.15671 0.33336 0.21553
 C387 C 0.14918 0.34989 0.05362
 C388 C 0.12329 0.37519 0.04543
 C389 C 0.10501 0.38428 0.20170
 C390 C 0.11249 0.36734 0.36278
 C391 C 0.07961 0.41015 0.19414
 C392 C 0.07170 0.42644 0.03154
 C393 C 0.08958 0.41676 -0.12350
 C394 C 0.11542 0.39162 -0.11621
 H395 H 0.16353 0.34303 -0.06524
 H396 H 0.09848 0.37371 0.48319
 H397 H 0.06573 0.41726 0.31406
 H398 H 0.12930 0.38507 -0.23676
 H399 H 0.14390 0.32934 0.49514
 H400 H 0.08399 0.42910 -0.25012
 C401 C 0.64517 0.83751 0.52538
 C402 C 0.65887 0.83638 0.69825
 C403 C 0.64749 0.86008 0.82801
 C404 C 0.62246 0.88500 0.78447
 C405 C 0.60909 0.88618 0.60907
 C406 C 0.62051 0.86231 0.48076
 C407 C 0.58447 0.91119 0.56417
 C408 C 0.57251 0.93506 0.69214
 C409 C 0.58573 0.93361 0.86667
 C410 C 0.61060 0.90883 0.91235
 H411 H 0.65824 0.85912 0.96155
 H412 H 0.61051 0.86291 0.34566
 H413 H 0.57445 0.91183 0.42910
 H414 H 0.62044 0.90823 1.04768
 H415 H 0.65398 0.81942 0.42436
 H416 H 0.57686 0.95161 0.96782
 C417 C 0.85828 0.15596 0.30434
 C418 C 0.83995 0.16340 0.14781
 C419 C 0.84859 0.14665 -0.01227
 C420 C 0.87545 0.12232 -0.01582
 C421 C 0.89348 0.11450 0.14319
 C422 C 0.88486 0.13161 0.30218
 C423 C 0.91980 0.08966 0.14084
 C424 C 0.92890 0.07293 -0.01893
 C425 C 0.91142 0.08141 -0.17717
 C426 C 0.88464 0.10565 -0.17523
 H427 H 0.83448 0.15273 -0.13312
 H428 H 0.89877 0.12623 0.42428
 H429 H 0.93336 0.08348 0.26329
 H430 H 0.87096 0.11123 -0.29783
 H431 H 0.85186 0.16897 0.42813
 H432 H 0.91795 0.06868 -0.30158
 C433 C 0.33294 0.64008 0.46238
 C434 C 0.33064 0.65419 0.63441
 C435 C 0.35267 0.64226 0.76986
 C436 C 0.37739 0.61666 0.73233
 C437 C 0.38004 0.60321 0.55722
 C438 C 0.35751 0.61480 0.42376
 C439 C 0.40550 0.57873 0.51726
 C440 C 0.42846 0.56713 0.64961
 C441 C 0.42513 0.57992 0.82445
 C442 C 0.39988 0.60462 0.86538
 H443 H 0.35084 0.65333 0.90267
 H444 H 0.35916 0.60463 0.28905
 H445 H 0.40750 0.56883 0.38211
 H446 H 0.39817 0.61455 1.00042
 H447 H 0.31609 0.64923 0.35721
 H448 H 0.44247 0.57135 0.92859
   
