data_POSCAR
  _audit_creation_date              2014-09-24
  _audit_creation_method            'ToBaCCo'
  _symmetry_space_group_name_H-M    'P1'
  _symmetry_Int_Tables_number       1
  _symmetry_cell_setting            triclinic
  loop_
  _symmetry_equiv_pos_as_xyz
 x,y,z
_cell_length_a 14.9636
_cell_length_b 22.0715
_cell_length_c 14.9230
_cell_angle_alpha 90.306300
_cell_angle_beta 89.819700
_cell_angle_gamma 89.921200
loop_
  _atom_site_label
  _atom_site_type_symbol
  _atom_site_fract_x
  _atom_site_fract_y
  _atom_site_fract_z
N1 N 0.15774 0.06372 0.10821
 N2 N 0.20335 0.11490 0.11084
 N3 N 0.09806 -0.06401 0.17412
 N4 N 0.11039 -0.10885 0.23101
 N5 N 0.16055 -0.06425 0.11223
 N6 N 0.21698 -0.10935 0.12512
 N7 N 0.09624 0.06332 0.17115
 N8 N 0.09888 0.11384 0.21858
 C9 C 0.16639 0.14539 0.18077
 C10 C 0.18479 -0.13684 0.19941
 N11 N -0.15590 -0.06580 0.11081
 N12 N -0.20474 -0.11534 0.11706
 N13 N -0.09521 0.06293 0.17035
 N14 N -0.09913 0.11394 0.21692
 N15 N -0.15693 0.06182 0.10812
 N16 N -0.20656 0.11524 0.11187
 N17 N -0.09431 -0.06481 0.17325
 N18 N -0.09982 -0.11352 0.22382
 Mn19 Mn 0.00111 -0.00077 0.17331
 C20 C -0.16957 -0.14434 0.18848
 C21 C -0.16788 0.14555 0.18092
 N22 N 0.16173 -0.06737 -0.08048
 N23 N 0.21615 -0.11842 -0.08683
 N24 N 0.09903 0.05830 -0.14743
 N25 N 0.11209 0.10261 -0.20520
 N26 N 0.15998 0.05974 -0.08439
 N27 N 0.21614 0.10483 -0.09752
 N28 N 0.10024 -0.06936 -0.14298
 N29 N 0.10930 -0.11865 -0.19282
 Mn30 Mn 0.16107 -0.00201 0.01399
 C31 C 0.18078 -0.14829 -0.15794
 C32 C 0.18538 0.13134 -0.17293
 N33 N -0.15571 0.05875 -0.08540
 N34 N -0.20752 0.10672 -0.09466
 N35 N -0.09356 -0.06989 -0.14408
 N36 N -0.10884 -0.11472 -0.20120
 N37 N -0.15502 -0.06852 -0.08122
 N38 N -0.21600 -0.11515 -0.09491
 N39 N -0.09351 0.05771 -0.14771
 N40 N -0.10108 0.10514 -0.20067
 Mn41 Mn -0.15693 -0.00334 0.01310
 Mn42 Mn 0.00308 -0.00593 -0.14680
 Cl43 Cl 0.00209 -0.00305 0.01325
 C44 C -0.17302 0.13500 -0.16722
 C45 C -0.18396 -0.14233 -0.17005
 N46 N 0.66124 0.56069 0.60926
 N47 N 0.71082 0.60995 0.61579
 N48 N 0.59988 0.43260 0.66986
 N49 N 0.61192 0.38676 0.72493
 N50 N 0.66198 0.43299 0.60760
 N51 N 0.71806 0.38744 0.61856
 N52 N 0.59951 0.56024 0.67197
 N53 N 0.60553 0.60914 0.72286
 C54 C 0.67579 0.63949 0.68753
 C55 C 0.68584 0.35893 0.69197
 N56 N 0.34534 0.43292 0.60852
 N57 N 0.29475 0.38412 0.61451
 N58 N 0.40744 0.56004 0.67315
 N59 N 0.39533 0.60513 0.73036
 N60 N 0.34558 0.56058 0.61106
 N61 N 0.28959 0.60602 0.62428
 N62 N 0.40749 0.43252 0.67045
 N63 N 0.40070 0.38355 0.72032
 Mn64 Mn 0.50360 0.49630 0.67245
 C65 C 0.32961 0.35401 0.68515
 C66 C 0.32164 0.63351 0.69885
 N67 N 0.66202 0.43351 0.41485
 N68 N 0.72145 0.39038 0.39974
 N69 N 0.59999 0.56068 0.35404
 N70 N 0.61397 0.60530 0.29712
 N71 N 0.66145 0.56064 0.41661
 N72 N 0.71874 0.60517 0.40417
 N73 N 0.60003 0.43321 0.35267
 N74 N 0.61593 0.38981 0.29342
 Mn75 Mn 0.66264 0.49696 0.51217
 C76 C 0.69170 0.36326 0.32401
 C77 C 0.68813 0.63279 0.32958
 N78 N 0.34556 0.56165 0.41818
 N79 N 0.29428 0.61011 0.41182
 N80 N 0.40553 0.43406 0.35281
 N81 N 0.38696 0.39236 0.29175
 N82 N 0.34426 0.43444 0.41600
 N83 N 0.28299 0.39293 0.40016
 N84 N 0.40715 0.56157 0.35524
 N85 N 0.39935 0.61008 0.30443
 Mn86 Mn 0.34422 0.49743 0.51349
 Mn87 Mn 0.50316 0.49724 0.35250
 Cl88 Cl 0.50339 0.49688 0.51248
 C89 C 0.32815 0.63969 0.34013
 C90 C 0.31058 0.36675 0.32277
 C91 C 0.25322 0.24128 0.15974
 C92 C 0.19132 0.20722 0.20846
 C93 C 0.15397 0.23407 0.28598
 C94 C 0.18898 0.28857 0.32048
 C95 C 0.26168 0.31723 0.27781
 C96 C 0.28730 0.29520 0.19346
 C97 C 0.37782 0.28243 0.15632
 C98 C 0.34061 0.22351 0.11899
 H99 H 0.10234 0.21096 0.32357
 H100 H 0.16354 0.30556 0.38383
 H101 H 0.42673 0.27561 0.21074
 H102 H 0.39757 0.31528 0.10366
 H103 H 0.37013 0.18254 0.15037
 H104 H 0.33787 0.22257 0.04459
 C105 C 0.73410 0.76366 0.17428
 C106 C 0.80161 0.79541 0.21892
 C107 C 0.84243 0.76699 0.29269
 C108 C 0.80788 0.71241 0.32686
 C109 C 0.73202 0.68525 0.28773
 C110 C 0.70023 0.70993 0.20780
 C111 C 0.60749 0.72482 0.17885
 C112 C 0.64453 0.78393 0.14232
 H113 H 0.89791 0.78836 0.32686
 H114 H 0.83757 0.69343 0.38656
 H115 H 0.56071 0.73124 0.23621
 H116 H 0.58396 0.69347 0.12543
 H117 H 0.61958 0.82468 0.17877
 H118 H 0.64149 0.78668 0.06803
 C119 C 0.71946 0.22142 0.83745
 C120 C 0.79529 0.19406 0.80001
 C121 C 0.84208 0.22601 0.73318
 C122 C 0.80839 0.28103 0.69972
 C123 C 0.72712 0.30501 0.73241
 C124 C 0.68638 0.27577 0.80472
 C125 C 0.59173 0.25582 0.81536
 C126 C 0.62779 0.19602 0.84976
 H127 H 0.90260 0.20740 0.70425
 H128 H 0.84393 0.30330 0.64586
 H129 H 0.55613 0.25161 0.75031
 H130 H 0.55614 0.28260 0.86773
 H131 H 0.61414 0.15717 0.80407
 H132 H 0.61128 0.18784 0.92115
 C133 C 0.17192 0.76920 0.73768
 C134 C 0.21058 0.79767 0.81231
 C135 C 0.28077 0.76667 0.85594
 C136 C 0.31472 0.71186 0.82125
 C137 C 0.28019 0.68698 0.74152
 C138 C 0.20572 0.71509 0.70340
 C139 C 0.19177 0.73436 0.60885
 C140 C 0.15617 0.79381 0.64590
 H141 H 0.31207 0.78565 0.91497
 H142 H 0.37066 0.69061 0.85462
 H143 H 0.13974 0.70673 0.57489
 H144 H 0.25555 0.73931 0.57113
 H145 H 0.08429 0.80093 0.63176
 H146 H 0.19975 0.83319 0.63037
 C147 C 0.19307 0.21066 0.70750
 C148 C 0.22834 0.18406 0.78464
 C149 C 0.30672 0.20962 0.82090
 C150 C 0.34132 0.26417 0.78692
 C151 C 0.29878 0.29408 0.71554
 C152 C 0.22761 0.26429 0.67359
 C153 C 0.13713 0.28731 0.64905
 C154 C 0.09936 0.22873 0.68652
 H155 H 0.33877 0.18928 0.87833
 H156 H 0.39848 0.28439 0.81954
 H157 H 0.12885 0.29127 0.57530
 H158 H 0.11729 0.32815 0.68833
 H159 H 0.06903 0.19911 0.63441
 H160 H 0.05811 0.23561 0.74786
 C161 C 0.80982 0.78383 0.71110
 C162 C 0.77635 0.80978 0.79041
 C163 C 0.69800 0.78345 0.82687
 C164 C 0.66320 0.72907 0.79150
 C165 C 0.70555 0.69965 0.71883
 C166 C 0.77535 0.73039 0.67635
 C167 C 0.86489 0.70897 0.64530
 C168 C 0.90269 0.76777 0.68294
 H169 H 0.66583 0.80280 0.88556
 H170 H 0.60590 0.70869 0.82395
 H171 H 0.86927 0.70598 0.57103
 H172 H 0.88809 0.66804 0.68168
 H173 H 0.92758 0.79875 0.63006
 H174 H 0.94841 0.76099 0.74067
 C175 C 0.30079 0.78152 0.20192
 C176 C 0.22661 0.80986 0.24134
 C177 C 0.19312 0.78535 0.32175
 C178 C 0.22745 0.73054 0.35535
 C179 C 0.29606 0.69926 0.30943
 C180 C 0.33452 0.72742 0.23501
 C181 C 0.35086 0.70271 0.14307
 C182 C 0.31491 0.76210 0.10702
 H183 H 0.13775 0.80685 0.35640
 H184 H 0.19747 0.71133 0.41476
 H185 H 0.30764 0.66316 0.12713
 H186 H 0.42295 0.69591 0.12879
 H187 H 0.25116 0.75698 0.06962
 H188 H 0.36683 0.78982 0.07315
 C189 C 0.73518 0.23123 0.16793
 C190 C 0.80718 0.20130 0.20823
 C191 C 0.85163 0.23222 0.27852
 C192 C 0.81696 0.28692 0.31367
 C193 C 0.73743 0.31195 0.27932
 C194 C 0.70142 0.28513 0.20260
 C195 C 0.60749 0.26688 0.18480
 C196 C 0.64394 0.20816 0.14631
 H197 H 0.91026 0.21285 0.30980
 H198 H 0.84950 0.30753 0.37091
 H199 H 0.57535 0.29624 0.13388
 H200 H 0.56959 0.26036 0.24816
 H201 H 0.63331 0.20377 0.07309
 H202 H 0.62518 0.16765 0.18616
   
