data_POSCAR
  _audit_creation_date              2014-09-24
  _audit_creation_method            'ToBaCCo'
  _symmetry_space_group_name_H-M    'P1'
  _symmetry_Int_Tables_number       1
  _symmetry_cell_setting            triclinic
  loop_
  _symmetry_equiv_pos_as_xyz
 x,y,z
_cell_length_a 22.3573
_cell_length_b 22.1580
_cell_length_c 61.8566
_cell_angle_alpha 90.025700
_cell_angle_beta 89.797600
_cell_angle_gamma 120.007300
loop_
  _atom_site_label
  _atom_site_type_symbol
  _atom_site_fract_x
  _atom_site_fract_y
  _atom_site_fract_z
C1 C -0.06822 -0.07847 0.48261
 C2 C -0.02334 -0.04200 0.49962
 C3 C -0.01481 -0.07849 0.51668
 C4 C -0.05120 -0.15184 0.51717
 C5 C -0.09593 -0.18754 0.49978
 C6 C -0.10500 -0.15184 0.48229
 C7 C 0.01494 0.03486 0.49957
 C8 C 0.00858 0.07162 0.51705
 C9 C 0.04481 0.14471 0.51716
 C10 C 0.08796 0.18077 0.49958
 C11 C 0.09497 0.14457 0.48199
 C12 C 0.05801 0.07147 0.48208
 H13 H -0.07218 -0.04884 0.46934
 H14 H 0.01872 -0.04887 0.52990
 H15 H -0.02443 0.04320 0.53060
 H16 H 0.06261 0.04294 0.46855
 H17 H -0.12400 -0.24378 0.49985
 H18 H 0.11626 0.23724 0.49959
 C19 C 1.07614 0.01254 0.14873
 C20 C 1.03914 0.01989 0.16592
 C21 C 1.07466 0.06434 0.18316
 C22 C 1.14691 0.10173 0.18334
 C23 C 1.18353 0.09432 0.16602
 C24 C 1.14904 0.04960 0.14844
 C25 C 0.96297 -0.01884 0.16584
 C26 C 0.92636 -0.06221 0.18330
 C27 C 0.85391 -0.09898 0.18342
 C28 C 0.81836 -0.09157 0.16587
 C29 C 0.85440 -0.04814 0.14830
 C30 C 0.92685 -0.01207 0.14838
 H31 H 1.04730 -0.02074 0.13535
 H32 H 1.04595 0.06946 0.19650
 H33 H 0.95437 -0.06702 0.19684
 H34 H 0.95523 0.02129 0.13488
 H35 H 1.23933 0.12207 0.16684
 H36 H 0.76239 -0.11965 0.16589
 C37 C 0.06527 0.98887 0.85205
 C38 C 0.02194 0.98246 0.83478
 C39 C 0.01365 0.93825 0.81747
 C40 C 0.04813 0.90016 0.81728
 C41 C 0.09112 0.90658 0.83469
 C42 C 0.10070 0.95108 0.85234
 C43 C -0.01492 1.02211 0.83482
 C44 C -0.00622 1.06668 0.81756
 C45 C -0.04109 1.10438 0.81740
 C46 C -0.08480 1.09725 0.83477
 C47 C -0.09485 1.05236 0.85235
 C48 C -0.05900 1.01498 0.85205
 H49 H 0.06928 1.02204 0.86547
 H50 H -0.01935 0.93392 0.80406
 H51 H 0.02728 1.07148 0.80416
 H52 H -0.06340 0.98148 0.86542
 H53 H 0.11890 0.87830 0.83387
 H54 H -0.11288 1.12522 0.83395
 O55 O 0.58665 0.06012 -0.02122
 O56 O 0.47412 0.05941 0.02138
 O57 O 0.58640 0.05187 0.02093
 O58 O 0.46668 0.05201 -0.02082
 O59 O 0.41267 -0.06286 -0.02078
 O60 O 0.52719 -0.06298 0.02074
 O61 O 0.41466 -0.05547 0.02147
 O62 O 0.53275 -0.05476 -0.02137
 Cu63 Cu 0.53399 0.06715 0.00009
 Cu64 Cu 0.46617 -0.07033 0.00002
 C65 C 0.57956 0.00379 -0.02875
 C66 C 0.42560 0.00285 0.02891
 C67 C 0.57623 -0.00654 0.02806
 C68 C 0.41969 -0.00637 -0.02814
 O69 O -0.05851 0.52762 0.64593
 O70 O -0.05723 0.41413 0.68806
 O71 O -0.05045 0.53478 0.68812
 O72 O -0.05051 0.41472 0.64595
 O73 O 0.06332 0.47420 0.64605
 O74 O 0.06338 0.59107 0.68735
 O75 O 0.05661 0.47031 0.68822
 O76 O 0.05535 0.58736 0.64518
 Cu77 Cu -0.06538 0.46718 0.66706
 Cu78 Cu 0.07089 0.53650 0.66669
 C79 C -0.00277 0.57619 0.63806
 C80 C -0.00107 0.42207 0.69550
 C81 C 0.00741 0.58342 0.69502
 C82 C 0.00729 0.42486 0.63873
 O83 O 0.40878 0.47453 0.35371
 O84 O 0.52565 0.59081 0.31240
 O85 O 0.41244 0.47021 0.31157
 O86 O 0.52933 0.58727 0.35459
 O87 O 0.58333 0.52690 0.35419
 O88 O 0.47021 0.41366 0.31204
 O89 O 0.58329 0.53411 0.31200
 O90 O 0.46302 0.41444 0.35411
 Cu91 Cu 0.46359 0.53651 0.33305
 Cu92 Cu 0.53053 0.46661 0.33307
 C93 C 0.41534 0.42495 0.36117
 C94 C 0.57407 0.58288 0.30492
 C95 C 0.42217 0.42176 0.30445
 C96 C 0.57600 0.57577 0.36188
 C97 C 0.02717 0.25989 0.57005
 C98 C 0.09268 0.27865 0.56164
 C99 C 0.09795 0.24042 0.54446
 C100 C 0.03839 0.18364 0.53568
 C101 C -0.02695 0.16490 0.54445
 C102 C -0.03286 0.20319 0.56161
 C103 C 0.02140 0.30084 0.58791
 C104 C -0.04406 0.28301 0.59617
 C105 C -0.04911 0.32312 0.61297
 C106 C 0.01092 0.38041 0.62145
 C107 C 0.07603 0.39676 0.61300
 C108 C 0.08156 0.35748 0.59624
 C109 C -0.09748 0.18648 0.57037
 C110 C -0.10299 0.22575 0.58733
 C111 C 0.15166 0.33552 0.57052
 C112 C 0.14620 0.37424 0.58755
 H113 H -0.14423 0.14287 0.56401
 H114 H -0.15382 0.21127 0.59353
 H115 H 0.20245 0.35038 0.56419
 H116 H 0.19296 0.41790 0.59390
 H117 H 0.14841 0.25450 0.53798
 H118 H -0.07306 0.12155 0.53764
 H119 H -0.09942 0.31003 0.61933
 H120 H 0.12271 0.44070 0.61930
 C121 C 0.73891 0.76793 0.23627
 C122 C 0.79515 0.76396 0.22778
 C123 C 0.83344 0.80829 0.21065
 C124 C 0.81511 0.85560 0.20193
 C125 C 0.75879 0.85901 0.21077
 C126 C 0.72060 0.81542 0.22794
 C127 C 0.69798 0.72109 0.25411
 C128 C 0.64183 0.72529 0.26250
 C129 C 0.60260 0.68042 0.27924
 C130 C 0.61847 0.63089 0.28763
 C131 C 0.67524 0.62743 0.27909
 C132 C 0.71533 0.67268 0.26230
 C133 C 0.66421 0.81818 0.23686
 C134 C 0.62552 0.77392 0.25388
 C135 C 0.81141 0.71530 0.23649
 C136 C 0.77213 0.67038 0.25342
 H137 H 0.64970 0.85470 0.23059
 H138 H 0.58223 0.77754 0.26026
 H139 H 0.85465 0.71164 0.23008
 H140 H 0.78626 0.63345 0.25956
 H141 H 0.87644 0.80506 0.20380
 H142 H 0.74502 0.89593 0.20434
 H143 H 0.55905 0.68372 0.28557
 H144 H 0.68797 0.58963 0.28540
 C145 C 0.23496 -0.02935 -0.09645
 C146 C 0.22623 0.02734 -0.10160
 C147 C 0.18083 0.02048 -0.11832
 C148 C 0.14493 -0.04237 -0.13025
 C149 C 0.15477 -0.09864 -0.12453
 C150 C 0.19921 -0.09249 -0.10772
 C151 C 0.28258 -0.02255 -0.07894
 C152 C 0.29027 -0.07983 -0.07367
 C153 C 0.33508 -0.07354 -0.05702
 C154 C 0.37291 -0.01034 -0.04567
 C155 C 0.36523 0.04708 -0.05125
 C156 C 0.31954 0.04099 -0.06783
 C157 C 0.20841 -0.14861 -0.10196
 C158 C 0.25307 -0.14243 -0.08518
 C159 C 0.26377 0.09006 -0.09008
 C160 C 0.30974 0.09683 -0.07354
 H161 H 0.18089 -0.19773 -0.11050
 H162 H 0.25870 -0.18697 -0.08124
 H163 H 0.25775 0.13442 -0.09393
 H164 H 0.33772 0.14614 -0.06513
 H165 H 0.17647 0.06550 -0.12259
 H166 H 0.12595 -0.14860 -0.13250
 H167 H 0.34092 -0.11796 -0.05304
 H168 H 0.39397 0.09582 -0.04258
 C169 C -0.02879 0.73515 0.56880
 C170 C 0.02720 0.80021 0.56305
 C171 C 0.01946 0.83819 0.54617
 C172 C -0.04361 0.81100 0.53468
 C173 C -0.09918 0.74534 0.54103
 C174 C -0.09211 0.70760 0.55798
 C175 C -0.02112 0.69497 0.58651
 C176 C -0.07773 0.63043 0.59238
 C177 C -0.07065 0.59257 0.60923
 C178 C -0.00739 0.61817 0.62022
 C179 C 0.04936 0.68279 0.61402
 C180 C 0.04251 0.72174 0.59721
 C181 C -0.14752 0.64273 0.56434
 C182 C -0.14048 0.60483 0.58129
 C183 C 0.09008 0.82559 0.57416
 C184 C 0.09765 0.78697 0.59090
 H185 H -0.19676 0.62101 0.55615
 H186 H -0.18450 0.55499 0.58571
 H187 H 0.13390 0.87568 0.56985
 H188 H 0.14702 0.80845 0.59899
 H189 H 0.06384 0.88730 0.54144
 H190 H -0.14930 0.72423 0.53347
 H191 H -0.11458 0.54265 0.61369
 H192 H 0.09815 0.70298 0.62241
 C193 C 0.25972 0.23582 0.23600
 C194 C 0.27773 0.18750 0.22815
 C195 C 0.24006 0.14346 0.21110
 C196 C 0.18469 0.14735 0.20185
 C197 C 0.16653 0.19540 0.21010
 C198 C 0.20425 0.24014 0.22715
 C199 C 0.30018 0.28315 0.25372
 C200 C 0.28309 0.33230 0.26147
 C201 C 0.32264 0.37786 0.27819
 C202 C 0.37864 0.37401 0.28707
 C203 C 0.39433 0.32385 0.27908
 C204 C 0.35558 0.27861 0.26244
 C205 C 0.18826 0.28958 0.23540
 C206 C 0.22703 0.33490 0.25224
 C207 C 0.33335 0.18440 0.23741
 C208 C 0.37161 0.22918 0.25429
 H209 H 0.14562 0.29352 0.22871
 H210 H 0.21311 0.37240 0.25804
 H211 H 0.34761 0.14725 0.23151
 H212 H 0.41432 0.22529 0.26095
 H213 H 0.25360 0.10589 0.20505
 H214 H 0.12416 0.19887 0.20294
 H215 H 0.31005 0.41613 0.28420
 H216 H 0.43723 0.32015 0.28568
 C217 C 0.76735 0.02990 -0.09689
 C218 C 0.80325 0.09339 -0.10804
 C219 C 0.84900 0.10055 -0.12465
 C220 C 0.85989 0.04489 -0.13035
 C221 C 0.82382 -0.01834 -0.11853
 C222 C 0.77721 -0.02617 -0.10198
 C223 C 0.71847 0.02208 -0.07956
 C224 C 0.68157 -0.04173 -0.06852
 C225 C 0.63497 -0.04866 -0.05202
 C226 C 0.62635 0.00823 -0.04645
 C227 C 0.66392 0.07162 -0.05780
 C228 C 0.70969 0.07877 -0.07435
 C229 C 0.73957 -0.08925 -0.09057
 C230 C 0.69248 -0.09694 -0.07417
 C231 C 0.79289 0.14887 -0.10235
 C232 C 0.74697 0.14171 -0.08575
 H233 H 0.74645 -0.13313 -0.09437
 H234 H 0.66456 -0.14646 -0.06581
 H235 H 0.82048 0.19825 -0.11080
 H236 H 0.74051 0.18580 -0.08185
 H237 H 0.87792 0.15081 -0.13250
 H238 H 0.82898 -0.06292 -0.12277
 H239 H 0.60647 -0.09753 -0.04334
 H240 H 0.65736 0.11563 -0.05382
 C241 C 0.26427 0.02765 0.09750
 C242 C 0.19879 -0.02841 0.10259
 C243 C 0.16007 -0.02079 0.11923
 C244 C 0.18686 0.04222 0.13111
 C245 C 0.25299 0.09786 0.12541
 C246 C 0.29152 0.09091 0.10872
 C247 C 0.30524 0.02010 0.08005
 C248 C 0.37023 0.07681 0.07483
 C249 C 0.40874 0.06996 0.05817
 C250 C 0.38328 0.00684 0.04672
 C251 C 0.31825 -0.05010 0.05229
 C252 C 0.27868 -0.04346 0.06891
 C253 C 0.35690 0.14640 0.10302
 C254 C 0.39557 0.13950 0.08633
 C255 C 0.17370 -0.09124 0.09108
 C256 C 0.21300 -0.09869 0.07458
 H257 H 0.37841 0.19560 0.11154
 H258 H 0.44576 0.18360 0.08242
 H259 H 0.12328 -0.13513 0.09489
 H260 H 0.19168 -0.14802 0.06615
 H261 H 0.11063 -0.06535 0.12346
 H262 H 0.27404 0.14798 0.13331
 H263 H 0.45895 0.11400 0.05420
 H264 H 0.29817 -0.09876 0.04354
 C265 C 0.75998 0.73493 0.43090
 C266 C 0.76907 0.80033 0.43644
 C267 C 0.81467 0.83840 0.45324
 C268 C 0.85041 0.81096 0.46485
 C269 C 0.84030 0.74497 0.45869
 C270 C 0.79560 0.70713 0.44184
 C271 C 0.71226 0.69465 0.41328
 C272 C 0.70430 0.62976 0.40763
 C273 C 0.65956 0.59184 0.39084
 C274 C 0.62215 0.61774 0.37971
 C275 C 0.63001 0.68270 0.38570
 C276 C 0.67560 0.72170 0.40244
 C277 C 0.78610 0.64191 0.43569
 C278 C 0.74129 0.60391 0.41884
 C279 C 0.73174 0.82596 0.42521
 C280 C 0.68571 0.78728 0.40855
 H281 H 0.81351 0.61999 0.44398
 H282 H 0.73545 0.55380 0.41458
 H283 H 0.73804 0.87632 0.42935
 H284 H 0.65797 0.80898 0.40035
 H285 H 0.81943 0.88778 0.45782
 H286 H 0.86922 0.72364 0.46633
 H287 H 0.65358 0.54167 0.38655
 H288 H 0.60160 0.70312 0.37720
 C289 C -0.02183 0.23736 0.76437
 C290 C 0.03808 0.24188 0.77317
 C291 C 0.03174 0.19752 0.79035
 C292 C -0.03391 0.14970 0.79879
 C293 C -0.09329 0.14562 0.78960
 C294 C -0.08760 0.18925 0.77241
 C295 C -0.01567 0.28427 0.74652
 C296 C -0.07573 0.27954 0.73785
 C297 C -0.06991 0.32444 0.72110
 C298 C -0.00463 0.37446 0.71294
 C299 C 0.05534 0.37847 0.72175
 C300 C 0.05000 0.33324 0.73859
 C301 C -0.14645 0.18594 0.76320
 C302 C -0.14062 0.23031 0.74619
 C303 C 0.10294 0.29111 0.76473
 C304 C 0.10880 0.33605 0.74776
 H305 H -0.19743 0.14893 0.76925
 H306 H -0.18730 0.22628 0.73958
 H307 H 0.14960 0.29520 0.77137
 H308 H 0.15980 0.37342 0.74182
 H309 H 0.07766 0.20111 0.79745
 H310 H -0.14397 0.10819 0.79579
 H311 H -0.11658 0.32063 0.71455
 H312 H 0.10577 0.41665 0.71561
 C313 C 0.74028 -0.02861 0.09592
 C314 C 0.72141 -0.09493 0.10412
 C315 C 0.75941 -0.10081 0.12110
 C316 C 0.81605 -0.04106 0.12989
 C317 C 0.83497 0.02511 0.12130
 C318 C 0.79691 0.03164 0.10435
 C319 C 0.69950 -0.02219 0.07830
 C320 C 0.71743 0.04408 0.07024
 C321 C 0.67752 0.04971 0.05365
 C322 C 0.62033 -0.01056 0.04519
 C323 C 0.60386 -0.07647 0.05345
 C324 C 0.64293 -0.08258 0.06999
 C325 C 0.81372 0.09707 0.09578
 C326 C 0.77463 0.10319 0.07905
 C327 C 0.66461 -0.15411 0.09527
 C328 C 0.62607 -0.14804 0.07847
 H329 H 0.85727 0.14400 0.10215
 H330 H 0.78920 0.15464 0.07301
 H331 H 0.64967 -0.20552 0.10144
 H332 H 0.58245 -0.19498 0.07213
 H333 H 0.74517 -0.15189 0.12744
 H334 H 0.87821 0.07137 0.12812
 H335 H 0.69071 0.10062 0.04743
 H336 H 0.56001 -0.12336 0.04718
 C337 C 0.22891 0.25983 0.42940
 C338 C 0.23161 0.20243 0.43782
 C339 C 0.18697 0.16405 0.45486
 C340 C 0.14056 0.18340 0.46353
 C341 C 0.13839 0.24085 0.45476
 C342 C 0.18234 0.27918 0.43769
 C343 C 0.27614 0.30090 0.41168
 C344 C 0.27325 0.35824 0.40336
 C345 C 0.31848 0.39759 0.38673
 C346 C 0.36703 0.38060 0.37838
 C347 C 0.36918 0.32265 0.38686
 C348 C 0.32360 0.28248 0.40353
 C349 C 0.18087 0.33674 0.42884
 C350 C 0.22552 0.37558 0.41194
 C351 C 0.27937 0.18514 0.42917
 C352 C 0.32462 0.22452 0.41235
 H353 H 0.14508 0.35207 0.43508
 H354 H 0.22291 0.41978 0.40561
 H355 H 0.28203 0.14100 0.43553
 H356 H 0.36082 0.20957 0.40623
 H357 H 0.18928 0.12020 0.46167
 H358 H 0.10219 0.25543 0.46116
 H359 H 0.31620 0.44204 0.38044
 H360 H 0.40622 0.30906 0.38057
 C361 C 0.02883 0.76796 0.76403
 C362 C -0.03101 0.76355 0.77299
 C363 C -0.02462 0.80760 0.79026
 C364 C 0.04102 0.85498 0.79865
 C365 C 0.10035 0.85887 0.78934
 C366 C 0.09461 0.81560 0.77203
 C367 C 0.02259 0.72140 0.74606
 C368 C 0.08257 0.72601 0.73721
 C369 C 0.07663 0.68131 0.72037
 C370 C 0.01129 0.63151 0.71234
 C371 C -0.04858 0.62770 0.72131
 C372 C -0.04312 0.67279 0.73821
 C373 C 0.15339 0.81883 0.76264
 C374 C 0.14748 0.77482 0.74550
 C375 C -0.09589 0.71475 0.76460
 C376 C -0.10184 0.67008 0.74755
 H377 H 0.20438 0.85548 0.76865
 H378 H 0.19411 0.77876 0.73876
 H379 H -0.14250 0.71076 0.77137
 H380 H -0.15286 0.63298 0.74167
 H381 H -0.07050 0.80414 0.79746
 H382 H 0.15102 0.89594 0.79551
 H383 H 0.12321 0.68491 0.71370
 H384 H -0.09906 0.58968 0.71528
   
