data_POSCAR
  _audit_creation_date              2014-09-24
  _audit_creation_method            'ToBaCCo'
  _symmetry_space_group_name_H-M    'P1'
  _symmetry_Int_Tables_number       1
  _symmetry_cell_setting            triclinic
  loop_
  _symmetry_equiv_pos_as_xyz
 x,y,z
_cell_length_a 11.3061
_cell_length_b 11.3073
_cell_length_c 11.3077
_cell_angle_alpha 90.640600
_cell_angle_beta 89.972400
_cell_angle_gamma 90.038900
loop_
  _atom_site_label
  _atom_site_type_symbol
  _atom_site_fract_x
  _atom_site_fract_y
  _atom_site_fract_z
C1 C 0.48064 1.03784 -0.73448
 C2 C 0.36940 0.99311 -0.69573
 C3 C 0.37139 0.90256 -0.61428
 C4 C 0.48042 0.86189 -0.56687
 C5 C 0.58838 0.89668 -0.61997
 C6 C 0.59084 0.98720 -0.70107
 C7 C 0.48345 0.81665 -0.44371
 C8 C 0.58715 0.85145 -0.38374
 C9 C 0.59013 0.96635 -0.33589
 C10 C 0.47879 1.02222 -0.31570
 C11 C 0.37074 0.95880 -0.33433
 C12 C 0.37958 0.84405 -0.38121
 H13 H 0.48100 1.10863 -0.79849
 H14 H 0.28784 0.86615 -0.58485
 H15 H 0.67122 0.85635 -0.59417
 H16 H 0.66859 0.80229 -0.39597
 H17 H 0.47656 1.10664 -0.26932
 H18 H 0.30080 0.79058 -0.39294
 C19 C -0.73500 1.51833 -0.03532
 C20 C -0.69944 1.40845 0.01405
 C21 C -0.61680 1.41202 0.10410
 C22 C -0.56463 1.52087 0.13968
 C23 C -0.61465 1.62909 0.10090
 C24 C -0.69713 1.62995 0.01044
 C25 C -0.44020 1.52026 0.18276
 C26 C -0.37959 1.62420 0.15306
 C27 C -0.33533 1.63097 0.03770
 C28 C -0.31663 1.52159 -0.02440
 C29 C -0.33444 1.41152 0.03318
 C30 C -0.37993 1.41656 0.14850
 H31 H -0.79986 1.51723 -0.10603
 H32 H -0.58917 1.32952 0.14332
 H33 H -0.58575 1.71301 0.13808
 H34 H -0.39067 1.70397 0.20582
 H35 H -0.27173 1.52214 -0.10914
 H36 H -0.39050 1.33605 0.19859
 C37 C -0.01886 0.30807 0.47999
 C38 C 0.04029 0.32838 0.36999
 C39 C 0.15166 0.38206 0.37549
 C40 C 0.18232 0.44143 0.48126
 C41 C 0.15100 0.38093 0.58521
 C42 C 0.03770 0.33111 0.59015
 C43 C 0.14160 0.56647 0.48238
 C44 C 0.10183 0.61669 0.59050
 C45 C 0.00863 0.69591 0.59209
 C46 C -0.04233 0.72753 0.48150
 C47 C 0.00762 0.69152 0.37157
 C48 C 0.10518 0.61775 0.37457
 H49 H -0.10261 0.26119 0.48010
 H50 H 0.20134 0.39741 0.29512
 H51 H 0.20023 0.39560 0.66629
 H52 H 0.14087 0.59068 0.67374
 H53 H -0.11437 0.79084 0.48060
 H54 H 0.14670 0.59292 0.29156
 O55 O -0.33265 1.02229 -0.15873
 O56 O 0.29500 1.01700 -0.15905
 O57 O -0.01911 1.15617 -0.33165
 O58 O -0.03858 0.87093 -0.33152
 O59 O 0.00018 0.72660 -0.19608
 O60 O 0.00222 1.30685 -0.19444
 O61 O 0.15473 0.98495 -0.30491
 O62 O -0.19564 1.00163 -0.30847
 Zr63 Zr -0.02094 1.01340 -0.22391
 O64 O 0.08996 0.90992 -0.12444
 O65 O -0.12637 1.12740 -0.12668
 C66 C -0.30490 1.00401 -0.26661
 C67 C 0.26503 0.99167 -0.26492
 C68 C 0.00046 1.26389 -0.30390
 C69 C -0.01375 0.76489 -0.30559
 H70 H 0.14564 1.16458 -0.17514
 O71 O 0.09074 1.11919 -0.12495
 H72 H -0.17792 0.85621 -0.16783
 O73 O -0.12674 0.91010 -0.12120
 O74 O 0.29236 1.03706 0.13070
 O75 O -0.33113 1.03971 0.12713
 O76 O 0.12778 1.33074 -0.03601
 O77 O 0.12907 0.70706 -0.03613
 O78 O -0.16179 0.70597 -0.02335
 O79 O -0.15637 1.33357 -0.01790
 O80 O -0.03028 1.16164 0.29551
 O81 O -0.02764 0.87131 0.29374
 O82 O 0.02125 1.30168 0.15815
 O83 O -0.01036 0.72215 0.15375
 O84 O 0.27227 1.19507 0.00471
 O85 O -0.30754 1.19751 -0.00312
 O86 O -0.30609 0.84695 0.01162
 O87 O 0.27710 0.84312 -0.00245
 O88 O 0.15569 1.00709 0.27823
 O89 O -0.19641 0.99449 0.27098
 Zr90 Zr 0.18972 1.01789 -0.01431
 Zr91 Zr -0.22431 1.02233 -0.01494
 Zr92 Zr -0.01323 1.22396 -0.01956
 Zr93 Zr -0.01662 0.81030 -0.01966
 Zr94 Zr -0.01957 1.01606 0.19042
 O95 O -0.12556 0.91069 0.08850
 O96 O 0.08920 1.12422 0.09191
 C97 C 0.26585 1.01720 0.23797
 C98 C -0.30591 1.01056 0.23220
 C99 C 0.23345 1.30495 -0.00914
 C100 C 0.23648 0.73319 -0.01411
 C101 C -0.26688 0.73638 0.00347
 C102 C -0.26483 1.30643 -0.00321
 C103 C 0.00598 1.26440 0.26836
 C104 C -0.01559 0.76299 0.26425
 H105 H -0.16732 1.17852 0.14391
 O106 O -0.12046 1.12711 0.09044
 H107 H 0.13799 0.86023 0.14006
 O108 O 0.08841 0.91054 0.08953
   
