data_POSCAR
  _audit_creation_date              2014-09-24
  _audit_creation_method            'ToBaCCo'
  _symmetry_space_group_name_H-M    'P1'
  _symmetry_Int_Tables_number       1
  _symmetry_cell_setting            triclinic
  loop_
  _symmetry_equiv_pos_as_xyz
 x,y,z
_cell_length_a 39.4723
_cell_length_b 39.4637
_cell_length_c 36.7794
_cell_angle_alpha 90.078500
_cell_angle_beta 90.070200
_cell_angle_gamma 120.141800
loop_
  _atom_site_label
  _atom_site_type_symbol
  _atom_site_fract_x
  _atom_site_fract_y
  _atom_site_fract_z
C1 C 0.52275 0.05880 0.04894
 H2 H 0.55037 0.05951 0.04604
 C3 C 0.52065 0.08697 0.07014
 H4 H 0.54688 0.10906 0.08371
 C5 C 0.45550 0.02962 0.03360
 H6 H 0.43045 0.00774 0.01861
 C7 C 0.45202 0.05723 0.05473
 H8 H 0.42405 0.05608 0.05599
 N9 N 0.49055 0.03097 0.03112
 C10 C 0.51673 -0.06209 0.00920
 H11 H 0.51479 -0.06352 -0.02016
 C12 C 0.52360 -0.08863 0.02833
 H13 H 0.52714 -0.11028 0.01335
 C14 C 0.51317 -0.03277 0.06423
 H15 H 0.50823 -0.01156 0.07820
 C16 C 0.52004 -0.05866 0.08443
 H17 H 0.52066 -0.05667 0.11381
 Zn18 Zn 0.49889 -0.00227 -0.00005
 N19 N 0.51169 -0.03489 0.02731
 C20 C 0.57433 0.03006 -0.03359
 N21 N 0.54052 0.03118 -0.03108
 C22 C 0.53605 0.05889 -0.04877
 C23 C 0.56633 0.08717 -0.06986
 C24 C 0.60544 0.05779 -0.05462
 C25 C 0.42122 -0.06253 -0.00956
 C26 C 0.38780 -0.08931 -0.02875
 C27 C 0.42127 -0.05906 -0.08476
 C28 C 0.45401 -0.03299 -0.06442
 N29 N 0.45342 -0.03515 -0.02754
 H30 H 0.57759 0.00829 -0.01870
 H31 H 0.50904 0.05941 -0.04585
 H32 H 0.56211 0.10915 -0.08333
 H33 H 0.63234 0.05681 -0.05590
 H34 H 0.42177 -0.06393 0.01980
 H35 H 0.36283 -0.11092 -0.01346
 H36 H 0.42304 -0.05659 -0.11411
 H37 H 0.48014 -0.01155 -0.07828
 C38 C 0.52504 -0.08732 0.06652
 C39 C 0.48504 0.08671 0.07300
 C40 C 0.38741 -0.08826 -0.06712
 C41 C 0.60179 0.08713 -0.07275
 C42 C -0.06000 0.47631 0.61824
 H43 H -0.06067 0.44870 0.62119
 C44 C -0.08821 0.47833 0.59706
 H45 H -0.11030 0.45205 0.58355
 C46 C -0.03084 0.54361 0.63345
 H47 H -0.00896 0.56871 0.64837
 C48 C -0.05850 0.54701 0.61233
 H49 H -0.05736 0.57497 0.61102
 N50 N -0.03216 0.50857 0.63599
 C51 C 0.06103 0.48260 0.65792
 H52 H 0.06251 0.48464 0.68728
 C53 C 0.08755 0.47571 0.63880
 H54 H 0.10924 0.47224 0.65378
 C55 C 0.03160 0.48595 0.60288
 H56 H 0.01034 0.49081 0.58891
 C57 C 0.05747 0.47905 0.58270
 H58 H 0.05543 0.47833 0.55332
 Zn59 Zn 0.00118 0.50038 0.66715
 N60 N 0.03378 0.48755 0.63981
 C61 C -0.03100 0.42503 0.70084
 N62 N -0.03215 0.45883 0.69831
 C63 C -0.05982 0.46332 0.71605
 C64 C -0.08801 0.43307 0.73723
 C65 C -0.05864 0.39395 0.72195
 C66 C 0.06138 0.57815 0.67638
 C67 C 0.08811 0.61168 0.69549
 C68 C 0.05809 0.57841 0.75159
 C69 C 0.03201 0.54552 0.73141
 N70 N 0.03406 0.54597 0.69450
 H71 H -0.00926 0.42174 0.68591
 H72 H -0.06037 0.49031 0.71311
 H73 H -0.10997 0.43730 0.75074
 H74 H -0.05765 0.36706 0.72326
 H75 H 0.06274 0.57749 0.64703
 H76 H 0.10985 0.63681 0.68051
 H77 H 0.05615 0.57719 0.78097
 H78 H 0.01069 0.51941 0.74539
 C79 C 0.08617 0.47414 0.60061
 C80 C -0.08798 0.51393 0.59414
 C81 C 0.08688 0.61200 0.73367
 C82 C -0.08795 0.39762 0.74015
 C83 C 0.53591 0.47593 0.38256
 H84 H 0.50886 0.44831 0.37958
 C85 C 0.56618 0.47803 0.40376
 H86 H 0.56192 0.45181 0.41725
 C87 C 0.57431 0.54317 0.36741
 H88 H 0.57762 0.56821 0.35249
 C89 C 0.60542 0.54665 0.38854
 H90 H 0.63237 0.57461 0.38988
 N91 N 0.54045 0.50812 0.36483
 C92 C 0.42109 0.48189 0.34279
 H93 H 0.42160 0.48378 0.31343
 C94 C 0.38767 0.47504 0.36189
 H95 H 0.36245 0.47146 0.34689
 C96 C 0.45401 0.48557 0.39785
 H97 H 0.48019 0.49055 0.41184
 C98 C 0.42123 0.47873 0.41801
 H99 H 0.42261 0.47817 0.44739
 Zn100 Zn 0.49883 0.49978 0.33363
 N101 N 0.45336 0.48699 0.36092
 C102 C 0.45545 0.42427 0.29983
 N103 N 0.49049 0.45814 0.30243
 C104 C 0.52268 0.46268 0.28472
 C105 C 0.52059 0.43240 0.26352
 C106 C 0.45197 0.39316 0.27869
 C107 C 0.51674 0.57754 0.32444
 C108 C 0.52361 0.61097 0.30534
 C109 C 0.51995 0.57739 0.24922
 C110 C 0.51307 0.54460 0.26940
 N111 N 0.51164 0.54525 0.30632
 H112 H 0.43040 0.42096 0.31474
 H113 H 0.55030 0.48973 0.28772
 H114 H 0.54682 0.43667 0.25004
 H115 H 0.42402 0.36622 0.27734
 H116 H 0.51483 0.57703 0.35380
 H117 H 0.52720 0.63620 0.32033
 H118 H 0.52054 0.57600 0.21985
 H119 H 0.50809 0.51841 0.25541
 C120 C 0.38755 0.47368 0.40007
 C121 C 0.60171 0.51364 0.40671
 C122 C 0.52501 0.61109 0.26715
 C123 C 0.48499 0.39688 0.26054
 C124 C 0.17028 0.46236 0.54079
 N125 N 0.17160 0.46347 0.57768
 N126 N 0.14461 0.46666 0.59668
 C127 C 0.11526 0.46890 0.57957
 N128 N 0.11390 0.46751 0.54264
 N129 N 0.14086 0.46430 0.52363
 C130 C 0.20096 0.46057 0.51977
 N131 N 0.20008 0.46037 0.48286
 N132 N 0.22871 0.46031 0.46376
 C133 C 0.25929 0.46047 0.48087
 N134 N 0.26005 0.46043 0.51778
 N135 N 0.23141 0.46047 0.53688
 C136 C 0.29172 0.46216 0.45985
 N137 N 0.32313 0.46417 0.47703
 N138 N 0.35327 0.46729 0.45802
 C139 C 0.35324 0.46852 0.42110
 N140 N 0.32160 0.46620 0.40397
 N141 N 0.29145 0.46310 0.42296
 C142 C 0.53669 0.82851 0.12637
 N143 N 0.53565 0.82722 0.08948
 N144 N 0.53251 0.85424 0.07047
 C145 C 0.53024 0.88358 0.08757
 N146 N 0.53156 0.88491 0.12450
 N147 N 0.53472 0.85793 0.14352
 C148 C 0.53843 0.79780 0.14740
 N149 N 0.53857 0.79867 0.18431
 N150 N 0.53858 0.77002 0.20342
 C151 C 0.53843 0.73943 0.18632
 N152 N 0.53852 0.73868 0.14941
 N153 N 0.53854 0.76735 0.13030
 C154 C 0.53668 0.70697 0.20735
 N155 N 0.53467 0.67555 0.19018
 N156 N 0.53149 0.64539 0.20919
 C157 C 0.53022 0.64542 0.24612
 N158 N 0.53254 0.67707 0.26323
 N159 N 0.53569 0.70724 0.24423
 C160 C 0.29395 0.82989 0.87458
 N161 N 0.32575 0.85880 0.85747
 N162 N 0.35607 0.88577 0.87654
 C163 C 0.35598 0.88504 0.91356
 N164 N 0.32377 0.85614 0.93052
 N165 N 0.29344 0.82913 0.91146
 C166 C 0.26130 0.79915 0.85351
 N167 N 0.23037 0.76905 0.87058
 N168 N 0.20153 0.74034 0.85145
 C169 C 0.20256 0.74067 0.81454
 N170 N 0.23336 0.77091 0.79747
 N171 N 0.26221 0.79961 0.81660
 C172 C 0.17164 0.70814 0.79350
 N173 N 0.17301 0.70809 0.75663
 N174 N 0.14581 0.67784 0.73762
 C175 C 0.11619 0.64643 0.75471
 N176 N 0.11478 0.64672 0.79162
 N177 N 0.14194 0.67697 0.81064
 C178 C 0.82199 0.51806 0.53701
 N179 N 0.85342 0.55160 0.54933
 N180 N 0.88223 0.55046 0.56725
 C181 C 0.88077 0.51577 0.57339
 N182 N 0.84935 0.48237 0.56083
 N183 N 0.82055 0.48347 0.54306
 C184 C 0.78958 0.51863 0.51791
 N185 N 0.75698 0.48442 0.50897
 N186 N 0.72724 0.48440 0.49187
 C187 C 0.72899 0.51858 0.48295
 N188 N 0.76164 0.55290 0.49181
 N189 N 0.79140 0.55293 0.50908
 C190 C 0.69598 0.51795 0.46385
 N191 N 0.69822 0.55145 0.45156
 N192 N 0.66824 0.55026 0.43363
 C193 C 0.63485 0.51555 0.42747
 N194 N 0.63273 0.48219 0.44001
 N195 N 0.66267 0.48335 0.45778
 C196 C 0.48074 0.17666 0.13016
 N197 N 0.44724 0.14523 0.11777
 N198 N 0.44843 0.11644 0.09983
 C199 C 0.48313 0.11793 0.09376
 N200 N 0.51649 0.14934 0.10638
 N201 N 0.51534 0.17812 0.12417
 C202 C 0.48012 0.20904 0.14926
 N203 N 0.51431 0.24165 0.15826
 N204 N 0.51431 0.27137 0.17538
 C205 C 0.48011 0.26962 0.18426
 N206 N 0.44582 0.23697 0.17534
 N207 N 0.44582 0.20722 0.15806
 C208 C 0.48072 0.30262 0.20336
 N209 N 0.44722 0.30037 0.21563
 N210 N 0.44840 0.33035 0.23357
 C211 C 0.48309 0.36374 0.23977
 N212 N 0.51646 0.36586 0.22726
 N213 N 0.51531 0.33593 0.20948
 C214 C -0.30394 0.17730 0.87031
 N215 N -0.33715 0.17860 0.87639
 N216 N -0.36709 0.14976 0.89411
 C217 C -0.36507 0.11844 0.90658
 N218 N -0.33178 0.11712 0.90041
 N219 N -0.30180 0.14597 0.88254
 C220 C -0.27093 0.20973 0.85125
 N221 N -0.23841 0.20804 0.84238
 N222 N -0.20866 0.23781 0.82513
 C223 C -0.21035 0.27036 0.81634
 N224 N -0.24283 0.27200 0.82530
 N225 N -0.27256 0.24224 0.84238
 C226 C -0.17795 0.30337 0.79725
 N227 N -0.17925 0.33659 0.79123
 N228 N -0.15045 0.36653 0.77346
 C229 C -0.11919 0.36449 0.76089
 N230 N -0.11787 0.33120 0.76701
 N231 N -0.14667 0.30122 0.78492
   
