data_POSCAR
  _audit_creation_date              2014-09-24
  _audit_creation_method            'ToBaCCo'
  _symmetry_space_group_name_H-M    'P1'
  _symmetry_Int_Tables_number       1
  _symmetry_cell_setting            triclinic
  loop_
  _symmetry_equiv_pos_as_xyz
 x,y,z
_cell_length_a 19.7039
_cell_length_b 20.8764
_cell_length_c 44.8630
_cell_angle_alpha 90.144200
_cell_angle_beta 89.927100
_cell_angle_gamma 122.137900
loop_
  _atom_site_label
  _atom_site_type_symbol
  _atom_site_fract_x
  _atom_site_fract_y
  _atom_site_fract_z
C1 C -0.00031 -0.00147 0.51438
 C2 C 0.99729 -0.00161 0.16584
 C3 C 0.00438 1.00473 0.81980
 O4 O 0.59932 0.05906 -0.03651
 O5 O 0.46093 0.05553 0.01954
 O6 O 0.60165 0.06918 0.02103
 O7 O 0.47243 0.06794 -0.03822
 O8 O 0.39946 -0.05696 -0.03696
 O9 O 0.53629 -0.05537 0.01923
 O10 O 0.39549 -0.06906 0.02051
 O11 O 0.52658 -0.06576 -0.03863
 Cu12 Cu 0.54037 0.07529 -0.00841
 Cu13 Cu 0.45767 -0.07416 -0.00893
 C14 C 0.58624 -0.00307 -0.04716
 C15 C 0.40369 -0.00762 0.02938
 C16 C 0.59322 0.00747 0.02952
 C17 C 0.41299 0.00558 -0.04720
 O18 O 0.06394 0.59747 0.69477
 O19 O 0.06301 0.46521 0.64035
 O20 O 0.07262 0.59603 0.63747
 O21 O 0.07390 0.47652 0.69759
 O22 O -0.05812 0.40466 0.69507
 O23 O -0.05930 0.53526 0.64065
 O24 O -0.06901 0.40441 0.63784
 O25 O -0.06797 0.52575 0.69795
 Cu26 Cu 0.08156 0.54044 0.66751
 Cu27 Cu -0.07679 0.46090 0.66792
 C28 C -0.00211 0.58484 0.70526
 C29 C -0.00342 0.41134 0.63019
 C30 C 0.00674 0.58884 0.63014
 C31 C 0.00834 0.41763 0.70522
 O32 O 0.53613 0.59173 0.31304
 O33 O 0.39868 0.45656 0.36926
 O34 O 0.52620 0.59266 0.37090
 O35 O 0.39517 0.46435 0.31176
 O36 O 0.46022 0.40510 0.31290
 O37 O 0.59857 0.54047 0.36903
 O38 O 0.47112 0.40442 0.37069
 O39 O 0.60117 0.53249 0.31148
 Cu40 Cu 0.45732 0.53194 0.34119
 Cu41 Cu 0.53951 0.46502 0.34092
 C42 C 0.59297 0.58577 0.30286
 C43 C 0.41183 0.40745 0.37960
 C44 C 0.58560 0.58962 0.37958
 C45 C 0.40321 0.41101 0.30295
 C46 C -0.01489 0.16760 0.56576
 C47 C -0.06966 0.13129 0.54235
 C48 C -0.06911 0.07347 0.52628
 C49 C -0.01647 0.04954 0.53436
 C50 C 0.03721 0.08724 0.55833
 C51 C 0.03863 0.14589 0.57382
 C52 C -0.01133 0.23150 0.58147
 C53 C 0.04655 0.26995 0.60379
 C54 C 0.05055 0.33100 0.61846
 C55 C -0.00421 0.35251 0.61168
 C56 C -0.06253 0.31320 0.58940
 C57 C -0.06531 0.25325 0.57378
 C58 C 0.09479 0.18497 0.59660
 C59 C 0.09890 0.24620 0.61126
 C60 C -0.12216 0.15522 0.53500
 C61 C -0.12068 0.21450 0.55067
 H62 H 0.13659 0.16864 0.60290
 H63 H 0.14346 0.27521 0.62857
 H64 H -0.16488 0.12782 0.51702
 H65 H -0.16257 0.23072 0.54439
 H66 H -0.10686 0.05016 0.50679
 H67 H 0.08147 0.07350 0.56399
 H68 H 0.09442 0.36005 0.63601
 H69 H -0.10507 0.32946 0.58425
 C70 C 0.82890 0.81944 0.22593
 C71 C 0.89488 0.81678 0.21574
 C72 C 0.95222 0.87501 0.19707
 C73 C 0.94145 0.93364 0.18757
 C74 C 0.87765 0.93720 0.20036
 C75 C 0.82066 0.88002 0.21865
 C76 C 0.76772 0.75833 0.24499
 C77 C 0.70231 0.76193 0.25514
 C78 C 0.64446 0.70420 0.27332
 C79 C 0.65168 0.64320 0.28173
 C80 C 0.71771 0.64026 0.27128
 C81 C 0.77607 0.69793 0.25289
 C82 C 0.75490 0.88209 0.22942
 C83 C 0.69650 0.82384 0.24728
 C84 C 0.90152 0.75559 0.22435
 C85 C 0.84313 0.69717 0.24253
 H86 H 0.74820 0.92890 0.22380
 H87 H 0.64652 0.82741 0.25506
 H88 H 0.95197 0.75251 0.21682
 H89 H 0.85059 0.65105 0.24854
 H90 H 1.00477 0.87463 0.19049
 H91 H 0.87096 0.98426 0.19521
 H92 H 0.59453 0.70758 0.28133
 H93 H 0.72436 0.59391 0.27777
 C94 C 0.18424 0.01026 -0.12457
 C95 C 0.10284 -0.03947 -0.11859
 C96 C 0.04641 -0.03742 -0.13639
 C97 C 0.06885 0.01369 -0.16067
 C98 C 0.15185 0.06052 -0.16729
 C99 C 0.20962 0.06073 -0.14867
 C100 C 0.24385 0.00822 -0.10548
 C101 C 0.32583 0.05933 -0.11071
 C102 C 0.38208 0.05866 -0.09165
 C103 C 0.35607 0.00539 -0.06838
 C104 C 0.27391 -0.04674 -0.06410
 C105 C 0.21751 -0.04481 -0.08223
 C106 C 0.29231 0.10983 -0.15370
 C107 C 0.34939 0.10981 -0.13483
 C108 C 0.07875 -0.09142 -0.09506
 C109 C 0.13522 -0.09433 -0.07726
 H110 H 0.31311 0.14920 -0.17215
 H111 H 0.41245 0.14929 -0.13927
 H112 H 0.01565 -0.13037 -0.09044
 H113 H 0.11431 -0.13527 -0.05934
 H114 H -0.01629 -0.07771 -0.13160
 H115 H 0.17182 0.09572 -0.18699
 H116 H 0.44561 0.09874 -0.09498
 H117 H 0.25387 -0.08707 -0.04595
 C118 C 0.01558 0.83051 0.56560
 C119 C 0.07044 0.86704 0.54226
 C120 C 0.06941 0.92447 0.52621
 C121 C 0.01616 0.94778 0.53426
 C122 C -0.03762 0.90989 0.55815
 C123 C -0.03854 0.85161 0.57362
 C124 C 0.01262 0.76707 0.58132
 C125 C -0.04527 0.72844 0.60359
 C126 C -0.04862 0.66788 0.61828
 C127 C 0.00679 0.64704 0.61158
 C128 C 0.06506 0.68649 0.58933
 C129 C 0.06723 0.74596 0.57369
 C130 C -0.09474 0.81236 0.59633
 C131 C -0.09826 0.75156 0.61100
 C132 C 0.12356 0.84371 0.53496
 C133 C 0.12262 0.78487 0.55063
 H134 H -0.13701 0.82822 0.60259
 H135 H -0.14285 0.72240 0.62827
 H136 H 0.16636 0.87128 0.51703
 H137 H 0.16499 0.76914 0.54440
 H138 H 0.10730 0.94795 0.50678
 H139 H -0.08224 0.92325 0.56377
 H140 H -0.09249 0.63874 0.63581
 H141 H 0.10810 0.67075 0.58422
 C142 C 0.16594 0.17696 0.22622
 C143 C 0.17392 0.11623 0.21878
 C144 C 0.11675 0.05908 0.20046
 C145 C 0.05305 0.06284 0.18778
 C146 C 0.04246 0.12156 0.19747
 C147 C 0.10000 0.17976 0.21617
 C148 C 0.22741 0.23812 0.24526
 C149 C 0.21936 0.29871 0.25329
 C150 C 0.27805 0.35647 0.27162
 C151 C 0.34411 0.35345 0.28189
 C152 C 0.35100 0.29224 0.27336
 C153 C 0.29282 0.23441 0.25523
 C154 C 0.09364 0.24112 0.22493
 C155 C 0.15231 0.29958 0.24309
 C156 C 0.23967 0.11403 0.22940
 C157 C 0.29834 0.17233 0.24724
 H158 H 0.04322 0.24431 0.21751
 H159 H 0.14507 0.34585 0.24920
 H160 H 0.24616 0.06711 0.22366
 H161 H 0.34832 0.16867 0.25489
 H162 H 0.12331 0.01197 0.19515
 H163 H -0.01003 0.12208 0.19099
 H164 H 0.27165 0.40298 0.27821
 H165 H 0.40095 0.28878 0.28123
 C166 C 0.81832 -0.00298 -0.12451
 C167 C 0.89944 0.04944 -0.11893
 C168 C 0.95675 0.04828 -0.13656
 C169 C 0.93527 -0.00424 -0.16025
 C170 C 0.85275 -0.05432 -0.16645
 C171 C 0.79410 -0.05533 -0.14801
 C172 C 0.75777 -0.00223 -0.10546
 C173 C 0.67620 -0.05608 -0.11020
 C174 C 0.61915 -0.05654 -0.09115
 C175 C 0.64387 -0.00193 -0.06834
 C176 C 0.72559 0.05278 -0.06457
 C177 C 0.78285 0.05220 -0.08270
 C178 C 0.71171 -0.10723 -0.15256
 C179 C 0.65384 -0.10817 -0.13377
 C180 C 0.92227 0.10277 -0.09592
 C181 C 0.86483 0.10441 -0.07818
 H182 H 0.69181 -0.14805 -0.17055
 H183 H 0.59109 -0.14979 -0.13782
 H184 H 0.98510 0.14373 -0.09163
 H185 H 0.88476 0.14646 -0.06064
 H186 H 1.01929 0.08960 -0.13200
 H187 H 0.83392 -0.09129 -0.18567
 H188 H 0.55599 -0.09865 -0.09411
 H189 H 0.74477 0.09421 -0.04679
 C190 C 0.16596 -0.01143 0.10570
 C191 C 0.10011 -0.08036 0.11585
 C192 C 0.04250 -0.07981 0.13447
 C193 C 0.05289 -0.01038 0.14393
 C194 C 0.11650 0.05721 0.13115
 C195 C 0.17376 0.05735 0.11293
 C196 C 0.22756 -0.01097 0.08678
 C197 C 0.29292 0.05835 0.07673
 C198 C 0.35122 0.05884 0.05873
 C199 C 0.34450 -0.00932 0.05038
 C200 C 0.27849 -0.07862 0.06072
 C201 C 0.21970 -0.07968 0.07895
 C202 C 0.23945 0.12549 0.10224
 C203 C 0.29826 0.12601 0.08452
 C204 C 0.09394 -0.14815 0.10730
 C205 C 0.15271 -0.14781 0.08924
 H206 H 0.24581 0.17896 0.10782
 H207 H 0.34819 0.17979 0.07681
 H208 H 0.04360 -0.20192 0.11480
 H209 H 0.14561 -0.20137 0.08328
 H210 H -0.00989 -0.13299 0.14106
 H211 H 0.12296 0.11094 0.13634
 H212 H 0.40112 0.11240 0.05079
 H213 H 0.27223 -0.13157 0.05426
 C214 C 0.81574 0.82133 0.45785
 C215 C 0.79079 0.84860 0.48139
 C216 C 0.84886 0.90601 0.50012
 C217 C 0.93150 0.93913 0.49416
 C218 C 0.95385 0.90895 0.47051
 C219 C 0.89706 0.85065 0.45256
 C220 C 0.75576 0.76016 0.43852
 C221 C 0.78149 0.73153 0.41575
 C222 C 0.72471 0.67374 0.39737
 C223 C 0.64285 0.64611 0.40093
 C224 C 0.61752 0.67530 0.42375
 C225 C 0.67404 0.73178 0.44303
 C226 C 0.92056 0.82087 0.42952
 C227 C 0.86363 0.76192 0.41150
 C228 C 0.70827 0.81747 0.48569
 C229 C 0.65096 0.76071 0.46663
 H230 H 0.98352 0.84321 0.42544
 H231 H 0.88408 0.74038 0.39395
 H232 H 0.68783 0.83774 0.50371
 H233 H 0.58808 0.73904 0.47051
 H234 H 0.82949 0.92344 0.51938
 H235 H 1.01656 0.93046 0.46630
 H236 H 0.74435 0.65200 0.37958
 H237 H 0.55426 0.65374 0.42656
 C238 C 0.01969 0.18557 0.76927
 C239 C -0.03354 0.11020 0.76101
 C240 C -0.03249 0.05292 0.77646
 C241 C 0.02065 0.06866 0.80070
 C242 C 0.07307 0.14583 0.80889
 C243 C 0.07391 0.20419 0.79282
 C244 C 0.01624 0.24588 0.75363
 C245 C 0.06990 0.32183 0.76154
 C246 C 0.06717 0.37898 0.74601
 C247 C 0.00916 0.35968 0.72363
 C248 C -0.04526 0.28320 0.71663
 C249 C -0.04126 0.22622 0.73118
 C250 C 0.12615 0.28085 0.80038
 C251 C 0.12484 0.33866 0.78478
 C252 C -0.08928 0.09287 0.73809
 C253 C -0.09330 0.14993 0.72349
 H254 H 0.16850 0.29634 0.81848
 H255 H 0.16649 0.39692 0.79123
 H256 H -0.13089 0.03458 0.73163
 H257 H -0.13756 0.13420 0.70608
 H258 H -0.07702 -0.00509 0.77055
 H259 H 0.11059 0.16093 0.82846
 H260 H 0.10946 0.43795 0.75134
 H261 H -0.08886 0.26817 0.69898
 C262 C 0.82933 0.00936 0.10590
 C263 C 0.82119 -0.05961 0.11289
 C264 C 0.87818 -0.05987 0.13108
 C265 C 0.94184 0.00751 0.14406
 C266 C 0.95256 0.07712 0.13484
 C267 C 0.89523 0.07808 0.11627
 C268 C 0.76807 0.00935 0.08699
 C269 C 0.77631 0.07826 0.07940
 C270 C 0.71788 0.07764 0.06117
 C271 C 0.65188 0.00858 0.05056
 C272 C 0.64476 -0.05981 0.05867
 C273 C 0.70269 -0.05976 0.07669
 C274 C 0.90177 0.14609 0.10796
 C275 C 0.84332 0.14617 0.08992
 C276 C 0.75547 -0.12752 0.10196
 C277 C 0.69700 -0.12762 0.08425
 H278 H 0.95216 0.19969 0.11564
 H279 H 0.85070 0.19988 0.08415
 H280 H 0.74885 -0.18115 0.10735
 H281 H 0.64705 -0.18124 0.07634
 H282 H 0.87151 -0.11373 0.13606
 H283 H 1.00502 0.13016 0.14157
 H284 H 0.72446 0.13077 0.05490
 H285 H 0.59486 -0.11318 0.05052
 C286 C 0.18276 0.17542 0.45771
 C287 C 0.10132 0.14528 0.45234
 C288 C 0.04481 0.08698 0.47029
 C289 C 0.06755 0.05761 0.49403
 C290 C 0.15027 0.09154 0.50006
 C291 C 0.20808 0.14893 0.48133
 C292 C 0.24246 0.23668 0.43842
 C293 C 0.32431 0.26589 0.44302
 C294 C 0.38058 0.32245 0.42378
 C295 C 0.35484 0.35094 0.40092
 C296 C 0.27284 0.32251 0.39727
 C297 C 0.21632 0.26459 0.41560
 C298 C 0.29070 0.18087 0.48571
 C299 C 0.34776 0.23769 0.46668
 C300 C 0.07743 0.17434 0.42925
 C301 C 0.13408 0.23338 0.41126
 H302 H 0.31142 0.16121 0.50379
 H303 H 0.41075 0.25999 0.47062
 H304 H 0.01437 0.15138 0.42510
 H305 H 0.11332 0.25436 0.39368
 H306 H -0.01798 0.06496 0.46604
 H307 H 0.16987 0.07476 0.51939
 H308 H 0.44395 0.34464 0.42664
 H309 H 0.25292 0.34371 0.37945
 C310 C -0.01126 0.81906 0.76906
 C311 C -0.06592 0.80113 0.79244
 C312 C -0.06497 0.86003 0.80827
 C313 C -0.01194 0.93665 0.80001
 C314 C 0.04152 0.95197 0.77599
 C315 C 0.04253 0.89425 0.76077
 C316 C -0.00819 0.75822 0.75357
 C317 C 0.04951 0.77717 0.73125
 C318 C 0.05296 0.71966 0.71676
 C319 C -0.00220 0.64335 0.72370
 C320 C -0.06032 0.62480 0.74599
 C321 C -0.06255 0.68247 0.76144
 C322 C 0.09853 0.91087 0.73801
 C323 C 0.10219 0.85327 0.72357
 C324 C -0.11878 0.72467 0.79998
 C325 C -0.11777 0.66636 0.78453
 H326 H 0.14055 0.96899 0.73154
 H327 H 0.14662 0.86845 0.70626
 H328 H -0.16144 0.70972 0.81794
 H329 H -0.15995 0.60826 0.79094
 H330 H -0.10277 0.84596 0.82771
 H331 H 0.08583 1.00993 0.77006
 H332 H 0.09669 0.73415 0.69920
 H333 H -0.10319 0.56598 0.75126
   
