data_POSCAR
  _audit_creation_date              2014-09-24
  _audit_creation_method            'ToBaCCo'
  _symmetry_space_group_name_H-M    'P1'
  _symmetry_Int_Tables_number       1
  _symmetry_cell_setting            triclinic
  loop_
  _symmetry_equiv_pos_as_xyz
 x,y,z
_cell_length_a 55.7045
_cell_length_b 55.6499
_cell_length_c 55.5581
_cell_angle_alpha 89.997300
_cell_angle_beta 89.986000
_cell_angle_gamma 89.990400
loop_
  _atom_site_label
  _atom_site_type_symbol
  _atom_site_fract_x
  _atom_site_fract_y
  _atom_site_fract_z
C1 C 0.16292 0.18188 0.19656
 C2 C 0.16280 0.19938 0.17839
 C3 C 0.18036 0.19917 0.16082
 C4 C 0.19823 0.18143 0.16114
 C5 C 0.19831 0.16423 0.17897
 C6 C 0.18050 0.16447 0.19685
 C7 C 0.14799 0.17755 0.21577
 N8 N 0.15592 0.15777 0.22800
 C9 C 0.17598 0.14980 0.21625
 C10 C 0.21747 0.14927 0.17460
 N11 N 0.22928 0.15683 0.15439
 C12 C 0.21732 0.17667 0.14621
 C13 C 0.17569 0.21800 0.14547
 N14 N 0.15569 0.22965 0.15327
 C15 C 0.14771 0.21832 0.17343
 H16 H 0.13241 0.18828 0.22003
 H17 H 0.18682 0.13444 0.22103
 H18 H 0.22208 0.13401 0.18568
 H19 H 0.22168 0.18714 0.13044
 H20 H 0.18590 0.22256 0.12954
 H21 H 0.13219 0.22356 0.18391
 C22 C -0.16090 0.82010 0.19920
 C23 C -0.16114 0.80226 0.18137
 C24 C -0.17899 0.80219 0.16408
 C25 C -0.19680 0.82002 0.16437
 C26 C -0.19651 0.83754 0.18189
 C27 C -0.17841 0.83757 0.19946
 C28 C -0.14562 0.82475 0.21804
 N29 N -0.15328 0.84480 0.23002
 C30 C -0.17351 0.85260 0.21847
 C31 C -0.21566 0.85251 0.17759
 N32 N -0.22785 0.84466 0.15773
 C33 C -0.21613 0.82461 0.14969
 C34 C -0.17458 0.78306 0.14902
 N35 N -0.15447 0.77152 0.15671
 C36 C -0.14617 0.78321 0.17653
 H37 H -0.13002 0.81404 0.22225
 H38 H -0.18419 0.86811 0.22311
 H39 H -0.21996 0.86802 0.18844
 H40 H -0.22085 0.81386 0.13422
 H41 H -0.18504 0.77822 0.13333
 H42 H -0.13050 0.77815 0.18686
 C43 C -0.16510 0.17901 -0.19820
 C44 C -0.16549 0.19690 -0.18041
 C45 C -0.18314 0.19665 -0.16292
 C46 C -0.20067 0.17856 -0.16301
 C47 C -0.20026 0.16103 -0.18051
 C48 C -0.18233 0.16126 -0.19825
 C49 C -0.14996 0.17456 -0.21723
 N50 N -0.15744 0.15437 -0.22909
 C51 C -0.17741 0.14629 -0.21729
 C52 C -0.21911 0.14574 -0.17599
 N53 N -0.23121 0.15341 -0.15600
 C54 C -0.21974 0.17366 -0.14811
 C55 C -0.17894 0.21583 -0.14789
 N56 N -0.15916 0.22777 -0.15582
 C57 C -0.15085 0.21626 -0.17575
 H58 H -0.13459 0.18552 -0.22167
 H59 H -0.18791 0.13061 -0.22177
 H60 H -0.22322 0.13011 -0.18673
 H61 H -0.22449 0.18437 -0.13262
 H62 H -0.18967 0.22081 -0.13243
 H63 H -0.13504 0.22128 -0.18590
 C64 C 0.16355 0.82077 -0.19840
 C65 C 0.16292 0.80259 -0.18092
 C66 C 0.18018 0.80191 -0.16306
 C67 C 0.19826 0.81944 -0.16241
 C68 C 0.19883 0.83728 -0.17959
 C69 C 0.18132 0.83796 -0.19773
 C70 C 0.14899 0.82603 -0.21766
 N71 N 0.15735 0.84617 -0.22898
 C72 C 0.17729 0.85342 -0.21660
 C73 C 0.21807 0.85184 -0.17438
 N74 N 0.22946 0.84341 -0.15428
 C75 C 0.21715 0.82342 -0.14701
 C76 C 0.17501 0.78257 -0.14853
 N77 N 0.15500 0.77149 -0.15710
 C78 C 0.14752 0.78368 -0.17695
 H79 H 0.13334 0.81569 -0.22256
 H80 H 0.18840 0.86880 -0.22062
 H81 H 0.22292 0.86752 -0.18473
 H82 H 0.22123 0.81226 -0.13165
 H83 H 0.18487 0.77727 -0.13261
 H84 H 0.13212 0.77905 -0.18788
 C85 C 0.18204 1.16267 0.80360
 C86 C 0.19950 1.16263 0.82178
 C87 C 0.19922 1.18024 0.83931
 C88 C 0.18152 1.19816 0.83886
 C89 C 0.16438 1.19817 0.82100
 C90 C 0.16464 1.18026 0.80321
 C91 C 0.17774 1.14763 0.78447
 N92 N 0.15798 1.15550 0.77219
 C93 C 0.15001 1.17563 0.78383
 C94 C 0.14941 1.21735 0.82528
 N95 N 0.15693 1.22924 0.84546
 C96 C 0.17674 1.21730 0.85371
 C97 C 0.21794 1.17560 0.85476
 N98 N 0.22964 1.15558 0.84704
 C99 C 0.21843 1.14757 0.82683
 H100 H 0.18845 1.13200 0.78031
 H101 H 0.13467 1.18646 0.77897
 H102 H 0.13419 1.22194 0.81416
 H103 H 0.18713 1.22168 0.86952
 H104 H 0.22278 1.18620 0.87035
 H105 H 0.22336 1.13167 0.81674
 C106 C 0.81936 0.83878 0.80050
 C107 C 0.80151 0.83833 0.81830
 C108 C 0.80161 0.82045 0.83557
 C109 C 0.81952 0.80273 0.83521
 C110 C 0.83701 0.80318 0.81769
 C111 C 0.83694 0.82137 0.80019
 C112 C 0.82391 0.85416 0.78169
 N113 N 0.84399 0.84666 0.76970
 C114 C 0.85191 0.82643 0.78120
 C115 C 0.85208 0.78409 0.82191
 N116 N 0.84430 0.77178 0.84173
 C117 C 0.82422 0.78337 0.84983
 C118 C 0.78250 0.82468 0.85068
 N119 N 0.77077 0.84470 0.84300
 C120 C 0.78233 0.85312 0.82316
 H121 H 0.81306 0.86968 0.77748
 H122 H 0.86749 0.81586 0.77655
 H123 H 0.86765 0.77997 0.81110
 H124 H 0.81347 0.77849 0.86525
 H125 H 0.77744 0.81382 0.86602
 H126 H 0.77749 0.86913 0.81322
 C127 C 0.17937 0.83520 1.19866
 C128 C 0.19725 0.83479 1.18087
 C129 C 0.19694 0.81721 1.16329
 C130 C 0.17872 0.79984 1.16322
 C131 C 0.16110 0.80031 1.18073
 C132 C 0.16148 0.81811 1.19859
 C133 C 0.17499 0.85031 1.21774
 N134 N 0.15474 0.84292 1.22952
 C135 C 0.14653 0.82306 1.21762
 C136 C 0.14564 0.78161 1.17607
 N137 N 0.15343 0.76975 1.15615
 C138 C 0.17371 0.78083 1.14820
 C139 C 0.21618 0.82137 1.14834
 N140 N 0.22818 0.84108 1.15637
 C141 C 0.21666 0.84938 1.17630
 H142 H 0.18614 0.86549 1.22238
 H143 H 0.13065 0.81279 1.22190
 H144 H 0.12998 0.77690 1.18660
 H145 H 0.18387 0.77576 1.13239
 H146 H 0.22079 0.81104 1.13249
 H147 H 0.22207 0.86479 1.18687
 C148 C 0.82025 1.16312 1.19861
 C149 C 0.80216 1.16252 1.18106
 C150 C 0.80159 1.17977 1.16317
 C151 C 0.81914 1.19782 1.16254
 C152 C 0.83698 1.19834 1.17982
 C153 C 0.83749 1.18085 1.19799
 C154 C 0.82539 1.14854 1.21790
 N155 N 0.84551 1.15684 1.22927
 C156 C 0.85286 1.17677 1.21690
 C157 C 0.85167 1.21751 1.17460
 N158 N 0.84318 1.22869 1.15456
 C159 C 0.82324 1.21671 1.14710
 C160 C 0.78231 1.17463 1.14858
 N161 N 0.77116 1.15464 1.15715
 C162 C 0.78325 1.14715 1.17705
 H163 H 0.81499 1.13291 1.22278
 H164 H 0.86826 1.18783 1.22095
 H165 H 0.86727 1.22301 1.18481
 H166 H 0.81271 1.22109 1.13133
 H167 H 0.77711 1.18450 1.13262
 H168 H 0.77854 1.13177 1.18799
 O169 O 0.46622 1.04202 1.04390
 O170 O 0.43994 1.01846 1.02258
 C171 C 0.44462 1.03551 1.03780
 O172 O 0.53341 1.03943 0.95826
 O173 O 0.55979 1.01809 0.98160
 C174 C 0.55503 1.03340 0.96467
 O175 O 0.46588 1.04160 0.96106
 O176 O 0.43976 1.01837 0.98290
 C177 C 0.44434 1.03518 0.96740
 O178 O 0.53376 1.03962 1.04626
 O179 O 0.55999 1.01783 1.02307
 C180 C 0.55534 1.03338 1.03983
 Zr181 Zr 0.49998 1.02803 1.03300
 O182 O 0.50167 1.06597 1.03445
 O183 O 0.49906 1.02502 1.07090
 Zr184 Zr 0.49976 1.02814 0.97213
 O185 O 0.50088 1.06603 0.97438
 O186 O 0.49718 1.02916 0.93414
 O187 O 0.47851 1.03267 1.00261
 O188 O 0.52073 1.03254 1.00246
 O189 O 0.53400 0.95623 1.04646
 O190 O 0.56012 0.97797 1.02309
 C191 C 0.55555 0.96249 1.03994
 O192 O 0.46615 0.95379 0.96078
 O193 O 0.43996 0.97717 0.98230
 C194 C 0.44459 0.96029 0.96691
 O195 O 0.53366 0.95590 0.95854
 O196 O 0.55991 0.97753 0.98175
 C197 C 0.55523 0.96209 0.96493
 O198 O 0.46643 0.95347 1.04417
 O199 O 0.44006 0.97654 1.02247
 C200 C 0.44482 0.95969 1.03788
 Zr201 Zr 0.50012 0.96759 1.03321
 O202 O 0.50246 0.92972 1.03548
 O203 O 0.49916 0.97117 1.07106
 Zr204 Zr 0.49993 0.96728 0.97214
 O205 O 0.50264 0.92933 0.97238
 O206 O 0.49716 0.96723 0.93413
 Zr207 Zr 0.46435 0.99759 1.00265
 Zr208 Zr 0.53557 0.99780 1.00233
 O209 O 0.52078 0.96303 1.00261
 O210 O 0.47874 0.96258 1.00273
 O211 O 0.52157 0.99787 1.03755
 O212 O 0.47905 0.99767 0.96778
 O213 O 0.47896 0.99776 1.03750
 O214 O 0.52120 0.99775 0.96725
 H215 H 0.53154 1.04668 1.00244
 H216 H 0.46818 0.99774 0.95366
 H217 H 0.53162 0.94890 1.00267
 H218 H 0.46791 0.99776 1.05148
 H219 H 0.50938 1.01795 0.92773
 H220 H 0.51062 0.97693 0.92777
 H221 H 0.48891 0.92303 0.98174
 H222 H 0.49208 0.92314 1.02264
 H223 H 0.49898 0.95458 1.07755
 H224 H 0.49877 1.04170 1.07713
 H225 H 0.49294 1.07201 1.02017
 H226 H 0.50064 1.07197 0.95757
 O227 O 0.04220 0.46623 -0.04391
 O228 O 0.01866 0.43992 -0.02259
 C229 C 0.03570 0.44461 -0.03781
 O230 O 0.03925 0.53364 0.04164
 O231 O 0.01764 0.55997 0.01847
 C232 C 0.03302 0.55525 0.03533
 O233 O 0.04166 0.46603 0.03894
 O234 O 0.01852 0.43981 0.01714
 C235 C 0.03529 0.44444 0.03265
 O236 O 0.03977 0.53380 -0.04641
 O237 O 0.01787 0.56006 -0.02335
 C238 C 0.03347 0.55540 -0.04006
 Zr239 Zr 0.02821 0.50001 -0.03306
 O240 O 0.06611 0.50178 -0.03437
 O241 O 0.02531 0.49902 -0.07097
 Zr242 Zr 0.02817 0.49989 0.02775
 O243 O 0.06602 0.50110 0.02548
 O244 O 0.02925 0.49737 0.06575
 O245 O 0.03278 0.47856 -0.00265
 O246 O 0.03259 0.52088 -0.00257
 O247 O -0.04364 0.53390 -0.04674
 O248 O -0.02198 0.56012 -0.02342
 C249 C -0.03741 0.55549 -0.04028
 O250 O -0.04607 0.46615 0.03909
 O251 O -0.02266 0.43993 0.01763
 C252 C -0.03954 0.44457 0.03300
 O253 O -0.04393 0.53375 0.04129
 O254 O -0.02205 0.56002 0.01830
 C255 C -0.03760 0.55535 0.03502
 O256 O -0.04625 0.46628 -0.04432
 O257 O -0.02319 0.43996 -0.02255
 C258 C -0.03999 0.44467 -0.03800
 Zr259 Zr -0.03229 0.50005 -0.03334
 O260 O -0.07013 0.50236 -0.03543
 O261 O -0.02882 0.49901 -0.07120
 Zr262 Zr -0.03265 0.49997 0.02766
 O263 O -0.07057 0.50270 0.02720
 O264 O -0.03295 0.49724 0.06567
 Zr265 Zr -0.00224 0.46434 -0.00272
 Zr266 Zr -0.00215 0.53563 -0.00258
 O267 O -0.03689 0.52083 -0.00282
 O268 O -0.03726 0.47866 -0.00286
 O269 O -0.00201 0.52152 -0.03775
 O270 O -0.00225 0.47913 0.03212
 O271 O -0.00205 0.47896 -0.03757
 O272 O -0.00224 0.52126 0.03251
 H273 H 0.04666 0.53178 -0.00251
 H274 H -0.00219 0.46828 0.04626
 H275 H -0.05096 0.53173 -0.00286
 H276 H -0.00201 0.46788 -0.05153
 H277 H 0.01786 0.50942 0.07214
 H278 H -0.02304 0.51053 0.07205
 H279 H -0.07683 0.48876 0.01810
 H280 H -0.07666 0.49160 -0.02288
 H281 H -0.04541 0.49886 -0.07764
 H282 H 0.04199 0.49876 -0.07716
 H283 H 0.07212 0.49287 -0.02018
 H284 H 0.07196 0.50096 0.04229
 O285 O 1.04623 -0.03915 0.53404
 O286 O 1.02296 -0.01751 0.56037
 C287 C 1.03985 -0.03288 0.55569
 O288 O 1.04403 0.04604 0.46634
 O289 O 1.02251 0.02278 0.44002
 C290 C 1.03791 0.03960 0.44470
 O291 O 1.04624 0.04356 0.53406
 O292 O 1.02284 0.02210 0.56036
 C293 C 1.03976 0.03742 0.55569
 O294 O 1.04372 -0.04181 0.46631
 O295 O 1.02205 -0.01862 0.43995
 C296 C 1.03750 -0.03543 0.44466
 Zr297 Zr 1.03227 -0.02839 0.50016
 O298 O 1.07015 -0.03006 0.49838
 O299 O 1.02907 -0.06621 0.50123
 Zr300 Zr 1.03271 0.03238 0.50016
 O301 O 1.07055 0.02989 0.49901
 O302 O 1.03395 0.07031 0.50258
 O303 O 1.03709 0.00202 0.52156
 O304 O 1.03690 0.00200 0.47923
 O305 O 0.96044 -0.04155 0.46621
 O306 O 0.98222 -0.01843 0.43989
 C307 C 0.96668 -0.03515 0.44457
 O308 O 0.95833 0.04397 0.53401
 O309 O 0.98125 0.02207 0.56033
 C310 C 0.96456 0.03762 0.55565
 O311 O 0.96050 0.04619 0.46629
 O312 O 0.98199 0.02286 0.44000
 C313 C 0.96662 0.03971 0.44467
 O314 O 0.95789 -0.03925 0.53384
 O315 O 0.98144 -0.01805 0.56018
 C316 C 0.96440 -0.03322 0.55548
 Zr317 Zr 0.97192 -0.02826 0.50009
 O318 O 0.93406 -0.03020 0.49782
 O319 O 0.97527 -0.06607 0.50111
 Zr320 Zr 0.97189 0.03272 0.50013
 O321 O 0.93398 0.03296 0.49743
 O322 O 0.97228 0.07067 0.50286
 Zr323 Zr 1.00208 0.00226 0.53584
 Zr324 Zr 1.00218 0.00228 0.46441
 O325 O 0.96747 0.00225 0.47931
 O326 O 0.96708 0.00225 0.52146
 O327 O 1.00210 -0.03284 0.47855
 O328 O 1.00229 0.03701 0.52101
 O329 O 1.00207 -0.03259 0.52127
 O330 O 1.00233 0.03734 0.47871
 H331 H 1.05102 0.00190 0.46838
 H332 H 1.00235 0.05107 0.53195
 H333 H 0.95333 0.00222 0.46849
 H334 H 1.00210 -0.04657 0.53232
 H335 H 1.02269 0.07671 0.49040
 H336 H 0.98166 0.07691 0.48909
 H337 H 0.92763 0.02316 0.51085
 H338 H 0.92758 -0.01768 0.50864
 H339 H 0.95867 -0.07245 0.50120
 H340 H 1.04570 -0.07251 0.50155
 H341 H 1.07628 -0.01580 0.50706
 H342 H 1.07659 0.04664 0.49914
 C343 C 1.14460 0.11648 0.27930
 C344 C 1.12406 0.12673 0.28939
 C345 C 1.11423 0.14741 0.27914
 C346 C 1.12479 0.15780 0.25883
 C347 C 1.14559 0.14769 0.24817
 C348 C 1.15528 0.12677 0.25899
 C349 C 1.11293 0.11590 0.31011
 C350 C 1.10354 0.10673 0.32737
 C351 C 1.09245 0.09586 0.34745
 C352 C 1.08292 0.08641 0.36448
 C353 C 1.07147 0.07492 0.38466
 C354 C 1.07790 0.08114 0.40820
 C355 C 1.06693 0.06977 0.42778
 C356 C 1.04937 0.05196 0.42404
 C357 C 1.04297 0.04593 0.40027
 C358 C 1.05395 0.05734 0.38075
 H359 H 1.15238 0.10042 0.28710
 H360 H 1.09829 0.15552 0.28683
 H361 H 1.11635 0.17376 0.25179
 H362 H 1.17105 0.11796 0.25201
 H363 H 1.09145 0.09474 0.41142
 H364 H 1.07230 0.07485 0.44580
 H365 H 1.02951 0.03235 0.39670
 H366 H 1.04883 0.05238 0.36261
 C367 C 0.85884 -0.11316 0.28050
 C368 C 0.87967 -0.12313 0.29026
 C369 C 0.88945 -0.14385 0.28006
 C370 C 0.87854 -0.15458 0.26012
 C371 C 0.85743 -0.14477 0.24980
 C372 C 0.84782 -0.12378 0.26056
 C373 C 0.89108 -0.11202 0.31066
 C374 C 0.90068 -0.10265 0.32769
 C375 C 0.91195 -0.09160 0.34757
 C376 C 0.92158 -0.08205 0.36448
 C377 C 0.93308 -0.07052 0.38460
 C378 C 0.92665 -0.07670 0.40815
 C379 C 0.93763 -0.06530 0.42769
 C380 C 0.95521 -0.04751 0.42392
 C381 C 0.96162 -0.04153 0.40013
 C382 C 0.95061 -0.05296 0.38064
 H383 H 0.85109 -0.09707 0.28828
 H384 H 0.90561 -0.15174 0.28750
 H385 H 0.88698 -0.17053 0.25307
 H386 H 0.83181 -0.11520 0.25385
 H387 H 0.91310 -0.09028 0.41141
 H388 H 0.93227 -0.07036 0.44573
 H389 H 0.97509 -0.02796 0.39653
 H390 H 0.95573 -0.04804 0.36248
 C391 C 0.88485 0.14347 0.72038
 C392 C 0.87518 0.12264 0.71030
 C393 C 0.85458 0.11246 0.72031
 C394 C 0.84367 0.12296 0.74037
 C395 C 0.85317 0.14406 0.75101
 C396 C 0.87405 0.15409 0.74045
 C397 C 0.88648 0.11161 0.68978
 C398 C 0.89600 0.10230 0.67267
 C399 C 0.90723 0.09133 0.65272
 C400 C 0.91693 0.08193 0.63577
 C401 C 0.92866 0.07066 0.61563
 C402 C 0.94617 0.05307 0.61956
 C403 C 0.95778 0.04226 0.60006
 C404 C 0.95203 0.04892 0.57629
 C405 C 0.93431 0.06657 0.57254
 C406 C 0.92273 0.07735 0.59209
 H407 H 0.90085 0.15153 0.71275
 H408 H 0.84692 0.09629 0.71262
 H409 H 0.82782 0.11421 0.74725
 H410 H 0.88239 0.17013 0.74742
 H411 H 0.95089 0.04774 0.63771
 H412 H 0.97129 0.02872 0.60365
 H413 H 0.92944 0.07213 0.55451
 H414 H 0.90920 0.09096 0.58884
 C415 C 1.14728 -0.11033 0.72132
 C416 C 1.12693 -0.12005 0.71038
 C417 C 1.11679 -0.14109 0.71954
 C418 C 1.12688 -0.15238 0.73960
 C419 C 1.14748 -0.14284 0.75111
 C420 C 1.15747 -0.12152 0.74140
 C421 C 1.11631 -0.10837 0.68986
 C422 C 1.10727 -0.09860 0.67275
 C423 C 1.09648 -0.08721 0.65280
 C424 C 1.08708 -0.07752 0.63583
 C425 C 1.07562 -0.06600 0.61569
 C426 C 1.05818 -0.04834 0.61961
 C427 C 1.04666 -0.03745 0.60011
 C428 C 1.05243 -0.04411 0.57634
 C429 C 1.07014 -0.06177 0.57259
 C430 C 1.08163 -0.07264 0.59215
 H431 H 1.15528 -0.09400 0.71437
 H432 H 1.10100 -0.14880 0.71117
 H433 H 1.11824 -0.16859 0.74576
 H434 H 1.17311 -0.11308 0.74908
 H435 H 1.05338 -0.04307 0.63776
 H436 H 1.03316 -0.02390 0.60369
 H437 H 1.07503 -0.06733 0.55457
 H438 H 1.09510 -0.08631 0.58891
 C439 C 0.28030 1.14554 1.11286
 C440 C 0.29009 1.12468 1.12278
 C441 C 0.27973 1.11461 1.14331
 C442 C 0.25960 1.12527 1.15390
 C443 C 0.24925 1.14638 1.14413
 C444 C 0.26018 1.15630 1.12335
 C445 C 0.31064 1.11351 1.11175
 C446 C 0.32778 1.10408 1.10244
 C447 C 0.34773 1.09293 1.09146
 C448 C 0.36468 1.08328 1.08204
 C449 C 0.38478 1.07156 1.07074
 C450 C 0.40826 1.07762 1.07734
 C451 C 0.42777 1.06601 1.06656
 C452 C 0.42403 1.04813 1.04903
 C453 C 0.40032 1.04228 1.04244
 C454 C 0.38087 1.05392 1.05324
 H455 H 0.28821 1.15352 1.09693
 H456 H 0.28718 1.09841 1.15114
 H457 H 0.25237 1.11656 1.16965
 H458 H 0.25352 1.17240 1.11487
 H459 H 0.41148 1.09125 1.09088
 H460 H 0.44574 1.07097 1.07206
 H461 H 0.39675 1.02866 1.02899
 H462 H 0.36277 1.04910 1.04799
 C463 C 0.27930 0.85333 0.88899
 C464 C 0.29013 0.87376 0.87928
 C465 C 0.28086 0.88399 0.85832
 C466 C 0.26079 0.87393 0.84709
 C467 C 0.24939 0.85326 0.85663
 C468 C 0.25922 0.84315 0.87787
 C469 C 0.31063 0.88438 0.89093
 C470 C 0.32772 0.89342 0.90067
 C471 C 0.34765 0.90420 0.91205
 C472 C 0.36458 0.91358 0.92176
 C473 C 0.38469 0.92500 0.93332
 C474 C 0.38079 0.94268 0.95079
 C475 C 0.40026 0.95408 0.96179
 C476 C 0.42397 0.94794 0.95545
 C477 C 0.42769 0.93002 0.93796
 C478 C 0.40816 0.91865 0.92697
 H479 H 0.28635 0.84524 0.90527
 H480 H 0.28914 0.89985 0.85062
 H481 H 0.25453 0.88265 0.83094
 H482 H 0.25162 0.82745 0.88630
 H483 H 0.36269 0.94773 0.95584
 H484 H 0.39671 0.96775 0.97521
 H485 H 0.44566 0.92484 0.93265
 H486 H 0.41138 0.90499 0.91346
 C487 C 0.72143 0.88671 1.14722
 C488 C 0.71095 0.87667 1.12674
 C489 C 0.72074 0.85589 1.11667
 C490 C 0.74100 0.84517 1.12694
 C491 C 0.75205 0.85506 1.14767
 C492 C 0.74169 0.87610 1.15759
 C493 C 0.69026 0.88782 1.11594
 C494 C 0.67302 0.89721 1.10681
 C495 C 0.65294 0.90828 1.09597
 C496 C 0.63590 0.91778 1.08658
 C497 C 0.61569 0.92918 1.07515
 C498 C 0.61946 0.94673 1.05752
 C499 C 0.59991 0.95764 1.04616
 C500 C 0.57625 0.95112 1.05227
 C501 C 0.57265 0.93353 1.07012
 C502 C 0.59226 0.92264 1.08146
 H503 H 0.71398 0.90285 1.15518
 H504 H 0.71274 0.84794 1.10078
 H505 H 0.74770 0.82916 1.11831
 H506 H 0.74896 0.88475 1.17335
 H507 H 0.63752 0.95194 1.05250
 H508 H 0.60338 0.97112 1.03254
 H509 H 0.55472 0.92807 1.07528
 H510 H 0.58914 0.90906 1.09509
 C511 C 0.71831 1.14115 0.88591
 C512 C 0.70855 1.12040 0.87578
 C513 C 0.71873 1.11072 0.85497
 C514 C 0.73867 1.12166 0.84433
 C515 C 0.74900 1.14269 0.85432
 C516 C 0.73825 1.15220 0.87538
 C517 C 0.68818 1.10893 0.88684
 C518 C 0.67119 1.09932 0.89622
 C519 C 0.65139 1.08805 0.90734
 C520 C 0.63456 1.07842 0.91699
 C521 C 0.61457 1.06693 0.92869
 C522 C 0.59104 1.07323 0.92255
 C523 C 0.57163 1.06227 0.93415
 C524 C 0.57553 1.04484 0.95210
 C525 C 0.59930 1.03856 0.95805
 C526 C 0.61865 1.04955 0.94642
 H527 H 0.71055 1.14881 0.90207
 H528 H 0.71127 1.09462 0.84694
 H529 H 0.74569 1.11332 0.82829
 H530 H 0.74498 1.16814 0.88411
 H531 H 0.58768 1.08668 0.90886
 H532 H 0.55360 1.06754 0.92912
 H533 H 0.60299 1.02520 0.97173
 H534 H 0.63680 1.04453 0.95131
 C535 C 0.10926 0.27427 0.13304
 C536 C 0.12326 0.29027 0.11962
 C537 C 0.14797 0.28635 0.11737
 C538 C 0.15864 0.26648 0.12845
 C539 C 0.14472 0.25024 0.14196
 C540 C 0.11989 0.25440 0.14415
 C541 C 0.11225 0.31064 0.10809
 C542 C 0.10295 0.32765 0.09842
 C543 C 0.09194 0.34751 0.08711
 C544 C 0.08242 0.36441 0.07747
 C545 C 0.07087 0.38452 0.06599
 C546 C 0.05331 0.38060 0.04842
 C547 C 0.04182 0.40007 0.03749
 C548 C 0.04774 0.42381 0.04400
 C549 C 0.06553 0.42754 0.06161
 C550 C 0.07699 0.40802 0.07252
 H551 H 0.09009 0.27709 0.13484
 H552 H 0.15900 0.29867 0.10708
 H553 H 0.17783 0.26400 0.12668
 H554 H 0.10861 0.24210 0.15412
 H555 H 0.04844 0.36248 0.04323
 H556 H 0.02825 0.39650 0.02399
 H557 H 0.07054 0.44554 0.06706
 H558 H 0.09055 0.41125 0.08611
 C559 C -0.14087 0.27324 -0.10933
 C560 C -0.12791 0.28962 -0.12333
 C561 C -0.12533 0.28567 -0.14807
 C562 C -0.13562 0.26540 -0.15877
 C563 C -0.14866 0.24878 -0.14484
 C564 C -0.15119 0.25297 -0.11998
 C565 C -0.11706 0.31033 -0.11226
 C566 C -0.10787 0.32757 -0.10291
 C567 C -0.09695 0.34763 -0.09188
 C568 C -0.08745 0.36464 -0.08240
 C569 C -0.07587 0.38478 -0.07104
 C570 C -0.08176 0.40827 -0.07782
 C571 C -0.07023 0.42780 -0.06700
 C572 C -0.05259 0.42407 -0.04924
 C573 C -0.04692 0.40034 -0.04246
 C574 C -0.05849 0.38087 -0.05330
 H575 H -0.14289 0.27607 -0.09014
 H576 H -0.11536 0.29826 -0.15909
 H577 H -0.13360 0.26288 -0.17797
 H578 H -0.16080 0.24039 -0.10869
 H579 H -0.09520 0.41149 -0.09154
 H580 H -0.07504 0.44579 -0.07265
 H581 H -0.03349 0.39677 -0.02883
 H582 H -0.05380 0.36276 -0.04790
 C583 C 0.14586 0.71359 -0.12354
 C584 C 0.12114 0.71013 -0.12635
 C585 C 0.10760 0.72683 -0.13939
 C586 C 0.11871 0.74694 -0.14956
 C587 C 0.14355 0.75064 -0.14679
 C588 C 0.15701 0.73370 -0.13367
 C589 C 0.10963 0.68957 -0.11567
 C590 C 0.09994 0.67243 -0.10662
 C591 C 0.08858 0.65246 -0.09588
 C592 C 0.07885 0.63550 -0.08655
 C593 C 0.06724 0.61536 -0.07520
 C594 C 0.07380 0.59187 -0.08131
 C595 C 0.06275 0.57232 -0.07001
 C596 C 0.04497 0.57604 -0.05238
 C597 C 0.03842 0.59977 -0.04647
 C598 C 0.04949 0.61926 -0.05781
 H599 H 0.15653 0.70074 -0.11352
 H600 H 0.08843 0.72437 -0.14160
 H601 H 0.10778 0.75977 -0.15923
 H602 H 0.17619 0.73583 -0.13148
 H603 H 0.08753 0.58865 -0.09475
 H604 H 0.06823 0.55433 -0.07500
 H605 H 0.02479 0.60333 -0.03303
 H606 H 0.04427 0.63737 -0.05294
 C607 C -0.10831 0.72647 0.13682
 C608 C -0.12248 0.71018 0.12394
 C609 C -0.14721 0.71408 0.12190
 C610 C -0.15775 0.73421 0.13266
 C611 C -0.14365 0.75072 0.14565
 C612 C -0.11880 0.74659 0.14760
 C613 C -0.11159 0.68956 0.11272
 C614 C -0.10236 0.67239 0.10328
 C615 C -0.09145 0.65238 0.09212
 C616 C -0.08205 0.63540 0.08249
 C617 C -0.07075 0.61527 0.07081
 C618 C -0.05315 0.61917 0.05328
 C619 C -0.04230 0.59970 0.04171
 C620 C -0.04892 0.57597 0.04753
 C621 C -0.06657 0.57224 0.06529
 C622 C -0.07740 0.59178 0.07683
 H623 H -0.08913 0.72368 0.13844
 H624 H -0.15836 0.70156 0.11201
 H625 H -0.17694 0.73667 0.13106
 H626 H -0.10739 0.75910 0.15715
 H627 H -0.04785 0.63729 0.04850
 H628 H -0.02876 0.60326 0.02818
 H629 H -0.07210 0.55425 0.07023
 H630 H -0.09101 0.58855 0.09038
 C631 C 1.14780 0.11363 0.72114
 C632 C 1.12702 0.12329 0.71098
 C633 C 1.11663 0.14376 0.72109
 C634 C 1.12689 0.15455 0.74135
 C635 C 1.14792 0.14504 0.75208
 C636 C 1.15817 0.12431 0.74140
 C637 C 1.11624 0.11207 0.69030
 C638 C 1.10709 0.10263 0.67306
 C639 C 1.09624 0.09152 0.65299
 C640 C 1.08680 0.08200 0.63596
 C641 C 1.07530 0.07060 0.61577
 C642 C 1.08149 0.07712 0.59224
 C643 C 1.07006 0.06626 0.57265
 C644 C 1.05222 0.04873 0.57636
 C645 C 1.04623 0.04222 0.60012
 C646 C 1.05770 0.05310 0.61965
 H647 H 1.15602 0.09775 0.71342
 H648 H 1.10049 0.15139 0.71335
 H649 H 1.11796 0.17024 0.74836
 H650 H 1.17422 0.11603 0.74836
 H651 H 1.09510 0.09067 0.58904
 H652 H 1.07511 0.07170 0.55464
 H653 H 1.03263 0.02878 0.60367
 H654 H 1.05277 0.04792 0.63779
 C655 C 0.85520 -0.11026 0.71989
 C656 C 0.87586 -0.12001 0.70957
 C657 C 0.88585 -0.14092 0.71917
 C658 C 0.87529 -0.15206 0.73908
 C659 C 0.85436 -0.14249 0.74996
 C660 C 0.84454 -0.12130 0.73980
 C661 C 0.88691 -0.10849 0.68919
 C662 C 0.89625 -0.09884 0.67217
 C663 C 0.90732 -0.08755 0.65232
 C664 C 0.91690 -0.07792 0.63542
 C665 C 0.92852 -0.06646 0.61534
 C666 C 0.92235 -0.07282 0.59177
 C667 C 0.93390 -0.06193 0.57226
 C668 C 0.95184 -0.04453 0.57609
 C669 C 0.95781 -0.03818 0.59989
 C670 C 0.94622 -0.04908 0.61935
 H671 H 0.84731 -0.09403 0.71257
 H672 H 0.90188 -0.14864 0.71128
 H673 H 0.88386 -0.16815 0.74565
 H674 H 0.82865 -0.11287 0.74697
 H675 H 0.90867 -0.08626 0.58847
 H676 H 0.92885 -0.06725 0.55421
 H677 H 0.97148 -0.02483 0.60353
 H678 H 0.95113 -0.04403 0.63752
 C679 C 1.11355 -0.14568 0.28082
 C680 C 1.12309 -0.12445 0.29014
 C681 C 1.14326 -0.11415 0.27938
 C682 C 1.15386 -0.12496 0.25931
 C683 C 1.14447 -0.14647 0.24943
 C684 C 1.12405 -0.15660 0.26076
 C685 C 1.11205 -0.11314 0.31065
 C686 C 1.10270 -0.10364 0.32774
 C687 C 1.09167 -0.09244 0.34767
 C688 C 1.08220 -0.08278 0.36461
 C689 C 1.07084 -0.07111 0.38473
 C690 C 1.07730 -0.07724 0.40828
 C691 C 1.06641 -0.06573 0.42781
 C692 C 1.04889 -0.04789 0.42402
 C693 C 1.04245 -0.04195 0.40024
 C694 C 1.05337 -0.05349 0.38076
 H695 H 1.09792 -0.15385 0.28906
 H696 H 1.15078 -0.09764 0.28646
 H697 H 1.16927 -0.11603 0.25169
 H698 H 1.11594 -0.17305 0.25452
 H699 H 1.09081 -0.09087 0.41154
 H700 H 1.07179 -0.07076 0.44585
 H701 H 1.02902 -0.02835 0.39663
 H702 H 1.04822 -0.04862 0.36259
 C703 C 0.88880 0.14660 0.27905
 C704 C 0.87899 0.12627 0.28998
 C705 C 0.85795 0.11620 0.28079
 C706 C 0.84675 0.12633 0.26070
 C707 C 0.85640 0.14691 0.24921
 C708 C 0.87771 0.15684 0.25895
 C709 C 0.89059 0.11560 0.31051
 C710 C 0.90031 0.10654 0.32763
 C711 C 0.91170 0.09577 0.34759
 C712 C 0.92141 0.08641 0.36455
 C713 C 0.93299 0.07500 0.38469
 C714 C 0.95039 0.05731 0.38074
 C715 C 0.96142 0.04592 0.40024
 C716 C 0.95516 0.05208 0.42402
 C717 C 0.93773 0.07001 0.42778
 C718 C 0.92672 0.08137 0.40823
 H719 H 0.90513 0.15455 0.28604
 H720 H 0.85017 0.10043 0.28916
 H721 H 0.83054 0.11775 0.25451
 H722 H 0.88623 0.17246 0.25127
 H723 H 0.95538 0.05225 0.36258
 H724 H 0.97478 0.03224 0.39665
 H725 H 0.93248 0.07520 0.44582
 H726 H 0.91326 0.09504 0.41148
 C727 C 0.14565 0.28048 -0.11326
 C728 C 0.12471 0.29011 -0.12309
 C729 C 0.11458 0.27960 -0.14351
 C730 C 0.12526 0.25945 -0.15406
 C731 C 0.14646 0.24924 -0.14435
 C732 C 0.15644 0.26035 -0.12370
 C733 C 0.11349 0.31065 -0.11206
 C734 C 0.10405 0.32776 -0.10272
 C735 C 0.09291 0.34770 -0.09169
 C736 C 0.08329 0.36463 -0.08221
 C737 C 0.07163 0.38474 -0.07086
 C738 C 0.05402 0.38081 -0.05334
 C739 C 0.04242 0.40027 -0.04250
 C740 C 0.04830 0.42401 -0.04905
 C741 C 0.06616 0.42776 -0.06659
 C742 C 0.07772 0.40824 -0.07741
 H743 H 0.15368 0.28853 -0.09742
 H744 H 0.09830 0.28692 -0.15127
 H745 H 0.11651 0.25207 -0.16970
 H746 H 0.17263 0.25383 -0.11530
 H747 H 0.04918 0.36268 -0.04811
 H748 H 0.02882 0.39669 -0.02904
 H749 H 0.07113 0.44576 -0.07206
 H750 H 0.09133 0.41148 -0.09096
 C751 C -0.11140 0.27400 0.13364
 C752 C -0.12586 0.28983 0.12050
 C753 C -0.15053 0.28554 0.11862
 C754 C -0.16073 0.26548 0.12982
 C755 C -0.14635 0.24943 0.14308
 C756 C -0.12156 0.25395 0.14487
 C757 C -0.11531 0.31039 0.10888
 C758 C -0.10631 0.32753 0.09917
 C759 C -0.09557 0.34750 0.08781
 C760 C -0.08621 0.36447 0.07813
 C761 C -0.07480 0.38460 0.06658
 C762 C -0.08116 0.40809 0.07293
 C763 C -0.06980 0.42764 0.06195
 C764 C -0.05187 0.42393 0.04446
 C765 C -0.04572 0.40020 0.03814
 C766 C -0.05711 0.38071 0.04914
 H767 H -0.09226 0.27710 0.13514
 H768 H -0.16190 0.29771 0.10853
 H769 H -0.17990 0.26271 0.12835
 H770 H -0.10993 0.24180 0.15463
 H771 H -0.09483 0.41130 0.08642
 H772 H -0.07499 0.44563 0.06725
 H773 H -0.03204 0.39665 0.02474
 H774 H -0.05205 0.36260 0.04410
 C775 C -0.11379 0.72082 -0.14832
 C776 C -0.12339 0.71059 -0.12750
 C777 C -0.14384 0.72062 -0.11702
 C778 C -0.15466 0.74087 -0.12722
 C779 C -0.14521 0.75168 -0.14828
 C780 C -0.12451 0.74107 -0.15863
 C781 C -0.11213 0.68994 -0.11674
 C782 C -0.10266 0.67274 -0.10760
 C783 C -0.09154 0.65271 -0.09672
 C784 C -0.08202 0.63570 -0.08726
 C785 C -0.07063 0.61553 -0.07576
 C786 C -0.05310 0.61938 -0.05815
 C787 C -0.04221 0.59986 -0.04670
 C788 C -0.04874 0.57615 -0.05270
 C789 C -0.06632 0.57248 -0.07052
 C790 C -0.07719 0.59206 -0.08195
 H791 H -0.09793 0.71316 -0.15661
 H792 H -0.15143 0.71282 -0.10085
 H793 H -0.17034 0.74781 -0.11822
 H794 H -0.11626 0.74809 -0.17472
 H795 H -0.04788 0.63748 -0.05322
 H796 H -0.02874 0.60338 -0.03310
 H797 H -0.07179 0.55451 -0.07558
 H798 H -0.09076 0.58889 -0.09555
 C799 C 0.10610 0.72573 0.13683
 C800 C 0.11979 0.70912 0.12383
 C801 C 0.14458 0.71247 0.12150
 C802 C 0.15565 0.73236 0.13212
 C803 C 0.14205 0.74919 0.14523
 C804 C 0.11714 0.74563 0.14747
 C805 C 0.10837 0.68874 0.11275
 C806 C 0.09875 0.67173 0.10341
 C807 C 0.08747 0.65190 0.09236
 C808 C 0.07782 0.63503 0.08280
 C809 C 0.06632 0.61498 0.07121
 C810 C 0.07287 0.59146 0.07722
 C811 C 0.06194 0.57199 0.06568
 C812 C 0.04432 0.57581 0.04793
 C813 C 0.03778 0.59957 0.04214
 C814 C 0.04872 0.61899 0.05371
 H815 H 0.08688 0.72336 0.13866
 H816 H 0.15535 0.69969 0.11151
 H817 H 0.17488 0.73440 0.13032
 H818 H 0.10610 0.75840 0.15712
 H819 H 0.08648 0.58816 0.09074
 H820 H 0.06742 0.55397 0.07059
 H821 H 0.02426 0.60320 0.02861
 H822 H 0.04352 0.63713 0.04893
 C823 C 0.27371 1.13634 0.89443
 C824 C 0.29016 1.12315 0.88073
 C825 C 0.28669 1.12068 0.85591
 C826 C 0.26683 1.13134 0.84482
 C827 C 0.25017 1.14464 0.85843
 C828 C 0.25386 1.14702 0.88339
 C829 C 0.31052 1.11206 0.89217
 C830 C 0.32752 1.10273 0.90179
 C831 C 0.34737 1.09170 0.91306
 C832 C 0.36427 1.08219 0.92269
 C833 C 0.38438 1.07068 0.93414
 C834 C 0.40783 1.07686 0.92759
 C835 C 0.42738 1.06544 0.93849
 C836 C 0.42369 1.04762 0.95609
 C837 C 0.40000 1.04163 0.96264
 C838 C 0.38051 1.05309 0.95172
 H839 H 0.27618 1.13829 0.91368
 H840 H 0.29935 1.11055 0.84512
 H841 H 0.26470 1.12942 0.82556
 H842 H 0.24122 1.15683 0.89443
 H843 H 0.41102 1.09046 0.91400
 H844 H 0.44534 1.07050 0.93302
 H845 H 0.39648 1.02804 0.97613
 H846 H 0.36243 1.04817 0.95693
 C847 C 0.28561 0.84746 1.12148
 C848 C 0.29003 0.87211 1.12377
 C849 C 0.27414 0.88649 1.13692
 C850 C 0.25387 0.87632 1.14770
 C851 C 0.24920 0.85156 1.14545
 C852 C 0.26534 0.83724 1.13223
 C853 C 0.31074 0.88270 1.11249
 C854 C 0.32798 0.89173 1.10301
 C855 C 0.34802 0.90254 1.09187
 C856 C 0.36500 0.91200 1.08233
 C857 C 0.38510 0.92358 1.07092
 C858 C 0.40858 0.91776 1.07770
 C859 C 0.42806 0.92936 1.06687
 C860 C 0.42428 0.94700 1.04911
 C861 C 0.40057 0.95259 1.04232
 C862 C 0.38115 0.94096 1.05316
 H863 H 0.29782 0.83615 1.11138
 H864 H 0.27735 0.90561 1.13873
 H865 H 0.24167 0.88790 1.15744
 H866 H 0.26245 0.81811 1.13041
 H867 H 0.41183 0.90434 1.09145
 H868 H 0.44605 0.92461 1.07253
 H869 H 0.39696 0.96603 1.02868
 H870 H 0.36304 0.94562 1.04778
 C871 C 0.71342 1.14563 1.12342
 C872 C 0.70988 1.12090 1.12625
 C873 C 0.72648 1.10731 1.13936
 C874 C 0.74657 1.11838 1.14957
 C875 C 0.75035 1.14324 1.14678
 C876 C 0.73350 1.15674 1.13360
 C877 C 0.68935 1.10943 1.11553
 C878 C 0.67223 1.09978 1.10645
 C879 C 0.65229 1.08845 1.09567
 C880 C 0.63534 1.07875 1.08632
 C881 C 0.61523 1.06715 1.07495
 C882 C 0.59176 1.07364 1.08116
 C883 C 0.57224 1.06259 1.06986
 C884 C 0.57596 1.04489 1.05214
 C885 C 0.59966 1.03842 1.04613
 C886 C 0.61913 1.04949 1.05746
 H887 H 0.70065 1.15633 1.11334
 H888 H 0.72397 1.08813 1.14159
 H889 H 0.75933 1.10741 1.15930
 H890 H 0.73569 1.17593 1.13139
 H891 H 0.58856 1.08730 1.09468
 H892 H 0.55427 1.06801 1.07493
 H893 H 0.60322 1.02485 1.03262
 H894 H 0.63723 1.04433 1.05252
 C895 C 0.72565 0.86319 0.88974
 C896 C 0.70949 0.87657 0.87588
 C897 C 0.71342 0.87930 0.85116
 C898 C 0.73349 0.86876 0.84033
 C899 C 0.74992 0.85534 0.85411
 C900 C 0.74572 0.85263 0.87895
 C901 C 0.68899 0.88766 0.88708
 C902 C 0.67191 0.89702 0.89654
 C903 C 0.65201 0.90804 0.90773
 C904 C 0.63510 0.91749 0.91741
 C905 C 0.61502 0.92881 0.92913
 C906 C 0.59154 0.92239 0.92293
 C907 C 0.57205 0.93324 0.93450
 C908 C 0.57581 0.95068 0.95246
 C909 C 0.59953 0.95706 0.95849
 C910 C 0.61897 0.94618 0.94689
 H911 H 0.72282 0.86103 0.90891
 H912 H 0.70099 0.88957 0.84025
 H913 H 0.73600 0.87092 0.82114
 H914 H 0.75816 0.84271 0.89012
 H915 H 0.58829 0.90895 0.90920
 H916 H 0.55406 0.92790 0.92940
 H917 H 0.60312 0.97043 0.97219
 H918 H 0.63708 0.95130 0.95183
   
