data_POSCAR
  _audit_creation_date              2014-09-24
  _audit_creation_method            'ToBaCCo'
  _symmetry_space_group_name_H-M    'P1'
  _symmetry_Int_Tables_number       1
  _symmetry_cell_setting            triclinic
  loop_
  _symmetry_equiv_pos_as_xyz
 x,y,z
_cell_length_a 36.4559
_cell_length_b 38.5290
_cell_length_c 37.0789
_cell_angle_alpha 84.712800
_cell_angle_beta 94.885100
_cell_angle_gamma 94.635400
loop_
  _atom_site_label
  _atom_site_type_symbol
  _atom_site_fract_x
  _atom_site_fract_y
  _atom_site_fract_z
C1 C 0.21510 0.28175 0.27788
 C2 C 0.24083 0.30560 0.25402
 C3 C 0.26281 0.28821 0.23504
 C4 C 0.25687 0.24823 0.24128
 C5 C 0.19363 0.25775 0.25101
 C6 C 0.21540 0.24025 0.23187
 C7 C 0.24086 0.25791 0.30160
 C8 C 0.26249 0.24044 0.28255
 H9 H 0.24078 0.33383 0.25163
 H10 H 0.27517 0.23412 0.22619
 H11 H 0.16399 0.25495 0.24664
 H12 H 0.24193 0.25520 0.33101
 C13 C 0.71879 0.78138 0.28391
 C14 C 0.74873 0.80304 0.26298
 C15 C 0.76853 0.78399 0.24353
 C16 C 0.75736 0.74463 0.24745
 C17 C 0.69576 0.76090 0.25525
 C18 C 0.71572 0.74145 0.23627
 C19 C 0.74038 0.75374 0.30757
 C20 C 0.76037 0.73453 0.28851
 H21 H 0.75359 0.83110 0.26317
 H22 H 0.77407 0.72908 0.23219
 H23 H 0.66593 0.76050 0.25186
 H24 H 0.74195 0.75103 0.33696
 C25 C 0.71502 0.27805 0.78631
 C26 C 0.74276 0.29910 0.76625
 C27 C 0.76307 0.27996 0.74430
 C28 C 0.75240 0.24246 0.74773
 C29 C 0.69114 0.25794 0.75783
 C30 C 0.71048 0.23899 0.73767
 C31 C 0.73701 0.24995 0.80888
 C32 C 0.75649 0.23136 0.78868
 H33 H 0.74619 0.32722 0.76652
 H34 H 0.76848 0.22653 0.73239
 H35 H 0.66129 0.25716 0.75566
 H36 H 0.74010 0.24684 0.83821
 C37 C 0.21154 0.78034 0.77520
 C38 C 0.23942 0.80304 0.75270
 C39 C 0.26059 0.78469 0.73386
 C40 C 0.25182 0.74496 0.73899
 C41 C 0.18924 0.75829 0.74715
 C42 C 0.21019 0.73962 0.72833
 C43 C 0.23462 0.75420 0.79897
 C44 C 0.25574 0.73582 0.78022
 H45 H 0.24085 0.83134 0.75054
 H46 H 0.26920 0.72990 0.72392
 H47 H 0.15961 0.75709 0.74237
 H48 H 0.23473 0.75113 0.82832
 C49 C 0.06430 0.04850 0.00654
 H50 H 0.06245 0.05138 -0.02285
 C51 C 0.08742 0.07193 0.02620
 H52 H 0.10374 0.09253 0.01171
 C53 C 0.04481 0.01832 0.06101
 H54 H 0.02753 -0.00204 0.07453
 C55 C 0.06753 0.04113 0.08171
 H56 H 0.06736 0.03801 0.11102
 N57 N 0.04372 0.02225 0.02412
 C58 C 0.01827 -0.05910 -0.05059
 H59 H -0.01139 -0.06285 -0.04982
 C60 C 0.03660 -0.07992 -0.07102
 H61 H 0.02073 -0.09930 -0.08645
 C62 C 0.07489 -0.02919 -0.03133
 H63 H 0.08984 -0.00986 -0.01533
 C64 C 0.09431 -0.04939 -0.05141
 H65 H 0.12410 -0.04531 -0.05061
 Zn66 Zn 0.01094 -0.00699 -0.00425
 N67 N 0.03749 -0.03399 -0.03169
 C68 C -0.02853 0.01751 -0.07061
 N69 N -0.01993 0.02234 -0.03491
 C70 C -0.03344 0.04869 -0.01930
 C71 C -0.05702 0.07118 -0.03954
 C72 C -0.05259 0.03907 -0.09176
 C73 C -0.00155 -0.06295 0.04863
 C74 C -0.02218 -0.08591 0.07186
 C75 C -0.07704 -0.05804 0.04729
 C76 C -0.05536 -0.03553 0.02471
 N77 N -0.01826 -0.03806 0.02609
 H78 H -0.01730 -0.00335 -0.08267
 H79 H -0.02590 0.05215 0.00907
 H80 H -0.06685 0.09227 -0.02651
 H81 H -0.06003 0.03395 -0.11975
 H82 H 0.02794 -0.06470 0.04878
 H83 H -0.00843 -0.10546 0.08977
 H84 H -0.10640 -0.05509 0.04637
 H85 H -0.06821 -0.01589 0.00628
 C86 C 0.07514 -0.07505 -0.07175
 C87 C 0.08913 0.06848 0.06433
 C88 C -0.06045 -0.08348 0.07147
 C89 C -0.06741 0.06628 -0.07623
 C90 C 0.05928 0.54228 0.50993
 H91 H 0.05997 0.54417 0.48070
 C92 C 0.08121 0.56599 0.53032
 H93 H 0.09884 0.58612 0.51668
 C94 C 0.03410 0.51482 0.56312
 H95 H 0.01511 0.49544 0.57578
 C96 C 0.05513 0.53826 0.58444
 H97 H 0.05264 0.53624 0.61347
 N98 N 0.03656 0.51713 0.52656
 C99 C 0.01426 0.43695 0.44978
 H100 H -0.01551 0.43334 0.44935
 C101 C 0.03335 0.41673 0.42938
 H102 H 0.01802 0.39747 0.41340
 C103 C 0.07037 0.46553 0.47234
 H104 H 0.08484 0.48414 0.48952
 C105 C 0.09055 0.44592 0.45234
 H106 H 0.12032 0.45039 0.45376
 Zn107 Zn 0.00510 0.48766 0.49719
 N108 N 0.03286 0.46120 0.47024
 C109 C -0.03270 0.51353 0.43012
 N110 N -0.02546 0.51707 0.46625
 C111 C -0.03996 0.54254 0.48238
 C112 C -0.06299 0.56556 0.46220
 C113 C -0.05626 0.53562 0.40898
 C114 C -0.00773 0.43270 0.55100
 C115 C -0.02856 0.41002 0.57429
 C116 C -0.08382 0.43455 0.54560
 C117 C -0.06191 0.45704 0.52318
 N118 N -0.02455 0.45610 0.52663
 H119 H -0.02068 0.49336 0.41766
 H120 H -0.03349 0.54500 0.51109
 H121 H -0.07340 0.58604 0.47570
 H122 H -0.06256 0.53157 0.38057
 H123 H 0.02201 0.43220 0.55280
 H124 H -0.01475 0.39191 0.59394
 H125 H -0.11345 0.43620 0.54307
 H126 H -0.07480 0.47546 0.50329
 C127 C 0.07205 0.42125 0.43031
 C128 C 0.07893 0.56431 0.56802
 C129 C -0.06711 0.41099 0.57188
 C130 C -0.07192 0.56209 0.42499
 C131 C 0.56313 0.04873 0.50971
 H132 H 0.56591 0.05091 0.48076
 C133 C 0.58401 0.07185 0.53167
 H134 H 0.60297 0.09172 0.51946
 C135 C 0.53354 0.02141 0.56050
 H136 H 0.51315 0.00243 0.57156
 C137 C 0.55353 0.04420 0.58333
 H138 H 0.54893 0.04190 0.61195
 N139 N 0.53865 0.02398 0.52440
 C140 C 0.51641 -0.05134 0.44235
 H141 H 0.48656 -0.05270 0.44036
 C142 C 0.53474 -0.07204 0.42179
 H143 H 0.51879 -0.08902 0.40364
 C144 C 0.57337 -0.02747 0.46858
 H145 H 0.58832 -0.01068 0.48744
 C146 C 0.59284 -0.04756 0.44832
 H147 H 0.62271 -0.04590 0.45173
 Zn148 Zn 0.50798 -0.00391 0.49272
 N149 N 0.53583 -0.02949 0.46502
 C150 C 0.48127 0.03124 0.42557
 N151 N 0.47906 0.02712 0.46216
 C152 C 0.45695 0.04641 0.47875
 C153 C 0.43486 0.07011 0.45834
 C154 C 0.46007 0.05517 0.40409
 C155 C 0.49377 -0.06007 0.54450
 C156 C 0.47255 -0.08357 0.56667
 C157 C 0.41756 -0.06008 0.53618
 C158 C 0.43982 -0.03698 0.51471
 N159 N 0.47723 -0.03674 0.51985
 H160 H 0.49982 0.01636 0.41302
 H161 H 0.45617 0.04298 0.50797
 H162 H 0.41657 0.08415 0.47222
 H163 H 0.46280 0.05849 0.37512
 H164 H 0.52357 -0.05982 0.54751
 H165 H 0.48623 -0.10157 0.58656
 H166 H 0.38788 -0.05899 0.53251
 H167 H 0.42707 -0.01906 0.49421
 C168 C 0.57347 -0.07028 0.42461
 C169 C 0.57898 0.06996 0.56893
 C170 C 0.43390 -0.08340 0.56300
 C171 C 0.43625 0.07492 0.42041
 C172 C 0.56369 0.55447 0.00614
 H173 H 0.56339 0.55784 -0.02317
 C174 C 0.58593 0.57746 0.02721
 H175 H 0.60325 0.59804 0.01387
 C176 C 0.54086 0.52396 0.05899
 H177 H 0.52254 0.50377 0.07135
 C178 C 0.56259 0.54631 0.08103
 H179 H 0.56064 0.54287 0.11013
 N180 N 0.54185 0.52825 0.02225
 C181 C 0.51613 0.44644 -0.05218
 H182 H 0.48663 0.44243 -0.05018
 C183 C 0.53383 0.42483 -0.07227
 H184 H 0.51768 0.40448 -0.08611
 C185 C 0.57296 0.47779 -0.03633
 H186 H 0.58823 0.49804 -0.02181
 C187 C 0.59174 0.45694 -0.05638
 H188 H 0.62139 0.46139 -0.05705
 Zn189 Zn 0.50939 0.49985 -0.00758
 N190 N 0.53573 0.47249 -0.03495
 C191 C 0.46978 0.52383 -0.07381
 N192 N 0.47962 0.52985 -0.03860
 C193 C 0.46756 0.55738 -0.02373
 C194 C 0.44434 0.57999 -0.04430
 C195 C 0.44608 0.54552 -0.09525
 C196 C 0.49442 0.44359 0.04429
 C197 C 0.47274 0.42087 0.06677
 C198 C 0.41899 0.44978 0.04082
 C199 C 0.44172 0.47213 0.01910
 N200 N 0.47876 0.46897 0.02153
 H201 H 0.47965 0.50186 -0.08518
 H202 H 0.47586 0.56164 0.00432
 H203 H 0.43561 0.60198 -0.03190
 H204 H 0.43761 0.53950 -0.12280
 H205 H 0.52389 0.44135 0.04529
 H206 H 0.48565 0.40101 0.08499
 H207 H 0.38967 0.45317 0.03909
 H208 H 0.42974 0.49218 0.00053
 C209 C 0.57212 0.43004 -0.07467
 C210 C 0.58544 0.57361 0.06522
 C211 C 0.43451 0.42397 0.06530
 C212 C 0.43277 0.57397 -0.08048
 C213 C 0.15294 -0.15868 -0.15795
 C214 C 0.19142 -0.15397 -0.15904
 C215 C 0.20977 -0.17380 -0.18051
 C216 C 0.19015 -0.19853 -0.20196
 C217 C 0.15161 -0.20378 -0.19998
 C218 C 0.13331 -0.18394 -0.17847
 C219 C 0.13330 -0.13738 -0.13548
 C220 C 0.10412 -0.15265 -0.11556
 C221 C 0.08529 -0.13247 -0.09484
 C222 C 0.09525 -0.09658 -0.09356
 C223 C 0.12454 -0.08134 -0.11334
 C224 C 0.14335 -0.10152 -0.13407
 H225 H 0.23953 -0.16982 -0.18037
 H226 H 0.13510 -0.22336 -0.21433
 H227 H 0.06324 -0.14506 -0.07942
 H228 H 0.13249 -0.05365 -0.11332
 H229 H 0.10360 -0.18819 -0.17818
 H230 H 0.09613 -0.18033 -0.11562
 H231 H 0.20745 -0.13525 -0.14287
 H232 H 0.16534 -0.08890 -0.14956
 C233 C 0.15365 0.34085 0.34412
 C234 C 0.19210 0.34659 0.34340
 C235 C 0.21137 0.32734 0.32210
 C236 C 0.19274 0.30201 0.30073
 C237 C 0.15423 0.29575 0.30241
 C238 C 0.13501 0.31509 0.32360
 C239 C 0.13291 0.36152 0.36623
 C240 C 0.09895 0.37401 0.35223
 C241 C 0.07922 0.39331 0.37302
 C242 C 0.09296 0.40051 0.40834
 C243 C 0.12694 0.38798 0.42235
 C244 C 0.14673 0.36876 0.40149
 H245 H 0.24103 0.33237 0.32214
 H246 H 0.13841 0.27572 0.28814
 H247 H 0.05348 0.40311 0.36119
 H248 H 0.13801 0.39260 0.44966
 H249 H 0.10549 0.30947 0.32439
 H250 H 0.08788 0.36929 0.32494
 H251 H 0.20725 0.36632 0.35891
 H252 H 0.17256 0.35904 0.41319
 C253 C 0.65243 -0.15639 0.34205
 C254 C 0.66521 -0.14339 0.30842
 C255 C 0.68576 -0.16370 0.28947
 C256 C 0.69515 -0.19715 0.30420
 C257 C 0.68043 -0.21080 0.33696
 C258 C 0.65964 -0.19057 0.35577
 C259 C 0.63185 -0.13429 0.36282
 C260 C 0.60036 -0.14829 0.37996
 C261 C 0.58131 -0.12747 0.39983
 C262 C 0.59351 -0.09228 0.40323
 C263 C 0.62503 -0.07830 0.38613
 C264 C 0.64391 -0.09904 0.36602
 H265 H 0.69434 -0.15302 0.26324
 H266 H 0.68477 -0.23717 0.34824
 H267 H 0.55729 -0.13904 0.41298
 H268 H 0.63489 -0.05120 0.38802
 H269 H 0.64973 -0.20147 0.38144
 H270 H 0.59027 -0.17528 0.37772
 H271 H 0.65900 -0.11757 0.29658
 H272 H 0.66830 -0.08764 0.35338
 C273 C 0.64959 0.34140 -0.15563
 C274 C 0.66253 0.31022 -0.13849
 C275 C 0.68314 0.28947 -0.15688
 C276 C 0.69178 0.29959 -0.19289
 C277 C 0.67695 0.32995 -0.21050
 C278 C 0.65662 0.35083 -0.19198
 C279 C 0.62912 0.36413 -0.13551
 C280 C 0.63734 0.40050 -0.13822
 C281 C 0.61886 0.42188 -0.11847
 C282 C 0.59154 0.40737 -0.09584
 C283 C 0.58304 0.37104 -0.09343
 C284 C 0.60174 0.34963 -0.11294
 H285 H 0.69168 0.26545 -0.14257
 H286 H 0.68146 0.33779 -0.23867
 H287 H 0.62574 0.44982 -0.12110
 H288 H 0.56232 0.35912 -0.07598
 H289 H 0.64614 0.37427 -0.20619
 H290 H 0.65853 0.41234 -0.15517
 H291 H 0.65720 0.30212 -0.11055
 H292 H 0.59465 0.32171 -0.11055
 C293 C -0.17046 0.15669 -0.15893
 C294 C -0.20725 0.15602 -0.14984
 C295 C -0.23107 0.17998 -0.16725
 C296 C -0.21896 0.20466 -0.19469
 C297 C -0.18286 0.20457 -0.20503
 C298 C -0.15871 0.18103 -0.18711
 C299 C -0.14429 0.13300 -0.13816
 C300 C -0.11598 0.11966 -0.15510
 C301 C -0.09099 0.09816 -0.13512
 C302 C -0.09393 0.08910 -0.09778
 C303 C -0.12255 0.10210 -0.08103
 C304 C -0.14710 0.12398 -0.10082
 H305 H -0.25903 0.17928 -0.15926
 H306 H -0.17290 0.22361 -0.22598
 H307 H -0.06909 0.08903 -0.14893
 H308 H -0.12625 0.09523 -0.05254
 H309 H -0.13053 0.18272 -0.19457
 H310 H -0.11317 0.12563 -0.18387
 H311 H -0.21770 0.13707 -0.12909
 H312 H -0.16801 0.13420 -0.08656
 C313 C -0.17015 0.65745 0.34242
 C314 C -0.15686 0.68194 0.31508
 C315 C -0.17976 0.70644 0.29689
 C316 C -0.21611 0.70745 0.30617
 C317 C -0.22968 0.68288 0.33298
 C318 C -0.20713 0.65790 0.35060
 C319 C -0.14541 0.63230 0.36309
 C320 C -0.14974 0.62198 0.39996
 C321 C -0.12644 0.59882 0.41964
 C322 C -0.09749 0.58585 0.40335
 C323 C -0.09311 0.59610 0.36646
 C324 C -0.11692 0.61880 0.34653
 H325 H -0.16869 0.72537 0.27642
 H326 H -0.25788 0.68288 0.34012
 H327 H -0.13132 0.59106 0.44772
 H328 H -0.07093 0.58705 0.35299
 H329 H -0.21880 0.63893 0.37064
 H330 H -0.17083 0.63218 0.41398
 H331 H -0.12847 0.68290 0.30836
 H332 H -0.11298 0.62564 0.31808
 C333 C 0.34044 0.17163 0.33676
 C334 C 0.31073 0.15870 0.31369
 C335 C 0.28580 0.18126 0.29541
 C336 C 0.28970 0.21698 0.30034
 C337 C 0.31925 0.23015 0.32299
 C338 C 0.34463 0.20779 0.34072
 C339 C 0.36616 0.14744 0.35747
 C340 C 0.38123 0.15410 0.39257
 C341 C 0.40453 0.13108 0.41249
 C342 C 0.41290 0.10031 0.39825
 C343 C 0.39811 0.09375 0.36303
 C344 C 0.37527 0.11713 0.34281
 H345 H 0.26279 0.17066 0.27838
 H346 H 0.32274 0.25781 0.32679
 H347 H 0.41594 0.13750 0.43917
 H348 H 0.40355 0.07020 0.35122
 H349 H 0.36754 0.21892 0.35748
 H350 H 0.37451 0.17680 0.40511
 H351 H 0.30607 0.13103 0.31046
 H352 H 0.36477 0.11136 0.31566
 C353 C 0.32973 0.66348 -0.16436
 C354 C 0.29311 0.66324 -0.15492
 C355 C 0.26900 0.68650 -0.17317
 C356 C 0.28070 0.71010 -0.20172
 C357 C 0.31671 0.70967 -0.21218
 C358 C 0.34111 0.68679 -0.19350
 C359 C 0.35607 0.64026 -0.14319
 C360 C 0.38365 0.62578 -0.16012
 C361 C 0.40864 0.60448 -0.13988
 C362 C 0.40643 0.59679 -0.10225
 C363 C 0.37862 0.61103 -0.08545
 C364 C 0.35403 0.63268 -0.10555
 H365 H 0.24110 0.68597 -0.16505
 H366 H 0.32640 0.72789 -0.23396
 H367 H 0.42992 0.59435 -0.15372
 H368 H 0.37553 0.60525 -0.05670
 H369 H 0.36918 0.68813 -0.20125
 H370 H 0.38583 0.63067 -0.18910
 H371 H 0.28299 0.64506 -0.13335
 H372 H 0.33366 0.64379 -0.09136
 C373 C -0.15241 -0.16651 0.17176
 C374 C -0.15498 -0.15425 0.20593
 C375 C -0.18009 -0.17074 0.22959
 C376 C -0.20307 -0.19992 0.21964
 C377 C -0.19977 -0.21283 0.18595
 C378 C -0.17477 -0.19622 0.16220
 C379 C -0.12775 -0.14731 0.14562
 C380 C -0.14025 -0.14103 0.10887
 C381 C -0.11812 -0.12089 0.08467
 C382 C -0.08295 -0.10670 0.09665
 C383 C -0.07004 -0.11375 0.13319
 C384 C -0.09226 -0.13377 0.15744
 H385 H -0.18169 -0.16049 0.25559
 H386 H -0.21737 -0.23506 0.17740
 H387 H -0.12864 -0.11622 0.05658
 H388 H -0.04318 -0.10295 0.14326
 H389 H -0.17315 -0.20644 0.13618
 H390 H -0.16759 -0.15084 0.09902
 H391 H -0.13835 -0.13125 0.21395
 H392 H -0.08177 -0.13846 0.18554
 C393 C -0.16013 0.33036 0.67265
 C394 C -0.17725 0.29735 0.66625
 C395 C -0.20193 0.28035 0.69013
 C396 C -0.21062 0.29621 0.72089
 C397 C -0.19294 0.32933 0.72716
 C398 C -0.16793 0.34599 0.70352
 C399 C -0.13515 0.34911 0.64663
 C400 C -0.10158 0.36614 0.65917
 C401 C -0.07901 0.38545 0.63477
 C402 C -0.08978 0.38846 0.59739
 C403 C -0.12307 0.37097 0.58478
 C404 C -0.14543 0.35131 0.60915
 H405 H -0.21539 0.25562 0.68299
 H406 H -0.19746 0.34236 0.75083
 H407 H -0.05363 0.39889 0.64523
 H408 H -0.13187 0.37267 0.55607
 H409 H -0.15518 0.37153 0.70904
 H410 H -0.09292 0.36464 0.68791
 H411 H -0.17169 0.28473 0.64257
 H412 H -0.17130 0.33865 0.59881
 C413 C 0.33888 -0.16458 0.66185
 C414 C 0.31839 -0.19561 0.65319
 C415 C 0.29332 -0.21234 0.67681
 C416 C 0.28811 -0.19830 0.70948
 C417 C 0.30892 -0.16753 0.71835
 C418 C 0.33405 -0.15088 0.69482
 C419 C 0.36436 -0.14586 0.63619
 C420 C 0.39864 -0.13041 0.64908
 C421 C 0.42159 -0.11090 0.62519
 C422 C 0.41075 -0.10633 0.58786
 C423 C 0.37687 -0.12249 0.57484
 C424 C 0.35395 -0.14209 0.59873
 H425 H 0.27738 -0.23579 0.66902
 H426 H 0.30580 -0.15631 0.74354
 H427 H 0.44736 -0.09851 0.63611
 H428 H 0.36795 -0.11976 0.54618
 H429 H 0.34911 -0.12681 0.70208
 H430 H 0.40759 -0.13320 0.67773
 H431 H 0.32174 -0.20693 0.62811
 H432 H 0.32758 -0.15343 0.58801
 C433 C 0.33926 0.34162 0.16286
 C434 C 0.33452 0.35459 0.19621
 C435 C 0.30976 0.33720 0.21968
 C436 C 0.28944 0.30631 0.21041
 C437 C 0.29453 0.29301 0.17734
 C438 C 0.31906 0.31062 0.15366
 C439 C 0.36454 0.36096 0.13747
 C440 C 0.35338 0.36666 0.10033
 C441 C 0.37632 0.38670 0.07677
 C442 C 0.41100 0.40115 0.08983
 C443 C 0.42254 0.39469 0.12680
 C444 C 0.39947 0.37493 0.15041
 H445 H 0.30666 0.34782 0.24520
 H446 H 0.27898 0.26941 0.16940
 H447 H 0.36688 0.39102 0.04834
 H448 H 0.44900 0.40573 0.13764
 H449 H 0.32236 0.29995 0.12821
 H450 H 0.32650 0.35641 0.08969
 H451 H 0.34947 0.37860 0.20384
 H452 H 0.40887 0.37067 0.17886
 C453 C 0.16907 0.16908 0.15409
 C454 C 0.15168 0.19947 0.15853
 C455 C 0.16708 0.22287 0.18319
 C456 C 0.20020 0.21640 0.20415
 C457 C 0.21821 0.18658 0.19890
 C458 C 0.20273 0.16309 0.17424
 C459 C 0.15119 0.14315 0.12966
 C460 C 0.15063 0.10721 0.14054
 C461 C 0.13125 0.08291 0.11893
 C462 C 0.11201 0.09401 0.08595
 C463 C 0.11350 0.12988 0.07456
 C464 C 0.13287 0.15417 0.09617
 H465 H 0.15291 0.24601 0.18585
 H466 H 0.24375 0.18081 0.21448
 H467 H 0.13101 0.05542 0.12821
 H468 H 0.09873 0.13930 0.04945
 H469 H 0.21702 0.14013 0.17105
 H470 H 0.16419 0.09790 0.16633
 H471 H 0.12558 0.20473 0.14363
 H472 H 0.13318 0.18166 0.08685
 C473 C 0.15913 0.66751 0.65393
 C474 C 0.19281 0.66066 0.67356
 C475 C 0.20995 0.68451 0.69710
 C476 C 0.19386 0.71573 0.70113
 C477 C 0.16100 0.72316 0.68015
 C478 C 0.14373 0.69921 0.65700
 C479 C 0.13899 0.64103 0.63172
 C480 C 0.10125 0.63237 0.63533
 C481 C 0.08194 0.60725 0.61482
 C482 C 0.09987 0.59056 0.58996
 C483 C 0.13758 0.59933 0.58612
 C484 C 0.15710 0.62416 0.60710
 H485 H 0.23498 0.67778 0.71315
 H486 H 0.14838 0.74739 0.68180
 H487 H 0.05280 0.60116 0.61803
 H488 H 0.15200 0.58667 0.56720
 H489 H 0.11809 0.70533 0.64163
 H490 H 0.08677 0.64479 0.65438
 H491 H 0.20508 0.63626 0.67179
 H492 H 0.18617 0.63052 0.60379
 C493 C 0.65659 0.16923 0.66184
 C494 C 0.69043 0.16165 0.68074
 C495 C 0.70809 0.18445 0.70506
 C496 C 0.69247 0.21551 0.71073
 C497 C 0.65898 0.22341 0.69115
 C498 C 0.64117 0.20045 0.66711
 C499 C 0.63683 0.14414 0.63758
 C500 C 0.59880 0.13564 0.63939
 C501 C 0.58015 0.11147 0.61720
 C502 C 0.59905 0.09552 0.59246
 C503 C 0.63702 0.10425 0.59035
 C504 C 0.65580 0.12816 0.61289
 H505 H 0.73336 0.17705 0.72021
 H506 H 0.64651 0.24739 0.69432
 H507 H 0.55080 0.10550 0.61912
 H508 H 0.65226 0.09221 0.57162
 H509 H 0.61536 0.20715 0.65250
 H510 H 0.58358 0.14732 0.65841
 H511 H 0.70267 0.13753 0.67754
 H512 H 0.68509 0.13442 0.61082
 C513 C 0.66477 0.67136 0.15929
 C514 C 0.64988 0.70334 0.16268
 C515 C 0.66660 0.72629 0.18732
 C516 C 0.69859 0.71779 0.20916
 C517 C 0.71375 0.68605 0.20544
 C518 C 0.69708 0.66313 0.18078
 C519 C 0.64602 0.64623 0.13432
 C520 C 0.64344 0.61019 0.14493
 C521 C 0.62448 0.58662 0.12222
 C522 C 0.60752 0.59850 0.08835
 C523 C 0.61068 0.63447 0.07741
 C524 C 0.62971 0.65806 0.10013
 H525 H 0.65445 0.75072 0.18923
 H526 H 0.73802 0.67839 0.22221
 H527 H 0.62295 0.55905 0.13127
 H528 H 0.59764 0.64453 0.05166
 H529 H 0.70949 0.63889 0.17857
 H530 H 0.65534 0.60021 0.17123
 H531 H 0.62479 0.71032 0.14686
 H532 H 0.63157 0.68560 0.09095
   
