data_POSCAR
  _audit_creation_date              2014-09-24
  _audit_creation_method            'ToBaCCo'
  _symmetry_space_group_name_H-M    'P1'
  _symmetry_Int_Tables_number       1
  _symmetry_cell_setting            triclinic
  loop_
  _symmetry_equiv_pos_as_xyz
 x,y,z
_cell_length_a 22.2911
_cell_length_b 22.2501
_cell_length_c 22.2306
_cell_angle_alpha 90.403600
_cell_angle_beta 90.219900
_cell_angle_gamma 89.331900
loop_
  _atom_site_label
  _atom_site_type_symbol
  _atom_site_fract_x
  _atom_site_fract_y
  _atom_site_fract_z
C1 C -0.01525 0.40583 0.15405
 H2 H -0.01710 0.44065 0.12078
 C3 C -0.01876 0.34572 0.13574
 H4 H -0.02326 0.33584 0.08815
 C5 C -0.00801 0.37571 0.25552
 H6 H -0.00496 0.38782 0.30255
 C7 C -0.01047 0.31510 0.23934
 H8 H -0.00916 0.28267 0.27512
 N9 N -0.00896 0.41970 0.21326
 C10 C 0.00264 0.61718 0.24074
 H11 H 0.00621 0.61028 0.28875
 C12 C 0.00463 0.67542 0.21822
 H13 H 0.00841 0.71240 0.24970
 C14 C -0.00870 0.57616 0.14295
 H15 H -0.01402 0.53800 0.11354
 C16 C -0.00721 0.63393 0.11841
 H17 H -0.01197 0.63906 0.07021
 Zn18 Zn -0.00128 0.49693 0.24959
 N19 N -0.00319 0.56881 0.20337
 C20 C 0.11906 0.51787 0.25337
 N21 N 0.07410 0.49641 0.28807
 C22 C 0.08560 0.47229 0.34292
 C23 C 0.14372 0.47311 0.36633
 C24 C 0.17770 0.51943 0.27482
 C25 C -0.11932 0.50412 0.26665
 C26 C -0.17475 0.51037 0.29413
 C27 C -0.12427 0.51768 0.39029
 C28 C -0.06927 0.51259 0.36048
 N29 N -0.06812 0.50498 0.29980
 H30 H 0.10941 0.53367 0.20846
 H31 H 0.05016 0.45205 0.36845
 H32 H 0.15210 0.45480 0.41064
 H33 H 0.21196 0.53656 0.24560
 H34 H -0.11678 0.49887 0.21830
 H35 H -0.21492 0.50995 0.26655
 H36 H -0.12343 0.52282 0.43852
 H37 H -0.02802 0.51539 0.38581
 C38 C 0.00092 0.68464 0.15602
 C39 C -0.01436 0.29855 0.17826
 C40 C -0.17827 0.51653 0.35688
 C41 C 0.19050 0.49865 0.33294
 C42 C 0.04063 0.59741 0.81399
 H43 H 0.07942 0.56891 0.82218
 C44 C 0.04002 0.65716 0.83474
 H45 H 0.07800 0.67364 0.86023
 C46 C -0.05466 0.61151 0.76895
 H47 H -0.09094 0.59468 0.74160
 C48 C -0.05732 0.67107 0.78909
 H49 H -0.09692 0.69685 0.77787
 N50 N -0.00630 0.57576 0.78144
 C51 C -0.00756 0.37916 0.76085
 H52 H -0.01535 0.38035 0.71282
 C53 C -0.00669 0.32423 0.79018
 H54 H -0.01441 0.28342 0.76459
 C55 C 0.01330 0.43143 0.85162
 H56 H 0.02183 0.47338 0.87483
 C57 C 0.01555 0.37705 0.88281
 H58 H 0.02717 0.37882 0.92992
 Zn59 Zn -0.00081 0.49925 0.74156
 N60 N 0.00168 0.43131 0.79174
 C61 C 0.11445 0.45708 0.71536
 N62 N 0.07200 0.49783 0.69761
 C63 C 0.08518 0.54117 0.65712
 C64 C 0.14340 0.54525 0.63400
 C65 C 0.17271 0.45961 0.69365
 C66 C -0.11890 0.47596 0.73422
 C67 C -0.17537 0.46334 0.71137
 C68 C -0.13593 0.47503 0.61110
 C69 C -0.07928 0.48641 0.63629
 N70 N -0.07226 0.48730 0.69699
 H71 H 0.10430 0.42336 0.74820
 H72 H 0.05101 0.57352 0.64410
 H73 H 0.15240 0.57921 0.60080
 H74 H 0.20498 0.42592 0.70811
 H75 H -0.11210 0.47731 0.78242
 H76 H -0.21167 0.45689 0.74285
 H77 H -0.14074 0.47836 0.56284
 H78 H -0.04146 0.49562 0.60756
 C79 C 0.00389 0.32225 0.85223
 C80 C -0.00922 0.69549 0.82200
 C81 C -0.18541 0.46210 0.64879
 C82 C 0.18885 0.50543 0.65417
 C83 C 0.18915 0.06429 0.40756
 H84 H 0.20410 0.10566 0.42820
 C85 C 0.16474 0.06549 0.34932
 H86 H 0.16021 0.10826 0.32708
 C87 C 0.17859 -0.04121 0.41175
 H88 H 0.18520 -0.08308 0.43501
 C89 C 0.15364 -0.04202 0.35422
 H90 H 0.14027 -0.08464 0.33484
 N91 N 0.19741 0.01118 0.43682
 C92 C 0.24417 -0.00308 0.62911
 H93 H 0.29004 -0.01828 0.62309
 C94 C 0.22103 0.00346 0.68699
 H95 H 0.24903 -0.00827 0.72516
 C96 C 0.15239 0.03013 0.58617
 H97 H 0.12612 0.04074 0.54655
 C98 C 0.12700 0.03647 0.64350
 H99 H 0.08041 0.04988 0.64627
 Zn100 Zn 0.25011 0.00719 0.50481
 N101 N 0.21024 0.01124 0.58017
 C102 C 0.30894 0.10932 0.54917
 N103 N 0.30264 0.07302 0.50023
 C104 C 0.32719 0.08756 0.44642
 C105 C 0.35485 0.14306 0.43904
 C106 C 0.33772 0.16401 0.54430
 C107 C 0.26303 -0.11620 0.51915
 C108 C 0.29078 -0.17251 0.51722
 C109 C 0.38127 -0.12562 0.48225
 C110 C 0.35135 -0.07002 0.48421
 N111 N 0.29309 -0.06651 0.50183
 H112 H 0.28957 0.09750 0.59170
 H113 H 0.32200 0.05762 0.40824
 H114 H 0.37199 0.15384 0.39518
 H115 H 0.34131 0.19255 0.58380
 H116 H 0.21717 -0.11198 0.53450
 H117 H 0.26591 -0.21147 0.53132
 H118 H 0.42791 -0.12636 0.46948
 H119 H 0.37480 -0.02972 0.47189
 C120 C 0.16187 0.02426 0.69535
 C121 C 0.14825 0.01137 0.32096
 C122 C 0.35062 -0.17825 0.49813
 C123 C 0.35797 0.18341 0.48801
 C124 C 0.75937 -0.01028 0.62107
 H125 H 0.71144 -0.01489 0.61643
 C126 C 0.78473 -0.01025 0.67822
 H127 H 0.75503 -0.01125 0.71650
 C128 C 0.85495 -0.00354 0.57586
 H129 H 0.88232 -0.00209 0.53603
 C130 C 0.88244 -0.00327 0.63256
 H131 H 0.93071 0.00084 0.63543
 N132 N 0.79418 -0.00592 0.57128
 C133 C 0.77583 -0.05964 0.38658
 H134 H 0.73781 -0.08756 0.39621
 C135 C 0.80001 -0.06108 0.32893
 H136 H 0.78133 -0.09175 0.29595
 C137 C 0.84351 0.01602 0.41677
 H138 H 0.85835 0.04817 0.45014
 C139 C 0.86959 0.01559 0.35981
 H140 H 0.90715 0.04497 0.35285
 Zn141 Zn 0.74930 -0.00935 0.49887
 N142 N 0.79665 -0.02039 0.42875
 C143 C 0.71613 0.09821 0.44066
 N144 N 0.70487 0.06450 0.49021
 C145 C 0.66966 0.08678 0.53519
 C146 C 0.64826 0.14613 0.53329
 C147 C 0.69606 0.15776 0.43718
 C148 C 0.74139 -0.12763 0.51491
 C149 C 0.71883 -0.18493 0.52172
 C150 C 0.61861 -0.14300 0.51433
 C151 C 0.64344 -0.08581 0.50703
 N152 N 0.70401 -0.07964 0.50738
 H153 H 0.74204 0.07974 0.40395
 H154 H 0.65904 0.05931 0.57335
 H155 H 0.61983 0.16236 0.56938
 H156 H 0.70574 0.18316 0.39712
 H157 H 0.78942 -0.12125 0.51431
 H158 H 0.75044 -0.22201 0.52441
 H159 H 0.57036 -0.14785 0.51244
 H160 H 0.61469 -0.04687 0.50063
 C161 C 0.84535 -0.02060 0.31315
 C162 C 0.84728 -0.00762 0.68490
 C163 C 0.65660 -0.19353 0.52290
 C164 C 0.66410 0.18371 0.48525
 C165 C 0.58206 0.15529 0.96904
 H166 H 0.54794 0.13654 0.94003
 C167 C 0.64081 0.13259 0.96661
 H168 H 0.65013 0.09415 0.93793
 C169 C 0.61160 0.22853 1.04062
 H170 H 0.60099 0.26710 1.06843
 C171 C 0.67083 0.20776 1.03899
 H172 H 0.70391 0.22917 1.06744
 N173 N 0.56871 0.20324 1.00497
 C174 C 0.37476 0.23532 1.01283
 H175 H 0.37933 0.28341 1.01713
 C176 C 0.31857 0.21025 1.01963
 H177 H 0.28052 0.24021 1.02659
 C178 C 0.41956 0.13929 0.99997
 H179 H 0.45919 0.11188 0.99259
 C180 C 0.36351 0.11179 1.00684
 H181 H 0.36160 0.06345 1.00255
 Zn182 Zn 0.49485 0.24694 0.99784
 N183 N 0.42394 0.20022 1.00271
 C184 C 0.44538 0.31755 0.90129
 N185 N 0.49491 0.28780 0.92215
 C186 C 0.54400 0.28028 0.88654
 C187 C 0.54331 0.29976 0.82705
 C188 C 0.44280 0.33790 0.84183
 C189 C 0.48141 0.26716 1.11728
 C190 C 0.48444 0.29574 1.17288
 C191 C 0.50741 0.38830 1.12210
 C192 C 0.50316 0.35779 1.06684
 N193 N 0.49159 0.29798 1.06584
 H194 H 0.40708 0.32462 0.93001
 H195 H 0.58375 0.25808 0.90363
 H196 H 0.58298 0.29299 0.79973
 H197 H 0.40300 0.36182 0.82706
 H198 H 0.47245 0.21953 1.11506
 H199 H 0.47625 0.26999 1.21312
 H200 H 0.51668 0.43588 1.12201
 H201 H 0.51098 0.38123 1.02518
 C202 C 0.31152 0.14738 1.01810
 C203 C 0.68691 0.16093 0.99960
 C204 C 0.50010 0.35652 1.17633
 C205 C 0.49157 0.32725 0.80298
 C206 C 0.40909 0.85791 1.00441
 H207 H 0.44621 0.88713 1.01489
 C208 C 0.35052 0.88110 1.00114
 H209 H 0.34373 0.92843 1.01086
 C210 C 0.37304 0.76016 0.98432
 H211 H 0.38221 0.71254 0.97928
 C212 C 0.31418 0.78135 0.97980
 H213 H 0.27899 0.74899 0.97271
 N214 N 0.41913 0.79831 0.99569
 C215 C 0.59616 0.80944 0.94496
 H216 H 0.57648 0.79358 0.90349
 C217 C 0.65561 0.82838 0.94462
 H218 H 0.67970 0.82908 0.90243
 C219 C 0.58913 0.82758 1.04968
 H220 H 0.56367 0.82522 1.09091
 C221 C 0.64853 0.84743 1.05125
 H222 H 0.66640 0.86372 1.09350
 Zn223 Zn 0.49505 0.75879 0.99908
 N224 N 0.56443 0.80798 0.99719
 C225 C 0.47049 0.73905 0.87950
 N226 N 0.49800 0.71235 0.92739
 C227 C 0.53181 0.66170 0.92018
 C228 C 0.53595 0.63434 0.86343
 C229 C 0.47278 0.71301 0.82256
 C230 C 0.44946 0.72134 1.11064
 C231 C 0.45171 0.69942 1.16912
 C232 C 0.55299 0.66514 1.15116
 C233 C 0.54853 0.68722 1.09225
 N234 N 0.49738 0.71523 1.07319
 H235 H 0.44767 0.78180 0.88505
 H236 H 0.55599 0.64302 0.95808
 H237 H 0.56280 0.59377 0.85842
 H238 H 0.45037 0.73561 0.78573
 H239 H 0.40937 0.74464 1.09622
 H240 H 0.41199 0.70355 1.19676
 H241 H 0.59395 0.64227 1.16395
 H242 H 0.58665 0.68372 1.06241
 C243 C 0.68369 0.84555 0.99856
 C244 C 0.30167 0.84317 0.98605
 C245 C 0.50446 0.67242 1.19140
 C246 C 0.50406 0.65874 0.81404
 B247 B 0.99403 1.06204 0.05152
 B248 B 1.03459 0.99313 0.07015
 B249 B 0.95219 0.99450 0.06459
 B250 B 0.93318 1.04472 0.00006
 B251 B 1.00109 1.07352 -0.02937
 B252 B 1.06354 1.04225 0.01419
 B253 B 0.99906 0.94155 -0.04829
 B254 B 0.96276 1.01072 -0.06700
 B255 B 1.04338 1.01090 -0.05986
 B256 B 1.06235 0.96036 -0.00093
 B257 B 0.99651 0.93136 0.03402
 B258 B 0.93178 0.96276 -0.00697
 B259 B 0.56998 0.50696 0.46182
 B260 B 0.56749 0.48811 0.54249
 B261 B 0.54307 0.56208 0.51126
 B262 B 0.50174 0.54701 0.43821
 B263 B 0.50560 0.46781 0.42786
 B264 B 0.54467 0.43316 0.48846
 B265 B 0.43596 0.49611 0.53811
 B266 B 0.43633 0.50515 0.45823
 B267 B 0.46243 0.43408 0.48933
 B268 B 0.50106 0.44768 0.55802
 B269 B 0.50110 0.52855 0.57123
 B270 B 0.46284 0.56623 0.50669
 C271 C 0.98720 1.23653 0.15687
 C272 C 0.93198 1.22089 0.12589
 C273 C 0.93316 1.16195 0.09953
 C274 C 0.98948 1.12794 0.10340
 C275 C 1.03518 1.16985 0.08669
 C276 C 1.03502 1.22769 0.11403
 C277 C 0.99655 1.18747 0.19949
 C278 C 0.99798 1.12908 0.17059
 H279 H 0.88962 1.24410 0.13430
 H280 H 0.89065 1.14043 0.09805
 H281 H 1.06235 1.16304 0.04865
 H282 H 1.06662 1.26200 0.10082
 H283 H 1.00437 1.19189 0.24735
 H284 H 1.00516 1.09134 0.19943
 C285 C 1.00292 0.74723 0.12856
 C286 C 0.94258 0.76618 0.10423
 C287 C 0.94277 0.81885 0.07448
 C288 C 1.00247 0.85524 0.07170
 C289 C 1.02610 0.85287 0.13744
 C290 C 1.02323 0.79972 0.16787
 C291 C 1.04521 0.74998 0.07516
 C292 C 1.04590 0.80459 0.04795
 H293 H 0.90498 0.73566 0.10086
 H294 H 0.90781 0.82199 0.04239
 H295 H 1.06150 0.87954 0.15210
 H296 H 1.04977 0.79342 0.20841
 H297 H 1.07541 0.71357 0.06201
 H298 H 1.07683 0.80832 0.01393
 C299 C 1.00298 1.26145 -0.11663
 C300 C 0.94693 1.22462 -0.12966
 C301 C 0.94670 1.17019 -0.10119
 C302 C 1.00156 1.15137 -0.06335
 C303 C 1.05364 1.16608 -0.10723
 C304 C 1.05456 1.22059 -0.13419
 C305 C 1.00533 1.26393 -0.04878
 C306 C 1.00147 1.20905 -0.02324
 H307 H 0.90810 1.24186 -0.15393
 H308 H 0.90699 1.14644 -0.10207
 H309 H 1.09098 1.13841 -0.11493
 H310 H 1.09091 1.23413 -0.16333
 H311 H 0.99136 1.30326 -0.02304
 H312 H 0.97597 1.21394 0.01573
 C313 C 0.99032 0.76036 -0.15390
 C314 C 1.04304 0.79695 -0.17413
 C315 C 1.04278 0.85448 -0.15215
 C316 C 0.99464 0.87303 -0.10261
 C317 C 0.93871 0.85728 -0.14292
 C318 C 0.93606 0.80102 -0.16868
 C319 C 0.99355 0.76173 -0.08657
 C320 C 0.99321 0.81804 -0.06342
 H321 H 1.06778 0.78479 -0.21460
 H322 H 1.05764 0.88148 -0.18805
 H323 H 0.90186 0.88417 -0.15319
 H324 H 0.89889 0.78918 -0.19766
 H325 H 0.98045 0.72365 -0.05941
 H326 H 0.96933 0.82260 -0.02524
 C327 C 1.12373 1.00736 0.25682
 C328 C 1.12257 1.06284 0.21728
 C329 C 1.09873 1.05131 0.16161
 C330 C 1.07587 0.99016 0.14489
 C331 C 1.13567 0.95457 0.16156
 C332 C 1.15762 0.96123 0.21867
 C333 C 1.05969 0.98667 0.25665
 C334 C 1.03706 0.97624 0.20101
 H335 H 1.13297 1.10812 0.23176
 H336 H 1.08559 1.08442 0.13408
 H337 H 1.17087 0.93961 0.13356
 H338 H 1.20213 0.94490 0.23100
 H339 H 1.03874 0.96815 0.29649
 H340 H 1.01034 0.93878 0.20440
 C341 C 1.13642 1.02670 -0.24086
 C342 C 1.07487 1.05518 -0.23336
 C343 C 1.05467 1.05330 -0.17614
 C344 C 1.09142 1.02167 -0.12764
 C345 C 1.11232 0.96320 -0.15697
 C346 C 1.13202 0.96414 -0.21479
 C347 C 1.17457 1.06004 -0.19439
 C348 C 1.15307 1.05614 -0.13662
 H349 H 1.05381 1.08517 -0.26555
 H350 H 1.02041 1.08200 -0.16305
 H351 H 1.12359 0.92503 -0.13204
 H352 H 1.15303 0.92485 -0.23545
 H353 H 1.21881 1.07741 -0.20408
 H354 H 1.18663 1.06513 -0.10412
 C355 C 0.86493 0.98267 0.25088
 C356 C 0.81597 0.98756 0.20742
 C357 C 0.83623 0.98814 0.14578
 C358 C 0.90384 0.98590 0.13584
 C359 C 0.91872 1.03479 0.17516
 C360 C 0.90282 1.03288 0.23708
 C361 C 0.89818 0.92997 0.23240
 C362 C 0.91673 0.93168 0.17096
 H363 H 0.76871 0.98481 0.21879
 H364 H 0.79961 0.97792 0.11597
 H365 H 0.90561 1.07704 0.15955
 H366 H 0.89788 1.07576 0.26041
 H367 H 0.90139 0.88906 0.25874
 H368 H 0.92849 0.88995 0.15321
 C369 C 0.87588 0.99765 -0.25314
 C370 C 0.83895 0.97574 -0.20058
 C371 C 0.86662 0.98280 -0.14649
 C372 C 0.92850 1.01236 -0.14388
 C373 C 0.96186 0.97322 -0.19079
 C374 C 0.93606 0.96485 -0.24595
 C375 C 0.88909 1.06211 -0.23801
 C376 C 0.91690 1.06999 -0.18433
 H377 H 0.80243 0.94420 -0.20558
 H378 H 0.85465 0.95185 -0.11467
 H379 H 1.00464 0.95593 -0.18264
 H380 H 0.95753 0.93817 -0.28098
 H381 H 0.88574 1.09791 -0.27098
 H382 H 0.93917 1.11159 -0.18523
 C383 C 1.25142 1.12330 0.02491
 C384 C 1.24624 1.05917 0.03395
 C385 C 1.18534 1.04078 0.04132
 C386 C 1.13734 1.08411 0.03147
 C387 C 1.15847 1.12928 0.07941
 C388 C 1.21949 1.14899 0.07588
 C389 C 1.21404 1.13759 -0.02655
 C390 C 1.15275 1.12012 -0.01988
 H391 H 1.28217 1.03104 0.05164
 H392 H 1.17734 1.00120 0.06563
 H393 H 1.13581 1.15376 0.11453
 H394 H 1.23863 1.18021 0.10832
 H395 H 1.22483 1.17389 -0.05706
 H396 H 1.12358 1.15700 -0.02926
 C397 C 0.75176 1.13889 -0.00434
 C398 C 0.80075 1.18544 0.00559
 C399 C 0.85768 1.16184 0.00116
 C400 C 0.86430 1.09197 -0.00842
 C401 C 0.82176 1.06853 0.03753
 C402 C 0.76502 1.09028 0.04097
 C403 C 0.76869 1.11189 -0.06516
 C404 C 0.82597 1.09008 -0.06733
 H405 H 0.79235 1.23360 0.00599
 H406 H 0.89159 1.19360 -0.00450
 H407 H 0.83213 1.02628 0.05135
 H408 H 0.73049 1.06737 0.06605
 H409 H 0.74199 1.11733 -0.10575
 H410 H 0.84152 1.08025 -0.11044
 C411 C 1.24034 0.86637 -0.01577
 C412 C 1.23638 0.92716 -0.03781
 C413 C 1.17731 0.95099 -0.03590
 C414 C 1.13012 0.91496 -0.01114
 C415 C 1.13712 0.86107 -0.05034
 C416 C 1.19676 0.83440 -0.05332
 C417 C 1.21361 0.86732 0.04372
 C418 C 1.15361 0.89118 0.04445
 H419 H 1.27181 0.95024 -0.06149
 H420 H 1.16877 0.99305 -0.05304
 H421 H 1.10253 0.83577 -0.06926
 H422 H 1.20630 0.79469 -0.08036
 H423 H 1.23107 0.84105 0.08107
 H424 H 1.12470 0.87713 0.07941
 C425 C 0.74732 0.87002 -0.00295
 C426 C 0.79200 0.83769 -0.04468
 C427 C 0.84800 0.86307 -0.04586
 C428 C 0.85753 0.92199 -0.00817
 C429 C 0.80051 0.95870 -0.02703
 C430 C 0.74599 0.93360 -0.02419
 C431 C 0.78058 0.87223 0.05655
 C432 C 0.83534 0.89847 0.05282
 H433 H 0.78438 0.79265 -0.06200
 H434 H 0.88210 0.83224 -0.05771
 H435 H 0.80011 0.99547 -0.05425
 H436 H 0.70630 0.95519 -0.04324
 H437 H 0.76710 0.84827 0.09656
 H438 H 0.86264 0.89223 0.08955
 C439 C 0.75975 0.52188 0.38472
 C440 C 0.72593 0.57720 0.36393
 C441 C 0.66993 0.58226 0.38803
 C442 C 0.64545 0.52705 0.42771
 C443 C 0.66276 0.47458 0.38735
 C444 C 0.71974 0.47005 0.36678
 C445 C 0.75533 0.52690 0.45279
 C446 C 0.69773 0.53389 0.47232
 H447 H 0.74637 0.61313 0.33857
 H448 H 0.65104 0.62542 0.37892
 H449 H 0.63110 0.44162 0.37528
 H450 H 0.73426 0.43295 0.33813
 H451 H 0.79237 0.53603 0.48296
 H452 H 0.69156 0.54815 0.51654
 C453 C 0.25217 0.50404 0.36144
 C454 C 0.28121 0.44406 0.37303
 C455 C 0.33361 0.44778 0.40334
 C456 C 0.35969 0.51014 0.41990
 C457 C 0.35208 0.54533 0.36013
 C458 C 0.29957 0.54034 0.32875
 C459 C 0.24866 0.53420 0.42259
 C460 C 0.30256 0.53856 0.45097
 H461 H 0.26012 0.40136 0.36297
 H462 H 0.35121 0.40803 0.41871
 H463 H 0.37404 0.58651 0.35171
 H464 H 0.28883 0.57287 0.29414
 H465 H 0.20939 0.55934 0.43787
 H466 H 0.30062 0.57278 0.48283
 C467 C 0.75323 0.45923 0.62666
 C468 C 0.72372 0.51699 0.63461
 C469 C 0.66157 0.51650 0.61944
 C470 C 0.63865 0.46514 0.58723
 C471 C 0.68421 0.44440 0.54546
 C472 C 0.74566 0.44305 0.56414
 C473 C 0.71505 0.41664 0.65731
 C474 C 0.65371 0.41868 0.63578
 H475 H 0.73957 0.54953 0.66767
 H476 H 0.63675 0.53238 0.65728
 H477 H 0.67320 0.43366 0.50138
 H478 H 0.78022 0.42332 0.53571
 H479 H 0.73181 0.38064 0.68582
 H480 H 0.62968 0.38019 0.65108
 C481 C 0.25191 0.50580 0.62832
 C482 C 0.25607 0.46502 0.57409
 C483 C 0.31087 0.46394 0.54821
 C484 C 0.36211 0.50027 0.57672
 C485 C 0.33022 0.56191 0.58092
 C486 C 0.27469 0.56609 0.60655
 C487 C 0.30191 0.48450 0.67017
 C488 C 0.35710 0.48404 0.64384
 H489 H 0.21763 0.44322 0.55357
 H490 H 0.31329 0.44317 0.50613
 H491 H 0.34483 0.59846 0.55839
 H492 H 0.24957 0.60810 0.60833
 H493 H 0.29697 0.48200 0.71866
 H494 H 0.39310 0.48615 0.67278
 C495 C 0.50351 0.64445 0.25415
 C496 C 0.46849 0.58655 0.25232
 C497 C 0.46507 0.55873 0.30657
 C498 C 0.49463 0.58851 0.36317
 C499 C 0.55525 0.59647 0.33516
 C500 C 0.56277 0.62644 0.28263
 C501 C 0.47241 0.68184 0.30280
 C502 C 0.46551 0.65239 0.35601
 H503 H 0.44621 0.56933 0.21229
 H504 H 0.43709 0.52245 0.30582
 H505 H 0.58389 0.56233 0.34405
 H506 H 0.60479 0.62249 0.25860
 H507 H 0.44799 0.72327 0.29350
 H508 H 0.42770 0.66810 0.38002
 C509 C 0.50150 0.62532 0.75412
 C510 C 0.44840 0.64023 0.71251
 C511 C 0.44684 0.60434 0.66199
 C512 C 0.49894 0.56188 0.64919
 C513 C 0.55412 0.60063 0.66353
 C514 C 0.55626 0.63249 0.71567
 C515 C 0.49572 0.55840 0.76285
 C516 C 0.49102 0.52751 0.71040
 H517 H 0.40702 0.66003 0.72954
 H518 H 0.40349 0.58927 0.65137
 H519 H 0.58917 0.60584 0.63355
 H520 H 0.59326 0.66180 0.72714
 H521 H 0.48211 0.53864 0.80521
 H522 H 0.46720 0.48757 0.71769
 C523 C 0.50668 0.38575 0.23805
 C524 C 0.54131 0.44437 0.24078
 C525 C 0.54782 0.46677 0.29786
 C526 C 0.51329 0.43458 0.35013
 C527 C 0.45142 0.42368 0.32166
 C528 C 0.44712 0.39989 0.26596
 C529 C 0.53934 0.34641 0.28401
 C530 C 0.54460 0.37280 0.33947
 H531 H 0.57254 0.45692 0.20578
 H532 H 0.59084 0.48648 0.30163
 H533 H 0.41246 0.43856 0.34148
 H534 H 0.40440 0.39432 0.24303
 H535 H 0.56888 0.30955 0.27054
 H536 H 0.58535 0.36044 0.36025
 C537 C 0.49240 0.34919 0.73813
 C538 C 0.43268 0.36875 0.70971
 C539 C 0.43787 0.38867 0.65187
 C540 C 0.50030 0.39495 0.62491
 C541 C 0.53710 0.42334 0.67504
 C542 C 0.53424 0.40128 0.73170
 C543 C 0.51648 0.30377 0.69324
 C544 C 0.52106 0.32573 0.63630
 H545 H 0.38939 0.35527 0.72677
 H546 H 0.39981 0.38638 0.62399
 H547 H 0.56281 0.46261 0.66817
 H548 H 0.55861 0.42140 0.76902
 H549 H 0.52750 0.25745 0.70436
 H550 H 0.53650 0.29104 0.60626
 C551 C 0.63139 0.74333 0.52588
 C552 C 0.67235 0.69548 0.55328
 C553 C 0.64885 0.63923 0.55192
 C554 C 0.58450 0.63193 0.52371
 C555 C 0.55094 0.68081 0.56149
 C556 C 0.57367 0.73745 0.56189
 C557 C 0.61718 0.71923 0.46387
 C558 C 0.59536 0.66272 0.46410
 H559 H 0.71134 0.70549 0.58085
 H560 H 0.67120 0.61071 0.58201
 H561 H 0.51379 0.67151 0.58969
 H562 H 0.55463 0.77323 0.58952
 H563 H 0.61996 0.74557 0.42305
 H564 H 0.57627 0.64578 0.42486
 C565 C 0.64027 0.24811 0.48149
 C566 C 0.63202 0.28034 0.54135
 C567 C 0.60675 0.33598 0.53569
 C568 C 0.58929 0.36023 0.47518
 C569 C 0.65249 0.34896 0.44296
 C570 C 0.67732 0.29237 0.44573
 C571 C 0.57962 0.24987 0.45145
 C572 C 0.55547 0.30573 0.44702
 H573 H 0.64502 0.26220 0.58473
 H574 H 0.59455 0.36173 0.57138
 H575 H 0.68328 0.38003 0.42605
 H576 H 0.72251 0.28276 0.43001
 H577 H 0.55950 0.21115 0.42958
 H578 H 0.51813 0.30911 0.41898
 C579 C 0.38026 0.75974 0.49972
 C580 C 0.44257 0.75289 0.47407
 C581 C 0.46449 0.69573 0.47787
 C582 C 0.42716 0.64570 0.50761
 C583 C 0.40813 0.68074 0.56729
 C584 C 0.38676 0.73775 0.56297
 C585 C 0.34439 0.71140 0.46679
 C586 C 0.36961 0.65512 0.46966
 H587 H 0.46383 0.78534 0.44519
 H588 H 0.49865 0.68714 0.44891
 H589 H 0.38639 0.66461 0.60558
 H590 H 0.36492 0.76056 0.60063
 H591 H 0.30977 0.72223 0.43396
 H592 H 0.35883 0.62700 0.43397
 C593 C 0.38111 0.24715 0.48328
 C594 C 0.39526 0.27180 0.42152
 C595 C 0.41688 0.32860 0.42313
 C596 C 0.42353 0.36072 0.48562
 C597 C 0.36110 0.34907 0.51474
 C598 C 0.33754 0.29326 0.50939
 C599 C 0.43861 0.25552 0.51941
 C600 C 0.45739 0.31353 0.52020
 H601 H 0.39183 0.24722 0.37948
 H602 H 0.43287 0.34483 0.38254
 H603 H 0.34575 0.36810 0.55530
 H604 H 0.29845 0.28063 0.53530
 H605 H 0.46533 0.21888 0.53785
 H606 H 0.49898 0.32502 0.53415
   
