data_POSCAR
  _audit_creation_date              2014-09-24
  _audit_creation_method            'ToBaCCo'
  _symmetry_space_group_name_H-M    'P1'
  _symmetry_Int_Tables_number       1
  _symmetry_cell_setting            triclinic
  loop_
  _symmetry_equiv_pos_as_xyz
 x,y,z
_cell_length_a 55.7436
_cell_length_b 55.8899
_cell_length_c 32.8323
_cell_angle_alpha 90.031900
_cell_angle_beta 90.135700
_cell_angle_gamma 89.626400
loop_
  _atom_site_label
  _atom_site_type_symbol
  _atom_site_fract_x
  _atom_site_fract_y
  _atom_site_fract_z
C1 C -0.02273 0.26525 0.01730
 C2 C -0.02053 0.26403 -0.02608
 C3 C 0.00257 0.26202 -0.04321
 C4 C 0.02360 0.26252 -0.01938
 C5 C 0.02121 0.26419 0.02359
 C6 C -0.00164 0.26611 0.04100
 H7 H -0.00288 0.26593 0.07396
 H8 H 0.00430 0.26249 -0.07606
 C9 C 0.47198 0.77142 0.52298
 C10 C 0.47214 0.77059 0.47989
 C11 C 0.49417 0.77075 0.45920
 C12 C 0.51603 0.77068 0.48059
 C13 C 0.51577 0.77117 0.52374
 C14 C 0.49376 0.77159 0.54428
 H15 H 0.49359 0.77223 0.57729
 H16 H 0.49429 0.76976 0.42622
 C17 C 1.01577 0.72707 0.02502
 C18 C 1.01693 0.72280 -0.01767
 C19 C 0.99562 0.72176 -0.04047
 C20 C 0.97290 0.72541 -0.02275
 C21 C 0.97174 0.72914 0.02008
 C22 C 0.99302 0.73037 0.04286
 H23 H 0.99160 0.73234 0.07563
 H24 H 0.99711 0.72008 -0.07326
 C25 C 0.52268 0.22667 0.52363
 C26 C 0.52308 0.22736 0.48058
 C27 C 0.50137 0.22715 0.45889
 C28 C 0.47929 0.22646 0.47923
 C29 C 0.47890 0.22682 0.52236
 C30 C 0.50062 0.22632 0.54401
 H31 H 0.50039 0.22669 0.57703
 H32 H 0.50169 0.22704 0.42587
 C33 C 0.74488 -0.01860 0.01613
 C34 C 0.74852 -0.01740 -0.02672
 C35 C 0.75004 0.00496 -0.04589
 C36 C 0.74792 0.02630 -0.02379
 C37 C 0.74427 0.02526 0.01869
 C38 C 0.74213 0.00298 0.03791
 H39 H 0.74024 0.00262 0.07077
 H40 H 0.75207 0.00578 -0.07871
 C41 C 0.24606 0.47628 0.51898
 C42 C 0.24681 0.47633 0.47595
 C43 C 0.24715 0.49816 0.45507
 C44 C 0.24724 0.52000 0.47609
 C45 C 0.24655 0.52007 0.51923
 C46 C 0.24618 0.49813 0.54011
 H47 H 0.24514 0.49805 0.57308
 H48 H 0.24811 0.49812 0.42207
 C49 C 0.27145 1.01994 0.02081
 C50 C 0.27202 1.02052 -0.02288
 C51 C 0.27440 0.99873 -0.04433
 C52 C 0.27393 0.97668 -0.02422
 C53 C 0.27184 0.97606 0.01851
 C54 C 0.27060 0.99751 0.04042
 H55 H 0.27049 0.99646 0.07338
 H56 H 0.27444 0.99861 -0.07734
 C57 C 0.76157 0.52521 0.51455
 C58 C 0.76393 0.52553 0.47159
 C59 C 0.76607 0.50375 0.45055
 C60 C 0.76566 0.48179 0.47114
 C61 C 0.76268 0.48146 0.51392
 C62 C 0.76090 0.50320 0.53506
 H63 H 0.75880 0.50299 0.56789
 H64 H 0.76787 0.50383 0.41767
 O65 O 0.23682 0.26704 0.30261
 O66 O 0.24389 0.20865 0.25250
 O67 O 0.27040 0.23432 0.30138
 O68 O 0.21125 0.24207 0.25184
 O69 O 0.22878 0.26058 0.20068
 O70 O 0.28773 0.25098 0.24825
 O71 O 0.26071 0.22604 0.19959
 O72 O 0.25542 0.28453 0.25148
 Cu73 Cu 0.23888 0.23624 0.28232
 Cu74 Cu 0.25987 0.25725 0.21971
 C75 C 0.24505 0.28574 0.28589
 C76 C 0.25328 0.20729 0.21738
 C77 C 0.28921 0.24132 0.28315
 C78 C 0.20995 0.25293 0.21788
 O79 O 0.70568 0.75152 0.24921
 O80 O 0.76480 0.74237 0.20175
 O81 O 0.73911 0.71881 0.25478
 O82 O 0.73146 0.77519 0.19761
 O83 O 0.74942 0.79470 0.24744
 O84 O 0.75554 0.73877 0.30557
 O85 O 0.78201 0.76144 0.25275
 O86 O 0.72271 0.77153 0.29940
 Cu87 Cu 0.73361 0.74494 0.22079
 Cu88 Cu 0.75415 0.76859 0.28130
 C89 C 0.70407 0.76310 0.28241
 C90 C 0.78352 0.75043 0.21896
 C91 C 0.74829 0.71924 0.29027
 C92 C 0.73933 0.79456 0.21272
 O93 O 0.78680 0.24711 0.24638
 O94 O 0.72816 0.24176 0.29611
 O95 O 0.75303 0.21515 0.24607
 O96 O 0.76126 0.27419 0.29417
 O97 O 0.74453 0.29138 0.24061
 O98 O 0.73486 0.23253 0.19403
 O99 O 0.71072 0.25952 0.24376
 O100 O 0.76949 0.26363 0.19275
 Cu101 Cu 0.75905 0.24279 0.27596
 Cu102 Cu 0.73819 0.26350 0.21246
 C103 C 0.78824 0.25620 0.21106
 C104 C 0.70943 0.24986 0.27873
 C105 C 0.74237 0.21379 0.21188
 C106 C 0.75432 0.29291 0.27545
 O107 O 0.25884 0.76734 0.19218
 O108 O 0.25535 0.70916 0.24516
 O109 O 0.22906 0.73172 0.19109
 O110 O 0.28598 0.74414 0.24305
 O111 O 0.26630 0.76042 0.29441
 O112 O 0.20912 0.74934 0.24085
 O113 O 0.23461 0.72634 0.29446
 O114 O 0.23964 0.78438 0.24332
 Cu115 Cu 0.25925 0.73631 0.21283
 Cu116 Cu 0.23545 0.75683 0.27332
 C117 C 0.24995 0.78587 0.20900
 C118 C 0.24419 0.70786 0.27884
 C119 C 0.20937 0.73857 0.20671
 C120 C 0.28595 0.75435 0.27757
 O121 O 0.75892 0.27950 0.70955
 O122 O 0.75169 0.22251 0.76440
 O123 O 0.72635 0.24639 0.71107
 O124 O 0.78439 0.25539 0.76236
 O125 O 0.76606 0.27417 0.81268
 O126 O 0.70811 0.26617 0.76037
 O127 O 0.73305 0.24157 0.81406
 O128 O 0.74125 0.29867 0.76013
 Cu129 Cu 0.75714 0.24902 0.73183
 Cu130 Cu 0.73521 0.27199 0.79182
 C131 C 0.75141 0.29886 0.72555
 C132 C 0.74128 0.22231 0.79879
 C133 C 0.70734 0.25503 0.72664
 C134 C 0.78517 0.26618 0.79641
 O135 O 0.23188 0.73033 0.82052
 O136 O 0.28810 0.73994 0.76511
 O137 O 0.26227 0.76523 0.81475
 O138 O 0.25740 0.70523 0.76814
 O139 O 0.23703 0.72089 0.71692
 O140 O 0.24138 0.78045 0.76369
 O141 O 0.26791 0.75554 0.71361
 O142 O 0.21128 0.74533 0.76896
 Cu143 Cu 0.26186 0.73353 0.79729
 Cu144 Cu 0.23734 0.75205 0.73565
 C145 C 0.21199 0.73645 0.80459
 C146 C 0.28772 0.74944 0.73002
 C147 C 0.25256 0.78310 0.79713
 C148 C 0.24665 0.70290 0.73416
 O149 O 0.25754 0.28516 0.75315
 O150 O 0.26125 0.22544 0.79997
 O151 O 0.28905 0.25054 0.75364
 O152 O 0.22970 0.25983 0.80012
 O153 O 0.21253 0.24369 0.74622
 O154 O 0.27178 0.23536 0.69897
 O155 O 0.24459 0.20962 0.74529
 O156 O 0.24006 0.26950 0.69911
 Cu157 Cu 0.26105 0.25689 0.78217
 Cu158 Cu 0.24042 0.23804 0.71697
 C159 C 0.24835 0.28753 0.71792
 C160 C 0.25375 0.20728 0.78055
 C161 C 0.29057 0.24136 0.71832
 C162 C 0.21097 0.25304 0.78141
 O163 O 0.74278 0.71742 0.73531
 O164 O 0.73373 0.77332 0.79292
 O165 O 0.71038 0.75134 0.73564
 O166 O 0.76540 0.73943 0.79390
 O167 O 0.78653 0.75880 0.74789
 O168 O 0.73118 0.77071 0.68920
 O169 O 0.75452 0.79284 0.74665
 O170 O 0.76361 0.73705 0.68928
 Cu171 Cu 0.73595 0.74334 0.76893
 Cu172 Cu 0.76108 0.76678 0.71360
 C173 C 0.75471 0.71769 0.70237
 C174 C 0.74274 0.79264 0.77971
 C175 C 0.71126 0.76310 0.70260
 C176 C 0.78533 0.74733 0.78126
 C177 C 0.28866 0.05981 0.03374
 C178 C 0.28939 0.08100 0.05627
 C179 C 0.27524 0.08389 0.09120
 C180 C 0.26124 0.06450 0.10436
 C181 C 0.26043 0.04331 0.08176
 C182 C 0.27349 0.04087 0.04524
 C183 C 0.27569 0.10730 0.11271
 C184 C 0.25847 0.11473 0.13838
 C185 C 0.25838 0.13852 0.15843
 C186 C 0.24581 0.14123 0.19511
 C187 C 0.24444 0.16347 0.21441
 C188 C 0.25534 0.18366 0.19714
 C189 C 0.26783 0.18104 0.16024
 C190 C 0.26936 0.15870 0.14105
 H191 H 0.30007 0.05827 0.00721
 H192 H 0.30083 0.09537 0.04595
 H193 H 0.25078 0.06548 0.13198
 H194 H 0.24856 0.02930 0.09204
 H195 H 0.29050 0.11908 0.10599
 H196 H 0.24365 0.10310 0.14550
 H197 H 0.23702 0.12604 0.20894
 H198 H 0.23457 0.16487 0.24270
 H199 H 0.27629 0.19628 0.14604
 H200 H 0.27858 0.15752 0.11217
 C201 C 0.74038 0.55122 0.56493
 C202 C 0.73881 0.57203 0.58832
 C203 C 0.75683 0.58944 0.58644
 C204 C 0.77674 0.58536 0.56088
 C205 C 0.77822 0.56456 0.53731
 C206 C 0.76000 0.54741 0.53903
 C207 C 0.75428 0.61107 0.61241
 C208 C 0.76688 0.63122 0.60718
 C209 C 0.76369 0.65293 0.63272
 C210 C 0.77162 0.67494 0.61742
 C211 C 0.76885 0.69592 0.64012
 C212 C 0.75812 0.69535 0.67879
 C213 C 0.75056 0.67329 0.69451
 C214 C 0.75345 0.65227 0.67189
 H215 H 0.72617 0.53814 0.56676
 H216 H 0.72338 0.57456 0.60790
 H217 H 0.79145 0.59782 0.55936
 H218 H 0.79372 0.56170 0.51804
 H219 H 0.74055 0.61053 0.63560
 H220 H 0.77920 0.63258 0.58193
 H221 H 0.77978 0.67596 0.58756
 H222 H 0.77493 0.71262 0.62716
 H223 H 0.74251 0.67222 0.72443
 H224 H 0.74791 0.63562 0.68559
 C225 C 0.76276 0.94177 0.02916
 C226 C 0.76388 0.92063 0.05175
 C227 C 0.74746 0.91641 0.08310
 C228 C 0.73017 0.93398 0.09224
 C229 C 0.72938 0.95542 0.07031
 C230 C 0.74541 0.95952 0.03792
 C231 C 0.74958 0.89418 0.10718
 C232 C 0.73048 0.88236 0.12114
 C233 C 0.73294 0.85999 0.14479
 C234 C 0.71660 0.84137 0.13844
 C235 C 0.71879 0.81996 0.16021
 C236 C 0.73694 0.81711 0.18961
 C237 C 0.75292 0.83600 0.19668
 C238 C 0.75107 0.85718 0.17426
 H239 H 0.77625 0.94463 0.00606
 H240 H 0.77766 0.90751 0.04476
 H241 H 0.71761 0.93140 0.11693
 H242 H 0.71573 0.96852 0.07805
 H243 H 0.76737 0.88666 0.11160
 H244 H 0.71258 0.88841 0.11305
 H245 H 0.70238 0.84328 0.11610
 H246 H 0.70613 0.80573 0.15440
 H247 H 0.76706 0.83428 0.21920
 H248 H 0.76360 0.87147 0.18037
 C249 C 0.22512 0.43793 0.53454
 C250 C 0.22354 0.41633 0.55566
 C251 C 0.24070 0.41011 0.58526
 C252 C 0.25965 0.42607 0.59316
 C253 C 0.26116 0.44774 0.57205
 C254 C 0.24406 0.45371 0.54232
 C255 C 0.23862 0.38649 0.60561
 C256 C 0.25008 0.38054 0.64020
 C257 C 0.24842 0.35661 0.65965
 C258 C 0.25541 0.35418 0.70056
 C259 C 0.25505 0.33185 0.71972
 C260 C 0.24772 0.31138 0.69830
 C261 C 0.24064 0.31376 0.65740
 C262 C 0.24113 0.33606 0.63817
 H263 H 0.21159 0.44233 0.51198
 H264 H 0.20884 0.40440 0.54877
 H265 H 0.27369 0.42179 0.61476
 H266 H 0.27599 0.45964 0.57825
 H267 H 0.22646 0.37385 0.59179
 H268 H 0.26062 0.39383 0.65598
 H269 H 0.26129 0.36962 0.71776
 H270 H 0.26069 0.33061 0.75123
 H271 H 0.23519 0.29829 0.63989
 H272 H 0.23637 0.33683 0.60627
 C273 C 0.93722 0.24715 0.02378
 C274 C 0.91496 0.24579 0.04302
 C275 C 0.91002 0.25966 0.07757
 C276 C 0.92786 0.27500 0.09264
 C277 C 0.95010 0.27651 0.07325
 C278 C 0.95498 0.26305 0.03783
 C279 C 0.88584 0.25833 0.09604
 C280 C 0.88158 0.26295 0.13544
 C281 C 0.85742 0.26122 0.15381
 C282 C 0.85553 0.25547 0.19524
 C283 C 0.83307 0.25372 0.21372
 C284 C 0.81198 0.25809 0.19127
 C285 C 0.81387 0.26431 0.14994
 C286 C 0.83636 0.26583 0.13135
 H287 H 0.94056 0.23551 -0.00199
 H288 H 0.90159 0.23368 0.03100
 H289 H 0.92449 0.28644 0.11863
 H290 H 0.96304 0.28917 0.08494
 H291 H 0.87133 0.25215 0.07682
 H292 H 0.89644 0.26676 0.15567
 H293 H 0.87150 0.25208 0.21327
 H294 H 0.83224 0.24907 0.24570
 H295 H 0.79796 0.26793 0.13192
 H296 H 0.83719 0.27101 0.09963
 C297 C 0.43189 0.78961 0.53949
 C298 C 0.41011 0.78920 0.56052
 C299 C 0.40550 0.77125 0.58932
 C300 C 0.42312 0.75352 0.59637
 C301 C 0.44488 0.75400 0.57543
 C302 C 0.44935 0.77189 0.54658
 C303 C 0.38185 0.77101 0.61002
 C304 C 0.37812 0.75987 0.64562
 C305 C 0.35455 0.75858 0.66645
 C306 C 0.35420 0.75113 0.70724
 C307 C 0.33254 0.74846 0.72789
 C308 C 0.31060 0.75314 0.70820
 C309 C 0.31085 0.76077 0.66744
 C310 C 0.33257 0.76336 0.64665
 H311 H 0.43504 0.80362 0.51739
 H312 H 0.39682 0.80294 0.55424
 H313 H 0.42003 0.73885 0.61711
 H314 H 0.45801 0.73998 0.58090
 H315 H 0.36744 0.78104 0.59583
 H316 H 0.39317 0.75171 0.66128
 H317 H 0.37079 0.74719 0.72322
 H318 H 0.33301 0.74256 0.75930
 H319 H 0.29422 0.76433 0.65134
 H320 H 0.33188 0.76851 0.61495
 C321 C 0.03807 0.74417 0.08258
 C322 C 0.05861 0.74525 0.10692
 C323 C 0.07800 0.72964 0.10026
 C324 C 0.07601 0.71222 0.06947
 C325 C 0.05552 0.71123 0.04490
 C326 C 0.03640 0.72754 0.05041
 C327 C 0.09965 0.73211 0.12637
 C328 C 0.12129 0.72310 0.11668
 C329 C 0.14336 0.72683 0.14131
 C330 C 0.16562 0.72187 0.12314
 C331 C 0.18699 0.72548 0.14449
 C332 C 0.18663 0.73415 0.18465
 C333 C 0.16440 0.73873 0.20323
 C334 C 0.14298 0.73496 0.18196
 H335 H 0.02394 0.75718 0.08794
 H336 H 0.05950 0.75869 0.13066
 H337 H 0.08994 0.69903 0.06447
 H338 H 0.05442 0.69715 0.02233
 H339 H 0.09774 0.74310 0.15327
 H340 H 0.12351 0.71367 0.08817
 H341 H 0.16652 0.71542 0.09205
 H342 H 0.20382 0.72172 0.12929
 H343 H 0.16353 0.74515 0.23433
 H344 H 0.12632 0.73827 0.19781
 C345 C 0.55157 0.20806 0.57266
 C346 C 0.57277 0.20872 0.59546
 C347 C 0.58732 0.22912 0.59494
 C348 C 0.58060 0.24868 0.57036
 C349 C 0.55960 0.24785 0.54706
 C350 C 0.54495 0.22756 0.54814
 C351 C 0.60975 0.22920 0.61911
 C352 C 0.61836 0.24907 0.63655
 C353 C 0.64086 0.24936 0.66056
 C354 C 0.64325 0.26593 0.69239
 C355 C 0.66462 0.26733 0.71463
 C356 C 0.68424 0.25252 0.70482
 C357 C 0.68187 0.23596 0.67284
 C358 C 0.66038 0.23431 0.65103
 H359 H 0.54048 0.19224 0.57367
 H360 H 0.57771 0.19338 0.61388
 H361 H 0.59176 0.26441 0.56851
 H362 H 0.55474 0.26302 0.52819
 H363 H 0.61865 0.21220 0.62440
 H364 H 0.60807 0.26555 0.63477
 H365 H 0.62853 0.27785 0.70006
 H366 H 0.66597 0.28040 0.73887
 H367 H 0.69672 0.22438 0.66447
 H368 H 0.65933 0.22176 0.62599
 C369 C 0.76765 0.05467 0.92792
 C370 C 0.76787 0.07612 0.90607
 C371 C 0.74891 0.09269 0.90957
 C372 C 0.72954 0.08716 0.93535
 C373 C 0.72940 0.06574 0.95733
 C374 C 0.74847 0.04936 0.95387
 C375 C 0.74977 0.11489 0.88472
 C376 C 0.73599 0.13429 0.89146
 C377 C 0.73720 0.15643 0.86654
 C378 C 0.72863 0.17795 0.88330
 C379 C 0.72965 0.19928 0.86117
 C380 C 0.73917 0.19955 0.82157
 C381 C 0.74723 0.17792 0.80437
 C382 C 0.74615 0.15657 0.82646
 H383 H 0.78250 0.04222 0.92469
 H384 H 0.78293 0.07976 0.88626
 H385 H 0.71416 0.09890 0.93808
 H386 H 0.71417 0.06174 0.97651
 H387 H 0.76310 0.11541 0.86085
 H388 H 0.72409 0.13469 0.91741
 H389 H 0.72139 0.17833 0.91389
 H390 H 0.72322 0.21561 0.87529
 H391 H 0.75442 0.17746 0.77377
 H392 H 0.75210 0.14029 0.81173
 C393 C 0.26853 0.55775 0.45741
 C394 C 0.27051 0.57840 0.43366
 C395 C 0.25287 0.58410 0.40461
 C396 C 0.23344 0.56848 0.39905
 C397 C 0.23163 0.54770 0.42243
 C398 C 0.24904 0.54229 0.45199
 C399 C 0.25547 0.60604 0.37986
 C400 C 0.23653 0.61885 0.36694
 C401 C 0.23895 0.64136 0.34375
 C402 C 0.22201 0.65964 0.34985
 C403 C 0.22381 0.68123 0.32878
 C404 C 0.24226 0.68475 0.30037
 C405 C 0.25887 0.66621 0.29337
 C406 C 0.25735 0.64473 0.31510
 H407 H 0.28230 0.55367 0.47971
 H408 H 0.28573 0.59006 0.43821
 H409 H 0.21989 0.57203 0.37614
 H410 H 0.21660 0.53584 0.41759
 H411 H 0.27342 0.61261 0.37444
 H412 H 0.21865 0.61367 0.37611
 H413 H 0.20756 0.65733 0.37148
 H414 H 0.21063 0.69515 0.33454
 H415 H 0.27323 0.66844 0.27157
 H416 H 0.27034 0.63069 0.30907
 C417 C 0.29377 0.94731 0.92892
 C418 C 0.29393 0.92540 0.90827
 C419 C 0.27370 0.91054 0.90898
 C420 C 0.25336 0.91791 0.93109
 C421 C 0.25332 0.93966 0.95205
 C422 C 0.27358 0.95441 0.95136
 C423 C 0.27467 0.88703 0.88819
 C424 C 0.25520 0.87671 0.87206
 C425 C 0.25572 0.85292 0.85221
 C426 C 0.23909 0.84807 0.82124
 C427 C 0.23837 0.82553 0.80289
 C428 C 0.25397 0.80716 0.81579
 C429 C 0.27053 0.81194 0.84706
 C430 C 0.27148 0.83463 0.86500
 H431 H 0.30960 0.95844 0.92832
 H432 H 0.30986 0.92000 0.89174
 H433 H 0.23771 0.90662 0.93323
 H434 H 0.23763 0.94484 0.96942
 H435 H 0.29206 0.87850 0.88479
 H436 H 0.23831 0.88641 0.87179
 H437 H 0.22662 0.86180 0.81116
 H438 H 0.22530 0.82236 0.77908
 H439 H 0.28271 0.79811 0.85772
 H440 H 0.28410 0.83761 0.88956
 C441 C 0.78663 0.44302 0.45609
 C442 C 0.78797 0.42125 0.43523
 C443 C 0.77111 0.41563 0.40490
 C444 C 0.75285 0.43237 0.39578
 C445 C 0.75160 0.45415 0.41654
 C446 C 0.76825 0.45947 0.44722
 C447 C 0.77237 0.39170 0.38536
 C448 C 0.76148 0.38643 0.35001
 C449 C 0.76122 0.36221 0.33146
 C450 C 0.75395 0.36005 0.29067
 C451 C 0.75203 0.33760 0.27236
 C452 C 0.75734 0.31671 0.29447
 C453 C 0.76486 0.31879 0.33517
 C454 C 0.76664 0.34126 0.35361
 H455 H 0.79970 0.44688 0.47962
 H456 H 0.80209 0.40867 0.44309
 H457 H 0.73898 0.42855 0.37371
 H458 H 0.73713 0.46654 0.40964
 H459 H 0.78309 0.37823 0.40063
 H460 H 0.75256 0.40051 0.33308
 H461 H 0.74950 0.37582 0.27295
 H462 H 0.74620 0.33662 0.24092
 H463 H 0.76886 0.30300 0.35311
 H464 H 0.77162 0.34192 0.38541
 C465 C 0.06534 0.27665 0.97497
 C466 C 0.08750 0.27653 0.95524
 C467 C 0.09113 0.26272 0.92016
 C468 C 0.07219 0.24862 0.90549
 C469 C 0.05005 0.24859 0.92535
 C470 C 0.04625 0.26241 0.96079
 C471 C 0.11505 0.26291 0.90062
 C472 C 0.11843 0.25869 0.86078
 C473 C 0.14232 0.25831 0.84084
 C474 C 0.14445 0.24731 0.80255
 C475 C 0.16663 0.24592 0.78292
 C476 C 0.18724 0.25559 0.80113
 C477 C 0.18505 0.26716 0.83895
 C478 C 0.16285 0.26864 0.85852
 H479 H 0.06300 0.28872 1.00042
 H480 H 0.10176 0.28768 0.96701
 H481 H 0.07454 0.23709 0.87931
 H482 H 0.03617 0.23695 0.91368
 H483 H 0.13013 0.26700 0.92009
 H484 H 0.10307 0.25490 0.84167
 H485 H 0.12893 0.23942 0.78800
 H486 H 0.16769 0.23694 0.75373
 H487 H 0.20054 0.27504 0.85358
 H488 H 0.16202 0.27806 0.88722
 C489 C 0.55558 0.75075 0.46623
 C490 C 0.57762 0.74994 0.44616
 C491 C 0.58302 0.76673 0.41586
 C492 C 0.56593 0.78446 0.40601
 C493 C 0.54399 0.78547 0.42658
 C494 C 0.53879 0.76885 0.45731
 C495 C 0.60698 0.76584 0.39657
 C496 C 0.61102 0.77286 0.35819
 C497 C 0.63500 0.77101 0.33917
 C498 C 0.63672 0.76558 0.29757
 C499 C 0.65916 0.76304 0.27907
 C500 C 0.68032 0.76647 0.30166
 C501 C 0.67857 0.77268 0.34302
 C502 C 0.65613 0.77483 0.36167
 H503 H 0.55175 0.73740 0.48918
 H504 H 0.59048 0.73611 0.45423
 H505 H 0.56974 0.79797 0.38338
 H506 H 0.53130 0.79960 0.41925
 H507 H 0.62149 0.75781 0.41394
 H508 H 0.59612 0.77853 0.33920
 H509 H 0.62067 0.76280 0.27957
 H510 H 0.65996 0.75843 0.24705
 H511 H 0.69455 0.77551 0.36116
 H512 H 0.65536 0.77967 0.39357
 C513 C 0.95055 0.71189 0.91666
 C514 C 0.93071 0.71352 0.89069
 C515 C 0.91206 0.72970 0.89889
 C516 C 0.91390 0.74479 0.93295
 C517 C 0.93384 0.74339 0.95867
 C518 C 0.95238 0.72662 0.95150
 C519 C 0.89136 0.73114 0.87070
 C520 C 0.86923 0.73678 0.88342
 C521 C 0.84829 0.73840 0.85580
 C522 C 0.82544 0.73375 0.87152
 C523 C 0.80510 0.73608 0.84696
 C524 C 0.80713 0.74358 0.80627
 C525 C 0.83003 0.74828 0.79045
 C526 C 0.85045 0.74564 0.81494
 H527 H 0.96411 0.69852 0.90993
 H528 H 0.92975 0.70184 0.86440
 H529 H 0.90032 0.75823 0.93910
 H530 H 0.93511 0.75630 0.98311
 H531 H 0.89427 0.72620 0.83918
 H532 H 0.86598 0.73926 0.91568
 H533 H 0.82333 0.72834 0.90299
 H534 H 0.78770 0.73250 0.86016
 H535 H 0.83214 0.75421 0.75927
 H536 H 0.86777 0.74996 0.80217
 C537 C 0.44048 0.20645 0.46211
 C538 C 0.41857 0.20595 0.44141
 C539 C 0.41268 0.22373 0.41281
 C540 C 0.42937 0.24204 0.40522
 C541 C 0.45134 0.24246 0.42587
 C542 C 0.45689 0.22490 0.45492
 C543 C 0.38859 0.22313 0.39337
 C544 C 0.38295 0.23505 0.35915
 C545 C 0.35868 0.23525 0.34033
 C546 C 0.35643 0.24303 0.29986
 C547 C 0.33395 0.24464 0.28122
 C548 C 0.31306 0.23857 0.30266
 C549 C 0.31522 0.23063 0.34310
 C550 C 0.33776 0.22910 0.36186
 H551 H 0.44450 0.19264 0.48429
 H552 H 0.40607 0.19172 0.44805
 H553 H 0.42538 0.25652 0.38444
 H554 H 0.46366 0.25698 0.42024
 H555 H 0.37532 0.21182 0.40750
 H556 H 0.39680 0.24468 0.34314
 H557 H 0.37216 0.24803 0.28261
 H558 H 0.33294 0.25085 0.25002
 H559 H 0.29945 0.22605 0.36056
 H560 H 0.33849 0.22370 0.39345
 C561 C 0.76710 0.95648 0.91993
 C562 C 0.76686 0.93611 0.89529
 C563 C 0.74766 0.91999 0.89695
 C564 C 0.72833 0.92503 0.92326
 C565 C 0.72865 0.94535 0.94804
 C566 C 0.74815 0.96108 0.94687
 C567 C 0.74839 0.89860 0.87019
 C568 C 0.73484 0.87911 0.87585
 C569 C 0.73645 0.85744 0.84987
 C570 C 0.72817 0.83564 0.86551
 C571 C 0.72987 0.81464 0.84255
 C572 C 0.73985 0.81502 0.80331
 C573 C 0.74755 0.83693 0.78716
 C574 C 0.74573 0.85795 0.81003
 H575 H 0.78223 0.96851 0.91842
 H576 H 0.78185 0.93284 0.87505
 H577 H 0.71274 0.91366 0.92452
 H578 H 0.71361 0.94891 0.96802
 H579 H 0.76166 0.89859 0.84621
 H580 H 0.72306 0.87818 0.90190
 H581 H 0.72069 0.83477 0.89590
 H582 H 0.72370 0.79805 0.85581
 H583 H 0.75502 0.83786 0.75679
 H584 H 0.75144 0.87447 0.79610
 C585 C 0.26828 0.43854 0.45695
 C586 C 0.27010 0.41758 0.43390
 C587 C 0.25194 0.41140 0.40622
 C588 C 0.23213 0.42688 0.40128
 C589 C 0.23052 0.44804 0.42388
 C590 C 0.24847 0.45390 0.45211
 C591 C 0.25450 0.38916 0.38210
 C592 C 0.23569 0.37579 0.37119
 C593 C 0.23838 0.35299 0.34871
 C594 C 0.22262 0.33420 0.35712
 C595 C 0.22487 0.31232 0.33682
 C596 C 0.24256 0.30903 0.30688
 C597 C 0.25795 0.32807 0.29763
 C598 C 0.25600 0.34982 0.31855
 H599 H 0.28242 0.44293 0.47831
 H600 H 0.28561 0.40604 0.43795
 H601 H 0.21814 0.42290 0.37944
 H602 H 0.21520 0.45981 0.41957
 H603 H 0.27250 0.38285 0.37553
 H604 H 0.21789 0.38075 0.38151
 H605 H 0.20878 0.33633 0.37998
 H606 H 0.21264 0.29802 0.34434
 H607 H 0.27171 0.32604 0.27462
 H608 H 0.26805 0.36421 0.31074
 C609 C 0.25048 0.05870 0.96756
 C610 C 0.24715 0.08019 0.94667
 C611 C 0.26026 0.08509 0.91136
 C612 C 0.27663 0.06784 0.89688
 C613 C 0.28012 0.04635 0.91795
 C614 C 0.26764 0.04173 0.95442
 C615 C 0.25745 0.10889 0.89216
 C616 C 0.26204 0.11326 0.85282
 C617 C 0.25973 0.13747 0.83496
 C618 C 0.25343 0.13989 0.79378
 C619 C 0.25125 0.16257 0.77611
 C620 C 0.25576 0.18326 0.79918
 C621 C 0.26249 0.18080 0.84024
 C622 C 0.26445 0.15817 0.85796
 H623 H 0.23949 0.05539 0.99407
 H624 H 0.23426 0.09309 0.95824
 H625 H 0.28746 0.07123 0.87023
 H626 H 0.29361 0.03396 0.90681
 H627 H 0.25055 0.12322 0.91113
 H628 H 0.26657 0.09862 0.83258
 H629 H 0.24997 0.12419 0.77536
 H630 H 0.24621 0.16387 0.74431
 H631 H 0.26625 0.19638 0.85875
 H632 H 0.27010 0.15693 0.88945
 C633 C 0.78109 0.55241 0.41810
 C634 C 0.78026 0.57318 0.39444
 C635 C 0.76201 0.59022 0.40023
 C636 C 0.74423 0.58587 0.42960
 C637 C 0.74486 0.56492 0.45283
 C638 C 0.76345 0.54810 0.44763
 C639 C 0.76142 0.61181 0.37413
 C640 C 0.75294 0.63295 0.38714
 C641 C 0.75253 0.65466 0.36134
 C642 C 0.75482 0.67711 0.37995
 C643 C 0.75393 0.69803 0.35671
 C644 C 0.75019 0.69695 0.31439
 C645 C 0.74764 0.67446 0.29575
 C646 C 0.74891 0.65349 0.31895
 H647 H 0.79554 0.53966 0.41336
 H648 H 0.79402 0.57604 0.37174
 H649 H 0.72947 0.59828 0.43389
 H650 H 0.73061 0.56168 0.47445
 H651 H 0.76941 0.61049 0.34415
 H652 H 0.74728 0.63485 0.41853
 H653 H 0.75741 0.67846 0.41258
 H654 H 0.75574 0.71509 0.37202
 H655 H 0.74462 0.67308 0.26324
 H656 H 0.74647 0.63647 0.30382
 C657 C 0.04455 0.70411 0.93100
 C658 C 0.06554 0.70426 0.90781
 C659 C 0.08239 0.72257 0.91272
 C660 C 0.07763 0.74108 0.94067
 C661 C 0.05645 0.74113 0.96338
 C662 C 0.03984 0.72249 0.95913
 C663 C 0.10418 0.72248 0.88706
 C664 C 0.12522 0.73109 0.90008
 C665 C 0.14707 0.73119 0.87457
 C666 C 0.16956 0.72943 0.89358
 C667 C 0.19061 0.73046 0.87066
 C668 C 0.18961 0.73380 0.82826
 C669 C 0.16708 0.73563 0.80917
 C670 C 0.14599 0.73423 0.83206
 H671 H 0.03191 0.68966 0.92694
 H672 H 0.06872 0.68996 0.88617
 H673 H 0.08991 0.75586 0.94422
 H674 H 0.05290 0.75586 0.98400
 H675 H 0.10309 0.71400 0.85744
 H676 H 0.12689 0.73728 0.93123
 H677 H 0.17083 0.72728 0.92631
 H678 H 0.20769 0.72920 0.88631
 H679 H 0.16575 0.73834 0.77658
 H680 H 0.12893 0.73625 0.81660
 C681 C 0.56325 0.21007 0.46250
 C682 C 0.58489 0.21112 0.44123
 C683 C 0.58952 0.23008 0.41432
 C684 C 0.57200 0.24816 0.40947
 C685 C 0.55033 0.24703 0.43068
 C686 C 0.54587 0.22809 0.45754
 C687 C 0.61309 0.23070 0.39338
 C688 C 0.61760 0.24401 0.36026
 C689 C 0.64136 0.24487 0.33997
 C690 C 0.64261 0.25325 0.29972
 C691 C 0.66466 0.25482 0.27970
 C692 C 0.68599 0.24809 0.29960
 C693 C 0.68479 0.23989 0.33999
 C694 C 0.66279 0.23843 0.36007
 H695 H 0.56005 0.19519 0.48285
 H696 H 0.59808 0.19704 0.44578
 H697 H 0.57503 0.26349 0.39017
 H698 H 0.53718 0.26121 0.42676
 H699 H 0.62693 0.21896 0.40523
 H700 H 0.60321 0.25412 0.34618
 H701 H 0.62644 0.25856 0.28364
 H702 H 0.66497 0.26129 0.24862
 H703 H 0.70094 0.23485 0.35637
 H704 H 0.66286 0.23272 0.39151
 C705 C 0.95805 0.25323 0.91094
 C706 C 0.93789 0.25493 0.88572
 C707 C 0.91878 0.27022 0.89573
 C708 C 0.92081 0.28491 0.93032
 C709 C 0.94101 0.28333 0.95546
 C710 C 0.95961 0.26683 0.94705
 C711 C 0.89709 0.27027 0.86953
 C712 C 0.87507 0.27525 0.88381
 C713 C 0.85267 0.27355 0.85938
 C714 C 0.83159 0.28374 0.87530
 C715 C 0.80976 0.28165 0.85465
 C716 C 0.80846 0.26920 0.81754
 C717 C 0.82954 0.25914 0.80134
 C718 C 0.85138 0.26118 0.82203
 H719 H 0.97183 0.24027 0.90312
 H720 H 0.93689 0.24364 0.85893
 H721 H 0.90697 0.29781 0.93791
 H722 H 0.94211 0.29521 0.98145
 H723 H 0.89949 0.26477 0.83825
 H724 H 0.87305 0.28035 0.91544
 H725 H 0.83197 0.29324 0.90407
 H726 H 0.79385 0.28960 0.86801
 H727 H 0.82912 0.24929 0.77293
 H728 H 0.86689 0.25246 0.80894
 C729 C 0.43369 0.74942 0.46503
 C730 C 0.41168 0.74792 0.44492
 C731 C 0.40544 0.76458 0.41473
 C732 C 0.42170 0.78288 0.40499
 C733 C 0.44365 0.78454 0.42554
 C734 C 0.44963 0.76804 0.45617
 C735 C 0.38157 0.76276 0.39523
 C736 C 0.37711 0.76999 0.35706
 C737 C 0.35348 0.76666 0.33734
 C738 C 0.35257 0.76203 0.29542
 C739 C 0.33062 0.75802 0.27606
 C740 C 0.30906 0.75908 0.29814
 C741 C 0.30989 0.76448 0.33991
 C742 C 0.33190 0.76814 0.35940
 H743 H 0.43813 0.73624 0.48805
 H744 H 0.39949 0.73366 0.45291
 H745 H 0.41723 0.79632 0.38246
 H746 H 0.45569 0.79907 0.41835
 H747 H 0.36764 0.75370 0.41209
 H748 H 0.39160 0.77677 0.33853
 H749 H 0.36894 0.76103 0.27775
 H750 H 0.33054 0.75414 0.24374
 H751 H 0.29356 0.76555 0.35764
 H752 H 0.33198 0.77233 0.39159
 C753 C 0.29062 0.93680 0.03751
 C754 C 0.28967 0.91464 0.05705
 C755 C 0.26974 0.90843 0.08079
 C756 C 0.25063 0.92495 0.08440
 C757 C 0.25165 0.94715 0.06495
 C758 C 0.27152 0.95312 0.04104
 C759 C 0.26926 0.88436 0.09983
 C760 C 0.25494 0.87863 0.13109
 C761 C 0.25437 0.85457 0.15017
 C762 C 0.24452 0.85244 0.18927
 C763 C 0.24316 0.83017 0.20834
 C764 C 0.25154 0.80943 0.18863
 C765 C 0.26124 0.81146 0.14934
 C766 C 0.26254 0.83376 0.13017
 H767 H 0.30617 0.94116 0.01931
 H768 H 0.30456 0.90226 0.05353
 H769 H 0.23457 0.92070 0.10122
 H770 H 0.23663 0.95945 0.06760
 H771 H 0.28196 0.87128 0.08845
 H772 H 0.24378 0.89230 0.14482
 H773 H 0.23790 0.86810 0.20525
 H774 H 0.23552 0.82924 0.23859
 H775 H 0.26762 0.79577 0.13319
 H776 H 0.26952 0.83441 0.09951
 C777 C 0.74376 0.44147 0.52593
 C778 C 0.74251 0.41979 0.54693
 C779 C 0.75769 0.41524 0.58021
 C780 C 0.77444 0.43271 0.59182
 C781 C 0.77588 0.45430 0.57047
 C782 C 0.76071 0.45877 0.53712
 C783 C 0.75611 0.39185 0.60117
 C784 C 0.76137 0.38890 0.64071
 C785 C 0.75905 0.36560 0.66173
 C786 C 0.75324 0.36533 0.70326
 C787 C 0.75069 0.34366 0.72397
 C788 C 0.75437 0.32179 0.70369
 C789 C 0.76075 0.32207 0.66231
 C790 C 0.76301 0.34375 0.64148
 H791 H 0.73157 0.44469 0.50077
 H792 H 0.72949 0.40660 0.53738
 H793 H 0.78684 0.42955 0.61668
 H794 H 0.78916 0.46735 0.57949
 H795 H 0.74902 0.37695 0.58392
 H796 H 0.76606 0.40429 0.65907
 H797 H 0.75033 0.38195 0.71959
 H798 H 0.74593 0.34404 0.75592
 H799 H 0.76383 0.30552 0.64592
 H800 H 0.76820 0.34335 0.60974
 C801 C 0.76573 0.06118 0.04472
 C802 C 0.76694 0.08137 0.06966
 C803 C 0.74738 0.08794 0.09411
 C804 C 0.72670 0.07363 0.09388
 C805 C 0.72563 0.05322 0.06929
 C806 C 0.74506 0.04702 0.04428
 C807 C 0.74940 0.10945 0.12006
 C808 C 0.73062 0.12352 0.12902
 C809 C 0.73329 0.14611 0.15192
 C810 C 0.71872 0.16572 0.14157
 C811 C 0.72161 0.18768 0.16122
 C812 C 0.73877 0.19028 0.19231
 C813 C 0.75275 0.17038 0.20377
 C814 C 0.75013 0.14851 0.18362
 H815 H 0.78104 0.05643 0.02605
 H816 H 0.78312 0.09201 0.06960
 H817 H 0.71155 0.07790 0.11320
 H818 H 0.70964 0.04231 0.06961
 H819 H 0.76724 0.11485 0.12930
 H820 H 0.71317 0.11959 0.11616
 H821 H 0.70550 0.16420 0.11749
 H822 H 0.71042 0.20265 0.15203
 H823 H 0.76603 0.17185 0.22776
 H824 H 0.76120 0.13349 0.19294
 C825 C 0.22755 0.55998 0.53397
 C826 C 0.22627 0.58126 0.55623
 C827 C 0.24210 0.58546 0.58874
 C828 C 0.25956 0.56799 0.59817
 C829 C 0.26096 0.54676 0.57561
 C830 C 0.24508 0.54264 0.54312
 C831 C 0.24039 0.60862 0.61070
 C832 C 0.24759 0.61179 0.64941
 C833 C 0.24617 0.63509 0.67133
 C834 C 0.25979 0.63809 0.70702
 C835 C 0.25961 0.65989 0.72803
 C836 C 0.24572 0.67924 0.71380
 C837 C 0.23154 0.67605 0.67880
 C838 C 0.23161 0.65425 0.65795
 H839 H 0.21477 0.55704 0.50961
 H840 H 0.21271 0.59442 0.54824
 H841 H 0.27253 0.57083 0.62221
 H842 H 0.27469 0.53368 0.58312
 H843 H 0.23256 0.62335 0.59393
 H844 H 0.25525 0.59682 0.66592
 H845 H 0.27097 0.62361 0.71835
 H846 H 0.27071 0.66174 0.75495
 H847 H 0.22039 0.69050 0.66732
 H848 H 0.22006 0.65265 0.63165
 C849 C 0.93249 0.71031 0.03866
 C850 C 0.91074 0.71063 0.05976
 C851 C 0.90493 0.72964 0.08603
 C852 C 0.92137 0.74853 0.09043
 C853 C 0.94314 0.74817 0.06938
 C854 C 0.94878 0.72919 0.04301
 C855 C 0.88124 0.72954 0.10669
 C856 C 0.87610 0.74271 0.13981
 C857 C 0.85220 0.74332 0.15982
 C858 C 0.85048 0.75280 0.19934
 C859 C 0.82828 0.75478 0.21880
 C860 C 0.80719 0.74735 0.19912
 C861 C 0.80887 0.73772 0.15967
 C862 C 0.83106 0.73584 0.14011
 H863 H 0.93658 0.69539 0.01874
 H864 H 0.89840 0.69593 0.05556
 H865 H 0.91738 0.76393 0.10922
 H866 H 0.95540 0.76299 0.07292
 H867 H 0.86792 0.71747 0.09459
 H868 H 0.89010 0.75316 0.15394
 H869 H 0.86640 0.75887 0.21517
 H870 H 0.82763 0.76233 0.24917
 H871 H 0.79293 0.73206 0.14349
 H872 H 0.83131 0.72912 0.10925
 C873 C 0.43986 0.24774 0.53554
 C874 C 0.41789 0.24952 0.55557
 C875 C 0.41201 0.23337 0.58658
 C876 C 0.42853 0.21524 0.59714
 C877 C 0.45044 0.21327 0.57665
 C878 C 0.45612 0.22931 0.54530
 C879 C 0.38813 0.23537 0.60578
 C880 C 0.38371 0.22871 0.64420
 C881 C 0.35972 0.23151 0.66281
 C882 C 0.35792 0.23663 0.70451
 C883 C 0.33546 0.23993 0.72262
 C884 C 0.31436 0.23770 0.69943
 C885 C 0.31618 0.23192 0.65790
 C886 C 0.33861 0.22890 0.63974
 H887 H 0.44409 0.26063 0.51206
 H888 H 0.40547 0.26362 0.54691
 H889 H 0.42431 0.20218 0.62031
 H890 H 0.46271 0.19891 0.58459
 H891 H 0.37401 0.24391 0.58818
 H892 H 0.39829 0.22250 0.66342
 H893 H 0.37395 0.23848 0.72294
 H894 H 0.33463 0.24415 0.75478
 H895 H 0.30025 0.22992 0.63929
 H896 H 0.33938 0.22425 0.60775
 C897 C 0.05521 0.23902 0.04969
 C898 C 0.07508 0.23561 0.07510
 C899 C 0.08210 0.25358 0.10240
 C900 C 0.06824 0.27466 0.10516
 C901 C 0.04811 0.27789 0.08019
 C902 C 0.04179 0.26032 0.05164
 C903 C 0.10386 0.24981 0.12754
 C904 C 0.11882 0.26765 0.13696
 C905 C 0.14181 0.26366 0.15862
 C906 C 0.16148 0.27805 0.14886
 C907 C 0.18362 0.27446 0.16799
 C908 C 0.18639 0.25675 0.19804
 C909 C 0.16651 0.24275 0.20865
 C910 C 0.14444 0.24606 0.18895
 H911 H 0.05038 0.22512 0.02824
 H912 H 0.08534 0.21914 0.07277
 H913 H 0.07285 0.28856 0.12671
 H914 H 0.03778 0.29432 0.08240
 H915 H 0.10876 0.23157 0.13526
 H916 H 0.11519 0.28547 0.12539
 H917 H 0.15981 0.29183 0.12582
 H918 H 0.19856 0.28567 0.15943
 H919 H 0.16810 0.22904 0.23181
 H920 H 0.12942 0.23506 0.19781
 C921 C 0.54182 0.75273 0.57710
 C922 C 0.56305 0.75178 0.59962
 C923 C 0.58100 0.76896 0.59395
 C924 C 0.57695 0.78757 0.56573
 C925 C 0.55567 0.78847 0.54310
 C926 C 0.53807 0.77090 0.54835
 C927 C 0.60319 0.76686 0.61876
 C928 C 0.62374 0.77831 0.61071
 C929 C 0.64588 0.77498 0.63537
 C930 C 0.66818 0.78013 0.61771
 C931 C 0.68947 0.77656 0.63959
 C932 C 0.68886 0.76777 0.67966
 C933 C 0.66653 0.76324 0.69771
 C934 C 0.64528 0.76699 0.67602
 H935 H 0.52843 0.73902 0.58162
 H936 H 0.56555 0.73737 0.62133
 H937 H 0.58989 0.80163 0.56124
 H938 H 0.55290 0.80286 0.52148
 H939 H 0.60273 0.75419 0.64363
 H940 H 0.62507 0.78943 0.58389
 H941 H 0.66915 0.78658 0.58666
 H942 H 0.70641 0.78034 0.62492
 H943 H 0.66544 0.75687 0.72880
 H944 H 0.62851 0.76380 0.69150
   
