data_POSCAR
  _audit_creation_date              2014-09-24
  _audit_creation_method            'ToBaCCo'
  _symmetry_space_group_name_H-M    'P1'
  _symmetry_Int_Tables_number       1
  _symmetry_cell_setting            triclinic
  loop_
  _symmetry_equiv_pos_as_xyz
 x,y,z
_cell_length_a 50.8783
_cell_length_b 23.4304
_cell_length_c 19.2526
_cell_angle_alpha 89.970600
_cell_angle_beta 89.531900
_cell_angle_gamma 92.685600
loop_
  _atom_site_label
  _atom_site_type_symbol
  _atom_site_fract_x
  _atom_site_fract_y
  _atom_site_fract_z
C1 C 0.69614 0.34058 0.50116
 C2 C 0.70894 0.32984 0.56406
 C3 C 0.73097 0.29550 0.56202
 C4 C 0.73851 0.26697 0.50073
 C5 C 0.72357 0.27497 0.44033
 C6 C 0.70313 0.31295 0.43983
 C7 C 0.76133 0.22812 0.50031
 C8 C 0.77419 0.21394 0.43759
 C9 C 0.79476 0.17547 0.43635
 C10 C 0.80360 0.15431 0.49999
 C11 C 0.79275 0.17158 0.56310
 C12 C 0.77092 0.20574 0.56281
 H13 H 0.67885 0.36580 0.50025
 H14 H 0.74246 0.29252 0.60858
 H15 H 0.72731 0.25157 0.39322
 H16 H 0.76795 0.23180 0.38916
 H17 H 0.82091 0.12909 0.50122
 H18 H 0.76198 0.21489 0.61235
 C19 C 0.19552 0.83857 0.51531
 C20 C 0.20893 0.82876 0.57765
 C21 C 0.23052 0.79318 0.57539
 C22 C 0.23742 0.76427 0.51409
 C23 C 0.22219 0.77165 0.45424
 C24 C 0.20167 0.80942 0.45432
 C25 C 0.26020 0.72603 0.51277
 C26 C 0.27449 0.71808 0.45083
 C27 C 0.29540 0.68141 0.44883
 C28 C 0.30297 0.65420 0.50967
 C29 C 0.29038 0.66415 0.57371
 C30 C 0.26830 0.69846 0.57370
 H31 H 0.17840 0.86436 0.51497
 H32 H 0.24236 0.78935 0.62138
 H33 H 0.22598 0.74783 0.40735
 H34 H 0.26976 0.74084 0.40397
 H35 H 0.32052 0.62987 0.50730
 H36 H 0.25706 0.70252 0.62117
 C37 C 0.31412 0.24003 -0.49505
 C38 C 0.30238 0.24738 -0.56004
 C39 C 0.27516 0.25604 -0.56039
 C40 C 0.26115 0.26499 -0.49774
 C41 C 0.27584 0.27287 -0.43619
 C42 C 0.30249 0.25971 -0.43374
 C43 C 0.23151 0.26366 -0.49544
 C44 C 0.21791 0.24919 -0.43310
 C45 C 0.19024 0.24325 -0.43006
 C46 C 0.17623 0.24811 -0.49236
 C47 C 0.18918 0.25973 -0.55582
 C48 C 0.21656 0.27083 -0.55598
 H49 H 0.33303 0.22131 -0.49252
 H50 H 0.26501 0.25524 -0.60906
 H51 H 0.26648 0.28941 -0.39047
 H52 H 0.22887 0.24285 -0.38628
 H53 H 0.15534 0.23721 -0.49260
 H54 H 0.22598 0.28340 -0.60437
 C55 C -0.18056 0.75311 -0.52061
 C56 C -0.19448 0.74819 -0.58334
 C57 C -0.22214 0.74708 -0.57959
 C58 C -0.23566 0.75735 -0.51673
 C59 C -0.22066 0.76895 -0.45652
 C60 C -0.19314 0.76578 -0.45751
 C61 C -0.26525 0.75470 -0.51432
 C62 C -0.27909 0.74142 -0.45203
 C63 C -0.30670 0.73409 -0.45094
 C64 C -0.32043 0.73721 -0.51360
 C65 C -0.30725 0.75006 -0.57625
 C66 C -0.27995 0.76157 -0.57543
 H67 H -0.15947 0.75092 -0.52102
 H68 H -0.23303 0.73596 -0.62587
 H69 H -0.23020 0.78158 -0.40901
 H70 H -0.26856 0.73556 -0.40428
 H71 H -0.34135 0.72641 -0.51407
 H72 H -0.27035 0.77469 -0.62348
 O73 O -0.01990 0.86756 0.11822
 O74 O -0.05438 0.89367 0.05116
 C75 C -0.04436 0.86281 0.09933
 O76 O 0.01701 1.11365 0.13991
 O77 O 0.05361 1.09318 0.07610
 C78 C 0.04191 1.12070 0.12496
 O79 O -0.05133 1.04816 0.13324
 O80 O -0.06952 0.97999 0.06000
 C81 C -0.07075 1.01510 0.11190
 O82 O 0.05021 0.92250 0.11896
 O83 O 0.06933 1.00255 0.06720
 C84 C 0.07004 0.95835 0.10771
 Zr85 Zr 0.01112 0.92351 0.08245
 O86 O 0.01324 0.91010 0.19079
 O87 O 0.02401 0.84068 0.06210
 Zr88 Zr -0.01206 1.05665 0.09685
 O89 O -0.01126 1.05127 0.20660
 O90 O -0.02902 1.13737 0.10229
 O91 O -0.02247 0.96951 0.10005
 O92 O 0.02061 1.00809 0.10620
 O93 O 0.05327 0.94416 -0.12308
 O94 O 0.07090 1.01384 -0.05105
 C95 C 0.07252 0.97785 -0.10174
 O96 O -0.04817 1.06736 -0.11982
 O97 O -0.06776 0.98946 -0.06430
 C98 C -0.06786 1.03116 -0.10857
 O99 O 0.02071 1.13097 -0.10476
 O100 O 0.05559 1.10117 -0.04157
 C101 C 0.04534 1.13434 -0.08688
 O102 O -0.01666 0.89144 -0.14356
 O103 O -0.05299 0.90446 -0.07513
 C104 C -0.04162 0.88432 -0.12999
 Zr105 Zr 0.01340 0.93717 -0.08976
 O106 O 0.01862 0.93828 -0.19876
 O107 O 0.02474 0.85133 -0.08917
 Zr108 Zr -0.00994 1.07060 -0.07632
 O109 O -0.00722 1.08484 -0.18475
 O110 O -0.02673 1.15081 -0.06173
 Zr111 Zr -0.03641 0.96370 -0.00276
 Zr112 Zr 0.03734 1.03026 0.00907
 O113 O 0.02293 1.02376 -0.09301
 O114 O -0.01972 0.98568 -0.10043
 O115 O 0.03638 0.94060 -0.00113
 O116 O -0.03439 1.05326 0.00772
 O117 O -0.00817 0.90110 -0.00835
 O118 O 0.00948 1.09393 0.01479
 H119 H 0.03101 1.01451 0.14898
 H120 H -0.05102 1.07364 0.00890
 H121 H 0.03402 1.03628 -0.13324
 H122 H -0.01472 0.86085 -0.01382
 H123 H -0.01653 1.16559 0.08016
 H124 H -0.01324 1.17681 -0.04025
 H125 H -0.01453 1.04994 -0.20783
 H126 H 0.01011 0.97258 -0.21580
 H127 H 0.04246 0.85095 -0.06836
 H128 H 0.02573 0.82219 0.10803
 H129 H 0.00040 0.93504 0.21252
 H130 H -0.02161 1.01625 0.22044
 O131 O 0.48034 0.38625 0.13468
 O132 O 0.44503 0.40612 0.06717
 C133 C 0.45554 0.38097 0.11959
 O134 O 0.51923 0.62909 0.11932
 O135 O 0.55488 0.60135 0.05651
 C136 C 0.54403 0.63330 0.10253
 O137 O 0.45029 0.56682 0.12444
 O138 O 0.43088 0.49289 0.06217
 C139 C 0.43035 0.53278 0.10881
 O140 O 0.55084 0.43564 0.12096
 O141 O 0.57005 0.51008 0.05831
 C142 C 0.57086 0.46915 0.10357
 Zr143 Zr 0.51133 0.43544 0.08798
 O144 O 0.51483 0.43178 0.19720
 O145 O 0.52297 0.35039 0.07856
 Zr146 Zr 0.48927 0.57013 0.08513
 O147 O 0.49096 0.57549 0.19480
 O148 O 0.47317 0.65169 0.07919
 O149 O 0.47836 0.48432 0.10121
 O150 O 0.52168 0.52128 0.09932
 O151 O 0.55124 0.43547 -0.12213
 O152 O 0.57023 0.51054 -0.06075
 C153 C 0.57091 0.47053 -0.10708
 O154 O 0.45141 0.55871 -0.13139
 O155 O 0.43132 0.48927 -0.06227
 C156 C 0.43149 0.52509 -0.11354
 O157 O 0.52033 0.62408 -0.12679
 O158 O 0.55549 0.59883 -0.06158
 C159 C 0.54506 0.62852 -0.11004
 O160 O 0.48071 0.38348 -0.13001
 O161 O 0.44538 0.40398 -0.06137
 C162 C 0.45593 0.37819 -0.11361
 Zr163 Zr 0.51178 0.43238 -0.08464
 O164 O 0.51569 0.42110 -0.19303
 O165 O 0.52255 0.34684 -0.07136
 Zr166 Zr 0.48965 0.56731 -0.08869
 O167 O 0.49128 0.57288 -0.19834
 O168 O 0.47313 0.64854 -0.08380
 Zr169 Zr 0.46316 0.46909 0.00097
 Zr170 Zr 0.53753 0.53338 -0.00109
 O171 O 0.52191 0.51789 -0.10065
 O172 O 0.47902 0.48095 -0.10004
 O173 O 0.53578 0.44332 0.00126
 O174 O 0.46594 0.55906 -0.00165
 O175 O 0.49078 0.40512 0.00251
 O176 O 0.51024 0.59838 -0.00266
 H177 H 0.53264 0.53091 0.14037
 H178 H 0.44943 0.57985 -0.00283
 H179 H 0.53257 0.52653 -0.14296
 H180 H 0.48373 0.36496 0.00353
 H181 H 0.48593 0.67725 0.05373
 H182 H 0.48704 0.67642 -0.06816
 H183 H 0.48562 0.53484 -0.21656
 H184 H 0.50919 0.45583 -0.21487
 H185 H 0.54099 0.34797 -0.05521
 H186 H 0.52506 0.33631 0.12663
 H187 H 0.50415 0.46235 0.21615
 H188 H 0.48077 0.54200 0.21396
 C189 C 0.34680 0.26364 0.38186
 C190 C 0.36293 0.27630 0.32437
 C191 C 0.35194 0.28090 0.25783
 C192 C 0.32490 0.26821 0.24975
 C193 C 0.30888 0.25355 0.30752
 C194 C 0.31940 0.25262 0.37528
 C195 C 0.36813 0.29934 0.20150
 C196 C 0.39521 0.31206 0.21155
 C197 C 0.40610 0.30349 0.27792
 C198 C 0.38995 0.28623 0.33364
 C199 C 0.43297 0.31391 0.28860
 C200 C 0.44896 0.33555 0.23521
 C201 C 0.43847 0.34815 0.16983
 C202 C 0.41155 0.33474 0.15760
 H203 H 0.35602 0.26577 0.43211
 H204 H 0.31604 0.27038 0.19891
 H205 H 0.28823 0.24426 0.29828
 H206 H 0.35963 0.30481 0.15062
 H207 H 0.39840 0.28159 0.38480
 H208 H 0.44156 0.30693 0.33905
 H209 H 0.46950 0.34506 0.24672
 H210 H 0.40319 0.34377 0.10743
 C211 C -0.15447 0.73419 0.34575
 C212 C -0.13891 0.75017 0.28785
 C213 C -0.14996 0.78038 0.23270
 C214 C -0.17683 0.79072 0.23444
 C215 C -0.19210 0.77596 0.29304
 C216 C -0.18084 0.75038 0.35165
 C217 C -0.13374 0.80218 0.17859
 C218 C -0.10646 0.79557 0.18038
 C219 C -0.09565 0.76297 0.23401
 C220 C -0.11202 0.73952 0.28660
 C221 C -0.06841 0.75710 0.23649
 C222 C -0.05180 0.78684 0.18962
 C223 C -0.06213 0.82232 0.13865
 C224 C -0.08963 0.82408 0.13213
 H225 H -0.14555 0.71054 0.38694
 H226 H -0.18575 0.81320 0.19215
 H227 H -0.21211 0.78963 0.29401
 H228 H -0.14210 0.82694 0.13734
 H229 H -0.10354 0.71608 0.32885
 H230 H -0.05984 0.73180 0.27684
 H231 H -0.03075 0.78396 0.19539
 H232 H -0.09793 0.85096 0.09288
 C233 C 0.65217 0.76028 0.35172
 C234 C 0.63691 0.74394 0.29398
 C235 C 0.64824 0.71260 0.23956
 C236 C 0.67490 0.70040 0.24238
 C237 C 0.68977 0.71565 0.30070
 C238 C 0.67838 0.74416 0.35692
 C239 C 0.63246 0.69132 0.18516
 C240 C 0.60528 0.69913 0.18591
 C241 C 0.59412 0.73217 0.23900
 C242 C 0.61010 0.75537 0.29193
 C243 C 0.56688 0.73877 0.24042
 C244 C 0.55062 0.70935 0.19303
 C245 C 0.56135 0.67367 0.14250
 C246 C 0.58888 0.67123 0.13709
 H247 H 0.64326 0.78304 0.39418
 H248 H 0.68394 0.67660 0.20104
 H249 H 0.70981 0.70217 0.30338
 H250 H 0.64104 0.66596 0.14445
 H251 H 0.60139 0.77948 0.33359
 H252 H 0.55801 0.76433 0.28036
 H253 H 0.52953 0.71261 0.19801
 H254 H 0.59751 0.64446 0.09795
 C255 C 0.14768 1.26315 0.37358
 C256 C 0.13244 1.24286 0.31749
 C257 C 0.14446 1.21310 0.26283
 C258 C 0.17162 1.20588 0.26403
 C259 C 0.18645 1.22427 0.32118
 C260 C 0.17456 1.25155 0.37770
 C261 C 0.12900 1.18853 0.20972
 C262 C 0.10154 1.19144 0.21201
 C263 C 0.08953 1.22220 0.26585
 C264 C 0.10511 1.24878 0.31744
 C265 C 0.06203 1.22370 0.26888
 C266 C 0.04652 1.19257 0.22129
 C267 C 0.05822 1.16010 0.16901
 C268 C 0.08583 1.16156 0.16330
 H269 H 0.13828 1.28523 0.41579
 H270 H 0.18116 1.18330 0.22246
 H271 H 0.20695 1.21396 0.32268
 H272 H 0.13821 1.16468 0.16859
 H273 H 0.09585 1.27150 0.35943
 H274 H 0.05249 1.24723 0.30963
 H275 H 0.02532 1.19270 0.22671
 H276 H 0.09519 1.13719 0.12302
 C277 C 0.68311 0.39724 -0.36826
 C278 C 0.66772 0.40835 -0.30946
 C279 C 0.66729 0.37032 -0.25250
 C280 C 0.68399 0.32449 -0.25305
 C281 C 0.69938 0.31372 -0.31169
 C282 C 0.69808 0.34807 -0.37188
 C283 C 0.64945 0.37739 -0.19741
 C284 C 0.63194 0.42195 -0.19903
 C285 C 0.63375 0.46227 -0.25394
 C286 C 0.65173 0.45543 -0.30844
 C287 C 0.61663 0.50733 -0.25530
 C288 C 0.59696 0.51072 -0.20493
 C289 C 0.59421 0.46960 -0.15218
 C290 C 0.61196 0.42570 -0.14844
 H291 H 0.68290 0.42656 -0.41178
 H292 H 0.68427 0.29534 -0.20937
 H293 H 0.71039 0.27532 -0.31143
 H294 H 0.64848 0.34701 -0.15482
 H295 H 0.65240 0.48527 -0.35161
 H296 H 0.61781 0.53870 -0.29674
 H297 H 0.58300 0.54401 -0.20903
 H298 H 0.60965 0.39375 -0.10781
 C299 C 0.18504 0.89981 -0.35549
 C300 C 0.17027 0.91326 -0.29642
 C301 C 0.16939 0.87592 -0.23876
 C302 C 0.18529 0.82874 -0.23862
 C303 C 0.20016 0.81580 -0.29741
 C304 C 0.19902 0.84919 -0.35838
 C305 C 0.15170 0.88477 -0.18388
 C306 C 0.13477 0.93030 -0.18652
 C307 C 0.13731 0.97040 -0.24153
 C308 C 0.15517 0.96180 -0.29588
 C309 C 0.12080 1.01660 -0.24345
 C310 C 0.10063 1.02056 -0.19447
 C311 C 0.09686 0.97885 -0.14271
 C312 C 0.11440 0.93471 -0.13737
 H313 H 0.18503 0.92824 -0.39990
 H314 H 0.18522 0.80015 -0.19434
 H315 H 0.21049 0.77647 -0.29664
 H316 H 0.15021 0.85473 -0.14099
 H317 H 0.15624 0.99112 -0.33957
 H318 H 0.12269 1.04813 -0.28462
 H319 H 0.08700 1.05447 -0.19927
 H320 H 0.11135 0.90250 -0.09726
 C321 C 0.31679 0.59619 -0.36246
 C322 C 0.33270 0.58460 -0.30554
 C323 C 0.33301 0.62122 -0.24732
 C324 C 0.31586 0.66625 -0.24495
 C325 C 0.30016 0.67784 -0.30207
 C326 C 0.30149 0.64497 -0.36346
 C327 C 0.35122 0.61376 -0.19403
 C328 C 0.36933 0.57053 -0.19897
 C329 C 0.36787 0.53172 -0.25535
 C330 C 0.34939 0.53869 -0.30785
 C331 C 0.38577 0.48818 -0.26008
 C332 C 0.40591 0.48514 -0.21173
 C333 C 0.40823 0.52501 -0.15769
 C334 C 0.38962 0.56687 -0.15026
 H335 H 0.31696 0.56772 -0.40677
 H336 H 0.31555 0.69433 -0.20027
 H337 H 0.28886 0.71578 -0.29967
 H338 H 0.35205 0.64305 -0.15040
 H339 H 0.34893 0.51014 -0.35223
 H340 H 0.38478 0.45777 -0.30250
 H341 H 0.42033 0.45294 -0.21801
 H342 H 0.39154 0.59757 -0.10827
 C343 C -0.18301 1.10762 -0.35761
 C344 C -0.16489 1.10129 -0.30386
 C345 C -0.15674 1.14924 -0.26345
 C346 C -0.16814 1.20172 -0.27447
 C347 C -0.18615 1.20765 -0.32802
 C348 C -0.19304 1.16126 -0.37152
 C349 C -0.13663 1.14454 -0.21461
 C350 C -0.12464 1.09241 -0.20546
 C351 C -0.13397 1.04362 -0.24288
 C352 C -0.15397 1.04840 -0.29193
 C353 C -0.12264 0.99109 -0.23190
 C354 C -0.10178 0.98734 -0.18592
 C355 C -0.09150 1.03586 -0.15125
 C356 C -0.10312 1.08840 -0.16063
 H357 H -0.18841 1.07156 -0.39066
 H358 H -0.16236 1.23875 -0.24351
 H359 H -0.19346 1.24950 -0.33813
 H360 H -0.12985 1.18176 -0.18514
 H361 H -0.16049 1.01136 -0.32208
 H362 H -0.12960 0.95314 -0.25966
 H363 H -0.09292 0.94690 -0.17933
 H364 H -0.09533 1.12592 -0.13340
 C365 C 0.65363 0.74118 -0.37358
 C366 C 0.63827 0.72282 -0.31627
 C367 C 0.64836 0.68355 -0.26876
 C368 C 0.67368 0.66379 -0.27906
 C369 C 0.68857 0.68116 -0.33727
 C370 C 0.67860 0.71942 -0.38568
 C371 C 0.63263 0.66309 -0.21318
 C372 C 0.60660 0.67964 -0.20618
 C373 C 0.59647 0.71890 -0.25363
 C374 C 0.61259 0.74129 -0.30748
 C375 C 0.57001 0.73295 -0.24832
 C376 C 0.55335 0.70571 -0.19917
 C377 C 0.56310 0.66545 -0.15305
 C378 C 0.59008 0.65475 -0.15494
 H379 H 0.64584 0.77137 -0.40984
 H380 H 0.68164 0.63347 -0.24327
 H381 H 0.70751 0.66299 -0.34553
 H382 H 0.64024 0.63231 -0.17729
 H383 H 0.60478 0.77102 -0.34432
 H384 H 0.56192 0.76296 -0.28425
 H385 H 0.53267 0.71482 -0.19866
 H386 H 0.59787 0.62350 -0.12005
 C387 C 0.15099 1.24785 -0.35516
 C388 C 0.13660 1.23097 -0.29560
 C389 C 0.14777 1.19458 -0.24661
 C390 C 0.17359 1.17785 -0.25648
 C391 C 0.18793 1.19520 -0.31564
 C392 C 0.17666 1.22928 -0.36709
 C393 C 0.13270 1.17416 -0.18972
 C394 C 0.10645 1.18914 -0.18189
 C395 C 0.09562 1.22739 -0.22946
 C396 C 0.11088 1.24864 -0.28551
 C397 C 0.06925 1.24141 -0.22224
 C398 C 0.05318 1.21436 -0.17182
 C399 C 0.06334 1.17370 -0.12687
 C400 C 0.09038 1.16363 -0.12991
 H401 H 0.14214 1.27618 -0.39185
 H402 H 0.18249 1.15004 -0.21930
 H403 H 0.20724 1.17850 -0.32255
 H404 H 0.14102 1.14481 -0.15323
 H405 H 0.10237 1.27698 -0.32286
 H406 H 0.06070 1.27100 -0.25792
 H407 H 0.03248 1.22316 -0.17035
 H408 H 0.09850 1.13218 -0.09587
 C409 C 0.34654 0.27785 -0.37677
 C410 C 0.36249 0.28887 -0.31920
 C411 C 0.35106 0.29701 -0.25324
 C412 C 0.32366 0.28961 -0.24556
 C413 C 0.30784 0.27523 -0.30298
 C414 C 0.31898 0.27018 -0.37002
 C415 C 0.36725 0.31298 -0.19681
 C416 C 0.39475 0.31884 -0.20578
 C417 C 0.40598 0.30621 -0.27113
 C418 C 0.38983 0.29228 -0.32743
 C419 C 0.43326 0.30917 -0.28008
 C420 C 0.44943 0.32807 -0.22624
 C421 C 0.43868 0.34545 -0.16250
 C422 C 0.41124 0.33880 -0.15167
 H423 H 0.35604 0.27699 -0.42715
 H424 H 0.31445 0.29460 -0.19513
 H425 H 0.28693 0.26839 -0.29424
 H426 H 0.35850 0.32140 -0.14652
 H427 H 0.39857 0.28452 -0.37796
 H428 H 0.44211 0.29862 -0.32955
 H429 H 0.47039 0.33216 -0.23638
 H430 H 0.40266 0.35168 -0.10275
 C431 C -0.15137 0.80282 -0.40140
 C432 C -0.13472 0.80931 -0.34439
 C433 C -0.14413 0.79577 -0.27696
 C434 C -0.17011 0.77356 -0.26866
 C435 C -0.18623 0.76395 -0.32679
 C436 C -0.17697 0.77811 -0.39413
 C437 C -0.12733 0.80458 -0.21965
 C438 C -0.10104 0.82475 -0.22995
 C439 C -0.09161 0.83486 -0.29845
 C440 C -0.10856 0.82821 -0.35474
 C441 C -0.06538 0.85256 -0.31005
 C442 C -0.04879 0.86359 -0.25436
 C443 C -0.05812 0.85818 -0.18557
 C444 C -0.08413 0.83668 -0.17346
 H445 H -0.14404 0.81691 -0.45180
 H446 H -0.17774 0.76237 -0.21750
 H447 H -0.20575 0.74451 -0.31897
 H448 H -0.13464 0.79574 -0.16751
 H449 H -0.10130 0.83739 -0.40692
 H450 H -0.05786 0.85968 -0.36234
 H451 H -0.02899 0.88016 -0.26563
 H452 H -0.09152 0.83215 -0.12069
 C453 C 0.31681 0.62071 0.36033
 C454 C 0.33552 0.61416 0.30738
 C455 C 0.34916 0.66300 0.27931
 C456 C 0.34270 0.71760 0.30172
 C457 C 0.32393 0.72370 0.35422
 C458 C 0.31146 0.67533 0.38521
 C459 C 0.36963 0.65641 0.23124
 C460 C 0.37661 0.60165 0.21085
 C461 C 0.36197 0.55294 0.23577
 C462 C 0.34152 0.55952 0.28400
 C463 C 0.36857 0.49837 0.21349
 C464 C 0.39013 0.49201 0.16918
 C465 C 0.40567 0.53993 0.14762
 C466 C 0.39851 0.59474 0.16752
 H467 H 0.30707 0.58335 0.38408
 H468 H 0.35278 0.75547 0.28027
 H469 H 0.32011 0.76609 0.37310
 H470 H 0.38061 0.69378 0.21126
 H471 H 0.33079 0.52211 0.30475
 H472 H 0.35744 0.46059 0.23154
 H473 H 0.39535 0.44949 0.15418
 H474 H 0.41029 0.63191 0.15022
 C475 C -0.18144 1.10711 0.36549
 C476 C -0.16556 1.09516 0.30788
 C477 C -0.15988 1.13808 0.25775
 C478 C -0.17187 1.19053 0.26319
 C479 C -0.18810 1.20180 0.32001
 C480 C -0.19219 1.16127 0.37375
 C481 C -0.14162 1.12861 0.20447
 C482 C -0.12908 1.07659 0.20068
 C483 C -0.13627 1.03204 0.24775
 C484 C -0.15451 1.04161 0.30105
 C485 C -0.12413 0.97959 0.24269
 C486 C -0.10385 0.97266 0.19443
 C487 C -0.09553 1.01794 0.15076
 C488 C -0.10859 1.06931 0.15274
 H489 H -0.18534 1.07401 0.40407
 H490 H -0.16800 1.22366 0.22466
 H491 H -0.19563 1.24411 0.32397
 H492 H -0.13648 1.16238 0.16755
 H493 H -0.15930 1.00819 0.33871
 H494 H -0.12953 0.94482 0.27792
 H495 H -0.09359 0.93324 0.19412
 H496 H -0.10198 1.10433 0.11910
 C497 C 0.68261 0.37498 0.35178
 C498 C 0.66427 0.38256 0.29889
 C499 C 0.65002 0.33447 0.27161
 C500 C 0.65545 0.27951 0.29474
 C501 C 0.67387 0.27237 0.34703
 C502 C 0.68700 0.32004 0.37719
 C503 C 0.62994 0.34217 0.22357
 C504 C 0.62392 0.39731 0.20249
 C505 C 0.63916 0.44521 0.22655
 C506 C 0.65927 0.43753 0.27468
 C507 C 0.63341 0.50013 0.20376
 C508 C 0.61194 0.50772 0.16035
 C509 C 0.59577 0.46066 0.13984
 C510 C 0.60225 0.40542 0.15967
 H511 H 0.69288 0.41180 0.37483
 H512 H 0.64487 0.24221 0.27390
 H513 H 0.67698 0.22977 0.36626
 H514 H 0.61847 0.30541 0.20426
 H515 H 0.67046 0.47436 0.29480
 H516 H 0.64502 0.53732 0.22108
 H517 H 0.60722 0.55058 0.14562
 H518 H 0.58998 0.36887 0.14324
 C519 C 0.18033 0.86913 0.36528
 C520 C 0.16178 0.87533 0.31255
 C521 C 0.14721 0.82669 0.28785
 C522 C 0.15245 0.77242 0.31370
 C523 C 0.17118 0.76660 0.36558
 C524 C 0.18477 0.81495 0.39282
 C525 C 0.12716 0.83324 0.23928
 C526 C 0.12160 0.88776 0.21481
 C527 C 0.13710 0.93602 0.23671
 C528 C 0.15705 0.92953 0.28561
 C529 C 0.13192 0.99023 0.21067
 C530 C 0.11089 0.99692 0.16562
 C531 C 0.09446 0.94972 0.14664
 C532 C 0.10028 0.89501 0.17031
 H533 H 0.19089 0.90647 0.38621
 H534 H 0.14161 0.73465 0.29502
 H535 H 0.17429 0.72457 0.38659
 H536 H 0.11550 0.79611 0.22182
 H537 H 0.16845 0.96675 0.30384
 H538 H 0.14373 1.02764 0.22638
 H539 H 0.10680 1.03943 0.14805
 H540 H 0.08787 0.85827 0.15533
   
