data_POSCAR
  _audit_creation_date              2014-09-24
  _audit_creation_method            'ToBaCCo'
  _symmetry_space_group_name_H-M    'P1'
  _symmetry_Int_Tables_number       1
  _symmetry_cell_setting            triclinic
  loop_
  _symmetry_equiv_pos_as_xyz
 x,y,z
_cell_length_a 18.1216
_cell_length_b 27.1720
_cell_length_c 12.4709
_cell_angle_alpha 91.568300
_cell_angle_beta 85.549400
_cell_angle_gamma 87.662500
loop_
  _atom_site_label
  _atom_site_type_symbol
  _atom_site_fract_x
  _atom_site_fract_y
  _atom_site_fract_z
O1 O 0.78370 0.30443 0.56334
 O2 O 0.76147 0.21084 0.34882
 O3 O 0.71697 0.30846 0.39131
 O4 O 0.84354 0.22182 0.51102
 O5 O 0.74949 0.18921 0.60377
 O6 O 0.62243 0.28120 0.49153
 O7 O 0.66756 0.18205 0.44741
 O8 O 0.69567 0.26966 0.66458
 Cu9 Cu 0.78362 0.26343 0.43964
 Cu10 Cu 0.67157 0.22847 0.55629
 C11 C 0.74491 0.30118 0.65229
 C12 C 0.71401 0.17812 0.36609
 C13 C 0.64956 0.31246 0.42681
 C14 C 0.81880 0.19146 0.57888
 O15 O 0.30783 0.81144 0.56282
 O16 O 0.27819 0.72089 0.34752
 O17 O 0.23070 0.81283 0.39691
 O18 O 0.35825 0.72332 0.50875
 O19 O 0.26554 0.69658 0.61423
 O20 O 0.13650 0.78445 0.49637
 O21 O 0.18652 0.69076 0.44942
 O22 O 0.21189 0.78419 0.66066
 Cu23 Cu 0.30255 0.77005 0.44291
 Cu24 Cu 0.19001 0.73565 0.56368
 C25 C 0.26400 0.81380 0.64764
 C26 C 0.22986 0.68890 0.36440
 C27 C 0.16282 0.81549 0.43089
 C28 C 0.33374 0.69510 0.58125
 O29 O 0.18061 0.24839 -0.36127
 O30 O 0.23999 0.31274 -0.60849
 O31 O 0.13308 0.25082 -0.55906
 O32 O 0.26900 0.31623 -0.41047
 O33 O 0.35200 0.25551 -0.45256
 O34 O 0.21687 0.19156 -0.60729
 O35 O 0.32150 0.25163 -0.65424
 O36 O 0.25913 0.18642 -0.41254
 Cu37 Cu 0.19617 0.28752 -0.48163
 Cu38 Cu 0.29539 0.21529 -0.53618
 C39 C 0.21112 0.20662 -0.34412
 C40 C 0.29218 0.29339 -0.67211
 C41 C 0.15161 0.21042 -0.60937
 C42 C 0.33330 0.29680 -0.40516
 O43 O -0.25061 0.80821 -0.61376
 O44 O -0.31242 0.74422 -0.36615
 O45 O -0.23116 0.81665 -0.40835
 O46 O -0.36489 0.75131 -0.55902
 O47 O -0.27990 0.69294 -0.60830
 O48 O -0.14690 0.75661 -0.44968
 O49 O -0.23235 0.68273 -0.41495
 O50 O -0.16670 0.74789 -0.65380
 Cu51 Cu -0.29803 0.78541 -0.48519
 Cu52 Cu -0.19985 0.71448 -0.53587
 C53 C -0.19658 0.78907 -0.67475
 C54 C -0.28155 0.70253 -0.34785
 C55 C -0.16661 0.79781 -0.40225
 C56 C -0.34534 0.71154 -0.61072
 O57 O -0.05134 0.93865 0.14044
 O58 O 0.14947 0.97756 -0.17017
 O59 O -0.09008 0.95795 -0.16194
 O60 O 0.09351 0.95385 0.14985
 O61 O 0.02770 0.93815 -0.20544
 O62 O 0.01552 0.99396 0.25447
 O63 O 0.15418 0.94736 -0.01683
 O64 O -0.13094 0.94594 0.02474
 C65 C -0.10182 0.92090 0.09364
 C66 C 0.17557 0.94639 -0.11254
 C67 C -0.03929 0.92777 -0.20302
 C68 C 0.06459 0.96072 0.24237
 O69 O -0.02739 1.07069 0.15744
 O70 O -0.02538 1.02519 -0.23918
 O71 O -0.13897 1.04616 0.06596
 O72 O 0.15548 1.05010 -0.03365
 O73 O 0.08960 1.06197 -0.17457
 O74 O -0.12593 1.01430 0.22283
 O75 O 0.09175 1.05548 0.14944
 O76 O -0.09611 1.05959 -0.11495
 Co77 Co -0.04026 1.00426 0.14008
 Co78 Co 0.05537 1.00047 -0.18005
 Co79 Co -0.10340 1.00213 -0.04381
 Co80 Co 0.11487 1.00205 0.05697
 O81 O 0.01186 1.00106 -0.00990
 C82 C 0.03613 1.08408 0.17530
 C83 C -0.06517 1.06121 -0.20633
 C84 C -0.16710 1.03913 0.16065
 C85 C 0.13788 1.07538 -0.11377
 O86 O 0.44282 0.44217 0.14432
 O87 O 0.65225 0.47228 -0.16540
 O88 O 0.41265 0.45610 -0.16555
 O89 O 0.59034 0.45387 0.15242
 O90 O 0.53023 0.43434 -0.20361
 O91 O 0.51345 0.49660 0.25342
 O92 O 0.65200 0.44423 -0.01046
 O93 O 0.36875 0.44676 0.02051
 C94 C 0.39366 0.42378 0.09567
 C95 C 0.67206 0.43968 -0.10629
 C96 C 0.46300 0.42506 -0.20417
 C97 C 0.56058 0.46197 0.24386
 O98 O 0.47515 0.57306 0.14848
 O99 O 0.48080 0.52172 -0.24461
 O100 O 0.36174 0.54742 0.05555
 O101 O 0.65867 0.54670 -0.03467
 O102 O 0.59566 0.55743 -0.17849
 O103 O 0.37368 0.52144 0.21886
 O104 O 0.59322 0.55528 0.14624
 O105 O 0.40840 0.55787 -0.12434
 Co106 Co 0.45866 0.50706 0.13740
 Co107 Co 0.55958 0.49646 -0.18098
 Co108 Co 0.39859 0.50163 -0.04997
 Co109 Co 0.61503 0.50046 0.05779
 O110 O 0.51306 0.49993 -0.01157
 C111 C 0.53877 0.58528 0.16793
 C112 C 0.44138 0.55841 -0.21453
 C113 C 0.33468 0.54572 0.15266
 C114 C 0.64291 0.57127 -0.11666
 N115 N 0.37917 0.33339 0.07952
 N116 N 0.35353 0.29859 0.14264
 C117 C 0.32050 0.32006 0.23372
 C118 C 0.32586 0.37052 0.22907
 C119 C 0.36341 0.37734 0.13019
 H120 H 0.30938 0.39808 0.29163
 H121 H 0.40996 0.32690 0.00580
 H122 H 0.36047 0.26082 0.12474
 N123 N -0.09482 0.82975 0.08892
 N124 N -0.11841 0.79474 0.15298
 C125 C -0.16708 0.81512 0.23050
 C126 C -0.17522 0.86517 0.21463
 C127 C -0.12852 0.87288 0.12396
 H128 H -0.20471 0.89277 0.26774
 H129 H -0.05288 0.82462 0.02680
 H130 H -0.09850 0.75807 0.14666
 N131 N 0.49894 0.66633 0.26046
 N132 N 0.52984 0.69955 0.32038
 C133 C 0.60201 0.68624 0.32507
 C134 C 0.61794 0.64336 0.26446
 C135 C 0.55130 0.63176 0.22525
 H136 H 0.67005 0.62216 0.25461
 H137 H 0.44270 0.66664 0.24720
 H138 H 0.50136 0.72980 0.36004
 N139 N -0.00462 1.16540 0.26616
 N140 N 0.02869 1.20086 0.32759
 C141 C 0.10035 1.18616 0.33242
 C142 C 0.11449 1.14235 0.27368
 C143 C 0.04787 1.13046 0.23402
 H144 H 0.16629 1.12077 0.26405
 H145 H -0.06063 1.16575 0.25203
 H146 H 0.00127 1.23194 0.36545
 N147 N 0.73614 0.35829 -0.09017
 N148 N 0.75752 0.32080 -0.15640
 C149 C 0.75372 0.33529 -0.25832
 C150 C 0.72925 0.38403 -0.25724
 C151 C 0.71727 0.39690 -0.14918
 H152 H 0.71050 0.40432 -0.32430
 H153 H 0.72801 0.35587 -0.00666
 H154 H 0.76763 0.28484 -0.13199
 N155 N 0.29496 0.92497 -0.21320
 N156 N 0.31927 0.88697 -0.28641
 C157 C 0.27007 0.85126 -0.27592
 C158 C 0.21645 0.86422 -0.19342
 C159 C 0.23262 0.91100 -0.15858
 H160 H 0.16511 0.84609 -0.17488
 H161 H 0.31455 0.96059 -0.21491
 H162 H 0.36150 0.88971 -0.34765
 N163 N 0.48061 0.60957 -0.36825
 N164 N 0.45265 0.64636 -0.42131
 C165 C 0.38478 0.65926 -0.37495
 C166 C 0.36909 0.63013 -0.28755
 C167 C 0.43123 0.59902 -0.28674
 H168 H 0.31851 0.62999 -0.23536
 H169 H 0.53214 0.59171 -0.38865
 H170 H 0.47878 0.66108 -0.48997
 N171 N -0.02721 1.11542 -0.35476
 N172 N -0.05773 1.14991 -0.41147
 C173 C -0.12861 1.15830 -0.37230
 C174 C -0.14372 1.12862 -0.28540
 C175 C -0.07781 1.10194 -0.27754
 H176 H -0.19591 1.12518 -0.23835
 H177 H 0.02696 1.10088 -0.37012
 H178 H -0.03095 1.16615 -0.47780
 N179 N 0.64109 0.66120 -0.09670
 N180 N 0.65555 0.69844 -0.16938
 C181 C 0.69826 0.67825 -0.25357
 C182 C 0.71265 0.62866 -0.23607
 C183 C 0.67467 0.61896 -0.13837
 H184 H 0.73796 0.60156 -0.29441
 H185 H 0.60019 0.66411 -0.03276
 H186 H 0.63251 0.73435 -0.16162
 N187 N 0.13532 1.16520 -0.09255
 N188 N 0.14933 1.20255 -0.16508
 C189 C 0.19186 1.18247 -0.24956
 C190 C 0.20685 1.13298 -0.23232
 C191 C 0.16919 1.12314 -0.13466
 H192 H 0.23210 1.10598 -0.29091
 H193 H 0.09443 1.16787 -0.02858
 H194 H 0.12582 1.23833 -0.15727
 N195 N 0.49052 0.33982 -0.27908
 N196 N 0.45616 0.30571 -0.33125
 C197 C 0.38664 0.32271 -0.34374
 C198 C 0.37563 0.36931 -0.29560
 C199 C 0.44312 0.37892 -0.25650
 H200 H 0.32662 0.39357 -0.29348
 H201 H 0.54584 0.33656 -0.26110
 H202 H 0.48075 0.27212 -0.36054
 N203 N -0.01025 0.84263 -0.27726
 N204 N -0.04395 0.80802 -0.32888
 C205 C -0.11396 0.82423 -0.34066
 C206 C -0.12590 0.87084 -0.29280
 C207 C -0.05844 0.88129 -0.25460
 H208 H -0.17542 0.89462 -0.29057
 H209 H 0.04521 0.84004 -0.25998
 H210 H -0.01852 0.77465 -0.35828
 N211 N 0.23992 0.61229 0.12874
 N212 N 0.21150 0.65127 0.18564
 C213 C 0.22895 0.64712 0.28798
 C214 C 0.27045 0.60361 0.29649
 C215 C 0.27705 0.58281 0.19337
 H216 H 0.30156 0.59297 0.36349
 H217 H 0.23981 0.60845 0.04517
 H218 H 0.18638 0.68204 0.15278
 N219 N -0.28656 1.05451 0.26983
 N220 N -0.32124 1.09501 0.32717
 C221 C -0.28234 1.13499 0.30192
 C222 C -0.22537 1.12148 0.22436
 C223 C -0.22889 1.07091 0.20858
 H224 H -0.18041 1.14390 0.19563
 H225 H -0.29833 1.01777 0.28311
 H226 H -0.36253 1.09252 0.38982
 N227 N 0.51642 0.41260 0.40058
 N228 N 0.53760 0.37070 0.44320
 C229 C 0.60459 0.35566 0.39655
 C230 C 0.62703 0.38955 0.32141
 C231 C 0.56975 0.42506 0.32618
 H232 H 0.67693 0.38766 0.26750
 H233 H 0.46479 0.43072 0.41831
 H234 H 0.50606 0.35254 0.50182
 N235 N 0.02594 0.91256 0.40295
 N236 N 0.04964 0.87187 0.44769
 C237 C 0.11572 0.85688 0.39799
 C238 C 0.13497 0.88940 0.31832
 C239 C 0.07666 0.92411 0.32400
 H240 H 0.18370 0.88740 0.26212
 H241 H -0.02534 0.93072 0.42345
 H242 H 0.02082 0.85477 0.51075
   
