data_POSCAR
  _audit_creation_date              2014-09-24
  _audit_creation_method            'ToBaCCo'
  _symmetry_space_group_name_H-M    'P1'
  _symmetry_Int_Tables_number       1
  _symmetry_cell_setting            triclinic
  loop_
  _symmetry_equiv_pos_as_xyz
 x,y,z
_cell_length_a 46.5795
_cell_length_b 31.8156
_cell_length_c 19.8698
_cell_angle_alpha 90.112500
_cell_angle_beta 89.964300
_cell_angle_gamma 90.111200
loop_
  _atom_site_label
  _atom_site_type_symbol
  _atom_site_fract_x
  _atom_site_fract_y
  _atom_site_fract_z
O1 O 0.76439 0.20295 0.56357
 O2 O 0.71603 0.24571 0.43479
 O3 O 0.76323 0.20155 0.43384
 O4 O 0.71752 0.24814 0.56564
 O5 O 0.74359 0.30606 0.56245
 O6 O 0.78838 0.26021 0.42883
 O7 O 0.74119 0.30452 0.43248
 O8 O 0.79041 0.26093 0.55991
 Cu9 Cu 0.73766 0.21881 0.49986
 Cu10 Cu 0.76851 0.28872 0.49559
 C11 C 0.78595 0.22424 0.58295
 C12 C 0.72005 0.28258 0.41223
 C13 C 0.78386 0.22274 0.40911
 C14 C 0.72259 0.28530 0.58610
 O15 O 0.23519 0.79456 0.56829
 O16 O 0.28607 0.75297 0.44322
 O17 O 0.23912 0.79857 0.43851
 O18 O 0.28190 0.74955 0.57271
 O19 O 0.25695 0.69099 0.56093
 O20 O 0.21231 0.74150 0.43151
 O21 O 0.25899 0.69645 0.43047
 O22 O 0.21006 0.73592 0.56202
 Cu23 Cu 0.26316 0.77973 0.50641
 Cu24 Cu 0.23195 0.71043 0.49536
 C25 C 0.21387 0.77240 0.58680
 C26 C 0.28129 0.71755 0.41578
 C27 C 0.21800 0.77881 0.41311
 C28 C 0.27714 0.71155 0.58878
 O29 O 0.28709 0.23872 -0.43267
 O30 O 0.24168 0.19216 -0.56514
 O31 O 0.28923 0.23568 -0.56359
 O32 O 0.23939 0.19480 -0.43526
 O33 O 0.21466 0.25370 -0.44005
 O34 O 0.26430 0.29449 -0.56851
 O35 O 0.21671 0.25082 -0.57082
 O36 O 0.26202 0.29733 -0.43851
 Cu37 Cu 0.26690 0.20950 -0.49856
 Cu38 Cu 0.23690 0.27992 -0.50506
 C39 C 0.28251 0.27624 -0.41348
 C40 C 0.22114 0.21326 -0.59013
 C41 C 0.28544 0.27226 -0.58754
 C42 C 0.21823 0.21703 -0.41617
 O43 O -0.24296 0.80894 -0.56346
 O44 O -0.28928 0.76610 -0.43050
 O45 O -0.24082 0.80766 -0.43342
 O46 O -0.29083 0.76639 -0.56139
 O47 O -0.26638 0.70710 -0.56491
 O48 O -0.21733 0.74752 -0.43502
 O49 O -0.26591 0.70600 -0.43496
 O50 O -0.21834 0.74981 -0.56602
 Cu51 Cu -0.26841 0.79320 -0.49683
 Cu52 Cu -0.23952 0.72168 -0.50049
 C53 C -0.22247 0.78708 -0.58684
 C54 C -0.28600 0.72845 -0.41072
 C55 C -0.22037 0.78469 -0.41273
 C56 C -0.28726 0.72951 -0.58464
 N57 N 0.03028 1.04526 0.12100
 N58 N 0.05190 1.04958 0.16317
 N59 N -0.02927 1.07591 0.07165
 N60 N -0.05033 1.10315 0.08037
 N61 N -0.03016 1.04666 0.11809
 N62 N -0.05196 1.05287 0.15923
 N63 N 0.03111 1.07447 0.07450
 N64 N 0.05328 1.09978 0.08419
 C65 C 0.06606 1.08370 0.13976
 C66 C -0.06438 1.08818 0.13509
 N67 N -0.02803 1.04428 -0.11890
 N68 N -0.04881 1.05008 -0.16294
 N69 N 0.03224 1.07304 -0.07069
 N70 N 0.05312 1.10023 -0.08195
 N71 N 0.03246 1.04305 -0.11618
 N72 N 0.05364 1.04888 -0.15935
 N73 N -0.02797 1.07441 -0.07364
 N74 N -0.04858 1.10178 -0.08608
 Mn75 Mn 0.00153 1.07499 0.00046
 C76 C -0.06149 1.08602 -0.14182
 C77 C 0.06644 1.08458 -0.13716
 N78 N -0.03113 0.95656 0.12035
 N79 N -0.05292 0.95225 0.16209
 N80 N 0.02936 0.92511 0.07789
 N81 N 0.05099 0.89912 0.08848
 N82 N 0.02924 0.95523 0.12312
 N83 N 0.05082 0.95080 0.16536
 N84 N -0.03107 0.92629 0.07540
 N85 N -0.05279 0.90027 0.08576
 Mn86 Mn -0.00046 1.00094 0.12132
 C87 C -0.06629 0.91708 0.13997
 C88 C 0.06420 0.91567 0.14329
 N89 N 0.03134 0.95252 -0.11406
 N90 N 0.05231 0.94501 -0.15705
 N91 N -0.02982 0.92484 -0.06984
 N92 N -0.05125 0.89841 -0.08034
 N93 N -0.02913 0.95380 -0.11680
 N94 N -0.05017 0.94799 -0.16033
 N95 N 0.03043 0.92337 -0.06741
 N96 N 0.05064 0.89501 -0.07779
 Mn97 Mn 0.00167 0.99840 -0.11726
 Mn98 Mn -0.00028 0.92435 0.00403
 Cl99 Cl 0.00061 0.99967 0.00207
 C100 C 0.06426 0.90914 -0.13365
 C101 C -0.06383 0.91336 -0.13688
 N102 N 0.52800 0.57653 -0.07455
 N103 N 0.54849 0.60470 -0.08372
 N104 N 0.46894 0.54295 -0.12217
 N105 N 0.44722 0.54636 -0.16425
 N106 N 0.46765 0.57213 -0.07553
 N107 N 0.44508 0.59652 -0.08501
 N108 N 0.52933 0.54713 -0.12085
 N109 N 0.55080 0.55435 -0.16262
 C110 C 0.56261 0.59034 -0.13878
 C111 C 0.43250 0.57989 -0.14056
 N112 N 0.47187 0.42346 -0.07763
 N113 N 0.45059 0.39660 -0.08772
 N114 N 0.53186 0.45684 -0.12212
 N115 N 0.55355 0.45291 -0.16428
 N116 N 0.53227 0.42679 -0.07698
 N117 N 0.55424 0.40139 -0.08747
 N118 N 0.47153 0.45317 -0.12336
 N119 N 0.44996 0.44767 -0.16528
 Mn120 Mn 0.50048 0.50002 -0.12282
 C121 C 0.43708 0.41228 -0.14266
 C122 C 0.56737 0.41825 -0.14205
 N123 N 0.46731 0.57133 0.06962
 N124 N 0.44579 0.59731 0.08131
 N125 N 0.52897 0.54613 0.11583
 N126 N 0.54978 0.55378 0.15922
 N127 N 0.52768 0.57594 0.07033
 N128 N 0.54755 0.60475 0.08166
 N129 N 0.46876 0.54252 0.11673
 N130 N 0.44851 0.54844 0.16224
 Mn131 Mn 0.49759 0.57450 -0.00253
 C132 C 0.43420 0.58247 0.13912
 C133 C 0.56126 0.59038 0.13712
 N134 N 0.53203 0.42616 0.06799
 N135 N 0.55341 0.39983 0.07854
 N136 N 0.47111 0.45200 0.11488
 N137 N 0.45023 0.44453 0.15813
 N138 N 0.47178 0.42282 0.06804
 N139 N 0.45150 0.39451 0.07855
 N140 N 0.53154 0.45549 0.11457
 N141 N 0.55264 0.44995 0.15796
 Mn142 Mn 0.50195 0.42426 -0.00465
 Mn143 Mn 0.50014 0.49900 0.11626
 Cl144 Cl 0.50004 0.49944 -0.00337
 C145 C 0.56620 0.41519 0.13466
 C146 C 0.43812 0.40863 0.13479
 C147 C 0.34758 0.32476 0.27825
 C148 C 0.34753 0.28125 0.29008
 C149 C 0.32693 0.26387 0.33295
 C150 C 0.30624 0.28962 0.36354
 C151 C 0.30668 0.33281 0.34923
 N152 N 0.32723 0.34909 0.30826
 C153 C 0.37025 0.34545 0.23803
 N154 N 0.37770 0.38571 0.25354
 C155 C 0.39897 0.40653 0.22070
 C156 C 0.41412 0.38681 0.16848
 C157 C 0.40635 0.34572 0.15031
 C158 C 0.38449 0.32486 0.18508
 H159 H 0.32744 0.23042 0.34288
 H160 H 0.29125 0.35386 0.37205
 H161 H 0.40411 0.43838 0.23577
 H162 H 0.41742 0.32953 0.10995
 H163 H 0.36380 0.26101 0.26862
 H164 H 0.37873 0.29320 0.17025
 C165 C -0.16208 0.84414 0.27956
 C166 C -0.18584 0.86725 0.30223
 C167 C -0.20602 0.84816 0.34401
 C168 C -0.20274 0.80602 0.36322
 C169 C -0.17941 0.78340 0.33684
 N170 N -0.15986 0.80282 0.29647
 C171 C -0.13873 0.86428 0.24076
 N172 N -0.12323 0.84110 0.19593
 C173 C -0.10056 0.85751 0.16144
 C174 C -0.09195 0.89921 0.17279
 C175 C -0.10762 0.92356 0.21869
 C176 C -0.13101 0.90633 0.25251
 H177 H -0.22383 0.86674 0.36248
 H178 H -0.17624 0.75071 0.34974
 H179 H -0.08887 0.83769 0.12666
 H180 H -0.10161 0.95583 0.22903
 H181 H -0.18872 0.89986 0.28842
 H182 H -0.14223 0.92540 0.28918
 C183 C 0.65077 0.67611 0.28151
 C184 C 0.65054 0.71964 0.29353
 C185 C 0.67109 0.73736 0.33624
 C186 C 0.69198 0.71191 0.36652
 C187 C 0.69179 0.66870 0.35206
 N188 N 0.67131 0.65211 0.31121
 C189 C 0.62826 0.65502 0.24129
 N190 N 0.62133 0.61451 0.25620
 C191 C 0.60033 0.59321 0.22312
 C192 C 0.58493 0.61271 0.17128
 C193 C 0.59215 0.65409 0.15377
 C194 C 0.61374 0.67542 0.18874
 H195 H 0.67038 0.77080 0.34634
 H196 H 0.70738 0.64787 0.37462
 H197 H 0.59560 0.56117 0.23769
 H198 H 0.58088 0.67012 0.11369
 H199 H 0.63412 0.73964 0.27232
 H200 H 0.61910 0.70726 0.17433
 C201 C 0.16249 1.15558 0.27815
 C202 C 0.18600 1.13258 0.30219
 C203 C 0.20603 1.15206 0.34408
 C204 C 0.20274 1.19451 0.36245
 C205 C 0.17961 1.21689 0.33439
 N206 N 0.16032 1.19709 0.29388
 C207 C 0.13923 1.13535 0.23917
 N208 N 0.12408 1.15841 0.19373
 C209 C 0.10125 1.14226 0.15956
 C210 C 0.09202 1.10102 0.17205
 C211 C 0.10735 1.07673 0.21847
 C212 C 0.13100 1.09364 0.25184
 H213 H 0.22364 1.13345 0.36338
 H214 H 0.17634 1.24980 0.34597
 H215 H 0.08985 1.16201 0.12428
 H216 H 0.10087 1.04477 0.22959
 H217 H 0.18880 1.09977 0.28933
 H218 H 0.14195 1.07471 0.28898
 C219 C 0.66296 0.34505 -0.28162
 C220 C 0.68634 0.36799 -0.30691
 C221 C 0.70637 0.34809 -0.34816
 C222 C 0.70324 0.30536 -0.36429
 C223 C 0.68028 0.28308 -0.33544
 N224 N 0.66093 0.30323 -0.29559
 C225 C 0.63977 0.36558 -0.24291
 N226 N 0.62477 0.34295 -0.19654
 C227 C 0.60215 0.35943 -0.16212
 C228 C 0.59303 0.40061 -0.17512
 C229 C 0.60818 0.42446 -0.22259
 C230 C 0.63158 0.40718 -0.25635
 H231 H 0.72388 0.36645 -0.36877
 H232 H 0.67724 0.24997 -0.34594
 H233 H 0.59088 0.33999 -0.12605
 H234 H 0.60175 0.45633 -0.23420
 H235 H 0.68906 0.40104 -0.29551
 H236 H 0.64241 0.42577 -0.29424
 C237 C 0.15334 0.82401 -0.27955
 C238 C 0.15072 0.78179 -0.29917
 C239 C 0.17100 0.76436 -0.34279
 C240 C 0.19414 0.78872 -0.36644
 C241 C 0.19629 0.83059 -0.34388
 N242 N 0.17593 0.84702 -0.30256
 C243 C 0.13113 0.84504 -0.23855
 N244 N 0.12548 0.88636 -0.25014
 C245 C 0.10458 0.90750 -0.21653
 C246 C 0.08803 0.88700 -0.16754
 C247 C 0.09401 0.84477 -0.15325
 C248 C 0.11544 0.82359 -0.18890
 H249 H 0.16828 0.73199 -0.35858
 H250 H 0.21362 0.85078 -0.36051
 H251 H 0.10081 0.94021 -0.22846
 H252 H 0.08178 0.82794 -0.11554
 H253 H 0.13267 0.76283 -0.28312
 H254 H 0.11975 0.79095 -0.17748
 C255 C 0.33587 0.65034 -0.27898
 C256 C 0.31374 0.62695 -0.30920
 C257 C 0.29391 0.64716 -0.35052
 C258 C 0.29599 0.69059 -0.36172
 C259 C 0.31761 0.71311 -0.32799
 N260 N 0.33680 0.69269 -0.28830
 C261 C 0.35907 0.63002 -0.24014
 N262 N 0.37309 0.65247 -0.19176
 C263 C 0.39595 0.63667 -0.15757
 C264 C 0.40641 0.59648 -0.17295
 C265 C 0.39220 0.57274 -0.22227
 C266 C 0.36852 0.58927 -0.25577
 H267 H 0.27743 0.62860 -0.37502
 H268 H 0.31980 0.74673 -0.33455
 H269 H 0.40641 0.65598 -0.11994
 H270 H 0.39965 0.54159 -0.23569
 H271 H 0.31185 0.59339 -0.30161
 H272 H 0.35856 0.57089 -0.29525
 C273 C -0.15250 1.16696 -0.28706
 C274 C -0.15220 1.21079 -0.29510
 C275 C -0.17257 1.22983 -0.33667
 C276 C -0.19351 1.20535 -0.36916
 C277 C -0.19362 1.16181 -0.35789
 N278 N -0.17325 1.14396 -0.31839
 C279 C -0.13000 1.14526 -0.24772
 N280 N -0.11408 1.16686 -0.20163
 C281 C -0.09262 1.14841 -0.16593
 C282 C -0.08577 1.10602 -0.17694
 C283 C -0.10198 1.08315 -0.22381
 C284 C -0.12425 1.10251 -0.25879
 H285 H -0.17176 1.26353 -0.34396
 H286 H -0.20932 1.14172 -0.38207
 H287 H -0.08053 1.16709 -0.13023
 H288 H -0.09741 1.05032 -0.23355
 H289 H -0.13591 1.23000 -0.27118
 H290 H -0.13636 1.08443 -0.29527
 C291 C 0.65412 0.67492 -0.27744
 C292 C 0.65277 0.71805 -0.29159
 C293 C 0.67299 0.73604 -0.33465
 C294 C 0.69483 0.71133 -0.36344
 C295 C 0.69589 0.66848 -0.34609
 N296 N 0.67557 0.65156 -0.30508
 C297 C 0.63157 0.65361 -0.23769
 N298 N 0.62465 0.61313 -0.25310
 C299 C 0.60311 0.59216 -0.22139
 C300 C 0.58710 0.61203 -0.17072
 C301 C 0.59443 0.65327 -0.15246
 C302 C 0.61658 0.67422 -0.18593
 H303 H 0.67112 0.76918 -0.34626
 H304 H 0.71222 0.64802 -0.36678
 H305 H 0.59835 0.56016 -0.23633
 H306 H 0.58272 0.66955 -0.11322
 H307 H 0.63562 0.73744 -0.27198
 H308 H 0.62190 0.70608 -0.17131
 C309 C 0.15706 1.16584 -0.28373
 C310 C 0.15506 1.20824 -0.30236
 C311 C 0.17555 1.22544 -0.34553
 C312 C 0.19835 1.20071 -0.36980
 C313 C 0.19988 1.15860 -0.34838
 N314 N 0.17929 1.14238 -0.30739
 C315 C 0.13462 1.14543 -0.24259
 N316 N 0.12774 1.10454 -0.25512
 C317 C 0.10640 1.08431 -0.22143
 C318 C 0.09068 1.10539 -0.17152
 C319 C 0.09797 1.14713 -0.15635
 C320 C 0.11982 1.16732 -0.19195
 H321 H 0.17328 1.25800 -0.36044
 H322 H 0.21691 1.13813 -0.36564
 H323 H 0.10162 1.05194 -0.23404
 H324 H 0.08645 1.16439 -0.11789
 H325 H 0.13730 1.22756 -0.28579
 H326 H 0.12512 1.19959 -0.17977
 C327 C 0.34184 0.33625 -0.28037
 C328 C 0.31809 0.35872 -0.30452
 C329 C 0.29821 0.33871 -0.34611
 C330 C 0.30178 0.29629 -0.36359
 C331 C 0.32505 0.27436 -0.33566
 N332 N 0.34431 0.29466 -0.29559
 C333 C 0.36498 0.35724 -0.24195
 N334 N 0.38063 0.33483 -0.19657
 C335 C 0.40320 0.35195 -0.16256
 C336 C 0.41157 0.39359 -0.17503
 C337 C 0.39574 0.41716 -0.22149
 C338 C 0.37245 0.39923 -0.25480
 H339 H 0.28043 0.35678 -0.36582
 H340 H 0.32844 0.24149 -0.34718
 H341 H 0.41500 0.33272 -0.12728
 H342 H 0.40154 0.44939 -0.23268
 H343 H 0.31498 0.39153 -0.29207
 H344 H 0.36115 0.41771 -0.29194
 C345 C -0.15726 0.83549 -0.27922
 C346 C -0.15893 0.79179 -0.28861
 C347 C -0.17991 0.77508 -0.33112
 C348 C -0.19939 0.80170 -0.36386
 C349 C -0.19737 0.84512 -0.35201
 N350 N -0.17644 0.86071 -0.31128
 C351 C -0.13403 0.85507 -0.23920
 N352 N -0.12459 0.89410 -0.25659
 C353 C -0.10256 0.91349 -0.22410
 C354 C -0.08866 0.89345 -0.17043
 C355 C -0.09852 0.85373 -0.15036
 C356 C -0.12114 0.83439 -0.18465
 H357 H -0.18062 0.74142 -0.33912
 H358 H -0.21182 0.86679 -0.37662
 H359 H -0.09581 0.94437 -0.24061
 H360 H -0.08851 0.83738 -0.10880
 H361 H -0.14361 0.77076 -0.26554
 H362 H -0.12848 0.80378 -0.16828
 C363 C 0.34368 0.66293 0.28574
 C364 C 0.31446 0.65733 0.27114
 C365 C 0.29386 0.67541 0.31334
 C366 C 0.30246 0.70001 0.36842
 C367 C 0.33189 0.70576 0.38004
 N368 N 0.35152 0.68672 0.33967
 C369 C 0.36609 0.64178 0.24608
 N370 N 0.38730 0.62085 0.27892
 C371 C 0.40882 0.60094 0.24555
 C372 C 0.41024 0.60259 0.17514
 C373 C 0.38881 0.62443 0.14022
 C374 C 0.36639 0.64357 0.17556
 H375 H 0.27129 0.67019 0.30312
 H376 H 0.33929 0.72413 0.42259
 H377 H 0.42515 0.58468 0.27412
 H378 H 0.38929 0.62633 0.08581
 H379 H 0.30771 0.63808 0.22899
 H380 H 0.34986 0.66037 0.14839
 C381 C -0.15788 1.16660 0.27489
 C382 C -0.18026 1.14250 0.30211
 C383 C -0.20027 1.16142 0.34469
 C384 C -0.19777 1.20427 0.36141
 C385 C -0.17543 1.22749 0.33137
 N386 N -0.15634 1.20833 0.28968
 C387 C -0.13501 1.14670 0.23432
 N388 N -0.12911 1.10516 0.24307
 C389 C -0.10708 1.08578 0.21084
 C390 C -0.08945 1.10846 0.16662
 C391 C -0.09553 1.15100 0.15537
 C392 C -0.11814 1.17035 0.18967
 H393 H -0.21710 1.14208 0.36609
 H394 H -0.17272 1.26066 0.34187
 H395 H -0.10320 1.05278 0.22033
 H396 H -0.08236 1.16951 0.12163
 H397 H -0.18209 1.10924 0.29119
 H398 H -0.12227 1.20346 0.18172
 C399 C 0.65817 0.33561 0.27849
 C400 C 0.65902 0.29187 0.28763
 C401 C 0.67957 0.27446 0.33029
 C402 C 0.69945 0.30040 0.36345
 C403 C 0.69824 0.34389 0.35195
 N404 N 0.67770 0.36020 0.31103
 C405 C 0.63545 0.35584 0.23800
 N406 N 0.62630 0.39497 0.25567
 C407 C 0.60462 0.41478 0.22278
 C408 C 0.59081 0.39508 0.16847
 C409 C 0.60043 0.35530 0.14810
 C410 C 0.62268 0.33555 0.18273
 H411 H 0.67965 0.24077 0.33801
 H412 H 0.71302 0.36505 0.37694
 H413 H 0.59803 0.44568 0.23956
 H414 H 0.59049 0.33918 0.10605
 H415 H 0.64338 0.27136 0.26416
 H416 H 0.62983 0.30488 0.16615
 C417 C 0.15949 0.84122 0.28170
 C418 C 0.18259 0.86375 0.30952
 C419 C 0.20231 0.84307 0.35051
 C420 C 0.19916 0.80001 0.36381
 C421 C 0.17655 0.77825 0.33247
 N422 N 0.15750 0.79914 0.29300
 C423 C 0.13652 0.86227 0.24313
 N424 N 0.12151 0.83997 0.19624
 C425 C 0.09892 0.85667 0.16216
 C426 C 0.08981 0.89777 0.17606
 C427 C 0.10499 0.92133 0.22398
 C428 C 0.12836 0.90381 0.25741
 H429 H 0.21957 0.86104 0.37316
 H430 H 0.17351 0.74492 0.34070
 H431 H 0.08767 0.83746 0.12566
 H432 H 0.09860 0.95315 0.23625
 H433 H 0.18532 0.89703 0.30028
 H434 H 0.13914 0.92217 0.29573
   
