data_POSCAR
  _audit_creation_date              2014-09-24
  _audit_creation_method            'ToBaCCo'
  _symmetry_space_group_name_H-M    'P1'
  _symmetry_Int_Tables_number       1
  _symmetry_cell_setting            triclinic
  loop_
  _symmetry_equiv_pos_as_xyz
 x,y,z
_cell_length_a 15.9766
_cell_length_b 15.9901
_cell_length_c 25.7201
_cell_angle_alpha 90.000000
_cell_angle_beta 89.719800
_cell_angle_gamma 90.000000
loop_
  _atom_site_label
  _atom_site_type_symbol
  _atom_site_fract_x
  _atom_site_fract_y
  _atom_site_fract_z
O1 O 0.14330 0.04721 0.06390
 O2 O -0.14329 -0.04184 0.06483
 O3 O -0.04279 0.14626 0.06504
 O4 O 0.04273 -0.14070 0.06476
 O5 O -0.15871 0.09882 0.03756
 O6 O 0.15871 -0.09341 0.03659
 O7 O -0.09771 -0.15674 0.03520
 O8 O 0.09770 0.16221 0.03467
 C9 C 0.13105 0.12232 0.07057
 C10 C -0.13106 -0.11697 0.07134
 C11 C -0.11775 0.13308 0.07282
 C12 C 0.11776 -0.12785 0.07204
 O13 O 0.14326 -0.04183 -0.06473
 O14 O -0.14334 0.04720 -0.06380
 O15 O 0.04274 0.14627 -0.06494
 O16 O -0.04277 -0.14070 -0.06466
 O17 O -0.15875 -0.09342 -0.03649
 O18 O 0.15866 0.09883 -0.03745
 O19 O 0.09768 -0.15673 -0.03510
 O20 O -0.09774 0.16221 -0.03456
 Co21 Co 0.13680 0.00270 -0.00038
 Co22 Co -0.13684 0.00269 0.00049
 Co23 Co -0.00002 0.13987 0.00005
 Co24 Co -0.00002 -0.13432 0.00005
 O25 O -0.00002 0.00274 0.00005
 C26 C 0.13103 -0.11697 -0.07123
 C27 C -0.13109 0.12231 -0.07046
 C28 C 0.11771 0.13309 -0.07271
 C29 C -0.11779 -0.12786 -0.07193
 O30 O 0.45564 0.35403 0.43580
 O31 O 0.54447 0.64041 0.43560
 O32 O 0.35650 0.54019 0.43557
 O33 O 0.64366 0.45445 0.43489
 O34 O 0.40372 0.65590 0.46346
 O35 O 0.59636 0.33862 0.46290
 O36 O 0.65962 0.59482 0.46461
 O37 O 0.34055 0.39978 0.46544
 C38 C 0.38052 0.36657 0.42930
 C39 C 0.61969 0.62835 0.42880
 C40 C 0.36949 0.61514 0.42811
 C41 C 0.63075 0.37950 0.42743
 O42 O 0.54434 0.35403 0.56431
 O43 O 0.45549 0.64041 0.56451
 O44 O 0.35631 0.45445 0.56521
 O45 O 0.64346 0.54020 0.56453
 O46 O 0.59624 0.65591 0.53665
 O47 O 0.40361 0.33862 0.53721
 O48 O 0.65942 0.39979 0.53467
 O49 O 0.34035 0.59481 0.53550
 Co50 Co 0.49999 0.36050 0.50005
 Co51 Co 0.49998 0.63396 0.50005
 Co52 Co 0.36281 0.49731 0.50038
 Co53 Co 0.63716 0.49732 0.49972
 O54 O 0.49998 0.49727 0.50005
 C55 C 0.61945 0.36658 0.57081
 C56 C 0.38027 0.62834 0.57131
 C57 C 0.36922 0.37949 0.57267
 C58 C 0.63048 0.61515 0.57200
 C59 C 0.23048 0.33831 0.25322
 C60 C 0.28355 0.29527 0.21028
 C61 C 0.21598 0.22745 0.20550
 C62 C 0.16229 0.26988 0.24762
 C63 C 0.27426 0.28398 0.29417
 C64 C 0.20669 0.21616 0.28939
 C65 C 0.32780 0.24153 0.25200
 C66 C 0.25978 0.17327 0.24652
 C67 C 0.18486 0.19351 0.15648
 C68 C 0.16010 0.16267 0.11675
 C69 C 0.30897 0.31412 0.34321
 C70 C 0.34016 0.33817 0.38299
 H71 H 0.21883 0.40655 0.25664
 H72 H 0.31476 0.32741 0.17720
 H73 H 0.09385 0.28116 0.24516
 H74 H 0.17550 0.18400 0.32247
 H75 H 0.39624 0.23016 0.25438
 H76 H 0.27153 0.10503 0.24318
 C77 C 0.77034 0.66284 0.25240
 C78 C 0.71703 0.70687 0.21030
 C79 C 0.78412 0.77532 0.20602
 C80 C 0.83804 0.73192 0.24730
 C81 C 0.72610 0.71552 0.29425
 C82 C 0.79318 0.78398 0.28997
 C83 C 0.67232 0.75895 0.25290
 C84 C 0.73986 0.82787 0.24792
 C85 C 0.81510 0.81075 0.15720
 C86 C 0.83982 0.84237 0.11755
 C87 C 0.69146 0.68354 0.34305
 C88 C 0.66024 0.65810 0.38266
 H89 H 0.78246 0.59459 0.25491
 H90 H 0.68611 0.67560 0.17699
 H91 H 0.90656 0.72123 0.24433
 H92 H 0.82408 0.81527 0.32328
 H93 H 0.60380 0.76973 0.25579
 H94 H 0.72765 0.89611 0.24548
 C95 C 0.79374 0.21660 0.71071
 C96 C 0.83758 0.27044 0.75266
 C97 C 0.78399 0.22745 0.79460
 C98 C 0.74075 0.17315 0.75341
 C99 C 0.72572 0.28398 0.70593
 C100 C 0.67228 0.24096 0.74793
 C101 C 0.76894 0.33842 0.74706
 C102 C 0.71597 0.29482 0.78983
 C103 C 0.81510 0.19349 0.84362
 C104 C 0.83986 0.16266 0.88336
 C105 C 0.69101 0.31412 0.65689
 C106 C 0.65982 0.33817 0.61711
 H107 H 0.82530 0.18481 0.67763
 H108 H 0.90592 0.28218 0.75526
 H109 H 0.72947 0.10482 0.75660
 H110 H 0.60394 0.22913 0.74541
 H111 H 0.78013 0.40675 0.74378
 H112 H 0.68439 0.32658 0.82291
 C113 C 0.23015 0.66273 0.74786
 C114 C 0.28336 0.70730 0.78980
 C115 C 0.21584 0.77533 0.79409
 C116 C 0.16202 0.73140 0.75297
 C117 C 0.27386 0.71552 0.70586
 C118 C 0.20635 0.78356 0.71014
 C119 C 0.32754 0.75948 0.74704
 C120 C 0.25957 0.82798 0.75203
 C121 C 0.18486 0.81076 0.84290
 C122 C 0.16014 0.84237 0.88255
 C123 C 0.30850 0.68353 0.65705
 C124 C 0.33972 0.65809 0.61744
 H125 H 0.21846 0.59440 0.74549
 H126 H 0.31463 0.67637 0.82311
 H127 H 0.09359 0.72027 0.75607
 H128 H 0.17510 0.81450 0.67683
 H129 H 0.39597 0.77069 0.74401
 H130 H 0.27135 0.89631 0.75433
 C131 C 0.33327 0.23114 0.74971
 C132 C 0.28848 0.28414 0.79196
 C133 C 0.22041 0.21658 0.79618
 C134 C 0.26460 0.16300 0.75472
 C135 C 0.28060 0.27488 0.70791
 C136 C 0.21252 0.20732 0.71213
 C137 C 0.23638 0.32835 0.74942
 C138 C 0.16785 0.26034 0.75434
 C139 C 0.18504 0.18516 0.84513
 C140 C 0.15376 0.16001 0.88493
 C141 C 0.31305 0.30931 0.65897
 C142 C 0.33895 0.33994 0.61919
 H143 H 0.40168 0.21948 0.74724
 H144 H 0.31935 0.31541 0.82529
 H145 H 0.27584 0.09462 0.75748
 H146 H 0.18162 0.17607 0.67881
 H147 H 0.22507 0.39672 0.74673
 H148 H 0.09944 0.27207 0.75675
 C149 C 0.78558 0.78974 0.70975
 C150 C 0.73291 0.83490 0.75203
 C151 C 0.77696 0.78258 0.79389
 C152 C 0.83011 0.73800 0.75234
 C153 C 0.71786 0.72177 0.70637
 C154 C 0.76194 0.66955 0.74827
 C155 C 0.66460 0.76633 0.74787
 C156 C 0.70925 0.71460 0.79051
 C157 C 0.81175 0.81539 0.84241
 C158 C 0.84258 0.84158 0.88188
 C159 C 0.68597 0.68620 0.65782
 C160 C 0.66045 0.65495 0.61830
 H161 H 0.81664 0.82027 0.67604
 H162 H 0.72133 0.90328 0.75415
 H163 H 0.89855 0.72666 0.75470
 H164 H 0.77358 0.60117 0.74621
 H165 H 0.59616 0.77760 0.74546
 H166 H 0.67822 0.68405 0.82423
 C167 C 0.21463 0.78997 0.29035
 C168 C 0.26736 0.83484 0.24798
 C169 C 0.22300 0.78257 0.20621
 C170 C 0.16980 0.73828 0.24785
 C171 C 0.28211 0.72176 0.29373
 C172 C 0.23774 0.66960 0.25192
 C173 C 0.33542 0.76602 0.25213
 C174 C 0.29048 0.71435 0.20959
 C175 C 0.18821 0.81539 0.15769
 C176 C 0.15739 0.84158 0.11822
 C177 C 0.31399 0.68619 0.34228
 C178 C 0.33951 0.65495 0.38180
 H179 H 0.18377 0.82069 0.32407
 H180 H 0.27917 0.90317 0.24578
 H181 H 0.10131 0.72719 0.24558
 H182 H 0.22585 0.60127 0.25406
 H183 H 0.40391 0.77705 0.25447
 H184 H 0.32132 0.68361 0.17587
 C185 C 0.66655 0.23183 0.25018
 C186 C 0.71203 0.28470 0.20815
 C187 C 0.77954 0.21658 0.20392
 C188 C 0.73467 0.16314 0.24516
 C189 C 0.71936 0.27488 0.29219
 C190 C 0.78688 0.20678 0.28797
 C191 C 0.76426 0.32821 0.25090
 C192 C 0.83224 0.25965 0.24598
 C193 C 0.81491 0.18516 0.15497
 C194 C 0.84620 0.16000 0.11517
 C195 C 0.68691 0.30932 0.34113
 C196 C 0.66102 0.33995 0.38091
 H197 H 0.59804 0.22074 0.25248
 H198 H 0.68161 0.31642 0.17482
 H199 H 0.72286 0.09488 0.24223
 H200 H 0.81732 0.17507 0.32129
 H201 H 0.77614 0.39647 0.25376
 H202 H 0.90075 0.27081 0.24373
   
