data_POSCAR
  _audit_creation_date              2014-09-24
  _audit_creation_method            'ToBaCCo'
  _symmetry_space_group_name_H-M    'P1'
  _symmetry_Int_Tables_number       1
  _symmetry_cell_setting            triclinic
  loop_
  _symmetry_equiv_pos_as_xyz
 x,y,z
_cell_length_a 33.6719
_cell_length_b 33.2107
_cell_length_c 32.7033
_cell_angle_alpha 90.074700
_cell_angle_beta 89.934900
_cell_angle_gamma 90.094300
loop_
  _atom_site_label
  _atom_site_type_symbol
  _atom_site_fract_x
  _atom_site_fract_y
  _atom_site_fract_z
N1 N 0.18164 1.15879 0.17534
 N2 N 0.83925 0.82035 0.17595
 N3 N 0.75763 1.24107 -0.23997
 N4 N 0.17918 0.82356 -0.15531
 C5 C 0.56970 1.06140 -0.01684
 H6 H 0.57243 1.06126 0.01612
 C7 C 0.59370 1.08685 -0.04024
 H8 H 0.61491 1.10652 -0.02531
 C9 C 0.53946 1.03521 -0.07674
 H10 H 0.51890 1.01447 -0.09089
 C11 C 0.56290 1.06017 -0.10128
 H12 H 0.56003 1.05887 -0.13425
 N13 N 0.54310 1.03644 -0.03530
 C14 C 0.45644 1.00835 0.05943
 H15 H 0.45885 0.97587 0.05951
 C16 C 0.42727 1.02716 0.08294
 H17 H 0.40726 1.00914 0.10137
 C18 C 0.47777 1.07133 0.03310
 H19 H 0.49655 1.08826 0.01255
 C20 C 0.44885 1.09137 0.05612
 H21 H 0.44569 1.12372 0.05349
 Zn22 Zn 0.51358 1.00124 -0.00140
 N23 N 0.48071 1.03048 0.03488
 C24 C 0.55283 0.97069 0.06906
 N25 N 0.55043 0.96927 0.02752
 C26 C 0.57640 0.94707 0.00499
 C27 C 0.60636 0.92512 0.02420
 C28 C 0.58240 0.94918 0.08950
 C29 C 0.44972 0.98889 -0.05328
 C30 C 0.41984 0.96760 -0.07339
 C31 C 0.45038 0.90546 -0.05147
 C32 C 0.47988 0.92798 -0.03178
 N33 N 0.47883 0.96895 -0.03285
 H34 H 0.53254 0.98929 0.08633
 H35 H 0.57422 0.94708 -0.02801
 H36 H 0.62731 0.90804 0.00598
 H37 H 0.58461 0.95101 0.12249
 H38 H 0.44915 1.02146 -0.05285
 H39 H 0.39625 0.98380 -0.08870
 H40 H 0.45067 0.87290 -0.04956
 H41 H 0.50264 0.91274 -0.01445
 C42 C 0.42304 1.06897 0.08080
 C43 C 0.59029 1.08616 -0.08285
 C44 C 0.41987 0.92554 -0.07207
 C45 C 0.60953 0.92641 0.06681
 C46 C -0.00846 0.54422 1.05735
 H47 H 0.02359 0.54192 1.05742
 C48 C -0.02713 0.57370 1.08091
 H49 H -0.00944 0.59405 1.09935
 C50 C -0.07051 0.52232 1.03107
 H51 H -0.08715 0.50320 1.01054
 C52 C -0.09038 0.55152 1.05414
 H53 H -0.12231 0.55455 1.05157
 N54 N -0.03020 0.51951 1.03282
 C55 C 0.05185 0.42229 1.00290
 H56 H 0.05161 0.42435 0.96988
 C57 C 0.07374 0.39209 1.02209
 H58 H 0.09051 0.37081 1.00384
 C59 C 0.02906 0.44653 1.06703
 H60 H 0.01087 0.46719 1.08434
 C61 C 0.05052 0.41671 1.08745
 H62 H 0.04904 0.41468 1.12048
 Zn63 Zn -0.00137 0.48614 0.99655
 N64 N 0.03013 0.44874 1.02547
 C65 C 0.07102 0.51995 0.96631
 N66 N 0.03061 0.52128 0.96513
 C67 C 0.01118 0.55094 0.94470
 C68 C 0.03243 0.58115 0.92471
 C69 C 0.09346 0.54973 0.94674
 C70 C -0.06069 0.42926 0.98124
 C71 C -0.08608 0.40514 0.95795
 C72 C -0.06024 0.43659 0.89683
 C73 C -0.03532 0.46016 0.92127
 N74 N -0.03618 0.45627 0.96270
 H75 H 0.08587 0.49677 0.98364
 H76 H -0.02094 0.55175 0.94505
 H77 H 0.01665 0.60521 0.90941
 H78 H 0.12557 0.54922 0.94874
 H79 H -0.06029 0.42635 1.01419
 H80 H -0.10543 0.38364 0.97295
 H81 H -0.05928 0.43970 0.86387
 H82 H -0.01497 0.48106 0.90705
 C83 C 0.07288 0.38914 1.06472
 C84 C -0.06839 0.57777 1.07882
 C85 C -0.08581 0.40883 0.91537
 C86 C 0.07391 0.58084 0.92615
 C87 C 1.04926 -0.00292 0.57897
 H88 H 1.04928 0.02960 0.57695
 C89 C 1.07083 -0.02205 0.60975
 H90 H 1.08763 -0.00426 0.63150
 C91 C 1.02616 -0.06585 0.55405
 H92 H 1.00798 -0.08274 0.53290
 C93 C 1.04730 -0.08618 0.58441
 H94 H 1.04560 -0.11870 0.58636
 N95 N 1.02756 -0.02493 0.55189
 C96 C 1.00985 0.05464 0.44786
 H97 H 0.97774 0.05423 0.44665
 C98 C 1.03141 0.07455 0.41758
 H99 H 1.01589 0.08970 0.39303
 C100 C 1.06935 0.03346 0.48008
 H101 H 1.08396 0.01641 0.50379
 C102 C 1.09211 0.05297 0.45023
 H103 H 1.12421 0.05117 0.45122
 Zn104 Zn 0.99654 0.00373 0.51361
 N105 N 1.02897 0.03450 0.47820
 C106 C 0.96307 0.07813 0.53958
 N107 N 0.96171 0.03735 0.54357
 C108 C 0.93678 0.01940 0.57081
 C109 C 0.91148 0.04266 0.59507
 C110 C 0.93826 0.10250 0.56326
 C111 C 0.98971 -0.05615 0.45466
 C112 C 0.97121 -0.07963 0.42483
 C113 C 0.90781 -0.05329 0.44687
 C114 C 0.92752 -0.03030 0.47643
 N115 N 0.96782 -0.03192 0.47951
 H116 H 0.98376 0.09188 0.51854
 H117 H 0.93680 -0.01304 0.57382
 H118 H 0.89180 0.02815 0.61677
 H119 H 0.93963 0.13494 0.56008
 H120 H 1.02175 -0.05615 0.45719
 H121 H 0.98901 -0.09794 0.40442
 H122 H 0.87588 -0.05093 0.44368
 H123 H 0.91077 -0.01003 0.49567
 C124 C 1.07289 0.07334 0.41849
 C125 C 1.06966 -0.06404 0.61261
 C126 C 0.92995 -0.07778 0.42053
 C127 C 0.91228 0.08459 0.59127
 C128 C 0.16875 0.19606 1.16169
 C129 C 0.15665 0.22786 1.14906
 C130 C 0.14117 0.26406 1.13316
 C131 C 0.12692 0.29410 1.11870
 C132 C 0.10911 0.32822 1.10079
 C133 C 0.09304 0.35648 1.08474
 C134 C -0.15116 0.78098 1.16584
 C135 C -0.14184 0.74727 1.15603
 C136 C -0.12938 0.70880 1.14293
 C137 C -0.11741 0.67692 1.13036
 C138 C -0.10187 0.64087 1.11403
 C139 C -0.08730 0.61134 1.09873
 C140 C -0.22058 0.26571 0.78211
 C141 C -0.20046 0.28829 0.80236
 C142 C -0.17670 0.31442 0.82608
 C143 C -0.15619 0.33649 0.84640
 C144 C -0.13194 0.36202 0.87027
 C145 C -0.11103 0.38353 0.89076
 C146 C 0.16857 0.78409 0.85324
 C147 C 0.15814 0.75031 0.86153
 C148 C 0.14404 0.71177 0.87254
 C149 C 0.13039 0.67986 0.88308
 C150 C 0.11255 0.64382 0.89674
 C151 C 0.09576 0.61432 0.90953
 C152 C 1.17027 0.14946 0.21499
 C153 C 1.15925 0.14052 0.24889
 C154 C 1.14457 0.12877 0.28752
 C155 C 1.13050 0.11767 0.31948
 C156 C 1.11222 0.10343 0.35554
 C157 C 1.09511 0.09026 0.38504
 C158 C 1.16577 -0.16235 0.80727
 C159 C 1.15334 -0.14935 0.77534
 C160 C 1.13765 -0.13306 0.73895
 C161 C 1.12335 -0.11833 0.70872
 C162 C 1.10559 -0.10019 0.67430
 C163 C 1.08963 -0.08404 0.64573
 C164 C 0.84859 -0.16856 0.21570
 C165 C 0.85767 -0.15793 0.24971
 C166 C 0.86984 -0.14394 0.28850
 C167 C 0.88155 -0.13070 0.32064
 C168 C 0.89682 -0.11372 0.35695
 C169 C 0.91120 -0.09799 0.38671
 C170 C 0.77912 0.21880 0.73523
 C171 C 0.79895 0.19834 0.71252
 C172 C 0.82237 0.17436 0.68625
 C173 C 0.84259 0.15384 0.66408
 C174 C 0.86654 0.12977 0.63840
 C175 C 0.88724 0.10919 0.61676
 C176 C 0.22081 1.14986 0.16590
 C177 C 0.25437 1.14109 0.15659
 C178 C 0.29269 1.12918 0.14395
 C179 C 0.32445 1.11760 0.13169
 C180 C 0.36034 1.10236 0.11564
 C181 C 0.38971 1.08792 0.10052
 C182 C 0.73312 1.21952 -0.21760
 C183 C 0.71063 1.19965 -0.19707
 C184 C 0.68458 1.17619 -0.17301
 C185 C 0.66256 1.15596 -0.15243
 C186 C 0.63707 1.13198 -0.12827
 C187 C 0.61557 1.11125 -0.10759
 C188 C 0.21830 0.83336 -0.14648
 C189 C 0.25180 0.84312 -0.13795
 C190 C 0.29004 0.85653 -0.12663
 C191 C 0.32171 0.86970 -0.11583
 C192 C 0.35748 0.88713 -0.10187
 C193 C 0.38673 0.90371 -0.08887
 C194 C 0.80209 0.83276 0.16281
 C195 C 0.77037 0.84443 0.15053
 C196 C 0.73425 0.85940 0.13492
 C197 C 0.70428 0.87326 0.12061
 C198 C 0.67024 0.89066 0.10280
 C199 C 0.64207 0.90647 0.08680
   
