data_POSCAR
  _audit_creation_date              2014-09-24
  _audit_creation_method            'ToBaCCo'
  _symmetry_space_group_name_H-M    'P1'
  _symmetry_Int_Tables_number       1
  _symmetry_cell_setting            triclinic
  loop_
  _symmetry_equiv_pos_as_xyz
 x,y,z
_cell_length_a 44.7203
_cell_length_b 44.6740
_cell_length_c 44.9426
_cell_angle_alpha 91.488200
_cell_angle_beta 89.377600
_cell_angle_gamma 89.502100
loop_
  _atom_site_label
  _atom_site_type_symbol
  _atom_site_fract_x
  _atom_site_fract_y
  _atom_site_fract_z
N1 N 0.38550 0.38354 1.37998
 N2 N 1.11681 0.61035 0.88243
 N3 N 0.61469 -0.11718 0.11207
 N4 N -0.17676 1.17418 -0.32447
 N5 N 0.66764 0.67629 0.67545
 N6 N 0.88012 0.38192 0.11867
 N7 N 0.37928 0.11433 0.88112
 N8 N 0.17354 0.81905 0.31695
 Zn9 Zn 0.00450 1.03232 -0.02118
 Zn10 Zn -0.02633 0.97321 -0.02712
 Zn11 Zn 0.03313 0.97751 0.00251
 Zn12 Zn -0.02121 1.00387 0.03279
 O13 O -0.00252 0.99671 -0.00325
 O14 O -0.01366 1.03482 -0.05627
 O15 O -0.00881 0.93823 -0.03806
 O16 O 0.06465 0.99798 -0.01070
 O17 O -0.03650 0.99112 -0.06089
 O18 O 0.04340 1.03872 -0.02840
 O19 O 0.03518 0.94165 -0.01603
 O20 O -0.00034 0.98999 0.06349
 O21 O -0.06092 0.96376 -0.00923
 O22 O 0.03991 0.97057 0.04085
 O23 O -0.05709 0.98652 0.03498
 O24 O -0.02785 1.04297 0.04063
 O25 O -0.00877 1.06393 0.00057
 C26 C -0.03012 1.01671 -0.07061
 C27 C 0.01669 0.92746 -0.03209
 C28 C 0.06641 1.02301 -0.02321
 C29 C 0.02464 0.97641 0.06423
 C30 C -0.07140 0.97048 0.01643
 C31 C -0.02194 1.06589 0.02566
 Zn32 Zn 0.47786 0.00737 0.45989
 Zn33 Zn 0.47248 -0.02218 0.51874
 Zn34 Zn 0.53249 -0.01669 0.48902
 Zn35 Zn 0.50130 0.03775 0.51457
 O36 O 0.49603 0.00153 0.49557
 O37 O 0.44291 -0.01155 0.45702
 O38 O 0.49125 -0.05588 0.52922
 O39 O 0.54031 -0.02441 0.45032
 O40 O 0.43890 -0.03378 0.50041
 O41 O 0.49985 -0.00629 0.42884
 O42 O 0.53554 -0.05180 0.50711
 O43 O 0.53973 0.04543 0.52193
 O44 O 0.46095 -0.00388 0.55305
 O45 O 0.56301 0.00526 0.50277
 O46 O 0.48258 0.04039 0.54992
 O47 O 0.48769 0.06855 0.49375
 O48 O 0.47013 0.04605 0.45313
 C49 C 0.42894 -0.02809 0.47485
 C50 C 0.51733 -0.06585 0.52330
 C51 C 0.52519 -0.01918 0.42730
 C52 C 0.56343 0.03053 0.51624
 C53 C 0.46658 0.02196 0.56378
 C54 C 0.47517 0.06953 0.46864
 Zn55 Zn 1.00717 0.46027 0.48110
 Zn56 Zn 1.03697 0.51498 0.50610
 Zn57 Zn 0.97774 0.52051 0.47613
 Zn58 Zn 0.98204 0.49184 0.53534
 O59 O 1.00098 0.49690 0.49962
 O60 O 1.04602 0.45218 0.47395
 O61 O 1.04006 0.54990 0.48781
 O62 O 0.96722 0.50179 0.44208
 O63 O 1.06791 0.49276 0.49256
 O64 O 0.98927 0.45740 0.44569
 O65 O 0.99640 0.55399 0.46530
 O66 O 0.94695 0.51121 0.53802
 O67 O 1.04403 0.52280 0.54472
 O68 O 0.94356 0.53260 0.49421
 O69 O 1.00328 0.50527 0.56638
 O70 O 0.97418 0.45349 0.54229
 O71 O 0.99303 0.42984 0.50228
 C72 C 1.06925 0.46729 0.47952
 C73 C 1.02217 0.56389 0.47137
 C74 C 0.97332 0.47577 0.43167
 C75 C 0.93314 0.52746 0.51991
 C76 C 1.02856 0.51777 0.56782
 C77 C 0.97961 0.42964 0.52726
 Zn78 Zn 0.50673 0.46212 1.01844
 Zn79 Zn 0.48052 0.48912 0.96426
 Zn80 Zn 0.47456 0.52120 1.02354
 Zn81 Zn 0.53418 0.51645 0.99281
 O82 O 0.49895 0.49724 0.99977
 O83 O 0.49395 0.42993 0.99786
 O84 O 0.44424 0.50619 0.96240
 O85 O 0.46519 0.50432 1.05821
 O86 O 0.47473 0.44984 0.95756
 O87 O 0.48900 0.46064 1.05423
 O88 O 0.43965 0.52983 1.00624
 O89 O 0.53539 0.55273 1.01046
 O90 O 0.50113 0.50236 0.93277
 O91 O 0.49120 0.55658 1.03310
 O92 O 0.54089 0.52249 0.95415
 O93 O 0.56613 0.49649 1.00594
 O94 O 0.54580 0.45603 1.02487
 C95 C 0.48092 0.42733 0.97303
 C96 C 0.42942 0.52247 0.98090
 C97 C 0.47242 0.47919 1.06861
 C98 C 0.51652 0.56726 1.02647
 C99 C 0.52580 0.51604 0.93120
 C100 C 0.56844 0.47178 1.01897
 C101 C 1.35608 0.38948 0.38843
 C102 C 1.33053 0.39461 0.39593
 C103 C 1.30011 0.40075 0.40507
 C104 C 1.28252 0.42063 0.38909
 C105 C 1.25312 0.42698 0.39825
 C106 C 1.24094 0.41352 0.42357
 C107 C 1.25877 0.39341 0.43938
 C108 C 1.28815 0.38708 0.43016
 C109 C 1.20996 0.42086 0.43371
 C110 C 1.20335 0.42533 0.46420
 C111 C 1.17442 0.43332 0.47367
 C112 C 1.15172 0.43687 0.45284
 C113 C 1.15797 0.43209 0.42250
 C114 C 1.18688 0.42413 0.41297
 C115 C 1.12236 0.44666 0.46246
 C116 C 1.09797 0.45563 0.47037
 H117 H 1.29159 0.43140 0.36969
 H118 H 1.24012 0.44286 0.38585
 H119 H 1.24991 0.38243 0.45873
 H120 H 1.30157 0.37159 0.44264
 H121 H 1.22070 0.42338 0.48067
 H122 H 1.16987 0.43716 0.49720
 H123 H 1.14056 0.43482 0.40618
 H124 H 1.19118 0.42047 0.38940
 C125 C 0.14561 0.60377 0.89157
 C126 C 0.17054 0.59778 0.89969
 C127 C 0.20011 0.59023 0.90956
 C128 C 0.20568 0.56213 0.92148
 C129 C 0.23434 0.55463 0.93110
 C130 C 0.25788 0.57519 0.92891
 C131 C 0.25206 0.60341 0.91689
 C132 C 0.22335 0.61087 0.90731
 C133 C 0.28840 0.56706 0.93890
 C134 C 0.31376 0.57506 0.92218
 C135 C 0.34241 0.56671 0.93120
 C136 C 0.34612 0.55034 0.95706
 C137 C 0.32107 0.54253 0.97400
 C138 C 0.29240 0.55083 0.96501
 C139 C 0.37555 0.54093 0.96581
 C140 C 0.40016 0.53269 0.97287
 H141 H 0.18788 0.54595 0.92325
 H142 H 0.23818 0.53259 0.93983
 H143 H 0.26962 0.61984 0.91523
 H144 H 0.21926 0.63273 0.89819
 H145 H 0.31141 0.58721 0.90179
 H146 H 0.36164 0.57276 0.91785
 H147 H 0.32368 0.52989 0.99407
 H148 H 0.27338 0.54469 0.97858
 C149 C -0.35610 0.88847 0.10333
 C150 C -0.33076 0.89369 0.09571
 C151 C -0.30063 0.90039 0.08666
 C152 C -0.28155 0.91527 0.10646
 C153 C -0.25254 0.92257 0.09748
 C154 C -0.24223 0.91511 0.06850
 C155 C -0.26153 0.89994 0.04883
 C156 C -0.29053 0.89264 0.05787
 C157 C -0.21168 0.92359 0.05873
 C158 C -0.20670 0.93468 0.03009
 C159 C -0.17810 0.94347 0.02120
 C160 C -0.15410 0.94126 0.04077
 C161 C -0.15875 0.93000 0.06920
 C162 C -0.18734 0.92121 0.07814
 C163 C -0.12484 0.95117 0.03194
 C164 C -0.10041 0.95981 0.02473
 H165 H -0.28918 0.92150 0.12875
 H166 H -0.23840 0.93461 0.11300
 H167 H -0.25414 0.89356 0.02652
 H168 H -0.30512 0.88109 0.04237
 H169 H -0.22503 0.93716 0.01478
 H170 H -0.17477 0.95228 -0.00081
 H171 H -0.14033 0.92816 0.08452
 H172 H -0.19037 0.91241 0.10019
 C173 C 0.80318 0.15867 0.65774
 C174 C 0.78532 0.14550 0.64247
 C175 C 0.76334 0.13030 0.62466
 C176 C 0.75567 0.14122 0.59683
 C177 C 0.73292 0.12761 0.58037
 C178 C 0.71754 0.10291 0.59160
 C179 C 0.72584 0.09176 0.61935
 C180 C 0.74857 0.10540 0.63576
 C181 C 0.69206 0.08963 0.57515
 C182 C 0.68777 0.05845 0.57421
 C183 C 0.66264 0.04620 0.56041
 C184 C 0.64153 0.06491 0.54735
 C185 C 0.64592 0.09588 0.54761
 C186 C 0.67103 0.10818 0.56137
 C187 C 0.61452 0.05255 0.53529
 C188 C 0.59142 0.04240 0.52608
 H189 H 0.76696 0.16050 0.58805
 H190 H 0.72727 0.13649 0.55894
 H191 H 0.71415 0.07307 0.62880
 H192 H 0.75422 0.09690 0.65737
 H193 H 0.70374 0.04357 0.58430
 H194 H 0.65942 0.02218 0.56039
 H195 H 0.62960 0.11059 0.53777
 H196 H 0.67346 0.13228 0.56208
 C197 C 0.39405 0.35427 0.38532
 C198 C 0.40135 0.32885 0.39030
 C199 C 0.40984 0.29858 0.39676
 C200 C 0.38843 0.27592 0.39610
 C201 C 0.39637 0.24672 0.40345
 C202 C 0.42589 0.23980 0.41159
 C203 C 0.44732 0.26269 0.41186
 C204 C 0.43931 0.29188 0.40452
 C205 C 0.43415 0.20903 0.42040
 C206 C 0.46175 0.19615 0.41146
 C207 C 0.46980 0.16750 0.42050
 C208 C 0.45040 0.15134 0.43856
 C209 C 0.42280 0.16384 0.44736
 C210 C 0.41470 0.19247 0.43834
 C211 C 0.45908 0.12227 0.44869
 C212 C 0.46640 0.09808 0.45758
 H213 H 0.36554 0.28087 0.39010
 H214 H 0.37946 0.22952 0.40266
 H215 H 0.47011 0.25818 0.41841
 H216 H 0.45603 0.30929 0.40524
 H217 H 0.47704 0.20818 0.39736
 H218 H 0.49122 0.15802 0.41354
 H219 H 0.40768 0.15158 0.46146
 H220 H 0.39349 0.20191 0.44594
 C221 C 0.84123 0.19349 0.65981
 C222 C 0.85649 0.21075 0.64628
 C223 C 0.87400 0.23210 0.63040
 C224 C 0.90232 0.24024 0.64060
 C225 C 0.91842 0.26250 0.62632
 C226 C 0.90634 0.27695 0.60165
 C227 C 0.87812 0.26813 0.59120
 C228 C 0.86207 0.24588 0.60552
 C229 C 0.92234 0.30209 0.58774
 C230 C 0.92220 0.30541 0.55668
 C231 C 0.93551 0.33027 0.54388
 C232 C 0.94917 0.35206 0.56193
 C233 C 0.94999 0.34863 0.59276
 C234 C 0.93671 0.32381 0.60560
 C235 C 0.96082 0.37879 0.54911
 C236 C 0.96982 0.40174 0.53886
 H237 H 0.91175 0.22971 0.65986
 H238 H 0.94023 0.26855 0.63466
 H239 H 0.86801 0.27910 0.57256
 H240 H 0.84009 0.23987 0.59755
 H241 H 0.91162 0.28890 0.54233
 H242 H 0.93471 0.33275 0.51999
 H243 H 0.96031 0.36548 0.60695
 H244 H 0.93683 0.32214 0.62959
 C245 C 0.10826 0.63979 -0.11130
 C246 C 0.10052 0.66530 -0.10589
 C247 C 0.09092 0.69563 -0.09942
 C248 C 0.06303 0.70563 -0.10917
 C249 C 0.05340 0.73492 -0.10247
 C250 C 0.07158 0.75463 -0.08594
 C251 C 0.09967 0.74440 -0.07640
 C252 C 0.10924 0.71509 -0.08310
 C253 C 0.06115 0.78556 -0.07826
 C254 C 0.08108 0.80973 -0.07920
 C255 C 0.07145 0.83869 -0.07110
 C256 C 0.04180 0.84391 -0.06197
 C257 C 0.02171 0.82009 -0.06127
 C258 C 0.03128 0.79111 -0.06940
 C259 C 0.03237 0.87348 -0.05222
 C260 C 0.02492 0.89819 -0.04341
 H261 H 0.04870 0.69077 -0.12188
 H262 H 0.03184 0.74223 -0.11043
 H263 H 0.11400 0.75888 -0.06329
 H264 H 0.13083 0.70755 -0.07537
 H265 H 0.10409 0.80625 -0.08630
 H266 H 0.08720 0.85696 -0.07170
 H267 H -0.00124 0.82385 -0.05406
 H268 H 0.01550 0.77294 -0.06807
 C269 C 0.60596 0.85366 1.10566
 C270 C 0.59813 0.82838 1.10005
 C271 C 0.58852 0.79832 1.09330
 C272 C 0.55948 0.78957 1.10081
 C273 C 0.54994 0.76051 1.09388
 C274 C 0.56936 0.73980 1.07932
 C275 C 0.59856 0.74879 1.07199
 C276 C 0.60804 0.77787 1.07893
 C277 C 0.55913 0.70907 1.07149
 C278 C 0.57836 0.68427 1.07464
 C279 C 0.56899 0.65546 1.06652
 C280 C 0.54031 0.65100 1.05515
 C281 C 0.52091 0.67546 1.05220
 C282 C 0.53022 0.70431 1.06034
 C283 C 0.53124 0.62147 1.04563
 C284 C 0.52417 0.59672 1.03717
 H285 H 0.54420 0.80521 1.11200
 H286 H 0.52747 0.75417 1.10014
 H287 H 0.61390 0.73352 1.06042
 H288 H 0.63053 0.78444 1.07291
 H289 H 0.60059 0.68715 1.08353
 H290 H 0.58420 0.63668 1.06889
 H291 H 0.49872 0.67229 1.04326
 H292 H 0.51503 0.72296 1.05729
 C293 C 0.39186 0.39204 1.35114
 C294 C 0.39748 0.39962 1.32614
 C295 C 0.40433 0.40886 1.29642
 C296 C 0.41928 0.38924 1.27643
 C297 C 0.42640 0.39839 1.24771
 C298 C 0.41869 0.42734 1.23862
 C299 C 0.40354 0.44684 1.25885
 C300 C 0.39641 0.43763 1.28755
 C301 C 0.42678 0.43724 1.20829
 C302 C 0.43761 0.46630 1.20393
 C303 C 0.44596 0.47534 1.17549
 C304 C 0.44355 0.45550 1.15104
 C305 C 0.43252 0.42665 1.15510
 C306 C 0.42418 0.41756 1.18351
 C307 C 0.45319 0.46438 1.12194
 C308 C 0.46172 0.47141 1.09758
 H309 H 0.42562 0.36696 1.28310
 H310 H 0.43843 0.38300 1.23281
 H311 H 0.39698 0.46912 1.25240
 H312 H 0.38478 0.45298 1.30283
 H313 H 0.44023 0.48184 1.22260
 H314 H 0.45462 0.49767 1.17263
 H315 H 0.43055 0.41112 1.13632
 H316 H 0.41556 0.39519 1.18608
 C317 C 0.60878 -0.10839 0.14139
 C318 C 0.60347 -0.10069 0.16685
 C319 C 0.59685 -0.09148 0.19714
 C320 C 0.59667 -0.11259 0.21961
 C321 C 0.58948 -0.10377 0.24892
 C322 C 0.58236 -0.07368 0.25614
 C323 C 0.58289 -0.05259 0.23342
 C324 C 0.59007 -0.06146 0.20413
 C325 C 0.57378 -0.06443 0.28707
 C326 C 0.58367 -0.03709 0.29957
 C327 C 0.57479 -0.02805 0.32838
 C328 C 0.55596 -0.04619 0.34507
 C329 C 0.54624 -0.07353 0.33295
 C330 C 0.55509 -0.08262 0.30417
 C331 C 0.54587 -0.03646 0.37430
 C332 C 0.53679 -0.02847 0.39861
 H333 H 0.60194 -0.13588 0.21445
 H334 H 0.58964 -0.12046 0.26596
 H335 H 0.57712 -0.02935 0.23817
 H336 H 0.59004 -0.04496 0.18688
 H337 H 0.59836 -0.02277 0.28711
 H338 H 0.58246 -0.00684 0.33756
 H339 H 0.53153 -0.08767 0.34562
 H340 H 0.54675 -0.10357 0.29506
 C341 C -0.16106 1.15606 -0.30539
 C342 C -0.14771 1.14058 -0.28832
 C343 C -0.13224 1.12266 -0.26714
 C344 C -0.14372 1.09494 -0.25911
 C345 C -0.12988 1.07852 -0.23696
 C346 C -0.10435 1.08968 -0.22254
 C347 C -0.09262 1.11728 -0.23125
 C348 C -0.10651 1.13366 -0.25337
 C349 C -0.09083 1.07340 -0.19754
 C350 C -0.05959 1.07216 -0.19422
 C351 C -0.04704 1.05867 -0.16949
 C352 C -0.06551 1.04622 -0.14783
 C353 C -0.09656 1.04674 -0.15128
 C354 C -0.10916 1.06019 -0.17598
 C355 C -0.05278 1.03463 -0.12116
 C356 C -0.04233 1.02590 -0.09832
 H357 H -0.16365 1.08624 -0.26961
 H358 H -0.13922 1.05719 -0.23099
 H359 H -0.07329 1.12670 -0.22028
 H360 H -0.09755 1.15519 -0.25929
 H361 H -0.04489 1.08181 -0.21061
 H362 H -0.02297 1.05845 -0.16700
 H363 H -0.11108 1.03737 -0.13452
 H364 H -0.13328 1.06116 -0.17766
 C365 C 1.11162 0.60169 0.85309
 C366 C 1.10676 0.59422 0.82762
 C367 C 1.10041 0.58543 0.79732
 C368 C 1.10115 0.60664 0.77496
 C369 C 1.09390 0.59837 0.74572
 C370 C 1.08578 0.56872 0.73846
 C371 C 1.08543 0.54749 0.76106
 C372 C 1.09268 0.55582 0.79029
 C373 C 1.07703 0.56012 0.70764
 C374 C 1.08601 0.53235 0.69481
 C375 C 1.07700 0.52397 0.66610
 C376 C 1.05890 0.54319 0.64985
 C377 C 1.05006 0.57094 0.66231
 C378 C 1.05906 0.57938 0.69098
 C379 C 1.04876 0.53418 0.62071
 C380 C 1.03979 0.52667 0.59646
 H381 H 1.10713 0.62963 0.78017
 H382 H 1.09475 0.61513 0.72877
 H383 H 1.07888 0.52460 0.75628
 H384 H 1.09189 0.53926 0.80745
 H385 H 1.10013 0.51720 0.70691
 H386 H 1.08399 0.50243 0.65666
 H387 H 1.03593 0.58593 0.64998
 H388 H 1.05141 0.60070 0.70037
 C389 C 0.68847 0.66083 0.65774
 C390 C 0.70700 0.64769 0.64257
 C391 C 0.72977 0.63248 0.62494
 C392 C 0.74239 0.60577 0.63474
 C393 C 0.76582 0.59193 0.61864
 C394 C 0.77701 0.60469 0.59252
 C395 C 0.76380 0.63127 0.58255
 C396 C 0.74035 0.64506 0.59869
 C397 C 0.80315 0.59098 0.57652
 C398 C 0.82614 0.60910 0.56551
 C399 C 0.85168 0.59618 0.55216
 C400 C 0.85457 0.56501 0.54954
 C401 C 0.83157 0.54679 0.55984
 C402 C 0.80601 0.55967 0.57322
 C403 C 0.88186 0.55174 0.53793
 C404 C 0.90510 0.54066 0.52915
 H405 H 0.73449 0.59594 0.65514
 H406 H 0.77578 0.57173 0.62713
 H407 H 0.77169 0.64144 0.56235
 H408 H 0.73075 0.66576 0.59092
 H409 H 0.82482 0.63325 0.56808
 H410 H 0.86945 0.61049 0.54446
 H411 H 0.83361 0.52263 0.55798
 H412 H 0.78855 0.54514 0.58115
 C413 C 0.85110 0.38867 1.11032
 C414 C 0.82598 0.39472 1.10285
 C415 C 0.79616 0.40224 1.09368
 C416 C 0.78528 0.39095 1.06659
 C417 C 0.75661 0.39888 1.05728
 C418 C 0.73844 0.41829 1.07495
 C419 C 0.74952 0.42933 1.10227
 C420 C 0.77818 0.42136 1.11154
 C421 C 0.70825 0.42732 1.06477
 C422 C 0.69810 0.45706 1.06896
 C423 C 0.66977 0.46564 1.05930
 C424 C 0.65117 0.44467 1.04533
 C425 C 0.66103 0.41504 1.04103
 C426 C 0.68939 0.40640 1.05066
 C427 C 0.62194 0.45367 1.03561
 C428 C 0.59749 0.46166 1.02780
 H429 H 0.79905 0.37623 1.05253
 H430 H 0.74888 0.39030 1.03599
 H431 H 0.73594 0.44398 1.11656
 H432 H 0.78637 0.43019 1.13257
 H433 H 0.71223 0.47379 1.07935
 H434 H 0.66239 0.48865 1.06268
 H435 H 0.64677 0.39860 1.03032
 H436 H 0.69642 0.38328 1.04742
 C437 C 0.35013 1.10833 -0.11018
 C438 C 0.32485 1.10278 -0.10262
 C439 C 0.29480 1.09566 -0.09366
 C440 C 0.27325 1.08918 -0.11517
 C441 C 0.24432 1.08128 -0.10651
 C442 C 0.23655 1.07973 -0.07616
 C443 C 0.25830 1.08659 -0.05470
 C444 C 0.28723 1.09447 -0.06342
 C445 C 0.20607 1.07044 -0.06694
 C446 C 0.19140 1.08460 -0.04247
 C447 C 0.16290 1.07545 -0.03358
 C448 C 0.14872 1.05204 -0.04899
 C449 C 0.16308 1.03790 -0.07341
 C450 C 0.19154 1.04702 -0.08235
 C451 C 0.11959 1.04225 -0.03965
 C452 C 0.09527 1.03367 -0.03202
 H453 H 0.27886 1.09006 -0.13865
 H454 H 0.22798 1.07653 -0.12356
 H455 H 0.25314 1.08523 -0.03118
 H456 H 0.30378 1.09932 -0.04658
 H457 H 0.20184 1.10292 -0.03037
 H458 H 0.15196 1.08659 -0.01467
 H459 H 0.15236 1.01968 -0.08544
 H460 H 0.20240 1.03538 -0.10099
 C461 C 0.19313 -0.16519 0.33505
 C462 C 0.21059 -0.15168 0.35050
 C463 C 0.23212 -0.13588 0.36836
 C464 C 0.24473 -0.10947 0.35809
 C465 C 0.26706 -0.09507 0.37443
 C466 C 0.27712 -0.10696 0.40127
 C467 C 0.26388 -0.13322 0.41170
 C468 C 0.24153 -0.14758 0.39531
 C469 C 0.30224 -0.09274 0.41752
 C470 C 0.32497 -0.11048 0.42967
 C471 C 0.34970 -0.09714 0.44316
 C472 C 0.35201 -0.06593 0.44478
 C473 C 0.32920 -0.04807 0.43337
 C474 C 0.30445 -0.06136 0.41985
 C475 C 0.37860 -0.05235 0.45649
 C476 C 0.40135 -0.04116 0.46539
 H477 H 0.23772 -0.10033 0.33716
 H478 H 0.27709 -0.07516 0.36559
 H479 H 0.27092 -0.14272 0.43244
 H480 H 0.23192 -0.16803 0.40345
 H481 H 0.32415 -0.13468 0.42786
 H482 H 0.36734 -0.11118 0.45172
 H483 H 0.33080 -0.02388 0.43446
 H484 H 0.28714 -0.04712 0.41103
 C485 C 0.64998 -0.30405 0.65978
 C486 C 0.63511 -0.28645 0.64626
 C487 C 0.61818 -0.26465 0.63033
 C488 C 0.62991 -0.25291 0.60415
 C489 C 0.61459 -0.23021 0.58970
 C490 C 0.58729 -0.21886 0.60129
 C491 C 0.57536 -0.23124 0.62730
 C492 C 0.59074 -0.25397 0.64172
 C493 C 0.57211 -0.19332 0.58704
 C494 C 0.55943 -0.16985 0.60461
 C495 C 0.54683 -0.14487 0.59129
 C496 C 0.54666 -0.14299 0.56026
 C497 C 0.55867 -0.16646 0.54256
 C498 C 0.57130 -0.19148 0.55584
 C499 C 0.53552 -0.11631 0.54675
 C500 C 0.52686 -0.09350 0.53582
 H501 H 0.65123 -0.26088 0.59525
 H502 H 0.62458 -0.22087 0.56998
 H503 H 0.55423 -0.22323 0.63656
 H504 H 0.58147 -0.26288 0.66199
 H505 H 0.56009 -0.17036 0.62867
 H506 H 0.53777 -0.12674 0.60520
 H507 H 0.55868 -0.16522 0.51851
 H508 H 0.58056 -0.20934 0.54172
 C509 C 1.15565 0.79936 0.33231
 C510 C 1.14046 0.78178 0.34550
 C511 C 1.12301 0.76006 0.36095
 C512 C 1.10888 0.73709 0.34488
 C513 C 1.09352 0.71479 0.35984
 C514 C 1.09216 0.71516 0.39115
 C515 C 1.10594 0.73870 0.40710
 C516 C 1.12129 0.76099 0.39206
 C517 C 1.07761 0.69033 0.40702
 C518 C 1.09101 0.67828 0.43230
 C519 C 1.07843 0.65366 0.44615
 C520 C 1.05229 0.64078 0.43500
 C521 C 1.03845 0.65295 0.41023
 C522 C 1.05100 0.67758 0.39632
 C523 C 1.04066 0.61419 0.44811
 C524 C 1.03175 0.59145 0.45885
 H525 H 1.11023 0.73607 0.32078
 H526 H 1.08354 0.69676 0.34694
 H527 H 1.10498 0.73979 0.43118
 H528 H 1.13217 0.77867 0.40472
 H529 H 1.11172 0.68727 0.44080
 H530 H 1.08944 0.64429 0.46519
 H531 H 1.01823 0.64312 0.40140
 H532 H 1.03999 0.68657 0.37712
 C533 C -0.11164 1.35249 0.11193
 C534 C -0.10427 1.32698 0.10596
 C535 C -0.09522 1.29666 0.09863
 C536 C -0.06496 1.28850 0.09925
 C537 C -0.05602 1.25924 0.09149
 C538 C -0.07729 1.23771 0.08296
 C539 C -0.10770 1.24609 0.08264
 C540 C -0.11658 1.27537 0.09043
 C541 C -0.06772 1.20685 0.07387
 C542 C -0.08106 1.19211 0.04942
 C543 C -0.07167 1.16333 0.04043
 C544 C -0.04887 1.14884 0.05573
 C545 C -0.03556 1.16321 0.08018
 C546 C -0.04490 1.19204 0.08921
 C547 C -0.03896 1.11943 0.04592
 C548 C -0.03098 1.09491 0.03705
 H549 H -0.04823 1.30484 0.10547
 H550 H -0.03242 1.25361 0.09158
 H551 H -0.12464 1.22995 0.07655
 H552 H -0.14008 1.28142 0.08993
 H553 H -0.09836 1.20306 0.03688
 H554 H -0.08205 1.15246 0.02140
 H555 H -0.01791 1.15218 0.09221
 H556 H -0.03445 1.20264 0.10832
 C557 C 0.38792 0.14337 0.88825
 C558 C 0.39566 0.16852 0.89459
 C559 C 0.40515 0.19839 0.90239
 C560 C 0.43048 0.21036 0.88872
 C561 C 0.44012 0.23911 0.89680
 C562 C 0.42456 0.25625 0.91876
 C563 C 0.39899 0.24408 0.93221
 C564 C 0.38938 0.21535 0.92407
 C565 C 0.43512 0.28654 0.92786
 C566 C 0.43453 0.29579 0.95803
 C567 C 0.44438 0.32429 0.96666
 C568 C 0.45496 0.34395 0.94530
 C569 C 0.45573 0.33497 0.91523
 C570 C 0.44591 0.30643 0.90655
 C571 C 0.46462 0.37343 0.95437
 C572 C 0.47232 0.39807 0.96255
 H573 H 0.44292 0.19738 0.87198
 H574 H 0.46008 0.24769 0.88630
 H575 H 0.38629 0.25686 0.94887
 H576 H 0.36971 0.20632 0.93476
 H577 H 0.42679 0.28086 0.97502
 H578 H 0.44373 0.33099 0.99000
 H579 H 0.46377 0.35005 0.89850
 H580 H 0.44633 0.30010 0.88313
 C581 C 0.65162 0.65812 0.69432
 C582 C 0.63809 0.64256 0.71128
 C583 C 0.62257 0.62446 0.73239
 C584 C 0.59837 0.63652 0.74880
 C585 C 0.58469 0.61984 0.77095
 C586 C 0.59511 0.59084 0.77705
 C587 C 0.61903 0.57865 0.75996
 C588 C 0.63267 0.59539 0.73780
 C589 C 0.58205 0.57410 0.80212
 C590 C 0.60070 0.55815 0.82128
 C591 C 0.58876 0.54431 0.84623
 C592 C 0.55804 0.54611 0.85234
 C593 C 0.53919 0.56127 0.83304
 C594 C 0.55108 0.57515 0.80806
 C595 C 0.54626 0.53424 0.87949
 C596 C 0.53673 0.52533 0.90281
 H597 H 0.59051 0.65909 0.74495
 H598 H 0.56664 0.63004 0.78399
 H599 H 0.62733 0.55628 0.76389
 H600 H 0.65143 0.58585 0.72526
 H601 H 0.62466 0.55728 0.81759
 H602 H 0.60359 0.53285 0.86116
 H603 H 0.51538 0.56288 0.83761
 H604 H 0.53611 0.58695 0.79355
 C605 C 0.38513 0.10623 0.85161
 C606 C 0.39034 0.09903 0.82600
 C607 C 0.39679 0.09029 0.79555
 C608 C 0.40433 0.06052 0.78821
 C609 C 0.41124 0.05208 0.75874
 C610 C 0.41072 0.07335 0.73619
 C611 C 0.40287 0.10319 0.74378
 C612 C 0.39596 0.11157 0.77326
 C613 C 0.41898 0.06457 0.70505
 C614 C 0.43680 0.08342 0.68777
 C615 C 0.44537 0.07479 0.65879
 C616 C 0.43623 0.04724 0.64664
 C617 C 0.41826 0.02844 0.66351
 C618 C 0.40966 0.03703 0.69253
 C619 C 0.44610 0.03801 0.61719
 C620 C 0.45505 0.03052 0.59270
 H621 H 0.40514 0.04388 0.80530
 H622 H 0.41759 0.02905 0.75371
 H623 H 0.40191 0.12000 0.72688
 H624 H 0.39008 0.13467 0.77869
 H625 H 0.44469 0.10455 0.69689
 H626 H 0.45942 0.08944 0.64598
 H627 H 0.41105 0.00707 0.65431
 H628 H 0.39563 0.02220 0.70513
 C629 C 0.15778 0.83709 0.29784
 C630 C 0.14443 0.85256 0.28076
 C631 C 0.12905 0.87058 0.25961
 C632 C 0.14546 0.88716 0.23922
 C633 C 0.13076 0.90321 0.21739
 C634 C 0.09936 0.90287 0.21563
 C635 C 0.08301 0.88662 0.23663
 C636 C 0.09779 0.87057 0.25846
 C637 C 0.08396 0.91817 0.19109
 C638 C 0.06009 0.90420 0.17624
 C639 C 0.04696 0.91751 0.15174
 C640 C 0.05743 0.94496 0.14178
 C641 C 0.08069 0.95940 0.15680
 C642 C 0.09387 0.94613 0.18133
 C643 C 0.04545 0.95727 0.11511
 C644 C 0.03577 0.96658 0.09217
 H645 H 0.16968 0.88719 0.23982
 H646 H 0.14401 0.91511 0.20131
 H647 H 0.05882 0.88621 0.23607
 H648 H 0.08487 0.85781 0.27415
 H649 H 0.05224 0.88249 0.18290
 H650 H 0.02912 0.90603 0.14014
 H651 H 0.08900 0.98064 0.14924
 H652 H 0.11195 0.95760 0.19252
 C653 C 0.88611 0.39039 0.14790
 C654 C 0.89164 0.39778 0.17325
 C655 C 0.89874 0.40659 0.20336
 C656 C 0.90183 0.38491 0.22507
 C657 C 0.90973 0.39335 0.25409
 C658 C 0.91467 0.42363 0.26179
 C659 C 0.91121 0.44529 0.23986
 C660 C 0.90332 0.43679 0.21085
 C661 C 0.92402 0.43254 0.29236
 C662 C 0.91249 0.45877 0.30641
 C663 C 0.92188 0.46745 0.33492
 C664 C 0.94289 0.45006 0.34974
 C665 C 0.95435 0.42385 0.33604
 C666 C 0.94499 0.41512 0.30756
 C667 C 0.95314 0.45929 0.37879
 C668 C 0.96213 0.46690 0.40300
 H669 H 0.89831 0.36147 0.21952
 H670 H 0.91184 0.37621 0.27055
 H671 H 0.91524 0.46871 0.24497
 H672 H 0.90112 0.45374 0.19419
 H673 H 0.89606 0.47246 0.29544
 H674 H 0.91283 0.48776 0.34534
 H675 H 0.97073 0.41029 0.34726
 H676 H 0.95461 0.39506 0.29720
   
