data_POSCAR
  _audit_creation_date              2014-09-24
  _audit_creation_method            'ToBaCCo'
  _symmetry_space_group_name_H-M    'P1'
  _symmetry_Int_Tables_number       1
  _symmetry_cell_setting            triclinic
  loop_
  _symmetry_equiv_pos_as_xyz
 x,y,z
_cell_length_a 48.7611
_cell_length_b 48.7711
_cell_length_c 48.7681
_cell_angle_alpha 89.975900
_cell_angle_beta 89.976700
_cell_angle_gamma 90.004500
loop_
  _atom_site_label
  _atom_site_type_symbol
  _atom_site_fract_x
  _atom_site_fract_y
  _atom_site_fract_z
C1 C 0.20443 0.19167 0.23122
 C2 C 0.18223 0.19619 0.24896
 C3 C 0.16425 0.21837 0.24475
 C4 C 0.16879 0.23608 0.22241
 C5 C 0.19087 0.23177 0.20446
 C6 C 0.20877 0.20950 0.20887
 C7 C 0.22232 0.16956 0.23550
 C8 C 0.24456 0.16491 0.21769
 C9 C 0.24871 0.18282 0.19542
 C10 C 0.23101 0.20505 0.19093
 C11 C 0.23522 0.22290 0.16874
 C12 C 0.21743 0.24516 0.16414
 C13 C 0.19528 0.24940 0.18216
 H14 H 0.17902 0.18240 0.26610
 H15 H 0.15510 0.25322 0.21887
 H16 H 0.21883 0.15594 0.25271
 H17 H 0.26577 0.17953 0.18155
 H18 H 0.25234 0.21934 0.15501
 H19 H 0.18143 0.26647 0.17892
 C20 C 0.70430 0.69120 0.73091
 C21 C 0.68207 0.69564 0.74863
 C22 C 0.66405 0.71779 0.74444
 C23 C 0.66857 0.73555 0.72213
 C24 C 0.69068 0.73132 0.70420
 C25 C 0.70863 0.70908 0.70859
 C26 C 0.72224 0.66913 0.73517
 C27 C 0.74451 0.66456 0.71738
 C28 C 0.74864 0.68250 0.69515
 C29 C 0.73090 0.70470 0.69067
 C30 C 0.73509 0.72258 0.66852
 C31 C 0.71728 0.74482 0.66392
 C32 C 0.69509 0.74899 0.68192
 H33 H 0.67889 0.68181 0.76574
 H34 H 0.65485 0.75267 0.71861
 H35 H 0.71876 0.65547 0.75236
 H36 H 0.76572 0.67927 0.68129
 H37 H 0.75224 0.71908 0.65481
 H38 H 0.68122 0.76605 0.67868
 C39 C 0.29475 0.80920 0.73149
 C40 C 0.31691 0.80468 0.74928
 C41 C 0.33489 0.78249 0.74513
 C42 C 0.33038 0.76476 0.72282
 C43 C 0.30835 0.76907 0.70484
 C44 C 0.29046 0.79136 0.70917
 C45 C 0.27686 0.83133 0.73572
 C46 C 0.25461 0.83610 0.71784
 C47 C 0.25060 0.81808 0.69556
 C48 C 0.26829 0.79582 0.69118
 C49 C 0.26413 0.77794 0.66902
 C50 C 0.28188 0.75564 0.66451
 C51 C 0.30398 0.75141 0.68257
 H52 H 0.32010 0.81848 0.76640
 H53 H 0.34407 0.74760 0.71932
 H54 H 0.28045 0.84485 0.75299
 H55 H 0.23367 0.82123 0.68151
 H56 H 0.24705 0.78149 0.65525
 H57 H 0.31782 0.73431 0.67940
 C58 C 0.79608 0.30889 0.23122
 C59 C 0.81828 0.30455 0.24899
 C60 C 0.83636 0.28230 0.24506
 C61 C 0.83173 0.26442 0.22280
 C62 C 0.80966 0.26860 0.20482
 C63 C 0.79175 0.29089 0.20904
 C64 C 0.77815 0.33100 0.23532
 C65 C 0.75590 0.33548 0.21750
 C66 C 0.75178 0.31742 0.19539
 C67 C 0.76951 0.29519 0.19107
 C68 C 0.76533 0.27719 0.16903
 C69 C 0.78312 0.25491 0.16459
 C70 C 0.80526 0.25080 0.18264
 H71 H 0.82132 0.31860 0.26593
 H72 H 0.84531 0.24717 0.21927
 H73 H 0.78161 0.34477 0.25242
 H74 H 0.73472 0.32058 0.18150
 H75 H 0.74821 0.28065 0.15529
 H76 H 0.81910 0.23370 0.17952
 C77 C 0.79603 0.69109 0.26811
 C78 C 0.81833 0.69543 0.25045
 C79 C 0.83637 0.71771 0.25445
 C80 C 0.83158 0.73562 0.27666
 C81 C 0.80941 0.73143 0.29453
 C82 C 0.79155 0.70912 0.29024
 C83 C 0.77814 0.66894 0.26395
 C84 C 0.75579 0.66446 0.28167
 C85 C 0.75153 0.68255 0.30373
 C86 C 0.76921 0.70482 0.30810
 C87 C 0.76487 0.72283 0.33010
 C88 C 0.78261 0.74513 0.33461
 C89 C 0.80485 0.74925 0.31666
 H90 H 0.82149 0.68136 0.23354
 H91 H 0.84512 0.75288 0.28024
 H92 H 0.78171 0.65515 0.24689
 H93 H 0.73439 0.67940 0.31754
 H94 H 0.74767 0.71936 0.34375
 H95 H 0.81866 0.76637 0.31985
 C96 C 0.29596 0.19131 -0.23159
 C97 C 0.31829 0.19568 -0.24921
 C98 C 0.33629 0.21798 -0.24518
 C99 C 0.33141 0.23590 -0.22299
 C100 C 0.30921 0.23169 -0.20517
 C101 C 0.29140 0.20934 -0.20948
 C102 C 0.27811 0.16912 -0.23578
 C103 C 0.25574 0.16461 -0.21810
 C104 C 0.25140 0.18272 -0.19605
 C105 C 0.26903 0.20502 -0.19166
 C106 C 0.26462 0.22304 -0.16968
 C107 C 0.28232 0.24538 -0.16516
 C108 C 0.30458 0.24952 -0.18307
 H109 H 0.32152 0.18160 -0.26610
 H110 H 0.34491 0.25319 -0.21939
 H111 H 0.28175 0.15533 -0.25281
 H112 H 0.23424 0.17954 -0.18228
 H113 H 0.24740 0.21955 -0.15605
 H114 H 0.31836 0.26665 -0.17987
 C115 C 0.70429 0.30844 -0.23107
 C116 C 0.68204 0.30400 -0.24875
 C117 C 0.66408 0.28166 -0.24474
 C118 C 0.66889 0.26378 -0.22249
 C119 C 0.69101 0.26806 -0.20460
 C120 C 0.70879 0.29044 -0.20890
 C121 C 0.72211 0.33065 -0.23524
 C122 C 0.74441 0.33522 -0.21750
 C123 C 0.74869 0.31716 -0.19540
 C124 C 0.73108 0.29483 -0.19101
 C125 C 0.73544 0.27685 -0.16899
 C126 C 0.71777 0.25448 -0.16447
 C127 C 0.69558 0.25028 -0.18244
 H128 H 0.67886 0.31805 -0.26568
 H129 H 0.65540 0.24647 -0.21890
 H130 H 0.71853 0.34441 -0.25232
 H131 H 0.76578 0.32038 -0.18157
 H132 H 0.75259 0.28039 -0.15531
 H133 H 0.68182 0.23311 -0.17925
 C134 C 0.20501 0.80918 0.26843
 C135 C 0.18285 0.80461 0.25065
 C136 C 0.16493 0.78236 0.25481
 C137 C 0.16950 0.76462 0.27711
 C138 C 0.19153 0.76897 0.29507
 C139 C 0.20936 0.79132 0.29074
 C140 C 0.22286 0.83136 0.26422
 C141 C 0.24510 0.83616 0.28210
 C142 C 0.24915 0.81812 0.30437
 C143 C 0.23152 0.79580 0.30874
 C144 C 0.23574 0.77791 0.33088
 C145 C 0.21805 0.75555 0.33539
 C146 C 0.19595 0.75129 0.31733
 H147 H 0.17962 0.81842 0.23354
 H148 H 0.15587 0.74742 0.28060
 H149 H 0.21924 0.84490 0.24696
 H150 H 0.26608 0.82129 0.31842
 H151 H 0.25281 0.78149 0.34465
 H152 H 0.18216 0.73415 0.32050
 C153 C 0.44160 0.45449 0.48170
 C154 C 0.44607 0.43228 0.49944
 C155 C 0.46825 0.41429 0.49527
 C156 C 0.48601 0.41882 0.47296
 C157 C 0.48176 0.44090 0.45500
 C158 C 0.45949 0.45882 0.45938
 C159 C 0.41949 0.47241 0.48593
 C160 C 0.41490 0.49464 0.46810
 C161 C 0.43286 0.49877 0.44588
 C162 C 0.45509 0.48106 0.44144
 C163 C 0.47297 0.48526 0.41928
 C164 C 0.49523 0.46747 0.41470
 C165 C 0.49943 0.44531 0.43272
 H166 H 0.43224 0.42909 0.51655
 H167 H 0.50315 0.40511 0.46945
 H168 H 0.40582 0.46893 0.50311
 H169 H 0.42962 0.51582 0.43199
 H170 H 0.46943 0.50238 0.40557
 H171 H 0.51651 0.43146 0.42949
 C172 C -0.05885 -0.04557 0.98130
 C173 C -0.05441 -0.06783 0.99899
 C174 C -0.03227 -0.08586 0.99475
 C175 C -0.01452 -0.08130 0.97246
 C176 C -0.01874 -0.05916 0.95457
 C177 C -0.04098 -0.04122 0.95899
 C178 C -0.08092 -0.02762 0.98562
 C179 C -0.08561 -0.00527 0.96784
 C180 C -0.06757 -0.00121 0.94556
 C181 C -0.04536 -0.01895 0.94110
 C182 C -0.02745 -0.01472 0.91896
 C183 C -0.00520 -0.03251 0.91436
 C184 C -0.00105 -0.05472 0.93232
 H185 H -0.06823 -0.07105 1.01610
 H186 H 0.00260 -0.09502 0.96890
 H187 H -0.09446 -0.03125 1.00288
 H188 H -0.07066 0.01580 0.93159
 H189 H -0.03095 0.00244 0.90527
 H190 H 0.01601 -0.06859 0.92907
 C191 C 1.05883 0.54537 0.98175
 C192 C 1.05436 0.56755 0.99953
 C193 C 1.03208 0.58558 0.99553
 C194 C 1.01427 0.58090 0.97322
 C195 C 1.01857 0.55886 0.95525
 C196 C 1.04091 0.54102 0.95952
 C197 C 1.08100 0.52749 0.98592
 C198 C 1.08572 0.50522 0.96806
 C199 C 1.06763 0.50119 0.94585
 C200 C 1.04534 0.51885 0.94153
 C201 C 1.02741 0.51463 0.91943
 C202 C 1.00507 0.53233 0.91496
 C203 C 1.00084 0.55443 0.93303
 H204 H 1.06835 0.57063 1.01652
 H205 H 0.99699 0.59442 0.96964
 H206 H 1.09459 0.53111 1.00313
 H207 H 1.07074 0.48424 0.93181
 H208 H 1.03096 0.49755 0.90567
 H209 H 0.98370 0.56822 0.92987
 C210 C 0.55908 0.04494 0.48164
 C211 C 0.55464 0.06711 0.49944
 C212 C 0.53244 0.08510 0.49537
 C213 C 0.51462 0.08060 0.47313
 C214 C 0.51884 0.05855 0.45514
 C215 C 0.54115 0.04065 0.45940
 C216 C 0.58122 0.02704 0.48579
 C217 C 0.58591 0.00479 0.46790
 C218 C 0.56779 0.00079 0.44569
 C219 C 0.54552 0.01848 0.44139
 C220 C 0.52755 0.01431 0.41931
 C221 C 0.50523 0.03206 0.41488
 C222 C 0.50108 0.05417 0.43294
 H223 H 0.56851 0.07028 0.51650
 H224 H 0.49745 0.09429 0.46970
 H225 H 0.59481 0.03062 0.50300
 H226 H 0.57088 -0.01615 0.43164
 H227 H 0.53105 -0.00278 0.40555
 H228 H 0.48397 0.06800 0.42982
 C229 C -0.05912 0.04585 0.51873
 C230 C -0.05471 0.06816 0.50110
 C231 C -0.03254 0.08615 0.50530
 C232 C -0.01473 0.08152 0.52753
 C233 C -0.01892 0.05933 0.54536
 C234 C -0.04118 0.04141 0.54096
 C235 C -0.08121 0.02794 0.51446
 C236 C -0.08575 0.00559 0.53216
 C237 C -0.06774 0.00135 0.55431
 C238 C -0.04551 0.01906 0.55880
 C239 C -0.02756 0.01475 0.58086
 C240 C -0.00530 0.03254 0.58546
 C241 C -0.00118 0.05481 0.56755
 H242 H -0.06859 0.07143 0.48405
 H243 H 0.00242 0.09521 0.53106
 H244 H -0.09493 0.03151 0.49734
 H245 H -0.07093 -0.01579 0.56810
 H246 H -0.03103 -0.00245 0.59450
 H247 H 0.01589 0.06866 0.57079
 C248 C 0.44099 0.54589 0.01837
 C249 C 0.44543 0.56813 0.00067
 C250 C 0.46774 0.58612 0.00468
 C251 C 0.48560 0.58133 0.02694
 C252 C 0.48131 0.55922 0.04485
 C253 C 0.45896 0.54141 0.04055
 C254 C 0.41880 0.52805 0.01419
 C255 C 0.41422 0.50576 0.03194
 C256 C 0.43225 0.50149 0.05407
 C257 C 0.45456 0.51912 0.05846
 C258 C 0.47251 0.51480 0.08051
 C259 C 0.49485 0.53250 0.08503
 C260 C 0.49906 0.55468 0.06703
 H261 H 0.43140 0.57129 -0.01628
 H262 H 0.50289 0.59483 0.03053
 H263 H 0.40506 0.53163 -0.00290
 H264 H 0.42901 0.48440 0.06790
 H265 H 0.46897 0.49765 0.09420
 H266 H 0.51621 0.56845 0.07022
 C267 C 0.55913 -0.04578 0.01942
 C268 C 0.55463 -0.06797 0.00170
 C269 C 0.53236 -0.08587 0.00583
 C270 C 0.51456 -0.08126 0.02808
 C271 C 0.51884 -0.05918 0.04600
 C272 C 0.54120 -0.04135 0.04167
 C273 C 0.58132 -0.02795 0.01522
 C274 C 0.58594 -0.00571 0.03301
 C275 C 0.56794 -0.00148 0.05517
 C276 C 0.54562 -0.01910 0.05959
 C277 C 0.52767 -0.01482 0.08168
 C278 C 0.50532 -0.03252 0.08619
 C279 C 0.50111 -0.05468 0.06820
 H280 H 0.56850 -0.07123 -0.01536
 H281 H 0.49734 -0.09489 0.03155
 H282 H 0.59502 -0.03150 -0.00192
 H283 H 0.57120 0.01558 0.06903
 H284 H 0.53121 0.00231 0.09538
 H285 H 0.48397 -0.06847 0.07138
 C286 C 1.05857 0.45458 0.51841
 C287 C 1.05407 0.43243 0.50063
 C288 C 1.03176 0.41442 0.50465
 C289 C 1.01398 0.41910 0.52700
 C290 C 1.01832 0.44112 0.54499
 C291 C 1.04067 0.45894 0.54068
 C292 C 1.08076 0.47244 0.51423
 C293 C 1.08539 0.49463 0.53208
 C294 C 1.06742 0.49878 0.55428
 C295 C 1.04512 0.48113 0.55867
 C296 C 1.02724 0.48535 0.58080
 C297 C 1.00490 0.46763 0.58532
 C298 C 1.00063 0.44555 0.56725
 H299 H 1.06805 0.42935 0.48362
 H300 H 0.99669 0.40559 0.53060
 H301 H 1.09445 0.46895 0.49708
 H302 H 1.07069 0.51580 0.56818
 H303 H 1.03082 0.50243 0.59456
 H304 H 0.98349 0.43176 0.57044
 C305 C 0.41714 0.01250 0.21425
 H306 H 0.41879 0.03067 0.22688
 C307 C 0.43512 0.00868 0.19229
 H308 H 0.45049 0.02414 0.18811
 C309 C 0.39521 -0.02980 0.20481
 H310 H 0.37990 -0.04494 0.20997
 C311 C 0.41271 -0.03442 0.18261
 H312 H 0.41044 -0.05310 0.17083
 N313 N 0.39752 -0.00648 0.21992
 C314 C 0.33203 0.03651 0.26301
 H315 H 0.33033 0.02396 0.28124
 C316 C 0.31421 0.05858 0.25914
 H317 H 0.29890 0.06291 0.27462
 C318 C 0.35394 0.04566 0.22062
 H319 H 0.36916 0.04034 0.20544
 C320 C 0.33659 0.06796 0.21594
 H321 H 0.33890 0.07965 0.19720
 Zn322 Zn 0.37447 -0.00004 0.25050
 N323 N 0.35157 0.03064 0.24401
 C324 C 0.39520 0.02966 0.29624
 N325 N 0.39744 0.00632 0.28115
 C326 C 0.41697 -0.01274 0.28686
 C327 C 0.43492 -0.00896 0.30884
 C328 C 0.41267 0.03424 0.31845
 C329 C 0.33179 -0.03625 0.23787
 C330 C 0.31387 -0.05827 0.24162
 C331 C 0.33634 -0.06815 0.28464
 C332 C 0.35376 -0.04587 0.28011
 N333 N 0.35141 -0.03064 0.25686
 H334 H 0.37999 0.04488 0.29103
 H335 H 0.41858 -0.03091 0.27425
 H336 H 0.45022 -0.02448 0.31305
 H337 H 0.41046 0.05293 0.33021
 H338 H 0.33011 -0.02356 0.21975
 H339 H 0.29850 -0.06242 0.22615
 H340 H 0.33866 -0.08003 0.30325
 H341 H 0.36905 -0.04076 0.29527
 C342 C 0.31640 0.07471 0.23536
 C343 C 0.43299 -0.01503 0.17607
 C344 C 0.31607 -0.07464 0.26523
 C345 C 0.43286 0.01477 0.32504
 C346 C 0.08278 -0.01267 0.71348
 H347 H 0.08113 -0.03086 0.72608
 C348 C 0.06484 -0.00882 0.69151
 H349 H 0.04949 -0.02430 0.68730
 C350 C 0.10467 0.02968 0.70412
 H351 H 0.11993 0.04485 0.70932
 C352 C 0.08720 0.03434 0.68192
 H353 H 0.08945 0.05304 0.67017
 N354 N 0.10237 0.00633 0.71919
 C355 C 0.16798 -0.03645 0.76230
 H356 H 0.16972 -0.02377 0.78042
 C357 C 0.18586 -0.05849 0.75851
 H358 H 0.20125 -0.06267 0.77394
 C359 C 0.14589 -0.04600 0.72011
 H360 H 0.13058 -0.04084 0.70498
 C361 C 0.16327 -0.06829 0.71553
 H362 H 0.16090 -0.08015 0.69692
 Zn363 Zn 0.12539 -0.00013 0.74978
 N364 N 0.14833 -0.03079 0.74335
 C365 C 0.10468 -0.02988 0.79551
 N366 N 0.10240 -0.00653 0.78043
 C367 C 0.08287 0.01251 0.78617
 C368 C 0.06493 0.00870 0.80817
 C369 C 0.08721 -0.03450 0.81774
 C370 C 0.16796 0.03622 0.73712
 C371 C 0.18588 0.05823 0.74091
 C372 C 0.16361 0.06777 0.78412
 C373 C 0.14616 0.04553 0.77953
 N374 N 0.14843 0.03047 0.75618
 H375 H 0.11991 -0.04507 0.79028
 H376 H 0.08125 0.03070 0.77358
 H377 H 0.04962 0.02420 0.81241
 H378 H 0.08944 -0.05321 0.82949
 H379 H 0.16958 0.02364 0.71893
 H380 H 0.20118 0.06249 0.72539
 H381 H 0.16137 0.07951 0.80282
 H382 H 0.13094 0.04030 0.79474
 C383 C 0.18358 -0.07482 0.73489
 C384 C 0.06695 0.01492 0.67532
 C385 C 0.18379 0.07442 0.76465
 C386 C 0.06701 -0.01505 0.82436
 C387 C 0.58270 0.48731 0.21322
 H388 H 0.58110 0.46907 0.22576
 C389 C 0.56481 0.49114 0.19120
 H390 H 0.54954 0.47562 0.18690
 C391 C 0.60445 0.52977 0.20404
 H392 H 0.61963 0.54499 0.20933
 C393 C 0.58703 0.53441 0.18179
 H394 H 0.58925 0.55316 0.17010
 N395 N 0.60220 0.50637 0.21904
 C396 C 0.66774 0.46359 0.26222
 H397 H 0.66934 0.47617 0.28042
 C398 C 0.68569 0.44162 0.25843
 H399 H 0.70099 0.43739 0.27395
 C400 C 0.64598 0.45425 0.21982
 H401 H 0.63076 0.45947 0.20462
 C402 C 0.66346 0.43204 0.21522
 H403 H 0.66125 0.42030 0.19651
 Zn404 Zn 0.62521 0.49991 0.24964
 N405 N 0.64821 0.46932 0.24318
 C406 C 0.60454 0.47003 0.29531
 N407 N 0.60226 0.49342 0.28030
 C408 C 0.58277 0.51248 0.28617
 C409 C 0.56493 0.50865 0.30824
 C410 C 0.58717 0.46539 0.31761
 C411 C 0.66773 0.53626 0.23696
 C412 C 0.68567 0.55824 0.24073
 C413 C 0.66348 0.56779 0.28398
 C414 C 0.64600 0.54557 0.27941
 N415 N 0.64822 0.53051 0.25604
 H416 H 0.61971 0.45482 0.28998
 H417 H 0.58113 0.53071 0.27363
 H418 H 0.54966 0.52417 0.31258
 H419 H 0.58941 0.44665 0.32931
 H420 H 0.66931 0.52368 0.21876
 H421 H 0.70095 0.56249 0.22519
 H422 H 0.66129 0.57952 0.30269
 H423 H 0.63081 0.54033 0.29464
 C424 C 0.68364 0.42544 0.23469
 C425 C 0.56689 0.51494 0.17508
 C426 C 0.68364 0.57442 0.26448
 C427 C 0.56704 0.48486 0.32437
 C428 C 0.91735 0.51246 0.71386
 H429 H 0.91899 0.53067 0.72642
 C430 C 0.93522 0.50864 0.69182
 H431 H 0.95052 0.52415 0.68752
 C432 C 0.89551 0.47006 0.70463
 H433 H 0.88029 0.45487 0.70991
 C434 C 0.91291 0.46544 0.68235
 H435 H 0.91065 0.44673 0.67063
 N436 N 0.89781 0.49343 0.71966
 C437 C 0.83234 0.53643 0.76274
 H438 H 0.83069 0.52391 0.78099
 C439 C 0.81446 0.55845 0.75886
 H440 H 0.79917 0.56278 0.77436
 C441 C 0.85415 0.54556 0.72029
 H442 H 0.86936 0.54024 0.70510
 C443 C 0.83675 0.56781 0.71560
 H444 H 0.83900 0.57948 0.69685
 Zn445 Zn 0.87479 0.49994 0.75025
 N446 N 0.85186 0.53058 0.74371
 C447 C 0.89551 0.52981 0.79588
 N448 N 0.89776 0.50641 0.78089
 C449 C 0.91723 0.48733 0.78673
 C450 C 0.93511 0.49115 0.80876
 C451 C 0.91292 0.53443 0.81814
 C452 C 0.83224 0.46361 0.73765
 C453 C 0.81431 0.44161 0.74146
 C454 C 0.83649 0.43211 0.78473
 C455 C 0.85395 0.45434 0.78011
 N456 N 0.85174 0.46937 0.75672
 H457 H 0.88034 0.54503 0.79058
 H458 H 0.91884 0.46910 0.77420
 H459 H 0.95037 0.47562 0.81308
 H460 H 0.91070 0.55317 0.82983
 H461 H 0.83066 0.47616 0.71943
 H462 H 0.79904 0.43734 0.72593
 H463 H 0.83868 0.42039 0.80345
 H464 H 0.86914 0.45959 0.79533
 C465 C 0.81658 0.57455 0.73505
 C466 C 0.93309 0.48490 0.67565
 C467 C 0.81634 0.42545 0.76523
 C468 C 0.93304 0.51494 0.82487
 C469 C 0.21312 0.41827 0.01216
 H470 H 0.22584 0.41992 0.03026
 C471 C 0.19112 0.43621 0.00845
 H472 H 0.18699 0.45156 0.02393
 C473 C 0.20347 0.39634 -0.03009
 H474 H 0.20858 0.38107 -0.04528
 C475 C 0.18121 0.41378 -0.03458
 H476 H 0.16932 0.41150 -0.05319
 N477 N 0.21872 0.39867 -0.00687
 C478 C 0.26202 0.33299 0.03564
 H479 H 0.28019 0.33138 0.02299
 C480 C 0.25826 0.31504 0.05763
 H481 H 0.27377 0.29972 0.06182
 C482 C 0.21967 0.35483 0.04513
 H483 H 0.20449 0.37009 0.03997
 C484 C 0.21510 0.33735 0.06735
 H485 H 0.19644 0.33960 0.07917
 Zn486 Zn 0.24937 0.37567 -0.00057
 N487 N 0.24298 0.35256 0.02998
 C488 C 0.29506 0.39627 0.02926
 N489 N 0.27999 0.39864 0.00592
 C490 C 0.28575 0.41824 -0.01306
 C491 C 0.30778 0.43612 -0.00921
 C492 C 0.31732 0.41367 0.03392
 C493 C 0.23681 0.33325 -0.03709
 C494 C 0.24068 0.31539 -0.05913
 C495 C 0.28386 0.33777 -0.06860
 C496 C 0.27919 0.35515 -0.04633
 N497 N 0.25581 0.35280 -0.03128
 H498 H 0.28982 0.38099 0.04441
 H499 H 0.27316 0.41995 -0.03124
 H500 H 0.31204 0.45148 -0.02467
 H501 H 0.32907 0.41135 0.05260
 H502 H 0.21860 0.33154 -0.02452
 H503 H 0.22520 0.30006 -0.06342
 H504 H 0.30258 0.34006 -0.08031
 H505 H 0.29436 0.37037 -0.04105
 C506 C 0.23457 0.31714 0.07390
 C507 C 0.17475 0.43405 -0.01516
 C508 C 0.26445 0.31756 -0.07529
 C509 C 0.32397 0.43392 0.01452
 C510 C 0.71450 0.08168 -0.01218
 H511 H 0.72704 0.07999 -0.03040
 C512 C 0.69245 0.06382 -0.00828
 H513 H 0.68814 0.04850 -0.02375
 C514 C 0.70529 0.10359 0.03018
 H515 H 0.71058 0.11884 0.04532
 C516 C 0.68302 0.08621 0.03488
 H517 H 0.67130 0.08851 0.05360
 N518 N 0.72031 0.10125 0.00679
 C519 C 0.76332 0.16675 -0.03631
 H520 H 0.78155 0.16845 -0.02378
 C521 C 0.75941 0.18461 -0.05835
 H522 H 0.77486 0.19995 -0.06267
 C523 C 0.72095 0.14480 -0.04545
 H524 H 0.70581 0.12956 -0.04014
 C525 C 0.71624 0.16219 -0.06772
 H526 H 0.69750 0.15988 -0.07940
 Zn527 Zn 0.75091 0.12424 0.00020
 N528 N 0.74435 0.14717 -0.03046
 C529 C 0.79670 0.10368 -0.02956
 N530 N 0.78155 0.10128 -0.00626
 C531 C 0.78724 0.08165 0.01271
 C532 C 0.80924 0.06374 0.00886
 C533 C 0.81897 0.08627 -0.03418
 C534 C 0.73836 0.16685 0.03646
 C535 C 0.74216 0.18478 0.05844
 C536 C 0.78533 0.16246 0.06806
 C537 C 0.78072 0.14500 0.04585
 N538 N 0.75738 0.14729 0.03075
 H539 H 0.79153 0.11898 -0.04470
 H540 H 0.77460 0.07994 0.03087
 H541 H 0.81344 0.04835 0.02431
 H542 H 0.83078 0.08860 -0.05284
 H543 H 0.72017 0.16847 0.02387
 H544 H 0.72666 0.20010 0.06266
 H545 H 0.80402 0.16022 0.07983
 H546 H 0.79590 0.12974 0.04065
 C547 C 0.73562 0.18242 -0.07446
 C548 C 0.67630 0.06601 0.01548
 C549 C 0.76588 0.18268 0.07465
 C550 C 0.82552 0.06596 -0.01482
 C551 C 0.21379 0.58251 0.48732
 H552 H 0.22639 0.58091 0.46912
 C553 C 0.19177 0.56459 0.49109
 H554 H 0.18753 0.54931 0.47556
 C555 C 0.20444 0.60424 0.52974
 H556 H 0.20967 0.61943 0.54496
 C557 C 0.18219 0.58680 0.53432
 H558 H 0.17044 0.58900 0.55303
 N559 N 0.21952 0.60201 0.50638
 C560 C 0.26286 0.66752 0.46361
 H561 H 0.28105 0.66912 0.47621
 C562 C 0.25910 0.68545 0.44161
 H563 H 0.27462 0.70074 0.43737
 C564 C 0.22045 0.64575 0.45427
 H565 H 0.20522 0.63055 0.45950
 C566 C 0.21587 0.66321 0.43203
 H567 H 0.19717 0.66100 0.42028
 Zn568 Zn 0.25015 0.62502 0.50000
 N569 N 0.24379 0.64800 0.46935
 C570 C 0.29589 0.60427 0.47032
 N571 N 0.28080 0.60205 0.49368
 C572 C 0.28656 0.58258 0.51279
 C573 C 0.30859 0.56468 0.50905
 C574 C 0.31815 0.58684 0.46578
 C575 C 0.23735 0.66755 0.53629
 C576 C 0.24108 0.68550 0.55827
 C577 C 0.28433 0.66335 0.56791
 C578 C 0.27980 0.64587 0.54570
 N579 N 0.25646 0.64806 0.53060
 H580 H 0.29065 0.61944 0.45507
 H581 H 0.27396 0.58099 0.53098
 H582 H 0.31284 0.54942 0.52461
 H583 H 0.32991 0.58904 0.44707
 H584 H 0.21917 0.66911 0.52368
 H585 H 0.22552 0.70077 0.56247
 H586 H 0.30303 0.66118 0.57968
 H587 H 0.29505 0.63069 0.54050
 C588 C 0.23536 0.68339 0.42542
 C589 C 0.17557 0.56665 0.51483
 C590 C 0.26480 0.68349 0.57448
 C591 C 0.32479 0.56672 0.48531
 C592 C 0.71337 0.91791 0.51193
 H593 H 0.72607 0.91958 0.53003
 C594 C 0.69135 0.93584 0.50821
 H595 H 0.68721 0.95119 0.52369
 C596 C 0.70375 0.89598 0.46968
 H597 H 0.70887 0.88070 0.45450
 C598 C 0.68147 0.91340 0.46518
 H599 H 0.66958 0.91111 0.44657
 N600 N 0.71898 0.89832 0.49291
 C601 C 0.76217 0.83267 0.53555
 H602 H 0.78037 0.83104 0.52296
 C603 C 0.75834 0.81473 0.55755
 H604 H 0.77384 0.79941 0.56178
 C605 C 0.71979 0.85451 0.54490
 H606 H 0.70462 0.86976 0.53970
 C607 C 0.71516 0.83705 0.56713
 H608 H 0.69646 0.83930 0.57889
 Zn609 Zn 0.74962 0.87532 0.49927
 N610 N 0.74315 0.85223 0.52982
 C611 C 0.79526 0.89592 0.52919
 N612 N 0.78022 0.89829 0.50582
 C613 C 0.78602 0.91789 0.48686
 C614 C 0.80803 0.93578 0.49075
 C615 C 0.81750 0.91334 0.53389
 C616 C 0.73712 0.83290 0.46273
 C617 C 0.74101 0.81507 0.44068
 C618 C 0.78421 0.83744 0.43128
 C619 C 0.77952 0.85480 0.45356
 N620 N 0.75613 0.85244 0.46858
 H621 H 0.78999 0.88065 0.54433
 H622 H 0.77346 0.91959 0.46865
 H623 H 0.81231 0.95114 0.47529
 H624 H 0.82922 0.91102 0.55260
 H625 H 0.71890 0.83120 0.47528
 H626 H 0.72554 0.79975 0.43637
 H627 H 0.80295 0.83973 0.41959
 H628 H 0.79469 0.87002 0.45887
 C629 C 0.73460 0.81684 0.57375
 C630 C 0.67498 0.93366 0.48460
 C631 C 0.76480 0.81724 0.42455
 C632 C 0.82418 0.93359 0.51450
 C633 C 0.01216 0.21477 0.41775
 H634 H 0.03030 0.22743 0.41944
 C635 C 0.00836 0.19274 0.43564
 H636 H 0.02383 0.18855 0.45101
 C637 C -0.03011 0.20528 0.39577
 H638 H -0.04526 0.21045 0.38047
 C639 C -0.03471 0.18302 0.41319
 H640 H -0.05336 0.17120 0.41088
 N641 N -0.00682 0.22044 0.39813
 C642 C 0.03597 0.26356 0.33252
 H643 H 0.02333 0.28171 0.33079
 C644 C 0.05800 0.25971 0.31463
 H645 H 0.06222 0.27515 0.29924
 C646 C 0.04537 0.22129 0.35456
 H647 H 0.04015 0.20615 0.36985
 C648 C 0.06762 0.21664 0.33714
 H649 H 0.07940 0.19797 0.33948
 Zn650 Zn -0.00042 0.25103 0.37509
 N651 N 0.03025 0.24460 0.35215
 C652 C 0.02915 0.29696 0.39555
 N653 N 0.00591 0.28172 0.39800
 C654 C -0.01303 0.28734 0.41767
 C655 C -0.00923 0.30935 0.43558
 C656 C 0.03373 0.31922 0.41295
 C657 C -0.03648 0.23833 0.33237
 C658 C -0.05843 0.24202 0.31438
 C659 C -0.06859 0.28494 0.33693
 C660 C -0.04637 0.28046 0.35443
 N661 N -0.03102 0.25730 0.35205
 H662 H 0.04428 0.29183 0.38022
 H663 H -0.03114 0.27464 0.41944
 H664 H -0.02465 0.31349 0.45101
 H665 H 0.05235 0.33109 0.41058
 H666 H -0.02369 0.22028 0.33069
 H667 H -0.06244 0.22658 0.29896
 H668 H -0.08056 0.30349 0.33924
 H669 H -0.04138 0.29560 0.36978
 C670 C 0.07423 0.23601 0.31685
 C671 C -0.01531 0.17646 0.43345
 C672 C -0.07490 0.26556 0.31657
 C673 C 0.01439 0.32569 0.43331
 C674 C -0.01249 0.71290 0.08231
 H675 H -0.03059 0.72561 0.08055
 C676 C -0.00870 0.69087 0.06443
 H677 H -0.02413 0.68671 0.04902
 C678 C 0.02969 0.70331 0.10440
 H679 H 0.04482 0.70845 0.11972
 C680 C 0.03426 0.68101 0.08703
 H681 H 0.05287 0.66914 0.08940
 N682 N 0.00646 0.71855 0.10196
 C683 C -0.03607 0.76183 0.16764
 H684 H -0.02333 0.77992 0.16934
 C685 C -0.05807 0.75809 0.18558
 H686 H -0.06217 0.77353 0.20099
 C687 C -0.04580 0.71968 0.14557
 H688 H -0.04074 0.70455 0.13022
 C689 C -0.06807 0.71515 0.16302
 H690 H -0.07999 0.69657 0.16067
 Zn691 Zn 0.00008 0.74924 0.12488
 N692 N -0.03051 0.74288 0.14797
 C693 C -0.02971 0.79496 0.10426
 N694 N -0.00642 0.77981 0.10184
 C695 C 0.01253 0.78551 0.08219
 C696 C 0.00870 0.80755 0.06431
 C697 C -0.03435 0.81723 0.08686
 C698 C 0.03660 0.73684 0.16737
 C699 C 0.05867 0.74076 0.18518
 C700 C 0.06812 0.78385 0.16263
 C701 C 0.04582 0.77913 0.14530
 N702 N 0.03077 0.75577 0.14775
 H703 H -0.04483 0.78978 0.11959
 H704 H 0.03068 0.77287 0.08046
 H705 H 0.02414 0.81176 0.04892
 H706 H -0.05299 0.82904 0.08922
 H707 H 0.02402 0.71865 0.16916
 H708 H 0.06297 0.72533 0.20056
 H709 H 0.07984 0.80255 0.16025
 H710 H 0.04053 0.79425 0.13002
 C711 C -0.07449 0.73452 0.18335
 C712 C 0.01491 0.67451 0.06671
 C713 C 0.07483 0.76450 0.18290
 C714 C -0.01497 0.82382 0.06656
 C715 C 0.48783 0.21344 0.58327
 H716 H 0.46971 0.22613 0.58157
 C717 C 0.49159 0.19142 0.56537
 H718 H 0.47613 0.18728 0.55000
 C719 C 0.53008 0.20386 0.60526
 H720 H 0.54523 0.20899 0.62055
 C721 C 0.53464 0.18161 0.58782
 H722 H 0.55327 0.16976 0.59014
 N723 N 0.50682 0.21907 0.60289
 C724 C 0.46411 0.26228 0.66849
 H725 H 0.47683 0.28037 0.67025
 C726 C 0.44203 0.25851 0.68634
 H727 H 0.43786 0.27394 0.70174
 C728 C 0.45451 0.22012 0.64638
 H729 H 0.45965 0.20499 0.63106
 C730 C 0.43217 0.21557 0.66373
 H731 H 0.42028 0.19698 0.66134
 Zn732 Zn 0.50044 0.24970 0.62587
 N733 N 0.46976 0.24333 0.64884
 C734 C 0.47080 0.29550 0.60520
 N735 N 0.49409 0.28034 0.60286
 C736 C 0.51310 0.28602 0.58326
 C737 C 0.50931 0.30803 0.56533
 C738 C 0.46621 0.31774 0.58775
 C739 C 0.53670 0.23711 0.66853
 C740 C 0.55871 0.24090 0.68644
 C741 C 0.56859 0.28386 0.66383
 C742 C 0.54632 0.27929 0.64642
 N743 N 0.53108 0.25606 0.64886
 H744 H 0.45563 0.29033 0.62049
 H745 H 0.53124 0.27336 0.58157
 H746 H 0.52479 0.31221 0.54996
 H747 H 0.44755 0.32955 0.59004
 H748 H 0.52399 0.21901 0.67028
 H749 H 0.56285 0.22547 0.70186
 H750 H 0.58047 0.30247 0.66146
 H751 H 0.54121 0.29442 0.63109
 C752 C 0.42565 0.23493 0.68404
 C753 C 0.51524 0.17510 0.56755
 C754 C 0.57507 0.26451 0.68417
 C755 C 0.48563 0.32429 0.56748
 C756 C 0.51229 0.71345 0.91780
 H757 H 0.53042 0.72612 0.91949
 C758 C 0.50852 0.69142 0.93571
 H759 H 0.52399 0.68723 0.95107
 C760 C 0.47001 0.70393 0.89585
 H761 H 0.45484 0.70909 0.88059
 C762 C 0.46546 0.68164 0.91326
 H763 H 0.44682 0.66980 0.91095
 N764 N 0.49328 0.71912 0.89821
 C765 C 0.53588 0.76251 0.83264
 H766 H 0.52327 0.78069 0.83106
 C767 C 0.55786 0.75875 0.81467
 H768 H 0.56206 0.77427 0.79936
 C769 C 0.54530 0.72011 0.85441
 H770 H 0.54012 0.70490 0.86964
 C771 C 0.56751 0.71554 0.83690
 H772 H 0.57928 0.69685 0.83910
 Zn773 Zn 0.49963 0.74980 0.87527
 N774 N 0.53020 0.74344 0.85218
 C775 C 0.52950 0.79540 0.89599
 N776 N 0.50613 0.78035 0.89829
 C777 C 0.48713 0.78608 0.91788
 C778 C 0.49099 0.80805 0.93581
 C779 C 0.53417 0.81760 0.91345
 C780 C 0.46318 0.73731 0.83281
 C781 C 0.44113 0.74116 0.81496
 C782 C 0.43160 0.78428 0.83738
 C783 C 0.45388 0.77962 0.85476
 N784 N 0.46896 0.75628 0.85238
 H785 H 0.54466 0.79018 0.88072
 H786 H 0.46892 0.77351 0.91953
 H787 H 0.47551 0.81229 0.95116
 H788 H 0.55288 0.82932 0.91118
 H789 H 0.47578 0.71913 0.83109
 H790 H 0.43686 0.72570 0.79962
 H791 H 0.41985 0.80297 0.83970
 H792 H 0.45914 0.79478 0.87000
 C793 C 0.57408 0.73502 0.81671
 C794 C 0.48487 0.67511 0.93352
 C795 C 0.42493 0.76488 0.81716
 C796 C 0.51475 0.82421 0.93369
 N797 N 0.12430 0.24526 0.26061
 C798 C 0.14079 0.22301 0.26359
 N799 N 0.13529 0.20508 0.28420
 N800 N 0.11420 0.20920 0.30107
 C801 C 0.09772 0.23145 0.29809
 N802 N 0.10323 0.24940 0.27750
 N803 N 0.63512 0.70430 0.78383
 C804 C 0.64059 0.72232 0.76330
 N805 N 0.62406 0.74456 0.76043
 N806 N 0.60300 0.74861 0.77736
 C807 C 0.59753 0.73056 0.79787
 N808 N 0.61404 0.70832 0.80074
 N809 N 0.36386 0.79582 0.78453
 C810 C 0.35833 0.77786 0.76397
 N811 N 0.37481 0.75560 0.76103
 N812 N 0.39589 0.75147 0.77790
 C813 C 0.40143 0.76944 0.79843
 N814 N 0.38496 0.79171 0.80138
 N815 N -0.12415 0.25641 0.25964
 C816 C -0.14138 0.27807 0.26302
 N817 N -0.13655 0.29555 0.28419
 N818 N -0.11550 0.29160 0.30112
 C819 C -0.09833 0.26994 0.29771
 N820 N -0.10312 0.25242 0.27661
 N821 N -0.13628 0.70445 0.21548
 C822 C -0.14126 0.72195 0.23660
 N823 N -0.12407 0.74364 0.24004
 N824 N -0.10295 0.74764 0.22318
 C825 C -0.09802 0.73010 0.20212
 N826 N -0.11513 0.70842 0.19864
 N827 N 0.37584 0.24398 0.74053
 C828 C 0.35870 0.22226 0.73704
 N829 N 0.36379 0.20477 0.71594
 N830 N 0.38498 0.20877 0.69918
 C831 C 0.40205 0.23048 0.70271
 N832 N 0.39701 0.24801 0.72374
 N833 N 0.62464 0.25558 0.74087
 C834 C 0.64176 0.27732 0.73741
 N835 N 0.63674 0.29479 0.71625
 N836 N 0.61563 0.29074 0.69942
 C837 C 0.59858 0.26900 0.70292
 N838 N 0.60355 0.25149 0.72400
 N839 N 0.13589 0.79561 0.21540
 C840 C 0.14148 0.77768 0.23598
 N841 N 0.12505 0.75537 0.23897
 N842 N 0.10397 0.75118 0.22214
 C843 C 0.09836 0.76913 0.20159
 N844 N 0.11478 0.79144 0.19858
 N845 N 0.28384 0.13578 0.20431
 C846 C 0.26334 0.14141 0.22232
 N847 N 0.26040 0.12500 0.24464
 N848 N 0.27723 0.10389 0.24879
 C849 C 0.29771 0.09825 0.23077
 N850 N 0.30065 0.11464 0.20844
 N851 N 0.76045 0.62469 0.74434
 C852 C 0.76334 0.64110 0.72200
 N853 N 0.78385 0.63551 0.70399
 N854 N 0.80072 0.61443 0.70812
 C855 C 0.79782 0.59803 0.73046
 N856 N 0.77733 0.60363 0.74849
 N857 N 0.78365 0.36432 0.79601
 C858 C 0.76316 0.35877 0.77799
 N859 N 0.76025 0.37529 0.75574
 N860 N 0.77710 0.39640 0.75169
 C861 C 0.79758 0.40195 0.76973
 N862 N 0.80049 0.38545 0.79198
 N863 N 0.25943 -0.12427 0.25614
 C864 C 0.26291 -0.14146 0.27783
 N865 N 0.28404 -0.13645 0.29532
 N866 N 0.30085 -0.11529 0.29134
 C867 C 0.29733 -0.09818 0.26965
 N868 N 0.27627 -0.10314 0.25213
 N869 N 0.24024 -0.12442 0.74385
 C870 C 0.23676 -0.14157 0.72214
 N871 N 0.21561 -0.13655 0.70468
 N872 N 0.19879 -0.11542 0.70871
 C873 C 0.20231 -0.09835 0.73041
 N874 N 0.22339 -0.10332 0.74791
 N875 N 0.73988 0.37546 0.24423
 C876 C 0.73704 0.35895 0.22198
 N877 N 0.71653 0.36442 0.20394
 N878 N 0.69962 0.38549 0.20796
 C879 C 0.70246 0.40199 0.23021
 N880 N 0.72295 0.39651 0.24826
 N881 N 0.71643 0.63549 0.29519
 C882 C 0.73697 0.64097 0.27717
 N883 N 0.73987 0.62443 0.25494
 N884 N 0.72296 0.60336 0.25090
 C885 C 0.70245 0.59788 0.26894
 N886 N 0.69955 0.61440 0.29117
 N887 N 0.23994 0.12454 0.75517
 C888 C 0.23697 0.14108 0.77738
 N889 N 0.21641 0.13558 0.79537
 N890 N 0.19958 0.11445 0.79134
 C891 C 0.20255 0.09792 0.76913
 N892 N 0.22309 0.10343 0.75112
 N893 N 0.20390 0.28444 0.13509
 C894 C 0.22193 0.26393 0.14059
 N895 N 0.24415 0.26101 0.12403
 N896 N 0.24817 0.27787 0.10291
 C897 C 0.23012 0.29836 0.09741
 N898 N 0.20790 0.30128 0.11396
 N899 N 0.74407 0.76072 0.62390
 C900 C 0.72181 0.76362 0.64041
 N901 N 0.70378 0.78412 0.63487
 N902 N 0.70783 0.80097 0.61374
 C903 C 0.73010 0.79807 0.59725
 N904 N 0.74814 0.77758 0.60280
 N905 N 0.75561 0.76110 0.37444
 C906 C 0.77793 0.76401 0.35802
 N907 N 0.79590 0.78456 0.36358
 N908 N 0.79174 0.80143 0.38465
 C909 C 0.76941 0.79850 0.40106
 N910 N 0.75143 0.77798 0.39549
 N911 N 0.29555 0.28484 -0.13623
 C912 C 0.27760 0.26427 -0.14177
 N913 N 0.25528 0.26135 -0.12535
 N914 N 0.25108 0.27826 -0.10431
 C915 C 0.26905 0.29880 -0.09876
 N916 N 0.29138 0.30172 -0.11518
 N917 N 0.74475 0.23860 -0.12460
 C918 C 0.72245 0.23563 -0.14103
 N919 N 0.70453 0.21504 -0.13546
 N920 N 0.70870 0.19818 -0.11438
 C921 C 0.73100 0.20116 -0.09796
 N922 N 0.74894 0.22172 -0.10354
 N923 N 0.24483 0.73964 0.37540
 C924 C 0.22259 0.73673 0.35887
 N925 N 0.20460 0.71618 0.36435
 N926 N 0.20864 0.69929 0.38543
 C927 C 0.23088 0.70220 0.40194
 N928 N 0.24889 0.72273 0.39646
 N929 N 0.25517 0.73970 0.62447
 C930 C 0.27740 0.73683 0.64102
 N931 N 0.29545 0.71633 0.63555
 N932 N 0.29146 0.69944 0.61447
 C933 C 0.26923 0.70230 0.59794
 N934 N 0.25116 0.72279 0.60341
 N935 N 0.75637 0.23890 0.12463
 C936 C 0.77861 0.23603 0.14116
 N937 N 0.79663 0.21550 0.13570
 N938 N 0.79261 0.19860 0.11463
 C939 C 0.77037 0.20148 0.09811
 N940 N 0.75233 0.22199 0.10358
 N941 N 0.49506 0.37430 0.51121
 C942 C 0.47282 0.39083 0.51413
 N943 N 0.45484 0.38537 0.53471
 N944 N 0.45890 0.36429 0.55160
 C945 C 0.48113 0.34777 0.54868
 N946 N 0.49913 0.35324 0.52812
 N947 N -0.00554 0.87404 0.01050
 C948 C -0.02774 0.89060 0.01351
 N949 N -0.04571 0.88508 0.03408
 N950 N -0.04167 0.86392 0.05088
 C951 C -0.01947 0.84737 0.04786
 N952 N -0.00148 0.85290 0.02731
 N953 N 0.04515 0.61281 0.03464
 C954 C 0.02773 0.60786 0.01344
 N955 N 0.00603 0.62503 0.00995
 N956 N 0.00194 0.64609 0.02684
 C957 C 0.01940 0.65100 0.04796
 N958 N 0.04110 0.63391 0.05149
 N959 N 0.50570 0.12510 0.51135
 C960 C 0.52792 0.10854 0.51424
 N961 N 0.54593 0.11398 0.53478
 N962 N 0.54191 0.13506 0.55167
 C963 C 0.51969 0.15161 0.54877
 N964 N 0.50167 0.14617 0.52825
 N965 N -0.04603 0.11524 0.46603
 C966 C -0.02802 0.10971 0.48656
 N967 N -0.00581 0.12625 0.48952
 N968 N -0.00176 0.14739 0.47269
 C969 C -0.01978 0.15292 0.45218
 N970 N -0.04200 0.13639 0.44923
 N971 N 0.45462 0.61343 0.96565
 C972 C 0.47208 0.60843 0.98680
 N973 N 0.49382 0.62556 0.99025
 N974 N 0.49789 0.64665 0.97336
 C975 C 0.48039 0.65160 0.95228
 N976 N 0.45866 0.63454 0.94880
 N977 N 0.50543 0.87425 0.98989
 C978 C 0.52775 0.89068 0.98700
 N979 N 0.54575 0.88514 0.96647
 N980 N 0.54163 0.86408 0.94959
 C981 C 0.51932 0.84766 0.95248
 N982 N 0.50130 0.85321 0.97299
 N983 N 0.00563 0.37505 0.49019
 C984 C 0.02736 0.39219 0.48671
 N985 N 0.04475 0.38727 0.46547
 N986 N 0.04065 0.36622 0.44857
 C987 C 0.01893 0.34915 0.45210
 N988 N 0.00149 0.35403 0.47326
 N989 N 0.38588 0.53393 0.45456
 C990 C 0.39141 0.51346 0.47263
 N991 N 0.37493 0.51062 0.49492
 N992 N 0.35384 0.52750 0.49895
 C993 C 0.34830 0.54795 0.48086
 N994 N 0.36477 0.55079 0.45857
 N995 N 0.88716 0.03386 -0.04517
 C996 C 0.89211 0.01263 -0.02778
 N997 N 0.87495 0.00912 -0.00606
 N998 N 0.85390 0.02603 -0.00193
 C999 C 0.84899 0.04718 -0.01936
 N1000 N 0.86608 0.05073 -0.04107
 N1001 N 0.62598 0.01004 0.00617
 C1002 C 0.60950 0.01302 0.02844
 N1003 N 0.61512 0.03352 0.04643
 N1004 N 0.63629 0.05030 0.04233
 C1005 C 0.65275 0.04732 0.02006
 N1006 N 0.64713 0.02684 0.00205
 N1007 N 0.11447 0.53388 0.54562
 C1008 C 0.10892 0.51342 0.52756
 N1009 N 0.12541 0.51056 0.50528
 N1010 N 0.14651 0.52743 0.50123
 C1011 C 0.15206 0.54787 0.51931
 N1012 N 0.13559 0.55073 0.54159
 N1013 N 0.11299 0.46620 -0.04517
 C1014 C 0.10806 0.48736 -0.02770
 N1015 N 0.12528 0.49081 -0.00604
 N1016 N 0.14637 0.47392 -0.00204
 C1017 C 0.15125 0.45283 -0.01955
 N1018 N 0.13410 0.44935 -0.04121
 N1019 N 0.61318 0.96578 0.45462
 C1020 C 0.60825 0.98692 0.47211
 N1021 N 0.62548 0.99037 0.49376
 N1022 N 0.64658 0.97349 0.49774
 C1023 C 0.65147 0.95242 0.48021
 N1024 N 0.63431 0.94893 0.45856
 N1025 N 0.88524 0.96620 0.54548
 C1026 C 0.89078 0.98678 0.52754
 N1027 N 0.87430 0.98976 0.50528
 N1028 N 0.85322 0.97290 0.50113
 C1029 C 0.84767 0.95234 0.51909
 N1030 N 0.86414 0.94935 0.54136
 N1031 N 0.38513 0.46645 0.04537
 C1032 C 0.39068 0.48701 0.02740
 N1033 N 0.37417 0.49000 0.00516
 N1034 N 0.35305 0.47318 0.00107
 C1035 C 0.34749 0.45264 0.01906
 N1036 N 0.36399 0.44965 0.04130
 N1037 N 0.53448 0.45399 0.38555
 C1038 C 0.51399 0.47202 0.39116
 N1039 N 0.51107 0.49430 0.37469
 N1040 N 0.52788 0.49838 0.35355
 C1041 C 0.54834 0.48034 0.34793
 N1042 N 0.55127 0.45805 0.36439
 N1043 N 0.01078 -0.00565 0.87441
 C1044 C 0.01364 -0.02794 0.89088
 N1045 N 0.03416 -0.04595 0.88536
 N1046 N 0.05106 -0.04187 0.86428
 C1047 C 0.04820 -0.01958 0.84782
 N1048 N 0.02770 -0.00155 0.85335
 N1049 N 0.01069 0.00561 0.62534
 C1050 C 0.01356 0.02792 0.60889
 N1051 N 0.03410 0.04591 0.61440
 N1052 N 0.05101 0.04179 0.63545
 C1053 C 0.04813 0.01948 0.65189
 N1054 N 0.02761 0.00147 0.64637
 N1055 N 0.53421 0.54587 0.11404
 C1056 C 0.51368 0.52788 0.10848
 N1057 N 0.51077 0.50558 0.12494
 N1058 N 0.52764 0.50146 0.14602
 C1059 C 0.54814 0.51948 0.15158
 N1060 N 0.55106 0.54177 0.13513
 N1061 N 0.46585 -0.04588 0.11509
 C1062 C 0.48645 -0.02793 0.10963
 N1063 N 0.48937 -0.00569 0.12615
 N1064 N 0.47242 -0.00159 0.14718
 C1065 C 0.45184 -0.01956 0.15264
 N1066 N 0.44893 -0.04179 0.13613
 N1067 N 0.96561 0.45415 0.61442
 C1068 C 0.98614 0.47216 0.60886
 N1069 N 0.98911 0.49438 0.62539
 N1070 N 0.97230 0.49843 0.64653
 C1071 C 0.95179 0.48041 0.65210
 N1072 N 0.94881 0.45818 0.63558
 N1073 N 0.98916 0.50552 0.87500
 C1074 C 0.98625 0.52778 0.89148
 N1075 N 0.96573 0.54578 0.88595
 N1076 N 0.94888 0.54172 0.86484
 C1077 C 0.95179 0.51946 0.84837
 N1078 N 0.97229 0.50143 0.85392
 N1079 N 0.48919 0.00529 0.37493
 C1080 C 0.48634 0.02753 0.39145
 N1081 N 0.46579 0.04554 0.38602
 N1082 N 0.44885 0.04150 0.36498
 C1083 C 0.45171 0.01925 0.34847
 N1084 N 0.47224 0.00123 0.35391
   
