data_POSCAR
  _audit_creation_date              2014-09-24
  _audit_creation_method            'ToBaCCo'
  _symmetry_space_group_name_H-M    'P1'
  _symmetry_Int_Tables_number       1
  _symmetry_cell_setting            triclinic
  loop_
  _symmetry_equiv_pos_as_xyz
 x,y,z
_cell_length_a 43.1113
_cell_length_b 42.0561
_cell_length_c 15.1463
_cell_angle_alpha 91.348400
_cell_angle_beta 90.442400
_cell_angle_gamma 90.401400
loop_
  _atom_site_label
  _atom_site_type_symbol
  _atom_site_fract_x
  _atom_site_fract_y
  _atom_site_fract_z
C1 C 0.19522 0.21155 0.11712
 C2 C 0.18373 0.24099 0.08989
 C3 C 0.19753 0.26987 0.11636
 C4 C 0.22406 0.26987 0.17164
 C5 C 0.23696 0.24054 0.19766
 C6 C 0.22271 0.21133 0.16996
 C7 C 0.23705 0.18276 0.19350
 C8 C 0.26407 0.18272 0.24400
 C9 C 0.27857 0.21126 0.27290
 C10 C 0.26419 0.24047 0.25173
 C11 C 0.23755 0.29847 0.20336
 C12 C 0.26330 0.29837 0.25917
 C13 C 0.27699 0.26968 0.28416
 C14 C 0.30364 0.26954 0.33891
 C15 C 0.31790 0.24072 0.35787
 C16 C 0.30644 0.21140 0.32431
 H17 H 0.22819 0.15979 0.17181
 H18 H 0.27281 0.15969 0.26127
 H19 H 0.22812 0.32131 0.18627
 H20 H 0.27263 0.32114 0.28146
 H21 H 0.16264 0.24204 0.05091
 H22 H 0.33919 0.24183 0.39610
 C23 C 0.68960 0.22803 0.32474
 C24 C 0.67479 0.25730 0.34090
 C25 C 0.68932 0.28645 0.32486
 C26 C 0.72021 0.28690 0.29444
 C27 C 0.73593 0.25786 0.27824
 C28 C 0.72063 0.22833 0.29252
 C29 C 0.73738 0.20006 0.27723
 C30 C 0.76753 0.20064 0.24571
 C31 C 0.78300 0.22947 0.23099
 C32 C 0.76717 0.25839 0.24798
 C33 C 0.73598 0.31578 0.28117
 C34 C 0.76644 0.31624 0.25184
 C35 C 0.78258 0.28786 0.23521
 C36 C 0.81357 0.28820 0.20490
 C37 C 0.82848 0.25936 0.18609
 C38 C 0.81379 0.23009 0.19912
 H39 H 0.72795 0.17686 0.29030
 H40 H 0.77852 0.17795 0.23332
 H41 H 0.72512 0.33848 0.29425
 H42 H 0.77704 0.33924 0.24177
 H43 H 0.65061 0.25768 0.35958
 H44 H 0.85249 0.25966 0.16531
 C45 C 0.68530 0.71769 0.69557
 C46 C 0.67100 0.74740 0.69050
 C47 C 0.68586 0.77533 0.72067
 C48 C 0.71598 0.77361 0.75809
 C49 C 0.73153 0.74400 0.75931
 C50 C 0.71609 0.71594 0.72815
 C51 C 0.73197 0.68689 0.72952
 C52 C 0.76217 0.68526 0.76183
 C53 C 0.77788 0.71264 0.79380
 C54 C 0.76247 0.74238 0.79259
 C55 C 0.73094 0.80065 0.79465
 C56 C 0.76062 0.79881 0.83053
 C57 C 0.77767 0.77038 0.82599
 C58 C 0.80855 0.76840 0.85958
 C59 C 0.82251 0.73849 0.86394
 C60 C 0.80816 0.71084 0.82971
 H61 H 0.72132 0.66502 0.70500
 H62 H 0.77284 0.66207 0.76254
 H63 H 0.71974 0.82356 0.79757
 H64 H 0.76953 0.81997 0.86374
 H65 H 0.64729 0.74872 0.66661
 H66 H 0.84613 0.73699 0.88878
 C67 C 0.19768 0.72746 0.88477
 C68 C 0.18361 0.75692 0.90168
 C69 C 0.19467 0.78534 0.86591
 C70 C 0.22322 0.78464 0.81946
 C71 C 0.23857 0.75521 0.80363
 C72 C 0.22574 0.72646 0.83562
 C73 C 0.24269 0.69820 0.82309
 C74 C 0.26956 0.69743 0.77288
 C75 C 0.28242 0.72539 0.73940
 C76 C 0.26733 0.75469 0.75747
 C77 C 0.23776 0.81285 0.79212
 C78 C 0.26594 0.81228 0.74868
 C79 C 0.28129 0.78356 0.73112
 C80 C 0.31036 0.78312 0.68841
 C81 C 0.32379 0.75388 0.66574
 C82 C 0.31015 0.72500 0.68948
 H83 H 0.23601 0.67628 0.85345
 H84 H 0.28053 0.67461 0.76308
 H85 H 0.22833 0.83609 0.80652
 H86 H 0.27544 0.83483 0.72859
 H87 H 0.16164 0.75676 0.93570
 H88 H 0.34624 0.75358 0.63408
 O89 O 1.01426 -0.03588 0.04641
 O90 O 0.96028 0.03096 0.04960
 O91 O 0.95540 -0.03003 0.01376
 O92 O 1.01991 0.02535 0.07175
 O93 O 1.02790 0.03227 -0.07035
 O94 O 0.96361 -0.02184 -0.12768
 O95 O 0.96873 0.03905 -0.09172
 O96 O 1.02292 -0.02888 -0.09541
 Cu97 Cu 0.98654 -0.00314 0.05952
 Cu98 Cu 0.99656 0.00577 -0.11055
 C99 C 1.02787 -0.04376 -0.02451
 C100 C 0.95550 0.04666 -0.01963
 C101 C 0.94867 -0.03534 -0.06722
 C102 C 1.03479 0.03834 0.00986
 O103 O 0.51748 0.46311 0.58598
 O104 O 0.45582 0.52198 0.60918
 O105 O 0.45799 0.46231 0.55699
 O106 O 0.51625 0.52382 0.62395
 O107 O 0.52128 0.53647 0.48412
 O108 O 0.46465 0.47526 0.41785
 O109 O 0.46120 0.53512 0.46977
 O110 O 0.52400 0.47578 0.44657
 Cu111 Cu 0.48623 0.49162 0.60794
 Cu112 Cu 0.49327 0.50696 0.44067
 C113 C 0.53116 0.45920 0.51286
 C114 C 0.44808 0.53873 0.54434
 C115 C 0.45198 0.45809 0.47511
 C116 C 0.52860 0.54066 0.56477
 O117 O -0.02154 0.46458 -0.07168
 O118 O 0.04274 0.51880 -0.11259
 O119 O 0.03845 0.46006 -0.05923
 O120 O -0.01763 0.52552 -0.09512
 O121 O -0.01570 0.53664 0.04819
 O122 O 0.03765 0.47176 0.08381
 O123 O 0.04573 0.53161 0.02932
 O124 O -0.02043 0.47693 0.07094
 Cu125 Cu 0.01049 0.49119 -0.09877
 Cu126 Cu 0.01288 0.50622 0.07060
 C127 C -0.03189 0.46111 0.00547
 C128 C 0.05536 0.53438 -0.04949
 C129 C 0.04674 0.45443 0.01990
 C130 C -0.02638 0.54194 -0.02801
 O131 O 0.47500 1.03312 0.57640
 O132 O 0.53662 0.97348 0.58936
 O133 O 0.53487 1.03556 0.57619
 O134 O 0.47622 0.97141 0.58259
 O135 O 0.47720 0.96694 0.43704
 O136 O 0.53569 1.03091 0.43067
 O137 O 0.53729 0.96891 0.44384
 O138 O 0.47532 1.02876 0.43074
 Cu139 Cu 0.50574 1.00373 0.59577
 Cu140 Cu 0.50654 0.99848 0.42095
 C141 C 0.46475 1.04121 0.50160
 C142 C 0.54719 0.96073 0.51911
 C143 C 0.54488 1.04447 0.50204
 C144 C 0.46674 0.95827 0.51077
 C145 C 1.17816 0.18343 0.09619
 C146 C 1.15805 0.18035 0.02356
 C147 C 1.13741 0.15276 0.00917
 N148 N 1.13042 0.13270 0.07535
 N149 N 1.11027 0.10883 0.06178
 C150 C 1.09653 0.10419 -0.01856
 N151 N 1.10373 0.12409 -0.08460
 N152 N 1.12366 0.14803 -0.07088
 C153 C 1.07368 0.07869 -0.03547
 C154 C 1.05996 0.06117 0.03105
 H155 H 1.15813 0.19801 -0.02726
 H156 H 1.06601 0.07495 -0.10324
 H157 H 1.18041 0.16294 0.13741
 H158 H 1.06659 0.06540 0.09946
 C159 C 0.66675 0.68879 0.67247
 C160 C 0.64695 0.68740 0.59933
 C161 C 0.62574 0.66046 0.58139
 N162 N 0.62043 0.63794 0.64255
 N163 N 0.60025 0.61432 0.62602
 C164 C 0.58474 0.61238 0.54766
 N165 N 0.59019 0.63478 0.48661
 N166 N 0.61020 0.65847 0.50330
 C167 C 0.56239 0.58667 0.52719
 C168 C 0.55156 0.56545 0.58963
 H169 H 0.64692 0.70681 0.55353
 H170 H 0.55344 0.58505 0.46018
 H171 H 0.66832 0.66846 0.71476
 H172 H 0.55941 0.56752 0.65762
 C173 C -0.16842 0.31817 0.19737
 C174 C -0.14965 0.32369 0.12485
 C175 C -0.12982 0.35209 0.11844
 N176 N -0.11522 0.35783 0.04150
 N177 N -0.09639 0.38283 0.03471
 C178 C -0.09128 0.40303 0.10469
 N179 N -0.10583 0.39728 0.18193
 N180 N -0.12483 0.37229 0.18863
 C181 C -0.06947 0.43001 0.09780
 C182 C -0.05685 0.43768 0.01660
 H183 H -0.14962 0.30657 0.07024
 H184 H -0.06264 0.44327 0.15704
 H185 H -0.17002 0.33613 0.24950
 H186 H -0.06459 0.42475 -0.04235
 C187 C 0.32859 0.81276 0.67641
 C188 C 0.34749 0.81775 0.60370
 C189 C 0.36791 0.84586 0.59903
 N190 N 0.38397 0.85150 0.52426
 N191 N 0.40319 0.87639 0.52031
 C192 C 0.40714 0.89646 0.59119
 N193 N 0.39112 0.89079 0.66594
 N194 N 0.37183 0.86600 0.66976
 C195 C 0.42892 0.92351 0.58904
 C196 C 0.44373 0.93234 0.51187
 H197 H 0.34744 0.80064 0.54916
 H198 H 0.43343 0.93679 0.65000
 H199 H 0.32775 0.83091 0.72821
 H200 H 0.43841 0.91983 0.45020
 C201 C -0.17372 0.68090 -0.17227
 C202 C -0.15475 0.67270 -0.10159
 C203 C -0.13278 0.64616 -0.10524
 N204 N -0.11519 0.64028 -0.03307
 N205 N -0.09423 0.61724 -0.03503
 C206 C -0.08989 0.59917 -0.10934
 N207 N -0.10754 0.60497 -0.18178
 N208 N -0.12860 0.62810 -0.17984
 C209 C -0.06646 0.57373 -0.11085
 C210 C -0.04912 0.56756 -0.03522
 H211 H -0.15536 0.68699 -0.04115
 H212 H -0.06322 0.55955 -0.17064
 H213 H -0.17446 0.66578 -0.23110
 H214 H -0.05310 0.58167 0.02435
 C215 C 0.32381 1.18337 0.33691
 C216 C 0.34554 1.17955 0.40490
 C217 C 0.36558 1.15146 0.40923
 N218 N 0.38232 1.14624 0.48359
 N219 N 0.40135 1.12150 0.48773
 C220 C 0.40449 1.10115 0.41744
 N221 N 0.38783 1.10643 0.34291
 N222 N 0.36866 1.13109 0.33892
 C223 C 0.42628 1.07442 0.42025
 C224 C 0.44086 1.06588 0.49848
 H225 H 0.34732 1.19675 0.45896
 H226 H 0.43115 1.06143 0.35938
 H227 H 0.32066 1.16339 0.29159
 H228 H 0.43493 1.07802 0.55987
 C229 C 1.17615 -0.18691 -0.12985
 C230 C 1.15212 -0.18169 -0.06964
 C231 C 1.13100 -0.15447 -0.07576
 N232 N 1.11028 -0.14879 -0.01050
 N233 N 1.09050 -0.12473 -0.01562
 C234 C 1.09057 -0.10550 -0.08643
 N235 N 1.11121 -0.11124 -0.15197
 N236 N 1.13108 -0.13529 -0.14673
 C237 C 1.06873 -0.07885 -0.09251
 C238 C 1.04944 -0.07060 -0.02242
 H239 H 1.14895 -0.19708 -0.01419
 H240 H 1.06827 -0.06518 -0.15222
 H241 H 1.17988 -0.16851 -0.17721
 H242 H 1.05070 -0.08379 0.03807
 C243 C 0.67083 0.31599 0.33383
 C244 C 0.65110 0.32153 0.40488
 C245 C 0.63117 0.34973 0.41132
 N246 N 0.61430 0.35508 0.48529
 N247 N 0.59553 0.38002 0.49158
 C248 C 0.59282 0.40053 0.42402
 N249 N 0.60968 0.39518 0.34994
 N250 N 0.62856 0.37026 0.34373
 C251 C 0.57133 0.42759 0.42951
 C252 C 0.55502 0.43451 0.50656
 H253 H 0.65029 0.30467 0.45782
 H254 H 0.56783 0.44182 0.37165
 H255 H 0.67276 0.33365 0.28329
 H256 H 0.55915 0.42056 0.56467
 C257 C 0.82689 -0.20547 -0.11103
 C258 C 0.82759 -0.17594 -0.15133
 C259 C 0.84861 -0.15032 -0.11975
 N260 N 0.85476 -0.12530 -0.17189
 N261 N 0.87435 -0.10238 -0.14475
 C262 C 0.88831 -0.10351 -0.06414
 N263 N 0.88179 -0.12829 -0.01148
 N264 N 0.86235 -0.15130 -0.03883
 C265 C 0.91086 -0.07902 -0.03456
 C266 C 0.92358 -0.05755 -0.09302
 H267 H 0.81454 -0.17229 -0.21159
 H268 H 0.91915 -0.07928 0.03311
 H269 H 0.84520 -0.20991 -0.06344
 H270 H 0.91644 -0.05846 -0.16177
 C271 C 0.31786 0.29922 0.37560
 C272 C 0.34895 0.30617 0.36052
 C273 C 0.36448 0.33492 0.39629
 N274 N 0.39090 0.34525 0.35812
 N275 N 0.40577 0.37089 0.39014
 C276 C 0.39502 0.38697 0.46228
 N277 N 0.36877 0.37642 0.50134
 N278 N 0.35364 0.35092 0.46861
 C279 C 0.41192 0.41504 0.49793
 C280 C 0.43131 0.43234 0.44350
 H281 H 0.36218 0.29044 0.31769
 H282 H 0.40899 0.42222 0.56647
 H283 H 0.30351 0.31616 0.41113
 H284 H 0.43182 0.42639 0.37352
 C285 C 0.18185 0.70074 -0.08248
 C286 C 0.17788 0.67182 -0.12859
 C287 C 0.15739 0.64661 -0.09561
 N288 N 0.14930 0.62164 -0.14938
 N289 N 0.12955 0.59952 -0.12211
 C290 C 0.11718 0.60143 -0.03988
 N291 N 0.12565 0.62613 0.01447
 N292 N 0.14536 0.64832 -0.01290
 C293 C 0.09390 0.57806 -0.01120
 C294 C 0.08120 0.55575 -0.07067
 H295 H 0.18706 0.66875 -0.19456
 H296 H 0.08530 0.57970 0.05573
 H297 H 0.16715 0.70455 -0.02543
 H298 H 0.08933 0.55497 -0.13820
 C299 C 0.67280 1.19934 0.33576
 C300 C 0.64783 1.19608 0.39350
 C301 C 0.63083 1.16580 0.40105
 N302 N 0.61303 1.16061 0.47285
 N303 N 0.59735 1.13340 0.48027
 C304 C 0.59874 1.11044 0.41585
 N305 N 0.61633 1.11574 0.34370
 N306 N 0.63220 1.14284 0.33660
 C307 C 0.58053 1.08086 0.42137
 C308 C 0.56655 1.07159 0.49947
 H309 H 0.64192 1.21517 0.43932
 H310 H 0.57770 1.06623 0.36198
 H311 H 0.67964 1.17807 0.30003
 H312 H 0.57077 1.08523 0.56000
 C313 C 0.18290 0.29961 0.08668
 C314 C 0.15124 0.30439 0.09808
 C315 C 0.13490 0.33256 0.06709
 N316 N 0.10679 0.33969 0.10126
 N317 N 0.09119 0.36481 0.07377
 C318 C 0.10290 0.38356 0.01013
 N319 N 0.13086 0.37618 -0.02526
 N320 N 0.14667 0.35116 0.00301
 C321 C 0.08571 0.41173 -0.01805
 C322 C 0.06582 0.42690 0.04097
 H323 H 0.13793 0.28707 0.13409
 H324 H 0.08967 0.42132 -0.08275
 H325 H 0.19712 0.31799 0.05815
 H326 H 0.06483 0.41881 0.10833
 C327 C 0.66887 0.80573 0.71442
 C328 C 0.65409 0.81417 0.63627
 C329 C 0.63634 0.84371 0.62829
 N330 N 0.62457 0.85176 0.54860
 N331 N 0.60778 0.87801 0.54045
 C332 C 0.60210 0.89719 0.61181
 N333 N 0.61390 0.88917 0.69150
 N334 N 0.63078 0.86295 0.69961
 C335 C 0.58234 0.92542 0.60481
 C336 C 0.57049 0.93544 0.52423
 H337 H 0.65585 0.79864 0.57845
 H338 H 0.57606 0.93797 0.66528
 H339 H 0.66837 0.82182 0.77120
 H340 H 0.57735 0.92346 0.46343
 C341 C 0.83182 0.20057 0.18476
 C342 C 0.84986 0.19532 0.10982
 C343 C 0.86758 0.16582 0.09648
 N344 N 0.88303 0.16034 0.01991
 N345 N 0.89930 0.13376 0.00770
 C346 C 0.90069 0.11172 0.07178
 N347 N 0.88527 0.11724 0.14823
 N348 N 0.86898 0.14374 0.16032
 C349 C 0.91920 0.08268 0.06150
 C350 C 0.93488 0.07441 -0.01584
 H351 H 0.85046 0.21297 0.05889
 H352 H 0.92100 0.06753 0.11815
 H353 H 0.83041 0.18231 0.23379
 H354 H 0.93268 0.08894 -0.07362
 C355 C 0.32655 0.69509 0.66559
 C356 C 0.33997 0.69040 0.58267
 C357 C 0.35867 0.66227 0.55996
 N358 N 0.36404 0.63932 0.61962
 N359 N 0.38199 0.61463 0.59912
 C360 C 0.39527 0.61190 0.51824
 N361 N 0.38972 0.63474 0.45842
 N362 N 0.37175 0.65946 0.47892
 C363 C 0.41639 0.58548 0.49650
 C364 C 0.42399 0.56282 0.55855
 H365 H 0.33711 0.70829 0.53300
 H366 H 0.42730 0.58478 0.43231
 H367 H 0.32867 0.67675 0.71412
 H368 H 0.41316 0.56384 0.62286
   
