data_POSCAR
  _audit_creation_date              2014-09-24
  _audit_creation_method            'ToBaCCo'
  _symmetry_space_group_name_H-M    'P1'
  _symmetry_Int_Tables_number       1
  _symmetry_cell_setting            triclinic
  loop_
  _symmetry_equiv_pos_as_xyz
 x,y,z
_cell_length_a 27.9240
_cell_length_b 27.7911
_cell_length_c 33.3040
_cell_angle_alpha 89.326800
_cell_angle_beta 90.147500
_cell_angle_gamma 118.769500
loop_
  _atom_site_label
  _atom_site_type_symbol
  _atom_site_fract_x
  _atom_site_fract_y
  _atom_site_fract_z
C1 C 0.04914 0.53997 1.33201
 C2 C 0.00071 0.51734 1.35418
 C3 C -0.05035 0.48252 1.33698
 C4 C -0.05313 0.47380 1.29475
 C5 C -0.00429 0.49780 1.27148
 C6 C 0.04696 0.53007 1.29031
 C7 C 0.09465 0.55407 1.26666
 C8 C 0.09247 0.54563 1.22562
 C9 C 0.04244 0.51344 1.20632
 C10 C -0.00656 0.48996 1.22916
 C11 C -0.10327 0.44463 1.27467
 C12 C -0.10541 0.43615 1.23343
 C13 C -0.05766 0.45898 1.20974
 C14 C -0.05902 0.44968 1.16758
 C15 C -0.00951 0.47154 1.14616
 C16 C 0.04043 0.50454 1.16463
 H17 H 0.13429 0.58038 1.27959
 H18 H 0.13065 0.56488 1.20912
 H19 H -0.14179 0.42859 1.29044
 H20 H -0.14525 0.41088 1.22062
 H21 H 0.00367 0.52167 1.38650
 H22 H -0.00987 0.46595 1.11395
 C23 C 0.52185 0.47111 1.16862
 C24 C 0.49335 0.49333 1.14789
 C25 C 0.46858 0.51940 1.16818
 C26 C 0.47292 0.52427 1.21047
 C27 C 0.50235 0.50256 1.23182
 C28 C 0.52680 0.47580 1.21082
 C29 C 0.55593 0.45473 1.23249
 C30 C 0.56181 0.46064 1.27382
 C31 C 0.53755 0.48657 1.29547
 C32 C 0.50774 0.50801 1.27420
 C33 C 0.44882 0.55046 1.23193
 C34 C 0.45437 0.55610 1.27343
 C35 C 0.48355 0.53508 1.29517
 C36 C 0.48994 0.54107 1.33728
 C37 C 0.52114 0.52148 1.35756
 C38 C 0.54430 0.49364 1.33759
 H39 H 0.57506 0.43388 1.21766
 H40 H 0.58641 0.44525 1.28851
 H41 H 0.42559 0.56713 1.21680
 H42 H 0.43603 0.57771 1.28826
 H43 H 0.49182 0.49170 1.11540
 H44 H 0.52334 0.52396 1.39000
 C45 C 0.45697 0.95094 1.33911
 C46 C 0.48447 1.00175 1.35808
 C47 C 0.51410 1.05081 1.33645
 C48 C 0.51553 1.04951 1.29392
 C49 C 0.48723 0.99860 1.27389
 C50 C 0.45804 0.94914 1.29650
 C51 C 0.42906 0.89945 1.27580
 C52 C 0.43148 0.89775 1.23421
 C53 C 0.46192 0.94583 1.21138
 C54 C 0.48930 0.99695 1.23118
 C55 C 0.54762 1.09717 1.27105
 C56 C 0.55044 1.09539 1.22951
 C57 C 0.52019 1.04612 1.20851
 C58 C 0.52344 1.04371 1.16588
 C59 C 0.49712 0.99222 1.14739
 C60 C 0.46642 0.94383 1.16930
 H61 H 0.40396 0.86113 1.29150
 H62 H 0.40937 0.85810 1.22013
 H63 H 0.57242 1.13638 1.28510
 H64 H 0.57842 1.13318 1.21446
 H65 H 0.48425 1.00315 1.39042
 H66 H 0.49820 0.98972 1.11495
 C67 C 0.94557 0.45514 0.66925
 C68 C 0.99471 0.47389 0.64827
 C69 C 1.04551 0.50552 0.66683
 C70 C 1.04682 0.51561 0.70885
 C71 C 0.99704 0.49438 0.73084
 C72 C 0.94635 0.46456 0.71087
 C73 C 0.89761 0.44337 0.73321
 C74 C 0.89842 0.45140 0.77430
 C75 C 0.94803 0.48024 0.79489
 C76 C 0.99782 0.50196 0.77312
 C77 C 1.09631 0.54291 0.73013
 C78 C 1.09701 0.55112 0.77131
 C79 C 1.04828 0.53032 0.79365
 C80 C 1.04854 0.53810 0.83582
 C81 C 0.99873 0.51657 0.85659
 C82 C 0.94893 0.48718 0.83686
 H83 H 0.85815 0.41944 0.71933
 H84 H 0.85957 0.43434 0.78984
 H85 H 1.13543 0.55730 0.71560
 H86 H 1.13648 0.57378 0.78546
 H87 H 0.99296 0.46693 0.61618
 H88 H 0.99854 0.51897 0.88902
 C89 C 0.51652 0.46585 0.66635
 C90 C 0.48895 0.48882 0.64519
 C91 C 0.46482 0.51581 0.66511
 C92 C 0.46757 0.51946 0.70750
 C93 C 0.49493 0.49583 0.72934
 C94 C 0.51973 0.46917 0.70870
 C95 C 0.54703 0.44643 0.73091
 C96 C 0.54957 0.44944 0.77264
 C97 C 0.52462 0.47500 0.79378
 C98 C 0.49733 0.49870 0.77193
 C99 C 0.44299 0.54539 0.72868
 C100 C 0.44564 0.54851 0.77036
 C101 C 0.47229 0.52512 0.79260
 C102 C 0.47449 0.52741 0.83500
 C103 C 0.50085 0.50322 0.85617
 C104 C 0.52626 0.47756 0.83622
 H105 H 0.56659 0.42589 0.71622
 H106 H 0.57129 0.43141 0.78817
 H107 H 0.42110 0.56331 0.71329
 H108 H 0.42632 0.56931 0.78499
 H109 H 0.48717 0.48659 0.61268
 H110 H 0.50057 0.50333 0.88871
 C111 C 0.51288 0.04346 0.66357
 C112 C 0.48215 -0.00673 0.64462
 C113 C 0.45708 -0.05651 0.66630
 C114 C 0.46215 -0.05545 0.70893
 C115 C 0.49209 -0.00425 0.72856
 C116 C 0.51763 0.04523 0.70578
 C117 C 0.54591 0.09551 0.72582
 C118 C 0.54837 0.09739 0.76749
 C119 C 0.52291 0.04905 0.79080
 C120 C 0.49484 -0.00223 0.77122
 C121 C 0.43462 -0.10334 0.73278
 C122 C 0.43809 -0.10138 0.77443
 C123 C 0.46794 -0.05131 0.79428
 C124 C 0.46997 -0.04890 0.83668
 C125 C 0.49746 0.00188 0.85553
 C126 C 0.52334 0.05072 0.83322
 H127 H 0.56553 0.13415 0.70949
 H128 H 0.56990 0.13731 0.78125
 H129 H 0.40851 -0.14293 0.71989
 H130 H 0.41574 -0.13960 0.79099
 H131 H 0.47989 -0.00716 0.61210
 H132 H 0.49877 0.00353 0.88805
 O133 O 0.41064 0.65429 0.96719
 O134 O 0.40636 0.74513 0.95763
 C135 C 0.37986 0.77063 0.95061
 O136 O 0.33767 0.76232 0.97057
 O137 O 0.24791 0.67132 0.95714
 C138 C 0.22526 0.62153 0.94666
 O139 O 0.23434 0.58554 0.96375
 O140 O 0.32725 0.58748 0.95313
 C141 C 0.37808 0.61366 0.94636
 O142 O 0.40532 0.66347 1.04723
 O143 O 0.40701 0.75722 1.03777
 C144 C 0.37276 0.76464 1.05807
 O145 O 0.32216 0.74059 1.05033
 O146 O 0.23066 0.65141 1.03647
 C147 C 0.22157 0.60653 1.05339
 O148 O 0.24658 0.58051 1.04397
 O149 O 0.33827 0.57939 1.03340
 C150 C 0.37923 0.61223 1.05409
 Cr151 Cr 0.40420 0.70348 1.00242
 Cr152 Cr 0.28623 0.70483 1.00356
 Cr153 Cr 0.28814 0.58637 0.99869
 O154 O 0.32604 0.66480 1.00155
 O155 O 0.58476 0.33034 0.95852
 O156 O 0.58210 0.23547 0.96702
 C157 C 0.61516 0.22937 0.94426
 O158 O 0.66625 0.25425 0.94986
 O159 O 0.75907 0.34086 0.96429
 C160 C 0.76847 0.38630 0.94840
 O161 O 0.74458 0.41275 0.95938
 O162 O 0.65343 0.41414 0.97177
 C163 C 0.61164 0.38164 0.95151
 O164 O 0.58230 0.33938 1.03854
 O165 O 0.58697 0.24841 1.04735
 C166 C 0.61222 0.22104 1.05138
 O167 O 0.65212 0.22839 1.02899
 O168 O 0.74347 0.31835 1.04321
 C169 C 0.76659 0.36769 1.05497
 O170 O 0.75782 0.40486 1.03948
 O171 O 0.66631 0.40506 1.05185
 C172 C 0.61560 0.37994 1.05899
 Cr173 Cr 0.58708 0.28988 1.00282
 Cr174 Cr 0.70367 0.28705 0.99682
 Cr175 Cr 0.70402 0.40615 1.00548
 O176 O 0.66517 0.32797 1.00176
 O177 O 0.65565 0.41233 0.53814
 O178 O 0.74164 0.40141 0.55229
 C179 C 0.76656 0.37396 0.55745
 O180 O 0.75977 0.33492 0.53460
 O181 O 0.66488 0.24657 0.54355
 C182 C 0.61375 0.22386 0.54999
 O183 O 0.58163 0.23520 0.52973
 O184 O 0.58461 0.32839 0.54435
 C185 C 0.61138 0.37802 0.55501
 O186 O 0.67683 0.41858 0.45913
 O187 O 0.76588 0.41251 0.47330
 C188 C 0.77324 0.37986 0.45089
 O189 O 0.74541 0.32805 0.45434
 O190 O 0.65393 0.23618 0.46373
 C191 C 0.61375 0.23156 0.44311
 O192 O 0.58960 0.25917 0.45008
 O193 O 0.59042 0.35114 0.46468
 C194 C 0.62723 0.39490 0.44827
 Cr195 Cr 0.70842 0.40821 0.50548
 Cr196 Cr 0.70455 0.28806 0.49909
 Cr197 Cr 0.58954 0.29486 0.49734
 O198 O 0.66729 0.33037 0.50058
 O199 O 0.33717 0.57989 0.52972
 O200 O 0.24235 0.57568 0.53866
 C201 C 0.21759 0.60096 0.55062
 O202 O 0.22615 0.64701 0.53625
 O203 O 0.31440 0.73738 0.55092
 C204 C 0.36460 0.76347 0.55910
 O205 O 0.40060 0.75742 0.54015
 O206 O 0.40096 0.66377 0.54802
 C207 C 0.37635 0.61187 0.55227
 O208 O 0.33004 0.59329 0.44955
 O209 O 0.23482 0.58631 0.45867
 C210 C 0.22389 0.62204 0.44358
 O211 O 0.24335 0.67029 0.45677
 O212 O 0.33115 0.76161 0.47188
 C213 C 0.37449 0.77237 0.45246
 O214 O 0.40321 0.74906 0.45965
 O215 O 0.41131 0.65936 0.46836
 C216 C 0.38139 0.61949 0.44595
 Cr217 Cr 0.28753 0.58698 0.49445
 Cr218 Cr 0.28044 0.70246 0.50381
 Cr219 Cr 0.40087 0.70583 0.50390
 O220 O 0.32269 0.66499 0.50088
 C221 C 0.49104 0.60542 0.38930
 C222 C 0.46152 0.56342 0.36218
 C223 C 0.40406 0.53644 0.36498
 C224 C 0.37756 0.55504 0.39167
 C225 C 0.40805 0.60085 0.41629
 C226 C 0.46501 0.62392 0.41543
 C227 C 0.50781 0.68239 0.40988
 C228 C 0.53633 0.66207 0.38128
 H229 H 0.37978 0.50111 0.34653
 H230 H 0.33334 0.53376 0.39279
 H231 H 0.53120 0.69991 0.43789
 H232 H 0.49189 0.70778 0.39488
 H233 H 0.57610 0.66781 0.39284
 H234 H 0.53704 0.67563 0.34963
 C235 C 0.39049 0.89376 0.39086
 C236 C 0.43210 0.90322 0.36333
 C237 C 0.44906 0.86275 0.36170
 C238 C 0.42974 0.81918 0.39016
 C239 C 0.39174 0.81414 0.42007
 C240 C 0.36970 0.84973 0.41712
 C241 C 0.35417 0.87894 0.44740
 C242 C 0.37686 0.92778 0.41820
 H243 H 0.48019 0.86699 0.34043
 H244 H 0.44607 0.79088 0.38962
 H245 H 0.37813 0.88699 0.47560
 H246 H 0.30918 0.85962 0.45150
 H247 H 0.41286 0.96387 0.43077
 H248 H 0.34479 0.93624 0.40549
 C249 C 0.11358 0.61456 0.37490
 C250 C 0.09868 0.56665 0.35303
 C251 C 0.13378 0.54328 0.35569
 C252 C 0.17646 0.56252 0.38412
 C253 C 0.18605 0.60675 0.40933
 C254 C 0.15704 0.63499 0.40111
 C255 C 0.13142 0.65927 0.42761
 C256 C 0.08352 0.63714 0.39842
 H257 H 0.12511 0.50702 0.33864
 H258 H 0.19981 0.54098 0.38784
 H259 H 0.15496 0.70485 0.42778
 H260 H 0.12063 0.63920 0.45776
 H261 H 0.07994 0.67009 0.38168
 H262 H 0.04516 0.60553 0.41258
 C263 C 0.61681 0.50056 0.38288
 C264 C 0.56930 0.46935 0.36059
 C265 C 0.54698 0.41168 0.36224
 C266 C 0.56713 0.38701 0.38983
 C267 C 0.61121 0.41956 0.41522
 C268 C 0.63814 0.47626 0.40846
 C269 C 0.65971 0.52335 0.43668
 C270 C 0.63640 0.55036 0.40839
 H271 H 0.51134 0.38564 0.34457
 H272 H 0.54668 0.34267 0.39259
 H273 H 0.70509 0.54534 0.43767
 H274 H 0.63906 0.51192 0.46648
 H275 H 0.66846 0.58774 0.39309
 H276 H 0.60316 0.55527 0.42262
 C277 C 0.58711 0.10763 0.38289
 C278 C 0.54337 0.09953 0.35806
 C279 C 0.53019 0.14268 0.35574
 C280 C 0.55463 0.18759 0.38223
 C281 C 0.59396 0.19099 0.41052
 C282 C 0.61244 0.15251 0.40741
 C283 C 0.62654 0.12166 0.43797
 C284 C 0.59887 0.07202 0.41069
 H285 H 0.49814 0.13960 0.33581
 H286 H 0.54070 0.21783 0.38195
 H287 H 0.60473 0.11629 0.46696
 H288 H 0.67138 0.13781 0.44045
 H289 H 0.56209 0.03802 0.42491
 H290 H 0.62794 0.05998 0.39734
 C291 C 0.90057 0.48359 0.39720
 C292 C 0.90473 0.45573 0.36369
 C293 C 0.86771 0.39866 0.36215
 C294 C 0.82503 0.37314 0.39067
 C295 C 0.81828 0.40409 0.42131
 C296 C 0.85850 0.45889 0.42471
 C297 C 0.85386 0.50984 0.42949
 C298 C 0.90029 0.53709 0.39929
 H299 H 0.87203 0.37349 0.33939
 H300 H 0.79674 0.32971 0.38812
 H301 H 0.86533 0.52696 0.46017
 H302 H 0.81437 0.50528 0.41821
 H303 H 0.93850 0.56983 0.41260
 H304 H 0.88785 0.54845 0.37049
 C305 C 0.51626 0.39221 1.12946
 C306 C 0.54745 0.44462 1.14524
 C307 C 0.60431 0.47113 1.13861
 C308 C 0.62749 0.44850 1.11232
 C309 C 0.59402 0.39911 1.09203
 C310 C 0.53892 0.37008 1.10350
 C311 C 0.48789 0.34259 1.07918
 C312 C 0.46300 0.36687 1.10779
 H313 H 0.63023 0.51069 1.15193
 H314 H 0.67083 0.47152 1.10592
 H315 H 0.46848 0.29710 1.08137
 H316 H 0.49333 0.35961 1.04812
 H317 H 0.42933 0.33534 1.12646
 H318 H 0.45384 0.39756 1.09305
 C319 C 0.85029 0.43522 1.14735
 C320 C 0.89215 0.42101 1.14558
 C321 C 0.88645 0.38148 1.11687
 C322 C 0.84335 0.36144 1.08900
 C323 C 0.80640 0.38239 1.08782
 C324 C 0.80895 0.41694 1.11892
 C325 C 0.80823 0.47027 1.11804
 C326 C 0.85349 0.49035 1.14924
 H327 H 0.91660 0.36763 1.11495
 H328 H 0.84158 0.33288 1.06643
 H329 H 0.76922 0.46615 1.12985
 H330 H 0.82180 0.49222 1.08869
 H331 H 0.84048 0.49775 1.17901
 H332 H 0.89317 0.52387 1.13797
 C333 C 0.54581 0.13774 1.14539
 C334 C 0.55178 0.09074 1.14100
 C335 C 0.58472 0.09106 1.10864
 C336 C 0.60660 0.13471 1.08056
 C337 C 0.59451 0.17833 1.08310
 C338 C 0.56627 0.18010 1.11721
 C339 C 0.51808 0.18934 1.12130
 C340 C 0.49573 0.14296 1.15230
 H341 H 0.59274 0.05697 1.10452
 H342 H 0.63018 0.13252 1.05556
 H343 H 0.49310 0.17938 1.09350
 H344 H 0.52937 0.23008 1.13430
 H345 H 0.45783 0.10615 1.14251
 H346 H 0.49428 0.15704 1.18315
 C347 C 0.39105 0.51154 1.12538
 C348 C 0.44123 0.54393 1.14406
 C349 C 0.46591 0.60120 1.13833
 C350 C 0.44426 0.62401 1.11042
 C351 C 0.39761 0.58983 1.08758
 C352 C 0.36971 0.53396 1.09797
 C353 C 0.34626 0.48383 1.07264
 C354 C 0.36960 0.45912 1.10281
 H355 H 0.50369 0.62790 1.15356
 H356 H 0.46602 0.66793 1.10506
 H357 H 0.36589 0.49149 1.04252
 H358 H 0.30086 0.46263 1.07246
 H359 H 0.40221 0.45207 1.08977
 H360 H 0.33760 0.42378 1.11999
 C361 C 0.10434 0.58347 1.12175
 C362 C 0.08968 0.53227 1.13915
 C363 C 0.12469 0.50972 1.13346
 C364 C 0.16938 0.53507 1.10678
 C365 C 0.17969 0.58342 1.08541
 C366 C 0.14815 0.60837 1.09542
 C367 C 0.11885 0.62955 1.06912
 C368 C 0.07087 0.60231 1.09810
 H369 H 0.11609 0.47145 1.14820
 H370 H 0.19407 0.51536 1.10149
 H371 H 0.10991 0.61072 1.03887
 H372 H 0.13858 0.67511 1.06916
 H373 H 0.03407 0.56782 1.08459
 H374 H 0.06310 0.63220 1.11491
 C375 C 0.46959 0.86739 1.13242
 C376 C 0.43958 0.89172 1.14702
 C377 C 0.38335 0.86625 1.13816
 C378 C 0.36028 0.82232 1.11090
 C379 C 0.39330 0.80358 1.09181
 C380 C 0.44710 0.82458 1.10553
 C381 C 0.49997 0.84447 1.08355
 C382 C 0.52470 0.89139 1.11326
 H383 H 0.35820 0.88261 1.15017
 H384 H 0.31776 0.80591 1.10271
 H385 H 0.49841 0.85832 1.05233
 H386 H 0.51659 0.81542 1.08653
 H387 H 0.53785 0.93219 1.09899
 H388 H 0.55535 0.88913 1.13344
 C389 C 0.51471 0.38601 0.63076
 C390 C 0.54340 0.44053 0.64318
 C391 C 0.59875 0.47127 0.63217
 C392 C 0.62203 0.44988 0.60496
 C393 C 0.59026 0.39728 0.58834
 C394 C 0.53764 0.36481 0.60406
 C395 C 0.48446 0.33158 0.58321
 C396 C 0.45939 0.35483 0.61254
 H397 H 0.62291 0.51293 0.64261
 H398 H 0.66384 0.47576 0.59528
 H399 H 0.46899 0.28675 0.58734
 H400 H 0.48499 0.34532 0.55164
 H401 H 0.42957 0.32339 0.63356
 H402 H 0.44527 0.38194 0.59792
 C403 C 0.51072 0.11701 0.62072
 C404 C 0.54017 0.09352 0.63829
 C405 C 0.59703 0.11966 0.63171
 C406 C 0.62185 0.16377 0.60408
 C407 C 0.59008 0.18229 0.58250
 C408 C 0.53505 0.16024 0.59356
 C409 C 0.48447 0.13951 0.56878
 C410 C 0.45770 0.09203 0.59871
 H411 H 0.62164 0.10416 0.64632
 H412 H 0.66518 0.18119 0.59813
 H413 H 0.48970 0.12652 0.53837
 H414 H 0.46661 0.16763 0.56932
 H415 H 0.44709 0.05169 0.58535
 H416 H 0.42455 0.09298 0.61650
 C417 C 0.85990 0.45171 0.64306
 C418 C 0.89405 0.42804 0.64622
 C419 C 0.87956 0.37969 0.62468
 C420 C 0.83572 0.35985 0.59738
 C421 C 0.80606 0.38852 0.59073
 C422 C 0.81698 0.43247 0.61606
 C423 C 0.82675 0.48917 0.60649
 C424 C 0.87372 0.51009 0.63626
 H425 H 0.90402 0.35916 0.62726
 H426 H 0.82752 0.32427 0.57970
 H427 H 0.79233 0.49562 0.61648
 H428 H 0.84030 0.50186 0.57493
 H429 H 0.86624 0.52833 0.66347
 H430 H 0.91450 0.53489 0.62200
 C431 C 0.45888 0.59684 0.63716
 C432 C 0.43728 0.53998 0.64064
 C433 C 0.38957 0.50646 0.61895
 C434 C 0.36796 0.52985 0.59143
 C435 C 0.39416 0.58724 0.58471
 C436 C 0.43793 0.61993 0.60986
 C437 C 0.49352 0.66570 0.59973
 C438 C 0.51628 0.64040 0.62982
 H439 H 0.37062 0.46221 0.62186
 H440 H 0.33262 0.50275 0.57394
 H441 H 0.49898 0.70623 0.60919
 H442 H 0.50566 0.66418 0.56819
 H443 H 0.53444 0.66619 0.65670
 H444 H 0.54170 0.62426 0.61577
 C445 C 0.43584 0.84924 0.64942
 C446 C 0.42721 0.89472 0.64448
 C447 C 0.39002 0.89135 0.61429
 C448 C 0.36663 0.84633 0.58828
 C449 C 0.38178 0.80487 0.59059
 C450 C 0.41417 0.80575 0.62290
 C451 C 0.46385 0.79877 0.62450
 C452 C 0.48775 0.84653 0.65357
 H453 H 0.38024 0.92436 0.61000
 H454 H 0.34007 0.84613 0.56443
 H455 H 0.48603 0.80823 0.59534
 H456 H 0.45528 0.75905 0.63874
 H457 H 0.52367 0.88369 0.64123
 H458 H 0.49308 0.83423 0.68444
 C459 C 0.13217 0.58280 0.64324
 C460 C 0.09281 0.52708 0.64237
 C461 C 0.10000 0.49446 0.61317
 C462 C 0.14234 0.51810 0.58449
 C463 C 0.17695 0.57531 0.58299
 C464 C 0.17273 0.60632 0.61418
 C465 C 0.16964 0.65845 0.61332
 C466 C 0.12525 0.63275 0.64526
 H467 H 0.07204 0.45078 0.61188
 H468 H 0.14566 0.49210 0.56191
 H469 H 0.15446 0.66567 0.58418
 H470 H 0.20778 0.69375 0.62448
 H471 H 0.08441 0.62512 0.63466
 H472 H 0.13788 0.65322 0.67482
 C473 C 0.47932 0.60467 0.87590
 C474 C 0.44835 0.55348 0.85820
 C475 C 0.39132 0.52694 0.86388
 C476 C 0.36759 0.54803 0.89102
 C477 C 0.40064 0.59590 0.91307
 C478 C 0.45607 0.62535 0.90260
 C479 C 0.50628 0.65087 0.92790
 C480 C 0.53185 0.62823 0.89848
 H481 H 0.36566 0.48829 0.84929
 H482 H 0.32403 0.52492 0.89657
 H483 H 0.49968 0.63182 0.95835
 H484 H 0.52604 0.69644 0.92732
 H485 H 0.54029 0.59649 0.91220
 H486 H 0.56623 0.66078 0.88095
 C487 C 0.11278 0.61182 0.87917
 C488 C 0.09705 0.56309 0.85817
 C489 C 0.13143 0.53897 0.86144
 C490 C 0.17478 0.55895 0.88933
 C491 C 0.18579 0.60461 0.91338
 C492 C 0.15684 0.63285 0.90494
 C493 C 0.13142 0.65707 0.93168
 C494 C 0.08285 0.63411 0.90313
 H495 H 0.12214 0.50214 0.84493
 H496 H 0.19792 0.53722 0.89335
 H497 H 0.15458 0.70268 0.93150
 H498 H 0.12150 0.63744 0.96199
 H499 H 0.07834 0.66658 0.88647
 H500 H 0.04500 0.60213 0.91769
 C501 C 0.39422 0.88612 0.88185
 C502 C 0.44360 0.90115 0.86208
 C503 C 0.46700 0.86646 0.86642
 C504 C 0.44498 0.82226 0.89407
 C505 C 0.39909 0.81203 0.91784
 C506 C 0.37247 0.84259 0.90898
 C507 C 0.35178 0.87119 0.93587
 C508 C 0.37559 0.91897 0.90602
 H509 H 0.50386 0.87530 0.85005
 H510 H 0.46562 0.79810 0.89825
 H511 H 0.37259 0.88128 0.96551
 H512 H 0.30641 0.85004 0.93722
 H513 H 0.40982 0.95673 0.91864
 H514 H 0.34388 0.92519 0.89017
 C515 C 0.60241 0.48346 0.87969
 C516 C 0.55223 0.45191 0.86077
 C517 C 0.52620 0.39464 0.86685
 C518 C 0.54669 0.37115 0.89522
 C519 C 0.59355 0.40463 0.91813
 C520 C 0.62262 0.46038 0.90750
 C521 C 0.64663 0.51065 0.93269
 C522 C 0.62447 0.53602 0.90211
 H523 H 0.48835 0.36853 0.85149
 H524 H 0.52405 0.32729 0.90073
 H525 H 0.69200 0.53104 0.93319
 H526 H 0.62670 0.50351 0.96266
 H527 H 0.65711 0.57095 0.88502
 H528 H 0.59209 0.54382 0.91468
 C529 C 0.87230 0.48807 0.87534
 C530 C 0.89866 0.45969 0.86136
 C531 C 0.87536 0.40334 0.87073
 C532 C 0.83114 0.37844 0.89777
 C533 C 0.80933 0.40949 0.91575
 C534 C 0.82855 0.46350 0.90181
 C535 C 0.84668 0.51544 0.92447
 C536 C 0.89463 0.54232 0.89540
 H537 H 0.89323 0.37943 0.85887
 H538 H 0.81600 0.33575 0.90607
 H539 H 0.85906 0.51253 0.95579
 H540 H 0.81738 0.53165 0.92145
 H541 H 0.93478 0.55509 0.90995
 H542 H 0.89286 0.57393 0.87564
 C543 C 0.60407 0.13468 0.85981
 C544 C 0.54758 0.10283 0.85536
 C545 C 0.51386 0.11998 0.87488
 C546 C 0.53622 0.16372 0.90209
 C547 C 0.59274 0.19070 0.91056
 C548 C 0.62617 0.17763 0.88680
 C549 C 0.67041 0.16466 0.89861
 C550 C 0.64612 0.11770 0.86894
 H551 H 0.46996 0.09734 0.87105
 H552 H 0.50877 0.17378 0.91837
 H553 H 0.66690 0.15064 0.93041
 H554 H 0.71152 0.19784 0.88954
 H555 H 0.62849 0.07645 0.88351
 H556 H 0.67317 0.12393 0.84275
   
