data_POSCAR
  _audit_creation_date              2014-09-24
  _audit_creation_method            'ToBaCCo'
  _symmetry_space_group_name_H-M    'P1'
  _symmetry_Int_Tables_number       1
  _symmetry_cell_setting            triclinic
  loop_
  _symmetry_equiv_pos_as_xyz
 x,y,z
_cell_length_a 40.0114
_cell_length_b 40.0370
_cell_length_c 39.9652
_cell_angle_alpha 89.997100
_cell_angle_beta 89.998500
_cell_angle_gamma 89.959600
loop_
  _atom_site_label
  _atom_site_type_symbol
  _atom_site_fract_x
  _atom_site_fract_y
  _atom_site_fract_z
C1 C 0.15922 0.18320 0.20846
 C2 C 0.15923 0.20798 0.18364
 C3 C 0.18369 0.20797 0.15923
 C4 C 0.20842 0.18312 0.15924
 C5 C 0.20840 0.15882 0.18366
 C6 C 0.18358 0.15887 0.20848
 C7 C 0.13874 0.17720 0.23540
 N8 N 0.14992 0.14963 0.25221
 C9 C 0.17756 0.13846 0.23548
 C10 C 0.23537 0.13837 0.17768
 N11 N 0.25212 0.14949 0.15003
 C12 C 0.23537 0.17706 0.13879
 C13 C 0.17775 0.23494 0.13875
 N14 N 0.15022 0.25137 0.15010
 C15 C 0.13876 0.23495 0.17759
 H16 H 0.11755 0.19255 0.24203
 H17 H 0.19255 0.11693 0.24182
 H18 H 0.24166 0.11685 0.19270
 H19 H 0.24206 0.19240 0.11760
 H20 H 0.19225 0.24183 0.11696
 H21 H 0.11744 0.24234 0.19252
 C22 C -0.15920 0.81679 0.20843
 C23 C -0.15922 0.79194 0.18369
 C24 C -0.18365 0.79194 0.15924
 C25 C -0.20845 0.81673 0.15926
 C26 C -0.20843 0.84107 0.18363
 C27 C -0.18359 0.84110 0.20843
 C28 C -0.13873 0.82284 0.23537
 N29 N -0.14993 0.85041 0.25215
 C30 C -0.17758 0.86154 0.23541
 C31 C -0.23541 0.86149 0.17763
 N32 N -0.25218 0.85032 0.15001
 C33 C -0.23540 0.82273 0.13881
 C34 C -0.17764 0.76497 0.13877
 N35 N -0.15015 0.74854 0.15020
 C36 C -0.13876 0.76496 0.17772
 H37 H -0.11754 0.80749 0.24204
 H38 H -0.19259 0.88307 0.24172
 H39 H -0.24173 0.88299 0.19267
 H40 H -0.24202 0.80741 0.11759
 H41 H -0.19258 0.75758 0.11745
 H42 H -0.11697 0.75807 0.19220
 C43 C -0.15957 0.18329 -0.20836
 C44 C -0.15955 0.20808 -0.18356
 C45 C -0.18401 0.20814 -0.15914
 C46 C -0.20877 0.18334 -0.15914
 C47 C -0.20871 0.15898 -0.18349
 C48 C -0.18393 0.15899 -0.20835
 C49 C -0.13910 0.17724 -0.23531
 N50 N -0.15028 0.14967 -0.25208
 C51 C -0.17791 0.13854 -0.23533
 C52 C -0.23563 0.13853 -0.17745
 N53 N -0.25244 0.14975 -0.14986
 C54 C -0.23574 0.17737 -0.13870
 C55 C -0.17804 0.23513 -0.13870
 N56 N -0.15051 0.25149 -0.15008
 C57 C -0.13907 0.23501 -0.17756
 H58 H -0.11792 0.19256 -0.24196
 H59 H -0.19288 0.11701 -0.24162
 H60 H -0.24228 0.11737 -0.19281
 H61 H -0.24207 0.19236 -0.11716
 H62 H -0.19254 0.24209 -0.11692
 H63 H -0.11776 0.24235 -0.19252
 C64 C 0.15949 0.81674 -0.20840
 C65 C 0.15951 0.79193 -0.18362
 C66 C 0.18398 0.79189 -0.15921
 C67 C 0.20870 0.81671 -0.15920
 C68 C 0.20867 0.84103 -0.18359
 C69 C 0.18385 0.84104 -0.20841
 C70 C 0.13900 0.82278 -0.23533
 N71 N 0.15017 0.85035 -0.25212
 C72 C 0.17781 0.86148 -0.23540
 C73 C 0.23562 0.86145 -0.17761
 N74 N 0.25239 0.85031 -0.14997
 C75 C 0.23565 0.82274 -0.13874
 C76 C 0.17803 0.76489 -0.13875
 N77 N 0.15050 0.74852 -0.15012
 C78 C 0.13904 0.76499 -0.17760
 H79 H 0.11781 0.80746 -0.24197
 H80 H 0.19279 0.88300 -0.24171
 H81 H 0.24189 0.88299 -0.19262
 H82 H 0.24236 0.80738 -0.11756
 H83 H 0.19253 0.75796 -0.11697
 H84 H 0.11772 0.75765 -0.19254
 C85 C 0.18276 1.15895 0.79184
 C86 C 0.20764 1.15899 0.81656
 C87 C 0.20766 1.18342 0.84099
 C88 C 0.18286 1.20819 0.84096
 C89 C 0.15850 1.20816 0.81660
 C90 C 0.15845 1.18332 0.79182
 C91 C 0.17673 1.13849 0.76490
 N92 N 0.14915 1.14970 0.74811
 C93 C 0.13801 1.17734 0.76484
 C94 C 0.13810 1.23516 0.82254
 N95 N 0.14930 1.25194 0.85014
 C96 C 0.17688 1.23517 0.86137
 C97 C 0.23468 1.17743 0.86143
 N98 N 0.25111 1.14997 0.84998
 C99 C 0.23465 1.13856 0.82250
 H100 H 0.19211 1.11734 0.75821
 H101 H 0.11647 1.19233 0.75852
 H102 H 0.11656 1.24145 0.80753
 H103 H 0.19226 1.24186 0.88253
 H104 H 0.24211 1.19239 0.88272
 H105 H 0.24154 1.11679 0.80801
 C106 C 0.81733 0.84116 0.79209
 C107 C 0.79255 0.84116 0.81691
 C108 C 0.79255 0.81669 0.84131
 C109 C 0.81739 0.79195 0.84127
 C110 C 0.84169 0.79197 0.81684
 C111 C 0.84165 0.81678 0.79203
 C112 C 0.82330 0.86160 0.76513
 N113 N 0.85083 0.85038 0.74827
 C114 C 0.86202 0.82275 0.76499
 C115 C 0.86209 0.76497 0.82274
 N116 N 0.85095 0.74820 0.85036
 C117 C 0.82341 0.76497 0.86166
 C118 C 0.76554 0.82262 0.86177
 N119 N 0.74912 0.85013 0.85041
 C120 C 0.76558 0.86160 0.82294
 H121 H 0.80793 0.88276 0.75849
 H122 H 0.88354 0.80775 0.75862
 H123 H 0.88360 0.75867 0.80768
 H124 H 0.80805 0.75826 0.88283
 H125 H 0.75861 0.80810 0.88353
 H126 H 0.75818 0.88291 0.80800
 C127 C 0.18300 0.84106 1.20830
 C128 C 0.20787 0.84101 1.18357
 C129 C 0.20791 0.81663 1.15910
 C130 C 0.18313 0.79189 1.15907
 C131 C 0.15870 0.79191 1.18353
 C132 C 0.15867 0.81673 1.20831
 C133 C 0.17698 0.86150 1.23526
 N134 N 0.14940 0.85033 1.25205
 C135 C 0.13824 0.82273 1.23530
 C136 C 0.13828 0.76493 1.17756
 N137 N 0.14968 0.74851 1.15003
 C138 C 0.17715 0.76493 1.13859
 C139 C 0.23491 0.82262 1.13866
 N140 N 0.25134 0.85005 1.15014
 C141 C 0.23488 0.86142 1.17765
 H142 H 0.19236 0.88263 1.24196
 H143 H 0.11671 0.80776 1.24162
 H144 H 0.11651 0.75802 1.19206
 H145 H 0.19212 0.75753 1.11729
 H146 H 0.24234 0.80769 1.11734
 H147 H 0.24177 0.88317 1.19217
 C148 C 0.81698 1.15886 1.20812
 C149 C 0.79216 1.15889 1.18333
 C150 C 0.79213 1.18332 1.15890
 C151 C 0.81696 1.20801 1.15886
 C152 C 0.84136 1.20797 1.18334
 C153 C 0.84132 1.18318 1.20815
 C154 C 0.82296 1.13842 1.23509
 N155 N 0.85052 1.14959 1.25191
 C156 C 0.86171 1.17718 1.23517
 C157 C 0.86180 1.23494 1.17740
 N158 N 0.85043 1.25137 1.14986
 C159 C 0.82297 1.23497 1.13839
 C160 C 0.76511 1.17740 1.13847
 N161 N 0.74871 1.14992 1.14987
 C162 C 0.76518 1.13847 1.17734
 H163 H 0.80758 1.11729 1.24176
 H164 H 0.88325 1.19213 1.24150
 H165 H 0.88355 1.24185 1.19193
 H166 H 0.80801 1.24240 1.11709
 H167 H 0.75817 1.19189 1.11668
 H168 H 0.75780 1.11718 1.19231
 N169 N 0.46484 0.94079 0.96397
 N170 N 0.43940 0.92022 0.95983
 N171 N 0.53517 0.96402 0.94074
 N172 N 0.56067 0.95993 0.92017
 N173 N 0.53519 0.94081 0.96397
 N174 N 0.56069 0.92027 0.95987
 N175 N 0.46482 0.96400 0.94074
 N176 N 0.43936 0.95988 0.92013
 C177 C 0.42388 0.93249 0.93240
 C178 C 0.57620 0.93256 0.93247
 N179 N 0.53510 1.05916 0.96402
 N180 N 0.56055 1.07973 0.95989
 N181 N 0.46477 1.03595 0.94078
 N182 N 0.43931 1.04009 0.92018
 N183 N 0.46476 1.05914 0.96403
 N184 N 0.43928 1.07971 0.95992
 N185 N 0.53512 1.03597 0.94077
 N186 N 0.56058 1.04011 0.92016
 Mn187 Mn 0.49997 0.99998 0.94035
 C188 C 0.57606 1.06749 0.93245
 C189 C 0.42379 1.06746 0.93249
 N190 N 0.53522 0.94077 1.03604
 N191 N 0.56070 0.92020 1.04017
 N192 N 0.46486 0.96394 1.05930
 N193 N 0.43940 0.95980 1.07991
 N194 N 0.46487 0.94076 1.03605
 N195 N 0.43943 0.92018 1.04017
 N196 N 0.53520 0.96396 1.05929
 N197 N 0.56066 0.95983 1.07990
 Mn198 Mn 0.50003 0.94038 1.00001
 C199 C 0.57619 0.93246 1.06761
 C200 C 0.42393 0.93243 1.06760
 N201 N 0.46474 1.05909 1.03611
 N202 N 0.43925 1.07964 1.04025
 N203 N 0.53511 1.03590 1.05932
 N204 N 0.56058 1.04002 1.07991
 N205 N 0.53508 1.05911 1.03609
 N206 N 0.56053 1.07968 1.04021
 N207 N 0.46477 1.03588 1.05934
 N208 N 0.43930 1.03998 1.07995
 Mn209 Mn 0.49992 1.05953 1.00006
 Mn210 Mn 0.49999 0.99992 1.05971
 Cl211 Cl 0.49998 0.99995 1.00003
 C212 C 0.42376 1.06735 1.06768
 C213 C 0.57605 1.06740 1.06763
 N214 N -0.03598 0.46488 -0.05962
 N215 N -0.04014 0.43943 -0.08021
 N216 N -0.05911 0.53524 -0.03639
 N217 N -0.07962 0.56076 -0.04049
 N218 N -0.03589 0.53519 -0.05963
 N219 N -0.03994 0.56068 -0.08020
 N220 N -0.05919 0.46493 -0.03638
 N221 N -0.07980 0.43952 -0.04049
 C222 C -0.06755 0.42399 -0.06791
 C223 C -0.06730 0.57625 -0.06789
 N224 N -0.03592 0.53521 0.05892
 N225 N -0.04006 0.56064 0.07955
 N226 N -0.05920 0.46495 0.03569
 N227 N -0.07978 0.43951 0.03981
 N228 N -0.03599 0.46492 0.05893
 N229 N -0.04010 0.43946 0.07952
 N230 N -0.05913 0.53525 0.03568
 N231 N -0.07972 0.56071 0.03983
 Mn232 Mn -0.05956 0.50009 -0.00035
 C233 C -0.06745 0.57617 0.06727
 C234 C -0.06750 0.42400 0.06723
 N235 N 0.03610 0.53508 -0.05962
 N236 N 0.04026 0.56053 -0.08021
 N237 N 0.05923 0.46473 -0.03637
 N238 N 0.07976 0.43922 -0.04047
 N239 N 0.03602 0.46477 -0.05961
 N240 N 0.04010 0.43929 -0.08019
 N241 N 0.05931 0.53503 -0.03637
 N242 N 0.07991 0.56045 -0.04047
 Mn243 Mn 0.00006 0.49998 -0.06003
 C244 C 0.06766 0.57598 -0.06790
 C245 C 0.06746 0.42374 -0.06788
 N246 N 0.03600 0.46477 0.05895
 N247 N 0.04012 0.43934 0.07958
 N248 N 0.05929 0.53503 0.03570
 N249 N 0.07988 0.56046 0.03983
 N250 N 0.03607 0.53507 0.05894
 N251 N 0.04019 0.56052 0.07953
 N252 N 0.05922 0.46473 0.03571
 N253 N 0.07979 0.43927 0.03987
 Mn254 Mn 0.00004 0.49999 0.05934
 Mn255 Mn 0.05966 0.49988 -0.00033
 Cl256 Cl 0.00005 0.49999 -0.00034
 C257 C 0.06751 0.42381 0.06731
 C258 C 0.06760 0.57597 0.06725
 N259 N 1.03594 -0.05914 0.46488
 N260 N 1.04006 -0.07971 0.43939
 N261 N 1.05914 -0.03592 0.53530
 N262 N 1.07975 -0.04004 0.56077
 N263 N 1.03596 -0.05913 0.53531
 N264 N 1.04013 -0.07971 0.56079
 N265 N 1.05913 -0.03594 0.46487
 N266 N 1.07970 -0.04005 0.43936
 C267 C 1.06744 -0.06743 0.42385
 C268 C 1.06753 -0.06743 0.57630
 N269 N 1.03580 0.05921 0.53526
 N270 N 1.03987 0.07977 0.56076
 N271 N 1.05905 0.03601 0.46484
 N272 N 1.07965 0.04015 0.43937
 N273 N 1.03582 0.05920 0.46483
 N274 N 1.03994 0.07978 0.43935
 N275 N 1.05905 0.03603 0.53527
 N276 N 1.07960 0.04015 0.56078
 Mn277 Mn 1.05950 0.00005 0.50007
 C278 C 1.06727 0.06752 0.57630
 C279 C 1.06737 0.06753 0.42384
 N280 N 0.96397 -0.05917 0.53529
 N281 N 0.95990 -0.07972 0.56080
 N282 N 0.94071 -0.03598 0.46487
 N283 N 0.92013 -0.04011 0.43938
 N284 N 0.96395 -0.05918 0.46486
 N285 N 0.95984 -0.07974 0.43937
 N286 N 0.94072 -0.03598 0.53529
 N287 N 0.92017 -0.04010 0.56081
 Mn288 Mn 0.99995 -0.05956 0.50009
 C289 C 0.93250 -0.06747 0.57633
 C290 C 0.93243 -0.06748 0.42385
 N291 N 0.96382 0.05916 0.46486
 N292 N 0.95970 0.07971 0.43935
 N293 N 0.94063 0.03596 0.53529
 N294 N 0.92003 0.04008 0.56077
 N295 N 0.96381 0.05918 0.53529
 N296 N 0.95964 0.07975 0.56077
 N297 N 0.94063 0.03596 0.46486
 N298 N 0.92007 0.04005 0.43935
 Mn299 Mn 0.99981 0.05959 0.50006
 Mn300 Mn 0.94027 -0.00001 0.50008
 Cl301 Cl 0.99988 0.00002 0.50007
 C302 C 0.93233 0.06743 0.42382
 C303 C 0.93226 0.06747 0.57629
 C304 C 1.10782 0.10778 0.33926
 C305 C 1.09209 0.13451 0.32329
 C306 C 1.10596 0.14843 0.29437
 C307 C 1.13610 0.13587 0.28063
 C308 C 1.15152 0.10868 0.29728
 C309 C 1.13750 0.09490 0.32619
 C310 C 1.09353 0.09360 0.36910
 C311 C 1.08158 0.08172 0.39410
 H312 H 1.06899 0.14464 0.33317
 H313 H 1.09247 0.16882 0.28302
 H314 H 1.17464 0.09785 0.28861
 H315 H 1.14994 0.07418 0.33843
 C316 C 0.89207 -0.10769 0.33921
 C317 C 0.90787 -0.13437 0.32321
 C318 C 0.89404 -0.14830 0.29429
 C319 C 0.86387 -0.13581 0.28056
 C320 C 0.84839 -0.10865 0.29722
 C321 C 0.86237 -0.09486 0.32614
 C322 C 0.90632 -0.09352 0.36907
 C323 C 0.91824 -0.08165 0.39409
 H324 H 0.93099 -0.14446 0.33309
 H325 H 0.90758 -0.16865 0.28292
 H326 H 0.82524 -0.09788 0.28856
 H327 H 0.84988 -0.07418 0.33839
 C328 C 0.89179 0.10772 0.66089
 C329 C 0.90754 0.13442 0.67686
 C330 C 0.89368 0.14837 0.70577
 C331 C 0.86353 0.13587 0.71951
 C332 C 0.84810 0.10870 0.70288
 C333 C 0.86211 0.09489 0.67397
 C334 C 0.90607 0.09352 0.63104
 C335 C 0.91802 0.08164 0.60604
 H336 H 0.93064 0.14450 0.66696
 H337 H 0.90718 0.16873 0.71711
 H338 H 0.82498 0.09792 0.71156
 H339 H 0.84966 0.07419 0.66174
 C340 C 1.10804 -0.10770 0.66087
 C341 C 1.09232 -0.13443 0.67683
 C342 C 1.10620 -0.14837 0.70573
 C343 C 1.13633 -0.13585 0.71947
 C344 C 1.15173 -0.10866 0.70285
 C345 C 1.13771 -0.09485 0.67394
 C346 C 1.09374 -0.09350 0.63103
 C347 C 1.08177 -0.08161 0.60603
 H348 H 1.06923 -0.14453 0.66694
 H349 H 1.09272 -0.16876 0.71707
 H350 H 1.17485 -0.09786 0.71152
 H351 H 1.15013 -0.07413 0.66172
 C352 C 0.33916 1.10755 1.10807
 C353 C 0.32611 1.09478 1.13782
 C354 C 0.29720 1.10858 1.15179
 C355 C 0.28053 1.13569 1.13625
 C356 C 0.29424 1.14813 1.10602
 C357 C 0.32315 1.13419 1.09221
 C358 C 0.36901 1.09336 1.09383
 C359 C 0.39401 1.08150 1.08190
 H360 H 0.33837 1.07414 1.15036
 H361 H 0.28856 1.09786 1.17498
 H362 H 0.28285 1.16843 1.09243
 H363 H 0.33301 1.14422 1.06904
 C364 C 0.33937 0.89222 0.89201
 C365 C 0.32340 0.86558 0.90785
 C366 C 0.29451 0.85163 0.89403
 C367 C 0.28079 0.86409 0.86382
 C368 C 0.29742 0.89120 0.84828
 C369 C 0.32631 0.90500 0.86226
 C370 C 0.36919 0.90643 0.90625
 C371 C 0.39417 0.91831 0.91818
 H372 H 0.33328 0.85553 0.93101
 H373 H 0.28315 0.83132 0.90761
 H374 H 0.28876 0.90193 0.82510
 H375 H 0.33853 0.92565 0.84972
 C376 C 0.66078 0.89221 1.10800
 C377 C 0.67639 0.86511 1.09254
 C378 C 0.70530 0.85118 1.10637
 C379 C 0.71940 0.86409 1.13621
 C380 C 0.70312 0.89166 1.15135
 C381 C 0.67421 0.90545 1.13736
 C382 C 0.63093 0.90640 1.09374
 C383 C 0.60593 0.91828 1.08182
 H384 H 0.66621 0.85469 1.06969
 H385 H 0.71631 0.83045 1.09313
 H386 H 0.71211 0.90283 1.17419
 H387 H 0.66227 0.92647 1.14958
 C388 C 0.66058 1.10781 0.89211
 C389 C 0.67356 1.13754 0.90487
 C390 C 0.70245 1.15150 0.89106
 C391 C 0.71916 1.13597 0.86393
 C392 C 0.70551 1.10578 0.85149
 C393 C 0.67662 1.09197 0.86545
 C394 C 0.63076 1.09358 0.90633
 C395 C 0.60578 1.08168 0.91825
 H396 H 0.66128 1.15007 0.92553
 H397 H 0.71104 1.17467 0.90178
 H398 H 0.71693 1.09221 0.83117
 H399 H 0.66680 1.06882 0.85542
 C400 C 0.10789 0.33935 0.10771
 C401 C 0.08765 0.31683 0.12520
 C402 C 0.10151 0.28793 0.13911
 C403 C 0.13587 0.28113 0.13568
 C404 C 0.15598 0.30393 0.11799
 C405 C 0.14206 0.33283 0.10413
 C406 C 0.09362 0.36915 0.09348
 C407 C 0.08170 0.39411 0.08155
 H408 H 0.06114 0.32159 0.12804
 H409 H 0.08526 0.27071 0.15215
 H410 H 0.18254 0.29971 0.11528
 H411 H 0.15798 0.35014 0.09072
 C412 C -0.10805 0.33949 -0.10799
 C413 C -0.08785 0.31688 -0.12544
 C414 C -0.10175 0.28796 -0.13923
 C415 C -0.13611 0.28124 -0.13573
 C416 C -0.15617 0.30413 -0.11807
 C417 C -0.14222 0.33305 -0.10433
 C418 C -0.09374 0.36931 -0.09389
 C419 C -0.08177 0.39428 -0.08206
 H420 H -0.06134 0.32157 -0.12833
 H421 H -0.08554 0.27067 -0.15225
 H422 H -0.18274 0.29997 -0.11530
 H423 H -0.15810 0.35043 -0.09094
 C424 C 0.10811 0.66051 -0.10799
 C425 C 0.08789 0.68311 -0.12542
 C426 C 0.10177 0.71203 -0.13923
 C427 C 0.13612 0.71877 -0.13575
 C428 C 0.15621 0.69589 -0.11810
 C429 C 0.14227 0.66697 -0.10434
 C430 C 0.09382 0.63068 -0.09388
 C431 C 0.08187 0.60570 -0.08204
 H432 H 0.06138 0.67840 -0.12830
 H433 H 0.08553 0.72931 -0.15224
 H434 H 0.18277 0.70007 -0.11535
 H435 H 0.15818 0.64959 -0.09096
 C436 C -0.10780 0.66059 0.10777
 C437 C -0.12533 0.68310 0.08753
 C438 C -0.13923 0.71200 0.10143
 C439 C -0.13575 0.71879 0.13581
 C440 C -0.11801 0.69598 0.15592
 C441 C -0.10417 0.66710 0.14197
 C442 C -0.09358 0.63081 0.09347
 C443 C -0.08166 0.60586 0.08151
 H444 H -0.12821 0.67836 0.06100
 H445 H -0.15231 0.72922 0.08518
 H446 H -0.11526 0.70020 0.18251
 H447 H -0.09072 0.64979 0.15789
 C448 C 1.10734 0.10779 0.66100
 C449 C 1.13391 0.09190 0.67711
 C450 C 1.14780 0.10570 0.70605
 C451 C 1.13539 0.13593 0.71968
 C452 C 1.10834 0.15150 0.70292
 C453 C 1.09459 0.13755 0.67397
 C454 C 1.09321 0.09358 0.63112
 C455 C 1.08139 0.08169 0.60608
 H456 H 1.14392 0.06873 0.66729
 H457 H 1.16805 0.09209 0.71753
 H458 H 1.09765 0.17470 0.71150
 H459 H 1.07400 0.15011 0.66163
 C460 C 0.89248 -0.10773 0.66107
 C461 C 0.86591 -0.09187 0.67719
 C462 C 0.85206 -0.10566 0.70616
 C463 C 0.86454 -0.13586 0.71981
 C464 C 0.89158 -0.15141 0.70302
 C465 C 0.90528 -0.13746 0.67405
 C466 C 0.90657 -0.09351 0.63117
 C467 C 0.91839 -0.08162 0.60612
 H468 H 0.85585 -0.06872 0.66737
 H469 H 0.83180 -0.09207 0.71764
 H470 H 0.90232 -0.17459 0.71161
 H471 H 0.92588 -0.15000 0.66169
 C472 C 1.10759 -0.10773 0.33917
 C473 C 1.09484 -0.13747 0.32620
 C474 C 1.10860 -0.15143 0.29725
 C475 C 1.13564 -0.13590 0.28049
 C476 C 1.14806 -0.10568 0.29412
 C477 C 1.13415 -0.09187 0.32307
 C478 C 1.09344 -0.09350 0.36905
 C479 C 1.08159 -0.08160 0.39408
 H480 H 1.07425 -0.15000 0.33854
 H481 H 1.09792 -0.17462 0.28867
 H482 H 1.16830 -0.09210 0.28265
 H483 H 1.14416 -0.06872 0.33289
 C484 C 0.89223 0.10767 0.33909
 C485 C 0.86566 0.09183 0.32299
 C486 C 0.85179 0.10563 0.29402
 C487 C 0.86424 0.13582 0.28037
 C488 C 0.89129 0.15134 0.29713
 C489 C 0.90502 0.13738 0.32610
 C490 C 0.90635 0.09345 0.36899
 C491 C 0.91819 0.08157 0.39403
 H492 H 0.85562 0.06869 0.33282
 H493 H 0.83153 0.09206 0.28256
 H494 H 0.90201 0.17450 0.28853
 H495 H 0.92562 0.14990 0.33844
 C496 C 0.10754 0.33907 -0.10808
 C497 C 0.13424 0.32313 -0.09226
 C498 C 0.14813 0.29418 -0.10602
 C499 C 0.13557 0.28039 -0.13614
 C500 C 0.10839 0.29699 -0.15165
 C501 C 0.09464 0.32594 -0.13774
 C502 C 0.09340 0.36895 -0.09391
 C503 C 0.08157 0.39397 -0.08204
 H504 H 0.14438 0.33308 -0.06917
 H505 H 0.16851 0.28286 -0.09247
 H506 H 0.09756 0.28828 -0.17476
 H507 H 0.07394 0.33815 -0.15024
 C508 C -0.10754 0.33945 0.10757
 C509 C -0.12492 0.31690 0.08728
 C510 C -0.13870 0.28795 0.10113
 C511 C -0.13523 0.28115 0.13552
 C512 C -0.11763 0.30398 0.15567
 C513 C -0.10391 0.33292 0.14177
 C514 C -0.09345 0.36928 0.09331
 C515 C -0.08163 0.39428 0.08140
 H516 H -0.12778 0.32166 0.06075
 H517 H -0.15167 0.27070 0.08485
 H518 H -0.11490 0.29975 0.18227
 H519 H -0.09056 0.35027 0.15772
 C520 C -0.10730 0.66100 -0.10798
 C521 C -0.13383 0.67707 -0.09200
 C522 C -0.14771 0.70604 -0.10571
 C523 C -0.13531 0.71974 -0.13595
 C524 C -0.10830 0.70301 -0.15162
 C525 C -0.09456 0.67404 -0.13775
 C526 C -0.09318 0.63110 -0.09386
 C527 C -0.08137 0.60604 -0.08202
 H528 H -0.14383 0.66721 -0.06882
 H529 H -0.16793 0.71748 -0.09203
 H530 H -0.09762 0.71164 -0.17483
 H531 H -0.07399 0.66173 -0.15038
 C532 C 0.10767 0.66047 0.10765
 C533 C 0.12507 0.68304 0.08739
 C534 C 0.13884 0.71197 0.10127
 C535 C 0.13536 0.71875 0.13566
 C536 C 0.11776 0.69589 0.15579
 C537 C 0.10403 0.66696 0.14186
 C538 C 0.09358 0.63065 0.09337
 C539 C 0.08175 0.60567 0.08144
 H540 H 0.12794 0.67830 0.06085
 H541 H 0.15183 0.72924 0.08501
 H542 H 0.11501 0.70010 0.18239
 H543 H 0.09068 0.64961 0.15779
 C544 C 0.33923 1.10774 0.89220
 C545 C 0.33268 1.10415 0.85800
 C546 C 0.30374 1.11797 0.84413
 C547 C 0.28093 1.13561 0.86430
 C548 C 0.28776 1.13906 0.89868
 C549 C 0.31672 1.12519 0.91250
 C550 C 0.36906 1.09354 0.90642
 C551 C 0.39406 1.08164 0.91831
 H552 H 0.35000 1.09076 0.84204
 H553 H 0.29948 1.11525 0.81753
 H554 H 0.27054 1.15208 0.91497
 H555 H 0.32150 1.12803 0.93904
 C556 C 0.33942 0.89221 1.10792
 C557 C 0.33290 0.89575 1.14213
 C558 C 0.30397 0.88196 1.15601
 C559 C 0.28113 0.86439 1.13582
 C560 C 0.28794 0.86099 1.10143
 C561 C 0.31688 0.87483 1.08760
 C562 C 0.36924 0.90637 1.09369
 C563 C 0.39422 0.91825 1.08179
 H564 H 0.35024 0.90908 1.15810
 H565 H 0.29974 0.88463 1.18261
 H566 H 0.27069 0.84804 1.08514
 H567 H 0.32164 0.87204 1.06106
 C568 C 0.66060 1.10769 1.10777
 C569 C 0.66707 1.14184 1.10419
 C570 C 0.69602 1.15572 1.11795
 C571 C 0.71891 1.13560 1.13554
 C572 C 0.71217 1.10126 1.13896
 C573 C 0.68321 1.08743 1.12515
 C574 C 0.63077 1.09346 1.09364
 C575 C 0.60577 1.08156 1.08179
 H576 H 0.64968 1.15776 1.09086
 H577 H 0.70020 1.18228 1.11526
 H578 H 0.72947 1.08501 1.15193
 H579 H 0.67850 1.06094 1.12798
 C580 C 0.66092 0.89234 0.89246
 C581 C 0.66744 0.85820 0.89604
 C582 C 0.69643 0.84432 0.88232
 C583 C 0.71931 0.86445 0.86476
 C584 C 0.71252 0.89879 0.86135
 C585 C 0.68353 0.91261 0.87513
 C586 C 0.63103 0.90656 0.90653
 C587 C 0.60599 0.91844 0.91834
 H588 H 0.65005 0.84226 0.90935
 H589 H 0.70065 0.81777 0.88500
 H590 H 0.72981 0.91505 0.84841
 H591 H 0.67877 0.93911 0.87230
   
