data_POSCAR
  _audit_creation_date              2014-09-24
  _audit_creation_method            'ToBaCCo'
  _symmetry_space_group_name_H-M    'P1'
  _symmetry_Int_Tables_number       1
  _symmetry_cell_setting            triclinic
  loop_
  _symmetry_equiv_pos_as_xyz
 x,y,z
_cell_length_a 28.0583
_cell_length_b 28.0839
_cell_length_c 52.1435
_cell_angle_alpha 89.937400
_cell_angle_beta 90.009300
_cell_angle_gamma 120.544600
loop_
  _atom_site_label
  _atom_site_type_symbol
  _atom_site_fract_x
  _atom_site_fract_y
  _atom_site_fract_z
Zn1 Zn 0.96477 0.03503 1.01248
 Zn2 Zn 1.07227 0.03641 1.01223
 Zn3 Zn 0.96493 -0.07159 1.01229
 Zn4 Zn 1.00039 0.00020 0.96595
 O5 O 1.00059 0.00001 1.00081
 O6 O 1.00840 0.09395 1.03203
 O7 O 1.08794 -0.00685 1.03148
 O8 O 0.90612 -0.08775 1.03199
 O9 O 1.08773 0.09493 1.03176
 O10 O 0.90593 -0.00907 1.03189
 O11 O 1.00872 -0.08653 1.03140
 O12 O 0.96500 -0.06753 0.95258
 O13 O 1.12230 0.06211 0.98668
 O14 O 0.93968 -0.12158 0.98677
 O15 O 1.06817 0.03328 0.95253
 O16 O 0.96787 0.03509 0.95277
 O17 O 0.93958 0.05991 0.98709
 C18 C 1.05860 0.11533 1.03892
 C19 C 1.05890 -0.05713 1.03829
 C20 C 0.88509 -0.05905 1.03897
 C21 C 0.94162 -0.11532 0.96260
 C22 C 1.11601 0.05792 0.96251
 C23 C 0.94366 0.05815 0.96290
 Zn24 Zn 0.03691 0.96502 0.51110
 Zn25 Zn -0.06993 0.96482 0.51269
 Zn26 Zn 0.03830 1.07214 0.51256
 Zn27 Zn -0.00027 1.00219 0.46571
 O28 O 0.00125 1.00104 0.50058
 O29 O -0.00644 0.90519 0.53028
 O30 O -0.08408 1.00799 0.53276
 O31 O 0.09756 1.08684 0.53148
 O32 O -0.08503 0.90559 0.53162
 O33 O 0.09656 1.00764 0.53039
 O34 O -0.00425 1.08711 0.53263
 O35 O 0.03272 1.07047 0.45283
 O36 O -0.12126 0.93988 0.48768
 O37 O 0.06300 1.12307 0.48743
 O38 O -0.06861 0.96868 0.45305
 O39 O 0.03280 0.96884 0.45131
 O40 O 0.06114 0.94158 0.48485
 C41 C -0.05621 0.88420 0.53780
 C42 C -0.05427 1.05797 0.53985
 C43 C 0.11821 1.05743 0.53782
 C44 C 0.05767 1.11780 0.46325
 C45 C -0.11601 0.94414 0.46346
 C46 C 0.05709 0.94513 0.46075
 O47 O 0.24832 0.59048 0.28018
 O48 O 0.24804 0.68172 0.27031
 C49 C 0.28186 0.72383 0.28330
 O50 O 0.33373 0.74902 0.27963
 O51 O 0.42746 0.75197 0.27265
 C52 C 0.43460 0.71855 0.28624
 O53 O 0.40825 0.66687 0.28238
 O54 O 0.31716 0.57343 0.27456
 C55 C 0.27396 0.56572 0.28622
 O56 O 0.24900 0.57127 0.22970
 O57 O 0.25322 0.66441 0.21981
 C58 C 0.27905 0.71586 0.21523
 O59 O 0.32038 0.75029 0.22845
 O60 O 0.41123 0.74749 0.22170
 C61 C 0.43681 0.72165 0.21793
 O62 O 0.42812 0.67997 0.23129
 O63 O 0.33471 0.58798 0.22344
 C64 C 0.28355 0.56245 0.21804
 Cr65 Cr 0.25271 0.62849 0.25005
 Cr66 Cr 0.37164 0.74665 0.25063
 Cr67 Cr 0.37056 0.62856 0.25284
 O68 O 0.33163 0.66780 0.25117
 O69 O 0.74974 0.41131 0.78050
 O70 O 0.75295 0.32113 0.77224
 C71 C 0.71894 0.27914 0.78526
 O72 O 0.66727 0.25313 0.78098
 O73 O 0.57340 0.24885 0.77202
 C74 C 0.56548 0.28273 0.78484
 O75 O 0.59169 0.33430 0.78044
 O76 O 0.68228 0.42845 0.77145
 C77 C 0.72415 0.43702 0.78454
 O78 O 0.75228 0.42913 0.72944
 O79 O 0.75070 0.33647 0.72140
 C80 C 0.72557 0.28486 0.71715
 O81 O 0.68366 0.25034 0.73010
 O82 O 0.59220 0.25089 0.72128
 C83 C 0.56585 0.27563 0.71668
 O84 O 0.57309 0.31726 0.72955
 O85 O 0.66620 0.40896 0.72078
 C86 C 0.71781 0.43580 0.71636
 Cr87 Cr 0.74844 0.37301 0.75090
 Cr88 Cr 0.63063 0.25378 0.75110
 Cr89 Cr 0.62979 0.37077 0.75058
 O90 O 0.66963 0.33251 0.75082
 C91 C 0.13044 0.25707 0.08901
 C92 C 0.16243 0.23521 0.07975
 C93 C 0.13924 0.18952 0.06335
 C94 C 0.08354 0.16463 0.05579
 C95 C 0.05172 0.18686 0.06480
 C96 C 0.07487 0.23249 0.08123
 C97 C 0.15448 0.30452 0.10703
 N98 N 0.12277 0.32384 0.11693
 N99 N 0.14387 0.36558 0.13356
 C100 C 0.19762 0.38991 0.14100
 N101 N 0.22946 0.37080 0.13100
 N102 N 0.20833 0.32898 0.11438
 C103 C 0.22047 0.43541 0.16007
 C104 C 0.27645 0.46184 0.16740
 C105 C 0.29727 0.50359 0.18597
 C106 C 0.26251 0.51968 0.19769
 C107 C 0.20675 0.49369 0.19009
 C108 C 0.18604 0.45219 0.17151
 H109 H 0.20534 0.25307 0.08532
 H110 H 0.16496 0.17350 0.05673
 H111 H 0.00870 0.16874 0.05934
 H112 H 0.04900 0.24825 0.08794
 H113 H 0.30419 0.45005 0.15894
 H114 H 0.34043 0.52278 0.19136
 H115 H 0.17881 0.50517 0.19860
 H116 H 0.14277 0.43289 0.16633
 C117 C 0.74307 0.86962 0.08906
 C118 C 0.76427 0.92315 0.07902
 C119 C 0.81007 0.94607 0.06265
 C120 C 0.83569 0.91598 0.05583
 C121 C 0.81412 0.86220 0.06560
 C122 C 0.76840 0.83932 0.08205
 C123 C 0.69548 0.84602 0.10705
 N124 N 0.67757 0.79617 0.11840
 N125 N 0.63568 0.77562 0.13501
 C126 C 0.60981 0.80398 0.14097
 N127 N 0.62753 0.85369 0.12951
 N128 N 0.66946 0.87426 0.11293
 C129 C 0.56413 0.78183 0.15999
 C130 C 0.53602 0.81025 0.16535
 C131 C 0.49422 0.79034 0.18388
 C132 C 0.47962 0.74162 0.19756
 C133 C 0.50720 0.71280 0.19195
 C134 C 0.54888 0.73261 0.17336
 H135 H 0.74585 0.94770 0.08399
 H136 H 0.82555 0.98757 0.05543
 H137 H 0.83287 0.83789 0.06072
 H138 H 0.75312 0.79795 0.08937
 H139 H 0.54653 0.84818 0.15538
 H140 H 0.47381 0.81357 0.18768
 H141 H 0.49690 0.67504 0.20204
 H142 H 0.56957 0.70960 0.16972
 C143 C 0.13044 0.87105 0.08674
 C144 C 0.07614 0.83870 0.07743
 C145 C 0.05307 0.86194 0.06161
 C146 C 0.08380 0.91806 0.05467
 C147 C 0.13830 0.95029 0.06373
 C148 C 0.16133 0.92708 0.07960
 C149 C 0.15430 0.84684 0.10419
 N150 N 0.20532 0.87889 0.11459
 N151 N 0.22613 0.85753 0.13085
 C152 C 0.19689 0.80318 0.13737
 N153 N 0.14603 0.77102 0.12684
 N154 N 0.12518 0.79239 0.11060
 C155 C 0.21927 0.78000 0.15625
 C156 C 0.18978 0.72344 0.16254
 C157 C 0.20970 0.70228 0.18128
 C158 C 0.25945 0.73726 0.19423
 C159 C 0.28949 0.79356 0.18753
 C160 C 0.26970 0.81464 0.16875
 H161 H 0.05113 0.79543 0.08253
 H162 H 0.01101 0.83590 0.05492
 H163 H 0.16313 0.99364 0.05873
 H164 H 0.20330 0.95323 0.08638
 H165 H 0.15089 0.69553 0.15323
 H166 H 0.18556 0.65870 0.18595
 H167 H 0.32810 0.82164 0.19702
 H168 H 0.29361 0.85836 0.16437
 C169 C 0.87221 0.74065 0.58689
 C170 C 0.84008 0.76257 0.57787
 C171 C 0.86320 0.80883 0.56179
 C172 C 0.91897 0.83421 0.55426
 C173 C 0.95092 0.81186 0.56298
 C174 C 0.92784 0.76568 0.57913
 C175 C 0.84820 0.69276 0.60470
 N176 N 0.88027 0.67430 0.61507
 N177 N 0.85912 0.63233 0.63162
 C178 C 0.80495 0.60691 0.63851
 N179 N 0.77276 0.62512 0.62801
 N180 N 0.79394 0.66716 0.61147
 C181 C 0.78194 0.56139 0.65761
 C182 C 0.72538 0.53343 0.66397
 C183 C 0.70428 0.49201 0.68272
 C184 C 0.73932 0.47778 0.69562
 C185 C 0.79568 0.50514 0.68894
 C186 C 0.81670 0.54633 0.67015
 H187 H 0.79711 0.74438 0.58343
 H188 H 0.83737 0.82491 0.55538
 H189 H 0.99400 0.83038 0.55754
 H190 H 0.95379 0.74985 0.58566
 H191 H 0.69738 0.54383 0.65464
 H192 H 0.66065 0.47174 0.68738
 H193 H 0.82383 0.49507 0.69839
 H194 H 0.86043 0.56688 0.66572
 C195 C 0.26139 0.12653 0.58710
 C196 C 0.23829 0.07235 0.57765
 C197 C 0.19214 0.05007 0.56148
 C198 C 0.16808 0.08148 0.55435
 C199 C 0.19161 0.13588 0.56352
 C200 C 0.23766 0.15811 0.57970
 C201 C 0.30914 0.14968 0.60497
 N202 N 0.32923 0.20081 0.61520
 N203 N 0.37108 0.22118 0.63178
 C204 C 0.39479 0.19137 0.63886
 N205 N 0.37495 0.14033 0.62852
 N206 N 0.33301 0.11991 0.61193
 C207 C 0.44021 0.21362 0.65800
 C208 C 0.46648 0.18405 0.66478
 C209 C 0.50792 0.20446 0.68353
 C210 C 0.52379 0.25474 0.69599
 C211 C 0.49807 0.28462 0.68890
 C212 C 0.45692 0.26439 0.67013
 H213 H 0.25549 0.04684 0.58293
 H214 H 0.17509 0.00805 0.55472
 H215 H 0.17417 0.16125 0.55838
 H216 H 0.25439 0.20001 0.58655
 H217 H 0.45474 0.14488 0.65577
 H218 H 0.52693 0.18044 0.68853
 H219 H 0.50944 0.32364 0.69798
 H220 H 0.43775 0.28838 0.66538
 C221 C 0.87654 0.12956 0.58986
 C222 C 0.93085 0.16168 0.58049
 C223 C 0.95324 0.13850 0.56422
 C224 C 0.92181 0.08269 0.55689
 C225 C 0.86739 0.05068 0.56610
 C226 C 0.84505 0.07381 0.58241
 C227 C 0.85310 0.15373 0.60757
 N228 N 0.80195 0.12179 0.61788
 N229 N 0.78124 0.14311 0.63418
 C230 C 0.81072 0.19733 0.64086
 N231 N 0.86178 0.22939 0.63045
 N232 N 0.88253 0.20804 0.61416
 C233 C 0.78810 0.22051 0.65959
 C234 C 0.81739 0.27707 0.66582
 C235 C 0.79675 0.29828 0.68418
 C236 C 0.74648 0.26334 0.69679
 C237 C 0.71684 0.20698 0.69024
 C238 C 0.73733 0.18587 0.67185
 H239 H 0.95631 0.20473 0.58583
 H240 H 0.99528 0.16436 0.55744
 H241 H 0.84203 0.00757 0.56083
 H242 H 0.80306 0.04783 0.58923
 H243 H 0.85655 0.30498 0.65669
 H244 H 0.82062 0.34190 0.68876
 H245 H 0.67786 0.17890 0.69948
 H246 H 0.71357 0.14213 0.66752
 C247 C 0.25716 0.12708 0.91218
 C248 C 0.26303 0.14527 0.93771
 C249 C 0.21738 0.12243 0.95428
 C250 C 0.16491 0.08174 0.94545
 C251 C 0.15914 0.06392 0.91989
 C252 C 0.20477 0.08600 0.90352
 C253 C 0.30501 0.15039 0.89447
 N254 N 0.30325 0.12241 0.87294
 N255 N 0.34558 0.14333 0.85663
 C256 C 0.39139 0.19332 0.86103
 N257 N 0.39328 0.22144 0.88257
 N258 N 0.35099 0.20029 0.89902
 C259 C 0.43763 0.21654 0.84240
 C260 C 0.47698 0.27339 0.84193
 C261 C 0.51882 0.29514 0.82333
 C262 C 0.52253 0.26030 0.80510
 C263 C 0.48386 0.20332 0.80601
 C264 C 0.44178 0.18179 0.82431
 H265 H 0.30296 0.17674 0.94494
 H266 H 0.22298 0.13704 0.97388
 H267 H 0.11930 0.03249 0.91254
 H268 H 0.19880 0.07127 0.88393
 H269 H 0.47477 0.30122 0.85559
 H270 H 0.54815 0.33919 0.82318
 H271 H 0.48545 0.17531 0.79224
 H272 H 0.41235 0.13777 0.82424
 C273 C 0.87091 0.74394 0.91220
 C274 C 0.88328 0.73839 0.93777
 C275 C 0.90542 0.78384 0.95439
 C276 C 0.91649 0.83582 0.94558
 C277 C 0.90421 0.84124 0.92001
 C278 C 0.88131 0.79579 0.90359
 C279 C 0.84744 0.69637 0.89438
 N280 N 0.82142 0.69749 0.87264
 N281 N 0.80105 0.65547 0.85622
 C282 C 0.80611 0.61062 0.86071
 N283 N 0.83216 0.60938 0.88247
 N284 N 0.85227 0.65136 0.89902
 C285 C 0.78407 0.56467 0.84199
 C286 C 0.80223 0.52631 0.84184
 C287 C 0.78283 0.48461 0.82324
 C288 C 0.74433 0.48005 0.80469
 C289 C 0.72548 0.51781 0.80525
 C290 C 0.74533 0.55973 0.82356
 H291 H 0.87549 0.69888 0.94497
 H292 H 0.91466 0.77853 0.97399
 H293 H 0.91209 0.88070 0.91268
 H294 H 0.87247 0.80152 0.88398
 H295 H 0.83219 0.52916 0.85577
 H296 H 0.79797 0.45600 0.82336
 H297 H 0.69591 0.51559 0.79124
 H298 H 0.73023 0.58837 0.82322
 C299 C 0.87494 0.12993 0.91288
 C300 C 0.91617 0.11955 0.90417
 C301 C 0.93817 0.09616 0.92046
 C302 C 0.92014 0.08336 0.94599
 C303 C 0.87937 0.09430 0.95489
 C304 C 0.85658 0.11692 0.93840
 C305 C 0.85158 0.15411 0.89521
 N306 N 0.80148 0.14903 0.89973
 N307 N 0.78025 0.16973 0.88328
 C308 C 0.80849 0.19668 0.86177
 N309 N 0.85867 0.20202 0.85740
 N310 N 0.87967 0.18105 0.87372
 C311 C 0.78518 0.21918 0.84310
 C312 C 0.81997 0.25866 0.82498
 C313 C 0.79841 0.27866 0.80661
 C314 C 0.74135 0.25922 0.80565
 C315 C 0.70645 0.22010 0.82392
 C316 C 0.72824 0.20055 0.84260
 H317 H 0.93104 0.12884 0.88460
 H318 H 0.96968 0.08842 0.91306
 H319 H 0.86458 0.08469 0.97447
 H320 H 0.82500 0.12467 0.94567
 H321 H 0.86406 0.27413 0.82494
 H322 H 0.82649 0.30872 0.79282
 H323 H 0.66234 0.20449 0.82374
 H324 H 0.70038 0.17003 0.85627
 C325 C 0.74128 0.87610 0.41419
 C326 C 0.79332 0.91771 0.40539
 C327 C 0.83940 0.93945 0.42145
 C328 C 0.83448 0.92076 0.44684
 C329 C 0.78235 0.87964 0.45584
 C330 C 0.73622 0.85711 0.43957
 C331 C 0.69308 0.85288 0.39670
 N332 N 0.64759 0.80251 0.40112
 N333 N 0.60523 0.78126 0.38473
 C334 C 0.60655 0.80973 0.36337
 N335 N 0.65184 0.86022 0.35914
 N336 N 0.69423 0.88125 0.37540
 C337 C 0.56051 0.78615 0.34464
 C338 C 0.55631 0.82061 0.32636
 C339 C 0.51478 0.79865 0.30781
 C340 C 0.47670 0.74154 0.30686
 C341 C 0.48031 0.70702 0.32536
 C342 C 0.52162 0.72918 0.34418
 H343 H 0.79870 0.93308 0.38592
 H344 H 0.87895 0.97128 0.41398
 H345 H 0.77742 0.86439 0.47532
 H346 H 0.69657 0.82521 0.44690
 H347 H 0.58538 0.86472 0.32628
 H348 H 0.51323 0.82645 0.29387
 H349 H 0.45142 0.66287 0.32521
 H350 H 0.52386 0.70155 0.35799
 C351 C 0.12196 0.26128 0.41474
 C352 C 0.07749 0.21027 0.40665
 C353 C 0.05713 0.16371 0.42237
 C354 C 0.08001 0.16739 0.44676
 C355 C 0.12395 0.21857 0.45508
 C356 C 0.14520 0.26500 0.43906
 C357 C 0.14423 0.30988 0.39758
 N358 N 0.19780 0.35133 0.39938
 N359 N 0.21832 0.39383 0.38310
 C360 C 0.18594 0.39683 0.36454
 N361 N 0.13222 0.35571 0.36296
 N362 N 0.11186 0.31301 0.37908
 C363 C 0.20906 0.44256 0.34570
 C364 C 0.17414 0.45635 0.33242
 C365 C 0.19550 0.49755 0.31360
 C366 C 0.25201 0.52494 0.30733
 C367 C 0.28707 0.51167 0.32084
 C368 C 0.26589 0.47127 0.34003
 H369 H 0.05897 0.20609 0.38795
 H370 H 0.02301 0.12486 0.41553
 H371 H 0.14237 0.22247 0.47378
 H372 H 0.17942 0.30389 0.44579
 H373 H 0.13020 0.43508 0.33649
 H374 H 0.16752 0.50686 0.30345
 H375 H 0.33088 0.53242 0.31650
 H376 H 0.29376 0.46139 0.34989
 C377 C 0.12604 0.87607 0.40932
 C378 C 0.14306 0.88630 0.43508
 C379 C 0.12031 0.90822 0.45193
 C380 C 0.08082 0.92119 0.44322
 C381 C 0.06418 0.91130 0.41743
 C382 C 0.08622 0.88863 0.40072
 C383 C 0.14936 0.85236 0.39138
 N384 N 0.12266 0.82832 0.36919
 N385 N 0.14351 0.80728 0.35285
 C386 C 0.19215 0.80967 0.35790
 N387 N 0.21900 0.83380 0.38008
 N388 N 0.19791 0.85455 0.39654
 C389 C 0.21529 0.78676 0.33941
 C390 C 0.27157 0.80269 0.34007
 C391 C 0.29341 0.78231 0.32189
 C392 C 0.25918 0.74495 0.30294
 C393 C 0.20274 0.72833 0.30262
 C394 C 0.18115 0.74926 0.32052
 H395 H 0.17353 0.87685 0.44228
 H396 H 0.13404 0.91556 0.47170
 H397 H 0.03370 0.92068 0.41016
 H398 H 0.07241 0.88147 0.38097
 H399 H 0.29894 0.83165 0.35436
 H400 H 0.33703 0.79572 0.32268
 H401 H 0.17526 0.69973 0.28825
 H402 H 0.13757 0.73593 0.31957
   
