data_POSCAR
  _audit_creation_date              2014-09-24
  _audit_creation_method            'ToBaCCo'
  _symmetry_space_group_name_H-M    'P1'
  _symmetry_Int_Tables_number       1
  _symmetry_cell_setting            triclinic
  loop_
  _symmetry_equiv_pos_as_xyz
 x,y,z
_cell_length_a 21.5956
_cell_length_b 21.6322
_cell_length_c 21.6674
_cell_angle_alpha 85.604900
_cell_angle_beta 94.215300
_cell_angle_gamma 94.014900
loop_
  _atom_site_label
  _atom_site_type_symbol
  _atom_site_fract_x
  _atom_site_fract_y
  _atom_site_fract_z
C1 C 0.63611 0.55855 -0.00082
 C2 C 0.62013 0.62017 -0.00002
 C3 C 0.55850 0.63649 0.00058
 C4 C 0.50988 0.58857 -0.00119
 C5 C 0.52457 0.52543 -0.00026
 C6 C 0.58777 0.51033 0.00072
 C7 C 0.60056 0.44735 0.00332
 C8 C 0.55327 0.40056 0.00309
 C9 C 0.49049 0.41403 0.00045
 C10 C 0.47580 0.47709 -0.00036
 C11 C 0.44690 0.60176 -0.00400
 C12 C 0.39967 0.55489 -0.00405
 C13 C 0.41256 0.49199 -0.00131
 C14 C 0.36430 0.44361 0.00025
 C15 C 0.38047 0.38206 -0.00080
 C16 C 0.44210 0.36626 -0.00136
 H17 H 0.64730 0.43269 0.00598
 H18 H 0.56727 0.35361 0.00543
 H19 H 0.43252 0.64853 -0.00667
 H20 H 0.35286 0.56943 -0.00681
 H21 H 0.65666 0.65644 0.00015
 H22 H 0.34435 0.34533 -0.00127
 C23 C 0.00089 0.55925 0.36561
 C24 C 0.00013 0.62072 0.38118
 C25 C -0.00107 0.63661 0.44258
 C26 C 0.00038 0.58829 0.49104
 C27 C -0.00026 0.52527 0.47629
 C28 C -0.00075 0.51075 0.41343
 C29 C -0.00286 0.44805 0.40026
 C30 C -0.00304 0.40071 0.44722
 C31 C -0.00106 0.41355 0.50985
 C32 C -0.00036 0.47650 0.52462
 C33 C 0.00262 0.60086 0.55388
 C34 C 0.00250 0.55347 0.60078
 C35 C 0.00027 0.49085 0.58753
 C36 C -0.00123 0.44222 0.63529
 C37 C -0.00062 0.38079 0.61953
 C38 C 0.00018 0.36535 0.55810
 H39 H -0.00479 0.43416 0.35349
 H40 H -0.00511 0.35392 0.43313
 H41 H 0.00496 0.64747 0.56834
 H42 H 0.00460 0.56728 0.64759
 H43 H 0.00053 0.65692 0.34438
 H44 H -0.00078 0.34415 0.65594
 C45 C 0.55808 0.00042 0.63624
 C46 C 0.61979 -0.00054 0.62049
 C47 C 0.63604 -0.00143 0.55913
 C48 C 0.58805 0.00025 0.51051
 C49 C 0.52485 -0.00051 0.52501
 C50 C 0.50975 -0.00123 0.58793
 C51 C 0.44666 -0.00371 0.60046
 C52 C 0.39977 -0.00375 0.55314
 C53 C 0.41328 -0.00140 0.49063
 C54 C 0.47645 -0.00056 0.47630
 C55 C 0.60119 0.00272 0.44771
 C56 C 0.55419 0.00262 0.40052
 C57 C 0.49139 0.00022 0.41341
 C58 C 0.44314 -0.00126 0.36528
 C59 C 0.38146 -0.00061 0.38075
 C60 C 0.36548 0.00004 0.44208
 H61 H 0.43201 -0.00611 0.64701
 H62 H 0.35275 -0.00607 0.56694
 H63 H 0.64798 0.00520 0.43344
 H64 H 0.56839 0.00489 0.35374
 H65 H 0.65620 -0.00062 0.65698
 H66 H 0.34501 -0.00058 0.34421
 O67 O 0.46030 -0.00561 -0.09455
 O68 O 0.43947 -0.01398 0.07316
 O69 O 0.43895 0.07381 -0.01475
 O70 O 0.46082 -0.09390 -0.00608
 O71 O 0.56204 -0.07440 0.01272
 O72 O 0.54018 0.09328 0.00407
 O73 O 0.54070 0.00499 0.09243
 O74 O 0.56151 0.01341 -0.07524
 Cu75 Cu 0.43968 -0.01189 -0.01250
 Cu76 Cu 0.56131 0.01129 0.01041
 C77 C 0.51466 0.00469 -0.11319
 C78 C 0.48635 -0.00528 0.11110
 C79 C 0.48568 0.11184 -0.00613
 C80 C 0.51532 -0.11246 0.00418
 O81 O -0.07436 0.56168 0.98640
 O82 O 0.09385 0.54067 0.99446
 O83 O 0.00507 0.53978 0.90679
 O84 O 0.01383 0.56232 1.07369
 O85 O -0.00474 0.46129 1.09422
 O86 O -0.01347 0.43874 0.92732
 O87 O 0.07481 0.43964 1.01449
 O88 O -0.09347 0.46066 1.00641
 Cu89 Cu 0.01152 0.56131 0.98826
 Cu90 Cu -0.01113 0.43988 1.01272
 C91 C -0.11232 0.51496 0.99561
 C92 C 0.11273 0.48638 1.00519
 C93 C -0.00505 0.48529 0.88889
 C94 C 0.00537 0.51577 1.11212
 O95 O -0.01511 -0.07453 0.43899
 O96 O -0.00688 0.09291 0.46063
 O97 O 0.07248 0.01303 0.43860
 O98 O -0.09499 0.00473 0.46140
 O99 O -0.07458 -0.01492 0.56223
 O100 O 0.09282 -0.00644 0.53947
 O101 O 0.01286 0.07283 0.56150
 O102 O 0.00480 -0.09464 0.53983
 Cu103 Cu -0.01322 0.01108 0.43971
 Cu104 Cu 0.01105 -0.01283 0.56095
 C105 C -0.00590 -0.11284 0.48555
 C106 C 0.00379 0.11114 0.51490
 C107 C 0.11091 0.00410 0.48505
 C108 C -0.11304 -0.00589 0.51583
 C109 C -0.23334 0.47438 1.00191
 C110 C -0.26090 0.51216 1.05019
 C111 C -0.29886 0.54708 0.99722
 C112 C -0.27190 0.50964 0.94880
 C113 C -0.24464 0.59752 0.99051
 C114 C -0.20658 0.56231 1.04345
 C115 C -0.18005 0.52479 0.99533
 C116 C -0.21743 0.55970 0.94239
 H117 H -0.22808 0.42352 1.00649
 H118 H -0.27887 0.49256 1.09476
 H119 H -0.29888 0.48797 0.90955
 H120 H -0.24510 0.64889 0.98515
 H121 H -0.17910 0.58396 1.08243
 H122 H -0.19898 0.57917 0.89799
 C123 C 0.21827 0.44193 1.05792
 C124 C 0.24534 0.40419 1.00964
 C125 C 0.29930 0.45484 1.00254
 C126 C 0.27250 0.49220 1.05112
 C127 C 0.26091 0.48954 0.94977
 C128 C 0.20682 0.43918 0.95688
 C129 C 0.18045 0.47664 1.00516
 C130 C 0.23352 0.52725 0.99820
 H131 H 0.20015 0.42244 1.10246
 H132 H 0.24617 0.35285 1.01504
 H133 H 0.29965 0.51402 1.09018
 H134 H 0.27855 0.50916 0.90505
 H135 H 0.17920 0.41738 0.91808
 H136 H 0.22806 0.57807 0.99362
 C137 C 0.00051 -0.23363 0.52605
 C138 C -0.05236 -0.27192 0.49074
 C139 C -0.00336 -0.29861 0.45366
 C140 C 0.04938 -0.26091 0.48862
 C141 C -0.00994 -0.24431 0.40312
 C142 C -0.05866 -0.21734 0.44059
 C143 C -0.00593 -0.18023 0.47558
 C144 C 0.04277 -0.20647 0.43837
 H145 H 0.00470 -0.22860 0.57682
 H146 H -0.09179 -0.29900 0.51227
 H147 H 0.09404 -0.27896 0.50840
 H148 H -0.01489 -0.24475 0.35184
 H149 H -0.10313 -0.19879 0.42094
 H150 H 0.08193 -0.17889 0.41687
 C151 C -0.04470 0.20528 0.56152
 C152 C 0.00802 0.24293 0.59696
 C153 C 0.00213 0.29707 0.54632
 C154 C -0.05060 0.25963 0.51111
 C155 C 0.05113 0.26992 0.50964
 C156 C 0.05681 0.21546 0.55998
 C157 C 0.00407 0.17857 0.52475
 C158 C -0.00173 0.23194 0.47409
 H159 H -0.08417 0.17803 0.58281
 H160 H 0.01249 0.24423 0.64817
 H161 H -0.09496 0.27808 0.49102
 H162 H 0.09079 0.29683 0.48834
 H163 H 0.10105 0.19667 0.57997
 H164 H -0.00564 0.22684 0.42334
 C165 C 0.47389 -0.00168 -0.23390
 C166 C 0.50898 0.05130 -0.27253
 C167 C 0.54663 0.00259 -0.29901
 C168 C 0.51188 -0.05025 -0.26098
 C169 C 0.59718 0.00927 -0.24487
 C170 C 0.55916 0.05768 -0.21814
 C171 C 0.52442 0.00486 -0.18068
 C172 C 0.56215 -0.04355 -0.20673
 H173 H 0.42297 -0.00607 -0.22878
 H174 H 0.48709 0.09062 -0.29972
 H175 H 0.49240 -0.09488 -0.27868
 H176 H 0.64861 0.01444 -0.24520
 H177 H 0.57851 0.10213 -0.19995
 H178 H 0.58400 -0.08261 -0.17907
 C179 C 0.43943 0.04313 0.20498
 C180 C 0.40434 -0.00955 0.24322
 C181 C 0.45513 -0.00330 0.29705
 C182 C 0.48999 0.04940 0.25899
 C183 C 0.49233 -0.05213 0.27026
 C184 C 0.44184 -0.05817 0.21613
 C185 C 0.47670 -0.00547 0.17860
 C186 C 0.52752 0.00070 0.23164
 H187 H 0.41770 0.08238 0.17752
 H188 H 0.35300 -0.01425 0.24471
 H189 H 0.50979 0.09384 0.27687
 H190 H 0.51408 -0.09154 0.29740
 H191 H 0.42212 -0.10249 0.19792
 H192 H 0.57841 0.00482 0.22634
 C193 C 0.56293 -0.20634 -0.04368
 C194 C 0.59801 -0.24460 0.00920
 C195 C 0.54737 -0.29857 0.00256
 C196 C 0.51258 -0.26043 -0.05034
 C197 C 0.50988 -0.27174 0.05107
 C198 C 0.56014 -0.21751 0.05741
 C199 C 0.52533 -0.17997 0.00453
 C200 C 0.47475 -0.23302 -0.00198
 H201 H 0.58471 -0.17880 -0.08269
 H202 H 0.64944 -0.24525 0.01443
 H203 H 0.49299 -0.27818 -0.09490
 H204 H 0.48806 -0.29879 0.09034
 H205 H 0.57960 -0.19924 0.10178
 H206 H 0.42384 -0.22763 -0.00647
 C207 C 0.52643 0.23230 0.00026
 C208 C 0.49112 0.27119 -0.05245
 C209 C 0.45393 0.29790 -0.00367
 C210 C 0.48890 0.25954 0.04891
 C211 C 0.40321 0.24414 -0.01024
 C212 C 0.44071 0.21712 -0.05880
 C213 C 0.47570 0.17933 -0.00621
 C214 C 0.43842 0.20560 0.04233
 H215 H 0.57733 0.22687 0.00447
 H216 H 0.51278 0.29849 -0.09166
 H217 H 0.50870 0.27724 0.09341
 H218 H 0.35185 0.24570 -0.01504
 H219 H 0.42099 0.19905 -0.10317
 H220 H 0.41679 0.17797 0.08137
 C221 C -0.21758 -0.05882 0.56124
 C222 C -0.24472 -0.01029 0.59870
 C223 C -0.29900 -0.00367 0.54820
 C224 C -0.27214 -0.05249 0.51115
 C225 C -0.26122 0.04910 0.51315
 C226 C -0.20680 0.04245 0.56332
 C227 C -0.18043 -0.00606 0.52613
 C228 C -0.23380 0.00042 0.47573
 H229 H -0.19897 -0.10323 0.58090
 H230 H -0.24520 -0.01532 0.64999
 H231 H -0.29919 -0.09183 0.48971
 H232 H -0.27930 0.09371 0.49334
 H233 H -0.17923 0.08152 0.58473
 H234 H -0.22864 0.00471 0.42496
 C235 C 0.23154 -0.00172 0.52561
 C236 C 0.25928 -0.05053 0.48869
 C237 C 0.29705 0.00211 0.45349
 C238 C 0.26983 0.05104 0.49005
 C239 C 0.24308 0.00823 0.40276
 C240 C 0.20509 -0.04439 0.43822
 C241 C 0.17834 0.00431 0.47491
 C242 C 0.21552 0.05696 0.43965
 H243 H 0.22620 -0.00571 0.57635
 H244 H 0.27757 -0.09492 0.50884
 H245 H 0.29680 0.09052 0.51134
 H246 H 0.24472 0.01277 0.35156
 H247 H 0.17776 -0.08368 0.41696
 H248 H 0.19686 0.10121 0.41959
 C249 C -0.04336 0.56292 1.20552
 C250 C -0.04941 0.51251 1.25976
 C251 C 0.00317 0.54764 1.29747
 C252 C 0.00920 0.59832 1.24342
 C253 C 0.05233 0.51074 1.27080
 C254 C -0.00037 0.47526 1.23256
 C255 C 0.00557 0.52591 1.17931
 C256 C 0.05815 0.56109 1.21642
 H257 H -0.08276 0.58433 1.17798
 H258 H -0.09384 0.49255 1.27787
 H259 H 0.01358 0.64960 1.24466
 H260 H 0.09192 0.48931 1.29798
 H261 H -0.00420 0.42443 1.22750
 H262 H 0.10244 0.58096 1.19794
 C263 C 0.04351 0.43824 0.79528
 C264 C -0.00913 0.40289 0.75742
 C265 C -0.00326 0.45367 0.70346
 C266 C 0.04940 0.48876 0.74110
 C267 C -0.05236 0.49048 0.73035
 C268 C -0.05802 0.44003 0.78465
 C269 C -0.00536 0.47517 0.82170
 C270 C 0.00043 0.52592 0.76851
 H271 H 0.08297 0.41682 0.82268
 H272 H -0.01348 0.35163 0.75596
 H273 H 0.09376 0.50877 0.72289
 H274 H -0.09201 0.51193 0.70330
 H275 H -0.10225 0.42011 0.80322
 H276 H 0.00426 0.57673 0.77366
   
