data_POSCAR
  _audit_creation_date              2014-09-24
  _audit_creation_method            'ToBaCCo'
  _symmetry_space_group_name_H-M    'P1'
  _symmetry_Int_Tables_number       1
  _symmetry_cell_setting            triclinic
  loop_
  _symmetry_equiv_pos_as_xyz
 x,y,z
_cell_length_a 46.3555
_cell_length_b 44.7060
_cell_length_c 46.0231
_cell_angle_alpha 90.477800
_cell_angle_beta 90.051900
_cell_angle_gamma 92.163200
loop_
  _atom_site_label
  _atom_site_type_symbol
  _atom_site_fract_x
  _atom_site_fract_y
  _atom_site_fract_z
C1 C 0.59396 0.64460 0.61642
 C2 C 0.59570 0.62298 0.63822
 C3 C 0.61900 0.60353 0.63936
 C4 C 0.64013 0.60596 0.61728
 C5 C 0.63844 0.62726 0.59511
 C6 C 0.61541 0.64669 0.59505
 H7 H 0.57963 0.62295 0.65524
 H8 H 0.65782 0.59089 0.61668
 H9 H 0.61372 0.66302 0.57793
 C10 C 0.90194 0.34910 0.11807
 C11 C 0.90008 0.36806 0.14271
 C12 C 0.87876 0.38946 0.14487
 C13 C 0.85897 0.39215 0.12211
 C14 C 0.86016 0.37373 0.09741
 C15 C 0.88154 0.35235 0.09554
 H16 H 0.91562 0.36702 0.16016
 H17 H 0.84250 0.40866 0.12365
 H18 H 0.88148 0.33782 0.07665
 C19 C 0.39853 0.14957 -0.12167
 C20 C 0.37630 0.14755 -0.10100
 C21 C 0.35605 0.12335 -0.10142
 C22 C 0.35808 0.10123 -0.12311
 C23 C 0.38013 0.10293 -0.14403
 C24 C 0.40037 0.12711 -0.14302
 H25 H 0.37528 0.16444 -0.08405
 H26 H 0.34247 0.08259 -0.12372
 H27 H 0.41709 0.12895 -0.15940
 C28 C 0.10383 0.84928 0.37392
 C29 C 0.10220 0.87269 0.35362
 C30 C 0.12256 0.89676 0.35360
 C31 C 0.14467 0.89779 0.37444
 C32 C 0.14668 0.87511 0.39512
 C33 C 0.12645 0.85091 0.39453
 H34 H 0.08607 0.87157 0.33660
 H35 H 0.16031 0.91642 0.37462
 H36 H 0.12746 0.83437 0.41148
 N37 N 0.09392 0.17115 0.10746
 N38 N 0.08253 0.16101 0.13175
 C39 C 0.05927 0.17690 0.13831
 C40 C 0.05586 0.19821 0.11700
 C41 C 0.07832 0.19381 0.09776
 H42 H 0.04567 0.17300 0.15705
 H43 H 0.08314 0.20624 0.07820
 Cu44 Cu 0.09886 0.12778 0.15239
 Cu45 Cu 0.12802 0.15416 0.09018
 Cu46 Cu 0.15667 0.09377 0.12525
 N47 N 0.11476 0.09317 0.17115
 N48 N 0.13732 0.08001 0.16044
 C49 C 0.14355 0.05666 0.17728
 C50 C 0.12380 0.05493 0.19985
 C51 C 0.10584 0.07855 0.19519
 H52 H 0.16097 0.04183 0.17309
 H53 H 0.08760 0.08464 0.20826
 N54 N 0.17328 0.11090 0.08943
 N55 N 0.16246 0.13395 0.07609
 C56 C 0.17862 0.14040 0.05249
 C57 C 0.20073 0.12043 0.05082
 C58 C 0.19657 0.10207 0.07467
 H59 H 0.17449 0.15825 0.03755
 H60 H 0.20967 0.08374 0.08100
 H61 H 0.12053 0.11181 0.10687
 H62 H 0.14501 0.13791 0.12819
 N63 N 0.40226 0.82301 0.61077
 N64 N 0.41594 0.83576 0.63292
 C65 C 0.43899 0.81967 0.63958
 C66 C 0.43966 0.79543 0.62073
 C67 C 0.41596 0.79824 0.60278
 H68 H 0.45399 0.82494 0.65704
 H69 H 0.40951 0.78369 0.58485
 Cu70 Cu 0.40163 0.87165 0.65119
 Cu71 Cu 0.36845 0.84015 0.59310
 Cu72 Cu 0.34351 0.90487 0.62509
 N73 N 0.38732 0.90759 0.66940
 N74 N 0.36441 0.92034 0.65913
 C75 C 0.35865 0.94424 0.67581
 C76 C 0.37905 0.94670 0.69782
 C77 C 0.39694 0.92299 0.69298
 H78 H 0.34089 0.95870 0.67208
 H79 H 0.41533 0.91710 0.70587
 N80 N 0.32534 0.88574 0.59053
 N81 N 0.33470 0.86106 0.57846
 C82 C 0.31814 0.85395 0.55517
 C83 C 0.29730 0.87518 0.55234
 C84 C 0.30260 0.89495 0.57525
 H85 H 0.32130 0.83490 0.54110
 H86 H 0.29093 0.91477 0.58035
 H87 H 0.37768 0.88378 0.60592
 H88 H 0.35396 0.86069 0.63039
 N89 N 0.90996 0.66208 0.38878
 N90 N 0.92491 0.64395 0.37256
 C91 C 0.95015 0.65778 0.36533
 C92 C 0.95100 0.68621 0.37755
 C93 C 0.92508 0.68815 0.39225
 H94 H 0.96650 0.64799 0.35191
 H95 H 0.91804 0.70689 0.40507
 Cu96 Cu 0.90997 0.60420 0.36197
 Cu97 Cu 0.87279 0.64986 0.40544
 Cu98 Cu 0.84174 0.58323 0.37995
 N99 N 0.88971 0.57063 0.34296
 N100 N 0.86312 0.56250 0.35000
 C101 C 0.85419 0.53938 0.33293
 C102 C 0.87636 0.53264 0.31401
 C103 C 0.89860 0.55304 0.32112
 H104 H 0.83286 0.52884 0.33380
 H105 H 0.91956 0.55533 0.31096
 N106 N 0.82376 0.60777 0.41019
 N107 N 0.83547 0.63337 0.41968
 C108 C 0.81848 0.64458 0.44049
 C109 C 0.79488 0.62508 0.44440
 C110 C 0.79901 0.60199 0.42473
 H111 H 0.82335 0.66506 0.45242
 H112 H 0.78514 0.58230 0.42133
 H113 H 0.87600 0.60390 0.40232
 H114 H 0.86238 0.62356 0.36949
 N115 N 0.59068 0.34135 -0.10783
 N116 N 0.57636 0.35714 -0.12656
 C117 C 0.55139 0.34238 -0.13332
 C118 C 0.54998 0.31579 -0.11808
 C119 C 0.57536 0.31591 -0.10213
 H120 H 0.53570 0.35021 -0.14861
 H121 H 0.58205 0.29892 -0.08724
 Cu122 Cu 0.59174 0.39514 -0.14105
 Cu123 Cu 0.62780 0.35534 -0.09188
 Cu124 Cu 0.65977 0.41784 -0.12401
 N125 N 0.61235 0.42610 -0.16294
 N126 N 0.63888 0.43491 -0.15623
 C127 C 0.64796 0.45622 -0.17492
 C128 C 0.62594 0.46110 -0.19456
 C129 C 0.60363 0.44147 -0.18618
 H130 H 0.66914 0.46714 -0.17426
 H131 H 0.58268 0.43829 -0.19630
 N132 N 0.67727 0.39724 -0.09111
 N133 N 0.66519 0.37328 -0.07894
 C134 C 0.68211 0.36464 -0.05697
 C135 C 0.70603 0.38413 -0.05516
 C136 C 0.70215 0.40450 -0.07721
 H137 H 0.67707 0.34587 -0.04299
 H138 H 0.71633 0.42331 -0.08276
 H139 H 0.62510 0.40053 -0.10021
 H140 H 0.63898 0.37646 -0.13024
 C141 C -0.03280 0.28526 0.11276
 C142 C -0.04483 0.29624 0.08719
 C143 C -0.06637 0.31717 0.08888
 C144 C -0.07633 0.32749 0.11603
 C145 C -0.06374 0.31539 0.14109
 N146 N -0.04289 0.29495 0.13878
 C147 C -0.00993 0.26295 0.11258
 N148 N -0.00586 0.24657 0.13694
 C149 C 0.01476 0.22587 0.13881
 C150 C 0.03315 0.22070 0.11520
 C151 C 0.02954 0.23755 0.08993
 C152 C 0.00816 0.25867 0.08853
 H153 H -0.07420 0.32592 0.06864
 H154 H -0.07107 0.32102 0.16266
 H155 H 0.01683 0.21377 0.15889
 H156 H 0.04314 0.23450 0.07114
 H157 H -0.03804 0.28872 0.06597
 H158 H 0.00637 0.27173 0.06900
 C159 C 0.52533 0.70576 0.61719
 C160 C 0.51890 0.67495 0.61986
 C161 C 0.54130 0.65494 0.61962
 C162 C 0.56997 0.66552 0.61643
 C163 C 0.57548 0.69644 0.61379
 N164 N 0.55336 0.71554 0.61449
 C165 C 0.50257 0.72798 0.61805
 N166 N 0.50892 0.75564 0.62946
 C167 C 0.48916 0.77730 0.63081
 C168 C 0.46121 0.77186 0.61976
 C169 C 0.45430 0.74363 0.60755
 C170 C 0.47484 0.72160 0.60679
 H171 H 0.53626 0.63121 0.62178
 H172 H 0.59738 0.70544 0.61168
 H173 H 0.49551 0.79887 0.64009
 H174 H 0.43298 0.73847 0.59882
 H175 H 0.49693 0.66643 0.62271
 H176 H 0.46921 0.70008 0.59697
 C177 C 1.04183 0.77731 0.37378
 C178 C 1.06983 0.77270 0.38383
 C179 C 1.09028 0.79640 0.38397
 C180 C 1.08323 0.82492 0.37378
 C181 C 1.05474 0.82827 0.36371
 N182 N 1.03512 0.80492 0.36433
 C183 C 1.01910 0.75326 0.37422
 N184 N 0.99126 0.76061 0.37896
 C185 C 0.96927 0.73966 0.38008
 C186 C 0.97469 0.70925 0.37592
 C187 C 1.00315 0.70123 0.37041
 C188 C 1.02542 0.72312 0.36967
 H189 H 1.11188 0.79182 0.39119
 H190 H 1.04745 0.84969 0.35659
 H191 H 0.94758 0.74686 0.38398
 H192 H 1.00831 0.67803 0.36709
 H193 H 1.07581 0.75116 0.39200
 H194 H 1.04721 0.71652 0.36521
 C195 C 0.46030 0.22313 -0.12037
 C196 C 0.43086 0.22854 -0.11673
 C197 C 0.41071 0.20454 -0.11701
 C198 C 0.41975 0.17521 -0.12105
 C199 C 0.44937 0.17073 -0.12445
 N200 N 0.46862 0.19443 -0.12384
 C201 C 0.48263 0.24765 -0.11989
 N202 N 0.50977 0.24171 -0.11082
 C203 C 0.53145 0.26304 -0.10987
 C204 C 0.52651 0.29237 -0.11879
 C205 C 0.49878 0.29888 -0.12859
 C206 C 0.47682 0.27666 -0.12913
 H207 H 0.38804 0.20891 -0.11435
 H208 H 0.45723 0.14840 -0.12720
 H209 H 0.55256 0.25688 -0.10251
 H210 H 0.49395 0.32117 -0.13564
 H211 H 0.42344 0.25093 -0.11319
 H212 H 0.45574 0.28211 -0.13720
 C213 C 0.11873 -0.03430 0.28974
 C214 C 0.09313 -0.04520 0.30293
 C215 C 0.09436 -0.06762 0.32379
 C216 C 0.12094 -0.07930 0.33155
 C217 C 0.14597 -0.06794 0.31773
 N218 N 0.14422 -0.04620 0.29742
 C219 C 0.11897 -0.01094 0.26707
 N220 N 0.14196 -0.00868 0.24875
 C221 C 0.14399 0.01205 0.22735
 C222 C 0.12199 0.03241 0.22341
 C223 C 0.09825 0.03077 0.24235
 C224 C 0.09667 0.00926 0.26416
 H225 H 0.07455 -0.07569 0.33399
 H226 H 0.16685 -0.07665 0.32271
 H227 H 0.16291 0.01254 0.21364
 H228 H 0.08078 0.04598 0.24037
 H229 H 0.07229 -0.03707 0.29698
 H230 H 0.07838 0.00894 0.27873
 C231 C 0.62572 0.54268 -0.29103
 C232 C 0.65067 0.55260 -0.30579
 C233 C 0.64848 0.57241 -0.32885
 C234 C 0.62141 0.58264 -0.33766
 C235 C 0.59689 0.57148 -0.32240
 N236 N 0.59968 0.55210 -0.30006
 C237 C 0.62677 0.52190 -0.26618
 N238 N 0.60286 0.50463 -0.25973
 C239 C 0.60207 0.48518 -0.23716
 C240 C 0.62637 0.48234 -0.21925
 C241 C 0.65112 0.50029 -0.22532
 C242 C 0.65140 0.52005 -0.24861
 H243 H 0.66840 0.58051 -0.33872
 H244 H 0.57531 0.57715 -0.32864
 H245 H 0.58238 0.47208 -0.23338
 H246 H 0.67034 0.49930 -0.21210
 H247 H 0.67178 0.54511 -0.29985
 H248 H 0.67055 0.53406 -0.25229
 C249 C 0.38428 1.03562 0.78944
 C250 C 0.40987 1.04665 0.80278
 C251 C 0.40853 1.06854 0.82449
 C252 C 0.38186 1.07961 0.83294
 C253 C 0.35685 1.06823 0.81888
 N254 N 0.35869 1.04696 0.79777
 C255 C 0.38413 1.01258 0.76609
 N256 N 0.36087 1.01004 0.74804
 C257 C 0.35883 0.98942 0.72621
 C258 C 0.38106 0.96943 0.72154
 C259 C 0.40513 0.97144 0.74010
 C260 C 0.40674 0.99285 0.76236
 H261 H 0.42835 1.07664 0.83483
 H262 H 0.33588 1.07651 0.82435
 H263 H 0.33967 0.98864 0.71278
 H264 H 0.42282 0.95655 0.73755
 H265 H 0.43078 1.03899 0.79635
 H266 H 0.42526 0.99337 0.77666
 C267 C 0.87454 0.44713 0.21942
 C268 C 0.84901 0.43394 0.20780
 C269 C 0.85043 0.41499 0.18366
 C270 C 0.87713 0.40916 0.17090
 C271 C 0.90213 0.42283 0.18308
 N272 N 0.90020 0.44131 0.20656
 C273 C 0.87438 0.46815 0.24448
 N274 N 0.89712 0.48798 0.24813
 C275 C 0.89842 0.50837 0.27021
 C276 C 0.87580 0.50973 0.29042
 C277 C 0.85242 0.48902 0.28744
 C278 C 0.85166 0.46822 0.26465
 H279 H 0.83063 0.40481 0.17499
 H280 H 0.92311 0.41932 0.17363
 H281 H 0.91700 0.52365 0.27157
 H282 H 0.83469 0.48869 0.30269
 H283 H 0.82805 0.43857 0.21669
 H284 H 0.83360 0.45224 0.26325
 C285 C 0.29013 0.11744 -0.03623
 C286 C 0.30371 0.09139 -0.04537
 C287 C 0.32515 0.09332 -0.06661
 C288 C 0.33304 0.12101 -0.07901
 C289 C 0.31867 0.14641 -0.06959
 N290 N 0.29788 0.14399 -0.04884
 C291 C 0.26729 0.11701 -0.01368
 N292 N 0.24919 0.14025 -0.01224
 C293 C 0.22787 0.14179 0.00792
 C294 C 0.22383 0.11902 0.02854
 C295 C 0.24244 0.09496 0.02761
 C296 C 0.26416 0.09390 0.00671
 H297 H 0.33577 0.07316 -0.07309
 H298 H 0.32370 0.16813 -0.07891
 H299 H 0.21437 0.16097 0.00784
 H300 H 0.24036 0.07685 0.04298
 H301 H 0.29777 0.06965 -0.03666
 H302 H 0.27852 0.07541 0.00706
 C303 C 0.70383 0.63183 0.52933
 C304 C 0.69309 0.65843 0.54084
 C305 C 0.67172 0.65696 0.56219
 C306 C 0.66081 0.62915 0.57202
 C307 C 0.67166 0.60313 0.55952
 N308 N 0.69253 0.60512 0.53885
 C309 C 0.72692 0.63164 0.50704
 N310 N 0.73064 0.60603 0.49150
 C311 C 0.75176 0.60354 0.47126
 C312 C 0.77112 0.62776 0.46578
 C313 C 0.76771 0.65441 0.48157
 C314 C 0.74579 0.65643 0.50219
 H315 H 0.66400 0.67760 0.57128
 H316 H 0.66344 0.58121 0.56599
 H317 H 0.75356 0.58243 0.45991
 H318 H 0.78198 0.67375 0.47818
 H319 H 0.70071 0.68020 0.53344
 H320 H 0.74431 0.67701 0.51449
 C321 C 0.79729 0.38176 0.02997
 C322 C 0.81065 0.40769 0.04216
 C323 C 0.83133 0.40504 0.06392
 C324 C 0.83878 0.37671 0.07369
 C325 C 0.82499 0.35136 0.06096
 N326 N 0.80477 0.35450 0.03989
 C327 C 0.77451 0.38316 0.00747
 N328 N 0.75522 0.35961 0.00446
 C329 C 0.73343 0.35933 -0.01535
 C330 C 0.73008 0.38382 -0.03382
 C331 C 0.75009 0.40811 -0.03143
 C332 C 0.77228 0.40785 -0.01095
 H333 H 0.84154 0.42516 0.07312
 H334 H 0.82980 0.32912 0.06817
 H335 H 0.71888 0.33989 -0.01657
 H336 H 0.74861 0.42748 -0.04518
 H337 H 0.80484 0.42983 0.03559
 H338 H 0.78761 0.42667 -0.00996
 C339 C 0.21090 0.87975 0.46224
 C340 C 0.19754 0.90596 0.45363
 C341 C 0.17678 0.90449 0.43164
 C342 C 0.16937 0.87708 0.41797
 C343 C 0.18365 0.85154 0.42679
 N344 N 0.20375 0.85351 0.44832
 C345 C 0.23284 0.87968 0.48569
 N346 N 0.25110 0.85658 0.48685
 C347 C 0.27166 0.85463 0.50777
 C348 C 0.27475 0.87683 0.52947
 C349 C 0.25587 0.90067 0.52888
 C350 C 0.23493 0.90215 0.50720
 H351 H 0.16623 0.92474 0.42565
 H352 H 0.17900 0.83005 0.41649
 H353 H 0.28542 0.83567 0.50727
 H354 H 0.25706 0.91825 0.54515
 H355 H 0.20310 0.92749 0.46339
 H356 H 0.22033 0.92043 0.50780
   
