data_POSCAR
  _audit_creation_date              2014-09-24
  _audit_creation_method            'ToBaCCo'
  _symmetry_space_group_name_H-M    'P1'
  _symmetry_Int_Tables_number       1
  _symmetry_cell_setting            triclinic
  loop_
  _symmetry_equiv_pos_as_xyz
 x,y,z
_cell_length_a 45.1238
_cell_length_b 45.1466
_cell_length_c 14.8399
_cell_angle_alpha 89.938300
_cell_angle_beta 90.098100
_cell_angle_gamma 120.032600
loop_
  _atom_site_label
  _atom_site_type_symbol
  _atom_site_fract_x
  _atom_site_fract_y
  _atom_site_fract_z
C1 C 0.24035 0.48131 0.53969
 C2 C 0.23966 0.48113 0.44776
 C3 C 0.21041 0.47928 0.39683
 C4 C 0.26792 0.48234 0.39379
 C5 C 0.26778 0.47952 0.59058
 C6 C 0.21347 0.48285 0.59370
 C7 C 0.17682 0.45255 0.41201
 C8 C 0.14935 0.45183 0.36630
 C9 C 0.15524 0.47763 0.30416
 C10 C 0.18881 0.50385 0.28706
 C11 C 0.21625 0.50456 0.33289
 C12 C 0.26083 0.45645 0.33071
 C13 C 0.28745 0.45615 0.28347
 C14 C 0.32136 0.48190 0.29822
 C15 C 0.32850 0.50838 0.35893
 C16 C 0.30191 0.50874 0.40614
 C17 C 0.28757 0.50507 0.65362
 C18 C 0.31434 0.50437 0.69930
 C19 C 0.32137 0.47797 0.68296
 C20 C 0.30119 0.45195 0.62182
 C21 C 0.27440 0.45260 0.57618
 C22 C 0.20593 0.50921 0.58049
 C23 C 0.17921 0.50920 0.62808
 C24 C 0.16007 0.48310 0.69002
 C25 C 0.16818 0.45738 0.70552
 C26 C 0.19485 0.45733 0.65789
 H27 H 0.17188 0.43247 0.45986
 H28 H 0.12358 0.43126 0.38005
 H29 H 0.19384 0.52396 0.23905
 H30 H 0.24200 0.52524 0.31993
 H31 H 0.23479 0.43598 0.31997
 H32 H 0.28164 0.43555 0.23661
 H33 H 0.30783 0.52924 0.45336
 H34 H 0.28272 0.52591 0.66599
 H35 H 0.32973 0.52457 0.74668
 H36 H 0.30630 0.43130 0.60903
 H37 H 0.25902 0.43232 0.52905
 H38 H 0.22039 0.52944 0.53242
 H39 H 0.17322 0.52929 0.61578
 H40 H 0.15355 0.43708 0.75334
 H41 H 0.20040 0.43689 0.66932
 H42 H 0.35465 0.52849 0.37066
 C43 C 0.51910 -0.24129 0.54778
 C44 C 0.51925 -0.24106 0.45584
 C45 C 0.51786 -0.26965 0.40297
 C46 C 0.52127 -0.21200 0.40374
 C47 C 0.51733 -0.21427 0.60048
 C48 C 0.52124 -0.26829 0.59982
 C49 C 0.54342 -0.26292 0.33914
 C50 C 0.54333 -0.28977 0.29213
 C51 C 0.51753 -0.32356 0.30788
 C52 C 0.49143 -0.33037 0.36958
 C53 C 0.49146 -0.30353 0.41657
 C54 C 0.54810 -0.17840 0.41836
 C55 C 0.54901 -0.15111 0.37138
 C56 C 0.52336 -0.15718 0.30865
 C57 C 0.49707 -0.19069 0.29207
 C58 C 0.49612 -0.21800 0.33910
 C59 C 0.49087 -0.20694 0.58581
 C60 C 0.49072 -0.18000 0.63173
 C61 C 0.51677 -0.16038 0.69345
 C62 C 0.54257 -0.16828 0.71048
 C63 C 0.54277 -0.19518 0.66453
 C64 C 0.49588 -0.28787 0.66344
 C65 C 0.49679 -0.31440 0.70971
 C66 C 0.52326 -0.32140 0.69341
 C67 C 0.54915 -0.30133 0.63182
 C68 C 0.54825 -0.27479 0.58563
 H69 H 0.56387 -0.23696 0.32741
 H70 H 0.56362 -0.28422 0.24446
 H71 H 0.47128 -0.35642 0.38205
 H72 H 0.47118 -0.30918 0.46433
 H73 H 0.56810 -0.17332 0.46672
 H74 H 0.56953 -0.12529 0.38447
 H75 H 0.47537 -0.24375 0.32652
 H76 H 0.47069 -0.22175 0.53781
 H77 H 0.47056 -0.17419 0.61828
 H78 H 0.56282 -0.15330 0.75819
 H79 H 0.56328 -0.20054 0.67706
 H80 H 0.47498 -0.28309 0.67565
 H81 H 0.47663 -0.32965 0.75733
 H82 H 0.56987 -0.30634 0.61880
 H83 H 0.56839 -0.25956 0.53805
 H84 H 0.47713 -0.19567 0.24358
 C85 C 1.24060 0.75991 0.54840
 C86 C 1.24127 0.76036 0.45647
 C87 C 1.26876 0.78945 0.40554
 C88 C 1.21429 0.73196 0.40241
 C89 C 1.21129 0.73260 0.59917
 C90 C 1.26895 0.78694 0.60248
 C91 C 1.27560 0.82307 0.41975
 C92 C 1.30234 0.85037 0.37372
 C93 C 1.32226 0.84430 0.31230
 C94 C 1.31500 0.81074 0.29625
 C95 C 1.28829 0.78345 0.34236
 C96 C 1.19571 0.73891 0.33812
 C97 C 1.16899 0.71222 0.29033
 C98 C 1.16081 0.67837 0.30577
 C99 C 1.17991 0.67135 0.36783
 C100 C 1.20666 0.69802 0.41559
 C101 C 1.21699 0.71302 0.66305
 C102 C 1.18946 0.68630 0.70848
 C103 C 1.15597 0.67908 0.69106
 C104 C 1.15020 0.69911 0.62908
 C105 C 1.17773 0.72585 0.58372
 C106 C 1.30289 0.79441 0.59024
 C107 C 1.32958 0.82131 0.63759
 C108 C 1.32258 0.84074 0.69840
 C109 C 1.28868 0.83267 0.71300
 C110 C 1.26199 0.80580 0.66558
 H111 H 1.26041 0.82815 0.46697
 H112 H 1.30754 0.87618 0.38649
 H113 H 1.33013 0.80565 0.24874
 H114 H 1.28324 0.75768 0.33013
 H115 H 1.20133 0.76492 0.32672
 H116 H 1.15440 0.71793 0.24242
 H117 H 1.22109 0.69221 0.46374
 H118 H 1.24270 0.71799 0.67622
 H119 H 1.19432 0.67109 0.75644
 H120 H 1.12445 0.69395 0.61523
 H121 H 1.17289 0.74108 0.53591
 H122 H 1.30870 0.77976 0.54302
 H123 H 1.35567 0.82718 0.62582
 H124 H 1.28287 0.84746 0.75990
 H125 H 1.23598 0.80030 0.67623
 H126 H 1.17385 0.64524 0.38009
 C127 C 0.75974 0.51931 0.54956
 C128 C 0.75988 0.51910 0.45762
 C129 C 0.78897 0.52103 0.40600
 C130 C 0.73119 0.51742 0.40432
 C131 C 0.73262 0.52133 0.60109
 C132 C 0.78695 0.51800 0.60288
 C133 C 0.82256 0.54799 0.42012
 C134 C 0.84988 0.54880 0.37372
 C135 C 0.84387 0.52291 0.31208
 C136 C 0.81037 0.49647 0.29600
 C137 C 0.78302 0.49561 0.34244
 C138 C 0.73777 0.54280 0.33994
 C139 C 0.71081 0.54257 0.29284
 C140 C 0.67703 0.51680 0.30906
 C141 C 0.67037 0.49085 0.37125
 C142 C 0.69732 0.49103 0.41831
 C143 C 0.71327 0.49610 0.66526
 C144 C 0.68670 0.49692 0.71135
 C145 C 0.67942 0.52316 0.69430
 C146 C 0.69925 0.54891 0.63208
 C147 C 0.72584 0.54811 0.58607
 C148 C 0.79443 0.49160 0.58973
 C149 C 0.82142 0.49177 0.63651
 C150 C 0.84096 0.51810 0.69765
 C151 C 0.83290 0.54388 0.71311
 C152 C 0.80593 0.54373 0.66625
 H153 H 0.82760 0.56817 0.46764
 H154 H 0.87569 0.56946 0.38636
 H155 H 0.80543 0.47636 0.24828
 H156 H 0.75728 0.47475 0.33027
 H157 H 0.76371 0.56326 0.32790
 H158 H 0.71625 0.56275 0.24480
 H159 H 0.69178 0.47089 0.46654
 H160 H 0.71828 0.47538 0.67811
 H161 H 0.67163 0.47688 0.75944
 H162 H 0.69402 0.56945 0.61848
 H163 H 0.74090 0.56814 0.53805
 H164 H 0.77968 0.47120 0.54230
 H165 H 0.82728 0.47159 0.62409
 H166 H 0.84776 0.56438 0.76027
 H167 H 0.80043 0.56419 0.67761
 H168 H 0.64434 0.47072 0.38409
 C169 C 0.48011 0.23972 0.54979
 C170 C 0.47994 0.23964 0.45784
 C171 C 0.47794 0.26659 0.40531
 C172 C 0.48129 0.21233 0.40538
 C173 C 0.47796 0.21066 0.60219
 C174 C 0.48193 0.26863 0.60212
 C175 C 0.45114 0.27343 0.41948
 C176 C 0.45024 0.29971 0.37199
 C177 C 0.47586 0.31914 0.30921
 C178 C 0.50211 0.31185 0.29310
 C179 C 0.50307 0.28560 0.34062
 C180 C 0.45573 0.19344 0.34140
 C181 C 0.45583 0.16665 0.29457
 C182 C 0.48162 0.15868 0.31066
 C183 C 0.50770 0.17801 0.37258
 C184 C 0.50766 0.20485 0.41938
 C185 C 0.50338 0.21653 0.66586
 C186 C 0.50250 0.18914 0.71230
 C187 C 0.47601 0.15564 0.69611
 C188 C 0.45005 0.14975 0.63451
 C189 C 0.45091 0.17713 0.58816
 C190 C 0.50839 0.30240 0.58726
 C191 C 0.50863 0.32958 0.63295
 C192 C 0.48265 0.32326 0.69471
 C193 C 0.45683 0.28956 0.71189
 C194 C 0.45657 0.26238 0.66612
 H195 H 0.43117 0.25862 0.46786
 H196 H 0.42974 0.30506 0.38473
 H197 H 0.52203 0.32670 0.24458
 H198 H 0.52379 0.28054 0.32839
 H199 H 0.43529 0.19894 0.32933
 H200 H 0.43555 0.15187 0.24672
 H201 H 0.52794 0.21952 0.46726
 H202 H 0.52431 0.24223 0.67793
 H203 H 0.52271 0.19409 0.75990
 H204 H 0.42931 0.12400 0.62157
 H205 H 0.43073 0.17217 0.54052
 H206 H 0.52851 0.30769 0.53931
 H207 H 0.52885 0.35551 0.61921
 H208 H 0.43660 0.28427 0.75958
 H209 H 0.43606 0.23652 0.67881
 H210 H 0.52785 0.17213 0.38531
 C211 C 0.76000 0.24151 0.54718
 C212 C 0.75987 0.24097 0.45524
 C213 C 0.73274 0.21176 0.40373
 C214 C 0.78709 0.26936 0.40179
 C215 C 0.78914 0.26876 0.59870
 C216 C 0.73127 0.21457 0.60041
 C217 C 0.72594 0.17820 0.41906
 C218 C 0.69947 0.15079 0.37259
 C219 C 0.67983 0.15668 0.30969
 C220 C 0.68708 0.19015 0.29243
 C221 C 0.71351 0.21758 0.33893
 C222 C 0.80594 0.26240 0.33861
 C223 C 0.83277 0.28908 0.29118
 C224 C 0.84080 0.32292 0.30586
 C225 C 0.82147 0.32995 0.36688
 C226 C 0.79461 0.30328 0.41428
 C227 C 0.78331 0.28852 0.66148
 C228 C 0.81074 0.31525 0.70732
 C229 C 0.84425 0.32228 0.69140
 C230 C 0.85012 0.30204 0.63061
 C231 C 0.82270 0.27530 0.58486
 C232 C 0.69742 0.20706 0.58582
 C233 C 0.67040 0.18015 0.63218
 C234 C 0.67698 0.16077 0.69429
 C235 C 0.71074 0.16886 0.71127
 C236 C 0.73778 0.19573 0.66487
 H237 H 0.74091 0.17326 0.46756
 H238 H 0.69416 0.12500 0.38618
 H239 H 0.67207 0.19499 0.24376
 H240 H 0.71854 0.24330 0.32582
 H241 H 0.80041 0.23640 0.32774
 H242 H 0.84754 0.28337 0.24407
 H243 H 0.77997 0.30910 0.46154
 H244 H 0.75759 0.28371 0.67340
 H245 H 0.80580 0.33063 0.75435
 H246 H 0.87588 0.30705 0.61794
 H247 H 0.82763 0.25993 0.53792
 H248 H 0.69193 0.22168 0.53749
 H249 H 0.64437 0.17418 0.61875
 H250 H 0.71612 0.15405 0.75926
 H251 H 0.76371 0.20123 0.67735
 H252 H 0.82741 0.35604 0.37854
 N253 N 0.96475 0.45077 0.15818
 N254 N 0.93919 0.43403 0.21497
 N255 N 1.03662 0.46609 0.09494
 N256 N 1.06160 0.45938 0.10853
 N257 N 1.03673 0.48664 0.15767
 N258 N 1.06179 0.49451 0.21575
 N259 N 0.96458 0.43013 0.09558
 N260 N 0.93886 0.39873 0.10804
 C261 C 0.92334 0.40173 0.18256
 C262 C 1.07706 0.47743 0.18377
 N263 N 1.03621 0.48694 -0.16155
 N264 N 1.06178 0.49592 -0.21840
 N265 N 0.96434 0.43017 -0.09860
 N266 N 0.93927 0.39853 -0.11219
 N267 N 0.96420 0.45075 -0.16100
 N268 N 0.93901 0.43369 -0.21885
 N269 N 1.03639 0.46632 -0.09927
 N270 N 1.06212 0.46070 -0.11202
 Mn271 Mn 1.00049 0.44783 -0.00185
 C272 C 1.07764 0.47941 -0.18636
 C273 C 0.92372 0.40128 -0.18708
 N274 N 1.03681 0.55047 0.15801
 N275 N 1.06254 0.56719 0.21450
 N276 N 0.96469 0.53518 0.09657
 N277 N 0.93968 0.54177 0.11078
 N278 N 0.96482 0.51459 0.15893
 N279 N 0.93990 0.50656 0.21737
 N280 N 1.03673 0.57115 0.09578
 N281 N 1.06245 0.60257 0.10820
 Mn282 Mn 1.00078 0.50062 0.15920
 C283 C 1.07824 0.59952 0.18228
 C284 C 0.92447 0.52360 0.18602
 N285 N 0.96408 0.51450 -0.16024
 N286 N 0.93826 0.50551 -0.21644
 N287 N 1.03620 0.57123 -0.09843
 N288 N 1.06125 0.60287 -0.11214
 N289 N 1.03609 0.55069 -0.16119
 N290 N 1.06107 0.56777 -0.21942
 N291 N 0.96416 0.53508 -0.09762
 N292 N 0.93836 0.54068 -0.10946
 Mn293 Mn 1.00014 0.50072 -0.16202
 Mn294 Mn 1.00045 0.55351 -0.00093
 Cl295 Cl 1.00047 0.50067 -0.00140
 C296 C 0.92253 0.52200 -0.18363
 C297 C 1.07649 0.60016 -0.18752
 N298 N 0.46480 0.42847 0.09316
 N299 N 0.45799 0.39676 0.10660
 N300 N 0.44931 0.48491 0.15573
 N301 N 0.43238 0.49377 0.21168
 N302 N 0.42894 0.46462 0.09234
 N303 N 0.39752 0.45909 0.10339
 N304 N 0.48512 0.44881 0.15653
 N305 N 0.49273 0.43154 0.21490
 C306 C 0.47574 0.39925 0.18244
 C307 C 0.40024 0.47751 0.17793
 N308 N 0.53404 0.56949 0.09719
 N309 N 0.53982 0.60087 0.11040
 N310 N 0.54904 0.51253 0.15928
 N311 N 0.56551 0.50341 0.21632
 N312 N 0.57000 0.53342 0.09778
 N313 N 0.60137 0.53911 0.11124
 N314 N 0.51313 0.54858 0.15874
 N315 N 0.50410 0.56511 0.21557
 Mn316 Mn 0.49916 0.49870 0.15857
 C317 C 0.52089 0.59757 0.18424
 C318 C 0.59801 0.52014 0.18518
 N319 N 0.42990 0.46529 -0.10182
 N320 N 0.39833 0.45876 -0.11658
 N321 N 0.48685 0.45021 -0.16260
 N322 N 0.49604 0.43366 -0.21897
 N323 N 0.46592 0.42934 -0.10100
 N324 N 0.46028 0.39799 -0.11371
 N325 N 0.45081 0.48616 -0.16345
 N326 N 0.43404 0.49441 -0.22193
 Mn327 Mn 0.44704 0.44658 -0.00436
 C328 C 0.40146 0.47722 -0.19137
 C329 C 0.47930 0.40123 -0.18731
 N330 N 0.57102 0.53441 -0.09638
 N331 N 0.60273 0.54109 -0.10914
 N332 N 0.51475 0.55007 -0.16045
 N333 N 0.50691 0.56734 -0.21830
 N334 N 0.53506 0.57039 -0.09698
 N335 N 0.54162 0.60205 -0.10985
 N336 N 0.55072 0.51411 -0.15987
 N337 N 0.56804 0.50639 -0.21763
 Mn338 Mn 0.55288 0.55228 0.00045
 Mn339 Mn 0.50078 0.50014 -0.16263
 Cl340 Cl 0.49996 0.49942 -0.00204
 C341 C 0.60031 0.52330 -0.18468
 C342 C 0.52376 0.59959 -0.18545
 N343 N 0.42939 -0.03655 0.09859
 N344 N 0.39777 -0.06149 0.11323
 N345 N 0.48621 0.03538 0.16082
 N346 N 0.49520 0.06087 0.21794
 N347 N 0.46533 0.03543 0.09910
 N348 N 0.45952 0.06099 0.11251
 N349 N 0.45025 -0.03659 0.16038
 N350 N 0.43342 -0.06156 0.21883
 C351 C 0.40085 -0.07685 0.18806
 C352 C 0.47840 0.07655 0.18664
 N353 N 0.57051 0.03569 0.09535
 N354 N 0.60219 0.06075 0.10876
 N355 N 0.51422 -0.03641 0.15797
 N356 N 0.50653 -0.06144 0.21585
 N357 N 0.53465 -0.03625 0.09477
 N358 N 0.54143 -0.06120 0.10787
 N359 N 0.55011 0.03552 0.15863
 N360 N 0.56732 0.06045 0.21689
 Mn361 Mn 0.50019 -0.00053 0.16045
 C362 C 0.59963 0.07593 0.18448
 C363 C 0.52356 -0.07666 0.18330
 N364 N 0.46447 0.03560 -0.09508
 N365 N 0.45782 0.06065 -0.10778
 N366 N 0.44912 -0.03619 -0.15885
 N367 N 0.43226 -0.06184 -0.21538
 N368 N 0.42867 -0.03643 -0.09562
 N369 N 0.39726 -0.06229 -0.10737
 N370 N 0.48488 0.03577 -0.15834
 N371 N 0.49269 0.06094 -0.21590
 Mn372 Mn 0.44661 -0.00049 0.00175
 C373 C 0.47572 0.07620 -0.18307
 C374 C 0.40007 -0.07781 -0.18215
 N375 N 0.53384 -0.03601 -0.09939
 N376 N 0.53943 -0.06175 -0.11218
 N377 N 0.54885 0.03606 -0.16052
 N378 N 0.56537 0.06189 -0.21681
 N379 N 0.56974 0.03604 -0.09879
 N380 N 0.60108 0.06188 -0.11133
 N381 N 0.51301 -0.03596 -0.16121
 N382 N 0.50382 -0.06165 -0.21783
 Mn383 Mn 0.55254 -0.00013 -0.00209
 Mn384 Mn 0.49897 -0.00007 -0.16076
 Cl385 Cl 0.49958 -0.00031 -0.00013
 C386 C 0.52048 -0.07742 -0.18610
 C387 C 0.59780 0.07768 -0.18497
 C388 C 1.12947 0.47753 0.26344
 C389 C 1.10561 0.47750 0.22663
 C390 C 0.51844 0.64872 0.26279
 C391 C 0.51948 0.62544 0.22626
 C392 C 0.34889 -0.12901 0.26926
 C393 C 0.37258 -0.10528 0.23183
 C394 C 0.87214 0.52317 0.26660
 C395 C 0.89594 0.52334 0.22939
 C396 C 0.47565 0.34706 0.26303
 C397 C 0.47564 0.37075 0.22556
 C398 C 0.65180 0.12834 0.26432
 C399 C 0.62808 0.10449 0.22733
 C400 C 0.47588 0.12879 -0.26153
 C401 C 0.47582 0.10487 -0.22514
 C402 C 0.65272 0.52327 -0.26339
 C403 C 0.62888 0.52328 -0.22692
 C404 C 0.87111 0.34904 -0.26633
 C405 C 0.89504 0.37286 -0.22976
 C406 C 0.51768 -0.13149 -0.26289
 C407 C 0.51882 -0.10694 -0.22738
 C408 C 0.34955 0.47778 -0.27203
 C409 C 0.37325 0.47760 -0.23496
 C410 C 1.12904 0.65236 -0.26685
 C411 C 1.10512 0.62856 -0.23030
 C412 C 0.86837 0.51925 -0.26031
 C413 C 0.89295 0.52047 -0.22449
 C414 C 0.48189 0.34983 -0.26408
 C415 C 0.48086 0.37330 -0.22855
 C416 C 0.64906 0.13186 -0.26175
 C417 C 0.62568 0.10727 -0.22613
 C418 C 1.13140 0.48205 -0.26467
 C419 C 1.10701 0.48090 -0.22814
 C420 C 0.52346 0.65192 -0.26421
 C421 C 0.52358 0.62810 -0.22772
 C422 C 0.34874 -0.13190 -0.25918
 C423 C 0.37204 -0.10735 -0.22312
 C424 C 0.52358 -0.12895 0.26299
 C425 C 0.52361 -0.10516 0.22594
 C426 C 0.34891 0.48047 0.25371
 C427 C 0.37219 0.47910 0.21816
 C428 C 1.13209 0.65076 0.26032
 C429 C 1.10766 0.62749 0.22382
 C430 C 0.48077 0.13007 0.26555
 C431 C 0.47977 0.10578 0.22889
 C432 C 0.64919 0.51763 0.26400
 C433 C 0.62586 0.51866 0.22742
 C434 C 0.86954 0.35051 0.26058
 C435 C 0.89396 0.37377 0.22412
   
