data_POSCAR
  _audit_creation_date              2014-09-24
  _audit_creation_method            'ToBaCCo'
  _symmetry_space_group_name_H-M    'P1'
  _symmetry_Int_Tables_number       1
  _symmetry_cell_setting            triclinic
  loop_
  _symmetry_equiv_pos_as_xyz
 x,y,z
_cell_length_a 23.5157
_cell_length_b 22.3882
_cell_length_c 22.5623
_cell_angle_alpha 88.332800
_cell_angle_beta 90.050200
_cell_angle_gamma 90.683500
loop_
  _atom_site_label
  _atom_site_type_symbol
  _atom_site_fract_x
  _atom_site_fract_y
  _atom_site_fract_z
C1 C 0.21305 0.17924 0.24464
 N2 N 0.26439 0.16889 0.22029
 C3 C 0.29142 0.21084 0.18622
 N4 N 0.26614 0.26442 0.17586
 C5 C 0.21419 0.27564 0.19974
 N6 N 0.18754 0.23282 0.23422
 C7 C -0.20036 0.82876 0.24082
 N8 N -0.24770 0.84148 0.20851
 C9 C -0.26845 0.80186 0.16920
 N10 N -0.24225 0.74888 0.16321
 C11 C -0.19425 0.73659 0.19420
 N12 N -0.17280 0.77671 0.23241
 C13 C -0.20668 0.19053 -0.27707
 N14 N -0.16761 0.21204 -0.23859
 C15 C -0.18425 0.23277 -0.18540
 N16 N -0.23976 0.22805 -0.16867
 C17 C -0.27915 0.20657 -0.20711
 N18 N -0.26240 0.18960 -0.26163
 C19 C 0.20309 0.83311 -0.25018
 N20 N 0.25009 0.83901 -0.21605
 C21 C 0.25613 0.80482 -0.16562
 N22 N 0.21456 0.76442 -0.14962
 C23 C 0.16763 0.75842 -0.18437
 N24 N 0.16228 0.79300 -0.23408
 C25 C 0.20766 1.21173 0.71984
 N26 N 0.18210 1.26343 0.73365
 C27 C 0.19224 1.28882 0.78657
 N28 N 0.22576 1.26038 0.82724
 C29 C 0.25240 1.20915 0.81333
 N30 N 0.24414 1.18558 0.75916
 C31 C 0.82656 0.80663 0.75820
 N32 N 0.83633 0.75877 0.79536
 C33 C 0.80267 0.74792 0.84381
 N34 N 0.75838 0.78482 0.85424
 C35 C 0.74706 0.83126 0.81609
 N36 N 0.78132 0.84206 0.76848
 C37 C 0.17648 0.79765 1.28525
 N38 N 0.21899 0.82255 1.25168
 C39 C 0.23310 0.79916 1.19905
 N40 N 0.20702 0.74824 1.18149
 C41 C 0.16521 0.72228 1.21514
 N42 N 0.14927 0.74762 1.26668
 C43 C 0.81928 1.18912 1.26077
 N44 N 0.83974 1.22477 1.21606
 C45 C 0.81035 1.23271 1.16492
 N46 N 0.75887 1.20576 1.15892
 C47 C 0.73736 1.17033 1.20362
 N48 N 0.76806 1.16116 1.25428
 O49 O 0.53386 0.95515 0.87956
 O50 O 0.43083 0.92745 1.08958
 O51 O 0.60570 0.96343 1.04556
 O52 O 0.41253 0.92145 0.98804
 O53 O 0.53070 0.91238 1.07478
 O54 O 0.42698 0.95064 0.89775
 O55 O 0.35416 0.97437 1.06213
 O56 O 0.60688 0.98193 0.93614
 C57 C 0.58613 0.95347 0.89298
 C58 C 0.37784 0.93369 1.09664
 C59 C 0.58293 0.91549 1.06534
 C60 C 0.40838 0.91195 0.93444
 O61 O 0.43096 1.07199 0.90467
 O62 O 0.55444 1.01503 1.12083
 O63 O 0.58456 1.09694 0.95228
 O64 O 0.40905 1.07353 1.03875
 O65 O 0.45316 1.04462 1.11704
 O66 O 0.53162 1.06930 0.87954
 O67 O 0.36846 1.02247 0.95400
 O68 O 0.57521 1.08176 1.05697
 Co69 Co 0.48117 1.01098 0.90025
 Co70 Co 0.49196 0.97904 1.09011
 Co71 Co 0.58484 1.02868 0.99853
 Co72 Co 0.41397 0.99796 1.01495
 O73 O 0.49652 1.00715 0.99546
 C74 C 0.38076 1.06576 0.92059
 C75 C 0.57642 1.06418 1.10901
 C76 C 0.56835 1.10345 0.90013
 C77 C 0.42501 1.08393 1.08953
 O78 O 0.02661 0.41613 0.12003
 O79 O 0.01778 0.55927 -0.11268
 O80 O 0.09422 0.42701 -0.05350
 O81 O 0.06977 0.56832 0.05636
 O82 O 0.03469 0.44992 -0.12364
 O83 O 0.03004 0.52472 0.12907
 O84 O 0.02851 0.61702 -0.03482
 O85 O 0.08725 0.42874 0.05250
 C86 C 0.07741 0.41470 0.10458
 C87 C 0.03457 0.60706 -0.08933
 C88 C 0.08328 0.43374 -0.10738
 C89 C 0.07010 0.55619 0.10990
 O90 O -0.07491 0.53607 0.08941
 O91 O -0.07119 0.42445 -0.09206
 O92 O -0.01466 0.36186 0.04516
 O93 O -0.07269 0.58807 -0.00815
 O94 O -0.08765 0.53942 -0.08955
 O95 O -0.07784 0.42506 0.07392
 O96 O -0.02637 0.62189 0.07933
 O97 O -0.00336 0.36618 -0.06039
 Co98 Co -0.02214 0.47611 0.09396
 Co99 Co -0.02451 0.49197 -0.09456
 Co100 Co 0.03823 0.40249 -0.00249
 Co101 Co -0.00245 0.56997 0.02501
 O102 O -0.00050 0.48475 -0.00100
 C103 C -0.06697 0.58994 0.10609
 C104 C -0.05191 0.37306 -0.08299
 C105 C -0.06538 0.37375 0.05889
 C106 C -0.09998 0.58011 -0.05515
 O107 O 1.07640 0.07779 0.42227
 O108 O 0.88934 0.02840 0.55364
 O109 O 0.97416 0.06274 0.39880
 O110 O 1.06263 0.07443 0.60769
 O111 O 0.89643 0.04376 0.44584
 O112 O 1.08575 0.10481 0.52072
 O113 O 0.95506 0.07991 0.59872
 O114 O 1.06026 0.00757 0.36635
 C115 C 1.08557 0.05520 0.37386
 C116 C 0.90415 0.07222 0.58440
 C117 C 0.92455 0.07639 0.41031
 C118 C 1.09061 0.10933 0.57473
 O119 O 1.12202 -0.00575 0.55454
 O120 O 0.92814 -0.07233 0.43689
 O121 O 1.03274 -0.08475 0.42717
 O122 O 0.94913 -0.03587 0.62045
 O123 O 0.92664 -0.08515 0.54309
 O124 O 1.11025 -0.03776 0.45306
 O125 O 1.05698 -0.03974 0.61757
 O126 O 0.96185 -0.03777 0.35403
 Co127 Co 1.09149 0.03253 0.48838
 Co128 Co 0.91802 -0.01885 0.49544
 Co129 Co 1.00126 -0.01058 0.41640
 Co130 Co 1.00552 0.01877 0.60082
 O131 O 1.00642 0.00774 0.50403
 C132 C 1.10746 -0.03787 0.59919
 C133 C 0.92029 -0.06416 0.38180
 C134 C 1.08581 -0.08459 0.43497
 C135 C 0.93039 -0.08258 0.59794
 N136 N 1.16883 0.04100 0.31122
 N137 N 1.20583 0.07620 0.27689
 C138 C 1.18671 0.13278 0.27683
 C139 C 1.13823 0.13544 0.31189
 C140 C 1.12901 0.07707 0.33255
 H141 H 1.11335 0.17436 0.32146
 H142 H 1.17320 -0.00478 0.32015
 H143 H 1.24102 0.06005 0.25439
 N144 N 0.82341 -0.05434 0.34159
 N145 N 0.79075 -0.08262 0.29889
 C146 C 0.81905 -0.13161 0.28292
 C147 C 0.86972 -0.13566 0.31442
 C148 C 0.87064 -0.08667 0.35043
 H149 H 0.90299 -0.16816 0.30952
 H150 H 0.81424 -0.01316 0.35963
 H151 H 0.75185 -0.06727 0.28249
 N152 N 0.80473 0.10672 0.59228
 N153 N 0.77343 0.13991 0.63179
 C154 C 0.81017 0.16349 0.67088
 C155 C 0.86535 0.14743 0.65640
 C156 C 0.85985 0.11077 0.60799
 H157 H 0.90364 0.15557 0.68175
 H158 H 0.78718 0.07957 0.55996
 H159 H 0.72906 0.14133 0.63294
 N160 N 1.20733 -0.06105 0.62812
 N161 N 1.23301 -0.09449 0.66910
 C162 C 1.19311 -0.12711 0.69854
 C163 C 1.14008 -0.11396 0.67585
 C164 C 1.15084 -0.07159 0.63175
 H165 H 1.09912 -0.13060 0.69134
 H166 H 1.22809 -0.03019 0.59981
 H167 H 1.27675 -0.09403 0.67721
 N168 N 0.40758 1.19276 1.08837
 N169 N 0.36770 1.22904 1.11512
 C170 C 0.34193 1.19577 1.15814
 C171 C 0.36652 1.13952 1.16171
 C172 C 0.40646 1.13896 1.11684
 H173 H 0.35122 1.10097 1.18737
 H174 H 0.42802 1.20320 1.04824
 H175 H 0.35555 1.27112 1.09881
 N176 N 0.35578 0.81619 0.95207
 N177 N 0.31107 0.78665 0.92411
 C178 C 0.30285 0.81450 0.87113
 C179 C 0.34284 0.86025 0.86324
 C180 C 0.37410 0.86082 0.91524
 H181 H 0.34418 0.89373 0.82763
 H182 H 0.36776 0.80875 0.99618
 H183 H 0.28572 0.75307 0.94396
 N184 N 0.61543 0.81020 1.06801
 N185 N 0.65819 0.77834 1.09742
 C186 C 0.68531 0.81646 1.13344
 C187 C 0.66180 0.87262 1.12731
 C188 C 0.61898 0.86685 1.08593
 H189 H 0.67460 0.91293 1.14944
 H190 H 0.58727 0.79289 1.03689
 H191 H 0.66676 0.73318 1.09184
 N192 N 0.57836 1.15538 0.80277
 N193 N 0.62287 1.18309 0.77160
 C194 C 0.66490 1.19440 0.81044
 C195 C 0.64777 1.17567 0.86721
 C196 C 0.59439 1.14905 0.85992
 H197 H 0.67462 1.17160 0.90610
 H198 H 0.54331 1.13503 0.78285
 H199 H 0.62489 1.18743 0.72542
 N200 N 0.17683 0.41871 0.13910
 N201 N 0.21365 0.38127 0.16338
 C202 C 0.18552 0.33204 0.18347
 C203 C 0.12770 0.33905 0.17228
 C204 C 0.12422 0.39452 0.14322
 H205 H 0.09458 0.30519 0.17638
 H206 H 0.18822 0.45811 0.11589
 H207 H 0.25771 0.38770 0.16228
 N208 N -0.06026 0.26447 -0.10068
 N209 N -0.09530 0.22723 -0.12711
 C210 C -0.14133 0.25754 -0.14564
 C211 C -0.13519 0.31712 -0.13108
 C212 C -0.08275 0.31960 -0.10289
 H213 H -0.16284 0.35387 -0.14294
 H214 H -0.02054 0.25256 -0.08360
 H215 H -0.08680 0.18228 -0.13408
 N216 N 0.04832 0.65874 -0.18598
 N217 N 0.08360 0.69795 -0.21102
 C218 C 0.12183 0.71533 -0.17029
 C219 C 0.10986 0.68663 -0.11629
 C220 C 0.06272 0.65114 -0.12860
 H221 H 0.13275 0.68987 -0.07486
 H222 H 0.01516 0.63732 -0.20812
 H223 H 0.08185 0.71168 -0.25563
 N224 N -0.15726 0.58829 0.16182
 N225 N -0.19127 0.62727 0.18575
 C226 C -0.16508 0.68099 0.18413
 C227 C -0.11233 0.67656 0.15770
 C228 C -0.10946 0.61705 0.14359
 H229 H -0.08316 0.71244 0.14499
 H230 H -0.16823 0.54367 0.15496
 H231 H -0.23273 0.61777 0.20000
 N232 N 1.19179 0.11427 0.60005
 N233 N 1.22429 0.14011 0.64425
 C234 C 1.19267 0.18265 0.66839
 C235 C 1.13959 0.18472 0.64080
 C236 C 1.14038 0.14031 0.59910
 H237 H 1.10282 0.20922 0.65493
 H238 H 1.20301 0.07545 0.57871
 H239 H 1.26432 0.12549 0.65808
 N240 N 0.93460 -0.18388 0.64658
 N241 N 0.90647 -0.21410 0.69331
 C242 C 0.86323 -0.17958 0.71059
 C243 C 0.86311 -0.12708 0.67593
 C244 C 0.90829 -0.13145 0.63678
 H245 H 0.83550 -0.08913 0.68048
 H246 H 0.97179 -0.19811 0.62635
 H247 H 0.91844 -0.25540 0.71176
 N248 N 1.17998 -0.12684 0.42079
 N249 N 1.20623 -0.15495 0.37424
 C250 C 1.16532 -0.17927 0.34070
 C251 C 1.11208 -0.16736 0.36476
 C252 C 1.12319 -0.13169 0.41341
 H253 H 1.07136 -0.17379 0.34331
 H254 H 1.20121 -0.09803 0.44919
 H255 H 1.24985 -0.15326 0.36551
 N256 N 0.93333 0.17579 0.36238
 N257 N 0.90387 0.20688 0.31810
 C258 C 0.85378 0.17832 0.31009
 C259 C 0.84899 0.13040 0.35046
 C260 C 0.90051 0.12926 0.38077
 H261 H 0.81671 0.09555 0.35077
 H262 H 0.97619 0.18286 0.37257
 H263 H 0.92120 0.24188 0.29204
 N264 N 0.11079 0.42078 -0.21114
 N265 N 0.13852 0.37628 -0.24124
 C266 C 0.16646 0.34250 -0.20069
 C267 C 0.15886 0.36527 -0.14465
 C268 C 0.12194 0.41275 -0.15287
 H269 H 0.17087 0.34418 -0.10276
 H270 H 0.07998 0.44864 -0.23007
 H271 H 0.13394 0.36859 -0.28645
 N272 N -0.15541 0.32072 0.03590
 N273 N -0.19195 0.28189 0.06750
 C274 C -0.16570 0.26685 0.11881
 C275 C -0.11228 0.29342 0.12030
 C276 C -0.10748 0.32638 0.06805
 H277 H -0.08240 0.29285 0.15688
 H278 H -0.16619 0.34505 -0.00258
 H279 H -0.23329 0.27056 0.05467
 N280 N -0.18401 0.64332 -0.03437
 N281 N -0.21082 0.69137 -0.06327
 C282 C -0.18611 0.69977 -0.11691
 C283 C -0.14513 0.65637 -0.12417
 C284 C -0.14522 0.62201 -0.07188
 H285 H -0.11580 0.65298 -0.16086
 H286 H -0.19047 0.62986 0.00985
 H287 H -0.24133 0.71823 -0.04403
 N288 N 0.10369 0.57563 0.21116
 N289 N 0.12483 0.62162 0.23950
 C290 C 0.14206 0.66354 0.19936
 C291 C 0.13226 0.64298 0.14269
 C292 C 0.10676 0.58721 0.15224
 H293 H 0.13699 0.66780 0.10107
 H294 H 0.08364 0.53887 0.23210
 H295 H 0.12571 0.62480 0.28559
 N296 N 0.30468 1.13647 0.94511
 N297 N 0.27259 1.17630 0.91719
 C298 C 0.28468 1.17591 0.85885
 C299 C 0.32695 1.13466 0.84917
 C300 C 0.33821 1.11071 0.90512
 H301 H 0.34571 1.12275 0.80742
 H302 H 0.30378 1.12752 0.99081
 H303 H 0.24177 1.20184 0.93765
 N304 N 0.36244 0.82650 1.12033
 N305 N 0.32363 0.79079 1.14490
 C306 C 0.28113 0.82431 1.16495
 C307 C 0.29282 0.88435 1.15178
 C308 C 0.34495 0.88346 1.12308
 H309 H 0.26745 0.92275 1.16192
 H310 H 0.40015 0.81182 1.10145
 H311 H 0.32705 0.74439 1.14912
 N312 N 0.61382 1.07592 1.21097
 N313 N 0.65734 1.10316 1.23611
 C314 C 0.68282 1.13922 1.19513
 C315 C 0.65379 1.13558 1.14186
 C316 C 0.61078 1.09436 1.15364
 H317 H 0.66576 1.15534 1.09925
 H318 H 0.58880 1.04275 1.23193
 H319 H 0.67080 1.09478 1.27966
 N320 N 0.61774 0.91236 0.79777
 N321 N 0.66106 0.88218 0.77729
 C322 C 0.69537 0.86676 0.82288
 C323 C 0.67332 0.88875 0.87488
 C324 C 0.62405 0.91770 0.85670
 H325 H 0.69094 0.88509 0.91915
 H326 H 0.58526 0.93034 0.77142
 H327 H 0.66667 0.87197 0.73280
   
