data_POSCAR
  _audit_creation_date              2014-09-24
  _audit_creation_method            'ToBaCCo'
  _symmetry_space_group_name_H-M    'P1'
  _symmetry_Int_Tables_number       1
  _symmetry_cell_setting            triclinic
  loop_
  _symmetry_equiv_pos_as_xyz
 x,y,z
_cell_length_a 39.5697
_cell_length_b 39.5028
_cell_length_c 39.4874
_cell_angle_alpha 89.929400
_cell_angle_beta 89.974900
_cell_angle_gamma 89.970000
loop_
  _atom_site_label
  _atom_site_type_symbol
  _atom_site_fract_x
  _atom_site_fract_y
  _atom_site_fract_z
C1 C 0.16825 0.16570 0.21002
 C2 C 0.15283 0.19355 0.19368
 C3 C 0.16528 0.20635 0.16295
 C4 C 0.19304 0.19044 0.14769
 C5 C 0.21044 0.16370 0.16369
 C6 C 0.19767 0.15190 0.19501
 H7 H 0.13059 0.20523 0.20424
 H8 H 0.20022 0.19865 0.12260
 H9 H 0.21224 0.13372 0.20922
 C10 C -0.17317 0.82651 0.21711
 C11 C -0.15767 0.79868 0.20075
 C12 C -0.16928 0.78668 0.16928
 C13 C -0.19658 0.80320 0.15371
 C14 C -0.21395 0.82944 0.17011
 C15 C -0.20229 0.84053 0.20182
 H16 H -0.13588 0.78662 0.21178
 H17 H -0.20424 0.79570 0.12852
 H18 H -0.21710 0.85921 0.21520
 C19 C -0.16651 0.16906 -0.21377
 C20 C -0.15069 0.19644 -0.19701
 C21 C -0.16278 0.20865 -0.16581
 C22 C -0.19055 0.19256 -0.15066
 C23 C -0.20803 0.16658 -0.16733
 C24 C -0.19608 0.15548 -0.19895
 H25 H -0.12847 0.20814 -0.20760
 H26 H -0.19858 0.20037 -0.12567
 H27 H -0.21105 0.13727 -0.21273
 C28 C 0.15861 0.84183 -0.20349
 C29 C 0.14465 0.81303 -0.18745
 C30 C 0.16193 0.79559 -0.16169
 C31 C 0.19304 0.80825 -0.15041
 C32 C 0.20651 0.83831 -0.16374
 C33 C 0.18930 0.85469 -0.19033
 H34 H 0.11964 0.80439 -0.19410
 H35 H 0.20724 0.79425 -0.13163
 H36 H 0.20080 0.87689 -0.20122
 C37 C 0.16409 1.16335 0.79033
 C38 C 0.14797 1.18984 0.80812
 C39 C 0.16314 1.20554 0.83621
 C40 C 0.19383 1.19260 0.84852
 C41 C 0.21001 1.16537 0.83238
 C42 C 0.19547 1.15175 0.80290
 H43 H 0.12289 1.19793 0.80102
 H44 H 0.20532 1.20394 0.87057
 H45 H 0.20991 1.13318 0.78900
 C46 C 0.83671 0.83545 0.79144
 C47 C 0.85079 0.80593 0.80606
 C48 C 0.83877 0.79227 0.83689
 C49 C 0.81157 0.80888 0.85288
 C50 C 0.79567 0.83698 0.83815
 C51 C 0.80863 0.85028 0.80783
 H52 H 0.86934 0.79186 0.79184
 H53 H 0.80304 0.80082 0.87761
 H54 H 0.79686 0.87269 0.79761
 C55 C 0.16836 0.83273 1.21134
 C56 C 0.15307 0.80483 1.19489
 C57 C 0.16526 0.79252 1.16377
 C58 C 0.19271 0.80891 1.14843
 C59 C 0.20964 0.83546 1.16471
 C60 C 0.19745 0.84695 1.19610
 H61 H 0.13112 0.79278 1.20564
 H62 H 0.20097 0.80091 1.12356
 H63 H 0.21198 0.86592 1.20934
 C64 C 0.83078 1.16824 1.21184
 C65 C 0.84426 1.19806 1.19733
 C66 C 0.83301 1.21046 1.16591
 C67 C 0.80697 1.19321 1.14915
 C68 C 0.79097 1.16522 1.16402
 C69 C 0.80333 1.15266 1.19500
 H70 H 0.86255 1.21287 1.21117
 H71 H 0.79906 1.20154 1.12428
 H72 H 0.79169 1.13024 1.20530
 N73 N 0.46510 0.93994 0.96171
 N74 N 0.43838 0.92025 0.95837
 N75 N 0.53710 0.96301 0.93874
 N76 N 0.56432 0.95988 0.91966
 N77 N 0.53627 0.93922 0.96199
 N78 N 0.56268 0.91901 0.95908
 N79 N 0.46585 0.96290 0.93766
 N80 N 0.43983 0.95922 0.91707
 C81 C 0.42296 0.93246 0.93030
 C82 C 0.57990 0.93218 0.93251
 N83 N 0.53660 1.05974 0.96106
 N84 N 0.56237 1.08053 0.95695
 N85 N 0.46573 1.03580 0.93734
 N86 N 0.43972 1.03943 0.91672
 N87 N 0.46575 1.05973 0.96041
 N88 N 0.44007 1.08056 0.95581
 N89 N 0.53708 1.03581 0.93803
 N90 N 0.56339 1.03950 0.91779
 Mn91 Mn 0.50147 0.99937 0.93749
 C92 C 0.57887 1.06759 0.92985
 C93 C 0.42406 1.06756 0.92848
 N94 N 0.53571 0.93968 1.03493
 N95 N 0.56119 0.91861 1.03955
 N96 N 0.46465 0.96411 1.05764
 N97 N 0.43808 0.96096 1.07764
 N98 N 0.46481 0.94022 1.03457
 N99 N 0.43863 0.91992 1.03848
 N100 N 0.53600 0.96364 1.05793
 N101 N 0.56189 0.95972 1.07864
 Mn102 Mn 0.50045 0.93935 0.99827
 C103 C 0.57732 0.93146 1.06690
 C104 C 0.42219 0.93318 1.06546
 N105 N 0.46508 1.06017 1.03353
 N106 N 0.43886 1.08054 1.03719
 N107 N 0.53639 1.03641 1.05724
 N108 N 0.56306 1.03962 1.07704
 N109 N 0.53609 1.06020 1.03398
 N110 N 0.56232 1.08049 1.03758
 N111 N 0.46506 1.03672 1.05711
 N112 N 0.43871 1.04029 1.07726
 Mn113 Mn 0.50084 1.06038 0.99725
 Mn114 Mn 0.50056 1.00024 1.05791
 Cl115 Cl 0.50082 0.99984 0.99773
 C116 C 0.42265 1.06781 1.06464
 C117 C 0.57888 1.06736 1.06456
 N118 N 0.03762 0.46398 0.05983
 N119 N 0.04051 0.43708 0.07953
 N120 N 0.06179 0.53523 0.03668
 N121 N 0.08206 0.56148 0.04032
 N122 N 0.03782 0.53565 0.05966
 N123 N 0.04088 0.56249 0.07932
 N124 N 0.06161 0.46426 0.03687
 N125 N 0.08174 0.43790 0.04057
 C126 C 0.06830 0.42119 0.06730
 C127 C 0.06873 0.57824 0.06705
 N128 N 0.03926 0.53521 -0.06006
 N129 N 0.04292 0.56160 -0.08024
 N130 N 0.06207 0.46379 -0.03591
 N131 N 0.08152 0.43675 -0.03876
 N132 N 0.03910 0.46418 -0.05989
 N133 N 0.04255 0.43773 -0.07994
 N134 N 0.06228 0.53541 -0.03613
 N135 N 0.08200 0.56219 -0.03916
 Mn136 Mn 0.06237 0.49967 0.00035
 C137 C 0.06974 0.57817 -0.06693
 C138 C 0.06914 0.42087 -0.06649
 N139 N -0.03481 0.53578 0.05895
 N140 N -0.03886 0.56190 0.07938
 N141 N -0.05844 0.46456 0.03564
 N142 N -0.07934 0.43886 0.03974
 N143 N -0.03500 0.46437 0.05916
 N144 N -0.03910 0.43831 0.07970
 N145 N -0.05829 0.53559 0.03547
 N146 N -0.07917 0.56133 0.03950
 Mn147 Mn 0.00142 0.49995 0.05986
 C148 C -0.06670 0.57754 0.06698
 C149 C -0.06694 0.42270 0.06734
 N150 N -0.03357 0.46408 -0.06037
 N151 N -0.03665 0.43731 -0.08011
 N152 N -0.05737 0.53550 -0.03750
 N153 N -0.07758 0.56177 -0.04138
 N154 N -0.03350 0.53563 -0.06060
 N155 N -0.03668 0.56221 -0.08067
 N156 N -0.05755 0.46447 -0.03737
 N157 N -0.07782 0.43824 -0.04110
 Mn158 Mn 0.00280 0.49979 -0.06067
 Mn159 Mn -0.05832 0.50003 -0.00097
 Cl160 Cl 0.00206 0.49986 -0.00034
 C161 C -0.06449 0.42155 -0.06788
 C162 C -0.06441 0.57819 -0.06845
 N163 N 0.96411 0.05902 0.46265
 N164 N 0.96000 0.07953 0.43657
 N165 N 0.94045 0.03628 0.53440
 N166 N 0.91987 0.04053 0.56035
 N167 N 0.96365 0.06002 0.53387
 N168 N 0.95933 0.08123 0.55931
 N169 N 0.94040 0.03579 0.46316
 N170 N 0.91936 0.04001 0.43758
 C171 C 0.93193 0.06739 0.42118
 C172 C 0.93191 0.06873 0.57562
 N173 N 0.96382 -0.06001 0.53553
 N174 N 0.96027 -0.07989 0.56216
 N175 N 0.94049 -0.03712 0.46384
 N176 N 0.91945 -0.04168 0.43835
 N177 N 0.96367 -0.06091 0.46428
 N178 N 0.95883 -0.08251 0.43926
 N179 N 0.94021 -0.03665 0.53509
 N180 N 0.91975 -0.04021 0.56128
 Mn181 Mn 0.93997 -0.00043 0.49913
 C182 C 0.93259 -0.06733 0.57792
 C183 C 0.93117 -0.07012 0.42325
 N184 N 1.03650 0.05988 0.53423
 N185 N 1.04012 0.08039 0.56035
 N186 N 1.06009 0.03535 0.46323
 N187 N 1.08077 0.03901 0.43724
 N188 N 1.03689 0.05911 0.46306
 N189 N 1.04133 0.07977 0.43716
 N190 N 1.05977 0.03619 0.53464
 N191 N 1.07974 0.03982 0.56114
 Mn192 Mn 1.00028 0.05993 0.49844
 C193 C 1.06728 0.06758 0.57688
 C194 C 1.06880 0.06691 0.42125
 N195 N 1.03670 -0.06104 0.46440
 N196 N 1.04102 -0.08201 0.43874
 N197 N 1.05961 -0.03654 0.53571
 N198 N 1.07859 -0.03892 0.56312
 N199 N 1.03640 -0.06026 0.53560
 N200 N 1.03910 -0.07956 0.56275
 N201 N 1.05998 -0.03738 0.46418
 N202 N 1.08056 -0.04138 0.43819
 Mn203 Mn 1.00015 -0.06098 0.49991
 Mn204 Mn 1.06030 -0.00061 0.49944
 Cl205 Cl 1.00017 -0.00052 0.49920
 C206 C 1.06852 -0.06940 0.42261
 C207 C 1.06562 -0.06605 0.57964
 C208 C 1.12680 0.12399 0.30039
 C209 C 1.14781 0.10405 0.27997
 C210 C 1.16140 0.11792 0.25021
 C211 C 1.15481 0.15198 0.24072
 C212 C 1.13391 0.17159 0.26239
 C213 C 1.11962 0.15765 0.29178
 C214 C 1.11195 0.10931 0.33139
 C215 C 1.09037 0.12913 0.35148
 C216 C 1.07604 0.11496 0.38072
 C217 C 1.08371 0.08147 0.39022
 C218 C 1.10562 0.06200 0.36997
 C219 C 1.11957 0.07573 0.34030
 C220 C 1.09822 0.17682 0.31275
 C221 C 1.08368 0.16274 0.34198
 C222 C 1.15460 0.07042 0.28954
 C223 C 1.14090 0.05658 0.31929
 H224 H 1.09245 0.20288 0.30640
 H225 H 1.06715 0.17834 0.35731
 H226 H 1.17079 0.05470 0.27398
 H227 H 1.14695 0.03065 0.32584
 H228 H 1.17592 0.10133 0.23398
 H229 H 1.12932 0.19811 0.25747
 H230 H 1.05929 0.13010 0.39630
 H231 H 1.11143 0.03612 0.37704
 C232 C 0.86963 -0.13041 0.30599
 C233 C 0.84830 -0.11083 0.28552
 C234 C 0.83402 -0.12529 0.25646
 C235 C 0.84035 -0.15955 0.24760
 C236 C 0.86145 -0.17884 0.26939
 C237 C 0.87637 -0.16433 0.29815
 C238 C 0.88541 -0.11500 0.33610
 C239 C 0.90736 -0.13442 0.35622
 C240 C 0.92265 -0.11949 0.38456
 C241 C 0.91556 -0.08564 0.39310
 C242 C 0.89327 -0.06662 0.37283
 C243 C 0.87836 -0.08110 0.34409
 C244 C 0.89810 -0.18312 0.31918
 C245 C 0.91348 -0.16837 0.34760
 C246 C 0.84202 -0.07689 0.29422
 C247 C 0.85666 -0.06233 0.32310
 H248 H 0.90353 -0.20938 0.31344
 H249 H 0.93026 -0.18368 0.36297
 H250 H 0.82561 -0.06145 0.27859
 H251 H 0.85108 -0.03612 0.32894
 H252 H 0.81936 -0.10893 0.24012
 H253 H 0.86585 -0.20547 0.26493
 H254 H 0.93967 -0.13430 0.40019
 H255 H 0.88786 -0.04047 0.37918
 C256 C 0.87453 0.12700 0.69601
 C257 C 0.85325 0.10735 0.71644
 C258 C 0.83979 0.12139 0.74610
 C259 C 0.84682 0.15534 0.75556
 C260 C 0.86809 0.17466 0.73397
 C261 C 0.88218 0.16055 0.70458
 C262 C 0.88923 0.11209 0.66510
 C263 C 0.91106 0.13159 0.64494
 C264 C 0.92525 0.11716 0.61577
 C265 C 0.91720 0.08373 0.60648
 C266 C 0.89506 0.06461 0.62682
 C267 C 0.88123 0.07859 0.65635
 C268 C 0.90384 0.17941 0.68356
 C269 C 0.91818 0.16512 0.65435
 C270 C 0.84606 0.07380 0.70703
 C271 C 0.85968 0.05971 0.67740
 H272 H 0.90997 0.20537 0.68986
 H273 H 0.93491 0.18047 0.63897
 H274 H 0.82967 0.05831 0.72264
 H275 H 0.85340 0.03380 0.67100
 H276 H 0.82507 0.10497 0.76233
 H277 H 0.87312 0.20107 0.73900
 H278 H 0.94219 0.13202 0.60012
 H279 H 0.88896 0.03877 0.61990
 C280 C 1.11534 -0.11692 0.70680
 C281 C 1.13666 -0.09674 0.72663
 C282 C 1.14984 -0.10985 0.75694
 C283 C 1.14289 -0.14358 0.76732
 C284 C 1.12087 -0.16309 0.74669
 C285 C 1.10696 -0.14987 0.71684
 C286 C 1.10202 -0.10352 0.67455
 C287 C 1.08062 -0.12378 0.65476
 C288 C 1.06840 -0.11113 0.62392
 C289 C 1.07804 -0.07876 0.61253
 C290 C 1.09948 -0.05871 0.63269
 C291 C 1.11135 -0.07091 0.66390
 C292 C 1.08535 -0.16936 0.69640
 C293 C 1.07224 -0.15646 0.66600
 C294 C 1.14478 -0.06389 0.71553
 C295 C 1.13252 -0.05131 0.68460
 H296 H 1.07860 -0.19486 0.70391
 H297 H 1.05573 -0.17234 0.65098
 H298 H 1.16118 -0.04795 0.73061
 H299 H 1.13981 -0.02610 0.67676
 H300 H 1.16497 -0.09315 0.77239
 H301 H 1.11570 -0.18936 0.75236
 H302 H 1.05192 -0.12670 0.60852
 H303 H 1.10673 -0.03363 0.62421
 C304 C 0.30000 1.12239 1.12067
 C305 C 0.28119 1.10302 1.14370
 C306 C 0.25135 1.11647 1.15742
 C307 C 0.24033 1.14964 1.14904
 C308 C 0.26023 1.16859 1.12585
 C309 C 0.28963 1.15502 1.11145
 C310 C 0.33132 1.10830 1.10608
 C311 C 0.34997 1.12760 1.08275
 C312 C 0.37970 1.11407 1.06892
 C313 C 0.39105 1.08175 1.07878
 C314 C 0.37215 1.06280 1.10234
 C315 C 0.34212 1.07590 1.11592
 C316 C 0.30907 1.17367 1.08818
 C317 C 0.33862 1.16012 1.07393
 C318 C 0.29262 1.07051 1.15264
 C319 C 0.32270 1.05730 1.13919
 H320 H 0.30133 1.19895 1.08083
 H321 H 0.35280 1.17531 1.05602
 H322 H 0.27837 1.05527 1.17046
 H323 H 0.33086 1.03237 1.14713
 H324 H 0.23646 1.10032 1.17377
 H325 H 0.25403 1.19455 1.11974
 H326 H 0.39420 1.12883 1.05090
 H327 H 0.38064 1.03782 1.10990
 C328 C 0.29913 0.87889 0.87637
 C329 C 0.29207 0.88259 0.84173
 C330 C 0.26215 0.86884 0.82858
 C331 C 0.23878 0.85230 0.84998
 C332 C 0.24626 0.84930 0.88483
 C333 C 0.27654 0.86211 0.89803
 C334 C 0.33083 0.89280 0.89022
 C335 C 0.33831 0.88824 0.92469
 C336 C 0.36876 0.90099 0.93760
 C337 C 0.39115 0.91888 0.91645
 C338 C 0.38303 0.92375 0.88209
 C339 C 0.35306 0.91032 0.86871
 C340 C 0.28469 0.85847 0.93249
 C341 C 0.31516 0.87111 0.94555
 C342 C 0.31510 0.90000 0.82094
 C343 C 0.34495 0.91384 0.83425
 H344 H 0.26746 0.84554 0.94946
 H345 H 0.32058 0.86755 0.97221
 H346 H 0.30992 0.90311 0.79417
 H347 H 0.36193 0.92722 0.81737
 H348 H 0.25735 0.87078 0.80165
 H349 H 0.22840 0.83729 0.90182
 H350 H 0.37480 0.89745 0.96415
 H351 H 0.40030 0.93740 0.86571
 C352 C 0.69709 0.87339 1.12541
 C353 C 0.70451 0.83915 1.11963
 C354 C 0.73334 0.82489 1.13455
 C355 C 0.75535 0.84482 1.15439
 C356 C 0.74765 0.87937 1.15937
 C357 C 0.71832 0.89361 1.14540
 C358 C 0.66642 0.88833 1.11034
 C359 C 0.65843 0.92232 1.11697
 C360 C 0.62899 0.93628 1.10293
 C361 C 0.60807 0.91662 1.08190
 C362 C 0.61661 0.88269 1.07522
 C363 C 0.64559 0.86828 1.08973
 C364 C 0.70969 0.92763 1.15117
 C365 C 0.68009 0.94164 1.13745
 C366 C 0.68288 0.81980 1.09913
 C367 C 0.65404 0.83418 1.08423
 H368 H 0.72577 0.94348 1.16668
 H369 H 0.67410 0.96780 1.14291
 H370 H 0.68837 0.79334 1.09443
 H371 H 0.63812 0.81842 1.06845
 H372 H 0.73829 0.79816 1.13100
 H373 H 0.76450 0.89530 1.17395
 H374 H 0.62262 0.96250 1.10797
 H375 H 0.60046 0.86740 1.05920
 C376 C 0.70117 1.12393 0.87494
 C377 C 0.72230 1.10363 0.85491
 C378 C 0.75229 1.11738 0.84192
 C379 C 0.76073 1.15162 0.84778
 C380 C 0.73881 1.17165 0.86767
 C381 C 0.70934 1.15780 0.88171
 C382 C 0.66978 1.10948 0.88897
 C383 C 0.64904 1.12956 0.90968
 C384 C 0.61942 1.11558 0.92326
 C385 C 0.61017 1.08205 0.91560
 C386 C 0.63098 1.06239 0.89441
 C387 C 0.66104 1.07591 0.88128
 C388 C 0.68777 1.17723 0.90225
 C389 C 0.65826 1.16327 0.91621
 C390 C 0.71286 1.07004 0.84801
 C391 C 0.68257 1.05655 0.86068
 H392 H 0.69382 1.20340 0.90771
 H393 H 0.64242 1.17906 0.93206
 H394 H 0.72884 1.05416 0.83239
 H395 H 0.67593 1.03078 0.85426
 H396 H 0.76903 1.10130 0.82736
 H397 H 0.74428 1.19817 0.87188
 H398 H 0.60336 1.13089 0.93938
 H399 H 0.62407 1.03649 0.88859
 C400 C 0.12280 0.29688 0.11977
 C401 C 0.15752 0.29048 0.11650
 C402 C 0.17106 0.26086 0.13054
 C403 C 0.15008 0.23714 0.14710
 C404 C 0.11507 0.24368 0.14934
 C405 C 0.10141 0.27374 0.13617
 C406 C 0.10866 0.32861 0.10607
 C407 C 0.07412 0.33562 0.11037
 C408 C 0.06098 0.36627 0.09804
 C409 C 0.08205 0.38925 0.08081
 C410 C 0.11645 0.38154 0.07616
 C411 C 0.13001 0.35145 0.08918
 C412 C 0.06685 0.28131 0.13936
 C413 C 0.05350 0.31182 0.12686
 C414 C 0.17811 0.31401 0.09956
 C415 C 0.16454 0.34387 0.08590
 H416 H 0.05003 0.26368 0.15194
 H417 H 0.02682 0.31679 0.13009
 H418 H 0.20495 0.30929 0.09679
 H419 H 0.18128 0.36132 0.07296
 H420 H 0.19809 0.25670 0.12914
 H421 H 0.09840 0.22551 0.16132
 H422 H 0.03438 0.37200 0.10135
 H423 H 0.13276 0.39925 0.06299
 C424 C -0.11964 0.29825 -0.12163
 C425 C -0.09850 0.27548 -0.13882
 C426 C -0.11235 0.24567 -0.15230
 C427 C -0.14733 0.23906 -0.14958
 C428 C -0.16804 0.26243 -0.13223
 C429 C -0.15430 0.29176 -0.11790
 C430 C -0.10532 0.32970 -0.10759
 C431 C -0.12643 0.35217 -0.08993
 C432 C -0.11272 0.38199 -0.07658
 C433 C -0.07841 0.38981 -0.08161
 C434 C -0.05758 0.36721 -0.09962
 C435 C -0.07086 0.33683 -0.11234
 C436 C -0.17465 0.31494 -0.10021
 C437 C -0.16090 0.34452 -0.08625
 C438 C -0.06401 0.28317 -0.14251
 C439 C -0.05046 0.31343 -0.12969
 H440 H -0.20143 0.31015 -0.09710
 H441 H -0.17745 0.36169 -0.07273
 H442 H -0.04740 0.26584 -0.15574
 H443 H -0.02381 0.31854 -0.13338
 H444 H -0.09586 0.22778 -0.16489
 H445 H -0.19504 0.25827 -0.13048
 H446 H -0.12885 0.39943 -0.06285
 H447 H -0.03106 0.37304 -0.10327
 C448 C 0.12179 0.70307 -0.12057
 C449 C 0.11603 0.71112 -0.15470
 C450 C 0.12940 0.74117 -0.16797
 C451 C 0.14774 0.76370 -0.14721
 C452 C 0.15277 0.75533 -0.11279
 C453 C 0.14022 0.72486 -0.09948
 C454 C 0.10838 0.67109 -0.10670
 C455 C 0.11490 0.66255 -0.07278
 C456 C 0.10255 0.63181 -0.05991
 C457 C 0.08322 0.61020 -0.08056
 C458 C 0.07651 0.61938 -0.11434
 C459 C 0.08938 0.64963 -0.12767
 C460 C 0.14582 0.71568 -0.06553
 C461 C 0.13355 0.68496 -0.05246
 C462 C 0.09711 0.68888 -0.17495
 C463 C 0.08381 0.65877 -0.16160
 H464 H 0.16002 0.73227 -0.04898
 H465 H 0.13863 0.67875 -0.02622
 H466 H 0.09243 0.69487 -0.20132
 H467 H 0.06924 0.64239 -0.17804
 H468 H 0.12589 0.74671 -0.19461
 H469 H 0.16626 0.77252 -0.09628
 H470 H 0.10752 0.62496 -0.03379
 H471 H 0.06172 0.60275 -0.13035
 C472 C -0.12472 0.69822 0.12387
 C473 C -0.10442 0.71998 0.14320
 C474 C -0.11870 0.74939 0.15703
 C475 C -0.15344 0.75649 0.15286
 C476 C -0.17340 0.73397 0.13358
 C477 C -0.15907 0.70519 0.11861
 C478 C -0.10978 0.66737 0.10910
 C479 C -0.12991 0.64602 0.08911
 C480 C -0.11550 0.61684 0.07495
 C481 C -0.08152 0.60857 0.08147
 C482 C -0.06179 0.63001 0.10191
 C483 C -0.07573 0.65969 0.11550
 C484 C -0.17850 0.68306 0.09871
 C485 C -0.16410 0.65413 0.08397
 C486 C -0.07032 0.71168 0.14864
 C487 C -0.05634 0.68185 0.13535
 H488 H -0.20505 0.68821 0.09439
 H489 H -0.17993 0.63781 0.06868
 H490 H -0.05440 0.72814 0.16369
 H491 H -0.03018 0.67607 0.14069
 H492 H -0.10263 0.76662 0.17096
 H493 H -0.20025 0.73838 0.13064
 H494 H -0.13084 0.60028 0.05940
 H495 H -0.03554 0.62384 0.10682
 C496 C 1.12178 0.12207 0.70036
 C497 C 1.14506 0.10297 0.71908
 C498 C 1.15843 0.11636 0.74910
 C499 C 1.14951 0.14927 0.76040
 C500 C 1.12596 0.16795 0.74068
 C501 C 1.11191 0.15439 0.71106
 C502 C 1.10763 0.10804 0.66880
 C503 C 1.08405 0.12707 0.65021
 C504 C 1.07066 0.11359 0.62024
 C505 C 1.08113 0.08157 0.60863
 C506 C 1.10492 0.06291 0.62748
 C507 C 1.11812 0.07597 0.65771
 C508 C 1.08838 0.17278 0.69168
 C509 C 1.07455 0.15928 0.66188
 C510 C 1.15467 0.07078 0.70735
 C511 C 1.14164 0.05764 0.67705
 H512 H 1.08052 0.19781 0.69966
 H513 H 1.05644 0.17426 0.64777
 H514 H 1.17271 0.05575 0.72152
 H515 H 1.15012 0.03300 0.66864
 H516 H 1.17498 0.10033 0.76387
 H517 H 1.11933 0.19369 0.74715
 H518 H 1.05243 0.12813 0.60579
 H519 H 1.11297 0.03815 0.61880
 C520 C 0.87757 -0.12263 0.70093
 C521 C 0.84395 -0.11571 0.70965
 C522 C 0.83036 -0.12991 0.73925
 C523 C 0.85026 -0.15057 0.76092
 C524 C 0.88435 -0.15667 0.75145
 C525 C 0.89787 -0.14315 0.72152
 C526 C 0.89178 -0.10815 0.66954
 C527 C 0.92528 -0.11565 0.66048
 C528 C 0.93847 -0.10233 0.63032
 C529 C 0.91856 -0.08117 0.60966
 C530 C 0.88521 -0.07345 0.61937
 C531 C 0.87156 -0.08719 0.64915
 C532 C 0.93146 -0.14968 0.71187
 C533 C 0.94488 -0.13632 0.68177
 C534 C 0.82441 -0.09480 0.68847
 C535 C 0.83804 -0.08063 0.65884
 H536 H 0.94747 -0.16546 0.72759
 H537 H 0.97081 -0.14217 0.67515
 H538 H 0.79838 -0.08922 0.69491
 H539 H 0.82214 -0.06455 0.64331
 H540 H 0.80386 -0.12561 0.74426
 H541 H 0.90115 -0.17088 0.76775
 H542 H 0.96426 -0.10813 0.62309
 H543 H 0.86976 -0.05725 0.60349
 C544 C 1.12679 -0.12619 0.30185
 C545 C 1.11990 -0.15988 0.29327
 C546 C 1.13425 -0.17364 0.26384
 C547 C 1.15494 -0.15382 0.24213
 C548 C 1.16129 -0.11975 0.25164
 C549 C 1.14761 -0.10605 0.28139
 C550 C 1.11181 -0.11165 0.33282
 C551 C 1.11912 -0.07802 0.34163
 C552 C 1.10505 -0.06440 0.37124
 C553 C 1.08334 -0.08401 0.39159
 C554 C 1.07595 -0.11757 0.38221
 C555 C 1.09042 -0.13164 0.35299
 C556 C 1.15411 -0.07238 0.29089
 C557 C 1.14026 -0.05867 0.32060
 C558 C 1.09870 -0.17925 0.31432
 C559 C 1.08406 -0.16532 0.34355
 H560 H 1.17015 -0.05651 0.27530
 H561 H 1.14607 -0.03269 0.32709
 H562 H 1.09316 -0.20535 0.30801
 H563 H 1.06770 -0.18106 0.35893
 H564 H 1.12985 -0.20018 0.25889
 H565 H 1.17564 -0.10300 0.23541
 H566 H 1.11064 -0.03846 0.37820
 H567 H 1.05937 -0.13282 0.39788
 C568 C 0.87333 0.12581 0.30130
 C569 C 0.89277 0.14754 0.28113
 C570 C 0.87858 0.16143 0.25172
 C571 C 0.84467 0.15441 0.24226
 C572 C 0.82558 0.13266 0.26357
 C573 C 0.83985 0.11813 0.29270
 C574 C 0.88838 0.11071 0.33198
 C575 C 0.86908 0.08846 0.35189
 C576 C 0.88361 0.07399 0.38090
 C577 C 0.91693 0.08218 0.39032
 C578 C 0.93586 0.10468 0.37018
 C579 C 0.92179 0.11880 0.34080
 C580 C 0.82121 0.09600 0.31345
 C581 C 0.83563 0.08128 0.34243
 C582 C 0.92626 0.15477 0.29059
 C583 C 0.94046 0.14078 0.32001
 H584 H 0.79529 0.08982 0.30712
 H585 H 0.82043 0.06422 0.35760
 H586 H 0.94158 0.17150 0.27518
 H587 H 0.96631 0.14714 0.32646
 H588 H 0.89486 0.17650 0.23567
 H589 H 0.79922 0.12757 0.25856
 H590 H 0.86887 0.05677 0.39637
 H591 H 0.96161 0.11090 0.37718
 C592 C 0.12062 0.29619 -0.12092
 C593 C 0.11636 0.28938 -0.15551
 C594 C 0.13017 0.25974 -0.16915
 C595 C 0.14746 0.23631 -0.14839
 C596 C 0.15072 0.24328 -0.11345
 C597 C 0.13781 0.27342 -0.09972
 C598 C 0.10719 0.32799 -0.10674
 C599 C 0.11250 0.33547 -0.07239
 C600 C 0.10037 0.36620 -0.05928
 C601 C 0.08239 0.38880 -0.08018
 C602 C 0.07678 0.38062 -0.11437
 C603 C 0.08953 0.35045 -0.12792
 C604 C 0.14206 0.28147 -0.06531
 C605 C 0.12982 0.31207 -0.05192
 C606 C 0.09868 0.31255 -0.17591
 C607 C 0.08526 0.34245 -0.16229
 H608 H 0.15529 0.26414 -0.04865
 H609 H 0.13394 0.31743 -0.02534
 H610 H 0.09515 0.30750 -0.20264
 H611 H 0.07172 0.35961 -0.17888
 H612 H 0.12806 0.25541 -0.19614
 H613 H 0.16331 0.22541 -0.09690
 H614 H 0.10446 0.37230 -0.03283
 H615 H 0.06304 0.39802 -0.13056
 C616 C -0.12406 0.30116 0.12343
 C617 C -0.15801 0.29329 0.11696
 C618 C -0.17199 0.26394 0.13121
 C619 C -0.15200 0.24180 0.15095
 C620 C -0.11772 0.24998 0.15659
 C621 C -0.10384 0.27987 0.14341
 C622 C -0.10944 0.33237 0.10908
 C623 C -0.07577 0.34081 0.11646
 C624 C -0.06207 0.37068 0.10304
 C625 C -0.08163 0.39160 0.08183
 C626 C -0.11525 0.38265 0.07444
 C627 C -0.12943 0.35322 0.08836
 C628 C -0.07016 0.28901 0.14998
 C629 C -0.05649 0.31914 0.13703
 C630 C -0.17736 0.31499 0.09644
 C631 C -0.16323 0.34431 0.08216
 H632 H -0.05432 0.27290 0.16555
 H633 H -0.03063 0.32554 0.14316
 H634 H -0.20359 0.30916 0.09121
 H635 H -0.17896 0.36025 0.06631
 H636 H -0.19854 0.25868 0.12718
 H637 H -0.10169 0.23308 0.17105
 H638 H -0.03610 0.37737 0.10863
 H639 H -0.13047 0.39880 0.05830
 C640 C -0.11935 0.70193 -0.12211
 C641 C -0.15242 0.71132 -0.11356
 C642 C -0.16611 0.74109 -0.12718
 C643 C -0.14694 0.76219 -0.14905
 C644 C -0.11336 0.75215 -0.15678
 C645 C -0.09968 0.72207 -0.14369
 C646 C -0.10512 0.67027 -0.10831
 C647 C -0.07218 0.66053 -0.11731
 C648 C -0.05897 0.63014 -0.10445
 C649 C -0.07834 0.60995 -0.08235
 C650 C -0.11116 0.62030 -0.07332
 C651 C -0.12479 0.65030 -0.08645
 C652 C -0.06664 0.71172 -0.15179
 C653 C -0.05317 0.68141 -0.13894
 C654 C -0.17139 0.69057 -0.09175
 C655 C -0.15775 0.66066 -0.07829
 H656 H -0.05111 0.72707 -0.16839
 H657 H -0.02768 0.67428 -0.14599
 H658 H -0.19699 0.69754 -0.08495
 H659 H -0.17320 0.64544 -0.06149
 H660 H -0.19230 0.74663 -0.12164
 H661 H -0.09713 0.76803 -0.17211
 H662 H -0.03358 0.62241 -0.11130
 H663 H -0.12623 0.60482 -0.05639
 C664 C 0.12308 0.70226 0.12003
 C665 C 0.10179 0.72481 0.13733
 C666 C 0.11535 0.75479 0.15066
 C667 C 0.15021 0.76180 0.14776
 C668 C 0.17111 0.73864 0.13033
 C669 C 0.15762 0.70913 0.11607
 C670 C 0.10901 0.67062 0.10613
 C671 C 0.13022 0.64836 0.08833
 C672 C 0.11671 0.61834 0.07516
 C673 C 0.08252 0.61014 0.08054
 C674 C 0.06163 0.63257 0.09866
 C675 C 0.07470 0.66311 0.11118
 C676 C 0.17809 0.68617 0.09823
 C677 C 0.16457 0.65642 0.08436
 C678 C 0.06744 0.71673 0.14129
 C679 C 0.05421 0.68629 0.12865
 H680 H 0.20480 0.69126 0.09492
 H681 H 0.18120 0.63943 0.07073
 H682 H 0.05071 0.73388 0.15462
 H683 H 0.02773 0.68085 0.13258
 H684 H 0.09869 0.77252 0.16326
 H685 H 0.19805 0.74311 0.12841
 H686 H 0.13290 0.60106 0.06132
 H687 H 0.03520 0.62649 0.10258
 C688 C 0.30223 1.12378 0.87254
 C689 C 0.27912 1.10244 0.85618
 C690 C 0.24901 1.11614 0.84340
 C691 C 0.24224 1.15115 0.84602
 C692 C 0.26617 1.17222 0.86206
 C693 C 0.29592 1.15859 0.87579
 C694 C 0.33361 1.10937 0.88666
 C695 C 0.35625 1.13056 0.90395
 C696 C 0.38574 1.11662 0.91788
 C697 C 0.39300 1.08199 0.91379
 C698 C 0.37033 1.06117 0.89594
 C699 C 0.34030 1.07467 0.88272
 C700 C 0.31943 1.17907 0.89283
 C701 C 0.34896 1.16525 0.90690
 C702 C 0.28651 1.06777 0.85303
 C703 C 0.31670 1.05416 0.86586
 H704 H 0.31483 1.20597 0.89557
 H705 H 0.36629 1.18187 0.92007
 H706 H 0.26888 1.05104 0.84040
 H707 H 0.32149 1.02733 0.86276
 H708 H 0.23071 1.09939 0.83181
 H709 H 0.26189 1.19925 0.86374
 H710 H 0.40325 1.13274 0.93147
 H711 H 0.37573 1.03442 0.89300
 C712 C 0.29982 0.87789 1.12114
 C713 C 0.29267 0.84343 1.11652
 C714 C 0.26339 0.82974 1.13102
 C715 C 0.24073 0.85038 1.14938
 C716 C 0.24818 0.88510 1.15327
 C717 C 0.27788 0.89887 1.13956
 C718 C 0.33103 0.89222 1.10658
 C719 C 0.33874 0.92648 1.11204
 C720 C 0.36884 0.93979 1.09876
 C721 C 0.39064 0.91919 1.07955
 C722 C 0.38223 0.88508 1.07380
 C723 C 0.35265 0.87133 1.08765
 C724 C 0.28617 0.93317 1.14402
 C725 C 0.31619 0.94668 1.13066
 C726 C 0.31502 0.82327 1.09759
 C727 C 0.34439 0.83704 1.08320
 H728 H 0.26947 0.94966 1.15818
 H729 H 0.32175 0.97315 1.13490
 H730 H 0.30971 0.79664 1.09378
 H731 H 0.36090 0.82065 1.06869
 H732 H 0.25857 0.80287 1.12838
 H733 H 0.23085 0.90148 1.16679
 H734 H 0.37509 0.96617 1.10299
 H735 H 0.39903 0.86912 1.05912
 C736 C 0.70173 1.12244 1.11905
 C737 C 0.70794 1.15726 1.11606
 C738 C 0.73713 1.17092 1.13069
 C739 C 0.76062 1.14995 1.14762
 C740 C 0.75427 1.11484 1.14961
 C741 C 0.72463 1.10106 1.13581
 C742 C 0.67044 1.10816 1.10469
 C743 C 0.66360 1.07351 1.10871
 C744 C 0.63334 1.06025 1.09581
 C745 C 0.61057 1.08130 1.07828
 C746 C 0.61812 1.11581 1.07386
 C747 C 0.64782 1.12950 1.08746
 C748 C 0.71724 1.06638 1.13872
 C749 C 0.68715 1.05289 1.12558
 C750 C 0.68464 1.17785 1.09877
 C751 C 0.65521 1.16415 1.08450
 H752 H 0.73469 1.04957 1.15158
 H753 H 0.68229 1.02611 1.12863
 H754 H 0.68922 1.20477 1.09622
 H755 H 0.63793 1.18089 1.07133
 H756 H 0.74114 1.19802 1.12948
 H757 H 0.77226 1.09819 1.16187
 H758 H 0.62772 1.03357 1.09898
 H759 H 0.60054 1.13210 1.06049
 C760 C 0.70491 0.87849 0.88142
 C761 C 0.72839 0.90032 0.86612
 C762 C 0.75849 0.88691 0.85292
 C763 C 0.76479 0.85175 0.85408
 C764 C 0.74079 0.83032 0.86963
 C765 C 0.71105 0.84358 0.88362
 C766 C 0.67308 0.89238 0.89501
 C767 C 0.64982 0.87058 0.91074
 C768 C 0.61957 0.88391 0.92356
 C769 C 0.61214 0.91854 0.91977
 C770 C 0.63559 0.94005 0.90379
 C771 C 0.66637 0.92714 0.89174
 C772 C 0.68714 0.82254 0.89945
 C773 C 0.65715 0.83585 0.91299
 C774 C 0.72112 0.93509 0.86402
 C775 C 0.69056 0.94822 0.87646
 H776 H 0.69165 0.79555 0.90139
 H777 H 0.63940 0.81876 0.92502
 H778 H 0.73903 0.95225 0.85234
 H779 H 0.68584 0.97509 0.87414
 H780 H 0.77688 0.90388 0.84174
 H781 H 0.74485 0.80320 0.87024
 H782 H 0.60147 0.86729 0.93577
 H783 H 0.63007 0.96681 0.90115
   
