data_POSCAR
  _audit_creation_date              2014-09-24
  _audit_creation_method            'ToBaCCo'
  _symmetry_space_group_name_H-M    'P1'
  _symmetry_Int_Tables_number       1
  _symmetry_cell_setting            triclinic
  loop_
  _symmetry_equiv_pos_as_xyz
 x,y,z
_cell_length_a 48.3523
_cell_length_b 50.0065
_cell_length_c 50.3994
_cell_angle_alpha 93.649600
_cell_angle_beta 98.575200
_cell_angle_gamma 88.505100
loop_
  _atom_site_label
  _atom_site_type_symbol
  _atom_site_fract_x
  _atom_site_fract_y
  _atom_site_fract_z
N1 N 0.32841 0.23937 0.22436
 N2 N 0.31562 0.26047 0.21360
 C3 C 0.32506 0.26407 0.19017
 C4 C 0.34439 0.24377 0.18600
 C5 C 0.34589 0.22858 0.20815
 H6 H 0.31815 0.28000 0.17707
 H7 H 0.35912 0.21115 0.21245
 Cu8 Cu 0.28792 0.28110 0.23154
 Cu9 Cu 0.32209 0.22778 0.25886
 Cu10 Cu 0.26408 0.24886 0.28277
 N11 N 0.25494 0.29395 0.24820
 N12 N 0.24614 0.28141 0.26760
 C13 C 0.22491 0.29554 0.27628
 C14 C 0.21987 0.31808 0.26176
 C15 C 0.23910 0.31637 0.24385
 H16 H 0.21424 0.29023 0.29252
 H17 H 0.24215 0.33097 0.22967
 N18 N 0.28482 0.21708 0.29535
 N19 N 0.30795 0.20906 0.28637
 C20 C 0.31820 0.18718 0.29892
 C21 C 0.30051 0.18110 0.31690
 C22 C 0.27952 0.20060 0.31402
 H23 H 0.33697 0.17641 0.29496
 H24 H 0.26189 0.20293 0.32490
 H25 H 0.27574 0.24614 0.24447
 H26 H 0.29629 0.26875 0.27050
 N27 N 0.70354 -0.25451 0.22810
 N28 N 0.71399 -0.27743 0.21954
 C29 C 0.70107 -0.28425 0.19467
 C30 C 0.68115 -0.26462 0.18692
 C31 C 0.68334 -0.24603 0.20889
 H32 H 0.70590 -0.30232 0.18326
 H33 H 0.67181 -0.22734 0.21061
 Cu34 Cu 0.74405 -0.29632 0.24113
 Cu35 Cu 0.71892 -0.23669 0.26271
 Cu36 Cu 0.75838 -0.27866 0.30635
 N37 N 0.77642 -0.31146 0.26333
 N38 N 0.78173 -0.30445 0.28908
 C39 C 0.80491 -0.31738 0.30003
 C40 C 0.81507 -0.33350 0.28001
 C41 C 0.79615 -0.32926 0.25692
 H42 H 0.81355 -0.31488 0.32105
 H43 H 0.79688 -0.33794 0.23684
 N44 N 0.74378 -0.24363 0.31799
 N45 N 0.72984 -0.22683 0.30151
 C46 C 0.72701 -0.20307 0.31527
 C47 C 0.74026 -0.20510 0.34149
 C48 C 0.75027 -0.23119 0.34242
 H49 H 0.71770 -0.18517 0.30648
 H50 H 0.76292 -0.24011 0.35921
 H51 H 0.75636 -0.25809 0.27258
 H52 H 0.72271 -0.27308 0.27752
 N53 N 0.72058 0.23189 0.80670
 N54 N 0.72748 0.25512 0.81927
 C55 C 0.70928 0.26158 0.83662
 C56 C 0.68992 0.24123 0.83477
 C57 C 0.69795 0.22276 0.81556
 H58 H 0.71001 0.27975 0.84951
 H59 H 0.68837 0.20381 0.80865
 Cu60 Cu 0.75989 0.27445 0.81201
 Cu61 Cu 0.74171 0.21434 0.78045
 Cu62 Cu 0.78978 0.25360 0.75774
 N63 N 0.78727 0.29605 0.79847
 N64 N 0.79828 0.28779 0.77705
 C65 C 0.81613 0.30616 0.77177
 C66 C 0.81659 0.32742 0.79090
 C67 C 0.79787 0.32017 0.80762
 H68 H 0.82802 0.30386 0.75525
 H69 H 0.79216 0.33155 0.82500
 N70 N 0.77877 0.21834 0.74077
 N71 N 0.76015 0.20335 0.74911
 C72 C 0.75693 0.18064 0.73309
 C73 C 0.77478 0.18132 0.71406
 C74 C 0.78825 0.20549 0.71958
 H75 H 0.74297 0.16464 0.73531
 H76 H 0.80362 0.21323 0.70868
 H77 H 0.77926 0.23465 0.78958
 H78 H 0.74975 0.25107 0.76789
 N79 N 0.26005 -0.23320 0.74551
 N80 N 0.24334 -0.24925 0.75528
 C81 C 0.25492 -0.25518 0.78014
 C82 C 0.28027 -0.24234 0.78658
 C83 C 0.28276 -0.22836 0.76412
 H84 H 0.24573 -0.26848 0.79233
 H85 H 0.30013 -0.21626 0.76120
 Cu86 Cu 0.20900 -0.26455 0.73458
 Cu87 Cu 0.25117 -0.22048 0.70882
 Cu88 Cu 0.19689 -0.25054 0.67012
 N89 N 0.18354 -0.28565 0.70834
 N90 N 0.17888 -0.28031 0.68291
 C91 C 0.15956 -0.29712 0.66965
 C92 C 0.15143 -0.31403 0.68786
 C93 C 0.16731 -0.30603 0.71229
 H94 H 0.15168 -0.29643 0.64849
 H95 H 0.16689 -0.31385 0.73171
 N96 N 0.20885 -0.21534 0.66308
 N97 N 0.23062 -0.20365 0.67750
 C98 C 0.23448 -0.17999 0.66723
 C99 C 0.21360 -0.17663 0.64553
 C100 C 0.19783 -0.19951 0.64356
 H101 H 0.25086 -0.16611 0.67525
 H102 H 0.17988 -0.20457 0.62873
 H103 H 0.21275 -0.22976 0.71474
 H104 H 0.23474 -0.25947 0.70654
 N105 N 0.66967 -0.23598 0.77378
 N106 N 0.67778 -0.26091 0.77733
 C107 C 0.66531 -0.27047 0.79670
 C108 C 0.64858 -0.25033 0.80630
 C109 C 0.65166 -0.22869 0.79107
 H110 H 0.66930 -0.29024 0.80405
 H111 H 0.64276 -0.20876 0.79336
 Cu112 Cu 0.70733 -0.27725 0.75995
 Cu113 Cu 0.68589 -0.21478 0.74890
 Cu114 Cu 0.73090 -0.24903 0.70968
 N115 N 0.74366 -0.28646 0.75040
 N116 N 0.75254 -0.27720 0.72943
 C117 C 0.77733 -0.28922 0.72639
 C118 C 0.78464 -0.30615 0.74735
 C119 C 0.76264 -0.30366 0.76208
 H120 H 0.78947 -0.28520 0.71076
 H121 H 0.75978 -0.31444 0.77937
 N122 N 0.71405 -0.21343 0.70150
 N123 N 0.69742 -0.20045 0.71668
 C124 C 0.68905 -0.17718 0.70586
 C125 C 0.70101 -0.17519 0.68279
 C126 C 0.71686 -0.19854 0.68071
 H127 H 0.67515 -0.16279 0.71420
 H128 H 0.72919 -0.20449 0.66503
 H129 H 0.69173 -0.24772 0.72369
 H130 H 0.72351 -0.23541 0.74623
 N131 N 0.25542 0.21716 0.79025
 N132 N 0.25023 0.24117 0.80061
 C133 C 0.27109 0.24788 0.82059
 C134 C 0.29063 0.22698 0.82256
 C135 C 0.27973 0.20775 0.80304
 H136 H 0.27245 0.26703 0.83190
 H137 H 0.28915 0.18874 0.79761
 Cu138 Cu 0.21739 0.26184 0.78600
 Cu139 Cu 0.23208 0.20206 0.75866
 Cu140 Cu 0.19030 0.24315 0.71957
 N141 N 0.19022 0.28390 0.76362
 N142 N 0.17933 0.27696 0.73857
 C143 C 0.16167 0.29675 0.72920
 C144 C 0.16202 0.31713 0.74923
 C145 C 0.18028 0.30821 0.77067
 H146 H 0.15011 0.29675 0.70911
 H147 H 0.18602 0.31877 0.79003
 N148 N 0.20426 0.20867 0.70535
 N149 N 0.21966 0.19240 0.72123
 C150 C 0.22941 0.17207 0.70642
 C151 C 0.21988 0.17562 0.67968
 C152 C 0.20365 0.19894 0.67961
 H153 H 0.24444 0.15712 0.71435
 H154 H 0.19435 0.20925 0.66216
 H155 H 0.22493 0.24854 0.74845
 H156 H 0.19325 0.23454 0.75909
 N157 N 0.30643 -0.25378 0.20439
 N158 N 0.29547 -0.27692 0.19527
 C159 C 0.30488 -0.28483 0.17222
 C160 C 0.32281 -0.26557 0.16641
 C161 C 0.32337 -0.24617 0.18743
 H162 H 0.29858 -0.30303 0.16040
 H163 H 0.33458 -0.22755 0.18985
 Cu164 Cu 0.26817 -0.29346 0.21299
 Cu165 Cu 0.29688 -0.23520 0.23708
 Cu166 Cu 0.24484 -0.26332 0.26685
 N167 N 0.23279 -0.30273 0.22307
 N168 N 0.22356 -0.29146 0.24442
 C169 C 0.19906 -0.30269 0.24694
 C170 C 0.19254 -0.32158 0.22565
 C171 C 0.21445 -0.32098 0.21100
 H172 H 0.18685 -0.29737 0.26287
 H173 H 0.21722 -0.33334 0.19316
 N174 N 0.26437 -0.23003 0.28159
 N175 N 0.28431 -0.21973 0.27029
 C176 C 0.29438 -0.19798 0.28529
 C177 C 0.28010 -0.19415 0.30703
 C178 C 0.26102 -0.21473 0.30398
 H179 H 0.31093 -0.18572 0.28072
 H180 H 0.24631 -0.21862 0.31740
 H181 H 0.28430 -0.26756 0.25521
 H182 H 0.25650 -0.24996 0.23282
 N183 N 0.74081 0.21752 0.23986
 N184 N 0.74966 0.23917 0.23024
 C185 C 0.73246 0.24462 0.20753
 C186 C 0.71189 0.22539 0.20260
 C187 C 0.71789 0.20864 0.22359
 H188 H 0.73506 0.26101 0.19519
 H189 H 0.70639 0.19121 0.22684
 Cu190 Cu 0.78353 0.25829 0.24755
 Cu191 Cu 0.75981 0.20149 0.27251
 Cu192 Cu 0.82190 0.22743 0.29855
 N193 N 0.81753 0.27389 0.26776
 N194 N 0.83225 0.26187 0.28778
 C195 C 0.85429 0.27699 0.29812
 C196 C 0.85355 0.29980 0.28380
 C197 C 0.82990 0.29709 0.26458
 H198 H 0.86988 0.27153 0.31465
 H199 H 0.82212 0.31099 0.24953
 N200 N 0.80594 0.19873 0.31520
 N201 N 0.78157 0.18865 0.30502
 C202 C 0.77553 0.16917 0.32038
 C203 C 0.79735 0.16686 0.34139
 C204 C 0.81628 0.18604 0.33739
 H205 H 0.75675 0.15743 0.31637
 H206 H 0.83597 0.19072 0.34980
 H207 H 0.77432 0.24032 0.28080
 H208 H 0.79142 0.21882 0.25594
 C209 C 0.26984 0.08601 0.50168
 C210 C 0.27755 0.08362 0.47650
 C211 C 0.26954 0.05835 0.46563
 N212 N 0.25685 0.04542 0.48313
 C213 C 0.25739 0.06212 0.50536
 C214 C 0.27364 0.04784 0.43980
 C215 C 0.26884 0.02080 0.43062
 C216 C 0.26796 0.01109 0.40411
 C217 C 0.26581 -0.01628 0.40384
 C218 C 0.26531 -0.02254 0.43017
 N219 N 0.26714 0.00017 0.44636
 C220 C 0.26539 -0.04891 0.43877
 C221 C 0.25799 -0.05505 0.46373
 C222 C 0.25896 -0.08045 0.47336
 C223 C 0.24901 -0.07787 0.49753
 C224 C 0.24272 -0.05090 0.50206
 N225 N 0.24786 -0.03709 0.48119
 C226 C 0.23132 -0.03973 0.52462
 C227 C 0.22858 -0.01185 0.53083
 C228 C 0.21521 -0.00066 0.55149
 C229 C 0.21954 0.02649 0.55280
 C230 C 0.23516 0.03128 0.53268
 N231 N 0.24069 0.00778 0.51953
 C232 C 0.24623 0.05641 0.52874
 H233 H 0.27305 0.10339 0.51564
 H234 H 0.28805 0.09868 0.46737
 H235 H 0.25502 0.00497 0.50620
 H236 H 0.26930 0.02249 0.38681
 H237 H 0.26511 -0.03006 0.38631
 H238 H 0.26591 -0.09896 0.46393
 H239 H 0.24680 -0.09402 0.51034
 H240 H 0.21241 0.04091 0.56732
 H241 H 0.27104 0.00110 0.46720
 H242 H 0.20422 -0.01103 0.56487
 C243 C 0.76143 0.08056 0.50477
 C244 C 0.75842 0.08246 0.53145
 C245 C 0.75578 0.05652 0.53884
 N246 N 0.75713 0.03886 0.51762
 C247 C 0.76061 0.05352 0.49677
 C248 C 0.75496 0.04941 0.56539
 C249 C 0.74789 0.02357 0.57184
 C250 C 0.75097 0.01477 0.59770
 C251 C 0.74098 -0.01087 0.59559
 C252 C 0.73241 -0.01719 0.56848
 N253 N 0.73634 0.00401 0.55415
 C254 C 0.72086 -0.04196 0.55785
 C255 C 0.72012 -0.05121 0.53070
 C256 C 0.70889 -0.07533 0.51957
 C257 C 0.71524 -0.07819 0.49389
 C258 C 0.72967 -0.05551 0.49005
 N259 N 0.73276 -0.03911 0.51260
 C260 C 0.74220 -0.05168 0.46706
 C261 C 0.75321 -0.02705 0.46154
 C262 C 0.76889 -0.02384 0.44107
 C263 C 0.77535 0.00285 0.44210
 C264 C 0.76367 0.01518 0.46333
 N265 N 0.74971 -0.00305 0.47471
 C266 C 0.76602 0.04269 0.47147
 H267 H 0.76459 0.09714 0.49280
 H268 H 0.75863 0.10079 0.54411
 H269 H 0.73682 0.00107 0.48926
 H270 H 0.75956 0.02561 0.61623
 H271 H 0.74053 -0.02357 0.61211
 H272 H 0.69797 -0.08972 0.52917
 H273 H 0.71016 -0.09519 0.47977
 H274 H 0.78765 0.01203 0.42899
 H275 H 0.72915 0.00581 0.53385
 H276 H 0.77510 -0.03915 0.42686
 C277 C 0.53210 0.26140 0.08885
 C278 C 0.50358 0.26264 0.08755
 C279 C 0.49252 0.25954 0.06056
 N280 N 0.51333 0.25661 0.04534
 C281 C 0.53756 0.25764 0.06262
 C282 C 0.46395 0.25536 0.05084
 C283 C 0.45305 0.25308 0.02319
 C284 C 0.42734 0.24216 0.01279
 C285 C 0.42495 0.24241 -0.01468
 C286 C 0.44911 0.25380 -0.02035
 N287 N 0.46593 0.26072 0.00290
 C288 C 0.45500 0.25743 -0.04653
 C289 C 0.48166 0.26420 -0.05192
 C290 C 0.48714 0.27174 -0.07658
 C291 C 0.51568 0.27186 -0.07512
 C292 C 0.52666 0.26424 -0.04966
 N293 N 0.50583 0.25978 -0.03543
 C294 C 0.55505 0.25740 -0.04155
 C295 C 0.56607 0.25256 -0.01464
 C296 C 0.59165 0.24011 -0.00666
 C297 C 0.59418 0.23836 0.02072
 C298 C 0.57005 0.24973 0.02874
 N299 N 0.55329 0.25889 0.00715
 C300 C 0.56422 0.25129 0.05548
 H301 H 0.54712 0.26210 0.10709
 H302 H 0.49225 0.26445 0.10456
 H303 H 0.53495 0.27017 0.00751
 H304 H 0.41214 0.23418 0.02378
 H305 H 0.40751 0.23467 -0.02880
 H306 H 0.47210 0.27571 -0.09411
 H307 H 0.52706 0.27593 -0.09132
 H308 H 0.61163 0.22929 0.03320
 H309 H 0.48435 0.27144 0.00486
 H310 H 0.60672 0.23254 -0.01926
 C311 C 0.47784 0.75262 0.06549
 C312 C 0.50644 0.75333 0.06735
 C313 C 0.51204 0.76656 0.04545
 N314 N 0.48793 0.77432 0.03056
 C315 C 0.46699 0.76550 0.04255
 C316 C 0.53896 0.77101 0.03913
 C317 C 0.54322 0.78003 0.01407
 C318 C 0.56834 0.78945 0.00856
 C319 C 0.56564 0.79098 -0.01887
 C320 C 0.53892 0.78249 -0.02932
 N321 N 0.52528 0.77626 -0.00908
 C322 C 0.52962 0.77610 -0.05686
 C323 C 0.50107 0.77308 -0.06746
 C324 C 0.49088 0.76270 -0.09312
 C325 C 0.46225 0.76258 -0.09493
 C326 C 0.45598 0.77280 -0.07028
 N327 N 0.47968 0.77960 -0.05369
 C328 C 0.42888 0.77533 -0.06308
 C329 C 0.42426 0.78095 -0.03624
 C330 C 0.39873 0.78884 -0.02865
 C331 C 0.40141 0.78698 -0.00126
 C332 C 0.42849 0.77799 0.00708
 N333 N 0.44239 0.77478 -0.01429
 C334 C 0.43827 0.76890 0.03283
 H335 H 0.46642 0.74315 0.07913
 H336 H 0.52132 0.74454 0.08270
 H337 H 0.46119 0.76432 -0.01455
 H338 H 0.58714 0.79339 0.02271
 H339 H 0.58196 0.79629 -0.03003
 H340 H 0.50278 0.75539 -0.10873
 H341 H 0.44783 0.75516 -0.11217
 H342 H 0.38491 0.79050 0.01096
 H343 H 0.50702 0.76533 -0.01142
 H344 H 0.37975 0.79404 -0.04170
 C345 C 0.09875 0.51469 0.24252
 C346 C 0.10304 0.48825 0.24813
 C347 C 0.07681 0.47754 0.24763
 N348 N 0.05673 0.49647 0.24188
 C349 C 0.07007 0.51932 0.23921
 C350 C 0.07170 0.45059 0.25193
 C351 C 0.04467 0.44052 0.25191
 C352 C 0.03826 0.41354 0.24971
 C353 C 0.01077 0.41193 0.25349
 C354 C 0.00124 0.43797 0.25817
 N355 N 0.02203 0.45524 0.25703
 C356 C -0.02500 0.44483 0.26617
 C357 C -0.03583 0.47131 0.26769
 C358 C -0.05918 0.47913 0.27937
 C359 C -0.06227 0.50631 0.27725
 C360 C -0.04080 0.51415 0.26419
 N361 N -0.02495 0.49265 0.25799
 C362 C -0.03652 0.54070 0.25779
 C363 C -0.01371 0.54840 0.24560
 C364 C -0.01211 0.57249 0.23379
 C365 C 0.01422 0.57333 0.22661
 C366 C 0.02812 0.54987 0.23454
 N367 N 0.01089 0.53483 0.24606
 C368 C 0.05674 0.54416 0.23321
 H369 H 0.11493 0.52895 0.24136
 H370 H 0.12314 0.47808 0.25198
 H371 H 0.01670 0.51817 0.25690
 H372 H 0.05214 0.39676 0.24629
 H373 H -0.00061 0.39361 0.25367
 H374 H -0.07238 0.46664 0.28880
 H375 H -0.07846 0.51886 0.28453
 H376 H 0.02246 0.58976 0.21737
 H377 H 0.02219 0.47533 0.26350
 H378 H -0.02809 0.58803 0.23103
 C379 C 0.05181 0.48965 0.70261
 C380 C 0.04873 0.51540 0.69461
 C381 C 0.02589 0.52650 0.70522
 N382 N 0.01489 0.50842 0.71935
 C383 C 0.03069 0.48586 0.71775
 C384 C 0.01751 0.55370 0.70424
 C385 C -0.00623 0.56436 0.71473
 C386 C -0.01100 0.59140 0.72068
 C387 C -0.03613 0.59346 0.73038
 C388 C -0.04619 0.56767 0.72973
 N389 N -0.02797 0.55008 0.71988
 C390 C -0.07202 0.56108 0.73734
 C391 C -0.07972 0.53453 0.74035
 C392 C -0.10651 0.52683 0.74276
 C393 C -0.10466 0.50030 0.74832
 C394 C -0.07673 0.49277 0.74937
 N395 N -0.06154 0.51370 0.74439
 C396 C -0.06529 0.46776 0.75738
 C397 C -0.03725 0.45995 0.75575
 C398 C -0.02304 0.43931 0.76937
 C399 C 0.00341 0.43806 0.76236
 C400 C 0.00458 0.45784 0.74447
 N401 N -0.02042 0.47090 0.74034
 C402 C 0.02819 0.46290 0.73210
 H403 H 0.06812 0.47550 0.69830
 H404 H 0.06227 0.52509 0.68302
 H405 H -0.02648 0.48488 0.72609
 H406 H 0.00237 0.60792 0.71857
 H407 H -0.04582 0.61190 0.73714
 H408 H -0.12533 0.53918 0.74109
 H409 H -0.12182 0.48814 0.75176
 H410 H 0.01992 0.42421 0.76973
 H411 H -0.03128 0.52983 0.71475
 H412 H -0.03079 0.42670 0.78322
 C413 C 0.38570 0.25461 0.12937
 C414 C 0.39544 0.22891 0.12468
 C415 C 0.38831 0.20737 0.13819
 C416 C 0.37077 0.21252 0.15772
 C417 C 0.36074 0.23889 0.16348
 C418 C 0.36795 0.26019 0.14868
 O419 O 0.39586 0.27224 0.11481
 C420 C 0.41238 0.25730 0.10073
 C421 C 0.41281 0.23065 0.10611
 C422 C 0.42929 0.21147 0.09439
 C423 C 0.44602 0.22007 0.07628
 C424 C 0.44590 0.24735 0.07024
 C425 C 0.42882 0.26630 0.08256
 H426 H 0.39631 0.18734 0.13413
 H427 H 0.36520 0.19589 0.16848
 H428 H 0.36092 0.28056 0.15279
 H429 H 0.42940 0.19066 0.09917
 H430 H 0.45912 0.20558 0.06687
 H431 H 0.42861 0.28726 0.07831
 C432 C 0.62461 0.75584 0.13281
 C433 C 0.62898 0.73719 0.11259
 C434 C 0.64976 0.71754 0.11565
 C435 C 0.66694 0.71706 0.14058
 C436 C 0.66337 0.73622 0.16205
 C437 C 0.64169 0.75598 0.15781
 O438 O 0.60309 0.77232 0.12579
 C439 C 0.59382 0.76386 0.10056
 C440 C 0.60910 0.74247 0.09156
 C441 C 0.60312 0.73024 0.06587
 C442 C 0.58025 0.74029 0.04877
 C443 C 0.56387 0.76209 0.05758
 C444 C 0.57081 0.77416 0.08385
 H445 H 0.65261 0.70297 0.09942
 H446 H 0.68320 0.70180 0.14264
 H447 H 0.63775 0.77078 0.17346
 H448 H 0.61551 0.71345 0.05930
 H449 H 0.57494 0.73090 0.02875
 H450 H 0.55850 0.79073 0.09101
 C451 C 0.64044 0.25331 -0.11355
 C452 C 0.62151 0.23337 -0.12188
 C453 C 0.62338 0.21587 -0.14405
 C454 C 0.64580 0.21887 -0.15824
 C455 C 0.66600 0.23909 -0.15009
 C456 C 0.66305 0.25667 -0.12738
 O457 O 0.63464 0.26778 -0.09191
 C458 C 0.61157 0.25665 -0.08654
 C459 C 0.60277 0.23548 -0.10431
 C460 C 0.57926 0.22072 -0.10251
 C461 C 0.56403 0.22814 -0.08158
 C462 C 0.57233 0.25008 -0.06311
 C463 C 0.59659 0.26448 -0.06551
 H464 H 0.60809 0.20041 -0.15026
 H465 H 0.64715 0.20539 -0.17564
 H466 H 0.67798 0.27225 -0.12043
 H467 H 0.57288 0.20407 -0.11670
 H468 H 0.54564 0.21689 -0.07972
 H469 H 0.60338 0.28122 -0.05159
 C470 C 0.34122 0.77015 -0.15744
 C471 C 0.33779 0.74953 -0.14152
 C472 C 0.31656 0.73107 -0.14787
 C473 C 0.29792 0.73396 -0.17161
 C474 C 0.30066 0.75513 -0.18854
 C475 C 0.32285 0.77343 -0.18130
 O476 O 0.36289 0.78545 -0.14751
 C477 C 0.37327 0.77416 -0.12486
 C478 C 0.35859 0.75211 -0.12036
 C479 C 0.36560 0.73714 -0.09798
 C480 C 0.38877 0.74519 -0.07937
 C481 C 0.40433 0.76786 -0.08339
 C482 C 0.39651 0.78258 -0.10651
 H483 H 0.31443 0.71494 -0.13501
 H484 H 0.28157 0.71940 -0.17674
 H485 H 0.32558 0.78984 -0.19361
 H486 H 0.35368 0.71985 -0.09496
 H487 H 0.39476 0.73375 -0.06182
 H488 H 0.40812 0.79992 -0.10999
 C489 C 0.16586 0.37420 0.25151
 C490 C 0.15999 0.37849 0.27734
 C491 C 0.17337 0.36461 0.29871
 C492 C 0.19345 0.34520 0.29325
 C493 C 0.19986 0.34002 0.26678
 C494 C 0.18615 0.35510 0.24564
 O495 O 0.14974 0.38890 0.23404
 C496 C 0.13341 0.40268 0.24925
 C497 C 0.13896 0.39699 0.27590
 C498 C 0.12389 0.40828 0.29533
 C499 C 0.10206 0.42618 0.28698
 C500 C 0.09579 0.43238 0.25969
 C501 C 0.11173 0.42060 0.24049
 H502 H 0.16823 0.36829 0.31881
 H503 H 0.20395 0.33414 0.30972
 H504 H 0.19035 0.35138 0.22522
 H505 H 0.12854 0.40323 0.31611
 H506 H 0.08978 0.43509 0.30166
 H507 H 0.10700 0.42486 0.21949
 C508 C 0.10384 0.63178 0.69886
 C509 C 0.08882 0.62796 0.67359
 C510 C 0.09385 0.64224 0.65210
 C511 C 0.11511 0.66133 0.65688
 C512 C 0.13084 0.66603 0.68296
 C513 C 0.12500 0.65059 0.70412
 O514 O 0.09550 0.61659 0.71670
 C515 C 0.07467 0.60292 0.70239
 C516 C 0.06967 0.60911 0.67586
 C517 C 0.04823 0.59759 0.65751
 C518 C 0.03121 0.57906 0.66697
 C519 C 0.03607 0.57253 0.69422
 C520 C 0.05818 0.58448 0.71213
 H521 H 0.08169 0.63897 0.63237
 H522 H 0.11880 0.67252 0.64014
 H523 H 0.13619 0.65310 0.72431
 H524 H 0.04456 0.60287 0.63677
 H525 H 0.01420 0.56992 0.65327
 H526 H 0.06201 0.57987 0.73308
 C527 C -0.12961 0.61705 0.26444
 C528 C -0.11218 0.61825 0.28862
 C529 C -0.11762 0.63464 0.31055
 C530 C -0.14203 0.65055 0.30751
 C531 C -0.16058 0.65009 0.28268
 C532 C -0.15396 0.63291 0.26082
 O533 O -0.12076 0.59968 0.24632
 C534 C -0.09718 0.58979 0.25941
 C535 C -0.09100 0.60063 0.28535
 C536 C -0.06741 0.59321 0.30279
 C537 C -0.04946 0.57370 0.29313
 C538 C -0.05549 0.56204 0.26661
 C539 C -0.07965 0.57019 0.24942
 H540 H -0.10356 0.63512 0.32941
 H541 H -0.14597 0.66336 0.32467
 H542 H -0.16734 0.63149 0.24159
 H543 H -0.06305 0.60203 0.32311
 H544 H -0.03100 0.56738 0.30632
 H545 H -0.08462 0.56139 0.22913
 C546 C -0.13446 0.37818 0.77484
 C547 C -0.13561 0.39707 0.79565
 C548 C -0.15219 0.39417 0.81557
 C549 C -0.16818 0.37084 0.81395
 C550 C -0.16736 0.35085 0.79261
 C551 C -0.15001 0.35494 0.77285
 O552 O -0.11791 0.38479 0.75763
 C553 C -0.10834 0.40844 0.76777
 C554 C -0.11846 0.41692 0.79107
 C555 C -0.11138 0.44142 0.80474
 C556 C -0.09338 0.45786 0.79379
 C557 C -0.08305 0.44961 0.76958
 C558 C -0.09045 0.42442 0.75658
 H559 H -0.15290 0.40938 0.83174
 H560 H -0.18104 0.36857 0.82943
 H561 H -0.14854 0.34078 0.75601
 H562 H -0.11961 0.44775 0.82300
 H563 H -0.08771 0.47713 0.80388
 H564 H -0.08293 0.41776 0.73803
 C565 C 0.28468 0.13156 0.36618
 C566 C 0.30923 0.11685 0.36945
 C567 C 0.33163 0.12202 0.35628
 C568 C 0.32860 0.14321 0.33903
 C569 C 0.30345 0.15877 0.33524
 C570 C 0.28121 0.15270 0.34917
 O571 O 0.26585 0.12326 0.38035
 C572 C 0.27882 0.10287 0.39286
 C573 C 0.30544 0.09812 0.38689
 C574 C 0.32267 0.07758 0.39764
 C575 C 0.31198 0.06123 0.41520
 C576 C 0.28459 0.06572 0.42157
 C577 C 0.26780 0.08689 0.41030
 H578 H 0.35077 0.11015 0.35916
 H579 H 0.34600 0.14747 0.32885
 H580 H 0.26162 0.16384 0.34677
 H581 H 0.34354 0.07421 0.39264
 H582 H 0.32489 0.04503 0.42384
 H583 H 0.24678 0.09057 0.41483
 C584 C 0.76151 0.12638 0.65882
 C585 C 0.78709 0.12503 0.64992
 C586 C 0.80944 0.14085 0.66142
 C587 C 0.80519 0.15905 0.68281
 C588 C 0.77899 0.16098 0.69238
 C589 C 0.75694 0.14411 0.68037
 O590 O 0.74283 0.11015 0.64449
 C591 C 0.75697 0.09831 0.62619
 C592 C 0.78418 0.10668 0.62874
 C593 C 0.80269 0.09717 0.61157
 C594 C 0.79276 0.07821 0.59090
 C595 C 0.76475 0.06940 0.58767
 C596 C 0.74659 0.07956 0.60562
 H597 H 0.82933 0.13948 0.65397
 H598 H 0.82236 0.17161 0.69192
 H599 H 0.73663 0.14534 0.68699
 H600 H 0.82398 0.10411 0.61398
 H601 H 0.80678 0.07037 0.57731
 H602 H 0.72512 0.07313 0.60349
 C603 C 0.22587 -0.11827 0.60477
 C604 C 0.19935 -0.11439 0.59117
 C605 C 0.17667 -0.12933 0.59513
 C606 C 0.18156 -0.14933 0.61361
 C607 C 0.20878 -0.15404 0.62771
 C608 C 0.23117 -0.13792 0.62348
 O609 O 0.24470 -0.10271 0.59710
 C610 C 0.22972 -0.08877 0.57826
 C611 C 0.20183 -0.09515 0.57390
 C612 C 0.18255 -0.08377 0.55431
 C613 C 0.19247 -0.06515 0.53844
 C614 C 0.22111 -0.05840 0.54249
 C615 C 0.23998 -0.07019 0.56279
 H616 H 0.15603 -0.12601 0.58407
 H617 H 0.16410 -0.16124 0.61676
 H618 H 0.25223 -0.14125 0.63359
 H619 H 0.16077 -0.08934 0.55108
 H620 H 0.17804 -0.05620 0.52280
 H621 H 0.26200 -0.06550 0.56592
 C622 C 0.73592 -0.14116 0.38547
 C623 C 0.75965 -0.14419 0.40387
 C624 C 0.77769 -0.16613 0.40295
 C625 C 0.77103 -0.18591 0.38223
 C626 C 0.74663 -0.18351 0.36289
 C627 C 0.72892 -0.16061 0.36446
 O628 O 0.72139 -0.11894 0.39053
 C629 C 0.73635 -0.10781 0.41258
 C630 C 0.75999 -0.12253 0.42144
 C631 C 0.77853 -0.11503 0.44434
 C632 C 0.77239 -0.09141 0.45890
 C633 C 0.74815 -0.07593 0.45033
 C634 C 0.72986 -0.08408 0.42678
 H635 H 0.79621 -0.16802 0.41774
 H636 H 0.78518 -0.20292 0.38120
 H637 H 0.71008 -0.15827 0.35016
 H638 H 0.79693 -0.12704 0.45089
 H639 H 0.78632 -0.08516 0.47697
 H640 H 0.71113 -0.07257 0.42009
 C641 C 0.59954 0.76639 -0.14274
 C642 C 0.60706 0.74650 -0.12532
 C643 C 0.62755 0.72729 -0.12900
 C644 C 0.64096 0.72856 -0.15162
 C645 C 0.63374 0.74883 -0.17010
 C646 C 0.61270 0.76810 -0.16545
 O647 O 0.57927 0.78245 -0.13547
 C648 C 0.57400 0.77241 -0.11297
 C649 C 0.59053 0.75042 -0.10596
 C650 C 0.58855 0.73650 -0.08337
 C651 C 0.56855 0.74551 -0.06733
 C652 C 0.55111 0.76806 -0.07407
 C653 C 0.55392 0.78181 -0.09720
 H654 H 0.63307 0.71188 -0.11492
 H655 H 0.65725 0.71387 -0.15433
 H656 H 0.60657 0.78375 -0.17913
 H657 H 0.60179 0.71921 -0.07838
 H658 H 0.56635 0.73481 -0.04976
 H659 H 0.54074 0.79900 -0.10275
 C660 C 0.35226 0.24487 -0.12404
 C661 C 0.37107 0.22504 -0.12975
 C662 C 0.36492 0.20522 -0.15018
 C663 C 0.33831 0.20592 -0.16555
 C664 C 0.31838 0.22625 -0.16033
 C665 C 0.32561 0.24599 -0.13911
 O666 O 0.36232 0.26160 -0.10352
 C667 C 0.38806 0.25207 -0.09620
 C668 C 0.39438 0.22974 -0.11170
 C669 C 0.41999 0.21625 -0.10751
 C670 C 0.43987 0.22605 -0.08628
 C671 C 0.43387 0.24892 -0.06984
 C672 C 0.40762 0.26225 -0.07497
 H673 H 0.38012 0.18979 -0.15422
 H674 H 0.33360 0.19071 -0.18170
 H675 H 0.31103 0.26171 -0.13436
 H676 H 0.42439 0.19867 -0.11994
 H677 H 0.45984 0.21562 -0.08229
 H678 H 0.40253 0.27960 -0.06253
 C679 C 0.37058 0.75325 0.11769
 C680 C 0.36257 0.73505 0.09652
 C681 C 0.34204 0.71624 0.09686
 C682 C 0.32915 0.71618 0.11998
 C683 C 0.33692 0.73474 0.14224
 C684 C 0.35803 0.75357 0.14092
 O685 O 0.39066 0.76931 0.11326
 C686 C 0.39537 0.76102 0.08875
 C687 C 0.37868 0.74009 0.07766
 C688 C 0.38019 0.72810 0.05227
 C689 C 0.39979 0.73803 0.03771
 C690 C 0.41729 0.75955 0.04867
 C691 C 0.41500 0.77128 0.07456
 H692 H 0.33610 0.70214 0.07989
 H693 H 0.31295 0.70175 0.12024
 H694 H 0.36471 0.76794 0.15745
 H695 H 0.36688 0.71160 0.04404
 H696 H 0.40160 0.72886 0.01797
 H697 H 0.42823 0.78766 0.08334
 C698 C 0.65785 0.24111 0.14282
 C699 C 0.64455 0.21695 0.13793
 C700 C 0.65231 0.19493 0.15295
 C701 C 0.67466 0.19791 0.17400
 C702 C 0.68877 0.22266 0.17974
 C703 C 0.68023 0.24454 0.16369
 O704 O 0.64672 0.25963 0.12643
 C705 C 0.62596 0.24681 0.11090
 C706 C 0.62380 0.22063 0.11717
 C707 C 0.60321 0.20363 0.10396
 C708 C 0.58393 0.21407 0.08349
 C709 C 0.58566 0.24096 0.07667
 C710 C 0.60703 0.25759 0.09043
 H711 H 0.64147 0.17613 0.14868
 H712 H 0.68093 0.18078 0.18567
 H713 H 0.69026 0.26377 0.16759
 H714 H 0.60186 0.18317 0.10941
 H715 H 0.56749 0.20137 0.07301
 H716 H 0.60850 0.27825 0.08562
 C717 C -0.15380 0.64972 0.73841
 C718 C -0.14795 0.64039 0.76374
 C719 C -0.16265 0.64866 0.78445
 C720 C -0.18473 0.66698 0.77880
 C721 C -0.19166 0.67704 0.75277
 C722 C -0.17525 0.66874 0.73247
 O723 O -0.13857 0.63751 0.72117
 C724 C -0.12284 0.62018 0.73606
 C725 C -0.12772 0.62138 0.76230
 C726 C -0.11463 0.60438 0.78124
 C727 C -0.09581 0.58513 0.77276
 C728 C -0.09076 0.58300 0.74571
 C729 C -0.10421 0.60099 0.72711
 H730 H -0.15776 0.64076 0.80414
 H731 H -0.19619 0.67334 0.79502
 H732 H -0.18010 0.67542 0.71226
 H733 H -0.11908 0.60563 0.80170
 H734 H -0.08551 0.57145 0.78707
 H735 H -0.10083 0.59952 0.70630
 C736 C -0.10431 0.35975 0.27239
 C737 C -0.08596 0.36152 0.29603
 C738 C -0.08660 0.34433 0.31650
 C739 C -0.10686 0.32435 0.31240
 C740 C -0.12596 0.32180 0.28807
 C741 C -0.12471 0.34004 0.26789
 O742 O -0.09973 0.37774 0.25531
 C743 C -0.07798 0.39110 0.26848
 C744 C -0.06877 0.38193 0.29350
 C745 C -0.04583 0.39256 0.31047
 C746 C -0.03174 0.41346 0.30124
 C747 C -0.04083 0.42322 0.27555
 C748 C -0.06435 0.41201 0.25896
 H749 H -0.07190 0.34612 0.33493
 H750 H -0.10756 0.31095 0.32829
 H751 H -0.13868 0.33862 0.24899
 H752 H -0.03888 0.38487 0.32999
 H753 H -0.01368 0.42202 0.31392
 H754 H -0.07145 0.41909 0.23919
 C755 C 0.10662 0.37125 0.73491
 C756 C 0.11944 0.39246 0.75023
 C757 C 0.14609 0.39060 0.76478
 C758 C 0.16004 0.36574 0.76380
 C759 C 0.14733 0.34341 0.74832
 C760 C 0.12034 0.34634 0.73332
 O761 O 0.08078 0.37716 0.72349
 C762 C 0.07730 0.40263 0.73180
 C763 C 0.10042 0.41290 0.74814
 C764 C 0.10131 0.43896 0.75956
 C765 C 0.07735 0.45516 0.75393
 C766 C 0.05320 0.44509 0.73724
 C767 C 0.05314 0.41843 0.72597
 H768 H 0.15563 0.40757 0.77679
 H769 H 0.18076 0.36391 0.77519
 H770 H 0.10999 0.32957 0.72163
 H771 H 0.11974 0.44650 0.77244
 H772 H 0.07743 0.47553 0.76264
 H773 H 0.03485 0.41035 0.71326
 C774 C 0.13449 0.63198 0.23426
 C775 C 0.12663 0.62256 0.20803
 C776 C 0.13843 0.63148 0.18677
 C777 C 0.15950 0.65058 0.19282
 C778 C 0.16837 0.66037 0.21974
 C779 C 0.15525 0.65124 0.24071
 O780 O 0.12162 0.61984 0.25155
 C781 C 0.10537 0.60239 0.23589
 C782 C 0.10766 0.60328 0.20907
 C783 C 0.09350 0.58591 0.18925
 C784 C 0.07635 0.56675 0.19744
 C785 C 0.07381 0.56541 0.22493
 C786 C 0.08831 0.58358 0.24443
 H787 H 0.13206 0.62360 0.16633
 H788 H 0.16911 0.65750 0.17649
 H789 H 0.16190 0.65794 0.26148
 H790 H 0.09592 0.58680 0.16833
 H791 H 0.06534 0.55273 0.18253
 H792 H 0.08686 0.58257 0.26558
 C793 C 0.71227 -0.12764 0.62997
 C794 C 0.69015 -0.11005 0.63149
 C795 C 0.67076 -0.11280 0.64883
 C796 C 0.67439 -0.13448 0.66541
 C797 C 0.69716 -0.15291 0.66445
 C798 C 0.71625 -0.14943 0.64622
 O799 O 0.72862 -0.12106 0.61253
 C800 C 0.71652 -0.09884 0.60286
 C801 C 0.69289 -0.09126 0.61382
 C802 C 0.67732 -0.06824 0.60704
 C803 C 0.68655 -0.05234 0.58825
 C804 C 0.71083 -0.05975 0.57671
 C805 C 0.72600 -0.08337 0.58407
 H806 H 0.65351 -0.09868 0.64967
 H807 H 0.65930 -0.13684 0.67888
 H808 H 0.73399 -0.16287 0.64507
 H809 H 0.65892 -0.06260 0.61609
 H810 H 0.67502 -0.03416 0.58277
 H811 H 0.74480 -0.08918 0.57572
 C812 C 0.26883 -0.14179 0.36216
 C813 C 0.29502 -0.13084 0.36751
 C814 C 0.31712 -0.14000 0.35450
 C815 C 0.31199 -0.16118 0.33494
 C816 C 0.28513 -0.17282 0.32882
 C817 C 0.26332 -0.16316 0.34295
 O818 O 0.25052 -0.12931 0.37608
 C819 C 0.26552 -0.11010 0.39049
 C820 C 0.29290 -0.11025 0.38598
 C821 C 0.31215 -0.09146 0.39826
 C822 C 0.30280 -0.07162 0.41590
 C823 C 0.27468 -0.07092 0.42081
 C824 C 0.25575 -0.09049 0.40799
 H825 H 0.33749 -0.13092 0.35897
 H826 H 0.32901 -0.16845 0.32458
 H827 H 0.24253 -0.17136 0.33849
 H828 H 0.33352 -0.09189 0.39419
 H829 H 0.31730 -0.05659 0.42559
 H830 H 0.23410 -0.09009 0.41122
 C831 C 0.77959 0.11621 0.38874
 C832 C 0.80504 0.11317 0.40461
 C833 C 0.82869 0.12684 0.40088
 C834 C 0.82599 0.14442 0.37996
 C835 C 0.79991 0.14805 0.36328
 C836 C 0.77642 0.13356 0.36784
 O837 O 0.75964 0.10163 0.39583
 C838 C 0.77279 0.08911 0.41666
 C839 C 0.80063 0.09549 0.42286
 C840 C 0.81821 0.08506 0.44428
 C841 C 0.80658 0.06744 0.46002
 C842 C 0.77797 0.06063 0.45399
 C843 C 0.76085 0.07149 0.43194
 H844 H 0.84851 0.12411 0.41363
 H845 H 0.84433 0.15500 0.37680
 H846 H 0.75612 0.13590 0.35582
 H847 H 0.84000 0.09048 0.44886
 H848 H 0.81968 0.05917 0.47699
 H849 H 0.73890 0.06667 0.42718
 C850 C 0.22425 0.13618 0.61381
 C851 C 0.25226 0.12933 0.61753
 C852 C 0.27062 0.13788 0.64012
 C853 C 0.25965 0.15385 0.65999
 C854 C 0.23080 0.16102 0.65697
 C855 C 0.21290 0.15251 0.63326
 O856 O 0.21027 0.12442 0.59158
 C857 C 0.22991 0.10984 0.58118
 C858 C 0.25594 0.11226 0.59635
 C859 C 0.27931 0.09778 0.59018
 C860 C 0.27570 0.07985 0.56750
 C861 C 0.24912 0.07680 0.55160
 C862 C 0.22590 0.09222 0.55830
 H863 H 0.29250 0.13192 0.64267
 H864 H 0.27361 0.16036 0.67794
 H865 H 0.19074 0.15730 0.63072
 H866 H 0.29947 0.09982 0.60267
 H867 H 0.29346 0.06797 0.56245
 H868 H 0.20536 0.08991 0.54655
   
