data_POSCAR
  _audit_creation_date              2014-09-24
  _audit_creation_method            'ToBaCCo'
  _symmetry_space_group_name_H-M    'P1'
  _symmetry_Int_Tables_number       1
  _symmetry_cell_setting            triclinic
  loop_
  _symmetry_equiv_pos_as_xyz
 x,y,z
_cell_length_a 37.2087
_cell_length_b 36.8274
_cell_length_c 36.7984
_cell_angle_alpha 89.328700
_cell_angle_beta 89.998500
_cell_angle_gamma 90.003400
loop_
  _atom_site_label
  _atom_site_type_symbol
  _atom_site_fract_x
  _atom_site_fract_y
  _atom_site_fract_z
N1 N 0.28006 0.26048 0.25604
 N2 N 0.72328 -0.29787 0.29057
 N3 N 0.72561 0.28832 0.69808
 N4 N 0.22174 -0.21194 0.79295
 N5 N 0.77824 -0.21197 0.79295
 N6 N 0.27439 0.28836 0.69806
 N7 N 0.27664 -0.29783 0.29056
 N8 N 0.71987 0.26044 0.25606
 O9 O 0.22584 0.02597 0.45568
 O10 O 0.22013 -0.03623 0.53460
 O11 O 0.22241 0.03394 0.52557
 O12 O 0.22343 -0.04456 0.46431
 O13 O 0.28275 -0.04619 0.46752
 O14 O 0.28175 0.03215 0.52867
 O15 O 0.27946 -0.03794 0.53774
 O16 O 0.28517 0.02425 0.45885
 Cu17 Cu 0.21696 -0.00518 0.49465
 Cu18 Cu 0.28826 -0.00722 0.49844
 C19 C 0.25649 0.03597 0.44423
 C20 C 0.24882 -0.04738 0.54964
 C21 C 0.25196 0.04637 0.53733
 C22 C 0.25329 -0.05865 0.45563
 O23 O 0.77756 0.03390 0.52558
 O24 O 0.77653 -0.04460 0.46431
 O25 O 0.77412 0.02594 0.45568
 O26 O 0.77984 -0.03626 0.53460
 O27 O 0.72051 -0.03798 0.53775
 O28 O 0.71479 0.02422 0.45886
 O29 O 0.71721 -0.04623 0.46753
 O30 O 0.71822 0.03210 0.52869
 Cu31 Cu 0.78301 -0.00521 0.49465
 Cu32 Cu 0.71170 -0.00726 0.49845
 C33 C 0.74801 0.04633 0.53734
 C34 C 0.74667 -0.05868 0.45563
 C35 C 0.74347 0.03593 0.44425
 C36 C 0.75115 -0.04742 0.54965
 O37 O 0.46502 0.22218 0.00819
 O38 O 0.53494 0.22729 -0.06268
 O39 O 0.53492 0.22218 0.00820
 O40 O 0.46502 0.22730 -0.06268
 O41 O 0.46509 0.28720 -0.05903
 O42 O 0.53487 0.28209 0.01170
 O43 O 0.53489 0.28719 -0.05902
 O44 O 0.46509 0.28209 0.01170
 Cu45 Cu 0.49997 0.21868 -0.02762
 Cu46 Cu 0.49999 0.29067 -0.02330
 C47 C 0.45342 0.25131 0.02205
 C48 C 0.54657 0.25814 -0.07294
 C49 C 0.54652 0.25130 0.02206
 C50 C 0.45341 0.25815 -0.07294
 O51 O 0.53479 0.76982 0.05255
 O52 O 0.46480 0.77997 -0.01760
 O53 O 0.46516 0.76982 0.05255
 O54 O 0.53517 0.77996 -0.01759
 O55 O 0.53518 0.72055 -0.02559
 O56 O 0.46514 0.71039 0.04457
 O57 O 0.46478 0.72055 -0.02559
 O58 O 0.53479 0.71038 0.04458
 Cu59 Cu 0.49998 0.78092 0.01808
 Cu60 Cu 0.49997 0.70949 0.00850
 C61 C 0.54637 0.73834 0.06064
 C62 C 0.45272 0.75196 -0.03318
 C63 C 0.45358 0.73836 0.06064
 C64 C 0.54725 0.75195 -0.03317
 O65 O 0.03511 0.44856 0.21865
 O66 O -0.03514 0.51881 0.22512
 O67 O 0.03507 0.51881 0.22512
 O68 O -0.03518 0.44856 0.21865
 O69 O -0.03510 0.44245 0.27851
 O70 O 0.03498 0.51257 0.28497
 O71 O -0.03506 0.51256 0.28497
 O72 O 0.03503 0.44246 0.27851
 Cu73 Cu -0.00004 0.48429 0.21583
 Cu74 Cu -0.00004 0.47686 0.28776
 C75 C 0.04711 0.43387 0.24755
 C76 C -0.04709 0.52738 0.25615
 C77 C 0.04701 0.52739 0.25616
 C78 C -0.04718 0.43386 0.24755
 O79 O 0.03484 0.54069 0.78315
 O80 O -0.03516 0.47109 0.77102
 O81 O 0.03515 0.47110 0.77102
 O82 O -0.03485 0.54068 0.78316
 O83 O -0.03483 0.55166 0.72393
 O84 O 0.03513 0.48212 0.71182
 O85 O -0.03513 0.48211 0.71182
 O86 O 0.03482 0.55166 0.72393
 Cu87 Cu -0.00001 0.50462 0.78304
 Cu88 Cu -0.00001 0.51783 0.71188
 C89 C 0.04640 0.55815 0.75562
 C90 C -0.04714 0.46505 0.73939
 C91 C 0.04713 0.46506 0.73939
 C92 C -0.04642 0.55814 0.75562
 C93 C 0.33783 0.25055 0.16417
 N94 N 0.36382 0.22487 0.16178
 N95 N 0.38524 0.22378 0.13278
 C96 C 0.38132 0.24833 0.10531
 N97 N 0.35526 0.27395 0.10766
 N98 N 0.33384 0.27504 0.13665
 C99 C 0.31639 0.25324 0.19644
 C100 C 0.29917 0.25629 0.22400
 C101 C 0.40588 0.24863 0.07524
 C102 C 0.42722 0.24952 0.05060
 C103 C 0.66266 0.71736 0.20101
 N104 N 0.65575 0.68923 0.17860
 N105 N 0.63400 0.69365 0.15011
 C106 C 0.61852 0.72634 0.14317
 N107 N 0.62548 0.75449 0.16554
 N108 N 0.64723 0.75007 0.19403
 C109 C 0.68485 0.71219 0.23253
 C110 C 0.70295 0.70762 0.25939
 C111 C 0.59385 0.73069 0.11346
 C112 C 0.57251 0.73423 0.08904
 C113 C 0.66400 0.27390 -0.21293
 N114 N 0.64301 0.24394 -0.20948
 N115 N 0.62100 0.24009 -0.18112
 C116 C 0.61933 0.26606 -0.15535
 N117 N 0.64037 0.29598 -0.15877
 N118 N 0.66238 0.29984 -0.18713
 C119 C 0.68653 0.27876 -0.24425
 C120 C 0.70493 0.28311 -0.27094
 C121 C 0.59441 0.26272 -0.12574
 C122 C 0.57289 0.26037 -0.10135
 C123 C 0.31185 0.77233 -0.14828
 N124 N 0.33518 0.80011 -0.14321
 N125 N 0.36381 0.79572 -0.12184
 C126 C 0.36998 0.76340 -0.10491
 N127 N 0.34668 0.73560 -0.11004
 N128 N 0.31805 0.74000 -0.13141
 C129 C 0.28014 0.77758 -0.16991
 C130 C 0.25311 0.78231 -0.18744
 C131 C 0.39980 0.75920 -0.08049
 C132 C 0.42429 0.75583 -0.05927
 C133 C 0.18893 0.31873 0.24609
 N134 N 0.16132 0.31306 0.26955
 N135 N 0.13240 0.33439 0.26847
 C136 C 0.13021 0.36203 0.24389
 N137 N 0.15778 0.36764 0.22037
 N138 N 0.18670 0.34631 0.22145
 C139 C 0.22101 0.29725 0.24881
 C140 C 0.24835 0.27987 0.25187
 C141 C 0.10018 0.38647 0.24431
 C142 C 0.07557 0.40772 0.24540
 C143 C 0.16209 0.69807 0.77869
 N144 N 0.15020 0.67859 0.80780
 N145 N 0.12865 0.65010 0.80322
 C146 C 0.11835 0.64023 0.76939
 N147 N 0.13030 0.65967 0.74028
 N148 N 0.15185 0.68815 0.74486
 C149 C 0.18399 0.72969 0.78372
 C150 C 0.20179 0.75668 0.78798
 C151 C 0.09380 0.61063 0.76455
 C152 C 0.07252 0.58633 0.76048
 C153 C -0.18701 0.64342 0.27406
 N154 N -0.16121 0.64138 0.30004
 N155 N -0.13275 0.61989 0.29570
 C156 C -0.12924 0.59979 0.26526
 N157 N -0.15500 0.60189 0.23925
 N158 N -0.18346 0.62339 0.24358
 C159 C -0.21854 0.66509 0.27957
 C160 C -0.24546 0.68260 0.28455
 C161 C -0.09964 0.57515 0.26150
 C162 C -0.07532 0.55372 0.25880
 C163 C -0.18558 0.34822 0.71532
 N164 N -0.17953 0.36309 0.74831
 N165 N -0.15147 0.38494 0.75338
 C166 C -0.12861 0.39259 0.72562
 N167 N -0.13462 0.37767 0.69265
 N168 N -0.16268 0.35582 0.68758
 C169 C -0.21674 0.32611 0.70941
 C170 C -0.24338 0.30823 0.70423
 C171 C -0.09935 0.41741 0.73066
 C172 C -0.07525 0.43886 0.73473
 C173 C 0.26932 0.16982 0.31730
 N174 N 0.29866 0.14989 0.32651
 N175 N 0.29577 0.12197 0.34970
 C176 C 0.26346 0.11313 0.36438
 N177 N 0.23410 0.13299 0.35508
 N178 N 0.23698 0.16090 0.33189
 C179 C 0.27288 0.20141 0.29441
 C180 C 0.27611 0.22865 0.27617
 C181 C 0.26082 0.08482 0.39137
 C182 C 0.25876 0.06197 0.41500
 C183 C 0.74058 0.19637 0.64187
 N184 N 0.72550 0.16481 0.65358
 N185 N 0.72823 0.13487 0.63377
 C186 C 0.74612 0.13559 0.60166
 N187 N 0.76126 0.16714 0.58998
 N188 N 0.75853 0.19708 0.60979
 C189 C 0.73610 0.22900 0.66231
 C190 C 0.73154 0.25655 0.67911
 C191 C 0.74758 0.10382 0.57950
 C192 C 0.74813 0.07740 0.56048
 C193 C 0.23535 -0.15382 0.70057
 N194 N 0.25975 -0.12649 0.69886
 N195 N 0.26292 -0.10621 0.66880
 C196 C 0.24178 -0.11264 0.63954
 N197 N 0.21742 -0.14000 0.64123
 N198 N 0.21425 -0.16028 0.67129
 C199 C 0.23109 -0.17488 0.73334
 C200 C 0.22698 -0.19226 0.76102
 C201 C 0.24449 -0.09012 0.60757
 C202 C 0.24654 -0.07081 0.58097
 C203 C 0.73732 -0.20691 0.34862
 N204 N 0.72032 -0.17573 0.33879
 N205 N 0.72319 -0.14621 0.35918
 C206 C 0.74314 -0.14697 0.39003
 N207 N 0.76019 -0.17813 0.39983
 N208 N 0.75732 -0.20766 0.37943
 C209 C 0.73299 -0.23912 0.32749
 C210 C 0.72872 -0.26637 0.31014
 C211 C 0.74505 -0.11562 0.41275
 C212 C 0.74608 -0.08950 0.43216
 C213 C 0.68814 0.77230 -0.14827
 N214 N 0.68193 0.73997 -0.13138
 N215 N 0.65330 0.73558 -0.11001
 C216 C 0.63000 0.76338 -0.10489
 N217 N 0.63617 0.79569 -0.12184
 N218 N 0.66480 0.80008 -0.14321
 C219 C 0.71985 0.77755 -0.16990
 C220 C 0.74687 0.78228 -0.18743
 C221 C 0.60018 0.75918 -0.08047
 C222 C 0.57568 0.75581 -0.05926
 C223 C 0.33600 0.27393 -0.21295
 N224 N 0.35699 0.24398 -0.20951
 N225 N 0.37899 0.24012 -0.18115
 C226 C 0.38066 0.26609 -0.15537
 N227 N 0.35962 0.29601 -0.15878
 N228 N 0.33761 0.29987 -0.18714
 C229 C 0.31347 0.27880 -0.24427
 C230 C 0.29507 0.28315 -0.27096
 C231 C 0.40557 0.26275 -0.12576
 C232 C 0.42709 0.26039 -0.10136
 C233 C 0.33726 0.71739 0.20099
 N234 N 0.35271 0.75010 0.19402
 N235 N 0.37446 0.75451 0.16553
 C236 C 0.38141 0.72637 0.14315
 N237 N 0.36590 0.69368 0.15008
 N238 N 0.34415 0.68926 0.17857
 C239 C 0.31506 0.71223 0.23251
 C240 C 0.29697 0.70766 0.25938
 C241 C 0.40608 0.73071 0.11345
 C242 C 0.42743 0.73425 0.08902
 C243 C 0.66210 0.25051 0.16419
 N244 N 0.63607 0.22486 0.16182
 N245 N 0.61465 0.22378 0.13282
 C246 C 0.61861 0.24831 0.10533
 N247 N 0.64470 0.27389 0.10766
 N248 N 0.66612 0.27498 0.13666
 C249 C 0.68354 0.25321 0.19646
 C250 C 0.70076 0.25625 0.22402
 C251 C 0.59406 0.24860 0.07526
 C252 C 0.57272 0.24950 0.05062
 C253 C -0.16211 0.69804 0.77870
 N254 N -0.15187 0.68812 0.74487
 N255 N -0.13032 0.65964 0.74028
 C256 C -0.11837 0.64020 0.76939
 N257 N -0.12866 0.65008 0.80322
 N258 N -0.15022 0.67857 0.80781
 C259 C -0.18401 0.72966 0.78373
 C260 C -0.20181 0.75665 0.78799
 C261 C -0.09382 0.61061 0.76455
 C262 C -0.07253 0.58631 0.76048
 C263 C -0.18900 0.31870 0.24610
 N264 N -0.18678 0.34629 0.22146
 N265 N -0.15786 0.36763 0.22038
 C266 C -0.13028 0.36202 0.24389
 N267 N -0.13246 0.33436 0.26845
 N268 N -0.16138 0.31302 0.26954
 C269 C -0.22108 0.29721 0.24881
 C270 C -0.24841 0.27984 0.25188
 C271 C -0.10025 0.38645 0.24431
 C272 C -0.07565 0.40771 0.24540
 C273 C 0.18558 0.34825 0.71531
 N274 N 0.16269 0.35586 0.68756
 N275 N 0.13463 0.37771 0.69264
 C276 C 0.12861 0.39262 0.72562
 N277 N 0.15146 0.38495 0.75338
 N278 N 0.17952 0.36311 0.74830
 C279 C 0.21674 0.32615 0.70940
 C280 C 0.24338 0.30827 0.70422
 C281 C 0.09935 0.41743 0.73066
 C282 C 0.07524 0.43887 0.73473
 C283 C 0.18693 0.64345 0.27406
 N284 N 0.18338 0.62342 0.24358
 N285 N 0.15492 0.60192 0.23924
 C286 C 0.12916 0.59981 0.26526
 N287 N 0.13267 0.61991 0.29570
 N288 N 0.16113 0.64141 0.30004
 C289 C 0.21846 0.66513 0.27956
 C290 C 0.24538 0.68264 0.28454
 C291 C 0.09956 0.57516 0.26150
 C292 C 0.07525 0.55373 0.25880
 C293 C 0.76463 -0.15387 0.70057
 N294 N 0.78576 -0.16029 0.67131
 N295 N 0.78259 -0.14001 0.64124
 C296 C 0.75819 -0.11269 0.63954
 N297 N 0.73702 -0.10629 0.66878
 N298 N 0.74020 -0.12657 0.69885
 C299 C 0.76889 -0.17492 0.73334
 C300 C 0.77300 -0.19229 0.76102
 C301 C 0.75549 -0.09016 0.60757
 C302 C 0.75343 -0.07086 0.58097
 C303 C 0.26261 -0.20688 0.34861
 N304 N 0.27962 -0.17570 0.33878
 N305 N 0.27675 -0.14617 0.35918
 C306 C 0.25681 -0.14694 0.39003
 N307 N 0.23976 -0.17810 0.39983
 N308 N 0.24262 -0.20762 0.37943
 C309 C 0.26694 -0.23908 0.32748
 C310 C 0.27120 -0.26633 0.31013
 C311 C 0.25491 -0.11559 0.41275
 C312 C 0.25387 -0.08947 0.43216
 C313 C 0.73062 0.16978 0.31732
 N314 N 0.76296 0.16086 0.33189
 N315 N 0.76585 0.13294 0.35507
 C316 C 0.73649 0.11309 0.36439
 N317 N 0.70417 0.12194 0.34973
 N318 N 0.70128 0.14986 0.32654
 C319 C 0.72706 0.20137 0.29442
 C320 C 0.72383 0.22861 0.27618
 C321 C 0.73913 0.08478 0.39138
 C322 C 0.74119 0.06194 0.41501
 C323 C 0.25941 0.19641 0.64186
 N324 N 0.24143 0.19711 0.60980
 N325 N 0.23870 0.16717 0.58999
 C326 C 0.25386 0.13563 0.60164
 N327 N 0.27177 0.13492 0.63374
 N328 N 0.27451 0.16486 0.65355
 C329 C 0.26389 0.22904 0.66230
 C330 C 0.26846 0.25659 0.67909
 C331 C 0.25240 0.10386 0.57949
 C332 C 0.25185 0.07744 0.56047
   
