data_POSCAR
  _audit_creation_date              2014-09-24
  _audit_creation_method            'ToBaCCo'
  _symmetry_space_group_name_H-M    'P1'
  _symmetry_Int_Tables_number       1
  _symmetry_cell_setting            triclinic
  loop_
  _symmetry_equiv_pos_as_xyz
 x,y,z
_cell_length_a 48.4120
_cell_length_b 47.8767
_cell_length_c 48.6767
_cell_angle_alpha 89.846900
_cell_angle_beta 90.113300
_cell_angle_gamma 89.646600
loop_
  _atom_site_label
  _atom_site_type_symbol
  _atom_site_fract_x
  _atom_site_fract_y
  _atom_site_fract_z
N1 N 0.58728 0.66072 0.60476
 N2 N 0.57640 0.64897 0.62656
 C3 C 0.55547 0.66504 0.63572
 C4 C 0.55299 0.68817 0.61863
 C5 C 0.57360 0.68461 0.59916
 H6 H 0.54306 0.66014 0.65350
 H7 H 0.57819 0.69809 0.58195
 Cu8 Cu 0.59003 0.61339 0.64046
 Cu9 Cu 0.61768 0.64352 0.58480
 Cu10 Cu 0.65340 0.59217 0.62098
 N11 N 0.61009 0.58467 0.66053
 N12 N 0.63502 0.57679 0.65319
 C13 C 0.64405 0.55679 0.67054
 C14 C 0.62365 0.55175 0.68999
 C15 C 0.60238 0.57005 0.68283
 H16 H 0.66393 0.54660 0.66876
 H17 H 0.58269 0.57269 0.69292
 N18 N 0.66806 0.61022 0.58761
 N19 N 0.65420 0.62936 0.57362
 C20 C 0.66919 0.63708 0.55165
 C21 C 0.69371 0.62199 0.55163
 C22 C 0.69220 0.60517 0.57480
 H23 H 0.66253 0.65241 0.53667
 H24 H 0.70752 0.59028 0.58183
 H25 H 0.61836 0.60261 0.59991
 H26 H 0.63325 0.63060 0.62187
 N27 N 0.90334 0.32936 0.11759
 N28 N 0.91640 0.34257 0.13728
 C29 C 0.93987 0.32862 0.14334
 C30 C 0.94172 0.30523 0.12654
 C31 C 0.91797 0.30654 0.11046
 H32 H 0.95439 0.33512 0.15889
 H33 H 0.91154 0.29210 0.09471
 Cu34 Cu 0.90117 0.37661 0.15309
 Cu35 Cu 0.86805 0.34238 0.10297
 Cu36 Cu 0.84448 0.40679 0.12595
 N37 N 0.88499 0.41007 0.16912
 N38 N 0.86307 0.42198 0.15813
 C39 C 0.85622 0.44469 0.17291
 C40 C 0.87486 0.44726 0.19440
 C41 C 0.89284 0.42483 0.19127
 H42 H 0.83892 0.45827 0.16827
 H43 H 0.91018 0.41946 0.20430
 N44 N 0.82844 0.38746 0.09403
 N45 N 0.83709 0.36275 0.08562
 C46 C 0.82198 0.35501 0.06371
 C47 C 0.80272 0.37578 0.05805
 C48 C 0.80749 0.39602 0.07777
 H49 H 0.82483 0.33561 0.05275
 H50 H 0.79664 0.41566 0.08005
 H51 H 0.87724 0.38375 0.10978
 H52 H 0.85480 0.36674 0.13609
 N53 N 0.40824 0.17009 -0.11145
 N54 N 0.41952 0.15833 -0.13308
 C55 C 0.44182 0.17316 -0.14061
 C56 C 0.44475 0.19544 -0.12271
 C57 C 0.42297 0.19273 -0.10446
 H58 H 0.45505 0.16799 -0.15773
 H59 H 0.41799 0.20632 -0.08746
 Cu60 Cu 0.40398 0.12480 -0.14932
 Cu61 Cu 0.37526 0.15527 -0.09400
 Cu62 Cu 0.34627 0.09636 -0.12324
 N63 N 0.38703 0.09213 -0.16585
 N64 N 0.36453 0.08110 -0.15554
 C65 C 0.35725 0.05889 -0.17074
 C66 C 0.37619 0.05574 -0.19185
 C67 C 0.39480 0.07730 -0.18804
 H68 H 0.33932 0.04617 -0.16680
 H69 H 0.41278 0.08177 -0.20036
 N70 N 0.33084 0.11482 -0.09050
 N71 N 0.34191 0.13720 -0.07934
 C72 C 0.32682 0.14472 -0.05732
 C73 C 0.30513 0.12620 -0.05443
 C74 C 0.30840 0.10754 -0.07590
 H75 H 0.33120 0.16251 -0.04447
 H76 H 0.29556 0.08975 -0.08042
 H77 H 0.38094 0.11426 -0.10601
 H78 H 0.35951 0.13693 -0.12907
 N79 N 0.09485 0.83174 0.38807
 N80 N 0.08455 0.84247 0.36538
 C81 C 0.06225 0.82764 0.35785
 C82 C 0.05827 0.80629 0.37683
 C83 C 0.07954 0.80972 0.39574
 H84 H 0.04993 0.83219 0.33986
 H85 H 0.08374 0.79725 0.41381
 Cu86 Cu 0.10119 0.87486 0.34790
 Cu87 Cu 0.12735 0.84709 0.40602
 Cu88 Cu 0.15679 0.90551 0.37609
 N89 N 0.11752 0.90816 0.33185
 N90 N 0.13925 0.91998 0.34293
 C91 C 0.14625 0.94246 0.32787
 C92 C 0.12789 0.94497 0.30610
 C93 C 0.10992 0.92277 0.30936
 H94 H 0.16331 0.95607 0.33264
 H95 H 0.09269 0.91751 0.29627
 N96 N 0.17153 0.88780 0.40968
 N97 N 0.16029 0.86560 0.42111
 C98 C 0.17498 0.85851 0.44361
 C99 C 0.19658 0.87712 0.44657
 C100 C 0.19368 0.89539 0.42462
 H101 H 0.17043 0.84090 0.45672
 H102 H 0.20662 0.91307 0.41993
 H103 H 0.12151 0.88752 0.39196
 H104 H 0.14472 0.86449 0.37125
 C105 C 0.10434 0.14572 0.12446
 N106 N 0.12407 0.14582 0.10469
 C107 C 0.14419 0.12596 0.10476
 N108 N 0.14459 0.10600 0.12462
 C109 C 0.12488 0.10590 0.14439
 N110 N 0.10476 0.12576 0.14431
 C111 C 0.39684 0.85579 0.62613
 N112 N 0.39698 0.87553 0.64609
 C113 C 0.37721 0.89575 0.64638
 N114 N 0.35730 0.89622 0.62671
 C115 C 0.35716 0.87649 0.60676
 N116 N 0.37692 0.85627 0.60648
 C117 C 0.89732 0.64703 0.37621
 N118 N 0.87750 0.64689 0.39590
 C119 C 0.85760 0.62706 0.39557
 N120 N 0.85750 0.60738 0.37556
 C121 C 0.87731 0.60752 0.35587
 N122 N 0.89721 0.62735 0.35620
 C123 C 0.60529 0.35702 -0.12447
 N124 N 0.62497 0.35720 -0.10458
 C125 C 0.64483 0.37707 -0.10477
 N126 N 0.64503 0.39678 -0.12487
 C127 C 0.62535 0.39660 -0.14476
 N128 N 0.60549 0.37672 -0.14456
 C129 C 0.00658 0.26598 0.14344
 C130 C 0.00497 0.24362 0.12513
 C131 C -0.01753 0.24169 0.10723
 C132 C -0.03840 0.26200 0.10762
 C133 C -0.03716 0.28473 0.12602
 C134 C -0.01423 0.28635 0.14392
 C135 C 0.02636 0.22261 0.12480
 C136 C 0.04426 0.20500 0.12461
 C137 C 0.06520 0.18437 0.12447
 C138 C 0.08308 0.16673 0.12442
 H139 H 0.02394 0.26768 0.15741
 H140 H -0.01899 0.22443 0.09296
 H141 H -0.05540 0.25961 0.09342
 H142 H -0.01209 0.30323 0.15844
 C143 C 0.51548 0.75683 0.60523
 C144 C 0.49297 0.75468 0.62305
 C145 C 0.49018 0.73098 0.63965
 C146 C 0.50975 0.70943 0.63836
 C147 C 0.53242 0.71126 0.62037
 C148 C 0.53508 0.73530 0.60388
 C149 C 0.47255 0.77664 0.62406
 C150 C 0.45534 0.79493 0.62476
 C151 C 0.43508 0.81624 0.62540
 C152 C 0.41768 0.83434 0.62582
 H153 H 0.51786 0.77511 0.59230
 H154 H 0.47279 0.72908 0.65349
 H155 H 0.50684 0.69126 0.65125
 H156 H 0.55229 0.73765 0.58996
 C157 C 1.01557 0.74506 0.39781
 C158 C 0.99571 0.74473 0.37696
 C159 C 0.99652 0.76479 0.35608
 C160 C 1.01711 0.78513 0.35600
 C161 C 1.03739 0.78579 0.37689
 C162 C 1.03622 0.76535 0.39783
 C163 C 0.97452 0.72377 0.37693
 C164 C 0.95679 0.70620 0.37686
 C165 C 0.93605 0.68561 0.37671
 C166 C 0.91836 0.66801 0.37652
 H167 H 1.01514 0.72959 0.41409
 H168 H 0.98121 0.76473 0.33981
 H169 H 1.01690 0.80019 0.33943
 H170 H 1.05113 0.76475 0.41437
 C171 C 0.48977 0.25626 -0.10096
 C172 C 0.50746 0.25875 -0.12350
 C173 C 0.50469 0.24061 -0.14579
 C174 C 0.48432 0.22003 -0.14557
 C175 C 0.46638 0.21731 -0.12299
 C176 C 0.46938 0.23571 -0.10068
 C177 C 0.52847 0.27989 -0.12373
 C178 C 0.54607 0.29759 -0.12392
 C179 C 0.56669 0.31830 -0.12412
 C180 C 0.58431 0.33598 -0.12428
 H181 H 0.49176 0.27017 -0.08355
 H182 H 0.51825 0.24239 -0.16338
 H183 H 0.48259 0.20648 -0.16321
 H184 H 0.45617 0.23420 -0.08285
 C185 C 0.10443 -0.01029 0.24572
 C186 C 0.12680 0.00780 0.24271
 C187 C 0.14953 0.00540 0.26036
 C188 C 0.14991 -0.01501 0.28096
 C189 C 0.12752 -0.03335 0.28421
 C190 C 0.10476 -0.03072 0.26630
 C191 C 0.12642 0.02885 0.22153
 C192 C 0.12608 0.04649 0.20382
 C193 C 0.12568 0.06716 0.18309
 C194 C 0.12532 0.08483 0.16541
 H195 H 0.08670 -0.00858 0.23219
 H196 H 0.16698 0.01928 0.25818
 H197 H 0.16788 -0.01644 0.29413
 H198 H 0.08705 -0.04424 0.26821
 C199 C 0.60200 0.50981 -0.24894
 C200 C 0.62515 0.49267 -0.24500
 C201 C 0.64790 0.49527 -0.26241
 C202 C 0.64752 0.51483 -0.28379
 C203 C 0.62425 0.53222 -0.28820
 C204 C 0.60151 0.52940 -0.27029
 C205 C 0.62543 0.47224 -0.22325
 C206 C 0.62556 0.45503 -0.20513
 C207 C 0.62560 0.43477 -0.18401
 C208 C 0.62554 0.41739 -0.16605
 H209 H 0.58424 0.50797 -0.23556
 H210 H 0.66596 0.48209 -0.25953
 H211 H 0.66557 0.51603 -0.29675
 H212 H 0.58313 0.54212 -0.27257
 C213 C 0.35924 0.99044 0.76743
 C214 C 0.37694 0.99309 0.74491
 C215 C 0.39441 1.01618 0.74303
 C216 C 0.39420 1.03654 0.76356
 C217 C 0.37646 1.03411 0.78633
 C218 C 0.35898 1.01077 0.78799
 C219 C 0.37714 0.97217 0.72374
 C220 C 0.37725 0.95464 0.70601
 C221 C 0.37732 0.93412 0.68524
 C222 C 0.37731 0.91660 0.66750
 H223 H 0.34565 0.97262 0.76912
 H224 H 0.40817 1.01847 0.72565
 H225 H 0.40780 1.05423 0.76138
 H226 H 0.34520 1.00799 0.80522
 C227 C 0.89858 0.49196 0.25426
 C228 C 0.87615 0.51022 0.25732
 C229 C 0.85332 0.50800 0.23981
 C230 C 0.85290 0.48758 0.21934
 C231 C 0.87533 0.46903 0.21608
 C232 C 0.89821 0.47151 0.23381
 C233 C 0.87650 0.53119 0.27845
 C234 C 0.87676 0.54873 0.29617
 C235 C 0.87701 0.56923 0.31694
 C236 C 0.87718 0.58672 0.33470
 H237 H 0.91638 0.49352 0.26768
 H238 H 0.83581 0.52201 0.24203
 H239 H 0.83485 0.48628 0.20630
 H240 H 0.91595 0.45784 0.23188
 C241 C 0.23924 0.10944 -0.01562
 C242 C 0.24194 0.12634 0.00762
 C243 C 0.26522 0.14323 0.01059
 C244 C 0.28575 0.14324 -0.00957
 C245 C 0.28329 0.12629 -0.03304
 C246 C 0.25975 0.10939 -0.03581
 C247 C 0.22086 0.12630 0.02843
 C248 C 0.20324 0.12625 0.04589
 C249 C 0.18264 0.12616 0.06637
 C250 C 0.16507 0.12608 0.08388
 H251 H 0.22127 0.09631 -0.01815
 H252 H 0.26754 0.15636 0.02853
 H253 H 0.30360 0.15634 -0.00654
 H254 H 0.25695 0.09625 -0.05362
 C255 C 0.75850 0.60381 0.51137
 C256 C 0.75875 0.62504 0.49158
 C257 C 0.73793 0.64542 0.49153
 C258 C 0.71686 0.64453 0.51111
 C259 C 0.71630 0.62319 0.53106
 C260 C 0.73747 0.60287 0.53098
 C261 C 0.78020 0.62573 0.47115
 C262 C 0.79807 0.62621 0.45395
 C263 C 0.81890 0.62663 0.43371
 C264 C 0.83661 0.62689 0.41635
 H265 H 0.77450 0.58788 0.51156
 H266 H 0.73794 0.66198 0.47631
 H267 H 0.70114 0.66067 0.51058
 H268 H 0.73772 0.58602 0.54581
 C269 C 0.74038 0.39668 0.01495
 C270 C 0.74141 0.37686 -0.00609
 C271 C 0.76248 0.35675 -0.00626
 C272 C 0.78245 0.35640 0.01453
 C273 C 0.78161 0.37621 0.03586
 C274 C 0.76032 0.39639 0.03577
 C275 C 0.72076 0.37707 -0.02741
 C276 C 0.70342 0.37718 -0.04521
 C277 C 0.68306 0.37724 -0.06601
 C278 C 0.66563 0.37721 -0.08373
 H279 H 0.72411 0.41231 0.01532
 H280 H 0.76350 0.34132 -0.02248
 H281 H 0.79856 0.34069 0.01371
 H282 H 0.75879 0.41184 0.05186
 C283 C 0.23582 0.86068 0.51238
 C284 C 0.25912 0.87755 0.50952
 C285 C 0.26199 0.89435 0.48616
 C286 C 0.24166 0.89428 0.46571
 C287 C 0.21813 0.87734 0.46833
 C288 C 0.21546 0.86055 0.49197
 C289 C 0.28013 0.87753 0.53048
 C290 C 0.29776 0.87742 0.54801
 C291 C 0.31842 0.87721 0.56850
 C292 C 0.33609 0.87693 0.58598
 H293 H 0.23336 0.84762 0.53042
 H294 H 0.27998 0.90746 0.48370
 H295 H 0.24462 0.90731 0.44780
 H296 H 0.19761 0.84741 0.49490
   
