data_POSCAR
  _audit_creation_date              2014-09-24
  _audit_creation_method            'ToBaCCo'
  _symmetry_space_group_name_H-M    'P1'
  _symmetry_Int_Tables_number       1
  _symmetry_cell_setting            triclinic
  loop_
  _symmetry_equiv_pos_as_xyz
 x,y,z
_cell_length_a 25.3498
_cell_length_b 25.1541
_cell_length_c 32.9254
_cell_angle_alpha 91.005100
_cell_angle_beta 90.015200
_cell_angle_gamma 94.373600
loop_
  _atom_site_label
  _atom_site_type_symbol
  _atom_site_fract_x
  _atom_site_fract_y
  _atom_site_fract_z
C1 C -0.00870 0.49780 0.98008
 C2 C -0.00591 0.49910 1.02144
 C3 C -0.00322 0.55037 1.04480
 C4 C -0.00685 0.44951 1.04528
 C5 C -0.00743 0.44735 0.95619
 C6 C -0.01129 0.54736 0.95660
 C7 C 0.03552 0.59146 1.03637
 C8 C 0.03400 0.64143 1.05529
 C9 C -0.00602 0.65165 1.08366
 C10 C -0.04208 0.60836 1.09430
 C11 C -0.04097 0.55872 1.07478
 C12 C 0.03411 0.44241 1.07288
 C13 C 0.03408 0.39566 1.09517
 C14 C -0.00735 0.35578 1.09062
 C15 C -0.04855 0.36293 1.06325
 C16 C -0.04848 0.40964 1.04089
 C17 C -0.04785 0.43297 0.92808
 C18 C -0.04689 0.38595 0.90500
 C19 C -0.00498 0.35309 0.90919
 C20 C 0.03538 0.36727 0.93739
 C21 C 0.03438 0.41429 0.96055
 C22 C -0.05222 0.58122 0.96304
 C23 C -0.05116 0.63030 0.94366
 C24 C -0.00927 0.64591 0.91761
 C25 C 0.03034 0.61110 0.90982
 C26 C 0.02924 0.56206 0.92909
 H27 H 0.06651 0.58510 1.01458
 H28 H 0.06543 0.67157 1.04851
 H29 H -0.07381 0.61351 1.11568
 H30 H -0.07093 0.52731 1.08205
 H31 H 0.06643 0.47281 1.07674
 H32 H 0.06619 0.39062 1.11612
 H33 H -0.08081 0.41474 1.02016
 H34 H -0.08036 0.45800 0.92428
 H35 H -0.07865 0.37525 0.88368
 H36 H 0.06794 0.34226 0.94105
 H37 H 0.06636 0.42512 0.98164
 H38 H -0.08413 0.57017 0.98383
 H39 H -0.08227 0.65660 0.94962
 H40 H 0.06255 0.62242 0.88936
 H41 H 0.06097 0.53633 0.92365
 H42 H -0.08070 0.33236 1.05932
 C43 C 0.50637 -0.00279 0.47907
 C44 C 0.50619 -0.00518 0.52039
 C45 C 0.45691 -0.00196 0.54440
 C46 C 0.55595 -0.00988 0.54338
 C47 C 0.55668 0.00012 0.45598
 C48 C 0.45668 -0.00280 0.45533
 C49 C 0.42448 0.04033 0.53931
 C50 C 0.37756 0.04218 0.56136
 C51 C 0.36301 0.00245 0.58950
 C52 C 0.39564 -0.03947 0.59493
 C53 C 0.44243 -0.04147 0.57273
 C54 C 0.57298 0.02977 0.57195
 C55 C 0.62214 0.02840 0.59092
 C56 C 0.65484 -0.01267 0.58158
 C57 C 0.63680 -0.05366 0.55439
 C58 C 0.58763 -0.05233 0.53546
 C59 C 0.56694 -0.04087 0.42834
 C60 C 0.61635 -0.04124 0.40959
 C61 C 0.65582 -0.00038 0.41803
 C62 C 0.64487 0.04179 0.44432
 C63 C 0.59556 0.04207 0.46319
 C64 C 0.41639 -0.04391 0.45943
 C65 C 0.36836 -0.04164 0.43894
 C66 C 0.36008 0.00174 0.41419
 C67 C 0.40091 0.04187 0.40896
 C68 C 0.44902 0.03949 0.42927
 H69 H 0.43538 0.07173 0.51813
 H70 H 0.35258 0.07458 0.55656
 H71 H 0.38485 -0.07055 0.61641
 H72 H 0.46700 -0.07429 0.57718
 H73 H 0.54893 0.06264 0.57856
 H74 H 0.63523 0.05996 0.61224
 H75 H 0.57469 -0.08377 0.51400
 H76 H 0.53733 -0.07344 0.42240
 H77 H 0.62419 -0.07376 0.38901
 H78 H 0.67489 0.07379 0.45085
 H79 H 0.58803 0.07429 0.48414
 H80 H 0.42193 -0.07724 0.47896
 H81 H 0.33729 -0.07311 0.44295
 H82 H 0.39515 0.07533 0.38960
 H83 H 0.47975 0.07139 0.42561
 H84 H 0.66114 -0.08621 0.54748
 C85 C 0.11596 0.01943 0.26484
 H86 H 0.11634 0.02721 0.23262
 C87 C 0.16340 0.02131 0.28652
 H88 H 0.20053 0.03070 0.27102
 C89 C 0.06709 -0.00319 0.32435
 H90 H 0.02947 -0.01343 0.33875
 C91 C 0.11363 -0.00169 0.34719
 H92 H 0.11179 -0.01069 0.37923
 N93 N 0.06915 0.00712 0.28393
 C94 C -0.03723 -0.07012 0.19287
 H95 H -0.06892 -0.04369 0.19209
 C96 C -0.03987 -0.11596 0.16818
 H97 H -0.07339 -0.12470 0.14812
 C98 C 0.04432 -0.09228 0.22081
 H99 H 0.07675 -0.08342 0.24172
 C100 C 0.04303 -0.13872 0.19687
 H101 H 0.07456 -0.16524 0.19924
 Zn102 Zn 0.00670 0.00319 0.25243
 N103 N 0.00466 -0.05888 0.21833
 C104 C -0.00296 0.06374 0.18025
 N105 N 0.00722 0.06601 0.22091
 C106 C 0.01807 0.11367 0.24055
 C107 C 0.01554 0.16140 0.21993
 C108 C -0.00576 0.11058 0.15843
 C109 C -0.08759 -0.04506 0.28704
 C110 C -0.13307 -0.04716 0.31108
 C111 C -0.10690 0.04158 0.33643
 C112 C -0.06192 0.04201 0.31196
 N113 N -0.05345 -0.00052 0.28731
 H114 H -0.00944 0.02584 0.16458
 H115 H 0.02891 0.11473 0.27229
 H116 H 0.02337 0.19909 0.23604
 H117 H -0.01501 0.10837 0.12630
 H118 H -0.07987 -0.07903 0.26809
 H119 H -0.16053 -0.08233 0.30993
 H120 H -0.11359 0.07604 0.35540
 H121 H -0.03401 0.07652 0.31265
 C122 C 0.00071 -0.15059 0.17013
 C123 C 0.16237 0.01087 0.32818
 C124 C -0.14307 -0.00334 0.33598
 C125 C 0.00228 0.15997 0.17863
 C126 C 0.04607 0.09460 0.77624
 H127 H 0.08042 0.08712 0.75829
 C128 C 0.04441 0.14336 0.79683
 H129 H 0.07780 0.17278 0.79512
 C130 C -0.03983 0.06657 0.79975
 H131 H -0.07273 0.03655 0.80025
 C132 C -0.04316 0.11495 0.82079
 H133 H -0.07861 0.12216 0.83772
 N134 N 0.00440 0.05726 0.77815
 C135 C 0.06844 -0.00448 0.67591
 H136 H 0.03151 -0.00395 0.65962
 C137 C 0.11606 -0.00181 0.65440
 H138 H 0.11566 0.00105 0.62162
 C139 C 0.11455 -0.00915 0.73827
 H140 H 0.11347 -0.01195 0.77102
 C141 C 0.16296 -0.00665 0.71800
 H142 H 0.19933 -0.00780 0.73513
 Zn143 Zn 0.00545 -0.00733 0.74777
 N144 N 0.06865 -0.00696 0.71717
 C145 C -0.06251 0.02960 0.68910
 N146 N -0.05457 -0.01238 0.71327
 C147 C -0.09027 -0.05556 0.71460
 C148 C -0.13579 -0.05789 0.69058
 C149 C -0.10762 0.02897 0.66467
 C150 C -0.00321 -0.06161 0.82320
 C151 C -0.00459 -0.10647 0.84774
 C152 C 0.00949 -0.16073 0.78798
 C153 C 0.01040 -0.11497 0.76459
 N154 N 0.00362 -0.06675 0.78235
 H155 H -0.03408 0.06394 0.68930
 H156 H -0.08408 -0.08791 0.73473
 H157 H -0.16415 -0.09226 0.69211
 H158 H -0.11404 0.06298 0.64608
 H159 H -0.00776 -0.02289 0.83684
 H160 H -0.01077 -0.10221 0.88015
 H161 H 0.01464 -0.19896 0.77348
 H162 H 0.01624 -0.11779 0.73210
 C163 C 0.16397 -0.00182 0.67567
 C164 C -0.00089 0.15412 0.81893
 C165 C 0.00214 -0.15662 0.83005
 C166 C -0.14466 -0.01537 0.66515
 C167 C -0.01755 -0.24789 0.16480
 C168 C -0.02112 -0.29619 0.14345
 C169 C -0.00828 -0.29921 0.10173
 C170 C 0.00373 -0.25004 0.08098
 C171 C 0.00820 -0.20096 0.10331
 C172 C -0.00213 -0.20035 0.14548
 C173 C 0.02182 -0.15355 0.08247
 N174 N 0.02676 -0.15465 0.04151
 N175 N 0.01856 -0.19984 0.02006
 C176 C 0.00648 -0.24720 0.03819
 H177 H -0.02621 -0.24771 0.19703
 H178 H -0.03019 -0.33176 0.16097
 H179 H 0.02775 -0.11550 0.09828
 H180 H -0.00249 -0.28173 0.01874
 C181 C 0.03416 0.22392 0.12627
 C182 C 0.03220 0.27145 0.10544
 C183 C -0.00705 0.30625 0.11411
 C184 C -0.04500 0.29299 0.14461
 C185 C -0.04316 0.24448 0.16569
 C186 C -0.00283 0.21005 0.15659
 C187 C -0.08231 0.23179 0.19498
 N188 N -0.11965 0.26626 0.20324
 N189 N -0.12057 0.31241 0.18415
 C190 C -0.08454 0.32701 0.15521
 H191 H 0.06515 0.19796 0.11899
 H192 H 0.06143 0.28111 0.08217
 H193 H -0.08381 0.19475 0.21125
 H194 H -0.08707 0.36511 0.14094
 C195 C 0.22551 -0.03847 0.62613
 C196 C 0.27377 -0.03784 0.60589
 C197 C 0.31293 0.00380 0.61249
 C198 C 0.30321 0.04567 0.64023
 C199 C 0.25378 0.04536 0.66047
 C200 C 0.21501 0.00241 0.65369
 C201 C 0.24464 0.08861 0.68655
 N202 N 0.28326 0.12819 0.69298
 N203 N 0.33026 0.12756 0.67503
 C204 C 0.34162 0.08768 0.64899
 H205 H 0.19628 -0.07153 0.62062
 H206 H 0.28059 -0.07006 0.58472
 H207 H 0.20713 0.09157 0.70171
 H208 H 0.38063 0.08912 0.63563
 C209 C -0.24222 -0.01884 0.66320
 C210 C -0.29042 -0.01751 0.64321
 C211 C -0.29251 -0.01313 0.60093
 C212 C -0.24478 -0.00965 0.57831
 C213 C -0.19562 -0.01173 0.59867
 C214 C -0.19451 -0.01572 0.64159
 C215 C -0.14922 -0.01042 0.57517
 N216 N -0.15196 -0.00521 0.53431
 N217 N -0.19789 -0.00139 0.51537
 C218 C -0.24433 -0.00330 0.53592
 H219 H -0.24208 -0.02175 0.69600
 H220 H -0.32655 -0.02014 0.66089
 H221 H -0.11084 -0.01378 0.58879
 H222 H -0.28029 0.00046 0.51890
 C223 C -0.04039 -0.24512 0.84685
 C224 C -0.04371 -0.29246 0.86830
 C225 C -0.00655 -0.30134 0.89836
 C226 C 0.03390 -0.26104 0.90790
 C227 C 0.03757 -0.21294 0.88586
 C228 C 0.00001 -0.20515 0.85500
 C229 C 0.07961 -0.17479 0.89495
 N230 N 0.11424 -0.18371 0.92504
 N231 N 0.10993 -0.22826 0.94643
 C232 C 0.07102 -0.26721 0.93891
 H233 H -0.06942 -0.23972 0.82341
 H234 H -0.07484 -0.32297 0.86074
 H235 H 0.08555 -0.13814 0.87837
 H236 H 0.06929 -0.30241 0.95741
 C237 C -0.00704 0.20676 0.88266
 C238 C -0.00692 0.25475 0.90444
 C239 C -0.00365 0.30355 0.88439
 C240 C -0.00020 0.30395 0.84140
 C241 C -0.00105 0.25505 0.81920
 C242 C -0.00371 0.20616 0.84020
 C243 C 0.00024 0.25679 0.77651
 N244 N 0.00423 0.30441 0.75766
 N245 N 0.00685 0.35034 0.77855
 C246 C 0.00492 0.35177 0.81970
 H247 H -0.00903 0.16974 0.89912
 H248 H -0.00966 0.25383 0.93726
 H249 H -0.00223 0.22085 0.75791
 H250 H 0.00773 0.39027 0.83497
 C251 C -0.22809 0.03504 0.35020
 C252 C -0.27665 0.03573 0.36983
 C253 C -0.29132 -0.00181 0.39940
 C254 C -0.25557 -0.03973 0.41046
 C255 C -0.20595 -0.04029 0.39061
 C256 C -0.19271 -0.00312 0.35966
 C257 C -0.17073 -0.07737 0.40315
 N258 N -0.18480 -0.11179 0.43321
 N259 N -0.23150 -0.11147 0.45168
 C260 C -0.26732 -0.07661 0.44141
 H261 H -0.21842 0.06392 0.32679
 H262 H -0.30349 0.06521 0.36137
 H263 H -0.13193 -0.07891 0.38976
 H264 H -0.30425 -0.07761 0.45792
 C265 C 0.24781 -0.02718 0.34053
 C266 C 0.29512 -0.02997 0.36159
 C267 C 0.30856 0.00539 0.39388
 C268 C 0.27332 0.04398 0.40555
 C269 C 0.22523 0.04703 0.38397
 C270 C 0.21241 0.01081 0.35134
 C271 C 0.19197 0.08696 0.39549
 N272 N 0.20547 0.12028 0.42726
 N273 N 0.24998 0.11654 0.44815
 C274 C 0.28433 0.07956 0.43844
 H275 H 0.23850 -0.05518 0.31571
 H276 H 0.32176 -0.05966 0.35241
 H277 H 0.15558 0.09225 0.37946
 H278 H 0.31975 0.07824 0.45659
   
