data_POSCAR
  _audit_creation_date              2014-09-24
  _audit_creation_method            'ToBaCCo'
  _symmetry_space_group_name_H-M    'P1'
  _symmetry_Int_Tables_number       1
  _symmetry_cell_setting            triclinic
  loop_
  _symmetry_equiv_pos_as_xyz
 x,y,z
_cell_length_a 33.7865
_cell_length_b 33.5689
_cell_length_c 34.2973
_cell_angle_alpha 90.017700
_cell_angle_beta 90.133100
_cell_angle_gamma 89.787400
loop_
  _atom_site_label
  _atom_site_type_symbol
  _atom_site_fract_x
  _atom_site_fract_y
  _atom_site_fract_z
N1 N 0.29008 0.40360 1.37282
 N2 N 0.29072 0.37473 1.39866
 C3 C 0.25917 0.37856 1.42233
 C4 C 0.23736 0.41168 1.41056
 C5 C 0.25820 0.42677 1.37899
 H6 H 0.25295 0.35892 1.44648
 H7 H 0.25123 0.45277 1.36170
 Cu8 Cu 0.33339 0.33548 1.39907
 Cu9 Cu 0.33161 0.40978 1.33404
 Cu10 Cu 0.37529 0.31930 1.31172
 N11 N 0.36952 0.29106 1.39044
 N12 N 0.38375 0.28348 1.35560
 C13 C 0.40559 0.24993 1.35700
 C14 C 0.40603 0.23602 1.39515
 C15 C 0.38279 0.26321 1.41554
 H16 H 0.42126 0.23781 1.33223
 H17 H 0.37574 0.26288 1.44622
 N18 N 0.37884 0.36666 1.27776
 N19 N 0.36305 0.40147 1.28673
 C20 C 0.37379 0.42856 1.25986
 C21 C 0.39803 0.41001 1.23286
 C22 C 0.40043 0.37073 1.24510
 H23 H 0.36591 0.45979 1.26080
 H24 H 0.41776 0.34710 1.23208
 H25 H 0.32525 0.35070 1.32985
 H26 H 0.37449 0.36642 1.34934
 N27 N 1.20345 0.59191 0.87871
 N28 N 1.20166 0.62000 0.90531
 C29 C 1.23161 0.61483 0.93088
 C30 C 1.25340 0.58175 0.91964
 C31 C 1.23453 0.56799 0.88636
 H32 H 1.23715 0.63369 0.95582
 H33 H 1.24283 0.54264 0.86873
 Cu34 Cu 1.16095 0.66114 0.90351
 Cu35 Cu 1.16564 0.58845 0.83597
 Cu36 Cu 1.09291 0.66143 0.83146
 N37 N 1.12143 0.70319 0.89864
 N38 N 1.09397 0.70255 0.87148
 C39 C 1.07160 0.73576 0.87432
 C40 C 1.08636 0.75897 0.90447
 C41 C 1.11791 0.73707 0.91929
 H42 H 1.04795 0.74357 0.85442
 H43 H 1.13744 0.74534 0.94289
 N44 N 1.09694 0.61752 0.79349
 N45 N 1.12475 0.58986 0.79496
 C46 C 1.12085 0.56563 0.76384
 C47 C 1.08925 0.57885 0.74155
 C48 C 1.07478 0.61172 0.76136
 H49 H 1.14039 0.54102 0.75716
 H50 H 1.05039 0.63058 0.75266
 H51 H 1.15294 0.64888 0.83386
 H52 H 1.11969 0.61710 0.86410
 N53 N 0.72105 -0.11616 0.13425
 N54 N 0.71596 -0.14062 0.10477
 C55 C 0.74508 -0.13475 0.07854
 C56 C 0.76965 -0.10496 0.09245
 C57 C 0.75333 -0.09393 0.12784
 H58 H 0.74787 -0.15053 0.05120
 H59 H 0.76339 -0.07047 0.14697
 Cu60 Cu 0.67100 -0.17662 0.10384
 Cu61 Cu 0.68399 -0.11227 0.17742
 Cu62 Cu 0.60111 -0.17295 0.17352
 N63 N 0.62553 -0.21191 0.10290
 N64 N 0.59822 -0.21048 0.13009
 C65 C 0.57118 -0.23906 0.12314
 C66 C 0.58230 -0.25981 0.08983
 C67 C 0.61679 -0.24130 0.07772
 H68 H 0.54600 -0.24485 0.14164
 H69 H 0.63442 -0.24871 0.05253
 N70 N 0.61006 -0.13330 0.21521
 N71 N 0.64288 -0.11224 0.21794
 C72 C 0.64087 -0.08892 0.24982
 C73 C 0.60482 -0.09500 0.26759
 C74 C 0.58593 -0.12324 0.24491
 H75 H 0.66308 -0.06759 0.25857
 H76 H 0.55674 -0.13536 0.24970
 H77 H 0.66189 -0.16972 0.17401
 H78 H 0.63501 -0.13048 0.14578
 N79 N -0.20798 1.10321 -0.37080
 N80 N -0.21204 1.13657 -0.39048
 C81 C -0.24453 1.13428 -0.41315
 C82 C -0.26157 1.09727 -0.40777
 C83 C -0.23748 1.07832 -0.38073
 H84 H -0.25515 1.15804 -0.43169
 H85 H -0.24242 1.04950 -0.36758
 Cu86 Cu -0.17539 1.18047 -0.38408
 Cu87 Cu -0.16842 1.09718 -0.32966
 Cu88 Cu -0.09646 1.17004 -0.32480
 N89 N -0.12976 1.21529 -0.38767
 N90 N -0.09892 1.21138 -0.36461
 C91 C -0.07218 1.23965 -0.37345
 C92 C -0.08712 1.26267 -0.40382
 C93 C -0.12373 1.24597 -0.41208
 H94 H -0.04414 1.24316 -0.35863
 H95 H -0.14440 1.25496 -0.43449
 N96 N -0.09943 1.12559 -0.28744
 N97 N -0.12626 1.09719 -0.28974
 C98 C -0.12260 1.07319 -0.25841
 C99 C -0.09230 1.08743 -0.23510
 C100 C -0.07818 1.12054 -0.25458
 H101 H -0.14227 1.04885 -0.25156
 H102 H -0.05525 1.14054 -0.24471
 H103 H -0.15639 1.15669 -0.31968
 H104 H -0.12840 1.13159 -0.36005
 N105 N 0.70736 0.60046 0.63043
 N106 N 0.70783 0.63081 0.60625
 C107 C 0.74054 0.62848 0.58396
 C108 C 0.76124 0.59454 0.59445
 C109 C 0.73928 0.57736 0.62388
 H110 H 0.74888 0.64988 0.56194
 H111 H 0.74695 0.55098 0.64039
 Cu112 Cu 0.66566 0.67027 0.60656
 Cu113 Cu 0.66771 0.59544 0.67113
 Cu114 Cu 0.59180 0.66547 0.67207
 N115 N 0.62322 0.70937 0.60736
 N116 N 0.59404 0.70721 0.63253
 C117 C 0.56933 0.73829 0.62687
 C118 C 0.58392 0.76120 0.59653
 C119 C 0.61810 0.74179 0.58490
 H120 H 0.54325 0.74422 0.64413
 H121 H 0.63798 0.75070 0.56197
 N122 N 0.59532 0.62105 0.70970
 N123 N 0.62502 0.59538 0.71002
 C124 C 0.62124 0.57119 0.74103
 C125 C 0.58738 0.58177 0.76103
 C126 C 0.57144 0.61330 0.74020
 H127 H 0.64171 0.54765 0.74875
 H128 H 0.54538 0.63039 0.74755
 H129 H 0.62275 0.62358 0.64053
 H130 H 0.65206 0.65526 0.67468
 N131 N 0.79720 0.40359 0.12061
 N132 N 0.79283 0.37027 0.10095
 C133 C 0.76012 0.37276 0.07872
 C134 C 0.74330 0.40991 0.08418
 C135 C 0.76776 0.42894 0.11078
 H136 H 0.74951 0.34946 0.05964
 H137 H 0.76386 0.45845 0.12289
 Cu138 Cu 0.83099 0.32730 0.10506
 Cu139 Cu 0.84017 0.40964 0.15854
 Cu140 Cu 0.87927 0.31867 0.18945
 N141 N 0.87139 0.28688 0.11237
 N142 N 0.88893 0.28181 0.14625
 C143 C 0.91226 0.24917 0.14442
 C144 C 0.90978 0.23369 0.10697
 C145 C 0.88356 0.25845 0.08756
 H146 H 0.92962 0.23775 0.16848
 H147 H 0.87275 0.25494 0.05807
 N148 N 0.88228 0.36799 0.22065
 N149 N 0.87015 0.40301 0.20763
 C150 C 0.87848 0.43099 0.23454
 C151 C 0.89616 0.41257 0.26616
 C152 C 0.89804 0.37264 0.25645
 H153 H 0.87078 0.46219 0.23205
 H154 H 0.91060 0.34882 0.27372
 H155 H 0.87800 0.36108 0.14770
 H156 H 0.82953 0.35198 0.17196
 N157 N 0.29500 0.09762 0.87449
 N158 N 0.29569 0.12732 0.89950
 C159 C 0.26375 0.12498 0.92283
 C160 C 0.24228 0.09175 0.91212
 C161 C 0.26308 0.07494 0.88157
 H162 H 0.25602 0.14637 0.94515
 H163 H 0.25408 0.04970 0.86411
 Cu164 Cu 0.33698 0.16729 0.89729
 Cu165 Cu 0.33103 0.09442 0.83018
 Cu166 Cu 0.40047 0.17000 0.82264
 N167 N 0.37870 0.20689 0.89511
 N168 N 0.40207 0.20890 0.86460
 C169 C 0.42696 0.23973 0.86898
 C170 C 0.41918 0.25765 0.90439
 C171 C 0.38843 0.23606 0.92035
 H172 H 0.44963 0.24808 0.84836
 H173 H 0.37387 0.24169 0.94786
 N174 N 0.39465 0.12754 0.78359
 N175 N 0.36962 0.09770 0.78714
 C176 C 0.37293 0.07392 0.75560
 C177 C 0.40135 0.08967 0.73098
 C178 C 0.41430 0.12369 0.74978
 H179 H 0.35486 0.04800 0.75023
 H180 H 0.43582 0.14473 0.73926
 H181 H 0.37736 0.12442 0.85599
 H182 H 0.34109 0.15477 0.82745
 N183 N 0.21088 0.89355 0.37210
 N184 N 0.20308 0.87580 0.40532
 C185 C 0.23384 0.88107 0.42989
 C186 C 0.26240 0.90343 0.41087
 C187 C 0.24667 0.91060 0.37427
 H188 H 0.23550 0.86888 0.45902
 H189 H 0.26038 0.92667 0.35065
 Cu190 Cu 0.15470 0.84533 0.41191
 Cu191 Cu 0.17405 0.89490 0.32862
 Cu192 Cu 0.08647 0.84363 0.34061
 N193 N 0.11563 0.80288 0.40824
 N194 N 0.08991 0.80165 0.37946
 C195 C 0.06898 0.76772 0.38176
 C196 C 0.08223 0.74656 0.41382
 C197 C 0.11166 0.76986 0.43017
 H198 H 0.04641 0.75878 0.36115
 H199 H 0.13017 0.76235 0.45490
 N200 N 0.09787 0.87584 0.29431
 N201 N 0.13230 0.89328 0.28862
 C202 C 0.13226 0.91035 0.25312
 C203 C 0.09593 0.90357 0.23587
 C204 C 0.07478 0.88171 0.26282
 H205 H 0.15657 0.92701 0.24088
 H206 H 0.04522 0.86997 0.25927
 H207 H 0.12452 0.88818 0.36165
 H208 H 0.14687 0.84156 0.34162
 Zn209 Zn -0.01941 1.00483 0.04889
 Zn210 Zn 0.05145 0.97554 0.00770
 Zn211 Zn -0.02827 0.96804 -0.03068
 Zn212 Zn 0.01026 1.04834 -0.01988
 O213 O 0.00334 0.99907 0.00127
 O214 O 0.00859 0.98309 0.08744
 O215 O 0.05470 0.93000 -0.01791
 O216 O -0.07333 0.95216 -0.00655
 O217 O 0.06283 0.96310 0.05726
 O218 O -0.06576 0.98099 0.05100
 O219 O -0.00316 0.92327 -0.04744
 O220 O -0.01537 1.05330 -0.06494
 O221 O 0.09127 1.00451 -0.01089
 O222 O -0.04398 0.99473 -0.07388
 O223 O 0.06098 1.05952 -0.03049
 O224 O -0.00835 1.08784 0.01009
 O225 O -0.02912 1.05545 0.06222
 C226 C 0.04222 0.96631 0.08797
 C227 C 0.03160 0.91063 -0.03994
 C228 C -0.08584 0.95995 0.02759
 C229 C -0.03697 1.03017 -0.08499
 C230 C 0.09214 1.03868 -0.02656
 C231 C -0.02441 1.08764 0.04349
 Zn232 Zn 0.47876 0.01037 0.44801
 Zn233 Zn 0.46909 -0.02788 0.52652
 Zn234 Zn 0.54942 -0.02094 0.48980
 Zn235 Zn 0.50844 0.05155 0.51873
 O236 O 0.50134 0.00318 0.49583
 O237 O 0.43265 -0.01477 0.44376
 O238 O 0.49314 -0.07301 0.54244
 O239 O 0.56202 -0.03034 0.43976
 O240 O 0.42520 -0.04371 0.50123
 O241 O 0.50831 -0.00888 0.40925
 O242 O 0.55134 -0.06804 0.51337
 O243 O 0.55900 0.06145 0.53128
 O244 O 0.45227 -0.00239 0.56976
 O245 O 0.58926 0.00674 0.51092
 O246 O 0.48176 0.05592 0.56299
 O247 O 0.49126 0.09210 0.48950
 O248 O 0.46933 0.06175 0.43645
 C249 C 0.41306 -0.03665 0.46684
 C250 C 0.52722 -0.08697 0.53467
 C251 C 0.54229 -0.02502 0.40863
 C252 C 0.59007 0.04039 0.52774
 C253 C 0.45936 0.03266 0.58184
 C254 C 0.47532 0.09326 0.45601
 Zn255 Zn 0.95016 0.47702 0.49291
 Zn256 Zn 1.03056 0.46822 0.52834
 Zn257 Zn 1.01945 0.51008 0.45096
 Zn258 Zn 0.99121 0.54835 0.52354
 O259 O 0.99804 0.50077 0.49896
 O260 O 0.94861 0.42898 0.51417
 O261 O 1.07587 0.45662 0.50314
 O262 O 0.98886 0.49303 0.41127
 O263 O 1.00788 0.42107 0.54048
 O264 O 0.93724 0.46910 0.44309
 O265 O 1.06670 0.48659 0.44614
 O266 O 1.01096 0.58976 0.49743
 O267 O 1.04457 0.49069 0.57432
 O268 O 1.02930 0.56173 0.44201
 O269 O 1.01492 0.54936 0.56959
 O270 O 0.94061 0.55951 0.53390
 O271 O 0.91044 0.50448 0.51468
 C272 C 0.97341 0.40804 0.53295
 C273 C 1.08793 0.46605 0.46928
 C274 C 0.95520 0.47628 0.41145
 C275 C 1.02607 0.59215 0.46374
 C276 C 1.03593 0.52465 0.58845
 C277 C 0.90960 0.53859 0.53058
 Zn278 Zn 0.47384 0.48781 0.95527
 Zn279 Zn 0.54524 0.52444 0.99027
 Zn280 Zn 0.46748 0.52983 1.03214
 Zn281 Zn 0.51084 0.45182 1.02563
 O282 O 0.49924 0.49856 1.00097
 O283 O 0.49843 0.50735 0.91341
 O284 O 0.54589 0.57301 1.01057
 O285 O 0.41969 0.53952 1.01031
 O286 O 0.55361 0.53110 0.93914
 O287 O 0.42482 0.50720 0.95423
 O288 O 0.48925 0.57784 1.04255
 O289 O 0.48895 0.44906 1.07261
 O290 O 0.58830 0.49969 1.00902
 O291 O 0.45729 0.50661 1.07852
 O292 O 0.56281 0.44449 1.03331
 O293 O 0.49401 0.40883 0.99967
 O294 O 0.46885 0.43574 0.94622
 C295 C 0.53194 0.52379 0.90977
 C296 C 0.52202 0.59265 1.03167
 C297 C 0.40493 0.52798 0.97810
 C298 C 0.46752 0.47286 1.09213
 C299 C 0.59241 0.46636 1.02598
 C300 C 0.47751 0.40544 0.96660
 C301 C 1.18477 0.40953 0.46005
 C302 C 1.20262 0.42731 0.42742
 C303 C 1.18431 0.46216 0.41259
 C304 C 1.14753 0.47525 0.42690
 C305 C 1.12808 0.45428 0.45677
 C306 C 1.14865 0.42294 0.47454
 C307 C 1.13501 0.38183 0.48372
 C308 C 1.17433 0.36701 0.46780
 H309 H 1.19714 0.47869 0.38876
 H310 H 1.13372 0.50107 0.41360
 H311 H 1.10914 0.37264 0.46580
 H312 H 1.13179 0.37699 0.51561
 H313 H 1.17128 0.34923 0.44060
 H314 H 1.19352 0.35343 0.49060
 C315 C 0.30763 0.58374 0.97031
 C316 C 0.28897 0.56464 0.93887
 C317 C 0.30585 0.52851 0.92582
 C318 C 0.34279 0.51556 0.94004
 C319 C 0.36361 0.53811 0.96800
 C320 C 0.34396 0.57064 0.98468
 C321 C 0.35819 0.61207 0.99154
 C322 C 0.31856 0.62647 0.97578
 H323 H 0.29184 0.51120 0.90311
 H324 H 0.35590 0.48893 0.92767
 H325 H 0.38364 0.62008 0.97263
 H326 H 0.36234 0.61852 1.02307
 H327 H 0.32099 0.64284 0.94770
 H328 H 0.30004 0.64133 0.99829
 C329 C -0.17259 0.94101 0.09384
 C330 C -0.19557 0.91339 0.07344
 C331 C -0.18475 0.90510 0.03443
 C332 C -0.14961 0.92101 0.01842
 C333 C -0.12464 0.94532 0.04124
 C334 C -0.13816 0.95634 0.07825
 C335 C -0.11729 0.95551 0.11667
 C336 C -0.15505 0.93868 0.13384
 H337 H -0.20251 0.88534 0.01671
 H338 H -0.14125 0.91293 -0.01100
 H339 H -0.11030 0.98592 0.12746
 H340 H -0.09212 0.93407 0.11722
 H341 H -0.16966 0.95949 0.15456
 H342 H -0.15180 0.90752 0.14442
 C343 C 0.66916 0.10868 0.56772
 C344 C 0.70037 0.08256 0.57655
 C345 C 0.69303 0.04138 0.57301
 C346 C 0.65717 0.02753 0.55702
 C347 C 0.62743 0.05454 0.54511
 C348 C 0.63338 0.09495 0.55299
 C349 C 0.62862 0.13001 0.52670
 C350 C 0.66792 0.14495 0.54250
 H351 H 0.71558 0.01987 0.58100
 H352 H 0.65301 -0.00423 0.55342
 H353 H 0.60309 0.14905 0.53522
 H354 H 0.62969 0.12177 0.49530
 H355 H 0.66502 0.17277 0.55985
 H356 H 0.69174 0.14516 0.52017
 C357 C 0.43016 0.19583 0.45023
 C358 C 0.42683 0.20281 0.40995
 C359 C 0.44627 0.17534 0.38501
 C360 C 0.46339 0.14009 0.39990
 C361 C 0.46279 0.13206 0.44016
 C362 C 0.44831 0.16179 0.46487
 C363 C 0.41989 0.15855 0.49789
 C364 C 0.39973 0.19561 0.48184
 H365 H 0.44624 0.17939 0.35375
 H366 H 0.47568 0.11846 0.37982
 H367 H 0.43448 0.16352 0.52655
 H368 H 0.40119 0.13141 0.49610
 H369 H 0.40249 0.22175 0.50155
 H370 H 0.36937 0.18989 0.47062
 C371 C 0.91021 0.31690 0.54858
 C372 C 0.93057 0.29545 0.57750
 C373 C 0.96938 0.30845 0.58669
 C374 C 0.98457 0.34414 0.57085
 C375 C 0.96125 0.36782 0.54572
 C376 C 0.92506 0.35201 0.53337
 C377 C 0.88510 0.37090 0.53074
 C378 C 0.86867 0.33256 0.54749
 H379 H 0.98758 0.29226 0.60731
 H380 H 1.01353 0.35422 0.58006
 H381 H 0.87591 0.37628 0.50004
 H382 H 0.88170 0.39684 0.55065
 H383 H 0.84981 0.31613 0.52636
 H384 H 0.85573 0.33630 0.57707
 C385 C 0.03955 0.81517 -0.09932
 C386 C 0.07430 0.79753 -0.08455
 C387 C 0.09743 0.82082 -0.05892
 C388 C 0.08401 0.85806 -0.04575
 C389 C 0.04670 0.87312 -0.05715
 C390 C 0.02599 0.85189 -0.08574
 C391 C -0.01621 0.83916 -0.08688
 C392 C -0.00157 0.79905 -0.10169
 H393 H 0.12566 0.81030 -0.04809
 H394 H 0.10228 0.87414 -0.02513
 H395 H -0.03362 0.85604 -0.10895
 H396 H -0.02976 0.83766 -0.05740
 H397 H -0.01073 0.79287 -0.13225
 H398 H -0.00669 0.77424 -0.08085
 C399 C 0.58120 0.68737 1.04071
 C400 C 0.56375 0.70713 1.07242
 C401 C 0.52724 0.69183 1.08602
 C402 C 0.51208 0.65553 1.07145
 C403 C 0.53322 0.63355 1.04325
 C404 C 0.56646 0.65163 1.02680
 C405 C 0.60672 0.63517 1.01882
 C406 C 0.62305 0.67421 1.03410
 H407 H 0.51113 0.70664 1.10909
 H408 H 0.48523 0.64361 1.08399
 H409 H 0.61199 0.63073 0.98713
 H410 H 0.61428 0.60924 1.03763
 H411 H 0.63794 0.69197 1.01109
 H412 H 0.64007 0.67086 1.06171
 C413 C 0.40886 0.46644 1.18593
 C414 C 0.41967 0.42885 1.20030
 C415 C 0.45224 0.40971 1.18265
 C416 C 0.46941 0.42534 1.14863
 C417 C 0.45439 0.46046 1.13137
 C418 C 0.42573 0.48182 1.15222
 C419 C 0.38744 0.49948 1.13887
 C420 C 0.36896 0.48269 1.17573
 H421 H 0.46341 0.38173 1.19388
 H422 H 0.49293 0.40861 1.13472
 H423 H 0.37610 0.48542 1.11171
 H424 H 0.38828 0.53258 1.13846
 H425 H 0.34689 0.45889 1.16998
 H426 H 0.35918 0.50616 1.19649
 C427 C 0.61428 -0.06008 0.33128
 C428 C 0.58908 -0.07330 0.30158
 C429 C 0.54849 -0.06420 0.30483
 C430 C 0.53350 -0.04632 0.33894
 C431 C 0.55866 -0.03818 0.37087
 C432 C 0.59938 -0.04355 0.36535
 C433 C 0.62966 -0.06400 0.39007
 C434 C 0.64607 -0.08202 0.35274
 H435 H 0.52818 -0.07206 0.28163
 H436 H 0.50191 -0.04131 0.34119
 H437 H 0.61656 -0.08647 0.41001
 H438 H 0.65024 -0.04256 0.40411
 H439 H 0.64255 -0.11491 0.35107
 H440 H 0.67605 -0.07089 0.34528
 C441 C -0.09154 1.03597 -0.18179
 C442 C -0.08151 1.07398 -0.19538
 C443 C -0.06186 1.09959 -0.16921
 C444 C -0.04870 1.08568 -0.13274
 C445 C -0.05463 1.04569 -0.12149
 C446 C -0.07828 1.02210 -0.14581
 C447 C -0.07138 0.98108 -0.16117
 C448 C -0.08589 0.99621 -0.20050
 H449 H -0.05543 1.13005 -0.17722
 H450 H -0.03234 1.10590 -0.11418
 H451 H -0.09160 0.95895 -0.14776
 H452 H -0.03954 0.97254 -0.16107
 H453 H -0.11445 0.98277 -0.20968
 H454 H -0.06250 0.99643 -0.22326
 C455 C 1.04955 0.58476 0.67998
 C456 C 1.07553 0.56320 0.70351
 C457 C 1.08847 0.52605 0.68813
 C458 C 1.07565 0.51269 0.65073
 C459 C 1.04987 0.53634 0.62763
 C460 C 1.03778 0.57220 0.64419
 C461 C 1.01446 0.60896 0.63597
 C462 C 1.02782 0.62336 0.67648
 H463 H 1.10844 0.50730 0.70473
 H464 H 1.08620 0.48427 0.63992
 H465 H 0.98218 0.60299 0.63391
 H466 H 1.02714 0.62658 0.61160
 H467 H 1.00311 0.62589 0.69768
 H468 H 1.04816 0.64929 0.67538
 C469 C 0.81021 0.54066 0.58049
 C470 C 0.80002 0.58106 0.57995
 C471 C 0.82864 0.60832 0.56670
 C472 C 0.86480 0.59467 0.55114
 C473 C 0.87240 0.55351 0.54746
 C474 C 0.84531 0.52720 0.56420
 C475 C 0.82626 0.49075 0.54793
 C476 C 0.78776 0.50546 0.56584
 H477 H 0.82285 0.64005 0.56769
 H478 H 0.88598 0.61621 0.54050
 H479 H 0.83774 0.46308 0.56179
 H480 H 0.82579 0.49045 0.51551
 H481 H 0.77711 0.48627 0.59002
 H482 H 0.76491 0.51366 0.54384
 C483 C 0.67765 0.39846 1.05282
 C484 C 0.70679 0.42498 1.06555
 C485 C 0.70007 0.46598 1.05931
 C486 C 0.66338 0.47961 1.04455
 C487 C 0.63244 0.45253 1.03686
 C488 C 0.64127 0.41187 1.03939
 C489 C 0.61958 0.37863 1.05868
 C490 C 0.65951 0.36383 1.07335
 H491 H 0.72255 0.48753 1.06697
 H492 H 0.65848 0.51135 1.04149
 H493 H 0.60566 0.35822 1.03717
 H494 H 0.59976 0.38909 1.08245
 H495 H 0.66855 0.33493 1.06024
 H496 H 0.66280 0.36566 1.10557
 C497 C 0.19181 1.03942 -0.07567
 C498 C 0.20315 1.07933 -0.07360
 C499 C 0.17515 1.10715 -0.05962
 C500 C 0.13840 1.09426 -0.04488
 C501 C 0.12969 1.05328 -0.04270
 C502 C 0.15626 1.02668 -0.06012
 C503 C 0.17410 0.98892 -0.04514
 C504 C 0.21314 1.00286 -0.06229
 H505 H 0.18182 1.13867 -0.05952
 H506 H 0.11768 1.11610 -0.03367
 H507 H 0.16190 0.96225 -0.06009
 H508 H 0.17438 0.98736 -0.01275
 H509 H 0.22337 0.98425 -0.08713
 H510 H 0.23607 1.00934 -0.03987
 C511 C 0.32660 -0.06106 0.40139
 C512 C 0.30203 -0.08437 0.42495
 C513 C 0.31717 -0.09642 0.46154
 C514 C 0.35382 -0.08180 0.47522
 C515 C 0.37602 -0.05485 0.45257
 C516 C 0.36253 -0.04680 0.41483
 C517 C 0.35752 -0.00785 0.39445
 C518 C 0.31806 -0.02332 0.37973
 H519 H 0.30026 -0.11589 0.48024
 H520 H 0.36395 -0.09043 0.50399
 H521 H 0.37966 -0.00376 0.37087
 H522 H 0.35459 0.01763 0.41499
 H523 H 0.31760 -0.02785 0.34762
 H524 H 0.29218 -0.00685 0.39170
 C525 C 0.58890 -0.17830 0.55395
 C526 C 0.56780 -0.20105 0.58072
 C527 C 0.53047 -0.18530 0.59203
 C528 C 0.51649 -0.14827 0.57696
 C529 C 0.53961 -0.12596 0.55040
 C530 C 0.57565 -0.14290 0.53988
 C531 C 0.61194 -0.13538 0.51658
 C532 C 0.62715 -0.17547 0.53245
 H533 H 0.51207 -0.20125 0.61248
 H534 H 0.48800 -0.13709 0.58644
 H535 H 0.62887 -0.10933 0.52753
 H536 H 0.60595 -0.13561 0.48470
 H537 H 0.65292 -0.17244 0.55243
 H538 H 0.63011 -0.19875 0.50957
 C539 C 1.07261 0.69436 0.46477
 C540 C 1.07055 0.70610 0.42573
 C541 C 1.05808 0.67756 0.39813
 C542 C 1.04446 0.63990 0.41026
 C543 C 1.04191 0.63059 0.45026
 C544 C 1.05815 0.65776 0.47677
 C545 C 1.04170 0.67470 0.51359
 C546 C 1.05763 0.71484 0.50047
 H547 H 1.05800 0.68461 0.36733
 H548 H 1.03416 0.61893 0.38852
 H549 H 1.05700 0.66278 0.53986
 H550 H 1.00882 0.67362 0.51460
 H551 H 1.08213 0.72596 0.51916
 H552 H 1.03402 0.73704 0.49392
 C553 C -0.06529 1.16352 0.11471
 C554 C -0.07241 1.19684 0.09113
 C555 C -0.06625 1.19258 0.05067
 C556 C -0.05001 1.15734 0.03525
 C557 C -0.04019 1.12512 0.05980
 C558 C -0.05001 1.12834 0.09932
 C559 C -0.02480 1.12099 0.13437
 C560 C -0.04128 1.15954 0.15110
 H561 H -0.07284 1.21692 0.03097
 H562 H -0.04496 1.15544 0.00413
 H563 H 0.00738 1.12236 0.12778
 H564 H -0.03430 1.09411 0.15075
 H565 H -0.01863 1.18331 0.15407
 H566 H -0.06010 1.15485 0.17723
 C567 C 0.45535 0.32168 0.89660
 C568 C 0.43942 0.29252 0.92098
 C569 C 0.44304 0.29805 0.96159
 C570 C 0.45797 0.33408 0.97673
 C571 C 0.46827 0.36552 0.95148
 C572 C 0.46878 0.35755 0.91144
 C573 C 0.45271 0.38063 0.87769
 C574 C 0.43806 0.34123 0.86132
 H575 H 0.43282 0.27536 0.98157
 H576 H 0.45861 0.33835 1.00803
 H577 H 0.47657 0.39423 0.85992
 H578 H 0.42828 0.40119 0.88606
 H579 H 0.45355 0.33215 0.83417
 H580 H 0.40524 0.33903 0.86020
 C581 C 0.53262 0.55956 0.80550
 C582 C 0.57305 0.56378 0.79763
 C583 C 0.60004 0.54845 0.82533
 C584 C 0.58673 0.53441 0.86166
 C585 C 0.54605 0.53421 0.87054
 C586 C 0.51946 0.54438 0.84081
 C587 C 0.48468 0.57185 0.84180
 C588 C 0.49927 0.58882 0.80337
 H589 H 0.63159 0.54961 0.81999
 H590 H 0.60829 0.52505 0.88324
 H591 H 0.48609 0.59345 0.86636
 H592 H 0.45622 0.55557 0.83901
 H593 H 0.50923 0.62023 0.80604
 H594 H 0.47902 0.58268 0.77852
 C595 C 0.43793 0.09881 0.66816
 C596 C 0.41306 0.07571 0.69162
 C597 C 0.39878 0.03970 0.67555
 C598 C 0.41279 0.02571 0.63923
 C599 C 0.44116 0.04759 0.61815
 C600 C 0.45138 0.08517 0.63246
 C601 C 0.49121 0.10343 0.63780
 C602 C 0.47667 0.11829 0.67705
 H603 H 0.37821 0.02138 0.69161
 H604 H 0.40260 -0.00282 0.62850
 H605 H 0.49667 0.12781 0.61658
 H606 H 0.51527 0.08085 0.64012
 H607 H 0.47412 0.15129 0.67834
 H608 H 0.49229 0.10430 0.70216
 C609 C 0.04244 0.92066 0.18849
 C610 C 0.08270 0.91603 0.19678
 C611 C 0.10987 0.92341 0.16646
 C612 C 0.09683 0.93894 0.13045
 C613 C 0.05653 0.94831 0.12455
 C614 C 0.02973 0.93678 0.15346
 C615 C -0.00299 0.95950 0.17253
 C616 C 0.01092 0.94176 0.21099
 H617 H 0.14122 0.91830 0.17088
 H618 H 0.11844 0.94536 0.10807
 H619 H -0.03264 0.94868 0.16338
 H620 H 0.00113 0.99231 0.17077
 H621 H -0.01071 0.92070 0.22390
 H622 H 0.02308 0.96424 0.23157
 C623 C 0.89563 0.41693 0.33901
 C624 C 0.90829 0.43159 0.30300
 C625 C 0.93143 0.46647 0.30313
 C626 C 0.94607 0.48219 0.33853
 C627 C 0.93650 0.46412 0.37442
 C628 C 0.90879 0.43323 0.37379
 C629 C 0.90933 0.39372 0.39374
 C630 C 0.89519 0.37575 0.35546
 H631 H 0.94032 0.47998 0.27586
 H632 H 0.96598 0.50738 0.33770
 H633 H 0.88692 0.39198 0.41735
 H634 H 0.93967 0.38407 0.40221
 H635 H 0.86477 0.36340 0.35713
 H636 H 0.91762 0.35577 0.34200
   
