data_POSCAR
  _audit_creation_date              2014-09-24
  _audit_creation_method            'ToBaCCo'
  _symmetry_space_group_name_H-M    'P1'
  _symmetry_Int_Tables_number       1
  _symmetry_cell_setting            triclinic
  loop_
  _symmetry_equiv_pos_as_xyz
 x,y,z
_cell_length_a 19.7195
_cell_length_b 19.5249
_cell_length_c 34.9602
_cell_angle_alpha 87.472100
_cell_angle_beta 94.085000
_cell_angle_gamma 98.007200
loop_
  _atom_site_label
  _atom_site_type_symbol
  _atom_site_fract_x
  _atom_site_fract_y
  _atom_site_fract_z
C1 C -0.04128 0.67728 0.98767
 C2 C -0.04921 0.64024 1.02277
 C3 C -0.03779 0.57051 1.02474
 C4 C -0.01476 0.53867 0.99332
 C5 C -0.00512 0.57917 0.95901
 C6 C -0.02238 0.64671 0.95521
 C7 C -0.00294 0.46349 0.99604
 C8 C 0.00585 0.42705 0.96294
 C9 C 0.01616 0.35733 0.96554
 C10 C 0.01201 0.32109 1.00083
 C11 C 0.00153 0.35482 1.03386
 C12 C -0.00208 0.42614 1.03175
 H13 H -0.04564 0.73207 0.98590
 H14 H -0.04943 0.54146 1.05091
 H15 H 0.01332 0.55848 0.93429
 H16 H 0.00477 0.45116 0.93464
 H17 H 0.01631 0.26626 1.00248
 H18 H -0.00537 0.45059 1.05847
 C19 C 0.33579 0.03081 0.49321
 C20 C 0.37272 0.02242 0.52827
 C21 C 0.43959 0.00573 0.52886
 C22 C 0.47260 0.00219 0.49451
 C23 C 0.43486 0.01382 0.45940
 C24 C 0.36632 0.02618 0.45866
 C25 C 0.54473 -0.01558 0.49545
 C26 C 0.57019 -0.04124 0.46285
 C27 C 0.63713 -0.05905 0.46360
 C28 C 0.67720 -0.05482 0.49851
 C29 C 0.65267 -0.03245 0.53180
 C30 C 0.58848 -0.00864 0.52931
 H31 H 0.28281 0.04016 0.49283
 H32 H 0.46425 -0.00554 0.55654
 H33 H 0.45752 0.01333 0.43222
 H34 H 0.53783 -0.04972 0.43682
 H35 H 0.73015 -0.06438 0.49954
 H36 H 0.57239 0.01294 0.55451
 C37 C 0.11337 -0.00120 0.26675
 H38 H 0.11785 0.01035 0.23643
 C39 C 0.17188 0.00921 0.29207
 H40 H 0.22142 0.02778 0.28120
 C41 C 0.04347 -0.03565 0.31855
 H42 H -0.00651 -0.05268 0.32903
 C43 C 0.10035 -0.02579 0.34471
 H44 H 0.09384 -0.03507 0.37510
 N45 N 0.05047 -0.02227 0.28037
 C46 C -0.10108 -0.12910 0.19860
 H47 H -0.14638 -0.11283 0.20900
 C48 C -0.10849 -0.17703 0.16969
 H49 H -0.15943 -0.19909 0.15906
 C50 C 0.02002 -0.11832 0.19839
 H51 H 0.07002 -0.09489 0.20928
 C52 C 0.01485 -0.16435 0.16846
 H53 H 0.06103 -0.17592 0.15656
 Zn54 Zn -0.03141 -0.02765 0.24744
 N55 N -0.03756 -0.10081 0.21251
 C56 C -0.08033 0.05520 0.18738
 N57 N -0.03296 0.05581 0.21764
 C58 C 0.01472 0.11225 0.22426
 C59 C 0.01824 0.16955 0.19867
 C60 C -0.07859 0.11121 0.16112
 C61 C -0.13909 -0.10564 0.28729
 C62 C -0.18874 -0.11564 0.31425
 C63 C -0.16967 0.00719 0.32475
 C64 C -0.12204 0.01523 0.29663
 N65 N -0.10705 -0.04090 0.27888
 H66 H -0.11794 0.01005 0.18275
 H67 H 0.05108 0.11247 0.24887
 H68 H 0.05772 0.21329 0.20350
 H69 H -0.11468 0.10866 0.13621
 H70 H -0.12432 -0.15004 0.27430
 H71 H -0.21374 -0.16742 0.32070
 H72 H -0.17916 0.05194 0.33974
 H73 H -0.09469 0.06588 0.29012
 C74 C -0.05014 -0.19279 0.15313
 C75 C 0.16505 -0.00224 0.33151
 C76 C -0.20225 -0.05918 0.33452
 C77 C -0.02833 0.16890 0.16642
 C78 C 0.08977 0.15830 0.77858
 H79 H 0.12744 0.16769 0.75734
 C80 C 0.08885 0.20677 0.80683
 H81 H 0.12536 0.25366 0.80702
 C82 C -0.00195 0.08509 0.80574
 H83 H -0.03558 0.03640 0.80607
 C84 C -0.00446 0.13177 0.83442
 H85 H -0.04086 0.11942 0.85632
 N86 N 0.04454 0.09884 0.77851
 C87 C 0.16607 -0.01330 0.71728
 H88 H 0.15589 -0.05745 0.73677
 C89 C 0.21614 -0.01281 0.69095
 H90 H 0.24481 -0.05621 0.69060
 C91 C 0.13743 0.09416 0.69148
 H92 H 0.10410 0.13384 0.69056
 C93 C 0.18710 0.09676 0.66470
 H94 H 0.19254 0.13905 0.64355
 Zn95 Zn 0.04645 0.02665 0.74416
 N96 N 0.12673 0.03883 0.71644
 C97 C -0.02146 0.00823 0.67122
 N98 N -0.03121 0.02058 0.70831
 C99 C -0.09512 0.02470 0.71973
 C100 C -0.15228 0.01548 0.69348
 C101 C -0.07696 -0.00095 0.64413
 C102 C 0.08515 -0.05605 0.80683
 C103 C 0.07684 -0.11115 0.83363
 C104 C -0.01510 -0.16756 0.79177
 C105 C -0.00553 -0.11103 0.76592
 N106 N 0.04278 -0.05606 0.77438
 H107 H 0.02914 0.00338 0.66269
 H108 H -0.10226 0.03385 0.74927
 H109 H -0.20305 0.01748 0.70296
 H110 H -0.06856 -0.01172 0.61483
 H111 H 0.12294 -0.01144 0.81279
 H112 H 0.10823 -0.10902 0.86038
 H113 H -0.05562 -0.20986 0.78569
 H114 H -0.03848 -0.10986 0.73989
 C115 C 0.22593 0.04198 0.66378
 C116 C 0.04187 0.19288 0.83543
 C117 C 0.02464 -0.16640 0.82670
 C118 C -0.14331 0.00129 0.65540
 C119 C -0.10357 -0.27098 0.05479
 C120 C -0.06189 -0.32532 0.05608
 C121 C -0.02467 -0.33877 0.09086
 C122 C -0.02261 -0.29599 0.12187
 C123 C -0.05682 -0.23761 0.11941
 C124 C -0.09734 -0.22419 0.08539
 C125 C -0.15349 -0.26371 0.02438
 C126 C -0.18907 -0.20668 0.02134
 C127 C -0.17653 -0.15639 0.04886
 C128 C -0.13132 -0.16489 0.08067
 H129 H -0.16590 -0.30266 0.00308
 H130 H -0.22608 -0.20123 -0.00261
 H131 H -0.20297 -0.11123 0.04594
 H132 H -0.12336 -0.12443 0.10127
 H133 H 0.00747 -0.37964 0.09352
 H134 H 0.00786 -0.30748 0.14779
 C135 C -0.06916 0.30559 0.08938
 C136 C -0.00687 0.31430 0.07052
 C137 C 0.04761 0.28020 0.08552
 C138 C 0.04077 0.23622 0.11784
 C139 C -0.02081 0.22485 0.13627
 C140 C -0.07558 0.26155 0.12295
 C141 C -0.12606 0.33791 0.07506
 C142 C -0.18633 0.32977 0.09434
 C143 C -0.19143 0.28913 0.12799
 C144 C -0.13678 0.25516 0.14223
 H145 H -0.12495 0.36939 0.04885
 H146 H -0.22928 0.35529 0.08315
 H147 H -0.23813 0.28356 0.14300
 H148 H -0.14272 0.22436 0.16858
 H149 H 0.09535 0.28627 0.07138
 H150 H 0.08305 0.20846 0.12759
 C151 C 0.36170 0.08355 0.58977
 C152 C 0.33996 0.02862 0.56454
 C153 C 0.28455 -0.02108 0.57335
 C154 C 0.25004 -0.01684 0.60631
 C155 C 0.26952 0.03747 0.63142
 C156 C 0.32645 0.08771 0.62366
 C157 C 0.41686 0.13524 0.58174
 C158 C 0.43798 0.18854 0.60701
 C159 C 0.40465 0.19157 0.64055
 C160 C 0.34938 0.14175 0.64893
 H161 H 0.44398 0.13514 0.55592
 H162 H 0.48055 0.22766 0.60056
 H163 H 0.42161 0.23283 0.66016
 H164 H 0.32517 0.14571 0.67542
 H165 H 0.26746 -0.06323 0.55429
 H166 H 0.20639 -0.05541 0.61176
 C167 C -0.27032 -0.08754 0.57943
 C168 C -0.30564 -0.03098 0.56649
 C169 C -0.29434 0.02989 0.58743
 C170 C -0.24338 0.03842 0.61725
 C171 C -0.20288 -0.01380 0.62743
 C172 C -0.21803 -0.07848 0.60970
 C173 C -0.28862 -0.15417 0.56439
 C174 C -0.25326 -0.20887 0.57690
 C175 C -0.20050 -0.19920 0.60551
 C176 C -0.18347 -0.13504 0.62219
 H177 H -0.33176 -0.16512 0.54371
 H178 H -0.26764 -0.25931 0.56477
 H179 H -0.17369 -0.24205 0.61545
 H180 H -0.14416 -0.13079 0.64550
 H181 H -0.32101 0.07354 0.57879
 H182 H -0.23307 0.08762 0.63118
 C183 C -0.06888 -0.27287 0.90623
 C184 C -0.01775 -0.31449 0.92005
 C185 C 0.04181 -0.31165 0.89983
 C186 C 0.05407 -0.26429 0.86924
 C187 C 0.00715 -0.21867 0.85762
 C188 C -0.05500 -0.22256 0.87611
 C189 C -0.13492 -0.28236 0.92057
 C190 C -0.18287 -0.23834 0.90885
 C191 C -0.16671 -0.18495 0.88202
 C192 C -0.10367 -0.17716 0.86553
 H193 H -0.15047 -0.32488 0.94028
 H194 H -0.23277 -0.24574 0.92063
 H195 H -0.20373 -0.15025 0.87335
 H196 H -0.09380 -0.13540 0.84447
 H197 H 0.08163 -0.34278 0.90929
 H198 H 0.10159 -0.26183 0.85516
 C199 C 0.08985 0.29083 0.92819
 C200 C 0.02897 0.32093 0.93098
 C201 C -0.02285 0.31265 0.90138
 C202 C -0.01659 0.27280 0.87009
 C203 C 0.04175 0.24023 0.86734
 C204 C 0.09588 0.24926 0.89642
 C205 C 0.14490 0.30108 0.95640
 C206 C 0.20340 0.26917 0.95407
 C207 C 0.20826 0.22661 0.92378
 C208 C 0.15515 0.21647 0.89521
 H209 H 0.14347 0.33405 0.98031
 H210 H 0.24506 0.27730 0.97599
 H211 H 0.25353 0.20144 0.92235
 H212 H 0.16108 0.18263 0.87239
 H213 H -0.06957 0.33537 0.90315
 H214 H -0.05844 0.26593 0.84817
 C215 C -0.28312 -0.11974 0.42912
 C216 C -0.33318 -0.07365 0.42945
 C217 C -0.34535 -0.03319 0.39597
 C218 C -0.30378 -0.03121 0.36526
 C219 C -0.24829 -0.06908 0.36673
 C220 C -0.23760 -0.11424 0.39891
 C221 C -0.27855 -0.17261 0.45773
 C222 C -0.22529 -0.21283 0.45944
 C223 C -0.17612 -0.20185 0.43242
 C224 C -0.18199 -0.15318 0.40239
 H225 H -0.31654 -0.18341 0.47877
 H226 H -0.22178 -0.25214 0.48204
 H227 H -0.13380 -0.23196 0.43438
 H228 H -0.14236 -0.14653 0.38225
 H229 H -0.38332 0.00209 0.39451
 H230 H -0.31326 0.00271 0.34066
 C231 C 0.28671 0.08334 0.41070
 C232 C 0.32382 0.02773 0.42193
 C233 C 0.31402 -0.03191 0.40017
 C234 C 0.26483 -0.03923 0.36946
 C235 C 0.22421 0.01294 0.35960
 C236 C 0.23610 0.07562 0.37946
 C237 C 0.29868 0.14641 0.42990
 C238 C 0.26067 0.20004 0.41906
 C239 C 0.21042 0.19205 0.38892
 C240 C 0.19809 0.13055 0.36918
 H241 H 0.33791 0.15502 0.45311
 H242 H 0.27035 0.24811 0.43406
 H243 H 0.18110 0.23388 0.38066
 H244 H 0.15909 0.12661 0.34568
 H245 H 0.34195 -0.07486 0.40838
 H246 H 0.25604 -0.08737 0.35445
   
