data_POSCAR
  _audit_creation_date              2014-09-24
  _audit_creation_method            'ToBaCCo'
  _symmetry_space_group_name_H-M    'P1'
  _symmetry_Int_Tables_number       1
  _symmetry_cell_setting            triclinic
  loop_
  _symmetry_equiv_pos_as_xyz
 x,y,z
_cell_length_a 49.6903
_cell_length_b 49.7164
_cell_length_c 15.2166
_cell_angle_alpha 90.059700
_cell_angle_beta 89.978700
_cell_angle_gamma 119.910800
loop_
  _atom_site_label
  _atom_site_type_symbol
  _atom_site_fract_x
  _atom_site_fract_y
  _atom_site_fract_z
C1 C 0.21758 0.48480 0.45312
 C2 C 0.21549 0.48070 0.54641
 C3 C 0.23911 0.47826 0.59076
 C4 C 0.26578 0.48197 0.54735
 C5 C 0.26789 0.48662 0.45490
 C6 C 0.24434 0.48862 0.41002
 H7 H 0.24574 0.49033 0.33894
 H8 H 0.23830 0.47673 0.66184
 C9 C 0.51770 -0.26603 0.45303
 C10 C 0.52110 -0.26398 0.54606
 C11 C 0.52206 -0.23886 0.59102
 C12 C 0.51853 -0.21589 0.54725
 C13 C 0.51497 -0.21802 0.45425
 C14 C 0.51396 -0.24316 0.40927
 H15 H 0.51270 -0.24340 0.33812
 H16 H 0.52332 -0.23862 0.66218
 C17 C 1.26393 0.78489 0.45185
 C18 C 1.26262 0.78590 0.54536
 C19 C 1.23771 0.76173 0.59063
 C20 C 1.21425 0.73608 0.54620
 C21 C 1.21546 0.73469 0.45361
 C22 C 1.24043 0.75866 0.40797
 H23 H 1.24024 0.75765 0.33679
 H24 H 1.23724 0.76226 0.66187
 C25 C 0.78440 0.51889 0.45543
 C26 C 0.78495 0.51944 0.54895
 C27 C 0.75955 0.51828 0.59386
 C28 C 0.73407 0.51704 0.54935
 C29 C 0.73434 0.51720 0.45581
 C30 C 0.75928 0.51791 0.41082
 H31 H 0.75918 0.51779 0.33952
 H32 H 0.75966 0.51841 0.66505
 C33 C 0.48717 0.26837 0.45559
 C34 C 0.48364 0.26680 0.54859
 C35 C 0.48111 0.24069 0.59264
 C36 C 0.48364 0.21714 0.54820
 C37 C 0.48708 0.21914 0.45519
 C38 C 0.48918 0.24480 0.41089
 H39 H 0.49056 0.24552 0.33970
 H40 H 0.48007 0.24014 0.66379
 C41 C 0.73391 0.21593 0.45414
 C42 C 0.73482 0.21529 0.54690
 C43 C 0.75946 0.23982 0.59198
 C44 C 0.78345 0.26538 0.54723
 C45 C 0.78269 0.26541 0.45353
 C46 C 0.75790 0.24086 0.40885
 H47 H 0.75750 0.24094 0.33758
 H48 H 0.75922 0.23927 0.66320
 N49 N 0.96732 0.52969 0.09703
 N50 N 0.94415 0.53504 0.11056
 N51 N 1.03271 0.54327 0.15655
 N52 N 1.05552 0.55839 0.21319
 N53 N 1.03267 0.56226 0.09666
 N54 N 1.05546 0.59085 0.11084
 N55 N 0.96740 0.51071 0.15689
 N56 N 0.94431 0.50261 0.21281
 C57 C 0.93006 0.51790 0.18274
 C58 C 1.06949 0.58791 0.18335
 N59 N 1.03265 0.46686 0.09143
 N60 N 1.05552 0.46096 0.10359
 N61 N 0.96742 0.45280 0.15378
 N62 N 0.94483 0.43717 0.21059
 N63 N 0.96731 0.43434 0.09179
 N64 N 0.94463 0.40560 0.10469
 N65 N 1.03271 0.48534 0.15330
 N66 N 1.05561 0.49253 0.20929
 Mn67 Mn 1.00007 0.49803 0.15610
 C68 C 1.06961 0.47725 0.17707
 C69 C 0.93083 0.40790 0.17870
 N70 N 1.03261 0.56322 -0.09275
 N71 N 1.05527 0.59196 -0.10584
 N72 N 0.96726 0.51230 -0.15441
 N73 N 0.94488 0.50579 -0.21170
 N74 N 0.96729 0.53072 -0.09243
 N75 N 0.94493 0.53728 -0.10580
 N76 N 1.03252 0.54473 -0.15464
 N77 N 1.05508 0.56034 -0.21155
 Mn78 Mn 0.99997 0.54679 0.00219
 C79 C 1.06908 0.58964 -0.17984
 C80 C 0.93115 0.52139 -0.18002
 N81 N 0.96710 0.43525 -0.09765
 N82 N 0.94392 0.40679 -0.11114
 N83 N 1.03244 0.48678 -0.15767
 N84 N 1.05568 0.49502 -0.21314
 N85 N 1.03246 0.46777 -0.09784
 N86 N 1.05572 0.46252 -0.11088
 N87 N 0.96713 0.45430 -0.15745
 N88 N 0.94401 0.43938 -0.21329
 Mn89 Mn 0.99987 0.45073 -0.00312
 Mn90 Mn 0.99983 0.49951 -0.15700
 Cl91 Cl 0.99993 0.49877 -0.00046
 C92 C 0.92978 0.40989 -0.18324
 C93 C 1.06992 0.47976 -0.18279
 N94 N 0.46896 0.43636 0.09524
 N95 N 0.46327 0.40773 0.10848
 N96 N 0.45530 0.48801 0.15597
 N97 N 0.44016 0.49596 0.21191
 N98 N 0.43643 0.46922 0.09545
 N99 N 0.40789 0.46385 0.10848
 N100 N 0.48782 0.45515 0.15579
 N101 N 0.49549 0.43987 0.21190
 C102 C 0.48009 0.41044 0.18119
 C103 C 0.41074 0.48079 0.18105
 N104 N 0.53193 0.56435 0.09376
 N105 N 0.53783 0.59306 0.10678
 N106 N 0.54582 0.51295 0.15484
 N107 N 0.56138 0.50598 0.21199
 N108 N 0.56444 0.53146 0.09351
 N109 N 0.59320 0.53761 0.10721
 N110 N 0.51329 0.54579 0.15498
 N111 N 0.50600 0.56134 0.21137
 Mn112 Mn 0.50055 0.50047 0.15637
 C113 C 0.52137 0.59067 0.18006
 C114 C 0.59077 0.52141 0.18096
 N115 N 0.43592 0.46885 -0.09389
 N116 N 0.40726 0.46317 -0.10672
 N117 N 0.48707 0.45460 -0.15549
 N118 N 0.49469 0.43922 -0.21145
 N119 N 0.46852 0.43600 -0.09423
 N120 N 0.46298 0.40739 -0.10681
 N121 N 0.45456 0.48746 -0.15502
 N122 N 0.43914 0.49495 -0.21117
 Mn123 Mn 0.45214 0.45228 0.00067
 C124 C 0.40978 0.47973 -0.17984
 C125 C 0.47956 0.40993 -0.17995
 N126 N 0.56396 0.53096 -0.09601
 N127 N 0.59242 0.53604 -0.10896
 N128 N 0.51259 0.54517 -0.15603
 N129 N 0.50488 0.56048 -0.21194
 N130 N 0.53151 0.56393 -0.09556
 N131 N 0.53722 0.59256 -0.10856
 N132 N 0.54502 0.51225 -0.15654
 N133 N 0.56001 0.50407 -0.21234
 Mn134 Mn 0.54828 0.54798 -0.00111
 Mn135 Mn 0.49980 0.49988 -0.15673
 Cl136 Cl 0.50020 0.50015 -0.00018
 C137 C 0.58943 0.51903 -0.18153
 C138 C 0.52034 0.58988 -0.18108
 N139 N 0.43466 -0.03278 0.09299
 N140 N 0.40584 -0.05533 0.10586
 N141 N 0.48610 0.03219 0.15544
 N142 N 0.49374 0.05509 0.21174
 N143 N 0.46772 0.03254 0.09401
 N144 N 0.46230 0.05570 0.10679
 N145 N 0.45312 -0.03309 0.15424
 N146 N 0.43740 -0.05583 0.21053
 C147 C 0.40807 -0.06951 0.17905
 C148 C 0.47879 0.06950 0.18020
 N149 N 0.56272 0.03185 0.09635
 N150 N 0.59131 0.05474 0.11022
 N151 N 0.51092 -0.03350 0.15552
 N152 N 0.50316 -0.05649 0.21147
 N153 N 0.52983 -0.03346 0.09513
 N154 N 0.53547 -0.05644 0.10824
 N155 N 0.54380 0.03175 0.15683
 N156 N 0.55894 0.05454 0.21348
 Mn157 Mn 0.49848 -0.00068 0.15648
 C158 C 0.58842 0.06865 0.18325
 C159 C 0.51855 -0.07057 0.18068
 N160 N 0.46836 0.03287 -0.09543
 N161 N 0.46294 0.05600 -0.10857
 N162 N 0.45420 -0.03252 -0.15670
 N163 N 0.43897 -0.05545 -0.21287
 N164 N 0.43536 -0.03243 -0.09629
 N165 N 0.40675 -0.05532 -0.10961
 N166 N 0.48717 0.03274 -0.15589
 N167 N 0.49509 0.05576 -0.21182
 Mn168 Mn 0.45121 0.00006 -0.00121
 C169 C 0.47989 0.07003 -0.18111
 C170 C 0.40953 -0.06942 -0.18226
 N171 N 0.53042 -0.03323 -0.09420
 N172 N 0.53598 -0.05629 -0.10721
 N173 N 0.54487 0.03222 -0.15471
 N174 N 0.56058 0.05464 -0.21187
 N175 N 0.56337 0.03208 -0.09333
 N176 N 0.59223 0.05440 -0.10704
 N177 N 0.51191 -0.03301 -0.15544
 N178 N 0.50436 -0.05588 -0.21183
 Mn179 Mn 0.54692 -0.00068 0.00102
 Mn180 Mn 0.49953 -0.00015 -0.15664
 Cl181 Cl 0.49904 -0.00035 -0.00009
 C182 C 0.51945 -0.07017 -0.18054
 C183 C 0.58995 0.06828 -0.18083
 C184 C 1.14286 0.47829 0.30140
 C185 C 1.13700 0.45795 0.37148
 C186 C 1.16158 0.45959 0.42028
 C187 C 1.19262 0.48203 0.40084
 C188 C 1.19819 0.50149 0.32741
 C189 C 1.17350 0.49978 0.27875
 C190 C 1.11734 0.47776 0.25505
 C191 C 1.09568 0.47746 0.21837
 H192 H 1.11337 0.44095 0.38897
 H193 H 1.15622 0.44307 0.47301
 H194 H 1.22157 0.51915 0.31009
 H195 H 1.17831 0.51565 0.22452
 C196 C 0.52105 0.66308 0.30570
 C197 C 0.54116 0.67693 0.37667
 C198 C 0.54045 0.70060 0.42433
 C199 C 0.51922 0.71063 0.40285
 C200 C 0.49984 0.69715 0.32893
 C201 C 0.50061 0.67343 0.28138
 C202 C 0.52110 0.63785 0.25924
 C203 C 0.52120 0.61645 0.22217
 H204 H 0.55743 0.66944 0.39529
 H205 H 0.55716 0.71151 0.47675
 H206 H 0.48302 0.70388 0.31001
 H207 H 0.48493 0.66288 0.22640
 C208 C 0.33511 -0.14146 0.30451
 C209 C 0.32398 -0.17226 0.27895
 C210 C 0.30012 -0.19653 0.32645
 C211 C 0.28729 -0.19043 0.40157
 C212 C 0.29805 -0.15914 0.42425
 C213 C 0.32185 -0.13498 0.37663
 C214 C 0.36053 -0.11644 0.25817
 C215 C 0.38210 -0.09517 0.22115
 H216 H 0.33405 -0.17755 0.22306
 H217 H 0.29281 -0.22011 0.30656
 H218 H 0.28763 -0.15315 0.47767
 H219 H 0.32994 -0.11119 0.39622
 C220 C 0.85610 0.51571 0.30618
 C221 C 0.83908 0.49258 0.36827
 C222 C 0.81521 0.49311 0.41549
 C223 C 0.80836 0.51701 0.40169
 C224 C 0.82491 0.53962 0.33751
 C225 C 0.84875 0.53904 0.29028
 C226 C 0.88179 0.51616 0.26111
 C227 C 0.90367 0.51686 0.22464
 H228 H 0.84455 0.47439 0.38100
 H229 H 0.80245 0.47526 0.46396
 H230 H 0.81992 0.55818 0.32580
 H231 H 0.86176 0.55704 0.24241
 C232 C 0.48205 0.33874 0.30519
 C233 C 0.50719 0.33372 0.29400
 C234 C 0.50857 0.31040 0.34168
 C235 C 0.48495 0.29208 0.40162
 C236 C 0.45938 0.29668 0.41070
 C237 C 0.45804 0.32000 0.36306
 C238 C 0.48132 0.36371 0.25957
 C239 C 0.48073 0.38491 0.22297
 H240 H 0.52589 0.34809 0.24938
 H241 H 0.52841 0.30713 0.33354
 H242 H 0.44071 0.28251 0.45565
 H243 H 0.43846 0.32364 0.37210
 C244 C 0.65977 0.14220 0.30869
 C245 C 0.65317 0.15869 0.37156
 C246 C 0.67729 0.18301 0.41814
 C247 C 0.70827 0.19092 0.40275
 C248 C 0.71476 0.17464 0.33851
 C249 C 0.69062 0.15034 0.29191
 C250 C 0.63485 0.11651 0.26287
 C251 C 0.61380 0.09477 0.22572
 H252 H 0.62939 0.15261 0.38498
 H253 H 0.67183 0.19554 0.46660
 H254 H 0.73849 0.18039 0.32569
 H255 H 0.69599 0.13772 0.24346
 C256 C 0.48307 0.14413 -0.30581
 C257 C 0.46358 0.15566 -0.28153
 C258 C 0.46409 0.18004 -0.32872
 C259 C 0.48382 0.19305 -0.40216
 C260 C 0.50406 0.18177 -0.42369
 C261 C 0.50349 0.15744 -0.37639
 C262 C 0.48182 0.11828 -0.25965
 C263 C 0.48087 0.09637 -0.22282
 H264 H 0.44767 0.14552 -0.22687
 H265 H 0.44797 0.18771 -0.30988
 H266 H 0.52097 0.19221 -0.47583
 H267 H 0.51903 0.14900 -0.39495
 C268 C 0.66038 0.51535 -0.30506
 C269 C 0.65387 0.49618 -0.37854
 C270 C 0.67802 0.49614 -0.42558
 C271 C 0.70927 0.51570 -0.40077
 C272 C 0.71531 0.53399 -0.32432
 C273 C 0.69110 0.53396 -0.27745
 C274 C 0.63559 0.51651 -0.25956
 C275 C 0.61465 0.51766 -0.22302
 H276 H 0.63011 0.48131 -0.39977
 H277 H 0.67206 0.48032 -0.48045
 H278 H 0.73888 0.54960 -0.30296
 H279 H 0.69640 0.54890 -0.22057
 C280 C 0.85555 0.33891 -0.30744
 C281 C 0.84285 0.34545 -0.38071
 C282 C 0.81870 0.32135 -0.42772
 C283 C 0.80705 0.29009 -0.40315
 C284 C 0.81936 0.28401 -0.32693
 C285 C 0.84353 0.30819 -0.28008
 C286 C 0.88139 0.36371 -0.26178
 C287 C 0.90335 0.38466 -0.22507
 H288 H 0.85166 0.36921 -0.40172
 H289 H 0.80875 0.32737 -0.48224
 H290 H 0.81141 0.26044 -0.30567
 H291 H 0.85319 0.30286 -0.22332
 C292 C 0.51733 -0.14384 -0.30568
 C293 C 0.49685 -0.15756 -0.37598
 C294 C 0.49680 -0.18163 -0.42355
 C295 C 0.51764 -0.19221 -0.40259
 C296 C 0.53739 -0.17884 -0.32930
 C297 C 0.53737 -0.15473 -0.28187
 C298 C 0.51814 -0.11816 -0.25943
 C299 C 0.51879 -0.09638 -0.22246
 H300 H 0.48088 -0.14963 -0.39419
 H301 H 0.47986 -0.19239 -0.47548
 H302 H 0.55395 -0.18596 -0.31084
 H303 H 0.55333 -0.14428 -0.22742
 C304 C 0.33832 0.48195 -0.30506
 C305 C 0.30731 0.46168 -0.28281
 C306 C 0.28339 0.46200 -0.33045
 C307 C 0.29006 0.48232 -0.40239
 C308 C 0.32154 0.50332 -0.42181
 C309 C 0.34534 0.50294 -0.37405
 C310 C 0.36304 0.48096 -0.25855
 C311 C 0.38416 0.48030 -0.22157
 H312 H 0.30160 0.44533 -0.22938
 H313 H 0.25965 0.44530 -0.31322
 H314 H 0.32792 0.52067 -0.47260
 H315 H 0.36929 0.51908 -0.39104
 C316 C 1.14149 0.66189 -0.30595
 C317 C 1.15956 0.65573 -0.36423
 C318 C 1.18351 0.67991 -0.41151
 C319 C 1.18948 0.71051 -0.40157
 C320 C 1.17162 0.71663 -0.34184
 C321 C 1.14767 0.69241 -0.29449
 C322 C 1.11619 0.63677 -0.25960
 C323 C 1.09480 0.61543 -0.22228
 H324 H 1.15503 0.63222 -0.37350
 H325 H 1.19730 0.67475 -0.45623
 H326 H 1.17587 0.74006 -0.33315
 H327 H 1.13381 0.69744 -0.24962
 C328 C 0.85950 0.52296 -0.30580
 C329 C 0.82890 0.50406 -0.27768
 C330 C 0.80438 0.50338 -0.32457
 C331 C 0.81002 0.52129 -0.40151
 C332 C 0.84114 0.54110 -0.42696
 C333 C 0.86558 0.54172 -0.37991
 C334 C 0.88462 0.52260 -0.25991
 C335 C 0.90577 0.52209 -0.22273
 H336 H 0.82393 0.48944 -0.22029
 H337 H 0.78092 0.48761 -0.30272
 H338 H 0.84676 0.55666 -0.48226
 H339 H 0.88925 0.55680 -0.40153
 C340 C 0.48278 0.33893 -0.30432
 C341 C 0.50337 0.34612 -0.37454
 C342 C 0.50405 0.32246 -0.42219
 C343 C 0.48375 0.29097 -0.40136
 C344 C 0.46387 0.28416 -0.32821
 C345 C 0.46325 0.30794 -0.28068
 C346 C 0.48140 0.36345 -0.25799
 C347 C 0.48043 0.38443 -0.22124
 H348 H 0.51895 0.37008 -0.39259
 H349 H 0.52107 0.32896 -0.47407
 H350 H 0.44771 0.26040 -0.30991
 H351 H 0.44721 0.30212 -0.22628
 C352 C 0.66261 0.14020 -0.30686
 C353 C 0.67962 0.13420 -0.36946
 C354 C 0.70348 0.15865 -0.41627
 C355 C 0.71037 0.18934 -0.40137
 C356 C 0.69358 0.19525 -0.33741
 C357 C 0.66976 0.17078 -0.29058
 C358 C 0.63733 0.11495 -0.26097
 C359 C 0.61586 0.09372 -0.22365
 H360 H 0.67430 0.11062 -0.38252
 H361 H 0.71641 0.15366 -0.46457
 H362 H 0.69855 0.21875 -0.32503
 H363 H 0.65671 0.17568 -0.24239
 C364 C 1.14437 0.48292 -0.30527
 C365 C 1.15846 0.50368 -0.37467
 C366 C 1.18236 0.50346 -0.42236
 C367 C 1.19230 0.48206 -0.40239
 C368 C 1.17874 0.46217 -0.32963
 C369 C 1.15480 0.46246 -0.28209
 C370 C 1.11850 0.48196 -0.26003
 C371 C 1.09647 0.48100 -0.22393
 H372 H 1.15080 0.51989 -0.39248
 H373 H 1.19317 0.52024 -0.47468
 H374 H 1.18549 0.44526 -0.31205
 H375 H 1.14402 0.44628 -0.22833
 C376 C 0.51900 0.66194 -0.30415
 C377 C 0.54333 0.69241 -0.29251
 C378 C 0.54372 0.71666 -0.33999
 C379 C 0.51989 0.71056 -0.40013
 C380 C 0.49510 0.68006 -0.40961
 C381 C 0.49476 0.65586 -0.36217
 C382 C 0.51938 0.63676 -0.25893
 C383 C 0.51978 0.61545 -0.22262
 H384 H 0.56220 0.69734 -0.24775
 H385 H 0.56296 0.74004 -0.33160
 H386 H 0.47630 0.67497 -0.45475
 H387 H 0.47580 0.63237 -0.37151
 C388 C 0.33735 -0.14261 -0.30556
 C389 C 0.30690 -0.14880 -0.29238
 C390 C 0.28246 -0.17252 -0.33965
 C391 C 0.28833 -0.19007 -0.40111
 C392 C 0.31883 -0.18433 -0.41216
 C393 C 0.34324 -0.16059 -0.36492
 C394 C 0.36267 -0.11716 -0.26048
 C395 C 0.38401 -0.09551 -0.22408
 H396 H 0.30212 -0.13501 -0.24658
 H397 H 0.25909 -0.17668 -0.33006
 H398 H 0.32375 -0.19790 -0.45838
 H399 H 0.36672 -0.15602 -0.37545
 C400 C 0.51777 -0.14359 0.30451
 C401 C 0.54210 -0.13780 0.36182
 C402 C 0.54150 -0.16213 0.40922
 C403 C 0.51636 -0.19248 0.40044
 C404 C 0.49242 -0.19830 0.34103
 C405 C 0.49306 -0.17391 0.29357
 C406 C 0.51784 -0.11822 0.25904
 C407 C 0.51807 -0.09662 0.22252
 H408 H 0.56136 -0.11444 0.37057
 H409 H 0.56040 -0.15726 0.45377
 H410 H 0.47292 -0.22156 0.33315
 H411 H 0.47413 -0.17862 0.24931
 C412 C 0.33902 0.48278 0.30477
 C413 C 0.31996 0.45831 0.36087
 C414 C 0.29644 0.45929 0.40844
 C415 C 0.29194 0.48495 0.40107
 C416 C 0.31059 0.50907 0.34288
 C417 C 0.33414 0.50804 0.29525
 C418 C 0.36410 0.48226 0.25919
 C419 C 0.38531 0.48165 0.22270
 H420 H 0.32350 0.43862 0.36853
 H421 H 0.28200 0.44026 0.45198
 H422 H 0.30737 0.52897 0.33608
 H423 H 0.34877 0.52709 0.25195
 C424 C 1.14162 0.66041 0.30924
 C425 C 1.13521 0.67847 0.36681
 C426 C 1.15930 0.70290 0.41295
 C427 C 1.19005 0.70936 0.40254
 C428 C 1.19643 0.69151 0.34355
 C429 C 1.17228 0.66706 0.29731
 C430 C 1.11660 0.63487 0.26348
 C431 C 1.09526 0.61343 0.22632
 H432 H 1.11158 0.67359 0.37630
 H433 H 1.15396 0.71669 0.45715
 H434 H 1.22000 0.69619 0.33453
 H435 H 1.17748 0.65323 0.25283
 C436 C 0.48129 0.14350 0.30391
 C437 C 0.45739 0.13845 0.36208
 C438 C 0.45895 0.16317 0.40997
 C439 C 0.48463 0.19319 0.40084
 C440 C 0.50813 0.19828 0.34056
 C441 C 0.50652 0.17350 0.29262
 C442 C 0.48036 0.11770 0.25826
 C443 C 0.47962 0.09582 0.22174
 H444 H 0.43774 0.11534 0.37119
 H445 H 0.44038 0.15886 0.45519
 H446 H 0.52805 0.22126 0.33240
 H447 H 0.52515 0.17765 0.24778
 C448 C 0.66328 0.52140 0.30647
 C449 C 0.68063 0.54457 0.36823
 C450 C 0.70423 0.54363 0.41566
 C451 C 0.71047 0.51928 0.40237
 C452 C 0.69353 0.49657 0.33866
 C453 C 0.66996 0.49757 0.29122
 C454 C 0.63803 0.52158 0.26073
 C455 C 0.61658 0.52154 0.22365
 H456 H 0.67569 0.56315 0.38042
 H457 H 0.71731 0.56155 0.46373
 H458 H 0.69807 0.47769 0.32734
 H459 H 0.65668 0.47954 0.24357
 C460 C 0.85800 0.33564 0.30304
 C461 C 0.86362 0.31796 0.36412
 C462 C 0.83903 0.29462 0.41185
 C463 C 0.80862 0.28897 0.39956
 C464 C 0.80301 0.30620 0.33643
 C465 C 0.82762 0.32952 0.28869
 C466 C 0.88351 0.36073 0.25741
 C467 C 0.90503 0.38210 0.22067
 H468 H 0.88703 0.32248 0.37563
 H469 H 0.84375 0.28131 0.45942
 H470 H 0.77971 0.30211 0.32588
 H471 H 0.82303 0.34307 0.24160
   
