data_POSCAR
  _audit_creation_date              2014-09-24
  _audit_creation_method            'ToBaCCo'
  _symmetry_space_group_name_H-M    'P1'
  _symmetry_Int_Tables_number       1
  _symmetry_cell_setting            triclinic
  loop_
  _symmetry_equiv_pos_as_xyz
 x,y,z
_cell_length_a 33.5057
_cell_length_b 33.7238
_cell_length_c 33.5856
_cell_angle_alpha 91.460400
_cell_angle_beta 90.865900
_cell_angle_gamma 90.919200
loop_
  _atom_site_label
  _atom_site_type_symbol
  _atom_site_fract_x
  _atom_site_fract_y
  _atom_site_fract_z
C1 C -0.05373 0.51570 0.26596
 C2 C -0.01656 0.52239 0.24854
 C3 C -0.00818 0.55886 0.23118
 C4 C -0.03727 0.58858 0.22953
 C5 C -0.07444 0.58117 0.24758
 C6 C -0.08324 0.54504 0.26620
 C7 C 0.01303 0.49035 0.24710
 C8 C 0.00270 0.45340 0.22921
 C9 C 0.03007 0.42232 0.22870
 C10 C 0.06779 0.42850 0.24672
 C11 C 0.07849 0.46511 0.26497
 C12 C 0.05116 0.49625 0.26442
 H13 H -0.05969 0.48685 0.27818
 H14 H 0.02020 0.56254 0.21664
 H15 H -0.02676 0.44884 0.21594
 H16 H 0.05888 0.52452 0.27883
 H17 H -0.09549 0.60501 0.24998
 H18 H 0.08929 0.40483 0.24604
 C19 C -0.04713 0.48645 0.73571
 C20 C -0.01003 0.47840 0.75314
 C21 C -0.00360 0.44164 0.77046
 C22 C -0.03431 0.41249 0.77099
 C23 C -0.07084 0.42080 0.75161
 C24 C -0.07769 0.45762 0.73440
 C25 C 0.02172 0.50912 0.75409
 C26 C 0.01452 0.54655 0.77145
 C27 C 0.04392 0.57700 0.77161
 C28 C 0.08027 0.56889 0.75255
 C29 C 0.08761 0.53162 0.73503
 C30 C 0.05858 0.50148 0.73662
 H31 H -0.05203 0.51528 0.72315
 H32 H 0.02468 0.43735 0.78558
 H33 H -0.01360 0.55076 0.78626
 H34 H 0.06387 0.47277 0.72261
 H35 H -0.09381 0.39804 0.74821
 H36 H 0.10282 0.59190 0.74961
 C37 C 0.27348 -0.05451 0.51070
 C38 C 0.25339 -0.01873 0.51698
 C39 C 0.23324 -0.01195 0.55260
 C40 C 0.23274 -0.04073 0.58190
 C41 C 0.25257 -0.07664 0.57535
 C42 C 0.27334 -0.08420 0.53967
 C43 C 0.25266 0.01131 0.48578
 C44 C 0.23440 0.00222 0.44869
 C45 C 0.23411 0.03009 0.41802
 C46 C 0.25320 0.06724 0.42576
 C47 C 0.27162 0.07664 0.46272
 C48 C 0.27067 0.04868 0.49288
 H49 H 0.28786 -0.05944 0.48238
 H50 H 0.21777 0.01572 0.55744
 H51 H 0.22160 -0.02720 0.44379
 H52 H 0.28510 0.05541 0.52141
 H53 H 0.25251 -0.09804 0.59884
 H54 H 0.25226 0.09019 0.40386
 C55 C 0.73036 -0.04986 0.48204
 C56 C 0.74571 -0.01161 0.47579
 C57 C 0.76026 -0.00204 0.43832
 C58 C 0.76029 -0.03048 0.40717
 C59 C 0.74471 -0.06864 0.41371
 C60 C 0.72898 -0.07907 0.45099
 C61 C 0.74658 0.01869 0.50846
 C62 C 0.76633 0.01130 0.54465
 C63 C 0.77027 0.04108 0.57496
 C64 C 0.75259 0.07818 0.56809
 C65 C 0.73174 0.08535 0.53253
 C66 C 0.72911 0.05560 0.50275
 H67 H 0.71767 -0.05554 0.51079
 H68 H 0.77195 0.02759 0.43359
 H69 H 0.78075 -0.01698 0.54766
 H70 H 0.71357 0.06123 0.47496
 H71 H 0.74715 -0.09066 0.38995
 H72 H 0.75283 0.10119 0.59114
 C73 C 0.49568 0.26768 1.04940
 C74 C 0.48838 0.24931 1.01209
 C75 C 0.45110 0.23121 1.00348
 C76 C 0.42060 0.23123 1.03204
 C77 C 0.42884 0.25002 1.06938
 C78 C 0.46580 0.26867 1.07806
 C79 C 0.51946 0.25049 0.98153
 C80 C 0.55677 0.23365 0.98888
 C81 C 0.58700 0.23449 0.96005
 C82 C 0.57909 0.25459 0.92440
 C83 C 0.54204 0.27212 0.91712
 C84 C 0.51205 0.26921 0.94552
 H85 H 0.52417 0.28245 1.05546
 H86 H 0.44590 0.21842 0.97394
 H87 H 0.56087 0.21805 1.01636
 H88 H 0.48345 0.28290 0.94036
 H89 H 0.40720 0.24880 1.09291
 H90 H 0.60201 0.25785 0.90233
 C91 C 0.50154 0.73456 1.06137
 C92 C 0.50994 0.75062 1.02439
 C93 C 0.54757 0.76791 1.01790
 C94 C 0.57729 0.76978 1.04836
 C95 C 0.56801 0.75262 1.08519
 C96 C 0.53047 0.73519 1.09186
 C97 C 0.47876 0.75006 0.99278
 C98 C 0.44133 0.76628 1.00057
 C99 C 0.41042 0.76495 0.97153
 C100 C 0.41829 0.74636 0.93436
 C101 C 0.45556 0.72953 0.92626
 C102 C 0.48583 0.73199 0.95562
 H103 H 0.47235 0.72143 1.06633
 H104 H 0.55222 0.78174 0.98962
 H105 H 0.43636 0.77867 1.03008
 H106 H 0.51447 0.71854 0.95026
 H107 H 0.59045 0.75063 1.10848
 H108 H 0.39616 0.74653 0.91060
 B109 B 0.99846 1.04028 0.02278
 B110 B 1.02365 0.99895 0.03939
 B111 B 0.97205 0.99924 0.03768
 B112 B 0.95706 1.02335 -0.00424
 B113 B 0.99934 1.03962 -0.02832
 B114 B 1.04067 1.02418 -0.00172
 B115 B 0.99871 0.95669 -0.02953
 B116 B 0.97379 0.99748 -0.04597
 B117 B 1.02492 0.99825 -0.04439
 B118 B 1.04010 0.97272 -0.00190
 B119 B 0.99823 0.95696 0.02190
 B120 B 0.95658 0.97234 -0.00437
 B121 B 0.54386 0.50026 0.47583
 B122 B 0.50195 0.52549 0.45996
 B123 B 0.50131 0.47417 0.46035
 B124 B 0.52733 0.45955 0.50191
 B125 B 0.54443 0.50157 0.52732
 B126 B 0.52916 0.54243 0.50118
 B127 B 0.46109 0.50216 0.52721
 B128 B 0.50245 0.47688 0.54361
 B129 B 0.50335 0.52809 0.54311
 B130 B 0.47752 0.54285 0.50135
 B131 B 0.46013 0.50044 0.47580
 B132 B 0.47587 0.45964 0.50178
 C133 C 1.00626 1.30870 0.17081
 C134 C 0.99416 1.34380 0.15270
 C135 C 1.00077 1.38072 0.17194
 C136 C 1.01973 1.38326 0.20955
 C137 C 1.03058 1.34811 0.22815
 C138 C 1.02393 1.31133 0.20905
 C139 C 1.00213 1.26963 0.14966
 N140 N 1.01649 1.23654 0.16662
 N141 N 1.01453 1.20161 0.14733
 C142 C 0.99812 1.19812 0.11018
 N143 N 0.98341 1.23114 0.09323
 N144 N 0.98543 1.26619 0.11256
 C145 C 0.99732 1.15918 0.08859
 C146 C 0.97782 1.15378 0.05170
 C147 C 0.97784 1.11682 0.03174
 C148 C 0.99701 1.08343 0.04760
 C149 C 1.01703 1.09029 0.08448
 C150 C 1.01690 1.12687 0.10469
 H151 H 0.98038 1.34286 0.12332
 H152 H 0.99228 1.40736 0.15683
 H153 H 1.04460 1.34910 0.25743
 H154 H 1.03332 1.28497 0.22412
 H155 H 0.96214 1.17800 0.03824
 H156 H 0.96089 1.11477 0.00459
 H157 H 1.03440 1.06848 0.09820
 H158 H 1.03304 1.12988 0.13282
 C159 C 0.98380 0.69602 0.16816
 C160 C 0.94507 0.68022 0.17169
 C161 C 0.93825 0.64539 0.19214
 C162 C 0.97006 0.62467 0.20961
 C163 C 1.00907 0.64075 0.20588
 C164 C 1.01574 0.67612 0.18576
 C165 C 0.99018 0.73262 0.14541
 N166 N 1.02443 0.75474 0.14923
 N167 N 1.02913 0.78798 0.12887
 C168 C 0.99989 0.80013 0.10368
 N169 N 0.96590 0.77784 0.09987
 N170 N 0.96113 0.74491 0.12027
 C171 C 1.00360 0.83730 0.08130
 C172 C 0.97681 0.84417 0.05017
 C173 C 0.97702 0.88027 0.03115
 C174 C 1.00153 0.91275 0.04361
 C175 C 1.03263 0.90263 0.07063
 C176 C 1.03294 0.86630 0.09021
 H177 H 0.91971 0.69471 0.15840
 H178 H 0.90790 0.63396 0.19236
 H179 H 1.03457 0.62699 0.21960
 H180 H 1.04597 0.68764 0.18364
 H181 H 0.95516 0.82165 0.04039
 H182 H 0.95598 0.88220 0.00764
 H183 H 1.05840 0.92154 0.07560
 H184 H 1.05620 0.86099 0.11207
 C185 C 0.97983 1.30431 -0.16784
 C186 C 0.94191 1.32024 -0.17394
 C187 C 0.93740 1.35557 -0.19395
 C188 C 0.97073 1.37631 -0.20886
 C189 C 1.00890 1.36015 -0.20231
 C190 C 1.01331 1.32469 -0.18210
 C191 C 0.98392 1.26648 -0.14694
 N192 N 1.02036 1.25232 -0.13691
 N193 N 1.02358 1.21801 -0.11836
 C194 C 0.99048 1.19649 -0.10921
 N195 N 0.95414 1.21075 -0.11919
 N196 N 0.95093 1.24499 -0.13760
 C197 C 0.99357 1.15799 -0.08941
 C198 C 0.95989 1.13359 -0.08600
 C199 C 0.96266 1.09702 -0.06803
 C200 C 0.99866 1.08267 -0.05182
 C201 C 1.03232 1.10789 -0.05641
 C202 C 1.02998 1.14463 -0.07464
 H203 H 0.91545 1.30565 -0.16284
 H204 H 0.90755 1.36714 -0.19596
 H205 H 1.03555 1.37375 -0.21400
 H206 H 1.04297 1.31298 -0.17815
 H207 H 0.93123 1.14219 -0.09804
 H208 H 0.93643 1.07945 -0.06943
 H209 H 1.06137 1.10044 -0.04730
 H210 H 1.05693 1.16250 -0.07720
 C211 C 1.02506 0.69080 -0.17464
 C212 C 1.06370 0.67611 -0.17885
 C213 C 1.06977 0.63874 -0.19603
 C214 C 1.03733 0.61471 -0.21003
 C215 C 0.99842 0.62960 -0.20518
 C216 C 0.99245 0.66708 -0.18771
 C217 C 1.01930 0.73068 -0.15658
 N218 N 0.98252 0.74319 -0.14592
 N219 N 0.97792 0.77891 -0.12886
 C220 C 1.00989 0.80356 -0.12198
 N221 N 1.04651 0.79109 -0.13294
 N222 N 1.05112 0.75545 -0.14985
 C223 C 1.00560 0.84260 -0.10163
 C224 C 1.03853 0.86839 -0.09740
 C225 C 1.03565 0.90389 -0.07579
 C226 C 1.00005 0.91534 -0.05684
 C227 C 0.96667 0.88981 -0.06338
 C228 C 0.96934 0.85403 -0.08506
 H229 H 1.08953 0.69330 -0.16838
 H230 H 1.10016 0.62847 -0.19672
 H231 H 0.97231 0.61342 -0.21634
 H232 H 0.96226 0.67771 -0.18508
 H233 H 1.06697 0.86105 -0.11033
 H234 H 1.06231 0.92227 -0.07352
 H235 H 0.93808 0.89626 -0.05112
 H236 H 0.94308 0.83500 -0.08811
 C237 C 1.17496 1.00778 0.30604
 C238 C 1.16233 0.98817 0.34012
 C239 C 1.18225 0.99463 0.37678
 C240 C 1.21509 1.02145 0.38055
 C241 C 1.22801 1.04014 0.34577
 C242 C 1.20838 1.03335 0.30929
 C243 C 1.15327 1.00277 0.26730
 N244 N 1.16782 1.02021 0.23447
 N245 N 1.14805 1.01754 0.19989
 C246 C 1.11275 0.99734 0.19641
 N247 N 1.09821 0.97949 0.22915
 N248 N 1.11808 0.98215 0.26391
 C249 C 1.09057 0.99631 0.15778
 C250 C 1.05420 0.97568 0.15228
 C251 C 1.03364 0.97646 0.11559
 C252 C 1.04841 0.99761 0.08272
 C253 C 1.08481 1.01837 0.08980
 C254 C 1.10551 1.01753 0.12593
 H255 H 1.13667 0.96823 0.33865
 H256 H 1.17027 0.98002 0.40239
 H257 H 1.25418 1.05935 0.34602
 H258 H 1.21940 1.04862 0.28359
 H259 H 1.04142 0.95911 0.17629
 H260 H 1.00561 0.96023 0.11320
 H261 H 1.09770 1.03712 0.06855
 H262 H 1.13314 1.03453 0.12896
 C263 C 1.16976 0.98078 -0.30932
 C264 C 1.14979 0.98215 -0.34635
 C265 C 1.17044 0.97564 -0.38171
 C266 C 1.21118 0.96671 -0.38065
 C267 C 1.23118 0.96508 -0.34373
 C268 C 1.21075 0.97253 -0.30835
 C269 C 1.14766 0.98691 -0.27194
 N270 N 1.16651 1.00107 -0.23827
 N271 N 1.14662 1.00562 -0.20441
 C272 C 1.10720 0.99582 -0.20282
 N273 N 1.08839 0.98172 -0.23650
 N274 N 1.10815 0.97759 -0.27042
 C275 C 1.08562 0.99846 -0.16482
 C276 C 1.05353 0.97291 -0.15793
 C277 C 1.03457 0.97378 -0.12126
 C278 C 1.04733 0.99905 -0.08883
 C279 C 1.07602 1.02806 -0.09909
 C280 C 1.09617 1.02678 -0.13533
 H281 H 1.11824 0.98856 -0.34797
 H282 H 1.15450 0.97696 -0.40994
 H283 H 1.26268 0.95840 -0.34235
 H284 H 1.22681 0.97105 -0.28022
 H285 H 1.04308 0.95184 -0.18080
 H286 H 1.00881 0.95466 -0.11967
 H287 H 1.08330 1.05270 -0.08017
 H288 H 1.11927 1.04877 -0.14068
 C289 C 0.81381 0.99423 0.29415
 C290 C 0.83176 1.00822 0.33007
 C291 C 0.81405 1.00076 0.36658
 C292 C 0.77798 0.97910 0.36814
 C293 C 0.75960 0.96572 0.33224
 C294 C 0.77727 0.97325 0.29565
 C295 C 0.83399 1.00027 0.25565
 N296 N 0.81683 0.98749 0.22058
 N297 N 0.83600 0.99130 0.18634
 C298 C 0.87315 1.00803 0.18575
 N299 N 0.89007 1.02111 0.22076
 N300 N 0.87091 1.01737 0.25492
 C301 C 0.89591 1.00986 0.14827
 C302 C 0.93605 1.02165 0.14913
 C303 C 0.95858 1.02007 0.11458
 C304 C 0.94343 1.00449 0.07794
 C305 C 0.90128 0.99895 0.07682
 C306 C 0.87827 0.99993 0.11129
 H307 H 0.85989 1.02447 0.33011
 H308 H 0.82920 1.01107 0.39371
 H309 H 0.73153 0.94936 0.33248
 H310 H 0.76255 0.96212 0.26861
 H311 H 0.95051 1.03185 0.17666
 H312 H 0.98812 1.03111 0.11793
 H313 H 0.88491 0.99502 0.04922
 H314 H 0.84657 0.99338 0.10877
 C315 C 0.83416 1.02133 -0.31649
 C316 C 0.81575 0.98950 -0.33779
 C317 C 0.79508 0.99577 -0.37360
 C318 C 0.79163 1.03428 -0.38893
 C319 C 0.81030 1.06599 -0.36711
 C320 C 0.83129 1.05955 -0.33172
 C321 C 0.85630 1.01513 -0.27859
 N322 N 0.87993 1.04456 -0.26239
 N323 N 0.89948 1.03965 -0.22814
 C324 C 0.89623 1.00512 -0.20842
 N325 N 0.87259 0.97557 -0.22456
 N326 N 0.85311 0.98044 -0.25901
 C327 C 0.91740 1.00067 -0.16971
 C328 C 0.90965 0.96866 -0.14513
 C329 C 0.92836 0.96660 -0.10762
 C330 C 0.95369 0.99722 -0.09189
 C331 C 0.96490 1.02599 -0.11987
 C332 C 0.94640 1.02858 -0.15710
 H333 H 0.81730 0.95964 -0.32681
 H334 H 0.78049 0.97036 -0.38814
 H335 H 0.81037 1.09592 -0.37792
 H336 H 0.84529 1.08480 -0.31623
 H337 H 0.88892 0.94521 -0.15466
 H338 H 0.92202 0.94071 -0.09152
 H339 H 0.99000 1.04562 -0.11489
 H340 H 0.95566 1.05219 -0.17637
 C341 C 1.30745 1.17408 0.01181
 C342 C 1.34114 1.16105 -0.00885
 C343 C 1.37818 1.18035 -0.00314
 C344 C 1.38272 1.21294 0.02395
 C345 C 1.34829 1.22641 0.04356
 C346 C 1.31141 1.20736 0.03755
 C347 C 1.26847 1.15284 0.00758
 N348 N 1.23585 1.16720 0.02620
 N349 N 1.20100 1.14777 0.02372
 C350 C 1.19721 1.11305 0.00258
 N351 N 1.22979 1.09867 -0.01623
 N352 N 1.26471 1.11817 -0.01378
 C353 C 1.15840 1.09133 0.00070
 C354 C 1.15428 1.05453 -0.01925
 C355 C 1.11756 1.03427 -0.02039
 C356 C 1.08341 1.04937 -0.00132
 C357 C 1.08820 1.08729 0.01741
 C358 C 1.12479 1.10758 0.01870
 H359 H 1.33908 1.13550 -0.02901
 H360 H 1.40349 1.16807 -0.01849
 H361 H 1.34915 1.25252 0.06296
 H362 H 1.28600 1.21867 0.05352
 H363 H 1.17941 1.04121 -0.03408
 H364 H 1.11609 1.00632 -0.03680
 H365 H 1.06377 1.10330 0.02899
 H366 H 1.12639 1.13655 0.03336
 C367 C 0.69654 1.17413 -0.02230
 C368 C 0.68136 1.18037 -0.06076
 C369 C 0.64585 1.20055 -0.06646
 C370 C 0.62390 1.21510 -0.03380
 C371 C 0.63954 1.20890 0.00489
 C372 C 0.67544 1.18891 0.01048
 C373 C 0.73375 1.15156 -0.01706
 N374 N 0.75310 1.15025 0.01879
 N375 N 0.78665 1.12978 0.02276
 C376 C 0.80198 1.10964 -0.00893
 N377 N 0.78250 1.11098 -0.04457
 N378 N 0.74921 1.13146 -0.04856
 C379 C 0.83938 1.08700 -0.00565
 C380 C 0.85070 1.06242 -0.03746
 C381 C 0.88680 1.04279 -0.03647
 C382 C 0.91388 1.04664 -0.00404
 C383 C 0.90122 1.07055 0.02859
 C384 C 0.86477 1.09045 0.02782
 H385 H 0.69675 1.16929 -0.08679
 H386 H 0.63493 1.20272 -0.09678
 H387 H 0.62499 1.22051 0.03113
 H388 H 0.68647 1.18479 0.04054
 H389 H 0.83210 1.05893 -0.06401
 H390 H 0.89426 1.02756 -0.06347
 H391 H 0.91906 1.07405 0.05541
 H392 H 0.85682 1.10891 0.05324
 C393 C 1.29737 0.81681 -0.00603
 C394 C 1.30053 0.78463 -0.03304
 C395 C 1.33752 0.76752 -0.04036
 C396 C 1.37262 0.78184 -0.02059
 C397 C 1.36888 0.81376 0.00712
 C398 C 1.33193 0.83100 0.01410
 C399 C 1.25861 0.83646 0.00011
 N400 N 1.25694 0.87151 0.02077
 N401 N 1.22255 0.89032 0.02466
 C402 C 1.18827 0.87482 0.00824
 N403 N 1.18978 0.83950 -0.01202
 N404 N 1.22425 0.82073 -0.01603
 C405 C 1.15073 0.89733 0.01007
 C406 C 1.11413 0.87993 -0.00148
 C407 C 1.07967 0.90274 -0.00280
 C408 C 1.08052 0.94452 0.00382
 C409 C 1.11655 0.95929 0.02120
 C410 C 1.15112 0.93692 0.02323
 H411 H 1.27443 0.77277 -0.04890
 H412 H 1.33795 0.74212 -0.06066
 H413 H 1.39463 0.82713 0.02227
 H414 H 1.33063 0.85590 0.03501
 H415 H 1.11187 0.84855 -0.00903
 H416 H 1.05222 0.88646 -0.00796
 H417 H 1.11953 0.98848 0.03309
 H418 H 1.17834 0.95109 0.03464
 C419 C 0.69063 0.82612 0.03104
 C420 C 0.67571 0.82153 0.06943
 C421 C 0.63861 0.80331 0.07507
 C422 C 0.61516 0.78845 0.04243
 C423 C 0.63068 0.79314 0.00385
 C424 C 0.66768 0.81182 -0.00168
 C425 C 0.72973 0.84608 0.02531
 N426 N 0.74012 0.85953 -0.01093
 N427 N 0.77498 0.87821 -0.01580
 C428 C 0.80098 0.88400 0.01531
 N429 N 0.79071 0.87029 0.05148
 N430 N 0.75577 0.85182 0.05639
 C431 C 0.83940 0.90539 0.01009
 C432 C 0.86955 0.90448 0.03921
 C433 C 0.90536 0.92539 0.03435
 C434 C 0.91360 0.94735 -0.00022
 C435 C 0.88141 0.94970 -0.02753
 C436 C 0.84564 0.92852 -0.02322
 H437 H 0.69238 0.83281 0.09530
 H438 H 0.62803 0.80267 0.10529
 H439 H 0.61533 0.78122 -0.02244
 H440 H 0.67858 0.81452 -0.03170
 H441 H 0.86537 0.88815 0.06622
 H442 H 0.92592 0.92580 0.05938
 H443 H 0.88205 0.96843 -0.05213
 H444 H 0.82232 0.93135 -0.04560
 C445 C 0.80541 0.52817 0.32420
 C446 C 0.83966 0.50838 0.33700
 C447 C 0.87596 0.51327 0.31758
 C448 C 0.87944 0.53875 0.28500
 C449 C 0.84463 0.55822 0.27215
 C450 C 0.80823 0.55278 0.29129
 C451 C 0.76721 0.52359 0.34553
 N452 N 0.73214 0.53503 0.32885
 N453 N 0.69795 0.53115 0.34830
 C454 C 0.69744 0.51593 0.38537
 N455 N 0.73251 0.50460 0.40203
 N456 N 0.76662 0.50825 0.38251
 C457 C 0.65959 0.51165 0.40733
 C458 C 0.66019 0.50425 0.44802
 C459 C 0.62472 0.49922 0.46867
 C460 C 0.58653 0.50206 0.45037
 C461 C 0.58718 0.50727 0.40873
 C462 C 0.62255 0.51274 0.38773
 H463 H 0.83854 0.48915 0.36231
 H464 H 0.90162 0.49841 0.32970
 H465 H 0.84480 0.57681 0.24637
 H466 H 0.78233 0.56827 0.28046
 H467 H 0.68825 0.50110 0.46399
 H468 H 0.62874 0.48779 0.49752
 H469 H 0.56075 0.50572 0.39130
 H470 H 0.62079 0.51675 0.35587
 C471 C 0.19342 0.47639 0.32385
 C472 C 0.16841 0.44327 0.32978
 C473 C 0.13112 0.43997 0.31086
 C474 C 0.11772 0.46979 0.28573
 C475 C 0.14230 0.50327 0.28017
 C476 C 0.17994 0.50643 0.29887
 C477 C 0.23311 0.47931 0.34397
 N478 N 0.26057 0.50723 0.33381
 N479 N 0.29607 0.50970 0.35230
 C480 C 0.30551 0.48442 0.38176
 N481 N 0.27808 0.45649 0.39177
 N482 N 0.24273 0.45392 0.37322
 C483 C 0.34416 0.48801 0.40372
 C484 C 0.34932 0.46938 0.44001
 C485 C 0.38459 0.47474 0.46215
 C486 C 0.41719 0.49796 0.44946
 C487 C 0.41080 0.51664 0.41256
 C488 C 0.37534 0.51187 0.39025
 H489 H 0.17773 0.41961 0.34884
 H490 H 0.11257 0.41407 0.31606
 H491 H 0.13271 0.52658 0.26079
 H492 H 0.19839 0.53242 0.29383
 H493 H 0.32544 0.45173 0.45233
 H494 H 0.38425 0.46274 0.49074
 H495 H 0.43010 0.53918 0.40237
 H496 H 0.37198 0.52801 0.36296
 C497 C 0.80900 0.47770 0.67662
 C498 C 0.81104 0.45636 0.71192
 C499 C 0.84766 0.45065 0.73105
 C500 C 0.88320 0.46560 0.71500
 C501 C 0.88107 0.48744 0.67993
 C502 C 0.84430 0.49364 0.66108
 C503 C 0.77033 0.48233 0.65570
 N504 N 0.76536 0.51106 0.62852
 N505 N 0.73061 0.51467 0.60927
 C506 C 0.69957 0.48949 0.61621
 N507 N 0.70458 0.46079 0.64335
 N508 N 0.73921 0.45736 0.66279
 C509 C 0.66125 0.49289 0.59439
 C510 C 0.63466 0.46058 0.59124
 C511 C 0.59869 0.46352 0.57024
 C512 C 0.58672 0.49932 0.55279
 C513 C 0.61482 0.53112 0.55542
 C514 C 0.65116 0.52808 0.57590
 H515 H 0.78427 0.44414 0.72488
 H516 H 0.84810 0.43451 0.75851
 H517 H 0.90788 0.49894 0.66648
 H518 H 0.84366 0.51003 0.63378
 H519 H 0.64176 0.43267 0.60471
 H520 H 0.57975 0.43758 0.56970
 H521 H 0.61077 0.55781 0.54004
 H522 H 0.67154 0.55336 0.57692
 C523 C 0.19802 0.51755 0.67355
 C524 C 0.17218 0.54857 0.66447
 C525 C 0.13615 0.55259 0.68414
 C526 C 0.12491 0.52549 0.71305
 C527 C 0.15003 0.49380 0.72157
 C528 C 0.18653 0.49002 0.70217
 C529 C 0.23676 0.51463 0.65326
 N530 N 0.26633 0.49141 0.66733
 N531 N 0.30143 0.48984 0.64918
 C532 C 0.30823 0.51137 0.61622
 N533 N 0.27858 0.53438 0.60219
 N534 N 0.24367 0.53607 0.62037
 C535 C 0.34672 0.50966 0.59537
 C536 C 0.35006 0.52544 0.55750
 C537 C 0.38586 0.52355 0.53723
 C538 C 0.41967 0.50469 0.55283
 C539 C 0.41670 0.49226 0.59264
 C540 C 0.38067 0.49362 0.61313
 H541 H 0.18006 0.57028 0.64259
 H542 H 0.11699 0.57703 0.67686
 H543 H 0.14185 0.47264 0.74388
 H544 H 0.20572 0.46567 0.70960
 H545 H 0.32485 0.53914 0.54309
 H546 H 0.38593 0.53640 0.50866
 H547 H 0.44212 0.48390 0.60968
 H548 H 0.37979 0.48323 0.64336
 C549 C 0.50847 0.67947 0.20355
 C550 C 0.52683 0.71721 0.20282
 C551 C 0.53363 0.73552 0.16659
 C552 C 0.52196 0.71658 0.13041
 C553 C 0.50285 0.67927 0.13120
 C554 C 0.49626 0.66088 0.16733
 C555 C 0.50349 0.65871 0.24155
 N556 N 0.49225 0.61987 0.24131
 N557 N 0.48957 0.60041 0.27514
 C558 C 0.49786 0.61894 0.31073
 N559 N 0.50864 0.65796 0.31111
 N560 N 0.51147 0.67743 0.27718
 C561 C 0.49703 0.59630 0.34789
 C562 C 0.49800 0.61538 0.38541
 C563 C 0.49875 0.59331 0.42013
 C564 C 0.50019 0.55132 0.41887
 C565 C 0.49718 0.53302 0.38052
 C566 C 0.49593 0.55486 0.34595
 H567 H 0.53660 0.73235 0.23015
 H568 H 0.54804 0.76450 0.16682
 H569 H 0.49388 0.66384 0.10376
 H570 H 0.48199 0.63184 0.16677
 H571 H 0.49830 0.64745 0.38804
 H572 H 0.49995 0.60997 0.44785
 H573 H 0.49501 0.50165 0.37616
 H574 H 0.49441 0.53896 0.31753
 C575 C 0.47408 0.67030 0.81268
 C576 C 0.43730 0.66705 0.83197
 C577 C 0.43159 0.68589 0.86887
 C578 C 0.46234 0.70888 0.88730
 C579 C 0.49929 0.71191 0.86816
 C580 C 0.50515 0.69269 0.83132
 C581 C 0.47953 0.65071 0.77318
 N582 N 0.51647 0.64612 0.75769
 N583 N 0.52102 0.62843 0.72212
 C584 C 0.48879 0.61485 0.70049
 N585 N 0.45192 0.61953 0.71599
 N586 N 0.44740 0.63700 0.75157
 C587 C 0.49340 0.59517 0.66093
 C588 C 0.46041 0.58972 0.63532
 C589 C 0.46426 0.57048 0.59840
 C590 C 0.50076 0.55423 0.58564
 C591 C 0.53403 0.56237 0.61109
 C592 C 0.53054 0.58207 0.64802
 H593 H 0.41287 0.64969 0.81868
 H594 H 0.40306 0.68212 0.88314
 H595 H 0.52348 0.72972 0.88129
 H596 H 0.53379 0.69591 0.81715
 H597 H 0.43147 0.60100 0.64340
 H598 H 0.43823 0.57044 0.57947
 H599 H 0.56345 0.55411 0.60285
 H600 H 0.55701 0.58670 0.66655
 C601 C 0.48236 0.32845 0.19211
 C602 C 0.44649 0.33166 0.17030
 C603 C 0.44160 0.31279 0.13314
 C604 C 0.47231 0.28996 0.11688
 C605 C 0.50857 0.28732 0.13819
 C606 C 0.51357 0.30644 0.17548
 C607 C 0.48638 0.34754 0.23218
 N608 N 0.52210 0.34981 0.25193
 N609 N 0.52513 0.36709 0.28804
 C610 C 0.49252 0.38256 0.30589
 N611 N 0.45692 0.38016 0.28611
 N612 N 0.45392 0.36306 0.25008
 C613 C 0.49530 0.40237 0.34568
 C614 C 0.46053 0.41302 0.36547
 C615 C 0.46262 0.43356 0.40190
 C616 C 0.49941 0.44590 0.41968
 C617 C 0.53397 0.43158 0.40104
 C618 C 0.53215 0.41081 0.36444
 H619 H 0.42198 0.34875 0.18192
 H620 H 0.41365 0.31613 0.11705
 H621 H 0.53270 0.26975 0.12646
 H622 H 0.54157 0.30340 0.19155
 H623 H 0.43136 0.40505 0.35312
 H624 H 0.43487 0.43713 0.41651
 H625 H 0.56289 0.43643 0.41386
 H626 H 0.55971 0.40182 0.35069
 C627 C 0.52345 0.33673 0.80958
 C628 C 0.49445 0.30935 0.82215
 C629 C 0.50022 0.28861 0.85729
 C630 C 0.53529 0.29450 0.88026
 C631 C 0.56415 0.32197 0.86782
 C632 C 0.55825 0.34295 0.83298
 C633 C 0.51796 0.35838 0.77207
 N634 N 0.54301 0.38881 0.76313
 N635 N 0.53889 0.40774 0.72906
 C636 C 0.50960 0.39702 0.70236
 N637 N 0.48439 0.36668 0.71133
 N638 N 0.48843 0.34780 0.74551
 C639 C 0.50618 0.41730 0.66384
 C640 C 0.48091 0.40258 0.63333
 C641 C 0.47972 0.42076 0.59637
 C642 C 0.50372 0.45420 0.58747
 C643 C 0.52759 0.46902 0.61974
 C644 C 0.52925 0.45110 0.65668
 H645 H 0.46728 0.30393 0.80487
 H646 H 0.47759 0.26746 0.86620
 H647 H 0.59121 0.32747 0.88527
 H648 H 0.58121 0.36378 0.82423
 H649 H 0.46232 0.37652 0.63764
 H650 H 0.46007 0.40722 0.57533
 H651 H 0.54753 0.49326 0.61679
 H652 H 0.54926 0.46364 0.67947
 C653 C 0.67792 0.80571 0.46816
 C654 C 0.68050 0.82122 0.42993
 C655 C 0.69714 0.85886 0.42433
 C656 C 0.71223 0.88238 0.45683
 C657 C 0.70968 0.86625 0.49522
 C658 C 0.69270 0.82865 0.50073
 C659 C 0.65934 0.76609 0.47392
 N660 N 0.64977 0.75389 0.51088
 N661 N 0.63207 0.71872 0.51582
 C662 C 0.62339 0.69417 0.48405
 N663 N 0.63324 0.70626 0.44715
 N664 N 0.65078 0.74147 0.44220
 C665 C 0.60237 0.65567 0.48926
 C666 C 0.59804 0.62824 0.45754
 C667 C 0.57632 0.59298 0.46192
 C668 C 0.55683 0.58362 0.49766
 C669 C 0.56364 0.61098 0.52971
 C670 C 0.58556 0.64622 0.52572
 H671 H 0.66887 0.80458 0.40418
 H672 H 0.69629 0.86977 0.39436
 H673 H 0.72199 0.88168 0.52131
 H674 H 0.69158 0.81739 0.53061
 H675 H 0.61095 0.63416 0.42888
 H676 H 0.57330 0.57464 0.43571
 H677 H 0.55312 0.60568 0.55867
 H678 H 0.58894 0.66623 0.55132
 C679 C 0.67321 0.19693 0.51886
 C680 C 0.65209 0.16093 0.51235
 C681 C 0.67136 0.12472 0.51598
 C682 C 0.71191 0.12377 0.52697
 C683 C 0.73308 0.15968 0.53350
 C684 C 0.71402 0.19594 0.52906
 C685 C 0.65251 0.23521 0.51575
 N686 N 0.67309 0.26913 0.50802
 N687 N 0.65433 0.30356 0.50546
 C688 C 0.61431 0.30551 0.51095
 N689 N 0.59380 0.27161 0.51880
 N690 N 0.61248 0.23715 0.52099
 C691 C 0.59336 0.34368 0.50856
 C692 C 0.55722 0.34916 0.52789
 C693 C 0.53730 0.38504 0.52540
 C694 C 0.55159 0.41697 0.50292
 C695 C 0.58800 0.41030 0.48336
 C696 C 0.60872 0.37477 0.48641
 H697 H 0.62067 0.16077 0.50428
 H698 H 0.65441 0.09737 0.51103
 H699 H 0.76443 0.15960 0.54187
 H700 H 0.73100 0.22320 0.53441
 H701 H 0.54422 0.32571 0.54519
 H702 H 0.50957 0.38631 0.53998
 H703 H 0.60123 0.43131 0.46467
 H704 H 0.63642 0.37136 0.47055
 C705 C 0.33342 0.80670 0.52011
 C706 C 0.29847 0.80791 0.54250
 C707 C 0.27905 0.84379 0.54947
 C708 C 0.29332 0.87940 0.53305
 C709 C 0.32812 0.87759 0.50983
 C710 C 0.34821 0.84188 0.50408
 C711 C 0.35470 0.76900 0.51413
 N712 N 0.39522 0.76850 0.51403
 N713 N 0.41446 0.73437 0.51003
 C714 C 0.39393 0.69946 0.50531
 N715 N 0.35340 0.70000 0.50493
 N716 N 0.33416 0.73408 0.50951
 C717 C 0.41523 0.66149 0.50253
 C718 C 0.40054 0.62999 0.47855
 C719 C 0.42016 0.59365 0.47741
 C720 C 0.45405 0.58616 0.50149
 C721 C 0.46830 0.61904 0.52479
 C722 C 0.44981 0.65587 0.52511
 H723 H 0.28645 0.78112 0.55519
 H724 H 0.25186 0.84303 0.56642
 H725 H 0.34116 0.90404 0.49747
 H726 H 0.37524 0.84171 0.48679
 H727 H 0.37389 0.63349 0.46039
 H728 H 0.40692 0.57173 0.45836
 H729 H 0.49271 0.61675 0.54480
 H730 H 0.46180 0.67954 0.54441
 C731 C 0.33065 0.19074 0.47850
 C732 C 0.30559 0.17624 0.50828
 C733 C 0.28688 0.13887 0.50365
 C734 C 0.29248 0.11555 0.46896
 C735 C 0.31770 0.12996 0.43942
 C736 C 0.33663 0.16697 0.44417
 C737 C 0.35064 0.23029 0.48275
 N738 N 0.37950 0.24090 0.45697
 N739 N 0.39762 0.27624 0.46030
 C740 C 0.38762 0.30273 0.48943
 N741 N 0.35861 0.29228 0.51523
 N742 N 0.34053 0.25675 0.51199
 C743 C 0.40861 0.34180 0.49298
 C744 C 0.39499 0.37237 0.51802
 C745 C 0.41558 0.40887 0.52100
 C746 C 0.45055 0.41667 0.49911
 C747 C 0.46400 0.38465 0.47503
 C748 C 0.44345 0.34848 0.47162
 H749 H 0.30047 0.19372 0.53515
 H750 H 0.26742 0.12853 0.52679
 H751 H 0.32293 0.11243 0.41259
 H752 H 0.35573 0.17706 0.42063
 H753 H 0.36850 0.36811 0.53558
 H754 H 0.40442 0.43039 0.54202
 H755 H 0.49167 0.38611 0.45939
 H756 H 0.45564 0.32532 0.45271
   
