data_POSCAR
  _audit_creation_date              2014-09-24
  _audit_creation_method            'ToBaCCo'
  _symmetry_space_group_name_H-M    'P1'
  _symmetry_Int_Tables_number       1
  _symmetry_cell_setting            triclinic
  loop_
  _symmetry_equiv_pos_as_xyz
 x,y,z
_cell_length_a 26.3161
_cell_length_b 26.0861
_cell_length_c 26.1933
_cell_angle_alpha 89.665000
_cell_angle_beta 90.703000
_cell_angle_gamma 89.335400
loop_
  _atom_site_label
  _atom_site_type_symbol
  _atom_site_fract_x
  _atom_site_fract_y
  _atom_site_fract_z
C1 C 0.23184 0.15660 0.23186
 C2 C 0.22098 0.13184 0.27807
 C3 C 0.17709 0.14485 0.30584
 C4 C 0.14551 0.18518 0.28796
 C5 C 0.15755 0.21216 0.24327
 C6 C 0.20010 0.19704 0.21449
 C7 C 0.27344 0.14097 0.20235
 C8 C 0.28361 0.16528 0.15536
 C9 C 0.25240 0.20663 0.13929
 C10 C 0.21093 0.22250 0.16832
 C11 C 0.18024 0.26369 0.15185
 C12 C 0.13953 0.28040 0.18159
 C13 C 0.12795 0.25430 0.22695
 H14 H 0.24567 0.10074 0.29111
 H15 H 0.11229 0.19657 0.30935
 H16 H 0.29717 0.10946 0.21592
 H17 H 0.25980 0.22631 0.10361
 H18 H 0.18910 0.28392 0.11685
 H19 H 0.09598 0.26697 0.24956
 C20 C -0.22710 0.83354 0.23370
 C21 C -0.21564 0.85132 0.28275
 C22 C -0.16699 0.84317 0.30459
 C23 C -0.12988 0.81637 0.27686
 C24 C -0.14232 0.79463 0.22956
 C25 C -0.19129 0.80284 0.20818
 C26 C -0.27286 0.84754 0.20890
 C27 C -0.28373 0.82972 0.15931
 C28 C -0.25063 0.79365 0.13721
 C29 C -0.20411 0.78123 0.16066
 C30 C -0.16907 0.74972 0.13591
 C31 C -0.12026 0.74222 0.15654
 C32 C -0.10661 0.76518 0.20291
 H33 H -0.24392 0.87375 0.30288
 H34 H -0.09222 0.81006 0.29312
 H35 H -0.29902 0.87339 0.22772
 H36 H -0.25897 0.77817 0.09973
 H37 H -0.17880 0.73307 0.09926
 H38 H -0.06857 0.75943 0.21844
 C39 C -0.22310 0.18247 -0.24918
 C40 C -0.19904 0.17419 -0.29586
 C41 C -0.16616 0.21095 -0.31618
 C42 C -0.16077 0.25790 -0.29113
 C43 C -0.18516 0.26681 -0.24467
 C44 C -0.21568 0.22859 -0.22281
 C45 C -0.25244 0.14397 -0.22767
 C46 C -0.27487 0.14997 -0.17953
 C47 C -0.26734 0.19650 -0.15289
 C48 C -0.23729 0.23581 -0.17411
 C49 C -0.22688 0.28153 -0.14731
 C50 C -0.19686 0.31986 -0.16980
 C51 C -0.17706 0.31238 -0.21856
 H52 H -0.20403 0.13775 -0.31462
 H53 H -0.13565 0.28662 -0.30656
 H54 H -0.25730 0.10870 -0.24880
 H55 H -0.28366 0.20184 -0.11552
 H56 H -0.24172 0.28725 -0.10933
 H57 H -0.15298 0.34137 -0.23524
 C58 C 0.22059 0.83094 -0.23126
 C59 C 0.18415 0.85342 -0.26474
 C60 C 0.14088 0.82577 -0.28043
 C61 C 0.13548 0.77524 -0.26291
 C62 C 0.17077 0.75314 -0.22894
 C63 C 0.21319 0.78092 -0.21224
 C64 C 0.26431 0.85753 -0.21660
 C65 C 0.29981 0.83575 -0.18194
 C66 C 0.29088 0.78681 -0.16099
 C67 C 0.24791 0.75870 -0.17648
 C68 C 0.23829 0.70918 -0.15665
 C69 C 0.19493 0.68210 -0.17296
 C70 C 0.16293 0.70383 -0.21053
 H71 H 0.18989 0.89210 -0.27851
 H72 H 0.10286 0.75299 -0.27473
 H73 H 0.27076 0.89553 -0.23206
 H74 H 0.31805 0.77015 -0.13406
 H75 H 0.26335 0.69258 -0.12771
 H76 H 0.13035 0.68285 -0.22454
 C77 C 0.16389 1.20276 0.75875
 C78 C 0.15530 1.17580 0.71294
 C79 C 0.19218 1.14101 0.69412
 C80 C 0.23794 1.13429 0.72182
 C81 C 0.24697 1.16099 0.76716
 C82 C 0.21036 1.19603 0.78538
 C83 C 0.12605 1.23473 0.77949
 C84 C 0.13453 1.26132 0.82568
 C85 C 0.18235 1.25638 0.85020
 C86 C 0.21969 1.22298 0.83117
 C87 C 0.26523 1.21397 0.85863
 C88 C 0.30021 1.17710 0.84167
 C89 C 0.29134 1.15139 0.79572
 H90 H 0.11931 1.18110 0.69306
 H91 H 0.26655 1.10733 0.70870
 H92 H 0.08974 1.23848 0.75973
 H93 H 0.18977 1.27593 0.88581
 H94 H 0.27220 1.23339 0.89448
 H95 H 0.31873 1.12305 0.78280
 C96 C 0.84510 0.79024 0.78342
 C97 C 0.86471 0.82904 0.75197
 C98 C 0.84378 0.87902 0.75263
 C99 C 0.80076 0.88864 0.78273
 C100 C 0.77875 0.84933 0.81138
 C101 C 0.80202 0.80041 0.81335
 C102 C 0.86873 0.74183 0.78633
 C103 C 0.85267 0.70473 0.82184
 C104 C 0.80894 0.71495 0.85099
 C105 C 0.78213 0.76175 0.84520
 C106 C 0.73571 0.77073 0.87022
 C107 C 0.71063 0.81845 0.86514
 C108 C 0.73336 0.85804 0.83747
 H109 H 0.89802 0.82087 0.72936
 H110 H 0.78325 0.92649 0.78269
 H111 H 0.90206 0.73452 0.76340
 H112 H 0.79493 0.68606 0.87701
 H113 H 0.71872 0.74062 0.89278
 H114 H 0.71439 0.89511 0.83453
 C115 C 0.15574 0.75580 1.21307
 C116 C 0.12371 0.77427 1.25158
 C117 C 0.13391 0.82101 1.27597
 C118 C 0.17708 0.84887 1.26227
 C119 C 0.21009 0.83027 1.22485
 C120 C 0.19913 0.78390 1.19977
 C121 C 0.14500 0.70994 1.18740
 C122 C 0.17715 0.69184 1.14844
 C123 C 0.22091 0.71971 1.13661
 C124 C 0.23175 0.76558 1.16145
 C125 C 0.27483 0.79347 1.14832
 C126 C 0.28654 0.83865 1.17413
 C127 C 0.25424 0.85695 1.21240
 H128 H 0.09049 0.75264 1.26221
 H129 H 0.18570 0.88438 1.28165
 H130 H 0.11135 0.68896 1.19768
 H131 H 0.24624 0.70647 1.10698
 H132 H 0.30008 0.77935 1.11902
 H133 H 0.26336 0.89215 1.23214
 C134 C 0.81922 1.23348 1.24081
 C135 C 0.83801 1.19948 1.27875
 C136 C 0.81087 1.15492 1.29140
 C137 C 0.76575 1.14398 1.26415
 C138 C 0.74826 1.17589 1.22445
 C139 C 0.77433 1.22131 1.21344
 C140 C 0.84460 1.27917 1.22908
 C141 C 0.82499 1.31225 1.19097
 C142 C 0.78101 1.29963 1.16380
 C143 C 0.75600 1.25407 1.17415
 C144 C 0.71416 1.23988 1.14425
 C145 C 0.69001 1.19319 1.15297
 C146 C 0.70604 1.16217 1.19443
 H147 H 0.87254 1.20879 1.29948
 H148 H 0.74485 1.10942 1.27259
 H149 H 0.87945 1.28889 1.24909
 H150 H 0.76719 1.32481 1.13343
 H151 H 0.70159 1.26437 1.11285
 H152 H 0.68755 1.12611 1.20194
 O153 O 0.54573 0.94787 0.90764
 O154 O 0.45311 0.96579 1.10487
 O155 O 0.60679 0.98005 1.05499
 O156 O 0.43156 0.92821 0.95164
 O157 O 0.54383 0.94837 1.09430
 O158 O 0.45634 0.97664 0.89274
 O159 O 0.41739 0.92864 1.04131
 O160 O 0.58085 0.93158 0.98022
 C161 C 0.57193 0.91837 0.93574
 C162 C 0.42363 0.93322 1.08804
 C163 C 0.58955 0.94623 1.08357
 C164 C 0.43421 0.93704 0.90565
 O165 O 0.47779 1.06920 0.92328
 O166 O 0.55694 1.05099 1.08855
 O167 O 0.63348 1.00953 0.96098
 O168 O 0.39911 1.03062 1.04102
 O169 O 0.46115 1.06131 1.09019
 O170 O 0.56909 1.04853 0.92301
 O171 O 0.40756 1.03236 0.94691
 O172 O 0.57656 1.06708 1.01107
 Co173 Co 0.51147 1.00854 0.92051
 Co174 Co 0.50449 1.00568 1.08596
 Co175 Co 0.57543 0.99863 0.99513
 Co176 Co 0.42118 0.98131 0.99512
 O177 O 0.50000 0.99622 1.00305
 C178 C 0.43057 1.07065 0.92868
 C179 C 0.57566 1.08051 1.05632
 C180 C 0.61595 1.03606 0.92184
 C181 C 0.41585 1.06283 1.07335
 O182 O 0.02029 0.45691 0.10230
 O183 O 0.07705 0.51280 -0.07662
 O184 O -0.00419 0.35899 -0.03112
 O185 O 0.07784 0.56124 0.00862
 O186 O 0.04912 0.41779 -0.05959
 O187 O 0.04346 0.55072 0.08401
 O188 O 0.05142 0.59504 -0.07373
 O189 O 0.04130 0.40252 0.04097
 C190 C 0.04439 0.41719 0.08721
 C191 C 0.08320 0.56003 -0.09055
 C192 C 0.03107 0.37229 -0.06331
 C193 C 0.08049 0.56460 0.05659
 O194 O -0.05462 0.57021 0.06022
 O195 O -0.04322 0.44422 -0.09874
 O196 O -0.05245 0.40165 0.05793
 O197 O -0.04540 0.57692 -0.05571
 O198 O -0.01641 0.53109 -0.11492
 O199 O -0.07624 0.47869 0.07932
 O200 O -0.00026 0.61414 0.01800
 O201 O -0.07810 0.42239 -0.02880
 Co202 Co -0.01594 0.51279 0.07483
 Co203 Co 0.01529 0.47752 -0.08031
 Co204 Co -0.01634 0.41801 0.00157
 Co205 Co 0.01579 0.56325 -0.02564
 O206 O -0.00527 0.49462 -0.00247
 C207 C -0.03501 0.61251 0.04987
 C208 C -0.08128 0.42850 -0.07543
 C209 C -0.07950 0.43099 0.08440
 C210 C -0.04753 0.56460 -0.10093
 O211 O 1.09745 0.00627 0.45638
 O212 O 0.90772 0.06644 0.56255
 O213 O 0.94896 0.04326 0.40725
 O214 O 1.06593 0.06797 0.55082
 O215 O 0.89268 0.04740 0.46947
 O216 O 1.10747 -0.00077 0.54882
 O217 O 0.98259 0.10040 0.56822
 O218 O 1.04060 0.05891 0.43268
 C219 C 1.08618 0.04785 0.43569
 C220 C 0.93539 0.10476 0.57060
 C221 C 0.90615 0.05695 0.42423
 C222 C 1.10682 0.04590 0.55830
 O223 O 1.04577 -0.07939 0.55049
 O224 O 0.89391 -0.04922 0.48731
 O225 O 1.02885 -0.02792 0.38323
 O226 O 0.96148 0.01807 0.62430
 O227 O 0.91432 -0.03435 0.58178
 O228 O 1.03988 -0.07671 0.45271
 O229 O 1.04505 -0.01958 0.60914
 O230 O 0.95261 -0.05080 0.42840
 Co231 Co 1.06543 -0.03379 0.50290
 Co232 Co 0.91077 0.00731 0.52475
 Co233 Co 0.99874 0.00269 0.43697
 Co234 Co 1.01324 0.03918 0.58247
 O235 O 0.99248 0.00704 0.51343
 C236 C 1.04727 -0.06656 0.59655
 C237 C 0.91115 -0.06632 0.44645
 C238 C 1.04634 -0.07080 0.40435
 C239 C 0.93045 -0.01821 0.62339
 N240 N 1.17254 0.06027 0.40960
 N241 N 1.19807 0.08428 0.37370
 C242 C 1.16515 0.11674 0.34992
 C243 C 1.11823 0.11216 0.37330
 N244 N 1.12459 0.07611 0.40993
 H245 H 1.08215 0.12902 0.36149
 N246 N 0.83089 -0.10444 0.42660
 N247 N 0.80763 -0.12629 0.38756
 C248 C 0.84369 -0.13767 0.35322
 C249 C 0.89025 -0.12244 0.37286
 N250 N 0.88031 -0.10133 0.41850
 H251 H 0.92644 -0.12142 0.35365
 N252 N 0.93770 0.19338 0.59955
 N253 N 0.91068 0.22321 0.63006
 C254 C 0.86754 0.19792 0.64087
 C255 C 0.86871 0.15211 0.61494
 N256 N 0.91300 0.15051 0.59024
 H257 H 0.84293 0.12028 0.61809
 N258 N 1.03881 -0.15055 0.63497
 N259 N 1.06421 -0.18077 0.66725
 C260 C 1.10332 -0.15344 0.68652
 C261 C 1.10017 -0.10466 0.66553
 N262 N 1.05944 -0.10466 0.63396
 H263 H 1.12627 -0.07320 0.67003
 N264 N 0.36935 1.14159 1.05675
 N265 N 0.33306 1.16965 1.07767
 C266 C 0.32298 1.14838 1.12359
 C267 C 0.35508 1.10629 1.13027
 N268 N 0.38322 1.10384 1.08792
 H269 H 0.35625 1.07845 1.16105
 N270 N 0.40687 0.91844 0.81919
 N271 N 0.37123 0.89260 0.79468
 C272 C 0.34679 0.86438 0.82979
 C273 C 0.36898 0.87376 0.87708
 N274 N 0.40624 0.90790 0.86866
 H275 H 0.35658 0.86053 0.91409
 N276 N 0.62939 0.86544 1.06337
 N277 N 0.66352 0.83304 1.08274
 C278 C 0.67585 0.84999 1.12988
 C279 C 0.64750 0.89411 1.13889
 N280 N 0.61945 0.90218 1.09639
 H281 H 0.64978 0.92003 1.17094
 N282 N 0.66543 1.03273 0.84507
 N283 N 0.69434 1.06253 0.81696
 C284 C 0.69708 1.10862 0.84024
 C285 C 0.66825 1.10581 0.88426
 N286 N 0.64941 1.05790 0.88545
 H287 H 0.66109 1.13532 0.91224
 N288 N 0.06823 0.39673 0.17419
 N289 N 0.09162 0.36021 0.20098
 C290 C 0.11069 0.32681 0.16701
 C291 C 0.09850 0.34407 0.11830
 N292 N 0.07196 0.38783 0.12466
 H293 H 0.10631 0.32577 0.08220
 N294 N -0.14566 0.44071 -0.14160
 N295 N -0.17928 0.41273 -0.16667
 C296 C -0.18148 0.36675 -0.14279
 C297 C -0.14770 0.36769 -0.10196
 N298 N -0.12627 0.41432 -0.10267
 H299 H -0.13444 0.33537 -0.07910
 N300 N 0.17529 0.56649 -0.10088
 N301 N 0.20700 0.60050 -0.12065
 C302 C 0.17824 0.63391 -0.14841
 C303 C 0.12840 0.61905 -0.14495
 N304 N 0.12792 0.57696 -0.11565
 H305 H 0.09478 0.63974 -0.15818
 N306 N -0.01502 0.69442 0.08736
 N307 N -0.03555 0.72903 0.11782
 C308 C -0.08286 0.71283 0.12771
 C309 C -0.09093 0.66738 0.10250
 N310 N -0.04773 0.65742 0.07772
 H311 H -0.12464 0.64398 0.10219
 N312 N 1.19077 0.04737 0.59823
 N313 N 1.21434 0.07202 0.63556
 C314 C 1.18324 0.11062 0.65053
 C315 C 1.14028 0.10956 0.61953
 N316 N 1.14622 0.06928 0.58804
 H317 H 1.10643 0.13327 0.62185
 N318 N 0.88175 -0.00389 0.69971
 N319 N 0.85593 -0.03052 0.73365
 C320 C 0.86533 -0.08066 0.72465
 C321 C 0.89798 -0.08374 0.68357
 N322 N 0.90726 -0.03507 0.66945
 H323 H 0.91148 -0.11764 0.66406
 N324 N 1.05490 -0.16148 0.38462
 N325 N 1.07711 -0.19152 0.35066
 C326 C 1.10075 -0.16051 0.31731
 C327 C 1.09182 -0.11027 0.33169
 N328 N 1.06314 -0.11272 0.37370
 H329 H 1.10595 -0.07554 0.31437
 N330 N 0.82200 0.06234 0.38815
 N331 N 0.79564 0.08672 0.35213
 C332 C 0.82672 0.12152 0.33100
 C333 C 0.87390 0.11715 0.35545
 N334 N 0.86892 0.07973 0.39072
 H335 H 0.90835 0.13800 0.34791
 N336 N 0.01862 0.31534 -0.13510
 N337 N 0.04547 0.28648 -0.16659
 C338 C 0.09474 0.28978 -0.15195
 C339 C 0.09701 0.32258 -0.11027
 N340 N 0.04881 0.33721 -0.10111
 H341 H 0.12996 0.33461 -0.08854
 N342 N -0.13943 0.43722 0.15444
 N343 N -0.16329 0.40635 0.18634
 C344 C -0.14816 0.35816 0.17516
 C345 C -0.11593 0.36018 0.13438
 N346 N -0.11143 0.41001 0.12263
 H347 H -0.09937 0.32842 0.11370
 N348 N -0.06044 0.60223 -0.18465
 N349 N -0.08533 0.64124 -0.20621
 C350 C -0.11852 0.65930 -0.17156
 C351 C -0.11307 0.62950 -0.12770
 N352 N -0.07612 0.59470 -0.13743
 H353 H -0.13021 0.63585 -0.09087
 N354 N 0.16681 0.59579 0.05635
 N355 N 0.19354 0.63127 0.08012
 C356 C 0.16517 0.64847 0.11931
 C357 C 0.12054 0.62105 0.11946
 N358 N 0.12303 0.58906 0.07953
 H359 H 0.08708 0.62749 0.14228
 N360 N 0.41852 1.16149 0.90769
 N361 N 0.38376 1.19174 0.88548
 C362 C 0.34410 1.16163 0.87344
 C363 C 0.35538 1.11229 0.88889
 N364 N 0.40192 1.11381 0.91011
 H365 H 0.33300 1.07820 0.88303
 N366 N 0.39937 0.91179 1.17385
 N367 N 0.36252 0.88858 1.19843
 C368 C 0.33351 0.86588 1.16267
 C369 C 0.35387 0.87554 1.11517
 N370 N 0.39493 0.90451 1.12400
 H371 H 0.33849 0.86561 1.07805
 N372 N 0.61665 1.16251 1.04209
 N373 N 0.64710 1.19380 1.06737
 C374 C 0.65199 1.17510 1.11544
 C375 C 0.62293 1.13167 1.11892
 N376 N 0.60184 1.12513 1.07257
 H377 H 0.62021 1.10510 1.15063
 N378 N 0.57946 0.84593 0.87747
 N379 N 0.61648 0.81694 0.85869
 C380 C 0.65928 0.82736 0.88549
 C381 C 0.64708 0.86405 0.92116
 N382 N 0.59708 0.87423 0.91534
 H383 H 0.67328 0.88608 0.94423
   
