data_POSCAR
  _audit_creation_date              2014-09-24
  _audit_creation_method            'ToBaCCo'
  _symmetry_space_group_name_H-M    'P1'
  _symmetry_Int_Tables_number       1
  _symmetry_cell_setting            triclinic
  loop_
  _symmetry_equiv_pos_as_xyz
 x,y,z
_cell_length_a 21.9386
_cell_length_b 23.3391
_cell_length_c 63.9847
_cell_angle_alpha 83.682900
_cell_angle_beta 93.223700
_cell_angle_gamma 118.407000
loop_
  _atom_site_label
  _atom_site_type_symbol
  _atom_site_fract_x
  _atom_site_fract_y
  _atom_site_fract_z
C1 C -0.01384 0.14396 0.51948
 H2 H 0.03853 0.15606 0.51560
 C3 C -0.02507 0.18211 0.53247
 H4 H 0.01917 0.22345 0.53853
 C5 C -0.13452 0.07206 0.51756
 H6 H -0.17663 0.02817 0.51204
 C7 C -0.14813 0.10870 0.53073
 H8 H -0.20107 0.09323 0.53508
 N9 N -0.06809 0.08980 0.51250
 C10 C -0.01330 -0.06655 0.51243
 H11 H -0.01270 -0.07213 0.49590
 C12 C -0.00778 -0.11205 0.52754
 H13 H -0.00262 -0.15229 0.52248
 C14 C -0.02641 -0.01050 0.53911
 H15 H -0.03508 0.02819 0.54368
 C16 C -0.02089 -0.05454 0.55465
 H17 H -0.02418 -0.04832 0.57100
 Zn18 Zn -0.04615 0.03553 0.49814
 N19 N -0.02410 -0.01790 0.51843
 C20 C 0.08391 0.07823 0.47776
 N21 N 0.02974 0.09008 0.48009
 C22 C 0.02673 0.14200 0.46913
 C23 C 0.07780 0.18288 0.45457
 C24 C 0.13634 0.11804 0.46325
 C25 C -0.15915 -0.08405 0.48794
 C26 C -0.20640 -0.12741 0.47435
 C27 C -0.18203 -0.03590 0.44856
 C28 C -0.13528 0.00552 0.46271
 N29 N -0.12248 -0.01926 0.48163
 H30 H 0.08597 0.03730 0.48679
 H31 H -0.01588 0.15147 0.47162
 H32 H 0.07401 0.22372 0.44598
 H33 H 0.17791 0.10674 0.46107
 H34 H -0.15064 -0.10268 0.50343
 H35 H -0.23458 -0.17809 0.48051
 H36 H -0.18503 -0.01298 0.43322
 H37 H -0.10648 0.05725 0.45800
 C38 C -0.01351 -0.10728 0.54896
 C39 C -0.09278 0.16403 0.53859
 C40 C -0.21669 -0.10473 0.45365
 C41 C 0.13288 0.17047 0.45117
 C42 C 1.20350 0.04583 0.15664
 H43 H 1.23019 0.08466 0.16675
 C44 C 1.24163 0.03429 0.14247
 H45 H 1.29752 0.06338 0.14231
 C46 C 1.09843 -0.03674 0.14377
 H47 H 1.04237 -0.06257 0.14391
 C48 C 1.13455 -0.04962 0.12925
 H49 H 1.10566 -0.08553 0.11827
 N50 N 1.13312 0.01115 0.15680
 C51 C 0.95450 0.02109 0.15327
 H52 H 0.93037 -0.01590 0.16617
 C53 C 0.91313 0.02840 0.13696
 H54 H 0.85762 -0.00307 0.13767
 C55 C 1.05613 0.10224 0.13572
 H56 H 1.11210 0.12947 0.13514
 C57 C 1.01662 0.11095 0.11898
 H58 H 1.04254 0.14589 0.10569
 Zn59 Zn 1.08044 0.03685 0.17217
 N60 N 1.02470 0.05721 0.15228
 C61 C 1.13930 0.16763 0.18396
 N62 N 1.13929 0.10902 0.18711
 C63 C 1.17821 0.09740 0.20256
 C64 C 1.21962 0.14576 0.21557
 C65 C 1.17974 0.21745 0.19679
 C66 C 1.01742 -0.09115 0.19492
 C67 C 0.97298 -0.13800 0.21024
 C68 C 0.94277 -0.05771 0.22015
 C69 C 0.98783 -0.01260 0.20486
 N70 N 1.02313 -0.03013 0.19239
 H71 H 1.10684 0.17530 0.17185
 H72 H 1.17600 0.04983 0.20497
 H73 H 1.24890 0.13481 0.22809
 H74 H 1.17887 0.26370 0.19427
 H75 H 1.04687 -0.10363 0.18503
 H76 H 0.96791 -0.18674 0.21193
 H77 H 0.91511 -0.04265 0.22988
 H78 H 0.99428 0.03660 0.20269
 C79 C 0.94414 0.07274 0.11930
 C80 C 1.20709 -0.01264 0.12810
 C81 C 0.93433 -0.12154 0.22288
 C82 C 1.22035 0.20658 0.21291
 C83 C 0.08831 0.92533 0.84671
 H84 H 0.07393 0.88801 0.83609
 C85 C 0.14027 0.93442 0.86161
 H86 H 0.16648 0.90506 0.86184
 C87 C 0.06958 1.00648 0.86000
 H88 H 0.04010 1.03282 0.85966
 C89 C 0.12104 1.01694 0.87526
 H90 H 0.13075 1.05151 0.88661
 N91 N 0.05357 0.96061 0.84632
 C92 C -0.13489 0.95110 0.84654
 H93 H -0.12368 0.98953 0.83398
 C94 C -0.18103 0.94207 0.86224
 H95 H -0.20312 0.97497 0.86111
 C96 C -0.11219 0.86843 0.86394
 H97 H -0.08390 0.84088 0.86466
 C98 C -0.15754 0.85802 0.88014
 H99 H -0.16527 0.82008 0.89263
 Zn100 Zn -0.02642 0.93869 0.82929
 N101 N -0.10066 0.91530 0.84781
 C102 C -0.09984 0.81075 0.81475
 N103 N -0.04163 0.86987 0.81321
 C104 C 0.00810 0.88460 0.79880
 C105 C 0.00112 0.83877 0.78538
 C106 C -0.10933 0.76343 0.80140
 C107 C 0.03913 1.06981 0.80897
 C108 C 0.04200 1.11958 0.79401
 C109 C -0.07048 1.04359 0.78114
 C110 C -0.07098 0.99547 0.79615
 N111 N -0.01728 1.00942 0.80987
 H112 H -0.13931 0.80065 0.82607
 H113 H 0.05312 0.93250 0.79766
 H114 H 0.04095 0.85195 0.77381
 H115 H -0.15593 0.71662 0.80266
 H116 H 0.08178 1.07945 0.81981
 H117 H 0.08674 1.16768 0.79356
 H118 H -0.11376 1.03127 0.77033
 H119 H -0.11458 0.94667 0.79702
 C120 C -0.19165 0.89645 0.87993
 C121 C 0.15605 0.97953 0.87650
 C122 C -0.01374 1.10674 0.78000
 C123 C -0.05824 0.77733 0.78651
 C124 C 0.36675 -0.02081 0.00234
 C125 C 0.39744 -0.01463 -0.01690
 C126 C 0.46145 -0.01408 -0.01736
 C127 C 0.49476 -0.02140 0.00148
 C128 C 0.46259 -0.02844 0.02077
 C129 C 0.39943 -0.02726 0.02117
 C130 C 0.56277 -0.02137 0.00100
 C131 C 0.61210 0.00399 0.01717
 C132 C 0.67563 0.00357 0.01677
 C133 C 0.69143 -0.02060 -0.00001
 C134 C 0.64355 -0.04517 -0.01630
 C135 C 0.57923 -0.04639 -0.01568
 H136 H 0.31753 -0.02049 0.00267
 H137 H 0.48520 -0.00738 -0.03244
 H138 H 0.48610 -0.03517 0.03553
 H139 H 0.60175 0.02462 0.03003
 H140 H 0.74101 -0.02019 -0.00042
 H141 H 0.54225 -0.06714 -0.02819
 C142 C -0.05535 0.62809 0.66595
 C143 C -0.06844 0.58461 0.68400
 C144 C -0.07113 0.52392 0.68282
 C145 C -0.05828 0.50693 0.66363
 C146 C -0.04414 0.55205 0.64560
 C147 C -0.04379 0.61179 0.64675
 C148 C -0.05926 0.44281 0.66249
 C149 C -0.07812 0.41159 0.64372
 C150 C -0.07811 0.35196 0.64268
 C151 C -0.06150 0.32174 0.66050
 C152 C -0.04370 0.35136 0.67929
 C153 C -0.04138 0.41201 0.68022
 H154 H -0.05395 0.67485 0.66687
 H155 H -0.08347 0.49032 0.69691
 H156 H -0.03276 0.54149 0.63068
 H157 H -0.09329 0.43297 0.62988
 H158 H -0.06244 0.27511 0.65974
 H159 H -0.02527 0.43487 0.69478
 C160 C 0.67934 0.68793 0.33932
 C161 C 0.66851 0.65290 0.32192
 C162 C 0.61048 0.59127 0.32114
 C163 C 0.56088 0.56495 0.33741
 C164 C 0.57228 0.60155 0.35474
 C165 C 0.63172 0.66217 0.35580
 C166 C 0.49716 0.50043 0.33607
 C167 C 0.46379 0.46030 0.35445
 C168 C 0.40314 0.40081 0.35306
 C169 C 0.37645 0.37959 0.33340
 C170 C 0.40922 0.41802 0.31507
 C171 C 0.46847 0.47854 0.31634
 H172 H 0.72454 0.73556 0.33995
 H173 H 0.60437 0.56442 0.30774
 H174 H 0.53487 0.58388 0.36733
 H175 H 0.48449 0.47478 0.36987
 H176 H 0.32979 0.33323 0.33236
 H177 H 0.49128 0.50842 0.30188
 C178 C -0.10821 0.26498 0.58843
 C179 C -0.06644 0.30047 0.57101
 C180 C -0.06440 0.26807 0.55416
 C181 C -0.10395 0.19961 0.55457
 C182 C -0.14859 0.16479 0.57163
 C183 C -0.15048 0.19731 0.58849
 C184 C -0.10145 0.29663 0.60713
 C185 C -0.09243 0.32236 0.62318
 H186 H -0.03328 0.35282 0.57083
 H187 H -0.03011 0.29623 0.54113
 H188 H -0.17898 0.11201 0.57253
 H189 H -0.18252 0.16927 0.60198
 C190 C 0.79587 0.74747 0.27160
 C191 C 0.85959 0.74886 0.26905
 C192 C 0.90400 0.78979 0.25271
 C193 C 0.88524 0.83011 0.23891
 C194 C 0.82020 0.82670 0.24124
 C195 C 0.77595 0.78574 0.25747
 C196 C 0.75230 0.71057 0.28937
 C197 C 0.71464 0.68269 0.30425
 H198 H 0.87564 0.71963 0.27997
 H199 H 0.95397 0.79180 0.25135
 H200 H 0.80398 0.85648 0.23066
 H201 H 0.72679 0.78506 0.25928
 C202 C 0.28992 -0.01102 -0.07076
 C203 C 0.29224 0.04657 -0.08065
 C204 C 0.24980 0.04397 -0.09810
 C205 C 0.20453 -0.01636 -0.10584
 C206 C 0.20342 -0.07375 -0.09591
 C207 C 0.24581 -0.07101 -0.07853
 C208 C 0.33024 -0.00962 -0.05210
 C209 C 0.36193 -0.01079 -0.03619
 H210 H 0.32615 0.09330 -0.07473
 H211 H 0.25223 0.08903 -0.10548
 H212 H 0.16825 -0.12112 -0.10117
 H213 H 0.24320 -0.11594 -0.07091
 C214 C -0.02409 0.74361 0.59677
 C215 C -0.06834 0.77102 0.59735
 C216 C -0.06481 0.81918 0.58176
 C217 C -0.01670 0.84098 0.56529
 C218 C 0.02714 0.81261 0.56462
 C219 C 0.02359 0.76427 0.58034
 C220 C -0.02770 0.69549 0.61347
 C221 C -0.03361 0.65646 0.62826
 H222 H -0.10558 0.75529 0.60994
 H223 H -0.10030 0.83897 0.58249
 H224 H 0.06483 0.82858 0.55217
 H225 H 0.05823 0.74344 0.57978
 C226 C 0.32815 0.33699 0.26020
 C227 C 0.26380 0.32951 0.25272
 C228 C 0.23006 0.28956 0.23655
 C229 C 0.26016 0.25625 0.22780
 C230 C 0.32621 0.26644 0.23480
 C231 C 0.35987 0.30647 0.25091
 C232 C 0.35823 0.36988 0.27879
 C233 C 0.38220 0.39377 0.29502
 H234 H 0.23849 0.35244 0.25994
 H235 H 0.17894 0.28208 0.23164
 H236 H 0.35097 0.24201 0.22819
 H237 H 0.40952 0.31169 0.25664
 C238 C 0.70490 -0.09611 -0.06708
 C239 C 0.68739 -0.07941 -0.08729
 C240 C 0.71879 -0.08485 -0.10484
 C241 C 0.76922 -0.10665 -0.10256
 C242 C 0.78298 -0.12706 -0.08198
 C243 C 0.75148 -0.12134 -0.06448
 C244 C 0.68008 -0.08168 -0.04905
 C245 C 0.66204 -0.06649 -0.03406
 H246 H 0.65075 -0.06044 -0.08951
 H247 H 0.70287 -0.07194 -0.12015
 H248 H 0.82187 -0.14289 -0.07894
 H249 H 0.76574 -0.13410 -0.04886
 C250 C 0.31249 -0.02734 0.07591
 C251 C 0.25993 -0.08409 0.08624
 C252 C 0.22674 -0.07984 0.10362
 C253 C 0.24573 -0.01867 0.11084
 C254 C 0.29961 0.03781 0.10056
 C255 C 0.33266 0.03343 0.08325
 C256 C 0.34332 -0.03025 0.05705
 C257 C 0.36903 -0.03014 0.04087
 H258 H 0.24379 -0.13141 0.08064
 H259 H 0.18588 -0.12425 0.11129
 H260 H 0.31462 0.08579 0.10539
 H261 H 0.37286 0.07773 0.07527
 C262 C 0.68201 0.76909 0.40632
 C263 C 0.69179 0.83301 0.40382
 C264 C 0.72240 0.87422 0.41986
 C265 C 0.74523 0.85286 0.43892
 C266 C 0.73058 0.78621 0.44144
 C267 C 0.69994 0.74540 0.42531
 C268 C 0.65986 0.72990 0.38879
 C269 C 0.64508 0.69829 0.37386
 H270 H 0.67719 0.85168 0.38922
 H271 H 0.72669 0.92244 0.41704
 H272 H 0.74734 0.76550 0.45502
 H273 H 0.69303 0.69594 0.42737
 C274 C -0.01769 0.24673 0.73119
 C275 C -0.07612 0.20769 0.74368
 C276 C -0.07398 0.16374 0.75998
 C277 C -0.01329 0.15805 0.76402
 C278 C 0.04605 0.19907 0.75187
 C279 C 0.04373 0.24303 0.73548
 C280 C -0.02304 0.28684 0.71317
 C281 C -0.03082 0.31769 0.69783
 H282 H -0.12394 0.21009 0.74050
 H283 H -0.12014 0.13344 0.76927
 H284 H 0.09327 0.19534 0.75453
 H285 H 0.08917 0.27280 0.72583
 C286 C 0.81264 0.05859 0.06572
 C287 C 0.87964 0.06774 0.06300
 C288 C 0.92374 0.07557 0.08033
 C289 C 0.90121 0.07406 0.10064
 C290 C 0.83478 0.06755 0.10308
 C291 C 0.79076 0.05975 0.08572
 C292 C 0.76462 0.04234 0.04835
 C293 C 0.72408 0.02595 0.03390
 H294 H 0.89692 0.06645 0.04761
 H295 H 0.97411 0.07950 0.07795
 H296 H 0.81626 0.06690 0.11848
 H297 H 0.73896 0.05260 0.08801
 C298 C 0.28106 0.28910 0.40282
 C299 C 0.21046 0.26866 0.39949
 C300 C 0.16259 0.22985 0.41517
 C301 C 0.18456 0.21086 0.43453
 C302 C 0.25565 0.23100 0.43772
 C303 C 0.30369 0.27006 0.42194
 C304 C 0.32904 0.32931 0.38632
 C305 C 0.36517 0.36245 0.37161
 H306 H 0.19231 0.28270 0.38470
 H307 H 0.10817 0.21415 0.41206
 H308 H 0.27411 0.21745 0.45251
 H309 H 0.35828 0.28556 0.42466
 C310 C -0.07740 0.65459 0.73873
 C311 C -0.13498 0.66057 0.74412
 C312 C -0.13006 0.69780 0.76048
 C313 C -0.06721 0.72994 0.77144
 C314 C -0.01073 0.72113 0.76652
 C315 C -0.01583 0.68375 0.75026
 C316 C -0.07832 0.62510 0.72003
 C317 C -0.07559 0.60447 0.70384
 H318 H -0.18271 0.63866 0.73517
 H319 H -0.17414 0.70426 0.76382
 H320 H 0.03804 0.74475 0.77486
 H321 H 0.02914 0.67967 0.74618
   
