data_POSCAR
  _audit_creation_date              2014-09-24
  _audit_creation_method            'ToBaCCo'
  _symmetry_space_group_name_H-M    'P1'
  _symmetry_Int_Tables_number       1
  _symmetry_cell_setting            triclinic
  loop_
  _symmetry_equiv_pos_as_xyz
 x,y,z
_cell_length_a 52.7440
_cell_length_b 52.5932
_cell_length_c 52.7322
_cell_angle_alpha 89.912700
_cell_angle_beta 89.996000
_cell_angle_gamma 90.074300
loop_
  _atom_site_label
  _atom_site_type_symbol
  _atom_site_fract_x
  _atom_site_fract_y
  _atom_site_fract_z
N1 N 0.59506 0.66527 0.61476
 N2 N 0.58513 0.65485 0.63517
 C3 C 0.56453 0.66828 0.64216
 C4 C 0.56163 0.68806 0.62522
 C5 C 0.58119 0.68569 0.60808
 H6 H 0.55255 0.66408 0.65827
 H7 H 0.58502 0.69788 0.59200
 Cu8 Cu 0.60028 0.62470 0.65029
 Cu9 Cu 0.62520 0.65164 0.59828
 Cu10 Cu 0.65205 0.59772 0.62522
 N11 N 0.61523 0.59442 0.66538
 N12 N 0.63555 0.58397 0.65539
 C13 C 0.64211 0.56343 0.66919
 C14 C 0.62494 0.56102 0.68874
 C15 C 0.60809 0.58084 0.68590
 H16 H 0.65813 0.55121 0.66531
 H17 H 0.59196 0.58500 0.69785
 N18 N 0.66594 0.61447 0.59470
 N19 N 0.65572 0.63499 0.58445
 C20 C 0.66941 0.64179 0.56395
 C21 C 0.68902 0.62476 0.56130
 C22 C 0.68640 0.60770 0.58097
 H23 H 0.66545 0.65788 0.55179
 H24 H 0.69850 0.59159 0.58490
 H25 H 0.62012 0.61448 0.60984
 H26 H 0.64063 0.63494 0.63013
 N27 N 0.90554 0.33387 0.11456
 N28 N 0.91550 0.34432 0.13493
 C29 C 0.93603 0.33084 0.14203
 C30 C 0.93889 0.31108 0.12515
 C31 C 0.91937 0.31342 0.10797
 H32 H 0.94800 0.33505 0.15815
 H33 H 0.91552 0.30121 0.09192
 Cu34 Cu 0.90047 0.37448 0.14997
 Cu35 Cu 0.87543 0.34752 0.09807
 Cu36 Cu 0.84858 0.40140 0.12494
 N37 N 0.88544 0.40464 0.16501
 N38 N 0.86506 0.41507 0.15507
 C39 C 0.85849 0.43552 0.16891
 C40 C 0.87565 0.43790 0.18845
 C41 C 0.89251 0.41811 0.18556
 H42 H 0.84246 0.44774 0.16507
 H43 H 0.90864 0.41393 0.19751
 N44 N 0.83472 0.38471 0.09445
 N45 N 0.84494 0.36421 0.08422
 C46 C 0.83123 0.35743 0.06375
 C47 C 0.81161 0.37446 0.06112
 C48 C 0.81425 0.39149 0.08074
 H49 H 0.83517 0.34135 0.05163
 H50 H 0.80213 0.40758 0.08467
 H51 H 0.88044 0.38467 0.10950
 H52 H 0.86004 0.36419 0.12991
 N53 N 0.40487 0.16569 -0.11453
 N54 N 0.41439 0.15566 -0.13530
 C55 C 0.43500 0.16909 -0.14235
 C56 C 0.43833 0.18844 -0.12507
 C57 C 0.41902 0.18585 -0.10768
 H58 H 0.44673 0.16515 -0.15870
 H59 H 0.41553 0.19775 -0.09134
 Cu60 Cu 0.39881 0.12586 -0.15047
 Cu61 Cu 0.37478 0.15202 -0.09788
 Cu62 Cu 0.34740 0.09852 -0.12521
 N63 N 0.38416 0.09548 -0.16545
 N64 N 0.36391 0.08488 -0.15536
 C65 C 0.35765 0.06410 -0.16887
 C66 C 0.37490 0.06168 -0.18832
 C67 C 0.39151 0.08176 -0.18572
 H68 H 0.34182 0.05165 -0.16480
 H69 H 0.40767 0.08595 -0.19764
 N70 N 0.33367 0.11512 -0.09464
 N71 N 0.34421 0.13534 -0.08413
 C72 C 0.33063 0.14200 -0.06355
 C73 C 0.31078 0.12516 -0.06112
 C74 C 0.31313 0.10838 -0.08098
 H75 H 0.33478 0.15790 -0.05124
 H76 H 0.30082 0.09244 -0.08507
 H77 H 0.37965 0.11490 -0.10985
 H78 H 0.35894 0.13579 -0.12949
 N79 N 0.09458 0.83414 0.38551
 N80 N 0.08463 0.84460 0.36512
 C81 C 0.06405 0.83111 0.35807
 C82 C 0.06118 0.81127 0.37494
 C83 C 0.08074 0.81363 0.39211
 H84 H 0.05209 0.83533 0.34194
 H85 H 0.08463 0.80137 0.40813
 Cu86 Cu 0.09970 0.87485 0.35009
 Cu87 Cu 0.12475 0.84788 0.40195
 Cu88 Cu 0.15162 0.90191 0.37511
 N89 N 0.11471 0.90512 0.33508
 N90 N 0.13507 0.91560 0.34504
 C91 C 0.14163 0.93613 0.33124
 C92 C 0.12445 0.93854 0.31173
 C93 C 0.10760 0.91870 0.31459
 H94 H 0.15769 0.94835 0.33507
 H95 H 0.09146 0.91454 0.30263
 N96 N 0.16550 0.88515 0.40554
 N97 N 0.15529 0.86459 0.41578
 C98 C 0.16902 0.85782 0.43626
 C99 C 0.18864 0.87492 0.43887
 C100 C 0.18598 0.89198 0.41923
 H101 H 0.16510 0.84171 0.44841
 H102 H 0.19807 0.90813 0.41529
 H103 H 0.11979 0.88514 0.39039
 H104 H 0.14024 0.86475 0.36999
 C105 C 0.10549 0.12545 0.14394
 C106 C 0.08670 0.14433 0.14383
 C107 C 0.08615 0.16371 0.12513
 C108 C 0.10543 0.16317 0.10641
 C109 C 0.12430 0.14434 0.10632
 C110 C 0.12432 0.12551 0.12517
 C111 C 0.10554 0.10648 0.16272
 C112 C 0.12433 0.08726 0.16340
 C113 C 0.14312 0.08794 0.14420
 C114 C 0.14317 0.10674 0.12526
 C115 C 0.16198 0.10688 0.10642
 C116 C 0.16247 0.12555 0.08702
 C117 C 0.14314 0.14423 0.08749
 H118 H 0.07274 0.14337 0.15867
 H119 H 0.10635 0.17720 0.09157
 H120 H 0.09058 0.10724 0.17655
 H121 H 0.15809 0.07410 0.14344
 H122 H 0.17602 0.09211 0.10746
 H123 H 0.14215 0.15901 0.07340
 C124 C 0.39395 0.87494 0.64410
 C125 C 0.41273 0.85602 0.64403
 C126 C 0.41335 0.83673 0.62529
 C127 C 0.39409 0.83733 0.60655
 C128 C 0.37519 0.85614 0.60647
 C129 C 0.37517 0.87495 0.62528
 C130 C 0.39385 0.89385 0.66289
 C131 C 0.37513 0.91315 0.66346
 C132 C 0.35644 0.91259 0.64417
 C133 C 0.35638 0.89378 0.62527
 C134 C 0.33761 0.89372 0.60637
 C135 C 0.33703 0.87499 0.58709
 C136 C 0.35630 0.85623 0.58768
 H137 H 0.42662 0.85688 0.65893
 H138 H 0.39325 0.82341 0.59166
 H139 H 0.40870 0.89295 0.67683
 H140 H 0.34158 0.92654 0.64328
 H141 H 0.32369 0.90862 0.60725
 H142 H 0.35718 0.84134 0.57374
 C143 C 0.89439 0.62493 0.35595
 C144 C 0.91317 0.64391 0.35601
 C145 C 0.91374 0.66326 0.37469
 C146 C 0.89443 0.66266 0.39339
 C147 C 0.87553 0.64379 0.39349
 C148 C 0.87557 0.62491 0.37474
 C149 C 0.89431 0.60598 0.33719
 C150 C 0.87561 0.58660 0.33665
 C151 C 0.85691 0.58714 0.35594
 C152 C 0.85680 0.60600 0.37479
 C153 C 0.83802 0.60603 0.39368
 C154 C 0.83736 0.62486 0.41288
 C155 C 0.85659 0.64370 0.41223
 H156 H 0.92711 0.64305 0.34115
 H157 H 0.89353 0.67664 0.40823
 H158 H 0.90917 0.60690 0.32325
 H159 H 0.84207 0.57312 0.35686
 H160 H 0.82416 0.59104 0.39288
 H161 H 0.85738 0.65869 0.42607
 C162 C 0.60629 0.37508 -0.14405
 C163 C 0.58746 0.35617 -0.14391
 C164 C 0.58687 0.33683 -0.12517
 C165 C 0.60617 0.33736 -0.10650
 C166 C 0.62507 0.35620 -0.10644
 C167 C 0.62509 0.37507 -0.12525
 C168 C 0.60643 0.39398 -0.16289
 C169 C 0.62510 0.41338 -0.16345
 C170 C 0.64377 0.41285 -0.14412
 C171 C 0.64390 0.39394 -0.12525
 C172 C 0.66272 0.39378 -0.10638
 C173 C 0.66327 0.37497 -0.08710
 C174 C 0.64394 0.35624 -0.08766
 H175 H 0.57348 0.35711 -0.15872
 H176 H 0.60709 0.32334 -0.09166
 H177 H 0.59166 0.39298 -0.17692
 H178 H 0.65853 0.42694 -0.14314
 H179 H 0.67672 0.40864 -0.10730
 H180 H 0.64300 0.34134 -0.07370
 C181 C 0.02787 0.20361 0.14397
 C182 C 0.02773 0.22236 0.12528
 C183 C 0.04633 0.22225 0.10652
 C184 C 0.06507 0.20349 0.10639
 C185 C -0.04278 0.29296 0.12536
 C186 C 0.04655 0.18480 0.14400
 C187 C 0.00849 0.24172 0.12536
 C188 C -0.00765 0.25792 0.12542
 C189 C -0.02657 0.27684 0.12544
 C190 C 0.06579 0.18414 0.12517
 H191 H 0.01347 0.20350 0.15864
 H192 H 0.04638 0.23674 0.09188
 H193 H 0.07867 0.20480 0.09126
 H194 H 0.04528 0.17111 0.15911
 C195 C 0.47188 0.79696 0.64392
 C196 C 0.47187 0.77809 0.62539
 C197 C 0.45310 0.77811 0.60680
 C198 C 0.43432 0.79684 0.60670
 C199 C 0.54228 0.70727 0.62541
 C200 C 0.45319 0.81578 0.64394
 C201 C 0.49112 0.75870 0.62546
 C202 C 0.50723 0.74246 0.62549
 C203 C 0.52612 0.72345 0.62548
 C204 C 0.43376 0.81632 0.62531
 H205 H 0.48639 0.79715 0.65846
 H206 H 0.45292 0.76355 0.59227
 H207 H 0.42054 0.79541 0.59174
 H208 H 0.45461 0.82960 0.65887
 C209 C 0.95348 0.72205 0.39316
 C210 C 0.97227 0.72212 0.37456
 C211 C 0.97227 0.70323 0.35605
 C212 C 0.95359 0.68434 0.35604
 C213 C 1.04286 0.79304 0.37469
 C214 C 0.93471 0.70324 0.39327
 C215 C 0.99156 0.74156 0.37449
 C216 C 1.00771 0.75782 0.37448
 C217 C 1.02665 0.77684 0.37455
 C218 C 0.93415 0.68375 0.37467
 H219 H 0.95329 0.73661 0.40768
 H220 H 0.98679 0.70306 0.34151
 H221 H 0.95501 0.67051 0.34112
 H222 H 0.92094 0.70461 0.40824
 C223 C 0.54697 0.27830 -0.10638
 C224 C 0.52831 0.27819 -0.12507
 C225 C 0.52840 0.29694 -0.14375
 C226 C 0.54712 0.31576 -0.14385
 C227 C 0.45780 0.20751 -0.12519
 C228 C 0.56575 0.29706 -0.10632
 C229 C 0.50908 0.25879 -0.12512
 C230 C 0.49296 0.24256 -0.12517
 C231 C 0.47404 0.22361 -0.12521
 C232 C 0.56644 0.31641 -0.12511
 H233 H 0.54704 0.26380 -0.09174
 H234 H 0.51395 0.29704 -0.15836
 H235 H 0.54583 0.32946 -0.15894
 H236 H 0.57940 0.29574 -0.09124
 C237 C 0.14268 0.02841 0.20296
 C238 C 0.12427 0.02853 0.22190
 C239 C 0.10591 0.04755 0.22209
 C240 C 0.10589 0.06643 0.20342
 C241 C 0.12425 -0.04226 0.29238
 C242 C 0.14275 0.04716 0.18416
 C243 C 0.12420 0.00912 0.24113
 C244 C 0.12417 -0.00712 0.25726
 C245 C 0.12417 -0.02610 0.27617
 C246 C 0.12432 0.06681 0.18380
 H247 H 0.15708 0.01372 0.20267
 H248 H 0.09151 0.04783 0.23675
 H249 H 0.09114 0.08042 0.20503
 H250 H 0.15751 0.04557 0.17020
 C251 C 0.64390 0.47181 -0.20362
 C252 C 0.62495 0.47217 -0.22204
 C253 C 0.60608 0.45360 -0.22165
 C254 C 0.60604 0.43477 -0.20290
 C255 C 0.62476 0.54285 -0.29287
 C256 C 0.64405 0.45298 -0.18487
 C257 C 0.62485 0.49157 -0.24136
 C258 C 0.62477 0.50778 -0.25757
 C259 C 0.62472 0.52672 -0.27659
 C260 C 0.62507 0.43385 -0.18388
 H261 H 0.65869 0.48613 -0.20373
 H262 H 0.59126 0.45365 -0.23589
 H263 H 0.59074 0.42128 -0.20394
 H264 H 0.65939 0.45401 -0.17147
 C265 C 0.39372 0.95294 0.72195
 C266 C 0.37514 0.97174 0.72198
 C267 C 0.35653 0.97172 0.70323
 C268 C 0.35645 0.95300 0.68444
 C269 C 0.37526 1.04236 0.79248
 C270 C 0.39377 0.93414 0.70325
 C271 C 0.37522 0.99107 0.74127
 C272 C 0.37531 1.00724 0.75743
 C273 C 0.37536 1.02617 0.77635
 C274 C 0.37512 0.93357 0.68385
 H275 H 0.40827 0.95277 0.73646
 H276 H 0.34198 0.98626 0.70308
 H277 H 0.34147 0.95439 0.67070
 H278 H 0.40876 0.92038 0.70464
 C279 C 0.89432 0.54664 0.27831
 C280 C 0.87572 0.52781 0.27828
 C281 C 0.85703 0.52790 0.29696
 C282 C 0.85692 0.54670 0.31568
 C283 C 0.87586 0.45705 0.20784
 C284 C 0.89435 0.56551 0.29696
 C285 C 0.87581 0.50840 0.25906
 C286 C 0.87588 0.49216 0.24295
 C287 C 0.87591 0.47319 0.22404
 C288 C 0.87562 0.56613 0.31629
 H289 H 0.90893 0.54678 0.26385
 H290 H 0.84245 0.51337 0.29710
 H291 H 0.84186 0.54536 0.32936
 H292 H 0.90937 0.57928 0.29559
 C293 C 0.22063 0.10654 0.04706
 C294 C 0.22096 0.12543 0.02852
 C295 C 0.20251 0.14436 0.02875
 C296 C 0.18376 0.14450 0.04748
 C297 C 0.29155 0.12516 -0.04187
 C298 C 0.20190 0.10648 0.06580
 C299 C 0.24027 0.12537 0.00926
 C300 C 0.25646 0.12528 -0.00686
 C301 C 0.27539 0.12520 -0.02573
 C302 C 0.18285 0.12551 0.06663
 H303 H 0.23490 0.09174 0.04706
 H304 H 0.20260 0.15914 0.01440
 H305 H 0.17033 0.15982 0.04634
 H306 H 0.20298 0.09118 0.07929
 C307 C 0.77866 0.60626 0.45247
 C308 C 0.77873 0.62478 0.47134
 C309 C 0.79763 0.64332 0.47143
 C310 C 0.81645 0.64339 0.45276
 C311 C 0.70823 0.62474 0.54198
 C312 C 0.79738 0.60624 0.43369
 C313 C 0.75941 0.62475 0.49064
 C314 C 0.74325 0.62474 0.50681
 C315 C 0.72435 0.62474 0.52577
 C316 C 0.81693 0.62483 0.43325
 H317 H 0.76406 0.59174 0.45222
 H318 H 0.79786 0.65782 0.48601
 H319 H 0.83035 0.65829 0.45429
 H320 H 0.79587 0.59135 0.41982
 C321 C 0.70307 0.35597 -0.02874
 C322 C 0.72180 0.37467 -0.02860
 C323 C 0.72173 0.39347 -0.04725
 C324 C 0.70301 0.39364 -0.06602
 C325 C 0.79235 0.37446 0.04188
 C326 C 0.68430 0.35598 -0.04744
 C327 C 0.74110 0.37458 -0.00932
 C328 C 0.75726 0.37453 0.00683
 C329 C 0.77619 0.37448 0.02573
 C330 C 0.68366 0.37486 -0.06672
 H331 H 0.70295 0.34126 -0.01432
 H332 H 0.73621 0.40811 -0.04732
 H333 H 0.70434 0.40880 -0.07965
 H334 H 0.67062 0.34087 -0.04615
 C335 C 0.27854 0.89365 0.54735
 C336 C 0.27853 0.87506 0.52855
 C337 C 0.29731 0.85646 0.52855
 C338 C 0.31609 0.85637 0.54726
 C339 C 0.20791 0.87496 0.45810
 C340 C 0.29723 0.89369 0.56614
 C341 C 0.25922 0.87506 0.50926
 C342 C 0.24305 0.87504 0.49312
 C343 C 0.22410 0.87500 0.47423
 C344 C 0.31665 0.87502 0.56669
 H345 H 0.26402 0.90822 0.54753
 H346 H 0.29748 0.84190 0.51402
 H347 H 0.32984 0.84138 0.54585
 H348 H 0.29581 0.90866 0.57992
   
