data_POSCAR
  _audit_creation_date              2014-09-24
  _audit_creation_method            'ToBaCCo'
  _symmetry_space_group_name_H-M    'P1'
  _symmetry_Int_Tables_number       1
  _symmetry_cell_setting            triclinic
  loop_
  _symmetry_equiv_pos_as_xyz
 x,y,z
_cell_length_a 49.9541
_cell_length_b 50.8766
_cell_length_c 38.8892
_cell_angle_alpha 89.943700
_cell_angle_beta 90.137200
_cell_angle_gamma 88.746400
loop_
  _atom_site_label
  _atom_site_type_symbol
  _atom_site_fract_x
  _atom_site_fract_y
  _atom_site_fract_z
O1 O -0.03060 0.28650 0.05424
 O2 O 0.01897 0.30287 -0.01245
 O3 O -0.03281 0.30071 -0.00977
 O4 O 0.02215 0.28970 0.05246
 O5 O 0.02389 0.24759 0.03876
 O6 O -0.02925 0.25916 -0.02590
 O7 O 0.02269 0.26071 -0.02530
 O8 O -0.02810 0.24479 0.03862
 Cu9 Cu -0.00580 0.29913 0.02289
 Cu10 Cu -0.00251 0.24887 0.00511
 C11 C -0.03814 0.26290 0.05721
 C12 C 0.02949 0.28434 -0.03003
 C13 C -0.04011 0.28190 -0.02876
 C14 C 0.03252 0.26682 0.05600
 O15 O 0.51711 0.82748 0.45385
 O16 O 0.46752 0.82438 0.52402
 O17 O 0.51951 0.82667 0.52082
 O18 O 0.46457 0.82623 0.45745
 O19 O 0.46716 0.78286 0.45567
 O20 O 0.52179 0.78328 0.51928
 O21 O 0.47021 0.78100 0.52254
 O22 O 0.51932 0.78410 0.45254
 Cu23 Cu 0.49196 0.83056 0.48903
 Cu24 Cu 0.49485 0.77847 0.48720
 C25 C 0.52685 0.80624 0.44151
 C26 C 0.46058 0.80212 0.53532
 C27 C 0.52987 0.80502 0.53101
 C28 C 0.45633 0.80448 0.44607
 O29 O 1.02319 0.72239 0.02374
 O30 O 0.97496 0.72417 -0.04850
 O31 O 1.02689 0.71750 -0.04348
 O32 O 0.97148 0.72689 0.01790
 O33 O 0.97427 0.76997 0.01221
 O34 O 1.03264 0.76037 -0.04484
 O35 O 0.98048 0.76700 -0.05321
 O36 O 1.02550 0.76564 0.02105
 Cu37 Cu 0.99891 0.71836 -0.01235
 Cu38 Cu 1.00383 0.77003 -0.01682
 C39 C 1.03199 0.74398 0.03520
 C40 C 0.96919 0.74613 -0.06260
 C41 C 1.03960 0.73723 -0.05408
 C42 C 0.96309 0.75001 0.02495
 O43 O 0.47398 0.21533 0.48123
 O44 O 0.51831 0.19933 0.55494
 O45 O 0.46629 0.20519 0.54591
 O46 O 0.52539 0.20903 0.48958
 O47 O 0.52907 0.25103 0.50274
 O48 O 0.46866 0.24780 0.55608
 O49 O 0.52002 0.24158 0.56739
 O50 O 0.47779 0.25764 0.49265
 Cu51 Cu 0.49577 0.20289 0.51689
 Cu52 Cu 0.49934 0.25371 0.53103
 C53 C 0.46825 0.23929 0.47464
 C54 C 0.52672 0.21785 0.57369
 C55 C 0.45695 0.22610 0.55962
 C56 C 0.53727 0.23073 0.48665
 O57 O 0.71588 -0.02990 0.02102
 O58 O 0.70798 0.01762 -0.05005
 O59 O 0.71513 -0.03320 -0.04606
 O60 O 0.71005 0.02125 0.01679
 O61 O 0.75384 0.02608 0.01357
 O62 O 0.75898 -0.02862 -0.04748
 O63 O 0.75185 0.02185 -0.05183
 O64 O 0.75966 -0.02486 0.01996
 Cu65 Cu 0.70786 -0.00661 -0.01429
 Cu66 Cu 0.76053 -0.00121 -0.01649
 C67 C 0.73910 -0.03534 0.03272
 C68 C 0.72857 0.02806 -0.06283
 C69 C 0.73803 -0.03990 -0.05771
 C70 C 0.73115 0.03329 0.02512
 O71 O 0.23956 0.52498 0.48559
 O72 O 0.24174 0.47264 0.55166
 O73 O 0.24539 0.52371 0.55219
 O74 O 0.23338 0.47400 0.48551
 O75 O 0.27693 0.46951 0.47695
 O76 O 0.28902 0.51914 0.54417
 O77 O 0.28535 0.46799 0.54369
 O78 O 0.28330 0.52017 0.47865
 Cu79 Cu 0.23563 0.49924 0.51947
 Cu80 Cu 0.28800 0.49348 0.51013
 C81 C 0.26129 0.53173 0.47139
 C82 C 0.26408 0.46149 0.55892
 C83 C 0.26921 0.53014 0.55921
 C84 C 0.25301 0.46340 0.46975
 O85 O 0.28597 1.02631 0.04688
 O86 O 0.28986 0.97146 -0.01604
 O87 O 0.29051 1.02254 -0.01938
 O88 O 0.29034 0.97474 0.05092
 O89 O 0.24625 0.97294 0.04829
 O90 O 0.24632 1.02262 -0.02148
 O91 O 0.24565 0.97184 -0.01839
 O92 O 0.24188 1.02435 0.04538
 Cu93 Cu 0.29356 0.99879 0.01601
 Cu94 Cu 0.24064 0.99793 0.01343
 C95 C 0.26299 1.03478 0.05650
 C96 C 0.26811 0.96259 -0.02809
 C97 C 0.26866 1.03081 -0.03247
 C98 C 0.26854 0.96523 0.06115
 O99 O 0.78810 0.47045 0.45017
 O100 O 0.78071 0.52254 0.51575
 O101 O 0.79136 0.47209 0.51683
 O102 O 0.77919 0.52144 0.44892
 O103 O 0.73574 0.51461 0.45174
 O104 O 0.74793 0.46510 0.51958
 O105 O 0.73733 0.51519 0.51838
 O106 O 0.74457 0.46402 0.45263
 Cu107 Cu 0.78922 0.49734 0.48257
 Cu108 Cu 0.73706 0.48896 0.48578
 C109 C 0.76747 0.45837 0.44032
 C110 C 0.75765 0.52768 0.52815
 C111 C 0.77172 0.46025 0.52984
 C112 C 0.75541 0.52664 0.43902
 C113 C 0.31316 0.32151 0.28968
 C114 C 0.33103 0.30069 0.29096
 C115 C 0.31755 0.27894 0.27915
 N116 N 0.29220 0.28586 0.27026
 C117 C 0.28946 0.31189 0.27658
 C118 C 0.32784 0.25283 0.27911
 C119 C 0.31629 0.23274 0.25925
 C120 C 0.32300 0.20619 0.26179
 C121 C 0.30891 0.19357 0.23653
 C122 C 0.29377 0.21269 0.21950
 N123 N 0.29843 0.23650 0.23338
 C124 C 0.27749 0.20808 0.19052
 C125 C 0.25711 0.22599 0.17967
 C126 C 0.24351 0.22487 0.14864
 C127 C 0.22449 0.24475 0.14919
 C128 C 0.22712 0.25745 0.18051
 N129 N 0.24710 0.24595 0.19909
 C130 C 0.21061 0.27863 0.19207
 C131 C 0.21814 0.29550 0.21925
 C132 C 0.20150 0.31435 0.23438
 C133 C 0.21691 0.32802 0.25737
 C134 C 0.24250 0.31695 0.25606
 N135 N 0.24309 0.29731 0.23256
 C136 C 0.26506 0.32630 0.27407
 H137 H 0.31715 0.34136 0.29788
 H138 H 0.35153 0.30147 0.29990
 H139 H 0.26020 0.28781 0.22324
 H140 H 0.33679 0.19682 0.27972
 H141 H 0.30974 0.17267 0.23131
 H142 H 0.24701 0.21130 0.12764
 H143 H 0.21059 0.24951 0.12862
 H144 H 0.21002 0.34451 0.27274
 H145 H 0.29210 0.25449 0.22315
 H146 H 0.18052 0.31825 0.22901
 C147 C 0.72651 0.70806 0.32989
 C148 C 0.70547 0.72580 0.32893
 C149 C 0.70679 0.73853 0.29747
 N150 N 0.72782 0.72905 0.27910
 C151 C 0.73985 0.71034 0.29885
 C152 C 0.68775 0.75723 0.28528
 C153 C 0.69213 0.77278 0.25573
 C154 C 0.67238 0.78653 0.23766
 C155 C 0.68508 0.80032 0.21224
 C156 C 0.71224 0.79442 0.21523
 N157 N 0.71635 0.77770 0.24191
 C158 C 0.73260 0.80605 0.19553
 C159 C 0.75904 0.79552 0.19397
 C160 C 0.78063 0.80743 0.17846
 C161 C 0.80167 0.78974 0.17993
 C162 C 0.79214 0.76718 0.19515
 N163 N 0.76615 0.77085 0.20396
 C164 C 0.80657 0.74301 0.19820
 C165 C 0.79793 0.72221 0.21934
 C166 C 0.80844 0.69674 0.21860
 C167 C 0.79581 0.68298 0.24408
 C168 C 0.77786 0.70036 0.25965
 N169 N 0.77934 0.72426 0.24452
 C170 C 0.76171 0.69422 0.28822
 H171 H 0.73136 0.69498 0.35107
 H172 H 0.69090 0.72899 0.34914
 H173 H 0.77029 0.74157 0.25331
 H174 H 0.65103 0.78677 0.24234
 H175 H 0.67534 0.81341 0.19393
 H176 H 0.78145 0.82664 0.16674
 H177 H 0.82161 0.79311 0.17030
 H178 H 0.79947 0.66249 0.25038
 H179 H 0.73482 0.77231 0.25249
 H180 H 0.82366 0.68882 0.20153
 C181 C 0.75882 0.19544 0.15720
 C182 C 0.77561 0.21630 0.15481
 C183 C 0.77039 0.23222 0.18299
 N184 N 0.75082 0.22177 0.20238
 C185 C 0.74338 0.19944 0.18643
 C186 C 0.78423 0.25547 0.19085
 C187 C 0.77646 0.27329 0.21710
 C188 C 0.79171 0.29417 0.22806
 C189 C 0.77678 0.30774 0.25199
 C190 C 0.75290 0.29459 0.25561
 N191 N 0.75277 0.27382 0.23386
 C192 C 0.73121 0.30296 0.27660
 C193 C 0.70879 0.28734 0.28318
 C194 C 0.68558 0.29601 0.29948
 C195 C 0.66998 0.27441 0.30363
 C196 C 0.68431 0.25316 0.29022
 N197 N 0.70799 0.26113 0.27769
 C198 C 0.67636 0.22667 0.29177
 C199 C 0.68802 0.20659 0.27117
 C200 C 0.68306 0.18001 0.27468
 C201 C 0.69637 0.16731 0.24840
 C202 C 0.70949 0.18640 0.22978
 N203 N 0.70411 0.21030 0.24370
 C204 C 0.72423 0.18173 0.19930
 H205 H 0.75867 0.17902 0.13960
 H206 H 0.79010 0.21922 0.13461
 H207 H 0.70847 0.22826 0.23257
 H208 H 0.81145 0.29943 0.21934
 H209 H 0.78287 0.32558 0.26457
 H210 H 0.68044 0.31575 0.30783
 H211 H 0.65037 0.27440 0.31538
 H212 H 0.69622 0.14637 0.24363
 H213 H 0.73635 0.26253 0.22798
 H214 H 0.67079 0.17068 0.29385
 C215 C 0.28703 0.68589 0.30439
 C216 C 0.30438 0.70636 0.30226
 C217 C 0.28964 0.72788 0.29018
 N218 N 0.26384 0.72127 0.28527
 C219 C 0.26218 0.69563 0.29400
 C220 C 0.29930 0.75367 0.28717
 C221 C 0.28463 0.77423 0.27066
 C222 C 0.29010 0.80081 0.27277
 C223 C 0.27236 0.81375 0.25119
 C224 C 0.25703 0.79472 0.23563
 N225 N 0.26459 0.77073 0.24776
 C226 C 0.23798 0.79943 0.20916
 C227 C 0.21974 0.78031 0.19838
 C228 C 0.20484 0.78168 0.16831
 C229 C 0.18888 0.76012 0.16811
 C230 C 0.19423 0.74650 0.19835
 N231 N 0.21319 0.75883 0.21677
 C232 C 0.18045 0.72412 0.20970
 C233 C 0.18929 0.70852 0.23763
 C234 C 0.17369 0.69066 0.25493
 C235 C 0.18990 0.67884 0.27933
 C236 C 0.21506 0.68963 0.27596
 N237 N 0.21448 0.70770 0.25042
 C238 C 0.23808 0.68153 0.29471
 H239 H 0.29218 0.66613 0.31277
 H240 H 0.32536 0.70550 0.30924
 H241 H 0.23092 0.71683 0.23972
 H242 H 0.30543 0.81015 0.28778
 H243 H 0.27133 0.83477 0.24704
 H244 H 0.20557 0.79653 0.14841
 H245 H 0.17489 0.75516 0.14797
 H246 H 0.18380 0.66387 0.29728
 H247 H 0.25871 0.75276 0.23792
 H248 H 0.15278 0.68660 0.25051
 C249 C 0.79880 0.19814 0.80393
 C250 C 0.81738 0.21726 0.79965
 C251 C 0.80357 0.23952 0.78815
 N252 N 0.77712 0.23468 0.78561
 C253 C 0.77414 0.20939 0.79531
 C254 C 0.81494 0.26449 0.78396
 C255 C 0.80145 0.28584 0.76760
 C256 C 0.81019 0.31153 0.76701
 C257 C 0.79236 0.32573 0.74687
 C258 C 0.77336 0.30829 0.73541
 N259 N 0.77917 0.28402 0.74795
 C260 C 0.75190 0.31473 0.71292
 C261 C 0.72967 0.29842 0.70807
 C262 C 0.70991 0.30258 0.68341
 C263 C 0.69109 0.28385 0.68868
 C264 C 0.69996 0.26878 0.71631
 N265 N 0.72354 0.27771 0.72820
 C266 C 0.68532 0.24843 0.73153
 C267 C 0.69628 0.23115 0.75652
 C268 C 0.68145 0.21583 0.77857
 C269 C 0.69951 0.20149 0.79815
 C270 C 0.72489 0.20819 0.78718
 N271 N 0.72271 0.22635 0.76183
 C272 C 0.74926 0.19714 0.79979
 H273 H 0.80299 0.17836 0.81300
 H274 H 0.83857 0.21505 0.80503
 H275 H 0.73827 0.23318 0.74671
 H276 H 0.82772 0.31930 0.77942
 H277 H 0.79338 0.34652 0.74126
 H278 H 0.70902 0.31764 0.66373
 H279 H 0.67288 0.28168 0.67390
 H280 H 0.69440 0.18793 0.81843
 H281 H 0.77006 0.26674 0.74056
 H282 H 0.65987 0.21529 0.78067
 C283 C 0.23814 0.76373 0.87028
 C284 C 0.25835 0.78148 0.86992
 C285 C 0.27170 0.77808 0.83900
 N286 N 0.26043 0.75863 0.82062
 C287 C 0.23998 0.74964 0.83979
 C288 C 0.29281 0.79395 0.82741
 C289 C 0.30849 0.78797 0.79814
 C290 C 0.32595 0.80516 0.78270
 C291 C 0.33812 0.79169 0.75619
 C292 C 0.32762 0.76664 0.75588
 N293 N 0.30985 0.76450 0.78191
 C294 C 0.33615 0.74585 0.73399
 C295 C 0.32354 0.72130 0.73293
 C296 C 0.33442 0.69866 0.71834
 C297 C 0.31514 0.67996 0.72026
 C298 C 0.29278 0.69195 0.73506
 N299 N 0.29806 0.71718 0.74298
 C300 C 0.26743 0.68026 0.73873
 C301 C 0.24706 0.69076 0.76040
 C302 C 0.22099 0.68202 0.76157
 C303 C 0.20811 0.69596 0.78718
 C304 C 0.22645 0.71330 0.80071
 N305 N 0.25025 0.70963 0.78453
 C306 C 0.22167 0.73040 0.82903
 H307 H 0.22372 0.76169 0.89075
 H308 H 0.26254 0.79543 0.89010
 H309 H 0.26836 0.71742 0.79203
 H310 H 0.32981 0.82525 0.79000
 H311 H 0.35349 0.79947 0.73978
 H312 H 0.35419 0.69578 0.70752
 H313 H 0.31738 0.65986 0.71148
 H314 H 0.18772 0.69294 0.79520
 H315 H 0.30138 0.74725 0.79049
 H316 H 0.21216 0.66684 0.74605
 C317 C 0.27536 0.28529 0.67780
 C318 C 0.29191 0.26353 0.67752
 C319 C 0.28095 0.24541 0.69981
 N320 N 0.25884 0.25608 0.71483
 C321 C 0.25545 0.28057 0.70164
 C322 C 0.29076 0.21923 0.70477
 C323 C 0.27878 0.20077 0.72685
 C324 C 0.28405 0.17390 0.72565
 C325 C 0.26845 0.16258 0.75032
 C326 C 0.25421 0.18279 0.76635
 N327 N 0.26076 0.20609 0.75199
 C328 C 0.23591 0.17901 0.79363
 C329 C 0.21828 0.19873 0.80648
 C330 C 0.20091 0.19529 0.83379
 C331 C 0.18738 0.21867 0.83819
 C332 C 0.19697 0.23585 0.81357
 N333 N 0.21573 0.22349 0.79415
 C334 C 0.18858 0.26251 0.81026
 C335 C 0.19734 0.27983 0.78420
 C336 C 0.19083 0.30647 0.78295
 C337 C 0.20336 0.31653 0.75466
 C338 C 0.21775 0.29597 0.73962
 N339 N 0.21358 0.27355 0.75740
 C340 C 0.23518 0.29908 0.71132
 H341 H 0.27828 0.30271 0.66248
 H342 H 0.30990 0.26159 0.66228
 H343 H 0.22023 0.25491 0.75036
 H344 H 0.29734 0.16340 0.70825
 H345 H 0.26753 0.14172 0.75553
 H346 H 0.19825 0.17783 0.84921
 H347 H 0.17216 0.22243 0.85741
 H348 H 0.20288 0.33699 0.74697
 H349 H 0.25522 0.22468 0.76070
 H350 H 0.17876 0.31777 0.80092
 C351 C 0.72834 0.70844 0.64021
 C352 C 0.70658 0.72514 0.64321
 C353 C 0.70801 0.73627 0.67567
 N354 N 0.72980 0.72684 0.69266
 C355 C 0.74222 0.70977 0.67104
 C356 C 0.68847 0.75346 0.68988
 C357 C 0.69258 0.76761 0.72065
 C358 C 0.67257 0.78000 0.73970
 C359 C 0.68502 0.79286 0.76621
 C360 C 0.71229 0.78778 0.76281
 N361 N 0.71670 0.77247 0.73488
 C362 C 0.73243 0.79904 0.78330
 C363 C 0.75919 0.78924 0.78397
 C364 C 0.78047 0.80103 0.80043
 C365 C 0.80213 0.78423 0.79712
 C366 C 0.79329 0.76229 0.77977
 N367 N 0.76709 0.76548 0.77158
 C368 C 0.80862 0.73897 0.77398
 C369 C 0.80052 0.71916 0.75101
 C370 C 0.81196 0.69409 0.74925
 C371 C 0.79970 0.68145 0.72250
 C372 C 0.78104 0.69909 0.70872
 N373 N 0.78172 0.72207 0.72614
 C374 C 0.76488 0.69406 0.67979
 H375 H 0.73328 0.69660 0.61792
 H376 H 0.69143 0.72867 0.62370
 H377 H 0.77203 0.73955 0.71909
 H378 H 0.65123 0.78001 0.73488
 H379 H 0.67506 0.80485 0.78548
 H380 H 0.78065 0.81957 0.81391
 H381 H 0.82203 0.78777 0.80686
 H382 H 0.80404 0.66151 0.71419
 H383 H 0.73523 0.76818 0.72386
 H384 H 0.82758 0.68571 0.76549
 C385 C 0.26014 0.05606 0.07881
 C386 C 0.28143 0.07098 0.09045
 C387 C 0.27665 0.09530 0.11037
 N388 N 0.29733 0.11101 0.11853
 N389 N 0.29297 0.13350 0.13539
 C390 C 0.26776 0.14112 0.14471
 N391 N 0.24713 0.12534 0.13673
 N392 N 0.25148 0.10290 0.11986
 C393 C 0.26242 0.16610 0.16278
 C394 C 0.28269 0.18339 0.17106
 H395 H 0.30179 0.06565 0.08332
 H396 H 0.24196 0.17099 0.16991
 H397 H 0.23993 0.06200 0.08593
 H398 H 0.30332 0.17770 0.16596
 C399 C 0.75381 0.54846 0.55388
 C400 C 0.77421 0.56501 0.56400
 C401 C 0.76900 0.58711 0.58759
 N402 N 0.78867 0.60418 0.59505
 N403 N 0.78382 0.62473 0.61550
 C404 C 0.75911 0.62891 0.62924
 N405 N 0.73951 0.61176 0.62195
 N406 N 0.74436 0.59125 0.60151
 C407 C 0.75301 0.65187 0.65090
 C408 C 0.77186 0.67079 0.65844
 H409 H 0.79413 0.56236 0.55346
 H410 H 0.73283 0.65426 0.66076
 H411 H 0.73383 0.55142 0.56418
 H412 H 0.79252 0.66770 0.65074
 C413 C 0.74245 0.94603 0.06142
 C414 C 0.72173 0.93007 0.07215
 C415 C 0.72525 0.91062 0.09988
 N416 N 0.70751 0.89099 0.10329
 N417 N 0.71083 0.87276 0.12764
 C418 C 0.73188 0.87369 0.14975
 N419 N 0.74939 0.89357 0.14670
 N420 N 0.74619 0.91167 0.12215
 C421 C 0.73661 0.85298 0.17561
 C422 C 0.72494 0.82845 0.17282
 H423 H 0.70273 0.93086 0.05865
 H424 H 0.75132 0.85625 0.19557
 H425 H 0.76197 0.94413 0.07349
 H426 H 0.70979 0.82529 0.15339
 C427 C 0.26580 0.44073 0.58517
 C428 C 0.24320 0.42949 0.59944
 C429 C 0.24535 0.40758 0.62410
 N430 N 0.22346 0.39337 0.63164
 N431 N 0.22536 0.37286 0.65291
 C432 C 0.24918 0.36593 0.66763
 N433 N 0.27098 0.38039 0.66049
 N434 N 0.26912 0.40079 0.63906
 C435 C 0.25189 0.34257 0.68977
 C436 C 0.23200 0.32385 0.69139
 H437 H 0.22344 0.43596 0.59103
 H438 H 0.27061 0.33909 0.70333
 H439 H 0.28553 0.43339 0.59246
 H440 H 0.21280 0.32781 0.67924
 C441 C 0.94086 0.25602 0.08174
 C442 C 0.92333 0.27479 0.09565
 C443 C 0.89965 0.26724 0.11545
 N444 N 0.88007 0.28536 0.12224
 N445 N 0.85797 0.27853 0.13880
 C446 C 0.85466 0.25332 0.14926
 N447 N 0.87437 0.23526 0.14282
 N448 N 0.89642 0.24206 0.12610
 C449 C 0.83024 0.24545 0.16723
 C450 C 0.80807 0.26236 0.17030
 H451 H 0.92580 0.29539 0.08960
 H452 H 0.82963 0.22591 0.17828
 H453 H 0.93755 0.23535 0.08638
 H454 H 0.80910 0.28219 0.16030
 C455 C 0.44096 0.80093 0.56337
 C456 C 0.43694 0.77781 0.58176
 C457 C 0.41672 0.77594 0.60902
 N458 N 0.41686 0.75471 0.63018
 N459 N 0.39832 0.75242 0.65450
 C460 C 0.37883 0.77120 0.65839
 N461 N 0.37862 0.79237 0.63714
 N462 N 0.39728 0.79476 0.61297
 C463 C 0.35769 0.76857 0.68432
 C464 C 0.35905 0.74979 0.71043
 H465 H 0.44929 0.76054 0.57637
 H466 H 0.34037 0.78173 0.68271
 H467 H 0.42986 0.81871 0.57010
 H468 H 0.37596 0.73615 0.71162
 C469 C 0.04888 0.74462 0.06360
 C470 C 0.05846 0.72225 0.08080
 C471 C 0.07688 0.72476 0.11013
 N472 N 0.09230 0.70395 0.12061
 N473 N 0.11033 0.70677 0.14560
 C474 C 0.11335 0.73043 0.16119
 N475 N 0.09751 0.75101 0.15123
 N476 N 0.07964 0.74824 0.12617
 C477 C 0.13485 0.73487 0.18611
 C478 C 0.15553 0.71661 0.19181
 H479 H 0.05366 0.70281 0.07162
 H480 H 0.13628 0.75433 0.19721
 H481 H 0.05513 0.76377 0.07233
 H482 H 0.15380 0.69660 0.18274
 C483 C 0.54524 0.21182 0.60228
 C484 C 0.55325 0.23142 0.62488
 C485 C 0.57593 0.22813 0.64879
 N486 N 0.58326 0.24879 0.66840
 N487 N 0.60514 0.24723 0.68795
 C488 C 0.62057 0.22493 0.68867
 N489 N 0.61301 0.20406 0.66948
 N490 N 0.59108 0.20563 0.64986
 C491 C 0.64625 0.22407 0.70742
 C492 C 0.65667 0.24668 0.72203
 H493 H 0.54376 0.25075 0.62336
 H494 H 0.65847 0.20623 0.70646
 H495 H 0.55388 0.19216 0.60427
 H496 H 0.64494 0.26484 0.72124
 C497 C 0.72537 0.04696 0.91141
 C498 C 0.74696 0.06121 0.89924
 C499 C 0.74361 0.08386 0.87611
 N500 N 0.76331 0.10170 0.87430
 N501 N 0.76045 0.12296 0.85458
 C502 C 0.73788 0.12709 0.83566
 N503 N 0.71832 0.10900 0.83694
 N504 N 0.72105 0.08782 0.85701
 C505 C 0.73466 0.15084 0.81434
 C506 C 0.74918 0.17324 0.82178
 H507 H 0.76686 0.05730 0.90945
 H508 H 0.72083 0.15071 0.79287
 H509 H 0.70534 0.05178 0.90227
 H510 H 0.76263 0.17268 0.84368
 C511 C 0.26177 0.55385 0.44721
 C512 C 0.23899 0.56433 0.43125
 C513 C 0.24071 0.58803 0.40980
 N514 N 0.22291 0.59263 0.38396
 N515 N 0.22476 0.61400 0.36431
 C516 C 0.24427 0.63168 0.37013
 N517 N 0.26177 0.62727 0.39630
 N518 N 0.26013 0.60577 0.41563
 C519 C 0.24658 0.65547 0.34906
 C520 C 0.23639 0.65716 0.31572
 H521 H 0.21996 0.55470 0.43377
 H522 H 0.25727 0.67183 0.35983
 H523 H 0.28106 0.56225 0.44177
 H524 H 0.22537 0.64079 0.30551
 C525 C 0.26799 0.94135 0.94644
 C526 C 0.29057 0.92658 0.93691
 C527 C 0.28810 0.90406 0.91333
 N528 N 0.30924 0.88743 0.90759
 N529 N 0.30657 0.86640 0.88750
 C530 C 0.28266 0.86132 0.87237
 N531 N 0.26167 0.87809 0.87785
 N532 N 0.26433 0.89903 0.89792
 C533 C 0.27862 0.83763 0.85162
 C534 C 0.29857 0.81854 0.84630
 H535 H 0.30991 0.93076 0.94803
 H536 H 0.25879 0.83449 0.84124
 H537 H 0.24867 0.93642 0.93582
 H538 H 0.31893 0.82209 0.85440
 C539 C 0.77026 0.43716 0.41490
 C540 C 0.74794 0.42702 0.39843
 C541 C 0.74954 0.40368 0.37632
 N542 N 0.72815 0.39720 0.35678
 N543 N 0.72875 0.37541 0.33782
 C544 C 0.75069 0.35919 0.33796
 N545 N 0.77207 0.36564 0.35755
 N546 N 0.77155 0.38753 0.37633
 C547 C 0.75120 0.33455 0.31833
 C548 C 0.73200 0.32904 0.29348
 H549 H 0.72844 0.43627 0.40226
 H550 H 0.76700 0.32020 0.32377
 H551 H 0.79008 0.42918 0.40944
 H552 H 0.71574 0.34298 0.28867
 C553 C 0.04888 0.28993 0.94547
 C554 C 0.06390 0.26979 0.93000
 C555 C 0.08536 0.27460 0.90543
 N556 N 0.10685 0.25793 0.90478
 N557 N 0.12609 0.26095 0.88168
 C558 C 0.12439 0.28052 0.85800
 N559 N 0.10271 0.29710 0.85832
 N560 N 0.08359 0.29433 0.88189
 C561 C 0.14484 0.28220 0.83111
 C562 C 0.17071 0.27279 0.83771
 H563 H 0.06151 0.24964 0.93832
 H564 H 0.13887 0.28803 0.80538
 H565 H 0.05330 0.31023 0.93977
 H566 H 0.17611 0.26800 0.86403
 C567 C 0.54757 0.80738 0.41467
 C568 C 0.55880 0.78453 0.40046
 C569 C 0.58171 0.78455 0.37674
 N570 N 0.59178 0.76135 0.36480
 N571 N 0.61318 0.76067 0.34447
 C572 C 0.62540 0.78320 0.33529
 N573 N 0.61523 0.80647 0.34704
 N574 N 0.59378 0.80715 0.36742
 C575 C 0.64973 0.78250 0.31391
 C576 C 0.66155 0.75879 0.30323
 H577 H 0.55116 0.76561 0.40797
 H578 H 0.65919 0.80086 0.30771
 H579 H 0.55480 0.82642 0.40701
 H580 H 0.65274 0.74049 0.31118
 C581 C 0.94793 0.74827 0.91147
 C582 C 0.93600 0.72656 0.89672
 C583 C 0.91048 0.72976 0.87830
 N584 N 0.90429 0.71375 0.85169
 N585 N 0.88097 0.71676 0.83524
 C586 C 0.86289 0.73554 0.84531
 N587 N 0.86890 0.75119 0.87228
 N588 N 0.89235 0.74846 0.88834
 C589 C 0.83715 0.73922 0.82764
 C590 C 0.83435 0.73447 0.79260
 H591 H 0.94503 0.70712 0.89945
 H592 H 0.82048 0.74740 0.84216
 H593 H 0.93999 0.76777 0.90565
 H594 H 0.85112 0.72589 0.77862
 C595 C 0.44945 0.24636 0.44692
 C596 C 0.43997 0.22823 0.42329
 C597 C 0.41798 0.23534 0.39959
 N598 N 0.41332 0.22063 0.37118
 N599 N 0.39300 0.22679 0.35014
 C600 C 0.37646 0.24767 0.35705
 N601 N 0.38099 0.26217 0.38560
 N602 N 0.40142 0.25620 0.40640
 C603 C 0.35358 0.25456 0.33481
 C604 C 0.35142 0.24578 0.30099
 H605 H 0.44852 0.20849 0.42243
 H606 H 0.33817 0.26751 0.34530
 H607 H 0.44209 0.26655 0.44587
 H608 H 0.36646 0.23220 0.29099
 C609 C 0.74083 0.93947 0.91607
 C610 C 0.71998 0.92318 0.90670
 C611 C 0.72348 0.90334 0.87947
 N612 N 0.70646 0.88298 0.87708
 N613 N 0.70994 0.86463 0.85295
 C614 C 0.73039 0.86617 0.83008
 N615 N 0.74711 0.88674 0.83215
 N616 N 0.74378 0.90493 0.85644
 C617 C 0.73533 0.84561 0.80420
 C618 C 0.72449 0.82072 0.80690
 H619 H 0.70110 0.92440 0.92030
 H620 H 0.74964 0.84939 0.78399
 H621 H 0.76019 0.93692 0.90389
 H622 H 0.70969 0.81688 0.82648
 C623 C 0.24755 0.44361 0.44321
 C624 C 0.26665 0.43555 0.41915
 C625 C 0.26116 0.41524 0.39323
 N626 N 0.27820 0.41145 0.36648
 N627 N 0.27388 0.39266 0.34338
 C628 C 0.25241 0.37686 0.34626
 N629 N 0.23541 0.38061 0.37305
 N630 N 0.23962 0.39952 0.39602
 C631 C 0.24845 0.35484 0.32233
 C632 C 0.26337 0.35187 0.29229
 H633 H 0.28604 0.44469 0.41889
 H634 H 0.23465 0.33969 0.32961
 H635 H 0.22760 0.43571 0.44204
 H636 H 0.27753 0.36678 0.28536
 C637 C 0.26987 0.04919 0.94108
 C638 C 0.24738 0.05960 0.92417
 C639 C 0.24988 0.08009 0.89764
 N640 N 0.22782 0.08962 0.88101
 N641 N 0.22985 0.10880 0.85785
 C642 C 0.25404 0.11913 0.85046
 N643 N 0.27609 0.10951 0.86696
 N644 N 0.27406 0.09032 0.89005
 C645 C 0.25648 0.14151 0.82679
 C646 C 0.23447 0.15263 0.80975
 H647 H 0.22756 0.05299 0.93078
 H648 H 0.27576 0.15073 0.82470
 H649 H 0.28953 0.05571 0.93355
 H650 H 0.21500 0.14395 0.81269
 C651 C 0.75020 0.54715 0.41301
 C652 C 0.77045 0.56291 0.40036
 C653 C 0.76490 0.58529 0.37720
 N654 N 0.78501 0.60134 0.36799
 N655 N 0.78014 0.62225 0.34809
 C656 C 0.75495 0.62785 0.33659
 N657 N 0.73488 0.61170 0.34560
 N658 N 0.73974 0.59082 0.36555
 C659 C 0.74896 0.65140 0.31574
 C660 C 0.76834 0.66973 0.30762
 H661 H 0.79091 0.55950 0.40884
 H662 H 0.72849 0.65488 0.30736
 H663 H 0.72969 0.55071 0.40488
 H664 H 0.78912 0.66554 0.31396
 C665 C 0.06145 0.73305 0.92417
 C666 C 0.07983 0.75255 0.91696
 C667 C 0.10357 0.74703 0.89570
 N668 N 0.12763 0.75664 0.90503
 N669 N 0.14931 0.75180 0.88597
 C670 C 0.14762 0.73753 0.85658
 N671 N 0.12346 0.72826 0.84694
 N672 N 0.10185 0.73268 0.86636
 C673 C 0.17129 0.73328 0.83474
 C674 C 0.19650 0.72846 0.84914
 H675 H 0.07834 0.77135 0.92996
 H676 H 0.16893 0.73485 0.80713
 H677 H 0.06524 0.71339 0.91433
 H678 H 0.19802 0.72662 0.87683
 C679 C 0.56094 0.23274 0.46460
 C680 C 0.56757 0.21383 0.43996
 C681 C 0.59070 0.21685 0.41710
 N682 N 0.59269 0.20254 0.38773
 N683 N 0.61319 0.20577 0.36635
 C684 C 0.63254 0.22325 0.37379
 N685 N 0.63073 0.23725 0.40337
 N686 N 0.61015 0.23418 0.42458
 C687 C 0.65482 0.22788 0.35015
 C688 C 0.65479 0.21939 0.31607
 H689 H 0.55474 0.19718 0.43614
 H690 H 0.67107 0.23982 0.35926
 H691 H 0.57277 0.25026 0.46676
 H692 H 0.63921 0.20656 0.30718
 C693 C 0.93837 0.28683 0.94601
 C694 C 0.93284 0.26924 0.91959
 C695 C 0.91061 0.27379 0.89521
 N696 N 0.90814 0.25804 0.86729
 N697 N 0.88758 0.26131 0.84568
 C698 C 0.86867 0.28043 0.85124
 N699 N 0.87116 0.29620 0.87913
 N700 N 0.89180 0.29302 0.90064
 C701 C 0.84472 0.28291 0.82923
 C702 C 0.84180 0.26830 0.79921
 H703 H 0.94525 0.25167 0.91654
 H704 H 0.82806 0.29501 0.83826
 H705 H 0.92692 0.30509 0.94793
 H706 H 0.85819 0.25575 0.79050
 C707 C 0.43341 0.80455 0.42232
 C708 C 0.42614 0.78214 0.40433
 C709 C 0.40131 0.78119 0.38404
 N710 N 0.39765 0.76129 0.36144
 N711 N 0.37481 0.75959 0.34392
 C712 C 0.35467 0.77760 0.34862
 N713 N 0.35828 0.79743 0.37134
 N714 N 0.38122 0.79927 0.38864
 C715 C 0.32891 0.77527 0.33063
 C716 C 0.32592 0.75893 0.30223
 H717 H 0.43890 0.76466 0.40534
 H718 H 0.31175 0.78629 0.34037
 H719 H 0.42168 0.82259 0.41943
 H720 H 0.34295 0.74740 0.29312
 C721 C 0.26986 0.94449 0.08746
 C722 C 0.24753 0.93089 0.09843
 C723 C 0.25025 0.90749 0.12064
 N724 N 0.22811 0.89512 0.13185
 N725 N 0.23040 0.87333 0.15078
 C726 C 0.25491 0.86302 0.15909
 N727 N 0.27702 0.87541 0.14793
 N728 N 0.27474 0.89724 0.12911
 C729 C 0.25780 0.83845 0.17893
 C730 C 0.23578 0.82566 0.19241
 H731 H 0.22777 0.93682 0.08945
 H732 H 0.27767 0.82983 0.18215
 H733 H 0.28952 0.93867 0.09696
 H734 H 0.21589 0.83376 0.18758
 C735 C 0.77689 0.44058 0.55692
 C736 C 0.75623 0.42987 0.57600
 C737 C 0.76094 0.40946 0.60229
 N738 N 0.74035 0.40171 0.62226
 N739 N 0.74395 0.38268 0.64545
 C740 C 0.76828 0.37062 0.64952
 N741 N 0.78892 0.37840 0.62959
 N742 N 0.78535 0.39753 0.60645
 C743 C 0.77196 0.34846 0.67361
 C744 C 0.75124 0.34045 0.69487
 H745 H 0.73580 0.43668 0.57163
 H746 H 0.79059 0.33717 0.67296
 H747 H 0.79745 0.43466 0.56220
 H748 H 0.73245 0.35149 0.69461
 C749 C 0.72974 0.05669 0.04705
 C750 C 0.70980 0.06118 0.07136
 C751 C 0.70924 0.08586 0.09095
 N752 N 0.70296 0.08608 0.12489
 N753 N 0.70382 0.10836 0.14288
 C754 C 0.71057 0.13123 0.12738
 N755 N 0.71627 0.13106 0.09332
 N756 N 0.71584 0.10875 0.07550
 C757 C 0.71234 0.15588 0.14670
 C758 C 0.72007 0.15646 0.18112
 H759 H 0.69565 0.04602 0.07734
 H760 H 0.71001 0.17420 0.13267
 H761 H 0.74564 0.07073 0.04456
 H762 H 0.72247 0.13818 0.19520
 C763 C 0.27417 0.55128 0.58401
 C764 C 0.25453 0.56073 0.60653
 C765 C 0.25858 0.58443 0.62742
 N766 N 0.24352 0.58903 0.65590
 N767 N 0.24666 0.61083 0.67437
 C768 C 0.26471 0.62899 0.66466
 N769 N 0.27954 0.62449 0.63601
 N770 N 0.27663 0.60258 0.61782
 C771 C 0.26839 0.65337 0.68418
 C772 C 0.26155 0.65600 0.71881
 H773 H 0.23575 0.55064 0.60877
 H774 H 0.27824 0.66934 0.67126
 H775 H 0.29374 0.56007 0.58400
 H776 H 0.25094 0.64035 0.73138
 C777 C 0.93968 0.75396 0.04731
 C778 C 0.93054 0.73425 0.06895
 C779 C 0.90569 0.73757 0.08883
 N780 N 0.90147 0.72256 0.11710
 N781 N 0.87881 0.72520 0.13493
 C782 C 0.85940 0.74268 0.12481
 N783 N 0.86351 0.75745 0.09633
 N784 N 0.88628 0.75505 0.07875
 C785 C 0.83418 0.74580 0.14389
 C786 C 0.83182 0.73875 0.17842
 H787 H 0.94208 0.71610 0.07181
 H788 H 0.81731 0.75504 0.13073
 H789 H 0.92942 0.77294 0.04681
 H790 H 0.84851 0.72875 0.19102
 C791 C 0.43155 0.22596 0.57842
 C792 C 0.41979 0.20307 0.59001
 C793 C 0.39278 0.20418 0.60477
 N794 N 0.38631 0.18853 0.63163
 N795 N 0.36212 0.19054 0.64596
 C796 C 0.34345 0.20789 0.63346
 N797 N 0.34974 0.22304 0.60609
 N798 N 0.37402 0.22134 0.59213
 C799 C 0.31745 0.21185 0.65033
 C800 C 0.31504 0.21000 0.68589
 H801 H 0.43078 0.18449 0.58931
 H802 H 0.30096 0.21999 0.63532
 H803 H 0.42139 0.24471 0.58271
 H804 H 0.33134 0.20127 0.70073
 C805 C 0.05520 0.26218 0.07967
 C806 C 0.06959 0.28266 0.09406
 C807 C 0.09433 0.27788 0.11413
 N808 N 0.10968 0.29837 0.12354
 N809 N 0.13257 0.29426 0.14064
 C810 C 0.14092 0.26948 0.14906
 N811 N 0.12546 0.24902 0.13989
 N812 N 0.10264 0.25312 0.12270
 C813 C 0.16646 0.26440 0.16717
 C814 C 0.18455 0.28418 0.17453
 H815 H 0.06344 0.30283 0.08889
 H816 H 0.17146 0.24431 0.17436
 H817 H 0.06189 0.24204 0.08389
 H818 H 0.17898 0.30444 0.16897
 C819 C 0.55155 0.80534 0.55663
 C820 C 0.56244 0.78215 0.57034
 C821 C 0.58473 0.78176 0.59508
 N822 N 0.59439 0.75840 0.60711
 N823 N 0.61504 0.75749 0.62881
 C824 C 0.62681 0.77991 0.63934
 N825 N 0.61704 0.80333 0.62748
 N826 N 0.59636 0.80425 0.60574
 C827 C 0.65044 0.77895 0.66203
 C828 C 0.66212 0.75510 0.67235
 H829 H 0.55459 0.76342 0.56236
 H830 H 0.65977 0.79721 0.66904
 H831 H 0.55903 0.82415 0.56484
 H832 H 0.65351 0.73689 0.66367
   
