data_POSCAR
  _audit_creation_date              2014-09-24
  _audit_creation_method            'ToBaCCo'
  _symmetry_space_group_name_H-M    'P1'
  _symmetry_Int_Tables_number       1
  _symmetry_cell_setting            triclinic
  loop_
  _symmetry_equiv_pos_as_xyz
 x,y,z
_cell_length_a 34.8455
_cell_length_b 19.7888
_cell_length_c 14.0191
_cell_angle_alpha 89.940800
_cell_angle_beta 89.963900
_cell_angle_gamma 90.064300
loop_
  _atom_site_label
  _atom_site_type_symbol
  _atom_site_fract_x
  _atom_site_fract_y
  _atom_site_fract_z
O1 O 0.73062 0.32662 0.59001
 O2 O 0.79827 0.26687 0.40681
 O3 O 0.73086 0.32566 0.40299
 O4 O 0.79757 0.26721 0.58900
 O5 O 0.76877 0.16763 0.59029
 O6 O 0.70167 0.22650 0.40532
 O7 O 0.76894 0.16788 0.40446
 O8 O 0.70174 0.22718 0.58938
 Cu9 Cu 0.76694 0.30689 0.49706
 Cu10 Cu 0.73245 0.18725 0.49739
 C11 C 0.70451 0.28724 0.62038
 C12 C 0.79568 0.20673 0.37593
 C13 C 0.70462 0.28631 0.37339
 C14 C 0.79503 0.20701 0.61968
 O15 O 0.20127 0.72614 0.40989
 O16 O 0.26836 0.66634 0.59465
 O17 O 0.20143 0.72615 0.59397
 O18 O 0.26842 0.66686 0.40881
 O19 O 0.29730 0.76636 0.40969
 O20 O 0.23089 0.82505 0.59604
 O21 O 0.29795 0.76509 0.59184
 O22 O 0.23031 0.82544 0.40906
 Cu23 Cu 0.23201 0.68633 0.50183
 Cu24 Cu 0.26675 0.80576 0.50180
 C25 C 0.20414 0.78621 0.37884
 C26 C 0.29521 0.70496 0.62291
 C27 C 0.20456 0.78592 0.62581
 C28 C 0.29470 0.70619 0.37918
 O29 O 0.23089 0.17395 -0.59909
 O30 O 0.29747 0.23240 -0.41278
 O31 O 0.23061 0.17237 -0.41189
 O32 O 0.29814 0.23328 -0.59516
 O33 O 0.26830 0.33168 -0.59800
 O34 O 0.20187 0.27183 -0.41153
 O35 O 0.26872 0.33189 -0.41190
 O36 O 0.20103 0.27227 -0.59519
 Cu37 Cu 0.26691 0.19274 -0.50491
 Cu38 Cu 0.23217 0.31196 -0.50419
 C39 C 0.20417 0.21266 -0.62770
 C40 C 0.29493 0.29258 -0.38224
 C41 C 0.20464 0.21165 -0.38088
 C42 C 0.29521 0.29330 -0.62649
 O43 O -0.20231 0.73350 -0.41028
 O44 O -0.26883 0.67475 -0.59664
 O45 O -0.20165 0.73448 -0.59268
 O46 O -0.26933 0.67404 -0.40973
 O47 O -0.29820 0.77339 -0.41046
 O48 O -0.23116 0.83320 -0.59524
 O49 O -0.29816 0.77368 -0.59437
 O50 O -0.23111 0.83295 -0.40930
 Cu51 Cu -0.23288 0.69393 -0.50245
 Cu52 Cu -0.26748 0.81335 -0.50231
 C53 C -0.20488 0.79365 -0.37962
 C54 C -0.29512 0.71392 -0.62628
 C55 C -0.20439 0.79459 -0.62375
 C56 C -0.29546 0.71330 -0.37954
 O57 O -0.05327 0.88217 0.17429
 O58 O -0.09551 0.94560 0.08632
 C59 C -0.08766 0.90130 0.15150
 O60 O 0.05469 1.12646 0.16359
 O61 O 0.09698 1.05895 0.08167
 C62 C 0.08914 1.10661 0.14204
 O63 O -0.05277 1.12078 0.17333
 O64 O -0.09526 1.05746 0.08559
 C65 C -0.08726 1.10170 0.15074
 O66 O 0.05396 0.87629 0.16540
 O67 O 0.09677 0.94323 0.08386
 C68 C 0.08856 0.89576 0.14444
 Zr69 Zr 0.00048 0.91722 0.12359
 O70 O 0.00439 0.92659 0.27389
 O71 O -0.00178 0.81114 0.13987
 Zr72 Zr 0.00085 1.08778 0.11911
 O73 O 0.00443 1.09245 0.26967
 O74 O -0.00077 1.19416 0.10629
 O75 O -0.03367 1.00271 0.14004
 O76 O 0.03407 1.00241 0.13905
 O77 O 0.05425 0.87600 -0.16259
 O78 O 0.09681 0.94162 -0.07876
 C79 C 0.08877 0.89473 -0.14012
 O80 O -0.05255 1.11821 -0.17448
 O81 O -0.09524 1.05660 -0.08471
 C82 C -0.08708 1.09992 -0.15114
 O83 O 0.05464 1.12350 -0.16568
 O84 O 0.09705 1.05782 -0.08123
 C85 C 0.08911 1.10436 -0.14343
 O86 O -0.05285 0.88154 -0.17106
 O87 O -0.09537 0.94458 -0.08330
 C88 C -0.08733 0.90042 -0.14854
 Zr89 Zr 0.00064 0.91433 -0.11679
 O90 O 0.00477 0.91208 -0.26740
 O91 O -0.00351 0.80756 -0.11269
 Zr92 Zr 0.00093 1.08534 -0.12008
 O93 O 0.00508 1.08399 -0.27078
 O94 O -0.00237 1.19215 -0.12046
 Zr95 Zr -0.05690 1.00108 0.00106
 Zr96 Zr 0.05810 1.00058 0.00131
 O97 O 0.03401 0.99957 -0.13629
 O98 O -0.03339 0.99979 -0.13761
 O99 O 0.03483 0.90206 0.00367
 O100 O -0.03292 1.09873 -0.00069
 O101 O -0.03300 0.90341 0.00337
 O102 O 0.03548 1.09926 -0.00066
 H103 H 0.05132 1.00278 0.19520
 H104 H -0.05030 1.13834 -0.00131
 H105 H 0.05109 0.99913 -0.19282
 H106 H -0.05035 0.86371 0.00347
 H107 H -0.00057 1.21211 0.17225
 H108 H 0.01637 1.20892 -0.07302
 H109 H -0.01665 1.05692 -0.29528
 H110 H -0.01555 0.94187 -0.29293
 H111 H 0.01924 0.79019 -0.07828
 H112 H -0.00173 0.79180 0.07502
 H113 H -0.02061 0.94321 0.29772
 H114 H -0.01453 1.05998 0.29543
 O115 O 0.44618 0.38110 0.16993
 O116 O 0.40370 0.44484 0.08264
 C117 C 0.41168 0.40029 0.14748
 O118 O 0.55422 0.62477 0.16202
 O119 O 0.59664 0.55844 0.07877
 C120 C 0.58872 0.60560 0.13990
 O121 O 0.44710 0.61819 0.17251
 O122 O 0.40453 0.55583 0.08370
 C123 C 0.41260 0.59956 0.14955
 O124 O 0.55397 0.37475 0.16101
 O125 O 0.59653 0.44200 0.07914
 C126 C 0.58850 0.39438 0.13961
 Zr127 Zr 0.50037 0.41559 0.11992
 O128 O 0.50450 0.42359 0.27029
 O129 O 0.49796 0.30945 0.13492
 Zr130 Zr 0.50055 0.58622 0.11694
 O131 O 0.50423 0.59127 0.26743
 O132 O 0.49872 0.69259 0.10398
 O133 O 0.46623 0.50086 0.13752
 O134 O 0.53387 0.50092 0.13597
 O135 O 0.55418 0.37641 -0.16689
 O136 O 0.59665 0.44216 -0.08301
 C137 C 0.58867 0.39537 -0.14461
 O138 O 0.44663 0.61825 -0.17589
 O139 O 0.40440 0.55522 -0.08687
 C140 C 0.41223 0.59916 -0.15267
 O141 O 0.55384 0.62381 -0.16772
 O142 O 0.59641 0.55801 -0.08397
 C143 C 0.58837 0.60483 -0.14561
 O144 O 0.44697 0.38088 -0.17459
 O145 O 0.40445 0.44316 -0.08578
 C146 C 0.41249 0.39937 -0.15150
 Zr147 Zr 0.50042 0.41397 -0.12061
 O148 O 0.50437 0.41280 -0.27131
 O149 O 0.49654 0.30715 -0.11806
 Zr150 Zr 0.50018 0.58505 -0.12241
 O151 O 0.50416 0.58391 -0.27315
 O152 O 0.49665 0.69184 -0.12208
 Zr153 Zr 0.44290 0.49967 -0.00133
 Zr154 Zr 0.55773 0.50002 -0.00195
 O155 O 0.53351 0.49959 -0.13948
 O156 O 0.46610 0.49926 -0.14030
 O157 O 0.53467 0.40132 -0.00042
 O158 O 0.46655 0.59754 -0.00244
 O159 O 0.46693 0.40210 -0.00025
 O160 O 0.53493 0.59858 -0.00302
 H161 H 0.55119 0.50106 0.19198
 H162 H 0.44906 0.63699 -0.00249
 H163 H 0.55056 0.49955 -0.19606
 H164 H 0.44961 0.36233 -0.00027
 H165 H 0.49880 0.71058 0.16992
 H166 H 0.51551 0.70859 -0.07491
 H167 H 0.48223 0.55729 -0.29760
 H168 H 0.48369 0.44204 -0.29631
 H169 H 0.51936 0.28971 -0.08403
 H170 H 0.49949 0.29045 0.06997
 H171 H 0.47944 0.43952 0.29470
 H172 H 0.48694 0.55605 0.29320
 N173 N 0.31924 0.38045 0.27112
 C174 C 0.32274 0.31796 0.31043
 N175 N 0.35503 0.28170 0.29243
 N176 N 0.38311 0.30749 0.23910
 C177 C 0.37968 0.37006 0.20039
 N178 N 0.34708 0.40580 0.21647
 N179 N -0.18017 0.88173 0.27439
 C180 C -0.17679 0.81915 0.31344
 N181 N -0.14457 0.78273 0.29548
 N182 N -0.11640 0.80850 0.24244
 C183 C -0.11971 0.87117 0.20404
 N184 N -0.15225 0.90706 0.22003
 N185 N 0.68217 0.63037 0.25682
 C186 C 0.67643 0.68899 0.30503
 N187 N 0.64250 0.72174 0.29449
 N188 N 0.61499 0.69617 0.23934
 C189 C 0.62056 0.63732 0.19171
 N190 N 0.65478 0.60515 0.20075
 N191 N 0.18102 1.12669 0.26724
 C192 C 0.17715 1.18875 0.30745
 N193 N 0.14506 1.22525 0.28824
 N194 N 0.11742 1.19991 0.23320
 C195 C 0.12117 1.13765 0.19380
 N196 N 0.15363 1.10179 0.21101
 N197 N 0.64217 0.27937 -0.29986
 C198 C 0.67608 0.31225 -0.31094
 N199 N 0.68190 0.37096 -0.26293
 N200 N 0.65462 0.39614 -0.20655
 C201 C 0.62042 0.36383 -0.19694
 N202 N 0.61476 0.30492 -0.24441
 N203 N 0.14220 0.77830 -0.29470
 C204 C 0.17621 0.81092 -0.30541
 N205 N 0.18211 0.86955 -0.25730
 N206 N 0.15480 0.89491 -0.20116
 C207 C 0.12051 0.86286 -0.19192
 N208 N 0.11477 0.80401 -0.23947
 N209 N 0.31962 0.61789 -0.27537
 C210 C 0.32292 0.68047 -0.31458
 N211 N 0.35516 0.71704 -0.29701
 N212 N 0.38338 0.69150 -0.24415
 C213 C 0.38015 0.62887 -0.20551
 N214 N 0.34760 0.59278 -0.22116
 N215 N -0.18129 1.12348 -0.26470
 C216 C -0.17584 1.18185 -0.31393
 N217 N -0.14157 1.21408 -0.30684
 N218 N -0.11353 1.18846 -0.25356
 C219 C -0.11887 1.13004 -0.20459
 N220 N -0.15336 1.09827 -0.21038
 N221 N 0.68171 0.62941 -0.26317
 C222 C 0.67601 0.68817 -0.31122
 N223 N 0.64212 0.72101 -0.30051
 N224 N 0.61459 0.69539 -0.24532
 C225 C 0.62014 0.63643 -0.19781
 N226 N 0.65431 0.60416 -0.20705
 N227 N 0.18207 1.12780 -0.26381
 C228 C 0.17633 1.18660 -0.31177
 N229 N 0.14262 1.21982 -0.29996
 N230 N 0.11530 1.19455 -0.24383
 C231 C 0.12087 1.13557 -0.19634
 N232 N 0.15487 1.10288 -0.20672
 N233 N 0.31855 0.37622 -0.26671
 C234 C 0.32394 0.31772 -0.31546
 N235 N 0.35804 0.28517 -0.30722
 N236 N 0.38597 0.31063 -0.25337
 C237 C 0.38068 0.36919 -0.20491
 N238 N 0.34636 0.40129 -0.21184
 N239 N -0.18126 0.87731 -0.26402
 C240 C -0.17588 0.81879 -0.31273
 N241 N -0.14179 0.78623 -0.30440
 N242 N -0.11387 0.81168 -0.25051
 C243 C -0.11914 0.87026 -0.20209
 N244 N -0.15346 0.90238 -0.20911
 N245 N 0.31852 0.62239 0.26424
 C246 C 0.32380 0.68105 0.31267
 N247 N 0.35791 0.71372 0.30462
 N248 N 0.38596 0.68826 0.25118
 C249 C 0.38078 0.62954 0.20301
 N250 N 0.34645 0.59731 0.20976
 N251 N -0.17974 1.11988 0.27435
 C252 C -0.17657 1.18248 0.31331
 N253 N -0.14443 1.21930 0.29534
 N254 N -0.11617 1.19397 0.24232
 C255 C -0.11929 1.13131 0.20391
 N256 N -0.15174 1.09499 0.21999
 N257 N 0.64223 0.27818 0.29419
 C258 C 0.67616 0.31108 0.30470
 N259 N 0.68191 0.36974 0.25640
 N260 N 0.65453 0.39489 0.20032
 C261 C 0.62031 0.36258 0.19130
 N262 N 0.61472 0.30368 0.23901
 N263 N 0.14174 0.77887 0.29931
 C264 C 0.17575 0.81145 0.31025
 N265 N 0.18172 0.87017 0.26224
 N266 N 0.15449 0.89568 0.20601
 C267 C 0.12020 0.86370 0.19654
 N268 N 0.11439 0.80474 0.24398
   
