data_POSCAR
  _audit_creation_date              2014-09-24
  _audit_creation_method            'ToBaCCo'
  _symmetry_space_group_name_H-M    'P1'
  _symmetry_Int_Tables_number       1
  _symmetry_cell_setting            triclinic
  loop_
  _symmetry_equiv_pos_as_xyz
 x,y,z
_cell_length_a 46.5602
_cell_length_b 46.8306
_cell_length_c 12.9318
_cell_angle_alpha 90.005600
_cell_angle_beta 90.009900
_cell_angle_gamma 120.057400
loop_
  _atom_site_label
  _atom_site_type_symbol
  _atom_site_fract_x
  _atom_site_fract_y
  _atom_site_fract_z
C1 C 0.23365 0.51227 0.44130
 C2 C 0.22964 0.50893 0.55083
 C3 C 0.25317 0.50595 0.61097
 C4 C 0.28207 0.50808 0.56771
 C5 C 0.28423 0.50863 0.45729
 C6 C 0.26125 0.51230 0.39715
 H7 H 0.26357 0.51224 0.31373
 H8 H 0.24875 0.50286 0.69316
 C9 C 0.50045 -0.27224 0.44118
 C10 C 0.50097 -0.27130 0.55167
 C11 C 0.50187 -0.24434 0.60347
 C12 C 0.50610 -0.21648 0.54892
 C13 C 0.50703 -0.21699 0.43950
 C14 C 0.50370 -0.24459 0.38787
 H15 H 0.50490 -0.24362 0.30418
 H16 H 0.50143 -0.24421 0.68734
 C17 C 1.27907 0.77178 0.44159
 C18 C 1.27362 0.77459 0.54859
 C19 C 1.24446 0.75046 0.59677
 C20 C 1.22040 0.72329 0.54144
 C21 C 1.22644 0.71920 0.43718
 C22 C 1.25543 0.74321 0.38872
 H23 H 1.25792 0.74034 0.30673
 H24 H 1.24068 0.75264 0.67851
 C25 C 0.75858 0.46050 0.43361
 C26 C 0.76361 0.46307 0.54218
 C27 C 0.74128 0.46715 0.60538
 C28 C 0.71365 0.46817 0.56413
 C29 C 0.70927 0.46560 0.45450
 C30 C 0.73121 0.46105 0.39195
 H31 H 0.72808 0.46004 0.30861
 H32 H 0.74625 0.47040 0.68762
 C33 C 0.50821 0.28275 0.43847
 C34 C 0.50512 0.28469 0.54713
 C35 C 0.49823 0.25717 0.60875
 C36 C 0.49653 0.22852 0.56640
 C37 C 0.49928 0.22704 0.45688
 C38 C 0.50565 0.25421 0.39545
 H39 H 0.50663 0.25233 0.31204
 H40 H 0.49745 0.25974 0.69167
 C41 C 0.70947 0.23214 0.44932
 C42 C 0.71481 0.23048 0.55640
 C43 C 0.74266 0.25679 0.60419
 C44 C 0.76456 0.28529 0.54862
 C45 C 0.75919 0.28651 0.44093
 C46 C 0.73160 0.26026 0.39340
 H47 H 0.72836 0.26086 0.31050
 H48 H 0.74640 0.25559 0.68653
 O49 O 0.95155 0.42383 0.19395
 O50 O 0.91546 0.42961 0.08690
 C51 C 0.92189 0.41581 0.16355
 O52 O 1.04352 0.57071 0.16970
 O53 O 1.08142 0.56088 0.08798
 C54 C 1.07363 0.57809 0.14863
 O55 O 0.95139 0.52156 0.17399
 O56 O 0.91558 0.47724 0.07525
 C57 C 0.92178 0.49918 0.14604
 O58 O 1.04411 0.46699 0.19337
 O59 O 1.08182 0.51092 0.09650
 C60 C 1.07424 0.48884 0.16817
 Zr61 Zr 0.99830 0.45865 0.13429
 O62 O 0.99744 0.45629 0.29770
 O63 O 0.99739 0.41314 0.12613
 Zr64 Zr 0.99818 0.53060 0.12160
 O65 O 1.00036 0.53345 0.28510
 O66 O 0.99425 0.57369 0.11500
 O67 O 0.96865 0.48018 0.14645
 O68 O 1.02695 0.50930 0.14983
 O69 O 1.04732 0.46213 -0.16520
 O70 O 1.08308 0.50957 -0.07738
 C71 C 1.07687 0.48545 -0.13942
 O72 O 0.95394 0.51847 -0.20086
 O73 O 0.91701 0.47460 -0.10160
 C74 C 0.92404 0.49615 -0.17395
 O75 O 1.04815 0.56715 -0.18846
 O76 O 1.08302 0.55838 -0.08501
 C77 C 1.07760 0.57414 -0.15749
 O78 O 0.95356 0.41758 -0.18158
 O79 O 0.91679 0.42717 -0.09087
 C80 C 0.92368 0.41092 -0.15770
 Zr81 Zr 1.00019 0.45596 -0.12591
 O82 O 1.00485 0.45726 -0.28898
 O83 O 0.99726 0.40942 -0.12143
 Zr84 Zr 1.00056 0.52829 -0.13969
 O85 O 1.00499 0.52726 -0.30242
 O86 O 0.99749 0.57179 -0.14988
 Zr87 Zr 0.95003 0.46890 -0.00559
 Zr88 Zr 1.04879 0.51806 0.00255
 O89 O 1.02940 0.50624 -0.14875
 O90 O 0.97085 0.47716 -0.15513
 O91 O 1.02894 0.46655 0.00783
 O92 O 0.97066 0.52042 -0.01213
 O93 O 0.97029 0.43768 0.00347
 O94 O 1.02897 0.54979 -0.00744
 H95 H 1.04153 0.51767 0.21137
 H96 H 0.95580 0.52984 -0.01571
 H97 H 1.04487 0.51298 -0.20816
 H98 H 0.95520 0.41347 0.00643
 H99 H 1.01154 0.58921 0.06692
 H100 H 1.01582 0.58892 -0.10806
 H101 H 0.98566 0.50665 -0.32777
 H102 H 0.98494 0.45667 -0.31840
 H103 H 1.01160 0.41011 -0.06387
 H104 H 0.99589 0.40557 0.19849
 H105 H 1.00402 0.47858 0.32355
 H106 H 0.98161 0.51268 0.31217
 O107 O 0.43561 0.48750 0.18030
 O108 O 0.44850 0.53304 0.08122
 C109 C 0.43139 0.51187 0.15242
 O110 O 0.58256 0.53190 0.18813
 O111 O 0.57087 0.48551 0.09563
 C112 C 0.58777 0.50796 0.16410
 O113 O 0.53685 0.57820 0.19956
 O114 O 0.49719 0.57682 0.09107
 C115 C 0.51671 0.58823 0.17084
 O116 O 0.47351 0.43274 0.17813
 O117 O 0.51900 0.43829 0.09077
 C118 C 0.49462 0.42323 0.15561
 Zr119 Zr 0.47060 0.47403 0.12669
 O120 O 0.46892 0.47098 0.29016
 O121 O 0.42294 0.43190 0.11253
 Zr122 Zr 0.54660 0.54309 0.13172
 O123 O 0.55121 0.54512 0.29448
 O124 O 0.59160 0.58876 0.12257
 O125 O 0.49569 0.52478 0.14764
 O126 O 0.52084 0.49245 0.15094
 O127 O 0.47629 0.43226 -0.17741
 O128 O 0.52095 0.43891 -0.08267
 C129 C 0.49729 0.42326 -0.14879
 O130 O 0.54233 0.58205 -0.19001
 O131 O 0.49869 0.57775 -0.09494
 C132 C 0.52130 0.59158 -0.16564
 O133 O 0.58410 0.53131 -0.18054
 O134 O 0.57244 0.48581 -0.08269
 C135 C 0.58905 0.50735 -0.15426
 O136 O 0.44094 0.48811 -0.19998
 O137 O 0.44940 0.53210 -0.09953
 C138 C 0.43494 0.51140 -0.17475
 Zr139 Zr 0.47344 0.47435 -0.13283
 O140 O 0.47612 0.47183 -0.29576
 O141 O 0.42459 0.43338 -0.13391
 Zr142 Zr 0.54896 0.54386 -0.12694
 O143 O 0.55504 0.54852 -0.28925
 O144 O 0.59473 0.58836 -0.10902
 Zr145 Zr 0.48827 0.53638 -0.00400
 Zr146 Zr 0.53154 0.48112 0.00357
 O147 O 0.52375 0.49301 -0.14704
 O148 O 0.49856 0.52544 -0.15290
 O149 O 0.47933 0.45241 -0.00090
 O150 O 0.54033 0.56481 0.00129
 O151 O 0.45391 0.48549 -0.00596
 O152 O 0.56673 0.53202 0.00466
 H153 H 0.52659 0.48405 0.21327
 H154 H 0.55045 0.58914 0.00270
 H155 H 0.52995 0.48418 -0.20727
 H156 H 0.42990 0.47805 -0.00888
 H157 H 0.60904 0.58421 0.09800
 H158 H 0.61154 0.58261 -0.08666
 H159 H 0.54015 0.52655 -0.31932
 H160 H 0.48356 0.49420 -0.32320
 H161 H 0.42372 0.41757 -0.08148
 H162 H 0.41469 0.42510 0.18405
 H163 H 0.47379 0.49274 0.31699
 H164 H 0.52925 0.52877 0.32214
 O165 O 0.51671 -0.04818 0.18849
 O166 O 0.46941 -0.08255 0.09689
 C167 C 0.49169 -0.07701 0.16616
 O168 O 0.47441 0.05542 0.17345
 O169 O 0.52099 0.08720 0.07625
 C170 C 0.49907 0.08373 0.14420
 O171 O 0.42474 -0.03711 0.19976
 O172 O 0.42597 -0.07685 0.09934
 C173 C 0.41434 -0.06770 0.17544
 O174 O 0.57221 0.04369 0.17584
 O175 O 0.56668 0.08176 0.07920
 C176 C 0.58147 0.07379 0.14891
 Zr177 Zr 0.53043 -0.00095 0.12739
 O178 O 0.53430 0.00292 0.29056
 O179 O 0.57256 -0.00663 0.11555
 Zr180 Zr 0.46170 0.00679 0.12766
 O181 O 0.46068 0.01194 0.28979
 O182 O 0.41778 0.00915 0.11136
 O183 O 0.47936 -0.02583 0.15113
 O184 O 0.51265 0.03136 0.14404
 O185 O 0.57028 0.03991 -0.18831
 O186 O 0.56598 0.07982 -0.09807
 C187 C 0.58021 0.07051 -0.16559
 O188 O 0.41977 -0.04070 -0.18595
 O189 O 0.42420 -0.07882 -0.08623
 C190 C 0.40996 -0.07074 -0.15760
 O191 O 0.47192 0.05103 -0.18846
 O192 O 0.51948 0.08539 -0.09818
 C193 C 0.49669 0.07993 -0.16559
 O194 O 0.51498 -0.05218 -0.18271
 O195 O 0.46951 -0.08441 -0.08175
 C196 C 0.49110 -0.08066 -0.15162
 Zr197 Zr 0.52861 -0.00380 -0.13248
 O198 O 0.52868 -0.00259 -0.29620
 O199 O 0.57001 -0.01100 -0.13218
 Zr200 Zr 0.46004 0.00388 -0.13182
 O201 O 0.46013 0.00527 -0.29542
 O202 O 0.41567 0.00596 -0.12641
 Zr203 Zr 0.46660 -0.04755 0.00299
 Zr204 Zr 0.52381 0.05042 -0.00717
 O205 O 0.51080 0.02823 -0.15424
 O206 O 0.47710 -0.02950 -0.14972
 O207 O 0.55200 0.02661 -0.00551
 O208 O 0.43906 -0.02313 0.00147
 O209 O 0.51767 -0.03158 0.00078
 O210 O 0.47294 0.03548 -0.00518
 H211 H 0.52129 0.04636 0.20441
 H212 H 0.41453 -0.03663 0.00430
 H213 H 0.51896 0.04214 -0.21709
 H214 H 0.52513 -0.04802 0.00287
 H215 H 0.41068 0.01050 0.18252
 H216 H 0.42010 0.02534 -0.08396
 H217 H 0.46276 -0.01325 -0.32034
 H218 H 0.50741 -0.02136 -0.32028
 H219 H 0.58606 0.00458 -0.08121
 H220 H 0.57957 -0.00729 0.18746
 H221 H 0.51244 -0.01334 0.31943
 H222 H 0.47497 0.00398 0.31932
 C223 C 1.15119 0.49045 0.34584
 C224 C 1.15848 0.50794 0.25257
 N225 N 1.19055 0.52580 0.22102
 C226 C 1.21567 0.52724 0.27915
 C227 C 1.20855 0.51067 0.37527
 N228 N 1.17616 0.49230 0.40426
 N229 N 1.11931 0.47228 0.37778
 C230 C 1.09420 0.47094 0.32087
 C231 C 1.10125 0.48895 0.22800
 N232 N 1.13341 0.50706 0.19590
 H233 H 1.24094 0.54245 0.25260
 H234 H 1.06903 0.45640 0.34913
 C235 C 0.51204 0.65928 0.35986
 C236 C 0.49786 0.65230 0.26086
 N237 N 0.48318 0.66908 0.22524
 C238 C 0.48274 0.69309 0.28312
 C239 C 0.49767 0.70089 0.38239
 N240 N 0.51140 0.68305 0.41771
 N241 N 0.52730 0.64304 0.39531
 C242 C 0.52925 0.62022 0.33573
 C243 C 0.51519 0.61318 0.23597
 N244 N 0.49951 0.62928 0.20131
 H245 H 0.47015 0.70535 0.25228
 H246 H 0.54153 0.60760 0.36642
 C247 C 0.34196 -0.14502 0.35925
 C248 C 0.35396 -0.15159 0.26847
 N249 N 0.34243 -0.18326 0.23896
 C250 C 0.31883 -0.20881 0.29497
 C251 C 0.30593 -0.20259 0.38591
 N252 N 0.31846 -0.17052 0.41544
 N253 N 0.35339 -0.11324 0.38839
 C254 C 0.37634 -0.08768 0.33043
 C255 C 0.38843 -0.09422 0.23904
 N256 N 0.37689 -0.12619 0.21089
 H257 H 0.31097 -0.23363 0.26934
 H258 H 0.38518 -0.06263 0.35591
 C259 C 0.84170 0.49383 0.31520
 C260 C 0.83605 0.47018 0.23920
 N261 N 0.80480 0.44448 0.22442
 C262 C 0.77903 0.44114 0.28335
 C263 C 0.78496 0.46428 0.36162
 N264 N 0.81617 0.49030 0.37443
 N265 N 0.87279 0.51939 0.33102
 C266 C 0.89877 0.52226 0.27519
 C267 C 0.89353 0.49826 0.20044
 N268 N 0.86208 0.47283 0.18377
 H269 H 0.75444 0.42022 0.27144
 H270 H 0.92335 0.54277 0.29066
 C271 C 0.48655 0.34193 0.32249
 C272 C 0.51143 0.35776 0.24760
 N273 N 0.53387 0.34767 0.23244
 C274 C 0.53281 0.32279 0.28995
 C275 C 0.50853 0.30769 0.36729
 N276 N 0.48575 0.31747 0.38049
 N277 N 0.46417 0.35192 0.33843
 C278 C 0.46571 0.37737 0.28372
 C279 C 0.49104 0.39394 0.21009
 N280 N 0.51324 0.38349 0.19340
 H281 H 0.55131 0.31559 0.27788
 H282 H 0.44762 0.38490 0.29916
 C283 C 0.65674 0.15008 0.32777
 C284 C 0.63483 0.15571 0.26840
 N285 N 0.63687 0.18564 0.27207
 C286 C 0.65997 0.21029 0.33222
 C287 C 0.68203 0.20479 0.39168
 N288 N 0.67999 0.17478 0.38706
 N289 N 0.65446 0.12004 0.32502
 C290 C 0.63105 0.09522 0.26608
 C291 C 0.60904 0.10075 0.20629
 N292 N 0.61161 0.13103 0.20900
 H293 H 0.66138 0.23408 0.33296
 H294 H 0.62951 0.07138 0.26652
 C295 C 0.50522 0.15897 -0.34349
 C296 C 0.49137 0.15324 -0.24427
 N297 N 0.47970 0.17271 -0.20802
 C298 C 0.48113 0.19759 -0.26652
 C299 C 0.49465 0.20329 -0.36757
 N300 N 0.50663 0.18368 -0.40152
 N301 N 0.51644 0.13933 -0.38138
 C302 C 0.51420 0.11393 -0.32441
 C303 C 0.50020 0.10799 -0.22522
 N304 N 0.48913 0.12786 -0.18690
 H305 H 0.47038 0.21153 -0.23530
 H306 H 0.52310 0.09840 -0.35629
 C307 C 0.65520 0.49332 -0.34253
 C308 C 0.64947 0.48190 -0.24029
 N309 N 0.66522 0.46619 -0.20361
 C310 C 0.68647 0.46152 -0.26436
 C311 C 0.69189 0.47245 -0.36850
 N312 N 0.67572 0.48802 -0.40336
 N313 N 0.64035 0.50974 -0.37965
 C314 C 0.61982 0.51522 -0.31913
 C315 C 0.61326 0.50326 -0.21688
 N316 N 0.62824 0.48665 -0.17979
 H317 H 0.69770 0.44811 -0.23235
 H318 H 0.60807 0.52811 -0.35168
 C319 C 0.83848 0.33107 -0.29022
 C320 C 0.84692 0.36380 -0.31087
 N321 N 0.82733 0.36990 -0.37383
 C322 C 0.79997 0.34479 -0.41893
 C323 C 0.79134 0.31177 -0.39942
 N324 N 0.81062 0.30584 -0.33325
 N325 N 0.85891 0.32514 -0.23022
 C326 C 0.88730 0.35046 -0.18969
 C327 C 0.89532 0.38315 -0.20857
 N328 N 0.87472 0.38899 -0.26821
 H329 H 0.78489 0.35055 -0.46884
 H330 H 0.90299 0.34516 -0.14104
 C331 C 0.48888 -0.16557 -0.27557
 C332 C 0.51244 -0.13373 -0.30860
 N333 N 0.53500 -0.12987 -0.38138
 C334 C 0.53442 -0.15642 -0.42556
 C335 C 0.50985 -0.18863 -0.39689
 N336 N 0.48827 -0.19230 -0.31961
 N337 N 0.46619 -0.16921 -0.20301
 C338 C 0.46596 -0.14247 -0.16235
 C339 C 0.48952 -0.11051 -0.19581
 N340 N 0.51230 -0.10711 -0.26793
 H341 H 0.55318 -0.15236 -0.48217
 H342 H 0.44765 -0.14618 -0.10435
 C343 C 0.35966 0.51132 -0.35432
 C344 C 0.36060 0.51639 -0.24757
 N345 N 0.33572 0.51895 -0.20229
 C346 C 0.30973 0.51627 -0.25860
 C347 C 0.30822 0.51063 -0.36712
 N348 N 0.33401 0.50893 -0.41005
 N349 N 0.38389 0.50797 -0.40072
 C350 C 0.40896 0.50901 -0.34437
 C351 C 0.40999 0.51387 -0.23690
 N352 N 0.38584 0.51774 -0.19073
 H353 H 0.29149 0.51961 -0.21763
 H354 H 0.42775 0.50571 -0.38288
 C355 C 1.16390 0.64981 -0.30267
 C356 C 1.13367 0.64960 -0.31013
 N357 N 1.13261 0.67408 -0.36336
 C358 C 1.16031 0.69853 -0.40988
 C359 C 1.19033 0.69827 -0.40423
 N360 N 1.19139 0.67393 -0.35013
 N361 N 1.16531 0.62578 -0.24859
 C362 C 1.13792 0.60149 -0.20135
 C363 C 1.10738 0.60083 -0.20891
 N364 N 1.10600 0.62501 -0.26375
 H365 H 1.15886 0.71767 -0.45241
 H366 H 1.13998 0.58262 -0.15919
 C367 C 0.83756 0.48953 -0.29893
 C368 C 0.84879 0.46836 -0.33327
 N369 N 0.83086 0.44483 -0.40454
 C370 C 0.80256 0.44193 -0.44488
 C371 C 0.79134 0.46345 -0.41208
 N372 N 0.80896 0.48626 -0.33774
 N373 N 0.85586 0.51350 -0.22908
 C374 C 0.88481 0.51716 -0.19162
 C375 C 0.89579 0.49569 -0.22471
 N376 N 0.87732 0.47153 -0.29418
 H377 H 0.78874 0.42273 -0.50108
 H378 H 0.89866 0.53599 -0.13433
 C379 C 0.49082 0.33791 -0.27914
 C380 C 0.51472 0.36943 -0.31370
 N381 N 0.53586 0.37243 -0.39044
 C382 C 0.53374 0.34534 -0.43620
 C383 C 0.50921 0.31349 -0.40408
 N384 N 0.48893 0.31080 -0.32395
 N385 N 0.46930 0.33495 -0.20334
 C386 C 0.47056 0.36214 -0.16080
 C387 C 0.49456 0.39360 -0.19513
 N388 N 0.51627 0.39654 -0.27034
 H389 H 0.55156 0.34874 -0.49552
 H390 H 0.45326 0.35929 -0.10026
 C391 C 0.65803 0.14659 -0.33832
 C392 C 0.64246 0.15381 -0.25785
 N393 N 0.65133 0.18562 -0.23799
 C394 C 0.67492 0.21062 -0.29570
 C395 C 0.69013 0.20350 -0.37777
 N396 N 0.68149 0.17155 -0.39640
 N397 N 0.64890 0.11468 -0.35844
 C398 C 0.62462 0.08961 -0.30234
 C399 C 0.60856 0.09674 -0.22272
 N400 N 0.61813 0.12883 -0.20244
 H401 H 0.68134 0.23578 -0.27903
 H402 H 0.61757 0.06441 -0.32112
 C403 C 1.15955 0.48661 -0.27604
 C404 C 1.15160 0.51114 -0.29897
 N405 N 1.17017 0.53504 -0.36849
 C406 C 1.19603 0.53523 -0.41780
 C407 C 1.20391 0.51040 -0.39642
 N408 N 1.18580 0.48714 -0.32373
 N409 N 1.14013 0.46197 -0.20939
 C410 C 1.11303 0.46073 -0.16484
 C411 C 1.10539 0.48551 -0.18674
 N412 N 1.12501 0.51027 -0.25289
 H413 H 1.21041 0.55464 -0.47289
 H414 H 1.09784 0.44086 -0.11210
 C415 C 0.52641 0.67286 -0.32617
 C416 C 0.49754 0.65063 -0.27264
 N417 N 0.47069 0.65482 -0.27485
 C418 C 0.47127 0.68000 -0.32936
 C419 C 0.49997 0.70197 -0.38434
 N420 N 0.52711 0.69817 -0.37954
 N421 N 0.55293 0.66820 -0.32660
 C422 C 0.55193 0.64224 -0.27609
 C423 C 0.52317 0.61997 -0.22156
 N424 N 0.49665 0.62490 -0.22096
 H425 H 0.44945 0.68260 -0.33112
 H426 H 0.57349 0.63920 -0.27789
 C427 C 0.32784 -0.14592 -0.31838
 C428 C 0.35073 -0.15256 -0.26870
 N429 N 0.34735 -0.18298 -0.27725
 C430 C 0.32235 -0.20695 -0.33422
 C431 C 0.29969 -0.20023 -0.38473
 N432 N 0.30270 -0.16994 -0.37447
 N433 N 0.33181 -0.11524 -0.31271
 C434 C 0.35777 -0.09075 -0.26032
 C435 C 0.38078 -0.09724 -0.21053
 N436 N 0.37651 -0.12819 -0.21544
 H437 H 0.32035 -0.23092 -0.34120
 H438 H 0.36041 -0.06644 -0.25773
 C439 C 0.48418 -0.15831 0.32743
 C440 C 0.51246 -0.13789 0.26814
 N441 N 0.53751 -0.14469 0.26169
 C442 C 0.53578 -0.17080 0.31308
 C443 C 0.50817 -0.19038 0.37580
 N444 N 0.48286 -0.18382 0.38098
 N445 N 0.45864 -0.15216 0.33088
 C446 C 0.46019 -0.12633 0.27809
 C447 C 0.48888 -0.10534 0.22165
 N448 N 0.51436 -0.11163 0.21779
 H449 H 0.55618 -0.17561 0.30801
 H450 H 0.43958 -0.12179 0.28179
 C451 C 0.35776 0.52507 0.30021
 C452 C 0.35603 0.49423 0.30228
 N453 N 0.33027 0.46848 0.35114
 C454 C 0.30639 0.47229 0.39907
 C455 C 0.30869 0.50341 0.39987
 N456 N 0.33417 0.52901 0.34919
 N457 N 0.38318 0.55069 0.25020
 C458 C 0.40702 0.54696 0.20201
 C459 C 0.40565 0.51622 0.20457
 N460 N 0.38008 0.49054 0.25510
 H461 H 0.28622 0.45153 0.43844
 H462 H 0.42705 0.56795 0.16306
 C463 C 1.14732 0.66064 0.30997
 C464 C 1.15544 0.63909 0.25918
 N465 N 1.18683 0.64432 0.26651
 C466 C 1.21031 0.66999 0.32287
 C467 C 1.20190 0.69111 0.37516
 N468 N 1.17062 0.68599 0.36638
 N469 N 1.11617 0.65572 0.30326
 C470 C 1.09245 0.62988 0.24916
 C471 C 1.10008 0.60768 0.19974
 N472 N 1.13164 0.61301 0.20526
 H473 H 1.23516 0.67368 0.32796
 H474 H 1.06773 0.62657 0.24595
 C475 C 0.51236 0.17067 0.28737
 C476 C 0.48316 0.14036 0.30368
 N477 N 0.45926 0.13907 0.36691
 C478 C 0.46344 0.16666 0.41556
 C479 C 0.49313 0.19681 0.40177
 N480 N 0.51667 0.19810 0.33663
 N481 N 0.53617 0.17212 0.22376
 C482 C 0.53225 0.14461 0.17583
 C483 C 0.50323 0.11404 0.19274
 N484 N 0.47930 0.11273 0.25648
 H485 H 0.44412 0.16506 0.46589
 H486 H 0.55188 0.14662 0.12612
 C487 C 0.66192 0.50078 0.33092
 C488 C 0.63509 0.47264 0.28692
 N489 N 0.63256 0.44271 0.30041
 C490 C 0.65569 0.43964 0.35606
 C491 C 0.68256 0.46778 0.40000
 N492 N 0.68525 0.49780 0.38497
 N493 N 0.66413 0.53062 0.31936
 C494 C 0.64066 0.53364 0.26587
 C495 C 0.61395 0.50561 0.22049
 N496 N 0.61190 0.47572 0.23208
 H497 H 0.65335 0.41559 0.36528
 H498 H 0.64297 0.55772 0.25821
 C499 C 0.84259 0.34087 0.33240
 C500 C 0.83653 0.35879 0.25713
 N501 N 0.80496 0.35228 0.24090
 C502 C 0.77926 0.32880 0.29735
 C503 C 0.78556 0.31131 0.37389
 N504 N 0.81711 0.31765 0.38830
 N505 N 0.87393 0.34730 0.35001
 C506 C 0.89976 0.37110 0.29597
 C507 C 0.89401 0.38937 0.22069
 N508 N 0.86237 0.38266 0.20272
 H509 H 0.75436 0.32427 0.28418
 H510 H 0.92452 0.37566 0.31210
   
