data_POSCAR
  _audit_creation_date              2014-09-24
  _audit_creation_method            'ToBaCCo'
  _symmetry_space_group_name_H-M    'P1'
  _symmetry_Int_Tables_number       1
  _symmetry_cell_setting            triclinic
  loop_
  _symmetry_equiv_pos_as_xyz
 x,y,z
_cell_length_a 29.2557
_cell_length_b 29.2185
_cell_length_c 29.1955
_cell_angle_alpha 93.643400
_cell_angle_beta 94.901000
_cell_angle_gamma 85.111200
loop_
  _atom_site_label
  _atom_site_type_symbol
  _atom_site_fract_x
  _atom_site_fract_y
  _atom_site_fract_z
Zn1 Zn 0.77368 0.71174 0.78363
 Zn2 Zn 0.76791 0.78471 0.71617
 Zn3 Zn 0.69460 0.71850 0.71193
 Zn4 Zn 0.70118 0.79044 0.78864
 O5 O 0.73434 0.75135 0.75009
 O6 O 0.83281 0.71504 0.77360
 O7 O 0.75418 0.77544 0.65545
 O8 O 0.70499 0.65764 0.71689
 O9 O 0.82871 0.77117 0.72560
 O10 O 0.76267 0.65271 0.77100
 O11 O 0.69805 0.72861 0.65246
 O12 O 0.64029 0.78731 0.77816
 O13 O 0.75903 0.84544 0.72888
 O14 O 0.63555 0.73190 0.72305
 O15 O 0.71070 0.84960 0.78358
 O16 O 0.71480 0.77887 0.84803
 O17 O 0.77033 0.72244 0.84442
 C18 C 0.85198 0.74127 0.74947
 C19 C 0.72427 0.75220 0.63274
 C20 C 0.73372 0.63386 0.74258
 C21 C 0.61671 0.76144 0.75069
 C22 C 0.73498 0.86884 0.75758
 C23 C 0.74440 0.75053 0.86745
 Zn24 Zn 0.19460 0.71851 0.71194
 Zn25 Zn 0.20118 0.79045 0.78865
 Zn26 Zn 0.27369 0.71175 0.78364
 Zn27 Zn 0.26791 0.78471 0.71618
 O28 O 0.23434 0.75136 0.75010
 O29 O 0.13556 0.73190 0.72306
 O30 O 0.21480 0.77887 0.84804
 O31 O 0.26267 0.65271 0.77101
 O32 O 0.14029 0.78731 0.77817
 O33 O 0.20499 0.65765 0.71690
 O34 O 0.27033 0.72245 0.84443
 O35 O 0.32872 0.77118 0.72561
 O36 O 0.21069 0.84960 0.78358
 O37 O 0.33281 0.71505 0.77361
 O38 O 0.25903 0.84545 0.72889
 O39 O 0.25418 0.77545 0.65546
 O40 O 0.19805 0.72861 0.65247
 C41 C 0.11671 0.76145 0.75070
 C42 C 0.24440 0.75053 0.86746
 C43 C 0.23372 0.63386 0.74259
 C44 C 0.35198 0.74128 0.74948
 C45 C 0.23498 0.86884 0.75759
 C46 C 0.22427 0.75221 0.63275
 Zn47 Zn 0.73209 0.21530 0.78382
 Zn48 Zn 0.79882 0.20957 0.71134
 Zn49 Zn 0.72632 0.28827 0.71636
 Zn50 Zn 0.80540 0.28151 0.78806
 O51 O 0.76566 0.24866 0.74990
 O52 O 0.74097 0.15456 0.77111
 O53 O 0.78520 0.22114 0.65196
 O54 O 0.66719 0.28497 0.72639
 O55 O 0.78931 0.15041 0.71641
 O56 O 0.67129 0.22884 0.77439
 O57 O 0.72967 0.27757 0.65557
 O58 O 0.79501 0.34237 0.78310
 O59 O 0.85971 0.21270 0.72183
 O60 O 0.73733 0.34730 0.72899
 O61 O 0.86444 0.26811 0.77694
 O62 O 0.80195 0.27140 0.84753
 O63 O 0.74583 0.22457 0.84454
 C64 C 0.76502 0.13117 0.74241
 C65 C 0.75560 0.24948 0.63254
 C66 C 0.64802 0.25874 0.75053
 C67 C 0.76628 0.36615 0.75741
 C68 C 0.88329 0.23857 0.74930
 C69 C 0.77573 0.24780 0.86725
 Zn70 Zn 0.29882 0.20958 0.71136
 Zn71 Zn 0.23209 0.21531 0.78384
 Zn72 Zn 0.30540 0.28151 0.78807
 Zn73 Zn 0.22632 0.28827 0.71638
 O74 O 0.26566 0.24867 0.74991
 O75 O 0.28931 0.15042 0.71643
 O76 O 0.24583 0.22457 0.84455
 O77 O 0.36445 0.26812 0.77695
 O78 O 0.24097 0.15457 0.77112
 O79 O 0.35971 0.21271 0.72184
 O80 O 0.30195 0.27141 0.84754
 O81 O 0.23733 0.34731 0.72900
 O82 O 0.17129 0.22884 0.77440
 O83 O 0.29501 0.34237 0.78312
 O84 O 0.16719 0.28498 0.72640
 O85 O 0.22967 0.27758 0.65558
 O86 O 0.28520 0.22115 0.65197
 C87 C 0.26502 0.13118 0.74242
 C88 C 0.27573 0.24781 0.86727
 C89 C 0.38329 0.23858 0.74931
 C90 C 0.26628 0.36616 0.75742
 C91 C 0.14802 0.25874 0.75054
 C92 C 0.25560 0.24949 0.63255
 Zn93 Zn 0.69460 0.71849 0.21193
 Zn94 Zn 0.76791 0.78469 0.21617
 Zn95 Zn 0.70118 0.79043 0.28864
 Zn96 Zn 0.77368 0.71173 0.28363
 O97 O 0.73434 0.75133 0.25009
 O98 O 0.69805 0.72859 0.15246
 O99 O 0.75903 0.84543 0.22888
 O100 O 0.64029 0.78729 0.27816
 O101 O 0.75417 0.77543 0.15545
 O102 O 0.63555 0.73188 0.22305
 O103 O 0.71069 0.84958 0.28357
 O104 O 0.77033 0.72242 0.34442
 O105 O 0.82871 0.77115 0.22560
 O106 O 0.71480 0.77885 0.34803
 O107 O 0.83281 0.71502 0.27360
 O108 O 0.76267 0.65269 0.27100
 O109 O 0.70499 0.65763 0.21688
 C110 C 0.72427 0.75219 0.13273
 C111 C 0.73498 0.86882 0.25758
 C112 C 0.61671 0.76143 0.25069
 C113 C 0.74440 0.75051 0.36745
 C114 C 0.85198 0.74125 0.24947
 C115 C 0.73372 0.63384 0.24258
 Zn116 Zn 0.26791 0.78470 0.21618
 Zn117 Zn 0.19460 0.71849 0.21194
 Zn118 Zn 0.27368 0.71173 0.28364
 Zn119 Zn 0.20118 0.79043 0.28865
 O120 O 0.23434 0.75134 0.25010
 O121 O 0.25417 0.77543 0.15546
 O122 O 0.20499 0.65763 0.21689
 O123 O 0.33281 0.71503 0.27361
 O124 O 0.19805 0.72860 0.15247
 O125 O 0.32871 0.77116 0.22561
 O126 O 0.26267 0.65270 0.27101
 O127 O 0.21480 0.77886 0.34804
 O128 O 0.13556 0.73189 0.22306
 O129 O 0.27033 0.72243 0.34443
 O130 O 0.14029 0.78730 0.27817
 O131 O 0.21069 0.84959 0.28358
 O132 O 0.25903 0.84543 0.22889
 C133 C 0.22427 0.75220 0.13274
 C134 C 0.23372 0.63385 0.24259
 C135 C 0.35198 0.74126 0.24947
 C136 C 0.24440 0.75052 0.36746
 C137 C 0.11671 0.76143 0.25070
 C138 C 0.23498 0.86883 0.25759
 Zn139 Zn 0.72631 0.28825 0.21636
 Zn140 Zn 0.79882 0.20955 0.21134
 Zn141 Zn 0.80540 0.28149 0.28806
 Zn142 Zn 0.73209 0.21529 0.28382
 O143 O 0.76566 0.24864 0.24990
 O144 O 0.72967 0.27755 0.15556
 O145 O 0.85971 0.21269 0.22183
 O146 O 0.79501 0.34235 0.28310
 O147 O 0.78520 0.22113 0.15196
 O148 O 0.73733 0.34729 0.22899
 O149 O 0.86444 0.26810 0.27694
 O150 O 0.74582 0.22455 0.34454
 O151 O 0.78930 0.15040 0.21641
 O152 O 0.80195 0.27139 0.34752
 O153 O 0.74097 0.15455 0.27111
 O154 O 0.67128 0.22882 0.27439
 O155 O 0.66718 0.28495 0.22638
 C156 C 0.75560 0.24947 0.13254
 C157 C 0.88329 0.23855 0.24930
 C158 C 0.76628 0.36614 0.25740
 C159 C 0.77572 0.24779 0.36725
 C160 C 0.76502 0.13116 0.24241
 C161 C 0.64802 0.25872 0.25052
 Zn162 Zn 0.22632 0.28826 0.21637
 Zn163 Zn 0.29882 0.20956 0.21136
 Zn164 Zn 0.30540 0.28149 0.28807
 Zn165 Zn 0.23209 0.21529 0.28383
 O166 O 0.26566 0.24865 0.24991
 O167 O 0.22967 0.27756 0.15558
 O168 O 0.35971 0.21269 0.22184
 O169 O 0.29501 0.34236 0.28312
 O170 O 0.28520 0.22113 0.15197
 O171 O 0.23733 0.34729 0.22900
 O172 O 0.36444 0.26810 0.27695
 O173 O 0.24582 0.22456 0.34455
 O174 O 0.28931 0.15040 0.21643
 O175 O 0.30195 0.27139 0.34754
 O176 O 0.24097 0.15455 0.27112
 O177 O 0.17128 0.22883 0.27440
 O178 O 0.16719 0.28496 0.22640
 C179 C 0.25560 0.24947 0.13255
 C180 C 0.38329 0.23856 0.24931
 C181 C 0.26628 0.36614 0.25742
 C182 C 0.27572 0.24779 0.36727
 C183 C 0.26502 0.13116 0.24242
 C184 C 0.14802 0.25873 0.25053
 C185 C -0.02803 0.77305 0.75078
 C186 C -0.00340 0.72968 0.74806
 N187 N -0.02633 0.69107 0.74671
 C188 C -0.07288 0.69385 0.74780
 C189 C -0.09772 0.73717 0.74923
 N190 N -0.07460 0.77582 0.75060
 N191 N -0.00491 0.81165 0.75424
 C192 C 0.04179 0.80886 0.75497
 C193 C 0.06641 0.76555 0.75097
 N194 N 0.04312 0.72691 0.74752
 H195 H -0.09041 0.66258 0.74671
 H196 H 0.05948 0.84011 0.75779
 C197 C 0.76302 -0.01373 0.73446
 C198 C 0.73698 0.01374 0.76553
 N199 N 0.71079 -0.00644 0.79342
 C200 C 0.70943 -0.05293 0.79167
 C201 C 0.73548 -0.08065 0.76056
 N202 N 0.76169 -0.06013 0.73267
 N203 N 0.78921 0.00645 0.70657
 C204 C 0.79057 0.05294 0.70832
 C205 C 0.76452 0.08066 0.73943
 N206 N 0.73831 0.06014 0.76731
 H207 H 0.68822 -0.06802 0.81434
 H208 H 0.81178 0.06803 0.68565
 C209 C 0.71264 0.75387 -0.01221
 C210 C 0.75603 0.75018 0.01248
 N211 N 0.79464 0.74586 -0.01066
 C212 C 0.79185 0.74520 -0.05744
 C213 C 0.74852 0.75016 -0.08214
 N214 N 0.70987 0.75447 -0.05883
 N215 N 0.67403 0.75608 0.01079
 C216 C 0.67681 0.75492 0.05745
 C217 C 0.72015 0.75253 0.08233
 N218 N 0.75881 0.75029 0.05914
 H219 H 0.82311 0.74170 -0.07514
 H220 H 0.64555 0.75672 0.07505
 C221 C 0.49660 0.72968 0.74806
 C222 C 0.47197 0.77305 0.75077
 N223 N 0.49509 0.81165 0.75423
 C224 C 0.54179 0.80886 0.75496
 C225 C 0.56641 0.76555 0.75097
 N226 N 0.54312 0.72691 0.74752
 N227 N 0.47367 0.69107 0.74672
 C228 C 0.42712 0.69385 0.74782
 C229 C 0.40228 0.73717 0.74924
 N230 N 0.42540 0.77582 0.75060
 H231 H 0.55948 0.84011 0.75776
 H232 H 0.40959 0.66259 0.74673
 C233 C 0.26302 -0.01372 0.73447
 C234 C 0.23698 0.01374 0.76554
 N235 N 0.21078 -0.00643 0.79342
 C236 C 0.20942 -0.05293 0.79167
 C237 C 0.23548 -0.08064 0.76057
 N238 N 0.26169 -0.06013 0.73269
 N239 N 0.28922 0.00645 0.70659
 C240 C 0.29058 0.05295 0.70834
 C241 C 0.26452 0.08067 0.73944
 N242 N 0.23831 0.06015 0.76732
 H243 H 0.18821 -0.06801 0.81434
 H244 H 0.31180 0.06803 0.68567
 C245 C 0.21264 0.75387 -0.01220
 C246 C 0.25603 0.75019 0.01249
 N247 N 0.29464 0.74588 -0.01065
 C248 C 0.29185 0.74521 -0.05743
 C249 C 0.24852 0.75017 -0.08213
 N250 N 0.20987 0.75447 -0.05882
 N251 N 0.17403 0.75608 0.01080
 C252 C 0.17681 0.75493 0.05746
 C253 C 0.22015 0.75253 0.08234
 N254 N 0.25881 0.75030 0.05915
 H255 H 0.32311 0.74171 -0.07513
 H256 H 0.14555 0.75671 0.07506
 C257 C 0.00340 0.27034 0.75194
 C258 C 0.02803 0.22697 0.74922
 N259 N 0.00491 0.18837 0.74574
 C260 C -0.04179 0.19116 0.74501
 C261 C -0.06641 0.23446 0.74902
 N262 N -0.04312 0.27310 0.75248
 N263 N 0.02633 0.30894 0.75330
 C264 C 0.07288 0.30617 0.75221
 C265 C 0.09772 0.26285 0.75077
 N266 N 0.07461 0.22420 0.74939
 H267 H -0.05948 0.15991 0.74220
 H268 H 0.09042 0.33743 0.75331
 C269 C 0.76566 0.51128 0.76539
 C270 C 0.73434 0.48873 0.73460
 N271 N 0.70342 0.51381 0.70700
 C272 C 0.70236 0.56051 0.70876
 C273 C 0.73371 0.58330 0.73959
 N274 N 0.76465 0.55789 0.76719
 N275 N 0.79658 0.48620 0.79299
 C276 C 0.79764 0.43950 0.79123
 C277 C 0.76629 0.41671 0.76040
 N278 N 0.73535 0.44212 0.73280
 H279 H 0.67731 0.57956 0.68632
 H280 H 0.82270 0.42045 0.81367
 C281 C 0.74397 0.24981 -0.01249
 C282 C 0.78736 0.24613 0.01220
 N283 N 0.82597 0.24392 -0.01080
 C284 C 0.82319 0.24508 -0.05747
 C285 C 0.77985 0.24747 -0.08234
 N286 N 0.74119 0.24970 -0.05916
 N287 N 0.70536 0.25412 0.01064
 C288 C 0.70815 0.25478 0.05742
 C289 C 0.75148 0.24983 0.08213
 N290 N 0.79013 0.24553 0.05882
 H291 H 0.85445 0.24329 -0.07506
 H292 H 0.67689 0.25828 0.07512
 C293 C 0.52803 0.22697 0.74923
 C294 C 0.50340 0.27034 0.75194
 N295 N 0.52633 0.30895 0.75329
 C296 C 0.57288 0.30617 0.75219
 C297 C 0.59772 0.26285 0.75077
 N298 N 0.57460 0.22420 0.74940
 N299 N 0.50491 0.18837 0.74577
 C300 C 0.45821 0.19116 0.74504
 C301 C 0.43359 0.23447 0.74904
 N302 N 0.45689 0.27311 0.75248
 H303 H 0.59042 0.33743 0.75328
 H304 H 0.44052 0.15991 0.74223
 C305 C 0.26566 0.51128 0.76541
 C306 C 0.23434 0.48874 0.73461
 N307 N 0.20343 0.51381 0.70701
 C308 C 0.20237 0.56052 0.70877
 C309 C 0.23371 0.58331 0.73960
 N310 N 0.26465 0.55789 0.76720
 N311 N 0.29658 0.48621 0.79301
 C312 C 0.29763 0.43951 0.79125
 C313 C 0.26629 0.41671 0.76042
 N314 N 0.23535 0.44213 0.73281
 H315 H 0.17732 0.57957 0.68632
 H316 H 0.32268 0.42045 0.81369
 C317 C 0.24397 0.24981 -0.01248
 C318 C 0.28736 0.24613 0.01221
 N319 N 0.32597 0.24392 -0.01079
 C320 C 0.32319 0.24508 -0.05745
 C321 C 0.27985 0.24747 -0.08232
 N322 N 0.24119 0.24970 -0.05914
 N323 N 0.20536 0.25413 0.01066
 C324 C 0.20816 0.25479 0.05744
 C325 C 0.25148 0.24984 0.08214
 N326 N 0.29013 0.24553 0.05883
 H327 H 0.35445 0.24329 -0.07504
 H328 H 0.17690 0.25829 0.07514
 C329 C -0.02803 0.77303 0.25077
 C330 C -0.00340 0.72966 0.24806
 N331 N -0.02633 0.69105 0.24671
 C332 C -0.07288 0.69383 0.24781
 C333 C -0.09772 0.73715 0.24923
 N334 N -0.07461 0.77580 0.25060
 N335 N -0.00491 0.81163 0.25423
 C336 C 0.04179 0.80884 0.25496
 C337 C 0.06641 0.76554 0.25097
 N338 N 0.04312 0.72690 0.24752
 H339 H -0.09041 0.66257 0.24672
 H340 H 0.05947 0.84009 0.25777
 C341 C 0.76302 -0.01374 0.23446
 C342 C 0.73698 0.01372 0.26553
 N343 N 0.71079 -0.00645 0.29342
 C344 C 0.70943 -0.05295 0.29167
 C345 C 0.73548 -0.08067 0.26056
 N346 N 0.76169 -0.06015 0.23267
 N347 N 0.78921 0.00643 0.20657
 C348 C 0.79057 0.05293 0.20832
 C349 C 0.76452 0.08064 0.23943
 N350 N 0.73831 0.06013 0.26731
 H351 H 0.68822 -0.06803 0.31434
 H352 H 0.81178 0.06801 0.18565
 C353 C 0.75603 0.75018 0.51248
 C354 C 0.71264 0.75387 0.48779
 N355 N 0.67403 0.75610 0.51079
 C356 C 0.67681 0.75494 0.55746
 C357 C 0.72015 0.75254 0.58233
 N358 N 0.75881 0.75029 0.55914
 N359 N 0.79464 0.74584 0.48934
 C360 C 0.79184 0.74518 0.44256
 C361 C 0.74852 0.75015 0.41786
 N362 N 0.70987 0.75447 0.44117
 H363 H 0.64555 0.75674 0.57505
 H364 H 0.82310 0.74167 0.42486
 C365 C 0.49660 0.72966 0.24806
 C366 C 0.47197 0.77303 0.25078
 N367 N 0.49509 0.81163 0.25424
 C368 C 0.54179 0.80884 0.25497
 C369 C 0.56641 0.76554 0.25097
 N370 N 0.54311 0.72690 0.24752
 N371 N 0.47367 0.69106 0.24671
 C372 C 0.42712 0.69383 0.24781
 C373 C 0.40228 0.73715 0.24924
 N374 N 0.42539 0.77580 0.25061
 H375 H 0.55948 0.84009 0.25778
 H376 H 0.40958 0.66257 0.24672
 C377 C 0.26302 -0.01374 0.23447
 C378 C 0.23698 0.01373 0.26554
 N379 N 0.21078 -0.00645 0.29342
 C380 C 0.20942 -0.05294 0.29167
 C381 C 0.23548 -0.08066 0.26057
 N382 N 0.26169 -0.06015 0.23269
 N383 N 0.28922 0.00644 0.20659
 C384 C 0.29058 0.05293 0.20834
 C385 C 0.26452 0.08065 0.23944
 N386 N 0.23831 0.06013 0.26732
 H387 H 0.18820 -0.06803 0.31434
 H388 H 0.31180 0.06802 0.18567
 C389 C 0.25603 0.75019 0.51249
 C390 C 0.21264 0.75387 0.48780
 N391 N 0.17403 0.75610 0.51081
 C392 C 0.17682 0.75494 0.55747
 C393 C 0.22015 0.75254 0.58234
 N394 N 0.25881 0.75030 0.55915
 N395 N 0.29464 0.74586 0.48935
 C396 C 0.29184 0.74519 0.44257
 C397 C 0.24852 0.75015 0.41787
 N398 N 0.20987 0.75447 0.44118
 H399 H 0.14555 0.75674 0.57506
 H400 H 0.32310 0.74168 0.42487
 C401 C 0.00340 0.27032 0.25194
 C402 C 0.02803 0.22695 0.24922
 N403 N 0.00491 0.18835 0.24576
 C404 C -0.04179 0.19114 0.24503
 C405 C -0.06641 0.23444 0.24902
 N406 N -0.04312 0.27309 0.25247
 N407 N 0.02633 0.30893 0.25329
 C408 C 0.07287 0.30615 0.25219
 C409 C 0.09772 0.26283 0.25077
 N410 N 0.07460 0.22418 0.24940
 H411 H -0.05948 0.15989 0.24221
 H412 H 0.09041 0.33741 0.25329
 C413 C 0.76566 0.51126 0.26539
 C414 C 0.73434 0.48872 0.23460
 N415 N 0.70342 0.51379 0.20699
 C416 C 0.70236 0.56049 0.20876
 C417 C 0.73371 0.58329 0.23958
 N418 N 0.76465 0.55787 0.26718
 N419 N 0.79658 0.48619 0.29299
 C420 C 0.79763 0.43948 0.29122
 C421 C 0.76629 0.41669 0.26040
 N422 N 0.73535 0.44211 0.23280
 H423 H 0.67730 0.57955 0.18632
 H424 H 0.82269 0.42043 0.31366
 C425 C 0.78735 0.24613 0.51220
 C426 C 0.74396 0.24981 0.48751
 N427 N 0.70536 0.25414 0.51065
 C428 C 0.70815 0.25481 0.55742
 C429 C 0.75148 0.24985 0.58213
 N430 N 0.79013 0.24553 0.55882
 N431 N 0.82597 0.24391 0.48919
 C432 C 0.82318 0.24506 0.44253
 C433 C 0.77984 0.24746 0.41766
 N434 N 0.74118 0.24970 0.44084
 H435 H 0.67689 0.25832 0.57513
 H436 H 0.85445 0.24326 0.42494
 C437 C 0.52803 0.22695 0.24923
 C438 C 0.50340 0.27032 0.25194
 N439 N 0.52633 0.30893 0.25327
 C440 C 0.57287 0.30615 0.25217
 C441 C 0.59772 0.26283 0.25076
 N442 N 0.57460 0.22418 0.24941
 N443 N 0.50491 0.18835 0.24578
 C444 C 0.45821 0.19114 0.24506
 C445 C 0.43359 0.23445 0.24904
 N446 N 0.45688 0.27309 0.25248
 H447 H 0.59041 0.33741 0.25325
 H448 H 0.44052 0.15989 0.24226
 C449 C 0.26566 0.51127 0.26540
 C450 C 0.23434 0.48872 0.23461
 N451 N 0.20342 0.51380 0.20700
 C452 C 0.20237 0.56050 0.20877
 C453 C 0.23371 0.58329 0.23960
 N454 N 0.26465 0.55787 0.26720
 N455 N 0.29658 0.48619 0.29301
 C456 C 0.29763 0.43949 0.29125
 C457 C 0.26629 0.41670 0.26042
 N458 N 0.23535 0.44211 0.23281
 H459 H 0.17731 0.57955 0.18632
 H460 H 0.32268 0.42044 0.31369
 C461 C 0.28735 0.24613 0.51221
 C462 C 0.24396 0.24982 0.48752
 N463 N 0.20536 0.25415 0.51066
 C464 C 0.20815 0.25482 0.55744
 C465 C 0.25148 0.24985 0.58214
 N466 N 0.29013 0.24553 0.55883
 N467 N 0.32597 0.24390 0.48921
 C468 C 0.32318 0.24506 0.44255
 C469 C 0.27984 0.24746 0.41768
 N470 N 0.24118 0.24971 0.44086
 H471 H 0.17689 0.25833 0.57514
 H472 H 0.35445 0.24325 0.42495
   
