data_POSCAR
  _audit_creation_date              2014-09-24
  _audit_creation_method            'ToBaCCo'
  _symmetry_space_group_name_H-M    'P1'
  _symmetry_Int_Tables_number       1
  _symmetry_cell_setting            triclinic
  loop_
  _symmetry_equiv_pos_as_xyz
 x,y,z
_cell_length_a 54.6570
_cell_length_b 54.6650
_cell_length_c 54.6013
_cell_angle_alpha 93.485200
_cell_angle_beta 93.533000
_cell_angle_gamma 93.516400
loop_
  _atom_site_label
  _atom_site_type_symbol
  _atom_site_fract_x
  _atom_site_fract_y
  _atom_site_fract_z
C1 C 0.72126 0.67265 0.97099
 H2 H 0.73915 0.67246 0.96355
 C3 C 0.70320 0.68647 0.96038
 H4 H 0.70722 0.69711 0.94484
 C5 C 0.69361 0.65795 0.99940
 H6 H 0.68965 0.64625 1.01408
 C7 C 0.67508 0.67150 0.98936
 H8 H 0.65703 0.67038 0.99654
 N9 N 0.71616 0.65867 0.99007
 C10 C 0.78584 0.64122 1.02609
 H11 H 0.78202 0.62161 1.02660
 C12 C 0.80833 0.65209 1.03590
 H13 H 0.82190 0.64085 1.04404
 C14 C 0.77296 0.67976 1.01442
 H15 H 0.75911 0.69042 1.00601
 C16 C 0.79533 0.69141 1.02403
 H17 H 0.79873 0.71102 1.02291
 Zn18 Zn 0.74001 0.63742 1.00114
 N19 N 0.76888 0.65501 1.01523
 C20 C 0.77136 0.61904 0.96621
 N21 N 0.74789 0.61777 0.97329
 C22 C 0.72958 0.60438 0.95948
 C23 C 0.73464 0.59155 0.93759
 C24 C 0.77718 0.60651 0.94456
 C25 C 0.72367 0.63049 1.04742
 C26 C 0.71476 0.61795 1.06685
 C27 C 0.71442 0.57996 1.04164
 C28 C 0.72338 0.59329 1.02261
 N29 N 0.72754 0.61813 1.02577
 H30 H 0.78554 0.63029 0.97694
 H31 H 0.71098 0.60411 0.96523
 H32 H 0.71997 0.58114 0.92654
 H33 H 0.79587 0.60788 0.93898
 H34 H 0.72745 0.65019 1.04949
 H35 H 0.71160 0.62813 1.08392
 H36 H 0.71099 0.56021 1.03890
 H37 H 0.72701 0.58379 1.00542
 C38 C 0.81324 0.67735 1.03463
 C39 C 0.67983 0.68568 0.96952
 C40 C 0.71001 0.59246 1.06396
 C41 C 0.75867 0.59279 0.93004
 C42 C 0.73303 0.35683 0.50772
 H43 H 0.75103 0.35834 0.51731
 C44 C 0.71411 0.34206 0.51639
 H45 H 0.71754 0.33207 0.53267
 C46 C 0.70622 0.36878 0.47539
 H47 H 0.70304 0.37966 0.45979
 C48 C 0.68679 0.35423 0.48346
 H49 H 0.66877 0.35380 0.47394
 N50 N 0.72881 0.36977 0.48754
 C51 C 0.80066 0.38627 0.45982
 H52 H 0.80027 0.40598 0.45910
 C53 C 0.82093 0.37436 0.45200
 H54 H 0.83624 0.38488 0.44522
 C55 C 0.78105 0.34838 0.46925
 H56 H 0.76535 0.33830 0.47568
 C57 C 0.80098 0.33573 0.46159
 H58 H 0.80066 0.31595 0.46229
 Zn59 Zn 0.75479 0.39115 0.47850
 N60 N 0.78139 0.37325 0.46850
 C61 C 0.78814 0.41263 0.51676
 N62 N 0.76474 0.41228 0.50659
 C63 C 0.74737 0.42510 0.51759
 C64 C 0.75323 0.43879 0.53988
 C65 C 0.79477 0.42610 0.53896
 C66 C 0.73839 0.39586 0.42987
 C67 C 0.73027 0.40759 0.40917
 C68 C 0.73485 0.44628 0.43343
 C69 C 0.74292 0.43381 0.45372
 N70 N 0.74419 0.40898 0.45165
 H71 H 0.80152 0.40183 0.50818
 H72 H 0.72878 0.42408 0.50939
 H73 H 0.73918 0.44845 0.54884
 H74 H 0.81328 0.42579 0.54721
 H75 H 0.73989 0.37618 0.42869
 H76 H 0.72535 0.39694 0.39200
 H77 H 0.73354 0.46600 0.43525
 H78 H 0.74805 0.44394 0.47106
 C79 C 0.82111 0.34888 0.45297
 C80 C 0.69076 0.34086 0.50422
 C81 C 0.72835 0.43301 0.41101
 C82 C 0.77711 0.43907 0.55075
 C83 C 0.23262 -0.14285 0.00741
 H84 H 0.25064 -0.14135 0.01696
 C85 C 0.21372 -0.15762 0.01612
 H86 H 0.21718 -0.16762 0.03238
 C87 C 0.20575 -0.13088 -0.02486
 H88 H 0.20254 -0.11999 -0.04045
 C89 C 0.18634 -0.14543 -0.01675
 H90 H 0.16830 -0.14585 -0.02625
 N91 N 0.22836 -0.12990 -0.01276
 C92 C 0.30011 -0.11346 -0.04075
 H93 H 0.29970 -0.09375 -0.04150
 C94 C 0.32034 -0.12538 -0.04863
 H95 H 0.33562 -0.11487 -0.05548
 C96 C 0.28056 -0.15133 -0.03117
 H97 H 0.26490 -0.16140 -0.02465
 C98 C 0.30046 -0.16399 -0.03889
 H99 H 0.30015 -0.18377 -0.03814
 Zn100 Zn 0.25433 -0.10854 -0.02186
 N101 N 0.28088 -0.12646 -0.03197
 C102 C 0.28783 -0.08711 0.01628
 N103 N 0.26439 -0.08743 0.00621
 C104 C 0.24709 -0.07460 0.01731
 C105 C 0.25306 -0.06093 0.03959
 C106 C 0.29456 -0.07366 0.03846
 C107 C 0.23783 -0.10382 -0.07044
 C108 C 0.22963 -0.09210 -0.09112
 C109 C 0.23422 -0.05338 -0.06683
 C110 C 0.24237 -0.06588 -0.04658
 N111 N 0.24366 -0.09069 -0.04867
 H112 H 0.30116 -0.09792 0.00762
 H113 H 0.22847 -0.07559 0.00918
 H114 H 0.23906 -0.05125 0.04862
 H115 H 0.31311 -0.07399 0.04663
 H116 H 0.23935 -0.12349 -0.07161
 H117 H 0.22471 -0.10286 -0.10825
 H118 H 0.23293 -0.03366 -0.06488
 H119 H 0.24753 -0.05575 -0.02923
 C120 C 0.32055 -0.15086 -0.04760
 C121 C 0.19035 -0.15881 0.00399
 C122 C 0.22766 -0.06666 -0.08928
 C123 C 0.27698 -0.06067 0.05035
 C124 C 0.22188 0.17235 0.47046
 H125 H 0.23978 0.17223 0.46304
 C126 C 0.20380 0.18616 0.45987
 H127 H 0.20781 0.19687 0.44438
 C128 C 0.19423 0.15748 0.49878
 H129 H 0.19027 0.14572 0.51342
 C130 C 0.17567 0.17102 0.48877
 H131 H 0.15762 0.16983 0.49593
 N132 N 0.21679 0.15829 0.48948
 C133 C 0.28648 0.14096 0.52555
 H134 H 0.28272 0.12133 0.52599
 C135 C 0.30893 0.15187 0.53545
 H136 H 0.32251 0.14064 0.54358
 C137 C 0.27352 0.17950 0.51398
 H138 H 0.25965 0.19015 0.50558
 C139 C 0.29584 0.19119 0.52369
 H140 H 0.29919 0.21082 0.52264
 Zn141 Zn 0.24069 0.13709 0.50054
 N142 N 0.26950 0.15473 0.51471
 C143 C 0.27214 0.11888 0.46563
 N144 N 0.24866 0.11750 0.47268
 C145 C 0.23042 0.10406 0.45885
 C146 C 0.23554 0.09126 0.43697
 C147 C 0.27803 0.10639 0.44398
 C148 C 0.22428 0.13005 0.54678
 C149 C 0.21540 0.11744 0.56618
 C150 C 0.21523 0.07951 0.54096
 C151 C 0.22416 0.09288 0.52195
 N152 N 0.22824 0.11773 0.52513
 H153 H 0.28628 0.13017 0.47638
 H154 H 0.21181 0.10371 0.46459
 H155 H 0.22092 0.08081 0.42590
 H156 H 0.29672 0.10784 0.43841
 H157 H 0.22798 0.14976 0.54889
 H158 H 0.21214 0.12746 0.58328
 H159 H 0.21186 0.05977 0.53832
 H160 H 0.22785 0.08340 0.50476
 C161 C 0.31377 0.17715 0.53429
 C162 C 0.18041 0.18528 0.46898
 C163 C 0.21077 0.09197 0.56325
 C164 C 0.25957 0.09261 0.42943
 C165 C 0.17335 0.47017 0.22172
 H166 H 0.17320 0.46282 0.23967
 C167 C 0.18713 0.45951 0.20366
 H168 H 0.19779 0.44402 0.20774
 C169 C 0.15854 0.49839 0.19391
 H170 H 0.14681 0.51301 0.18988
 C171 C 0.17206 0.48830 0.17537
 H172 H 0.17087 0.49538 0.15726
 N173 N 0.15933 0.48917 0.21653
 C174 C 0.14180 0.52529 0.28614
 H175 H 0.12217 0.52569 0.28231
 C176 C 0.15265 0.53526 0.30860
 H177 H 0.14137 0.54339 0.32214
 C178 C 0.18041 0.51380 0.27330
 H179 H 0.19110 0.50541 0.25947
 C180 C 0.19203 0.52357 0.29564
 H181 H 0.21167 0.52259 0.29905
 Zn182 Zn 0.13807 0.50025 0.24037
 N183 N 0.15563 0.51446 0.26922
 C184 C 0.11975 0.46541 0.27187
 N185 N 0.11846 0.47243 0.24835
 C186 C 0.10509 0.45858 0.23006
 C187 C 0.09227 0.43672 0.23519
 C188 C 0.10724 0.44379 0.27776
 C189 C 0.13102 0.54638 0.22378
 C190 C 0.11839 0.56573 0.21487
 C191 C 0.08047 0.54053 0.21481
 C192 C 0.09385 0.52156 0.22377
 N193 N 0.11871 0.52475 0.22780
 H194 H 0.13099 0.47618 0.28605
 H195 H 0.10480 0.46429 0.21143
 H196 H 0.08186 0.42564 0.22054
 H197 H 0.10862 0.43826 0.29649
 H198 H 0.15074 0.54850 0.22747
 H199 H 0.12841 0.58281 0.21157
 H200 H 0.06071 0.53788 0.21148
 H201 H 0.08438 0.50440 0.22753
 C202 C 0.17793 0.53417 0.31351
 C203 C 0.18626 0.46852 0.18021
 C204 C 0.09291 0.56279 0.21028
 C205 C 0.09353 0.42923 0.25927
 C206 C -0.14370 0.00843 0.23238
 H207 H -0.14223 0.01793 0.25043
 C208 C -0.15836 0.01721 0.21343
 H209 H -0.16830 0.03348 0.21693
 C210 C -0.13172 -0.02379 0.20552
 H211 H -0.12086 -0.03938 0.20235
 C212 C -0.14616 -0.01563 0.18603
 H213 H -0.14650 -0.02514 0.16799
 N214 N -0.13079 -0.01174 0.22816
 C215 C -0.11446 -0.03969 0.30002
 H216 H -0.09475 -0.04044 0.29962
 C217 C -0.12639 -0.04758 0.32027
 H218 H -0.11588 -0.05442 0.33557
 C219 C -0.15233 -0.03013 0.28042
 H220 H -0.16239 -0.02362 0.26474
 C221 C -0.16500 -0.03785 0.30034
 H222 H -0.18478 -0.03712 0.30002
 Zn223 Zn -0.10949 -0.02087 0.25420
 N224 N -0.12746 -0.03093 0.28076
 C225 C -0.08799 0.01719 0.28772
 N226 N -0.08831 0.00712 0.26427
 C227 C -0.07540 0.01815 0.24696
 C228 C -0.06164 0.04035 0.25294
 C229 C -0.07444 0.03930 0.29446
 C230 C -0.10483 -0.06941 0.23770
 C231 C -0.09310 -0.09009 0.22963
 C232 C -0.05436 -0.06592 0.23444
 C233 C -0.06684 -0.04565 0.24246
 N234 N -0.09168 -0.04769 0.24360
 H235 H -0.09886 0.00859 0.30106
 H236 H -0.07640 0.01003 0.22833
 H237 H -0.05189 0.04933 0.23893
 H238 H -0.07477 0.04746 0.31302
 H239 H -0.12453 -0.07056 0.23910
 H240 H -0.10377 -0.10722 0.22463
 H241 H -0.03463 -0.06413 0.23324
 H242 H -0.05669 -0.02835 0.24766
 C243 C -0.15187 -0.04657 0.32046
 C244 C -0.15950 0.00514 0.19000
 C245 C -0.06766 -0.08829 0.22786
 C246 C -0.06137 0.05111 0.27687
 C247 C 0.35672 0.50820 0.73318
 H248 H 0.35820 0.51769 0.75124
 C249 C 0.34199 0.51697 0.71426
 H250 H 0.33201 0.53321 0.71774
 C251 C 0.36868 0.47603 0.70624
 H252 H 0.37956 0.46046 0.70302
 C253 C 0.35418 0.48420 0.68680
 H254 H 0.35377 0.47477 0.66873
 N255 N 0.36965 0.48806 0.72890
 C256 C 0.38598 0.45999 0.80069
 H257 H 0.40569 0.45929 0.80034
 C258 C 0.37401 0.45200 0.82089
 H259 H 0.38450 0.44513 0.83619
 C260 C 0.34812 0.46949 0.78104
 H261 H 0.33807 0.47600 0.76534
 C262 C 0.33541 0.46166 0.80089
 H263 H 0.31562 0.46232 0.80052
 Zn264 Zn 0.39096 0.47889 0.75490
 N265 N 0.37299 0.46877 0.78143
 C266 C 0.41243 0.51696 0.78845
 N267 N 0.41212 0.50690 0.76500
 C268 C 0.42502 0.51795 0.74769
 C269 C 0.43874 0.54017 0.75367
 C270 C 0.42594 0.53909 0.79519
 C271 C 0.39564 0.43039 0.73834
 C272 C 0.40738 0.40973 0.73020
 C273 C 0.44610 0.43393 0.73497
 C274 C 0.43363 0.45418 0.74305
 N275 N 0.40879 0.45212 0.74424
 H276 H 0.40157 0.50833 0.80178
 H277 H 0.42403 0.50983 0.72906
 H278 H 0.44847 0.54917 0.73966
 H279 H 0.42560 0.54725 0.81375
 H280 H 0.37596 0.42922 0.73977
 H281 H 0.39672 0.39259 0.72521
 H282 H 0.46583 0.43574 0.73373
 H283 H 0.44377 0.47148 0.74826
 C284 C 0.34851 0.45293 0.82101
 C285 C 0.34082 0.50492 0.69084
 C286 C 0.43281 0.41156 0.72838
 C287 C 0.43899 0.55093 0.77760
 C288 C 0.67404 0.97072 0.72247
 H289 H 0.67396 0.96328 0.74038
 C290 C 0.68779 0.96016 0.70431
 H291 H 0.69848 0.94467 0.70828
 C292 C 0.65910 0.99904 0.69485
 H293 H 0.64733 1.01366 0.69092
 C294 C 0.67257 0.98906 0.67622
 H295 H 0.67132 0.99623 0.65815
 N296 N 0.65997 0.98972 0.71743
 C297 C 0.64251 1.02549 0.78724
 H298 H 0.62288 1.02587 0.78345
 C299 C 0.65338 1.03537 0.80973
 H300 H 0.64205 1.04343 0.82328
 C301 C 0.68112 1.01411 0.77429
 H302 H 0.69179 1.00580 0.76040
 C303 C 0.69277 1.02380 0.79665
 H304 H 0.71243 1.02281 0.79995
 Zn305 Zn 0.63874 1.00065 0.74137
 N306 N 0.65634 1.01475 0.77025
 C307 C 0.62051 0.96564 0.77274
 N308 N 0.61919 0.97275 0.74925
 C309 C 0.60579 0.95898 0.73093
 C310 C 0.59296 0.93710 0.73599
 C311 C 0.60799 0.94399 0.77855
 C312 C 0.63161 1.04685 0.72499
 C313 C 0.61896 1.06620 0.71609
 C314 C 0.58108 1.04091 0.71591
 C315 C 0.59448 1.02195 0.72486
 N316 N 0.61934 1.02519 0.72894
 H317 H 0.63177 0.97634 0.78693
 H318 H 0.60548 0.96476 0.71232
 H319 H 0.58253 0.92609 0.72130
 H320 H 0.60938 0.93838 0.79726
 H321 H 0.65132 1.04900 0.72871
 H322 H 0.62896 1.08330 0.71283
 H323 H 0.56133 1.03823 0.71252
 H324 H 0.58503 1.00476 0.72855
 C325 C 0.67869 1.03431 0.81461
 C326 C 0.68682 0.96928 0.68091
 C327 C 0.59349 1.06320 0.71143
 C328 C 0.59423 0.92951 0.76003
 C329 C 0.00739 0.23265 -0.14299
 H330 H 0.01690 0.25068 -0.14148
 C331 C 0.01615 0.21377 -0.15774
 H332 H 0.03240 0.21726 -0.16772
 C333 C -0.02481 0.20572 -0.13106
 H334 H -0.04039 0.20249 -0.12018
 C335 C -0.01665 0.18633 -0.14559
 H336 H -0.02610 0.16828 -0.14601
 N337 N -0.01276 0.22835 -0.13006
 C338 C -0.04074 0.30006 -0.11353
 H339 H -0.04147 0.29963 -0.09380
 C340 C -0.04864 0.32031 -0.12545
 H341 H -0.05547 0.33557 -0.11491
 C342 C -0.03122 0.28056 -0.15146
 H343 H -0.02473 0.26491 -0.16156
 C344 C -0.03896 0.30047 -0.16412
 H345 H -0.03825 0.30018 -0.18392
 Zn346 Zn -0.02189 0.25427 -0.10866
 N347 N -0.03199 0.28085 -0.12657
 C348 C 0.01622 0.28772 -0.08711
 N349 N 0.00614 0.26429 -0.08747
 C350 C 0.01721 0.24696 -0.07463
 C351 C 0.03947 0.25289 -0.06092
 C352 C 0.03839 0.29441 -0.07363
 C353 C -0.07043 0.23773 -0.10402
 C354 C -0.09109 0.22952 -0.09232
 C355 C -0.06686 0.23410 -0.05352
 C356 C -0.04662 0.24225 -0.06600
 N357 N -0.04869 0.24356 -0.09085
 H358 H 0.00758 0.30107 -0.09793
 H359 H 0.00908 0.22835 -0.07565
 H360 H 0.04849 0.23886 -0.05125
 H361 H 0.04657 0.31294 -0.07395
 H362 H -0.07159 0.23926 -0.12371
 H363 H -0.10820 0.22460 -0.10312
 H364 H -0.06493 0.23280 -0.03377
 H365 H -0.02930 0.24741 -0.05584
 C366 C -0.04765 0.32054 -0.15096
 C367 C 0.00409 0.19038 -0.15893
 C368 C -0.08928 0.22754 -0.06685
 C369 C 0.05025 0.27679 -0.06065
 C370 C 0.47087 0.22151 0.17285
 H371 H 0.46341 0.23939 0.17268
 C372 C 0.46031 0.20342 0.18667
 H373 H 0.44479 0.20740 0.19733
 C374 C 0.49926 0.19392 0.15808
 H375 H 0.51391 0.18999 0.14634
 C376 C 0.48927 0.17536 0.17163
 H377 H 0.49646 0.15732 0.17046
 N378 N 0.48991 0.21646 0.15883
 C379 C 0.52571 0.28616 0.14119
 H380 H 0.52617 0.28231 0.12156
 C381 C 0.53552 0.30867 0.15201
 H382 H 0.54362 0.32221 0.14070
 C383 C 0.51418 0.27335 0.17984
 H384 H 0.50582 0.25952 0.19056
 C385 C 0.52380 0.29574 0.19144
 H386 H 0.52274 0.29918 0.21108
 Zn387 Zn 0.50085 0.24033 0.13752
 N388 N 0.51492 0.26923 0.15506
 C389 C 0.46582 0.27158 0.11916
 N390 N 0.47295 0.24814 0.11789
 C391 C 0.45916 0.22981 0.10453
 C392 C 0.43725 0.23481 0.09171
 C393 C 0.44414 0.27735 0.10665
 C394 C 0.54711 0.22407 0.13047
 C395 C 0.56650 0.21525 0.11785
 C396 C 0.54122 0.21490 0.07990
 C397 C 0.52221 0.22377 0.09328
 N398 N 0.52543 0.22790 0.11815
 H399 H 0.47654 0.28579 0.13039
 H400 H 0.46496 0.21122 0.10426
 H401 H 0.42622 0.22012 0.08132
 H402 H 0.43852 0.29603 0.10802
 H403 H 0.54925 0.22782 0.15020
 H404 H 0.58363 0.21209 0.12788
 H405 H 0.53855 0.21148 0.06014
 H406 H 0.50500 0.22737 0.08380
 C407 C 0.53434 0.31362 0.17730
 C408 C 0.46945 0.18006 0.18583
 C409 C 0.56354 0.21055 0.09236
 C410 C 0.42965 0.25881 0.09295
 C411 C 0.96967 0.72159 0.67344
 H412 H 0.96228 0.73950 0.67334
 C413 C 0.95909 0.70349 0.68723
 H414 H 0.94361 0.70749 0.69794
 C415 C 0.99795 0.69395 0.65853
 H416 H 1.01256 0.69001 0.64676
 C417 C 0.98793 0.67537 0.67205
 H418 H 0.99507 0.65731 0.67083
 N419 N 0.98867 0.71652 0.65937
 C420 C 1.02471 0.78621 0.64206
 H421 H 1.02511 0.78246 0.62241
 C422 C 1.03464 0.80862 0.65299
 H423 H 1.04277 0.82220 0.64175
 C424 C 1.01321 0.77321 0.68066
 H425 H 1.00483 0.75934 0.69131
 C426 C 1.02296 0.79550 0.69236
 H427 H 1.02197 0.79882 0.71203
 Zn428 Zn 0.99972 0.74044 0.63817
 N429 N 1.01388 0.76923 0.65585
 C430 C 0.96484 0.77191 0.61992
 N431 N 0.97190 0.74844 0.61854
 C432 C 0.95811 0.73021 0.60502
 C433 C 0.93628 0.73536 0.59214
 C434 C 0.94324 0.77781 0.60736
 C435 C 1.04592 0.72403 0.63112
 C436 C 1.06530 0.71522 0.61847
 C437 C 1.04010 0.71519 0.58050
 C438 C 1.02110 0.72405 0.59390
 N439 N 1.02428 0.72802 0.61879
 H440 H 0.97555 0.78603 0.63127
 H441 H 0.96385 0.71161 0.60466
 H442 H 0.92526 0.72076 0.58161
 H443 H 0.93768 0.79651 0.60881
 H444 H 1.04802 0.72766 0.65086
 H445 H 1.08239 0.71194 0.62851
 H446 H 1.03747 0.71190 0.56073
 H447 H 1.00393 0.72778 0.58442
 C448 C 1.03354 0.81343 0.67831
 C449 C 0.96817 0.68010 0.68632
 C450 C 1.06237 0.71069 0.59296
 C451 C 0.92875 0.75939 0.59349
 C452 C 0.50766 0.73343 0.35548
 H453 H 0.51720 0.75145 0.35694
 C454 C 0.51634 0.71450 0.34074
 H455 H 0.53256 0.71793 0.33071
 C456 C 0.47545 0.70661 0.36756
 H457 H 0.45990 0.70343 0.37850
 C458 C 0.48352 0.68717 0.35304
 H459 H 0.47404 0.66914 0.35268
 N460 N 0.48754 0.72921 0.36849
 C461 C 0.45978 0.80103 0.38501
 H462 H 0.45913 0.80061 0.40474
 C463 C 0.45187 0.82128 0.37311
 H464 H 0.44511 0.83655 0.38373
 C465 C 0.46911 0.78146 0.34704
 H466 H 0.47554 0.76578 0.33693
 C467 C 0.46136 0.80137 0.33438
 H468 H 0.46201 0.80100 0.31456
 Zn469 Zn 0.47851 0.75520 0.38987
 N470 N 0.46844 0.78179 0.37194
 C471 C 0.51670 0.78860 0.41137
 N472 N 0.50658 0.76518 0.41102
 C473 C 0.51759 0.74785 0.42390
 C474 C 0.53981 0.75376 0.43768
 C475 C 0.53882 0.79527 0.42493
 C476 C 0.42997 0.73874 0.39465
 C477 C 0.40933 0.73064 0.40644
 C478 C 0.43360 0.73541 0.44517
 C479 C 0.45384 0.74344 0.43263
 N480 N 0.45174 0.74461 0.40776
 H481 H 0.50811 0.80195 0.40052
 H482 H 0.50943 0.72924 0.42288
 H483 H 0.54877 0.73973 0.44741
 H484 H 0.54702 0.81380 0.42464
 H485 H 0.42877 0.74015 0.37494
 H486 H 0.39216 0.72567 0.39580
 H487 H 0.43545 0.73420 0.46492
 H488 H 0.47117 0.74864 0.44275
 C489 C 0.45274 0.82149 0.34757
 C490 C 0.50422 0.69114 0.33962
 C491 C 0.41120 0.72884 0.43191
 C492 C 0.55061 0.77766 0.43799
 C493 C 0.37511 -0.02277 0.26783
 C494 C 0.36015 -0.02898 0.24337
 C495 C 0.34749 -0.00996 0.23536
 C496 C 0.35078 0.01353 0.25254
 C497 C 0.39160 0.00013 0.26357
 C498 C 0.37877 0.01911 0.25555
 C499 C 0.35662 -0.01384 0.28573
 C500 C 0.34392 0.00514 0.27776
 H501 H 0.36065 -0.04635 0.23267
 H502 H 0.34030 0.02897 0.24606
 H503 H 0.41153 0.00097 0.26583
 H504 H 0.35473 -0.02096 0.30373
 C505 C 0.09788 1.04215 0.75475
 C506 C 0.11140 1.04920 0.73223
 C507 C 0.12623 1.03176 0.72400
 C508 C 0.12631 1.00885 0.73902
 C509 C 0.08410 1.01727 0.74710
 C510 C 0.09909 0.99987 0.73890
 C511 C 0.11804 1.03638 0.77390
 C512 C 0.13285 1.01889 0.76569
 H513 H 0.10904 1.06619 0.72327
 H514 H 0.13852 0.99472 0.73225
 H515 H 0.06453 1.01356 0.74871
 H516 H 0.11909 1.04376 0.79290
 C517 C 0.59765 0.54276 0.25312
 C518 C 0.61116 0.54987 0.23062
 C519 C 0.62603 0.53248 0.22236
 C520 C 0.62616 0.50955 0.23735
 C521 C 0.58392 0.51787 0.24544
 C522 C 0.59896 0.50051 0.23722
 C523 C 0.61783 0.53701 0.27226
 C524 C 0.63268 0.51957 0.26403
 H525 H 0.60877 0.56688 0.22168
 H526 H 0.63840 0.49547 0.23057
 H527 H 0.56436 0.51410 0.24707
 H528 H 0.61886 0.54437 0.29127
 C529 C 0.87416 0.47727 0.76857
 C530 C 0.85926 0.47102 0.74408
 C531 C 0.84657 0.49002 0.73603
 C532 C 0.84978 0.51352 0.75321
 C533 C 0.89061 0.50020 0.76433
 C534 C 0.87776 0.51915 0.75628
 C535 C 0.85560 0.48616 0.78642
 C536 C 0.84289 0.50511 0.77842
 H537 H 0.85984 0.45367 0.73338
 H538 H 0.83928 0.52892 0.74670
 H539 H 0.91054 0.50108 0.76663
 H540 H 0.85370 0.47906 0.80442
 C541 C 0.26794 0.37389 -0.02264
 C542 C 0.24345 0.35903 -0.02889
 C543 C 0.23542 0.34633 -0.00988
 C544 C 0.25261 0.34950 0.01364
 C545 C 0.26374 0.39032 0.00033
 C546 C 0.25570 0.37747 0.01929
 C547 C 0.28576 0.35531 -0.01375
 C548 C 0.27777 0.34258 0.00522
 H549 H 0.23274 0.35964 -0.04627
 H550 H 0.24610 0.33900 0.02906
 H551 H 0.26606 0.41025 0.00121
 H552 H 0.30374 0.35341 -0.02085
 C553 C 0.75494 0.09804 1.04229
 C554 C 0.73247 0.11158 1.04936
 C555 C 0.72421 0.12640 1.03188
 C556 C 0.73916 0.12645 1.00892
 C557 C 0.74724 0.08424 1.01741
 C558 C 0.73902 0.09922 0.99998
 C559 C 0.77406 0.11818 1.03646
 C560 C 0.76582 0.13298 1.01894
 H561 H 0.72354 0.10923 1.06638
 H562 H 0.73238 0.13864 0.99477
 H563 H 0.74884 0.06467 1.01372
 H564 H 0.79305 0.11922 1.04383
 C565 C 0.25397 0.59861 0.54258
 C566 C 0.23145 0.61204 0.54968
 C567 C 0.22310 0.62684 0.53224
 C568 C 0.23803 0.62698 0.50926
 C569 C 0.24630 0.58481 0.51769
 C570 C 0.23800 0.59977 0.50028
 C571 C 0.27300 0.61882 0.53675
 C572 C 0.26468 0.63360 0.51925
 H573 H 0.22256 0.60964 0.56672
 H574 H 0.23118 0.63916 0.49513
 H575 H 0.24801 0.56526 0.51396
 H576 H 0.29201 0.61991 0.54408
 C577 C 0.76788 0.87524 0.47739
 C578 C 0.74340 0.86040 0.47108
 C579 C 0.73531 0.84769 0.49006
 C580 C 0.75243 0.85084 0.51362
 C581 C 0.76364 0.89167 0.50035
 C582 C 0.75554 0.87881 0.51928
 C583 C 0.78566 0.85664 0.48631
 C584 C 0.77761 0.84391 0.50525
 H585 H 0.73275 0.86098 0.45366
 H586 H 0.74588 0.84034 0.52902
 H587 H 0.76603 0.91159 0.50127
 H588 H 0.80366 0.85472 0.47924
 C589 C -0.02222 0.26817 0.37511
 C590 C -0.02858 0.24375 0.36016
 C591 C -0.00963 0.23567 0.34743
 C592 C 0.01395 0.25273 0.35067
 C593 C 0.00069 0.26380 0.39156
 C594 C 0.01959 0.25570 0.37868
 C595 C -0.01324 0.28601 0.35657
 C596 C 0.00566 0.27796 0.34382
 H597 H -0.04600 0.23315 0.36069
 H598 H 0.02932 0.24617 0.34015
 H599 H 0.00158 0.26605 0.41151
 H600 H -0.02028 0.30402 0.35468
 C601 C 1.04230 0.75413 0.09752
 C602 C 1.04948 0.73165 0.11101
 C603 C 1.03213 0.72334 0.12592
 C604 C 1.00917 0.73825 0.12610
 C605 C 1.01739 0.74641 0.08381
 C606 C 1.00008 0.73814 0.09888
 C607 C 1.03654 0.77320 0.11773
 C608 C 1.01914 0.76491 0.13262
 H609 H 1.06648 0.72275 0.10856
 H610 H 0.99512 0.73143 0.13837
 H611 H 1.01358 0.74803 0.06423
 H612 H 1.04384 0.79221 0.11874
 C613 C 0.54265 0.25396 0.59778
 C614 C 0.54983 0.23153 0.61135
 C615 C 0.53247 0.22325 0.62626
 C616 C 0.50949 0.23813 0.62637
 C617 C 0.51776 0.24619 0.58406
 C618 C 0.50043 0.23794 0.59913
 C619 C 0.53684 0.27308 0.61794
 C620 C 0.51944 0.26481 0.63283
 H621 H 0.56687 0.22266 0.60898
 H622 H 0.49543 0.23133 0.63863
 H623 H 0.51397 0.24778 0.56447
 H624 H 0.54415 0.29208 0.61892
 C625 C 0.47742 0.76842 0.87490
 C626 C 0.47113 0.74399 0.85996
 C627 C 0.49014 0.73588 0.84735
 C628 C 0.51371 0.75295 0.85067
 C629 C 0.50026 0.76408 0.89147
 C630 C 0.51923 0.75597 0.87869
 C631 C 0.48649 0.78624 0.85637
 C632 C 0.50546 0.77817 0.84373
 H633 H 0.45372 0.73336 0.86047
 H634 H 0.52913 0.74639 0.84023
 H635 H 0.50107 0.76637 0.91141
 H636 H 0.47950 0.80427 0.85446
 C637 C 0.42872 -0.12059 0.31415
 N638 N 0.43513 -0.09755 0.32403
 N639 N 0.42581 -0.07818 0.31412
 C640 C 0.40982 -0.08126 0.29402
 N641 N 0.40345 -0.10429 0.28410
 N642 N 0.41277 -0.12366 0.29400
 C643 C 0.43771 -0.14147 0.32562
 C644 C 0.44491 -0.15893 0.33571
 C645 C 0.39855 -0.06057 0.28433
 C646 C 0.38839 -0.04338 0.27664
 C647 C 0.92789 0.37957 0.81497
 N648 N 0.91208 0.37649 0.79473
 N649 N 0.90273 0.39585 0.78482
 C650 C 0.90894 0.41887 0.79484
 N651 N 0.92480 0.42196 0.81505
 N652 N 0.93415 0.40260 0.82496
 C653 C 0.93690 0.35868 0.82644
 C654 C 0.94410 0.34122 0.83651
 C655 C 0.89765 0.43953 0.78514
 C656 C 0.88746 0.45670 0.77743
 C657 C 0.03343 1.13355 0.80377
 N658 N 0.04821 1.13777 0.78521
 N659 N 0.05960 1.11946 0.77459
 C660 C 0.05654 1.09638 0.78220
 N661 N 0.04171 1.09214 0.80071
 N662 N 0.03032 1.11045 0.81133
 C663 C 0.02245 1.15351 0.81627
 C664 C 0.01379 1.17032 0.82729
 C665 C 0.07014 1.07706 0.77194
 C666 C 0.08226 1.06112 0.76388
 C667 C 0.53330 0.63416 0.30229
 N668 N 0.54774 0.63827 0.28344
 N669 N 0.55907 0.61994 0.27279
 C670 C 0.55629 0.59693 0.28066
 N671 N 0.54180 0.59280 0.29947
 N672 N 0.53047 0.61114 0.31012
 C673 C 0.52241 0.65417 0.31481
 C674 C 0.51383 0.67103 0.32584
 C675 C 0.56987 0.57761 0.27037
 C676 C 0.58199 0.56169 0.26228
 C677 C 0.55905 0.38224 0.20503
 N678 N 0.58334 0.38929 0.20597
 N679 N 0.59114 0.41244 0.21270
 C680 C 0.57488 0.42927 0.21861
 N681 N 0.55059 0.42222 0.21771
 N682 N 0.54279 0.39907 0.21098
 C683 C 0.55051 0.35770 0.19638
 C684 C 0.54322 0.33738 0.18823
 C685 C 0.58323 0.45434 0.22522
 C686 C 0.59031 0.47540 0.23065
 C687 C 0.05866 0.88182 0.70637
 N688 N 0.08296 0.88879 0.70710
 N689 N 0.09087 0.91190 0.71391
 C690 C 0.07473 0.92874 0.72011
 N691 N 0.05044 0.92176 0.71942
 N692 N 0.04253 0.89865 0.71261
 C693 C 0.04999 0.85734 0.69761
 C694 C 0.04257 0.83709 0.68937
 C695 C 0.08320 0.95377 0.72680
 C696 C 0.09037 0.97480 0.73229
 C697 C 0.93429 0.62284 0.71834
 N698 N 0.94767 0.60536 0.72824
 N699 N 0.93652 0.58545 0.73658
 C700 C 0.91164 0.58239 0.73524
 N701 N 0.89826 0.59989 0.72538
 N702 N 0.90942 0.61980 0.71705
 C703 C 0.94630 0.64353 0.70800
 C704 C 0.95632 0.66047 0.69856
 C705 C 0.89966 0.56040 0.74314
 C706 C 0.88965 0.54171 0.74934
 C707 C 0.43550 0.12277 0.21776
 N708 N 0.44884 0.10520 0.22755
 N709 N 0.43765 0.08529 0.23584
 C710 C 0.41277 0.08231 0.23456
 N711 N 0.39943 0.09990 0.22481
 N712 N 0.41063 0.11982 0.21652
 C713 C 0.44755 0.14347 0.20746
 C714 C 0.45759 0.16042 0.19805
 C715 C 0.40074 0.06034 0.24243
 C716 C 0.39070 0.04166 0.24861
 C717 C 0.31433 0.42807 -0.12018
 N718 N 0.32394 0.43461 -0.09705
 N719 N 0.31403 0.42513 -0.07774
 C720 C 0.29418 0.40885 -0.08099
 N721 N 0.28452 0.40236 -0.10412
 N722 N 0.29444 0.41183 -0.12342
 C723 C 0.32583 0.43723 -0.14098
 C724 C 0.33593 0.44455 -0.15839
 C725 C 0.28448 0.39746 -0.06037
 C726 C 0.27677 0.38722 -0.04321
 C727 C 0.81414 0.92901 0.37958
 N728 N 0.79377 0.91340 0.37653
 N729 N 0.78391 0.90406 0.39593
 C730 C 0.79411 0.91006 0.41895
 N731 N 0.81445 0.92571 0.42200
 N732 N 0.82431 0.93506 0.40260
 C733 C 0.82555 0.93801 0.35864
 C734 C 0.83560 0.94520 0.34115
 C735 C 0.78445 0.89875 0.43964
 C736 C 0.77675 0.88856 0.45682
 C737 C 0.80403 0.03382 1.13398
 N738 N 0.78532 0.04840 1.13810
 N739 N 0.77469 0.05973 1.11972
 C740 C 0.78244 0.05680 1.09666
 N741 N 0.80111 0.04216 1.09253
 N742 N 0.81174 0.03083 1.11092
 C743 C 0.81652 0.02291 1.15403
 C744 C 0.82754 0.01431 1.17093
 C745 C 0.77218 0.07035 1.07729
 C746 C 0.76410 0.08244 1.06130
 C747 C 0.30343 0.53424 0.63396
 N748 N 0.28477 0.54885 0.63821
 N749 N 0.27407 0.56023 0.61990
 C750 C 0.28171 0.55732 0.59680
 N751 N 0.30033 0.54266 0.59254
 N752 N 0.31103 0.53128 0.61085
 C753 C 0.31598 0.52327 0.65393
 C754 C 0.32704 0.51461 0.67076
 C755 C 0.27136 0.57091 0.57749
 C756 C 0.26321 0.58301 0.56154
 C757 C 0.20577 0.55934 0.38204
 N758 N 0.21204 0.54322 0.39891
 N759 N 0.21879 0.55114 0.42205
 C760 C 0.21937 0.57542 0.42904
 N761 N 0.21314 0.59154 0.41216
 N762 N 0.20639 0.58362 0.38902
 C763 C 0.19708 0.55065 0.35752
 C764 C 0.18891 0.54322 0.33723
 C765 C 0.22598 0.58389 0.45410
 C766 C 0.23143 0.59105 0.47516
 C767 C 0.70627 0.05883 0.88182
 N768 N 0.71240 0.04267 0.89870
 N769 N 0.71926 0.05057 0.92182
 C770 C 0.72012 0.07486 0.92878
 N771 N 0.71404 0.09103 0.91189
 N772 N 0.70717 0.08313 0.88877
 C773 C 0.69744 0.05018 0.85733
 C774 C 0.68913 0.04280 0.83706
 C775 C 0.72685 0.08332 0.95383
 C776 C 0.73237 0.09048 0.97488
 C777 C 0.71842 0.93536 0.62339
 N778 N 0.71703 0.91049 0.62033
 N779 N 0.72518 0.89932 0.60033
 C780 C 0.73493 0.91268 0.58274
 N781 N 0.73636 0.93755 0.58582
 N782 N 0.72822 0.94872 0.60583
 C783 C 0.70826 0.94738 0.64418
 C784 C 0.69895 0.95742 0.66120
 C785 C 0.74266 0.90069 0.56067
 C786 C 0.74873 0.89068 0.54192
 C787 C 0.21810 0.43431 0.12301
 N788 N 0.21647 0.40944 0.11992
 N789 N 0.22472 0.39820 0.10001
 C790 C 0.23483 0.41148 0.08256
 N791 N 0.23650 0.43635 0.08567
 N792 N 0.22825 0.44759 0.10558
 C793 C 0.20784 0.44644 0.14368
 C794 C 0.19846 0.45656 0.16061
 C795 C 0.24266 0.39942 0.06058
 C796 C 0.24880 0.38937 0.04188
 C797 C -0.11983 0.31478 0.42873
 N798 N -0.12290 0.29435 0.41320
 N799 N -0.10355 0.28440 0.40391
 C800 C -0.08053 0.29457 0.40990
 N801 N -0.07745 0.31496 0.42548
 N802 N -0.09681 0.32491 0.43477
 C803 C -0.14071 0.32627 0.43767
 C804 C -0.15819 0.33635 0.44481
 C805 C -0.05989 0.28482 0.39862
 C806 C -0.04274 0.27707 0.38844
 C807 C 0.37961 0.81505 0.92815
 N808 N 0.40264 0.82502 0.93444
 N809 N 0.42202 0.81508 0.92519
 C810 C 0.41895 0.79484 0.90940
 N811 N 0.39593 0.78483 0.90316
 N812 N 0.37654 0.79477 0.91240
 C813 C 0.35871 0.82653 0.93707
 C814 C 0.34123 0.83661 0.94420
 C815 C 0.43964 0.78510 0.89821
 C816 C 0.45683 0.77733 0.88811
 C817 C 1.13349 0.80366 0.03309
 N818 N 1.13768 0.78482 0.04752
 N819 N 1.11939 0.77409 0.05885
 C820 C 1.09634 0.78186 0.05609
 N821 N 1.09214 0.80066 0.04160
 N822 N 1.11043 0.81139 0.03027
 C823 C 1.15346 0.81625 0.02219
 C824 C 1.17028 0.82735 0.01360
 C825 C 1.07707 0.77149 0.06968
 C826 C 1.06118 0.76334 0.08183
 C827 C 0.63387 0.30337 0.53330
 N828 N 0.63806 0.28455 0.54777
 N829 N 0.61976 0.27384 0.55911
 C830 C 0.59672 0.28161 0.55633
 N831 N 0.59251 0.30038 0.54182
 N832 N 0.61081 0.31109 0.53047
 C833 C 0.65384 0.31595 0.52240
 C834 C 0.67067 0.32703 0.51382
 C835 C 0.57744 0.27128 0.56994
 C836 C 0.56154 0.26315 0.58209
 C837 C 0.38226 0.20518 0.55915
 N838 N 0.38937 0.20586 0.58344
 N839 N 0.41250 0.21270 0.59126
 C840 C 0.42924 0.21898 0.57502
 N841 N 0.42212 0.21834 0.55074
 N842 N 0.39899 0.21150 0.54292
 C843 C 0.35775 0.19642 0.55058
 C844 C 0.33747 0.18818 0.54324
 C845 C 0.45429 0.22572 0.58339
 C846 C 0.47534 0.23126 0.59048
 C847 C 0.88184 0.70533 0.05919
 N848 N 0.88894 0.70639 0.08350
 N849 N 0.91208 0.71324 0.09124
 C850 C 0.92886 0.71916 0.07491
 N851 N 0.92175 0.71814 0.05061
 N852 N 0.89860 0.71129 0.04286
 C853 C 0.85730 0.69657 0.05072
 C854 C 0.83699 0.68835 0.04348
 C855 C 0.95392 0.72591 0.08320
 C856 C 0.97498 0.73145 0.09026
 C857 C 0.62266 0.71780 0.93556
 N858 N 0.61989 0.71694 0.91066
 N859 N 0.60001 0.72531 0.89946
 C860 C 0.58230 0.73477 0.91282
 N861 N 0.58510 0.73568 0.93772
 N862 N 0.60497 0.72730 0.94892
 C863 C 0.64332 0.70742 0.94760
 C864 C 0.66024 0.69795 0.95764
 C865 C 0.56037 0.74272 0.90076
 C866 C 0.54173 0.74896 0.89068
 C867 C 0.12320 0.21743 0.43515
 N868 N 0.12020 0.21632 0.41026
 N869 N 0.10031 0.22471 0.39912
 C870 C 0.08278 0.23444 0.41254
 N871 N 0.08579 0.23561 0.43743
 N872 N 0.10569 0.22722 0.44857
 C873 C 0.14387 0.20704 0.44714
 C874 C 0.16080 0.19756 0.45715
 C875 C 0.06081 0.24242 0.40057
 C876 C 0.04214 0.24868 0.39057
 C877 C 0.56033 0.12114 0.68331
 N878 N 0.54971 0.11940 0.66011
 N879 N 0.54214 0.13933 0.64979
 C880 C 0.54495 0.16161 0.66235
 N881 N 0.55547 0.16333 0.68560
 N882 N 0.56304 0.14340 0.69592
 C883 C 0.57069 0.10019 0.69353
 C884 C 0.58050 0.08304 0.70182
 C885 C 0.53917 0.18337 0.65034
 C886 C 0.53548 0.20162 0.63969
 C887 C 1.05981 0.62086 0.18241
 N888 N 1.06245 0.64305 0.19517
 N889 N 1.05491 0.66305 0.18495
 C890 C 1.04449 0.66147 0.16167
 N891 N 1.04176 0.63927 0.14895
 N892 N 1.04929 0.61927 0.15916
 C893 C 1.07015 0.59985 0.19252
 C894 C 1.07994 0.58266 0.20073
 C895 C 1.03876 0.68332 0.14978
 C896 C 1.03510 0.70163 0.13924
 C897 C 0.96585 0.85275 0.19939
 N898 N 0.99063 0.85314 0.19871
 N899 N 1.00114 0.83468 0.18729
 C900 C 0.98719 0.81523 0.17626
 N901 N 0.96241 0.81480 0.17701
 N902 N 0.95191 0.83327 0.18843
 C903 C 0.95442 0.87337 0.21017
 C904 C 0.94454 0.89083 0.21855
 C905 C 0.99835 0.79652 0.16206
 C906 C 1.00778 0.78160 0.14918
 C907 C 0.46628 0.35264 0.69975
 N908 N 0.49106 0.35307 0.69896
 N909 N 0.50153 0.33460 0.68751
 C910 C 0.48757 0.31514 0.67654
 N911 N 0.46280 0.31468 0.67740
 N912 N 0.45232 0.33314 0.68886
 C913 C 0.45487 0.37325 0.71058
 C914 C 0.44501 0.39070 0.71901
 C915 C 0.49869 0.29643 0.66231
 C916 C 0.50810 0.28151 0.64940
 C917 C 0.46900 0.61991 0.79729
 N918 N 0.48290 0.62449 0.81871
 N919 N 0.48927 0.64752 0.82721
 C920 C 0.48195 0.66667 0.81454
 N921 N 0.46817 0.66209 0.79305
 N922 N 0.46180 0.63906 0.78455
 C923 C 0.45978 0.59532 0.78961
 C924 C 0.45090 0.57490 0.78381
 C925 C 0.48628 0.69133 0.82515
 C926 C 0.48869 0.71182 0.83483
 C927 C -0.03116 0.11999 0.29670
 N928 N -0.03846 0.13923 0.28418
 N929 N -0.03202 0.16221 0.29279
 C930 C -0.01806 0.16664 0.31419
 N931 N -0.01064 0.14739 0.32665
 N932 N -0.01708 0.12442 0.31803
 C933 C -0.04045 0.09544 0.28894
 C934 C -0.04939 0.07506 0.28310
 C935 C -0.01366 0.19124 0.32496
 C936 C -0.01117 0.21167 0.33477
 C937 C 0.06090 0.36566 0.28055
 N938 N 0.07495 0.35056 0.29334
 N939 N 0.06459 0.33148 0.30382
 C940 C 0.03986 0.32689 0.30179
 N941 N 0.02583 0.34192 0.28889
 N942 N 0.03618 0.36100 0.27841
 C943 C 0.07188 0.38759 0.27156
 C944 C 0.08146 0.40644 0.26526
 C945 C 0.02847 0.30822 0.31545
 C946 C 0.01842 0.29370 0.32790
 C947 C 0.56134 0.86595 0.78105
 N948 N 0.57527 0.85079 0.79389
 N949 N 0.56479 0.83170 0.80426
 C950 C 0.54006 0.82715 0.80205
 N951 N 0.52615 0.84224 0.78909
 N952 N 0.53662 0.86134 0.77874
 C953 C 0.57244 0.88789 0.77217
 C954 C 0.58209 0.90673 0.76595
 C955 C 0.52853 0.80846 0.81558
 C956 C 0.51836 0.79393 0.82793
 C957 C 0.68288 0.56031 0.12009
 N958 N 0.65964 0.54983 0.11838
 N959 N 0.64936 0.54222 0.13833
 C960 C 0.66200 0.54484 0.16060
 N961 N 0.68528 0.55523 0.16230
 N962 N 0.69555 0.56283 0.14235
 C963 C 0.69303 0.57078 0.09916
 C964 C 0.70128 0.58070 0.08203
 C965 C 0.65003 0.53908 0.18240
 C966 C 0.63942 0.53543 0.20069
 C967 C 0.18286 1.05898 0.62142
 N968 N 0.15963 1.04848 0.61981
 N969 N 0.14939 1.04102 0.63983
 C970 C 0.16206 1.04381 0.66209
 N971 N 0.18533 1.05421 0.66369
 N972 N 0.19557 1.06168 0.64366
 C973 C 0.19299 1.06926 0.60038
 C974 C 0.20122 1.07902 0.58316
 C975 C 0.15013 1.03817 0.68395
 C976 C 0.13957 1.03461 0.70228
 C977 C 0.19977 0.96577 0.85370
 N978 N 0.18905 0.95183 0.83408
 N979 N 0.17758 0.96232 0.81559
 C980 C 0.17654 0.98706 0.81615
 N981 N 0.18734 1.00100 0.83573
 N982 N 0.19880 0.99052 0.85421
 C983 C 0.21061 0.95433 0.87431
 C984 C 0.21905 0.94443 0.89178
 C985 C 0.16231 0.99818 0.79740
 C986 C 0.14941 1.00757 0.78244
 C987 C 0.69966 0.46646 0.35201
 N988 N 0.68873 0.45249 0.33251
 N989 N 0.67725 0.46296 0.31402
 C990 C 0.67640 0.48773 0.31445
 N991 N 0.68741 0.50170 0.33391
 N992 N 0.69889 0.49123 0.35240
 C993 C 0.71052 0.45505 0.37264
 C994 C 0.71897 0.44520 0.39012
 C995 C 0.66216 0.49885 0.29572
 C996 C 0.64925 0.50824 0.28077
 C997 C 0.79655 0.46901 0.61989
 N998 N 0.81788 0.48302 0.62451
 N999 N 0.82634 0.48937 0.64758
 C1000 C 0.81374 0.48192 0.66673
 N1001 N 0.79235 0.46802 0.66211
 N1002 N 0.78388 0.46167 0.63904
 C1003 C 0.78894 0.45981 0.59526
 C1004 C 0.78321 0.45095 0.57479
 C1005 C 0.82435 0.48622 0.69143
 C1006 C 0.83404 0.48860 0.71195
 C1007 C 0.29683 -0.03080 0.11943
 N1008 N 0.31822 -0.01689 0.12394
 N1009 N 0.32683 -0.01057 0.14697
 C1010 C 0.31431 -0.01797 0.16620
 N1011 N 0.29285 -0.03178 0.16168
 N1012 N 0.28424 -0.03809 0.13865
 C1013 C 0.28906 -0.03998 0.09482
 C1014 C 0.28321 -0.04881 0.07438
 C1015 C 0.32505 -0.01371 0.19085
 C1016 C 0.33485 -0.01135 0.21132
 C1017 C 0.28083 0.06009 0.36577
 N1018 N 0.27883 0.03537 0.36113
 N1019 N 0.28928 0.02508 0.34200
 C1020 C 0.30202 0.03917 0.32690
 N1021 N 0.30393 0.06389 0.33147
 N1022 N 0.29347 0.07419 0.35060
 C1023 C 0.27186 0.07102 0.38774
 C1024 C 0.26557 0.08057 0.40661
 C1025 C 0.31564 0.02785 0.30815
 C1026 C 0.32805 0.01784 0.29358
 C1027 C 0.77980 0.56017 0.86636
 N1028 N 0.77778 0.53545 0.86176
 N1029 N 0.78822 0.52513 0.84263
 C1030 C 0.80097 0.53919 0.82751
 N1031 N 0.80289 0.56392 0.83205
 N1032 N 0.79244 0.57425 0.85118
 C1033 C 0.77086 0.57113 0.88834
 C1034 C 0.76460 0.58071 0.90722
 C1035 C 0.81458 0.52785 0.80878
 C1036 C 0.82700 0.51783 0.79421
 C1037 C 0.12051 0.68304 0.55980
 N1038 N 0.11895 0.65982 0.54930
 N1039 N 0.13896 0.64967 0.54176
 C1040 C 0.16115 0.66242 0.54447
 N1041 N 0.16269 0.68568 0.55487
 N1042 N 0.14267 0.69583 0.56241
 C1043 C 0.09948 0.69308 0.57016
 C1044 C 0.08227 0.70123 0.57997
 C1045 C 0.18302 0.65059 0.53876
 C1046 C 0.20136 0.64009 0.53514
 C1047 C 0.62168 0.18282 1.05927
 N1048 N 0.62009 0.15962 1.04872
 N1049 N 0.64010 0.14943 1.04120
 C1050 C 0.66231 0.16213 1.04399
 N1051 N 0.66388 0.18537 1.05445
 N1052 N 0.64387 0.19556 1.06196
 C1053 C 0.60065 0.19289 1.06960
 C1054 C 0.58344 0.20107 1.07939
 C1055 C 0.68417 0.15025 1.03832
 C1056 C 0.70249 0.13971 1.03474
 C1057 C 0.85373 0.19969 0.96558
 N1058 N 0.85419 0.19889 0.99038
 N1059 N 0.83572 0.18745 1.00089
 C1060 C 0.81622 0.17653 0.98693
 N1061 N 0.81573 0.17741 0.96214
 N1062 N 0.83419 0.18884 0.95163
 C1063 C 0.87433 0.21051 0.95413
 C1064 C 0.89178 0.21894 0.94423
 C1065 C 0.79749 0.16235 0.99809
 C1066 C 0.78254 0.14949 1.00754
 C1067 C 0.35233 0.70034 0.46559
 N1068 N 0.33288 0.68927 0.45168
 N1069 N 0.31445 0.67785 0.46225
 C1070 C 0.31488 0.67721 0.48707
 N1071 N 0.33430 0.68836 0.50098
 N1072 N 0.35273 0.69978 0.49041
 C1073 C 0.37291 0.71113 0.45409
 C1074 C 0.39035 0.71952 0.44417
 C1075 C 0.29622 0.66302 0.49831
 C1076 C 0.28133 0.65015 0.50781
 C1077 C 0.61949 0.79735 0.46837
 N1078 N 0.63871 0.78467 0.46129
 N1079 N 0.66170 0.79322 0.46780
 C1080 C 0.66617 0.81469 0.48159
 N1081 N 0.64695 0.82729 0.48878
 N1082 N 0.62396 0.81875 0.48227
 C1083 C 0.59494 0.78964 0.45900
 C1084 C 0.57456 0.78383 0.45001
 C1085 C 0.69081 0.82536 0.48604
 C1086 C 0.71127 0.83511 0.48853
 C1087 C 0.11935 0.29636 -0.03079
 N1088 N 0.13847 0.28364 -0.03805
 N1089 N 0.16152 0.29211 -0.03173
 C1090 C 0.16616 0.31357 -0.01794
 N1091 N 0.14704 0.32622 -0.01056
 N1092 N 0.12399 0.31774 -0.01688
 C1093 C 0.09473 0.28871 -0.03995
 C1094 C 0.07428 0.28295 -0.04879
 C1095 C 0.19085 0.32415 -0.01367
 C1096 C 0.21134 0.33383 -0.01129
 C1097 C 0.36588 0.27975 0.06036
 N1098 N 0.36119 0.27765 0.03562
 N1099 N 0.34202 0.28802 0.02529
 C1100 C 0.32693 0.30077 0.03937
 N1101 N 0.33155 0.30276 0.06412
 N1102 N 0.35072 0.29239 0.07446
 C1103 C 0.38789 0.27089 0.07132
 C1104 C 0.40679 0.26469 0.08088
 C1105 C 0.30816 0.31433 0.02801
 C1106 C 0.29358 0.32672 0.01797
 C1107 C 0.86526 0.78069 0.56066
 N1108 N 0.85008 0.79337 0.57470
 N1109 N 0.83102 0.80385 0.56429
 C1110 C 0.82653 0.80192 0.53953
 N1111 N 0.84163 0.78913 0.52550
 N1112 N 0.86070 0.77866 0.53590
 C1113 C 0.88717 0.77171 0.57170
 C1114 C 0.90600 0.76540 0.58134
 C1115 C 0.80786 0.81556 0.52810
 C1116 C 0.79335 0.82800 0.51802
   
