data_POSCAR
  _audit_creation_date              2014-09-24
  _audit_creation_method            'ToBaCCo'
  _symmetry_space_group_name_H-M    'P1'
  _symmetry_Int_Tables_number       1
  _symmetry_cell_setting            triclinic
  loop_
  _symmetry_equiv_pos_as_xyz
 x,y,z
_cell_length_a 34.9613
_cell_length_b 35.6589
_cell_length_c 35.2503
_cell_angle_alpha 89.549700
_cell_angle_beta 91.311700
_cell_angle_gamma 89.319700
loop_
  _atom_site_label
  _atom_site_type_symbol
  _atom_site_fract_x
  _atom_site_fract_y
  _atom_site_fract_z
C1 C 0.24100 0.51289 1.01506
 C2 C 0.73596 0.51015 0.00084
 C3 C 0.01145 0.24509 0.50550
 C4 C 1.01682 0.73779 0.51148
 C5 C 0.50637 -0.00176 0.24259
 C6 C 0.51623 0.02107 0.74284
 C7 C 0.31168 0.02837 0.44953
 H8 H 0.31015 0.04770 0.47297
 C9 C 0.33735 0.03476 0.42052
 H10 H 0.35554 0.05906 0.42214
 C11 C 0.29170 -0.02825 0.42095
 H12 H 0.27470 -0.05332 0.42181
 C13 C 0.31723 -0.02309 0.39145
 H14 H 0.31909 -0.04403 0.36946
 N15 N 0.28935 -0.00258 0.44918
 C16 C 0.19949 0.02568 0.52826
 H17 H 0.20135 0.00120 0.54656
 C18 C 0.17256 0.05382 0.53517
 H19 H 0.15339 0.05031 0.55857
 C20 C 0.22135 0.05869 0.47449
 H21 H 0.24002 0.06022 0.45056
 C22 C 0.19475 0.08747 0.48030
 H23 H 0.19356 0.11116 0.46088
 Zn24 Zn 0.25927 -0.01067 0.49243
 N25 N 0.22362 0.02886 0.49874
 C26 C 0.29194 0.01206 0.56329
 N27 N 0.29406 -0.01274 0.53422
 C28 C 0.32442 -0.03660 0.53120
 C29 C 0.35517 -0.03485 0.55701
 C30 C 0.32182 0.01428 0.59016
 C31 C 0.20579 -0.05761 0.45824
 C32 C 0.18133 -0.08809 0.45501
 C33 C 0.20833 -0.11294 0.51385
 C34 C 0.23285 -0.08225 0.51559
 N35 N 0.23095 -0.05529 0.48808
 H36 H 0.26807 0.03141 0.56478
 H37 H 0.32555 -0.05569 0.50754
 H38 H 0.37968 -0.05325 0.55350
 H39 H 0.32042 0.03504 0.61236
 H40 H 0.20421 -0.03524 0.43732
 H41 H 0.16088 -0.08891 0.43150
 H42 H 0.20949 -0.13381 0.53635
 H43 H 0.25246 -0.07935 0.53952
 C44 C 0.17021 0.08550 0.51124
 C45 C 0.34049 0.00875 0.39099
 C46 C 0.18214 -0.11606 0.48327
 C47 C 0.35445 -0.00847 0.58635
 C48 C 0.70734 0.02203 0.54225
 H49 H 0.70220 0.04074 0.51832
 C50 C 0.68315 0.02316 0.57321
 H51 H 0.65945 0.04301 0.57269
 C52 C 0.74352 -0.02760 0.57080
 H53 H 0.76666 -0.04783 0.56953
 C54 C 0.72027 -0.02721 0.60248
 H55 H 0.72692 -0.04660 0.62547
 N56 N 0.73658 -0.00335 0.54140
 C57 C 0.82141 0.03428 0.46204
 H58 H 0.82122 0.01058 0.44306
 C59 C 0.84999 0.06100 0.45945
 H60 H 0.87139 0.05808 0.43791
 C61 C 0.79492 0.06557 0.51461
 H62 H 0.77426 0.06638 0.53693
 C63 C 0.82285 0.09329 0.51272
 H64 H 0.82336 0.11546 0.53354
 Zn65 Zn 0.76504 -0.00662 0.49645
 N66 N 0.79525 0.03645 0.48988
 C67 C 0.72790 0.01393 0.42649
 N68 N 0.72959 -0.01168 0.45536
 C69 C 0.70301 -0.03899 0.45815
 C70 C 0.67237 -0.04045 0.43210
 C71 C 0.69788 0.01328 0.39957
 C72 C 0.82976 -0.04194 0.52530
 C73 C 0.85962 -0.06799 0.52858
 C74 C 0.82764 -0.10599 0.48140
 C75 C 0.79834 -0.07881 0.47870
 N76 N 0.80013 -0.04744 0.50041
 H77 H 0.74892 0.03583 0.42512
 H78 H 0.70479 -0.05875 0.48159
 H79 H 0.65121 -0.06209 0.43525
 H80 H 0.69629 0.03456 0.37748
 H81 H 0.83052 -0.01668 0.54210
 H82 H 0.88303 -0.06278 0.54841
 H83 H 0.82642 -0.13051 0.46350
 H84 H 0.77472 -0.08240 0.45878
 C85 C 0.85161 0.09031 0.48575
 C86 C 0.68892 -0.00216 0.60368
 C87 C 0.85919 -0.10019 0.50598
 C88 C 0.66899 -0.01345 0.40288
 C89 C 0.46887 0.19924 1.04980
 H90 H 0.44603 0.19605 1.02889
 C91 C 0.47293 0.17354 1.07987
 H92 H 0.45276 0.15083 1.08172
 C93 C 0.52375 0.23169 1.07131
 H94 H 0.54400 0.25396 1.06762
 C95 C 0.52859 0.20699 1.10204
 H96 H 0.55203 0.21185 1.12179
 N97 N 0.49449 0.22726 1.04571
 C98 C 0.45167 0.31998 0.97502
 H99 H 0.47408 0.31968 0.95436
 C100 C 0.42571 0.34987 0.97552
 H101 H 0.42801 0.37231 0.95484
 C102 C 0.42254 0.29173 1.02799
 H103 H 0.42219 0.26944 1.04896
 C104 C 0.39542 0.32099 1.02913
 H105 H 0.37415 0.32109 1.05099
 Zn106 Zn 0.49186 0.25763 1.00112
 N107 N 0.45016 0.29205 1.00138
 C108 C 0.46112 0.23231 0.93043
 N109 N 0.48803 0.22598 0.95831
 C110 C 0.51334 0.19692 0.95626
 C111 C 0.51269 0.17321 0.92496
 C112 C 0.45954 0.20937 0.89846
 C113 C 0.53941 0.31630 1.02227
 C114 C 0.56958 0.34131 1.01967
 C115 C 0.59398 0.30527 0.96760
 C116 C 0.56305 0.28107 0.97104
 N117 N 0.53651 0.28702 0.99802
 H118 H 0.44110 0.25544 0.93265
 H119 H 0.53430 0.19236 0.97894
 H120 H 0.53321 0.15027 0.92409
 H121 H 0.43858 0.21586 0.87630
 H122 H 0.51766 0.32067 1.04318
 H123 H 0.57057 0.36477 1.03896
 H124 H 0.61466 0.29935 0.94611
 H125 H 0.56009 0.25787 0.95173
 C126 C 0.39764 0.35100 1.00328
 C127 C 0.50365 0.17659 1.10621
 C128 C 0.59727 0.33647 0.99170
 C129 C 0.48557 0.17920 0.89536
 C130 C 0.45921 0.82632 -0.05600
 H131 H 0.43867 0.82642 -0.03351
 C132 C 0.46115 0.85692 -0.08065
 H133 H 0.44152 0.88034 -0.07743
 C134 C 0.51109 0.79638 -0.08625
 H135 H 0.53133 0.77331 -0.08740
 C136 C 0.51363 0.82625 -0.11197
 H137 H 0.53571 0.82589 -0.13303
 N138 N 0.48456 0.79734 -0.05862
 C139 C 0.44132 0.70473 0.00760
 H140 H 0.46478 0.70220 0.02804
 C141 C 0.41182 0.67888 0.00795
 H142 H 0.41296 0.65657 0.02897
 C143 C 0.41265 0.73642 -0.04530
 H144 H 0.41350 0.75871 -0.06622
 C145 C 0.38232 0.71113 -0.04593
 H146 H 0.35963 0.71502 -0.06698
 Zn147 Zn 0.48540 0.76265 -0.01813
 N148 N 0.44137 0.73261 -0.01883
 C149 C 0.45655 0.79174 0.04983
 N150 N 0.48736 0.79112 0.02694
 C151 C 0.51747 0.81429 0.03311
 C152 C 0.51732 0.83938 0.06334
 C153 C 0.45486 0.81696 0.07983
 C154 C 0.52407 0.70307 -0.04932
 C155 C 0.55026 0.67342 -0.05097
 C156 C 0.58456 0.69949 0.00280
 C157 C 0.55711 0.72825 0.00402
 N158 N 0.52742 0.72925 -0.02164
 H159 H 0.43242 0.77391 0.04387
 H160 H 0.54101 0.81419 0.01372
 H161 H 0.54110 0.85824 0.06746
 H162 H 0.42974 0.81778 0.09724
 H163 H 0.49992 0.70433 -0.06904
 H164 H 0.54637 0.65187 -0.07216
 H165 H 0.60738 0.69814 0.02408
 H166 H 0.55880 0.74875 0.02635
 C167 C 0.38193 0.68144 -0.01933
 C168 C 0.48930 0.85750 -0.10838
 C169 C 0.58049 0.67116 -0.02427
 C170 C 0.48529 0.84149 0.08647
 C171 C 1.05992 0.46796 0.23520
 H172 H 1.05534 0.44630 0.25616
 C173 C 1.09127 0.46521 0.21139
 H174 H 1.11104 0.44184 0.21509
 C175 C 1.03923 0.52423 0.20451
 H176 H 1.01825 0.54666 0.20150
 C177 C 1.07017 0.52269 0.18029
 H178 H 1.07278 0.54426 0.15875
 N179 N 1.03454 0.49700 0.23110
 C180 C 0.95859 0.43057 0.28642
 H181 H 0.93856 0.43254 0.26270
 C182 C 0.95624 0.40056 0.31189
 H183 H 0.93496 0.37943 0.30647
 C184 C 1.01089 0.45557 0.32139
 H185 H 1.03195 0.47733 0.32489
 C186 C 1.00939 0.42626 0.34770
 H187 H 1.02959 0.42580 0.37146
 Zn188 Zn 0.98855 0.49866 0.25823
 N189 N 0.98577 0.45715 0.29145
 C190 C 0.95185 0.46880 0.19570
 N191 N 0.94835 0.49646 0.22169
 C192 C 0.91816 0.52085 0.22033
 C193 C 0.88932 0.51706 0.19257
 C194 C 0.92405 0.46429 0.16724
 C195 C 1.01630 0.56575 0.29072
 C196 C 1.01590 0.59593 0.31572
 C197 C 0.95239 0.57835 0.33412
 C198 C 0.95428 0.54810 0.30928
 N199 N 0.98579 0.54251 0.28802
 H200 H 0.97655 0.45023 0.19706
 H201 H 0.91630 0.54324 0.24066
 H202 H 0.86535 0.53658 0.19222
 H203 H 0.92861 0.44261 0.14656
 H204 H 1.04156 0.56020 0.27450
 H205 H 1.04073 0.61370 0.31816
 H206 H 0.92745 0.58178 0.35147
 H207 H 0.93097 0.52846 0.30761
 C208 C 0.98168 0.39823 0.34334
 C209 C 1.09629 0.49249 0.18296
 C210 C 0.98367 0.60249 0.33781
 C211 C 0.89180 0.48828 0.16559
 C212 C -0.04655 0.45908 0.82028
 H213 H -0.02303 0.43907 0.82081
 C214 C -0.07287 0.45897 0.84938
 H215 H -0.06971 0.43850 0.87213
 C216 C -0.07842 0.51088 0.79053
 H217 H -0.07984 0.53177 0.76819
 C218 C -0.10585 0.51134 0.81879
 H219 H -0.12833 0.53252 0.81790
 N220 N -0.04940 0.48508 0.79192
 C221 C 0.01693 0.43911 0.69983
 H222 H 0.03865 0.46030 0.69737
 C223 C 0.01637 0.40884 0.67500
 H224 H 0.03780 0.40698 0.65338
 C225 C -0.03815 0.41670 0.73028
 H226 H -0.05956 0.42011 0.75164
 C227 C -0.04001 0.38612 0.70578
 H228 H -0.06257 0.36592 0.70904
 Zn229 Zn -0.00854 0.48550 0.75768
 N230 N -0.00999 0.44243 0.72684
 C231 C 0.06446 0.45887 0.78544
 N232 N 0.03704 0.48607 0.78783
 C233 C 0.03964 0.51337 0.81438
 C234 C 0.07035 0.51370 0.84034
 C235 C 0.09592 0.45830 0.81067
 C236 C -0.04227 0.53144 0.70095
 C237 C -0.04501 0.56135 0.67516
 C238 C 0.01602 0.58328 0.69895
 C239 C 0.01738 0.55318 0.72458
 N240 N -0.01159 0.52807 0.72520
 H241 H 0.06168 0.43706 0.76452
 H242 H 0.01718 0.53439 0.81599
 H243 H 0.07109 0.53536 0.86168
 H244 H 0.11727 0.43647 0.80762
 H245 H -0.06443 0.51053 0.70135
 H246 H -0.06932 0.56300 0.65563
 H247 H 0.03950 0.60281 0.69862
 H248 H 0.04197 0.54954 0.74342
 C249 C -0.01267 0.38212 0.67744
 C250 C -0.10261 0.48573 0.84912
 C251 C -0.01553 0.58774 0.67388
 C252 C 0.09887 0.48557 0.83927
 C253 C 0.08733 0.17146 0.52698
 C254 C 0.10120 0.16356 0.49090
 N255 N 0.08701 0.18275 0.46028
 C256 C 0.05960 0.20969 0.46405
 C257 C 0.04585 0.21842 0.50039
 N258 N 0.05986 0.19824 0.53083
 N259 N 0.10109 0.15176 0.55753
 C260 C 0.12794 0.12424 0.55358
 C261 C 0.14161 0.11579 0.51727
 N262 N 0.12789 0.13607 0.48689
 H263 H 0.04805 0.22342 0.43876
 H264 H 0.13867 0.10953 0.57863
 C265 C 0.65003 0.57414 -0.01308
 C266 C 0.66675 0.60946 -0.01711
 N267 N 0.70548 0.61210 -0.01699
 C268 C 0.72820 0.58106 -0.01227
 C269 C 0.71154 0.54575 -0.00592
 N270 N 0.67264 0.54348 -0.00739
 N271 N 0.61143 0.57103 -0.01442
 C272 C 0.58861 0.60182 -0.01922
 C273 C 0.60511 0.63745 -0.02207
 N274 N 0.64395 0.64047 -0.02096
 H275 H 0.75899 0.58391 -0.01240
 H276 H 0.55784 0.59868 -0.01970
 C277 C 0.95467 -0.17445 0.51016
 C278 C 0.91751 -0.18855 0.50753
 N279 N 0.91249 -0.22624 0.50691
 C280 C 0.94295 -0.25045 0.50869
 C281 C 0.98070 -0.23651 0.51095
 N282 N 0.98492 -0.19850 0.51161
 N283 N 0.96010 -0.13691 0.51104
 C284 C 0.92990 -0.11264 0.50964
 C285 C 0.89237 -0.12644 0.50709
 N286 N 0.88712 -0.16430 0.50582
 H287 H 0.93768 -0.28025 0.50779
 H288 H 0.93523 -0.08281 0.51002
 C289 C 0.32719 0.44789 1.01040
 C290 C 0.31112 0.41217 1.01260
 N291 N 0.27262 0.40911 1.01552
 C292 C 0.24951 0.44014 1.01656
 C293 C 0.26553 0.47639 1.01507
 N294 N 0.30426 0.47868 1.01172
 N295 N 0.36545 0.45137 1.00643
 C296 C 0.38851 0.42062 1.00432
 C297 C 0.37270 0.38458 1.00644
 N298 N 0.33420 0.38122 1.01083
 H299 H 0.21891 0.43647 1.01782
 H300 H 0.41898 0.42427 1.00127
 C301 C 0.94799 0.16067 0.49302
 C302 C 0.91110 0.17577 0.49651
 N303 N 0.90669 0.21317 0.50219
 C304 C 0.93754 0.23610 0.50486
 C305 C 0.97501 0.22096 0.50237
 N306 N 0.97861 0.18334 0.49624
 N307 N 0.95276 0.12353 0.48651
 C308 C 0.92217 0.10062 0.48334
 C309 C 0.88497 0.11539 0.48724
 N310 N 0.88036 0.15280 0.49395
 H311 H 0.93274 0.26583 0.50859
 H312 H 0.92695 0.07098 0.47874
 C313 C 0.29835 0.59585 -0.01852
 C314 C 0.32074 0.60370 0.01383
 N315 N 0.31699 0.58275 0.04573
 C316 C 0.29168 0.55421 0.04683
 C317 C 0.26867 0.54615 0.01455
 N318 N 0.27305 0.56727 -0.01753
 N319 N 0.30278 0.61651 -0.05060
 C320 C 0.32869 0.64468 -0.05183
 C321 C 0.35145 0.65264 -0.01938
 N322 N 0.34659 0.63165 0.01260
 H323 H 0.28963 0.53766 0.07256
 H324 H 0.33201 0.65977 -0.07822
 C325 C 0.09794 -0.20052 0.48081
 C326 C 0.10978 -0.18426 0.51514
 N327 N 0.09231 -0.19394 0.54768
 C328 C 0.06355 -0.21926 0.54752
 C329 C 0.05184 -0.23637 0.51322
 N330 N 0.06929 -0.22588 0.48061
 N331 N 0.11457 -0.18993 0.44807
 C332 C 0.14228 -0.16348 0.44803
 C333 C 0.15400 -0.14676 0.48237
 N334 N 0.13751 -0.15792 0.51517
 H335 H 0.04947 -0.22554 0.57380
 H336 H 0.15499 -0.15558 0.42148
 C337 C 0.68156 0.42093 0.98134
 C338 C 0.65880 0.41840 1.01340
 N339 N 0.66202 0.44443 1.04104
 C340 C 0.68685 0.47320 1.03794
 C341 C 0.70969 0.47637 1.00556
 N342 N 0.70646 0.44969 0.97811
 N343 N 0.67747 0.39527 0.95336
 C344 C 0.65145 0.36729 0.95586
 C345 C 0.62816 0.36473 0.98799
 N346 N 0.63289 0.39061 1.01591
 H347 H 0.68833 0.49390 1.06019
 H348 H 0.64863 0.34819 0.93240
 C349 C 0.52097 0.08951 1.18871
 C350 C 0.48625 0.09357 1.16844
 N351 N 0.45823 0.06826 1.17361
 C352 C 0.46358 0.03863 1.19768
 C353 C 0.49886 0.03356 1.21772
 N354 N 0.52641 0.05987 1.21281
 N355 N 0.54927 0.11442 1.18280
 C356 C 0.54457 0.14312 1.15736
 C357 C 0.50972 0.14730 1.13650
 N358 N 0.48148 0.12213 1.14300
 H359 H 0.44053 0.01898 1.20092
 H360 H 0.56842 0.16144 1.15299
 C361 C -0.01645 0.67376 0.59002
 C362 C 0.01792 0.65710 0.60305
 N363 N 0.05131 0.66750 0.58756
 C364 C 0.05194 0.69361 0.55932
 C365 C 0.01747 0.71064 0.54572
 N366 N -0.01586 0.69994 0.56185
 N367 N -0.04997 0.66280 0.60506
 C368 C -0.05068 0.63562 0.63235
 C369 C -0.01622 0.61848 0.64527
 N370 N 0.01729 0.63007 0.63033
 H371 H 0.07920 0.70088 0.54762
 H372 H -0.07784 0.62771 0.64392
 C373 C 0.50614 0.95541 -0.17388
 C374 C 0.50723 0.92003 -0.19089
 N375 N 0.51244 0.91760 -0.22885
 C376 C 0.51657 0.94899 -0.25056
 C377 C 0.51605 0.98472 -0.23353
 N378 N 0.51054 0.98654 -0.19541
 N379 N 0.49960 0.95824 -0.13626
 C380 C 0.49389 0.92718 -0.11475
 C381 C 0.49494 0.89154 -0.13155
 N382 N 0.50194 0.88882 -0.16934
 H383 H 0.51936 0.94620 -0.28092
 H384 H 0.48909 0.93027 -0.08471
 C385 C 0.97979 0.31007 0.42505
 C386 C 1.01220 0.33225 0.42068
 N387 N 1.04359 0.32595 0.44311
 C388 C 1.04402 0.29855 0.47005
 C389 C 1.01147 0.27604 0.47498
 N390 N 0.98020 0.28251 0.45184
 N391 N 0.94824 0.31683 0.40281
 C392 C 0.94769 0.34473 0.37623
 C393 C 0.98040 0.36698 0.37146
 N394 N 1.01176 0.35992 0.39414
 H395 H 1.06981 0.29403 0.48696
 H396 H 0.92166 0.34970 0.35978
 C397 C 0.47959 0.92816 0.16732
 C398 C 0.51261 0.90586 0.16463
 N399 N 0.54301 0.91241 0.18810
 C400 C 0.54223 0.94073 0.21371
 C401 C 0.50966 0.96465 0.21549
 N402 N 0.47905 0.95686 0.19227
 N403 N 0.44865 0.92104 0.14471
 C404 C 0.44939 0.89265 0.11923
 C405 C 0.48283 0.87072 0.11574
 N406 N 0.51374 0.87796 0.13866
 H407 H 0.56687 0.94388 0.23229
 H408 H 0.42451 0.88794 0.10113
 C409 C -0.01770 0.29973 0.59164
 C410 C 0.01748 0.31249 0.60582
 N411 N 0.05029 0.30049 0.58989
 C412 C 0.04952 0.27694 0.55977
 C413 C 0.01410 0.26495 0.54412
 N414 N -0.01852 0.27680 0.56113
 N415 N -0.05060 0.31226 0.60713
 C416 C -0.04992 0.33747 0.63589
 C417 C -0.01465 0.35137 0.64943
 N418 N 0.01822 0.33815 0.63403
 H419 H 0.07637 0.26892 0.54740
 H420 H -0.07673 0.34770 0.64678
 C421 C 0.48584 0.10358 0.80260
 C422 C 0.51840 0.10836 0.82590
 N423 N 0.55007 0.08704 0.82030
 C424 C 0.55045 0.06055 0.79288
 C425 C 0.51747 0.05465 0.76990
 N426 N 0.48608 0.07697 0.77521
 N427 N 0.45384 0.12427 0.80911
 C428 C 0.45283 0.14934 0.83802
 C429 C 0.48539 0.15394 0.86189
 N430 N 0.51738 0.13319 0.85477
 H431 H 0.57581 0.04322 0.78984
 H432 H 0.42643 0.16443 0.84281
 C433 C 0.98514 0.68459 0.42394
 C434 C 1.01822 0.66408 0.41544
 N435 N 1.05059 0.66888 0.43663
 C436 C 1.05128 0.69287 0.46640
 C437 C 1.01798 0.71340 0.47567
 N438 N 0.98585 0.70868 0.45355
 N439 N 0.95240 0.67898 0.40341
 C440 C 0.95115 0.65337 0.37502
 C441 C 0.98421 0.63236 0.36668
 N442 N 1.01708 0.63865 0.38703
 H443 H 1.07759 0.69569 0.48271
 H444 H 0.92464 0.64941 0.35919
 C445 C 1.18013 0.48516 0.09813
 C446 C 1.16608 0.51991 0.11012
 N447 N 1.17771 0.55173 0.09290
 C448 C 1.20236 0.55042 0.06373
 C449 C 1.21613 0.51547 0.05056
 N450 N 1.20452 0.48376 0.06871
 N451 N 1.16806 0.45329 0.11516
 C452 C 1.14221 0.45462 0.14344
 C453 C 1.12736 0.48952 0.15508
 N454 N 1.14003 0.52129 0.13798
 H455 H 1.21082 0.57655 0.05086
 H456 H 1.13241 0.42859 0.15553
 C457 C 0.60557 -0.00455 0.68964
 C458 C 0.61002 0.02723 0.66661
 N459 N 0.58581 0.05692 0.67003
 C460 C 0.55682 0.05600 0.69502
 C461 C 0.55132 0.02369 0.71754
 N462 N 0.57651 -0.00560 0.71452
 N463 N 0.62922 -0.03457 0.68544
 C464 C 0.65697 -0.03445 0.65900
 C465 C 0.66132 -0.00275 0.63530
 N466 N 0.63755 0.02735 0.64011
 H467 H 0.53745 0.07982 0.69661
 H468 H 0.67424 -0.05949 0.65588
 C469 C -0.17609 0.49562 0.94217
 C470 C -0.19094 0.49782 0.90496
 N471 N -0.22916 0.50316 0.89910
 C472 C -0.25316 0.50654 0.92883
 C473 C -0.23830 0.50503 0.96642
 N474 N -0.19986 0.49961 0.97165
 N475 N -0.13810 0.48963 0.94837
 C476 C -0.11409 0.48573 0.91891
 C477 C -0.12862 0.48839 0.88144
 N478 N -0.16687 0.49456 0.87536
 H479 H -0.28349 0.51077 0.92329
 H480 H -0.08382 0.48143 0.92473
 C481 C 0.42602 0.02090 0.30852
 C482 C 0.41397 -0.01469 0.31993
 N483 N 0.43113 -0.04569 0.30571
 C484 C 0.45978 -0.04277 0.28045
 C485 C 0.47187 -0.00699 0.26838
 N486 N 0.45469 0.02390 0.28345
 N487 N 0.40928 0.05193 0.32314
 C488 C 0.38124 0.04901 0.34907
 C489 C 0.36944 0.01332 0.36122
 N490 N 0.38607 -0.01768 0.34591
 H491 H 0.47344 -0.06813 0.27058
 H492 H 0.36828 0.07434 0.35986
 C493 C 0.18462 0.48426 0.92705
 C494 C 0.16177 0.51607 0.91973
 N495 N 0.16559 0.54659 0.94207
 C496 C 0.19094 0.54660 0.97184
 C497 C 0.21383 0.51446 0.98005
 N498 N 0.21002 0.48419 0.95679
 N499 N 0.18014 0.45349 0.90507
 C500 C 0.15365 0.45300 0.87617
 C501 C 0.13025 0.48493 0.86875
 N502 N 0.13534 0.51566 0.89100
 H503 H 0.19320 0.57159 0.98875
 H504 H 0.15047 0.42749 0.86021
 C505 C 0.57065 -0.00828 0.33020
 C506 C 0.60663 0.00079 0.31642
 N507 N 0.60988 0.01026 0.27924
 C508 C 0.57877 0.01095 0.25520
 C509 C 0.54225 0.00177 0.26882
 N510 N 0.53974 -0.00753 0.30634
 N511 N 0.56721 -0.01865 0.36703
 C512 C 0.59829 -0.02068 0.39081
 C513 C 0.63471 -0.01192 0.37723
 N514 N 0.63784 -0.00100 0.34021
 H515 H 0.58287 0.01688 0.22545
 H516 H 0.59439 -0.02850 0.42017
 C517 C 0.80862 0.48174 0.07628
 C518 C 0.81095 0.51347 0.09923
 N519 N 0.78708 0.54306 0.09212
 C520 C 0.76179 0.54289 0.06223
 C521 C 0.76104 0.51199 0.03728
 N522 N 0.78397 0.48176 0.04610
 N523 N 0.83171 0.45172 0.08391
 C524 C 0.85785 0.45231 0.11301
 C525 C 0.86173 0.48489 0.13524
 N526 N 0.83745 0.51443 0.12791
 H527 H 0.74286 0.56678 0.05841
 H528 H 0.87510 0.42746 0.11839
 C529 C 0.45201 0.01007 0.65650
 C530 C 0.41545 0.00982 0.67196
 N531 N 0.41171 0.01458 0.70988
 C532 C 0.44292 0.01955 0.73305
 C533 C 0.47984 0.02047 0.71761
 N534 N 0.48297 0.01535 0.67948
 N535 N 0.45618 0.00391 0.61892
 C536 C 0.42533 -0.00260 0.59594
 C537 C 0.38847 -0.00275 0.61115
 N538 N 0.38444 0.00379 0.64894
 H539 H 0.43908 0.02169 0.76332
 H540 H 0.42950 -0.00694 0.56596
   
