data_POSCAR
  _audit_creation_date              2014-09-24
  _audit_creation_method            'ToBaCCo'
  _symmetry_space_group_name_H-M    'P1'
  _symmetry_Int_Tables_number       1
  _symmetry_cell_setting            triclinic
  loop_
  _symmetry_equiv_pos_as_xyz
 x,y,z
_cell_length_a 22.3897
_cell_length_b 23.2122
_cell_length_c 21.6527
_cell_angle_alpha 89.210700
_cell_angle_beta 90.432200
_cell_angle_gamma 89.376100
loop_
  _atom_site_label
  _atom_site_type_symbol
  _atom_site_fract_x
  _atom_site_fract_y
  _atom_site_fract_z
O1 O 0.53576 0.12680 -0.00717
 O2 O 0.45241 -0.04288 -0.12188
 O3 O 0.61157 0.02256 -0.08529
 O4 O 0.36704 0.05630 0.01874
 O5 O 0.56138 -0.05469 -0.11202
 O6 O 0.43638 0.11065 -0.00691
 O7 O 0.40873 0.03067 -0.08434
 O8 O 0.61809 0.08425 0.01006
 C9 C 0.59030 0.12843 -0.00488
 C10 C 0.41889 -0.00016 -0.12934
 C11 C 0.59771 -0.01424 -0.12462
 C12 C 0.38298 0.10569 0.00528
 O13 O 0.44452 0.05042 0.10467
 O14 O 0.54112 -0.11413 -0.00222
 O15 O 0.61104 -0.00506 0.07903
 O16 O 0.35466 -0.04833 -0.02452
 O17 O 0.43518 -0.10219 -0.01455
 O18 O 0.55280 0.06786 0.10487
 O19 O 0.41520 -0.03223 0.07055
 O20 O 0.62109 -0.06695 -0.01507
 Co21 Co 0.49325 0.08253 0.04509
 Co22 Co 0.49834 -0.07082 -0.05788
 Co23 Co 0.60464 0.00862 -0.00325
 Co24 Co 0.41630 -0.00203 -0.00791
 O25 O 0.50615 0.00751 -0.00539
 C26 C 0.41992 0.00242 0.11405
 C27 C 0.59611 -0.11239 -0.00066
 C28 C 0.59194 0.02934 0.11854
 C29 C 0.37908 -0.09919 -0.02436
 O30 O -0.13296 0.46418 -0.01580
 O31 O 0.04325 0.54691 0.12010
 O32 O -0.02266 0.40080 0.09182
 O33 O -0.05361 0.62745 -0.02667
 O34 O 0.06030 0.44374 0.11454
 O35 O -0.11439 0.56067 -0.01310
 O36 O -0.03455 0.58460 0.07808
 O37 O -0.08395 0.38549 -0.00257
 C38 C -0.13200 0.41193 -0.00643
 C39 C -0.00371 0.57592 0.12494
 C40 C 0.01630 0.41334 0.13024
 C41 C -0.10603 0.61268 -0.02052
 O42 O -0.04105 0.55366 -0.11478
 O43 O 0.11878 0.46246 0.00330
 O44 O 0.00833 0.38628 -0.07022
 O45 O 0.04983 0.63994 0.02508
 O46 O 0.10791 0.56454 0.01605
 O47 O -0.05996 0.44506 -0.11283
 O48 O 0.04032 0.58187 -0.07013
 O49 O 0.07252 0.38570 0.02490
 Co50 Co -0.07949 0.50532 -0.05919
 Co51 Co 0.07470 0.50315 0.05829
 Co52 Co -0.00597 0.39960 0.01063
 Co53 Co 0.00424 0.57931 0.00545
 O54 O -0.00557 0.49325 0.00265
 C55 C 0.00794 0.57998 -0.11722
 C56 C 0.11727 0.40930 0.00379
 C57 C -0.02417 0.40189 -0.11525
 C58 C 0.10333 0.61822 0.02641
 O59 O 0.00352 -0.12958 0.45744
 O60 O 0.11837 0.03871 0.54793
 O61 O 0.08164 -0.02229 0.38292
 O62 O -0.01632 -0.06290 0.63519
 O63 O 0.10775 0.05330 0.43662
 O64 O 0.00609 -0.11632 0.56179
 O65 O 0.08274 -0.03577 0.59202
 O66 O -0.01095 -0.08330 0.37367
 C67 C -0.00050 -0.12945 0.40100
 C68 C 0.12621 -0.00487 0.58116
 C69 C 0.12013 0.01337 0.39890
 C70 C -0.00389 -0.11208 0.61756
 O71 O -0.10086 -0.05471 0.55683
 O72 O 0.00051 0.11023 0.46087
 O73 O -0.07729 0.00567 0.38433
 O74 O 0.02580 0.04291 0.65084
 O75 O 0.01408 0.09651 0.56793
 O76 O -0.10295 -0.06824 0.44385
 O77 O -0.06705 0.02707 0.58899
 O78 O 0.01432 0.06879 0.37553
 Co79 Co -0.04464 -0.08573 0.50436
 Co80 Co 0.05574 0.06726 0.50225
 Co81 Co 0.00255 -0.00795 0.39042
 Co82 Co 0.00897 -0.00276 0.58606
 O83 O 0.00526 -0.01066 0.49262
 C84 C -0.10945 -0.00721 0.58319
 C85 C 0.00113 0.11293 0.40427
 C86 C -0.11583 -0.02894 0.40389
 C87 C 0.02497 0.09397 0.62549
 C88 C -0.37904 0.18171 -0.01072
 C89 C -0.35006 0.22490 -0.01194
 C90 C -0.31208 0.27256 -0.01035
 C91 C -0.27585 0.31019 -0.00780
 C92 C -0.22926 0.35003 -0.00494
 C93 C -0.18621 0.38037 -0.00408
 C94 C 0.34581 0.85546 -0.01857
 C95 C 0.31363 0.81467 -0.01171
 C96 C 0.27389 0.76872 -0.00243
 C97 C 0.23800 0.73117 0.00573
 C98 C 0.19359 0.68937 0.01476
 C99 C 0.15353 0.65567 0.02118
 C100 C 0.34273 0.15379 -0.00111
 C101 C 0.31179 0.19631 -0.00680
 C102 C 0.27682 0.24700 -0.01244
 C103 C 0.24583 0.28968 -0.01506
 C104 C 0.20627 0.33728 -0.01422
 C105 C 0.16818 0.37381 -0.00895
 C106 C -0.36785 0.83684 0.00719
 C107 C -0.33210 0.79781 0.00878
 C108 C -0.28609 0.75617 0.00596
 C109 C -0.24483 0.72302 0.00085
 C110 C -0.19561 0.68565 -0.00694
 C111 C -0.15392 0.65329 -0.01374
 C112 C -0.01408 -0.39160 0.17963
 C113 C -0.01669 -0.35865 0.22203
 C114 C -0.01459 -0.31532 0.26701
 C115 C -0.01040 -0.27542 0.30171
 C116 C -0.00468 -0.22615 0.33866
 C117 C -0.00110 -0.18255 0.36796
 C118 C -0.02063 0.36671 0.83098
 C119 C -0.01474 0.33051 0.79203
 C120 C -0.00572 0.28317 0.75275
 C121 C 0.00266 0.24040 0.72288
 C122 C 0.01223 0.18894 0.69010
 C123 C 0.01920 0.14501 0.66180
 C124 C 0.01560 0.38253 0.18795
 C125 C 0.01231 0.34987 0.23145
 C126 C 0.00679 0.30573 0.27635
 C127 C 0.00212 0.26441 0.31016
 C128 C -0.00187 0.21306 0.34539
 C129 C -0.00262 0.16769 0.37303
 C130 C 0.01766 -0.38447 0.83687
 C131 C 0.02154 -0.34641 0.79857
 C132 C 0.02073 -0.29775 0.75844
 C133 C 0.01692 -0.25465 0.72667
 C134 C 0.01013 -0.20365 0.69053
 C135 C 0.00358 -0.16087 0.65868
 C136 C 0.38803 0.00558 0.81955
 C137 C 0.35572 0.00508 0.77464
 C138 C 0.31386 -0.00033 0.72578
 C139 C 0.27511 -0.00615 0.68733
 C140 C 0.22626 -0.01161 0.64600
 C141 C 0.18178 -0.01221 0.61413
 C142 C -0.38063 0.02576 0.17873
 C143 C -0.35124 0.01852 0.22523
 C144 C -0.31070 0.00700 0.27445
 C145 C -0.27168 -0.00373 0.31180
 C146 C -0.22133 -0.01570 0.34997
 C147 C -0.17484 -0.02376 0.37756
 C148 C 0.38705 -0.00621 0.17021
 C149 C 0.35449 -0.00773 0.21445
 C150 C 0.31187 -0.00487 0.26240
 C151 C 0.27232 -0.00023 0.29976
 C152 C 0.22254 0.00611 0.33925
 C153 C 0.17728 0.01068 0.36895
 C154 C -0.37108 -0.01237 0.81760
 C155 C -0.33965 -0.00837 0.77268
 C156 C -0.29789 -0.00259 0.72427
 C157 C -0.25876 0.00159 0.68642
 C158 C -0.20936 0.00391 0.64606
 C159 C -0.16473 0.00192 0.61515
   
