data_POSCAR
  _audit_creation_date              2014-09-24
  _audit_creation_method            'ToBaCCo'
  _symmetry_space_group_name_H-M    'P1'
  _symmetry_Int_Tables_number       1
  _symmetry_cell_setting            triclinic
  loop_
  _symmetry_equiv_pos_as_xyz
 x,y,z
_cell_length_a 44.9590
_cell_length_b 42.8081
_cell_length_c 27.2703
_cell_angle_alpha 87.014800
_cell_angle_beta 88.562000
_cell_angle_gamma 89.720200
loop_
  _atom_site_label
  _atom_site_type_symbol
  _atom_site_fract_x
  _atom_site_fract_y
  _atom_site_fract_z
C1 C 1.26708 0.20114 0.27705
 C2 C 1.24514 0.22076 0.25555
 C3 C 1.21863 0.20752 0.24001
 C4 C 1.21319 0.17550 0.24746
 C5 C 1.23498 0.15638 0.26961
 C6 C 1.26198 0.16865 0.28558
 C7 C 1.24824 0.25544 0.25283
 C8 C 1.27458 0.27016 0.23487
 C9 C 1.27628 0.30321 0.22847
 C10 C 1.25108 0.32086 0.24259
 C11 C 1.22475 0.30652 0.26084
 C12 C 1.22372 0.27388 0.26619
 H13 H 1.28691 0.21174 0.29048
 H14 H 1.20169 0.22241 0.22342
 H15 H 1.29278 0.25555 0.22290
 H16 H 1.20340 0.26266 0.27986
 H17 H 1.23103 0.13143 0.27275
 H18 H 1.25206 0.34613 0.24142
 C19 C 0.78531 -0.29147 0.24227
 C20 C 0.75919 -0.27447 0.23074
 C21 C 0.73653 -0.28907 0.20572
 C22 C 0.74030 -0.31975 0.19102
 C23 C 0.76642 -0.33617 0.20248
 C24 C 0.78958 -0.32254 0.22809
 C25 C 0.75661 -0.24079 0.24194
 C26 C 0.78122 -0.22088 0.23326
 C27 C 0.77939 -0.18886 0.24208
 C28 C 0.75233 -0.17696 0.26044
 C29 C 0.72761 -0.19643 0.27066
 C30 C 0.72981 -0.22832 0.26060
 H31 H 0.80266 -0.27967 0.26070
 H32 H 0.71656 -0.27622 0.19581
 H33 H 0.80187 -0.23045 0.21925
 H34 H 0.71097 -0.24359 0.26847
 H35 H 0.76761 -0.36033 0.19282
 H36 H 0.75013 -0.15216 0.26576
 C37 C 0.76576 0.21743 -0.23350
 C38 C 0.74358 0.23559 -0.25669
 C39 C 0.72105 0.22072 -0.28163
 C40 C 0.72116 0.18799 -0.28538
 C41 C 0.74420 0.17047 -0.26312
 C42 C 0.76602 0.18475 -0.23573
 C43 C 0.74376 0.27012 -0.25394
 C44 C 0.77002 0.28704 -0.26521
 C45 C 0.77104 0.31980 -0.26139
 C46 C 0.74466 0.33508 -0.24627
 C47 C 0.71834 0.31854 -0.23426
 C48 C 0.71806 0.28600 -0.23864
 H49 H 0.78214 0.22882 -0.21216
 H50 H 0.70348 0.23480 -0.29799
 H51 H 0.78979 0.27416 -0.27539
 H52 H 0.69812 0.27281 -0.22863
 H53 H 0.74535 0.14550 -0.26732
 H54 H 0.74386 0.36032 -0.24604
 C55 C 1.24680 -0.29163 -0.21477
 C56 C 1.22511 -0.27339 -0.23947
 C57 C 1.19863 -0.28763 -0.25313
 C58 C 1.19343 -0.31944 -0.24144
 C59 C 1.21498 -0.33700 -0.21580
 C60 C 1.24182 -0.32363 -0.20179
 C61 C 1.22924 -0.23907 -0.24847
 C62 C 1.25655 -0.22667 -0.26668
 C63 C 1.26034 -0.19412 -0.27446
 C64 C 1.23662 -0.17413 -0.26269
 C65 C 1.20916 -0.18601 -0.24467
 C66 C 1.20569 -0.21854 -0.23795
 H67 H 1.26663 -0.28022 -0.20297
 H68 H 1.18194 -0.27387 -0.27258
 H69 H 1.27457 -0.24239 -0.27578
 H70 H 1.18464 -0.22798 -0.22405
 H71 H 1.21141 -0.36189 -0.20953
 H72 H 1.23987 -0.14906 -0.26624
 C73 C 0.23611 0.28382 0.73289
 C74 C 0.25196 0.25780 0.75183
 C75 C 0.23654 0.23208 0.77387
 C76 C 0.20526 0.23185 0.77750
 C77 C 0.18989 0.25818 0.75785
 C78 C 0.20491 0.28382 0.73495
 C79 C 0.28476 0.25671 0.74831
 C80 C 0.30191 0.28029 0.76783
 C81 C 0.33316 0.27715 0.77063
 C82 C 0.34651 0.25069 0.75016
 C83 C 0.32955 0.22676 0.73193
 C84 C 0.29873 0.23011 0.73035
 H85 H 0.24801 0.30339 0.71503
 H86 H 0.24935 0.21289 0.79004
 H87 H 0.29035 0.29946 0.78437
 H88 H 0.28546 0.21139 0.71705
 H89 H 0.16585 0.25852 0.75822
 H90 H 0.37045 0.24822 0.74794
 C91 C 0.73639 0.77524 0.72872
 C92 C 0.75252 0.75421 0.75870
 C93 C 0.73769 0.73344 0.79192
 C94 C 0.70652 0.73219 0.79360
 C95 C 0.69036 0.75337 0.76286
 C96 C 0.70510 0.77567 0.73084
 C97 C 0.78510 0.75347 0.75405
 C98 C 0.80145 0.78062 0.75993
 C99 C 0.83249 0.78034 0.75450
 C100 C 0.84704 0.75267 0.74194
 C101 C 0.83073 0.72538 0.73503
 C102 C 0.79973 0.72589 0.74190
 H103 H 0.74866 0.79196 0.70499
 H104 H 0.75062 0.71699 0.81434
 H105 H 0.78998 0.80173 0.77018
 H106 H 0.78676 0.70523 0.73580
 H107 H 0.66628 0.75232 0.76393
 H108 H 0.87106 0.75242 0.73750
 C109 C 0.70486 0.27786 0.23516
 C110 C 0.72214 0.25380 0.25734
 C111 C 0.70825 0.22641 0.27694
 C112 C 0.67756 0.22249 0.27354
 C113 C 0.66049 0.24693 0.25261
 C114 C 0.67388 0.27430 0.23171
 C115 C 0.75501 0.25497 0.25451
 C116 C 0.77072 0.28101 0.26932
 C117 C 0.80205 0.28094 0.26796
 C118 C 0.81731 0.25488 0.25040
 C119 C 0.80184 0.22890 0.23527
 C120 C 0.77075 0.22917 0.23735
 H121 H 0.71576 0.29819 0.21772
 H122 H 0.72162 0.20736 0.29234
 H123 H 0.75861 0.30070 0.28341
 H124 H 0.75869 0.20940 0.22463
 H125 H 0.63662 0.24399 0.25097
 H126 H 0.84141 0.25471 0.24869
 C127 C 0.22599 0.78458 0.23850
 C128 C 0.23705 0.75614 0.25915
 C129 C 0.21769 0.73078 0.26915
 C130 C 0.18758 0.73299 0.25714
 C131 C 0.17711 0.76147 0.23669
 C132 C 0.19585 0.78734 0.22587
 C133 C 0.26921 0.75186 0.26756
 C134 C 0.28519 0.77362 0.29331
 C135 C 0.31531 0.76823 0.30351
 C136 C 0.32942 0.74149 0.28619
 C137 C 0.31375 0.71947 0.26082
 C138 C 0.28368 0.72495 0.25131
 H139 H 0.24132 0.80359 0.22970
 H140 H 0.22656 0.70892 0.28450
 H141 H 0.27391 0.79393 0.30705
 H142 H 0.27133 0.70801 0.23187
 H143 H 0.15333 0.76424 0.23303
 H144 H 0.35293 0.73787 0.29233
 O145 O 1.04959 -0.03242 0.09316
 O146 O 1.02404 -0.06712 0.04889
 C147 C 1.04320 -0.06061 0.08143
 O148 O 0.93966 0.05271 0.07858
 O149 O 0.96919 0.08772 0.03373
 C150 C 0.94729 0.08105 0.06411
 O151 O 0.94415 -0.03481 0.09000
 O152 O 0.97372 -0.06866 0.04781
 C153 C 0.95237 -0.06279 0.07904
 O154 O 1.04931 0.05479 0.08278
 O155 O 1.02229 0.08925 0.03413
 C156 C 1.04235 0.08284 0.06676
 Zr157 Zr 1.03369 0.01113 0.06299
 O158 O 1.03097 0.01349 0.14035
 O159 O 1.08073 0.01130 0.06191
 Zr160 Zr 0.95927 0.00932 0.06106
 O161 O 0.96245 0.01018 0.13813
 O162 O 0.91222 0.00870 0.06677
 O163 O 0.99694 -0.01803 0.07384
 O164 O 0.99551 0.03790 0.06851
 O165 O 1.05498 0.05547 -0.08433
 O166 O 1.02300 0.08913 -0.04674
 C167 C 1.04588 0.08337 -0.07467
 O168 O 0.95031 -0.03513 -0.08824
 O169 O 0.97673 -0.06828 -0.03710
 C170 C 0.95866 -0.06292 -0.07265
 O171 O 0.94283 0.05156 -0.08701
 O172 O 0.96951 0.08781 -0.04743
 C173 C 0.94847 0.08003 -0.07629
 O174 O 1.05403 -0.03198 -0.08365
 O175 O 1.02688 -0.06732 -0.03503
 C176 C 1.04726 -0.06037 -0.06831
 Zr177 Zr 1.03711 0.01141 -0.06106
 O178 O 1.03700 0.01531 -0.13880
 O179 O 1.08414 0.01001 -0.06238
 Zr180 Zr 0.96259 0.00904 -0.06328
 O181 O 0.96632 0.01354 -0.14091
 O182 O 0.91591 0.00409 -0.06700
 Zr183 Zr 0.99945 -0.03643 0.00368
 Zr184 Zr 0.99678 0.05717 -0.00408
 O185 O 0.99919 0.03789 -0.07345
 O186 O 1.00100 -0.01788 -0.06948
 O187 O 1.04042 0.03915 -0.00098
 O188 O 0.95608 -0.01803 0.00085
 O189 O 1.04172 -0.01562 0.00328
 O190 O 0.95423 0.03659 -0.00357
 H191 H 0.99448 0.05224 0.09591
 H192 H 0.93904 -0.03259 0.00072
 H193 H 0.99936 0.05255 -0.10282
 H194 H 1.05986 -0.02882 0.00480
 H195 H 0.90491 -0.00365 0.03995
 H196 H 0.90697 0.01620 -0.04040
 H197 H 0.97746 -0.00487 -0.15210
 H198 H 1.02902 -0.00445 -0.15033
 H199 H 1.09055 0.01968 -0.03224
 H200 H 1.08674 0.01125 0.09665
 H201 H 1.01822 -0.00400 0.15324
 H202 H 0.94171 0.01033 0.15127
 O203 O 0.95257 0.44883 0.39894
 O204 O 0.97639 0.41396 0.45152
 C205 C 0.95820 0.42061 0.41623
 O206 O 1.06440 0.53129 0.40587
 O207 O 1.03431 0.56823 0.44013
 C208 C 1.05771 0.55982 0.41535
 O209 O 1.05646 0.44533 0.40614
 O210 O 1.02752 0.41188 0.45523
 C211 C 1.04851 0.41751 0.42225
 O212 O 0.95254 0.53606 0.39255
 O213 O 0.97970 0.57055 0.43482
 C214 C 0.95960 0.56419 0.40340
 Zr215 Zr 0.96773 0.49241 0.42183
 O216 O 0.97074 0.49366 0.34418
 O217 O 0.92069 0.49313 0.42324
 Zr218 Zr 1.04200 0.48951 0.42735
 O219 O 1.04078 0.49112 0.34986
 O220 O 1.08884 0.48464 0.42584
 O221 O 1.00439 0.46257 0.41842
 O222 O 1.00632 0.51861 0.41222
 O223 O 0.94650 0.53951 0.56256
 O224 O 0.97788 0.57188 0.51612
 C225 C 0.95591 0.56710 0.54720
 O226 O 1.04974 0.44773 0.58348
 O227 O 1.02361 0.41325 0.53966
 C228 C 1.04268 0.41962 0.57265
 O229 O 1.05412 0.53478 0.57112
 O230 O 1.02968 0.56988 0.51977
 C231 C 1.04850 0.56300 0.55398
 O232 O 0.94567 0.45214 0.57710
 O233 O 0.97264 0.41535 0.53648
 C234 C 0.95201 0.42339 0.56772
 Zr235 Zr 0.96250 0.49461 0.54491
 O236 O 0.95781 0.49799 0.62183
 O237 O 0.91602 0.49553 0.53500
 Zr238 Zr 1.03699 0.49137 0.55112
 O239 O 1.03400 0.49027 0.62892
 O240 O 1.08398 0.48949 0.55102
 Zr241 Zr 1.00095 0.44501 0.49196
 Zr242 Zr 1.00408 0.53886 0.48071
 O243 O 1.00036 0.52053 0.55366
 O244 O 0.99838 0.46505 0.56092
 O245 O 0.96033 0.52166 0.47962
 O246 O 1.04424 0.46315 0.49278
 O247 O 0.95884 0.46633 0.48633
 O248 O 1.04632 0.51774 0.48668
 H249 H 1.00824 0.53285 0.38247
 H250 H 1.06161 0.44888 0.49540
 H251 H 0.99951 0.53519 0.58056
 H252 H 0.94077 0.45315 0.48679
 H253 H 1.09571 0.49128 0.45786
 H254 H 1.08971 0.48913 0.58591
 H255 H 1.02455 0.50989 0.63908
 H256 H 0.97418 0.48555 0.63673
 H257 H 0.90680 0.49612 0.56832
 H258 H 0.91463 0.49247 0.38861
 H259 H 0.98534 0.47745 0.33510
 H260 H 1.06180 0.49046 0.33815
 O261 O 0.53907 0.04570 0.59809
 O262 O 0.57351 0.01328 0.56296
 C263 C 0.56601 0.03528 0.59186
 O264 O 0.44854 -0.06167 0.58344
 O265 O 0.42244 -0.02817 0.53210
 C266 C 0.42388 -0.05138 0.56460
 O267 O 0.52928 -0.06453 0.60896
 O268 O 0.56883 -0.04017 0.56838
 C269 C 0.55752 -0.05964 0.60195
 O270 O 0.45761 0.05396 0.57745
 O271 O 0.42659 0.02787 0.52810
 C272 C 0.43176 0.04890 0.55940
 Zr273 Zr 0.49912 0.03243 0.56504
 O274 O 0.48945 0.03089 0.64154
 O275 O 0.50494 0.08150 0.56413
 Zr276 Zr 0.49268 -0.04543 0.57128
 O277 O 0.48422 -0.03896 0.64666
 O278 O 0.48879 -0.09447 0.58355
 O279 O 0.52152 -0.00892 0.58364
 O280 O 0.46905 -0.00412 0.57100
 O281 O 0.47346 0.05570 0.41228
 O282 O 0.43445 0.02800 0.44801
 C283 C 0.44520 0.05042 0.41896
 O284 O 0.54734 -0.06625 0.43220
 O285 O 0.57715 -0.04046 0.48374
 C286 C 0.57312 -0.06052 0.45044
 O287 O 0.46413 -0.06273 0.42160
 O288 O 0.42991 -0.02811 0.45181
 C289 C 0.43719 -0.05214 0.42701
 O290 O 0.55492 0.04335 0.42411
 O291 O 0.58150 0.01275 0.47917
 C292 C 0.57965 0.03390 0.44344
 Zr293 Zr 0.51047 0.03129 0.44171
 O294 O 0.51346 0.02674 0.36473
 O295 O 0.51763 0.07986 0.42977
 Zr296 Zr 0.50476 -0.04663 0.44835
 O297 O 0.50842 -0.04460 0.37067
 O298 O 0.50440 -0.09610 0.44982
 Zr299 Zr 0.54576 -0.01097 0.51671
 Zr300 Zr 0.45774 -0.00291 0.49655
 O301 O 0.48240 -0.00539 0.43026
 O302 O 0.53507 -0.01001 0.44167
 O303 O 0.47946 0.04061 0.49718
 O304 O 0.52371 -0.05418 0.51623
 O305 O 0.53050 0.03555 0.50847
 O306 O 0.47240 -0.04980 0.50437
 H307 H 0.45277 -0.00301 0.59605
 H308 H 0.53541 -0.07374 0.52063
 H309 H 0.47117 -0.00424 0.39940
 H310 H 0.54467 0.05312 0.50969
 H311 H 0.49844 -0.10423 0.55522
 H312 H 0.48868 -0.10317 0.47384
 H313 H 0.52847 -0.03653 0.36129
 H314 H 0.53345 0.01837 0.35669
 H315 H 0.51335 0.08931 0.46147
 H316 H 0.49260 0.09089 0.53763
 H317 H 0.50499 0.01795 0.65790
 H318 H 0.48024 -0.06006 0.66203
 O319 O 0.53167 0.56471 0.09014
 O320 O 0.56781 0.53926 0.04647
 C321 C 0.55927 0.55827 0.07977
 O322 O 0.45097 0.45142 0.07619
 O323 O 0.42000 0.48310 0.02988
 C324 C 0.42473 0.45983 0.06123
 O325 O 0.53349 0.45470 0.08881
 O326 O 0.56870 0.48536 0.04723
 C327 C 0.56082 0.46293 0.07875
 O328 O 0.44957 0.56668 0.07693
 O329 O 0.41909 0.53882 0.02897
 C330 C 0.42362 0.55940 0.06129
 Zr331 Zr 0.49226 0.55007 0.05777
 O332 O 0.48561 0.54860 0.13499
 O333 O 0.49301 0.59950 0.05285
 Zr334 Zr 0.49325 0.47182 0.05920
 O335 O 0.48828 0.47532 0.13595
 O336 O 0.49352 0.42240 0.06793
 O337 O 0.51906 0.51084 0.07084
 O338 O 0.46607 0.51041 0.06462
 O339 O 0.45879 0.57288 -0.09195
 O340 O 0.42354 0.54167 -0.05231
 C341 C 0.43141 0.56505 -0.08220
 O342 O 0.54333 0.46005 -0.08635
 O343 O 0.57318 0.48788 -0.03754
 C344 C 0.56926 0.46779 -0.07086
 O345 O 0.46038 0.45603 -0.08911
 O346 O 0.42419 0.48499 -0.05145
 C347 C 0.43278 0.46291 -0.07953
 O348 O 0.54068 0.56847 -0.09126
 O349 O 0.57250 0.54064 -0.04071
 C350 C 0.56703 0.56068 -0.07694
 Zr351 Zr 0.49862 0.55337 -0.06565
 O352 O 0.49855 0.55527 -0.14339
 O353 O 0.50137 0.60273 -0.06612
 Zr354 Zr 0.50011 0.47512 -0.06468
 O355 O 0.50065 0.47953 -0.14244
 O356 O 0.50387 0.42592 -0.06687
 Zr357 Zr 0.54071 0.51314 0.00120
 Zr358 Zr 0.45145 0.51220 -0.00818
 O359 O 0.47364 0.51420 -0.07702
 O360 O 0.52653 0.51477 -0.07207
 O361 O 0.46892 0.55766 -0.00665
 O362 O 0.52248 0.46794 0.00002
 O363 O 0.52134 0.55793 -0.00150
 O364 O 0.47053 0.46701 -0.00544
 H365 H 0.45102 0.50934 0.09184
 H366 H 0.53578 0.44944 0.00122
 H367 H 0.46139 0.51489 -0.10678
 H368 H 0.53449 0.57641 -0.00086
 H369 H 0.50359 0.41438 0.03852
 H370 H 0.48988 0.41677 -0.04154
 H371 H 0.52020 0.48820 -0.15351
 H372 H 0.51488 0.54166 -0.15475
 H373 H 0.48710 0.60973 -0.04071
 H374 H 0.49094 0.60627 0.08698
 H375 H 0.49953 0.53279 0.14911
 H376 H 0.48697 0.45355 0.15002
 C377 C 1.17021 0.17079 0.19020
 C378 C 1.14368 0.15622 0.17743
 C379 C 1.13095 0.13275 0.20976
 C380 C 1.14418 0.12498 0.25468
 C381 C 1.17049 0.13940 0.26692
 C382 C 1.18418 0.16191 0.23456
 C383 C 1.10574 0.11659 0.19613
 C384 C 1.09341 0.12293 0.15004
 C385 C 1.10521 0.14710 0.11816
 C386 C 1.13017 0.16388 0.13230
 C387 C 1.09262 0.15296 0.07185
 C388 C 1.07006 0.13357 0.05607
 C389 C 1.05975 0.10826 0.08654
 C390 C 1.07060 0.10404 0.13427
 H391 H 1.18052 0.18812 0.16493
 H392 H 1.13449 0.10729 0.28002
 H393 H 1.18026 0.13277 0.30186
 H394 H 1.09649 0.09810 0.22057
 H395 H 1.13973 0.18197 0.10749
 H396 H 1.10119 0.17151 0.04696
 H397 H 1.06214 0.13708 0.01900
 H398 H 1.06258 0.08464 0.15810
 C399 C 1.15550 0.66986 0.69517
 C400 C 1.13279 0.65096 0.67831
 C401 C 1.12049 0.62687 0.70995
 C402 C 1.12972 0.62328 0.75855
 C403 C 1.15223 0.64209 0.77495
 C404 C 1.16612 0.66475 0.74306
 C405 C 1.09996 0.60601 0.69215
 C406 C 1.09157 0.60880 0.64301
 C407 C 1.10247 0.63388 0.61194
 C408 C 1.12305 0.65484 0.62980
 C409 C 1.09317 0.63698 0.56316
 C410 C 1.07429 0.61470 0.54485
 C411 C 1.06497 0.58869 0.57473
 C412 C 1.07316 0.58627 0.62409
 H413 H 1.16601 0.68725 0.67022
 H414 H 1.12016 0.60528 0.78348
 H415 H 1.15948 0.63824 0.81237
 H416 H 1.09122 0.58703 0.71613
 H417 H 1.13210 0.67354 0.60560
 H418 H 1.10099 0.65622 0.53891
 H419 H 1.06799 0.61709 0.50677
 H420 H 1.06560 0.56649 0.64754
 C421 C 0.68764 0.14163 0.70369
 C422 C 0.66555 0.12632 0.67841
 C423 C 0.65209 0.14182 0.63763
 C424 C 0.66147 0.17201 0.62216
 C425 C 0.68393 0.18679 0.64680
 C426 C 0.69724 0.17199 0.68808
 C427 C 0.62956 0.12689 0.61290
 C428 C 0.62068 0.09638 0.62786
 C429 C 0.63475 0.08049 0.66778
 C430 C 0.65684 0.09569 0.69314
 C431 C 0.62652 0.04958 0.68157
 C432 C 0.60440 0.03463 0.65630
 C433 C 0.58981 0.05057 0.61766
 C434 C 0.59801 0.08140 0.60346
 H435 H 0.69707 0.12989 0.73587
 H436 H 0.65161 0.18412 0.59065
 H437 H 0.69111 0.20975 0.63295
 H438 H 0.61904 0.13894 0.58190
 H439 H 0.66738 0.08361 0.72408
 H440 H 0.63721 0.03698 0.71182
 H441 H 0.59833 0.01079 0.66736
 H442 H 0.58693 0.09352 0.57309
 C443 C 0.68936 0.65772 0.18357
 C444 C 0.66928 0.63933 0.15887
 C445 C 0.67721 0.62861 0.11204
 C446 C 0.70499 0.63662 0.09064
 C447 C 0.72505 0.65428 0.11592
 C448 C 0.71750 0.66480 0.16257
 C449 C 0.65747 0.60969 0.08772
 C450 C 0.62995 0.60110 0.10975
 C451 C 0.62207 0.61187 0.15655
 C452 C 0.64172 0.63090 0.18073
 C453 C 0.59451 0.60362 0.17837
 C454 C 0.57461 0.58545 0.15375
 C455 C 0.58196 0.57478 0.10706
 C456 C 0.60996 0.58229 0.08552
 H457 H 0.68366 0.66544 0.21988
 H458 H 0.71147 0.62865 0.05483
 H459 H 0.74677 0.65940 0.09940
 H460 H 0.66358 0.60155 0.05180
 H461 H 0.63561 0.63903 0.21664
 H462 H 0.58812 0.61160 0.21421
 H463 H 0.55322 0.57995 0.17118
 H464 H 0.61572 0.57448 0.04930
 C465 C 0.82565 -0.17275 0.19238
 C466 C 0.84945 -0.15211 0.18161
 C467 C 0.85285 -0.12561 0.20974
 C468 C 0.83329 -0.12100 0.24952
 C469 C 0.81007 -0.14195 0.26062
 C470 C 0.80546 -0.16772 0.23167
 C471 C 0.87539 -0.10386 0.19719
 C472 C 0.89471 -0.10832 0.15692
 C473 C 0.89226 -0.13558 0.13020
 C474 C 0.86959 -0.15726 0.14260
 C475 C 0.91201 -0.14022 0.09058
 C476 C 0.93297 -0.11734 0.07594
 C477 C 0.93444 -0.08932 0.10047
 C478 C 0.91575 -0.08540 0.14189
 H479 H 0.82249 -0.19215 0.16915
 H480 H 0.83585 -0.10107 0.27195
 H481 H 0.79569 -0.13784 0.29207
 H482 H 0.87748 -0.08314 0.21811
 H483 H 0.86729 -0.17780 0.12135
 H484 H 0.91063 -0.16109 0.06992
 H485 H 0.94696 -0.12092 0.04378
 H486 H 0.91680 -0.06399 0.16132
 C487 C 0.81947 0.32695 0.69353
 C488 C 0.84442 0.34560 0.68019
 C489 C 0.84800 0.37463 0.70165
 C490 C 0.82726 0.38416 0.73686
 C491 C 0.80247 0.36581 0.74956
 C492 C 0.79754 0.33718 0.72747
 C493 C 0.87180 0.39416 0.68673
 C494 C 0.89182 0.38544 0.64966
 C495 C 0.88890 0.35613 0.62880
 C496 C 0.86533 0.33622 0.64451
 C497 C 0.90902 0.34781 0.59140
 C498 C 0.93079 0.36899 0.57317
 C499 C 0.93291 0.39878 0.59223
 C500 C 0.91390 0.40632 0.63167
 H501 H 0.81646 0.30554 0.67486
 H502 H 0.83000 0.40611 0.75430
 H503 H 0.78758 0.37404 0.77791
 H504 H 0.87414 0.41666 0.70278
 H505 H 0.86276 0.31393 0.62796
 H506 H 0.90725 0.32537 0.57507
 H507 H 0.94505 0.36257 0.54268
 H508 H 0.91537 0.42910 0.64706
 C509 C 0.28896 -0.15434 0.67233
 C510 C 0.31570 -0.13981 0.65643
 C511 C 0.34307 -0.15179 0.67369
 C512 C 0.34317 -0.17838 0.70606
 C513 C 0.31640 -0.19258 0.72205
 C514 C 0.28899 -0.18051 0.70589
 C515 C 0.36979 -0.13680 0.65876
 C516 C 0.36946 -0.10988 0.62694
 C517 C 0.34206 -0.09814 0.60936
 C518 C 0.31540 -0.11320 0.62408
 C519 C 0.34174 -0.07137 0.57750
 C520 C 0.36827 -0.05622 0.56323
 C521 C 0.39573 -0.06743 0.58058
 C522 C 0.39608 -0.09444 0.61250
 H523 H 0.26805 -0.14510 0.65881
 H524 H 0.36394 -0.18793 0.71966
 H525 H 0.31713 -0.21249 0.74816
 H526 H 0.39079 -0.14592 0.67220
 H527 H 0.29439 -0.10403 0.61076
 H528 H 0.32094 -0.06210 0.56361
 H529 H 0.36720 -0.03562 0.53853
 H530 H 0.41703 -0.10357 0.62603
 C531 C 0.29993 0.34809 0.18210
 C532 C 0.32524 0.36389 0.16269
 C533 C 0.35367 0.35033 0.16848
 C534 C 0.35614 0.32079 0.19282
 C535 C 0.33079 0.30501 0.21183
 C536 C 0.30215 0.31853 0.20767
 C537 C 0.37906 0.36652 0.14982
 C538 C 0.37624 0.39603 0.12504
 C539 C 0.34761 0.40919 0.11854
 C540 C 0.32238 0.39312 0.13745
 C541 C 0.34460 0.43832 0.09326
 C542 C 0.36966 0.45446 0.07463
 C543 C 0.39839 0.44200 0.08115
 C544 C 0.40149 0.41262 0.10653
 H545 H 0.27840 0.35866 0.17537
 H546 H 0.37777 0.30995 0.19761
 H547 H 0.33408 0.28280 0.23176
 H548 H 0.40094 0.35619 0.15458
 H549 H 0.30049 0.40345 0.13266
 H550 H 0.32280 0.44867 0.08789
 H551 H 0.36648 0.47697 0.05543
 H552 H 0.42344 0.40257 0.11157
 C553 C 0.81751 0.17512 -0.20179
 C554 C 0.83776 0.15611 -0.17506
 C555 C 0.82825 0.12675 -0.15434
 C556 C 0.79882 0.11722 -0.15931
 C557 C 0.77888 0.13628 -0.18528
 C558 C 0.78793 0.16518 -0.20755
 C559 C 0.84830 0.10710 -0.12924
 C560 C 0.87785 0.11626 -0.12437
 C561 C 0.88751 0.14588 -0.14348
 C562 C 0.86734 0.16570 -0.16893
 C563 C 0.91726 0.15475 -0.13722
 C564 C 0.93734 0.13400 -0.11368
 C565 C 0.92792 0.10405 -0.09677
 C566 C 0.89800 0.09574 -0.10135
 H567 H 0.82492 0.19727 -0.21873
 H568 H 0.79118 0.09496 -0.14306
 H569 H 0.75613 0.12839 -0.18751
 H570 H 0.84098 0.08441 -0.11403
 H571 H 0.87471 0.18830 -0.18431
 H572 H 0.92509 0.17748 -0.15119
 H573 H 0.96031 0.14087 -0.11023
 H574 H 0.89040 0.07287 -0.08741
 C575 C 0.83427 0.66718 0.27880
 C576 C 0.85901 0.64834 0.29137
 C577 C 0.86593 0.62203 0.26403
 C578 C 0.84914 0.61587 0.22330
 C579 C 0.82484 0.63469 0.21076
 C580 C 0.81609 0.66015 0.23904
 C581 C 0.88909 0.60180 0.27837
 C582 C 0.90542 0.60736 0.32010
 C583 C 0.89958 0.63443 0.34633
 C584 C 0.87642 0.65480 0.33177
 C585 C 0.91639 0.64000 0.38766
 C586 C 0.93755 0.61809 0.40440
 C587 C 0.94212 0.59017 0.38030
 C588 C 0.92663 0.58552 0.33715
 H589 H 0.82850 0.68602 0.30221
 H590 H 0.85465 0.59624 0.20116
 H591 H 0.81346 0.62928 0.17783
 H592 H 0.89382 0.58120 0.25792
 H593 H 0.87145 0.67516 0.35263
 H594 H 0.91247 0.66076 0.40803
 H595 H 0.94916 0.62223 0.43768
 H596 H 0.93015 0.56421 0.31794
 C597 C 0.31363 0.15413 0.30800
 C598 C 0.33371 0.13290 0.33091
 C599 C 0.32274 0.10640 0.35861
 C600 C 0.29209 0.10147 0.36296
 C601 C 0.27238 0.12208 0.33933
 C602 C 0.28260 0.14864 0.31082
 C603 C 0.34250 0.08501 0.38127
 C604 C 0.37331 0.08938 0.37598
 C605 C 0.38443 0.11567 0.34791
 C606 C 0.36461 0.13736 0.32583
 C607 C 0.41525 0.11978 0.34235
 C608 C 0.43485 0.09826 0.36464
 C609 C 0.42411 0.07213 0.39314
 C610 C 0.39315 0.06783 0.39835
 H611 H 0.32244 0.17388 0.28588
 H612 H 0.28327 0.08148 0.38454
 H613 H 0.24887 0.11750 0.34512
 H614 H 0.33390 0.06481 0.40265
 H615 H 0.37322 0.15753 0.30439
 H616 H 0.42424 0.13974 0.32091
 H617 H 0.45852 0.10238 0.35997
 H618 H 0.38442 0.04786 0.42010
 C619 C 0.29388 0.66325 -0.18249
 C620 C 0.31482 0.64292 -0.16028
 C621 C 0.30517 0.61725 -0.12934
 C622 C 0.27471 0.61234 -0.12111
 C623 C 0.25398 0.63205 -0.14434
 C624 C 0.26309 0.65766 -0.17598
 C625 C 0.32609 0.59666 -0.10767
 C626 C 0.35661 0.60106 -0.11739
 C627 C 0.36616 0.62661 -0.14881
 C628 C 0.34530 0.64746 -0.16966
 C629 C 0.39649 0.63094 -0.15911
 C630 C 0.41729 0.61044 -0.13819
 C631 C 0.40835 0.58507 -0.10624
 C632 C 0.37778 0.58038 -0.09631
 H633 H 0.30179 0.68215 -0.20732
 H634 H 0.26684 0.59299 -0.09710
 H635 H 0.23067 0.62751 -0.13619
 H636 H 0.31860 0.57705 -0.08379
 H637 H 0.35279 0.66701 -0.19367
 H638 H 0.40418 0.65031 -0.18324
 H639 H 0.44059 0.61483 -0.14681
 H640 H 0.37048 0.56095 -0.07195
 C641 C 1.16590 -0.17051 -0.19036
 C642 C 1.14377 -0.14903 -0.17703
 C643 C 1.14024 -0.12079 -0.20559
 C644 C 1.15815 -0.11500 -0.24781
 C645 C 1.17994 -0.13654 -0.26100
 C646 C 1.18448 -0.16426 -0.23206
 C647 C 1.11926 -0.09854 -0.19106
 C648 C 1.10177 -0.10409 -0.14822
 C649 C 1.10454 -0.13274 -0.12049
 C650 C 1.12552 -0.15505 -0.13506
 C651 C 1.08670 -0.13828 -0.07800
 C652 C 1.06710 -0.11521 -0.06214
 C653 C 1.06509 -0.08614 -0.08837
 C654 C 1.08211 -0.08103 -0.13199
 H655 H 1.16924 -0.19157 -0.16734
 H656 H 1.15551 -0.09363 -0.27042
 H657 H 1.19336 -0.13141 -0.29394
 H658 H 1.11696 -0.07665 -0.21256
 H659 H 1.12802 -0.17681 -0.11330
 H660 H 1.08839 -0.16017 -0.05642
 H661 H 1.05432 -0.11972 -0.02833
 H662 H 1.08059 -0.05882 -0.15277
 C663 C 1.17894 0.31772 0.31303
 C664 C 1.15379 0.33617 0.32348
 C665 C 1.14761 0.36295 0.29279
 C666 C 1.16613 0.37047 0.25188
 C667 C 1.19095 0.35203 0.24172
 C668 C 1.19792 0.32569 0.27232
 C669 C 1.12338 0.38222 0.30392
 C670 C 1.10546 0.37550 0.34588
 C671 C 1.11097 0.34840 0.37613
 C672 C 1.13503 0.32871 0.36452
 C673 C 1.09292 0.34219 0.41836
 C674 C 1.07087 0.36361 0.43198
 C675 C 1.06642 0.39140 0.40333
 C676 C 1.08305 0.39644 0.35927
 H677 H 1.18407 0.29761 0.33717
 H678 H 1.16153 0.39078 0.22783
 H679 H 1.20461 0.35830 0.20948
 H680 H 1.11903 0.40302 0.28072
 H681 H 1.13960 0.30814 0.38807
 H682 H 1.09668 0.32146 0.44192
 H683 H 1.05850 0.35928 0.46624
 H684 H 1.07967 0.41767 0.33660
 C685 C 0.70116 -0.16115 0.32855
 C686 C 0.67527 -0.14673 0.34664
 C687 C 0.64728 -0.15428 0.32806
 C688 C 0.64574 -0.17662 0.29227
 C689 C 0.67168 -0.19085 0.27437
 C690 C 0.69971 -0.18298 0.29179
 C691 C 0.62144 -0.13915 0.34522
 C692 C 0.62329 -0.11654 0.38070
 C693 C 0.65133 -0.10948 0.39964
 C694 C 0.67706 -0.12460 0.38259
 C695 C 0.65332 -0.08715 0.43514
 C696 C 0.62790 -0.07161 0.45150
 C697 C 0.59977 -0.07793 0.43278
 C698 C 0.59766 -0.10070 0.39739
 H699 H 0.72255 -0.15525 0.34299
 H700 H 0.62450 -0.18279 0.27762
 H701 H 0.66990 -0.20742 0.24591
 H702 H 0.59999 -0.14478 0.33070
 H703 H 0.69853 -0.11890 0.39698
 H704 H 0.67463 -0.08155 0.45014
 H705 H 0.63041 -0.05440 0.47883
 H706 H 0.57621 -0.10599 0.38265
 C707 C 0.69409 0.36056 -0.18574
 C708 C 0.66894 0.37731 -0.17021
 C709 C 0.64042 0.36878 -0.18544
 C710 C 0.63762 0.34369 -0.21611
 C711 C 0.66283 0.32728 -0.23173
 C712 C 0.69135 0.33554 -0.21689
 C713 C 0.61522 0.38544 -0.16976
 C714 C 0.61819 0.41053 -0.13903
 C715 C 0.64677 0.41912 -0.12408
 C716 C 0.67193 0.40247 -0.13972
 C717 C 0.64972 0.44414 -0.09341
 C718 C 0.62460 0.46025 -0.07698
 C719 C 0.59595 0.45178 -0.09098
 C720 C 0.59302 0.42697 -0.12254
 H721 H 0.71583 0.36691 -0.17320
 H722 H 0.61595 0.33687 -0.22828
 H723 H 0.66002 0.30843 -0.25615
 H724 H 0.59332 0.37880 -0.18131
 H725 H 0.69383 0.40906 -0.12809
 H726 H 0.67147 0.45107 -0.08171
 H727 H 0.62765 0.47921 -0.05283
 H728 H 0.57113 0.42004 -0.13362
 C729 C 1.16073 0.20955 -0.18001
 C730 C 1.14382 0.18376 -0.16284
 C731 C 1.15579 0.15333 -0.16512
 C732 C 1.18472 0.14930 -0.18394
 C733 C 1.20137 0.17513 -0.20171
 C734 C 1.18946 0.20574 -0.20109
 C735 C 1.13855 0.12745 -0.14890
 C736 C 1.10946 0.13176 -0.13062
 C737 C 1.09762 0.16231 -0.12803
 C738 C 1.11491 0.18811 -0.14397
 C739 C 1.06865 0.16658 -0.10949
 C740 C 1.05159 0.14083 -0.09313
 C741 C 1.06318 0.11035 -0.09526
 C742 C 1.09210 0.10599 -0.11447
 H743 H 1.15141 0.23264 -0.17578
 H744 H 1.19425 0.12609 -0.18597
 H745 H 1.22294 0.17057 -0.21835
 H746 H 1.14769 0.10403 -0.15071
 H747 H 1.10577 0.21154 -0.14214
 H748 H 1.05925 0.18984 -0.10729
 H749 H 1.02937 0.14482 -0.07844
 H750 H 1.10140 0.08263 -0.11586
 C751 C 1.17017 0.68710 0.30753
 C752 C 1.14790 0.66496 0.31953
 C753 C 1.12340 0.66232 0.28848
 C754 C 1.12173 0.68153 0.24567
 C755 C 1.14338 0.70413 0.23476
 C756 C 1.16759 0.70784 0.26603
 C757 C 1.10061 0.64101 0.30114
 C758 C 1.10170 0.62265 0.34501
 C759 C 1.12623 0.62525 0.37616
 C760 C 1.14924 0.64621 0.36306
 C761 C 1.12732 0.60685 0.42004
 C762 C 1.10445 0.58590 0.43270
 C763 C 1.08012 0.58336 0.40205
 C764 C 1.07865 0.60169 0.35830
 H765 H 1.18816 0.68964 0.33272
 H766 H 1.10334 0.67955 0.22109
 H767 H 1.14123 0.71853 0.20118
 H768 H 1.08183 0.63907 0.27728
 H769 H 1.16793 0.64827 0.38707
 H770 H 1.14588 0.60850 0.44435
 H771 H 1.10576 0.57146 0.46645
 H772 H 1.05989 0.59928 0.33456
 C773 C 0.67026 0.17405 0.32925
 C774 C 0.65653 0.14493 0.34001
 C775 C 0.63670 0.13310 0.30605
 C776 C 0.63124 0.15007 0.26195
 C777 C 0.64456 0.17904 0.25195
 C778 C 0.66382 0.19155 0.28560
 C779 C 0.62166 0.10506 0.31733
 C780 C 0.62504 0.08929 0.36305
 C781 C 0.64529 0.10040 0.39687
 C782 C 0.66142 0.12793 0.38469
 C783 C 0.64756 0.08478 0.44330
 C784 C 0.62801 0.06032 0.45752
 C785 C 0.60644 0.05088 0.42504
 C786 C 0.60649 0.06411 0.37689
 H787 H 0.68518 0.18351 0.35530
 H788 H 0.61624 0.14119 0.23551
 H789 H 0.63994 0.19167 0.21751
 H790 H 0.60601 0.09645 0.29158
 H791 H 0.67655 0.13690 0.41088
 H792 H 0.66303 0.09281 0.46971
 H793 H 0.62816 0.05061 0.49500
 H794 H 0.58995 0.05680 0.35159
 C795 C 0.66955 0.69084 -0.19635
 C796 C 0.65716 0.66527 -0.16906
 C797 C 0.66523 0.65894 -0.11975
 C798 C 0.68738 0.67702 -0.09983
 C799 C 0.70133 0.70100 -0.12857
 C800 C 0.69208 0.70869 -0.17676
 C801 C 0.65108 0.63463 -0.09145
 C802 C 0.62986 0.61586 -0.11270
 C803 C 0.62399 0.62070 -0.16336
 C804 C 0.63724 0.64559 -0.19087
 C805 C 0.60399 0.60132 -0.18552
 C806 C 0.58790 0.57914 -0.15710
 C807 C 0.59128 0.57605 -0.10600
 C808 C 0.61336 0.59333 -0.08405
 H809 H 0.66304 0.69552 -0.23407
 H810 H 0.69424 0.67232 -0.06235
 H811 H 0.71867 0.71431 -0.11242
 H812 H 0.65635 0.63055 -0.05305
 H813 H 0.63181 0.64985 -0.22920
 H814 H 0.59971 0.60432 -0.22442
 H815 H 0.57110 0.56581 -0.17461
 H816 H 0.61595 0.59111 -0.04461
 C817 C 0.87391 -0.19434 -0.20394
 C818 C 0.88792 -0.16764 -0.18836
 C819 C 0.87792 -0.13761 -0.20486
 C820 C 0.85443 -0.13490 -0.23767
 C821 C 0.84023 -0.16168 -0.25237
 C822 C 0.84957 -0.19153 -0.23499
 C823 C 0.89093 -0.11087 -0.18712
 C824 C 0.91334 -0.11387 -0.15231
 C825 C 0.92355 -0.14397 -0.13650
 C826 C 0.91101 -0.17061 -0.15500
 C827 C 0.94569 -0.14703 -0.10149
 C828 C 0.95720 -0.12059 -0.08135
 C829 C 0.94691 -0.09050 -0.09599
 C830 C 0.92521 -0.08729 -0.13212
 H831 H 0.88094 -0.21729 -0.18986
 H832 H 0.84654 -0.11211 -0.25089
 H833 H 0.82162 -0.15910 -0.27673
 H834 H 0.88306 -0.08783 -0.19931
 H835 H 0.91863 -0.19367 -0.14237
 H836 H 0.95380 -0.16991 -0.08911
 H837 H 0.97408 -0.12385 -0.05389
 H838 H 0.91713 -0.06426 -0.14381
 C839 C 0.84508 0.30165 0.31262
 C840 C 0.86276 0.32632 0.32666
 C841 C 0.85430 0.35753 0.31432
 C842 C 0.82814 0.36342 0.28830
 C843 C 0.81078 0.33860 0.27397
 C844 C 0.81925 0.30750 0.28553
 C845 C 0.87214 0.38224 0.32811
 C846 C 0.89827 0.37607 0.35415
 C847 C 0.90665 0.34482 0.36643
 C848 C 0.88887 0.32016 0.35256
 C849 C 0.93256 0.33873 0.39287
 C850 C 0.94975 0.36337 0.40794
 C851 C 0.94153 0.39456 0.39641
 C852 C 0.91589 0.40069 0.36886
 H853 H 0.85152 0.27778 0.32272
 H854 H 0.82130 0.38719 0.27853
 H855 H 0.79111 0.34372 0.25283
 H856 H 0.86565 0.40621 0.31876
 H857 H 0.89532 0.29618 0.36199
 H858 H 0.93929 0.31490 0.40255
 H859 H 0.96933 0.35797 0.42917
 H860 H 0.90907 0.42463 0.36014
 C861 C 0.33075 -0.17782 0.32562
 C862 C 0.34982 -0.15839 0.35048
 C863 C 0.37045 -0.17203 0.38371
 C864 C 0.37078 -0.20442 0.39341
 C865 C 0.35184 -0.22344 0.36875
 C866 C 0.33234 -0.21054 0.33355
 C867 C 0.39100 -0.15327 0.40593
 C868 C 0.39127 -0.12095 0.39560
 C869 C 0.36987 -0.10684 0.36435
 C870 C 0.34927 -0.12571 0.34175
 C871 C 0.36986 -0.07415 0.35583
 C872 C 0.39133 -0.05585 0.37714
 C873 C 0.41339 -0.07017 0.40612
 C874 C 0.41301 -0.10259 0.41570
 H875 H 0.31571 -0.16765 0.29870
 H876 H 0.38614 -0.21512 0.41934
 H877 H 0.35287 -0.24849 0.37652
 H878 H 0.40720 -0.16391 0.43054
 H879 H 0.33325 -0.11509 0.31684
 H880 H 0.35346 -0.06282 0.33245
 H881 H 0.39126 -0.03073 0.36993
 H882 H 0.42972 -0.11353 0.43902
 C883 C 0.34182 0.32988 -0.19778
 C884 C 0.36011 0.35051 -0.17348
 C885 C 0.38770 0.33968 -0.15547
 C886 C 0.39625 0.30867 -0.16039
 C887 C 0.37808 0.28838 -0.18389
 C888 C 0.35080 0.29850 -0.20429
 C889 C 0.40659 0.35993 -0.13278
 C890 C 0.39839 0.39107 -0.12751
 C891 C 0.37057 0.40221 -0.14398
 C892 C 0.35154 0.38182 -0.16719
 C893 C 0.36261 0.43356 -0.13707
 C894 C 0.38236 0.45363 -0.11501
 C895 C 0.41044 0.44265 -0.10042
 C896 C 0.41798 0.41124 -0.10622
 H897 H 0.32134 0.33890 -0.21311
 H898 H 0.41705 0.29993 -0.14566
 H899 H 0.38536 0.26429 -0.18403
 H900 H 0.42789 0.35147 -0.11956
 H901 H 0.33030 0.39030 -0.18049
 H902 H 0.34129 0.44258 -0.14903
 H903 H 0.37606 0.47778 -0.11049
 H904 H 0.43935 0.40236 -0.09400
 C905 C 1.15821 -0.18718 0.17470
 C906 C 1.14140 -0.16094 0.16137
 C907 C 1.15123 -0.13094 0.17231
 C908 C 1.17834 -0.12806 0.19625
 C909 C 1.19435 -0.15486 0.21207
 C910 C 1.18356 -0.18499 0.20364
 C911 C 1.13348 -0.10470 0.15986
 C912 C 1.10569 -0.10862 0.13823
 C913 C 1.09598 -0.13903 0.12851
 C914 C 1.11412 -0.16480 0.13916
 C915 C 1.06819 -0.14340 0.10823
 C916 C 1.05035 -0.11779 0.09591
 C917 C 1.06007 -0.08724 0.10318
 C918 C 1.08755 -0.08279 0.12547
 H919 H 1.15078 -0.20968 0.16329
 H920 H 1.18648 -0.10522 0.20466
 H921 H 1.21390 -0.15178 0.23360
 H922 H 1.14097 -0.08148 0.16769
 H923 H 1.10660 -0.18805 0.13141
 H924 H 1.06041 -0.16663 0.10116
 H925 H 1.02925 -0.12193 0.07911
 H926 H 1.09531 -0.05933 0.13107
 C927 C 1.16167 0.30342 0.68641
 C928 C 1.14266 0.32750 0.67010
 C929 C 1.14983 0.35885 0.67848
 C930 C 1.17611 0.36549 0.70261
 C931 C 1.19468 0.34119 0.71964
 C932 C 1.18733 0.30995 0.71248
 C933 C 1.13052 0.38295 0.66292
 C934 C 1.10420 0.37603 0.63914
 C935 C 1.09706 0.34468 0.63074
 C936 C 1.11637 0.32059 0.64630
 C937 C 1.07091 0.33802 0.60634
 C938 C 1.05240 0.36229 0.58910
 C939 C 1.05957 0.39358 0.59656
 C940 C 1.08526 0.40013 0.62258
 H941 H 1.15618 0.27942 0.67960
 H942 H 1.18196 0.38940 0.70921
 H943 H 1.21425 0.34674 0.73979
 H944 H 1.13600 0.40704 0.66921
 H945 H 1.11092 0.29649 0.63995
 H946 H 1.06512 0.31410 0.59964
 H947 H 1.03287 0.35660 0.56896
 H948 H 1.09131 0.42414 0.62825
 C949 C 0.66260 -0.18839 0.72084
 C950 C 0.64837 -0.16364 0.69483
 C951 C 0.65995 -0.15247 0.64858
 C952 C 0.68588 -0.16593 0.62949
 C953 C 0.70049 -0.18983 0.65622
 C954 C 0.68923 -0.20145 0.70245
 C955 C 0.64548 -0.12804 0.62221
 C956 C 0.61965 -0.11442 0.64179
 C957 C 0.60857 -0.12510 0.68873
 C958 C 0.62294 -0.14960 0.71485
 C959 C 0.58280 -0.11163 0.70839
 C960 C 0.56725 -0.08892 0.68089
 C961 C 0.57734 -0.07894 0.63346
 C962 C 0.60412 -0.09104 0.61461
 H963 H 0.65378 -0.19603 0.75681
 H964 H 0.69501 -0.15783 0.59395
 H965 H 0.72025 -0.19979 0.63963
 H966 H 0.65415 -0.11983 0.58638
 H967 H 0.61417 -0.15792 0.75057
 H968 H 0.57412 -0.11938 0.74439
 H969 H 0.54670 -0.07979 0.69615
 H970 H 0.61184 -0.08371 0.57782
 C971 C 0.66009 0.32959 0.20206
 C972 C 0.64131 0.35037 0.17531
 C973 C 0.61777 0.33819 0.14864
 C974 C 0.61412 0.30588 0.14715
 C975 C 0.63295 0.28557 0.17304
 C976 C 0.65557 0.29699 0.20198
 C977 C 0.59797 0.35840 0.12408
 C978 C 0.60140 0.39077 0.12511
 C979 C 0.62553 0.40335 0.14971
 C980 C 0.64530 0.38301 0.17508
 C981 C 0.62913 0.43604 0.14866
 C982 C 0.60863 0.45589 0.12440
 C983 C 0.58399 0.44325 0.10198
 C984 C 0.58075 0.41073 0.10204
 H985 H 0.67760 0.33877 0.22374
 H986 H 0.59654 0.29626 0.12607
 H987 H 0.62966 0.26068 0.17037
 H988 H 0.57965 0.34888 0.10446
 H989 H 0.66353 0.39254 0.19481
 H990 H 0.64763 0.44621 0.16683
 H991 H 0.61150 0.48100 0.12434
 H992 H 0.56201 0.40092 0.08386
 C993 C 0.84261 0.20596 0.18455
 C994 C 0.85831 0.18026 0.16731
 C995 C 0.84951 0.14955 0.18273
 C996 C 0.82501 0.14516 0.21514
 C997 C 0.80945 0.17094 0.23214
 C998 C 0.81816 0.20153 0.21710
 C999 C 0.86533 0.12383 0.16550
 C1000 C 0.88979 0.12849 0.13302
 C1001 C 0.89842 0.15927 0.11762
 C1002 C 0.88266 0.18491 0.13483
 C1003 C 0.92274 0.16399 0.08516
 C1004 C 0.93848 0.13851 0.06804
 C1005 C 0.93026 0.10771 0.08304
 C1006 C 0.90579 0.10289 0.11564
 H1007 H 0.84921 0.22945 0.17218
 H1008 H 0.81795 0.12182 0.22744
 H1009 H 0.79081 0.16700 0.25761
 H1010 H 0.85862 0.10027 0.17734
 H1011 H 0.88936 0.20848 0.12299
 H1012 H 0.92961 0.18742 0.07298
 H1013 H 0.95716 0.14306 0.04289
 H1014 H 0.89915 0.07932 0.12743
 C1015 C 0.86770 0.69952 0.68056
 C1016 C 0.88088 0.67275 0.66205
 C1017 C 0.87214 0.64279 0.68132
 C1018 C 0.85051 0.64022 0.71925
 C1019 C 0.83740 0.66708 0.73741
 C1020 C 0.84577 0.69692 0.71805
 C1021 C 0.88499 0.61597 0.66213
 C1022 C 0.90651 0.61880 0.62400
 C1023 C 0.91534 0.64884 0.60514
 C1024 C 0.90244 0.67558 0.62418
 C1025 C 0.93706 0.65171 0.56759
 C1026 C 0.95008 0.62510 0.54890
 C1027 C 0.94138 0.59503 0.56692
 C1028 C 0.91946 0.59208 0.60455
 H1029 H 0.87394 0.72241 0.66480
 H1030 H 0.84360 0.61748 0.73462
 H1031 H 0.82070 0.66453 0.76663
 H1032 H 0.87824 0.59297 0.67677
 H1033 H 0.90916 0.69859 0.60951
 H1034 H 0.94415 0.67455 0.55288
 H1035 H 0.96715 0.62820 0.52039
 H1036 H 0.91270 0.56908 0.61911
 C1037 C 0.33833 0.18253 0.67571
 C1038 C 0.35410 0.15541 0.66356
 C1039 C 0.37547 0.14263 0.69628
 C1040 C 0.38024 0.15644 0.74073
 C1041 C 0.36484 0.18345 0.75214
 C1042 C 0.34423 0.19709 0.71952
 C1043 C 0.39254 0.11683 0.68353
 C1044 C 0.38925 0.10403 0.63789
 C1045 C 0.36745 0.11592 0.60541
 C1046 C 0.34969 0.14144 0.61872
 C1047 C 0.36470 0.10276 0.55955
 C1048 C 0.38454 0.07937 0.54509
 C1049 C 0.40725 0.06890 0.57641
 C1050 C 0.40866 0.08051 0.62340
 H1051 H 0.32237 0.19292 0.65050
 H1052 H 0.39636 0.14673 0.76626
 H1053 H 0.36918 0.19389 0.78658
 H1054 H 0.40927 0.10750 0.70835
 H1055 H 0.33330 0.15106 0.59357
 H1056 H 0.34800 0.11136 0.53419
 H1057 H 0.38309 0.07064 0.50868
 H1058 H 0.42589 0.07218 0.64804
 C1059 C 0.32427 0.67894 0.19889
 C1060 C 0.34090 0.65330 0.18305
 C1061 C 0.36228 0.63914 0.21437
 C1062 C 0.36577 0.64979 0.26151
 C1063 C 0.34924 0.67523 0.27688
 C1064 C 0.32896 0.69061 0.24540
 C1065 C 0.38064 0.61530 0.19756
 C1066 C 0.37833 0.60576 0.14952
 C1067 C 0.35613 0.61872 0.11870
 C1068 C 0.33735 0.64234 0.13583
 C1069 C 0.35404 0.60869 0.07064
 C1070 C 0.37492 0.58752 0.05246
 C1071 C 0.39810 0.57628 0.08212
 C1072 C 0.39900 0.58460 0.13109
 H1073 H 0.30871 0.69060 0.17428
 H1074 H 0.38178 0.63889 0.28613
 H1075 H 0.35263 0.68318 0.31338
 H1076 H 0.39754 0.60506 0.22122
 H1077 H 0.32081 0.65294 0.11188
 H1078 H 0.33703 0.61814 0.04656
 H1079 H 0.37397 0.58136 0.01454
 H1080 H 0.41673 0.57566 0.15424
   
