data_POSCAR
  _audit_creation_date              2014-09-24
  _audit_creation_method            'ToBaCCo'
  _symmetry_space_group_name_H-M    'P1'
  _symmetry_Int_Tables_number       1
  _symmetry_cell_setting            triclinic
  loop_
  _symmetry_equiv_pos_as_xyz
 x,y,z
_cell_length_a 40.2554
_cell_length_b 40.3502
_cell_length_c 40.3204
_cell_angle_alpha 86.857600
_cell_angle_beta 82.461000
_cell_angle_gamma 90.228600
loop_
  _atom_site_label
  _atom_site_type_symbol
  _atom_site_fract_x
  _atom_site_fract_y
  _atom_site_fract_z
C1 C 0.56279 0.41859 -0.01781
 C2 C 0.58640 0.44278 -0.01613
 C3 C 0.56943 0.46999 -0.00297
 N4 N 0.53614 0.46347 0.00246
 C5 C 0.53204 0.43211 -0.00670
 C6 C 0.58453 0.49971 0.00534
 C7 C 0.56522 0.52847 0.01233
 C8 C 0.57438 0.55386 0.03128
 C9 C 0.55035 0.57779 0.03059
 C10 C 0.52703 0.56650 0.01125
 N11 N 0.53593 0.53607 0.00068
 C12 C 0.49889 0.58480 0.00306
 C13 C 0.47012 0.56847 -0.00538
 C14 C 0.44400 0.58368 -0.01943
 C15 C 0.42026 0.55958 -0.02096
 C16 C 0.43307 0.53018 -0.00886
 N17 N 0.46349 0.53567 0.00075
 C18 C 0.41578 0.49942 -0.00458
 C19 C 0.43157 0.46890 0.00167
 C20 C 0.41496 0.43882 0.01015
 C21 C 0.43910 0.41488 0.01059
 C22 C 0.46985 0.43093 0.00239
 N23 N 0.46499 0.46381 -0.00319
 C24 C 0.50109 0.41486 -0.00290
 H25 H 0.56781 0.39396 -0.02641
 H26 H 0.61304 0.44043 -0.02370
 H27 H 0.48311 0.48109 -0.01368
 H28 H 0.59608 0.55495 0.04445
 H29 H 0.54998 0.60085 0.04313
 H30 H 0.44207 0.60948 -0.02771
 H31 H 0.39641 0.56338 -0.03011
 H32 H 0.43434 0.38853 0.01540
 H33 H 0.52462 0.52289 -0.01642
 H34 H 0.38821 0.43427 0.01453
 C35 C 0.01779 0.55646 0.58093
 C36 C 0.01723 0.58159 0.55681
 C37 C 0.00501 0.56804 0.52982
 N38 N -0.00109 0.53519 0.53649
 C39 C 0.00691 0.52803 0.56766
 C40 C -0.00109 0.58616 0.50002
 C41 C -0.00728 0.57013 0.47083
 C42 C -0.02143 0.58525 0.44432
 C43 C -0.02131 0.56242 0.42033
 C44 C -0.00804 0.53351 0.43305
 N45 N 0.00058 0.53843 0.46382
 C46 C -0.00251 0.50428 0.41537
 C47 C 0.00249 0.47284 0.43102
 C48 C 0.00842 0.44387 0.41433
 C49 C 0.00896 0.41867 0.43844
 C50 C 0.00344 0.43302 0.46913
 N51 N -0.00088 0.46607 0.46449
 C52 C 0.00024 0.41521 0.50061
 C53 C -0.00370 0.43039 0.53172
 C54 C -0.01131 0.41348 0.56272
 C55 C -0.01082 0.43646 0.58656
 C56 C -0.00288 0.46687 0.56959
 N57 N 0.00171 0.46287 0.53621
 C58 C 0.00275 0.49662 0.58512
 H59 H 0.02562 0.55897 0.60533
 H60 H 0.02511 0.60695 0.55899
 H61 H 0.01174 0.48049 0.51793
 H62 H -0.03085 0.61025 0.44231
 H63 H -0.03019 0.56680 0.39632
 H64 H 0.01121 0.44095 0.38759
 H65 H 0.01237 0.39268 0.43377
 H66 H -0.01501 0.43105 0.61336
 H67 H 0.01447 0.52239 0.47750
 H68 H -0.01604 0.38718 0.56786
 C69 C 0.41203 0.01605 0.56451
 C70 C 0.43482 0.01701 0.58688
 C71 C 0.46473 0.00502 0.57102
 N72 N 0.46108 -0.00238 0.53938
 C73 C 0.42895 0.00456 0.53531
 C74 C 0.49455 0.00018 0.58589
 C75 C 0.52560 -0.00672 0.56645
 C76 C 0.55290 -0.02086 0.57927
 C77 C 0.57875 -0.02062 0.55352
 C78 C 0.56650 -0.00733 0.52503
 N79 N 0.53396 0.00111 0.53329
 C80 C 0.58610 0.00023 0.49344
 C81 C 0.57135 0.00743 0.46382
 C82 C 0.58856 0.01706 0.43260
 C83 C 0.56560 0.01764 0.41030
 C84 C 0.53521 0.00773 0.42836
 N85 N 0.53881 0.00144 0.46096
 C86 C 0.50546 0.00216 0.41429
 C87 C 0.47423 -0.00513 0.43386
 C88 C 0.44629 -0.01731 0.42152
 C89 C 0.42045 -0.01827 0.44746
 C90 C 0.43337 -0.00703 0.47511
 N91 N 0.46616 0.00101 0.46656
 C92 C 0.41428 -0.00132 0.50622
 H93 H 0.38608 0.02330 0.56923
 H94 H 0.42979 0.02569 0.61193
 H95 H 0.48092 0.01385 0.48095
 H96 H 0.55435 -0.02989 0.60481
 H97 H 0.60384 -0.02867 0.55623
 H98 H 0.61505 0.02222 0.42605
 H99 H 0.57094 0.02385 0.38368
 H100 H 0.39493 -0.02575 0.44575
 H101 H 0.51960 0.01531 0.51835
 H102 H 0.44448 -0.02421 0.39626
 O103 O 0.47103 -0.00037 -0.04127
 O104 O 0.47414 -0.00097 0.04957
 O105 O 0.47250 0.04492 0.00245
 O106 O 0.47283 -0.04650 0.00633
 O107 O 0.52805 -0.04567 -0.00324
 O108 O 0.52777 0.04577 -0.00703
 O109 O 0.52940 -0.00060 0.04051
 O110 O 0.52628 0.00079 -0.05039
 Cu111 Cu 0.46708 -0.00086 0.00513
 Cu112 Cu 0.53341 0.00012 -0.00592
 C113 C 0.49813 0.00045 -0.06140
 C114 C 0.50228 -0.00079 0.06059
 C115 C 0.50008 0.06096 -0.00285
 C116 C 0.50049 -0.06175 0.00218
 O117 O -0.04517 0.52742 1.00078
 O118 O 0.04687 0.52557 0.99419
 O119 O 0.00375 0.52464 0.95182
 O120 O -0.00193 0.52821 1.04355
 O121 O -0.00233 0.47345 1.04867
 O122 O 0.00039 0.46995 0.95733
 O123 O 0.04498 0.47080 0.99908
 O124 O -0.04710 0.47279 1.00746
 Cu125 Cu 0.00103 0.53196 0.99708
 Cu126 Cu -0.00124 0.46626 1.00360
 C127 C -0.06190 0.50042 1.00534
 C128 C 0.06163 0.49786 0.99553
 C129 C 0.00277 0.49668 0.93895
 C130 C -0.00263 0.50140 1.06172
 O131 O 0.00353 -0.04354 0.47134
 O132 O 0.00598 0.04763 0.47183
 O133 O 0.04995 0.00057 0.47382
 O134 O -0.04083 0.00328 0.46929
 O135 O -0.05077 -0.00227 0.52447
 O136 O 0.04000 -0.00023 0.52903
 O137 O -0.00647 0.04437 0.52687
 O138 O -0.00480 -0.04677 0.52661
 Cu139 Cu 0.00562 0.00237 0.46602
 Cu140 Cu -0.00645 -0.00152 0.53229
 C141 C -0.00073 -0.06078 0.49892
 C142 C -0.00020 0.06158 0.49942
 C143 C 0.06048 0.00001 0.50220
 C144 C -0.06132 0.00043 0.49611
 C145 C -0.31070 0.50226 1.01135
 C146 C -0.32624 0.52891 0.99583
 C147 C -0.36066 0.52813 0.99409
 C148 C -0.38057 0.50065 1.00782
 C149 C -0.36496 0.47437 1.02408
 C150 C -0.33051 0.47509 1.02566
 C151 C -0.27399 0.50253 1.01212
 N152 N -0.25829 0.47506 1.02299
 N153 N -0.22520 0.47500 1.02290
 C154 C -0.20638 0.50244 1.01201
 N155 N -0.22210 0.52997 1.00132
 N156 N -0.25519 0.53000 1.00132
 C157 C -0.16947 0.50212 1.01119
 C158 C -0.15039 0.53142 1.00320
 C159 C -0.11551 0.53094 1.00168
 C160 C -0.09890 0.50112 1.00790
 C161 C -0.11797 0.47188 1.01611
 C162 C -0.15285 0.47239 1.01784
 H163 H -0.31173 0.55022 0.98449
 H164 H -0.37156 0.54870 0.98103
 H165 H -0.37950 0.45338 1.03616
 H166 H -0.31945 0.45433 1.03822
 H167 H -0.16237 0.55477 0.99803
 H168 H -0.10154 0.55390 0.99527
 H169 H -0.10593 0.44851 1.02112
 H170 H -0.16674 0.44936 1.02403
 C171 C 0.30942 0.49811 0.99274
 C172 C 0.33165 0.50297 0.96291
 C173 C 0.36627 0.50311 0.96368
 C174 C 0.37911 0.49922 0.99434
 C175 C 0.35698 0.49482 1.02417
 C176 C 0.32243 0.49389 1.02336
 C177 C 0.27284 0.49739 0.99204
 N178 N 0.25231 0.48027 1.01656
 N179 N 0.21930 0.47972 1.01614
 C180 C 0.20546 0.49653 0.99136
 N181 N 0.22598 0.51373 0.96687
 N182 N 0.25904 0.51401 0.96711
 C183 C 0.16877 0.49644 0.99141
 C184 C 0.15305 0.52318 0.97624
 C185 C 0.11818 0.52368 0.97758
 C186 C 0.09849 0.49709 0.99342
 C187 C 0.11427 0.47002 1.00792
 C188 C 0.14905 0.46987 1.00725
 H189 H 0.32227 0.50611 0.93897
 H190 H 0.38310 0.50641 0.94045
 H191 H 0.36657 0.49181 1.04802
 H192 H 0.30586 0.49031 1.04672
 H193 H 0.16766 0.54405 0.96398
 H194 H 0.10661 0.54480 0.96611
 H195 H 0.09964 0.44927 1.02041
 H196 H 0.16054 0.44887 1.01900
 C197 C -0.00240 -0.30835 0.49874
 C198 C 0.01546 -0.32467 0.47220
 C199 C 0.01586 -0.35931 0.47261
 C200 C -0.00171 -0.37862 0.49952
 C201 C -0.01992 -0.36210 0.52586
 C202 C -0.02013 -0.32748 0.52553
 C203 C -0.00239 -0.27162 0.49860
 N204 N -0.01541 -0.25591 0.52623
 N205 N -0.01517 -0.22291 0.52623
 C206 C -0.00200 -0.20420 0.49857
 N207 N 0.01095 -0.21990 0.47091
 N208 N 0.01081 -0.25292 0.47094
 C209 C -0.00168 -0.16748 0.49863
 C210 C 0.00753 -0.14806 0.46879
 C211 C 0.00774 -0.11343 0.46886
 C212 C -0.00102 -0.09744 0.49881
 C213 C -0.01011 -0.11683 0.52867
 C214 C -0.01055 -0.15145 0.52856
 H215 H 0.02953 -0.31070 0.45124
 H216 H 0.03061 -0.37106 0.45216
 H217 H -0.03454 -0.37601 0.54653
 H218 H -0.03443 -0.31572 0.54622
 H219 H 0.01444 -0.15958 0.44528
 H220 H 0.01491 -0.09918 0.44544
 H221 H -0.01705 -0.10526 0.55216
 H222 H -0.01769 -0.16563 0.55201
 C223 C 0.00021 0.30865 0.50090
 C224 C 0.03019 0.32690 0.49215
 C225 C 0.03023 0.36151 0.49251
 C226 C 0.00023 0.37842 0.50101
 C227 C -0.02978 0.36035 0.50945
 C228 C -0.02976 0.32570 0.50975
 C229 C 0.00018 0.27203 0.50071
 N230 N -0.02465 0.25367 0.51926
 N231 N -0.02463 0.22067 0.51915
 C232 C 0.00007 0.20470 0.50025
 N233 N 0.02483 0.22306 0.48159
 N234 N 0.02496 0.25605 0.48192
 C235 C 0.00001 0.16808 0.50001
 C236 C 0.01732 0.15209 0.47294
 C237 C 0.01698 0.11747 0.47259
 C238 C -0.00013 0.09817 0.49959
 C239 C -0.01716 0.11413 0.52681
 C240 C -0.01737 0.14876 0.52687
 H241 H 0.05367 0.31442 0.48538
 H242 H 0.05359 0.37518 0.48589
 H243 H -0.05316 0.37312 0.51592
 H244 H -0.05325 0.31230 0.51640
 H245 H 0.03081 0.16635 0.45184
 H246 H 0.03041 0.10580 0.45134
 H247 H -0.03065 0.09985 0.54790
 H248 H -0.03081 0.16040 0.54813
 C249 C 0.49289 0.00279 -0.30853
 C250 C 0.51791 0.01986 -0.33060
 C251 C 0.51815 0.01929 -0.36521
 C252 C 0.49347 0.00146 -0.37882
 C253 C 0.46834 -0.01553 -0.35657
 C254 C 0.46798 -0.01473 -0.32190
 C255 C 0.49318 0.00292 -0.27183
 N256 N 0.46652 -0.00883 -0.25013
 N257 N 0.46702 -0.00895 -0.21714
 C258 C 0.49426 0.00252 -0.20448
 N259 N 0.52089 0.01426 -0.22619
 N260 N 0.52034 0.01450 -0.25915
 C261 C 0.49509 0.00207 -0.16783
 C262 C 0.52529 0.00808 -0.15507
 C263 C 0.52625 0.00741 -0.12055
 C264 C 0.49699 0.00103 -0.09796
 C265 C 0.46674 -0.00480 -0.11066
 C266 C 0.46583 -0.00444 -0.14523
 H267 H 0.53733 0.03384 -0.32116
 H268 H 0.53752 0.03322 -0.38143
 H269 H 0.44948 -0.03033 -0.36596
 H270 H 0.44850 -0.02839 -0.30559
 H271 H 0.54831 0.01308 -0.17176
 H272 H 0.54994 0.01208 -0.11156
 H273 H 0.44378 -0.00985 -0.09388
 H274 H 0.44214 -0.00909 -0.15422
 C275 C 0.50789 0.00329 0.30714
 C276 C 0.48807 0.02594 0.32606
 C277 C 0.48780 0.02592 0.36073
 C278 C 0.50703 0.00301 0.37720
 C279 C 0.52690 -0.01961 0.35842
 C280 C 0.52754 -0.01931 0.32365
 C281 C 0.50757 0.00291 0.27049
 N282 N 0.53183 -0.01289 0.25083
 N283 N 0.53127 -0.01343 0.21789
 C284 C 0.50630 0.00160 0.20330
 N285 N 0.48203 0.01735 0.22298
 N286 N 0.48270 0.01806 0.25586
 C287 C 0.50536 0.00075 0.16678
 C288 C 0.47570 0.00831 0.15319
 C289 C 0.47466 0.00746 0.11877
 C290 C 0.50338 -0.00054 0.09709
 C291 C 0.53310 -0.00797 0.11060
 C292 C 0.53402 -0.00757 0.14513
 H293 H 0.47279 0.04377 0.31408
 H294 H 0.47234 0.04357 0.37484
 H295 H 0.54170 -0.03764 0.37075
 H296 H 0.54293 -0.03718 0.30981
 H297 H 0.45315 0.01467 0.16920
 H298 H 0.45142 0.01342 0.10908
 H299 H 0.55561 -0.01429 0.09450
 H300 H 0.55728 -0.01342 0.15481
 C301 C 0.50039 -0.30983 0.00642
 C302 C 0.52860 -0.32677 -0.00807
 C303 C 0.52811 -0.36134 -0.00899
 C304 C 0.49936 -0.38004 0.00452
 C305 C 0.47139 -0.36293 0.01964
 C306 C 0.47185 -0.32835 0.02043
 C307 C 0.50061 -0.27306 0.00666
 N308 N 0.47231 -0.25642 0.01740
 N309 N 0.47237 -0.22339 0.01715
 C310 C 0.50077 -0.20555 0.00620
 N311 N 0.52911 -0.22220 -0.00444
 N312 N 0.52902 -0.25523 -0.00425
 C313 C 0.50076 -0.16874 0.00556
 C314 C 0.53076 -0.15046 -0.00297
 C315 C 0.53070 -0.11577 -0.00388
 C316 C 0.50061 -0.09853 0.00357
 C317 C 0.47062 -0.11678 0.01216
 C318 C 0.47070 -0.15147 0.01323
 H319 H 0.55101 -0.31331 -0.01915
 H320 H 0.55003 -0.37341 -0.02120
 H321 H 0.44925 -0.37636 0.03155
 H322 H 0.44981 -0.31617 0.03220
 H323 H 0.55439 -0.16292 -0.00896
 H324 H 0.55425 -0.10246 -0.01061
 H325 H 0.44701 -0.10426 0.01808
 H326 H 0.44712 -0.16472 0.01986
 C327 C 0.50110 0.30832 -0.00434
 C328 C 0.50865 0.32798 -0.03429
 C329 C 0.50840 0.36263 -0.03391
 C330 C 0.50135 0.37811 -0.00351
 C331 C 0.49425 0.35857 0.02645
 C332 C 0.49377 0.32398 0.02602
 C333 C 0.50073 0.27168 -0.00467
 N334 N 0.48219 0.25309 0.02023
 N335 N 0.48179 0.22009 0.02000
 C336 C 0.50017 0.20432 -0.00497
 N337 N 0.51883 0.22291 -0.02981
 N338 N 0.51897 0.25593 -0.02975
 C339 C 0.49997 0.16766 -0.00493
 C340 C 0.52717 0.15081 -0.02158
 C341 C 0.52731 0.11611 -0.02076
 C342 C 0.49993 0.09763 -0.00390
 C343 C 0.47251 0.11449 0.01228
 C344 C 0.47269 0.14915 0.01207
 H345 H 0.51422 0.31659 -0.05806
 H346 H 0.51382 0.37741 -0.05726
 H347 H 0.48879 0.37020 0.05011
 H348 H 0.48806 0.30947 0.04950
 H349 H 0.54860 0.16443 -0.03476
 H350 H 0.54872 0.10373 -0.03353
 H351 H 0.45113 0.10086 0.02557
 H352 H 0.45132 0.16147 0.02499
 C353 C -0.30809 -0.00115 0.48860
 C354 C -0.32459 0.02838 0.48102
 C355 C -0.35949 0.02880 0.48255
 C356 C -0.37859 -0.00040 0.49122
 C357 C -0.36189 -0.03015 0.49766
 C358 C -0.32708 -0.03043 0.49678
 C359 C -0.27136 -0.00134 0.48871
 N360 N -0.25697 -0.02479 0.50748
 N361 N -0.22401 -0.02458 0.50831
 C362 C -0.20402 -0.00109 0.49018
 N363 N -0.21836 0.02223 0.47119
 N364 N -0.25138 0.02221 0.47060
 C365 C -0.16747 -0.00071 0.49150
 C366 C -0.14531 0.01428 0.46504
 C367 C -0.11075 0.01436 0.46632
 C368 C -0.09777 0.00010 0.49442
 C369 C -0.11996 -0.01459 0.52101
 C370 C -0.15441 -0.01529 0.51941
 H371 H -0.31060 0.05134 0.47473
 H372 H -0.37170 0.05209 0.47753
 H373 H -0.37587 -0.05321 0.50346
 H374 H -0.31500 -0.05365 0.50230
 H375 H -0.15467 0.02560 0.44316
 H376 H -0.09420 0.02593 0.44553
 H377 H -0.11063 -0.02589 0.54291
 H378 H -0.17089 -0.02688 0.54025
 C379 C 0.30698 -0.00198 0.51007
 C380 C 0.32460 0.02808 0.51062
 C381 C 0.35949 0.02829 0.50933
 C382 C 0.37718 -0.00159 0.50834
 C383 C 0.35957 -0.03169 0.50862
 C384 C 0.32480 -0.03187 0.50905
 C385 C 0.27030 -0.00212 0.50986
 N386 N 0.25524 -0.02632 0.49482
 N387 N 0.22229 -0.02609 0.49390
 C388 C 0.20301 -0.00187 0.50829
 N389 N 0.21802 0.02219 0.52358
 N390 N 0.25104 0.02217 0.52417
 C391 C 0.16651 -0.00148 0.50693
 C392 C 0.14465 0.01263 0.53226
 C393 C 0.11008 0.01272 0.53100
 C394 C 0.09688 -0.00051 0.50392
 C395 C 0.11878 -0.01427 0.47842
 C396 C 0.15322 -0.01513 0.48012
 H397 H 0.31150 0.05148 0.51122
 H398 H 0.37275 0.05174 0.50903
 H399 H 0.37289 -0.05497 0.50793
 H400 H 0.31180 -0.05539 0.50880
 H401 H 0.15425 0.02320 0.55327
 H402 H 0.09372 0.02358 0.55092
 H403 H 0.10920 -0.02477 0.45735
 H404 H 0.16953 -0.02602 0.46018
 C405 C -0.00322 0.50761 1.30865
 C406 C -0.03334 0.51019 1.33028
 C407 C -0.03323 0.50910 1.36500
 C408 C -0.00291 0.50639 1.37853
 C409 C 0.02723 0.50439 1.35697
 C410 C 0.02706 0.50465 1.32233
 C411 C -0.00332 0.50727 1.27203
 N412 N 0.02087 0.49100 1.25280
 N413 N 0.02064 0.49019 1.21986
 C414 C -0.00360 0.50591 1.20476
 N415 N -0.02769 0.52240 1.22394
 N416 N -0.02766 0.52291 1.25697
 C417 C -0.00379 0.50480 1.16822
 C418 C -0.01763 0.53079 1.15005
 C419 C -0.01702 0.52990 1.11532
 C420 C -0.00336 0.50260 1.09834
 C421 C 0.00998 0.47640 1.11661
 C422 C 0.01013 0.47767 1.15114
 H423 H -0.05704 0.51222 1.32039
 H424 H -0.05673 0.51030 1.38137
 H425 H 0.05081 0.50210 1.36707
 H426 H 0.05064 0.50274 1.30623
 H427 H -0.02839 0.55205 1.16260
 H428 H -0.02755 0.55037 1.10179
 H429 H 0.02081 0.45514 1.10409
 H430 H 0.02082 0.45723 1.16455
 C431 C 0.00510 0.49270 0.69163
 C432 C 0.03494 0.49682 0.66935
 C433 C 0.03427 0.49747 0.63473
 C434 C 0.00370 0.49487 0.62187
 C435 C -0.02612 0.49089 0.64402
 C436 C -0.02541 0.48943 0.67863
 C437 C 0.00568 0.49229 0.72823
 N438 N -0.01868 0.47615 0.74968
 N439 N -0.01841 0.47614 0.78269
 C440 C 0.00604 0.49257 0.79557
 N441 N 0.03036 0.50877 0.77412
 N442 N 0.03029 0.50849 0.74110
 C443 C 0.00584 0.49325 0.83222
 C444 C 0.02056 0.51997 0.84606
 C445 C 0.01941 0.52117 0.88078
 C446 C 0.00421 0.49528 0.90227
 C447 C -0.00995 0.46824 0.88841
 C448 C -0.00950 0.46742 0.85373
 H449 H 0.05880 0.49921 0.67870
 H450 H 0.05751 0.50045 0.61791
 H451 H -0.04992 0.48886 0.63444
 H452 H -0.04878 0.48641 0.69522
 H453 H 0.03241 0.54028 0.83007
 H454 H 0.03063 0.54223 0.89083
 H455 H -0.02192 0.44802 0.90444
 H456 H -0.02091 0.44646 0.84371
   
