data_POSCAR
  _audit_creation_date              2014-09-24
  _audit_creation_method            'ToBaCCo'
  _symmetry_space_group_name_H-M    'P1'
  _symmetry_Int_Tables_number       1
  _symmetry_cell_setting            triclinic
  loop_
  _symmetry_equiv_pos_as_xyz
 x,y,z
_cell_length_a 38.9092
_cell_length_b 39.3147
_cell_length_c 37.8954
_cell_angle_alpha 91.012500
_cell_angle_beta 91.991600
_cell_angle_gamma 89.145300
loop_
  _atom_site_label
  _atom_site_type_symbol
  _atom_site_fract_x
  _atom_site_fract_y
  _atom_site_fract_z
C1 C 0.17720 0.20453 0.21815
 C2 C 0.17534 0.22811 0.19085
 C3 C 0.20285 0.23180 0.16891
 C4 C 0.23234 0.21090 0.17348
 C5 C 0.23390 0.18779 0.20063
 C6 C 0.20665 0.18508 0.22333
 C7 C 0.15372 0.19384 0.24191
 N8 N 0.16875 0.16875 0.26159
 C9 C 0.20115 0.16337 0.25039
 C10 C 0.26227 0.16740 0.19626
 N11 N 0.27816 0.17702 0.16684
 C12 C 0.26054 0.20419 0.15304
 C13 C 0.19310 0.25603 0.14443
 N14 N 0.16052 0.26662 0.15106
 C15 C 0.14941 0.24951 0.17912
 H16 H 0.12762 0.20331 0.24438
 H17 H 0.21905 0.14413 0.26029
 H18 H 0.26933 0.14546 0.21199
 H19 H 0.26593 0.21611 0.12833
 H20 H 0.20828 0.26493 0.12314
 H21 H 0.12433 0.25268 0.19036
 C22 C -0.22073 0.76867 0.28371
 C23 C -0.22146 0.74333 0.25712
 C24 C -0.24685 0.74415 0.23060
 C25 C -0.27186 0.77027 0.23036
 C26 C -0.27122 0.79510 0.25670
 C27 C -0.24550 0.79431 0.28350
 C28 C -0.19628 0.77718 0.30939
 N29 N -0.20548 0.80747 0.32447
 C30 C -0.23574 0.81793 0.30899
 C31 C -0.29524 0.81965 0.24728
 N32 N -0.31027 0.81052 0.21569
 C33 C -0.29630 0.78020 0.20529
 C34 C -0.23864 0.71937 0.20604
 N35 N -0.20897 0.70356 0.21697
 C36 C -0.19828 0.71802 0.24819
 H37 H -0.17242 0.76346 0.31495
 H38 H -0.24854 0.84207 0.31413
 H39 H -0.29979 0.84344 0.26130
 H40 H -0.30190 0.76732 0.18029
 H41 H -0.25228 0.71443 0.18113
 H42 H -0.17444 0.71186 0.26239
 C43 C -0.18975 0.22513 -0.25277
 C44 C -0.19331 0.25387 -0.23045
 C45 C -0.21777 0.25423 -0.20460
 C46 C -0.23900 0.22608 -0.20073
 C47 C -0.23606 0.19847 -0.22346
 C48 C -0.21114 0.19777 -0.24905
 C49 C -0.16564 0.21529 -0.27708
 N50 N -0.17173 0.18243 -0.28717
 C51 C -0.19971 0.17181 -0.27033
 C52 C -0.25818 0.17413 -0.21303
 N53 N -0.27412 0.18579 -0.18384
 C54 C -0.26250 0.21760 -0.17591
 C55 C -0.21381 0.28388 -0.18525
 N56 N -0.18761 0.30154 -0.19852
 C57 C -0.17479 0.28336 -0.22606
 H58 H -0.14400 0.23007 -0.28489
 H59 H -0.21005 0.14637 -0.27201
 H60 H -0.26120 0.14904 -0.22490
 H61 H -0.27011 0.23314 -0.15356
 H62 H -0.22819 0.29150 -0.16240
 H63 H -0.15295 0.29056 -0.24106
 C64 C 0.19697 0.77244 -0.22463
 C65 C 0.19384 0.75367 -0.19386
 C66 C 0.22089 0.75188 -0.16921
 C67 C 0.25122 0.76963 -0.17475
 C68 C 0.25466 0.78730 -0.20571
 C69 C 0.22740 0.78863 -0.23083
 C70 C 0.17320 0.78270 -0.25016
 N71 N 0.18853 0.80476 -0.27169
 C72 C 0.22182 0.80818 -0.26031
 C73 C 0.28413 0.80602 -0.20195
 N74 N 0.29803 0.80124 -0.16901
 C75 C 0.27835 0.77862 -0.15233
 C76 C 0.20983 0.73338 -0.14128
 N77 N 0.17680 0.72424 -0.14852
 C78 C 0.16669 0.73688 -0.18034
 H79 H 0.14626 0.77611 -0.25169
 H80 H 0.23992 0.82562 -0.27096
 H81 H 0.29268 0.82453 -0.22045
 H82 H 0.28190 0.77135 -0.12500
 H83 H 0.22444 0.72749 -0.11726
 H84 H 0.14143 0.73386 -0.19281
 C85 C 0.20748 1.19405 0.78389
 C86 C 0.23503 1.19770 0.80855
 C87 C 0.23224 1.22015 0.83694
 C88 C 0.20205 1.23960 0.84076
 C89 C 0.17471 1.23542 0.81683
 C90 C 0.17742 1.21258 0.78828
 C91 C 0.20231 1.17327 0.75456
 N92 N 0.16978 1.17871 0.74126
 C93 C 0.15439 1.20272 0.76182
 C94 C 0.14831 1.25612 0.82777
 N95 N 0.15912 1.27340 0.85738
 C96 C 0.19200 1.26344 0.86560
 C97 C 0.26125 1.21591 0.85836
 N98 N 0.28152 1.19152 0.84362
 C99 C 0.26589 1.18050 0.81300
 H100 H 0.22064 1.15502 0.74416
 H101 H 0.12823 1.21212 0.75807
 H102 H 0.12320 1.25876 0.81478
 H103 H 0.20734 1.27256 0.88811
 H104 H 0.26647 1.22844 0.88361
 H105 H 0.27528 1.15998 0.79633
 C106 C 0.77944 0.79686 0.71975
 C107 C 0.75298 0.79755 0.74418
 C108 C 0.75042 0.77114 0.76753
 C109 C 0.77386 0.74389 0.76691
 C110 C 0.80017 0.74328 0.74334
 C111 C 0.80306 0.77006 0.71960
 C112 C 0.79009 0.82018 0.69584
 N113 N 0.81970 0.80844 0.68154
 C114 C 0.82782 0.77782 0.69601
 C115 C 0.82114 0.71573 0.75174
 N116 N 0.80806 0.69997 0.77992
 C117 C 0.77904 0.71699 0.78912
 C118 C 0.72572 0.78004 0.79107
 N119 N 0.71303 0.81130 0.78284
 C120 C 0.72931 0.82223 0.75401
 H121 H 0.77790 0.84456 0.69038
 H122 H 0.85051 0.76264 0.69048
 H123 H 0.84501 0.70879 0.73943
 H124 H 0.76370 0.71133 0.81155
 H125 H 0.71880 0.76560 0.81377
 H126 H 0.72580 0.84711 0.74253
 C127 C 0.23724 0.81167 1.22153
 C128 C 0.26370 0.80994 1.19698
 C129 C 0.26039 0.78867 1.16738
 C130 C 0.23076 0.76906 1.16173
 C131 C 0.20481 0.77137 1.18561
 C132 C 0.20817 0.79233 1.21556
 C133 C 0.23187 0.83075 1.25205
 N134 N 0.20037 0.82304 1.26424
 C135 C 0.18592 0.79957 1.24192
 C136 C 0.17801 0.75213 1.17267
 N137 N 0.18708 0.73768 1.14163
 C138 C 0.21939 0.74759 1.13459
 C139 C 0.28822 0.79400 1.14689
 N140 N 0.30843 0.81790 1.16302
 C141 C 0.29378 0.82770 1.19376
 H142 H 0.24927 0.84920 1.26402
 H143 H 0.16062 0.78886 1.24425
 H144 H 0.15345 0.74908 1.18476
 H145 H 0.23301 0.74065 1.11103
 H146 H 0.29268 0.78235 1.12132
 H147 H 0.30344 0.84741 1.21161
 C148 C 0.79879 1.19945 1.24586
 C149 C 0.77264 1.20014 1.21936
 C150 C 0.76759 1.22891 1.19925
 C151 C 0.78786 1.25760 1.20598
 C152 C 0.81333 1.25719 1.23242
 C153 C 0.81881 1.22784 1.25261
 C154 C 0.81207 1.17372 1.26660
 N155 N 0.83944 1.18578 1.28605
 C156 C 0.84354 1.21900 1.27792
 C157 C 0.83093 1.28729 1.23046
 N158 N 0.81658 1.30576 1.20362
 C159 C 0.79016 1.28782 1.18869
 C160 C 0.74277 1.22155 1.17356
 N161 N 0.73211 1.18931 1.17818
 C162 C 0.75011 1.17595 1.20610
 H163 H 0.80303 1.14780 1.26671
 H164 H 0.86404 1.23507 1.28826
 H165 H 0.85352 1.29444 1.24620
 H166 H 0.77487 1.29540 1.16565
 H167 H 0.73322 1.23830 1.15296
 H168 H 0.74770 1.15022 1.21533
 O169 O 0.54922 0.97455 0.92121
 O170 O 0.49111 0.97606 1.06254
 O171 O 0.56555 0.95675 1.02784
 O172 O 0.44541 0.98408 0.96065
 O173 O 0.55249 0.99179 1.06782
 O174 O 0.48727 0.96452 0.93007
 O175 O 0.46864 0.95713 1.01425
 O176 O 0.57288 0.95214 0.96711
 C177 C 0.56844 0.95259 0.93469
 C178 C 0.47497 0.95311 1.04610
 C179 C 0.56364 0.96320 1.05945
 C180 C 0.45667 0.96311 0.93852
 O181 O 0.47740 1.03170 0.93074
 O182 O 0.53756 1.05236 1.04255
 O183 O 0.58582 1.01986 0.96228
 O184 O 0.43165 1.01047 1.02558
 O185 O 0.47566 1.04104 1.04468
 O186 O 0.54214 1.03834 0.92803
 O187 O 0.46310 1.04467 0.98349
 O188 O 0.58366 1.02496 1.02686
 Co189 Co 0.51392 1.00218 0.93379
 Co190 Co 0.51454 1.01361 1.04847
 Co191 Co 0.57232 0.98955 0.99621
 Co192 Co 0.46870 1.00076 0.99959
 O193 O 0.51931 1.00027 0.99172
 C194 C 0.46210 1.05112 0.95153
 C195 C 0.56938 1.05130 1.03947
 C196 C 0.57322 1.03961 0.93864
 C197 C 0.44412 1.03350 1.04786
 O198 O 0.02383 0.47951 0.06129
 O199 O 0.02842 0.54057 -0.03505
 O200 O -0.01301 0.44311 -0.03053
 O201 O -0.00745 0.58466 0.03477
 O202 O 0.02635 0.47911 -0.03735
 O203 O 0.02754 0.54495 0.05378
 O204 O -0.00773 0.58140 -0.02917
 O205 O -0.01022 0.44242 0.03421
 C206 C 0.01670 0.44948 0.05239
 C207 C 0.02227 0.57157 -0.03478
 C208 C 0.01758 0.44906 -0.03644
 C209 C 0.02194 0.57531 0.04620
 O210 O -0.03668 0.55039 0.07628
 O211 O -0.03789 0.48276 -0.06956
 O212 O -0.07418 0.46473 0.03670
 O213 O -0.07175 0.55496 -0.03032
 O214 O -0.03443 0.54381 -0.06912
 O215 O -0.04068 0.48711 0.07843
 O216 O -0.07257 0.56245 0.03372
 O217 O -0.07512 0.47294 -0.03005
 Co218 Co -0.00791 0.51567 0.06134
 Co219 Co -0.00599 0.51178 -0.04812
 Co220 Co -0.04151 0.46137 0.00238
 Co221 Co -0.03849 0.56612 0.00224
 O222 O -0.02358 0.51367 0.00468
 C223 C -0.06572 0.56135 0.06589
 C224 C -0.06764 0.47377 -0.06169
 C225 C -0.06727 0.47081 0.06865
 C226 C -0.06420 0.55335 -0.06182
 O227 O 1.08177 0.02753 0.46791
 O228 O 0.97271 0.03679 0.53809
 O229 O 0.98667 0.01136 0.42839
 O230 O 1.03160 0.03464 0.55516
 O231 O 0.97611 0.04451 0.47310
 O232 O 1.08209 0.02350 0.53578
 O233 O 0.98607 0.00531 0.58459
 O234 O 1.04830 0.00420 0.42584
 C235 C 1.07028 0.02612 0.43643
 C236 C 0.96737 0.03014 0.57041
 C237 C 0.97763 0.04009 0.44050
 C238 C 1.06286 0.04082 0.55495
 O239 O 1.08317 -0.04285 0.52929
 O240 O 0.94622 -0.01573 0.46223
 O241 O 1.04246 -0.06181 0.44642
 O242 O 0.99360 -0.05021 0.54781
 O243 O 0.94909 -0.02621 0.52549
 O244 O 1.08832 -0.03660 0.46370
 O245 O 1.04872 -0.02702 0.57122
 O246 O 0.98328 -0.05433 0.45421
 Co247 Co 1.07765 -0.00715 0.49923
 Co248 Co 0.96657 0.00808 0.49942
 Co249 Co 1.01518 -0.02390 0.44312
 Co250 Co 1.01189 -0.00765 0.54780
 O251 O 1.02080 -0.00913 0.49585
 C252 C 1.07326 -0.04506 0.56033
 C253 C 0.95280 -0.04574 0.45378
 C254 C 1.07416 -0.06028 0.44703
 C255 C 0.96236 -0.05105 0.54118
 C256 C 1.12498 0.11338 0.33734
 N257 N 1.15927 0.11127 0.33242
 N258 N 1.17347 0.12943 0.30767
 C259 C 1.15403 0.15087 0.28725
 N260 N 1.11969 0.15338 0.29256
 N261 N 1.10536 0.13469 0.31697
 C262 C 1.10975 0.09225 0.36382
 N263 N 1.07732 0.08035 0.35904
 N264 N 1.06457 0.05922 0.38224
 C265 C 1.08370 0.04971 0.41115
 N266 N 1.11591 0.06201 0.41612
 N267 N 1.12882 0.08265 0.39268
 C268 C 0.85575 -0.13459 0.39011
 N269 N 0.82407 -0.12311 0.37945
 N270 N 0.80366 -0.14244 0.35877
 C271 C 0.81417 -0.17394 0.34788
 N272 N 0.84562 -0.18561 0.35919
 N273 N 0.86602 -0.16629 0.37984
 C274 C 0.87975 -0.11222 0.40981
 N275 N 0.91251 -0.12292 0.41696
 N276 N 0.93541 -0.10187 0.43190
 C277 C 0.92644 -0.06932 0.44032
 N278 N 0.89352 -0.05867 0.43372
 N279 N 0.87058 -0.07976 0.41866
 C280 C 0.88840 0.12023 0.65300
 N281 N 0.89415 0.15425 0.65469
 N282 N 0.87455 0.17478 0.67422
 C283 C 0.84810 0.16206 0.69219
 N284 N 0.84225 0.12808 0.68998
 N285 N 0.86214 0.10755 0.67100
 C286 C 0.90993 0.09724 0.63211
 N287 N 0.91405 0.06415 0.64127
 N288 N 0.93282 0.04279 0.62189
 C289 C 0.94758 0.05369 0.59233
 N290 N 0.94336 0.08674 0.58307
 N291 N 0.92506 0.10823 0.60277
 C292 C 1.14002 -0.13675 0.65367
 N293 N 1.17482 -0.13690 0.65754
 N294 N 1.19072 -0.15639 0.68161
 C295 C 1.17247 -0.17684 0.70239
 N296 N 1.13766 -0.17714 0.69791
 N297 N 1.12172 -0.15728 0.67419
 C298 C 1.12243 -0.11367 0.62881
 N299 N 1.08955 -0.10327 0.63404
 N300 N 1.07393 -0.08124 0.61228
 C301 C 1.09052 -0.06915 0.58429
 N302 N 1.12329 -0.07980 0.57885
 N303 N 1.13907 -0.10146 0.60091
 C304 C 0.35224 1.11999 1.11949
 N305 N 0.34340 1.15120 1.10692
 N306 N 0.31950 1.17027 1.12259
 C307 C 0.30408 1.15900 1.15176
 N308 N 0.31367 1.12809 1.16461
 N309 N 0.33702 1.10884 1.14862
 C310 C 0.37652 1.09771 1.10118
 N311 N 0.37157 1.06359 1.09987
 N312 N 0.39319 1.04303 1.08292
 C313 C 0.42095 1.05584 1.06740
 N314 N 0.42612 1.08993 1.06898
 N315 N 0.40411 1.11058 1.08536
 C316 C 0.37030 0.86305 0.87691
 N317 N 0.36526 0.86204 0.84133
 N318 N 0.34221 0.84120 0.82627
 C319 C 0.32372 0.82015 0.84614
 N320 N 0.32954 0.82051 0.88173
 N321 N 0.35220 0.84180 0.89686
 C322 C 0.39346 0.88814 0.89347
 N323 N 0.38738 0.90110 0.92614
 N324 N 0.40733 0.92532 0.94038
 C325 C 0.43424 0.93713 0.92258
 N326 N 0.44055 0.92390 0.89009
 N327 N 0.42026 0.90010 0.87561
 C328 C 0.62683 0.87121 1.15494
 N329 N 0.63708 0.88141 1.18800
 N330 N 0.65698 0.86123 1.20820
 C331 C 0.66742 0.83010 1.19611
 N332 N 0.65656 0.81973 1.16325
 N333 N 0.63673 0.83992 1.14306
 C334 C 0.60766 0.89443 1.13124
 N335 N 0.60187 0.88540 1.09687
 N336 N 0.58706 0.90719 1.07438
 C337 C 0.57735 0.93881 1.08537
 N338 N 0.58262 0.94779 1.11988
 N339 N 0.59761 0.92598 1.14242
 C340 C 0.65984 1.12928 0.87101
 N341 N 0.67268 1.15850 0.88544
 N342 N 0.69384 1.17750 0.86733
 C343 C 0.70335 1.16751 0.83448
 N344 N 0.69052 1.13815 0.82037
 N345 N 0.66891 1.11962 0.83811
 C346 C 0.63628 1.10814 0.88992
 N347 N 0.60929 1.09375 0.87204
 N348 N 0.58891 1.07246 0.88801
 C349 C 0.59525 1.06415 0.92221
 N350 N 0.62235 1.07842 0.94020
 N351 N 0.64244 1.10027 0.92434
 C352 C 0.10212 0.34201 0.10172
 N353 N 0.13697 0.34398 0.10364
 N354 N 0.15595 0.31922 0.11852
 C355 C 0.14067 0.29189 0.13238
 N356 N 0.10586 0.28997 0.13036
 N357 N 0.08696 0.31443 0.11507
 C358 C 0.08079 0.36977 0.08706
 N359 N 0.04775 0.36397 0.07624
 N360 N 0.02757 0.38934 0.06469
 C361 C 0.03950 0.42157 0.06408
 N362 N 0.07258 0.42743 0.07486
 N363 N 0.09292 0.40193 0.08600
 C364 C -0.14582 0.38848 -0.15187
 N365 N -0.13134 0.37384 -0.18060
 N366 N -0.14526 0.34644 -0.19627
 C367 C -0.17407 0.33259 -0.18364
 N368 N -0.18882 0.34762 -0.15529
 N369 N -0.17493 0.37498 -0.13967
 C370 C -0.12819 0.41562 -0.13155
 N371 N -0.14041 0.42626 -0.10005
 N372 N -0.12200 0.44681 -0.07875
 C373 C -0.09076 0.45772 -0.08822
 N374 N -0.07899 0.44799 -0.12024
 N375 N -0.09738 0.42731 -0.14153
 C376 C 0.11510 0.66379 -0.08951
 N377 N 0.10117 0.68873 -0.11001
 N378 N 0.12110 0.70846 -0.12850
 C379 C 0.15578 0.70431 -0.12682
 N380 N 0.16986 0.67972 -0.10586
 N381 N 0.14984 0.65961 -0.08770
 C382 C 0.09242 0.64068 -0.07164
 N383 N 0.10321 0.60894 -0.06236
 N384 N 0.08118 0.58692 -0.04964
 C385 C 0.04774 0.59608 -0.04551
 N386 N 0.03726 0.62803 -0.05407
 N387 N 0.05913 0.64984 -0.06707
 C388 C -0.15266 0.63451 0.15722
 N389 N -0.14138 0.64388 0.19024
 N390 N -0.15977 0.66554 0.20972
 C391 C -0.19014 0.67863 0.19692
 N392 N -0.20157 0.66892 0.16406
 N393 N -0.18316 0.64733 0.14458
 C394 C -0.13125 0.61278 0.13454
 N395 N -0.14105 0.60682 0.10029
 N396 N -0.12058 0.58947 0.07878
 C397 C -0.08957 0.57727 0.09071
 N398 N -0.07994 0.58273 0.12512
 N399 N -0.10041 0.60020 0.14664
 C400 C 1.12446 0.12821 0.65743
 N401 N 1.15831 0.12314 0.66600
 N402 N 1.17316 0.13976 0.69326
 C403 C 1.15479 0.16227 0.71294
 N404 N 1.12097 0.16759 0.70407
 N405 N 1.10604 0.15074 0.67697
 C406 C 1.10795 0.10822 0.62860
 N407 N 1.07313 0.10660 0.62489
 N408 N 1.05845 0.08609 0.60050
 C409 C 1.07811 0.06678 0.57875
 N410 N 1.11286 0.06894 0.58211
 N411 N 1.12750 0.08922 0.60658
 C412 C 0.87800 -0.13975 0.61352
 N413 N 0.84638 -0.12790 0.62215
 N414 N 0.82724 -0.14494 0.64414
 C415 C 0.83884 -0.17471 0.65819
 N416 N 0.87033 -0.18681 0.64911
 N417 N 0.88964 -0.16955 0.62740
 C418 C 0.89984 -0.11938 0.59128
 N419 N 0.93442 -0.12483 0.59097
 N420 N 0.95446 -0.10400 0.57366
 C421 C 0.94056 -0.07725 0.55566
 N422 N 0.90594 -0.07234 0.55536
 N423 N 0.88599 -0.09294 0.57288
 C424 C 1.15141 -0.13507 0.34841
 N425 N 1.13608 -0.15919 0.32760
 N426 N 1.15238 -0.17305 0.30050
 C427 C 1.18463 -0.16328 0.29287
 N428 N 1.20016 -0.13927 0.31391
 N429 N 1.18382 -0.12542 0.34117
 C430 C 1.13218 -0.11823 0.37673
 N431 N 1.14729 -0.09438 0.39814
 N432 N 1.12899 -0.07715 0.42175
 C433 C 1.09492 -0.08309 0.42489
 N434 N 1.07990 -0.10731 0.40384
 N435 N 1.09825 -0.12465 0.38031
 C436 C 0.90276 0.12887 0.35048
 N437 N 0.87816 0.11399 0.32947
 N438 N 0.85718 0.13267 0.30891
 C439 C 0.86029 0.16700 0.30806
 N440 N 0.88507 0.18193 0.32905
 N441 N 0.90572 0.16324 0.35014
 C442 C 0.92550 0.10759 0.37294
 N443 N 0.93302 0.07529 0.36239
 N444 N 0.95125 0.05459 0.38346
 C445 C 0.96236 0.06519 0.41609
 N446 N 0.95511 0.09766 0.42667
 N447 N 0.93726 0.11862 0.40529
 C448 C 0.10195 0.34470 -0.09087
 N449 N 0.08741 0.32455 -0.11648
 N450 N 0.10615 0.30130 -0.13333
 C451 C 0.14009 0.29687 -0.12485
 N452 N 0.15459 0.31679 -0.09882
 N453 N 0.13591 0.34051 -0.08233
 C454 C 0.08100 0.37095 -0.07371
 N455 N 0.09502 0.40042 -0.06117
 N456 N 0.07502 0.42534 -0.04855
 C457 C 0.04044 0.42136 -0.04766
 N458 N 0.02664 0.39167 -0.05956
 N459 N 0.04651 0.36703 -0.07258
 C460 C -0.14255 0.39082 0.15852
 N461 N -0.17275 0.37774 0.14605
 N462 N -0.18643 0.35122 0.16141
 C463 C -0.17040 0.33659 0.18980
 N464 N -0.14050 0.35011 0.20282
 N465 N -0.12679 0.37673 0.18742
 C466 C -0.12532 0.41652 0.13803
 N467 N -0.09441 0.42930 0.14899
 N468 N -0.07669 0.44866 0.12772
 C469 C -0.08922 0.45576 0.09471
 N470 N -0.12044 0.44362 0.08416
 N471 N -0.13821 0.42454 0.10547
 C472 C -0.14531 0.62546 -0.16152
 N473 N -0.17612 0.63887 -0.15240
 N474 N -0.19176 0.66249 -0.17216
 C475 C -0.17713 0.67385 -0.20173
 N476 N -0.14658 0.65989 -0.21125
 N477 N -0.13095 0.63616 -0.19147
 C478 C -0.12630 0.60265 -0.13735
 N479 N -0.09509 0.58966 -0.14583
 N480 N -0.07601 0.57241 -0.12218
 C481 C -0.08740 0.56761 -0.08919
 N482 N -0.11890 0.58000 -0.08093
 N483 N -0.13803 0.59713 -0.10463
 C484 C 0.12099 0.67270 0.08683
 N485 N 0.10911 0.70194 0.10182
 N486 N 0.13063 0.72329 0.11843
 C487 C 0.16493 0.71649 0.12023
 N488 N 0.17704 0.68760 0.10455
 N489 N 0.15537 0.66593 0.08831
 C490 C 0.09642 0.64768 0.07247
 N491 N 0.10523 0.61420 0.07006
 N492 N 0.08163 0.59109 0.06103
 C493 C 0.04847 0.60070 0.05393
 N494 N 0.03986 0.63423 0.05561
 N495 N 0.06335 0.65726 0.06496
 C496 C 0.36651 1.14367 0.89077
 N497 N 0.35980 1.14040 0.85549
 N498 N 0.33300 1.15644 0.84024
 C499 C 0.31197 1.17661 0.85964
 N500 N 0.31900 1.18041 0.89488
 N501 N 0.34571 1.16410 0.91021
 C502 C 0.39409 1.12304 0.90755
 N503 N 0.39663 1.11956 0.94319
 N504 N 0.41934 1.09769 0.95770
 C505 C 0.44037 1.07869 0.93703
 N506 N 0.43823 1.08277 0.90154
 N507 N 0.41554 1.10447 0.88709
 C508 C 0.39117 0.86372 1.11735
 N509 N 0.37223 0.84013 1.09914
 N510 N 0.34629 0.82483 1.11417
 C511 C 0.33803 0.83270 1.14793
 N512 N 0.35721 0.85605 1.16630
 N513 N 0.38330 0.87125 1.15130
 C514 C 0.41733 0.88321 1.09944
 N515 N 0.43694 0.90631 1.11763
 N516 N 0.45736 0.92700 1.10071
 C517 C 0.45898 0.92541 1.06496
 N518 N 0.43997 0.90177 1.04686
 N519 N 0.41970 0.88094 1.06379
 C520 C 0.65928 1.13866 1.11546
 N521 N 0.68348 1.15782 1.10060
 N522 N 0.70660 1.17450 1.12080
 C523 C 0.70684 1.17198 1.15652
 N524 N 0.68281 1.15262 1.17135
 N525 N 0.65929 1.13648 1.15118
 C526 C 0.63452 1.11918 1.09343
 N527 N 0.60257 1.11330 1.10504
 N528 N 0.58102 1.09324 1.08655
 C529 C 0.59077 1.07796 1.05602
 N530 N 0.62268 1.08396 1.04431
 N531 N 0.64402 1.10455 1.06247
 C532 C 0.64731 0.86794 0.84564
 N533 N 0.65385 0.87812 0.81247
 N534 N 0.67474 0.85989 0.79208
 C535 C 0.68963 0.83063 0.80405
 N536 N 0.68281 0.82036 0.83710
 N537 N 0.66217 0.83871 0.85756
 C538 C 0.62545 0.88873 0.86868
 N539 N 0.62487 0.88281 0.90389
 N540 N 0.60624 0.90268 0.92504
 C541 C 0.58723 0.92896 0.91162
 N542 N 0.58753 0.93459 0.87638
 N543 N 0.60635 0.91493 0.85531
   
