data_POSCAR
  _audit_creation_date              2014-09-24
  _audit_creation_method            'ToBaCCo'
  _symmetry_space_group_name_H-M    'P1'
  _symmetry_Int_Tables_number       1
  _symmetry_cell_setting            triclinic
  loop_
  _symmetry_equiv_pos_as_xyz
 x,y,z
_cell_length_a 27.6879
_cell_length_b 27.2272
_cell_length_c 18.0543
_cell_angle_alpha 88.548900
_cell_angle_beta 90.957300
_cell_angle_gamma 89.689800
loop_
  _atom_site_label
  _atom_site_type_symbol
  _atom_site_fract_x
  _atom_site_fract_y
  _atom_site_fract_z
C1 C 1.28655 0.20339 0.23013
 C2 C 1.24686 0.23523 0.22084
 C3 C 1.20042 0.21518 0.21572
 C4 C 1.19356 0.16443 0.22601
 C5 C 1.23365 0.13341 0.24326
 C6 C 1.28083 0.15267 0.24203
 C7 C 1.25493 0.28904 0.22549
 C8 C 1.29778 0.30963 0.19751
 C9 C 1.31400 0.35526 0.22159
 C10 C 1.28387 0.38292 0.26671
 C11 C 1.23790 0.36597 0.28664
 C12 C 1.22428 0.31819 0.26820
 H13 H 1.32243 0.21876 0.23497
 H14 H 1.16946 0.23904 0.20542
 H15 H 1.32070 0.28809 0.16251
 H16 H 1.19056 0.30349 0.28832
 H17 H 1.22833 0.09431 0.25203
 H18 H 1.29532 0.41901 0.28372
 C19 C 0.76387 -0.31601 0.30714
 C20 C 0.72965 -0.28276 0.27601
 C21 C 0.68530 -0.30041 0.24925
 C22 C 0.67471 -0.35038 0.25456
 C23 C 0.70942 -0.38343 0.28393
 C24 C 0.75478 -0.36681 0.30920
 C25 C 0.74110 -0.22993 0.26714
 C26 C 0.78654 -0.21536 0.24212
 C27 C 0.79695 -0.16572 0.22760
 C28 C 0.76055 -0.13011 0.23868
 C29 C 0.71480 -0.14430 0.26539
 C30 C 0.70578 -0.19423 0.27955
 H31 H 0.79811 -0.30216 0.32711
 H32 H 0.65906 -0.27540 0.22351
 H33 H 0.81341 -0.24319 0.23118
 H34 H 0.67079 -0.20565 0.29932
 H35 H 0.70117 -0.42232 0.28554
 H36 H 0.76783 -0.09164 0.22756
 C37 C 0.75819 0.18191 -0.21582
 C38 C 0.72285 0.21374 -0.24698
 C39 C 0.67753 0.19502 -0.26789
 C40 C 0.66765 0.14480 -0.25797
 C41 C 0.70419 0.11311 -0.22898
 C42 C 0.74998 0.13148 -0.20890
 C43 C 0.73544 0.26576 -0.26185
 C44 C 0.78041 0.27686 -0.29223
 C45 C 0.79547 0.32553 -0.30329
 C46 C 0.76348 0.36381 -0.28506
 C47 C 0.71780 0.35326 -0.25498
 C48 C 0.70411 0.30402 -0.24384
 H49 H 0.79319 0.19630 -0.20012
 H50 H 0.65025 0.21928 -0.29261
 H51 H 0.80388 0.24686 -0.30730
 H52 H 0.66943 0.29525 -0.22022
 H53 H 0.69731 0.07404 -0.22380
 H54 H 0.77410 0.40175 -0.29281
 C55 C 1.28430 -0.30239 -0.20975
 C56 C 1.24955 -0.26521 -0.22248
 C57 C 1.20442 -0.27758 -0.25293
 C58 C 1.19406 -0.32593 -0.27215
 C59 C 1.22991 -0.36233 -0.26182
 C60 C 1.27536 -0.35101 -0.23075
 C61 C 1.26190 -0.21271 -0.21230
 C62 C 1.30768 -0.19545 -0.23245
 C63 C 1.31716 -0.14512 -0.23662
 C64 C 1.28061 -0.11140 -0.22026
 C65 C 1.23529 -0.12800 -0.19625
 C66 C 1.22651 -0.17869 -0.19142
 H67 H 1.31885 -0.29271 -0.18568
 H68 H 1.17783 -0.24904 -0.26482
 H69 H 1.33508 -0.22083 -0.25053
 H70 H 1.19136 -0.19162 -0.17456
 H71 H 1.22254 -0.39956 -0.27799
 H72 H 1.28769 -0.07238 -0.22567
 C73 C 0.20807 0.30331 0.76718
 C74 C 0.22755 0.25585 0.77192
 C75 C 0.19665 0.21628 0.78517
 C76 C 0.14671 0.22283 0.79192
 C77 C 0.12747 0.27097 0.78816
 C78 C 0.15825 0.31134 0.77379
 C79 C 0.27932 0.24662 0.75676
 C80 C 0.31519 0.28023 0.77671
 C81 C 0.36394 0.27211 0.75902
 C82 C 0.37644 0.22851 0.72264
 C83 C 0.34090 0.19367 0.70590
 C84 C 0.29277 0.20381 0.72089
 H85 H 0.23127 0.33383 0.75258
 H86 H 0.21190 0.17970 0.79198
 H87 H 0.30472 0.31274 0.80566
 H88 H 0.26554 0.17812 0.70289
 H89 H 0.08882 0.27673 0.79137
 H90 H 0.41377 0.22062 0.71003
 C91 C 0.72836 0.79592 0.72848
 C92 C 0.73735 0.75354 0.77184
 C93 C 0.69906 0.72384 0.79390
 C94 C 0.65142 0.73502 0.77127
 C95 C 0.64271 0.77839 0.72780
 C96 C 0.68135 0.80932 0.70623
 C97 C 0.78757 0.73790 0.78707
 C98 C 0.82222 0.77247 0.80675
 C99 C 0.87144 0.76072 0.80624
 C100 C 0.88583 0.71299 0.78711
 C101 C 0.85089 0.67724 0.77020
 C102 C 0.80191 0.69000 0.77148
 H103 H 0.75871 0.81783 0.71026
 H104 H 0.70735 0.69110 0.82687
 H105 H 0.81064 0.80948 0.81851
 H106 H 0.77498 0.66379 0.75398
 H107 H 0.60614 0.78740 0.71004
 H108 H 0.92390 0.70392 0.78477
 C109 C 0.71662 0.31342 0.26807
 C110 C 0.73214 0.26867 0.30044
 C111 C 0.69829 0.23604 0.32965
 C112 C 0.64891 0.24575 0.32111
 C113 C 0.63340 0.29011 0.28587
 C114 C 0.66737 0.32446 0.25982
 C115 C 0.78275 0.25301 0.29299
 C116 C 0.82004 0.28643 0.30366
 C117 C 0.86777 0.27420 0.28710
 C118 C 0.87796 0.22738 0.25983
 C119 C 0.84052 0.19316 0.24916
 C120 C 0.79325 0.20630 0.26669
 H121 H 0.74294 0.33798 0.24362
 H122 H 0.71060 0.20130 0.35390
 H123 H 0.81117 0.32253 0.32323
 H124 H 0.76400 0.18108 0.25578
 H125 H 0.59517 0.29727 0.27732
 H126 H 0.91478 0.21805 0.24657
 C127 C 0.20783 0.79466 0.25883
 C128 C 0.22132 0.74671 0.28041
 C129 C 0.18534 0.71185 0.29510
 C130 C 0.13619 0.72381 0.28390
 C131 C 0.12362 0.77168 0.25869
 C132 C 0.15924 0.80766 0.24713
 C133 C 0.27299 0.73238 0.27844
 C134 C 0.30889 0.76534 0.30057
 C135 C 0.35769 0.75631 0.28618
 C136 C 0.37065 0.71246 0.25166
 C137 C 0.33513 0.67850 0.23048
 C138 C 0.28653 0.68872 0.24469
 H139 H 0.23570 0.82115 0.24595
 H140 H 0.19606 0.67499 0.31243
 H141 H 0.29832 0.79864 0.32752
 H142 H 0.25881 0.66405 0.22516
 H143 H 0.08590 0.78111 0.24999
 H144 H 0.40823 0.70532 0.24023
 O145 O 1.06653 0.04645 0.10020
 O146 O 0.92016 -0.04188 0.08726
 O147 O 0.95202 0.07953 0.08863
 O148 O 1.03975 -0.07113 0.09916
 O149 O 0.89385 0.03690 0.04689
 O150 O 1.09884 -0.02867 0.06233
 O151 O 0.96473 -0.10067 0.05326
 O152 O 1.02900 0.10935 0.05683
 C153 C 1.05507 0.08957 0.10709
 C154 C 0.93275 -0.08497 0.09513
 C155 C 0.91014 0.06564 0.09419
 C156 C 1.08172 -0.05816 0.10861
 O157 O 1.08489 0.00163 -0.08176
 O158 O 0.91380 0.01126 -0.09593
 O159 O 1.00362 0.09427 -0.09124
 O160 O 0.99644 -0.08201 -0.08782
 O161 O 0.92362 -0.07270 -0.05538
 O162 O 1.07285 0.08272 -0.04170
 O163 O 1.07636 -0.07180 -0.04212
 O164 O 0.92025 0.08357 -0.05582
 Co165 Co 1.07256 0.02359 0.00900
 Co166 Co 0.92109 -0.01444 -0.00408
 Co167 Co 0.97844 0.08320 -0.00062
 Co168 Co 1.01720 -0.07272 0.00532
 O169 O 0.99724 0.00485 0.00218
 C170 C 1.09511 -0.04208 -0.08712
 C171 C 0.90127 0.05451 -0.10083
 C172 C 1.04771 0.09872 -0.09490
 C173 C 0.95374 -0.09250 -0.09649
 O174 O 1.07069 0.54923 0.59403
 O175 O 0.93139 0.44554 0.58815
 O176 O 0.96208 0.57452 0.59412
 O177 O 1.04011 0.41879 0.59984
 O178 O 0.90461 0.52531 0.56541
 O179 O 1.09774 0.46920 0.57536
 O180 O 0.96819 0.38748 0.53953
 O181 O 1.03411 0.60769 0.53939
 C182 C 1.06171 0.59333 0.59026
 C183 C 0.93828 0.40129 0.58529
 C184 C 0.92271 0.55602 0.60895
 C185 C 1.07916 0.43709 0.61774
 O186 O 1.08873 0.48916 0.42183
 O187 O 0.91676 0.50948 0.41287
 O188 O 0.99965 0.58534 0.40606
 O189 O 1.00595 0.41208 0.40868
 O190 O 0.93186 0.42696 0.43611
 O191 O 1.07340 0.57111 0.44134
 O192 O 1.08561 0.41885 0.47079
 O193 O 0.91878 0.57800 0.46183
 Co194 Co 1.07577 0.51771 0.50778
 Co195 Co 0.92799 0.47871 0.50079
 Co196 Co 0.98119 0.57647 0.50032
 Co197 Co 1.02251 0.41910 0.50443
 O198 O 1.00188 0.49798 0.50346
 C199 C 1.10371 0.44692 0.42367
 C200 C 0.90046 0.55113 0.41471
 C201 C 1.04353 0.59088 0.39585
 C202 C 0.96233 0.40736 0.39452
 O203 O 0.55918 0.02901 0.57859
 O204 O 0.41653 -0.07590 0.53459
 O205 O 0.43181 0.08240 0.50824
 O206 O 0.56626 -0.05774 0.56742
 O207 O 0.39790 0.01436 0.54893
 O208 O 0.62403 -0.01778 0.51447
 O209 O 0.48561 -0.08135 0.58864
 O210 O 0.51873 0.09240 0.53597
 C211 C 0.54374 0.07135 0.58752
 C212 C 0.44105 -0.08506 0.59155
 C213 C 0.40393 0.05998 0.55199
 C214 C 0.61092 -0.05504 0.55564
 O215 O 0.57657 -0.00933 0.39133
 O216 O 0.39101 0.02455 0.40695
 O217 O 0.53251 0.06995 0.38687
 O218 O 0.47661 -0.11031 0.44561
 O219 O 0.42013 -0.06409 0.39241
 O220 O 0.59063 0.06977 0.45960
 O221 O 0.56023 -0.08356 0.42317
 O222 O 0.45246 0.06202 0.36523
 Co223 Co 0.56548 0.00810 0.48504
 Co224 Co 0.41481 -0.02324 0.47093
 Co225 Co 0.48471 0.07085 0.45127
 Co226 Co 0.51960 -0.07672 0.50315
 O227 O 0.49255 -0.00391 0.47513
 C228 C 0.58066 -0.05369 0.37971
 C229 C 0.40907 0.05264 0.35997
 C230 C 0.57008 0.09007 0.40540
 C231 C 0.44391 -0.10362 0.39684
 O232 O 0.57741 0.54057 0.06890
 O233 O 0.42600 0.46079 0.05856
 O234 O 0.45648 0.57526 0.05939
 O235 O 0.54720 0.42492 0.06703
 O236 O 0.39838 0.53711 0.01034
 O237 O 0.60639 0.46482 0.02476
 O238 O 0.46938 0.39921 0.03039
 O239 O 0.53494 0.60228 0.03201
 C240 C 0.56032 0.58119 0.08148
 C241 C 0.44147 0.41952 0.07461
 C242 C 0.41384 0.56324 0.06108
 C243 C 0.58928 0.43808 0.07472
 O244 O 0.59089 0.49841 -0.11606
 O245 O 0.41957 0.50739 -0.12805
 O246 O 0.51283 0.59055 -0.11743
 O247 O 0.49683 0.41473 -0.11667
 O248 O 0.42599 0.42356 -0.07817
 O249 O 0.58224 0.58102 -0.06922
 O250 O 0.57743 0.42439 -0.07889
 O251 O 0.43125 0.57997 -0.08929
 Co252 Co 0.58047 0.51932 -0.02379
 Co253 Co 0.42640 0.48413 -0.03422
 Co254 Co 0.48578 0.57900 -0.02890
 Co255 Co 0.52085 0.42385 -0.02497
 O256 O 0.50341 0.50156 -0.02812
 C257 C 0.59668 0.45380 -0.12433
 C258 C 0.41219 0.55203 -0.13553
 C259 C 0.55572 0.60120 -0.11774
 C260 C 0.45394 0.40487 -0.12309
 N261 N 1.08409 0.09661 0.23223
 N262 N 1.12359 0.11320 0.26543
 C263 C 1.14455 0.14418 0.21670
 C264 C 1.11616 0.14646 0.15285
 N265 N 1.07848 0.11625 0.16461
 H266 H 1.12580 0.16271 0.09979
 N267 N 1.07821 0.67462 0.63700
 N268 N 1.11325 0.69738 0.67303
 C269 C 1.14667 0.66299 0.69312
 C270 C 1.13048 0.61819 0.66902
 N271 N 1.08794 0.62711 0.63436
 H272 H 1.14883 0.58298 0.67207
 N273 N 0.55996 0.07532 0.71837
 N274 N 0.59522 0.09206 0.76122
 C275 C 0.61992 0.12494 0.72004
 C276 C 0.59805 0.12807 0.65049
 N277 N 0.56047 0.09664 0.65156
 H278 H 0.61246 0.14572 0.60124
 N279 N 0.56884 0.58224 0.21374
 N280 N 0.60106 0.59815 0.26238
 C281 C 0.62835 0.63134 0.22608
 C282 C 0.61163 0.63548 0.15376
 N283 N 0.57419 0.60443 0.14827
 H284 H 0.62936 0.65356 0.10761
 N285 N 0.91728 -0.16390 0.15656
 N286 N 0.88157 -0.18632 0.19144
 C287 C 0.84552 -0.15313 0.19864
 C288 C 0.86085 -0.10915 0.16743
 N289 N 0.90561 -0.11751 0.14184
 H290 H 0.84040 -0.07538 0.15947
 N291 N 0.91149 0.31936 0.62119
 N292 N 0.87286 0.29809 0.64960
 C293 C 0.84184 0.33418 0.66814
 C294 C 0.86349 0.37862 0.65098
 N295 N 0.90664 0.36763 0.62190
 H296 H 0.84865 0.41527 0.65534
 N297 N 0.43970 -0.12911 0.71107
 N298 N 0.40733 -0.14555 0.75892
 C299 C 0.36384 -0.12856 0.73455
 C300 C 0.37037 -0.10196 0.66977
 N301 N 0.41805 -0.10321 0.65698
 H302 H 0.34285 -0.08607 0.63302
 N303 N 0.42135 0.42044 0.20180
 N304 N 0.38351 0.40739 0.24123
 C305 C 0.35977 0.37313 0.20265
 C306 C 0.38539 0.36482 0.13870
 N307 N 0.42336 0.39571 0.13966
 H308 H 0.37306 0.34488 0.09087
 N309 N 0.83559 0.03352 -0.18391
 N310 N 0.79405 0.05141 -0.21035
 C311 C 0.79062 0.09797 -0.18755
 C312 C 0.83225 0.10822 -0.14643
 N313 N 0.85934 0.06691 -0.14574
 H314 H 0.84104 0.14152 -0.11774
 N315 N 0.82736 0.52974 0.34834
 N316 N 0.78703 0.55027 0.32195
 C317 C 0.79056 0.59904 0.33244
 C318 C 0.83499 0.60764 0.36670
 N319 N 0.85659 0.56341 0.37532
 H320 H 0.84978 0.64200 0.38525
 N321 N 0.39960 0.10975 0.25706
 N322 N 0.36601 0.13807 0.22528
 C323 C 0.32303 0.12408 0.25277
 C324 C 0.33162 0.08504 0.30256
 N325 N 0.38014 0.07805 0.30435
 H326 H 0.30634 0.06829 0.34056
 N327 N 0.34535 0.54107 -0.22225
 N328 N 0.30664 0.56593 -0.24620
 C329 C 0.31103 0.61221 -0.22170
 C330 C 0.35447 0.61491 -0.18300
 N331 N 0.37451 0.56988 -0.18434
 H332 H 0.36830 0.64504 -0.15111
 N333 N 1.15719 -0.02432 -0.17689
 N334 N 1.19564 -0.04538 -0.20539
 C335 C 1.19662 -0.09234 -0.17983
 C336 C 1.15702 -0.09949 -0.13490
 N337 N 1.13347 -0.05613 -0.13462
 H338 H 1.14781 -0.13194 -0.10237
 N339 N 1.17269 0.46919 0.35123
 N340 N 1.20896 0.44938 0.31579
 C341 C 1.20451 0.40023 0.32293
 C342 C 1.16366 0.39044 0.36467
 N343 N 1.14509 0.43473 0.38105
 H344 H 1.14891 0.35515 0.38102
 N345 N 0.63720 -0.03925 0.28002
 N346 N 0.67487 -0.06140 0.25065
 C347 C 0.67607 -0.10773 0.27881
 C348 C 0.63722 -0.11326 0.32581
 N349 N 0.61384 -0.06980 0.32494
 H350 H 0.62937 -0.14422 0.36236
 N351 N 0.65608 0.46629 -0.22097
 N352 N 0.68937 0.44094 -0.25587
 C353 C 0.68508 0.39357 -0.23323
 C354 C 0.64767 0.39081 -0.18330
 N355 N 0.63063 0.43687 -0.17727
 H356 H 0.63582 0.35912 -0.15121
 N357 N 1.10387 0.10296 -0.19330
 N358 N 1.13338 0.13590 -0.22207
 C359 C 1.11835 0.18045 -0.20030
 C360 C 1.07752 0.17355 -0.15808
 N361 N 1.07005 0.12450 -0.15464
 H362 H 1.06009 0.20024 -0.12381
 N363 N 1.02909 0.65767 0.30703
 N364 N 1.05291 0.69551 0.27853
 C365 C 1.09993 0.68896 0.29749
 C366 C 1.10411 0.64511 0.33770
 N367 N 1.05913 0.62707 0.34286
 H368 H 1.13559 0.63032 0.36700
 N369 N 0.55344 0.15942 0.32356
 N370 N 0.57173 0.20205 0.30212
 C371 C 0.61428 0.20638 0.33836
 C372 C 0.62158 0.16452 0.38315
 N373 N 0.58269 0.13627 0.37178
 H374 H 0.65208 0.15514 0.41911
 N375 N 0.54328 0.66978 -0.20557
 N376 N 0.56765 0.70714 -0.23471
 C377 C 0.61380 0.70249 -0.21003
 C378 C 0.61665 0.66045 -0.16468
 N379 N 0.57211 0.64129 -0.16367
 H380 H 0.64726 0.64573 -0.13327
 N381 N 0.97321 -0.15988 -0.17676
 N382 N 0.95326 -0.20074 -0.20099
 C383 C 0.90701 -0.20037 -0.17884
 C384 C 0.89918 -0.15762 -0.14085
 N385 N 0.94122 -0.13339 -0.14105
 H386 H 0.86703 -0.14649 -0.11220
 N387 N 0.97637 0.34393 0.30432
 N388 N 0.95240 0.30638 0.27645
 C389 C 0.90626 0.31077 0.29844
 C390 C 0.90273 0.35256 0.33957
 N391 N 0.94695 0.37213 0.34201
 H392 H 0.87230 0.36514 0.37097
 N393 N 0.46469 -0.17691 0.33091
 N394 N 0.44296 -0.21563 0.30283
 C395 C 0.39500 -0.20714 0.30578
 C396 C 0.38819 -0.16113 0.33542
 N397 N 0.43250 -0.14364 0.35007
 H398 H 0.35471 -0.14347 0.35011
 N399 N 0.46920 0.34031 -0.21029
 N400 N 0.44631 0.30331 -0.24137
 C401 C 0.39961 0.30631 -0.22152
 C402 C 0.39475 0.34704 -0.17731
 N403 N 0.43890 0.36693 -0.17173
 H404 H 0.36326 0.35967 -0.14850
 N405 N 1.15822 -0.07240 0.17271
 N406 N 1.18060 -0.10898 0.20894
 C407 C 1.14773 -0.14487 0.21994
 C408 C 1.10401 -0.12834 0.19071
 N409 N 1.11232 -0.08343 0.16125
 H410 H 1.07080 -0.14864 0.18387
 N411 N 1.14520 0.43492 0.70885
 N412 N 1.16664 0.40191 0.75365
 C413 C 1.13936 0.36082 0.75310
 C414 C 1.10019 0.37010 0.70678
 N415 N 1.10538 0.41632 0.67988
 H416 H 1.07433 0.34370 0.68653
 N417 N 0.69160 -0.08379 0.59364
 N418 N 0.71124 -0.12019 0.63418
 C419 C 0.67474 -0.14783 0.66156
 C420 C 0.63197 -0.12661 0.63670
 N421 N 0.64406 -0.08711 0.59467
 H422 H 0.59553 -0.13836 0.64804
 N423 N 0.66228 0.43579 0.15113
 N424 N 0.68383 0.40660 0.20140
 C425 C 0.65314 0.36943 0.21677
 C426 C 0.61165 0.37712 0.17430
 N427 N 0.61906 0.41864 0.13400
 H428 H 0.58101 0.35292 0.16840
 N429 N 0.83361 0.07880 0.15623
 N430 N 0.81400 0.11267 0.19800
 C431 C 0.84901 0.14541 0.21407
 C432 C 0.89078 0.13009 0.18150
 N433 N 0.87969 0.08881 0.14591
 H434 H 0.92499 0.14903 0.17850
 N435 N 0.85306 0.55912 0.68960
 N436 N 0.83301 0.59099 0.73426
 C437 C 0.86420 0.62871 0.74150
 C438 C 0.90421 0.61859 0.70029
 N439 N 0.89574 0.57525 0.66847
 H440 H 0.93387 0.64296 0.68746
 N441 N 0.34405 0.06954 0.64752
 N442 N 0.32681 0.10434 0.68977
 C443 C 0.35228 0.14551 0.67485
 C444 C 0.38564 0.13497 0.62177
 N445 N 0.37906 0.08735 0.60603
 H446 H 0.41089 0.15975 0.59527
 N447 N 0.33675 0.57004 0.12275
 N448 N 0.31477 0.60004 0.16812
 C449 C 0.34728 0.63431 0.18812
 C450 C 0.39022 0.62395 0.15375
 N451 N 0.38199 0.58386 0.11352
 H452 H 0.42316 0.64517 0.15358
   
