data_POSCAR
  _audit_creation_date              2014-09-24
  _audit_creation_method            'ToBaCCo'
  _symmetry_space_group_name_H-M    'P1'
  _symmetry_Int_Tables_number       1
  _symmetry_cell_setting            triclinic
  loop_
  _symmetry_equiv_pos_as_xyz
 x,y,z
_cell_length_a 48.8279
_cell_length_b 48.9781
_cell_length_c 21.9085
_cell_angle_alpha 90.136500
_cell_angle_beta 89.848600
_cell_angle_gamma 119.100700
loop_
  _atom_site_label
  _atom_site_type_symbol
  _atom_site_fract_x
  _atom_site_fract_y
  _atom_site_fract_z
C1 C 0.16681 0.47018 0.53272
 C2 C 0.16602 0.46984 0.47006
 C3 C 0.17900 0.45155 0.45086
 N4 N 0.18808 0.44116 0.49986
 C5 C 0.18067 0.45254 0.54982
 C6 C 0.18237 0.44449 0.38925
 C7 C 0.20193 0.43152 0.37394
 C8 C 0.19999 0.41545 0.32034
 C9 C 0.22515 0.41015 0.31977
 C10 C 0.24141 0.42258 0.37347
 N11 N 0.22691 0.43513 0.40674
 C12 C 0.27089 0.42550 0.38729
 C13 C 0.28221 0.42962 0.44768
 C14 C 0.31283 0.43863 0.46396
 C15 C 0.31361 0.43880 0.52652
 C16 C 0.28336 0.42966 0.54643
 N17 N 0.26421 0.42414 0.49804
 C18 C 0.27368 0.42670 0.60826
 C19 C 0.24484 0.42514 0.62472
 C20 C 0.22947 0.41393 0.67997
 C21 C 0.20437 0.41933 0.68052
 C22 C 0.20493 0.43347 0.62546
 N23 N 0.22939 0.43654 0.59128
 C24 C 0.18519 0.44604 0.61063
 H25 H 0.15861 0.48245 0.56225
 H26 H 0.15738 0.48216 0.44205
 H27 H 0.23742 0.44942 0.55117
 H28 H 0.18264 0.40886 0.28460
 H29 H 0.23121 0.39901 0.28346
 H30 H 0.33269 0.44500 0.43405
 H31 H 0.33432 0.44563 0.55402
 H32 H 0.18791 0.41399 0.71772
 H33 H 0.23606 0.44918 0.44524
 H34 H 0.23602 0.40345 0.71657
 C35 C 0.53375 -0.16439 0.46621
 C36 C 0.53257 -0.16453 0.52889
 C37 C 0.54849 -0.17983 0.54894
 N38 N 0.55893 -0.18936 0.50046
 C39 C 0.54996 -0.17995 0.44997
 C40 C 0.55339 -0.18498 0.61080
 C41 C 0.56345 -0.20686 0.62580
 C42 C 0.57812 -0.20714 0.67987
 C43 C 0.58029 -0.23408 0.67975
 C44 C 0.56740 -0.24918 0.62524
 N45 N 0.55768 -0.23225 0.59209
 C46 C 0.56134 -0.27959 0.61032
 C47 C 0.55624 -0.29050 0.54962
 C48 C 0.54280 -0.32153 0.53224
 C49 C 0.54313 -0.32180 0.46962
 C50 C 0.55746 -0.29081 0.45084
 N51 N 0.56515 -0.27175 0.50001
 C52 C 0.56366 -0.28007 0.38956
 C53 C 0.57032 -0.24916 0.37535
 C54 C 0.58571 -0.23270 0.32324
 C55 C 0.58382 -0.20559 0.32330
 C56 C 0.56785 -0.20596 0.37592
 N57 N 0.56020 -0.23227 0.40800
 C58 C 0.55739 -0.18437 0.38967
 H59 H 0.52335 -0.15448 0.43612
 H60 H 0.52076 -0.15500 0.55630
 H61 H 0.54514 -0.24019 0.44548
 H62 H 0.58575 -0.19008 0.71636
 H63 H 0.58961 -0.24203 0.71618
 H64 H 0.53316 -0.34186 0.56156
 H65 H 0.53332 -0.34256 0.44142
 H66 H 0.59259 -0.18791 0.28801
 H67 H 0.54396 -0.23982 0.55284
 H68 H 0.59649 -0.23986 0.28803
 C69 C 1.28205 0.88220 0.53568
 C70 C 1.28279 0.88274 0.47331
 C71 C 1.26510 0.85200 0.45419
 N72 N 1.25309 0.83268 0.50261
 C73 C 1.26391 0.85116 0.55244
 C74 C 1.26353 0.84173 0.39341
 C75 C 1.23850 0.81272 0.37377
 C76 C 1.23828 0.79654 0.32141
 C77 C 1.21006 0.76923 0.32068
 C78 C 1.19408 0.76932 0.37294
 N79 N 1.21129 0.79603 0.40451
 C80 C 1.16420 0.74535 0.39028
 C81 C 1.15237 0.74272 0.44974
 C82 C 1.12144 0.72327 0.46604
 C83 C 1.12060 0.72280 0.52848
 C84 C 1.15120 0.74152 0.54808
 N85 N 1.17057 0.75413 0.49983
 C86 C 1.16154 0.74312 0.60884
 C87 C 1.19113 0.76741 0.62843
 C88 C 1.20722 0.76622 0.67965
 C89 C 1.23539 0.79347 0.68069
 C90 C 1.23588 0.81068 0.63009
 N91 N 1.20874 0.79471 0.59868
 C92 C 1.26138 0.83984 0.61246
 H93 H 1.29434 0.90216 0.56554
 H94 H 1.29568 0.90323 0.44508
 H95 H 1.20205 0.80268 0.56045
 H96 H 1.25678 0.80318 0.28797
 H97 H 1.20249 0.75107 0.28635
 H98 H 1.10180 0.70994 0.43597
 H99 H 1.10008 0.70912 0.55637
 H100 H 1.25387 0.79921 0.71364
 H101 H 1.20407 0.80329 0.44316
 H102 H 1.20012 0.74717 0.71167
 C103 C 0.70395 0.55841 0.46303
 C104 C 0.70345 0.55746 0.52553
 C105 C 0.73435 0.57017 0.54466
 N106 N 0.75369 0.57887 0.49557
 C107 C 0.73509 0.57157 0.44559
 C108 C 0.74406 0.57289 0.60658
 C109 C 0.77449 0.57857 0.62340
 C110 C 0.78756 0.58797 0.68101
 C111 C 0.81554 0.58767 0.68069
 C112 C 0.81935 0.57881 0.62245
 N113 N 0.79418 0.57334 0.58786
 C114 C 0.84372 0.57265 0.60431
 C115 C 0.85088 0.57066 0.54234
 C116 C 0.87416 0.56423 0.52214
 C117 C 0.87513 0.56684 0.46003
 C118 C 0.85266 0.57507 0.44407
 N119 N 0.83820 0.57782 0.49445
 C120 C 0.84694 0.58109 0.38385
 C121 C 0.82219 0.58666 0.36744
 C122 C 0.81880 0.59706 0.31066
 C123 C 0.79016 0.59611 0.31092
 C124 C 0.77686 0.58504 0.36780
 N125 N 0.79662 0.57955 0.40202
 C126 C 0.74580 0.57683 0.38430
 H127 H 0.68356 0.54967 0.43386
 H128 H 0.68254 0.54759 0.55352
 H129 H 0.79086 0.56731 0.44287
 H130 H 0.77759 0.59374 0.71987
 H131 H 0.83090 0.59280 0.71954
 H132 H 0.88955 0.55900 0.54907
 H133 H 0.89098 0.56352 0.43022
 H134 H 0.77988 0.60200 0.27294
 H135 H 0.78864 0.56249 0.54543
 H136 H 0.83492 0.60381 0.27252
 C137 C 0.38948 0.10416 0.46473
 C138 C 0.38921 0.10383 0.52717
 C139 C 0.40407 0.13481 0.54593
 N140 N 0.41260 0.15400 0.49725
 C141 C 0.40386 0.13528 0.44762
 C142 C 0.41380 0.14504 0.60620
 C143 C 0.42297 0.17609 0.62501
 C144 C 0.44083 0.19048 0.67636
 C145 C 0.44556 0.22047 0.67736
 C146 C 0.43049 0.22384 0.62663
 N147 N 0.41678 0.19665 0.59483
 C148 C 0.43039 0.25186 0.61030
 C149 C 0.42493 0.25766 0.54919
 C150 C 0.41834 0.28102 0.53113
 C151 C 0.41869 0.28134 0.46854
 C152 C 0.42467 0.25768 0.45030
 N153 N 0.42837 0.24311 0.49954
 C154 C 0.42965 0.25189 0.38927
 C155 C 0.43035 0.22463 0.37108
 C156 C 0.44198 0.22068 0.31587
 C157 C 0.43751 0.19067 0.31560
 C158 C 0.42312 0.17721 0.37046
 N159 N 0.41842 0.19790 0.40354
 C160 C 0.41355 0.14618 0.38798
 H161 H 0.38106 0.08387 0.43539
 H162 H 0.38048 0.08322 0.55562
 H163 H 0.40543 0.19329 0.44364
 H164 H 0.45054 0.18086 0.70872
 H165 H 0.45959 0.23813 0.71059
 H166 H 0.41429 0.29665 0.56007
 H167 H 0.41519 0.29729 0.43970
 H168 H 0.44391 0.17995 0.27903
 H169 H 0.40248 0.19188 0.55662
 H170 H 0.45262 0.23765 0.27965
 C171 C 0.66738 0.17457 0.53168
 C172 C 0.66886 0.17349 0.46921
 C173 C 0.70005 0.19198 0.45337
 N174 N 0.71772 0.20418 0.50399
 C175 C 0.69782 0.19336 0.55209
 C176 C 0.71208 0.19626 0.39331
 C177 C 0.74247 0.22025 0.37822
 C178 C 0.75829 0.22167 0.32463
 C179 C 0.78510 0.25025 0.32414
 C180 C 0.78491 0.26545 0.37750
 N181 N 0.75897 0.24689 0.41044
 C182 C 0.80703 0.29660 0.39234
 C183 C 0.81057 0.30843 0.45238
 C184 C 0.82886 0.33947 0.46908
 C185 C 0.82764 0.34045 0.53168
 C186 C 0.80860 0.30999 0.55094
 N187 N 0.79823 0.29049 0.50248
 C188 C 0.80302 0.30001 0.61228
 C189 C 0.78009 0.26948 0.62895
 C190 C 0.77956 0.25537 0.68401
 C191 C 0.75261 0.22701 0.68452
 C192 C 0.73712 0.22470 0.63007
 N193 N 0.75433 0.25054 0.59594
 C194 C 0.70720 0.19973 0.61413
 H195 H 0.64622 0.16305 0.55882
 H196 H 0.64916 0.16084 0.43892
 H197 H 0.74718 0.25642 0.55563
 H198 H 0.75095 0.20419 0.28897
 H199 H 0.80249 0.25904 0.28812
 H200 H 0.84192 0.35930 0.43939
 H201 H 0.83962 0.36115 0.55979
 H202 H 0.74526 0.21002 0.72101
 H203 H 0.75089 0.25360 0.44854
 H204 H 0.79683 0.26455 0.72011
 O205 O 0.98858 0.51345 -0.12510
 O206 O 1.04404 0.53277 0.12823
 O207 O 0.97726 0.53496 0.06033
 O208 O 1.05893 0.56733 -0.05054
 O209 O 0.98772 0.51082 0.13102
 O210 O 1.04600 0.53417 -0.12266
 O211 O 1.05470 0.56534 0.05633
 O212 O 0.96847 0.53001 -0.05414
 C213 C 0.97421 0.52794 -0.10902
 C214 C 1.05305 0.56025 0.11156
 C215 C 0.98004 0.53092 0.11537
 C216 C 1.05645 0.56184 -0.10569
 O217 O 1.03752 0.47950 -0.07888
 O218 O 0.98082 0.45652 0.08323
 O219 O 0.94589 0.46941 -0.04680
 O220 O 1.07622 0.52348 0.06065
 O221 O 1.03657 0.47895 0.07459
 O222 O 0.97871 0.45775 -0.09339
 O223 O 1.07712 0.52315 -0.05110
 O224 O 0.94812 0.47259 0.06653
 Co225 Co 1.01309 0.49742 -0.09443
 Co226 Co 1.01251 0.49605 0.09581
 Co227 Co 0.96519 0.50258 0.00681
 Co228 Co 1.06229 0.54162 0.00395
 O229 O 1.01302 0.50921 0.00247
 C230 C 1.06637 0.49630 -0.07432
 C231 C 0.95348 0.45154 0.08517
 C232 C 0.95130 0.45165 -0.08088
 C233 C 1.06525 0.49574 0.07747
 O234 O 0.51269 0.45636 -0.12001
 O235 O 0.46888 0.48863 0.11591
 O236 O 0.51779 0.44008 0.06448
 O237 O 0.45119 0.49112 -0.06873
 O238 O 0.48076 0.44659 0.10174
 O239 O 0.46458 0.45920 -0.10795
 O240 O 0.44341 0.47735 0.03419
 O241 O 0.50479 0.43049 -0.03978
 C242 C 0.50114 0.43042 -0.09540
 C243 C 0.44314 0.47481 0.09004
 C244 C 0.49279 0.42963 0.09475
 C245 C 0.44431 0.46713 -0.09999
 O246 O 0.49827 0.52079 -0.11979
 O247 O 0.54124 0.48786 0.11553
 O248 O 0.55984 0.48589 -0.06908
 O249 O 0.49234 0.53618 0.06505
 O250 O 0.52961 0.53031 0.10209
 O251 O 0.54609 0.51768 -0.10759
 O252 O 0.50606 0.54603 -0.03846
 O253 O 0.56728 0.49904 0.03446
 Co254 Co 0.50536 0.48848 -0.10274
 Co255 Co 0.50515 0.48839 0.09740
 Co256 Co 0.53442 0.46610 -0.00250
 Co257 Co 0.47625 0.51044 -0.00207
 O258 O 0.50529 0.48834 -0.00250
 C259 C 0.50940 0.54651 -0.09423
 C260 C 0.56709 0.50216 0.09016
 C261 C 0.56646 0.50984 -0.10035
 C262 C 0.51734 0.54703 0.09499
 O263 O 0.54918 0.02456 -0.09436
 O264 O 0.52843 -0.03394 0.07443
 O265 O 0.53632 0.05480 0.06960
 O266 O 0.48370 -0.07312 -0.05119
 O267 O 0.55176 0.02162 0.08414
 O268 O 0.52734 -0.03381 -0.08021
 O269 O 0.48337 -0.07277 0.06026
 O270 O 0.53996 0.05794 -0.04379
 C271 C 0.55657 0.05203 -0.08015
 C272 C 0.51114 -0.06248 0.07680
 C273 C 0.55721 0.04898 0.08719
 C274 C 0.51045 -0.06254 -0.07523
 O275 O 0.47235 -0.04217 -0.12207
 O276 O 0.49734 0.01530 0.13298
 O277 O 0.47968 0.03709 -0.05065
 O278 O 0.44221 -0.05040 0.05726
 O279 O 0.47477 -0.04068 0.12906
 O280 O 0.49299 0.01510 -0.12355
 O281 O 0.43979 -0.05412 -0.04922
 O282 O 0.47413 0.02719 0.06263
 Co283 Co 0.50938 -0.00939 -0.09430
 Co284 Co 0.51181 -0.00954 0.09660
 Co285 Co 0.50658 0.03893 0.00952
 Co286 Co 0.46555 -0.05816 0.00436
 O287 O 0.49862 -0.00922 0.00333
 C288 C 0.44471 -0.05256 -0.10448
 C289 C 0.47726 0.02312 0.11747
 C290 C 0.48007 0.03071 -0.10568
 C291 C 0.44721 -0.04966 0.11236
 C292 C 1.13454 0.46224 0.24552
 C293 C 1.11880 0.44801 0.29997
 C294 C 1.13445 0.44230 0.34743
 C295 C 1.16630 0.45056 0.34167
 C296 C 1.18189 0.46472 0.28677
 C297 C 1.16626 0.47053 0.23951
 C298 C 1.11809 0.46923 0.19609
 C299 C 1.13283 0.49817 0.16575
 C300 C 1.11623 0.50607 0.12391
 C301 C 1.08456 0.48517 0.11148
 C302 C 1.07040 0.45552 0.13905
 C303 C 1.08696 0.44768 0.18099
 H304 H 1.12135 0.43068 0.38813
 H305 H 1.20653 0.47198 0.28082
 H306 H 1.12776 0.52912 0.10357
 H307 H 1.04605 0.43886 0.13036
 H308 H 1.17900 0.48142 0.19807
 H309 H 1.15675 0.51534 0.17657
 H310 H 1.09441 0.44164 0.30625
 H311 H 1.07517 0.42497 0.20270
 C312 C 0.55465 0.65520 0.24997
 C313 C 0.56987 0.65642 0.30513
 C314 C 0.57397 0.67844 0.35000
 C315 C 0.56235 0.69950 0.34182
 C316 C 0.54833 0.69904 0.28532
 C317 C 0.54481 0.67745 0.24003
 C318 C 0.54703 0.62953 0.20506
 C319 C 0.51871 0.61666 0.17229
 C320 C 0.50995 0.59085 0.13426
 C321 C 0.52898 0.57681 0.12873
 C322 C 0.55776 0.59011 0.15975
 C323 C 0.56680 0.61633 0.19717
 H324 H 0.58612 0.67878 0.39153
 H325 H 0.53861 0.71439 0.27693
 H326 H 0.48754 0.58105 0.11124
 H327 H 0.57300 0.57987 0.15604
 H328 H 0.53368 0.67782 0.19763
 H329 H 0.50250 0.62561 0.17787
 H330 H 0.57772 0.63968 0.31479
 H331 H 0.58907 0.62593 0.22058
 C332 C 0.34118 -0.10585 0.27647
 C333 C 0.34566 -0.11247 0.33675
 C334 C 0.32011 -0.12925 0.37516
 C335 C 0.28919 -0.14048 0.35416
 C336 C 0.28466 -0.13374 0.29393
 C337 C 0.31034 -0.11628 0.25585
 C338 C 0.36842 -0.08978 0.23442
 C339 C 0.36514 -0.09807 0.17240
 C340 C 0.39074 -0.08442 0.13311
 C341 C 0.42049 -0.06262 0.15492
 C342 C 0.42407 -0.05404 0.21664
 C343 C 0.39816 -0.06724 0.25597
 H344 H 0.32453 -0.13458 0.42087
 H345 H 0.26126 -0.14136 0.27673
 H346 H 0.38738 -0.09165 0.08570
 H347 H 0.44675 -0.03701 0.23424
 H348 H 0.30594 -0.11097 0.21020
 H349 H 0.34298 -0.11583 0.15422
 H350 H 0.36888 -0.10560 0.35394
 H351 H 0.40148 -0.05980 0.30319
 C352 C 0.91013 0.56993 0.26576
 C353 C 0.91815 0.59981 0.28793
 C354 C 0.89668 0.60423 0.32322
 C355 C 0.86687 0.57894 0.33533
 C356 C 0.85826 0.54959 0.31003
 C357 C 0.87979 0.54507 0.27576
 C358 C 0.93323 0.56403 0.23333
 C359 C 0.93815 0.53932 0.25185
 C360 C 0.95605 0.53029 0.21601
 C361 C 0.96878 0.54549 0.16054
 C362 C 0.96576 0.57168 0.14435
 C363 C 0.94827 0.58104 0.18079
 H364 H 0.90374 0.62687 0.34350
 H365 H 0.83549 0.52980 0.31988
 H366 H 0.95794 0.51000 0.22944
 H367 H 0.97549 0.58385 0.10183
 H368 H 0.87304 0.52195 0.25821
 H369 H 0.92700 0.52618 0.29277
 H370 H 0.94142 0.61926 0.28043
 H371 H 0.94482 0.60022 0.16593
 C372 C 0.45288 0.32328 0.25399
 C373 C 0.47575 0.32460 0.29459
 C374 C 0.46796 0.30159 0.33905
 C375 C 0.43728 0.27672 0.34331
 C376 C 0.41434 0.27514 0.30288
 C377 C 0.42203 0.29841 0.25877
 C378 C 0.46128 0.34828 0.20796
 C379 C 0.44247 0.36242 0.20014
 C380 C 0.45208 0.38813 0.16134
 C381 C 0.48054 0.39999 0.12912
 C382 C 0.49854 0.38483 0.13462
 C383 C 0.48909 0.35936 0.17392
 H384 H 0.48590 0.30302 0.36995
 H385 H 0.39058 0.25593 0.30556
 H386 H 0.43768 0.39930 0.15798
 H387 H 0.52055 0.39339 0.11037
 H388 H 0.40402 0.29680 0.22790
 H389 H 0.42099 0.35444 0.22603
 H390 H 0.49958 0.34372 0.29248
 H391 H 0.50381 0.34860 0.17854
 C392 C 0.65322 0.13576 0.24979
 C393 C 0.65973 0.12317 0.30195
 C394 C 0.67903 0.14274 0.34825
 C395 C 0.69198 0.17527 0.34368
 C396 C 0.68580 0.18793 0.29147
 C397 C 0.66682 0.16843 0.24489
 C398 C 0.63106 0.11488 0.20236
 C399 C 0.60990 0.12269 0.17437
 C400 C 0.58713 0.10197 0.13408
 C401 C 0.58470 0.07276 0.12114
 C402 C 0.60666 0.06543 0.14684
 C403 C 0.62966 0.08631 0.18689
 H404 H 0.68362 0.13250 0.38801
 H405 H 0.69561 0.21298 0.28694
 H406 H 0.57048 0.10828 0.11525
 H407 H 0.60543 0.04313 0.13763
 H408 H 0.66277 0.17900 0.20504
 H409 H 0.60994 0.14423 0.18566
 H410 H 0.64929 0.09814 0.30782
 H411 H 0.64598 0.07982 0.20660
 C412 C 0.43171 0.08727 -0.27488
 C413 C 0.44269 0.09227 -0.33531
 C414 C 0.43607 0.11062 -0.37459
 C415 C 0.41868 0.12497 -0.35435
 C416 C 0.40721 0.11955 -0.29423
 C417 C 0.41325 0.10055 -0.25528
 C418 C 0.44168 0.07054 -0.23129
 C419 C 0.44778 0.08046 -0.17030
 C420 C 0.45937 0.06676 -0.12987
 C421 C 0.46580 0.04308 -0.14931
 C422 C 0.45953 0.03276 -0.21004
 C423 C 0.44725 0.04615 -0.25054
 H424 H 0.44590 0.11486 -0.42022
 H425 H 0.39329 0.12978 -0.27762
 H426 H 0.46426 0.07557 -0.08352
 H427 H 0.46428 0.01460 -0.22624
 H428 H 0.40369 0.09658 -0.20952
 H429 H 0.44471 0.09967 -0.15396
 H430 H 0.45756 0.08314 -0.35176
 H431 H 0.44241 0.03758 -0.29701
 C432 C 0.67560 0.55625 -0.25672
 C433 C 0.69299 0.54024 -0.25613
 C434 C 0.71622 0.54655 -0.29980
 C435 C 0.72218 0.56840 -0.34655
 C436 C 0.70524 0.58482 -0.34667
 C437 C 0.68265 0.57919 -0.30186
 C438 C 0.64907 0.54766 -0.21296
 C439 C 0.62254 0.55002 -0.23036
 C440 C 0.59649 0.53938 -0.19197
 C441 C 0.59586 0.52531 -0.13587
 C442 C 0.62249 0.52371 -0.11725
 C443 C 0.64899 0.53518 -0.15493
 H444 H 0.72846 0.53310 -0.29887
 H445 H 0.70975 0.60232 -0.38121
 H446 H 0.57612 0.54063 -0.20776
 H447 H 0.62265 0.51318 -0.07391
 H448 H 0.67062 0.59279 -0.30306
 H449 H 0.62113 0.55879 -0.27483
 H450 H 0.68799 0.52190 -0.22339
 H451 H 0.66916 0.53374 -0.13881
 C452 C 0.86134 0.35978 -0.24325
 C453 C 0.87465 0.35265 -0.29374
 C454 C 0.85579 0.33359 -0.34083
 C455 C 0.82322 0.32150 -0.33892
 C456 C 0.80981 0.32878 -0.28901
 C457 C 0.82867 0.34771 -0.24158
 C458 C 0.88176 0.38033 -0.19361
 C459 C 0.87590 0.40309 -0.16655
 C460 C 0.89742 0.42495 -0.12561
 C461 C 0.92529 0.42461 -0.11150
 C462 C 0.93013 0.40066 -0.13540
 C463 C 0.90852 0.37866 -0.17564
 H464 H 0.86658 0.32807 -0.37869
 H465 H 0.78467 0.31951 -0.28658
 H466 H 0.89327 0.44336 -0.10833
 H467 H 0.95132 0.39971 -0.12491
 H468 H 0.81763 0.35252 -0.20323
 H469 H 0.85561 0.40515 -0.17956
 H470 H 0.89977 0.36208 -0.29724
 H471 H 0.91329 0.36088 -0.19419
 C472 C 0.53841 -0.13591 -0.24358
 C473 C 0.52767 -0.16811 -0.23931
 C474 C 0.53242 -0.18417 -0.28733
 C475 C 0.54805 -0.16851 -0.34122
 C476 C 0.55864 -0.13620 -0.34534
 C477 C 0.55390 -0.12016 -0.29719
 C478 C 0.53279 -0.11884 -0.19317
 C479 C 0.55585 -0.08844 -0.17741
 C480 C 0.54933 -0.07092 -0.13527
 C481 C 0.51957 -0.08340 -0.10790
 C482 C 0.49722 -0.11456 -0.12037
 C483 C 0.50375 -0.13209 -0.16268
 H484 H 0.52329 -0.20913 -0.28269
 H485 H 0.57142 -0.12307 -0.38514
 H486 H 0.56714 -0.04704 -0.12635
 H487 H 0.47403 -0.12479 -0.10030
 H488 H 0.56211 -0.09538 -0.30224
 H489 H 0.57870 -0.07785 -0.19897
 H490 H 0.51573 -0.18092 -0.19861
 H491 H 0.48544 -0.15543 -0.17391
 C492 C 0.33705 0.42995 -0.25529
 C493 C 0.32213 0.44827 -0.25031
 C494 C 0.30048 0.44627 -0.29400
 C495 C 0.29366 0.42654 -0.34505
 C496 C 0.30796 0.40762 -0.34935
 C497 C 0.32906 0.40904 -0.30473
 C498 C 0.36237 0.43448 -0.21161
 C499 C 0.38828 0.43147 -0.23135
 C500 C 0.41403 0.43988 -0.19309
 C501 C 0.41480 0.45218 -0.13484
 C502 C 0.38845 0.45367 -0.11365
 C503 C 0.36231 0.44445 -0.15124
 H504 H 0.29037 0.46158 -0.28958
 H505 H 0.30259 0.39149 -0.38712
 H506 H 0.43421 0.43875 -0.21069
 H507 H 0.38843 0.46283 -0.06860
 H508 H 0.33928 0.39389 -0.30947
 H509 H 0.38961 0.42434 -0.27753
 H510 H 0.32805 0.46524 -0.21406
 H511 H 0.34247 0.44609 -0.13343
 C512 C 1.11014 0.66628 -0.27261
 C513 C 1.11634 0.66148 -0.33312
 C514 C 1.13262 0.68675 -0.37223
 C515 C 1.14360 0.71765 -0.35178
 C516 C 1.13712 0.72246 -0.29138
 C517 C 1.12027 0.69707 -0.25253
 C518 C 1.09492 0.63945 -0.22977
 C519 C 1.10438 0.64321 -0.16844
 C520 C 1.09143 0.61798 -0.12845
 C521 C 1.06911 0.58817 -0.14890
 C522 C 1.05940 0.58415 -0.20997
 C523 C 1.07201 0.60965 -0.24998
 H524 H 1.13789 0.68213 -0.41794
 H525 H 1.14474 0.74587 -0.27449
 H526 H 1.09952 0.62170 -0.08161
 H527 H 1.04193 0.56144 -0.22652
 H528 H 1.11531 0.70164 -0.20661
 H529 H 1.12246 0.66548 -0.15144
 H530 H 1.10963 0.63826 -0.34986
 H531 H 1.06377 0.60600 -0.29667
 C532 C 0.90423 0.56061 -0.27529
 C533 C 0.90543 0.58982 -0.27961
 C534 C 0.88446 0.59365 -0.31733
 C535 C 0.86182 0.56825 -0.35092
 C536 C 0.86004 0.53887 -0.34500
 C537 C 0.88102 0.53510 -0.30766
 C538 C 0.92642 0.55623 -0.23594
 C539 C 0.93956 0.53774 -0.25567
 C540 C 0.95716 0.53025 -0.21563
 C541 C 0.96168 0.54092 -0.15506
 C542 C 0.95026 0.56107 -0.13666
 C543 C 0.93287 0.56870 -0.17673
 H544 H 0.88672 0.61667 -0.32217
 H545 H 0.84281 0.51898 -0.37064
 H546 H 0.96571 0.51473 -0.23108
 H547 H 0.95353 0.56983 -0.09030
 H548 H 0.87909 0.51218 -0.30409
 H549 H 0.93539 0.52830 -0.30155
 H550 H 0.92314 0.60987 -0.25518
 H551 H 0.92303 0.58296 -0.16028
 C552 C 0.45602 0.32392 -0.25693
 C553 C 0.43476 0.29279 -0.24188
 C554 C 0.42621 0.26900 -0.28543
 C555 C 0.43875 0.27580 -0.34511
 C556 C 0.46065 0.30700 -0.35913
 C557 C 0.46909 0.33062 -0.31581
 C558 C 0.46453 0.34978 -0.21248
 C559 C 0.46738 0.37822 -0.23265
 C560 C 0.47834 0.40384 -0.19363
 C561 C 0.48656 0.40175 -0.13312
 C562 C 0.48220 0.37290 -0.11153
 C563 C 0.47129 0.34707 -0.15103
 H564 H 0.40914 0.24534 -0.27290
 H565 H 0.47197 0.31313 -0.40340
 H566 H 0.48092 0.42557 -0.21139
 H567 H 0.48827 0.37066 -0.06500
 H568 H 0.48625 0.35425 -0.32830
 H569 H 0.46157 0.38083 -0.27918
 H570 H 0.42420 0.28696 -0.19694
 H571 H 0.46929 0.32541 -0.13423
 C572 C 0.64863 0.14161 -0.24299
 C573 C 0.65199 0.12854 -0.29783
 C574 C 0.67088 0.14757 -0.34498
 C575 C 0.68700 0.18034 -0.33883
 C576 C 0.68329 0.19335 -0.28390
 C577 C 0.66433 0.17425 -0.23673
 C578 C 0.62835 0.12100 -0.19329
 C579 C 0.60794 0.12840 -0.16068
 C580 C 0.58602 0.10689 -0.11970
 C581 C 0.58406 0.07758 -0.11089
 C582 C 0.60594 0.07118 -0.14025
 C583 C 0.62788 0.09266 -0.18077
 H584 H 0.67363 0.13648 -0.38560
 H585 H 0.69477 0.21845 -0.27770
 H586 H 0.56929 0.11236 -0.09808
 H587 H 0.60520 0.04890 -0.13398
 H588 H 0.66225 0.18503 -0.19506
 H589 H 0.60769 0.15002 -0.16938
 H590 H 0.63981 0.10347 -0.30453
 H591 H 0.64386 0.08663 -0.20385
 C592 C 1.13808 0.46467 -0.24100
 C593 C 1.12088 0.44511 -0.28984
 C594 C 1.13609 0.43913 -0.33800
 C595 C 1.16886 0.45276 -0.33870
 C596 C 1.18614 0.47235 -0.29019
 C597 C 1.17094 0.47818 -0.24180
 C598 C 1.12176 0.47166 -0.19076
 C599 C 1.13468 0.50189 -0.16564
 C600 C 1.11762 0.50936 -0.12375
 C601 C 1.08717 0.48684 -0.10647
 C602 C 1.07508 0.45615 -0.12852
 C603 C 1.09221 0.44863 -0.16995
 H604 H 1.12230 0.42386 -0.37479
 H605 H 1.21147 0.48307 -0.28978
 H606 H 1.12749 0.53326 -0.10794
 H607 H 1.05175 0.43822 -0.11576
 H608 H 1.18491 0.49309 -0.20479
 H609 H 1.15727 0.52028 -0.18080
 H610 H 1.09562 0.43478 -0.29146
 H611 H 1.08190 0.42492 -0.18701
 C612 C 0.55067 0.65464 -0.24910
 C613 C 0.53302 0.67030 -0.24737
 C614 C 0.53705 0.69218 -0.29225
 C615 C 0.55886 0.69889 -0.33956
 C616 C 0.57741 0.68424 -0.34002
 C617 C 0.57335 0.66231 -0.29523
 C618 C 0.54332 0.62836 -0.20667
 C619 C 0.54105 0.60052 -0.22944
 C620 C 0.53094 0.57443 -0.19200
 C621 C 0.52299 0.57550 -0.13071
 C622 C 0.52647 0.60365 -0.10688
 C623 C 0.53637 0.62985 -0.14472
 H624 H 0.52246 0.70320 -0.29121
 H625 H 0.59459 0.68937 -0.37579
 H626 H 0.52865 0.55310 -0.21157
 H627 H 0.52055 0.60508 -0.05973
 H628 H 0.58756 0.65090 -0.29728
 H629 H 0.54581 0.59845 -0.27704
 H630 H 0.51510 0.66461 -0.21294
 H631 H 0.53817 0.65111 -0.12586
 C632 C 0.33862 -0.11038 -0.26829
 C633 C 0.34322 -0.11675 -0.32883
 C634 C 0.31782 -0.13270 -0.36787
 C635 C 0.28687 -0.14349 -0.34730
 C636 C 0.28215 -0.13739 -0.28658
 C637 C 0.30772 -0.12064 -0.24787
 C638 C 0.36585 -0.09425 -0.22623
 C639 C 0.36249 -0.10184 -0.16385
 C640 C 0.38807 -0.08775 -0.12460
 C641 C 0.41789 -0.06625 -0.14680
 C642 C 0.42155 -0.05859 -0.20896
 C643 C 0.39570 -0.07210 -0.24815
 H644 H 0.32236 -0.13767 -0.41388
 H645 H 0.25872 -0.14481 -0.26958
 H646 H 0.38461 -0.09436 -0.07689
 H647 H 0.44430 -0.04208 -0.22710
 H648 H 0.30318 -0.11559 -0.20201
 H649 H 0.34027 -0.11928 -0.14528
 H650 H 0.36641 -0.11016 -0.34597
 H651 H 0.39918 -0.06512 -0.29560
 C652 C 0.54335 -0.13427 0.24159
 C653 C 0.52988 -0.16701 0.23998
 C654 C 0.53456 -0.18308 0.28790
 C655 C 0.55306 -0.16683 0.33838
 C656 C 0.56714 -0.13411 0.33959
 C657 C 0.56223 -0.11801 0.29190
 C658 C 0.53646 -0.11731 0.19275
 C659 C 0.55923 -0.08722 0.17413
 C660 C 0.55159 -0.07002 0.13331
 C661 C 0.52104 -0.08257 0.10990
 C662 C 0.49882 -0.11331 0.12559
 C663 C 0.50638 -0.13041 0.16668
 H664 H 0.52350 -0.20833 0.28587
 H665 H 0.58166 -0.12106 0.37783
 H666 H 0.56927 -0.04641 0.12197
 H667 H 0.47503 -0.12361 0.10864
 H668 H 0.57259 -0.09287 0.29527
 H669 H 0.58282 -0.07665 0.19217
 H670 H 0.51563 -0.18029 0.20168
 H671 H 0.48812 -0.15334 0.18028
 C672 C 0.33454 0.43207 0.24439
 C673 C 0.32046 0.45117 0.24376
 C674 C 0.29914 0.44832 0.28923
 C675 C 0.29128 0.42617 0.33599
 C676 C 0.30411 0.40599 0.33502
 C677 C 0.32571 0.40905 0.28982
 C678 C 0.36063 0.43849 0.20172
 C679 C 0.38850 0.44063 0.22424
 C680 C 0.41487 0.45121 0.18685
 C681 C 0.41388 0.45958 0.12596
 C682 C 0.38553 0.45570 0.10218
 C683 C 0.35916 0.44547 0.13994
 H684 H 0.28958 0.46418 0.28921
 H685 H 0.29808 0.38852 0.37029
 H686 H 0.43640 0.45377 0.20617
 H687 H 0.38418 0.46197 0.05535
 H688 H 0.33603 0.39386 0.29107
 H689 H 0.39044 0.43571 0.27171
 H690 H 0.32712 0.46938 0.20985
 H691 H 0.33786 0.44378 0.12136
 C692 C 1.11072 0.66605 0.27474
 C693 C 1.12927 0.66458 0.32220
 C694 C 1.14693 0.69061 0.35886
 C695 C 1.14660 0.71868 0.34854
 C696 C 1.12832 0.72049 0.30131
 C697 C 1.11040 0.69432 0.26475
 C698 C 1.09307 0.63864 0.23420
 C699 C 1.09179 0.64298 0.17120
 C700 C 1.07773 0.61738 0.13203
 C701 C 1.06480 0.58675 0.15474
 C702 C 1.06494 0.58221 0.21790
 C703 C 1.07891 0.60793 0.25732
 H704 H 1.16091 0.68893 0.39547
 H705 H 1.12759 0.74195 0.29344
 H706 H 1.07793 0.62169 0.08351
 H707 H 1.05489 0.55886 0.23666
 H708 H 1.09609 0.69613 0.22905
 H709 H 1.10277 0.66621 0.15169
 H710 H 1.13059 0.64346 0.33039
 H711 H 1.07898 0.60380 0.30583
 C712 C 0.43161 0.08364 0.27979
 C713 C 0.45557 0.10766 0.31397
 C714 C 0.44966 0.12849 0.34732
 C715 C 0.41981 0.12588 0.34686
 C716 C 0.39581 0.10224 0.31247
 C717 C 0.40166 0.08122 0.27910
 C718 C 0.43872 0.06262 0.24221
 C719 C 0.42719 0.05509 0.18243
 C720 C 0.43807 0.04000 0.14326
 C721 C 0.46083 0.03225 0.16290
 C722 C 0.47042 0.03737 0.22410
 C723 C 0.45945 0.05245 0.26345
 H724 H 0.46830 0.14651 0.37424
 H725 H 0.37250 0.09971 0.31263
 H726 H 0.42996 0.03604 0.09643
 H727 H 0.48772 0.03139 0.24059
 H728 H 0.38272 0.06287 0.25342
 H729 H 0.41129 0.06263 0.16459
 H730 H 0.47904 0.11065 0.31430
 H731 H 0.46815 0.05729 0.30983
 C732 C 0.67643 0.55644 0.24467
 C733 C 0.69404 0.54075 0.24597
 C734 C 0.71694 0.54792 0.29057
 C735 C 0.72294 0.57112 0.33442
 C736 C 0.70626 0.58770 0.33180
 C737 C 0.68307 0.58030 0.28753
 C738 C 0.64951 0.54597 0.20223
 C739 C 0.62047 0.54119 0.22423
 C740 C 0.59401 0.52781 0.18692
 C741 C 0.59601 0.51919 0.12655
 C742 C 0.62530 0.52533 0.10337
 C743 C 0.65179 0.53838 0.14110
 H744 H 0.72947 0.53476 0.29196
 H745 H 0.71070 0.60582 0.36495
 H746 H 0.57177 0.52357 0.20581
 H747 H 0.62746 0.51897 0.05694
 H748 H 0.66999 0.59291 0.28727
 H749 H 0.61790 0.54651 0.27120
 H750 H 0.68916 0.52199 0.21413
 H751 H 0.67397 0.54206 0.12288
 C752 C 0.86650 0.35648 0.24886
 C753 C 0.87956 0.35013 0.30052
 C754 C 0.86032 0.33065 0.34695
 C755 C 0.82763 0.31730 0.34296
 C756 C 0.81447 0.32335 0.29134
 C757 C 0.83368 0.34269 0.24472
 C758 C 0.88713 0.37841 0.20092
 C759 C 0.87960 0.39994 0.17388
 C760 C 0.90040 0.42257 0.13332
 C761 C 0.92930 0.42432 0.11909
 C762 C 0.93618 0.40188 0.14371
 C763 C 0.91530 0.37914 0.18406
 H764 H 0.87091 0.32611 0.38624
 H765 H 0.78928 0.31313 0.28729
 H766 H 0.89447 0.43961 0.11537
 H767 H 0.95821 0.40256 0.13347
 H768 H 0.82282 0.34674 0.20530
 H769 H 0.85828 0.40027 0.18619
 H770 H 0.90472 0.36074 0.30575
 H771 H 0.92152 0.36250 0.20300
   
