data_POSCAR
  _audit_creation_date              2014-09-24
  _audit_creation_method            'ToBaCCo'
  _symmetry_space_group_name_H-M    'P1'
  _symmetry_Int_Tables_number       1
  _symmetry_cell_setting            triclinic
  loop_
  _symmetry_equiv_pos_as_xyz
 x,y,z
_cell_length_a 57.2766
_cell_length_b 57.3262
_cell_length_c 57.2653
_cell_angle_alpha 89.883000
_cell_angle_beta 90.102600
_cell_angle_gamma 90.028200
loop_
  _atom_site_label
  _atom_site_type_symbol
  _atom_site_fract_x
  _atom_site_fract_y
  _atom_site_fract_z
C1 C 0.21355 0.51748 1.02909
 H2 H 0.21300 0.53102 1.01591
 C3 C 0.19766 0.51780 1.04755
 H4 H 0.18488 0.53169 1.04863
 C5 C 0.23044 0.48246 1.04338
 H6 H 0.24290 0.46848 1.04144
 C7 C 0.21486 0.48210 1.06213
 H8 H 0.21556 0.46792 1.07466
 N9 N 0.22958 0.50006 1.02741
 C10 C 0.28506 0.52859 0.98377
 H11 H 0.28570 0.51543 0.97027
 C12 C 0.30084 0.54716 0.98343
 H13 H 0.31365 0.54838 0.96958
 C14 C 0.26802 0.54276 1.01870
 H15 H 0.25553 0.54075 1.03266
 C16 C 0.28350 0.56161 1.01902
 H17 H 0.28275 0.57416 1.03311
 Zn18 Zn 0.24931 0.50027 1.00093
 N19 N 0.26899 0.52680 1.00116
 C20 C 0.23067 0.51807 0.95831
 N21 N 0.22970 0.50048 0.97430
 C22 C 0.21365 0.48307 0.97249
 C23 C 0.19787 0.48275 0.95389
 C24 C 0.21518 0.51841 0.93943
 C25 C 0.28494 0.47191 1.01837
 C26 C 0.30071 0.45335 1.01880
 C27 C 0.28350 0.43894 0.98306
 C28 C 0.26803 0.45779 0.98328
 N29 N 0.26895 0.47373 1.00086
 H30 H 0.24314 0.53205 0.96035
 H31 H 0.21301 0.46954 0.98567
 H32 H 0.18506 0.46889 0.95265
 H33 H 0.21592 0.53254 0.92686
 H34 H 0.28554 0.48505 1.03189
 H35 H 0.31346 0.45211 1.03274
 H36 H 0.28280 0.42641 0.96894
 H37 H 0.25561 0.45983 0.96923
 C38 C 0.30007 0.56378 1.00124
 C39 C 0.19828 0.49991 1.06420
 C40 C 0.30000 0.43675 1.00096
 C41 C 0.19862 0.50061 0.93724
 C42 C 0.78546 0.51822 -0.02803
 H43 H 0.78614 0.53153 -0.01468
 C44 C 0.80116 0.51887 -0.04664
 H45 H 0.81395 0.53277 -0.04771
 C46 C 0.76839 0.48347 -0.04267
 H47 H 0.75592 0.46946 -0.04082
 C48 C 0.78379 0.48346 -0.06157
 H49 H 0.78299 0.46957 -0.07433
 N50 N 0.76940 0.50079 -0.02646
 C51 C 0.71407 0.52866 0.01762
 H52 H 0.71344 0.51530 0.03097
 C53 C 0.69828 0.54719 0.01816
 H54 H 0.68547 0.54820 0.03202
 C55 C 0.73108 0.54335 -0.01718
 H56 H 0.74355 0.54155 -0.03118
 C57 C 0.71559 0.56218 -0.01729
 H58 H 0.71632 0.57493 -0.03126
 Zn59 Zn 0.74976 0.50059 0.00008
 N60 N 0.73013 0.52714 0.00020
 C61 C 0.76844 0.51765 0.04292
 N62 N 0.76941 0.50036 0.02668
 C63 C 0.78542 0.48290 0.02828
 C64 C 0.80112 0.48219 0.04695
 C65 C 0.78385 0.51760 0.06187
 C66 C 0.71400 0.47258 -0.01759
 C67 C 0.69820 0.45405 -0.01822
 C68 C 0.71549 0.43901 0.01727
 C69 C 0.73100 0.45784 0.01725
 N70 N 0.73007 0.47408 -0.00012
 H71 H 0.75600 0.53168 0.04105
 H72 H 0.78606 0.46961 0.01491
 H73 H 0.81387 0.46827 0.04804
 H74 H 0.78308 0.53148 0.07466
 H75 H 0.71339 0.48596 -0.03093
 H76 H 0.68539 0.45306 -0.03213
 H77 H 0.71621 0.42624 0.03123
 H78 H 0.74348 0.45962 0.03129
 C79 C 0.69902 0.56407 0.00052
 C80 C 0.80033 0.50132 -0.06353
 C81 C 0.69893 0.43714 -0.00060
 C82 C 0.80034 0.49972 0.06387
 C83 C -0.01704 0.28588 0.47278
 H84 H -0.03040 0.28655 0.48610
 C85 C -0.01765 0.30157 0.45411
 H86 H -0.03159 0.31430 0.45300
 C87 C 0.01777 0.26885 0.45830
 H88 H 0.03178 0.25639 0.46023
 C89 C 0.01784 0.28422 0.43933
 H90 H 0.03181 0.28337 0.42662
 N91 N 0.00040 0.26985 0.47446
 C92 C -0.02769 0.21451 0.51861
 H93 H -0.01436 0.21387 0.53201
 C94 C -0.04625 0.19873 0.51914
 H95 H -0.04731 0.18592 0.53303
 C96 C -0.04226 0.23154 0.48372
 H97 H -0.04040 0.24401 0.46969
 C98 C -0.06111 0.21605 0.48359
 H99 H -0.07382 0.21679 0.46958
 Zn100 Zn 0.00048 0.25021 0.50106
 N101 N -0.02609 0.23058 0.50116
 C102 C -0.01675 0.26883 0.54378
 N103 N 0.00063 0.26982 0.52761
 C104 C 0.01810 0.28583 0.52923
 C105 C 0.01873 0.30150 0.54785
 C106 C -0.01678 0.28420 0.56268
 C107 C 0.02855 0.21450 0.48360
 C108 C 0.04709 0.19871 0.48308
 C109 C 0.06204 0.21597 0.51857
 C110 C 0.04321 0.23146 0.51843
 N111 N 0.02701 0.23054 0.50102
 H112 H -0.03079 0.25639 0.54189
 H113 H 0.03146 0.28649 0.51592
 H114 H 0.03266 0.31425 0.54896
 H115 H -0.03072 0.28341 0.57541
 H116 H 0.01521 0.21389 0.47022
 H117 H 0.04812 0.18592 0.46922
 H118 H 0.07477 0.21668 0.53256
 H119 H 0.04139 0.24392 0.53242
 C120 C -0.06308 0.19948 0.50144
 C121 C -0.00003 0.30075 0.43724
 C122 C 0.06396 0.19943 0.50075
 C123 C 0.00111 0.30069 0.56470
 C124 C 0.98255 0.71396 0.52616
 H125 H 0.96930 0.71333 0.51269
 C126 C 0.98185 0.69817 0.54473
 H127 H 0.96797 0.68535 0.54565
 C128 C 1.01724 0.73100 0.54112
 H129 H 1.03125 0.74349 0.53940
 C130 C 1.01719 0.71550 0.55999
 H131 H 1.03105 0.71624 0.57286
 N132 N 0.99999 0.73004 0.52475
 C133 C 0.97212 0.78522 0.48020
 H134 H 0.98549 0.78584 0.46689
 C135 C 0.95355 0.80098 0.47950
 H136 H 0.95254 0.81376 0.46557
 C137 C 0.95744 0.76830 0.51506
 H138 H 0.95927 0.75588 0.52914
 C139 C 0.93859 0.78376 0.51501
 H140 H 0.92585 0.78306 0.52896
 Zn141 Zn 1.00028 0.74967 0.49815
 N142 N 0.97367 0.76923 0.49773
 C143 C 0.98343 0.73079 0.45530
 N144 N 1.00067 0.72998 0.47167
 C145 C 1.01818 0.71399 0.47040
 C146 C 1.01895 0.69812 0.45196
 C147 C 0.98354 0.71520 0.43656
 C148 C 1.02823 0.78541 0.51590
 C149 C 1.04677 0.80122 0.51658
 C150 C 1.06190 0.78399 0.48123
 C151 C 1.04308 0.76847 0.48120
 N152 N 1.02679 0.76937 0.49846
 H153 H 0.96936 0.74321 0.45691
 H154 H 1.03142 0.71348 0.48388
 H155 H 1.03288 0.68537 0.45116
 H156 H 0.96968 0.71581 0.42368
 H157 H 1.01482 0.78600 0.52916
 H158 H 1.04771 0.81401 0.53046
 H159 H 1.07471 0.78330 0.46735
 H160 H 1.04134 0.75601 0.46719
 C161 C 0.93668 0.80028 0.49710
 C162 C 0.99935 0.69892 0.56176
 C163 C 1.06372 0.80053 0.49906
 C164 C 1.00145 0.69871 0.43493
 C165 C 0.47153 -0.01781 0.28510
 H166 H 0.48483 -0.03119 0.28578
 C167 C 0.45298 -0.01832 0.30088
 H168 H 0.45191 -0.03217 0.31373
 C169 C 0.45700 0.01702 0.26799
 H170 H 0.45889 0.03102 0.25550
 C171 C 0.43817 0.01717 0.28347
 H172 H 0.42549 0.03117 0.28270
 N173 N 0.47314 -0.00039 0.26900
 C174 C 0.51748 -0.02822 0.21387
 H175 H 0.53077 -0.01482 0.21328
 C176 C 0.51823 -0.04677 0.19814
 H177 H 0.53220 -0.04769 0.18543
 C178 C 0.48270 -0.04304 0.23076
 H179 H 0.46865 -0.04127 0.24317
 C180 C 0.48276 -0.06189 0.21532
 H181 H 0.46884 -0.07469 0.21608
 Zn182 Zn 0.49974 -0.00022 0.24944
 N183 N 0.49999 -0.02676 0.22984
 C184 C 0.54246 -0.01737 0.26837
 N185 N 0.52626 -0.00001 0.26920
 C186 C 0.52781 0.01744 0.28521
 C187 C 0.54637 0.01805 0.30104
 C188 C 0.56130 -0.01741 0.28390
 C189 C 0.48213 0.02779 0.21359
 C190 C 0.48146 0.04637 0.19781
 C191 C 0.51685 0.06145 0.21520
 C192 C 0.51687 0.04257 0.23069
 N193 N 0.49957 0.02630 0.22970
 H194 H 0.54063 -0.03140 0.25594
 H195 H 0.51447 0.03078 0.28575
 H196 H 0.54741 0.03196 0.31378
 H197 H 0.57405 -0.03135 0.28324
 H198 H 0.46884 0.01440 0.21294
 H199 H 0.46757 0.04738 0.18499
 H200 H 0.53074 0.07426 0.21598
 H201 H 0.53087 0.04080 0.24321
 C202 C 0.50068 -0.06375 0.19884
 C203 C 0.43619 -0.00064 0.30009
 C204 C 0.49900 0.06333 0.19861
 C205 C 0.56323 0.00044 0.30040
 C206 C 0.52932 -0.01756 0.71466
 H207 H 0.51598 -0.03092 0.71411
 C208 C 0.54790 -0.01823 0.69893
 H209 H 0.54896 -0.03219 0.68625
 C210 C 0.54392 0.01736 0.73141
 H211 H 0.54206 0.03144 0.74375
 C212 C 0.56278 0.01735 0.71597
 H213 H 0.57552 0.03131 0.71662
 N214 N 0.52773 -0.00003 0.73056
 C215 C 0.48331 -0.02747 0.78597
 H216 H 0.47006 -0.01403 0.78643
 C217 C 0.48248 -0.04597 0.80184
 H218 H 0.46852 -0.04685 0.81455
 C219 C 0.51805 -0.04246 0.76924
 H220 H 0.53212 -0.04080 0.75681
 C221 C 0.51788 -0.06125 0.78482
 H222 H 0.53171 -0.07413 0.78422
 Zn223 Zn 0.50112 0.00028 0.75012
 N224 N 0.50082 -0.02613 0.76999
 C225 C 0.45843 -0.01705 0.73136
 N226 N 0.47461 0.00034 0.73034
 C227 C 0.47305 0.01768 0.71415
 C228 C 0.45452 0.01814 0.69828
 C229 C 0.43961 -0.01724 0.71580
 C230 C 0.51870 0.02855 0.78568
 C231 C 0.51929 0.04719 0.80133
 C232 C 0.48388 0.06207 0.78378
 C233 C 0.48394 0.04314 0.76843
 N234 N 0.50128 0.02693 0.76957
 H235 H 0.46026 -0.03099 0.74394
 H236 H 0.48638 0.03104 0.71347
 H237 H 0.45348 0.03194 0.68537
 H238 H 0.42689 -0.03121 0.71659
 H239 H 0.53202 0.01520 0.78646
 H240 H 0.53316 0.04828 0.81417
 H241 H 0.46996 0.07482 0.78289
 H242 H 0.46995 0.04126 0.75592
 C243 C 0.49994 -0.06299 0.80127
 C244 C 0.56475 -0.00059 0.69957
 C245 C 0.50170 0.06407 0.80039
 C246 C 0.43768 0.00049 0.69910
 C247 C 0.28582 0.01827 0.47214
 H248 H 0.28624 0.03147 0.48561
 C249 C 0.30179 0.01916 0.45378
 H250 H 0.31424 0.03336 0.45305
 C251 C 0.26912 -0.01637 0.45697
 H252 H 0.25675 -0.03050 0.45858
 C253 C 0.28478 -0.01616 0.43829
 H254 H 0.28424 -0.03019 0.42567
 N255 N 0.26988 0.00074 0.47337
 C256 C 0.21479 0.02756 0.51833
 H257 H 0.21449 0.01403 0.53152
 C258 C 0.19878 0.04586 0.51932
 H259 H 0.18642 0.04649 0.53358
 C260 C 0.23126 0.04296 0.48363
 H261 H 0.24357 0.04146 0.46945
 C262 C 0.21555 0.06159 0.48394
 H263 H 0.21598 0.07429 0.46993
 Zn264 Zn 0.25031 -0.00002 0.49993
 N265 N 0.23065 0.02646 0.50073
 C266 C 0.26954 0.01631 0.54280
 N267 N 0.27011 -0.00081 0.52639
 C268 C 0.28603 -0.01836 0.52755
 C269 C 0.30215 -0.01926 0.54582
 C270 C 0.28536 0.01608 0.56139
 C271 C 0.21457 -0.02754 0.48172
 C272 C 0.19851 -0.04582 0.48080
 C273 C 0.21555 -0.06160 0.51608
 C274 C 0.23130 -0.04298 0.51632
 N275 N 0.23058 -0.02648 0.49924
 H276 H 0.25718 0.03045 0.54125
 H277 H 0.28630 -0.03156 0.51408
 H278 H 0.31458 -0.03348 0.54649
 H279 H 0.28496 0.03012 0.57401
 H280 H 0.21418 -0.01400 0.46854
 H281 H 0.18602 -0.04643 0.46660
 H282 H 0.21607 -0.07431 0.53008
 H283 H 0.24374 -0.04151 0.53044
 C284 C 0.19892 0.06313 0.50188
 C285 C 0.30150 0.00170 0.43661
 C286 C 0.19876 -0.06311 0.49822
 C287 C 0.30206 -0.00180 0.56299
 C288 C 0.71503 0.01741 0.52807
 H289 H 0.71433 0.03084 0.51478
 C290 C 0.69938 0.01791 0.54672
 H291 H 0.68657 0.03177 0.54758
 C292 C 0.73195 -0.01753 0.54237
 H293 H 0.74440 -0.03152 0.54041
 C294 C 0.71661 -0.01772 0.56130
 H295 H 0.71776 -0.03169 0.57400
 N296 N 0.73097 -0.00005 0.52630
 C297 C 0.78613 0.02780 0.48192
 H298 H 0.78646 0.01454 0.46851
 C299 C 0.80218 0.04611 0.48130
 H300 H 0.81460 0.04701 0.46710
 C301 C 0.76954 0.04251 0.51679
 H302 H 0.75715 0.04075 0.53088
 C303 C 0.78528 0.06114 0.51685
 H304 H 0.78481 0.07356 0.53105
 Zn305 Zn 0.75045 -0.00010 0.49964
 N306 N 0.77019 0.02637 0.49942
 C307 C 0.73149 0.01733 0.45707
 N308 N 0.73067 -0.00015 0.47315
 C309 C 0.71468 -0.01761 0.47149
 C310 C 0.69883 -0.01811 0.45295
 C311 C 0.71594 0.01753 0.43825
 C312 C 0.78630 -0.02802 0.51707
 C313 C 0.80235 -0.04632 0.51755
 C314 C 0.78503 -0.06133 0.48213
 C315 C 0.76929 -0.04271 0.48233
 N316 N 0.77016 -0.02658 0.49970
 H317 H 0.74397 0.03133 0.45894
 H318 H 0.71412 -0.03105 0.48477
 H319 H 0.68600 -0.03197 0.45218
 H320 H 0.71697 0.03150 0.42554
 H321 H 0.78680 -0.01476 0.53048
 H322 H 0.81494 -0.04722 0.53164
 H323 H 0.78438 -0.07375 0.46792
 H324 H 0.75675 -0.04095 0.46834
 C325 C 0.80199 0.06303 0.49900
 C326 C 0.69999 0.00013 0.56362
 C327 C 0.80194 -0.06322 0.49984
 C328 C 0.69928 -0.00033 0.43605
 C329 C 0.48181 0.21474 1.02752
 H330 H 0.46849 0.21412 1.01411
 C331 C 0.48118 0.19893 1.04608
 H332 H 0.46735 0.18607 1.04675
 C333 C 0.51659 0.23167 1.04222
 H334 H 0.53058 0.24417 1.04046
 C335 C 0.51666 0.21616 1.06107
 H336 H 0.53052 0.21725 1.07390
 N337 N 0.49925 0.23076 1.02599
 C338 C 0.47170 0.28614 0.98158
 H339 H 0.48510 0.28661 0.96829
 C340 C 0.45337 0.30215 0.98087
 H341 H 0.45260 0.31469 0.96673
 C342 C 0.45666 0.26923 1.01623
 H343 H 0.45831 0.25674 1.03028
 C344 C 0.43801 0.28494 1.01620
 H345 H 0.42545 0.28433 1.03029
 Zn346 Zn 0.49953 0.25045 0.99943
 N347 N 0.47298 0.27007 0.99902
 C348 C 0.48264 0.23179 0.95657
 N349 N 0.49995 0.23091 0.97285
 C350 C 0.51749 0.21502 0.97133
 C351 C 0.51825 0.19932 0.95275
 C352 C 0.48271 0.21639 0.93770
 C353 C 0.52715 0.28622 1.01734
 C354 C 0.54542 0.30231 1.01812
 C355 C 0.56093 0.28536 0.98281
 C356 C 0.54233 0.26958 0.98270
 N357 N 0.52597 0.27024 0.99988
 H358 H 0.46857 0.24419 0.95833
 H359 H 0.53078 0.21441 0.98477
 H360 H 0.53216 0.18656 0.95209
 H361 H 0.46887 0.21746 0.92483
 H362 H 0.51372 0.28656 1.03060
 H363 H 0.54613 0.31476 1.03230
 H364 H 0.57353 0.28488 0.96875
 H365 H 0.54076 0.25716 0.96863
 C366 C 0.43628 0.30179 0.99842
 C367 C 0.49882 0.19946 1.06314
 C368 C 0.56257 0.30210 1.00062
 C369 C 0.50065 0.19983 0.93564
 C370 C 0.48119 0.78596 -0.02679
 H371 H 0.46799 0.78633 -0.01331
 C372 C 0.48031 0.80199 -0.04514
 H373 H 0.46611 0.81444 -0.04586
 C374 C 0.51583 0.76933 -0.04200
 H375 H 0.52996 0.75696 -0.04041
 C376 C 0.51563 0.78506 -0.06067
 H377 H 0.52966 0.78457 -0.07330
 N378 N 0.49871 0.77002 -0.02558
 C379 C 0.47186 0.71484 0.01946
 H380 H 0.48540 0.71451 0.03264
 C381 C 0.45353 0.69882 0.02046
 H382 H 0.45291 0.68642 0.03473
 C383 C 0.45645 0.73139 -0.01525
 H384 H 0.45795 0.74373 -0.02944
 C385 C 0.43780 0.71567 -0.01493
 H386 H 0.42509 0.71613 -0.02894
 Zn387 Zn 0.49949 0.75038 0.00099
 N388 N 0.47296 0.73074 0.00184
 C389 C 0.48328 0.76947 0.04390
 N390 N 0.50035 0.77008 0.02743
 C391 C 0.51794 0.78597 0.02851
 C392 C 0.51893 0.80203 0.04677
 C393 C 0.48359 0.78521 0.06249
 C394 C 0.52700 0.71474 -0.01725
 C395 C 0.54530 0.69871 -0.01819
 C396 C 0.56112 0.71562 0.01707
 C397 C 0.54248 0.73134 0.01733
 N398 N 0.52595 0.73067 0.00026
 H399 H 0.46910 0.75712 0.04242
 H400 H 0.53111 0.78628 0.01499
 H401 H 0.53318 0.81443 0.04738
 H402 H 0.46960 0.78478 0.07516
 H403 H 0.51343 0.71439 -0.03042
 H404 H 0.54589 0.68629 -0.03239
 H405 H 0.57385 0.71611 0.03105
 H406 H 0.54103 0.74372 0.03145
 C407 C 0.43626 0.69900 0.00302
 C408 C 0.49777 0.80178 -0.06233
 C409 C 0.56261 0.69892 -0.00079
 C410 C 0.50152 0.80188 0.06401
 C411 C 1.02747 0.48021 0.21405
 H412 H 1.01407 0.46691 0.21376
 C413 C 1.04566 0.47951 0.19788
 H414 H 1.04633 0.46536 0.18541
 C415 C 1.04269 0.51487 0.23066
 H416 H 1.04118 0.52891 0.24311
 C417 C 1.06120 0.51484 0.21481
 H418 H 1.07379 0.52894 0.21527
 N419 N 1.02636 0.49764 0.23007
 C420 C 0.98291 0.47004 0.28612
 H421 H 0.96973 0.48352 0.28692
 C422 C 0.98237 0.45152 0.30195
 H423 H 0.96874 0.45094 0.31502
 C424 C 1.01729 0.45512 0.26870
 H425 H 1.03109 0.45679 0.25598
 C426 C 1.01744 0.43630 0.28424
 H427 H 1.03117 0.42338 0.28297
 Zn428 Zn 1.00017 0.49799 0.25015
 N429 N 1.00010 0.47144 0.26984
 C430 C 0.95703 0.48114 0.23200
 N431 N 0.97331 0.49839 0.23088
 C432 C 0.97163 0.51586 0.21488
 C433 C 0.95288 0.51660 0.19929
 C434 C 0.93800 0.48118 0.21671
 C435 C 1.01863 0.52583 0.28554
 C436 C 1.01961 0.54423 0.30143
 C437 C 0.98392 0.55945 0.28482
 C438 C 0.98362 0.54073 0.26923
 N439 N 1.00089 0.52446 0.26980
 H440 H 0.95892 0.46713 0.24449
 H441 H 0.98507 0.52910 0.21408
 H442 H 0.95210 0.53044 0.18642
 H443 H 0.92514 0.46738 0.21794
 H444 H 1.03196 0.51247 0.28582
 H445 H 1.03400 0.54509 0.31369
 H446 H 0.96979 0.57198 0.28440
 H447 H 0.96934 0.53902 0.25701
 C448 C 0.99984 0.43435 0.30119
 C449 C 1.06279 0.49705 0.19805
 C450 C 1.00203 0.56130 0.30129
 C451 C 0.93579 0.49904 0.20002
 C452 C -0.02876 0.48347 0.78585
 H453 H -0.01528 0.47029 0.78688
 C454 C -0.04737 0.48301 0.80154
 H455 H -0.04801 0.46946 0.81471
 C456 C -0.04359 0.51775 0.76803
 H457 H -0.04185 0.53147 0.75521
 C458 C -0.06250 0.51798 0.78340
 H459 H -0.07540 0.53170 0.78191
 N460 N -0.02727 0.50057 0.76944
 C461 C 0.01740 0.47185 0.71508
 H462 H 0.03068 0.48525 0.71429
 C463 C 0.01815 0.45308 0.69961
 H464 H 0.03204 0.45224 0.68685
 C465 C -0.01745 0.45739 0.73202
 H466 H -0.03152 0.45934 0.74439
 C467 C -0.01740 0.43833 0.71686
 H468 H -0.03125 0.42553 0.71807
 Zn469 Zn -0.00062 0.50054 0.74997
 N470 N -0.00015 0.47361 0.73093
 C471 C 0.04205 0.48407 0.76957
 N472 N 0.02579 0.50135 0.76983
 C473 C 0.02709 0.51915 0.78543
 C474 C 0.04538 0.52016 0.80153
 C475 C 0.06066 0.48439 0.78537
 C476 C -0.01829 0.52759 0.71350
 C477 C -0.01900 0.54570 0.69720
 C478 C 0.01624 0.56143 0.71428
 C479 C 0.01628 0.54299 0.73027
 N480 N -0.00091 0.52661 0.72967
 H481 H 0.04039 0.46974 0.75746
 H482 H 0.01373 0.53249 0.78546
 H483 H 0.04618 0.53458 0.81368
 H484 H 0.07317 0.47024 0.78521
 H485 H -0.03155 0.51415 0.71322
 H486 H -0.03312 0.54627 0.68462
 H487 H 0.03028 0.57407 0.71475
 H488 H 0.03028 0.54158 0.74284
 C489 C 0.00053 0.43605 0.70030
 C490 C -0.06453 0.50048 0.80049
 C491 C -0.00152 0.56289 0.69738
 C492 C 0.06242 0.50254 0.80173
 C493 C 0.17109 0.12300 0.49579
 C494 C 0.14793 0.11818 0.50192
 C495 C 0.14150 0.09547 0.50817
 C496 C 0.15809 0.07762 0.50825
 C497 C 0.08271 0.18273 0.50097
 C498 C 0.18774 0.10515 0.49585
 C499 C 0.13065 0.13639 0.50163
 C500 C 0.11583 0.15132 0.50141
 C501 C 0.09813 0.16843 0.50116
 C502 C 0.18141 0.08224 0.50207
 H503 H 0.17627 0.14053 0.49096
 H504 H 0.12360 0.09153 0.51284
 H505 H 0.15257 0.06012 0.51276
 H506 H 0.20559 0.10930 0.49125
 C507 C 0.62253 0.67113 0.00530
 C508 C 0.61769 0.64796 -0.00070
 C509 C 0.59495 0.64151 -0.00686
 C510 C 0.57708 0.65809 -0.00698
 C511 C 0.68231 0.58280 0.00031
 C512 C 0.60467 0.68776 0.00520
 C513 C 0.63592 0.63069 -0.00038
 C514 C 0.65086 0.61589 -0.00014
 C515 C 0.66799 0.59821 0.00011
 C516 C 0.58172 0.68142 -0.00093
 H517 H 0.64010 0.67632 0.01006
 H518 H 0.59098 0.62360 -0.01144
 H519 H 0.55955 0.65256 -0.01143
 H520 H 0.60884 0.70562 0.00970
 C521 C 0.82964 -0.12299 0.49263
 C522 C 0.85288 -0.11830 0.49862
 C523 C 0.85943 -0.09570 0.50506
 C524 C 0.84286 -0.07783 0.50551
 C525 C 0.91796 -0.18299 0.49722
 C526 C 0.81302 -0.10512 0.49306
 C527 C 0.87012 -0.13655 0.49808
 C528 C 0.88490 -0.15151 0.49772
 C529 C 0.90257 -0.16866 0.49741
 C530 C 0.81945 -0.08233 0.49952
 H531 H 0.82438 -0.14045 0.48766
 H532 H 0.87739 -0.09185 0.50963
 H533 H 0.84845 -0.06041 0.51020
 H534 H 0.79510 -0.10918 0.48859
 C535 C 0.40390 0.35927 0.99284
 C536 C 0.38122 0.35277 0.99915
 C537 C 0.37645 0.32957 1.00513
 C538 C 0.39431 0.31292 1.00484
 C539 C 0.31668 0.41799 1.00065
 C540 C 0.42176 0.34268 0.99253
 C541 C 0.36300 0.37004 0.99963
 C542 C 0.34808 0.38485 0.99999
 C543 C 0.33098 0.40256 1.00037
 C544 C 0.41718 0.31930 0.99853
 H545 H 0.40782 0.37720 0.98828
 H546 H 0.35894 0.32434 1.01001
 H547 H 0.39018 0.29503 1.00931
 H548 H 0.43924 0.34823 0.98796
 C549 C 0.85944 0.09552 0.49332
 C550 C 0.85298 0.11812 0.49983
 C551 C 0.82982 0.12280 0.50599
 C552 C 0.81317 0.10493 0.50568
 C553 C 0.91817 0.18276 0.50120
 C554 C 0.84285 0.07765 0.49299
 C555 C 0.87025 0.13636 0.50030
 C556 C 0.88505 0.15131 0.50063
 C557 C 0.90275 0.16844 0.50097
 C558 C 0.81951 0.08214 0.49917
 H559 H 0.87734 0.09167 0.48862
 H560 H 0.82462 0.14025 0.51102
 H561 H 0.79531 0.10899 0.51029
 H562 H 0.84838 0.06023 0.48825
 C563 C 0.40395 0.64152 0.00926
 C564 C 0.38123 0.64792 0.00297
 C565 C 0.37638 0.67107 -0.00315
 C566 C 0.39422 0.68775 -0.00305
 C567 C 0.31675 0.58257 0.00162
 C568 C 0.42180 0.65814 0.00939
 C569 C 0.36304 0.63060 0.00260
 C570 C 0.34812 0.61575 0.00229
 C571 C 0.33104 0.59801 0.00193
 C572 C 0.41715 0.68146 0.00321
 H573 H 0.40792 0.62363 0.01393
 H574 H 0.35884 0.67622 -0.00802
 H575 H 0.39005 0.70560 -0.00765
 H576 H 0.43931 0.65266 0.01392
 C577 C 0.14124 -0.09541 0.49214
 C578 C 0.14770 -0.11814 0.49830
 C579 C 0.17089 -0.12297 0.50433
 C580 C 0.18756 -0.10512 0.50425
 C581 C 0.08246 -0.18274 0.49899
 C582 C 0.15785 -0.07756 0.49203
 C583 C 0.13040 -0.13635 0.49856
 C584 C 0.11558 -0.15129 0.49874
 C585 C 0.09787 -0.16842 0.49890
 C586 C 0.18122 -0.08220 0.49810
 H587 H 0.12331 -0.09145 0.48754
 H588 H 0.17609 -0.14052 0.50909
 H589 H 0.20545 -0.10929 0.50876
 H590 H 0.15233 -0.06004 0.48758
 C591 C 0.59489 0.35959 1.00652
 C592 C 0.61761 0.35316 1.00031
 C593 C 0.62242 0.33001 0.99428
 C594 C 0.60456 0.31335 0.99441
 C595 C 0.68221 0.41839 0.99951
 C596 C 0.57704 0.34298 1.00669
 C597 C 0.63583 0.37045 1.00001
 C598 C 0.65077 0.38527 0.99981
 C599 C 0.66790 0.40297 0.99963
 C600 C 0.58166 0.31965 1.00063
 H601 H 0.59095 0.37748 1.01112
 H602 H 0.63995 0.32484 0.98947
 H603 H 0.60871 0.29549 0.98991
 H604 H 0.55954 0.34848 1.01119
 C605 C 0.47802 0.15904 1.11144
 C606 C 0.49899 0.14866 1.11851
 C607 C 0.51995 0.15520 1.10782
 C608 C 0.51994 0.17190 1.09000
 C609 C 0.49899 0.08221 1.18200
 C610 C 0.47796 0.17574 1.09361
 C611 C 0.49895 0.13089 1.13631
 C612 C 0.49895 0.11577 1.15096
 C613 C 0.49897 0.09780 1.16784
 C614 C 0.49892 0.18228 1.08260
 H615 H 0.46169 0.15412 1.11962
 H616 H 0.53627 0.14719 1.11307
 H617 H 0.53632 0.17630 1.08165
 H618 H 0.46155 0.18361 1.08851
 C619 C -0.00737 0.59497 0.63964
 C620 C -0.00124 0.61771 0.64600
 C621 C 0.00473 0.62262 0.66919
 C622 C 0.00461 0.60483 0.68595
 C623 C -0.00065 0.68222 0.58056
 C624 C -0.00752 0.57718 0.65635
 C625 C -0.00098 0.63589 0.62863
 C626 C -0.00083 0.65081 0.61377
 C627 C -0.00070 0.66792 0.59602
 C628 C -0.00153 0.58189 0.67971
 H629 H -0.01193 0.59096 0.62172
 H630 H 0.00947 0.64018 0.67432
 H631 H 0.00906 0.60906 0.70383
 H632 H -0.01197 0.55965 0.65090
 C633 C 0.49197 0.85930 -0.09472
 C634 C 0.49828 0.85289 -0.11741
 C635 C 0.50427 0.82973 -0.12220
 C636 C 0.50401 0.81303 -0.10434
 C637 C 0.49974 0.91824 -0.18200
 C638 C 0.49169 0.84266 -0.07686
 C639 C 0.49877 0.87022 -0.13562
 C640 C 0.49914 0.88506 -0.15056
 C641 C 0.49950 0.90280 -0.16769
 C642 C 0.49773 0.81933 -0.08145
 H643 H 0.48739 0.87721 -0.09080
 H644 H 0.50914 0.82457 -0.13971
 H645 H 0.50851 0.79517 -0.10847
 H646 H 0.48714 0.84816 -0.05937
 C647 C 0.97911 0.38636 0.34199
 C648 C 1.00014 0.37919 0.35219
 C649 C 1.02113 0.38967 0.34537
 C650 C 1.02108 0.40740 0.32857
 C651 C 1.00002 0.31633 0.41924
 C652 C 0.97902 0.40409 0.32519
 C653 C 1.00013 0.36156 0.37012
 C654 C 1.00010 0.34705 0.38538
 C655 C 1.00006 0.33035 0.40352
 C656 C 1.00000 0.41492 0.31839
 H657 H 0.96277 0.37835 0.34713
 H658 H 1.03750 0.38434 0.35324
 H659 H 1.03748 0.41559 0.32395
 H660 H 0.96255 0.40929 0.31747
 C661 C 0.49541 0.82988 0.12378
 C662 C 0.50150 0.85302 0.11886
 C663 C 0.50774 0.85939 0.09612
 C664 C 0.50784 0.84275 0.07833
 C665 C 0.50073 0.91846 0.18311
 C666 C 0.49549 0.81318 0.10599
 C667 C 0.50120 0.87035 0.13700
 C668 C 0.50100 0.88521 0.15187
 C669 C 0.50082 0.90297 0.16889
 C670 C 0.50170 0.81944 0.08305
 H671 H 0.49059 0.82475 0.14134
 H672 H 0.51239 0.87728 0.09209
 H673 H 0.51235 0.84822 0.06080
 H674 H 0.49092 0.79534 0.11022
 C675 C 0.02156 0.38749 0.66054
 C676 C 0.00065 0.38042 0.65004
 C677 C -0.02036 0.39113 0.65635
 C678 C -0.02045 0.40900 0.67292
 C679 C 0.00107 0.31719 0.58361
 C680 C 0.02151 0.40538 0.67711
 C681 C 0.00081 0.36266 0.63231
 C682 C 0.00091 0.34806 0.61720
 C683 C 0.00101 0.33127 0.59921
 C684 C 0.00051 0.41644 0.68339
 H685 H 0.03792 0.37931 0.65580
 H686 H -0.03663 0.38587 0.64824
 H687 H -0.03685 0.41738 0.67712
 H688 H 0.03789 0.41051 0.68507
 C689 C 0.52186 0.15982 0.88735
 C690 C 0.50097 0.14931 0.88022
 C691 C 0.47994 0.15564 0.89085
 C692 C 0.47978 0.17227 0.90868
 C693 C 0.50159 0.08296 0.81690
 C694 C 0.52175 0.17644 0.90519
 C695 C 0.50119 0.13159 0.86245
 C696 C 0.50134 0.11650 0.84782
 C697 C 0.50149 0.09854 0.83100
 C698 C 0.50071 0.18276 0.91615
 H699 H 0.53824 0.15506 0.87923
 H700 H 0.46369 0.14754 0.88555
 H701 H 0.46336 0.17651 0.91698
 H702 H 0.53810 0.18441 0.91035
 C703 C 1.00869 0.59420 0.35835
 C704 C 1.00218 0.61678 0.35173
 C705 C 0.99575 0.62133 0.32857
 C706 C 0.99577 0.60333 0.31210
 C707 C 1.00150 0.68189 0.41630
 C708 C 1.00874 0.57620 0.34194
 C709 C 1.00193 0.63514 0.36883
 C710 C 1.00175 0.65021 0.38348
 C711 C 1.00159 0.66747 0.40101
 C712 C 1.00226 0.58055 0.31862
 H713 H 1.01361 0.59046 0.37625
 H714 H 0.99071 0.63876 0.32325
 H715 H 0.99094 0.60728 0.29424
 H716 H 1.01348 0.55880 0.34759
 C717 C 1.09504 0.49133 0.14052
 C718 C 1.11773 0.49767 0.14696
 C719 C 1.12257 0.50368 0.17015
 C720 C 1.10475 0.50341 0.18683
 C721 C 1.18238 0.49948 0.08185
 C722 C 1.07721 0.49103 0.15714
 C723 C 1.13593 0.49819 0.12966
 C724 C 1.15087 0.49861 0.11487
 C725 C 1.16802 0.49908 0.09722
 C726 C 1.08185 0.49709 0.18050
 H727 H 1.09108 0.48674 0.12259
 H728 H 1.14010 0.50858 0.17534
 H729 H 1.10893 0.50791 0.20471
 H730 H 1.05971 0.48644 0.15163
 C731 C 0.65600 -0.02120 0.60836
 C732 C 0.64966 -0.00033 0.61926
 C733 C 0.66008 0.02065 0.61232
 C734 C 0.67664 0.02079 0.59440
 C735 C 0.58357 -0.00054 0.68295
 C736 C 0.67256 -0.02110 0.59046
 C737 C 0.63201 -0.00037 0.63712
 C738 C 0.61697 -0.00042 0.65183
 C739 C 0.59909 -0.00048 0.66875
 C740 C 0.68298 -0.00008 0.58318
 H741 H 0.64796 -0.03752 0.61352
 H742 H 0.65531 0.03691 0.62065
 H743 H 0.68455 0.03721 0.58940
 H744 H 0.67682 -0.03741 0.58196
 C745 C -0.10942 0.52199 0.84411
 C746 C -0.11996 0.50107 0.85102
 C747 C -0.11277 0.48000 0.84105
 C748 C -0.09494 0.47981 0.82441
 C749 C -0.18316 0.50130 0.91756
 C750 C -0.09160 0.52185 0.82746
 C751 C -0.13769 0.50115 0.86880
 C752 C -0.15228 0.50121 0.88394
 C753 C -0.16907 0.50126 0.90194
 C754 C -0.08405 0.50073 0.81752
 H755 H -0.11478 0.53839 0.85180
 H756 H -0.12083 0.46370 0.84626
 H757 H -0.08972 0.46332 0.81687
 H758 H -0.08336 0.53820 0.82277
 C759 C 0.32918 -0.00477 0.37671
 C760 C 0.35239 0.00124 0.38148
 C761 C 0.35891 0.00757 0.40415
 C762 C 0.34235 0.00783 0.42203
 C763 C 0.41748 -0.00035 0.31682
 C764 C 0.31256 -0.00453 0.39459
 C765 C 0.36965 0.00075 0.36325
 C766 C 0.38443 0.00036 0.34830
 C767 C 0.40210 -0.00004 0.33115
 C768 C 0.31897 0.00176 0.41747
 H769 H 0.32394 -0.00965 0.35921
 H770 H 0.37685 0.01216 0.40806
 H771 H 0.34793 0.01239 0.43951
 H772 H 0.29467 -0.00904 0.39048
 C773 C 0.12219 0.49606 0.82989
 C774 C 0.11743 0.50254 0.85295
 C775 C 0.09479 0.50920 0.85920
 C776 C 0.07696 0.50932 0.84253
 C777 C 0.18192 0.50103 0.91844
 C778 C 0.10436 0.49616 0.81316
 C779 C 0.13560 0.50213 0.87033
 C780 C 0.15052 0.50179 0.88520
 C781 C 0.16762 0.50138 0.90297
 C782 C 0.08152 0.50277 0.81931
 H783 H 0.13966 0.49090 0.82486
 H784 H 0.09089 0.51415 0.87703
 H785 H 0.05951 0.51414 0.84791
 H786 H 0.10847 0.49127 0.79539
 C787 C 0.65490 0.02100 0.39156
 C788 C 0.64845 0.00012 0.38068
 C789 C 0.65891 -0.02085 0.38758
 C790 C 0.67561 -0.02100 0.40541
 C791 C 0.58207 0.00037 0.31706
 C792 C 0.67161 0.02090 0.40938
 C793 C 0.63068 0.00017 0.36287
 C794 C 0.61558 0.00023 0.34819
 C795 C 0.59763 0.00031 0.33127
 C796 C 0.68208 -0.00013 0.41660
 H797 H 0.64683 0.03732 0.38644
 H798 H 0.65406 -0.03711 0.37926
 H799 H 0.68356 -0.03741 0.41037
 H800 H 0.67595 0.03720 0.41786
 C801 C 0.89079 0.47819 0.15600
 C802 C 0.88014 0.49919 0.14951
 C803 C 0.88728 0.52009 0.15991
 C804 C 0.90517 0.52003 0.17655
 C805 C 0.81685 0.49966 0.08284
 C806 C 0.90867 0.47808 0.17265
 C807 C 0.86236 0.49936 0.13172
 C808 C 0.84775 0.49948 0.11655
 C809 C 0.83094 0.49959 0.09850
 C810 C 0.91618 0.49904 0.18301
 H811 H 0.88548 0.46192 0.14798
 H812 H 0.87914 0.53645 0.15503
 H813 H 0.91036 0.53640 0.18442
 H814 H 0.91700 0.46169 0.17699
 C815 C 0.35974 -0.00772 0.59516
 C816 C 0.35342 -0.00138 0.61786
 C817 C 0.33027 0.00465 0.62274
 C818 C 0.31349 0.00443 0.60495
 C819 C 0.41893 0.00019 0.68234
 C820 C 0.34302 -0.00797 0.57736
 C821 C 0.37083 -0.00090 0.63601
 C822 C 0.38572 -0.00052 0.65091
 C823 C 0.40348 -0.00012 0.66801
 C824 C 0.31970 -0.00187 0.58204
 H825 H 0.37763 -0.01233 0.59117
 H826 H 0.32518 0.00955 0.64027
 H827 H 0.29564 0.00897 0.60915
 H828 H 0.34844 -0.01255 0.55986
   
