data_POSCAR
  _audit_creation_date              2014-09-24
  _audit_creation_method            'ToBaCCo'
  _symmetry_space_group_name_H-M    'P1'
  _symmetry_Int_Tables_number       1
  _symmetry_cell_setting            triclinic
  loop_
  _symmetry_equiv_pos_as_xyz
 x,y,z
_cell_length_a 50.8030
_cell_length_b 26.0607
_cell_length_c 20.3783
_cell_angle_alpha 90.079400
_cell_angle_beta 89.890800
_cell_angle_gamma 90.054400
loop_
  _atom_site_label
  _atom_site_type_symbol
  _atom_site_fract_x
  _atom_site_fract_y
  _atom_site_fract_z
O1 O 0.73525 0.30796 0.56262
 O2 O 0.78255 0.26907 0.43476
 O3 O 0.73527 0.30816 0.43504
 O4 O 0.78250 0.26884 0.56238
 O5 O 0.76543 0.19074 0.56208
 O6 O 0.71821 0.23006 0.43474
 O7 O 0.76550 0.19097 0.43446
 O8 O 0.71818 0.22985 0.56233
 Cu9 Cu 0.76061 0.29638 0.49871
 Cu10 Cu 0.74012 0.20253 0.49835
 C11 C 0.71865 0.27555 0.58382
 C12 C 0.78211 0.22337 0.41327
 C13 C 0.71867 0.27584 0.41367
 C14 C 0.78201 0.22308 0.58352
 O15 O 0.28225 0.76811 0.43814
 O16 O 0.23540 0.81051 0.56529
 O17 O 0.28207 0.76836 0.56549
 O18 O 0.23566 0.81041 0.43790
 O19 O 0.21729 0.73343 0.43783
 O20 O 0.26372 0.69137 0.56542
 O21 O 0.21705 0.73353 0.56522
 O22 O 0.26388 0.69114 0.43808
 Cu23 Cu 0.26069 0.79712 0.50174
 Cu24 Cu 0.23863 0.70460 0.50166
 C25 C 0.28111 0.72234 0.41706
 C26 C 0.21815 0.77931 0.58627
 C27 C 0.28090 0.72262 0.58651
 C28 C 0.21850 0.77914 0.41672
 O29 O 0.23565 0.19021 -0.56661
 O30 O 0.28246 0.23218 -0.43952
 O31 O 0.23581 0.19008 -0.43923
 O32 O 0.28244 0.23218 -0.56685
 O33 O 0.26425 0.30923 -0.56649
 O34 O 0.21760 0.26714 -0.43888
 O35 O 0.26426 0.30923 -0.43916
 O36 O 0.21746 0.26726 -0.56624
 Cu37 Cu 0.26092 0.20338 -0.50314
 Cu38 Cu 0.23905 0.29598 -0.50271
 C39 C 0.21847 0.22149 -0.58739
 C40 C 0.28139 0.27791 -0.41827
 C41 C 0.21871 0.22139 -0.41788
 C42 C 0.28141 0.27798 -0.58769
 O43 O -0.28194 0.76987 -0.43741
 O44 O -0.23455 0.80950 -0.56475
 O45 O -0.28181 0.77011 -0.56501
 O46 O -0.23470 0.80921 -0.43713
 O47 O -0.21761 0.73119 -0.43750
 O48 O -0.26471 0.69211 -0.56537
 O49 O -0.21745 0.73150 -0.56512
 O50 O -0.26484 0.69186 -0.43778
 Cu51 Cu -0.25997 0.79754 -0.50106
 Cu52 Cu -0.23943 0.70380 -0.50150
 C53 C -0.28146 0.72410 -0.41632
 C54 C -0.21790 0.77728 -0.58619
 C55 C -0.28131 0.72442 -0.58650
 C56 C -0.21813 0.77687 -0.41593
 O57 O 0.03623 0.91180 -0.12083
 O58 O 0.06519 0.95745 -0.05748
 C59 C 0.05992 0.92516 -0.10410
 O60 O -0.03735 1.09315 -0.11453
 O61 O -0.06634 1.04446 -0.05476
 C62 C -0.06106 1.07941 -0.09810
 O63 O 0.03636 1.08860 -0.12103
 O64 O 0.06523 1.04306 -0.05757
 C65 C 0.06002 1.07524 -0.10422
 O66 O -0.03748 0.90716 -0.11413
 O67 O -0.06639 0.95605 -0.05441
 C68 C -0.06116 0.92093 -0.09765
 Zr69 Zr -0.00052 0.93527 -0.08188
 O70 O -0.00340 0.93272 -0.18542
 O71 O 0.00244 0.85426 -0.07836
 Zr72 Zr -0.00040 1.06526 -0.08214
 O73 O -0.00323 1.06736 -0.18570
 O74 O 0.00265 1.14628 -0.07870
 O75 O 0.02294 1.00020 -0.09502
 O76 O -0.02319 1.00025 -0.09421
 O77 O -0.03755 0.90756 0.11561
 O78 O -0.06643 0.95634 0.05601
 C79 C -0.06123 0.92132 0.09926
 O80 O 0.03619 1.08883 0.12204
 O81 O 0.06517 1.04319 0.05854
 C82 C 0.05989 1.07547 0.10520
 O83 O -0.03751 1.09361 0.11537
 O84 O -0.06640 1.04478 0.05564
 C85 C -0.06120 1.07988 0.09889
 O86 O 0.03656 0.91268 0.12092
 O87 O 0.06566 0.95836 0.05747
 C88 C 0.06030 0.92605 0.10400
 Zr89 Zr -0.00054 0.93562 0.08325
 O90 O -0.00344 0.93387 0.18685
 O91 O 0.00241 0.85459 0.08094
 Zr92 Zr -0.00054 1.06554 0.08296
 O93 O -0.00351 1.06838 0.18649
 O94 O 0.00255 1.14654 0.07912
 Zr95 Zr 0.03883 1.00034 0.00055
 Zr96 Zr -0.03972 1.00041 0.00059
 O97 O -0.02330 1.00059 0.09534
 O98 O 0.02282 1.00060 0.09615
 O99 O -0.02418 0.92542 0.00075
 O100 O 0.02264 1.07463 0.00042
 O101 O 0.02252 0.92609 0.00064
 O102 O -0.02412 1.07542 0.00040
 H103 H -0.03487 1.00014 -0.13309
 H104 H 0.03477 1.10443 0.00043
 H105 H -0.03502 1.00068 0.13426
 H106 H 0.03459 0.89626 0.00061
 H107 H -0.01330 1.15953 -0.05656
 H108 H -0.01342 1.15973 0.05718
 H109 H 0.00923 1.04335 0.20420
 H110 H 0.01046 0.95660 0.20443
 H111 H -0.01320 0.84129 0.05749
 H112 H -0.01348 0.84108 -0.05598
 H113 H 0.00987 0.95676 -0.20320
 H114 H 0.01006 1.04330 -0.20337
 O115 O 0.46370 0.41204 0.12195
 O116 O 0.43464 0.45672 0.05792
 C117 C 0.43998 0.42495 0.10495
 O118 O 0.53738 0.59235 0.11489
 O119 O 0.56632 0.54372 0.05487
 C120 C 0.56108 0.57872 0.09827
 O121 O 0.46363 0.58794 0.12105
 O122 O 0.43462 0.54209 0.05798
 C123 C 0.43993 0.57447 0.10448
 O124 O 0.53731 0.40664 0.11448
 O125 O 0.56629 0.45537 0.05468
 C126 C 0.56102 0.42038 0.09802
 Zr127 Zr 0.50040 0.43416 0.08142
 O128 O 0.50139 0.42581 0.18456
 O129 O 0.49930 0.35364 0.06952
 Zr130 Zr 0.50043 0.56420 0.08259
 O131 O 0.50300 0.56529 0.18627
 O132 O 0.49755 0.64525 0.08055
 O133 O 0.47709 0.49915 0.09519
 O134 O 0.52316 0.49920 0.09432
 O135 O 0.53741 0.40643 -0.11525
 O136 O 0.56634 0.45559 -0.05597
 C137 C 0.56111 0.42035 -0.09906
 O138 O 0.46369 0.58806 -0.12100
 O139 O 0.43466 0.54227 -0.05782
 C140 C 0.43998 0.57467 -0.10422
 O141 O 0.53741 0.59278 -0.11496
 O142 O 0.56631 0.54401 -0.05552
 C143 C 0.56109 0.57909 -0.09866
 O144 O 0.46367 0.41113 -0.12181
 O145 O 0.43464 0.45679 -0.05843
 C146 C 0.43997 0.42453 -0.10509
 Zr147 Zr 0.50043 0.43468 -0.08316
 O148 O 0.50338 0.43301 -0.18676
 O149 O 0.49774 0.35362 -0.08062
 Zr150 Zr 0.50046 0.56461 -0.08249
 O151 O 0.50338 0.56706 -0.18606
 O152 O 0.49746 0.64562 -0.07873
 Zr153 Zr 0.46100 0.49942 -0.00021
 Zr154 Zr 0.53965 0.49958 -0.00042
 O155 O 0.52320 0.49969 -0.09513
 O156 O 0.47705 0.49965 -0.09579
 O157 O 0.52412 0.42457 -0.00089
 O158 O 0.47735 0.57365 0.00017
 O159 O 0.47717 0.42513 -0.00070
 O160 O 0.52408 0.57452 0.00003
 H161 H 0.53490 0.49925 0.13307
 H162 H 0.46531 0.60355 0.00031
 H163 H 0.53492 0.49974 -0.13404
 H164 H 0.46501 0.39536 -0.00066
 H165 H 0.51315 0.65852 0.05692
 H166 H 0.51337 0.65884 -0.05647
 H167 H 0.49006 0.54313 -0.20380
 H168 H 0.48982 0.45648 -0.20422
 H169 H 0.51236 0.34094 -0.05304
 H170 H 0.49888 0.33913 0.11441
 H171 H 0.50376 0.46052 0.20312
 H172 H 0.48894 0.54265 0.20343
 C173 C 0.40106 0.34605 0.22776
 C174 C 0.37532 0.36215 0.21495
 C175 C 0.37062 0.39803 0.16534
 C176 C 0.39161 0.41804 0.12896
 C177 C 0.29958 0.29433 0.36814
 C178 C 0.42209 0.36602 0.19155
 C179 C 0.35391 0.34301 0.25427
 C180 C 0.33634 0.32729 0.28860
 C181 C 0.31624 0.30930 0.33059
 C182 C 0.41763 0.40247 0.14191
 H183 H 0.40492 0.31839 0.26621
 H184 H 0.35077 0.41091 0.15519
 H185 H 0.38745 0.44610 0.09124
 H186 H 0.44183 0.35315 0.20283
 C187 C -0.10005 0.83758 0.21685
 C188 C -0.12564 0.85600 0.20772
 C189 C -0.13040 0.89401 0.16078
 C190 C -0.10956 0.91430 0.12405
 C191 C -0.19988 0.79239 0.36850
 C192 C -0.07919 0.85782 0.18030
 C193 C -0.14666 0.83769 0.24900
 C194 C -0.16385 0.82291 0.28524
 C195 C -0.18350 0.80620 0.32942
 C196 C -0.08363 0.89693 0.13404
 H197 H -0.09613 0.80825 0.25317
 H198 H -0.15012 0.90868 0.15347
 H199 H -0.11371 0.94442 0.08900
 H200 H -0.05952 0.84348 0.18924
 C201 C 0.59983 0.66282 0.21543
 C202 C 0.62545 0.64468 0.20570
 C203 C 0.63024 0.60671 0.15856
 C204 C 0.60941 0.58618 0.12220
 C205 C 0.69971 0.70860 0.36553
 C206 C 0.57896 0.64234 0.17925
 C207 C 0.64648 0.66318 0.24663
 C208 C 0.66368 0.67806 0.28261
 C209 C 0.68334 0.69481 0.32657
 C210 C 0.58345 0.60328 0.13278
 H211 H 0.59589 0.69211 0.25193
 H212 H 0.65000 0.59226 0.15080
 H213 H 0.61358 0.55611 0.08696
 H214 H 0.55927 0.65647 0.18863
 C215 C 0.12926 1.10206 0.16534
 C216 C 0.12458 1.13807 0.21499
 C217 C 0.09886 1.15449 0.22775
 C218 C 0.07784 1.13466 0.19152
 C219 C 0.20028 1.20523 0.36850
 C220 C 0.10827 1.08218 0.12895
 C221 C 0.14598 1.15701 0.25443
 C222 C 0.16354 1.17256 0.28886
 C223 C 0.18362 1.19038 0.33094
 C224 C 0.08226 1.09802 0.14191
 H225 H 0.14908 1.08893 0.15521
 H226 H 0.09501 1.18225 0.26621
 H227 H 0.05812 1.14772 0.20284
 H228 H 0.11241 1.05397 0.09126
 C229 C 0.59986 0.33622 -0.21636
 C230 C 0.62546 0.35465 -0.20717
 C231 C 0.63025 0.39280 -0.16029
 C232 C 0.60943 0.41322 -0.12367
 C233 C 0.69965 0.29124 -0.36806
 C234 C 0.57900 0.35659 -0.17993
 C235 C 0.64646 0.33628 -0.24842
 C236 C 0.66364 0.32153 -0.28467
 C237 C 0.68328 0.30492 -0.32890
 C238 C 0.58348 0.39584 -0.13373
 H239 H 0.59592 0.30679 -0.25266
 H240 H 0.64999 0.40747 -0.15295
 H241 H 0.61359 0.44344 -0.08865
 H242 H 0.55933 0.34225 -0.18891
 C243 C 0.09884 0.84613 -0.22692
 C244 C 0.12457 0.86269 -0.21455
 C245 C 0.12927 0.89875 -0.16499
 C246 C 0.10830 0.91855 -0.12832
 C247 C 0.20002 0.79567 -0.36939
 C248 C 0.07784 0.86590 -0.19043
 C249 C 0.14592 0.84386 -0.25434
 C250 C 0.16343 0.82836 -0.28911
 C251 C 0.18342 0.81055 -0.33156
 C252 C 0.08229 0.90260 -0.14093
 H253 H 0.09497 0.81834 -0.26530
 H254 H 0.14910 0.91198 -0.15516
 H255 H 0.11246 0.94682 -0.09074
 H256 H 0.05812 0.85274 -0.20148
 C257 C 0.40112 0.65429 -0.22582
 C258 C 0.37538 0.63782 -0.21325
 C259 C 0.37065 0.60158 -0.16401
 C260 C 0.39161 0.58152 -0.12784
 C261 C 0.29996 0.70540 -0.36663
 C262 C 0.42211 0.63427 -0.18983
 C263 C 0.35404 0.65689 -0.25255
 C264 C 0.33653 0.67255 -0.28694
 C265 C 0.31654 0.69048 -0.32902
 C266 C 0.41763 0.59740 -0.14064
 H267 H 0.40500 0.68222 -0.26398
 H268 H 0.35081 0.58842 -0.15406
 H269 H 0.38744 0.55313 -0.09048
 H270 H 0.44185 0.64738 -0.20099
 C271 C -0.13009 1.10632 -0.16000
 C272 C -0.12523 1.14431 -0.20697
 C273 C -0.09963 1.16288 -0.21595
 C274 C -0.07885 1.14279 -0.17923
 C275 C -0.19906 1.20729 -0.36842
 C276 C -0.10934 1.08619 -0.12310
 C277 C -0.14615 1.16244 -0.24846
 C278 C -0.16324 1.17706 -0.28487
 C279 C -0.18277 1.19360 -0.32923
 C280 C -0.08339 1.10370 -0.13296
 H281 H -0.14982 1.09154 -0.15281
 H282 H -0.09563 1.19220 -0.25229
 H283 H -0.05917 1.15724 -0.18807
 H284 H -0.11356 1.05607 -0.08804
 C285 C 0.63022 0.60656 -0.16029
 C286 C 0.62542 0.64460 -0.20717
 C287 C 0.59982 0.66302 -0.21617
 C288 C 0.57899 0.64273 -0.17957
 C289 C 0.69953 0.70817 -0.36829
 C290 C 0.60941 0.58623 -0.12351
 C291 C 0.64641 0.66291 -0.24856
 C292 C 0.66356 0.67768 -0.28489
 C293 C 0.68318 0.69437 -0.32917
 C294 C 0.58347 0.60359 -0.13339
 H295 H 0.64995 0.59190 -0.15308
 H296 H 0.59588 0.69237 -0.25244
 H297 H 0.55932 0.65706 -0.18842
 H298 H 0.61358 0.55608 -0.08853
 C299 C 0.09897 1.15432 -0.22665
 C300 C 0.12465 1.13751 -0.21469
 C301 C 0.12934 1.10128 -0.16548
 C302 C 0.10838 1.08153 -0.12876
 C303 C 0.19972 1.20427 -0.37057
 C304 C 0.07798 1.13461 -0.19014
 C305 C 0.14596 1.15624 -0.25464
 C306 C 0.16338 1.17169 -0.28965
 C307 C 0.18324 1.18945 -0.33244
 C308 C 0.08240 1.09772 -0.14101
 H309 H 0.09511 1.18225 -0.26478
 H310 H 0.14915 1.08786 -0.15599
 H311 H 0.11250 1.05311 -0.09147
 H312 H 0.05828 1.14796 -0.20088
 C313 C 0.37074 0.39828 -0.16651
 C314 C 0.37553 0.36202 -0.21580
 C315 C 0.40125 0.34527 -0.22780
 C316 C 0.42217 0.36506 -0.19122
 C317 C 0.30045 0.29502 -0.37122
 C318 C 0.39164 0.41811 -0.12974
 C319 C 0.35427 0.34317 -0.25575
 C320 C 0.33686 0.32765 -0.29067
 C321 C 0.31698 0.30985 -0.33329
 C322 C 0.41765 0.40197 -0.14199
 H323 H 0.35091 0.41166 -0.15698
 H324 H 0.40518 0.31732 -0.26598
 H325 H 0.44190 0.35175 -0.20199
 H326 H 0.38744 0.44655 -0.09238
 C327 C -0.09986 0.83691 -0.21498
 C328 C -0.12543 0.85552 -0.20596
 C329 C -0.13024 0.89368 -0.15909
 C330 C -0.10945 0.91398 -0.12233
 C331 C -0.19925 0.79258 -0.36767
 C332 C -0.07904 0.85715 -0.17842
 C333 C -0.14636 0.83734 -0.24743
 C334 C -0.16346 0.82271 -0.28388
 C335 C -0.18298 0.80621 -0.32834
 C336 C -0.08353 0.89645 -0.13227
 H337 H -0.09590 0.80746 -0.25126
 H338 H -0.14995 0.90850 -0.15188
 H339 H -0.11362 0.94424 -0.08737
 H340 H -0.05938 0.84269 -0.18730
 C341 C 0.40115 0.65407 0.22694
 C342 C 0.37542 0.63739 0.21498
 C343 C 0.37065 0.60103 0.16581
 C344 C 0.39157 0.58106 0.12912
 C345 C 0.30020 0.70505 0.37005
 C346 C 0.42210 0.63415 0.19044
 C347 C 0.35412 0.65640 0.25483
 C348 C 0.33669 0.67207 0.28966
 C349 C 0.31676 0.69006 0.33219
 C350 C 0.41759 0.59715 0.14133
 H351 H 0.40506 0.68210 0.26502
 H352 H 0.35081 0.58769 0.15631
 H353 H 0.38738 0.55256 0.09185
 H354 H 0.44183 0.64742 0.20117
 C355 C -0.13038 1.10745 0.15979
 C356 C -0.12562 1.14546 0.20687
 C357 C -0.10002 1.16383 0.21627
 C358 C -0.07914 1.14352 0.17986
 C359 C -0.19989 1.20852 0.36780
 C360 C -0.10954 1.08708 0.12319
 C361 C -0.14665 1.16373 0.24811
 C362 C -0.16386 1.17839 0.28436
 C363 C -0.18351 1.19491 0.32861
 C364 C -0.08359 1.10439 0.13348
 H365 H -0.15012 1.09282 0.15228
 H366 H -0.09610 1.19315 0.25273
 H367 H -0.05947 1.15780 0.18902
 H368 H -0.11369 1.05696 0.08803
 C369 C 0.59970 0.33706 0.21585
 C370 C 0.62534 0.35521 0.20613
 C371 C 0.63016 0.39295 0.15880
 C372 C 0.60935 0.41321 0.12223
 C373 C 0.69964 0.29170 0.36588
 C374 C 0.57886 0.35727 0.17947
 C375 C 0.64637 0.33691 0.24715
 C376 C 0.66357 0.32215 0.28314
 C377 C 0.68325 0.30548 0.32703
 C378 C 0.58338 0.39608 0.13277
 H379 H 0.59573 0.30795 0.25248
 H380 H 0.64992 0.40741 0.15102
 H381 H 0.61355 0.44309 0.08684
 H382 H 0.55916 0.34313 0.18885
 C383 C 0.09899 0.84666 0.22613
 C384 C 0.12472 0.86335 0.21406
 C385 C 0.12953 0.89959 0.16487
 C386 C 0.10864 0.91948 0.12829
 C387 C 0.19958 0.79628 0.36950
 C388 C 0.07807 0.86651 0.18975
 C389 C 0.14596 0.84449 0.25389
 C390 C 0.16333 0.82896 0.28879
 C391 C 0.18314 0.81114 0.33146
 C392 C 0.08261 0.90342 0.14064
 H393 H 0.09504 0.81872 0.26424
 H394 H 0.14937 0.91292 0.15530
 H395 H 0.11286 0.94790 0.09100
 H396 H 0.05833 0.85325 0.20058
   
