data_POSCAR
  _audit_creation_date              2014-09-24
  _audit_creation_method            'ToBaCCo'
  _symmetry_space_group_name_H-M    'P1'
  _symmetry_Int_Tables_number       1
  _symmetry_cell_setting            triclinic
  loop_
  _symmetry_equiv_pos_as_xyz
 x,y,z
_cell_length_a 13.5144
_cell_length_b 13.3278
_cell_length_c 31.6619
_cell_angle_alpha 89.026000
_cell_angle_beta 93.261800
_cell_angle_gamma 119.072400
loop_
  _atom_site_label
  _atom_site_type_symbol
  _atom_site_fract_x
  _atom_site_fract_y
  _atom_site_fract_z
Si1 Si 0.02791 0.03522 0.49736
 Si2 Si 0.99830 -0.02660 0.16742
 Si3 Si -0.01949 0.99716 0.83533
 O4 O 0.54567 -0.08473 0.04536
 O5 O 0.36284 -0.07785 -0.04574
 O6 O 0.54293 -0.10593 -0.03665
 O7 O 0.33991 -0.11009 0.03539
 O8 O 0.43104 0.07923 0.03882
 O9 O 0.63597 0.08343 -0.03456
 O10 O 0.45557 0.11162 -0.04130
 O11 O 0.63710 0.10495 0.04616
 Cu12 Cu 0.43913 -0.11278 -0.00070
 Cu13 Cu 0.54854 0.11270 0.00250
 C14 C 0.62490 0.01075 0.06043
 C15 C 0.37715 0.01987 -0.05796
 C16 C 0.62518 -0.01179 -0.04742
 C17 C 0.34858 -0.01719 0.04885
 O18 O 0.07664 0.45554 0.63398
 O19 O 0.04764 0.63960 0.71314
 O20 O 0.08526 0.46335 0.71597
 O21 O 0.10278 0.66626 0.63472
 O22 O -0.08328 0.57255 0.62318
 O23 O -0.09983 0.36035 0.70325
 O24 O -0.13852 0.53616 0.70315
 O25 O -0.10931 0.36423 0.62206
 Cu26 Cu 0.09549 0.56549 0.67548
 Cu27 Cu -0.12496 0.45071 0.66191
 C28 C -0.01301 0.37636 0.61507
 C29 C -0.05205 0.61850 0.72115
 C30 C -0.00804 0.37511 0.72254
 C31 C 0.01387 0.65645 0.61558
 O32 O 0.59131 0.62171 0.28653
 O33 O 0.39130 0.44900 0.36707
 O34 O 0.57014 0.65281 0.36590
 O35 O 0.37830 0.44996 0.28534
 O36 O 0.45698 0.33978 0.29638
 O37 O 0.66559 0.55747 0.37232
 O38 O 0.48736 0.35546 0.37852
 O39 O 0.67000 0.51022 0.29329
 Cu40 Cu 0.47498 0.55322 0.32499
 Cu41 Cu 0.57787 0.43089 0.33555
 C42 C 0.66655 0.59564 0.27696
 C43 C 0.40534 0.37144 0.38633
 C44 C 0.65303 0.64329 0.38181
 C45 C 0.37972 0.35750 0.27858
 C46 C 0.09779 0.20395 0.56107
 C47 C 0.00696 0.13052 0.53357
 C48 C -0.09693 0.12922 0.53687
 C49 C -0.10386 0.20975 0.56326
 C50 C -0.00702 0.29250 0.58696
 C51 C 0.09078 0.28212 0.58713
 C52 C 0.21158 0.37008 0.58276
 C53 C 0.22004 0.28456 0.55404
 H54 H -0.17188 0.06845 0.51876
 H55 H -0.18424 0.20885 0.56425
 H56 H 0.26292 0.38661 0.61309
 H57 H 0.22085 0.44799 0.56603
 H58 H 0.27676 0.25250 0.56784
 H59 H 0.23600 0.31489 0.52099
 C60 C 0.92764 0.85742 0.24501
 C61 C 0.92560 0.84406 0.20109
 C62 C 0.84844 0.73528 0.18335
 C63 C 0.76569 0.64965 0.20827
 C64 C 0.75908 0.67305 0.25092
 C65 C 0.84681 0.77345 0.26925
 C66 C 0.84210 0.85807 0.29805
 C67 C 0.92958 0.95094 0.27134
 H68 H 0.84370 0.72098 0.14959
 H69 H 0.70189 0.56992 0.19349
 H70 H 0.87551 0.85525 0.33069
 H71 H 0.75858 0.85571 0.29586
 H72 H 1.01242 1.00255 0.28909
 H73 H 0.89629 1.00187 0.25349
 C74 C 0.16728 0.10251 -0.10632
 C75 C 0.11112 0.02092 -0.13894
 C76 C 0.16213 -0.04539 -0.15024
 C77 C 0.25243 -0.04379 -0.12513
 C78 C 0.29803 0.02894 -0.08956
 C79 C 0.26011 0.10777 -0.08298
 C80 C 0.22818 0.13758 -0.04276
 C81 C 0.12527 0.12932 -0.06752
 H82 H 0.12956 -0.10382 -0.17700
 H83 H 0.28322 -0.10247 -0.13251
 H84 H 0.28955 0.22627 -0.03172
 H85 H 0.20680 0.07017 -0.01834
 H86 H 0.12681 0.21325 -0.06937
 H87 H 0.04529 0.05597 -0.05712
 C88 C -0.05524 0.80562 0.52582
 C89 C 0.03172 0.92130 0.53102
 C90 C 0.11038 0.94884 0.56575
 C91 C 0.10645 0.86222 0.59286
 C92 C 0.02283 0.74655 0.58603
 C93 C -0.05819 0.72192 0.55291
 C94 C -0.09692 0.63391 0.51865
 C95 C -0.10379 0.72215 0.48698
 H96 H 0.17532 1.03678 0.57178
 H97 H 0.16827 0.88581 0.61933
 H98 H -0.18087 0.55887 0.52461
 H99 H -0.03074 0.61003 0.51253
 H100 H -0.19678 0.69572 0.48760
 H101 H -0.01253 0.77645 0.40321
 C102 C 0.18358 0.06960 0.22758
 C103 C 0.10426 0.08847 0.20347
 C104 C 0.10918 0.19562 0.20785
 C105 C 0.19932 0.28421 0.23217
 C106 C 0.28582 0.26679 0.25250
 C107 C 0.27076 0.15561 0.25176
 C108 C 0.35080 0.11172 0.24394
 C109 C 0.25452 0.01627 0.21746
 H110 H 0.04682 0.21265 0.19122
 H111 H 0.20290 0.36696 0.23398
 H112 H 0.37505 0.08022 0.27334
 H113 H 0.42272 0.17194 0.22509
 H114 H 0.22325 -0.06985 0.23180
 H115 H 0.27249 0.02093 0.18350
 C116 C 0.89310 0.08757 -0.10511
 C117 C 0.87736 -0.01163 -0.12600
 C118 C 0.77979 -0.11538 -0.11733
 C119 C 0.69799 -0.11649 -0.09115
 C120 C 0.71160 -0.01350 -0.07344
 C121 C 0.81406 0.08607 -0.07895
 C122 C 0.83886 0.20464 -0.09028
 C123 C 0.92540 0.20690 -0.11946
 H124 H 0.76362 -0.19475 -0.13208
 H125 H 0.62218 -0.19721 -0.08626
 H126 H 0.87793 0.26533 -0.06300
 H127 H 0.76577 0.20681 -0.10741
 H128 H 1.01385 0.27075 -0.10941
 H129 H 0.90147 0.21224 -0.15314
 C130 C 0.08618 -0.13123 0.11244
 C131 C 0.08949 -0.03069 0.12643
 C132 C 0.17402 0.07469 0.11121
 C133 C 0.25679 0.07930 0.08525
 C134 C 0.25902 -0.02147 0.07462
 C135 C 0.16908 -0.12644 0.08697
 C136 C 0.17296 -0.22422 0.10914
 C137 C 0.08238 -0.22980 0.13687
 H138 H 0.18039 0.15485 0.12131
 H139 H 0.32174 0.16227 0.07513
 H140 H 0.25563 -0.19802 0.12673
 H141 H 0.14237 -0.30063 0.08808
 H142 H 0.11205 -0.20770 0.17059
 H143 H 0.00012 -0.30981 0.13157
 C144 C 0.95476 0.86514 0.43942
 C145 C 0.92830 0.94432 0.45523
 C146 C 0.82086 0.93290 0.44319
 C147 C 0.73396 0.83727 0.41920
 C148 C 0.74069 0.73758 0.40836
 C149 C 0.84180 0.74062 0.41898
 C150 C 0.90993 0.63586 0.42918
 C151 C 1.05915 0.79198 0.45567
 H152 H 0.80193 0.99872 0.45285
 H153 H 0.65657 0.83984 0.41053
 H154 H 0.92570 0.60447 0.39907
 H155 H 0.85883 0.55641 0.44730
 H156 H 1.13499 0.82518 0.43601
 H157 H 1.09482 0.79316 0.48837
 C158 C -0.10161 0.08968 0.77469
 C159 C -0.00847 0.10746 0.80159
 C160 C 0.09146 0.21356 0.79910
 C161 C 0.09174 0.30193 0.77371
 C162 C -0.00773 0.28547 0.75034
 C163 C -0.10078 0.17527 0.74956
 C164 C -0.22467 0.13185 0.75280
 C165 C -0.22617 0.03585 0.78014
 H166 H 0.16767 0.23019 0.81772
 H167 H 0.16886 0.38374 0.77325
 H168 H -0.27266 0.10070 0.72181
 H169 H -0.24266 0.19220 0.77039
 H170 H -0.27378 -0.05010 0.76460
 H171 H -0.24800 0.03953 0.81314
 C172 C 0.90777 0.09377 0.11571
 C173 C 0.88438 0.00123 0.14263
 C174 C 0.76869 -0.07510 0.14917
 C175 C 0.68177 -0.07048 0.12384
 C176 C 0.70866 0.01459 0.09305
 C177 C 0.82161 0.10157 0.09237
 C178 C 0.89242 0.15362 0.05545
 C179 C 0.98606 0.14300 0.08033
 H180 H 0.74399 -0.14334 0.17180
 H181 H 0.59459 -0.13623 0.12699
 H182 H 0.91201 0.24407 0.05054
 H183 H 0.85950 0.09782 0.02664
 H184 H 1.06064 0.22764 0.08881
 H185 H 1.00499 0.07975 0.06549
 C186 C 0.12684 0.20112 0.43631
 C187 C 0.14655 0.13222 0.46549
 C188 C 0.25180 0.13482 0.46622
 C189 C 0.33828 0.21454 0.44101
 C190 C 0.32018 0.29255 0.41507
 C191 C 0.21100 0.27884 0.41181
 C192 C 0.16992 0.36416 0.41388
 C193 C 0.07632 0.27808 0.44067
 H194 H 0.26793 0.07797 0.48675
 H195 H 0.41949 0.21662 0.44245
 H196 H 0.13786 0.37794 0.38242
 H197 H 0.23119 0.44372 0.43154
 H198 H -0.00948 0.24180 0.42453
 H199 H 0.08273 0.30900 0.47359
 C200 C -0.05417 0.88369 0.75609
 C201 C -0.06850 0.86880 0.79975
 C202 C -0.09787 0.75909 0.81614
 C203 C -0.09838 0.67328 0.79026
 C204 C -0.06779 0.69727 0.74801
 C205 C -0.05501 0.79945 0.73092
 C206 C 0.03468 0.88338 0.70398
 C207 C 0.03775 0.97658 0.73170
 H208 H -0.10867 0.74348 0.84964
 H209 H -0.11367 0.59241 0.80404
 H210 H 0.00148 0.88320 0.67103
 H211 H 0.11417 0.87766 0.70693
 H212 H 0.00866 1.03128 0.71413
 H213 H 0.11894 1.02438 0.75089
   
