data_POSCAR
  _audit_creation_date              2014-09-24
  _audit_creation_method            'ToBaCCo'
  _symmetry_space_group_name_H-M    'P1'
  _symmetry_Int_Tables_number       1
  _symmetry_cell_setting            triclinic
  loop_
  _symmetry_equiv_pos_as_xyz
 x,y,z
_cell_length_a 46.5177
_cell_length_b 43.9037
_cell_length_c 46.1500
_cell_angle_alpha 90.646100
_cell_angle_beta 90.550000
_cell_angle_gamma 89.401400
loop_
  _atom_site_label
  _atom_site_type_symbol
  _atom_site_fract_x
  _atom_site_fract_y
  _atom_site_fract_z
C1 C 0.29381 0.29889 0.22549
 H2 H 0.29767 0.30107 0.24857
 C3 C 0.30957 0.31638 0.20630
 H4 H 0.32488 0.33243 0.21511
 C5 C 0.26856 0.27563 0.18647
 H6 H 0.25271 0.25961 0.17874
 C7 C 0.28385 0.29263 0.16652
 H8 H 0.27946 0.28960 0.14358
 N9 N 0.27363 0.27911 0.21539
 C10 C 0.20942 0.26776 0.28287
 H11 H 0.20579 0.24356 0.28086
 C12 C 0.19239 0.28524 0.30163
 H13 H 0.17602 0.27391 0.31382
 C14 C 0.23365 0.31175 0.26746
 H15 H 0.24931 0.32224 0.25382
 C16 C 0.21712 0.33009 0.28592
 H17 H 0.22059 0.35445 0.28646
 Zn18 Zn 0.25272 0.25544 0.24217
 N19 N 0.23004 0.28103 0.26671
 C20 C 0.26861 0.21547 0.28738
 N21 N 0.27884 0.23175 0.26488
 C22 C 0.30724 0.23084 0.25818
 C23 C 0.32658 0.21358 0.27468
 C24 C 0.28716 0.19786 0.30446
 C25 C 0.20382 0.24135 0.20885
 C26 C 0.18480 0.22283 0.19326
 C27 C 0.21518 0.17947 0.20445
 C28 C 0.23356 0.19885 0.21983
 N29 N 0.22766 0.22917 0.22163
 H30 H 0.24597 0.21599 0.29214
 H31 H 0.31502 0.24322 0.23981
 H32 H 0.34910 0.21335 0.26885
 H33 H 0.27793 0.18581 0.32230
 H34 H 0.19963 0.26557 0.21077
 H35 H 0.16609 0.23361 0.18373
 H36 H 0.22046 0.15539 0.20323
 H37 H 0.25270 0.18967 0.23010
 C38 C 0.19650 0.31688 0.30369
 C39 C 0.30478 0.31319 0.17628
 C40 C 0.19042 0.19126 0.19068
 C41 C 0.31678 0.19666 0.29823
 C42 C 0.81257 0.78238 0.23774
 H43 H 0.81639 0.78380 0.26088
 C44 C 0.82885 0.79990 0.21901
 H45 H 0.84513 0.81425 0.22863
 C46 C 0.78708 0.76055 0.19820
 H47 H 0.77108 0.74489 0.19011
 C48 C 0.80294 0.77742 0.17864
 H49 H 0.79852 0.77454 0.15566
 N50 N 0.79180 0.76366 0.22717
 C51 C 0.72978 0.75345 0.29652
 H52 H 0.72830 0.72888 0.29686
 C53 C 0.71251 0.77121 0.31478
 H54 H 0.69819 0.76001 0.32949
 C55 C 0.75080 0.79765 0.27715
 H56 H 0.76537 0.80793 0.26216
 C57 C 0.73410 0.81627 0.29520
 H58 H 0.73619 0.84078 0.29413
 Zn59 Zn 0.77039 0.74078 0.25381
 N60 N 0.74856 0.76681 0.27832
 C61 C 0.79758 0.71978 0.30529
 N62 N 0.79673 0.71725 0.27591
 C63 C 0.81517 0.69840 0.26153
 C64 C 0.83495 0.68045 0.27680
 C65 C 0.81705 0.70232 0.32146
 C66 C 0.72227 0.72920 0.21903
 C67 C 0.70190 0.71197 0.20389
 C68 C 0.72643 0.66633 0.21994
 C69 C 0.74623 0.68449 0.23485
 N70 N 0.74407 0.71535 0.23378
 H71 H 0.78312 0.73531 0.31632
 H72 H 0.81433 0.69716 0.23811
 H73 H 0.84920 0.66537 0.26479
 H74 H 0.81641 0.70472 0.34474
 H75 H 0.72078 0.75382 0.21900
 H76 H 0.68505 0.72417 0.19257
 H77 H 0.72879 0.64177 0.22096
 H78 H 0.76326 0.67383 0.24729
 C79 C 0.71449 0.80311 0.31410
 C80 C 0.82398 0.79787 0.18877
 C81 C 0.70390 0.67987 0.20393
 C82 C 0.83619 0.68212 0.30723
 C83 C 0.77475 0.28997 0.72579
 H84 H 0.77678 0.29048 0.74917
 C85 C 0.79192 0.30876 0.70908
 H86 H 0.80660 0.32405 0.72003
 C87 C 0.75241 0.26971 0.68356
 H88 H 0.73725 0.25422 0.67364
 C89 C 0.76916 0.28804 0.66603
 H90 H 0.76652 0.28663 0.64270
 N91 N 0.75533 0.27114 0.71289
 C92 C 0.69038 0.25379 0.77811
 H93 H 0.69050 0.22914 0.77772
 C94 C 0.67124 0.26967 0.79599
 H95 H 0.65672 0.25708 0.80949
 C96 C 0.70879 0.30007 0.76047
 H97 H 0.72297 0.31184 0.74609
 C98 C 0.68999 0.31687 0.77803
 H99 H 0.68998 0.34144 0.77663
 Zn100 Zn 0.73337 0.24564 0.73677
 N101 N 0.70891 0.26910 0.76109
 C102 C 0.75888 0.22341 0.78868
 N103 N 0.75946 0.22208 0.75925
 C104 C 0.77944 0.20485 0.74515
 C105 C 0.79926 0.18723 0.76070
 C106 C 0.77837 0.20628 0.80514
 C107 C 0.68734 0.23413 0.69932
 C108 C 0.66846 0.21705 0.68218
 C109 C 0.69528 0.17164 0.69493
 C110 C 0.71343 0.18962 0.71214
 N111 N 0.70944 0.22032 0.71366
 H112 H 0.74344 0.23797 0.79954
 H113 H 0.77987 0.20472 0.72171
 H114 H 0.81478 0.17347 0.74887
 H115 H 0.77701 0.20830 0.82840
 H116 H 0.68439 0.25854 0.70127
 H117 H 0.65104 0.22866 0.67095
 H118 H 0.69904 0.14733 0.69467
 H119 H 0.73057 0.17891 0.72437
 C120 C 0.67107 0.30161 0.79636
 C121 C 0.78937 0.30773 0.67868
 C122 C 0.67241 0.18537 0.67940
 C123 C 0.79892 0.18749 0.79118
 C124 C 0.29346 0.80340 0.74101
 H125 H 0.29740 0.80303 0.76414
 C126 C 0.31001 0.82182 0.72343
 H127 H 0.32673 0.83565 0.73319
 C128 C 0.26676 0.78582 0.70027
 H129 H 0.24988 0.77174 0.69136
 C130 C 0.28284 0.80393 0.68185
 H131 H 0.27755 0.80389 0.65899
 N132 N 0.27213 0.78615 0.72929
 C133 C 0.21123 0.77554 0.79965
 H134 H 0.21038 0.75101 0.80138
 C135 C 0.19457 0.79399 0.81796
 H136 H 0.18148 0.78316 0.83398
 C137 C 0.22994 0.81895 0.77671
 H138 H 0.24338 0.82868 0.76036
 C139 C 0.21359 0.83820 0.79443
 H140 H 0.21493 0.86262 0.79167
 Zn141 Zn 0.25069 0.76238 0.75512
 N142 N 0.22875 0.78823 0.77979
 C143 C 0.27821 0.73961 0.80613
 N144 N 0.27743 0.73867 0.77668
 C145 C 0.29646 0.72127 0.76146
 C146 C 0.31669 0.70311 0.77584
 C147 C 0.29812 0.72182 0.82147
 C148 C 0.20226 0.75021 0.72043
 C149 C 0.18250 0.73246 0.70495
 C150 C 0.20942 0.68750 0.71882
 C151 C 0.22841 0.70612 0.73430
 N152 N 0.22486 0.73689 0.73442
 H153 H 0.26338 0.75411 0.81788
 H154 H 0.29572 0.72136 0.73802
 H155 H 0.33138 0.68920 0.76313
 H156 H 0.29747 0.72293 0.84482
 H157 H 0.19963 0.77471 0.72128
 H158 H 0.16475 0.74364 0.69385
 H159 H 0.21292 0.66318 0.71973
 H160 H 0.24592 0.69581 0.74631
 C161 C 0.19557 0.82588 0.81537
 C162 C 0.30488 0.82222 0.69345
 C163 C 0.18611 0.70064 0.70350
 C164 C 0.31779 0.70301 0.80630
 C165 C 0.02475 0.05922 0.00767
 H166 H 0.02212 0.06111 -0.01556
 C167 C 0.04239 0.07957 0.02280
 H168 H 0.05336 0.09715 0.01105
 C169 C 0.01346 0.03404 0.05120
 H170 H 0.00211 0.01625 0.06216
 C171 C 0.03084 0.05395 0.06720
 H172 H 0.03198 0.05144 0.09045
 N173 N 0.01080 0.03698 0.02200
 C174 C -0.00290 -0.03689 -0.04047
 H175 H -0.02611 -0.03810 -0.04116
 C176 C 0.01349 -0.05713 -0.05717
 H177 H 0.00268 -0.07366 -0.07093
 C178 C 0.03927 -0.01444 -0.02108
 H179 H 0.04926 0.00186 -0.00657
 C180 C 0.05651 -0.03440 -0.03727
 H181 H 0.07954 -0.03298 -0.03460
 Zn182 Zn -0.01304 0.01043 0.00029
 N183 N 0.01012 -0.01588 -0.02303
 C184 C -0.03929 0.03025 -0.05259
 N185 N -0.03768 0.03482 -0.02342
 C186 C -0.05273 0.05786 -0.01050
 C187 C -0.07110 0.07648 -0.02675
 C188 C -0.05733 0.04839 -0.06975
 C189 C -0.02955 -0.04408 0.02751
 C190 C -0.04457 -0.06224 0.04673
 C191 C -0.07008 -0.01732 0.06339
 C192 C -0.05464 -0.00009 0.04375
 N193 N -0.03491 -0.01361 0.02611
 H194 H -0.02653 0.01264 -0.06284
 H195 H -0.05008 0.06227 0.01242
 H196 H -0.08294 0.09453 -0.01579
 H197 H -0.05825 0.04335 -0.09268
 H198 H -0.01313 -0.05444 0.01419
 H199 H -0.03905 -0.08616 0.04732
 H200 H -0.08557 -0.00589 0.07725
 H201 H -0.05814 0.02419 0.04307
 C202 C 0.04361 -0.05602 -0.05586
 C203 C 0.04581 0.07697 0.05291
 C204 C -0.06536 -0.04893 0.06508
 C205 C -0.07375 0.07197 -0.05685
 C206 C 0.05360 0.53156 0.52526
 H207 H 0.05434 0.53103 0.50184
 C208 C 0.07284 0.54963 0.54099
 H209 H 0.08854 0.56290 0.52958
 C210 C 0.03221 0.51486 0.56862
 H211 H 0.01624 0.50139 0.57929
 C212 C 0.05077 0.53301 0.58519
 H213 H 0.04927 0.53272 0.60857
 N214 N 0.03417 0.51419 0.53922
 C215 C 0.01515 0.44247 0.47567
 H216 H -0.00810 0.44347 0.47546
 C217 C 0.02956 0.42181 0.45756
 H218 H 0.01727 0.40694 0.44335
 C219 C 0.05940 0.46054 0.49455
 H220 H 0.07100 0.47513 0.50945
 C221 C 0.07467 0.44028 0.47678
 H222 H 0.09787 0.43959 0.47849
 Zn223 Zn 0.00907 0.49017 0.51613
 N224 N 0.03019 0.46182 0.49318
 C225 C -0.01117 0.51499 0.46283
 N226 N -0.01209 0.51728 0.49221
 C227 C -0.02743 0.53983 0.50549
 C228 C -0.04354 0.56054 0.48915
 C229 C -0.02692 0.53525 0.44559
 C230 C -0.00422 0.44645 0.55751
 C231 C -0.02169 0.42892 0.57508
 C232 C -0.06327 0.45517 0.55545
 C233 C -0.04496 0.47211 0.53821
 N234 N -0.01602 0.46774 0.53973
 H235 H 0.00191 0.49757 0.45261
 H236 H -0.02731 0.54154 0.52890
 H237 H -0.05585 0.57807 0.50035
 H238 H -0.02534 0.53253 0.42239
 H239 H 0.01886 0.44313 0.55802
 H240 H -0.01168 0.41218 0.58912
 H241 H -0.08602 0.45981 0.55356
 H242 H -0.05403 0.48863 0.52348
 C243 C 0.05970 0.42101 0.45750
 C244 C 0.07146 0.55062 0.57130
 C245 C -0.05172 0.43303 0.57435
 C246 C -0.04379 0.55836 0.45873
 C247 C 0.54088 0.02344 0.49340
 H248 H 0.54284 0.02195 0.47009
 C249 C 0.56066 0.04034 0.50969
 H250 H 0.57782 0.05199 0.49879
 C251 C 0.51662 0.00931 0.53605
 H252 H 0.49988 -0.00339 0.54634
 C253 C 0.53574 0.02621 0.55313
 H254 H 0.53347 0.02610 0.57644
 N255 N 0.51933 0.00847 0.50672
 C256 C 0.51386 -0.04173 0.43020
 H257 H 0.49731 -0.02799 0.42007
 C258 C 0.53123 -0.06061 0.41305
 H259 H 0.52777 -0.06136 0.38981
 C260 C 0.53880 -0.05741 0.47259
 H261 H 0.54146 -0.05607 0.49588
 C262 C 0.55680 -0.07641 0.45624
 H263 H 0.57295 -0.09001 0.46728
 Zn264 Zn 0.49447 -0.01539 0.48321
 N265 N 0.51773 -0.04073 0.45945
 C266 C 0.44895 -0.00376 0.44488
 N267 N 0.47043 0.00982 0.46022
 C268 C 0.47379 0.04053 0.45999
 C269 C 0.45542 0.05885 0.44337
 C270 C 0.43006 0.01362 0.42802
 C271 C 0.47264 -0.07031 0.50579
 C272 C 0.45443 -0.08787 0.52251
 C273 C 0.43138 -0.04162 0.53967
 C274 C 0.45009 -0.02497 0.52260
 N275 N 0.47041 -0.03942 0.50639
 H276 H 0.44648 -0.02821 0.44583
 H277 H 0.49060 0.05096 0.47286
 H278 H 0.45874 0.08314 0.44417
 H279 H 0.41315 0.00217 0.41596
 H280 H 0.48845 -0.08147 0.49225
 H281 H 0.45678 -0.11246 0.52173
 H282 H 0.41551 -0.02904 0.55197
 H283 H 0.44839 -0.00038 0.52219
 C284 C 0.55313 -0.07805 0.42601
 C285 C 0.55805 0.04211 0.53989
 C286 C 0.43349 -0.07371 0.53999
 C287 C 0.43311 0.04541 0.42686
 C288 C 0.54274 0.55671 0.01331
 H289 H 0.54235 0.55858 -0.01005
 C290 C 0.55955 0.57650 0.02998
 H291 H 0.57219 0.59356 0.01928
 C292 C 0.52637 0.53241 0.05556
 H293 H 0.51295 0.51562 0.06548
 C294 C 0.54282 0.55183 0.07309
 H295 H 0.54150 0.54965 0.09634
 N296 N 0.52696 0.53489 0.02622
 C297 C 0.51659 0.46520 -0.04121
 H298 H 0.49344 0.46313 -0.04195
 C299 C 0.53364 0.44714 -0.05951
 H300 H 0.52308 0.43124 -0.07397
 C301 C 0.55795 0.48804 -0.02047
 H302 H 0.56744 0.50359 -0.00492
 C303 C 0.57578 0.47046 -0.03829
 H304 H 0.59887 0.47302 -0.03645
 Zn305 Zn 0.50466 0.50935 0.00174
 N306 N 0.52889 0.48550 -0.02253
 C307 C 0.48082 0.53483 -0.04992
 N308 N 0.48043 0.53521 -0.02047
 C309 C 0.46344 0.55522 -0.00566
 C310 C 0.44530 0.57532 -0.02048
 C311 C 0.46303 0.55458 -0.06568
 C312 C 0.49658 0.46144 0.04037
 C313 C 0.48128 0.44144 0.05760
 C314 C 0.43707 0.46442 0.04022
 C315 C 0.45327 0.48389 0.02328
 N316 N 0.48247 0.48245 0.02401
 H317 H 0.49511 0.51941 -0.06131
 H318 H 0.46396 0.55546 0.01778
 H319 H 0.43184 0.59087 -0.00808
 H320 H 0.46429 0.55354 -0.08901
 H321 H 0.51983 0.46047 0.04024
 H322 H 0.49311 0.42516 0.07071
 H323 H 0.41400 0.46691 0.03914
 H324 H 0.44238 0.50023 0.00961
 C325 C 0.56377 0.44989 -0.05836
 C326 C 0.56003 0.57400 0.06024
 C327 C 0.45106 0.44278 0.05799
 C328 C 0.44464 0.57518 -0.05095
 C329 C 0.17883 -0.15284 -0.16597
 C330 C 0.15639 -0.16154 -0.14799
 C331 C 0.13982 -0.13962 -0.12983
 C332 C 0.11262 -0.14800 -0.11995
 C333 C 0.09619 -0.12793 -0.10298
 C334 C 0.10665 -0.09886 -0.09559
 C335 C 0.13420 -0.09085 -0.10478
 C336 C 0.15067 -0.11095 -0.12162
 C337 C 0.09006 -0.07659 -0.07782
 C338 C 0.06039 -0.07825 -0.07353
 H339 H 0.14939 -0.18493 -0.14829
 H340 H 0.10397 -0.17016 -0.12547
 H341 H 0.07559 -0.13560 -0.09549
 H342 H 0.14306 -0.06887 -0.09893
 H343 H 0.17197 -0.10398 -0.12770
 H344 H 0.10174 -0.05736 -0.06912
 H345 H 0.18372 -0.12890 -0.16765
 H346 H 0.04840 -0.09597 -0.08452
 C347 C 0.17964 0.33696 0.32341
 C348 C 0.16372 0.32649 0.34680
 C349 C 0.14801 0.34700 0.36704
 C350 C 0.12536 0.33518 0.38320
 C351 C 0.11026 0.35365 0.40285
 C352 C 0.11765 0.38441 0.40682
 C353 C 0.14072 0.39603 0.39115
 C354 C 0.15575 0.37761 0.37146
 C355 C 0.10259 0.40477 0.42766
 C356 C 0.07474 0.39972 0.43750
 H357 H 0.16226 0.30231 0.35057
 H358 H 0.11931 0.31154 0.38060
 H359 H 0.09327 0.34352 0.41520
 H360 H 0.14717 0.41951 0.39418
 H361 H 0.17375 0.38736 0.36034
 H362 H 0.11329 0.42563 0.43395
 H363 H 0.18042 0.36117 0.31951
 H364 H 0.06259 0.38087 0.42862
 C365 C 0.69695 -0.17688 0.33309
 C366 C 0.67001 -0.18520 0.34329
 C367 C 0.65219 -0.16492 0.36174
 C368 C 0.62222 -0.16802 0.36099
 C369 C 0.60471 -0.14920 0.37809
 C370 C 0.61695 -0.12704 0.39653
 C371 C 0.64697 -0.12457 0.39794
 C372 C 0.66447 -0.14320 0.38063
 C373 C 0.59909 -0.10695 0.41513
 C374 C 0.57107 -0.09825 0.40760
 H375 H 0.66066 -0.20640 0.33583
 H376 H 0.61230 -0.18495 0.34698
 H377 H 0.58169 -0.15243 0.37719
 H378 H 0.65691 -0.10802 0.41235
 H379 H 0.68755 -0.14088 0.38247
 H380 H 0.60905 -0.09712 0.43430
 H381 H 0.70465 -0.15408 0.33743
 H382 H 0.56251 -0.10487 0.38658
 C383 C 0.65037 0.31800 -0.18469
 C384 C 0.65371 0.34831 -0.17581
 C385 C 0.63319 0.36461 -0.15660
 C386 C 0.64259 0.39051 -0.14130
 C387 C 0.62394 0.40667 -0.12305
 C388 C 0.59535 0.39725 -0.11973
 C389 C 0.58572 0.37185 -0.13563
 C390 C 0.60440 0.35563 -0.15386
 C391 C 0.57481 0.41396 -0.10083
 C392 C 0.58352 0.43191 -0.07717
 H393 H 0.67303 0.36020 -0.18162
 H394 H 0.66449 0.39827 -0.14345
 H395 H 0.63194 0.42683 -0.11213
 H396 H 0.56366 0.36446 -0.13390
 H397 H 0.59598 0.33649 -0.16607
 H398 H 0.55221 0.41121 -0.10562
 H399 H 0.63281 0.30500 -0.17612
 H400 H 0.60622 0.43320 -0.07204
 C401 C -0.18085 0.16921 -0.19386
 C402 C -0.17902 0.16647 -0.16364
 C403 C -0.15744 0.14697 -0.14861
 C404 C -0.16272 0.13838 -0.11995
 C405 C -0.14297 0.12023 -0.10479
 C406 C -0.11726 0.11053 -0.11792
 C407 C -0.11195 0.11904 -0.14657
 C408 C -0.13165 0.13730 -0.16171
 C409 C -0.09604 0.09085 -0.10272
 C410 C -0.09275 0.09099 -0.07250
 H411 H -0.19461 0.17776 -0.14996
 H412 H -0.18238 0.14546 -0.10932
 H413 H -0.14824 0.11340 -0.08305
 H414 H -0.09230 0.11184 -0.15716
 H415 H -0.12622 0.14409 -0.18340
 H416 H -0.08181 0.07739 -0.11619
 H417 H -0.16610 0.15578 -0.20686
 H418 H -0.10530 0.10747 -0.06023
 C419 C -0.14396 0.66326 0.32197
 C420 C -0.13904 0.66374 0.35198
 C421 C -0.11925 0.64216 0.36676
 C422 C -0.10741 0.65049 0.39375
 C423 C -0.08936 0.63041 0.40883
 C424 C -0.08316 0.60126 0.39739
 C425 C -0.09479 0.59304 0.37027
 C426 C -0.11281 0.61314 0.35517
 C427 C -0.06451 0.57904 0.41282
 C428 C -0.06074 0.57935 0.44300
 H429 H -0.14881 0.68118 0.36543
 H430 H -0.11201 0.67272 0.40313
 H431 H -0.08010 0.63804 0.42919
 H432 H -0.09034 0.57075 0.36096
 H433 H -0.12214 0.60549 0.33484
 H434 H -0.05524 0.56097 0.39977
 H435 H -0.13120 0.64759 0.30901
 H436 H -0.07249 0.59638 0.45537
 C437 C 0.33696 0.17962 0.31447
 C438 C 0.33021 0.16022 0.33728
 C439 C 0.35230 0.14332 0.35418
 C440 C 0.34436 0.11664 0.36838
 C441 C 0.36444 0.10020 0.38480
 C442 C 0.39299 0.11021 0.38741
 C443 C 0.40074 0.13733 0.37387
 C444 C 0.38067 0.15374 0.35738
 C445 C 0.41481 0.09361 0.40491
 C446 C 0.41350 0.06220 0.40974
 H447 H 0.30808 0.15557 0.34231
 H448 H 0.32251 0.10845 0.36674
 H449 H 0.35733 0.08007 0.39584
 H450 H 0.42245 0.14584 0.37602
 H451 H 0.38736 0.17482 0.34773
 H452 H 0.43301 0.10658 0.41257
 H453 H 0.35931 0.18112 0.30834
 H454 H 0.39649 0.04968 0.39892
 C455 C 0.33813 0.68388 -0.17996
 C456 C 0.34277 0.68229 -0.14997
 C457 C 0.36345 0.66060 -0.13657
 C458 C 0.37501 0.66753 -0.10912
 C459 C 0.39412 0.64738 -0.09548
 C460 C 0.40169 0.61952 -0.10888
 C461 C 0.39024 0.61267 -0.13640
 C462 C 0.37115 0.63283 -0.15005
 C463 C 0.42175 0.59740 -0.09516
 C464 C 0.42592 0.59575 -0.06510
 H465 H 0.33214 0.69813 -0.13547
 H466 H 0.36945 0.68877 -0.09828
 H467 H 0.40317 0.65401 -0.07472
 H468 H 0.39572 0.59138 -0.14720
 H469 H 0.36207 0.62620 -0.17080
 H470 H 0.43195 0.58102 -0.10944
 H471 H 0.35152 0.66968 -0.19376
 H472 H 0.41319 0.61087 -0.05154
 C473 C -0.16142 -0.18577 0.16914
 C474 C -0.14132 -0.16305 0.17571
 C475 C -0.12591 -0.14643 0.15295
 C476 C -0.11700 -0.11650 0.15860
 C477 C -0.10237 -0.10018 0.13760
 C478 C -0.09619 -0.11365 0.11053
 C479 C -0.10436 -0.14389 0.10522
 C480 C -0.11914 -0.16013 0.12615
 C481 C -0.08026 -0.09733 0.08795
 C482 C -0.08101 -0.06556 0.08543
 H483 H -0.13792 -0.15527 0.19774
 H484 H -0.12150 -0.10565 0.17929
 H485 H -0.09546 -0.07732 0.14288
 H486 H -0.09935 -0.15496 0.08476
 H487 H -0.12471 -0.18355 0.12145
 H488 H -0.06921 -0.11127 0.07208
 H489 H -0.16619 -0.18982 0.14639
 H490 H -0.09522 -0.05287 0.09970
 C491 C -0.19328 0.32708 0.65953
 C492 C -0.16768 0.34106 0.66821
 C493 C -0.15036 0.36018 0.64881
 C494 C -0.12136 0.36525 0.65583
 C495 C -0.10428 0.38321 0.63818
 C496 C -0.11590 0.39649 0.61298
 C497 C -0.14509 0.39204 0.60639
 C498 C -0.16217 0.37415 0.62405
 C499 C -0.09879 0.41588 0.59361
 C500 C -0.06866 0.41490 0.59242
 H501 H -0.15891 0.33651 0.68953
 H502 H -0.11185 0.35526 0.67507
 H503 H -0.08223 0.38697 0.64476
 H504 H -0.15476 0.40246 0.58743
 H505 H -0.18465 0.37185 0.61841
 H506 H -0.11093 0.43028 0.57907
 H507 H -0.20030 0.32885 0.63719
 H508 H -0.05745 0.39860 0.60595
 C509 C 0.32230 -0.15740 0.67542
 C510 C 0.32506 -0.16067 0.64542
 C511 C 0.34270 -0.14005 0.62786
 C512 C 0.35325 -0.15054 0.60113
 C513 C 0.37019 -0.13183 0.58409
 C514 C 0.37688 -0.10210 0.59348
 C515 C 0.36550 -0.09128 0.61973
 C516 C 0.34861 -0.11000 0.63679
 C517 C 0.39489 -0.08154 0.57623
 C518 C 0.41562 -0.09224 0.55667
 H519 H 0.31557 -0.18010 0.63450
 H520 H 0.34852 -0.17338 0.59348
 H521 H 0.37757 -0.14061 0.56344
 H522 H 0.36984 -0.06828 0.62718
 H523 H 0.33994 -0.10064 0.65668
 H524 H 0.39267 -0.05748 0.58082
 H525 H 0.33465 -0.14008 0.68663
 H526 H 0.41881 -0.11665 0.55479
 C527 C 0.32037 0.33130 0.15465
 C528 C 0.34624 0.34620 0.16053
 C529 C 0.36143 0.36488 0.13903
 C530 C 0.39050 0.37168 0.14391
 C531 C 0.40551 0.38976 0.12455
 C532 C 0.39169 0.40142 0.09972
 C533 C 0.36249 0.39504 0.09511
 C534 C 0.34747 0.37703 0.11450
 C535 C 0.40639 0.42143 0.07895
 C536 C 0.43637 0.42284 0.07632
 H537 H 0.35669 0.34306 0.18133
 H538 H 0.40165 0.36309 0.16290
 H539 H 0.42765 0.39501 0.12962
 H540 H 0.35116 0.40419 0.07647
 H541 H 0.32485 0.37335 0.11039
 H542 H 0.39258 0.43469 0.06492
 H543 H 0.31163 0.33158 0.13285
 H544 H 0.44933 0.40736 0.08917
 C545 C 0.17253 0.17098 0.17516
 C546 C 0.14791 0.17939 0.15928
 C547 C 0.12968 0.15716 0.14336
 C548 C 0.11210 0.16757 0.12058
 C549 C 0.09448 0.14745 0.10506
 C550 C 0.09409 0.11635 0.11204
 C551 C 0.11110 0.10609 0.13531
 C552 C 0.12869 0.12621 0.15085
 C553 C 0.07562 0.09418 0.09636
 C554 C 0.06440 0.09905 0.06855
 H555 H 0.14217 0.20310 0.15684
 H556 H 0.11202 0.19139 0.11470
 H557 H 0.08092 0.15658 0.08803
 H558 H 0.11079 0.08237 0.14152
 H559 H 0.14097 0.11743 0.16898
 H560 H 0.07214 0.07255 0.10666
 H561 H 0.17881 0.14718 0.17495
 H562 H 0.07059 0.11917 0.05694
 C563 C 0.16620 0.68334 0.68726
 C564 C 0.16972 0.65241 0.68027
 C565 C 0.14815 0.63511 0.66328
 C566 C 0.15743 0.61094 0.64543
 C567 C 0.13762 0.59387 0.62932
 C568 C 0.10803 0.60042 0.63109
 C569 C 0.09867 0.62405 0.64954
 C570 C 0.11854 0.64143 0.66535
 C571 C 0.08659 0.58229 0.61475
 C572 C 0.09248 0.56920 0.58772
 H573 H 0.18974 0.64076 0.68508
 H574 H 0.18010 0.60535 0.64384
 H575 H 0.14547 0.57520 0.61599
 H576 H 0.07595 0.62918 0.65158
 H577 H 0.11064 0.65932 0.67961
 H578 H 0.06510 0.58086 0.62341
 H579 H 0.14753 0.69507 0.67842
 H580 H 0.11266 0.57418 0.57737
 C581 C 0.65309 0.16885 0.66176
 C582 C 0.65649 0.13815 0.65385
 C583 C 0.63503 0.12190 0.63576
 C584 C 0.64424 0.09833 0.61717
 C585 C 0.62444 0.08243 0.59994
 C586 C 0.59495 0.08961 0.60129
 C587 C 0.58566 0.11260 0.62048
 C588 C 0.60550 0.12875 0.63744
 C589 C 0.57335 0.07274 0.58391
 C590 C 0.57948 0.05949 0.55700
 H591 H 0.67618 0.12600 0.65894
 H592 H 0.66684 0.09232 0.61586
 H593 H 0.63223 0.06416 0.58607
 H594 H 0.56300 0.11817 0.62225
 H595 H 0.59760 0.14613 0.65225
 H596 H 0.55152 0.07237 0.59182
 H597 H 0.63481 0.18108 0.65271
 H598 H 0.60022 0.06337 0.54732
 C599 C 0.68457 0.66075 0.18885
 C600 C 0.66159 0.67079 0.17141
 C601 C 0.64221 0.64986 0.15529
 C602 C 0.62665 0.66112 0.13144
 C603 C 0.60837 0.64219 0.11537
 C604 C 0.60528 0.61142 0.12283
 C605 C 0.62009 0.60041 0.14726
 C606 C 0.63835 0.61936 0.16337
 C607 C 0.58646 0.59039 0.10618
 C608 C 0.57811 0.59532 0.07741
 H609 H 0.65817 0.69480 0.16778
 H610 H 0.62876 0.68467 0.12508
 H611 H 0.59650 0.65197 0.09744
 H612 H 0.61765 0.57698 0.15384
 H613 H 0.64895 0.61004 0.18228
 H614 H 0.58067 0.56936 0.11649
 H615 H 0.68836 0.63645 0.19032
 H616 H 0.58658 0.61470 0.06616
   
