data_POSCAR
  _audit_creation_date              2014-09-24
  _audit_creation_method            'ToBaCCo'
  _symmetry_space_group_name_H-M    'P1'
  _symmetry_Int_Tables_number       1
  _symmetry_cell_setting            triclinic
  loop_
  _symmetry_equiv_pos_as_xyz
 x,y,z
_cell_length_a 51.3688
_cell_length_b 50.1412
_cell_length_c 51.5744
_cell_angle_alpha 90.387000
_cell_angle_beta 89.787300
_cell_angle_gamma 90.245000
loop_
  _atom_site_label
  _atom_site_type_symbol
  _atom_site_fract_x
  _atom_site_fract_y
  _atom_site_fract_z
N1 N 0.59362 0.66524 0.61252
 N2 N 0.58368 0.65462 0.63360
 C3 C 0.56227 0.66837 0.64060
 C4 C 0.55849 0.68852 0.62282
 C5 C 0.57873 0.68588 0.60522
 H6 H 0.55020 0.66398 0.65726
 H7 H 0.58267 0.69842 0.58868
 Cu8 Cu 0.59983 0.62393 0.64974
 Cu9 Cu 0.62564 0.65216 0.59665
 Cu10 Cu 0.65497 0.59779 0.62569
 N11 N 0.61593 0.59296 0.66545
 N12 N 0.63809 0.58356 0.65659
 C13 C 0.64563 0.56310 0.67151
 C14 C 0.62697 0.55909 0.69070
 C15 C 0.60835 0.57849 0.68605
 H16 H 0.66309 0.55164 0.66811
 H17 H 0.59090 0.58232 0.69719
 N18 N 0.66895 0.61498 0.59427
 N19 N 0.65808 0.63601 0.58355
 C20 C 0.67234 0.64331 0.56279
 C21 C 0.69297 0.62589 0.56013
 C22 C 0.69018 0.60815 0.58037
 H23 H 0.66779 0.65975 0.55016
 H24 H 0.70287 0.59165 0.58475
 H25 H 0.62178 0.61321 0.60905
 H26 H 0.64130 0.63626 0.62994
 N27 N 0.90524 0.33257 0.11209
 N28 N 0.91399 0.34221 0.13415
 C29 C 0.93433 0.32746 0.14193
 C30 C 0.93892 0.30763 0.12353
 C31 C 0.91998 0.31169 0.10481
 H32 H 0.94535 0.33138 0.15935
 H33 H 0.91660 0.29998 0.08747
 Cu34 Cu 0.89853 0.37381 0.14986
 Cu35 Cu 0.87469 0.34707 0.09498
 Cu36 Cu 0.84593 0.40247 0.12365
 N37 N 0.88254 0.40509 0.16562
 N38 N 0.86161 0.41584 0.15557
 C39 C 0.85434 0.43684 0.17025
 C40 C 0.87182 0.43959 0.19045
 C41 C 0.88949 0.41912 0.18687
 H42 H 0.83792 0.44955 0.16621
 H43 H 0.90603 0.41472 0.19900
 N44 N 0.83300 0.38598 0.09134
 N45 N 0.84363 0.36458 0.08072
 C46 C 0.82991 0.35762 0.05950
 C47 C 0.80989 0.37566 0.05645
 C48 C 0.81249 0.39340 0.07693
 H49 H 0.83426 0.34083 0.04699
 H50 H 0.79998 0.41015 0.08125
 H51 H 0.87933 0.38573 0.10837
 H52 H 0.85780 0.36340 0.12785
 N53 N 0.40520 0.16708 -0.11084
 N54 N 0.41531 0.15636 -0.13189
 C55 C 0.43624 0.17078 -0.13916
 C56 C 0.43957 0.19146 -0.12157
 C57 C 0.41954 0.18845 -0.10381
 H58 H 0.44841 0.16640 -0.15579
 H59 H 0.41546 0.20113 -0.08727
 Cu60 Cu 0.40046 0.12434 -0.14749
 Cu61 Cu 0.37384 0.15296 -0.09454
 Cu62 Cu 0.34598 0.09684 -0.12285
 N63 N 0.38436 0.09308 -0.16333
 N64 N 0.36276 0.08277 -0.15393
 C65 C 0.35549 0.06191 -0.16881
 C66 C 0.37362 0.05880 -0.18849
 C67 C 0.39171 0.07891 -0.18438
 H68 H 0.33848 0.04965 -0.16535
 H69 H 0.40869 0.08313 -0.19612
 N70 N 0.33187 0.11398 -0.09136
 N71 N 0.34210 0.13572 -0.08094
 C72 C 0.32769 0.14298 -0.06020
 C73 C 0.30762 0.12478 -0.05728
 C74 C 0.31090 0.10664 -0.07732
 H75 H 0.33170 0.16000 -0.04785
 H76 H 0.29864 0.08960 -0.08154
 H77 H 0.37883 0.11392 -0.10658
 H78 H 0.35871 0.13569 -0.12778
 N79 N 0.09608 0.83315 0.38566
 N80 N 0.08924 0.84083 0.36239
 C81 C 0.06836 0.82659 0.35468
 C82 C 0.06145 0.80906 0.37434
 C83 C 0.07958 0.81400 0.39376
 H84 H 0.05873 0.82930 0.33630
 H85 H 0.08128 0.80396 0.41214
 Cu86 Cu 0.10789 0.86899 0.34439
 Cu87 Cu 0.12674 0.84746 0.40303
 Cu88 Cu 0.15629 0.90221 0.37478
 N89 N 0.12126 0.90272 0.33154
 N90 N 0.14068 0.91519 0.34296
 C91 C 0.14661 0.93731 0.32949
 C92 C 0.12978 0.93895 0.30868
 C93 C 0.11388 0.91670 0.31063
 H94 H 0.16173 0.95141 0.33468
 H95 H 0.09840 0.91090 0.29758
 N96 N 0.16902 0.88594 0.40698
 N97 N 0.15803 0.86475 0.41749
 C98 C 0.17166 0.85778 0.43862
 C99 C 0.19204 0.87560 0.44172
 C100 C 0.18972 0.89324 0.42136
 H101 H 0.16703 0.84108 0.45099
 H102 H 0.20256 0.90978 0.41705
 H103 H 0.12181 0.88473 0.38677
 H104 H 0.14640 0.86232 0.37108
 C105 C 0.11191 0.14609 0.11386
 C106 C 0.13443 0.13505 0.10279
 C107 C 0.14609 0.11324 0.11415
 C108 C 0.13555 0.10235 0.13688
 C109 C 0.11335 0.11326 0.14782
 C110 C 0.10156 0.13540 0.13635
 C111 C 0.09636 0.16713 0.10692
 N112 N 0.07708 0.16962 0.12482
 C113 C 0.08011 0.15038 0.14294
 C114 C 0.10730 0.09842 0.16940
 N115 N 0.12544 0.07899 0.17190
 C116 C 0.14285 0.08129 0.15215
 C117 C 0.16740 0.10667 0.09922
 N118 N 0.16909 0.12414 0.07927
 C119 C 0.14903 0.14160 0.08131
 H120 H 0.09903 0.17992 0.09028
 H121 H 0.06748 0.14740 0.15954
 H122 H 0.09103 0.10162 0.18244
 H123 H 0.15935 0.06831 0.14893
 H124 H 0.18093 0.09063 0.10282
 H125 H 0.14523 0.15773 0.06802
 C126 C 0.38538 0.85188 0.61324
 C127 C 0.36319 0.86338 0.60228
 C128 C 0.35233 0.88592 0.61345
 C129 C 0.36332 0.89707 0.63591
 C130 C 0.38520 0.88571 0.64672
 C131 C 0.39623 0.86289 0.63539
 C132 C 0.40023 0.83013 0.60641
 N133 N 0.41966 0.82759 0.62401
 C134 C 0.41733 0.84751 0.64183
 C135 C 0.39171 0.90075 0.66817
 N136 N 0.37417 0.92080 0.67074
 C137 C 0.35671 0.91868 0.65111
 C138 C 0.33121 0.89284 0.59863
 N139 N 0.32890 0.87490 0.57891
 C140 C 0.34834 0.85678 0.58102
 H141 H 0.39697 0.81695 0.59002
 H142 H 0.43025 0.85078 0.65810
 H143 H 0.40779 0.89715 0.68117
 H144 H 0.34054 0.93205 0.64798
 H145 H 0.31827 0.90948 0.60211
 H146 H 0.35159 0.84019 0.56787
 C147 C 0.88527 0.64943 0.38566
 C148 C 0.86312 0.63795 0.39708
 C149 C 0.85186 0.61546 0.38610
 C150 C 0.86243 0.60433 0.36340
 C151 C 0.88426 0.61568 0.35212
 C152 C 0.89566 0.63848 0.36323
 C153 C 0.90055 0.67100 0.39234
 N154 N 0.91975 0.67352 0.37435
 C155 C 0.91689 0.65377 0.35642
 C156 C 0.89049 0.60048 0.33069
 N157 N 0.87284 0.58035 0.32857
 C158 C 0.85555 0.58259 0.34845
 C159 C 0.83093 0.60853 0.40141
 N160 N 0.82910 0.62642 0.42122
 C161 C 0.84869 0.64452 0.41870
 H162 H 0.89783 0.68403 0.40895
 H163 H 0.92958 0.65055 0.33990
 H164 H 0.90656 0.60393 0.31747
 H165 H 0.83941 0.56912 0.35200
 H166 H 0.81778 0.59191 0.39820
 H167 H 0.85230 0.66107 0.43181
 C168 C 0.61438 0.35446 -0.11323
 C169 C 0.63738 0.36526 -0.10292
 C170 C 0.64882 0.38733 -0.11431
 C171 C 0.63757 0.39871 -0.13635
 C172 C 0.61482 0.38810 -0.14645
 C173 C 0.60326 0.36573 -0.13492
 C174 C 0.59898 0.33314 -0.10619
 N175 N 0.57899 0.33109 -0.12326
 C176 C 0.58146 0.35093 -0.14091
 C177 C 0.60815 0.40330 -0.16750
 N178 N 0.62648 0.42262 -0.17055
 C179 C 0.64460 0.41995 -0.15166
 C180 C 0.67055 0.39373 -0.10002
 N181 N 0.67268 0.37595 -0.08039
 C182 C 0.65253 0.35841 -0.08206
 H183 H 0.60233 0.31981 -0.09013
 H184 H 0.56827 0.35442 -0.15685
 H185 H 0.59140 0.40038 -0.17989
 H186 H 0.66146 0.43272 -0.14914
 H187 H 0.68395 0.41001 -0.10370
 H188 H 0.64893 0.34214 -0.06881
 C189 C -0.00253 0.24870 0.12417
 C190 C -0.01659 0.25314 0.10135
 C191 C -0.03627 0.27244 0.10133
 C192 C -0.04156 0.28791 0.12376
 C193 C -0.02687 0.28324 0.14641
 C194 C -0.00765 0.26347 0.14680
 C195 C 0.01797 0.22819 0.12436
 C196 C 0.03154 0.22323 0.14742
 C197 C 0.05082 0.20351 0.14755
 C198 C 0.05697 0.18940 0.12469
 C199 C 0.04344 0.19482 0.10168
 C200 C 0.02364 0.21398 0.10148
 C201 C 0.00651 0.25809 0.16943
 C202 C 0.02565 0.23819 0.16978
 C203 C -0.01055 0.23831 0.07891
 C204 C 0.00933 0.21919 0.07893
 H205 H 0.00268 0.26929 0.18707
 H206 H 0.03603 0.23461 0.18767
 H207 H -0.02120 0.24161 0.06113
 H208 H 0.01346 0.20830 0.06117
 H209 H -0.04686 0.27575 0.08355
 H210 H -0.03068 0.29440 0.16404
 H211 H 0.06144 0.19945 0.16520
 H212 H 0.04809 0.18376 0.08415
 C213 C 0.49861 0.74765 0.62324
 C214 C 0.50994 0.73982 0.59958
 C215 C 0.52964 0.72053 0.59956
 C216 C 0.53770 0.70884 0.62293
 C217 C 0.52593 0.71674 0.64645
 C218 C 0.50652 0.73633 0.64674
 C219 C 0.47813 0.76818 0.62341
 C220 C 0.46720 0.77642 0.64713
 C221 C 0.44797 0.79618 0.64721
 C222 C 0.43940 0.80734 0.62378
 C223 C 0.45037 0.79864 0.60016
 C224 C 0.46993 0.77921 0.59987
 C225 C 0.49497 0.74493 0.67006
 C226 C 0.47571 0.76472 0.67026
 C227 C 0.50131 0.75141 0.57643
 C228 C 0.48157 0.77069 0.57657
 H229 H 0.50094 0.73638 0.68832
 H230 H 0.46738 0.77086 0.68867
 H231 H 0.50985 0.74548 0.55805
 H232 H 0.47545 0.77909 0.55828
 H233 H 0.53842 0.71438 0.58136
 H234 H 0.53220 0.70806 0.66455
 H235 H 0.43936 0.80264 0.66540
 H236 H 0.44401 0.80740 0.58212
 C237 C 1.00056 0.75210 0.37451
 C238 C 1.00716 0.76502 0.35135
 C239 C 1.02707 0.78426 0.35147
 C240 C 1.04095 0.79021 0.37444
 C241 C 1.03400 0.77675 0.39748
 C242 C 1.01371 0.75795 0.39766
 C243 C 0.97955 0.73196 0.37450
 C244 C 0.97258 0.71943 0.39781
 C245 C 0.95250 0.70039 0.39771
 C246 C 0.93990 0.69346 0.37443
 C247 C 0.94726 0.70602 0.35119
 C248 C 0.96691 0.72553 0.35117
 C249 C 1.00628 0.74489 0.42058
 C250 C 0.98597 0.72606 0.42068
 C251 C 0.99384 0.75829 0.32844
 C252 C 0.97416 0.73877 0.32832
 H253 H 1.01621 0.74929 0.43861
 H254 H 0.98082 0.71650 0.43877
 H255 H 0.99879 0.76807 0.31040
 H256 H 0.96451 0.73406 0.31021
 H257 H 1.03205 0.79392 0.33342
 H258 H 1.04390 0.78109 0.41551
 H259 H 0.94700 0.69053 0.41555
 H260 H 0.93739 0.70084 0.33331
 C261 C 0.49911 0.25145 -0.12224
 C262 C 0.49091 0.23993 -0.14574
 C263 C 0.47153 0.22016 -0.14538
 C264 C 0.46007 0.21225 -0.12179
 C265 C 0.46834 0.22421 -0.09842
 C266 C 0.48805 0.24367 -0.09852
 C267 C 0.51971 0.27203 -0.12249
 C268 C 0.52830 0.28316 -0.09895
 C269 C 0.54808 0.30253 -0.09930
 C270 C 0.55886 0.31108 -0.12297
 C271 C 0.54985 0.29988 -0.14640
 C272 C 0.53042 0.28016 -0.14626
 C273 C 0.49702 0.25541 -0.07538
 C274 C 0.51688 0.27473 -0.07558
 C275 C 0.50222 0.24847 -0.16912
 C276 C 0.52157 0.26833 -0.16939
 H277 H 0.48868 0.24953 -0.05694
 H278 H 0.52330 0.28321 -0.05730
 H279 H 0.49601 0.23978 -0.18738
 H280 H 0.52972 0.27439 -0.18784
 H281 H 0.46508 0.21127 -0.16346
 H282 H 0.45980 0.21805 -0.08017
 H283 H 0.55482 0.31131 -0.08126
 H284 H 0.55833 0.30622 -0.16463
 C285 C 0.12781 -0.00068 0.25047
 C286 C 0.10463 -0.01366 0.25765
 C287 C 0.10541 -0.03360 0.27658
 C288 C 0.12907 -0.04015 0.28863
 C289 C 0.15208 -0.02671 0.28141
 C290 C 0.15161 -0.00715 0.26212
 C291 C 0.12717 0.02002 0.23032
 C292 C 0.15046 0.03252 0.22266
 C293 C 0.14978 0.05190 0.20321
 C294 C 0.12599 0.05915 0.19185
 C295 C 0.10278 0.04669 0.19998
 C296 C 0.10329 0.02688 0.21903
 C297 C 0.17446 0.00598 0.25414
 C298 C 0.17392 0.02538 0.23464
 C299 C 0.08114 -0.00638 0.24581
 C300 C 0.08046 0.01364 0.22692
 H301 H 0.19295 0.00113 0.26294
 H302 H 0.19200 0.03493 0.22896
 H303 H 0.06311 -0.01619 0.25123
 H304 H 0.06193 0.01870 0.21831
 H305 H 0.08760 -0.04369 0.28223
 H306 H 0.17039 -0.03185 0.29043
 H307 H 0.16762 0.06166 0.19712
 H308 H 0.08449 0.05207 0.19105
 C309 C 0.62686 0.50118 -0.25016
 C310 C 0.64967 0.50571 -0.26451
 C311 C 0.64953 0.52468 -0.28437
 C312 C 0.62694 0.53973 -0.28956
 C313 C 0.60431 0.53501 -0.27455
 C314 C 0.60408 0.51557 -0.25514
 C315 C 0.62680 0.48096 -0.22952
 C316 C 0.60372 0.47588 -0.21568
 C317 C 0.60368 0.45634 -0.19636
 C318 C 0.62664 0.44249 -0.19045
 C319 C 0.64969 0.44808 -0.20421
 C320 C 0.64980 0.46708 -0.22404
 C321 C 0.58144 0.51012 -0.24069
 C322 C 0.58122 0.49049 -0.22140
 C323 C 0.67226 0.49124 -0.25863
 C324 C 0.67237 0.47238 -0.23863
 H325 H 0.56369 0.52103 -0.24440
 H326 H 0.56332 0.48681 -0.21082
 H327 H 0.69004 0.49461 -0.26950
 H328 H 0.69022 0.46175 -0.23465
 H329 H 0.66731 0.52805 -0.29521
 H330 H 0.58655 0.54585 -0.27825
 H331 H 0.58600 0.45214 -0.18558
 H332 H 0.66730 0.43721 -0.19976
 C333 C 0.37383 0.99983 0.75108
 C334 C 0.39752 1.01085 0.75954
 C335 C 0.39732 1.03032 0.77918
 C336 C 0.37369 1.03844 0.79063
 C337 C 0.35012 1.02701 0.78205
 C338 C 0.35006 1.00784 0.76212
 C339 C 0.37391 0.97949 0.73029
 C340 C 0.35018 0.96881 0.72153
 C341 C 0.35037 0.94960 0.70164
 C342 C 0.37407 0.94078 0.69087
 C343 C 0.39769 0.95157 0.70003
 C344 C 0.39771 0.97111 0.71961
 C345 C 0.32673 0.99658 0.75294
 C346 C 0.32678 0.97746 0.73291
 C347 C 0.42094 1.00209 0.74824
 C348 C 0.42104 0.98248 0.72868
 H349 H 0.30826 1.00264 0.76126
 H350 H 0.30835 0.96933 0.72636
 H351 H 0.43935 1.01040 0.75463
 H352 H 0.43952 0.97622 0.72055
 H353 H 0.41556 1.03880 0.78585
 H354 H 0.33183 1.03334 0.79057
 H355 H 0.33218 0.94112 0.69483
 H356 H 0.41594 0.94502 0.69159
 C357 C 0.87218 0.49964 0.24984
 C358 C 0.89580 0.48823 0.24176
 C359 C 0.89553 0.46835 0.22251
 C360 C 0.87192 0.46025 0.21104
 C361 C 0.84843 0.47205 0.21924
 C362 C 0.84843 0.49161 0.23882
 C363 C 0.87233 0.52043 0.27020
 C364 C 0.84867 0.53149 0.27864
 C365 C 0.84893 0.55112 0.29814
 C366 C 0.87265 0.56001 0.30880
 C367 C 0.89620 0.54886 0.29997
 C368 C 0.89615 0.52888 0.28082
 C369 C 0.82516 0.50326 0.24765
 C370 C 0.82528 0.52278 0.26730
 C371 C 0.91921 0.49704 0.25299
 C372 C 0.91939 0.51711 0.27212
 H373 H 0.80671 0.49719 0.23934
 H374 H 0.80690 0.53120 0.27360
 H375 H 0.93757 0.48844 0.24688
 H376 H 0.93788 0.52340 0.28020
 H377 H 0.91371 0.45957 0.21611
 H378 H 0.83016 0.46574 0.21068
 H379 H 0.83080 0.55987 0.30474
 H380 H 0.91445 0.55546 0.30835
 C381 C 0.24816 0.12453 0.00108
 C382 C 0.25648 0.10026 -0.00978
 C383 C 0.27580 0.10048 -0.02907
 C384 C 0.28709 0.12470 -0.03711
 C385 C 0.27869 0.14885 -0.02583
 C386 C 0.25903 0.14890 -0.00688
 C387 C 0.22768 0.12444 0.02120
 C388 C 0.21899 0.14875 0.03170
 C389 C 0.19938 0.14855 0.05069
 C390 C 0.18887 0.12425 0.05949
 C391 C 0.19796 0.10005 0.04892
 C392 C 0.21721 0.10003 0.02957
 C393 C 0.24995 0.17280 0.00421
 C394 C 0.23019 0.17274 0.02309
 C395 C 0.24539 0.07626 -0.00106
 C396 C 0.22617 0.07614 0.01837
 H397 H 0.25814 0.19173 -0.00182
 H398 H 0.22369 0.19162 0.03108
 H399 H 0.25168 0.05739 -0.00925
 H400 H 0.21820 0.05719 0.02461
 H401 H 0.28235 0.08180 -0.03747
 H402 H 0.28711 0.16759 -0.03211
 H403 H 0.19260 0.16718 0.05901
 H404 H 0.18971 0.08135 0.05550
 C405 C 0.75160 0.62614 0.50094
 C406 C 0.74411 0.60188 0.51226
 C407 C 0.72513 0.60195 0.53189
 C408 C 0.71334 0.62598 0.53980
 C409 C 0.72094 0.65010 0.52810
 C410 C 0.74026 0.65032 0.50881
 C411 C 0.77165 0.62621 0.48041
 C412 C 0.77950 0.65053 0.46944
 C413 C 0.79871 0.65049 0.45005
 C414 C 0.80966 0.62634 0.44133
 C415 C 0.80141 0.60213 0.45237
 C416 C 0.78257 0.60196 0.47212
 C417 C 0.74849 0.67423 0.49726
 C418 C 0.76787 0.67434 0.47799
 C419 C 0.75564 0.57805 0.50361
 C420 C 0.77446 0.57807 0.48379
 H421 H 0.73994 0.69302 0.50321
 H422 H 0.77372 0.69322 0.46963
 H423 H 0.74998 0.55920 0.51215
 H424 H 0.78278 0.55925 0.47761
 H425 H 0.71918 0.58328 0.54062
 H426 H 0.71214 0.66870 0.53427
 H427 H 0.80485 0.66912 0.44138
 H428 H 0.81000 0.58355 0.44585
 C429 C 0.75150 0.37583 -0.00254
 C430 C 0.75952 0.40009 0.00868
 C431 C 0.77853 0.39990 0.02813
 C432 C 0.78981 0.37573 0.03599
 C433 C 0.78175 0.35162 0.02432
 C434 C 0.76239 0.35152 0.00522
 C435 C 0.73125 0.37586 -0.02273
 C436 C 0.72278 0.35155 -0.03351
 C437 C 0.70327 0.35169 -0.05246
 C438 C 0.69264 0.37593 -0.06094
 C439 C 0.70156 0.40014 -0.05015
 C440 C 0.72070 0.40021 -0.03083
 C441 C 0.75358 0.32762 -0.00619
 C442 C 0.73403 0.32762 -0.02514
 C443 C 0.74840 0.42403 0.00018
 C444 C 0.72941 0.42410 -0.01933
 H445 H 0.76179 0.30873 -0.00033
 H446 H 0.72771 0.30874 -0.03335
 H447 H 0.75448 0.44288 0.00863
 H448 H 0.72138 0.44301 -0.02537
 H449 H 0.78483 0.41856 0.03684
 H450 H 0.79014 0.33291 0.03047
 H451 H 0.69659 0.33305 -0.06093
 H452 H 0.69320 0.41879 -0.05646
 C453 C 0.25055 0.87535 0.50059
 C454 C 0.24316 0.89963 0.48943
 C455 C 0.22412 0.89958 0.47000
 C456 C 0.21220 0.87554 0.46210
 C457 C 0.21966 0.85141 0.47368
 C458 C 0.23902 0.85117 0.49278
 C459 C 0.27076 0.87524 0.52082
 C460 C 0.27854 0.85090 0.53158
 C461 C 0.29795 0.85089 0.55062
 C462 C 0.30918 0.87502 0.55921
 C463 C 0.30097 0.89927 0.54840
 C464 C 0.28192 0.89948 0.52900
 C465 C 0.24718 0.82724 0.50415
 C466 C 0.26669 0.82709 0.52314
 C467 C 0.25490 0.92345 0.49799
 C468 C 0.27387 0.92339 0.51752
 H469 H 0.23848 0.80844 0.49824
 H470 H 0.27248 0.80820 0.53134
 H471 H 0.24933 0.94232 0.48958
 H472 H 0.28238 0.94221 0.52362
 H473 H 0.21830 0.91825 0.46135
 H474 H 0.21078 0.83279 0.46751
 H475 H 0.30405 0.83224 0.55912
 H476 H 0.30978 0.91784 0.55481
   
