data_POSCAR
  _audit_creation_date              2014-09-24
  _audit_creation_method            'ToBaCCo'
  _symmetry_space_group_name_H-M    'P1'
  _symmetry_Int_Tables_number       1
  _symmetry_cell_setting            triclinic
  loop_
  _symmetry_equiv_pos_as_xyz
 x,y,z
_cell_length_a 36.8731
_cell_length_b 35.3683
_cell_length_c 38.2999
_cell_angle_alpha 90.058200
_cell_angle_beta 89.324600
_cell_angle_gamma 90.301600
loop_
  _atom_site_label
  _atom_site_type_symbol
  _atom_site_fract_x
  _atom_site_fract_y
  _atom_site_fract_z
C1 C 0.18973 0.52741 1.03906
 H2 H 0.18899 0.54883 1.01894
 C3 C 0.16507 0.52868 1.06697
 H4 H 0.14537 0.55129 1.06842
 C5 C 0.21559 0.47113 1.06114
 H6 H 0.23477 0.44833 1.05837
 C7 C 0.19138 0.47131 1.08950
 H8 H 0.19229 0.44879 1.10864
 N9 N 0.21443 0.49904 1.03673
 C10 C 0.29994 0.54339 0.96833
 H11 H 0.30055 0.52139 0.94869
 C12 C 0.32468 0.57336 0.96647
 H13 H 0.34447 0.57445 0.94535
 C14 C 0.27436 0.56812 1.02063
 H15 H 0.25525 0.56555 1.04209
 C16 C 0.29869 0.59858 1.01976
 H17 H 0.29814 0.61945 1.04048
 Zn18 Zn 0.24474 0.49817 0.99653
 N19 N 0.27538 0.54134 0.99506
 C20 C 0.21495 0.52533 0.93313
 N21 N 0.21389 0.49728 0.95745
 C22 C 0.18899 0.46881 0.95581
 C23 C 0.16403 0.46760 0.92871
 C24 C 0.19044 0.52518 0.90559
 C25 C 0.30004 0.45298 1.02254
 C26 C 0.32483 0.42330 1.02316
 C27 C 0.29814 0.39851 0.97049
 C28 C 0.27376 0.42868 0.97087
 N29 N 0.27513 0.45512 0.99671
 H30 H 0.23427 0.54822 0.93536
 H31 H 0.18835 0.44728 0.97586
 H32 H 0.14413 0.44498 0.92773
 H33 H 0.19120 0.54775 0.88649
 H34 H 0.30095 0.47474 1.04240
 H35 H 0.34490 0.42215 1.04355
 H36 H 0.29732 0.37793 0.94954
 H37 H 0.25439 0.43134 0.95010
 C38 C 0.32415 0.60112 0.99248
 C39 C 0.16581 0.50030 1.09237
 C40 C 0.32399 0.39592 0.99680
 C41 C 0.16471 0.49610 0.90345
 C42 C 0.81166 0.52936 -0.03906
 H43 H 0.81256 0.55131 -0.01938
 C44 C 0.83641 0.52985 -0.06689
 H45 H 0.85639 0.55234 -0.06883
 C46 C 0.78531 0.47246 -0.06000
 H47 H 0.76593 0.44970 -0.05679
 C48 C 0.80960 0.47188 -0.08825
 H49 H 0.80863 0.44888 -0.10693
 N50 N 0.78669 0.50104 -0.03620
 C51 C 0.70179 0.54720 0.03119
 H52 H 0.70100 0.52586 0.05140
 C53 C 0.67747 0.57729 0.03236
 H54 H 0.65783 0.57919 0.05355
 C55 C 0.72748 0.57015 -0.02183
 H56 H 0.74647 0.56684 -0.04328
 C57 C 0.70358 0.60070 -0.02167
 H58 H 0.70437 0.62094 -0.04288
 Zn59 Zn 0.75644 0.50115 0.00393
 N60 N 0.72624 0.54425 0.00445
 C61 C 0.78680 0.52983 0.06673
 N62 N 0.78743 0.50127 0.04286
 C63 C 0.81222 0.47300 0.04466
 C64 C 0.83755 0.47252 0.07144
 C65 C 0.81170 0.53043 0.09395
 C66 C 0.70092 0.45517 -0.02133
 C67 C 0.67653 0.42488 -0.02189
 C68 C 0.70352 0.40104 0.03085
 C69 C 0.72749 0.43180 0.03042
 N70 N 0.72586 0.45800 0.00446
 H71 H 0.76754 0.55255 0.06434
 H72 H 0.81254 0.45107 0.02494
 H73 H 0.85735 0.45005 0.07253
 H74 H 0.81129 0.55340 0.11268
 H75 H 0.69986 0.47673 -0.04131
 H76 H 0.65655 0.42305 -0.04235
 H77 H 0.70466 0.38052 0.05179
 H78 H 0.74689 0.43499 0.05113
 C79 C 0.67830 0.60421 0.00564
 C80 C 0.83543 0.50077 -0.09161
 C81 C 0.67780 0.39762 0.00447
 C82 C 0.83735 0.50158 0.09620
 C83 C -0.02799 0.31009 0.45401
 H84 H -0.04933 0.31010 0.47363
 C85 C -0.02909 0.33559 0.42621
 H86 H -0.05146 0.35520 0.42434
 C87 C 0.02786 0.28536 0.43306
 H88 H 0.05043 0.26641 0.43620
 C89 C 0.02784 0.31036 0.40488
 H90 H 0.05022 0.31020 0.38628
 N91 N 0.00008 0.28549 0.45680
 C92 C -0.04019 0.19334 0.52275
 H93 H -0.01917 0.19287 0.54222
 C94 C -0.06861 0.16713 0.52438
 H95 H -0.06957 0.14639 0.54517
 C96 C -0.06437 0.22052 0.47150
 H97 H -0.06235 0.24098 0.45065
 C98 C -0.09326 0.19479 0.47215
 H99 H -0.11354 0.19568 0.45193
 Zn100 Zn 0.00110 0.25361 0.49643
 N101 N -0.03876 0.21959 0.49681
 C102 C -0.02692 0.28139 0.56107
 N103 N -0.00039 0.28515 0.53627
 C104 C 0.02536 0.31271 0.53851
 C105 C 0.02556 0.33739 0.56695
 C106 C -0.02772 0.30552 0.58996
 C107 C 0.04793 0.19885 0.46967
 C108 C 0.07876 0.17622 0.46776
 C109 C 0.10067 0.20616 0.52027
 C110 C 0.06941 0.22831 0.52119
 N111 N 0.04398 0.22451 0.49590
 H112 H -0.04766 0.25996 0.55841
 H113 H 0.04576 0.31543 0.51811
 H114 H 0.04621 0.35921 0.56858
 H115 H -0.04889 0.30242 0.60961
 H116 H 0.02704 0.19605 0.45023
 H117 H 0.08162 0.15573 0.44687
 H118 H 0.12069 0.20909 0.54059
 H119 H 0.06540 0.24818 0.54228
 C120 C -0.09543 0.16793 0.49889
 C121 C -0.00085 0.33575 0.40147
 C122 C 0.10537 0.17997 0.49325
 C123 C -0.00117 0.33368 0.59291
 C124 C 0.97281 0.68999 0.54349
 H125 H 0.95205 0.68940 0.52377
 C126 C 0.97134 0.66441 0.57123
 H127 H 0.94931 0.64408 0.57303
 C128 C 1.02751 0.71643 0.56484
 H129 H 1.04979 0.73613 0.56191
 C130 C 1.02707 0.69137 0.59296
 H131 H 1.04879 0.69213 0.61176
 N132 N 1.00046 0.71552 0.54096
 C133 C 0.95969 0.80707 0.47617
 H134 H 0.98094 0.80840 0.45648
 C135 C 0.93097 0.83262 0.47526
 H136 H 0.92999 0.85368 0.45478
 C137 C 0.93534 0.77857 0.52742
 H138 H 0.93744 0.75794 0.54804
 C139 C 0.90615 0.80361 0.52748
 H140 H 0.88571 0.80198 0.54799
 Zn141 Zn 1.00183 0.74792 0.50171
 N142 N 0.96121 0.78052 0.50181
 C143 C 0.97595 0.71980 0.43686
 N144 N 1.00214 0.71690 0.46147
 C145 C 1.02859 0.69032 0.45892
 C146 C 1.02977 0.66568 0.43045
 C147 C 0.97613 0.69568 0.40795
 C148 C 1.04619 0.80412 0.52941
 C149 C 1.07615 0.82818 0.53177
 C150 C 1.10077 0.79988 0.47919
 C151 C 1.07032 0.77626 0.47782
 N152 N 1.04392 0.77864 0.50289
 H153 H 0.95466 0.74044 0.43976
 H154 H 1.04868 0.68822 0.47918
 H155 H 1.05087 0.64455 0.42866
 H156 H 0.95514 0.69801 0.38852
 H157 H 1.02455 0.80575 0.54867
 H158 H 1.07757 0.84862 0.55281
 H159 H 1.12148 0.79821 0.45896
 H160 H 1.06765 0.75647 0.45652
 C161 C 0.90395 0.83084 0.50115
 C162 C 0.99875 0.66515 0.59615
 C163 C 1.10367 0.82603 0.50645
 C164 C 1.00330 0.66841 0.40475
 C165 C 0.45487 -0.03161 0.30363
 H166 H 0.47516 -0.05353 0.30486
 C167 C 0.42558 -0.03191 0.32705
 H168 H 0.42321 -0.05417 0.34635
 C169 C 0.43408 0.02531 0.27814
 H170 H 0.43804 0.04810 0.25973
 C171 C 0.40439 0.02610 0.30113
 H172 H 0.38541 0.04934 0.30017
 N173 N 0.45862 -0.00325 0.27987
 C174 C 0.53244 -0.04849 0.20072
 H175 H 0.55365 -0.02727 0.20146
 C176 C 0.53415 -0.07760 0.17611
 H177 H 0.55688 -0.07884 0.15793
 C178 C 0.47604 -0.07168 0.22238
 H179 H 0.45297 -0.06866 0.23977
 C180 C 0.47666 -0.10125 0.19812
 H181 H 0.45417 -0.12107 0.19720
 Zn182 Zn 0.50149 -0.00281 0.25232
 N183 N 0.50366 -0.04599 0.22314
 C184 C 0.56534 -0.03024 0.28491
 N185 N 0.54067 -0.00176 0.28384
 C186 C 0.54127 0.02698 0.30747
 C187 C 0.56744 0.02788 0.33352
 C188 C 0.59200 -0.03042 0.31058
 C189 C 0.47638 0.04116 0.19770
 C190 C 0.47615 0.07045 0.17334
 C191 C 0.52969 0.09660 0.20025
 C192 C 0.52891 0.06676 0.22422
 N193 N 0.50242 0.03986 0.22253
 H194 H 0.56386 -0.05331 0.26648
 H195 H 0.52089 0.04883 0.30644
 H196 H 0.56744 0.05065 0.35246
 H197 H 0.61126 -0.05341 0.31158
 H198 H 0.45602 0.01906 0.19662
 H199 H 0.45552 0.07099 0.15344
 H200 H 0.55109 0.11765 0.20140
 H201 H 0.54982 0.06476 0.24365
 C202 C 0.50585 -0.10403 0.17457
 C203 C 0.40030 -0.00262 0.32596
 C204 C 0.50311 0.09833 0.17452
 C205 C 0.59288 -0.00122 0.33524
 C206 C 0.53374 -0.02947 0.69334
 H207 H 0.51310 -0.05133 0.69390
 C208 C 0.56113 -0.03032 0.66785
 H209 H 0.56178 -0.05305 0.64887
 C210 C 0.55736 0.02765 0.71654
 H211 H 0.55528 0.05067 0.73500
 C212 C 0.58524 0.02788 0.69144
 H213 H 0.60479 0.05084 0.69092
 N214 N 0.53234 -0.00080 0.71704
 C215 C 0.46401 -0.04462 0.80181
 H216 H 0.44345 -0.02291 0.80245
 C217 C 0.46310 -0.07367 0.82645
 H218 H 0.44173 -0.07440 0.84611
 C219 C 0.51793 -0.06924 0.77641
 H220 H 0.53971 -0.06686 0.75742
 C221 C 0.51805 -0.09880 0.80067
 H222 H 0.53983 -0.11924 0.80017
 Zn223 Zn 0.49180 0.00006 0.74793
 N224 N 0.49115 -0.04287 0.77748
 C225 C 0.42513 -0.02764 0.72052
 N226 N 0.45009 0.00088 0.71968
 C227 C 0.44777 0.02961 0.69625
 C228 C 0.41961 0.03035 0.67224
 C229 C 0.39651 -0.02801 0.69687
 C230 C 0.52134 0.04525 0.80022
 C231 C 0.52260 0.07420 0.82500
 C232 C 0.46626 0.09827 0.80259
 C233 C 0.46606 0.06886 0.77814
 N234 N 0.49334 0.04304 0.77748
 H235 H 0.42796 -0.05072 0.73871
 H236 H 0.46837 0.05150 0.69573
 H237 H 0.41845 0.05292 0.65319
 H238 H 0.37725 -0.05124 0.69708
 H239 H 0.54228 0.02395 0.79957
 H240 H 0.54464 0.07527 0.84344
 H241 H 0.44408 0.11822 0.80349
 H242 H 0.44357 0.06607 0.76049
 C243 C 0.49049 -0.10085 0.82606
 C244 C 0.58699 -0.00127 0.66676
 C245 C 0.49466 0.10076 0.82640
 C246 C 0.39395 0.00110 0.67234
 C247 C 0.25604 0.00403 0.49804
 C248 C 0.74181 -0.00124 0.50175
 C249 C 0.50125 0.24590 1.00170
 C250 C 0.50117 0.75325 0.00036
 C251 C 1.00306 0.50234 0.24656
 C252 C -0.00061 0.49764 0.75280
 C253 C 0.18840 0.10451 0.49060
 C254 C 0.21652 0.10423 0.51480
 C255 C 0.23994 0.07326 0.51646
 C256 C 0.13626 0.15535 0.49258
 C257 C 0.20832 0.04410 0.46831
 C258 C 0.18517 0.07501 0.46662
 C259 C 0.16094 0.13318 0.49178
 C260 C 0.23452 0.04133 0.49484
 H261 H 0.21981 0.12749 0.53293
 H262 H 0.26167 0.07441 0.53509
 H263 H 0.20440 0.02106 0.45007
 H264 H 0.16386 0.07520 0.44738
 C265 C 0.59895 0.68411 0.00573
 C266 C 0.59777 0.71369 -0.01843
 C267 C 0.56727 0.73705 -0.01991
 C268 C 0.65180 0.63391 0.00537
 C269 C 0.53994 0.70218 0.02804
 C270 C 0.57036 0.67904 0.02949
 C271 C 0.62842 0.65761 0.00538
 C272 C 0.53677 0.73024 0.00199
 H273 H 0.62023 0.71845 -0.03641
 H274 H 0.56790 0.76018 -0.03829
 H275 H 0.51796 0.69721 0.04650
 H276 H 0.57120 0.65662 0.04872
 C277 C 0.82194 -0.09197 0.50156
 C278 C 0.80291 -0.08414 0.47108
 C279 C 0.77648 -0.05593 0.47095
 C280 C 0.87460 -0.14247 0.50116
 C281 C 0.78814 -0.04324 0.53192
 C282 C 0.81450 -0.07144 0.53195
 C283 C 0.85037 -0.11971 0.50127
 C284 C 0.76779 -0.03551 0.50170
 H285 H 0.80912 -0.09922 0.44713
 H286 H 0.76396 -0.04944 0.44632
 H287 H 0.78386 -0.02697 0.55555
 H288 H 0.82958 -0.07670 0.55554
 C289 C 0.40591 0.31879 0.99459
 C290 C 0.44029 0.33327 0.98667
 C291 C 0.47070 0.31012 0.98828
 C292 C 0.35123 0.36690 0.99571
 C293 C 0.43234 0.25707 1.00420
 C294 C 0.40182 0.28044 1.00268
 C295 C 0.37538 0.34402 0.99503
 C296 C 0.46769 0.27198 0.99919
 H297 H 0.44368 0.36268 0.97935
 H298 H 0.49648 0.32247 0.98070
 H299 H 0.42848 0.22742 1.01027
 H300 H 0.37517 0.26866 1.00809
 C301 C 0.82282 0.08956 0.50070
 C302 C 0.81572 0.06870 0.47056
 C303 C 0.78919 0.04041 0.47105
 C304 C 0.87538 0.14075 0.49977
 C305 C 0.77669 0.05357 0.53202
 C306 C 0.80332 0.08189 0.53144
 C307 C 0.85122 0.11765 0.50036
 C308 C 0.76830 0.03290 0.50149
 H309 H 0.83115 0.07385 0.44676
 H310 H 0.78512 0.02396 0.44755
 H311 H 0.76371 0.04727 0.55679
 H312 H 0.80926 0.09725 0.55520
 C313 C 0.40600 0.67920 -0.00764
 C314 C 0.40182 0.71744 0.00077
 C315 C 0.43228 0.74118 0.00261
 C316 C 0.35138 0.63045 -0.00767
 C317 C 0.47080 0.68875 -0.01365
 C318 C 0.44044 0.66522 -0.01556
 C319 C 0.37550 0.65362 -0.00773
 C320 C 0.46767 0.72676 -0.00244
 H321 H 0.37512 0.72884 0.00617
 H322 H 0.42835 0.77073 0.00891
 H323 H 0.49662 0.67678 -0.02124
 H324 H 0.44390 0.63592 -0.02315
 C325 C 0.18240 -0.09287 0.50805
 C326 C 0.16987 -0.05654 0.51525
 C327 C 0.19336 -0.02568 0.51296
 C328 C 0.13331 -0.14745 0.50721
 C329 C 0.24286 -0.06756 0.49817
 C330 C 0.21914 -0.09856 0.50033
 C331 C 0.15672 -0.12358 0.50775
 C332 C 0.22989 -0.03020 0.50201
 H333 H 0.14170 -0.05194 0.52237
 H334 H 0.18247 0.00168 0.51984
 H335 H 0.27122 -0.07259 0.49228
 H336 H 0.22934 -0.12678 0.49556
 C337 C 0.59888 0.31637 1.00680
 C338 C 0.59765 0.28674 0.98262
 C339 C 0.56724 0.26293 0.98129
 C340 C 0.65138 0.36754 1.00536
 C341 C 0.54011 0.29735 1.02949
 C342 C 0.57046 0.32097 1.03079
 C343 C 0.62812 0.34346 1.00603
 C344 C 0.53684 0.26931 1.00334
 H345 H 0.61999 0.28234 0.96446
 H346 H 0.56784 0.23981 0.96286
 H347 H 0.51823 0.30198 1.04809
 H348 H 0.57133 0.34343 1.05003
 C349 C 0.50557 0.17637 1.09606
 C350 C 0.53003 0.17081 1.06845
 C351 C 0.52874 0.19381 1.03892
 C352 C 0.50434 0.12729 1.14813
 C353 C 0.47946 0.22926 1.06504
 C354 C 0.48079 0.20611 1.09462
 C355 C 0.50503 0.15037 1.12497
 C356 C 0.50210 0.22218 1.03570
 H357 H 0.54975 0.14825 1.06946
 H358 H 0.54794 0.18871 1.01784
 H359 H 0.46075 0.25265 1.06558
 H360 H 0.46227 0.21124 1.11626
 C361 C -0.00093 0.58795 0.67517
 C362 C -0.03268 0.57956 0.69390
 C363 C -0.03269 0.55150 0.71954
 C364 C -0.00151 0.63834 0.62432
 C365 C 0.03096 0.54012 0.70769
 C366 C 0.03087 0.56819 0.68209
 C367 C -0.00136 0.61558 0.64769
 C368 C -0.00055 0.53185 0.72769
 H369 H -0.05770 0.59408 0.68811
 H370 H -0.05832 0.54451 0.73199
 H371 H 0.05567 0.52436 0.71161
 H372 H 0.05545 0.57394 0.66721
 C373 C 0.49309 0.82462 -0.09268
 C374 C 0.48492 0.83957 -0.05979
 C375 C 0.48703 0.81698 -0.03005
 C376 C 0.49151 0.87108 -0.14674
 C377 C 0.50419 0.76365 -0.06606
 C378 C 0.50213 0.78641 -0.09587
 C379 C 0.49224 0.84902 -0.12276
 C380 C 0.49870 0.77898 -0.03229
 H381 H 0.47682 0.86885 -0.05709
 H382 H 0.47905 0.82960 -0.00546
 H383 H 0.51086 0.73406 -0.06927
 H384 H 0.50770 0.77424 -0.12133
 C385 C 1.00046 0.41200 0.32428
 C386 C 1.03265 0.41965 0.30595
 C387 C 1.03371 0.44785 0.28040
 C388 C 0.99934 0.36125 0.37488
 C389 C 0.97026 0.46091 0.29166
 C390 C 0.96931 0.43274 0.31714
 C391 C 0.99979 0.38416 0.35161
 C392 C 1.00219 0.46838 0.27198
 H393 H 1.05720 0.40438 0.31194
 H394 H 1.05962 0.45415 0.26820
 H395 H 0.94599 0.47730 0.28746
 H396 H 0.94440 0.42760 0.33171
 C397 C 0.50556 0.82168 0.09556
 C398 C 0.52989 0.82794 0.06793
 C399 C 0.52849 0.80538 0.03808
 C400 C 0.50568 0.86937 0.14880
 C401 C 0.47924 0.76906 0.06382
 C402 C 0.48070 0.79178 0.09374
 C403 C 0.50556 0.84692 0.12507
 C404 C 0.50187 0.77673 0.03456
 H405 H 0.54970 0.85062 0.06925
 H406 H 0.54766 0.81095 0.01704
 H407 H 0.46053 0.74547 0.06409
 H408 H 0.46230 0.78610 0.11539
 C409 C -0.00198 0.40799 0.67440
 C410 C -0.03362 0.42768 0.68286
 C411 C -0.03317 0.45544 0.70878
 C412 C -0.00169 0.35924 0.62210
 C413 C 0.03066 0.44382 0.71797
 C414 C 0.03010 0.41607 0.69201
 C415 C -0.00193 0.38115 0.64620
 C416 C -0.00125 0.46351 0.72756
 H417 H -0.05846 0.42222 0.66884
 H418 H -0.05776 0.47122 0.71385
 H419 H 0.05652 0.45063 0.72946
 H420 H 0.05499 0.40163 0.68500
 C421 C 0.49366 0.17493 0.90816
 C422 C 0.48540 0.15968 0.94092
 C423 C 0.48721 0.18216 0.97081
 C424 C 0.49402 0.12863 0.85385
 C425 C 0.50411 0.23599 0.93519
 C426 C 0.50235 0.21334 0.90524
 C427 C 0.49369 0.15058 0.87799
 C428 C 0.49870 0.22036 0.96886
 H429 H 0.47759 0.13021 0.94342
 H430 H 0.47926 0.16927 0.99531
 H431 H 0.51062 0.26571 0.93220
 H432 H 0.50802 0.22573 0.87989
 C433 C 1.00384 0.59298 0.32407
 C434 C 1.03537 0.57272 0.31645
 C435 C 1.03509 0.54462 0.29084
 C436 C 1.00347 0.64251 0.37578
 C437 C 0.97165 0.55698 0.28028
 C438 C 0.97203 0.58509 0.30594
 C439 C 1.00363 0.62027 0.35194
 C440 C 1.00349 0.53673 0.27153
 H441 H 1.05998 0.57804 0.33087
 H442 H 1.05957 0.52845 0.28641
 H443 H 0.94596 0.55036 0.26838
 H444 H 0.94720 0.59997 0.31229
 C445 C 1.09131 0.50067 0.16937
 C446 C 1.07136 0.46790 0.17675
 C447 C 1.04375 0.46853 0.20202
 C448 C 1.14103 0.50032 0.11903
 C449 C 1.05580 0.53488 0.21253
 C450 C 1.08341 0.53415 0.18722
 C451 C 1.11863 0.50042 0.14222
 C452 C 1.03607 0.50173 0.22126
 H453 H 1.07670 0.44198 0.16253
 H454 H 1.02802 0.44301 0.20642
 H455 H 1.04939 0.56183 0.22436
 H456 H 1.09806 0.55996 0.18103
 C457 C 0.66352 -0.00075 0.58860
 C458 C 0.68188 -0.03403 0.58010
 C459 C 0.70719 -0.03449 0.55264
 C460 C 0.61441 -0.00082 0.63962
 C461 C 0.69542 0.03164 0.54161
 C462 C 0.67013 0.03201 0.56910
 C463 C 0.63695 -0.00064 0.61651
 C464 C 0.71556 -0.00123 0.53362
 H465 H 0.67623 -0.05987 0.59439
 H466 H 0.71946 -0.06128 0.54603
 H467 H 0.69942 0.05720 0.52649
 H468 H 0.65547 0.05777 0.57490
 C469 C -0.08823 0.49897 0.83052
 C470 C -0.08039 0.46548 0.81264
 C471 C -0.05284 0.46476 0.78729
 C472 C -0.13826 0.49998 0.88043
 C473 C -0.04065 0.53108 0.79797
 C474 C -0.06819 0.53169 0.82326
 C475 C -0.11570 0.49942 0.85744
 C476 C -0.03317 0.49794 0.77857
 H477 H -0.09513 0.43970 0.81878
 H478 H -0.04651 0.43787 0.77533
 H479 H -0.02494 0.55660 0.79354
 H480 H -0.07349 0.55760 0.83752
 C481 C 0.32405 0.00340 0.40370
 C482 C 0.29476 -0.02174 0.40617
 C483 C 0.27207 -0.02143 0.43571
 C484 C 0.37198 -0.00065 0.35202
 C485 C 0.30711 0.03032 0.45957
 C486 C 0.32966 0.02998 0.43009
 C487 C 0.34942 0.00115 0.37498
 C488 C 0.27914 0.00319 0.46399
 H489 H 0.28962 -0.04180 0.38539
 H490 H 0.24905 -0.04043 0.43594
 H491 H 0.31223 0.05110 0.47975
 H492 H 0.35190 0.05006 0.42819
 C493 C 0.08803 0.49653 0.82749
 C494 C 0.07992 0.52996 0.80988
 C495 C 0.05214 0.53056 0.78538
 C496 C 0.13824 0.49620 0.87618
 C497 C 0.04036 0.46418 0.79625
 C498 C 0.06813 0.46369 0.82071
 C499 C 0.11560 0.49634 0.85375
 C500 C 0.03248 0.49731 0.77723
 H501 H 0.09455 0.55583 0.81564
 H502 H 0.04557 0.55744 0.77372
 H503 H 0.02469 0.43859 0.79228
 H504 H 0.07365 0.43782 0.83476
 C505 C 0.66576 -0.00157 0.41483
 C506 C 0.67128 -0.03428 0.43447
 C507 C 0.69570 -0.03390 0.46212
 C508 C 0.61896 -0.00163 0.36294
 C509 C 0.70861 0.03218 0.45106
 C510 C 0.68417 0.03172 0.42344
 C511 C 0.64041 -0.00176 0.38649
 C512 C 0.71607 -0.00110 0.47009
 H513 H 0.65653 -0.06003 0.42858
 H514 H 0.69897 -0.05946 0.47728
 H515 H 0.72102 0.05895 0.45769
 H516 H 0.67932 0.05753 0.40905
 C517 C 0.91487 0.50277 0.17133
 C518 C 0.92296 0.46951 0.18920
 C519 C 0.95070 0.46914 0.21371
 C520 C 0.86416 0.50229 0.12314
 C521 C 0.96267 0.53535 0.20223
 C522 C 0.93490 0.53563 0.17774
 C523 C 0.88708 0.50266 0.14531
 C524 C 0.97034 0.50246 0.22167
 H525 H 0.90825 0.44362 0.18371
 H526 H 0.95717 0.44236 0.22563
 H527 H 0.97837 0.56095 0.20601
 H528 H 0.92942 0.56135 0.16344
 C529 C 0.32285 -0.00211 0.59164
 C530 C 0.33762 -0.01195 0.55919
 C531 C 0.31642 -0.01062 0.52931
 C532 C 0.36703 -0.00035 0.64547
 C533 C 0.26485 0.00881 0.56440
 C534 C 0.28621 0.00756 0.59436
 C535 C 0.34597 -0.00132 0.62164
 C536 C 0.28008 0.00202 0.53091
 H537 H 0.36571 -0.02058 0.55692
 H538 H 0.32885 -0.01988 0.50510
 H539 H 0.23648 0.01604 0.56724
 H540 H 0.27422 0.01441 0.61952
   
