data_POSCAR
  _audit_creation_date              2014-09-24
  _audit_creation_method            'ToBaCCo'
  _symmetry_space_group_name_H-M    'P1'
  _symmetry_Int_Tables_number       1
  _symmetry_cell_setting            triclinic
  loop_
  _symmetry_equiv_pos_as_xyz
 x,y,z
_cell_length_a 46.5511
_cell_length_b 43.7863
_cell_length_c 43.6509
_cell_angle_alpha 89.868000
_cell_angle_beta 90.200600
_cell_angle_gamma 90.135400
loop_
  _atom_site_label
  _atom_site_type_symbol
  _atom_site_fract_x
  _atom_site_fract_y
  _atom_site_fract_z
C1 C 0.28931 0.29686 0.23797
 H2 H 0.28854 0.29951 0.26259
 C3 C 0.30773 0.31517 0.22063
 H4 H 0.32066 0.33226 0.23213
 C5 C 0.27301 0.27151 0.19328
 H6 H 0.25995 0.25399 0.18277
 C7 C 0.29129 0.28914 0.17508
 H8 H 0.29199 0.28491 0.15067
 N9 N 0.27205 0.27593 0.22410
 C10 C 0.20516 0.26191 0.29258
 H11 H 0.20578 0.23727 0.29434
 C12 C 0.18605 0.27850 0.31058
 H13 H 0.17188 0.26644 0.32609
 C14 C 0.22242 0.30741 0.26952
 H15 H 0.23629 0.31856 0.25315
 C16 C 0.20352 0.32490 0.28697
 H17 H 0.20351 0.34949 0.28432
 Zn18 Zn 0.24802 0.25178 0.24944
 N19 N 0.22317 0.27653 0.27292
 C20 C 0.27243 0.23253 0.30620
 N21 N 0.27236 0.22857 0.27530
 C22 C 0.29052 0.20852 0.26170
 C23 C 0.30908 0.19068 0.27939
 C24 C 0.29079 0.21531 0.32476
 C25 C 0.20679 0.23896 0.20450
 C26 C 0.18841 0.22106 0.18664
 C27 C 0.20552 0.17636 0.21355
 C28 C 0.22381 0.19510 0.23065
 N29 N 0.22436 0.22576 0.22562
 H30 H 0.25851 0.24928 0.31652
 H31 H 0.29031 0.20616 0.23704
 H32 H 0.32276 0.17427 0.26809
 H33 H 0.29074 0.21908 0.34926
 H34 H 0.20725 0.26347 0.20137
 H35 H 0.17524 0.23204 0.16938
 H36 H 0.20509 0.15210 0.21835
 H37 H 0.23715 0.18513 0.24831
 C38 C 0.18514 0.31045 0.30798
 C39 C 0.30888 0.31150 0.18867
 C40 C 0.18756 0.18925 0.19104
 C41 C 0.30935 0.19388 0.31142
 C42 C 0.79312 0.79451 0.24034
 H43 H 0.79261 0.79657 0.26503
 C44 C 0.81231 0.81219 0.22333
 H45 H 0.82675 0.82709 0.23576
 C46 C 0.77585 0.77067 0.19533
 H47 H 0.76180 0.75424 0.18449
 C48 C 0.79488 0.78765 0.17739
 H49 H 0.79389 0.78454 0.15285
 N50 N 0.77505 0.77463 0.22616
 C51 C 0.70641 0.76371 0.29322
 H52 H 0.70604 0.73910 0.29550
 C53 C 0.68778 0.78152 0.31066
 H54 H 0.67350 0.77036 0.32670
 C55 C 0.72594 0.80794 0.26982
 H56 H 0.74043 0.81814 0.25345
 C57 C 0.70754 0.82661 0.28661
 H58 H 0.70816 0.85105 0.28289
 Zn59 Zn 0.75006 0.75129 0.25114
 N60 N 0.72538 0.77711 0.27375
 C61 C 0.77185 0.73034 0.30866
 N62 N 0.77355 0.72779 0.27766
 C63 C 0.79313 0.70910 0.26434
 C64 C 0.81164 0.69152 0.28235
 C65 C 0.78984 0.71302 0.32755
 C66 C 0.70872 0.73911 0.20618
 C67 C 0.69064 0.72146 0.18775
 C68 C 0.70861 0.67623 0.21307
 C69 C 0.72655 0.69476 0.23084
 N70 N 0.72650 0.72557 0.22688
 H71 H 0.75679 0.74599 0.31887
 H72 H 0.79429 0.70783 0.23963
 H73 H 0.82680 0.67643 0.27132
 H74 H 0.78831 0.71545 0.35217
 H75 H 0.70882 0.76371 0.20381
 H76 H 0.67726 0.73273 0.17086
 H77 H 0.70868 0.65180 0.21694
 H78 H 0.74022 0.68448 0.24802
 C79 C 0.68826 0.81348 0.30760
 C80 C 0.81356 0.80915 0.19114
 C81 C 0.69040 0.68951 0.19103
 C82 C 0.81005 0.69327 0.31440
 C83 C 0.79562 0.28913 0.74211
 H84 H 0.79758 0.28822 0.76680
 C85 C 0.81507 0.30645 0.72500
 H86 H 0.83209 0.31860 0.73677
 C87 C 0.77169 0.27326 0.69689
 H88 H 0.75506 0.25997 0.68590
 C89 C 0.79051 0.29043 0.67891
 H90 H 0.78757 0.29066 0.65430
 N91 N 0.77430 0.27321 0.72793
 C92 C 0.70400 0.26177 0.79273
 H93 H 0.70091 0.23731 0.79136
 C94 C 0.68560 0.27941 0.81060
 H95 H 0.66818 0.26828 0.82265
 C96 C 0.72992 0.30589 0.77763
 H97 H 0.74706 0.31618 0.76455
 C98 C 0.71216 0.32437 0.79539
 H99 H 0.71629 0.34869 0.79618
 Zn100 Zn 0.74937 0.24958 0.75281
 N101 N 0.72576 0.27514 0.77688
 C102 C 0.76957 0.22455 0.80908
 N103 N 0.77265 0.22475 0.77820
 C104 C 0.79324 0.20782 0.76445
 C105 C 0.81155 0.18939 0.78178
 C106 C 0.78729 0.20636 0.82741
 C107 C 0.70562 0.23881 0.70964
 C108 C 0.68728 0.22148 0.69116
 C109 C 0.70821 0.17569 0.71253
 C110 C 0.72631 0.19389 0.73040
 N111 N 0.72499 0.22485 0.72836
 H112 H 0.75317 0.23834 0.81966
 H113 H 0.79563 0.20894 0.73982
 H114 H 0.82826 0.17779 0.76935
 H115 H 0.78256 0.20614 0.85159
 H116 H 0.70467 0.26348 0.70885
 H117 H 0.67262 0.23311 0.67580
 H118 H 0.70942 0.15110 0.71482
 H119 H 0.74125 0.18319 0.74604
 C120 C 0.68960 0.31119 0.81223
 C121 C 0.81261 0.30736 0.69291
 C122 C 0.68849 0.18942 0.69235
 C123 C 0.80906 0.18800 0.81417
 C124 C 0.29388 0.79292 0.73663
 H125 H 0.29471 0.79405 0.76137
 C126 C 0.31240 0.81098 0.71913
 H127 H 0.32708 0.82635 0.73069
 C128 C 0.27326 0.77179 0.69172
 H129 H 0.25829 0.75616 0.68111
 C130 C 0.29154 0.78924 0.67335
 H131 H 0.29041 0.78666 0.64872
 N132 N 0.27446 0.77424 0.72275
 C133 C 0.20473 0.76226 0.78834
 H134 H 0.20285 0.73763 0.78841
 C135 C 0.18600 0.77981 0.80591
 H136 H 0.16996 0.76849 0.81983
 C137 C 0.22804 0.80688 0.77012
 H138 H 0.24402 0.81743 0.75569
 C139 C 0.20985 0.82528 0.78744
 H140 H 0.21215 0.84987 0.78619
 Zn141 Zn 0.24987 0.75049 0.74783
 N142 N 0.22550 0.77593 0.77125
 C143 C 0.26975 0.72609 0.80462
 N144 N 0.27334 0.72625 0.77371
 C145 C 0.29442 0.70958 0.76030
 C146 C 0.31262 0.69139 0.77807
 C147 C 0.28732 0.70802 0.82324
 C148 C 0.20588 0.73941 0.70557
 C149 C 0.18729 0.72217 0.68732
 C150 C 0.21023 0.67634 0.70613
 C151 C 0.22830 0.69445 0.72414
 N152 N 0.22601 0.72540 0.72331
 H153 H 0.25322 0.73985 0.81496
 H154 H 0.29710 0.71050 0.73571
 H155 H 0.32949 0.67865 0.76689
 H156 H 0.28359 0.70769 0.84770
 H157 H 0.20436 0.76406 0.70560
 H158 H 0.17167 0.73375 0.67301
 H159 H 0.21222 0.65172 0.70722
 H160 H 0.24401 0.68371 0.73886
 C161 C 0.18859 0.81177 0.80576
 C162 C 0.31131 0.80939 0.68699
 C163 C 0.18940 0.69019 0.68737
 C164 C 0.30912 0.69028 0.81002
 Si165 Si 0.00060 -0.00195 -0.00063
 Si166 Si -0.00149 0.49846 0.50056
 Si167 Si 0.49985 0.00188 0.49854
 Si168 Si 0.49980 0.50117 0.00003
 C169 C 0.13283 -0.13255 -0.13906
 C170 C 0.12179 -0.15762 -0.15542
 C171 C 0.13986 -0.17573 -0.17328
 C172 C 0.16933 -0.16907 -0.17532
 C173 C 0.18036 -0.14396 -0.15908
 C174 C 0.16234 -0.12595 -0.14110
 C175 C 0.11379 -0.11346 -0.11985
 N176 N 0.12487 -0.09103 -0.10188
 N177 N 0.10785 -0.07401 -0.08443
 C178 C 0.07899 -0.07863 -0.08424
 N179 N 0.06788 -0.10101 -0.10227
 N180 N 0.08492 -0.11808 -0.11968
 C181 C 0.06013 -0.05986 -0.06453
 C182 C 0.03007 -0.06274 -0.06625
 C183 C 0.01242 -0.04526 -0.04734
 C184 C 0.02441 -0.02487 -0.02610
 C185 C 0.05434 -0.02153 -0.02471
 C186 C 0.07203 -0.03887 -0.04368
 H187 H 0.09918 -0.16336 -0.15438
 H188 H 0.13071 -0.19474 -0.18581
 H189 H 0.20304 -0.13849 -0.15992
 H190 H 0.17160 -0.10685 -0.12880
 H191 H 0.02014 -0.07844 -0.08224
 H192 H -0.01068 -0.04768 -0.04928
 H193 H 0.06425 -0.00552 -0.00910
 H194 H 0.09507 -0.03589 -0.04186
 C195 C 0.12719 0.36302 0.36368
 C196 C 0.14256 0.33839 0.37629
 C197 C 0.16126 0.32130 0.35819
 C198 C 0.16514 0.32853 0.32710
 C199 C 0.14980 0.35314 0.31445
 C200 C 0.13098 0.37015 0.33251
 C201 C 0.10755 0.38132 0.38298
 N202 N 0.09106 0.40370 0.37047
 N203 N 0.07372 0.42040 0.38790
 C204 C 0.07214 0.41547 0.41858
 N205 N 0.08858 0.39305 0.43107
 N206 N 0.10588 0.37631 0.41365
 C207 C 0.05342 0.43460 0.43810
 C208 C 0.05417 0.43168 0.47019
 C209 C 0.03737 0.45057 0.48859
 C210 C 0.01962 0.47278 0.47533
 C211 C 0.01808 0.47517 0.44335
 C212 C 0.03495 0.45638 0.42489
 H213 H 0.14021 0.33226 0.40019
 H214 H 0.17304 0.30268 0.36865
 H215 H 0.15210 0.35903 0.29048
 H216 H 0.11949 0.38896 0.32203
 H217 H 0.06802 0.41507 0.48117
 H218 H 0.03855 0.44815 0.51327
 H219 H 0.00406 0.49161 0.43248
 H220 H 0.03358 0.45904 0.40026
 C221 C 0.63232 -0.13031 0.36234
 C222 C 0.66029 -0.12049 0.35525
 C223 C 0.67839 -0.13868 0.33752
 C224 C 0.66888 -0.16703 0.32622
 C225 C 0.64079 -0.17669 0.33308
 C226 C 0.62278 -0.15862 0.35102
 C227 C 0.61329 -0.11128 0.38159
 N228 N 0.58846 -0.12289 0.39306
 N229 N 0.57146 -0.10591 0.41058
 C230 C 0.57850 -0.07655 0.41730
 N231 N 0.60329 -0.06490 0.40576
 N232 N 0.62035 -0.08192 0.38833
 C233 C 0.55958 -0.05772 0.43687
 C234 C 0.56398 -0.02603 0.43947
 C235 C 0.54596 -0.00836 0.45782
 C236 C 0.52335 -0.02202 0.47397
 C237 C 0.51910 -0.05362 0.47178
 C238 C 0.53692 -0.07130 0.45325
 H239 H 0.66839 -0.09891 0.36376
 H240 H 0.70002 -0.13074 0.33311
 H241 H 0.63257 -0.19812 0.32432
 H242 H 0.60129 -0.16677 0.35584
 H243 H 0.58121 -0.01483 0.42718
 H244 H 0.54967 0.01602 0.45940
 H245 H 0.50204 -0.06481 0.48427
 H246 H 0.53305 -0.09565 0.45196
 C247 C 0.63383 0.36704 -0.13244
 C248 C 0.64432 0.37792 -0.16059
 C249 C 0.66226 0.35980 -0.17856
 C250 C 0.67037 0.33044 -0.16872
 C251 C 0.65996 0.31963 -0.14048
 C252 C 0.64182 0.33765 -0.12263
 C253 C 0.61468 0.38619 -0.11344
 N254 N 0.60038 0.37401 -0.08923
 N255 N 0.58310 0.39119 -0.07221
 C256 C 0.57947 0.42131 -0.07859
 N257 N 0.59382 0.43351 -0.10276
 N258 N 0.61101 0.41630 -0.11985
 C259 C 0.56025 0.44042 -0.05963
 C260 C 0.56053 0.47243 -0.06250
 C261 C 0.54244 0.49039 -0.04454
 C262 C 0.52342 0.47672 -0.02382
 C263 C 0.52318 0.44487 -0.02067
 C264 C 0.54145 0.42687 -0.03839
 H265 H 0.63842 0.40036 -0.16894
 H266 H 0.66945 0.36867 -0.20041
 H267 H 0.66615 0.29737 -0.13192
 H268 H 0.63430 0.32864 -0.10097
 H269 H 0.57489 0.48364 -0.07844
 H270 H 0.54319 0.51501 -0.04694
 H271 H 0.50909 0.43378 -0.00442
 H272 H 0.54072 0.40231 -0.03553
 C273 C -0.13592 0.13259 -0.13191
 C274 C -0.13865 0.12772 -0.16349
 C275 C -0.15689 0.14585 -0.18130
 C276 C -0.17315 0.16993 -0.16827
 C277 C -0.17005 0.17441 -0.13620
 C278 C -0.15189 0.15607 -0.11849
 C279 C -0.11647 0.11333 -0.11313
 N280 N -0.11652 0.11525 -0.08207
 N281 N -0.09902 0.09795 -0.06522
 C282 C -0.08065 0.07806 -0.07871
 N283 N -0.08058 0.07617 -0.10977
 N284 N -0.09814 0.09340 -0.12661
 C285 C -0.06110 0.05886 -0.05999
 C286 C -0.03951 0.04142 -0.07398
 C287 C -0.02103 0.02339 -0.05633
 C288 C -0.02395 0.02213 -0.02439
 C289 C -0.04532 0.03967 -0.01034
 C290 C -0.06371 0.05787 -0.02793
 H291 H -0.12696 0.10948 -0.17455
 H292 H -0.15883 0.13945 -0.20508
 H293 H -0.18032 0.19295 -0.12429
 H294 H -0.15003 0.16071 -0.09421
 H295 H -0.03668 0.04187 -0.09859
 H296 H -0.00434 0.01077 -0.06784
 H297 H -0.04773 0.03962 0.01425
 H298 H -0.08000 0.07110 -0.01636
 C299 C -0.13399 0.63856 0.37098
 C300 C -0.16319 0.64189 0.37842
 C301 C -0.18127 0.65980 0.36019
 C302 C -0.17063 0.67464 0.33400
 C303 C -0.14146 0.67140 0.32657
 C304 C -0.12331 0.65364 0.34491
 C305 C -0.11489 0.61924 0.39013
 N306 N -0.08614 0.61840 0.38498
 N307 N -0.06906 0.60077 0.40198
 C308 C -0.08001 0.58317 0.42482
 N309 N -0.10875 0.58405 0.42998
 N310 N -0.12582 0.60173 0.41304
 C311 C -0.06112 0.56314 0.44343
 C312 C -0.07299 0.54210 0.46426
 C313 C -0.05527 0.52275 0.48137
 C314 C -0.02538 0.52402 0.47794
 C315 C -0.01337 0.54540 0.45775
 C316 C -0.03106 0.56465 0.44046
 H317 H -0.17214 0.63061 0.39833
 H318 H -0.20373 0.66165 0.36630
 H319 H -0.13259 0.68286 0.30672
 H320 H -0.10095 0.65161 0.33851
 H321 H -0.09602 0.54040 0.46726
 H322 H -0.06509 0.50692 0.49724
 H323 H 0.00972 0.54702 0.45519
 H324 H -0.02117 0.58073 0.42483
 C325 C 0.36562 0.13833 0.36708
 C326 C 0.33798 0.14590 0.37739
 C327 C 0.31977 0.16391 0.35939
 C328 C 0.32883 0.17498 0.33073
 C329 C 0.35659 0.16762 0.32057
 C330 C 0.37472 0.14943 0.33846
 C331 C 0.38480 0.11884 0.38593
 N332 N 0.40938 0.10727 0.37400
 N333 N 0.42655 0.08961 0.39084
 C334 C 0.41994 0.08284 0.42037
 N335 N 0.39539 0.09447 0.43233
 N336 N 0.37816 0.11205 0.41545
 C337 C 0.43910 0.06322 0.43908
 C338 C 0.43500 0.06036 0.47087
 C339 C 0.45330 0.04207 0.48848
 C340 C 0.47591 0.02624 0.47465
 C341 C 0.47985 0.02864 0.44293
 C342 C 0.46174 0.04711 0.42532
 H343 H 0.33022 0.13759 0.39924
 H344 H 0.29838 0.16872 0.36772
 H345 H 0.36448 0.17619 0.29888
 H346 H 0.39596 0.14424 0.32992
 H347 H 0.41780 0.07243 0.48222
 H348 H 0.44982 0.04030 0.51294
 H349 H 0.49691 0.01639 0.43162
 H350 H 0.46538 0.04860 0.40088
 C351 C 0.36409 0.63373 -0.13377
 C352 C 0.35540 0.62398 -0.16302
 C353 C 0.33751 0.64222 -0.18115
 C354 C 0.32807 0.67081 -0.17059
 C355 C 0.33688 0.68058 -0.14135
 C356 C 0.35456 0.66221 -0.12311
 C357 C 0.38307 0.61437 -0.11456
 N358 N 0.38714 0.62067 -0.08439
 N359 N 0.40429 0.60333 -0.06717
 C360 C 0.41820 0.57903 -0.07941
 N361 N 0.41415 0.57275 -0.10958
 N362 N 0.39690 0.59001 -0.12677
 C363 C 0.43758 0.55997 -0.06037
 C364 C 0.45637 0.53901 -0.07412
 C365 C 0.47506 0.52146 -0.05622
 C366 C 0.47531 0.52453 -0.02428
 C367 C 0.45607 0.54474 -0.01039
 C368 C 0.43757 0.56256 -0.02826
 H369 H 0.36218 0.60207 -0.17185
 H370 H 0.33076 0.63370 -0.20330
 H371 H 0.33046 0.70267 -0.13267
 H372 H 0.36103 0.67052 -0.10078
 H373 H 0.45683 0.53630 -0.09876
 H374 H 0.48910 0.50543 -0.06750
 H375 H 0.45552 0.54693 0.01431
 H376 H 0.42316 0.57821 -0.01690
 C377 C -0.12888 -0.13707 0.13739
 C378 C -0.13848 -0.12661 0.16593
 C379 C -0.15715 -0.14429 0.18366
 C380 C -0.16710 -0.17302 0.17331
 C381 C -0.15724 -0.18330 0.14453
 C382 C -0.13837 -0.16567 0.12699
 C383 C -0.10930 -0.11815 0.11846
 N384 N -0.09724 -0.12966 0.09267
 N385 N -0.07994 -0.11256 0.07543
 C386 C -0.07401 -0.08319 0.08320
 N387 N -0.08604 -0.07168 0.10901
 N388 N -0.10328 -0.08882 0.12630
 C389 C -0.05527 -0.06397 0.06362
 C390 C -0.05252 -0.03247 0.06908
 C391 C -0.03557 -0.01426 0.04996
 C392 C -0.02113 -0.02708 0.02499
 C393 C -0.02303 -0.05866 0.02013
 C394 C -0.04011 -0.07689 0.03907
 H395 H -0.13170 -0.10458 0.17460
 H396 H -0.16460 -0.13450 0.20491
 H397 H -0.16305 -0.20553 0.13572
 H398 H -0.13126 -0.17454 0.10517
 H399 H -0.06362 -0.02178 0.08797
 H400 H -0.03360 0.00984 0.05495
 H401 H -0.01150 -0.06951 0.00176
 H402 H -0.04139 -0.10115 0.03447
 C403 C -0.12933 0.36135 0.63792
 C404 C -0.13826 0.37173 0.66680
 C405 C -0.15700 0.35423 0.68464
 C406 C -0.16709 0.32580 0.67415
 C407 C -0.15784 0.31527 0.64542
 C408 C -0.13930 0.33288 0.62747
 C409 C -0.11006 0.38024 0.61864
 N410 N -0.10594 0.37336 0.58865
 N411 N -0.08903 0.39063 0.57115
 C412 C -0.07540 0.41545 0.58293
 N413 N -0.07939 0.42224 0.61297
 N414 N -0.09641 0.40504 0.63043
 C415 C -0.05697 0.43496 0.56334
 C416 C -0.03892 0.45723 0.57643
 C417 C -0.02197 0.47602 0.55788
 C418 C -0.02309 0.47320 0.52593
 C419 C -0.04072 0.45078 0.51278
 C420 C -0.05748 0.43178 0.53128
 H421 H -0.13113 0.39363 0.67546
 H422 H -0.16401 0.36327 0.70642
 H423 H -0.16472 0.29324 0.63686
 H424 H -0.13266 0.32408 0.60545
 H425 H -0.03780 0.46009 0.60103
 H426 H -0.00817 0.49276 0.56865
 H427 H -0.04168 0.44813 0.48813
 H428 H -0.07112 0.41488 0.52043
 C429 C 0.36705 -0.13446 0.63141
 C430 C 0.37690 -0.14682 0.65927
 C431 C 0.35893 -0.16515 0.67718
 C432 C 0.33058 -0.17135 0.66781
 C433 C 0.32073 -0.15889 0.63998
 C434 C 0.33878 -0.14079 0.62194
 C435 C 0.38609 -0.11503 0.61241
 N436 N 0.37873 -0.10765 0.58318
 N437 N 0.39584 -0.09016 0.56611
 C438 C 0.42098 -0.07919 0.57759
 N439 N 0.42831 -0.08654 0.60684
 N440 N 0.41126 -0.10414 0.62386
 C441 C 0.43997 -0.05964 0.55866
 C442 C 0.46297 -0.04363 0.57215
 C443 C 0.48085 -0.02512 0.55433
 C444 C 0.47631 -0.02262 0.52268
 C445 C 0.45339 -0.03842 0.50912
 C446 C 0.43531 -0.05672 0.52694
 H447 H 0.39863 -0.14259 0.66714
 H448 H 0.36740 -0.17478 0.69820
 H449 H 0.29888 -0.16273 0.63230
 H450 H 0.33042 -0.13145 0.60072
 H451 H 0.46705 -0.04518 0.59653
 H452 H 0.49818 -0.01291 0.56544
 H453 H 0.44946 -0.03660 0.48471
 H454 H 0.41782 -0.06874 0.51580
 C455 C 0.36523 0.36745 0.13357
 C456 C 0.37373 0.35771 0.16292
 C457 C 0.35556 0.33948 0.18070
 C458 C 0.32833 0.33075 0.16968
 C459 C 0.31982 0.34062 0.14035
 C460 C 0.33809 0.35863 0.12246
 C461 C 0.38455 0.38667 0.11463
 N462 N 0.37894 0.39138 0.08443
 N463 N 0.39632 0.40857 0.06739
 C464 C 0.41999 0.42191 0.07983
 N465 N 0.42558 0.41726 0.11005
 N466 N 0.40826 0.39996 0.12707
 C467 C 0.43931 0.44106 0.06084
 C468 C 0.46048 0.45952 0.07458
 C469 C 0.47860 0.47766 0.05662
 C470 C 0.47614 0.47730 0.02463
 C471 C 0.45504 0.45905 0.01082
 C472 C 0.43673 0.44113 0.02873
 H473 H 0.39459 0.36390 0.17209
 H474 H 0.36305 0.33187 0.20294
 H475 H 0.29882 0.33480 0.13132
 H476 H 0.33078 0.36591 0.10004
 H477 H 0.46290 0.46020 0.09925
 H478 H 0.49441 0.49190 0.06787
 H479 H 0.45273 0.45865 -0.01388
 H480 H 0.42070 0.42718 0.01737
 C481 C 0.13095 0.13268 0.13673
 C482 C 0.15804 0.12188 0.14594
 C483 C 0.17641 0.14023 0.16342
 C484 C 0.16800 0.16970 0.17242
 C485 C 0.14075 0.18035 0.16340
 C486 C 0.12253 0.16213 0.14562
 C487 C 0.11169 0.11342 0.11778
 N488 N 0.08911 0.12591 0.10250
 N489 N 0.07200 0.10867 0.08514
 C490 C 0.07664 0.07817 0.08249
 N491 N 0.09914 0.06566 0.09790
 N492 N 0.11635 0.08293 0.11511
 C493 C 0.05784 0.05905 0.06291
 C494 C 0.05811 0.02705 0.06567
 C495 C 0.04065 0.00903 0.04687
 C496 C 0.02296 0.02262 0.02470
 C497 C 0.02250 0.05450 0.02190
 C498 C 0.03967 0.07259 0.04096
 H499 H 0.16527 0.09938 0.13926
 H500 H 0.19740 0.13145 0.16945
 H501 H 0.13328 0.20266 0.17039
 H502 H 0.10169 0.17103 0.13912
 H503 H 0.07173 0.01592 0.08244
 H504 H 0.04117 -0.01557 0.04939
 H505 H 0.00916 0.06553 0.00486
 H506 H 0.03906 0.09715 0.03815
 C507 C 0.13313 0.63544 0.63115
 C508 C 0.16251 0.62843 0.63362
 C509 C 0.18072 0.64615 0.65189
 C510 C 0.17001 0.67138 0.66801
 C511 C 0.14068 0.67850 0.66549
 C512 C 0.12242 0.66069 0.64733
 C513 C 0.11381 0.61646 0.61190
 N514 N 0.08500 0.62139 0.61150
 N515 N 0.06768 0.60414 0.59436
 C516 C 0.07844 0.58128 0.57685
 N517 N 0.10724 0.57642 0.57721
 N518 N 0.12455 0.59362 0.59438
 C519 C 0.05922 0.56181 0.55800
 C520 C 0.07076 0.53976 0.53820
 C521 C 0.05275 0.52097 0.52083
 C522 C 0.02285 0.52362 0.52315
 C523 C 0.01119 0.54594 0.54236
 C524 C 0.02918 0.56485 0.55970
 H525 H 0.17151 0.60918 0.62147
 H526 H 0.20329 0.64033 0.65311
 H527 H 0.13176 0.69762 0.67792
 H528 H 0.09991 0.66674 0.64598
 H529 H 0.09377 0.53697 0.53605
 H530 H 0.06237 0.50445 0.50568
 H531 H -0.01188 0.54859 0.54412
 H532 H 0.01953 0.58166 0.57460
 C533 C 0.63309 0.13424 0.63529
 C534 C 0.62312 0.16175 0.64786
 C535 C 0.64100 0.17956 0.66646
 C536 C 0.66936 0.17041 0.67271
 C537 C 0.67934 0.14294 0.65999
 C538 C 0.66139 0.12501 0.64163
 C539 C 0.61411 0.11531 0.61565
 N540 N 0.62150 0.08628 0.60817
 N541 N 0.60442 0.06927 0.59055
 C542 C 0.57928 0.08062 0.57954
 N543 N 0.57193 0.10967 0.58697
 N544 N 0.58895 0.12663 0.60469
 C545 C 0.56027 0.06176 0.55988
 C546 C 0.53731 0.07520 0.54379
 C547 C 0.51933 0.05746 0.52529
 C548 C 0.52369 0.02591 0.52288
 C549 C 0.54662 0.01239 0.53871
 C550 C 0.56481 0.03014 0.55701
 H551 H 0.60137 0.16943 0.64362
 H552 H 0.63242 0.20029 0.67627
 H553 H 0.70120 0.13545 0.66386
 H554 H 0.66982 0.10406 0.63212
 H555 H 0.53333 0.09950 0.54530
 H556 H 0.50203 0.06854 0.51305
 H557 H 0.55042 -0.01193 0.53695
 H558 H 0.58227 0.01905 0.56908
 C559 C 0.63487 0.63386 0.13450
 C560 C 0.62579 0.66263 0.14481
 C561 C 0.64367 0.68052 0.16329
 C562 C 0.67121 0.67024 0.17168
 C563 C 0.68028 0.64145 0.16131
 C564 C 0.66228 0.62342 0.14306
 C565 C 0.61586 0.61492 0.11489
 N566 N 0.62173 0.58497 0.10990
 N567 N 0.60455 0.56797 0.09237
 C568 C 0.58085 0.58024 0.07895
 N569 N 0.57503 0.61021 0.08388
 N570 N 0.59213 0.62717 0.10152
 C571 C 0.56163 0.56135 0.05954
 C572 C 0.54068 0.57517 0.04086
 C573 C 0.52233 0.55740 0.02278
 C574 C 0.52424 0.52547 0.02346
 C575 C 0.54535 0.51158 0.04168
 C576 C 0.56392 0.52933 0.05955
 H577 H 0.60471 0.67126 0.13887
 H578 H 0.63573 0.70229 0.17132
 H579 H 0.70150 0.63299 0.16688
 H580 H 0.67001 0.60145 0.13534
 H581 H 0.53856 0.59978 0.04001
 H582 H 0.50678 0.56878 0.00835
 H583 H 0.54737 0.48695 0.04220
 H584 H 0.57984 0.51793 0.07362
   
