data_POSCAR
  _audit_creation_date              2014-09-24
  _audit_creation_method            'ToBaCCo'
  _symmetry_space_group_name_H-M    'P1'
  _symmetry_Int_Tables_number       1
  _symmetry_cell_setting            triclinic
  loop_
  _symmetry_equiv_pos_as_xyz
 x,y,z
_cell_length_a 24.3113
_cell_length_b 24.3126
_cell_length_c 24.8767
_cell_angle_alpha 90.798400
_cell_angle_beta 90.559900
_cell_angle_gamma 89.491900
loop_
  _atom_site_label
  _atom_site_type_symbol
  _atom_site_fract_x
  _atom_site_fract_y
  _atom_site_fract_z
C1 C 0.18519 0.18037 0.24441
 N2 N 0.16077 0.22600 0.22415
 C3 C 0.18107 0.25010 0.17966
 N4 N 0.22489 0.22691 0.15395
 C5 C 0.24922 0.18085 0.17371
 N6 N 0.22841 0.15755 0.21820
 C7 C -0.21156 0.79570 0.29609
 N8 N -0.18545 0.75206 0.27232
 C9 C -0.20656 0.72763 0.22729
 N10 N -0.25259 0.74956 0.20425
 C11 C -0.27945 0.79302 0.22744
 N12 N -0.25789 0.81628 0.27276
 C13 C -0.20366 0.20073 -0.25898
 N14 N -0.24512 0.17694 -0.23216
 C15 C -0.26683 0.20107 -0.18755
 N16 N -0.24510 0.24898 -0.16855
 C17 C -0.20392 0.27375 -0.19560
 N18 N -0.18261 0.24856 -0.23985
 C19 C 0.20875 0.81375 -0.26719
 N20 N 0.17965 0.77431 -0.24250
 C21 C 0.20020 0.74821 -0.19876
 N22 N 0.24964 0.76397 -0.17783
 C23 C 0.27969 0.80325 -0.20255
 N24 N 0.25840 0.82827 -0.24663
 C25 C 0.17330 1.18233 0.76450
 N26 N 0.21598 1.15681 0.78984
 C27 C 0.23784 1.17748 0.83628
 N28 N 0.21603 1.22427 0.85820
 C29 C 0.17316 1.25049 0.83347
 N30 N 0.15242 1.22931 0.78652
 C31 C 0.78810 0.80464 0.70058
 N32 N 0.81109 0.76109 0.72651
 C33 C 0.78614 0.73868 0.76950
 N34 N 0.73873 0.76146 0.78769
 C35 C 0.71491 0.80506 0.76281
 N36 N 0.74071 0.82752 0.72013
 C37 C 0.21238 0.79567 1.27055
 N38 N 0.18469 0.75703 1.24154
 C39 C 0.20452 0.73652 1.19448
 N40 N 0.25288 0.75599 1.17589
 C41 C 0.28148 0.79477 1.20436
 N42 N 0.26033 0.81528 1.25102
 C43 C 0.83629 1.19678 1.24892
 N44 N 0.79348 1.17076 1.22444
 C45 C 0.76620 1.19343 1.18236
 N46 N 0.78313 1.24242 1.16322
 C47 C 0.82692 1.26885 1.18606
 N48 N 0.85348 1.24559 1.22902
 O49 O 0.55168 0.97279 0.88655
 O50 O 0.45502 0.96405 1.11431
 O51 O 0.60208 0.91799 1.04835
 O52 O 0.44880 0.90933 0.95493
 O53 O 0.55771 0.96070 1.11357
 O54 O 0.45129 0.96800 0.89322
 O55 O 0.44767 0.90735 1.05007
 O56 O 0.58489 0.91735 0.94627
 C57 C 0.57711 0.92899 0.89826
 C58 C 0.44082 0.91743 1.09802
 C59 C 0.59049 0.92350 1.09700
 C60 C 0.43962 0.92039 0.90760
 O61 O 0.45103 1.06945 0.94274
 O62 O 0.56028 1.06624 1.09026
 O63 O 0.61671 1.02144 0.94560
 O64 O 0.39565 1.00835 1.05235
 O65 O 0.45715 1.06707 1.07755
 O66 O 0.54847 1.07537 0.93023
 O67 O 0.39226 1.00752 0.95679
 O68 O 0.62425 1.02257 1.04507
 Co69 Co 0.50102 1.01866 0.92088
 Co70 Co 0.50723 1.01245 1.08952
 Co71 Co 0.59717 0.97179 0.99654
 Co72 Co 0.42808 0.96083 1.00351
 O73 O 0.50900 0.99218 1.00307
 C74 C 0.40231 1.05568 0.94331
 C75 C 0.60957 1.06012 1.07748
 C76 C 0.59863 1.06667 0.92943
 C77 C 0.40786 1.05489 1.07161
 O78 O 0.05685 0.45411 0.07272
 O79 O 0.05327 0.56278 -0.10441
 O80 O 0.06342 0.43727 -0.02209
 O81 O 0.02748 0.62754 0.04607
 O82 O 0.04040 0.45942 -0.10163
 O83 O 0.07273 0.55426 0.06931
 O84 O 0.02152 0.63190 -0.05381
 O85 O 0.00953 0.38365 0.04070
 C86 C 0.04588 0.40278 0.07549
 C87 C 0.05445 0.61262 -0.08932
 C88 C 0.07009 0.43146 -0.07121
 C89 C 0.06978 0.60533 0.06646
 O90 O -0.02668 0.57425 0.10850
 O91 O -0.06789 0.47558 -0.10135
 O92 O -0.07752 0.44094 0.02718
 O93 O -0.08801 0.60966 -0.04651
 O94 O -0.04953 0.57491 -0.11568
 O95 O -0.04804 0.47459 0.10076
 O96 O -0.08142 0.59771 0.04653
 O97 O -0.03481 0.40828 -0.05544
 Co98 Co 0.01086 0.51535 0.07859
 Co99 Co -0.00619 0.51800 -0.09604
 Co100 Co -0.00745 0.44390 0.00343
 Co101 Co -0.02809 0.60925 -0.00184
 O102 O -0.01016 0.52470 -0.00778
 C103 C -0.07107 0.59600 0.09489
 C104 C -0.06835 0.42581 -0.08966
 C105 C -0.08153 0.44396 0.07665
 C106 C -0.08599 0.60433 -0.09586
 O107 O 1.10414 0.06399 0.44857
 O108 O 0.92912 0.07286 0.55689
 O109 O 0.95877 0.02515 0.39120
 O110 O 1.02532 0.07490 0.58189
 O111 O 0.93575 0.08171 0.45539
 O112 O 1.10689 0.05838 0.55287
 O113 O 0.95512 0.02684 0.62974
 O114 O 1.05688 0.01680 0.38745
 C115 C 1.08845 0.05642 0.40069
 C116 C 0.92228 0.06364 0.60729
 C117 C 0.94085 0.07177 0.40610
 C118 C 1.07569 0.08322 0.58489
 O119 O 1.11292 -0.04827 0.54407
 O120 O 0.89273 -0.01852 0.44373
 O121 O 1.05003 -0.08763 0.42816
 O122 O 0.96703 -0.06387 0.57857
 O123 O 0.89557 -0.03056 0.54158
 O124 O 1.12097 -0.03984 0.44347
 O125 O 1.05603 -0.02371 0.60844
 O126 O 0.95532 -0.07785 0.43889
 Co127 Co 1.10134 0.00825 0.49731
 Co128 Co 0.92233 0.02398 0.49904
 Co129 Co 1.00496 -0.02873 0.41748
 Co130 Co 0.99582 0.00541 0.57398
 O131 O 1.01057 0.00049 0.49489
 C132 C 1.09704 -0.05113 0.59193
 C133 C 0.90663 -0.06652 0.43182
 C134 C 1.10016 -0.08230 0.42413
 C135 C 0.91700 -0.06701 0.56994
 C136 C 1.15967 0.15023 0.28570
 C137 C 1.11854 0.10825 0.26254
 C138 C 1.09400 0.07732 0.30034
 C139 C 1.11294 0.09106 0.35810
 C140 C 1.17583 0.08505 0.35723
 C141 C 1.20037 0.11619 0.31973
 C142 C 1.12657 0.18431 0.32709
 C143 C 1.10199 0.15312 0.36503
 H144 H 1.10902 0.10367 0.21996
 H145 H 1.06349 0.04654 0.28988
 H146 H 1.19921 0.05880 0.38424
 H147 H 1.24474 0.11679 0.31522
 H148 H 1.12293 0.22884 0.32687
 H149 H 1.07720 0.17093 0.39700
 C150 C 0.81733 -0.17048 0.33402
 C151 C 0.78231 -0.14450 0.37939
 C152 C 0.81110 -0.10982 0.41292
 C153 C 0.87197 -0.10458 0.39793
 C154 C 0.89399 -0.16431 0.39681
 C155 C 0.86550 -0.19869 0.36350
 C156 C 0.84303 -0.12125 0.30574
 C157 C 0.87116 -0.08685 0.33906
 H158 H 0.73895 -0.15285 0.38485
 H159 H 0.79239 -0.08842 0.44675
 H160 H 0.92807 -0.17885 0.42147
 H161 H 0.87547 -0.24221 0.36002
 H162 H 0.83854 -0.11343 0.26301
 H163 H 0.89003 -0.04952 0.32483
 C164 C 0.82918 0.16596 0.70271
 C165 C 0.87258 0.19618 0.66983
 C166 C 0.90342 0.16210 0.63804
 C167 C 0.88798 0.10111 0.64192
 C168 C 0.89232 0.08824 0.70219
 C169 C 0.86177 0.12215 0.73373
 C170 C 0.79517 0.13348 0.66086
 C171 C 0.82605 0.09935 0.62904
 H172 H 0.87832 0.24040 0.67097
 H173 H 0.93568 0.17717 0.61237
 H174 H 0.91705 0.05529 0.71914
 H175 H 0.86077 0.11805 0.77714
 H176 H 0.75078 0.13683 0.65676
 H177 H 0.80796 0.07318 0.59807
 C178 C 1.18155 -0.15188 0.69498
 C179 C 1.14971 -0.18294 0.65048
 C180 C 1.12146 -0.14927 0.61645
 C181 C 1.12776 -0.08775 0.62991
 C182 C 1.11023 -0.08158 0.68891
 C183 C 1.13835 -0.11503 0.72278
 C184 C 1.21847 -0.11166 0.66470
 C185 C 1.19016 -0.07804 0.63078
 H186 H 1.14961 -0.22742 0.64589
 H187 H 1.09706 -0.16495 0.58291
 H188 H 1.07902 -0.05289 0.70324
 H189 H 1.13089 -0.11480 0.76578
 H190 H 1.26293 -0.11003 0.66880
 H191 H 1.21040 -0.04770 0.60641
 C192 C 0.29068 1.15147 1.14503
 C193 C 0.26784 1.09825 1.11973
 C194 C 0.30621 1.06666 1.09453
 C195 C 0.36442 1.09089 1.09677
 C196 C 0.35790 1.14870 1.07298
 C197 C 0.31909 1.18067 1.09824
 C198 C 0.33808 1.13281 1.18193
 C199 C 0.37620 1.10090 1.15687
 H200 H 0.22470 1.08700 1.12035
 H201 H 0.29537 1.02884 1.07348
 H202 H 0.38132 1.16300 1.03905
 H203 H 0.30973 1.22240 1.08595
 H204 H 0.34154 1.14384 1.22429
 H205 H 0.41175 1.08453 1.17810
 C206 C 0.32390 0.82980 0.82506
 C207 C 0.30302 0.88365 0.85068
 C208 C 0.34224 0.91271 0.87686
 C209 C 0.39954 0.88571 0.87598
 C210 C 0.39077 0.82746 0.89816
 C211 C 0.35116 0.79819 0.87153
 C212 C 0.37234 0.84694 0.78935
 C213 C 0.41198 0.87637 0.81617
 H214 H 0.26062 0.89805 0.84828
 H215 H 0.33274 0.95176 0.89621
 H216 H 0.41453 0.81020 0.93113
 H217 H 0.34136 0.75619 0.88188
 H218 H 0.37554 0.83624 0.74697
 H219 H 0.44889 0.89082 0.79685
 C220 C 0.68326 0.82496 1.19579
 C221 C 0.71528 0.86745 1.16382
 C222 C 0.68327 0.89992 1.13258
 C223 C 0.62164 0.88731 1.13530
 C224 C 0.61724 0.82552 1.12177
 C225 C 0.64947 0.79283 1.15339
 C226 C 0.64003 0.85914 1.22721
 C227 C 0.60777 0.89198 1.19541
 H228 H 0.75967 0.87213 1.16604
 H229 H 0.70037 0.93238 1.10843
 H230 H 0.59019 0.80889 1.09073
 H231 H 0.64979 0.74831 1.14929
 H232 H 0.63467 0.85709 1.27040
 H233 H 0.57506 0.91785 1.21146
 C234 C 0.69734 1.16934 0.84434
 C235 C 0.72875 1.12200 0.87172
 C236 C 0.69646 1.08845 0.90072
 C237 C 0.63530 1.10501 0.89987
 C238 C 0.63426 1.16526 0.91966
 C239 C 0.66681 1.19918 0.89052
 C240 C 0.65173 1.14133 0.81105
 C241 C 0.61970 1.10750 0.83995
 H242 H 0.77297 1.11586 0.86916
 H243 H 0.71330 1.05392 0.92286
 H244 H 0.61008 1.17991 0.95347
 H245 H 0.67009 1.24286 0.89945
 H246 H 0.64521 1.14738 0.76827
 H247 H 0.58642 1.08432 0.82154
 C248 C 0.14692 0.29321 0.15261
 C249 C 0.12419 0.33860 0.19030
 C250 C 0.09034 0.37541 0.16511
 C251 C 0.08273 0.36340 0.10474
 C252 C 0.14143 0.36123 0.08233
 C253 C 0.17509 0.32432 0.10723
 C254 C 0.09593 0.26724 0.12637
 C255 C 0.06229 0.30372 0.10157
 H256 H 0.13400 0.34162 0.23289
 H257 H 0.07109 0.40976 0.18617
 H258 H 0.15560 0.38724 0.05024
 H259 H 0.21795 0.31889 0.09639
 H260 H 0.08653 0.22370 0.12796
 H261 H 0.02396 0.29100 0.08266
 C262 C -0.17005 0.31694 -0.16787
 C263 C -0.13620 0.35265 -0.20579
 C264 C -0.10252 0.38882 -0.17971
 C265 C -0.10602 0.38637 -0.11820
 C266 C -0.16739 0.39485 -0.10568
 C267 C -0.20109 0.35835 -0.13176
 C268 C -0.12745 0.28977 -0.13070
 C269 C -0.09401 0.32578 -0.10479
 H270 H -0.13885 0.35014 -0.24934
 H271 H -0.07619 0.41688 -0.20094
 H272 H -0.18290 0.42676 -0.07874
 H273 H -0.24545 0.35914 -0.12731
 H274 H -0.12372 0.24562 -0.12537
 H275 H -0.06172 0.31191 -0.07764
 C276 C 0.16279 0.71100 -0.16831
 C277 C 0.19103 0.66497 -0.13617
 C278 C 0.15514 0.63286 -0.10901
 C279 C 0.09437 0.64966 -0.11658
 C280 C 0.09194 0.71072 -0.09976
 C281 C 0.12773 0.74272 -0.12688
 C282 C 0.12085 0.68109 -0.20474
 C283 C 0.08503 0.64946 -0.17771
 H284 H 0.23521 0.65823 -0.13479
 H285 H 0.16872 0.59882 -0.08425
 H286 H 0.06481 0.72746 -0.06912
 H287 H 0.13106 0.78666 -0.11932
 H288 H 0.11956 0.68409 -0.24824
 H289 H 0.05303 0.62603 -0.19813
 C290 C -0.17065 0.68918 0.19436
 C291 C -0.20210 0.65024 0.15602
 C292 C -0.16889 0.61846 0.12427
 C293 C -0.10703 0.62833 0.13338
 C294 C -0.09968 0.69047 0.12646
 C295 C -0.13287 0.72203 0.15796
 C296 C -0.13128 0.65105 0.22595
 C297 C -0.09787 0.61917 0.19394
 H298 H -0.24660 0.64705 0.15471
 H299 H -0.18516 0.58826 0.09590
 H300 H -0.06907 0.70842 0.10080
 H301 H -0.13106 0.76666 0.15825
 H302 H -0.13009 0.64897 0.26949
 H303 H -0.06824 0.59003 0.21020
 C304 C 1.14785 0.15793 0.71760
 C305 C 1.16731 0.09874 0.70509
 C306 C 1.14276 0.07582 0.66128
 C307 C 1.10070 0.11333 0.63276
 C308 C 1.06021 0.13041 0.67732
 C309 C 1.08479 0.15346 0.72159
 C310 C 1.15726 0.18930 0.66506
 C311 C 1.13272 0.16584 0.62068
 H312 H 1.19755 0.07605 0.72855
 H313 H 1.15279 0.03435 0.64800
 H314 H 1.01605 0.12487 0.67458
 H315 H 1.06136 0.16722 0.75628
 H316 H 1.18117 0.22669 0.66293
 H317 H 1.13552 0.18326 0.58088
 C318 C 0.82074 -0.16498 0.66390
 C319 C 0.84760 -0.11599 0.69295
 C320 C 0.87904 -0.08479 0.66100
 C321 C 0.88157 -0.10483 0.60221
 C322 C 0.90098 -0.16496 0.60526
 C323 C 0.86921 -0.19660 0.63746
 C324 C 0.78904 -0.13972 0.61629
 C325 C 0.82082 -0.10821 0.58407
 H326 H 0.84204 -0.10625 0.73533
 H327 H 0.89965 -0.04856 0.67655
 H328 H 0.93597 -0.18143 0.58335
 H329 H 0.87728 -0.24020 0.64261
 H330 H 0.74566 -0.14654 0.60816
 H331 H 0.80434 -0.08830 0.54855
 C332 C 1.18465 -0.17513 0.31268
 C333 C 1.13503 -0.20513 0.33676
 C334 C 1.10743 -0.17503 0.37452
 C335 C 1.13182 -0.11779 0.38519
 C336 C 1.19253 -0.12890 0.39992
 C337 C 1.22029 -0.15901 0.36187
 C338 C 1.16088 -0.12056 0.29215
 C339 C 1.13350 -0.09073 0.32987
 H340 H 1.12330 -0.24694 0.32626
 H341 H 1.07238 -0.19111 0.39576
 H342 H 1.21177 -0.11488 0.43714
 H343 H 1.26325 -0.17068 0.36668
 H344 H 1.16547 -0.10627 0.25125
 H345 H 1.11496 -0.05106 0.32103
 C346 C 0.86563 0.16842 0.29073
 C347 C 0.91059 0.19965 0.32287
 C348 C 0.93639 0.16845 0.36142
 C349 C 0.91504 0.10910 0.36420
 C350 C 0.85272 0.11554 0.37196
 C351 C 0.82707 0.14657 0.33406
 C352 C 0.89537 0.11721 0.26835
 C353 C 0.92107 0.08646 0.30629
 H354 H 0.92121 0.24226 0.31618
 H355 H 0.96887 0.18444 0.38730
 H356 H 0.83050 0.09759 0.40491
 H357 H 0.78316 0.15511 0.33513
 H358 H 0.89720 0.10659 0.22583
 H359 H 0.94478 0.04999 0.29546
 C360 C 0.14756 0.29746 -0.14141
 C361 C 0.09184 0.31376 -0.16677
 C362 C 0.06750 0.35765 -0.14266
 C363 C 0.10055 0.38264 -0.09520
 C364 C 0.11003 0.33379 -0.05748
 C365 C 0.13454 0.28934 -0.08154
 C366 C 0.18204 0.35028 -0.14250
 C367 C 0.15734 0.39486 -0.11845
 H368 H 0.07181 0.29198 -0.19983
 H369 H 0.02725 0.37229 -0.15564
 H370 H 0.09668 0.33304 -0.01615
 H371 H 0.14246 0.25138 -0.06020
 H372 H 0.22239 0.35247 -0.16063
 H373 H 0.17660 0.43493 -0.11591
 C374 C -0.15074 0.31575 0.15948
 C375 C -0.09378 0.33390 0.17997
 C376 C -0.07277 0.37672 0.15277
 C377 C -0.11005 0.39869 0.10713
 C378 C -0.12208 0.34750 0.07185
 C379 C -0.14263 0.30446 0.09905
 C380 C -0.18640 0.36870 0.16186
 C381 C -0.16493 0.41218 0.13457
 H382 H -0.07148 0.31520 0.21313
 H383 H -0.03305 0.39386 0.16351
 H384 H -0.11594 0.34523 0.02871
 H385 H -0.15287 0.26589 0.07893
 H386 H -0.22495 0.37181 0.18338
 H387 H -0.18512 0.45211 0.13270
 C388 C -0.18176 0.70023 -0.19488
 C389 C -0.15168 0.65351 -0.22482
 C390 C -0.12054 0.62101 -0.19210
 C391 C -0.12233 0.63815 -0.13211
 C392 C -0.10551 0.69879 -0.13104
 C393 C -0.13646 0.73113 -0.16374
 C394 C -0.21500 0.67115 -0.15117
 C395 C -0.18376 0.63862 -0.11833
 H396 H -0.15515 0.64613 -0.26785
 H397 H -0.09762 0.58577 -0.20752
 H398 H -0.07182 0.71494 -0.10677
 H399 H -0.12928 0.77496 -0.16721
 H400 H -0.25925 0.67503 -0.14687
 H401 H -0.20124 0.61503 -0.08605
 C402 C 0.17089 0.70157 0.16114
 C403 C 0.19796 0.64652 0.14453
 C404 C 0.16549 0.61429 0.11208
 C405 C 0.10885 0.64009 0.09921
 C406 C 0.08385 0.65340 0.15431
 C407 C 0.11593 0.68515 0.18666
 C408 C 0.15409 0.72848 0.10759
 C409 C 0.12180 0.69629 0.07520
 H410 H 0.23908 0.63403 0.15698
 H411 H 0.17908 0.57449 0.09671
 H412 H 0.04412 0.63865 0.16717
 H413 H 0.10299 0.69675 0.22693
 H414 H 0.16682 0.76929 0.09594
 H415 H 0.10728 0.70945 0.03598
 C416 C 0.28268 1.14595 0.86543
 C417 C 0.26292 1.11983 0.91772
 C418 C 0.30261 1.09066 0.94428
 C419 C 0.35867 1.09025 0.91636
 C420 C 0.34670 1.06880 0.85917
 C421 C 0.30721 1.09765 0.83257
 C422 C 0.33273 1.18051 0.88257
 C423 C 0.37250 1.15143 0.90933
 H424 H 0.22115 1.12371 0.93243
 H425 H 0.29466 1.06951 0.98141
 H426 H 0.36815 1.03414 0.84070
 H427 H 0.29545 1.08726 0.79151
 H428 H 0.33642 1.22411 0.87466
 H429 H 0.40995 1.17036 0.92442
 C430 C 0.32733 0.82514 1.17770
 C431 C 0.35126 0.79626 1.12765
 C432 C 0.38996 0.82611 1.10229
 C433 C 0.40155 0.88250 1.12899
 C434 C 0.34504 0.91083 1.13272
 C435 C 0.30647 0.88100 1.15783
 C436 C 0.37803 0.83883 1.21309
 C437 C 0.41704 0.86900 1.18744
 H438 H 0.34009 0.75519 1.11408
 H439 H 0.41145 0.81021 1.06723
 H440 H 0.33618 0.95160 1.11785
 H441 H 0.26483 0.89632 1.16380
 H442 H 0.38296 0.82562 1.25436
 H443 H 0.45525 0.88156 1.20672
 C444 C 0.72332 1.15975 1.15302
 C445 C 0.68464 1.19084 1.11432
 C446 C 0.64720 1.15783 1.08864
 C447 C 0.65190 1.09684 1.10385
 C448 C 0.71214 1.08103 1.09249
 C449 C 0.74932 1.11386 1.11826
 C450 C 0.68465 1.12980 1.19109
 C451 C 0.64771 1.09673 1.16548
 H452 H 0.68629 1.23483 1.10777
 H453 H 0.61715 1.17361 1.06009
 H454 H 0.72471 1.04714 1.06639
 H455 H 0.79339 1.10792 1.11402
 H456 H 0.68618 1.13415 1.23458
 H457 H 0.61802 1.07269 1.18722
 C458 C 0.67358 0.83839 0.79454
 C459 C 0.63774 0.80371 0.83160
 C460 C 0.60435 0.83397 0.86428
 C461 C 0.60941 0.89637 0.85728
 C462 C 0.67092 0.90856 0.86445
 C463 C 0.70415 0.87828 0.83218
 C464 C 0.63203 0.87500 0.76385
 C465 C 0.59818 0.90556 0.79693
 H466 H 0.63736 0.75906 0.83103
 H467 H 0.57568 0.81515 0.89155
 H468 H 0.68706 0.94089 0.89040
 H469 H 0.74839 0.88416 0.83169
 H470 H 0.62916 0.87641 0.72033
 H471 H 0.56643 0.93299 0.78163
   
