data_POSCAR
  _audit_creation_date              2014-09-24
  _audit_creation_method            'ToBaCCo'
  _symmetry_space_group_name_H-M    'P1'
  _symmetry_Int_Tables_number       1
  _symmetry_cell_setting            triclinic
  loop_
  _symmetry_equiv_pos_as_xyz
 x,y,z
_cell_length_a 34.8200
_cell_length_b 34.7200
_cell_length_c 41.3961
_cell_angle_alpha 89.451200
_cell_angle_beta 90.356100
_cell_angle_gamma 90.243700
loop_
  _atom_site_label
  _atom_site_type_symbol
  _atom_site_fract_x
  _atom_site_fract_y
  _atom_site_fract_z
Si1 Si 1.24972 0.24766 0.25316
 Si2 Si 0.74384 -0.25729 0.24642
 Si3 Si 0.74240 0.25958 -0.24645
 Si4 Si 1.24434 -0.24002 -0.25227
 Si5 Si 0.25363 0.24314 0.74780
 Si6 Si 0.75670 0.74530 0.75269
 Si7 Si 0.75253 0.25055 0.24767
 Si8 Si 0.25136 0.75220 0.25020
 O9 O 1.07238 0.04749 0.02034
 O10 O 0.92357 -0.04364 0.02127
 O11 O 0.95554 0.07403 0.02438
 O12 O 1.04068 -0.07050 0.02636
 O13 O 0.93267 0.02048 0.04131
 O14 O 1.06445 -0.01691 0.04179
 O15 O 0.97577 -0.06329 0.04151
 O16 O 1.02033 0.06788 0.03942
 C17 C 1.05524 0.06402 0.04246
 C18 C 0.94067 -0.06040 0.04373
 C19 C 0.93877 0.05507 0.04595
 C20 C 1.05911 -0.05165 0.04694
 O21 O 1.07141 -0.04424 -0.01864
 O22 O 0.92379 0.04758 -0.01958
 O23 O 1.04120 0.07383 -0.02469
 O24 O 0.95425 -0.07022 -0.02259
 O25 O 0.93183 -0.01668 -0.03975
 O26 O 1.06398 0.02007 -0.04001
 O27 O 1.01878 -0.06429 -0.03769
 O28 O 0.97591 0.06711 -0.03977
 Co29 Co 1.06110 0.00163 0.00088
 Co30 Co 0.93505 0.00192 0.00081
 Co31 Co 0.99822 0.06425 -0.00010
 Co32 Co 0.99743 -0.06060 0.00184
 O33 O 0.99799 0.00181 0.00087
 C34 C 1.05366 -0.06046 -0.04082
 C35 C 0.94074 0.06442 -0.04198
 C36 C 1.05857 0.05469 -0.04545
 C37 C 0.93749 -0.05132 -0.04428
 O38 O 1.07462 0.54570 0.52003
 O39 O 0.92695 0.45450 0.52075
 O40 O 0.95727 0.57252 0.52130
 O41 O 1.04400 0.42764 0.52595
 O42 O 0.93540 0.51916 0.53926
 O43 O 1.06720 0.48139 0.54133
 O44 O 0.97901 0.43522 0.54142
 O45 O 1.02181 0.56671 0.53758
 C46 C 1.05671 0.56325 0.54120
 C47 C 0.94401 0.43888 0.54380
 C48 C 0.94032 0.55404 0.54306
 C49 C 1.06188 0.44671 0.54668
 O50 O 1.07474 0.45387 0.48072
 O51 O 0.92735 0.54417 0.47749
 O52 O 1.04448 0.57187 0.47427
 O53 O 0.95731 0.42638 0.47748
 O54 O 0.93572 0.47957 0.45909
 O55 O 1.06770 0.51823 0.45929
 O56 O 1.02206 0.43248 0.46228
 O57 O 0.97966 0.56378 0.45773
 Co58 Co 1.06410 0.49977 0.50028
 Co59 Co 0.93828 0.49937 0.49920
 Co60 Co 1.00076 0.56211 0.49784
 Co61 Co 1.00057 0.43702 0.50165
 O62 O 1.00099 0.49957 0.49973
 C63 C 1.05701 0.43614 0.45926
 C64 C 0.94468 0.55991 0.45476
 C65 C 1.06290 0.55299 0.45401
 C66 C 0.94060 0.44471 0.45543
 O67 O 0.58021 0.04198 0.52281
 O68 O 0.43422 -0.04840 0.52092
 O69 O 0.46246 0.06962 0.52267
 O70 O 0.55139 -0.07610 0.52217
 O71 O 0.44123 0.01589 0.53994
 O72 O 0.57301 -0.02334 0.54046
 O73 O 0.48674 -0.06950 0.53979
 O74 O 0.52703 0.06256 0.54038
 C75 C 0.56194 0.05886 0.54427
 C76 C 0.45202 -0.06446 0.54337
 C77 C 0.44568 0.05074 0.54418
 C78 C 0.56813 -0.05832 0.54420
 O79 O 0.58037 -0.04652 0.47784
 O80 O 0.43373 0.04168 0.47800
 O81 O 0.55095 0.07106 0.47816
 O82 O 0.46288 -0.07609 0.47666
 O83 O 0.44142 -0.02262 0.45908
 O84 O 0.57289 0.01863 0.46012
 O85 O 0.52732 -0.06785 0.45970
 O86 O 0.48627 0.06365 0.45992
 Co87 Co 0.56982 -0.00236 0.50027
 Co88 Co 0.44436 -0.00329 0.49953
 Co89 Co 0.50667 0.05999 0.50020
 Co90 Co 0.50703 -0.06563 0.49966
 O91 O 0.50699 -0.00282 0.49991
 C92 C 0.56216 -0.06341 0.45609
 C93 C 0.45147 0.05873 0.45610
 C94 C 0.56754 0.05347 0.45620
 C95 C 0.44554 -0.05755 0.45514
 O96 O 0.54826 0.51554 0.04252
 O97 O 0.41827 0.45780 0.02457
 O98 O 0.45592 0.57785 0.01838
 O99 O 0.53810 0.44621 0.03488
 O100 O 0.42033 0.52923 0.03571
 O101 O 0.58873 0.46963 0.01122
 O102 O 0.47203 0.44339 0.04601
 O103 O 0.52609 0.57085 0.02589
 C104 C 0.54278 0.55064 0.04734
 C105 C 0.43675 0.44500 0.04804
 C106 C 0.43129 0.56366 0.03787
 C107 C 0.57387 0.44341 0.02994
 O108 O 0.55091 0.48411 -0.04088
 O109 O 0.41435 0.54284 -0.02490
 O110 O 0.53092 0.55578 -0.03992
 O111 O 0.45549 0.42454 -0.01738
 O112 O 0.42151 0.47243 -0.03692
 O113 O 0.57684 0.54066 -0.01007
 O114 O 0.52379 0.43065 -0.02878
 O115 O 0.46637 0.56224 -0.04624
 Co116 Co 0.54710 0.49855 0.00094
 Co117 Co 0.42536 0.50056 -0.00052
 Co118 Co 0.49464 0.56178 -0.00956
 Co119 Co 0.49664 0.44176 0.00767
 O120 O 0.48870 0.50247 -0.00138
 C121 C 0.54336 0.45034 -0.04806
 C122 C 0.43121 0.55912 -0.04748
 C123 C 0.56544 0.55952 -0.03372
 C124 C 0.43250 0.43826 -0.03841
 N125 N 1.20229 0.20318 0.17277
 C126 C 1.17733 0.17633 0.18413
 N127 N 1.17410 0.17089 0.21651
 N128 N 1.19526 0.19175 0.23688
 C129 C 1.22023 0.21865 0.22546
 N130 N 1.22340 0.22400 0.19311
 C131 C 1.15475 0.15419 0.16193
 C132 C 1.13641 0.13639 0.14229
 C133 C 1.11534 0.11615 0.11788
 N134 N 1.07658 0.11908 0.11594
 N135 N 1.05729 0.10201 0.09209
 C136 C 1.07619 0.08161 0.06936
 N137 N 1.11497 0.07858 0.07147
 N138 N 1.13424 0.09563 0.09531
 N139 N 1.19958 0.71370 0.66702
 C140 C 1.17333 0.68810 0.67838
 N141 N 1.16804 0.68464 0.71070
 N142 N 1.18853 0.70610 0.73106
 C143 C 1.21486 0.73166 0.71969
 N144 N 1.22005 0.73514 0.68737
 C145 C 1.15198 0.66463 0.65639
 C146 C 1.13458 0.64519 0.63731
 C147 C 1.11445 0.62264 0.61388
 N148 N 1.07565 0.62427 0.61158
 N149 N 1.05712 0.60476 0.58869
 C150 C 1.07684 0.58304 0.56737
 N151 N 1.11567 0.58128 0.56986
 N152 N 1.13418 0.60080 0.59275
 N153 N 0.65697 0.20541 0.70521
 C154 C 0.67600 0.18087 0.68571
 N155 N 0.71489 0.17972 0.68713
 N156 N 0.73417 0.20243 0.70737
 C157 C 0.71519 0.22704 0.72683
 N158 N 0.67627 0.22813 0.72547
 C159 C 0.65543 0.15753 0.66287
 C160 C 0.63853 0.13842 0.64312
 C161 C 0.61875 0.11639 0.61891
 N162 N 0.63880 0.09525 0.59745
 N163 N 0.62063 0.07632 0.57399
 C164 C 0.58179 0.07791 0.57118
 N165 N 0.56177 0.09893 0.59282
 N166 N 0.57994 0.11786 0.61628
 N167 N 0.64988 0.69297 0.20687
 C168 C 0.66475 0.66743 0.18579
 N169 N 0.70344 0.66457 0.18315
 N170 N 0.72656 0.68648 0.20107
 C171 C 0.71172 0.71205 0.22212
 N172 N 0.67302 0.71488 0.22480
 C173 C 0.63999 0.64510 0.16531
 C174 C 0.61981 0.62700 0.14711
 C175 C 0.59678 0.60647 0.12405
 N176 N 0.60101 0.56795 0.12029
 N177 N 0.58246 0.54968 0.09664
 C178 C 0.55909 0.56936 0.07598
 N179 N 0.55458 0.60782 0.08009
 N180 N 0.57309 0.62605 0.10372
 N181 N 0.83275 -0.20691 0.19974
 C182 C 0.81541 -0.18222 0.17877
 N183 N 0.77652 -0.18015 0.17821
 N184 N 0.75561 -0.20208 0.19807
 C185 C 0.77294 -0.22680 0.21907
 N186 N 0.81183 -0.22882 0.21958
 C187 C 0.83794 -0.15928 0.15692
 C188 C 0.85672 -0.14042 0.13816
 C189 C 0.87856 -0.11847 0.11514
 N190 N 0.86032 -0.09653 0.09262
 N191 N 0.88032 -0.07749 0.07024
 C192 C 0.91922 -0.07975 0.06959
 N193 N 0.93748 -0.10156 0.09230
 N194 N 0.91745 -0.12064 0.11471
 N195 N 0.83343 0.31012 0.70983
 C196 C 0.81704 0.33240 0.68653
 N197 N 0.77820 0.33347 0.68402
 N198 N 0.75642 0.31276 0.70412
 C199 C 0.77278 0.29032 0.72737
 N200 N 0.81163 0.28943 0.72992
 C201 C 0.84047 0.35300 0.66372
 C202 C 0.85971 0.36967 0.64386
 C203 C 0.88175 0.38886 0.61930
 N204 N 0.86370 0.40927 0.59568
 N205 N 0.88375 0.42561 0.57190
 C206 C 0.92253 0.42206 0.57087
 N207 N 0.94063 0.40177 0.59466
 N208 N 0.92054 0.38539 0.61847
 N209 N 0.33903 -0.19232 0.70802
 C210 C 0.32453 -0.16600 0.68694
 N211 N 0.28596 -0.16125 0.68489
 N212 N 0.26255 -0.18231 0.70332
 C213 C 0.27700 -0.20883 0.72429
 N214 N 0.31560 -0.21337 0.72644
 C215 C 0.34932 -0.14570 0.66519
 C216 C 0.36923 -0.12944 0.64569
 C217 C 0.39131 -0.11087 0.62099
 N218 N 0.37330 -0.08924 0.59818
 N219 N 0.39298 -0.07405 0.57372
 C220 C 0.43131 -0.08008 0.57119
 N221 N 0.44943 -0.10156 0.59420
 N222 N 0.42968 -0.11682 0.61870
 N223 N 0.33761 0.30432 0.21043
 C224 C 0.31961 0.33012 0.19086
 N225 N 0.28072 0.33144 0.19051
 N226 N 0.26040 0.30764 0.20921
 C227 C 0.27834 0.28170 0.22872
 N228 N 0.31726 0.28053 0.22913
 C229 C 0.34124 0.35371 0.16902
 C230 C 0.35890 0.37256 0.14960
 C231 C 0.37909 0.39371 0.12519
 N232 N 0.35929 0.41176 0.10123
 N233 N 0.37783 0.42887 0.07698
 C234 C 0.41677 0.42838 0.07586
 N235 N 0.43657 0.41055 0.10003
 N236 N 0.41800 0.39340 0.12430
 N237 N 0.77580 0.18315 -0.17771
 C238 C 0.81463 0.18653 -0.17732
 N239 N 0.83171 0.21203 -0.19771
 N240 N 0.81062 0.23342 -0.21791
 C241 C 0.77179 0.23010 -0.21835
 N242 N 0.75472 0.20457 -0.19793
 C243 C 0.83735 0.16390 -0.15521
 C244 C 0.85624 0.14517 -0.13631
 C245 C 0.87819 0.12321 -0.11319
 N246 N 0.91712 0.12516 -0.11279
 N247 N 0.93727 0.10590 -0.09044
 C248 C 0.91910 0.08409 -0.06776
 N249 N 0.88014 0.08206 -0.06836
 N250 N 0.86004 0.10128 -0.09069
 N251 N 0.83512 0.69269 0.29028
 C252 C 0.81881 0.66849 0.31216
 N253 N 0.77998 0.66612 0.31371
 N254 N 0.75811 0.68739 0.29402
 C255 C 0.77439 0.71174 0.27221
 N256 N 0.81323 0.71395 0.27060
 C257 C 0.84223 0.64729 0.33462
 C258 C 0.86138 0.63014 0.35430
 C259 C 0.88321 0.61043 0.37877
 N260 N 0.86493 0.58954 0.40185
 N261 N 0.88475 0.57296 0.42577
 C262 C 0.92352 0.57676 0.42744
 N263 N 0.94186 0.59750 0.40417
 N264 N 0.92199 0.61414 0.38024
 N265 N 0.34154 0.19776 0.29600
 C266 C 0.32562 0.17107 0.31597
 N267 N 0.28687 0.16702 0.31655
 N268 N 0.26469 0.18906 0.29773
 C269 C 0.28059 0.21588 0.27783
 N270 N 0.31935 0.21977 0.27720
 C271 C 0.34926 0.14907 0.33764
 C272 C 0.36859 0.13127 0.35675
 C273 C 0.39050 0.11081 0.38068
 N274 N 0.37234 0.08804 0.40255
 N275 N 0.39207 0.07092 0.42622
 C276 C 0.43062 0.07606 0.42887
 N277 N 0.44886 0.09867 0.40680
 N278 N 0.42907 0.11585 0.38309
 N279 N 0.32899 0.70316 -0.20541
 C280 C 0.30973 0.67784 -0.18632
 N281 N 0.27082 0.67703 -0.18738
 N282 N 0.25174 0.70088 -0.20703
 C283 C 0.27099 0.72630 -0.22609
 N284 N 0.30989 0.72699 -0.22503
 C285 C 0.33026 0.65380 -0.16404
 C286 C 0.34789 0.63465 -0.14475
 C287 C 0.36918 0.61324 -0.12112
 N288 N 0.35069 0.59335 -0.09754
 N289 N 0.37055 0.57548 -0.07430
 C290 C 0.40951 0.57707 -0.07388
 N291 N 0.42794 0.59683 -0.09764
 N292 N 0.40807 0.61469 -0.12088
 N293 N 1.19666 -0.15164 -0.20476
 C294 C 1.17020 -0.16923 -0.18569
 N295 N 1.16555 -0.20793 -0.18739
 N296 N 1.18680 -0.22849 -0.20747
 C297 C 1.21337 -0.21099 -0.22644
 N298 N 1.21792 -0.17223 -0.22486
 C299 C 1.14896 -0.14765 -0.16261
 C300 C 1.13156 -0.13038 -0.14237
 C301 C 1.11139 -0.11086 -0.11741
 N302 N 1.07265 -0.11380 -0.11526
 N303 N 1.05413 -0.09734 -0.09098
 C304 C 1.07380 -0.07755 -0.06803
 N305 N 1.11256 -0.07452 -0.07034
 N306 N 1.13106 -0.09097 -0.09461
 N307 N 1.19973 0.33448 0.30086
 C308 C 1.17538 0.31623 0.32139
 N309 N 1.17300 0.27724 0.32100
 N310 N 1.19442 0.25708 0.30069
 C311 C 1.21886 0.27534 0.28021
 N312 N 1.22113 0.31433 0.28058
 C313 C 1.15356 0.33787 0.34409
 C314 C 1.13588 0.35613 0.36356
 C315 C 1.11550 0.37768 0.38723
 N316 N 1.07668 0.37558 0.38895
 N317 N 1.05793 0.39469 0.41168
 C318 C 1.07741 0.41649 0.43342
 N319 N 1.11627 0.41868 0.43153
 N320 N 1.13500 0.39958 0.40880
 N321 N 0.69925 -0.16573 0.29227
 C322 C 0.67566 -0.18207 0.31451
 N323 N 0.67219 -0.22096 0.31577
 N324 N 0.69177 -0.24288 0.29547
 C325 C 0.71544 -0.22660 0.27327
 N326 N 0.71885 -0.18768 0.27195
 C327 C 0.65557 -0.15872 0.33723
 C328 C 0.63884 -0.13986 0.35694
 C329 C 0.61905 -0.11842 0.38113
 N330 N 0.58028 -0.12066 0.38348
 N331 N 0.56206 -0.10251 0.40706
 C332 C 0.58202 -0.08158 0.42911
 N333 N 0.62082 -0.07919 0.42658
 N334 N 0.63903 -0.09734 0.40298
 N335 N 0.66055 0.29459 -0.18471
 C336 C 0.66209 0.33358 -0.18689
 N337 N 0.68764 0.35030 -0.20735
 N338 N 0.71087 0.32869 -0.22507
 C339 C 0.70937 0.28968 -0.22284
 N340 N 0.68378 0.27300 -0.20242
 C341 C 0.63830 0.35669 -0.16652
 C342 C 0.61880 0.37524 -0.14839
 C343 C 0.59633 0.39601 -0.12535
 N344 N 0.60384 0.43363 -0.11917
 N345 N 0.58564 0.45164 -0.09545
 C346 C 0.55932 0.43262 -0.07711
 N347 N 0.55156 0.39512 -0.08365
 N348 N 0.56970 0.37715 -0.10736
 N349 N 1.16029 0.19499 -0.21024
 C350 C 1.17559 0.16763 -0.19045
 N351 N 1.21411 0.16216 -0.19034
 N352 N 1.23669 0.18355 -0.20925
 C353 C 1.22151 0.21111 -0.22887
 N354 N 1.18291 0.21639 -0.22918
 C355 C 1.15187 0.14662 -0.16810
 C356 C 1.13298 0.12952 -0.14825
 C357 C 1.11171 0.10983 -0.12344
 N358 N 1.11551 0.07129 -0.11896
 N359 N 1.09793 0.05352 -0.09446
 C360 C 1.07606 0.07374 -0.07356
 N361 N 1.07211 0.11228 -0.07824
 N362 N 1.08968 0.13003 -0.10275
 N363 N 1.16502 0.69985 0.29495
 C364 C 1.18288 0.67276 0.31340
 N365 N 1.22162 0.66943 0.31164
 N366 N 1.24183 0.69254 0.29216
 C367 C 1.22403 0.71981 0.27379
 N368 N 1.18525 0.72294 0.27550
 C369 C 1.16122 0.64957 0.33594
 C370 C 1.14294 0.63116 0.35549
 C371 C 1.12115 0.61052 0.37960
 N372 N 1.12505 0.57188 0.38362
 N373 N 1.10595 0.55329 0.40692
 C374 C 1.08230 0.57273 0.42699
 N375 N 1.07832 0.61135 0.42276
 N376 N 1.09738 0.62990 0.39948
 N377 N 0.66021 0.20147 0.29108
 C378 C 0.67654 0.17652 0.31251
 N379 N 0.71531 0.17379 0.31387
 N380 N 0.73713 0.19532 0.29449
 C381 C 0.72095 0.22034 0.27312
 N382 N 0.68211 0.22304 0.27163
 C383 C 0.65357 0.15437 0.33464
 C384 C 0.63578 0.13585 0.35433
 C385 C 0.61613 0.11423 0.37897
 N386 N 0.62090 0.07556 0.38168
 N387 N 0.60491 0.05596 0.40601
 C388 C 0.58378 0.07445 0.42851
 N389 N 0.57890 0.11311 0.42561
 N390 N 0.59486 0.13268 0.40130
 N391 N 0.67445 0.69801 -0.19085
 C392 C 0.69474 0.67621 -0.16942
 N393 N 0.73346 0.67447 -0.17217
 N394 N 0.75134 0.69416 -0.19546
 C395 C 0.73110 0.71611 -0.21681
 N396 N 0.69235 0.71771 -0.21415
 C397 C 0.67537 0.65561 -0.14399
 C398 C 0.65795 0.63871 -0.12307
 C399 C 0.63504 0.61908 -0.09926
 N400 N 0.65129 0.60039 -0.07364
 N401 N 0.62937 0.58168 -0.05220
 C402 C 0.59055 0.58119 -0.05576
 N403 N 0.57456 0.60005 -0.08133
 N404 N 0.59637 0.61868 -0.10266
 N405 N 0.80468 -0.15931 -0.20906
 C406 C 0.83145 -0.17376 -0.18838
 N407 N 0.83643 -0.21240 -0.18641
 N408 N 0.81518 -0.23594 -0.20442
 C409 C 0.78824 -0.22159 -0.22496
 N410 N 0.78342 -0.18289 -0.22713
 C411 C 0.85214 -0.14903 -0.16685
 C412 C 0.86905 -0.12972 -0.14734
 C413 C 0.88862 -0.10871 -0.12254
 N414 N 0.91105 -0.12778 -0.10091
 N415 N 0.92715 -0.10919 -0.07630
 C416 C 0.92128 -0.07091 -0.07244
 N417 N 0.89901 -0.05173 -0.09428
 N418 N 0.88284 -0.07038 -0.11891
 N419 N 0.83067 0.32635 0.28215
 C420 C 0.82474 0.32510 0.31450
 N421 N 0.79693 0.30169 0.32650
 N422 N 0.77573 0.28010 0.30680
 C423 C 0.78163 0.28122 0.27447
 N424 N 0.80941 0.30473 0.26241
 C425 C 0.84772 0.34773 0.33609
 C426 C 0.86632 0.36592 0.35532
 C427 C 0.88750 0.38659 0.37943
 N428 N 0.90919 0.36717 0.40142
 N429 N 0.92676 0.38587 0.42529
 C430 C 0.92315 0.42462 0.42801
 N431 N 0.90163 0.44406 0.40581
 N432 N 0.88404 0.42533 0.38194
 N433 N 0.32653 -0.17217 0.28402
 C434 C 0.32428 -0.17735 0.31649
 N435 N 0.29977 -0.20430 0.32844
 N436 N 0.27817 -0.22538 0.30860
 C437 C 0.28036 -0.22030 0.27612
 N438 N 0.30489 -0.19329 0.26416
 C439 C 0.34743 -0.15474 0.33816
 C440 C 0.36638 -0.13648 0.35721
 C441 C 0.38838 -0.11573 0.38094
 N442 N 0.41105 -0.13511 0.40224
 N443 N 0.42983 -0.11637 0.42546
 C444 C 0.42659 -0.07758 0.42823
 N445 N 0.40406 -0.05815 0.40673
 N446 N 0.38525 -0.07693 0.38349
 N447 N 0.33251 0.31356 -0.21110
 C448 C 0.32756 0.30719 -0.17898
 N449 N 0.30035 0.28173 -0.16914
 N450 N 0.27887 0.26308 -0.19069
 C451 C 0.28375 0.26936 -0.22280
 N452 N 0.31099 0.29485 -0.23269
 C453 C 0.34938 0.32844 -0.15550
 C454 C 0.36635 0.34687 -0.13534
 C455 C 0.38478 0.37004 -0.11114
 N456 N 0.40962 0.35434 -0.08934
 N457 N 0.42525 0.37596 -0.06617
 C458 C 0.41638 0.41392 -0.06403
 N459 N 0.39161 0.42944 -0.08597
 N460 N 0.37606 0.40789 -0.10907
 N461 N 1.16278 -0.19679 0.20745
 C462 C 1.17979 -0.17050 0.18771
 N463 N 1.21863 -0.16743 0.18788
 N464 N 1.23978 -0.19001 0.20712
 C465 C 1.22284 -0.21644 0.22683
 N466 N 1.18395 -0.21936 0.22668
 C467 C 1.15715 -0.14784 0.16551
 C468 C 1.13838 -0.12965 0.14612
 C469 C 1.11641 -0.10908 0.12208
 N470 N 1.12059 -0.07045 0.11814
 N471 N 1.10169 -0.05189 0.09463
 C472 C 1.07802 -0.07137 0.07425
 N473 N 1.07373 -0.10999 0.07841
 N474 N 1.09259 -0.12851 0.10191
 N475 N 1.17803 0.32512 0.71838
 C476 C 1.18206 0.32566 0.68577
 N477 N 1.20793 0.30188 0.67211
 N478 N 1.22902 0.27822 0.69037
 C479 C 1.22504 0.27744 0.72292
 N480 N 1.19924 0.30140 0.73667
 C481 C 1.15856 0.34991 0.66547
 C482 C 1.13943 0.36886 0.64686
 C483 C 1.11733 0.38969 0.62303
 N484 N 1.09346 0.37033 0.60286
 N485 N 1.07516 0.38877 0.57901
 C486 C 1.08012 0.42724 0.57444
 N487 N 1.10382 0.44669 0.59483
 N488 N 1.12219 0.42819 0.61870
 N489 N 0.67817 -0.17862 0.71854
 C490 C 0.67962 -0.18357 0.68608
 N491 N 0.70337 -0.21062 0.67401
 N492 N 0.72519 -0.23191 0.69369
 C493 C 0.72394 -0.22694 0.72612
 N494 N 0.70003 -0.19997 0.73826
 C495 C 0.65727 -0.15995 0.66441
 C496 C 0.63948 -0.14081 0.64502
 C497 C 0.61926 -0.11908 0.62063
 N498 N 0.59737 -0.13757 0.59842
 N499 N 0.58060 -0.11799 0.57441
 C500 C 0.58521 -0.07925 0.57170
 N501 N 0.60697 -0.06070 0.59409
 N502 N 0.62378 -0.08032 0.61813
 N503 N 0.67194 0.29881 0.18953
 C504 C 0.69302 0.32098 0.16901
 N505 N 0.73162 0.32283 0.17308
 N506 N 0.74864 0.30287 0.19674
 C507 C 0.72764 0.28057 0.21719
 N508 N 0.68899 0.27884 0.21322
 C509 C 0.67476 0.34165 0.14298
 C510 C 0.65872 0.35874 0.12131
 C511 C 0.63797 0.37881 0.09628
 N512 N 0.65607 0.40323 0.07549
 N513 N 0.63601 0.42316 0.05345
 C514 C 0.59723 0.41919 0.05155
 N515 N 0.57939 0.39448 0.07222
 N516 N 0.59938 0.37460 0.09415
 N517 N 0.84418 0.19718 0.20961
 C518 C 0.82794 0.17197 0.18869
 N519 N 0.78916 0.17000 0.18626
 N520 N 0.76722 0.19260 0.20414
 C521 C 0.78338 0.21793 0.22495
 N522 N 0.82219 0.21979 0.22755
 C523 C 0.85118 0.14975 0.16749
 C524 C 0.86953 0.13177 0.14831
 C525 C 0.88992 0.11139 0.12396
 N526 N 0.88473 0.07295 0.12030
 N527 N 0.90101 0.05470 0.09578
 C528 C 0.92281 0.07439 0.07407
 N529 N 0.92818 0.11281 0.07796
 N530 N 0.91193 0.13102 0.10247
 N531 N 0.78932 0.66473 0.68909
 C532 C 0.82780 0.67012 0.68673
 N533 N 0.84503 0.69750 0.70499
 N534 N 0.82436 0.71896 0.72491
 C535 C 0.78584 0.71371 0.72715
 N536 N 0.76866 0.68618 0.70900
 C537 C 0.84956 0.64864 0.66380
 C538 C 0.86730 0.63120 0.64379
 C539 C 0.88768 0.61111 0.61913
 N540 N 0.90900 0.63096 0.59725
 N541 N 0.92631 0.61265 0.57328
 C542 C 0.92283 0.57387 0.57037
 N543 N 0.90163 0.55402 0.59242
 N544 N 0.88431 0.57235 0.61639
 N545 N 0.32976 0.16432 0.71614
 C546 C 0.32891 0.16926 0.68358
 N547 N 0.30564 0.19652 0.67053
 N548 N 0.28385 0.21814 0.68937
 C549 C 0.28454 0.21331 0.72190
 N550 N 0.30789 0.18602 0.73501
 C551 C 0.35208 0.14614 0.66281
 C552 C 0.37076 0.12782 0.64398
 C553 C 0.39210 0.10741 0.62006
 N554 N 0.38828 0.06871 0.61694
 N555 N 0.40597 0.05040 0.59312
 C556 C 0.42793 0.07023 0.57158
 N557 N 0.43187 0.10890 0.57492
 N558 N 0.41422 0.12718 0.59872
 N559 N 0.28330 0.68581 0.17849
 C560 C 0.32211 0.68928 0.17849
 N561 N 0.33937 0.71138 0.20127
 N562 N 0.31840 0.72966 0.22317
 C563 C 0.27952 0.72631 0.22307
 N564 N 0.26236 0.70407 0.20036
 C565 C 0.34440 0.66961 0.15460
 C566 C 0.36186 0.65219 0.13429
 C567 C 0.38094 0.62986 0.11009
 N568 N 0.40689 0.64616 0.08967
 N569 N 0.42336 0.62523 0.06670
 C570 C 0.41431 0.58734 0.06337
 N571 N 0.38842 0.57124 0.08392
 N572 N 0.37203 0.59209 0.10682
   
