data_POSCAR
  _audit_creation_date              2014-09-24
  _audit_creation_method            'ToBaCCo'
  _symmetry_space_group_name_H-M    'P1'
  _symmetry_Int_Tables_number       1
  _symmetry_cell_setting            triclinic
  loop_
  _symmetry_equiv_pos_as_xyz
 x,y,z
_cell_length_a 43.0880
_cell_length_b 43.0870
_cell_length_c 43.0872
_cell_angle_alpha 89.930400
_cell_angle_beta 90.000300
_cell_angle_gamma 90.038000
loop_
  _atom_site_label
  _atom_site_type_symbol
  _atom_site_fract_x
  _atom_site_fract_y
  _atom_site_fract_z
C1 C 0.38400 0.24869 0.01510
 C2 C 0.38402 0.24864 -0.01671
 C3 C 0.36767 0.27479 -0.02606
 N4 N 0.35781 0.29080 -0.00095
 C5 C 0.36763 0.27483 0.02423
 C6 C 0.36438 0.28478 -0.05716
 C7 C 0.34545 0.31001 -0.06634
 C8 C 0.34603 0.32388 -0.09544
 C9 C 0.32346 0.34642 -0.09543
 C10 C 0.30964 0.34579 -0.06632
 N11 N 0.32299 0.32331 -0.04889
 C12 C 0.28441 0.36467 -0.05712
 C13 C 0.27448 0.36799 -0.02601
 C14 C 0.24837 0.38438 -0.01668
 C15 C 0.24849 0.38442 0.01513
 C16 C 0.27463 0.36804 0.02428
 N17 N 0.29053 0.35816 -0.00090
 C18 C 0.28466 0.36474 0.05530
 C19 C 0.30976 0.34577 0.06448
 C20 C 0.32351 0.34627 0.09359
 C21 C 0.34605 0.32366 0.09358
 C22 C 0.34546 0.30996 0.06446
 N23 N 0.32305 0.32335 0.04702
 C24 C 0.36432 0.28481 0.05526
 H25 H 0.39520 0.23168 0.02981
 H26 H 0.39526 0.23159 -0.03131
 H27 H 0.31514 0.31548 0.02567
 H28 H 0.36107 0.31823 -0.11475
 H29 H 0.31777 0.36150 -0.11472
 H30 H 0.23129 0.39561 -0.03129
 H31 H 0.23153 0.39566 0.02983
 H32 H 0.36107 0.31789 0.11287
 H33 H 0.31505 0.31535 -0.02757
 H34 H 0.31782 0.36128 0.11290
 C35 C 0.75080 0.61562 0.01586
 C36 C 0.75081 0.61586 -0.01597
 C37 C 0.72482 0.63252 -0.02510
 N38 N 0.70892 0.64231 0.00009
 C39 C 0.72481 0.63215 0.02516
 C40 C 0.71492 0.63613 -0.05613
 C41 C 0.68981 0.65513 -0.06529
 C42 C 0.67617 0.65472 -0.09445
 C43 C 0.65357 0.67726 -0.09442
 C44 C 0.65400 0.69087 -0.06522
 N45 N 0.67640 0.67744 -0.04777
 C46 C 0.63498 0.71596 -0.05593
 C47 C 0.63161 0.72569 -0.02476
 C48 C 0.61515 0.75170 -0.01530
 C49 C 0.61519 0.75144 0.01651
 C50 C 0.63168 0.72531 0.02553
 N51 N 0.64155 0.70956 0.00027
 C52 C 0.63508 0.71517 0.05653
 C53 C 0.65406 0.69004 0.06565
 C54 C 0.65358 0.67624 0.09475
 C55 C 0.67618 0.65368 0.09467
 C56 C 0.68984 0.65431 0.06552
 N57 N 0.67645 0.67678 0.04813
 C58 C 0.71491 0.63537 0.05623
 H59 H 0.76772 0.60415 0.03045
 H60 H 0.76774 0.60459 -0.03069
 H61 H 0.68427 0.68475 0.02677
 H62 H 0.68196 0.63980 -0.11379
 H63 H 0.63860 0.68305 -0.11375
 H64 H 0.60384 0.76881 -0.02982
 H65 H 0.60393 0.76831 0.03130
 H66 H 0.68194 0.63860 0.11394
 H67 H 0.68425 0.68520 -0.02637
 H68 H 0.63859 0.68190 0.11409
 C69 C 0.61480 0.24852 1.01532
 C70 C 0.61486 0.24874 0.98351
 C71 C 0.63142 0.27484 0.97447
 N72 N 0.64132 0.29061 0.99971
 C73 C 0.63133 0.27452 1.02476
 C74 C 0.63485 0.28495 0.94347
 C75 C 0.65389 0.31005 0.93434
 C76 C 0.65343 0.32385 0.90524
 C77 C 0.67608 0.34638 0.90530
 C78 C 0.68976 0.34572 0.93444
 N79 N 0.67633 0.32327 0.95184
 C80 C 0.71489 0.36463 0.94372
 C81 C 0.72482 0.36784 0.97477
 C82 C 0.75086 0.38432 0.98407
 C83 C 0.75088 0.38409 1.01589
 C84 C 0.72484 0.36749 1.02503
 N85 N 0.70890 0.35772 0.99986
 C86 C 0.71491 0.36393 1.05606
 C87 C 0.68973 0.34501 1.06522
 C88 C 0.67605 0.34551 1.09436
 C89 C 0.65337 0.32303 1.09434
 C90 C 0.65379 0.30936 1.06517
 N91 N 0.67626 0.32270 1.04772
 C92 C 0.63470 0.28430 1.05590
 H93 H 0.60343 0.23145 1.02986
 H94 H 0.60355 0.23187 0.96873
 H95 H 0.68411 0.31488 1.02634
 H96 H 0.63841 0.31822 0.88591
 H97 H 0.68187 0.36146 0.88604
 H98 H 0.76782 0.39575 0.96946
 H99 H 0.76785 0.39534 1.03060
 H100 H 0.63835 0.31732 1.11366
 H101 H 0.68415 0.31529 0.97319
 H102 H 0.68187 0.36045 1.11369
 C103 C 0.24905 0.61528 0.98473
 C104 C 0.24891 0.61533 1.01654
 C105 C 0.27502 0.63175 1.02589
 N106 N 0.29108 0.64160 1.00077
 C107 C 0.27519 0.63169 0.97559
 C108 C 0.28491 0.63511 1.05701
 C109 C 0.31013 0.65404 1.06622
 C110 C 0.32390 0.65347 1.09536
 C111 C 0.34647 0.67606 1.09538
 C112 C 0.34594 0.68988 1.06626
 N113 N 0.32351 0.67652 1.04879
 C114 C 0.36489 0.71512 1.05707
 C115 C 0.36821 0.72508 1.02595
 C116 C 0.38458 0.75124 1.01661
 C117 C 0.38458 0.75118 0.98480
 C118 C 0.36822 0.72502 0.97566
 N119 N 0.35837 0.70905 1.00085
 C120 C 0.36491 0.71504 0.94463
 C121 C 0.34603 0.68987 0.93542
 C122 C 0.34660 0.67621 0.90628
 C123 C 0.32405 0.65357 0.90626
 C124 C 0.31032 0.65402 0.93538
 N125 N 0.32363 0.67645 0.95286
 C126 C 0.28522 0.63502 0.94456
 H127 H 0.23208 0.60402 0.97003
 H128 H 0.23182 0.60407 1.03114
 H129 H 0.31574 0.68429 0.97422
 H130 H 0.31818 0.63842 1.11466
 H131 H 0.36148 0.68175 1.11470
 H132 H 0.39581 0.76832 1.03121
 H133 H 0.39580 0.76820 0.97009
 H134 H 0.31834 0.63857 0.88695
 H135 H 0.31561 0.68443 1.02744
 H136 H 0.36161 0.68201 0.88698
 C137 C -0.01628 0.24835 0.38422
 C138 C 0.01553 0.24848 0.38423
 C139 C 0.02465 0.27466 0.36785
 N140 N -0.00054 0.29058 0.35800
 C141 C -0.02564 0.27450 0.36785
 C142 C 0.05568 0.28470 0.36452
 C143 C 0.06484 0.30985 0.34556
 C144 C 0.09397 0.32358 0.34604
 C145 C 0.09393 0.34618 0.32344
 C146 C 0.06478 0.34564 0.30977
 N147 N 0.04734 0.32321 0.32316
 C148 C 0.05555 0.36458 0.28465
 C149 C 0.02450 0.36792 0.27471
 C150 C 0.01532 0.38436 0.24860
 C151 C -0.01650 0.38438 0.24859
 C152 C -0.02579 0.36795 0.27473
 N153 N -0.00065 0.35805 0.29070
 C154 C -0.05688 0.36463 0.28474
 C155 C -0.06603 0.34562 0.30995
 C156 C -0.09512 0.34614 0.32381
 C157 C -0.09508 0.32349 0.34634
 C158 C -0.06598 0.30969 0.34568
 N159 N -0.04857 0.32312 0.32322
 C160 C -0.05676 0.28441 0.36455
 H161 H -0.03087 0.23124 0.39546
 H162 H 0.03025 0.23149 0.39545
 H163 H -0.02726 0.31523 0.31526
 H164 H 0.11330 0.31785 0.36102
 H165 H 0.11323 0.36120 0.31766
 H166 H 0.03000 0.39562 0.23158
 H167 H -0.03112 0.39567 0.23156
 H168 H -0.11436 0.31775 0.36140
 H169 H 0.02597 0.31533 0.31532
 H170 H -0.11442 0.36119 0.31819
 C171 C -0.01629 0.61576 0.75162
 C172 C 0.01552 0.61579 0.75161
 C173 C 0.02472 0.63217 0.72546
 N174 N -0.00042 0.64199 0.70945
 C175 C -0.02557 0.63212 0.72544
 C176 C 0.05576 0.63549 0.71550
 C177 C 0.06501 0.65437 0.69033
 C178 C 0.09415 0.65379 0.67665
 C179 C 0.09421 0.67634 0.65401
 C180 C 0.06510 0.69008 0.65448
 N181 N 0.04760 0.67678 0.67691
 C182 C 0.05597 0.71520 0.63548
 C183 C 0.02496 0.72522 0.63212
 C184 C 0.01586 0.75136 0.61569
 C185 C -0.01595 0.75146 0.61568
 C186 C -0.02533 0.72533 0.63210
 N187 N -0.00024 0.70930 0.64199
 C188 C -0.05644 0.71538 0.63539
 C189 C -0.06567 0.69013 0.65430
 C190 C -0.09477 0.67628 0.65364
 C191 C -0.09483 0.65370 0.67622
 C192 C -0.06577 0.65431 0.69013
 N193 N -0.04830 0.67680 0.67682
 C194 C -0.05665 0.63539 0.71540
 H195 H -0.03093 0.60450 0.76867
 H196 H 0.03019 0.60458 0.76865
 H197 H -0.02700 0.68476 0.68480
 H198 H 0.11343 0.63877 0.68244
 H199 H 0.11354 0.68204 0.63900
 H200 H 0.03059 0.76833 0.60444
 H201 H -0.03053 0.76853 0.60440
 H202 H -0.11414 0.63863 0.68186
 H203 H 0.02625 0.68469 0.68476
 H204 H -0.11403 0.68195 0.63853
 C205 C 1.01704 0.75065 0.38427
 C206 C 0.98522 0.75069 0.38448
 C207 C 0.97585 0.72472 0.36796
 N208 N 1.00089 0.70879 0.35782
 C209 C 1.02611 0.72465 0.36763
 C210 C 0.94477 0.71486 0.36471
 C211 C 0.93543 0.68980 0.34577
 C212 C 0.90627 0.67616 0.34639
 C213 C 0.90615 0.65357 0.32383
 C214 C 0.93524 0.65404 0.31005
 N215 N 0.95280 0.67641 0.32332
 C216 C 0.94432 0.63507 0.28492
 C217 C 0.97530 0.63163 0.27481
 C218 C 0.98427 0.61515 0.24868
 C219 C 1.01609 0.61506 0.24845
 C220 C 1.02559 0.63148 0.27448
 N221 N 1.00058 0.64145 0.29059
 C222 C 1.05676 0.63479 0.28424
 C223 C 1.06609 0.65379 0.30934
 C224 C 1.09528 0.65331 0.32300
 C225 C 1.09535 0.67589 0.34554
 C226 C 1.06623 0.68958 0.34508
 N227 N 1.04869 0.67621 0.32274
 C228 C 1.05712 0.71469 0.36406
 H229 H 1.03180 0.76756 0.39555
 H230 H 0.97066 0.76763 0.39594
 H231 H 1.02730 0.68410 0.31495
 H232 H 0.88702 0.68193 0.36145
 H233 H 0.88678 0.63860 0.31817
 H234 H 0.96946 0.60392 0.23180
 H235 H 1.03057 0.60373 0.23136
 H236 H 1.11471 0.68164 0.36048
 H237 H 0.97416 0.68422 0.31535
 H238 H 1.11458 0.63831 0.31724
 C239 C 0.98403 0.38506 0.75090
 C240 C 1.01584 0.38515 0.75114
 C241 C 1.02532 0.36869 0.72513
 N242 N 1.00030 0.35872 0.70903
 C243 C 0.97503 0.36856 0.72479
 C244 C 1.05650 0.36535 0.71540
 C245 C 1.06581 0.34631 0.69032
 C246 C 1.09502 0.34673 0.67670
 C247 C 1.09505 0.32411 0.65419
 C248 C 1.06589 0.31048 0.65462
 N249 N 1.04836 0.32390 0.67692
 C250 C 1.05673 0.28536 0.63565
 C251 C 1.02570 0.27543 0.63205
 C252 C 1.01658 0.24943 0.61542
 C253 C 0.98476 0.24942 0.61520
 C254 C 0.97543 0.27540 0.63170
 N255 N 1.00050 0.29132 0.64183
 C256 C 0.94436 0.28527 0.63494
 C257 C 0.93506 0.31034 0.65388
 C258 C 0.90590 0.32396 0.65328
 C259 C 0.90582 0.34656 0.67582
 C260 C 0.93492 0.34612 0.68958
 N261 N 0.95245 0.32375 0.67631
 C262 C 0.94403 0.36511 0.71469
 H263 H 0.96923 0.39631 0.76778
 H264 H 1.03034 0.39648 0.76823
 H265 H 0.97381 0.31596 0.68426
 H266 H 1.11435 0.36170 0.68248
 H267 H 1.11441 0.31832 0.63928
 H268 H 1.03131 0.23250 0.60417
 H269 H 0.97017 0.23247 0.60375
 H270 H 0.88647 0.36152 0.68150
 H271 H 1.02694 0.31605 0.68468
 H272 H 0.88664 0.31817 0.63823
 C273 C 0.38434 0.01525 0.24848
 C274 C 0.38432 -0.01656 0.24843
 C275 C 0.36800 -0.02590 0.27462
 N276 N 0.35819 -0.00079 0.29064
 C277 C 0.36801 0.02439 0.27464
 C278 C 0.36473 -0.05700 0.28464
 C279 C 0.34594 -0.06619 0.30997
 C280 C 0.34666 -0.09526 0.32390
 C281 C 0.32419 -0.09528 0.34657
 C282 C 0.31029 -0.06622 0.34593
 N283 N 0.32349 -0.04879 0.32335
 C284 C 0.28511 -0.05708 0.36491
 C285 C 0.27507 -0.02600 0.36811
 C286 C 0.24893 -0.01672 0.38450
 C287 C 0.24892 0.01509 0.38437
 C288 C 0.27501 0.02428 0.36790
 N289 N 0.29100 -0.00086 0.35813
 C290 C 0.28493 0.05533 0.36446
 C291 C 0.31004 0.06456 0.34551
 C292 C 0.32373 0.09371 0.34598
 C293 C 0.34631 0.09373 0.32340
 C294 C 0.34579 0.06459 0.30974
 N295 N 0.32340 0.04710 0.32312
 C296 C 0.36471 0.05542 0.28461
 H297 H 0.39553 0.02997 0.23144
 H298 H 0.39553 -0.03116 0.23136
 H299 H 0.31552 0.02573 0.31529
 H300 H 0.36173 -0.11453 0.31822
 H301 H 0.31862 -0.11456 0.36171
 H302 H 0.23193 -0.03135 0.39584
 H303 H 0.23191 0.02977 0.39557
 H304 H 0.36130 0.11305 0.31762
 H305 H 0.31548 -0.02752 0.31537
 H306 H 0.31798 0.11301 0.36096
 C307 C 0.75086 0.01573 0.61567
 C308 C 0.75088 -0.01609 0.61585
 C309 C 0.72487 -0.02527 0.63245
 N310 N 0.70892 -0.00011 0.64226
 C311 C 0.72483 0.02500 0.63216
 C312 C 0.71498 -0.05632 0.63604
 C313 C 0.68988 -0.06551 0.65506
 C314 C 0.67629 -0.09470 0.65471
 C315 C 0.65369 -0.09468 0.67726
 C316 C 0.65405 -0.06545 0.69082
 N317 N 0.67643 -0.04798 0.67735
 C318 C 0.63500 -0.05616 0.71589
 C319 C 0.63151 -0.02498 0.72555
 C320 C 0.61495 -0.01553 0.75151
 C321 C 0.61485 0.01628 0.75118
 C322 C 0.63137 0.02532 0.72507
 N323 N 0.64138 0.00007 0.70938
 C324 C 0.63471 0.05631 0.71489
 C325 C 0.65379 0.06543 0.68982
 C326 C 0.65336 0.09453 0.67600
 C327 C 0.67606 0.09446 0.65353
 C328 C 0.68974 0.06533 0.65423
 N329 N 0.67626 0.04794 0.67666
 C330 C 0.71491 0.05605 0.63539
 H331 H 0.76781 0.03036 0.60425
 H332 H 0.76785 -0.03078 0.60459
 H333 H 0.68408 0.02659 0.68466
 H334 H 0.68212 -0.11406 0.63983
 H335 H 0.63875 -0.11403 0.68308
 H336 H 0.60365 -0.03006 0.76864
 H337 H 0.60349 0.03105 0.76800
 H338 H 0.68188 0.11372 0.63846
 H339 H 0.68422 -0.02654 0.68508
 H340 H 0.63834 0.11385 0.68158
 C341 C 0.38415 1.01703 0.75157
 C342 C 0.38430 0.98522 0.75161
 C343 C 0.36804 0.97593 0.72545
 N344 N 0.35811 1.00101 0.70939
 C345 C 0.36780 1.02621 0.72535
 C346 C 0.36487 0.94486 0.71556
 C347 C 0.34602 0.93554 0.69043
 C348 C 0.34668 0.90639 0.67680
 C349 C 0.32414 0.90626 0.65418
 C350 C 0.31032 0.93533 0.65461
 N351 N 0.32357 0.95289 0.67699
 C352 C 0.28519 0.94439 0.63562
 C353 C 0.27510 0.97537 0.63213
 C354 C 0.24897 0.98436 0.61563
 C355 C 0.24881 1.01617 0.61545
 C356 C 0.27488 1.02565 0.63184
 N357 N 0.29095 1.00064 0.64187
 C358 C 0.28475 1.05680 0.63501
 C359 C 0.30989 1.06612 0.65397
 C360 C 0.32367 1.09525 0.65329
 C361 C 0.34616 1.09538 0.67594
 C362 C 0.34557 1.06632 0.68991
 N363 N 0.32318 1.04879 0.67657
 C364 C 0.36440 1.05727 0.71525
 H365 H 0.39528 1.03174 0.76861
 H366 H 0.39556 0.97061 0.76868
 H367 H 0.31527 1.02747 0.68459
 H368 H 0.36175 0.88716 0.68263
 H369 H 0.31849 0.88690 0.63922
 H370 H 0.23204 0.96955 0.60444
 H371 H 0.23173 1.03067 0.60408
 H372 H 0.36115 1.11473 0.68158
 H373 H 0.31559 0.97423 0.68478
 H374 H 0.31801 1.11448 0.63813
 C375 C 0.75143 0.98377 0.38491
 C376 C 0.75161 1.01559 0.38496
 C377 C 0.72556 1.02502 0.36851
 N378 N 0.70947 0.99997 0.35858
 C379 C 0.72530 0.97472 0.36844
 C380 C 0.71577 1.05618 0.36512
 C381 C 0.69066 1.06545 0.34607
 C382 C 0.67702 1.09464 0.34644
 C383 C 0.65448 1.09465 0.32382
 C384 C 0.65492 1.06549 0.31023
 N385 N 0.67725 1.04799 0.32369
 C386 C 0.63592 1.05630 0.28514
 C387 C 0.63231 1.02526 0.27529
 C388 C 0.61562 1.01611 0.24934
 C389 C 0.61540 0.98429 0.24941
 C390 C 0.63196 0.97499 0.27540
 N391 N 0.64213 1.00009 0.29125
 C392 C 0.63522 0.94393 0.28535
 C393 C 0.65425 0.93465 0.31040
 C394 C 0.65371 0.90550 0.32408
 C395 C 0.67634 0.90544 0.34662
 C396 C 0.69008 0.93456 0.34611
 N397 N 0.67672 0.95207 0.32373
 C398 C 0.71524 0.94371 0.36503
 H399 H 0.76835 0.96901 0.39616
 H400 H 0.76870 1.03012 0.39626
 H401 H 0.68463 0.97345 0.31589
 H402 H 0.68279 1.11399 0.36138
 H403 H 0.63955 1.11399 0.31799
 H404 H 0.60433 1.03081 0.23237
 H405 H 0.60391 0.96968 0.23252
 H406 H 0.68208 0.88609 0.36161
 H407 H 0.68502 1.02658 0.31588
 H408 H 0.63866 0.88621 0.31836
 O409 O 0.81667 0.85863 0.53073
 O410 O 0.85963 0.81604 0.47066
 O411 O 0.81671 0.85860 0.47058
 O412 O 0.85950 0.81598 0.53081
 O413 O 0.82341 0.77946 0.53093
 O414 O 0.78041 0.82229 0.47043
 O415 O 0.82355 0.77952 0.47051
 O416 O 0.78036 0.82233 0.53084
 Cu417 Cu 0.84176 0.84097 0.50070
 Cu418 Cu 0.79826 0.79720 0.50068
 C419 C 0.79118 0.84786 0.54077
 C420 C 0.84903 0.79051 0.46059
 C421 C 0.79125 0.84783 0.46049
 C422 C 0.84886 0.79044 0.54088
 O423 O 0.14110 0.18344 0.47024
 O424 O 0.18404 0.14068 0.53031
 O425 O 0.14148 0.18359 0.53039
 O426 O 0.18380 0.14065 0.47016
 O427 O 0.22029 0.17677 0.46975
 O428 O 0.17777 0.21991 0.53024
 O429 O 0.22055 0.17679 0.53016
 O430 O 0.17738 0.21977 0.46983
 Cu431 Cu 0.15895 0.15846 0.50030
 Cu432 Cu 0.20269 0.20198 0.49996
 C433 C 0.15180 0.20891 0.46005
 C434 C 0.20962 0.15133 0.54023
 C435 C 0.15229 0.20909 0.54033
 C436 C 0.20928 0.15128 0.45994
 O437 O 0.14164 0.81622 0.52969
 O438 O 0.18471 0.85890 0.46966
 O439 O 0.14204 0.81608 0.46955
 O440 O 0.18444 0.85892 0.52981
 O441 O 0.22084 0.82276 0.53023
 O442 O 0.17824 0.77970 0.46971
 O443 O 0.22112 0.82276 0.46981
 O444 O 0.17782 0.77983 0.53011
 Cu445 Cu 0.15956 0.84117 0.49965
 Cu446 Cu 0.20319 0.79758 0.50000
 C447 C 0.15227 0.79074 0.53988
 C448 C 0.21026 0.84822 0.45974
 C449 C 0.15280 0.79058 0.45960
 C450 C 0.20988 0.84826 0.54004
 O451 O 0.81663 0.14057 0.46929
 O452 O 0.85941 0.18358 0.52925
 O453 O 0.81660 0.14083 0.52945
 O454 O 0.85931 0.18347 0.46909
 O455 O 0.82310 0.21982 0.46883
 O456 O 0.78019 0.17699 0.52944
 O457 O 0.82321 0.21995 0.52925
 O458 O 0.78020 0.17670 0.46903
 Cu459 Cu 0.84163 0.15848 0.49928
 Cu460 Cu 0.79800 0.20204 0.49912
 C461 C 0.79110 0.15118 0.45920
 C462 C 0.84872 0.20911 0.53923
 C463 C 0.79110 0.15153 0.53948
 C464 C 0.84860 0.20894 0.45894
 O465 O 0.47069 0.85977 0.81711
 O466 O 0.53077 0.81693 0.85990
 O467 O 0.53084 0.85971 0.81708
 O468 O 0.47061 0.81686 0.85976
 O469 O 0.47050 0.78053 0.82353
 O470 O 0.53098 0.82358 0.78067
 O471 O 0.53091 0.78059 0.82370
 O472 O 0.47057 0.82367 0.78068
 Cu473 Cu 0.50073 0.84195 0.84211
 Cu474 Cu 0.50075 0.79842 0.79846
 C475 C 0.46064 0.84914 0.79159
 C476 C 0.54082 0.79144 0.84923
 C477 C 0.54091 0.84907 0.79158
 C478 C 0.46054 0.79138 0.84903
 O479 O 0.53032 0.18365 0.14030
 O480 O 0.47032 0.14079 0.18322
 O481 O 0.47018 0.18354 0.14043
 O482 O 0.53047 0.14109 0.18329
 O483 O 0.53052 0.17737 0.21956
 O484 O 0.46997 0.22000 0.17651
 O485 O 0.47011 0.17704 0.21952
 O486 O 0.53038 0.22014 0.17635
 Cu487 Cu 0.50033 0.15861 0.15818
 Cu488 Cu 0.50024 0.20233 0.20165
 C489 C 0.54032 0.20921 0.15088
 C490 C 0.46023 0.15149 0.20870
 C491 C 0.46005 0.20902 0.15105
 C492 C 0.54051 0.15188 0.20875
 O493 O 0.52866 0.14145 0.81569
 O494 O 0.46866 0.18423 0.85856
 O495 O 0.46852 0.14157 0.81576
 O496 O 0.52881 0.18417 0.85838
 O497 O 0.52895 0.22062 0.82219
 O498 O 0.46839 0.17780 0.77935
 O499 O 0.46853 0.22068 0.82238
 O500 O 0.52880 0.17768 0.77928
 Cu501 Cu 0.49866 0.15921 0.84074
 Cu502 Cu 0.49866 0.20288 0.79712
 C503 C 0.53873 0.15216 0.79018
 C504 C 0.45863 0.20976 0.84790
 C505 C 0.45844 0.15229 0.79027
 C506 C 0.53891 0.20966 0.84766
 O507 O 0.46906 0.81607 0.14128
 O508 O 0.52910 0.85896 0.18412
 O509 O 0.52922 0.81615 0.14148
 O510 O 0.46894 0.85884 0.18400
 O511 O 0.46876 0.82268 0.22047
 O512 O 0.52929 0.77977 0.17774
 O513 O 0.52917 0.82279 0.22058
 O514 O 0.46887 0.77969 0.17753
 Cu515 Cu 0.49908 0.84114 0.15907
 Cu516 Cu 0.49901 0.79756 0.20277
 C517 C 0.45900 0.79054 0.15197
 C518 C 0.53913 0.84830 0.20966
 C519 C 0.53928 0.79067 0.15225
 C520 C 0.45884 0.84817 0.20951
 O521 O 0.81623 0.47066 0.85866
 O522 O 0.85906 0.53080 0.81586
 O523 O 0.81628 0.53081 0.85858
 O524 O 0.85890 0.47066 0.81585
 O525 O 0.82269 0.47059 0.77946
 O526 O 0.77987 0.53100 0.82240
 O527 O 0.82287 0.53100 0.77947
 O528 O 0.77981 0.47059 0.82250
 Cu529 Cu 0.84126 0.50073 0.84088
 Cu530 Cu 0.79762 0.50081 0.79728
 C531 C 0.79071 0.46062 0.84799
 C532 C 0.84839 0.54090 0.79036
 C533 C 0.79079 0.54091 0.84789
 C534 C 0.84817 0.46062 0.79036
 O535 O 0.18357 0.47058 0.14049
 O536 O 0.14082 0.53061 0.18333
 O537 O 0.18375 0.53074 0.14072
 O538 O 0.14080 0.47046 0.18323
 O539 O 0.17692 0.47016 0.21969
 O540 O 0.22007 0.53069 0.17699
 O541 O 0.17692 0.53057 0.21981
 O542 O 0.21991 0.47027 0.17674
 Cu543 Cu 0.15860 0.50062 0.15829
 Cu544 Cu 0.20213 0.50041 0.20199
 C545 C 0.20904 0.46044 0.15120
 C546 C 0.15146 0.54056 0.20889
 C547 C 0.20925 0.54073 0.15149
 C548 C 0.15143 0.46029 0.20872
 O549 O 0.85907 0.46927 0.18415
 O550 O 0.81628 0.52934 0.14125
 O551 O 0.85899 0.52942 0.18403
 O552 O 0.81634 0.46920 0.14139
 O553 O 0.77991 0.46904 0.17755
 O554 O 0.82279 0.52952 0.22042
 O555 O 0.77986 0.52944 0.17742
 O556 O 0.82287 0.46910 0.22054
 Cu557 Cu 0.84131 0.49931 0.15906
 Cu558 Cu 0.79767 0.49927 0.20266
 C559 C 0.84838 0.45920 0.20967
 C560 C 0.79077 0.53939 0.15191
 C561 C 0.84827 0.53949 0.20950
 C562 C 0.79084 0.45911 0.15208
 O563 O 0.14074 0.46941 0.81650
 O564 O 0.18373 0.52931 0.85942
 O565 O 0.14090 0.52956 0.81673
 O566 O 0.18364 0.46916 0.85914
 O567 O 0.21996 0.46917 0.82287
 O568 O 0.17700 0.52983 0.78025
 O569 O 0.22004 0.52959 0.82315
 O570 O 0.17684 0.46943 0.78002
 Cu571 Cu 0.15862 0.49934 0.84160
 Cu572 Cu 0.20213 0.49952 0.79789
 C573 C 0.15134 0.45947 0.79093
 C574 C 0.20922 0.53942 0.84871
 C575 C 0.15155 0.53974 0.79125
 C576 C 0.20910 0.45913 0.84835
 C577 C 0.26928 0.38343 0.07866
 C578 C 0.25607 0.39985 0.09705
 C579 C 0.24012 0.42004 0.11729
 C580 C 0.22612 0.43807 0.13344
 C581 C 0.73036 0.61658 0.07951
 C582 C 0.74363 0.60010 0.09785
 C583 C 0.75963 0.57985 0.11803
 C584 C 0.77366 0.56178 0.13415
 C585 C 0.73035 0.38340 0.92043
 C586 C 0.74361 0.39988 0.90207
 C587 C 0.75959 0.42013 0.88186
 C588 C 0.77361 0.43821 0.86574
 C589 C 0.26979 0.61634 0.92120
 C590 C 0.25652 0.59993 0.90282
 C591 C 0.24048 0.57975 0.88261
 C592 C 0.22639 0.56175 0.86648
 C593 C 0.07907 0.26926 0.38317
 C594 C 0.09750 0.25602 0.39955
 C595 C 0.11779 0.24003 0.41970
 C596 C 0.13398 0.22601 0.43770
 C597 C 0.07938 0.73059 0.61681
 C598 C 0.09784 0.74379 0.60042
 C599 C 0.11818 0.75970 0.58025
 C600 C 0.13441 0.77368 0.56224
 C601 C 0.92152 0.73031 0.38348
 C602 C 0.90318 0.74355 0.39994
 C603 C 0.88297 0.75950 0.42017
 C604 C 0.86683 0.77348 0.43821
 C605 C 0.92108 0.26977 0.61620
 C606 C 0.90275 0.25646 0.59976
 C607 C 0.88257 0.24039 0.57957
 C608 C 0.86646 0.22629 0.56156
 C609 C 0.38336 0.07880 0.26914
 C610 C 0.39973 0.09723 0.25588
 C611 C 0.41989 0.11753 0.23989
 C612 C 0.43789 0.13371 0.22584
 C613 C 0.61594 0.07971 0.73011
 C614 C 0.59946 0.09811 0.74323
 C615 C 0.57920 0.11833 0.75911
 C616 C 0.56112 0.13445 0.77309
 C617 C 0.38360 0.92160 0.73111
 C618 C 0.40003 0.90326 0.74441
 C619 C 0.42023 0.88305 0.76043
 C620 C 0.43827 0.86692 0.77448
 C621 C 0.61641 0.92064 0.26997
 C622 C 0.59990 0.90232 0.25674
 C623 C 0.57962 0.88214 0.24077
 C624 C 0.56153 0.86604 0.22676
 C625 C 0.38199 0.27015 0.92072
 C626 C 0.39829 0.25691 0.90224
 C627 C 0.41837 0.24092 0.88191
 C628 C 0.43632 0.22688 0.86571
 C629 C 0.61738 0.73074 0.92200
 C630 C 0.60111 0.74408 0.90354
 C631 C 0.58106 0.76017 0.88322
 C632 C 0.56312 0.77426 0.86703
 C633 C 0.38246 0.72983 0.07919
 C634 C 0.39873 0.74315 0.09767
 C635 C 0.41878 0.75924 0.11798
 C636 C 0.43671 0.77335 0.13417
 C637 C 0.61703 0.26961 0.07798
 C638 C 0.60071 0.25636 0.09647
 C639 C 0.58061 0.24037 0.11682
 C640 C 0.56264 0.22634 0.13305
 C641 C 0.27008 0.07881 0.61724
 C642 C 0.25683 0.09721 0.60083
 C643 C 0.24082 0.11745 0.58063
 C644 C 0.22677 0.13359 0.56260
 C645 C 0.73051 0.07826 0.38272
 C646 C 0.74383 0.09674 0.39899
 C647 C 0.75989 0.11708 0.41902
 C648 C 0.77396 0.13331 0.43694
 C649 C 0.73048 0.92028 0.61750
 C650 C 0.74380 0.90187 0.60119
 C651 C 0.75988 0.88165 0.58108
 C652 C 0.77398 0.86555 0.56310
 C653 C 0.27057 0.92081 0.38267
 C654 C 0.25740 0.90234 0.39909
 C655 C 0.24146 0.88207 0.41930
 C656 C 0.22742 0.86593 0.43736
 C657 C 0.07856 0.38296 0.73016
 C658 C 0.09700 0.39924 0.74351
 C659 C 0.11730 0.41929 0.75962
 C660 C 0.13350 0.43721 0.77374
 C661 C 0.07879 0.61717 0.26950
 C662 C 0.09723 0.60087 0.25618
 C663 C 0.11751 0.58080 0.24012
 C664 C 0.13368 0.56286 0.22604
 C665 C 0.92100 0.38230 0.27014
 C666 C 0.90254 0.39866 0.25690
 C667 C 0.88227 0.41881 0.24088
 C668 C 0.86613 0.43683 0.22682
 C669 C 0.92121 0.61774 0.73002
 C670 C 0.90271 0.60141 0.74324
 C671 C 0.88237 0.58128 0.75921
 C672 C 0.86617 0.56327 0.77324
 C673 C 0.73039 0.61764 0.92044
 C674 C 0.74366 0.60135 0.90201
 C675 C 0.75968 0.58125 0.88176
 C676 C 0.77371 0.56326 0.86562
 C677 C 0.26971 0.38226 0.92077
 C678 C 0.25640 0.39856 0.90232
 C679 C 0.24034 0.41867 0.88208
 C680 C 0.22625 0.43670 0.86599
 C681 C 0.27017 0.61752 0.07911
 C682 C 0.25680 0.60123 0.09755
 C683 C 0.24064 0.58112 0.11776
 C684 C 0.22647 0.56312 0.13384
 C685 C 0.73042 0.38241 0.07948
 C686 C 0.74370 0.39868 0.09793
 C687 C 0.75971 0.41876 0.11821
 C688 C 0.77375 0.43674 0.13436
 C689 C 0.92149 0.73006 0.61775
 C690 C 0.90304 0.74333 0.60142
 C691 C 0.88277 0.75933 0.58129
 C692 C 0.86662 0.77337 0.56327
 C693 C 0.92116 0.26964 0.38214
 C694 C 0.90272 0.25628 0.39843
 C695 C 0.88247 0.24016 0.41853
 C696 C 0.86634 0.22606 0.43654
 C697 C 0.08016 0.26987 0.61716
 C698 C 0.09854 0.25654 0.60085
 C699 C 0.11870 0.24042 0.58074
 C700 C 0.13472 0.22629 0.56272
 C701 C 0.08056 0.73010 0.38260
 C702 C 0.09897 0.74336 0.39895
 C703 C 0.11916 0.75937 0.41912
 C704 C 0.13521 0.77344 0.43718
 C705 C 0.61747 0.92176 0.73073
 C706 C 0.60123 0.90330 0.74414
 C707 C 0.58120 0.88302 0.76030
 C708 C 0.56325 0.86686 0.77443
 C709 C 0.38227 0.92090 0.26993
 C710 C 0.39851 0.90241 0.25664
 C711 C 0.41854 0.88210 0.24062
 C712 C 0.43650 0.86593 0.22658
 C713 C 0.61741 0.07971 0.26959
 C714 C 0.60109 0.09808 0.25622
 C715 C 0.58095 0.11823 0.24008
 C716 C 0.56292 0.13427 0.22594
 C717 C 0.38188 0.07948 0.72988
 C718 C 0.39809 0.09804 0.74313
 C719 C 0.41811 0.11839 0.75913
 C720 C 0.43608 0.13457 0.77317
 C721 C 0.61644 0.73048 0.07995
 C722 C 0.60003 0.74366 0.09835
 C723 C 0.57981 0.75960 0.11855
 C724 C 0.56173 0.77360 0.13462
 C725 C 0.38296 0.26933 0.07861
 C726 C 0.39935 0.25605 0.09699
 C727 C 0.41955 0.24004 0.11719
 C728 C 0.43761 0.22604 0.13330
 C729 C 0.61617 0.26966 0.92005
 C730 C 0.59974 0.25652 0.90164
 C731 C 0.57949 0.24064 0.88142
 C732 C 0.56138 0.22669 0.86533
 C733 C 0.38353 0.73059 0.92128
 C734 C 0.39991 0.74395 0.90293
 C735 C 0.42009 0.76008 0.88277
 C736 C 0.43814 0.77421 0.86671
 C737 C 0.73068 0.92028 0.38361
 C738 C 0.74397 0.90186 0.39995
 C739 C 0.76002 0.88163 0.42009
 C740 C 0.77411 0.86552 0.43811
 C741 C 0.26986 0.92092 0.61704
 C742 C 0.25669 0.90246 0.60068
 C743 C 0.24080 0.88217 0.58052
 C744 C 0.22686 0.86601 0.56246
 C745 C 0.26945 0.07869 0.38304
 C746 C 0.25619 0.09709 0.39938
 C747 C 0.24023 0.11733 0.41952
 C748 C 0.22625 0.13349 0.43755
 C749 C 0.73044 0.07935 0.61669
 C750 C 0.74379 0.09767 0.60025
 C751 C 0.75988 0.11780 0.58001
 C752 C 0.77398 0.13386 0.56193
 C753 C 0.92085 0.61648 0.26960
 C754 C 0.90238 0.60012 0.25644
 C755 C 0.88211 0.57995 0.24053
 C756 C 0.86597 0.56190 0.22655
 C757 C 0.92059 0.38369 0.73004
 C758 C 0.90217 0.40005 0.74325
 C759 C 0.88194 0.42020 0.75923
 C760 C 0.86585 0.43823 0.77326
 C761 C 0.07909 0.61685 0.73101
 C762 C 0.09746 0.60046 0.74428
 C763 C 0.11768 0.58026 0.76026
 C764 C 0.13381 0.56219 0.77425
 C765 C 0.07889 0.38323 0.26913
 C766 C 0.09727 0.39963 0.25583
 C767 C 0.11750 0.41982 0.23980
 C768 C 0.13364 0.43787 0.22577
   
