data_POSCAR
  _audit_creation_date              2014-09-24
  _audit_creation_method            'ToBaCCo'
  _symmetry_space_group_name_H-M    'P1'
  _symmetry_Int_Tables_number       1
  _symmetry_cell_setting            triclinic
  loop_
  _symmetry_equiv_pos_as_xyz
 x,y,z
_cell_length_a 49.9585
_cell_length_b 50.0585
_cell_length_c 22.2468
_cell_angle_alpha 89.417700
_cell_angle_beta 90.375500
_cell_angle_gamma 119.487200
loop_
  _atom_site_label
  _atom_site_type_symbol
  _atom_site_fract_x
  _atom_site_fract_y
  _atom_site_fract_z
C1 C 0.14050 0.42779 0.50119
 C2 C 0.15249 0.42392 0.44759
 C3 C 0.17943 0.42183 0.44813
 C4 C 0.19599 0.42543 0.50204
 C5 C 0.18364 0.43001 0.55579
 C6 C 0.15586 0.43063 0.55540
 C7 C 0.22640 0.42578 0.50170
 C8 C 0.23961 0.42249 0.55577
 C9 C 0.26882 0.42516 0.55627
 C10 C 0.28477 0.42944 0.50268
 C11 C 0.27208 0.43198 0.44841
 C12 C 0.24341 0.43073 0.44783
 H13 H 0.11971 0.42960 0.50046
 H14 H 0.18738 0.41800 0.40578
 H15 H 0.19565 0.43407 0.59813
 H16 H 0.22790 0.41839 0.59829
 H17 H 0.30755 0.43179 0.50345
 H18 H 0.23534 0.43456 0.40526
 C19 C 0.56964 -0.28789 0.48677
 C20 C 0.56730 -0.27490 0.43249
 C21 C 0.56763 -0.24682 0.43216
 C22 C 0.57131 -0.23069 0.48591
 C23 C 0.57429 -0.24384 0.54041
 C24 C 0.57272 -0.27263 0.54088
 C25 C 0.56989 -0.20148 0.48499
 C26 C 0.55841 -0.19312 0.53488
 C27 C 0.55534 -0.16682 0.53282
 C28 C 0.56266 -0.14904 0.48045
 C29 C 0.57362 -0.15711 0.43019
 C30 C 0.57806 -0.18265 0.43288
 H31 H 0.56812 -0.31030 0.48707
 H32 H 0.56383 -0.23830 0.38988
 H33 H 0.57727 -0.23216 0.58267
 H34 H 0.55091 -0.20734 0.57495
 H35 H 0.55920 -0.12928 0.47839
 H36 H 0.58733 -0.18792 0.39379
 C37 C 1.29622 0.84531 0.50426
 C38 C 1.28354 0.82707 0.45360
 C39 C 1.25378 0.80193 0.45575
 C40 C 1.23570 0.79519 0.50817
 C41 C 1.24876 0.81442 0.55872
 C42 C 1.27907 0.83887 0.55701
 C43 C 1.20423 0.76737 0.51077
 C44 C 1.19163 0.75269 0.56621
 C45 C 1.16319 0.72566 0.56853
 C46 C 1.14730 0.71227 0.51549
 C47 C 1.15947 0.72609 0.46004
 C48 C 1.18726 0.75390 0.45770
 H49 H 1.31967 0.86425 0.50302
 H50 H 1.24533 0.78739 0.41666
 H51 H 1.23582 0.81050 0.59976
 H52 H 1.20425 0.76136 0.60775
 H53 H 1.12598 0.69053 0.51714
 H54 H 1.19566 0.76435 0.41411
 C55 C 0.85877 0.57801 0.50025
 C56 C 0.84312 0.57533 0.44656
 C57 C 0.81574 0.57651 0.44662
 C58 C 0.80419 0.58195 0.50024
 C59 C 0.82109 0.58565 0.55396
 C60 C 0.84753 0.58260 0.55413
 C61 C 0.77388 0.58171 0.50052
 C62 C 0.75692 0.57616 0.55430
 C63 C 0.72808 0.57442 0.55427
 C64 C 0.71496 0.57677 0.50031
 C65 C 0.73090 0.58165 0.44643
 C66 C 0.76053 0.58517 0.44664
 H67 H 0.87915 0.57552 0.50037
 H68 H 0.80332 0.57212 0.40468
 H69 H 0.81375 0.59021 0.59633
 H70 H 0.76527 0.57211 0.59641
 H71 H 0.69196 0.57390 0.49991
 H72 H 0.77245 0.58997 0.40420
 C73 C 0.43589 0.28834 0.50325
 C74 C 0.43731 0.27568 0.44867
 C75 C 0.43479 0.24664 0.44726
 C76 C 0.42937 0.22900 0.50035
 C77 C 0.42730 0.24197 0.55531
 C78 C 0.43143 0.27184 0.55677
 C79 C 0.42779 0.19823 0.49831
 C80 C 0.43561 0.18634 0.54931
 C81 C 0.43595 0.15857 0.54612
 C82 C 0.42955 0.14285 0.49195
 C83 C 0.42247 0.15439 0.44079
 C84 C 0.42057 0.18132 0.44412
 H85 H 0.43919 0.31145 0.50414
 H86 H 0.43807 0.23859 0.40453
 H87 H 0.42300 0.22936 0.59718
 H88 H 0.44256 0.19894 0.59099
 H89 H 0.43136 0.12215 0.48887
 H90 H 0.41427 0.18916 0.40381
 C91 C 0.70427 0.14964 0.52074
 C92 C 0.71505 0.16447 0.46552
 C93 C 0.74360 0.19131 0.46191
 C94 C 0.76249 0.20314 0.51332
 C95 C 0.75149 0.18709 0.56850
 C96 C 0.72223 0.16111 0.57238
 C97 C 0.79249 0.23280 0.51006
 C98 C 0.80511 0.25080 0.56205
 C99 C 0.83246 0.27890 0.55909
 C100 C 0.84703 0.29018 0.50397
 C101 C 0.83468 0.27329 0.45170
 C102 C 0.80809 0.24441 0.45475
 H103 H 0.68158 0.12955 0.52373
 H104 H 0.75030 0.20309 0.41904
 H105 H 0.76511 0.19472 0.60910
 H106 H 0.79347 0.24379 0.60489
 H107 H 0.86752 0.31260 0.50137
 H108 H 0.79965 0.23160 0.41360
 O109 O 0.98632 0.53072 -0.09560
 O110 O 1.01396 0.53983 0.11196
 O111 O 0.94721 0.50924 0.03887
 O112 O 1.05323 0.56000 -0.02246
 O113 O 0.96192 0.49866 0.12048
 O114 O 1.03737 0.53817 -0.10624
 O115 O 1.05688 0.54687 0.07833
 O116 O 0.94263 0.49599 -0.06360
 C117 C 0.95841 0.52084 -0.09085
 C118 C 1.04205 0.55644 0.10756
 C119 C 0.94920 0.51129 0.09386
 C120 C 1.05136 0.56222 -0.07717
 O121 O 1.01472 0.47697 -0.09873
 O122 O 0.98154 0.45763 0.10570
 O123 O 0.94595 0.44416 -0.03288
 O124 O 1.05020 0.49159 0.03994
 O125 O 1.03325 0.49819 0.12199
 O126 O 0.96405 0.47014 -0.11261
 O127 O 1.05753 0.50988 -0.06033
 O128 O 0.93958 0.45228 0.06930
 Co129 Co 1.00047 0.50372 -0.09226
 Co130 Co 0.99782 0.49884 0.10404
 Co131 Co 0.94919 0.47791 0.00324
 Co132 Co 1.04912 0.52458 0.00861
 O133 O 0.99915 0.50125 0.00590
 C134 C 1.04249 0.48660 -0.09190
 C135 C 0.95358 0.44141 0.09830
 C136 C 0.94903 0.44474 -0.08774
 C137 C 1.04676 0.48692 0.09443
 O138 O 0.47531 0.45860 -0.10468
 O139 O 0.46026 0.47713 0.09886
 O140 O 0.49593 0.44334 0.03394
 O141 O 0.44109 0.49351 -0.03988
 O142 O 0.50316 0.46864 0.11371
 O143 O 0.46490 0.50006 -0.12163
 O144 O 0.45144 0.51122 0.06010
 O145 O 0.51119 0.45199 -0.06786
 C146 C 0.48670 0.44185 -0.09714
 C147 C 0.44274 0.48769 0.09205
 C148 C 0.49274 0.44343 0.08858
 C149 C 0.44013 0.48897 -0.09419
 O150 O 0.52555 0.54051 -0.11100
 O151 O 0.54200 0.52918 0.09690
 O152 O 0.56038 0.50817 -0.03694
 O153 O 0.50610 0.56068 0.02242
 O154 O 0.49929 0.53802 0.10631
 O155 O 0.53580 0.49872 -0.11883
 O156 O 0.49006 0.54853 -0.07860
 O157 O 0.55077 0.49406 0.06575
 Co158 Co 0.50041 0.49966 -0.10314
 Co159 Co 0.50113 0.50304 0.09297
 Co160 Co 0.52680 0.47701 -0.00169
 Co161 Co 0.47493 0.52584 -0.00868
 O162 O 0.50082 0.50138 -0.00511
 C163 C 0.51463 0.55777 -0.10697
 C164 C 0.55976 0.51883 0.09273
 C165 C 0.56082 0.51075 -0.09199
 C166 C 0.50982 0.56235 0.07717
 O167 O 0.55028 0.01279 -0.07178
 O168 O 0.50515 -0.03740 0.11206
 O169 O 0.54130 0.05754 0.06266
 O170 O 0.47232 -0.08225 -0.04944
 O171 O 0.52983 0.01893 0.12608
 O172 O 0.51372 -0.04189 -0.07988
 O173 O 0.51404 -0.04914 0.02441
 O174 O 0.54914 0.05430 -0.04735
 C175 C 0.56353 0.04129 -0.06685
 C176 C 0.51862 -0.04736 0.07951
 C177 C 0.54631 0.04652 0.11014
 C178 C 0.49389 -0.06961 -0.08958
 O179 O 0.46975 -0.02830 -0.11431
 O180 O 0.47741 0.01660 0.11623
 O181 O 0.48811 0.03931 -0.06257
 O182 O 0.45726 -0.07284 0.05711
 O183 O 0.45076 -0.03756 0.09283
 O184 O 0.51099 0.02592 -0.12378
 O185 O 0.44430 -0.05223 -0.03502
 O186 O 0.48473 0.04682 0.04067
 Co187 Co 0.50965 -0.00768 -0.08763
 Co188 Co 0.49127 -0.00984 0.10207
 Co189 Co 0.51456 0.04487 -0.00185
 Co190 Co 0.47980 -0.04891 -0.00607
 O191 O 0.49880 -0.00320 0.00636
 C192 C 0.44446 -0.04446 -0.08846
 C193 C 0.47449 0.03736 0.09163
 C194 C 0.49460 0.03752 -0.11462
 C195 C 0.44223 -0.06523 0.08988
 C196 C 1.09066 0.45346 0.19962
 C197 C 1.11981 0.47520 0.22240
 C198 C 1.13341 0.46677 0.26979
 C199 C 1.11767 0.43669 0.29430
 C200 C 1.08931 0.41452 0.26939
 C201 C 1.07574 0.42293 0.22181
 C202 C 1.04709 0.40058 0.19831
 C203 C 1.03231 0.37070 0.22108
 C204 C 1.04556 0.36246 0.26765
 C205 C 1.07376 0.38405 0.29174
 C206 C 1.16237 0.48904 0.29254
 C207 C 1.17733 0.51885 0.26938
 C208 C 1.16394 0.52714 0.22319
 C209 C 1.13555 0.50566 0.19972
 C210 C 1.12953 0.42968 0.34822
 C211 C 1.13993 0.42586 0.39443
 C212 C 1.07485 0.46348 0.15815
 C213 C 1.06186 0.47334 0.12696
 H214 H 1.03591 0.40592 0.16201
 H215 H 1.01051 0.35384 0.20243
 H216 H 1.03395 0.33922 0.28519
 H217 H 1.08329 0.37661 0.32776
 H218 H 1.17378 0.48367 0.32830
 H219 H 1.19943 0.53560 0.28738
 H220 H 1.17563 0.55033 0.20538
 H221 H 1.12615 0.51317 0.16360
 C222 C 0.53624 0.63720 0.18177
 C223 C 0.56721 0.65899 0.19403
 C224 C 0.57437 0.67922 0.24335
 C225 C 0.55043 0.67742 0.27988
 C226 C 0.51933 0.65714 0.26485
 C227 C 0.51221 0.63699 0.21550
 C228 C 0.48095 0.61668 0.20151
 C229 C 0.45742 0.61641 0.23521
 C230 C 0.46439 0.63600 0.28377
 C231 C 0.49494 0.65617 0.29865
 C232 C 0.60553 0.70062 0.25533
 C233 C 0.62895 0.70216 0.21916
 C234 C 0.62190 0.68248 0.17065
 C235 C 0.59141 0.66090 0.15831
 C236 C 0.55757 0.69535 0.33427
 C237 C 0.56255 0.70949 0.38029
 C238 C 0.52894 0.61284 0.13932
 C239 C 0.52120 0.59071 0.10823
 H240 H 0.47437 0.60102 0.16410
 H241 H 0.43365 0.60086 0.22365
 H242 H 0.44602 0.63560 0.31001
 H243 H 0.49920 0.67111 0.33659
 H244 H 0.61206 0.71651 0.29234
 H245 H 0.65268 0.71870 0.22881
 H246 H 0.64016 0.68379 0.14267
 H247 H 0.58698 0.64598 0.12023
 C248 C 0.37609 -0.12250 0.20712
 C249 C 0.34514 -0.12935 0.20162
 C250 C 0.32463 -0.14307 0.25063
 C251 C 0.33529 -0.14977 0.30473
 C252 C 0.36568 -0.14479 0.30874
 C253 C 0.38616 -0.13115 0.25969
 C254 C 0.41663 -0.12592 0.26497
 C255 C 0.42653 -0.13400 0.31728
 C256 C 0.40649 -0.14730 0.36534
 C257 C 0.37640 -0.15265 0.36141
 C258 C 0.29388 -0.14927 0.24462
 C259 C 0.28368 -0.14218 0.19151
 C260 C 0.30377 -0.12873 0.14353
 C261 C 0.33420 -0.12228 0.14832
 C262 C 0.31589 -0.15944 0.35760
 C263 C 0.30044 -0.16625 0.40241
 C264 C 0.39833 -0.10387 0.16178
 C265 C 0.41780 -0.08692 0.12705
 H266 H 0.43301 -0.11574 0.22869
 H267 H 0.44987 -0.12994 0.32051
 H268 H 0.41429 -0.15352 0.40590
 H269 H 0.36162 -0.16314 0.39987
 H270 H 0.27742 -0.15980 0.28068
 H271 H 0.26006 -0.14715 0.18759
 H272 H 0.29571 -0.12329 0.10237
 H273 H 0.34898 -0.11192 0.10978
 C274 C 0.90375 0.54168 0.19983
 C275 C 0.91780 0.57228 0.22047
 C276 C 0.90391 0.58015 0.26747
 C277 C 0.87616 0.55730 0.29362
 C278 C 0.86126 0.52709 0.27072
 C279 C 0.87509 0.51925 0.22359
 C280 C 0.86005 0.48875 0.20203
 C281 C 0.83213 0.46665 0.22641
 C282 C 0.81859 0.47434 0.27251
 C283 C 0.83288 0.50417 0.29460
 C284 C 0.91851 0.61081 0.28790
 C285 C 0.94612 0.63305 0.26266
 C286 C 0.95980 0.62530 0.21689
 C287 C 0.94590 0.59529 0.19582
 C288 C 0.86404 0.56425 0.34657
 C289 C 0.85434 0.56950 0.39172
 C290 C 0.91997 0.53249 0.15856
 C291 C 0.93346 0.52359 0.12722
 H292 H 0.86960 0.48171 0.16598
 H293 H 0.82093 0.44345 0.20937
 H294 H 0.79687 0.45711 0.29123
 H295 H 0.82140 0.50909 0.33036
 H296 H 0.90868 0.61792 0.32332
 H297 H 0.95694 0.65643 0.27867
 H298 H 0.98125 0.64263 0.19749
 H299 H 0.95729 0.59037 0.15989
 C300 C 0.46787 0.37009 0.20033
 C301 C 0.43694 0.34903 0.21495
 C302 C 0.43027 0.32784 0.26313
 C303 C 0.45460 0.32795 0.29632
 C304 C 0.48552 0.34806 0.27988
 C305 C 0.49219 0.36919 0.23166
 C306 C 0.52332 0.38942 0.21656
 C307 C 0.54715 0.38879 0.24831
 C308 C 0.54060 0.36809 0.29549
 C309 C 0.51019 0.34790 0.31129
 C310 C 0.39918 0.30723 0.27753
 C311 C 0.37535 0.30756 0.24524
 C312 C 0.38188 0.32835 0.19817
 C313 C 0.41230 0.34891 0.18298
 C314 C 0.44797 0.30862 0.34927
 C315 C 0.44294 0.29331 0.39423
 C316 C 0.47492 0.39443 0.15696
 C317 C 0.48216 0.41607 0.12388
 H318 H 0.52959 0.40584 0.18002
 H319 H 0.57082 0.40445 0.23622
 H320 H 0.55918 0.36766 0.32001
 H321 H 0.50625 0.33217 0.34823
 H322 H 0.39300 0.29061 0.31369
 H323 H 0.35169 0.29161 0.25682
 H324 H 0.36327 0.32852 0.17326
 H325 H 0.41629 0.36457 0.14587
 C326 C 0.61693 0.09843 0.22431
 C327 C 0.61746 0.12357 0.25400
 C328 C 0.63889 0.13848 0.30117
 C329 C 0.65966 0.12818 0.31824
 C330 C 0.65982 0.10371 0.28712
 C331 C 0.63840 0.08881 0.23995
 C332 C 0.63876 0.06420 0.20987
 C333 C 0.65972 0.05460 0.22595
 C334 C 0.68061 0.06911 0.27223
 C335 C 0.68078 0.09341 0.30260
 C336 C 0.63871 0.16328 0.33083
 C337 C 0.61798 0.17310 0.31427
 C338 C 0.59706 0.15856 0.26804
 C339 C 0.59668 0.13404 0.23812
 C340 C 0.67989 0.14179 0.36942
 C341 C 0.69617 0.15247 0.41282
 C342 C 0.59290 0.08108 0.18094
 C343 C 0.57210 0.06578 0.14714
 H344 H 0.62293 0.05217 0.17362
 H345 H 0.65964 0.03571 0.20256
 H346 H 0.69677 0.06151 0.28469
 H347 H 0.69751 0.10402 0.33820
 H348 H 0.65457 0.17534 0.36701
 H349 H 0.61815 0.19209 0.33745
 H350 H 0.58097 0.16623 0.25542
 H351 H 0.57997 0.12346 0.20246
 C352 C 0.47315 0.08360 -0.24075
 C353 C 0.49548 0.10327 -0.28281
 C354 C 0.48855 0.12122 -0.32316
 C355 C 0.45933 0.11930 -0.32122
 C356 C 0.43716 0.09995 -0.27858
 C357 C 0.44406 0.08196 -0.23832
 C358 C 0.42143 0.06254 -0.19643
 C359 C 0.39287 0.06110 -0.19419
 C360 C 0.38619 0.07883 -0.23339
 C361 C 0.40797 0.09802 -0.27530
 C362 C 0.51120 0.14068 -0.36497
 C363 C 0.53987 0.14234 -0.36683
 C364 C 0.54660 0.12471 -0.32748
 C365 C 0.52477 0.10538 -0.28579
 C366 C 0.45123 0.13530 -0.36612
 C367 C 0.44415 0.14713 -0.40589
 C368 C 0.48053 0.06605 -0.19829
 C369 C 0.48683 0.05232 -0.16130
 H370 H 0.42551 0.04824 -0.16510
 H371 H 0.37585 0.04616 -0.16182
 H372 H 0.36400 0.07767 -0.23141
 H373 H 0.40172 0.11139 -0.30483
 H374 H 0.50704 0.15485 -0.39647
 H375 H 0.55693 0.15736 -0.39906
 H376 H 0.56884 0.12596 -0.32932
 H377 H 0.53107 0.09208 -0.25618
 C378 C 0.63601 0.54033 -0.19906
 C379 C 0.63974 0.51716 -0.22737
 C380 C 0.66092 0.52498 -0.27545
 C381 C 0.67826 0.55592 -0.29476
 C382 C 0.67587 0.57930 -0.26403
 C383 C 0.65466 0.57145 -0.21593
 C384 C 0.65234 0.59508 -0.18622
 C385 C 0.67060 0.62568 -0.20343
 C386 C 0.69127 0.63337 -0.25066
 C387 C 0.69397 0.61053 -0.28080
 C388 C 0.66388 0.50137 -0.30380
 C389 C 0.64643 0.47091 -0.28504
 C390 C 0.62575 0.46327 -0.23789
 C391 C 0.62231 0.48602 -0.20928
 C392 C 0.69713 0.56330 -0.34820
 C393 C 0.71197 0.56876 -0.39365
 C394 C 0.61102 0.53161 -0.15696
 C395 C 0.58882 0.52292 -0.12522
 H396 H 0.63656 0.59015 -0.14925
 H397 H 0.66856 0.64349 -0.18021
 H398 H 0.70527 0.65716 -0.26405
 H399 H 0.71048 0.61760 -0.31706
 H400 H 0.67977 0.50620 -0.34050
 H401 H 0.64900 0.45314 -0.30717
 H402 H 0.61233 0.43960 -0.22333
 H403 H 0.60601 0.47895 -0.17265
 C404 C 0.89986 0.37519 -0.20389
 C405 C 0.89525 0.34500 -0.19969
 C406 C 0.87980 0.32386 -0.24676
 C407 C 0.86915 0.33312 -0.29765
 C408 C 0.87316 0.36312 -0.30121
 C409 C 0.88855 0.38423 -0.25419
 C410 C 0.89258 0.41425 -0.25908
 C411 C 0.88182 0.42313 -0.30908
 C412 C 0.86670 0.40243 -0.35500
 C413 C 0.86232 0.37274 -0.35135
 C414 C 0.87561 0.29384 -0.24188
 C415 C 0.88641 0.28497 -0.19189
 C416 C 0.90156 0.30567 -0.14589
 C417 C 0.90599 0.33540 -0.14950
 C418 C 0.85524 0.31241 -0.34768
 C419 C 0.84425 0.29621 -0.39080
 C420 C 0.91719 0.39760 -0.15817
 C421 C 0.93178 0.41807 -0.12357
 H422 H 0.90409 0.43122 -0.22450
 H423 H 0.88530 0.44621 -0.31227
 H424 H 0.85835 0.40942 -0.39374
 H425 H 0.85040 0.35749 -0.38825
 H426 H 0.86393 0.27694 -0.27652
 H427 H 0.88301 0.26190 -0.18886
 H428 H 0.90993 0.29867 -0.10720
 H429 H 0.91785 0.35072 -0.11262
 C430 C 0.50829 -0.11634 -0.22304
 C431 C 0.52839 -0.12841 -0.21439
 C432 C 0.53643 -0.14070 -0.26390
 C433 C 0.52437 -0.14075 -0.32169
 C434 C 0.50321 -0.12991 -0.32979
 C435 C 0.49514 -0.11765 -0.28026
 C436 C 0.47418 -0.10663 -0.28946
 C437 C 0.46155 -0.10772 -0.34603
 C438 C 0.46936 -0.11984 -0.39446
 C439 C 0.48998 -0.13080 -0.38672
 C440 C 0.55672 -0.15249 -0.25435
 C441 C 0.56878 -0.15204 -0.19747
 C442 C 0.56099 -0.13991 -0.14905
 C443 C 0.54100 -0.12823 -0.15713
 C444 C 0.53475 -0.15071 -0.37311
 C445 C 0.54393 -0.15835 -0.41591
 C446 C 0.50255 -0.10096 -0.17412
 C447 C 0.49837 -0.08716 -0.13468
 H448 H 0.46721 -0.09722 -0.25307
 H449 H 0.44558 -0.09918 -0.35229
 H450 H 0.45936 -0.12080 -0.43825
 H451 H 0.49529 -0.14010 -0.42568
 H452 H 0.56335 -0.16228 -0.29058
 H453 H 0.58424 -0.16119 -0.19095
 H454 H 0.57044 -0.13960 -0.10497
 H455 H 0.53545 -0.11922 -0.11803
 C456 C 0.36292 0.45604 -0.19733
 C457 C 0.35592 0.47805 -0.22203
 C458 C 0.33352 0.46944 -0.26824
 C459 C 0.31826 0.43886 -0.28937
 C460 C 0.32402 0.41648 -0.26230
 C461 C 0.34650 0.42513 -0.21612
 C462 C 0.35242 0.40257 -0.19050
 C463 C 0.33645 0.37224 -0.20981
 C464 C 0.31439 0.36376 -0.25488
 C465 C 0.30819 0.38556 -0.28109
 C466 C 0.32736 0.49201 -0.29321
 C467 C 0.34292 0.52220 -0.27307
 C468 C 0.36487 0.53062 -0.22785
 C469 C 0.37137 0.50890 -0.20243
 C470 C 0.29882 0.43143 -0.34216
 C471 C 0.28423 0.42731 -0.38778
 C472 C 0.38893 0.46600 -0.15705
 C473 C 0.41174 0.47570 -0.12656
 H474 H 0.36932 0.40812 -0.15519
 H475 H 0.34121 0.35524 -0.18965
 H476 H 0.30201 0.34016 -0.26965
 H477 H 0.29080 0.37793 -0.31593
 H478 H 0.31043 0.48658 -0.32837
 H479 H 0.33794 0.53916 -0.29269
 H480 H 0.37692 0.55411 -0.21236
 H481 H 0.38856 0.51655 -0.16723
 C482 C 1.10096 0.63864 -0.17956
 C483 C 1.12893 0.64255 -0.20311
 C484 C 1.14334 0.66322 -0.25178
 C485 C 1.12969 0.67986 -0.27641
 C486 C 1.10292 0.67755 -0.25007
 C487 C 1.08847 0.65682 -0.20144
 C488 C 1.06138 0.65437 -0.17647
 C489 C 1.04902 0.67210 -0.19874
 C490 C 1.06315 0.69242 -0.24629
 C491 C 1.08979 0.69517 -0.27193
 C492 C 1.17095 0.66630 -0.27550
 C493 C 1.18396 0.64943 -0.25170
 C494 C 1.16983 0.62916 -0.20411
 C495 C 1.14262 0.62567 -0.17990
 C496 C 1.14197 0.69750 -0.33127
 C497 C 1.15196 0.71112 -0.37797
 C498 C 1.08337 0.61342 -0.13845
 C499 C 1.06866 0.59083 -0.10811
 H500 H 1.04968 0.63896 -0.13925
 H501 H 1.02842 0.67012 -0.17886
 H502 H 1.05346 0.70616 -0.26335
 H503 H 1.10007 0.71135 -0.30870
 H504 H 1.18283 0.68184 -0.31243
 H505 H 1.20514 0.65214 -0.27026
 H506 H 1.18002 0.61611 -0.18577
 H507 H 1.13259 0.60979 -0.14261
 C508 C 0.91337 0.55186 -0.20006
 C509 C 0.92308 0.58312 -0.21219
 C510 C 0.90865 0.59119 -0.25882
 C511 C 0.88461 0.56794 -0.29297
 C512 C 0.87383 0.53664 -0.27862
 C513 C 0.88818 0.52859 -0.23198
 C514 C 0.87710 0.49712 -0.21881
 C515 C 0.85264 0.47429 -0.25092
 C516 C 0.83871 0.48216 -0.29672
 C517 C 0.84905 0.51291 -0.31055
 C518 C 0.91893 0.62258 -0.27052
 C519 C 0.94268 0.64538 -0.23689
 C520 C 0.95664 0.63748 -0.19112
 C521 C 0.94716 0.60673 -0.17892
 C522 C 0.87198 0.57576 -0.34503
 C523 C 0.86109 0.58019 -0.39011
 C524 C 0.93025 0.54327 -0.15791
 C525 C 0.94362 0.53418 -0.12563
 H526 H 0.88705 0.48979 -0.18341
 H527 H 0.84448 0.45036 -0.24024
 H528 H 0.81972 0.46434 -0.32158
 H529 H 0.83732 0.51783 -0.34634
 H530 H 0.90856 0.62976 -0.30539
 H531 H 0.95020 0.66930 -0.24622
 H532 H 0.97483 0.65529 -0.16475
 H533 H 0.95866 0.60165 -0.14286
 C534 C 0.46095 0.36783 -0.20579
 C535 C 0.48415 0.37030 -0.24548
 C536 C 0.47695 0.34778 -0.29045
 C537 C 0.44658 0.32286 -0.29565
 C538 C 0.42363 0.31990 -0.25481
 C539 C 0.43083 0.34247 -0.20980
 C540 C 0.40739 0.33929 -0.17017
 C541 C 0.37768 0.31445 -0.17471
 C542 C 0.37068 0.29234 -0.21854
 C543 C 0.39331 0.29494 -0.25832
 C544 C 0.50048 0.35105 -0.33010
 C545 C 0.53017 0.37589 -0.32563
 C546 C 0.53718 0.39795 -0.28181
 C547 C 0.51457 0.39527 -0.24199
 C548 C 0.43885 0.30184 -0.34579
 C549 C 0.43428 0.28649 -0.39021
 C550 C 0.46806 0.39240 -0.16348
 C551 C 0.47561 0.41422 -0.13128
 H552 H 0.41181 0.35590 -0.13532
 H553 H 0.36001 0.31234 -0.14403
 H554 H 0.34759 0.27306 -0.22177
 H555 H 0.38682 0.27720 -0.29168
 H556 H 0.49622 0.33451 -0.36496
 H557 H 0.54783 0.37805 -0.35642
 H558 H 0.56024 0.41727 -0.27869
 H559 H 0.52125 0.41302 -0.20861
 C560 C 0.63841 0.09378 -0.17041
 C561 C 0.63628 0.11734 -0.20223
 C562 C 0.65635 0.13254 -0.25124
 C563 C 0.67843 0.12409 -0.26832
 C564 C 0.68162 0.10170 -0.23452
 C565 C 0.66151 0.08647 -0.18544
 C566 C 0.66472 0.06374 -0.15309
 C567 C 0.68727 0.05635 -0.16856
 C568 C 0.70699 0.07130 -0.21639
 C569 C 0.70427 0.09372 -0.24922
 C570 C 0.65340 0.15564 -0.28296
 C571 C 0.63119 0.16340 -0.26692
 C572 C 0.61149 0.14847 -0.21915
 C573 C 0.61391 0.12572 -0.18700
 C574 C 0.69610 0.13701 -0.32305
 C575 C 0.70903 0.14786 -0.37005
 C576 C 0.61458 0.07510 -0.12729
 C577 C 0.59251 0.05953 -0.09619
 H578 H 0.64996 0.05162 -0.11540
 H579 H 0.68947 0.03893 -0.14329
 H580 H 0.72449 0.06550 -0.22816
 H581 H 0.72014 0.10481 -0.28598
 H582 H 0.66824 0.16801 -0.32034
 H583 H 0.62921 0.18104 -0.29180
 H584 H 0.59421 0.15451 -0.20698
 H585 H 0.59813 0.11489 -0.15001
 C586 C 1.08879 0.45972 -0.20512
 C587 C 1.07682 0.42923 -0.22542
 C588 C 1.09219 0.42261 -0.27169
 C589 C 1.11944 0.44655 -0.29747
 C590 C 1.13197 0.47687 -0.27566
 C591 C 1.11661 0.48346 -0.22940
 C592 C 1.12939 0.51404 -0.20895
 C593 C 1.15652 0.53743 -0.23347
 C594 C 1.17151 0.53101 -0.27870
 C595 C 1.15951 0.50112 -0.29969
 C596 C 1.07955 0.39200 -0.29169
 C597 C 1.05250 0.36860 -0.26677
 C598 C 1.03753 0.37507 -0.22153
 C599 C 1.04944 0.40501 -0.20095
 C600 C 1.13344 0.44041 -0.34886
 C601 C 1.14437 0.43567 -0.39305
 C602 C 1.07174 0.46725 -0.16212
 C603 C 1.05806 0.47510 -0.12857
 H604 H 1.11862 0.52021 -0.17378
 H605 H 1.16594 0.56066 -0.21726
 H606 H 1.19257 0.54929 -0.29763
 H607 H 1.17207 0.49725 -0.33481
 H608 H 1.09043 0.38582 -0.32664
 H609 H 1.04311 0.34531 -0.28265
 H610 H 1.01655 0.35681 -0.20229
 H611 H 1.03701 0.40895 -0.16564
 C612 C 0.54792 0.63349 -0.21679
 C613 C 0.53276 0.65105 -0.22042
 C614 C 0.54079 0.67366 -0.26644
 C615 C 0.56393 0.67860 -0.30859
 C616 C 0.58024 0.66223 -0.30291
 C617 C 0.57216 0.63954 -0.25705
 C618 C 0.58826 0.62291 -0.25341
 C619 C 0.61168 0.62855 -0.29387
 C620 C 0.61976 0.65091 -0.33833
 C621 C 0.60427 0.66761 -0.34305
 C622 C 0.52491 0.69050 -0.26980
 C623 C 0.50177 0.68519 -0.22888
 C624 C 0.49391 0.66309 -0.18395
 C625 C 0.50915 0.64614 -0.17957
 C626 C 0.56879 0.69810 -0.36097
 C627 C 0.57142 0.71271 -0.40625
 C628 C 0.53702 0.60772 -0.17496
 C629 C 0.52716 0.58542 -0.14247
 H630 H 0.58293 0.60542 -0.21936
 H631 H 0.62358 0.61545 -0.29083
 H632 H 0.63808 0.65531 -0.36945
 H633 H 0.61136 0.68477 -0.37836
 H634 H 0.53030 0.70799 -0.30388
 H635 H 0.48988 0.69831 -0.23207
 H636 H 0.47589 0.65902 -0.15233
 H637 H 0.50229 0.62924 -0.14378
 C638 C 0.37264 -0.07977 -0.20592
 C639 C 0.34118 -0.09916 -0.19232
 C640 C 0.31974 -0.11467 -0.23940
 C641 C 0.32994 -0.11065 -0.29977
 C642 C 0.36125 -0.09030 -0.31352
 C643 C 0.38260 -0.07479 -0.26654
 C644 C 0.41384 -0.05487 -0.28149
 C645 C 0.42373 -0.05056 -0.34096
 C646 C 0.40290 -0.06584 -0.38685
 C647 C 0.37200 -0.08542 -0.37359
 C648 C 0.28852 -0.13430 -0.22459
 C649 C 0.27869 -0.13846 -0.16500
 C650 C 0.29962 -0.12323 -0.11907
 C651 C 0.33056 -0.10380 -0.13234
 C652 C 0.30913 -0.12880 -0.34771
 C653 C 0.29405 -0.14372 -0.38993
 C654 C 0.39551 -0.06682 -0.15832
 C655 C 0.41672 -0.05630 -0.12325
 H656 H 0.43098 -0.04233 -0.24751
 H657 H 0.44770 -0.03528 -0.35147
 H658 H 0.41071 -0.06249 -0.43300
 H659 H 0.35670 -0.09661 -0.41099
 H660 H 0.27143 -0.14652 -0.25887
 H661 H 0.25470 -0.15358 -0.15440
 H662 H 0.29183 -0.12647 -0.07291
 H663 H 0.34604 -0.09238 -0.09523
 C664 C 0.56356 -0.08152 0.17980
 C665 C 0.55765 -0.11205 0.17355
 C666 C 0.56470 -0.12655 0.22157
 C667 C 0.57759 -0.11040 0.27549
 C668 C 0.58601 -0.07903 0.27957
 C669 C 0.57896 -0.06453 0.23158
 C670 C 0.58672 -0.03341 0.23747
 C671 C 0.60092 -0.01711 0.28941
 C672 C 0.60798 -0.03124 0.33617
 C673 C 0.60067 -0.06185 0.33154
 C674 C 0.55790 -0.15733 0.21494
 C675 C 0.54446 -0.17337 0.16233
 C676 C 0.53750 -0.15921 0.11543
 C677 C 0.54401 -0.12887 0.12072
 C678 C 0.57858 -0.12687 0.32892
 C679 C 0.57743 -0.14063 0.37456
 C680 C 0.54982 -0.06919 0.13805
 C681 C 0.53651 -0.05916 0.10811
 H682 H 0.58204 -0.02133 0.20194
 H683 H 0.60648 0.00660 0.29343
 H684 H 0.61917 -0.01843 0.37627
 H685 H 0.60674 -0.07185 0.36891
 H686 H 0.56311 -0.16917 0.25011
 H687 H 0.53944 -0.19691 0.15793
 H688 H 0.52705 -0.17178 0.07469
 H689 H 0.53848 -0.11865 0.08294
 C690 C 0.37185 0.46347 0.20970
 C691 C 0.37709 0.48583 0.25366
 C692 C 0.35496 0.47932 0.29949
 C693 C 0.32774 0.45041 0.30144
 C694 C 0.32241 0.42814 0.25725
 C695 C 0.34452 0.43469 0.21124
 C696 C 0.33884 0.41195 0.16804
 C697 C 0.31210 0.38348 0.17025
 C698 C 0.29049 0.37708 0.21517
 C699 C 0.29545 0.39908 0.25824
 C700 C 0.36087 0.50199 0.34312
 C701 C 0.38800 0.53012 0.34197
 C702 C 0.40973 0.53639 0.29747
 C703 C 0.40439 0.51470 0.25352
 C704 C 0.30631 0.44317 0.35101
 C705 C 0.28986 0.43778 0.39419
 C706 C 0.39528 0.47003 0.16459
 C707 C 0.41614 0.47710 0.12967
 H708 H 0.35499 0.41592 0.13227
 H709 H 0.30814 0.36628 0.13696
 H710 H 0.26978 0.35492 0.21668
 H711 H 0.27797 0.39308 0.29226
 H712 H 0.34468 0.49823 0.37869
 H713 H 0.39223 0.54710 0.37591
 H714 H 0.43088 0.55815 0.29711
 H715 H 0.42199 0.52080 0.21975
 C716 C 1.08889 0.62894 0.22065
 C717 C 1.08214 0.65304 0.22877
 C718 C 1.09756 0.67524 0.27438
 C719 C 1.11949 0.67312 0.31178
 C720 C 1.12700 0.64963 0.30221
 C721 C 1.11170 0.62753 0.25654
 C722 C 1.11946 0.60412 0.24833
 C723 C 1.14158 0.60253 0.28428
 C724 C 1.15652 0.62414 0.32891
 C725 C 1.14945 0.64747 0.33792
 C726 C 1.09042 0.69907 0.28171
 C727 C 1.06867 0.70096 0.24504
 C728 C 1.05353 0.67922 0.20064
 C729 C 1.06005 0.65543 0.19248
 C730 C 1.13336 0.69392 0.36208
 C731 C 1.14512 0.70959 0.40575
 C732 C 1.07165 0.60469 0.17756
 C733 C 1.05783 0.58331 0.14413
 H734 H 1.10860 0.58683 0.21407
 H735 H 1.14715 0.58444 0.27745
 H736 H 1.17370 0.62282 0.35673
 H737 H 1.16184 0.66379 0.37306
 H738 H 1.10168 0.71653 0.31556
 H739 H 1.06356 0.71941 0.25109
 H740 H 1.03671 0.68085 0.17226
 H741 H 1.04775 0.63907 0.15732
 C742 C 0.44573 0.08235 0.20205
 C743 C 0.46669 0.09662 0.25000
 C744 C 0.46016 0.11265 0.29462
 C745 C 0.43257 0.11417 0.29139
 C746 C 0.41190 0.10037 0.24297
 C747 C 0.41850 0.08437 0.19810
 C748 C 0.39744 0.07058 0.15032
 C749 C 0.37059 0.07255 0.14689
 C750 C 0.36417 0.08822 0.19069
 C751 C 0.38453 0.10204 0.23830
 C752 C 0.48151 0.12672 0.34212
 C753 C 0.50832 0.12472 0.34572
 C754 C 0.51459 0.10885 0.30232
 C755 C 0.49421 0.09504 0.25483
 C756 C 0.42540 0.12876 0.33998
 C757 C 0.42224 0.14069 0.38412
 C758 C 0.45257 0.06537 0.15799
 C759 C 0.46098 0.05197 0.12516
 H760 H 0.40153 0.05819 0.11525
 H761 H 0.35468 0.06185 0.11004
 H762 H 0.34329 0.08970 0.18774
 H763 H 0.37869 0.11409 0.27125
 H764 H 0.47782 0.13944 0.37702
 H765 H 0.52428 0.13552 0.38246
 H766 H 0.53536 0.10720 0.30548
 H767 H 0.50032 0.08309 0.22219
 C768 C 0.63576 0.55262 0.20094
 C769 C 0.64634 0.58077 0.23143
 C770 C 0.66892 0.58927 0.27748
 C771 C 0.68067 0.56952 0.29298
 C772 C 0.67105 0.54200 0.26074
 C773 C 0.64855 0.53354 0.21460
 C774 C 0.63887 0.50562 0.18384
 C775 C 0.65105 0.48660 0.19827
 C776 C 0.67304 0.49487 0.24337
 C777 C 0.68301 0.52222 0.27439
 C778 C 0.67881 0.61728 0.30793
 C779 C 0.66666 0.63632 0.29351
 C780 C 0.64449 0.62795 0.24875
 C781 C 0.63438 0.60055 0.21782
 C782 C 0.70035 0.57593 0.34544
 C783 C 0.71521 0.57962 0.39066
 C784 C 0.61001 0.54200 0.15939
 C785 C 0.58763 0.53202 0.12734
 H786 H 0.62184 0.49821 0.14835
 H787 H 0.64338 0.46533 0.17432
 H788 H 0.68242 0.48001 0.25443
 H789 H 0.70020 0.52769 0.30903
 H790 H 0.69603 0.62474 0.34307
 H791 H 0.67446 0.65766 0.31730
 H792 H 0.63502 0.64274 0.23806
 H793 H 0.61715 0.59507 0.18323
 C794 C 0.90375 0.36630 0.20539
 C795 C 0.91153 0.34315 0.21750
 C796 C 0.89608 0.32119 0.26400
 C797 C 0.87259 0.32222 0.29742
 C798 C 0.86357 0.34427 0.28282
 C799 C 0.87923 0.36639 0.23682
 C800 C 0.87006 0.38848 0.22374
 C801 C 0.84615 0.38870 0.25516
 C802 C 0.83084 0.36707 0.30010
 C803 C 0.83933 0.34505 0.31394
 C804 C 0.90477 0.29874 0.27631
 C805 C 0.92763 0.29758 0.24273
 C806 C 0.94227 0.31864 0.19650
 C807 C 0.93466 0.34145 0.18426
 C808 C 0.85900 0.30224 0.34938
 C809 C 0.84779 0.28768 0.39482
 C810 C 0.92201 0.39130 0.16384
 C811 C 0.93677 0.41346 0.13215
 H812 H 0.88113 0.40569 0.18893
 H813 H 0.83946 0.40574 0.24453
 H814 H 0.81226 0.36733 0.32436
 H815 H 0.82659 0.32863 0.34909
 H816 H 0.89382 0.28175 0.31154
 H817 H 0.93391 0.28014 0.25245
 H818 H 0.95959 0.31726 0.16990
 H819 H 0.94679 0.35748 0.14813
   
