data_POSCAR
  _audit_creation_date              2014-09-24
  _audit_creation_method            'ToBaCCo'
  _symmetry_space_group_name_H-M    'P1'
  _symmetry_Int_Tables_number       1
  _symmetry_cell_setting            triclinic
  loop_
  _symmetry_equiv_pos_as_xyz
 x,y,z
_cell_length_a 33.6914
_cell_length_b 34.8248
_cell_length_c 30.4440
_cell_angle_alpha 93.442900
_cell_angle_beta 86.028400
_cell_angle_gamma 94.208500
loop_
  _atom_site_label
  _atom_site_type_symbol
  _atom_site_fract_x
  _atom_site_fract_y
  _atom_site_fract_z
N1 N 0.18422 0.18036 0.15292
 N2 N -0.19215 0.81541 0.14140
 N3 N -0.25168 0.26898 -0.26882
 N4 N 0.18742 0.80516 -0.20886
 N5 N 0.18655 1.17823 0.85046
 N6 N 0.83995 0.80593 0.87112
 N7 N 0.25391 0.75898 1.25117
 N8 N 0.76494 1.22636 1.26420
 O9 O 0.54962 0.96349 0.89804
 O10 O 0.46736 0.98278 1.07810
 O11 O 0.58504 0.98415 1.01216
 O12 O 0.45506 0.93338 0.94981
 O13 O 0.53191 0.95800 1.04408
 O14 O 0.47501 0.96046 0.89047
 O15 O 0.45897 0.94311 1.02511
 O16 O 0.59103 1.00097 0.93536
 C17 C 0.58306 0.96991 0.91346
 C18 C 0.45208 0.95133 1.06475
 C19 C 0.56796 0.95702 1.03283
 C20 C 0.45638 0.93341 0.90934
 O21 O 0.47446 1.03384 0.89931
 O22 O 0.53503 1.02074 1.09140
 O23 O 0.55744 1.06821 0.95971
 O24 O 0.43122 1.01630 1.02286
 O25 O 0.48379 1.04857 1.04754
 O26 O 0.54986 1.03945 0.89631
 O27 O 0.42774 1.00435 0.94263
 O28 O 0.55605 1.05403 1.03561
 Co29 Co 0.51226 0.99926 0.90357
 Co30 Co 0.50912 1.00359 1.04319
 Co31 Co 0.56707 1.02439 0.98508
 Co32 Co 0.44823 0.97641 0.98485
 O33 O 0.50749 0.99941 0.97633
 C34 C 0.43875 1.02911 0.91448
 C35 C 0.56027 1.04678 1.07520
 C36 C 0.55904 1.06937 0.91907
 C37 C 0.44722 1.04635 1.04162
 O38 O 0.03855 0.46021 0.09474
 O39 O 0.02745 0.51988 -0.09743
 O40 O 0.02014 0.41919 -0.02797
 O41 O 0.07499 0.54086 0.03493
 O42 O 0.05491 0.46949 -0.05296
 O43 O 0.04474 0.53327 0.09826
 O44 O 0.06060 0.53920 -0.04102
 O45 O 0.00717 0.41572 0.05215
 C46 C 0.03304 0.42585 0.07981
 C47 C 0.05319 0.54470 -0.08023
 C48 C 0.05180 0.43411 -0.04659
 C49 C 0.07542 0.54389 0.07557
 O50 O -0.03340 0.53334 0.09671
 O51 O -0.01306 0.45492 -0.08334
 O52 O -0.06568 0.44346 0.04504
 O53 O -0.01076 0.56857 -0.01787
 O54 O -0.03783 0.51795 -0.05042
 O55 O -0.03733 0.46118 0.10409
 O56 O 0.00541 0.57381 0.05881
 O57 O -0.05495 0.44737 -0.03044
 Co58 Co 0.00316 0.49700 0.09084
 Co59 Co 0.00889 0.49486 -0.04900
 Co60 Co -0.02107 0.43622 0.00992
 Co61 Co 0.03012 0.55057 0.00935
 O62 O 0.00357 0.49313 0.01807
 C63 C -0.02637 0.56599 0.08178
 C64 C -0.04619 0.44112 -0.07014
 C65 C -0.06584 0.44436 0.08550
 C66 C -0.03842 0.55284 -0.03921
 O67 O 1.04633 0.04997 0.47324
 O68 O 0.91157 0.02969 0.55142
 O69 O 0.94988 0.00660 0.41268
 O70 O 1.03671 0.05018 0.55248
 O71 O 0.91105 0.02923 0.46874
 O72 O 1.08853 0.02108 0.52703
 O73 O 0.96768 0.06141 0.55792
 O74 O 1.02330 0.02026 0.41431
 C75 C 1.04102 0.04942 0.43291
 C76 C 0.93086 0.06083 0.55959
 C77 C 0.92285 0.02822 0.42850
 C78 C 1.07264 0.04404 0.55718
 O79 O 1.04783 -0.04324 0.52062
 O80 O 0.90607 -0.04399 0.46426
 O81 O 1.02797 -0.05472 0.43888
 O82 O 0.95002 -0.00909 0.59257
 O83 O 0.91666 -0.04575 0.54564
 O84 O 1.07531 -0.01408 0.45051
 O85 O 1.01999 -0.02174 0.58174
 O86 O 0.95990 -0.06639 0.43624
 Co87 Co 1.04458 0.00346 0.49858
 Co88 Co 0.91827 -0.00744 0.50719
 Co89 Co 0.99011 -0.02170 0.43130
 Co90 Co 0.99278 0.01817 0.56531
 O91 O 0.98388 -0.00357 0.49866
 C92 C 1.03978 -0.04654 0.56061
 C93 C 0.92328 -0.06818 0.43989
 C94 C 1.06384 -0.04517 0.43234
 C95 C 0.92973 -0.03990 0.58302
 C96 C 1.07816 0.13802 0.30641
 C97 C 1.11252 0.17021 0.30645
 C98 C 1.13608 0.14619 0.27101
 C99 C 1.10203 0.11437 0.27046
 C100 C 1.09822 0.11823 0.34189
 C101 C 1.12185 0.09440 0.30630
 C102 C 1.13229 0.15005 0.34270
 C103 C 1.15619 0.12639 0.30644
 C104 C 1.15567 0.15968 0.22978
 C105 C 1.16983 0.16951 0.19443
 C106 C 1.07689 0.09881 0.37875
 C107 C 1.05980 0.07854 0.40572
 H108 H 1.04589 0.14269 0.30683
 H109 H 1.10900 0.20163 0.30598
 H110 H 1.08982 0.09969 0.24041
 H111 H 1.12546 0.06297 0.30655
 H112 H 1.14437 0.16460 0.37288
 H113 H 1.18845 0.12168 0.30596
 C114 C 0.82888 -0.15589 0.33673
 C115 C 0.81236 -0.12984 0.30353
 C116 C 0.83588 -0.15103 0.26567
 C117 C 0.85211 -0.17737 0.29799
 C118 C 0.86516 -0.12685 0.34115
 C119 C 0.88855 -0.14804 0.30318
 C120 C 0.84888 -0.10063 0.30873
 C121 C 0.87211 -0.12200 0.27040
 C122 C 0.82248 -0.16332 0.22199
 C123 C 0.81450 -0.17310 0.18481
 C124 C 0.88382 -0.11037 0.38068
 C125 C 0.90114 -0.09317 0.40993
 H126 H 0.81139 -0.16970 0.36451
 H127 H 0.78091 -0.12243 0.30313
 H128 H 0.85322 -0.20912 0.29301
 H129 H 0.92002 -0.15545 0.30343
 H130 H 0.84775 -0.06886 0.31354
 H131 H 0.88973 -0.10805 0.24278
 C132 C 0.84068 0.17523 0.59194
 C133 C 0.80457 0.16434 0.62430
 C134 C 0.81863 0.19732 0.65657
 C135 C 0.85433 0.20874 0.62466
 C136 C 0.86573 0.14819 0.61482
 C137 C 0.87980 0.18116 0.64710
 C138 C 0.83001 0.13691 0.64676
 C139 C 0.84372 0.17024 0.67932
 C140 C 0.79251 0.22377 0.68158
 C141 C 0.77159 0.24492 0.70400
 C142 C 0.89098 0.11921 0.59318
 C143 C 0.91025 0.09355 0.57697
 H144 H 0.83980 0.17699 0.55574
 H145 H 0.77336 0.15769 0.61522
 H146 H 0.86398 0.23862 0.61585
 H147 H 0.91100 0.18780 0.65622
 H148 H 0.82028 0.10708 0.65569
 H149 H 0.84466 0.16840 0.71551
 C150 C 1.12447 -0.14855 0.62202
 C151 C 1.15356 -0.12743 0.65431
 C152 C 1.13409 -0.15169 0.69150
 C153 C 1.10533 -0.17321 0.65986
 C154 C 1.09430 -0.11815 0.63491
 C155 C 1.07483 -0.14239 0.67213
 C156 C 1.12308 -0.09680 0.66665
 C157 C 1.10389 -0.12127 0.70418
 C158 C 1.15533 -0.16856 0.72517
 C159 C 1.17113 -0.18113 0.75506
 C160 C 1.07284 -0.09651 0.60552
 C161 C 1.05660 -0.07545 0.58364
 H162 H 1.13257 -0.15959 0.58786
 H163 H 1.18613 -0.12141 0.64737
 H164 H 1.09836 -0.20489 0.65745
 H165 H 1.04225 -0.14835 0.67911
 H166 H 1.13014 -0.06513 0.66922
 H167 H 1.09568 -0.11010 0.73828
 C168 C 0.34182 1.14730 1.06191
 C169 C 0.30130 1.12486 1.07276
 C170 C 0.29583 1.15030 1.11546
 C171 C 0.33579 1.17316 1.10493
 C172 C 0.36240 1.11880 1.08785
 C173 C 0.35709 1.14421 1.13058
 C174 C 0.32228 1.09620 1.09844
 C175 C 0.31646 1.12177 1.14128
 C176 C 0.25697 1.16449 1.13018
 C177 C 0.22355 1.17298 1.14127
 C178 C 0.39685 1.09736 1.07200
 C179 C 0.42195 1.07593 1.05840
 H180 H 0.35263 1.15759 1.02909
 H181 H 0.27805 1.11695 1.04906
 H182 H 0.34086 1.20504 1.10781
 H183 H 0.38047 1.15200 1.15414
 H184 H 0.31693 1.06433 1.09562
 H185 H 0.30565 1.11135 1.17403
 C186 C 0.33654 0.89266 0.83249
 C187 C 0.33236 0.86475 0.79130
 C188 C 0.30097 0.83972 0.81779
 C189 C 0.30477 0.86747 0.85870
 C190 C 0.36901 0.86857 0.84766
 C191 C 0.33753 0.84355 0.87404
 C192 C 0.36553 0.84084 0.80668
 C193 C 0.33331 0.81547 0.83290
 C194 C 0.26129 0.82567 0.80444
 C195 C 0.22730 0.81567 0.79690
 C196 C 0.40439 0.88771 0.86704
 C197 C 0.43026 0.90679 0.88538
 H198 H 0.33815 0.92462 0.83252
 H199 H 0.32980 0.87335 0.75715
 H200 H 0.27949 0.87843 0.88000
 H201 H 0.33998 0.83495 0.90822
 H202 H 0.39096 0.83004 0.78554
 H203 H 0.33151 0.78351 0.83284
 C204 C 0.64666 0.86885 1.11827
 C205 C 0.66208 0.83014 1.09846
 C206 C 0.70501 0.84836 1.09909
 C207 C 0.69006 0.88663 1.11907
 C208 C 0.64489 0.88238 1.07138
 C209 C 0.68792 0.90034 1.07209
 C210 C 0.65970 0.84410 1.05117
 C211 C 0.70321 0.86190 1.05219
 C212 C 0.74041 0.83288 1.11478
 C213 C 0.77123 0.82354 1.12743
 C214 C 0.61380 0.90497 1.05672
 C215 C 0.59107 0.92704 1.04543
 H216 H 0.62303 0.87190 1.14527
 H217 H 0.65189 0.80104 1.10950
 H218 H 0.70285 0.90404 1.14711
 H219 H 0.69834 0.92940 1.06105
 H220 H 0.64675 0.82689 1.02310
 H221 H 0.72688 0.85892 1.02520
 C222 C 0.64050 1.19476 0.87164
 C223 C 0.68056 1.18469 0.84709
 C224 C 0.66854 1.20386 0.80630
 C225 C 0.62887 1.21442 0.83037
 C226 C 0.62107 1.15633 0.85338
 C227 C 0.60900 1.17546 0.81258
 C228 C 0.66078 1.14595 0.82924
 C229 C 0.64909 1.16541 0.78815
 C230 C 0.69623 1.22879 0.77951
 C231 C 0.72012 1.24792 0.75711
 C232 C 0.59634 1.12782 0.87857
 C233 C 0.57804 1.10225 0.89795
 H234 H 0.63665 1.20654 0.90625
 H235 H 0.71028 1.18870 0.86101
 H236 H 0.61606 1.24291 0.83051
 H237 H 0.57927 1.17141 0.79871
 H238 H 0.67371 1.11751 0.82900
 H239 H 0.65291 1.15355 0.75357
 C240 C 0.13925 0.34272 0.13629
 C241 C 0.12169 0.30734 0.16159
 C242 C 0.14099 0.28069 0.12548
 C243 C 0.15895 0.31542 0.10028
 C244 C 0.10154 0.34034 0.11037
 C245 C 0.12085 0.31371 0.07421
 C246 C 0.08374 0.30554 0.13549
 C247 C 0.10330 0.27849 0.09953
 C248 C 0.16015 0.24598 0.13451
 C249 C 0.17267 0.21592 0.14276
 C250 C 0.07800 0.37222 0.10140
 C251 C 0.05764 0.39728 0.09262
 H252 H 0.15365 0.36956 0.15134
 H253 H 0.12234 0.30433 0.19762
 H254 H 0.19009 0.31902 0.08589
 H255 H 0.12015 0.31672 0.03817
 H256 H 0.05260 0.30183 0.14988
 H257 H 0.08877 0.25173 0.08442
 C258 C -0.11590 0.34717 -0.18053
 C259 C -0.15336 0.32387 -0.16142
 C260 C -0.17804 0.33999 -0.19579
 C261 C -0.14096 0.36296 -0.21531
 C262 C -0.12621 0.38147 -0.14878
 C263 C -0.15085 0.39767 -0.18312
 C264 C -0.16329 0.35849 -0.12928
 C265 C -0.18842 0.37428 -0.16405
 C266 C -0.20602 0.31572 -0.22190
 C267 C -0.22781 0.29445 -0.24358
 C268 C -0.09725 0.40368 -0.12194
 C269 C -0.07365 0.42115 -0.09891
 H270 H -0.08578 0.33628 -0.18703
 H271 H -0.15474 0.29327 -0.15274
 H272 H -0.13213 0.36455 -0.25100
 H273 H -0.14941 0.42829 -0.19173
 H274 H -0.17212 0.35688 -0.09359
 H275 H -0.21855 0.38512 -0.15756
 C276 C 0.08891 0.66710 -0.15834
 C277 C 0.11649 0.69664 -0.13288
 C278 C 0.14532 0.69882 -0.17415
 C279 C 0.11796 0.66974 -0.19993
 C280 C 0.11211 0.63450 -0.14313
 C281 C 0.14092 0.63646 -0.18443
 C282 C 0.13947 0.66365 -0.11744
 C283 C 0.16862 0.66628 -0.15895
 C284 C 0.16227 0.73599 -0.18905
 C285 C 0.17460 0.76780 -0.19907
 C286 C 0.09237 0.60031 -0.12347
 C287 C 0.07497 0.57391 -0.10490
 H288 H 0.05592 0.66705 -0.15786
 H289 H 0.10661 0.72176 -0.11182
 H290 H 0.10937 0.67271 -0.23404
 H291 H 0.15068 0.61123 -0.20536
 H292 H 0.14807 0.66077 -0.08331
 H293 H 0.20160 0.66643 -0.15942
 C294 C -0.09840 0.68392 0.14063
 C295 C -0.09913 0.71513 0.10678
 C296 C -0.14487 0.71308 0.11314
 C297 C -0.14444 0.68225 0.14710
 C298 C -0.10191 0.65281 0.10298
 C299 C -0.14765 0.65053 0.10922
 C300 C -0.10234 0.68362 0.06897
 C301 C -0.14848 0.68206 0.07534
 C302 C -0.16581 0.74839 0.12081
 C303 C -0.17953 0.77908 0.12950
 C304 C -0.07621 0.62065 0.09734
 C305 C -0.05378 0.59525 0.09147
 H306 H -0.07757 0.68439 0.16738
 H307 H -0.07939 0.74207 0.10573
 H308 H -0.16212 0.68206 0.17925
 H309 H -0.16723 0.62350 0.11023
 H310 H -0.08459 0.68374 0.03686
 H311 H -0.16934 0.68175 0.04864
 C312 C 1.14345 0.08072 0.69733
 C313 C 1.17798 0.11253 0.69989
 C314 C 1.15207 0.13584 0.73375
 C315 C 1.11781 0.10428 0.73173
 C316 C 1.12670 0.10171 0.66046
 C317 C 1.10086 0.12503 0.69438
 C318 C 1.16098 0.13326 0.66229
 C319 C 1.13534 0.15690 0.69693
 C320 C 1.16521 0.15334 0.77571
 C321 C 1.17550 0.16595 0.81124
 C322 C 1.11050 0.08177 0.62119
 C323 C 1.09468 0.06472 0.59077
 H324 H 1.14666 0.04921 0.69707
 H325 H 1.20988 0.10763 0.70266
 H326 H 1.10013 0.09257 0.76067
 H327 H 1.06895 0.12995 0.69170
 H328 H 1.17859 0.14489 0.63326
 H329 H 1.13212 0.18841 0.69729
 C330 C 0.86785 -0.14508 0.68654
 C331 C 0.89672 -0.16835 0.71035
 C332 C 0.88049 -0.15058 0.75482
 C333 C 0.85150 -0.12771 0.73162
 C334 C 0.89982 -0.11133 0.68430
 C335 C 0.88359 -0.09375 0.72883
 C336 C 0.92894 -0.13416 0.70737
 C337 C 0.91246 -0.11681 0.75246
 C338 C 0.86804 -0.16977 0.79558
 C339 C 0.85577 -0.18241 0.83038
 C340 C 0.91011 -0.08754 0.64647
 C341 C 0.91869 -0.06643 0.61678
 H342 H 0.84957 -0.15641 0.65904
 H343 H 0.90204 -0.19925 0.70324
 H344 H 0.81949 -0.12525 0.74200
 H345 H 0.87821 -0.06287 0.73611
 H346 H 0.96093 -0.13651 0.69692
 H347 H 0.93076 -0.10541 0.77992
 C348 C 1.12131 -0.15414 0.33432
 C349 C 1.15547 -0.14393 0.29936
 C350 C 1.18194 -0.17070 0.32070
 C351 C 1.14818 -0.18133 0.35530
 C352 C 1.13735 -0.12056 0.36475
 C353 C 1.16381 -0.14733 0.38611
 C354 C 1.17111 -0.10996 0.33014
 C355 C 1.19797 -0.13712 0.35112
 C356 C 1.20735 -0.19789 0.29570
 C357 C 1.22923 -0.21906 0.27454
 C358 C 1.11215 -0.09280 0.38905
 C359 C 1.09067 -0.07054 0.40887
 H360 H 1.08949 -0.16081 0.32765
 H361 H 1.15224 -0.14286 0.26342
 H362 H 1.13898 -0.21097 0.36534
 H363 H 1.16703 -0.14838 0.42206
 H364 H 1.18031 -0.08034 0.32007
 H365 H 1.22979 -0.13044 0.35779
 C366 C 0.87545 0.11119 0.30681
 C367 C 0.82947 0.11122 0.30618
 C368 C 0.83239 0.15484 0.31801
 C369 C 0.87802 0.15531 0.31827
 C370 C 0.87066 0.10411 0.35629
 C371 C 0.87359 0.14773 0.36812
 C372 C 0.82505 0.10374 0.35594
 C373 C 0.82769 0.14768 0.36746
 C374 C 0.80941 0.18240 0.29765
 C375 C 0.78873 0.20394 0.28147
 C376 C 0.89069 0.07604 0.37942
 C377 C 0.90596 0.05362 0.40056
 H378 H 0.89528 0.09585 0.28211
 H379 H 0.81106 0.09650 0.28047
 H380 H 0.89955 0.17686 0.30261
 H381 H 0.89198 0.16245 0.39385
 H382 H 0.80344 0.08224 0.37158
 H383 H 0.80788 0.16297 0.39224
 C384 C 0.14967 0.34295 -0.13377
 C385 C 0.18169 0.32432 -0.10914
 C386 C 0.15795 0.28509 -0.11452
 C387 C 0.12637 0.30311 -0.13929
 C388 C 0.12598 0.35032 -0.08947
 C389 C 0.10252 0.31093 -0.09492
 C390 C 0.15753 0.33238 -0.06454
 C391 C 0.13422 0.29259 -0.07026
 C392 C 0.17212 0.24708 -0.12813
 C393 C 0.18020 0.21445 -0.13871
 C394 C 0.10412 0.38422 -0.07504
 C395 C 0.08219 0.40903 -0.06247
 H396 H 0.15587 0.36405 -0.15972
 H397 H 0.21447 0.32936 -0.11516
 H398 H 0.11360 0.29073 -0.17013
 H399 H 0.06975 0.30562 -0.08897
 H400 H 0.17015 0.34480 -0.03364
 H401 H 0.12793 0.27158 -0.04421
 C402 C -0.17055 0.33846 0.13569
 C403 C -0.15063 0.30624 0.15722
 C404 C -0.17823 0.31233 0.19898
 C405 C -0.19854 0.34412 0.17785
 C406 C -0.14000 0.36839 0.15545
 C407 C -0.16757 0.37457 0.19722
 C408 C -0.11980 0.33656 0.17663
 C409 C -0.14768 0.34226 0.21874
 C410 C -0.19896 0.28068 0.22304
 C411 C -0.21605 0.25455 0.24273
 C412 C -0.11669 0.39826 0.13083
 C413 C -0.09500 0.42079 0.11024
 H414 H -0.17979 0.33726 0.10131
 H415 H -0.14380 0.27785 0.14103
 H416 H -0.23121 0.34684 0.17861
 H417 H -0.17435 0.40298 0.21337
 H418 H -0.08714 0.33375 0.17592
 H419 H -0.13840 0.34345 0.25310
 C420 C -0.08569 0.67404 -0.07349
 C421 C -0.09788 0.68129 -0.12006
 C422 C -0.13598 0.69843 -0.09925
 C423 C -0.12390 0.69151 -0.05275
 C424 C -0.10843 0.63411 -0.07636
 C425 C -0.14654 0.65114 -0.05534
 C426 C -0.12047 0.64097 -0.12288
 C427 C -0.15898 0.65865 -0.10218
 C428 C -0.14792 0.73590 -0.11135
 C429 C -0.15462 0.76806 -0.12012
 C430 C -0.08873 0.60071 -0.06339
 C431 C -0.06808 0.57653 -0.05248
 H432 H -0.05537 0.68018 -0.06150
 H433 H -0.07789 0.69401 -0.14672
 H434 H -0.12538 0.71272 -0.02407
 H435 H -0.16634 0.63834 -0.02859
 H436 H -0.11896 0.61980 -0.15158
 H437 H -0.18932 0.65278 -0.11416
 C438 C 0.18074 0.65177 0.11670
 C439 C 0.16294 0.68041 0.15233
 C440 C 0.19666 0.67377 0.18189
 C441 C 0.21490 0.64555 0.14664
 C442 C 0.15553 0.61852 0.13827
 C443 C 0.18924 0.61178 0.16782
 C444 C 0.13744 0.64681 0.17355
 C445 C 0.17144 0.64052 0.20343
 C446 C 0.21838 0.70505 0.20679
 C447 C 0.23549 0.73095 0.22785
 C448 C 0.13026 0.58911 0.11469
 C449 C 0.10679 0.56697 0.09620
 H450 H 0.18439 0.65606 0.08077
 H451 H 0.15226 0.70890 0.14619
 H452 H 0.24703 0.64542 0.13579
 H453 H 0.19984 0.58325 0.17391
 H454 H 0.10532 0.64705 0.18447
 H455 H 0.16774 0.63622 0.23935
 C456 C 0.32215 1.11269 0.92294
 C457 C 0.32405 1.15160 0.90039
 C458 C 0.28899 1.13594 0.87331
 C459 C 0.28661 1.09741 0.89578
 C460 C 0.35083 1.09696 0.88581
 C461 C 0.31570 1.08143 0.85883
 C462 C 0.35341 1.13550 0.86337
 C463 C 0.31767 1.12021 0.83621
 C464 C 0.25290 1.15492 0.86581
 C465 C 0.22159 1.16731 0.85877
 C466 C 0.38384 1.07370 0.89363
 C467 C 0.40963 1.05356 0.90181
 H468 H 0.32433 1.10929 0.95871
 H469 H 0.32705 1.18066 0.91742
 H470 H 0.25880 1.08196 0.90915
 H471 H 0.31257 1.05238 0.84180
 H472 H 0.38130 1.15083 0.85006
 H473 H 0.31544 1.12360 0.80046
 C474 C 0.39458 0.84864 1.17329
 C475 C 0.35824 0.85955 1.20437
 C476 C 0.33286 0.82628 1.18236
 C477 C 0.36873 0.81491 1.15169
 C478 C 0.38179 0.87549 1.13941
 C479 C 0.35641 0.84222 1.11741
 C480 C 0.34591 0.88679 1.17009
 C481 C 0.32016 0.85316 1.14847
 C482 C 0.30470 0.79993 1.20666
 C483 C 0.28060 0.77972 1.22754
 C484 C 0.40812 0.90304 1.11462
 C485 C 0.42878 0.92544 1.09283
 H486 H 0.42548 0.84716 1.18326
 H487 H 0.35868 0.86637 1.24044
 H488 H 0.37776 0.78507 1.14433
 H489 H 0.35594 0.83542 1.08135
 H490 H 0.33682 0.91662 1.17746
 H491 H 0.28928 0.85469 1.13844
 C492 C 0.66285 1.15011 1.13023
 C493 C 0.65134 1.17716 1.17068
 C494 C 0.68552 1.16288 1.19482
 C495 C 0.69745 1.13622 1.15478
 C496 C 0.63496 1.11772 1.14991
 C497 C 0.66916 1.10348 1.17407
 C498 C 0.62298 1.14436 1.18994
 C499 C 0.65763 1.13049 1.21450
 C500 C 0.71421 1.18727 1.21991
 C501 C 0.73838 1.20637 1.24092
 C502 C 0.60743 1.09234 1.12436
 C503 C 0.58548 1.07144 1.10250
 H504 H 0.66469 1.15787 1.09528
 H505 H 0.64438 1.20773 1.16954
 H506 H 0.72838 1.13317 1.14057
 H507 H 0.67617 1.07292 1.17522
 H508 H 0.59204 1.14737 1.20413
 H509 H 0.65582 1.12271 1.24945
 C510 C 0.70773 0.90008 0.86442
 C511 C 0.73583 0.89642 0.90171
 C512 C 0.73356 0.85247 0.89225
 C513 C 0.70582 0.85586 0.85486
 C514 C 0.67184 0.89502 0.89795
 C515 C 0.66933 0.85108 0.88856
 C516 C 0.69954 0.89163 0.93538
 C517 C 0.69774 0.84729 0.92592
 C518 C 0.76999 0.83170 0.88724
 C519 C 0.80193 0.81817 0.88072
 C520 C 0.63894 0.92049 0.90133
 C521 C 0.61299 0.94269 0.90553
 H522 H 0.71156 0.92199 0.83916
 H523 H 0.76353 0.91487 0.90722
 H524 H 0.70874 0.84081 0.82173
 H525 H 0.64153 0.83278 0.88313
 H526 H 0.69654 0.90677 0.96845
 H527 H 0.69411 0.82530 0.95106
   
