data_POSCAR
  _audit_creation_date              2014-09-24
  _audit_creation_method            'ToBaCCo'
  _symmetry_space_group_name_H-M    'P1'
  _symmetry_Int_Tables_number       1
  _symmetry_cell_setting            triclinic
  loop_
  _symmetry_equiv_pos_as_xyz
 x,y,z
_cell_length_a 42.2695
_cell_length_b 41.4712
_cell_length_c 42.9397
_cell_angle_alpha 87.754600
_cell_angle_beta 88.625600
_cell_angle_gamma 87.762400
loop_
  _atom_site_label
  _atom_site_type_symbol
  _atom_site_fract_x
  _atom_site_fract_y
  _atom_site_fract_z
C1 C 0.20056 0.54401 1.04964
 H2 H 0.20234 0.56247 1.03123
 C3 C 0.17685 0.54673 1.07263
 H4 H 0.16062 0.56762 1.07160
 C5 C 0.21945 0.49427 1.07240
 H6 H 0.23576 0.47357 1.07184
 C7 C 0.19607 0.49591 1.09592
 H8 H 0.19568 0.47614 1.11298
 N9 N 0.22132 0.51818 1.04999
 C10 C 0.30021 0.55359 0.99334
 H11 H 0.30103 0.53622 0.97515
 C12 C 0.32270 0.57732 0.99346
 H13 H 0.34086 0.57778 0.97528
 C14 C 0.27672 0.57218 1.04034
 H15 H 0.25935 0.56949 1.05902
 C16 C 0.29892 0.59614 1.04150
 H17 H 0.29818 0.61206 1.06093
 Zn18 Zn 0.25110 0.51613 1.01656
 N19 N 0.27780 0.55151 1.01649
 C20 C 0.22842 0.54157 0.95835
 N21 N 0.22767 0.51650 0.97967
 C22 C 0.20833 0.49152 0.97636
 C23 C 0.18936 0.49052 0.95031
 C24 C 0.20949 0.54182 0.93212
 C25 C 0.29635 0.47494 1.04542
 C26 C 0.31897 0.44959 1.04782
 C27 C 0.30349 0.43219 0.99755
 C28 C 0.28105 0.45783 0.99623
 N29 N 0.27795 0.47860 1.01992
 H30 H 0.24322 0.56169 0.96191
 H31 H 0.20758 0.47236 0.99417
 H32 H 0.17407 0.47039 0.94903
 H33 H 0.21032 0.56215 0.91551
 H34 H 0.29388 0.49222 1.06364
 H35 H 0.33359 0.44749 1.06825
 H36 H 0.30518 0.41659 0.97801
 H37 H 0.26688 0.46164 0.97573
 C38 C 0.32226 0.59891 1.01790
 C39 C 0.17400 0.52246 1.09629
 C40 C 0.32331 0.42800 1.02349
 C41 C 0.18975 0.51597 0.92756
 C42 C 0.81805 0.52673 -0.03124
 H43 H 0.81536 0.54428 -0.01328
 C44 C 0.84168 0.52995 -0.05422
 H45 H 0.85721 0.55010 -0.05379
 C46 C 0.80099 0.47911 -0.05338
 H47 H 0.78509 0.45931 -0.05285
 C48 C 0.82436 0.48141 -0.07689
 H49 H 0.82556 0.46342 -0.09443
 N50 N 0.79817 0.50176 -0.03132
 C51 C 0.71465 0.53996 0.01792
 H52 H 0.71322 0.52324 0.03784
 C53 C 0.69169 0.56488 0.01408
 H54 H 0.67255 0.56693 0.03115
 C55 C 0.74037 0.55606 -0.02949
 H56 H 0.75887 0.55209 -0.04685
 C57 C 0.71778 0.58105 -0.03439
 H58 H 0.71936 0.59640 -0.05534
 Zn59 Zn 0.76721 0.50023 0.00111
 N60 N 0.73849 0.53617 -0.00361
 C61 C 0.78541 0.52705 0.05762
 N62 N 0.78916 0.50137 0.03897
 C63 C 0.81097 0.47721 0.04530
 C64 C 0.82975 0.47793 0.07156
 C65 C 0.80397 0.52900 0.08391
 C66 C 0.72385 0.46117 -0.02522
 C67 C 0.70345 0.43569 -0.02721
 C68 C 0.72372 0.41320 0.02140
 C69 C 0.74342 0.43940 0.02264
 N70 N 0.74316 0.46272 -0.00052
 H71 H 0.76871 0.54656 0.05168
 H72 H 0.81420 0.45760 0.02950
 H73 H 0.84717 0.45850 0.07518
 H74 H 0.80084 0.54994 0.09816
 H75 H 0.72399 0.48014 -0.04325
 H76 H 0.68881 0.43546 -0.04745
 H77 H 0.72419 0.39507 0.04028
 H78 H 0.75842 0.44130 0.04243
 C79 C 0.69315 0.58579 -0.01245
 C80 C 0.84522 0.50711 -0.07739
 C81 C 0.70280 0.41130 -0.00338
 C82 C 0.82658 0.50429 0.09133
 C83 C -0.04689 0.28482 0.48213
 H84 H -0.06334 0.28437 0.50173
 C85 C -0.05135 0.30796 0.45801
 H86 H -0.07124 0.32517 0.45976
 C87 C -0.00154 0.26270 0.45629
 H88 H 0.01748 0.24463 0.45531
 C89 C -0.00490 0.28555 0.43169
 H90 H 0.01209 0.28400 0.41261
 N91 N -0.02181 0.26333 0.48133
 C92 C -0.05661 0.19324 0.54970
 H93 H -0.04258 0.19830 0.56955
 C94 C -0.08049 0.17092 0.55286
 H95 H -0.08494 0.15900 0.57535
 C96 C -0.06695 0.20168 0.49593
 H97 H -0.06094 0.21314 0.47363
 C98 C -0.09098 0.17953 0.49802
 H99 H -0.10291 0.17420 0.47696
 Zn100 Zn -0.01551 0.23501 0.51674
 N101 N -0.05026 0.20793 0.52150
 C102 C -0.04100 0.27373 0.56377
 N103 N -0.01348 0.26027 0.55242
 C104 C 0.01470 0.26596 0.56541
 C105 C 0.01611 0.28720 0.58976
 C106 C -0.04075 0.29505 0.58805
 C107 C 0.02000 0.17624 0.51566
 C108 C 0.04677 0.15584 0.51238
 C109 C 0.07772 0.20263 0.50041
 C110 C 0.05037 0.22219 0.50453
 N111 N 0.02216 0.20878 0.51189
 H112 H -0.06325 0.26818 0.55372
 H113 H 0.03630 0.25467 0.55651
 H114 H 0.03911 0.29149 0.59878
 H115 H -0.06301 0.30597 0.59616
 H116 H -0.00258 0.16586 0.52112
 H117 H 0.04360 0.13015 0.51494
 H118 H 0.09986 0.21387 0.49429
 H119 H 0.05159 0.24814 0.50149
 C120 C -0.09798 0.16374 0.52683
 C121 C -0.02975 0.30936 0.43259
 C122 C 0.07636 0.16893 0.50470
 C123 C -0.01192 0.30271 0.60105
 C124 C 0.97597 0.68716 0.53674
 H125 H 0.95942 0.68782 0.51788
 C126 C 0.97335 0.66406 0.56106
 H127 H 0.95464 0.64695 0.56081
 C128 C 1.02065 0.70853 0.55971
 H129 H 1.03925 0.72569 0.55893
 C130 C 1.01897 0.68570 0.58449
 H131 H 1.03598 0.68630 0.60283
 N132 N 0.99912 0.70902 0.53663
 C133 C 0.95821 0.78696 0.47716
 H134 H 0.97577 0.78859 0.45847
 C135 C 0.93173 0.80832 0.47721
 H136 H 0.92941 0.82634 0.45844
 C137 C 0.94137 0.76269 0.52527
 H138 H 0.94559 0.74561 0.54447
 C139 C 0.91470 0.78354 0.52629
 H140 H 0.89845 0.78188 0.54613
 Zn141 Zn 1.00044 0.73868 0.50195
 N142 N 0.96249 0.76468 0.50094
 C143 C 0.98272 0.71230 0.44454
 N144 N 1.00543 0.71327 0.46634
 C145 C 1.03175 0.69346 0.46525
 C146 C 1.03609 0.67152 0.44159
 C147 C 0.98592 0.69043 0.42053
 C148 C 1.03447 0.78574 0.52998
 C149 C 1.05856 0.80732 0.53344
 C150 C 1.08190 0.79040 0.48456
 C151 C 1.05743 0.76892 0.48221
 N152 N 1.03451 0.76679 0.50488
 H153 H 0.96165 0.72780 0.44622
 H154 H 1.04915 0.69429 0.48324
 H155 H 1.05719 0.65581 0.44154
 H156 H 0.96720 0.69030 0.40388
 H157 H 1.01565 0.78398 0.54743
 H158 H 1.05800 0.82198 0.55381
 H159 H 1.09967 0.79100 0.46610
 H160 H 1.05667 0.75422 0.46205
 C161 C 0.90960 0.80680 0.50218
 C162 C 0.99510 0.66294 0.58524
 C163 C 1.08276 0.81012 0.51056
 C164 C 1.01282 0.66921 0.41903
 C165 C 0.46219 -0.02930 0.28002
 H166 H 0.48170 -0.04655 0.27658
 C167 C 0.43866 -0.03584 0.30245
 H168 H 0.44009 -0.05835 0.31611
 C169 C 0.43712 0.02132 0.26680
 H170 H 0.43689 0.04377 0.25315
 C171 C 0.41312 0.01583 0.28917
 H172 H 0.39424 0.03394 0.29176
 N173 N 0.46096 -0.00120 0.26264
 C174 C 0.52312 -0.02344 0.18355
 H175 H 0.53913 -0.00385 0.18494
 C176 C 0.52742 -0.04556 0.16009
 H177 H 0.54706 -0.04263 0.14363
 C178 C 0.47805 -0.05021 0.20341
 H179 H 0.45858 -0.05159 0.22011
 C180 C 0.48128 -0.07287 0.18015
 H181 H 0.46410 -0.09144 0.18021
 Zn182 Zn 0.49546 0.00594 0.23467
 N183 N 0.49900 -0.02631 0.20480
 C184 C 0.55400 -0.02031 0.25633
 N185 N 0.53231 0.00457 0.25893
 C186 C 0.53466 0.02669 0.28119
 C187 C 0.55949 0.02417 0.30219
 C188 C 0.57911 -0.02383 0.27682
 C189 C 0.46438 0.04810 0.19317
 C190 C 0.46065 0.07403 0.17177
 C191 C 0.50988 0.09446 0.18874
 C192 C 0.51251 0.06812 0.21008
 N193 N 0.49009 0.04544 0.21158
 H194 H 0.55124 -0.03828 0.23917
 H195 H 0.51667 0.04583 0.28317
 H196 H 0.55995 0.04197 0.31982
 H197 H 0.59569 -0.04426 0.27458
 H198 H 0.44725 0.02935 0.19439
 H199 H 0.44022 0.07509 0.15693
 H200 H 0.52857 0.11150 0.18784
 H201 H 0.53315 0.06512 0.22444
 C202 C 0.50640 -0.07082 0.15788
 C203 C 0.41393 -0.01302 0.30756
 C204 C 0.48390 0.09733 0.16862
 C205 C 0.58204 -0.00177 0.30050
 C206 C 0.53394 -0.00706 0.69814
 H207 H 0.51857 -0.02735 0.69975
 C208 C 0.55980 -0.00748 0.67726
 H209 H 0.56382 -0.02830 0.66313
 C210 C 0.54528 0.04561 0.71289
 H211 H 0.53908 0.06666 0.72612
 C212 C 0.57135 0.04622 0.69232
 H213 H 0.58518 0.06768 0.69022
 N214 N 0.52697 0.01934 0.71526
 C215 C 0.46298 -0.01499 0.78991
 H216 H 0.44566 0.00480 0.78976
 C217 C 0.46034 -0.03998 0.81236
 H218 H 0.44050 -0.03949 0.82880
 C219 C 0.51076 -0.03869 0.77005
 H220 H 0.53080 -0.03784 0.75405
 C221 C 0.50912 -0.06420 0.79226
 H222 H 0.52755 -0.08301 0.79218
 Zn223 Zn 0.48905 0.02111 0.74020
 N224 N 0.48761 -0.01492 0.76896
 C225 C 0.42319 0.02380 0.72527
 N226 N 0.45332 0.02151 0.71342
 C227 C 0.45870 0.01849 0.68227
 C228 C 0.43362 0.01570 0.66213
 C229 C 0.39729 0.02180 0.70584
 C230 C 0.51158 0.05876 0.78606
 C231 C 0.51222 0.08385 0.80672
 C232 C 0.46507 0.10750 0.78303
 C233 C 0.46566 0.08213 0.76246
 N234 N 0.48853 0.05824 0.76459
 H235 H 0.41903 0.02728 0.74980
 H236 H 0.48251 0.01808 0.67272
 H237 H 0.43922 0.01356 0.63761
 H238 H 0.37357 0.02343 0.71595
 H239 H 0.52927 0.03921 0.78744
 H240 H 0.53055 0.08263 0.82386
 H241 H 0.44630 0.12600 0.78128
 H242 H 0.44756 0.08131 0.74520
 C243 C 0.48361 -0.06494 0.81388
 C244 C 0.57877 0.01962 0.67396
 C245 C 0.48849 0.10870 0.80567
 C246 C 0.40222 0.01670 0.67391
 C247 C 0.24951 -0.01499 0.49280
 C248 C 0.73613 -0.00748 0.48533
 C249 C 0.51102 0.26562 0.98612
 C250 C 0.50671 0.75739 -0.00907
 C251 C 0.99687 0.48802 0.26160
 C252 C 0.02710 0.48077 0.75664
 C253 C 0.10417 0.14966 0.50046
 C254 C 0.10705 0.11684 0.50917
 C255 C 0.13574 0.09698 0.50234
 N256 N 0.14004 0.06772 0.51715
 N257 N 0.16536 0.04886 0.51064
 C258 C 0.18721 0.05846 0.48886
 N259 N 0.18282 0.08767 0.47389
 N260 N 0.15759 0.10666 0.48057
 C261 C 0.21472 0.03732 0.48083
 C262 C 0.22328 0.01025 0.49970
 H263 H 0.08852 0.10512 0.52256
 H264 H 0.22772 0.04330 0.45957
 H265 H 0.12500 0.16111 0.49070
 H266 H 0.20914 0.00574 0.52072
 C267 C 0.66853 0.61132 -0.01894
 C268 C 0.64971 0.62564 0.00421
 C269 C 0.62440 0.64982 -0.00337
 N270 N 0.60930 0.66621 0.01971
 N271 N 0.58593 0.68773 0.01318
 C272 C 0.57672 0.69354 -0.01667
 N273 N 0.59175 0.67708 -0.03974
 N274 N 0.61520 0.65567 -0.03323
 C275 C 0.55041 0.71653 -0.02423
 C276 C 0.53605 0.73640 -0.00206
 H277 H 0.65386 0.61952 0.02854
 H278 H 0.54178 0.71764 -0.04781
 H279 H 0.66575 0.61981 -0.04294
 H280 H 0.54449 0.73470 0.02162
 C281 C 0.88224 -0.16997 0.50523
 C282 C 0.87035 -0.14998 0.48094
 C283 C 0.84443 -0.12585 0.48635
 N284 N 0.83187 -0.10816 0.46206
 N285 N 0.80893 -0.08579 0.46688
 C286 C 0.79778 -0.08023 0.49621
 N287 N 0.81034 -0.09792 0.52045
 N288 N 0.83318 -0.12030 0.51562
 C289 C 0.77319 -0.05504 0.50238
 C290 C 0.75815 -0.03650 0.47876
 H291 H 0.87992 -0.15192 0.45749
 H292 H 0.76742 -0.05047 0.52655
 H293 H 0.87070 -0.16872 0.52799
 H294 H 0.76572 -0.04018 0.45483
 C295 C 0.34783 0.40407 1.02579
 C296 C 0.35665 0.38250 1.00254
 C297 C 0.38474 0.36051 1.00522
 N298 N 0.39400 0.34223 0.98087
 N299 N 0.41997 0.32303 0.98246
 C300 C 0.43766 0.32140 1.00851
 N301 N 0.42828 0.33948 1.03296
 N302 N 0.40234 0.35872 1.03134
 C303 C 0.46679 0.30090 1.01043
 C304 C 0.47904 0.28383 0.98515
 H305 H 0.34400 0.38223 0.98103
 H306 H 0.47945 0.29989 1.03210
 H307 H 0.36176 0.40305 1.04670
 H308 H 0.46760 0.28756 0.96292
 C309 C 0.87830 0.13838 0.53012
 C310 C 0.85499 0.13433 0.50830
 C311 C 0.83419 0.10671 0.50991
 N312 N 0.81322 0.10339 0.48697
 N313 N 0.79489 0.07801 0.48730
 C314 C 0.79685 0.05493 0.51057
 N315 N 0.81771 0.05832 0.53365
 N316 N 0.83611 0.08372 0.53330
 C317 C 0.77690 0.02663 0.51083
 C318 C 0.75670 0.02160 0.48639
 H319 H 0.85198 0.15149 0.48890
 H320 H 0.77801 0.00953 0.53052
 H321 H 0.87947 0.12205 0.55043
 H322 H 0.75704 0.03833 0.46633
 C323 C 0.34696 0.62284 0.02066
 C324 C 0.36483 0.63472 -0.00469
 C325 C 0.39115 0.65620 -0.00067
 N326 N 0.40524 0.67070 -0.02596
 N327 N 0.42947 0.68979 -0.02263
 C328 C 0.44063 0.69486 0.00610
 N329 N 0.42666 0.68022 0.03135
 N330 N 0.40235 0.66127 0.02804
 C331 C 0.46725 0.71586 0.01030
 C332 C 0.47958 0.73533 -0.01393
 H333 H 0.35935 0.62851 -0.02814
 H334 H 0.47685 0.71686 0.03340
 H335 H 0.35098 0.63168 0.04359
 H336 H 0.47027 0.73379 -0.03711
 C337 C 0.10642 -0.16748 0.51469
 C338 C 0.13055 -0.15998 0.49298
 C339 C 0.15373 -0.13532 0.49866
 N340 N 0.17320 -0.12487 0.47510
 N341 N 0.19369 -0.10198 0.47962
 C342 C 0.19564 -0.08881 0.50795
 N343 N 0.17644 -0.09953 0.53161
 N344 N 0.15585 -0.12231 0.52706
 C345 C 0.21717 -0.06254 0.51305
 C346 C 0.23282 -0.04625 0.48846
 H347 H 0.13213 -0.17096 0.47059
 H348 H 0.21902 -0.05421 0.53651
 H349 H 0.10542 -0.15436 0.53607
 H350 H 0.22875 -0.05339 0.46492
 C351 C 0.68195 0.38555 0.99694
 C352 C 0.65644 0.38372 0.97695
 C353 C 0.63405 0.35739 0.97975
 N354 N 0.60554 0.36110 0.96595
 N355 N 0.58460 0.33794 0.96871
 C356 C 0.59146 0.31002 0.98518
 N357 N 0.62016 0.30608 0.99864
 N358 N 0.64104 0.32939 0.99609
 C359 C 0.56817 0.28456 0.98888
 C360 C 0.53612 0.29088 0.98283
 H361 H 0.65074 0.40309 0.96026
 H362 H 0.57612 0.26084 0.99761
 H363 H 0.68471 0.36672 1.01502
 H364 H 0.52906 0.31479 0.97371
 C365 C 0.48068 0.12130 1.14460
 C366 C 0.50272 0.14477 1.13663
 C367 C 0.49944 0.16578 1.10827
 N368 N 0.52145 0.18797 1.10087
 N369 N 0.51938 0.20620 1.07467
 C370 C 0.49524 0.20285 1.05485
 N371 N 0.47321 0.18075 1.06229
 N372 N 0.47526 0.16256 1.08847
 C373 C 0.49284 0.22214 1.02544
 C374 C 0.51403 0.24604 1.01669
 H375 H 0.52354 0.14735 1.15026
 H376 H 0.47368 0.21747 1.01015
 H377 H 0.46002 0.12066 1.13018
 H378 H 0.53244 0.25130 1.03265
 C379 C -0.00824 0.63805 0.61069
 C380 C 0.01624 0.62778 0.63041
 C381 C 0.01242 0.60158 0.65420
 N382 N 0.03763 0.59065 0.67109
 N383 N 0.03475 0.56649 0.69222
 C384 C 0.00653 0.55237 0.69729
 N385 N -0.01874 0.56343 0.68055
 N386 N -0.01585 0.58757 0.65938
 C387 C 0.00316 0.52513 0.71999
 C388 C 0.02897 0.51134 0.73607
 H389 H 0.03932 0.63800 0.62768
 H390 H -0.02000 0.51517 0.72349
 H391 H -0.03054 0.62603 0.61286
 H392 H 0.05223 0.52055 0.73084
 C393 C 0.48014 0.90910 -0.16174
 C394 C 0.50478 0.88811 -0.15171
 C395 C 0.50018 0.86436 -0.12575
 N396 N 0.52493 0.84528 -0.11553
 N397 N 0.52113 0.82421 -0.09161
 C398 C 0.49242 0.82149 -0.07703
 N399 N 0.46768 0.84046 -0.08732
 N400 N 0.47148 0.86149 -0.11121
 C401 C 0.48770 0.79889 -0.05026
 C402 C 0.51202 0.77882 -0.03806
 H403 H 0.52828 0.88974 -0.16200
 H404 H 0.46433 0.79830 -0.03937
 H405 H 0.45727 0.90761 -0.14993
 H406 H 0.53563 0.78013 -0.04835
 C407 C 0.96648 0.33360 0.41077
 C408 C 0.98732 0.33978 0.38556
 C409 C 0.98325 0.36838 0.36443
 N410 N 1.00642 0.37535 0.34314
 N411 N 1.00368 0.40145 0.32423
 C412 C 0.97764 0.42160 0.32583
 N413 N 0.95430 0.41454 0.34697
 N414 N 0.95710 0.38844 0.36601
 C415 C 0.97450 0.45039 0.30478
 C416 C 0.99948 0.45970 0.28500
 H417 H 1.00831 0.32476 0.38153
 H418 H 0.95225 0.46426 0.30447
 H419 H 0.94643 0.35048 0.41349
 H420 H 1.02191 0.44627 0.28695
 C421 C 0.51132 0.90837 0.13459
 C422 C 0.49219 0.88266 0.12829
 C423 C 0.49968 0.86140 0.10224
 N424 N 0.47909 0.83872 0.09493
 N425 N 0.48550 0.81941 0.07133
 C426 C 0.51280 0.82202 0.05422
 N427 N 0.53345 0.84457 0.06161
 N428 N 0.52700 0.86393 0.08515
 C429 C 0.52030 0.80087 0.02817
 C430 C 0.49893 0.77893 0.01807
 H431 H 0.47092 0.87785 0.14179
 H432 H 0.54316 0.80268 0.01639
 H433 H 0.53165 0.91193 0.11911
 H434 H 0.47569 0.77815 0.02924
 C435 C -0.01244 0.32618 0.62387
 C436 C 0.01418 0.33715 0.63842
 C437 C 0.01173 0.36442 0.65938
 N438 N 0.03768 0.37351 0.67432
 N439 N 0.03587 0.39860 0.69283
 C440 C 0.00805 0.41559 0.69694
 N441 N -0.01785 0.40655 0.68196
 N442 N -0.01606 0.38144 0.66353
 C443 C 0.00539 0.44324 0.71730
 C444 C 0.03030 0.45236 0.73542
 H445 H 0.03751 0.32643 0.63435
 H446 H -0.01726 0.45626 0.71877
 H447 H -0.03524 0.33733 0.63007
 H448 H 0.05316 0.43981 0.73292
 C449 C 0.48656 0.13375 0.82699
 C450 C 0.50992 0.13979 0.84839
 C451 C 0.50499 0.16379 0.87260
 N452 N 0.52990 0.17277 0.88922
 N453 N 0.52567 0.19360 0.91195
 C454 C 0.49629 0.20602 0.91909
 N455 N 0.47138 0.19694 0.90256
 N456 N 0.47564 0.17627 0.87970
 C457 C 0.49094 0.22848 0.94456
 C458 C 0.51573 0.24287 0.95925
 H459 H 0.53280 0.12728 0.84752
 H460 H 0.46664 0.23376 0.95173
 H461 H 0.46555 0.14963 0.82676
 H462 H 0.53983 0.23613 0.95228
 C463 C 1.01727 0.64529 0.39674
 C464 C 0.99522 0.63768 0.37458
 C465 C 1.00088 0.61028 0.35398
 N466 N 0.97771 0.60156 0.33501
 N467 N 0.98220 0.57629 0.31693
 C468 C 1.01006 0.55880 0.31715
 N469 N 1.03329 0.56764 0.33596
 N470 N 1.02878 0.59286 0.35406
 C471 C 1.01535 0.53049 0.29778
 C472 C 0.99176 0.51876 0.27954
 H473 H 0.97269 0.65070 0.37280
 H474 H 1.03836 0.51803 0.29831
 H475 H 1.03911 0.63069 0.39757
 H476 H 0.96828 0.53017 0.28058
 C477 C 1.15009 0.52550 0.11768
 C478 C 1.14366 0.50325 0.14219
 C479 C 1.11587 0.50706 0.16322
 N480 N 1.10988 0.48355 0.18514
 N481 N 1.08444 0.48593 0.20389
 C482 C 1.06398 0.51194 0.20150
 N483 N 1.07007 0.53564 0.17974
 N484 N 1.09553 0.53323 0.16090
 C485 C 1.03541 0.51420 0.22176
 C486 C 1.02716 0.48848 0.24189
 H487 H 1.15841 0.48175 0.14623
 H488 H 1.02043 0.53596 0.22046
 H489 H 1.13416 0.54659 0.11559
 H490 H 1.04180 0.46646 0.24116
 C491 C 0.60469 0.02218 0.65021
 C492 C 0.61802 -0.00392 0.63426
 C493 C 0.64079 0.00058 0.60810
 N494 N 0.65378 -0.02546 0.59367
 N495 N 0.67353 -0.02167 0.56924
 C496 C 0.68092 0.00835 0.55829
 N497 N 0.66800 0.03437 0.57277
 N498 N 0.64831 0.03057 0.59721
 C499 C 0.70202 0.01315 0.53091
 C500 C 0.71677 -0.01250 0.51531
 H501 H 0.61151 -0.02831 0.64056
 H502 H 0.70579 0.03771 0.52254
 H503 H 0.61333 0.04604 0.64467
 H504 H 0.71129 -0.03695 0.52279
 C505 C -0.12938 0.51136 0.89854
 C506 C -0.11876 0.48745 0.87838
 C507 C -0.09234 0.49237 0.85597
 N508 N -0.08224 0.46797 0.83764
 N509 N -0.05794 0.47172 0.81769
 C510 C -0.04279 0.50004 0.81530
 N511 N -0.05297 0.52453 0.83352
 N512 N -0.07730 0.52077 0.85349
 C513 C -0.01534 0.50411 0.79395
 C514 C -0.00344 0.47896 0.77587
 H515 H -0.12909 0.46400 0.87947
 H516 H -0.00378 0.52698 0.79297
 H517 H -0.11759 0.53413 0.89751
 H518 H -0.01454 0.45584 0.77833
 C519 C 0.38972 -0.02039 0.33205
 C520 C 0.37044 0.00302 0.34649
 C521 C 0.34834 -0.00542 0.37233
 N522 N 0.33129 0.01817 0.38696
 N523 N 0.31161 0.01086 0.41070
 C524 C 0.30830 -0.02034 0.42070
 N525 N 0.32526 -0.04391 0.40600
 N526 N 0.34492 -0.03661 0.38229
 C527 C 0.28686 -0.02905 0.44693
 C528 C 0.26938 -0.00606 0.46386
 H529 H 0.37234 0.02829 0.33980
 H530 H 0.28523 -0.05445 0.45337
 H531 H 0.38839 -0.04530 0.34041
 H532 H 0.27461 0.01903 0.45928
 C533 C 0.17056 0.51712 0.90117
 C534 C 0.15275 0.49158 0.89189
 C535 C 0.13095 0.49514 0.86571
 N536 N 0.11786 0.46864 0.85466
 N537 N 0.09731 0.47149 0.83160
 C538 C 0.08894 0.50099 0.81886
 N539 N 0.10196 0.52751 0.82997
 N540 N 0.12265 0.52464 0.85293
 C541 C 0.06552 0.50463 0.79411
 C542 C 0.05407 0.47810 0.77941
 H543 H 0.15492 0.46796 0.90331
 H544 H 0.05682 0.52880 0.78763
 H545 H 0.16986 0.53917 0.88672
 H546 H 0.06245 0.45410 0.78706
 C547 C 0.60648 -0.00746 0.32201
 C548 C 0.61255 0.01220 0.34675
 C549 C 0.63657 0.00301 0.37009
 N550 N 0.64327 0.02403 0.39220
 N551 N 0.66445 0.01594 0.41389
 C552 C 0.67964 -0.01355 0.41440
 N553 N 0.67289 -0.03463 0.39234
 N554 N 0.65175 -0.02650 0.37057
 C555 C 0.70306 -0.02271 0.43835
 C556 C 0.71239 -0.00054 0.45970
 H557 H 0.59969 0.03490 0.34972
 H558 H 0.71298 -0.04717 0.43900
 H559 H 0.62148 -0.02907 0.31954
 H560 H 0.70094 0.02333 0.45898
 C561 C 0.84583 0.50766 0.11725
 C562 C 0.86717 0.48383 0.12904
 C563 C 0.88907 0.49011 0.15405
 N564 N 0.90574 0.46519 0.16804
 N565 N 0.92647 0.47054 0.18997
 C566 C 0.93147 0.50106 0.19858
 N567 N 0.91487 0.52600 0.18453
 N568 N 0.89401 0.52064 0.16271
 C569 C 0.95505 0.50745 0.22201
 C570 C 0.96979 0.48267 0.24002
 H571 H 0.86796 0.45969 0.12043
 H572 H 0.96112 0.53226 0.22489
 H573 H 0.84393 0.53031 0.12907
 H574 H 0.96384 0.45797 0.23612
 C575 C 0.37587 0.01329 0.65499
 C576 C 0.37778 0.00199 0.62466
 C577 C 0.34985 0.00021 0.60507
 N578 N 0.35211 -0.01637 0.57844
 N579 N 0.32751 -0.01719 0.55970
 C580 C 0.29974 -0.00129 0.56683
 N581 N 0.29748 0.01531 0.59347
 N582 N 0.32203 0.01596 0.61232
 C583 C 0.27314 -0.00001 0.54526
 C584 C 0.27279 -0.01940 0.51930
 H585 H 0.40002 -0.00715 0.61495
 H586 H 0.25427 0.01776 0.54945
 H587 H 0.35247 0.01840 0.66494
 H588 H 0.29160 -0.03769 0.51662
   
