data_POSCAR
  _audit_creation_date              2014-09-24
  _audit_creation_method            'ToBaCCo'
  _symmetry_space_group_name_H-M    'P1'
  _symmetry_Int_Tables_number       1
  _symmetry_cell_setting            triclinic
  loop_
  _symmetry_equiv_pos_as_xyz
 x,y,z
_cell_length_a 18.9387
_cell_length_b 19.7171
_cell_length_c 52.6043
_cell_angle_alpha 84.822300
_cell_angle_beta 85.152400
_cell_angle_gamma 121.541100
loop_
  _atom_site_label
  _atom_site_type_symbol
  _atom_site_fract_x
  _atom_site_fract_y
  _atom_site_fract_z
C1 C -0.05339 0.08828 0.52470
 H2 H -0.00273 0.11925 0.50871
 C3 C -0.05929 0.13187 0.54335
 H4 H -0.01134 0.19520 0.54151
 C5 C -0.17484 -0.03145 0.54679
 H6 H -0.21992 -0.09517 0.54805
 C7 C -0.18406 0.01007 0.56565
 H8 H -0.23705 -0.02285 0.58102
 N9 N -0.10806 0.00719 0.52745
 C10 C 0.01486 -0.11121 0.52495
 H11 H 0.06526 -0.06327 0.51083
 C12 C 0.02991 -0.16170 0.54087
 H13 H 0.09202 -0.15208 0.53889
 C14 C -0.12736 -0.18299 0.54470
 H15 H -0.18894 -0.19198 0.54589
 C16 C -0.11538 -0.23514 0.56072
 H17 H -0.16767 -0.28237 0.57462
 Zn18 Zn -0.08753 -0.05614 0.50627
 N19 N -0.06283 -0.12240 0.52725
 C20 C 0.07925 0.07002 0.48179
 N21 N 0.00159 0.01041 0.47824
 C22 C -0.01721 -0.00208 0.45404
 C23 C 0.04042 0.04903 0.43244
 C24 C 0.13871 0.12391 0.46057
 C25 C -0.22890 -0.09372 0.48230
 C26 C -0.28714 -0.13510 0.46608
 C27 C -0.25617 -0.23931 0.47108
 C28 C -0.19844 -0.19571 0.48704
 N29 N -0.18434 -0.12346 0.49179
 H30 H 0.09390 0.07802 0.50116
 H31 H -0.07779 -0.05083 0.45125
 H32 H 0.02292 0.03785 0.41348
 H33 H 0.19818 0.17362 0.46393
 H34 H -0.21608 -0.03573 0.48625
 H35 H -0.32130 -0.10922 0.45906
 H36 H -0.25943 -0.29317 0.46664
 H37 H -0.16043 -0.21706 0.49414
 C38 C -0.03598 -0.22494 0.55894
 C39 C -0.12326 0.09222 0.56488
 C40 C -0.29932 -0.20773 0.45900
 C41 C 0.11856 0.11496 0.43546
 C42 C 1.20208 0.16802 0.12306
 H43 H 1.21505 0.22812 0.12361
 C44 C 1.25110 0.15609 0.10495
 H45 H 1.30064 0.20722 0.09141
 C46 C 1.12117 0.02861 0.13985
 H47 H 1.07059 -0.02100 0.15343
 C48 C 1.16815 0.01381 0.12183
 H49 H 1.15338 -0.04720 0.12185
 N50 N 1.13807 0.10469 0.13994
 C51 C 0.91139 0.08822 0.15019
 H52 H 0.88592 0.05132 0.16900
 C53 C 0.85708 0.08082 0.13273
 H54 H 0.79043 0.03763 0.13817
 C55 C 1.02875 0.18729 0.11976
 H56 H 1.09582 0.22709 0.11449
 C57 C 0.97663 0.18247 0.10183
 H58 H 1.00413 0.21799 0.08273
 Zn59 Zn 1.07009 0.12580 0.16236
 N60 N 0.99589 0.13726 0.14287
 C61 C 1.10561 0.26150 0.18542
 N62 N 1.13934 0.22110 0.17583
 C63 C 1.21543 0.23682 0.18072
 C64 C 1.25824 0.29134 0.19724
 C65 C 1.14626 0.31643 0.20215
 C66 C 0.94573 -0.03469 0.18771
 C67 C 0.89541 -0.09382 0.20918
 C68 C 0.97675 0.00069 0.23681
 C69 C 1.02475 0.05792 0.21495
 N70 N 1.00782 0.04026 0.19094
 H71 H 1.04422 0.24662 0.18165
 H72 H 1.23969 0.20208 0.17358
 H73 H 1.31571 0.29835 0.20229
 H74 H 1.11642 0.34500 0.21064
 H75 H 0.93288 -0.04764 0.16849
 H76 H 0.84402 -0.15168 0.20617
 H77 H 0.99132 0.01684 0.25566
 H78 H 1.07465 0.11706 0.21738
 C79 C 0.89024 0.12568 0.10785
 C80 C 1.23388 0.07804 0.10402
 C81 C 0.90972 -0.07587 0.23421
 C82 C 1.22160 0.32880 0.20929
 C83 C 0.13754 0.89925 0.86111
 H84 H 0.09517 0.83681 0.85928
 C85 C 0.19838 0.91898 0.87713
 H86 H 0.20225 0.87105 0.88728
 C87 C 0.17771 1.03564 0.85200
 H88 H 0.16812 1.08064 0.84267
 C89 C 0.23951 1.05812 0.86792
 H90 H 0.27778 1.12076 0.87023
 N91 N 0.12641 0.95686 0.84958
 C92 C -0.12958 0.89369 0.85708
 H93 H -0.13624 0.90765 0.83740
 C94 C -0.18579 0.88772 0.87762
 H95 H -0.23450 0.89788 0.87310
 C96 C -0.05275 0.87143 0.88627
 H97 H -0.00052 0.86609 0.88980
 C98 C -0.10666 0.86548 0.90722
 H99 H -0.09545 0.85324 0.92644
 Zn100 Zn 0.02690 0.92136 0.83470
 N101 N -0.06294 0.88831 0.86176
 C102 C -0.07291 0.78645 0.81091
 N103 N 0.00565 0.83597 0.81633
 C104 C 0.07212 0.83456 0.80509
 C105 C 0.06137 0.78336 0.78712
 C106 C -0.08636 0.73475 0.79282
 C107 C 0.03245 1.06669 0.82015
 C108 C 0.02200 1.11934 0.80354
 C109 C 0.02004 1.04581 0.76899
 C110 C 0.03178 0.99562 0.78604
 N111 N 0.03508 1.00509 0.81129
 H112 H -0.12437 0.79007 0.81964
 H113 H 0.13450 0.87662 0.80889
 H114 H 0.11583 0.78590 0.77757
 H115 H -0.14886 0.69745 0.78818
 H116 H 0.03353 1.07207 0.84041
 H117 H 0.01591 1.16576 0.81100
 H118 H 0.01362 1.03512 0.74923
 H119 H 0.03410 0.94665 0.77926
 C120 C -0.17206 0.87788 0.90327
 C121 C 0.24821 0.99886 0.88159
 C122 C 0.01261 1.10695 0.77790
 C123 C -0.01820 0.73442 0.78015
 C124 C 0.38586 0.05044 -0.00786
 C125 C 0.42812 0.04766 -0.03065
 C126 C 0.49937 0.04280 -0.02941
 C127 C 0.52674 0.03782 -0.00557
 C128 C 0.48150 0.03862 0.01696
 C129 C 0.41232 0.04603 0.01590
 C130 C 0.59951 0.02812 -0.00354
 C131 C 0.64659 0.05592 0.01674
 C132 C 0.70508 0.03557 0.02170
 C133 C 0.71988 -0.00937 0.00542
 C134 C 0.68228 -0.02940 -0.01695
 C135 C 0.61988 -0.01230 -0.02080
 H136 H 0.33161 0.05506 -0.00855
 H137 H 0.53375 0.04385 -0.04703
 H138 H 0.49815 0.03133 0.03575
 H139 H 0.63620 0.09138 0.02932
 H140 H 0.76299 -0.02702 0.01011
 H141 H 0.58621 -0.03130 -0.03687
 C142 C -0.02869 0.61453 0.66738
 C143 C -0.04153 0.57092 0.69168
 C144 C -0.05166 0.49484 0.69324
 C145 C -0.04469 0.46345 0.67074
 C146 C -0.02798 0.51044 0.64653
 C147 C -0.02160 0.58484 0.64478
 C148 C -0.05564 0.38199 0.67245
 C149 C -0.08221 0.33677 0.65203
 C150 C -0.08971 0.26181 0.65294
 C151 C -0.07521 0.22978 0.67537
 C152 C -0.05350 0.27103 0.69654
 C153 C -0.04046 0.34829 0.69456
 H154 H -0.02513 0.67130 0.66615
 H155 H -0.06753 0.45962 0.71209
 H156 H -0.01975 0.49003 0.62875
 H157 H -0.09854 0.35897 0.63553
 H158 H -0.07848 0.17314 0.67622
 H159 H -0.01924 0.38116 0.71051
 C160 C 0.66032 0.72728 0.34666
 C161 C 0.65676 0.70641 0.32174
 C162 C 0.58440 0.63613 0.31726
 C163 C 0.51582 0.58797 0.33720
 C164 C 0.52012 0.61223 0.36168
 C165 C 0.59204 0.68138 0.36650
 C166 C 0.44074 0.51157 0.33273
 C167 C 0.39698 0.44458 0.35271
 C168 C 0.32595 0.37237 0.34888
 C169 C 0.30010 0.36712 0.32455
 C170 C 0.34261 0.43255 0.30438
 C171 C 0.41269 0.50472 0.30855
 H172 H 0.71760 0.77794 0.35084
 H173 H 0.58173 0.61860 0.29831
 H174 H 0.46765 0.57750 0.37720
 H175 H 0.41807 0.44860 0.37130
 H176 H 0.24751 0.31074 0.32098
 H177 H 0.44411 0.55567 0.29309
 C178 C -0.07484 0.21910 0.58431
 C179 C -0.12132 0.13468 0.58719
 C180 C -0.15717 0.09234 0.61259
 C181 C -0.15100 0.13335 0.63363
 C182 C -0.10747 0.21835 0.63023
 C183 C -0.06824 0.25990 0.60513
 C184 C -0.07566 0.32193 0.58909
 C185 C -0.08149 0.27785 0.56642
 H186 H -0.18937 0.02740 0.61655
 H187 H -0.18068 0.09799 0.65265
 H188 H -0.01745 0.38282 0.58653
 H189 H -0.13463 0.31955 0.59531
 H190 H -0.02606 0.31299 0.55098
 H191 H -0.14330 0.25046 0.55958
 C192 C 0.83985 0.89360 0.27997
 C193 C 0.85355 0.86587 0.25764
 C194 C 0.81088 0.78148 0.25850
 C195 C 0.74939 0.72853 0.27981
 C196 C 0.72891 0.75879 0.30069
 C197 C 0.77959 0.84181 0.30082
 C198 C 0.75579 0.90115 0.30586
 C199 C 0.82178 0.95791 0.28294
 H200 H 0.82259 0.75629 0.24242
 H201 H 0.71620 0.66439 0.27939
 H202 H 0.77202 0.92313 0.32451
 H203 H 0.69062 0.88033 0.30269
 H204 H 0.87552 1.01223 0.28851
 H205 H 0.79503 0.96998 0.26637
 C206 C 0.33238 -0.03077 -0.09005
 C207 C 0.30125 0.01741 -0.09756
 C208 C 0.31206 0.07632 -0.08218
 C209 C 0.35706 0.08910 -0.06128
 C210 C 0.39279 0.04351 -0.05505
 C211 C 0.37730 -0.01792 -0.06951
 C212 C 0.43700 -0.03461 -0.08374
 C213 C 0.38693 -0.04970 -0.10592
 H214 H 0.28466 0.11183 -0.08590
 H215 H 0.36370 0.13469 -0.04992
 H216 H 0.43256 -0.08967 -0.07422
 H217 H 0.50170 0.01944 -0.08887
 H218 H 0.35269 -0.11369 -0.10895
 H219 H 0.42265 -0.00474 -0.12373
 C220 C 0.05007 0.74981 0.58778
 C221 C -0.02243 0.72062 0.57626
 C222 C -0.08553 0.63817 0.58366
 C223 C -0.08163 0.59196 0.60490
 C224 C -0.01525 0.62759 0.61934
 C225 C 0.05314 0.70499 0.60904
 C226 C 0.10675 0.77836 0.62076
 C227 C 0.10294 0.82741 0.59743
 H228 H -0.14073 0.61095 0.57427
 H229 H -0.13405 0.53075 0.61139
 H230 H 0.17055 0.78980 0.62143
 H231 H 0.07550 0.78150 0.63901
 H232 H 0.16456 0.86711 0.58480
 H233 H 0.06808 0.85683 0.60231
 C234 C 0.33932 0.40361 0.23451
 C235 C 0.25446 0.36843 0.23201
 C236 C 0.19893 0.35696 0.25400
 C237 C 0.22860 0.38309 0.27702
 C238 C 0.31467 0.42173 0.27882
 C239 C 0.36886 0.42986 0.25731
 C240 C 0.44599 0.50424 0.24286
 C241 C 0.41397 0.47511 0.21808
 H242 H 0.13199 0.32502 0.25385
 H243 H 0.18387 0.37129 0.29371
 H244 H 0.50385 0.50484 0.24562
 H245 H 0.44820 0.56034 0.24596
 H246 H 0.45296 0.45825 0.20664
 H247 H 0.39783 0.51430 0.20681
 C248 C 0.81984 -0.08794 -0.05349
 C249 C 0.78299 -0.11360 -0.07558
 C250 C 0.70282 -0.12475 -0.07588
 C251 C 0.66674 -0.10272 -0.05617
 C252 C 0.71072 -0.06632 -0.03589
 C253 C 0.78573 -0.06401 -0.03462
 C254 C 0.87033 0.00413 -0.03125
 C255 C 0.90750 -0.02221 -0.05177
 H256 H 0.66796 -0.14931 -0.09146
 H257 H 0.60597 -0.11177 -0.05768
 H258 H 0.88711 -0.00427 -0.01198
 H259 H 0.87982 0.06421 -0.03733
 H260 H 0.94462 -0.04599 -0.04409
 H261 H 0.93894 0.02267 -0.06978
 C262 C 0.24465 -0.00442 0.07195
 C263 C 0.28309 0.06360 0.08425
 C264 C 0.36984 0.11935 0.07623
 C265 C 0.41248 0.11193 0.05443
 C266 C 0.36894 0.04969 0.03990
 C267 C 0.28610 -0.01085 0.05019
 C268 C 0.20808 -0.05165 0.03821
 C269 C 0.16269 -0.04475 0.06217
 H270 H 0.40391 0.17056 0.08606
 H271 H 0.47819 0.15743 0.04804
 H272 H 0.18733 -0.11493 0.03638
 H273 H 0.21012 -0.01505 0.02051
 H274 H 0.11614 -0.10403 0.07415
 H275 H 0.13973 -0.00378 0.05823
 C276 C 0.63348 0.79948 0.42217
 C277 C 0.65397 0.75709 0.44014
 C278 C 0.62778 0.67726 0.43603
 C279 C 0.60063 0.65008 0.41277
 C280 C 0.59863 0.70138 0.39292
 C281 C 0.60822 0.77293 0.39908
 C282 C 0.65179 0.85590 0.38424
 C283 C 0.68076 0.88583 0.40925
 H284 H 0.63068 0.63571 0.45010
 H285 H 0.58805 0.59153 0.40952
 H286 H 0.60698 0.87130 0.37759
 H287 H 0.70471 0.87053 0.36933
 H288 H 0.65345 0.91969 0.41657
 H289 H 0.74973 0.91605 0.40866
 C290 C 0.03078 0.23519 0.75591
 C291 C -0.01394 0.15095 0.76115
 C292 C -0.08442 0.10800 0.74881
 C293 C -0.10087 0.14801 0.72899
 C294 C -0.04647 0.23180 0.72081
 C295 C 0.01495 0.27479 0.73610
 C296 C 0.10577 0.33815 0.72836
 C297 C 0.12306 0.29479 0.75001
 H298 H -0.12370 0.04290 0.75337
 H299 H -0.15307 0.11252 0.71901
 H300 H 0.11991 0.39850 0.73185
 H301 H 0.13115 0.33638 0.70875
 H302 H 0.14719 0.33024 0.76594
 H303 H 0.15847 0.26781 0.74298
 C304 C 0.81029 0.02916 0.07895
 C305 C 0.83884 0.10379 0.08695
 C306 C 0.83148 0.16095 0.07123
 C307 C 0.78715 0.13924 0.05004
 C308 C 0.75181 0.06074 0.04378
 C309 C 0.76854 0.00855 0.05790
 C310 C 0.71071 -0.07717 0.07022
 C311 C 0.75605 -0.05462 0.09350
 H312 H 0.85833 0.22149 0.07565
 H313 H 0.78051 0.18356 0.03865
 H314 H 0.72108 -0.11882 0.05995
 H315 H 0.64433 -0.09428 0.07418
 H316 H 0.79199 -0.08381 0.09676
 H317 H 0.71543 -0.05903 0.11091
 C318 C 0.14193 0.18741 0.39103
 C319 C 0.17539 0.17501 0.41242
 C320 C 0.26359 0.22196 0.41086
 C321 C 0.31395 0.28471 0.38985
 C322 C 0.27716 0.30202 0.36999
 C323 C 0.19111 0.24874 0.37054
 C324 C 0.12400 0.26572 0.36726
 C325 C 0.06988 0.19835 0.38980
 H326 H 0.29363 0.21206 0.42611
 H327 H 0.38102 0.32071 0.38964
 H328 H 0.10016 0.25137 0.34862
 H329 H 0.14132 0.32629 0.37156
 H330 H 0.01493 0.14542 0.38409
 H331 H 0.05569 0.21970 0.40723
 C332 C 0.02360 0.65966 0.75267
 C333 C -0.02741 0.68997 0.75808
 C334 C -0.08056 0.68481 0.74004
 C335 C -0.08679 0.64444 0.71877
 C336 C -0.04107 0.60714 0.71517
 C337 C 0.01646 0.61867 0.73199
 C338 C 0.02987 0.55977 0.74730
 C339 C 0.03862 0.60550 0.76979
 H340 H -0.11710 0.71217 0.74225
 H341 H -0.12833 0.64132 0.70534
 H342 H 0.08907 0.56469 0.73951
 H343 H -0.02653 0.49755 0.75126
 H344 H 0.10311 0.63754 0.77476
 H345 H -0.01249 0.56978 0.78650
   
