data_POSCAR
  _audit_creation_date              2014-09-24
  _audit_creation_method            'ToBaCCo'
  _symmetry_space_group_name_H-M    'P1'
  _symmetry_Int_Tables_number       1
  _symmetry_cell_setting            triclinic
  loop_
  _symmetry_equiv_pos_as_xyz
 x,y,z
_cell_length_a 40.9178
_cell_length_b 40.9034
_cell_length_c 40.9042
_cell_angle_alpha 97.780500
_cell_angle_beta 82.815700
_cell_angle_gamma 97.155400
loop_
  _atom_site_label
  _atom_site_type_symbol
  _atom_site_fract_x
  _atom_site_fract_y
  _atom_site_fract_z
O1 O 0.53723 0.50816 0.02937
 O2 O 0.44721 0.50202 0.02525
 O3 O 0.48904 0.46018 0.02997
 O4 O 0.49526 0.54993 0.02489
 O5 O 0.50351 0.54042 -0.02972
 O6 O 0.49733 0.45063 -0.02463
 O7 O 0.45550 0.49247 -0.02930
 O8 O 0.54546 0.49864 -0.02524
 Cu9 Cu 0.49138 0.50600 0.03284
 Cu10 Cu 0.50129 0.49457 -0.03269
 C11 C 0.55677 0.50439 0.00276
 C12 C 0.43585 0.49637 -0.00276
 C13 C 0.49219 0.44002 0.00356
 C14 C 0.50027 0.56055 -0.00329
 O15 O -0.02879 0.53792 0.50405
 O16 O -0.02470 0.44776 0.49784
 O17 O -0.02450 0.49634 0.54592
 O18 O -0.02953 0.48928 0.45602
 O19 O 0.02498 0.49757 0.44709
 O20 O 0.03002 0.50453 0.53711
 O21 O 0.02980 0.45605 0.48891
 O22 O 0.02568 0.54610 0.49523
 Cu23 Cu -0.03233 0.49200 0.50183
 Cu24 Cu 0.03307 0.50188 0.49119
 C25 C -0.00226 0.55754 0.50059
 C26 C 0.00329 0.43648 0.49246
 C27 C 0.00361 0.50150 0.55693
 C28 C -0.00318 0.49238 0.43616
 O29 O 0.50509 0.02547 0.55017
 O30 O 0.51060 0.02963 0.46028
 O31 O 0.46284 0.02992 0.50871
 O32 O 0.55274 0.02495 0.50181
 O33 O 0.54390 -0.02966 0.49285
 O34 O 0.45407 -0.02469 0.49980
 O35 O 0.50177 -0.02497 0.45133
 O36 O 0.49632 -0.02909 0.54128
 Cu37 Cu 0.50868 0.03296 0.50611
 Cu38 Cu 0.49812 -0.03256 0.49541
 C39 C 0.49994 -0.00253 0.56122
 C40 C 0.50705 0.00307 0.44040
 C41 C 0.44305 0.00346 0.50538
 C42 C 0.56370 -0.00324 0.49632
 C43 C 0.49894 -0.03145 -0.07189
 C44 C 0.49986 -0.06392 -0.06520
 C45 C 0.50066 -0.07118 -0.03289
 C46 C 0.50072 -0.04521 -0.00624
 C47 C 0.49961 -0.01212 -0.01257
 C48 C 0.49863 -0.00520 -0.04550
 C49 C 0.49697 0.02769 -0.05107
 C50 C 0.49685 0.05334 -0.02500
 C51 C 0.49777 0.04709 0.00782
 C52 C 0.49946 0.01409 0.01408
 C53 C 0.50226 -0.05137 0.02649
 C54 C 0.50209 -0.02572 0.05257
 C55 C 0.50100 0.00725 0.04692
 C56 C 0.50099 0.03353 0.07328
 C57 C 0.49913 0.06588 0.06671
 C58 C 0.49743 0.07301 0.03453
 H59 H 0.49563 0.03398 -0.07567
 H60 H 0.49612 0.07819 -0.03095
 H61 H 0.50371 -0.07612 0.03235
 H62 H 0.50273 -0.03213 0.07727
 H63 H 0.49995 -0.08394 -0.08552
 H64 H 0.49901 0.08589 0.08704
 C65 C 0.03136 0.50424 0.92623
 C66 C 0.06339 0.50176 0.93352
 C67 C 0.07005 0.50018 0.96594
 C68 C 0.04383 0.50056 0.99204
 C69 C 0.01119 0.50320 0.98510
 C70 C 0.00498 0.50541 0.95215
 C71 C -0.02727 0.50953 0.94615
 C72 C -0.05311 0.51036 0.97173
 C73 C -0.04780 0.50701 1.00436
 C74 C -0.01526 0.50382 1.01120
 C75 C 0.04932 0.49809 1.02481
 C76 C 0.02349 0.49892 1.05038
 C77 C -0.00904 0.50155 1.04413
 C78 C -0.03543 0.50258 1.07003
 C79 C -0.06732 0.50587 1.06291
 C80 C -0.07398 0.50764 1.03052
 H81 H -0.03283 0.51256 0.92165
 H82 H -0.07726 0.51406 0.96566
 H83 H 0.07367 0.49544 1.03110
 H84 H 0.02943 0.49765 1.07518
 H85 H 0.08355 0.50115 0.91359
 H86 H -0.08748 0.50626 1.08285
 C87 C -0.02972 -0.07457 0.50416
 C88 C -0.06192 -0.06779 0.50160
 C89 C -0.06911 -0.03552 0.50017
 C90 C -0.04331 -0.00904 0.50076
 C91 C -0.01052 -0.01544 0.50349
 C92 C -0.00374 -0.04825 0.50555
 C93 C 0.02864 -0.05372 0.50975
 C94 C 0.05406 -0.02774 0.51083
 C95 C 0.04818 0.00476 0.50765
 C96 C 0.01550 0.01107 0.50437
 C97 C -0.04936 0.02361 0.49844
 C98 C -0.02396 0.04958 0.49953
 C99 C 0.00871 0.04387 0.50227
 C100 C 0.03469 0.07018 0.50358
 C101 C 0.06673 0.06356 0.50695
 C102 C 0.07394 0.03131 0.50854
 H103 H 0.03463 -0.07811 0.51266
 H104 H 0.07834 -0.03342 0.51460
 H105 H -0.07386 0.02949 0.49572
 H106 H -0.03033 0.07424 0.49837
 H107 H -0.08178 -0.08801 0.50083
 H108 H 0.08659 0.08379 0.50753
 C109 C -0.35100 0.50343 0.97682
 C110 C -0.33839 0.50928 1.00759
 C111 C -0.36000 0.51391 1.03677
 C112 C -0.39410 0.51253 1.03522
 C113 C -0.40705 0.50648 1.00441
 C114 C -0.38509 0.50204 0.97520
 C115 C -0.30336 0.51008 1.00929
 C116 C -0.27408 0.51052 1.01088
 C117 C -0.23987 0.51079 1.01298
 C118 C -0.21073 0.51082 1.01504
 C119 C -0.17604 0.51061 1.01789
 C120 C -0.15917 0.53663 1.03724
 C121 C -0.12576 0.53592 1.04091
 C122 C -0.10885 0.50926 1.02508
 C123 C -0.12588 0.48322 1.00570
 C124 C -0.15929 0.48396 1.00204
 H125 H -0.33450 0.49978 0.95407
 H126 H -0.35051 0.51843 1.06073
 H127 H -0.41031 0.51605 1.05816
 H128 H -0.39424 0.49733 0.95109
 H129 H -0.17193 0.55728 1.04975
 H130 H -0.11309 0.55603 1.05622
 H131 H -0.11335 0.46221 0.99376
 H132 H -0.17215 0.46360 0.98717
 C133 C 0.34539 0.49882 1.02285
 C134 C 0.33298 0.49334 0.99200
 C135 C 0.35463 0.48826 0.96295
 C136 C 0.38862 0.48894 0.96464
 C137 C 0.40156 0.49478 0.99556
 C138 C 0.37938 0.49952 1.02468
 C139 C 0.29811 0.49347 0.99004
 C140 C 0.26900 0.49382 0.98810
 C141 C 0.23503 0.49446 0.98547
 C142 C 0.20609 0.49514 0.98290
 C143 C 0.17166 0.49606 0.97943
 C144 C 0.15440 0.46977 0.96076
 C145 C 0.12117 0.47098 0.95668
 C146 C 0.10486 0.49842 0.97141
 C147 C 0.12228 0.52477 0.99001
 C148 C 0.15552 0.52354 0.99409
 H149 H 0.32883 0.50279 1.04550
 H150 H 0.34526 0.48400 0.93892
 H151 H 0.40471 0.48513 0.94165
 H152 H 0.38822 0.50405 1.04894
 H153 H 0.16668 0.44847 0.94918
 H154 H 0.10815 0.45059 0.94201
 H155 H 0.11017 0.54632 1.00114
 H156 H 0.16869 0.54409 1.00842
 C157 C 0.02376 -0.35194 0.49942
 C158 C -0.00693 -0.33929 0.50473
 C159 C -0.03606 -0.36083 0.50911
 C160 C -0.03457 -0.39494 0.50799
 C161 C -0.00380 -0.40809 0.50241
 C162 C 0.02538 -0.38602 0.49829
 C163 C -0.00859 -0.30426 0.50527
 C164 C -0.01014 -0.27498 0.50554
 C165 C -0.01221 -0.24076 0.50571
 C166 C -0.01428 -0.21160 0.50578
 C167 C -0.01722 -0.17689 0.50583
 C168 C -0.03698 -0.16015 0.53157
 C169 C -0.04065 -0.12668 0.53123
 C170 C -0.02443 -0.10958 0.50522
 C171 C -0.00465 -0.12645 0.47944
 C172 C -0.00098 -0.15994 0.47981
 H173 H 0.04647 -0.33547 0.49600
 H174 H -0.05997 -0.35128 0.51323
 H175 H -0.05760 -0.41094 0.51132
 H176 H 0.04954 -0.39501 0.49397
 H177 H -0.04977 -0.17305 0.55175
 H178 H -0.05624 -0.11411 0.55115
 H179 H 0.00765 -0.11374 0.45895
 H180 H 0.01422 -0.17270 0.45968
 C181 C -0.02198 0.34431 0.49491
 C182 C 0.00887 0.33192 0.48965
 C183 C 0.03782 0.35359 0.48462
 C184 C 0.03599 0.38756 0.48514
 C185 C 0.00512 0.40034 0.49075
 C186 C -0.02388 0.37829 0.49544
 C187 C 0.01097 0.29713 0.49024
 C188 C 0.01303 0.26813 0.49113
 C189 C 0.01580 0.23431 0.49261
 C190 C 0.01845 0.20557 0.49424
 C191 C 0.02196 0.17141 0.49661
 C192 C 0.03059 0.16249 0.52600
 C193 C 0.03448 0.12944 0.52831
 C194 C 0.02956 0.10497 0.50129
 C195 C 0.02110 0.11403 0.47178
 C196 C 0.01720 0.14712 0.46950
 H197 H -0.04454 0.32776 0.49889
 H198 H 0.06184 0.34427 0.48058
 H199 H 0.05878 0.40383 0.48145
 H200 H -0.04802 0.38732 0.49983
 H201 H 0.03446 0.18110 0.54708
 H202 H 0.04131 0.12289 0.55114
 H203 H 0.01766 0.09550 0.45056
 H204 H 0.01068 0.15377 0.44658
 C205 C 0.50222 0.02334 -0.34806
 C206 C 0.49718 -0.00745 -0.33590
 C207 C 0.49257 -0.03658 -0.35782
 C208 C 0.49321 -0.03500 -0.39182
 C209 C 0.49853 -0.00414 -0.40450
 C210 C 0.50288 0.02505 -0.38205
 C211 C 0.49711 -0.00923 -0.30098
 C212 C 0.49719 -0.01093 -0.27180
 C213 C 0.49738 -0.01323 -0.23770
 C214 C 0.49753 -0.01551 -0.20865
 C215 C 0.49762 -0.01869 -0.17404
 C216 C 0.47075 -0.03651 -0.15722
 C217 C 0.47107 -0.04032 -0.12382
 C218 C 0.49819 -0.02616 -0.10688
 C219 C 0.52514 -0.00838 -0.12386
 C220 C 0.52479 -0.00458 -0.15728
 H221 H 0.50581 0.04605 -0.33129
 H222 H 0.48864 -0.06056 -0.34864
 H223 H 0.48972 -0.05804 -0.40813
 H224 H 0.50701 0.04928 -0.39067
 H225 H 0.44967 -0.04765 -0.16997
 H226 H 0.45023 -0.05435 -0.11115
 H227 H 0.54644 0.00230 -0.11125
 H228 H 0.54579 0.00911 -0.17011
 C229 C 0.50522 -0.02246 0.34789
 C230 C 0.51052 0.00840 0.33581
 C231 C 0.51519 0.03747 0.35784
 C232 C 0.51435 0.03574 0.39184
 C233 C 0.50877 0.00484 0.40428
 C234 C 0.50436 -0.02426 0.38189
 C235 C 0.51048 0.01037 0.30094
 C236 C 0.51008 0.01229 0.27184
 C237 C 0.50920 0.01488 0.23791
 C238 C 0.50807 0.01740 0.20906
 C239 C 0.50625 0.02081 0.17478
 C240 C 0.47765 0.03084 0.16538
 C241 C 0.47589 0.03469 0.13224
 C242 C 0.50265 0.02835 0.10814
 C243 C 0.53137 0.01844 0.11768
 C244 C 0.53310 0.01458 0.15086
 H245 H 0.50151 -0.04511 0.33106
 H246 H 0.51926 0.06149 0.34877
 H247 H 0.51783 0.05860 0.40838
 H248 H 0.50002 -0.04842 0.39065
 H249 H 0.45678 0.03584 0.18369
 H250 H 0.45368 0.04262 0.12532
 H251 H 0.55239 0.01387 0.09944
 H252 H 0.55541 0.00696 0.15789
 C253 C 0.50773 -0.35730 -0.03833
 C254 C 0.50343 -0.33508 -0.00935
 C255 C 0.49864 -0.34689 0.02163
 C256 C 0.49792 -0.38082 0.02366
 C257 C 0.50197 -0.40341 -0.00535
 C258 C 0.50702 -0.39125 -0.03638
 C259 C 0.50346 -0.30025 -0.01146
 C260 C 0.50331 -0.27113 -0.01337
 C261 C 0.50299 -0.23710 -0.01583
 C262 C 0.50268 -0.20809 -0.01816
 C263 C 0.50234 -0.17352 -0.02127
 C264 C 0.47495 -0.15703 -0.00726
 C265 C 0.47445 -0.12358 -0.01078
 C266 C 0.50145 -0.10630 -0.02818
 C267 C 0.52877 -0.12297 -0.04230
 C268 C 0.52925 -0.15641 -0.03878
 H269 H 0.51144 -0.34842 -0.06244
 H270 H 0.49526 -0.32989 0.04422
 H271 H 0.49396 -0.38937 0.04791
 H272 H 0.51021 -0.40796 -0.05917
 H273 H 0.45394 -0.17009 0.00619
 H274 H 0.45301 -0.11115 -0.00012
 H275 H 0.54966 -0.11005 -0.05603
 H276 H 0.55050 -0.16896 -0.04983
 C277 C 0.49306 0.34732 -0.02112
 C278 C 0.48797 0.33559 0.00991
 C279 C 0.48372 0.35791 0.03881
 C280 C 0.48479 0.39187 0.03676
 C281 C 0.49018 0.40397 0.00569
 C282 C 0.49414 0.38128 -0.02325
 C283 C 0.48784 0.30078 0.01217
 C284 C 0.48813 0.27171 0.01429
 C285 C 0.48893 0.23782 0.01704
 C286 C 0.49002 0.20898 0.01961
 C287 C 0.49184 0.17470 0.02297
 C288 C 0.52042 0.16527 0.03301
 C289 C 0.52226 0.13207 0.03657
 C290 C 0.49559 0.10798 0.02994
 C291 C 0.46687 0.11756 0.02010
 C292 C 0.46505 0.15079 0.01652
 H293 H 0.49643 0.33025 -0.04366
 H294 H 0.47981 0.34910 0.06296
 H295 H 0.48165 0.40866 0.05950
 H296 H 0.49833 0.38977 -0.04753
 H297 H 0.54123 0.18358 0.03816
 H298 H 0.54447 0.12511 0.04444
 H299 H 0.44593 0.09930 0.01529
 H300 H 0.44277 0.15786 0.00888
 C301 C -0.35384 -0.03851 0.48790
 C302 C -0.33191 -0.00961 0.49272
 C303 C -0.34400 0.02142 0.49807
 C304 C -0.37794 0.02357 0.49888
 C305 C -0.40023 -0.00537 0.49438
 C306 C -0.38777 -0.03643 0.48871
 C307 C -0.29712 -0.01191 0.49281
 C308 C -0.26807 -0.01409 0.49318
 C309 C -0.23416 -0.01691 0.49390
 C310 C -0.20528 -0.01956 0.49469
 C311 C -0.17088 -0.02300 0.49581
 C312 C -0.15503 -0.00852 0.52351
 C313 C -0.12177 -0.01237 0.52487
 C314 C -0.10404 -0.03056 0.49840
 C315 C -0.12008 -0.04518 0.47078
 C316 C -0.15334 -0.04132 0.46945
 H317 H -0.34474 -0.06266 0.48377
 H318 H -0.32723 0.04394 0.50186
 H319 H -0.38672 0.04785 0.50332
 H320 H -0.40425 -0.05917 0.48516
 H321 H -0.16842 0.00555 0.54412
 H322 H -0.10985 -0.00133 0.54655
 H323 H -0.10681 -0.05953 0.45030
 H324 H -0.16541 -0.05275 0.44798
 C325 C 0.36021 0.03826 0.51507
 C326 C 0.33836 0.00922 0.51087
 C327 C 0.35066 -0.02171 0.50532
 C328 C 0.38471 -0.02362 0.50376
 C329 C 0.40693 0.00544 0.50773
 C330 C 0.39428 0.03641 0.51353
 C331 C 0.30339 0.01119 0.51173
 C332 C 0.27415 0.01293 0.51217
 C333 C 0.23998 0.01511 0.51235
 C334 C 0.21086 0.01715 0.51225
 C335 C 0.17619 0.01984 0.51183
 C336 C 0.15976 0.00410 0.48494
 C337 C 0.12631 0.00745 0.48406
 C338 C 0.10893 0.02641 0.51019
 C339 C 0.12552 0.04219 0.53707
 C340 C 0.15898 0.03883 0.53792
 H341 H 0.35095 0.06233 0.51935
 H342 H 0.33396 -0.04434 0.50200
 H343 H 0.39363 -0.04785 0.49926
 H344 H 0.41069 0.05924 0.51668
 H345 H 0.17288 -0.01048 0.46454
 H346 H 0.11401 -0.00444 0.46290
 H347 H 0.11256 0.05716 0.55727
 H348 H 0.17150 0.05124 0.55876
 C349 C 0.02124 0.49382 1.34375
 C350 C -0.00978 0.48880 1.33174
 C351 C -0.03857 0.48423 1.35373
 C352 C -0.03641 0.48499 1.38766
 C353 C -0.00537 0.49038 1.40006
 C354 C 0.02347 0.49458 1.37769
 C355 C -0.01220 0.48921 1.29700
 C356 C -0.01448 0.48998 1.26803
 C357 C -0.01744 0.49138 1.23426
 C358 C -0.02019 0.49296 1.20554
 C359 C -0.02372 0.49531 1.17140
 C360 C -0.03233 0.52472 1.16247
 C361 C -0.03599 0.52709 1.12939
 C362 C -0.03086 0.50013 1.10491
 C363 C -0.02250 0.47058 1.11399
 C364 C -0.01883 0.46823 1.14711
 H365 H 0.04368 0.49744 1.32694
 H366 H -0.06271 0.48038 1.34470
 H367 H -0.05908 0.48167 1.40420
 H368 H 0.04773 0.49879 1.38643
 H369 H -0.03628 0.54577 1.18109
 H370 H -0.04272 0.54995 1.12281
 H371 H -0.01889 0.44942 1.09543
 H372 H -0.01231 0.44532 1.15377
 C373 C 0.03833 0.51003 0.63978
 C374 C 0.00934 0.50606 0.66162
 C375 C -0.02154 0.50112 0.64932
 C376 C -0.02344 0.49993 0.61529
 C377 C 0.00558 0.50364 0.59307
 C378 C 0.03651 0.50884 0.60572
 C379 C 0.01129 0.50655 0.69657
 C380 C 0.01300 0.50673 0.72580
 C381 C 0.01517 0.50674 0.75996
 C382 C 0.01724 0.50662 0.78907
 C383 C 0.02003 0.50639 0.82376
 C384 C 0.00384 0.48014 0.84038
 C385 C 0.00720 0.47957 0.87390
 C386 C 0.02662 0.50539 0.89112
 C387 C 0.04286 0.53160 0.87431
 C388 C 0.03949 0.53214 0.84081
 H389 H 0.06237 0.51384 0.64904
 H390 H -0.04414 0.49800 0.66601
 H391 H -0.04762 0.49588 0.60637
 H392 H 0.05930 0.51178 0.58931
 H393 H -0.01113 0.46001 0.82738
 H394 H -0.00510 0.45894 0.88639
 H395 H 0.05816 0.55156 0.88717
 H396 H 0.05224 0.55249 0.82816
   
