data_POSCAR
  _audit_creation_date              2014-09-24
  _audit_creation_method            'ToBaCCo'
  _symmetry_space_group_name_H-M    'P1'
  _symmetry_Int_Tables_number       1
  _symmetry_cell_setting            triclinic
  loop_
  _symmetry_equiv_pos_as_xyz
 x,y,z
_cell_length_a 37.1475
_cell_length_b 36.9317
_cell_length_c 37.1389
_cell_angle_alpha 91.275500
_cell_angle_beta 89.830800
_cell_angle_gamma 89.027500
loop_
  _atom_site_label
  _atom_site_type_symbol
  _atom_site_fract_x
  _atom_site_fract_y
  _atom_site_fract_z
C1 C 0.25528 0.91285 -0.04007
 C2 C 0.25839 0.89393 -0.00781
 C3 C 0.25718 0.91105 0.02595
 C4 C 0.25397 0.94922 0.02818
 C5 C 0.25277 0.96977 -0.00386
 C6 C 0.25431 0.95166 -0.03821
 C7 C 0.25930 0.97289 -0.06876
 C8 C 0.26047 1.01069 -0.06615
 C9 C 0.25548 1.02947 -0.03302
 C10 C 0.25239 1.00856 -0.00128
 C11 C 0.25412 0.96748 0.06156
 C12 C 0.25074 1.00464 0.06414
 C13 C 0.25080 1.02615 0.03335
 C14 C 0.24955 1.06457 0.03631
 C15 C 0.25385 1.08432 0.00487
 C16 C 0.25728 1.06810 -0.02953
 H17 H 0.26495 0.96056 -0.09484
 H18 H 0.26686 1.02463 -0.09047
 H19 H 0.25742 0.95363 0.08658
 H20 H 0.24923 1.01561 0.09119
 H21 H 0.26066 0.86454 -0.00873
 H22 H 0.25609 1.11351 0.00722
 C23 C 0.78955 0.40345 0.47770
 C24 C 0.78731 0.38854 0.51191
 C25 C 0.78154 0.40986 0.54309
 C26 C 0.77717 0.44792 0.53995
 C27 C 0.78181 0.46392 0.50571
 C28 C 0.78914 0.44173 0.47466
 C29 C 0.79755 0.45850 0.44207
 C30 C 0.79746 0.49615 0.43955
 C31 C 0.78838 0.51856 0.46933
 C32 C 0.78035 0.50234 0.50277
 C33 C 0.76939 0.47062 0.56991
 C34 C 0.76451 0.50774 0.56629
 C35 C 0.77134 0.52447 0.53344
 C36 C 0.76942 0.56264 0.53011
 C37 C 0.77799 0.57793 0.49722
 C38 C 0.78811 0.55684 0.46715
 H39 H 0.80553 0.44273 0.41843
 H40 H 0.80456 0.50757 0.41395
 H41 H 0.76667 0.46031 0.59664
 H42 H 0.75594 0.52302 0.58997
 H43 H 0.78970 0.35935 0.51433
 H44 H 0.77740 0.60723 0.49512
 C45 C 0.71905 0.94768 1.07947
 C46 C 0.71845 0.97856 1.10184
 C47 C 0.71855 1.01354 1.08832
 C48 C 0.72125 1.01780 1.05033
 C49 C 0.71993 0.98665 1.02709
 C50 C 0.71836 0.95154 1.04180
 C51 C 0.71803 0.92113 1.01845
 C52 C 0.71883 0.92493 0.98141
 C53 C 0.72059 0.95930 0.96602
 C54 C 0.72198 0.99041 0.98907
 C55 C 0.72834 1.05139 1.03489
 C56 C 0.72959 1.05520 0.99780
 C57 C 0.72631 1.02513 0.97425
 C58 C 0.72781 1.02879 0.93638
 C59 C 0.72596 0.99771 0.91401
 C60 C 0.72253 0.96313 0.92826
 H61 H 0.71757 0.89387 1.02841
 H62 H 0.71905 0.90030 0.96514
 H63 H 0.73455 1.07510 1.05100
 H64 H 0.73381 1.08215 0.98807
 H65 H 0.71682 0.97512 1.13076
 H66 H 0.72756 1.00037 0.88505
 C67 C 0.24836 0.46715 0.42953
 C68 C 0.24676 0.50125 0.41399
 C69 C 0.25922 0.53231 0.43212
 C70 C 0.27364 0.52892 0.46705
 C71 C 0.27148 0.49539 0.48477
 C72 C 0.25870 0.46433 0.46603
 C73 C 0.25538 0.43188 0.48466
 C74 C 0.26405 0.43005 0.52101
 C75 C 0.27601 0.46074 0.54040
 C76 C 0.28123 0.49330 0.52162
 C77 C 0.29052 0.55807 0.48466
 C78 C 0.30194 0.55536 0.52007
 C79 C 0.29511 0.52418 0.53980
 C80 C 0.30161 0.52302 0.57724
 C81 C 0.29540 0.49124 0.59554
 C82 C 0.28249 0.46000 0.57803
 H83 H 0.24487 0.40779 0.47171
 H84 H 0.26124 0.40411 0.53348
 H85 H 0.29547 0.58316 0.47115
 H86 H 0.31555 0.57831 0.53201
 H87 H 0.23554 0.50333 0.38722
 H88 H 0.29815 0.49226 0.62453
 C89 C 1.06242 0.29412 0.03799
 C90 C 1.08096 0.29512 0.00514
 C91 C 1.06620 0.28239 -0.02737
 C92 C 1.03021 0.27015 -0.02748
 C93 C 1.00982 0.27115 0.00495
 C94 C 1.02573 0.28347 0.03779
 C95 C 1.00355 0.28736 0.06840
 C96 C 0.96853 0.27466 0.06830
 C97 C 0.95331 0.25945 0.03692
 C98 C 0.97330 0.25972 0.00450
 C99 C 1.01455 0.25502 -0.05870
 C100 C 0.97891 0.24468 -0.05916
 C101 C 0.95696 0.24855 -0.02835
 C102 C 0.91959 0.24043 -0.02934
 C103 C 0.90171 0.23620 0.00393
 C104 C 0.91832 0.24489 0.03705
 H105 H 1.01249 0.30121 0.09258
 H106 H 0.95309 0.27820 0.09290
 H107 H 1.02955 0.25011 -0.08330
 H108 H 0.96949 0.23217 -0.08387
 H109 H 1.10799 0.30575 0.00507
 H110 H 0.87475 0.22601 0.00454
 C111 C 0.43065 0.77798 0.45108
 C112 C 0.40906 0.78334 0.48180
 C113 C 0.42383 0.78671 0.51639
 C114 C 0.46190 0.78615 0.52042
 C115 C 0.48417 0.78037 0.48957
 C116 C 0.46845 0.77601 0.45495
 C117 C 0.49092 0.76902 0.42504
 C118 C 0.52805 0.76790 0.42860
 C119 C 0.54444 0.77386 0.46223
 C120 C 0.52235 0.77928 0.49320
 C121 C 0.47847 0.79227 0.55396
 C122 C 0.51573 0.78992 0.55771
 C123 C 0.53832 0.78345 0.52772
 C124 C 0.57637 0.78103 0.53109
 C125 C 0.59758 0.77768 0.49983
 C126 C 0.58233 0.77398 0.46564
 H127 H 0.48013 0.76389 0.39844
 H128 H 0.54362 0.76175 0.40454
 H129 H 0.46302 0.79944 0.57780
 H130 H 0.52642 0.79380 0.58450
 H131 H 0.38007 0.78514 0.47871
 H132 H 0.62658 0.77913 0.50205
 C133 C -0.03574 0.70416 0.06937
 C134 C -0.00323 0.69966 0.08790
 C135 C 0.02996 0.70516 0.07179
 C136 C 0.03167 0.71253 0.03477
 C137 C -0.00058 0.71667 0.01473
 C138 C -0.03455 0.71188 0.03186
 C139 C -0.06533 0.71042 0.01009
 C140 C -0.06331 0.71589 -0.02689
 C141 C -0.03062 0.72439 -0.04389
 C142 C 0.00141 0.72344 -0.02294
 C143 C 0.06485 0.71311 0.01682
 C144 C 0.06690 0.72052 -0.01935
 C145 C 0.03573 0.72678 -0.03985
 C146 C 0.03820 0.73279 -0.07736
 C147 C 0.00622 0.73351 -0.09735
 C148 C -0.02797 0.72982 -0.08172
 H149 H -0.09104 0.70265 0.02087
 H150 H -0.08760 0.71127 -0.04196
 H151 H 0.08983 0.70640 0.03012
 H152 H 0.09350 0.71913 -0.03111
 H153 H -0.00366 0.69374 0.11643
 H154 H 0.00739 0.73963 -0.12571
 C155 C 0.51541 0.26406 0.42867
 C156 C 0.48140 0.26381 0.41251
 C157 C 0.45024 0.25494 0.43159
 C158 C 0.45307 0.24706 0.46869
 C159 C 0.48719 0.24822 0.48590
 C160 C 0.51846 0.25685 0.46592
 C161 C 0.55163 0.25862 0.48396
 C162 C 0.55479 0.24890 0.51974
 C163 C 0.52439 0.24029 0.54015
 C164 C 0.49006 0.24059 0.52323
 C165 C 0.42283 0.23715 0.48890
 C166 C 0.42561 0.22996 0.52539
 C167 C 0.45873 0.23230 0.54332
 C168 C 0.46182 0.22489 0.58045
 C169 C 0.49594 0.22285 0.59598
 C170 C 0.52716 0.23048 0.57672
 H171 H 0.57577 0.26749 0.47084
 H172 H 0.58153 0.24841 0.53097
 H173 H 0.39662 0.23422 0.47674
 H174 H 0.40155 0.22159 0.53913
 H175 H 0.47927 0.27074 0.38438
 H176 H 0.49822 0.21581 0.62412
 C177 C 0.92695 -0.02883 0.24595
 C178 C 0.90931 0.00301 0.23510
 C179 C 0.92811 0.03463 0.22689
 C180 C 0.96645 0.03333 0.22767
 C181 C 0.98471 0.00169 0.23981
 C182 C 0.96482 -0.02891 0.25023
 C183 C 0.98326 -0.05806 0.26601
 C184 C 1.02058 -0.05926 0.26756
 C185 C 1.04105 -0.03099 0.25411
 C186 C 1.02305 0.00077 0.24208
 C187 C 0.98722 0.06277 0.21697
 C188 C 1.02466 0.06139 0.21822
 C189 C 1.04329 0.03143 0.23226
 C190 C 1.08162 0.02994 0.23459
 C191 C 1.09848 -0.00292 0.24328
 C192 C 1.07907 -0.03303 0.25340
 H193 H 0.96918 -0.08017 0.27793
 H194 H 1.03315 -0.08248 0.27991
 H195 H 0.97517 0.08726 0.20684
 H196 H 1.03867 0.08392 0.20702
 H197 H 0.88028 0.00278 0.23245
 H198 H 1.12770 -0.00478 0.24387
 C199 C 0.43154 0.47674 0.76727
 C200 C 0.41234 0.50743 0.75601
 C201 C 0.42899 0.54057 0.75002
 C202 C 0.46684 0.54307 0.75471
 C203 C 0.48694 0.51198 0.76537
 C204 C 0.46917 0.47900 0.77241
 C205 C 0.48934 0.44988 0.78604
 C206 C 0.52647 0.45148 0.78897
 C207 C 0.54499 0.48262 0.77937
 C208 C 0.52495 0.51397 0.76963
 C209 C 0.48530 0.57539 0.74888
 C210 C 0.52213 0.57791 0.75550
 C211 C 0.54269 0.54743 0.76528
 C212 C 0.58028 0.54921 0.77194
 C213 C 0.59965 0.51738 0.77915
 C214 C 0.58295 0.48395 0.78128
 H215 H 0.47686 0.42555 0.79514
 H216 H 0.54037 0.42831 0.80003
 H217 H 0.47162 0.59933 0.73939
 H218 H 0.53419 0.60403 0.75238
 H219 H 0.38343 0.50563 0.75243
 H220 H 0.62858 0.51864 0.78294
 C221 C 1.03418 0.94575 0.71755
 C222 C 1.00106 0.92764 0.71899
 C223 C 0.96896 0.94589 0.72930
 C224 C 0.97010 0.98297 0.73958
 C225 C 1.00231 1.00226 0.73519
 C226 C 1.03371 0.98399 0.72217
 C227 C 1.06372 1.00474 0.71336
 C228 C 1.06491 1.04119 0.72252
 C229 C 1.03616 1.05865 0.74100
 C230 C 1.00344 1.03983 0.74449
 C231 C 0.94030 1.00094 0.75563
 C232 C 0.94171 1.03745 0.76550
 C233 C 0.97220 1.05817 0.75795
 C234 C 0.97353 1.09603 0.76594
 C235 C 1.00735 1.11261 0.76707
 C236 C 1.03911 1.09441 0.75534
 H237 H 1.08655 0.99330 0.69869
 H238 H 1.08860 1.05542 0.71419
 H239 H 0.91598 0.98668 0.76202
 H240 H 0.91897 1.04877 0.78034
 H241 H 0.99976 0.89903 0.71285
 H242 H 1.00829 1.14030 0.77693
 C243 C 0.48586 0.59146 0.25975
 C244 C 0.52143 0.60094 0.25304
 C245 C 0.54825 0.57455 0.24599
 C246 C 0.53914 0.53757 0.24530
 C247 C 0.50369 0.52742 0.25456
 C248 C 0.47701 0.55440 0.26226
 C249 C 0.44244 0.54360 0.27276
 C250 C 0.43359 0.50719 0.27351
 C251 C 0.45935 0.48003 0.26521
 C252 C 0.49494 0.49019 0.25627
 C253 C 0.56465 0.51044 0.23607
 C254 C 0.55581 0.47410 0.23673
 C255 C 0.52168 0.46325 0.24844
 C256 C 0.51310 0.42623 0.25158
 C257 C 0.47762 0.41676 0.25875
 C258 C 0.45041 0.44298 0.26481
 H259 H 0.42179 0.56315 0.28078
 H260 H 0.40633 0.50065 0.28095
 H261 H 0.59172 0.51694 0.22792
 H262 H 0.57611 0.45472 0.22754
 H263 H 0.52814 0.62938 0.25210
 H264 H 0.47110 0.38830 0.26015
 O265 O 0.22730 0.17452 0.17656
 O266 O 0.27242 0.15198 0.21729
 O267 O 0.14683 0.21291 0.25736
 O268 O 0.14543 0.25485 0.30201
 O269 O 0.17298 0.27712 0.16485
 O270 O 0.22284 0.31605 0.15171
 O271 O 0.26433 0.29059 0.34112
 O272 O 0.22208 0.24233 0.34987
 O273 O 0.34237 0.24465 0.27012
 O274 O 0.33867 0.21030 0.21203
 O275 O 0.29883 0.34521 0.24974
 O276 O 0.23963 0.36612 0.22191
 O277 O 0.25822 0.34059 0.30686
 O278 O 0.21297 0.36436 0.26892
 O279 O 0.33568 0.29935 0.22934
 O280 O 0.33408 0.25345 0.18108
 O281 O 0.30969 0.24280 0.32185
 O282 O 0.26732 0.20096 0.33508
 O283 O 0.21906 0.22533 0.14379
 O284 O 0.25790 0.27444 0.13435
 O285 O 0.13929 0.26923 0.21520
 O286 O 0.14523 0.30477 0.27216
 O287 O 0.18443 0.16846 0.23531
 O288 O 0.24004 0.14633 0.26079
 Zr289 Zr 0.23453 0.19369 0.23010
 O290 O 0.27657 0.21606 0.26092
 Zr291 Zr 0.17798 0.25992 0.25563
 O292 O 0.21793 0.28568 0.28684
 Zr293 Zr 0.22642 0.26779 0.18119
 O294 O 0.26873 0.29286 0.20897
 Zr295 Zr 0.25596 0.24730 0.30441
 O296 O 0.21364 0.22055 0.27663
 Zr297 Zr 0.30394 0.25328 0.22953
 O298 O 0.26423 0.22824 0.19749
 Zr299 Zr 0.24795 0.32054 0.25466
 O300 O 0.20469 0.29842 0.22461
 O301 O 0.19748 0.23108 0.21080
 O302 O 0.28544 0.28340 0.27427
 C303 C 0.22194 0.19091 0.14673
 C304 C 0.15374 0.17998 0.24742
 C305 C 0.14267 0.27575 0.18153
 C306 C 0.26361 0.32502 0.33700
 C307 C 0.33966 0.24213 0.30443
 C308 C 0.32940 0.33248 0.23839
 H309 H 0.29264 0.19652 0.26961
 H310 H 0.28105 0.30921 0.19241
 H311 H 0.17851 0.21914 0.19640
 H312 H 0.20621 0.29868 0.30738
 H313 H 0.20428 0.22354 0.34366
 H314 H 0.16004 0.26236 0.32300
 H315 H 0.32661 0.27518 0.16771
 H316 H 0.27721 0.25566 0.13484
 H317 H 0.25299 0.18120 0.32444
 H318 H 0.22432 0.14959 0.28222
 H319 H 0.25702 0.36434 0.20170
 H320 H 0.20882 0.33376 0.16672
 H321 H 0.28894 0.16181 0.19911
 H322 H 0.33754 0.19091 0.22993
 H323 H 0.14865 0.32387 0.25422
 H324 H 0.19476 0.35503 0.28567
 O325 O 0.77306 0.84259 0.22987
 O326 O 0.74858 0.84801 0.29068
 O327 O 0.86780 0.78073 0.24239
 O328 O 0.88212 0.72685 0.27010
 O329 O 0.79560 0.75232 0.15861
 O330 O 0.73917 0.72144 0.15688
 O331 O 0.78388 0.67573 0.34188
 O332 O 0.83513 0.71399 0.34686
 O333 O 0.69513 0.74696 0.33408
 O334 O 0.67899 0.79755 0.29268
 O335 O 0.70724 0.65875 0.25989
 O336 O 0.74720 0.64857 0.20523
 O337 O 0.76373 0.64226 0.29418
 O338 O 0.79079 0.63407 0.23401
 O339 O 0.67534 0.70694 0.28315
 O340 O 0.66109 0.76377 0.25391
 O341 O 0.74614 0.73036 0.36355
 O342 O 0.80264 0.76075 0.36776
 O343 O 0.75486 0.80840 0.18170
 O344 O 0.70728 0.76630 0.17394
 O345 O 0.84693 0.73626 0.18800
 O346 O 0.86326 0.68875 0.22721
 O347 O 0.83246 0.82760 0.26303
 O348 O 0.79800 0.83655 0.31603
 Zr349 Zr 0.78204 0.80517 0.27071
 O350 O 0.75371 0.77348 0.30692
 Zr351 Zr 0.83282 0.73548 0.24293
 O352 O 0.80587 0.69996 0.27765
 Zr353 Zr 0.75656 0.75500 0.20006
 O354 O 0.72632 0.72131 0.23316
 Zr355 Zr 0.78575 0.72908 0.32275
 O356 O 0.81625 0.76391 0.29014
 Zr357 Zr 0.71009 0.75043 0.27985
 O358 O 0.73611 0.78542 0.24446
 Zr359 Zr 0.75954 0.67939 0.25219
 O360 O 0.78920 0.71110 0.21592
 O361 O 0.80104 0.77786 0.22470
 O362 O 0.74064 0.70679 0.29825
 C363 C 0.76227 0.83881 0.19724
 C364 C 0.86244 0.81450 0.25113
 C365 C 0.82915 0.74326 0.15919
 C366 C 0.77375 0.64574 0.32709
 C367 C 0.71244 0.73867 0.36270
 C368 C 0.67851 0.67362 0.27345
 H369 H 0.74583 0.78901 0.32757
 H370 H 0.70560 0.71188 0.21945
 H371 H 0.81413 0.79351 0.20800
 H372 H 0.82248 0.68037 0.28517
 H373 H 0.85335 0.73126 0.33859
 H374 H 0.87815 0.70789 0.28803
 H375 H 0.65899 0.74790 0.23224
 H376 H 0.69312 0.78227 0.19063
 H377 H 0.78832 0.78355 0.36835
 H378 H 0.81699 0.82234 0.32828
 H379 H 0.72426 0.65817 0.19553
 H380 H 0.75478 0.69945 0.15688
 H381 H 0.72597 0.84717 0.27667
 H382 H 0.68995 0.80955 0.31395
 H383 H 0.84711 0.67335 0.21255
 H384 H 0.81298 0.63313 0.24864
 O385 O 0.72383 0.14336 0.78730
 O386 O 0.69979 0.14023 0.73014
 O387 O 0.82656 0.19359 0.76797
 O388 O 0.84425 0.24847 0.74389
 O389 O 0.76115 0.22823 0.85858
 O390 O 0.70979 0.26533 0.86572
 O391 O 0.75041 0.30634 0.67574
 O392 O 0.79155 0.25853 0.66298
 O393 O 0.65212 0.25363 0.69199
 O394 O 0.63058 0.20859 0.73185
 O395 O 0.68292 0.33799 0.76491
 O396 O 0.72471 0.34420 0.81206
 O397 O 0.73658 0.34367 0.72337
 O398 O 0.77197 0.34419 0.78418
 O399 O 0.64186 0.29688 0.74600
 O400 O 0.62443 0.23894 0.77680
 O401 O 0.70264 0.26107 0.65846
 O402 O 0.75751 0.21731 0.65304
 O403 O 0.71472 0.17860 0.83769
 O404 O 0.67091 0.22886 0.84716
 O405 O 0.81312 0.23556 0.82721
 O406 O 0.83181 0.28376 0.78672
 O407 O 0.78617 0.15132 0.74986
 O408 O 0.74445 0.14935 0.69900
 Zr409 Zr 0.73663 0.18000 0.74727
 O410 O 0.70870 0.21629 0.71418
 Zr411 Zr 0.79599 0.24176 0.77307
 O412 O 0.77213 0.28024 0.73880
 Zr413 Zr 0.72067 0.23217 0.81972
 O414 O 0.69420 0.27214 0.78946
 Zr415 Zr 0.74519 0.25442 0.69577
 O416 O 0.77403 0.21632 0.72675
 Zr417 Zr 0.67057 0.24694 0.74450
 O418 O 0.69458 0.20642 0.77634
 Zr419 Zr 0.73121 0.30821 0.76735
 O420 O 0.75706 0.27172 0.80277
 O421 O 0.76104 0.20328 0.79226
 O422 O 0.70545 0.28458 0.72322
 C423 C 0.71612 0.14778 0.82075
 C424 C 0.81822 0.16133 0.75780
 C425 C 0.79545 0.23078 0.85667
 C426 C 0.74460 0.33782 0.68993
 C427 C 0.66829 0.25895 0.66208
 C428 C 0.65108 0.32917 0.75525
 H429 H 0.69743 0.20255 0.69418
 H430 H 0.67624 0.28498 0.80498
 H431 H 0.77331 0.18513 0.80737
 H432 H 0.79069 0.29681 0.73007
 H433 H 0.80989 0.27141 0.67736
 H434 H 0.84025 0.23760 0.71965
 H435 H 0.62379 0.25797 0.79597
 H436 H 0.65602 0.21165 0.83313
 H437 H 0.73544 0.20380 0.64718
 H438 H 0.76632 0.15865 0.68733
 H439 H 0.70714 0.33326 0.82846
 H440 H 0.72592 0.28631 0.86417
 H441 H 0.67609 0.14778 0.74029
 H442 H 0.64083 0.19149 0.71352
 H443 H 0.81997 0.29865 0.80597
 H444 H 0.78842 0.34768 0.76360
 O445 O 0.22028 0.84924 0.77745
 O446 O 0.26058 0.86649 0.73381
 O447 O 0.14491 0.78496 0.71067
 O448 O 0.14711 0.73592 0.67669
 O449 O 0.18024 0.74822 0.81399
 O450 O 0.23401 0.71696 0.83287
 O451 O 0.26778 0.70687 0.63736
 O452 O 0.22127 0.74843 0.62198
 O453 O 0.34368 0.76759 0.69496
 O454 O 0.33876 0.81290 0.74518
 O455 O 0.31087 0.67191 0.73730
 O456 O 0.26064 0.65051 0.76748
 O457 O 0.27225 0.66449 0.68073
 O458 O 0.22412 0.64702 0.72702
 O459 O 0.34425 0.72220 0.74650
 O460 O 0.33748 0.77804 0.78574
 O461 O 0.30823 0.76156 0.64548
 O462 O 0.26156 0.79537 0.62741
 O463 O 0.22489 0.80730 0.82118
 O464 O 0.26610 0.76132 0.83902
 O465 O 0.14710 0.73747 0.76359
 O466 O 0.15689 0.69368 0.71296
 O467 O 0.17588 0.83684 0.72048
 O468 O 0.23123 0.85765 0.68832
 Zr469 Zr 0.22981 0.81902 0.72955
 O470 O 0.27450 0.79458 0.70269
 Zr471 Zr 0.18254 0.74407 0.72046
 O472 O 0.22425 0.71707 0.69213
 Zr473 Zr 0.23258 0.75720 0.79326
 O474 O 0.27669 0.72954 0.76847
 Zr475 Zr 0.25642 0.75483 0.66635
 O476 O 0.21139 0.78183 0.69028
 Zr477 Zr 0.30737 0.76586 0.73884
 O478 O 0.26515 0.79439 0.76662
 Zr479 Zr 0.25853 0.69213 0.72930
 O480 O 0.21439 0.71618 0.75777
 O481 O 0.19829 0.78353 0.75800
 O482 O 0.29088 0.72719 0.70101
 C483 C 0.22144 0.84017 0.81059
 C484 C 0.14698 0.81943 0.71263
 C485 C 0.15071 0.74000 0.79782
 C486 C 0.27329 0.67445 0.64776
 C487 C 0.33891 0.76570 0.66068
 C488 C 0.34066 0.68760 0.74432
 H489 H 0.28803 0.81318 0.68983
 H490 H 0.29112 0.71758 0.78726
 H491 H 0.17813 0.79635 0.77061
 H492 H 0.21361 0.69964 0.67479
 H493 H 0.20130 0.76630 0.62541
 H494 H 0.16222 0.73030 0.65528
 H495 H 0.33495 0.75761 0.80229
 H496 H 0.28431 0.77968 0.83355
 H497 H 0.24310 0.81413 0.63324
 H498 H 0.21249 0.85119 0.67053
 H499 H 0.26679 0.66198 0.79091
 H500 H 0.22230 0.69539 0.82218
 H501 H 0.28185 0.86011 0.74852
 H502 H 0.33411 0.82848 0.72433
 H503 H 0.16218 0.67911 0.73444
 H504 H 0.21340 0.64577 0.70268
 O505 O 0.27971 0.36258 0.74479
 O506 O 0.24987 0.36944 0.80444
 O507 O 0.36375 0.28929 0.76027
 O508 O 0.36878 0.23333 0.78869
 O509 O 0.29345 0.27205 0.67300
 O510 O 0.23261 0.24890 0.66762
 O511 O 0.26243 0.19221 0.85105
 O512 O 0.31808 0.22489 0.85980
 O513 O 0.18310 0.27428 0.84298
 O514 O 0.17791 0.33003 0.80349
 O515 O 0.18695 0.18983 0.76674
 O516 O 0.22861 0.17670 0.71206
 O517 O 0.24065 0.16325 0.80129
 O518 O 0.26637 0.15330 0.74326
 O519 O 0.15960 0.24216 0.78649
 O520 O 0.15529 0.29995 0.76349
 O521 O 0.23065 0.25089 0.87367
 O522 O 0.28512 0.27327 0.88306
 O523 O 0.26040 0.33197 0.69479
 O524 O 0.20718 0.29815 0.68340
 O525 O 0.34114 0.24969 0.70438
 O526 O 0.34894 0.19940 0.74208
 O527 O 0.33328 0.33916 0.78160
 O528 O 0.29526 0.35385 0.83185
 Zr529 Zr 0.27992 0.32371 0.78543
 O530 O 0.24645 0.29459 0.81939
 Zr531 Zr 0.32327 0.24881 0.75815
 O532 O 0.28975 0.21585 0.78947
 Zr533 Zr 0.25246 0.27905 0.71214
 O534 O 0.21601 0.24939 0.74267
 Zr535 Zr 0.27136 0.24577 0.83461
 O536 O 0.30773 0.27797 0.80534
 Zr537 Zr 0.20133 0.27890 0.78969
 O538 O 0.23336 0.31086 0.75625
 Zr539 Zr 0.24220 0.20271 0.76142
 O540 O 0.27832 0.23097 0.72811
 O541 O 0.29798 0.29517 0.73985
 O542 O 0.22465 0.23074 0.80763
 C543 C 0.27172 0.36056 0.71118
 C544 C 0.36201 0.32311 0.77012
 C545 C 0.32594 0.25972 0.67508
 C546 C 0.24994 0.16406 0.83453
 C547 C 0.19819 0.26303 0.87184
 C548 C 0.15903 0.20881 0.77671
 H549 H 0.24019 0.30997 0.84072
 H550 H 0.19491 0.24362 0.72758
 H551 H 0.31417 0.30914 0.72442
 H552 H 0.30327 0.19394 0.79676
 H553 H 0.33769 0.24205 0.85521
 H554 H 0.36128 0.21387 0.80484
 H555 H 0.15608 0.29069 0.73832
 H556 H 0.19551 0.31722 0.69878
 H557 H 0.30115 0.29305 0.87625
 H558 H 0.31488 0.34008 0.84357
 H559 H 0.20606 0.18803 0.70330
 H560 H 0.24632 0.22567 0.66671
 H561 H 0.22966 0.37300 0.78748
 H562 H 0.18779 0.33797 0.82702
 H563 H 0.33204 0.18674 0.72576
 H564 H 0.29015 0.15123 0.75499
 O565 O 0.75845 0.65160 0.70673
 O566 O 0.78237 0.64683 0.76657
 O567 O 0.66408 0.72042 0.72733
 O568 O 0.65484 0.77491 0.75588
 O569 O 0.73249 0.74161 0.63910
 O570 O 0.79019 0.76966 0.63329
 O571 O 0.75626 0.82285 0.82054
 O572 O 0.70546 0.78354 0.82889
 O573 O 0.84421 0.74890 0.80673
 O574 O 0.85602 0.69580 0.76535
 O575 O 0.83085 0.83425 0.73552
 O576 O 0.78927 0.84419 0.68300
 O577 O 0.77553 0.85414 0.77229
 O578 O 0.74754 0.86125 0.71380
 O579 O 0.86334 0.78482 0.75244
 O580 O 0.87166 0.72520 0.72396
 O581 O 0.79571 0.76782 0.83989
 O582 O 0.74148 0.74039 0.84903
 O583 O 0.77217 0.68466 0.65770
 O584 O 0.82098 0.72408 0.64736
 O585 O 0.68317 0.75949 0.67180
 O586 O 0.67323 0.81061 0.71211
 O587 O 0.69791 0.67158 0.74374
 O588 O 0.73589 0.66119 0.79407
 Zr589 Zr 0.75067 0.69084 0.74842
 O590 O 0.78272 0.72251 0.78302
 Zr591 Zr 0.70174 0.76256 0.72522
 O592 O 0.73224 0.79755 0.75847
 Zr593 Zr 0.77411 0.73826 0.67725
 O594 O 0.80784 0.77148 0.70851
 Zr595 Zr 0.75381 0.76870 0.80169
 O596 O 0.71991 0.73435 0.77072
 Zr597 Zr 0.82577 0.74319 0.75366
 O598 O 0.79593 0.70826 0.71979
 Zr599 Zr 0.77768 0.81535 0.73017
 O600 O 0.74453 0.78409 0.69549
 O601 O 0.73017 0.71788 0.70433
 O602 O 0.79832 0.78871 0.77470
 C603 C 0.76666 0.65454 0.67327
 C604 C 0.66779 0.68690 0.73552
 C605 C 0.69910 0.75087 0.64199
 C606 C 0.76565 0.85218 0.80527
 C607 C 0.82909 0.75864 0.83663
 C608 C 0.86046 0.81834 0.74458
 H609 H 0.79119 0.70752 0.80313
 H610 H 0.82805 0.77948 0.69345
 H611 H 0.71546 0.70208 0.68855
 H612 H 0.71673 0.81796 0.76711
 H613 H 0.68734 0.76523 0.82214
 H614 H 0.66128 0.79335 0.77437
 H615 H 0.87304 0.73978 0.70201
 H616 H 0.83517 0.70727 0.66238
 H617 H 0.74740 0.71456 0.84427
 H618 H 0.71703 0.67572 0.80695
 H619 H 0.81122 0.83323 0.67189
 H620 H 0.77575 0.79243 0.63471
 H621 H 0.80561 0.64772 0.75355
 H622 H 0.84556 0.68508 0.78712
 H623 H 0.68801 0.82319 0.69421
 H624 H 0.72522 0.86259 0.72839
 O625 O 0.25177 0.63892 0.27342
 O626 O 0.22008 0.63232 0.21926
 O627 O 0.34293 0.69998 0.24668
 O628 O 0.35186 0.75630 0.21931
 O629 O 0.28097 0.72896 0.34069
 O630 O 0.22607 0.75956 0.35140
 O631 O 0.24695 0.80199 0.15891
 O632 O 0.29280 0.75962 0.14356
 O633 O 0.15796 0.73812 0.18278
 O634 O 0.14513 0.69112 0.22443
 O635 O 0.18313 0.82671 0.25138
 O636 O 0.22722 0.83839 0.29676
 O637 O 0.23350 0.83850 0.20724
 O638 O 0.27121 0.84461 0.26557
 O639 O 0.14618 0.78050 0.23607
 O640 O 0.13838 0.72184 0.26950
 O641 O 0.20451 0.75086 0.14555
 O642 O 0.26361 0.71422 0.13633
 O643 O 0.24051 0.67337 0.32393
 O644 O 0.19099 0.71773 0.33613
 O645 O 0.32883 0.74322 0.30562
 O646 O 0.33960 0.79073 0.26264
 O647 O 0.30631 0.65373 0.23008
 O648 O 0.26095 0.64507 0.18391
 Zr649 Zr 0.25401 0.67611 0.23207
 O650 O 0.21974 0.70824 0.20084
 Zr651 Zr 0.30748 0.74488 0.25268
 O652 O 0.27658 0.77985 0.22030
 Zr653 Zr 0.23759 0.72710 0.30507
 O654 O 0.20423 0.76319 0.27664
 Zr655 Zr 0.24997 0.75017 0.17964
 O656 O 0.28528 0.71610 0.20846
 Zr657 Zr 0.18068 0.73447 0.23379
 O658 O 0.21157 0.69757 0.26415
 Zr659 Zr 0.23480 0.80312 0.25161
 O660 O 0.26758 0.77045 0.28504
 O661 O 0.27890 0.70300 0.27478
 O662 O 0.20906 0.77574 0.20973
 C663 C 0.24633 0.64277 0.30733
 C664 C 0.33737 0.66698 0.23667
 C665 C 0.31415 0.73659 0.33626
 C666 C 0.23921 0.83295 0.17331
 C667 C 0.17114 0.74479 0.15176
 C668 C 0.15208 0.81397 0.24372
 H669 H 0.20884 0.69286 0.18182
 H670 H 0.18600 0.77405 0.29324
 H671 H 0.29467 0.68699 0.28911
 H672 H 0.29224 0.79844 0.21011
 H673 H 0.31056 0.77455 0.15664
 H674 H 0.34766 0.74346 0.19606
 H675 H 0.13676 0.74119 0.28831
 H676 H 0.17755 0.69843 0.32339
 H677 H 0.24310 0.69792 0.13221
 H678 H 0.27993 0.65685 0.16980
 H679 H 0.21086 0.82630 0.31357
 H680 H 0.23891 0.78254 0.34821
 H681 H 0.19772 0.63636 0.23346
 H682 H 0.15631 0.67485 0.20591
 H683 H 0.32689 0.80568 0.28130
 H684 H 0.28707 0.84844 0.24460
 O685 O 0.74727 0.33601 0.29778
 O686 O 0.77980 0.34082 0.24244
 O687 O 0.64269 0.30529 0.26287
 O688 O 0.61720 0.26126 0.23191
 O689 O 0.69540 0.24522 0.34858
 O690 O 0.74451 0.20233 0.34924
 O691 O 0.70506 0.19644 0.15467
 O692 O 0.66823 0.24920 0.15502
 O693 O 0.80880 0.23075 0.17954
 O694 O 0.83416 0.26862 0.23102
 O695 O 0.76446 0.14348 0.23846
 O696 O 0.71984 0.13786 0.28359
 O697 O 0.71002 0.15233 0.19618
 O698 O 0.67552 0.14678 0.25517
 O699 O 0.81267 0.17926 0.22935
 O700 O 0.83831 0.22679 0.26407
 O701 O 0.75791 0.23749 0.14627
 O702 O 0.71384 0.28537 0.14593
 O703 O 0.75027 0.29263 0.34028
 O704 O 0.78643 0.23780 0.34191
 O705 O 0.64606 0.25483 0.31374
 O706 O 0.62433 0.21456 0.26582
 O707 O 0.69018 0.34295 0.25754
 O708 O 0.73404 0.34658 0.20923
 Zr709 Zr 0.73480 0.30750 0.24999
 O710 O 0.75775 0.27262 0.21020
 Zr711 Zr 0.66556 0.25310 0.26083
 O712 O 0.68504 0.21630 0.22121
 Zr713 Zr 0.73883 0.24399 0.31144
 O714 O 0.76152 0.20618 0.27402
 Zr715 Zr 0.71673 0.24367 0.18427
 O716 O 0.69343 0.28151 0.22123
 Zr717 Zr 0.79049 0.23267 0.23384
 O718 O 0.77105 0.27059 0.27382
 Zr719 Zr 0.72065 0.17947 0.24536
 O720 O 0.69801 0.21395 0.28602
 O721 O 0.70448 0.28195 0.28878
 O722 O 0.75105 0.20423 0.20584
 C723 C 0.75216 0.32573 0.33021
 C724 C 0.65643 0.33690 0.26133
 C725 C 0.66126 0.24969 0.34420
 C726 C 0.70448 0.16327 0.16398
 C727 C 0.79201 0.23354 0.14933
 C728 C 0.79814 0.14809 0.23308
 H729 H 0.77159 0.28724 0.19325
 H730 H 0.77695 0.18903 0.28731
 H731 H 0.69360 0.29896 0.30687
 H732 H 0.66469 0.20419 0.20914
 H733 H 0.65452 0.26978 0.16621
 H734 H 0.61933 0.24719 0.20901
 H735 H 0.83187 0.21460 0.28657
 H736 H 0.80481 0.25294 0.33048
 H737 H 0.73482 0.30117 0.14934
 H738 H 0.71245 0.34183 0.19441
 H739 H 0.73978 0.14230 0.30062
 H740 H 0.72502 0.18501 0.34417
 H741 H 0.80018 0.32920 0.25514
 H742 H 0.82856 0.28643 0.21225
 H743 H 0.63287 0.19640 0.28320
 H744 H 0.65731 0.15168 0.23643
 C745 C 0.24635 0.08342 0.07000
 C746 C 0.23251 0.11706 0.07408
 C747 C 0.23133 0.13541 0.10971
 C748 C 0.21930 0.16957 0.11301
 H749 H 0.22116 0.13121 0.05144
 H750 H 0.24203 0.12163 0.13294
 H751 H 0.25472 0.07061 0.09444
 H752 H 0.20983 0.18345 0.08931
 C753 C 0.75792 0.58865 0.55903
 C754 C 0.77291 0.59048 0.59166
 C755 C 0.76488 0.62184 0.61556
 C756 C 0.77041 0.62120 0.65106
 H757 H 0.79276 0.57050 0.59985
 H758 H 0.75477 0.64650 0.60352
 H759 H 0.73964 0.61032 0.55127
 H760 H 0.77823 0.59615 0.66378
 C761 C 0.72116 0.91189 0.09669
 C762 C 0.74285 0.90679 0.12476
 C763 C 0.74399 0.87273 0.14407
 C764 C 0.75956 0.87181 0.17635
 H765 H 0.75978 0.92862 0.13432
 H766 H 0.73158 0.84887 0.13238
 H767 H 0.70469 0.88992 0.08680
 H768 H 0.77056 0.89637 0.18814
 C769 C 0.27179 0.42874 0.60011
 C770 C 0.28567 0.42227 0.63254
 C771 C 0.27244 0.39275 0.65432
 C772 C 0.27897 0.39237 0.68963
 H773 H 0.30723 0.43844 0.64348
 H774 H 0.25810 0.37083 0.64118
 H775 H 0.25037 0.41153 0.59058
 H776 H 0.29243 0.41501 0.70255
 C777 C 0.73219 0.06467 0.91971
 C778 C 0.71369 0.07429 0.89059
 C779 C 0.71876 0.10972 0.87413
 C780 C 0.70861 0.11464 0.84019
 H781 H 0.69493 0.05558 0.87829
 H782 H 0.73259 0.13097 0.88888
 H783 H 0.75092 0.08365 0.93152
 H784 H 0.69731 0.09221 0.82491
 C785 C 0.25461 0.56833 0.41538
 C786 C 0.25649 0.57251 0.37987
 C787 C 0.25019 0.60780 0.36326
 C788 C 0.24875 0.60918 0.32749
 H789 H 0.26317 0.54947 0.36240
 H790 H 0.24752 0.63223 0.37985
 H791 H 0.24895 0.59184 0.43257
 H792 H 0.25160 0.58421 0.31169
 C793 C 0.25477 0.89040 0.92845
 C794 C 0.23674 0.89627 0.89776
 C795 C 0.23545 0.86650 0.87020
 C796 C 0.21960 0.86988 0.83809
 H797 H 0.22107 0.92085 0.89397
 H798 H 0.24879 0.84097 0.87615
 H799 H 0.26643 0.86339 0.93099
 H800 H 0.20781 0.89573 0.83082
 C801 C 0.79258 0.37706 0.44685
 C802 C 0.77266 0.37952 0.41702
 C803 C 0.77141 0.34940 0.39014
 C804 C 0.75786 0.35487 0.35737
 H805 H 0.75560 0.40319 0.41312
 H806 H 0.78097 0.32265 0.39737
 H807 H 0.80803 0.35232 0.45095
 H808 H 0.75009 0.38217 0.35005
 C809 C 0.08317 0.30315 0.06869
 C810 C 0.08060 0.28812 0.10113
 C811 C 0.11033 0.29281 0.12699
 C812 C 0.10956 0.27907 0.15995
 H813 H 0.06020 0.26852 0.10696
 H814 H 0.13474 0.30543 0.11775
 H815 H 0.10693 0.31924 0.06423
 H816 H 0.08497 0.26761 0.17013
 C817 C 0.59503 0.78247 0.56655
 C818 C 0.62484 0.76259 0.57245
 C819 C 0.64469 0.76483 0.60659
 C820 C 0.67782 0.75029 0.60870
 H821 H 0.63518 0.74426 0.55154
 H822 H 0.63251 0.77875 0.62968
 H823 H 0.58478 0.80023 0.58790
 H824 H 0.69009 0.73772 0.58490
 C825 C 0.07177 0.73915 0.90552
 C826 C 0.07828 0.73255 0.87043
 C827 C 0.11354 0.73965 0.85373
 C828 C 0.11775 0.73323 0.81846
 H829 H 0.05805 0.72014 0.85353
 H830 H 0.13540 0.75040 0.86976
 H831 H 0.09399 0.74930 0.92129
 H832 H 0.09506 0.72316 0.80310
 C833 C 0.54611 0.27290 0.40486
 C834 C 0.57697 0.25367 0.40306
 C835 C 0.60356 0.26085 0.37480
 C836 C 0.63743 0.24790 0.37592
 H837 H 0.58179 0.23126 0.42085
 H838 H 0.59464 0.27607 0.35172
 H839 H 0.54139 0.29370 0.38516
 H840 H 0.64711 0.23427 0.39964
 C841 C 0.93315 0.70026 0.09077
 C842 C 0.90299 0.72071 0.08959
 C843 C 0.87819 0.71997 0.12084
 C844 C 0.84907 0.74150 0.12464
 H845 H 0.89904 0.74088 0.06919
 H846 H 0.88526 0.70235 0.14283
 H847 H 0.93636 0.68370 0.11443
 H848 H 0.84021 0.75823 0.10265
 C849 C 0.43103 0.21850 0.60490
 C850 C 0.40277 0.24128 0.60824
 C851 C 0.37792 0.23844 0.63901
 C852 C 0.34778 0.25864 0.64184
 H853 H 0.39960 0.26368 0.59009
 H854 H 0.38530 0.22050 0.66061
 H855 H 0.43453 0.19755 0.62467
 H856 H 0.33947 0.27545 0.61969
 C857 C 0.90094 0.23891 0.93709
 C858 C 0.86629 0.23036 0.93195
 C859 C 0.84985 0.23261 0.89566
 C860 C 0.81464 0.22732 0.89126
 H861 H 0.84933 0.22215 0.95384
 H862 H 0.86633 0.23954 0.87277
 H863 H 0.91484 0.24731 0.91318
 H864 H 0.79850 0.22103 0.91462
 C865 C 0.41330 0.77592 0.41504
 C866 C 0.38435 0.75582 0.40878
 C867 C 0.36691 0.75419 0.37312
 C868 C 0.33585 0.73691 0.36934
 H869 H 0.37311 0.74039 0.43051
 H870 H 0.37846 0.76827 0.35065
 H871 H 0.42496 0.79069 0.39311
 H872 H 0.32419 0.72430 0.39266
 C873 C 0.10500 0.05902 0.22896
 C874 C 0.09867 0.09346 0.23957
 C875 C 0.12749 0.12017 0.23621
 C876 C 0.12414 0.15395 0.24965
 H877 H 0.07391 0.10140 0.25329
 H878 H 0.15238 0.11165 0.22296
 H879 H 0.13226 0.05219 0.22018
 H880 H 0.09916 0.16272 0.26253
 C881 C 0.60098 0.58305 0.77578
 C882 C 0.60513 0.60734 0.74999
 C883 C 0.63397 0.63413 0.75382
 C884 C 0.63572 0.66383 0.73399
 H885 H 0.58987 0.60563 0.72522
 H886 H 0.65520 0.62873 0.77310
 H887 H 0.61815 0.58497 0.79932
 H888 H 0.61378 0.67092 0.71618
 C889 C 0.94313 0.11884 0.77273
 C890 C 0.91028 0.11369 0.75877
 C891 C 0.88098 0.14040 0.76526
 C892 C 0.84732 0.13384 0.75449
 H893 H 0.90516 0.09117 0.74047
 H894 H 0.88718 0.16596 0.77859
 H895 H 0.94741 0.14439 0.78698
 H896 H 0.84111 0.10785 0.74207
 C897 C 0.45869 0.62114 0.26255
 C898 C 0.42915 0.62059 0.24222
 C899 C 0.40067 0.64845 0.24594
 C900 C 0.36812 0.64182 0.23249
 H901 H 0.42510 0.59797 0.22361
 H902 H 0.40571 0.67332 0.26101
 H903 H 0.46394 0.64432 0.28006
 H904 H 0.36329 0.61599 0.21902
 C905 C 0.06767 0.92671 0.71535
 C906 C 0.07243 0.89137 0.70799
 C907 C 0.10859 0.87458 0.71109
 C908 C 0.11294 0.83901 0.70622
 H909 H 0.05032 0.87427 0.70030
 H910 H 0.13128 0.89101 0.71901
 H911 H 0.09186 0.94125 0.72210
 H912 H 0.08982 0.82292 0.69881
 C913 C 0.53965 0.39607 0.24740
 C914 C 0.57183 0.39631 0.26334
 C915 C 0.59652 0.36512 0.25925
 C916 C 0.63184 0.36834 0.26489
 H917 H 0.58013 0.41959 0.27933
 H918 H 0.58567 0.33929 0.25058
 H919 H 0.53125 0.37178 0.23300
 H920 H 0.64292 0.39461 0.27150
 C921 C 0.90388 0.93973 0.25415
 C922 C 0.91117 0.90520 0.24384
 C923 C 0.88551 0.87653 0.25255
 C924 C 0.89140 0.84100 0.24525
 H925 H 0.93535 0.89828 0.22863
 H926 H 0.86025 0.88532 0.26486
 H927 H 0.87840 0.94591 0.26744
 H928 H 0.91662 0.83180 0.23321
 C929 C 0.40983 0.44475 0.77664
 C930 C 0.41672 0.41027 0.76588
 C931 C 0.39103 0.38203 0.77581
 C932 C 0.39360 0.34681 0.76552
 H933 H 0.43985 0.40338 0.74910
 H934 H 0.36753 0.39139 0.79094
 H935 H 0.38512 0.45072 0.79141
 H936 H 0.41705 0.33663 0.75089
 C937 C 0.08724 0.28253 0.94088
 C938 C 0.12305 0.27763 0.94062
 C939 C 0.14308 0.27612 0.90653
 C940 C 0.17729 0.26452 0.90544
 H941 H 0.13761 0.27209 0.96518
 H942 H 0.12951 0.28411 0.88207
 H943 H 0.07412 0.28474 0.91505
 H944 H 0.19046 0.25606 0.92995
 C945 C 0.60624 0.77268 0.43355
 C946 C 0.63793 0.75492 0.43243
 C947 C 0.65912 0.75403 0.39897
 C948 C 0.69216 0.73915 0.39685
 H949 H 0.64771 0.74043 0.45559
 H950 H 0.64725 0.76620 0.37539
 H951 H 0.59725 0.78661 0.40973
 H952 H 0.70465 0.72793 0.42057
 C953 C 0.94321 0.73031 0.89356
 C954 C 0.91009 0.74451 0.89886
 C955 C 0.88499 0.74428 0.86814
 C956 C 0.85185 0.75906 0.86925
 H957 H 0.90243 0.75818 0.92387
 H958 H 0.89441 0.73145 0.84321
 H959 H 0.94984 0.72179 0.86609
 H960 H 0.84144 0.77121 0.89406
 C961 C 0.41490 0.25553 0.41260
 C962 C 0.41110 0.24378 0.37845
 C963 C 0.37596 0.24551 0.36006
 C964 C 0.37362 0.23868 0.32461
 H965 H 0.43418 0.23279 0.36372
 H966 H 0.35213 0.25358 0.37535
 H967 H 0.39139 0.26602 0.42694
 H968 H 0.39792 0.23213 0.30939
 C969 C 0.06172 0.70298 0.09559
 C970 C 0.08744 0.72785 0.09618
 C971 C 0.11542 0.72633 0.12370
 C972 C 0.14577 0.74507 0.12157
 H973 H 0.08710 0.74993 0.07745
 H974 H 0.11081 0.70938 0.14671
 H975 H 0.06185 0.68232 0.11591
 H976 H 0.15187 0.76034 0.09779
 C977 C 0.56139 0.22473 0.59635
 C978 C 0.58690 0.24959 0.60066
 C979 C 0.61464 0.24393 0.62826
 C980 C 0.64518 0.26255 0.63015
 H981 H 0.58556 0.27500 0.58667
 H982 H 0.60914 0.22430 0.64881
 H983 H 0.56302 0.20057 0.61243
 H984 H 0.65271 0.28055 0.60886
 C985 C 0.90001 0.23727 0.07186
 C986 C 0.86438 0.23928 0.07656
 C987 C 0.84776 0.23377 0.11216
 C988 C 0.81198 0.23363 0.11504
 H989 H 0.84709 0.24666 0.05438
 H990 H 0.86450 0.23137 0.13587
 H991 H 0.91657 0.23043 0.09478
 H992 H 0.79601 0.23598 0.09075
 C993 C 0.39747 0.79199 0.54637
 C994 C 0.39858 0.77395 0.57725
 C995 C 0.36795 0.77655 0.60257
 C996 C 0.37086 0.76717 0.63706
 H997 H 0.42086 0.75572 0.58303
 H998 H 0.34213 0.78585 0.59243
 H999 H 0.37373 0.80846 0.54089
 H1000 H 0.39697 0.75989 0.64795
 C1001 C 0.26540 0.09278 0.94302
 C1002 C 0.25217 0.09348 0.90948
 C1003 C 0.25913 0.12580 0.88753
 C1004 C 0.24513 0.13031 0.85479
 H1005 H 0.23367 0.07320 0.89975
 H1006 H 0.27547 0.14715 0.89906
 H1007 H 0.27975 0.11684 0.95169
 H1008 H 0.22945 0.10885 0.84257
 C1009 C 0.80085 0.57718 0.43576
 C1010 C 0.78183 0.58017 0.40546
 C1011 C 0.78881 0.61028 0.38086
 C1012 C 0.77171 0.61315 0.34941
 H1013 H 0.75901 0.56281 0.40068
 H1014 H 0.80688 0.63149 0.38956
 H1015 H 0.82247 0.59600 0.44078
 H1016 H 0.75472 0.59130 0.34010
 C1017 C 0.71726 0.04166 0.11460
 C1018 C 0.70195 0.07433 0.11076
 C1019 C 0.70407 0.10102 0.14052
 C1020 C 0.69774 0.13613 0.13540
 H1021 H 0.68767 0.08145 0.08650
 H1022 H 0.71349 0.09205 0.16652
 H1023 H 0.72690 0.03524 0.14136
 H1024 H 0.68986 0.14535 0.10900
 C1025 C 0.31009 0.55514 0.59996
 C1026 C 0.29045 0.58554 0.59813
 C1027 C 0.29282 0.61424 0.62578
 C1028 C 0.27881 0.64684 0.61938
 H1029 H 0.27024 0.58839 0.57734
 H1030 H 0.30409 0.60816 0.65191
 H1031 H 0.32858 0.55177 0.62223
 H1032 H 0.26931 0.65300 0.59257
 C1033 C 0.72069 0.93116 0.90348
 C1034 C 0.74407 0.92546 0.87649
 C1035 C 0.74425 0.89106 0.85567
 C1036 C 0.76507 0.88626 0.82656
 H1037 H 0.76416 0.94552 0.87077
 H1038 H 0.72699 0.86943 0.86420
 H1039 H 0.70109 0.91058 0.90903
 H1040 H 0.78098 0.90851 0.81710
 C1041 C 0.23833 0.43610 0.40596
 C1042 C 0.25919 0.40644 0.40171
 C1043 C 0.25252 0.38090 0.37164
 C1044 C 0.26888 0.34845 0.36901
 H1045 H 0.28260 0.40236 0.41860
 H1046 H 0.23410 0.38920 0.35063
 H1047 H 0.21619 0.44027 0.38743
 H1048 H 0.28557 0.33878 0.39080
 C1049 C 0.26257 0.88714 0.05730
 C1050 C 0.24203 0.88763 0.08706
 C1051 C 0.24850 0.86034 0.11471
 C1052 C 0.23573 0.86355 0.14849
 H1053 H 0.21999 0.90698 0.09051
 H1054 H 0.26407 0.83635 0.10672
 H1055 H 0.28305 0.86599 0.05418
 H1056 H 0.22168 0.88810 0.15742
 C1057 C 0.78448 0.39033 0.57763
 C1058 C 0.76032 0.39165 0.60456
 C1059 C 0.76357 0.36532 0.63377
 C1060 C 0.74594 0.36872 0.66528
 H1061 H 0.73695 0.40952 0.60373
 H1062 H 0.78008 0.34126 0.62848
 H1063 H 0.80616 0.37033 0.57894
 H1064 H 0.73089 0.39334 0.67199
 C1065 C 0.07352 0.11022 0.75924
 C1066 C 0.07984 0.14521 0.76618
 C1067 C 0.11711 0.15819 0.76810
 C1068 C 0.12317 0.19273 0.77654
 H1069 H 0.05826 0.16506 0.76883
 H1070 H 0.13945 0.13979 0.76195
 H1071 H 0.09721 0.09294 0.75676
 H1072 H 0.10048 0.21061 0.78304
 C1073 C 0.58564 0.58656 0.24022
 C1074 C 0.60083 0.60903 0.26402
 C1075 C 0.63667 0.62431 0.25843
 C1076 C 0.64643 0.65212 0.27943
 H1077 H 0.58559 0.61767 0.28776
 H1078 H 0.65351 0.61497 0.23610
 H1079 H 0.60055 0.57701 0.21666
 H1080 H 0.62796 0.66224 0.30017
 C1081 C 0.10071 0.93495 0.26417
 C1082 C 0.09646 0.90177 0.24983
 C1083 C 0.12411 0.87356 0.25591
 C1084 C 0.12139 0.83979 0.24252
 H1085 H 0.07436 0.89632 0.23162
 H1086 H 0.14831 0.88125 0.27025
 H1087 H 0.12425 0.94010 0.28063
 H1088 H 0.09690 0.83152 0.22909
 C1089 C 0.60668 0.45162 0.78578
 C1090 C 0.60246 0.42070 0.76686
 C1091 C 0.62893 0.39083 0.76960
 C1092 C 0.62337 0.35819 0.75438
 H1093 H 0.58003 0.41778 0.74847
 H1094 H 0.65367 0.39586 0.78417
 H1095 H 0.63039 0.45467 0.80247
 H1096 H 0.59812 0.35276 0.74092
 C1097 C 0.90726 0.06845 0.21764
 C1098 C 0.87513 0.07710 0.23239
 C1099 C 0.85553 0.11159 0.22529
 C1100 C 0.82053 0.11455 0.23377
 H1101 H 0.86307 0.05891 0.25127
 H1102 H 0.86964 0.13432 0.21432
 H1103 H 0.91843 0.08723 0.19890
 H1104 H 0.80716 0.09067 0.24331
 C1105 C 0.40495 0.57036 0.73727
 C1106 C 0.40270 0.60373 0.75227
 C1107 C 0.37336 0.62892 0.74167
 C1108 C 0.37253 0.66415 0.75142
 H1109 H 0.42084 0.61169 0.77369
 H1110 H 0.35126 0.61794 0.72609
 H1111 H 0.38500 0.56282 0.71732
 H1112 H 0.39521 0.67575 0.76555
 C1113 C 0.93424 0.92636 0.72830
 C1114 C 0.93109 0.89210 0.73852
 C1115 C 0.89622 0.87363 0.73684
 C1116 C 0.89397 0.83906 0.74626
 H1117 H 0.95439 0.87752 0.74864
 H1118 H 0.87255 0.88817 0.72750
 H1119 H 0.91042 0.94091 0.71938
 H1120 H 0.91805 0.82491 0.75520
 C1121 C 0.41294 0.43037 0.26959
 C1122 C 0.39980 0.40561 0.24665
 C1123 C 0.36540 0.38725 0.25219
 C1124 C 0.36001 0.35645 0.23367
 H1125 H 0.41634 0.39675 0.22385
 H1126 H 0.34627 0.39707 0.27238
 H1127 H 0.39686 0.44032 0.29220
 H1128 H 0.38089 0.34645 0.21531
   
