data_POSCAR
  _audit_creation_date              2014-09-24
  _audit_creation_method            'ToBaCCo'
  _symmetry_space_group_name_H-M    'P1'
  _symmetry_Int_Tables_number       1
  _symmetry_cell_setting            triclinic
  loop_
  _symmetry_equiv_pos_as_xyz
 x,y,z
_cell_length_a 40.5804
_cell_length_b 40.5812
_cell_length_c 23.7427
_cell_angle_alpha 89.926600
_cell_angle_beta 90.075800
_cell_angle_gamma 120.008800
loop_
  _atom_site_label
  _atom_site_type_symbol
  _atom_site_fract_x
  _atom_site_fract_y
  _atom_site_fract_z
C1 C 0.46155 0.92004 0.55178
 C2 C 0.45199 0.90062 0.50043
 C3 C 0.46173 0.92030 0.44932
 C4 C 0.48161 0.96051 0.44893
 C5 C 0.49149 0.98061 0.50075
 C6 C 0.48143 0.96032 0.55247
 C7 C 0.49151 0.98086 0.60334
 C8 C 0.51104 1.02046 0.60342
 C9 C 0.52131 1.04117 0.55264
 C10 C 0.51145 1.02105 0.50081
 C11 C 0.49184 0.98111 0.39816
 C12 C 0.51141 1.02072 0.39819
 C13 C 0.52152 1.04130 0.44905
 C14 C 0.54142 1.08157 0.44964
 C15 C 0.55094 1.10106 0.50094
 C16 C 0.54117 1.08145 0.55217
 H17 H 0.48434 0.96642 0.64364
 H18 H 0.51805 1.03477 0.64379
 H19 H 0.48478 0.96675 0.35783
 H20 H 0.51857 1.03512 0.35786
 H21 H 0.43672 0.86971 0.50011
 H22 H 0.56620 1.13199 0.50099
 C23 C 0.07975 0.54113 0.55014
 C24 C 0.09932 0.55106 0.49898
 C25 C 0.07980 0.54119 0.44772
 C26 C 0.03959 0.52083 0.44707
 C27 C 0.01938 0.51057 0.49878
 C28 C 0.03954 0.52074 0.55059
 C29 C 0.01897 0.51028 0.60137
 C30 C -0.02065 0.49021 0.60130
 C31 C -0.04120 0.47985 0.55044
 C32 C -0.02103 0.49011 0.49869
 C33 C 0.01908 0.51049 0.39620
 C34 C -0.02054 0.49045 0.39608
 C35 C -0.04121 0.47995 0.44687
 C36 C -0.08149 0.45959 0.44741
 C37 C -0.10099 0.44965 0.49870
 C38 C -0.08140 0.45949 0.54989
 H39 H 0.03338 0.51754 0.64170
 H40 H -0.03507 0.48287 0.64158
 H41 H 0.03354 0.51783 0.35595
 H42 H -0.03489 0.48321 0.35571
 H43 H 0.13021 0.56672 0.49906
 H44 H -0.13191 0.43402 0.49890
 C45 C 0.45880 0.53938 0.55284
 C46 C 0.44923 0.54930 0.50148
 C47 C 0.45911 0.53959 0.45037
 C48 C 0.47909 0.51936 0.44998
 C49 C 0.48902 0.50913 0.50180
 C50 C 0.47887 0.51917 0.55353
 C51 C 0.48907 0.50873 0.60439
 C52 C 0.50881 0.48887 0.60445
 C53 C 0.51915 0.47861 0.55365
 C54 C 0.50915 0.48883 0.50186
 C55 C 0.48939 0.50912 0.39920
 C56 C 0.50908 0.48920 0.39926
 C57 C 0.51924 0.47879 0.45010
 C58 C 0.53923 0.45858 0.45061
 C59 C 0.54896 0.44868 0.50178
 C60 C 0.53923 0.45840 0.55308
 H61 H 0.48186 0.51588 0.64470
 H62 H 0.51592 0.48158 0.64480
 H63 H 0.48229 0.51643 0.35886
 H64 H 0.51630 0.48204 0.35897
 H65 H 0.43385 0.56483 0.50117
 H66 H 0.56435 0.43316 0.50156
 O67 O 0.38965 0.66843 -0.06545
 O68 O 0.39209 0.73302 -0.04902
 C69 C 0.36831 0.73823 -0.07678
 O70 O 0.33316 0.72180 -0.06564
 O71 O 0.26863 0.65964 -0.04876
 C72 C 0.26333 0.63060 -0.07636
 O73 O 0.27979 0.61189 -0.06520
 O74 O 0.34198 0.60953 -0.04842
 C75 C 0.37091 0.63322 -0.07632
 O76 O 0.39133 0.65834 0.04693
 O77 O 0.39045 0.72128 0.06335
 C78 C 0.37231 0.73832 0.07443
 O79 O 0.34353 0.73369 0.04667
 O80 O 0.28061 0.66988 0.06353
 C81 C 0.26353 0.63469 0.07472
 O82 O 0.26814 0.61053 0.04710
 O83 O 0.33202 0.61151 0.06389
 C84 C 0.36723 0.62966 0.07489
 Cr85 Cr 0.38877 0.69423 -0.00105
 Cr86 Cr 0.30752 0.69518 -0.00105
 Cr87 Cr 0.30656 0.61297 -0.00067
 O88 O 0.33428 0.66746 -0.00093
 O89 O 0.60988 0.33048 -0.06399
 O90 O 0.60843 0.26639 -0.04713
 C91 C 0.63239 0.26156 -0.07495
 O92 O 0.66758 0.27836 -0.06388
 O93 O 0.73172 0.34102 -0.04746
 C94 C 0.73651 0.36981 -0.07534
 O95 O 0.71970 0.38818 -0.06429
 O96 O 0.65710 0.38968 -0.04752
 C97 C 0.62822 0.36565 -0.07519
 O98 O 0.60839 0.34075 0.04833
 O99 O 0.61025 0.27834 0.06518
 C100 C 0.62880 0.26171 0.07637
 O101 O 0.65762 0.26665 0.04852
 O102 O 0.72010 0.33096 0.06492
 C103 C 0.73680 0.36615 0.07587
 O104 O 0.73176 0.39001 0.04802
 O105 O 0.66750 0.38818 0.06480
 C106 C 0.63234 0.36967 0.07600
 Cr107 Cr 0.61134 0.30505 0.00059
 Cr108 Cr 0.69320 0.30529 0.00052
 Cr109 Cr 0.69296 0.38690 0.00026
 O110 O 0.66584 0.33241 0.00046
 C111 C 0.45108 0.89887 -0.39986
 C112 C 0.44155 0.87965 -0.35778
 C113 C 0.42983 0.85601 -0.30828
 C114 C 0.43032 0.87157 -0.25541
 C115 C 0.41839 0.84828 -0.20757
 C116 C 0.40597 0.80937 -0.21248
 C117 C 0.40562 0.79390 -0.26533
 C118 C 0.41752 0.81715 -0.31310
 C119 C 0.39313 0.78509 -0.16366
 C120 C 0.38201 0.76407 -0.12353
 H121 H 0.43976 0.90159 -0.25125
 H122 H 0.41873 0.86053 -0.16691
 H123 H 0.39603 0.76385 -0.26961
 H124 H 0.41700 0.80483 -0.35378
 C125 C 0.10201 0.55242 -0.39867
 C126 C 0.12123 0.56217 -0.35659
 C127 C 0.14489 0.57417 -0.30713
 C128 C 0.13030 0.55651 -0.25512
 C129 C 0.15370 0.56791 -0.20739
 C130 C 0.19174 0.59702 -0.21155
 C131 C 0.20623 0.61476 -0.26351
 C132 C 0.18287 0.60336 -0.31117
 C133 C 0.21620 0.60847 -0.16293
 C134 C 0.23736 0.61840 -0.12296
 H135 H 0.10097 0.53387 -0.25156
 H136 H 0.14222 0.55397 -0.16742
 H137 H 0.23562 0.63725 -0.26721
 H138 H 0.19445 0.61718 -0.35119
 C139 C 0.44814 0.54979 -0.39878
 C140 C 0.43846 0.55922 -0.35664
 C141 C 0.42659 0.57079 -0.30703
 C142 C 0.44748 0.57859 -0.25693
 C143 C 0.43622 0.59060 -0.20916
 C144 C 0.40402 0.59484 -0.21135
 C145 C 0.38304 0.58684 -0.26137
 C146 C 0.39430 0.57485 -0.30909
 C147 C 0.39275 0.60801 -0.16281
 C148 C 0.38296 0.61935 -0.12288
 H149 H 0.47253 0.57559 -0.25492
 H150 H 0.45269 0.59678 -0.17071
 H151 H 0.35814 0.59009 -0.26357
 H152 H 0.37797 0.56895 -0.34763
 C153 C 0.55138 0.10241 -0.39932
 C154 C 0.56063 0.12141 -0.35706
 C155 C 0.57198 0.14472 -0.30727
 C156 C 0.57415 0.12958 -0.25522
 C157 C 0.58579 0.15260 -0.20714
 C158 C 0.59527 0.19082 -0.21098
 C159 C 0.59293 0.20586 -0.26299
 C160 C 0.58132 0.18288 -0.31101
 C161 C 0.60791 0.21489 -0.16198
 C162 C 0.61887 0.23579 -0.12174
 H163 H 0.56703 0.10011 -0.25190
 H164 H 0.58755 0.14070 -0.16714
 H165 H 0.60024 0.23538 -0.26645
 H166 H 0.57977 0.19488 -0.35105
 C167 C 0.89636 0.44818 -0.39894
 C168 C 0.87722 0.43845 -0.35683
 C169 C 0.85370 0.42652 -0.30727
 C170 C 0.81473 0.40034 -0.31209
 C171 C 0.79160 0.38893 -0.26423
 C172 C 0.80731 0.40365 -0.21129
 C173 C 0.84632 0.42977 -0.20637
 C174 C 0.86949 0.44119 -0.25431
 C175 C 0.78317 0.39211 -0.16236
 C176 C 0.76225 0.38212 -0.12216
 H177 H 0.80223 0.38885 -0.35284
 H178 H 0.76147 0.36876 -0.26852
 H179 H 0.85875 0.44136 -0.16563
 H180 H 0.89959 0.46148 -0.25013
 C181 C 0.54976 0.44781 -0.39850
 C182 C 0.55935 0.43818 -0.35639
 C183 C 0.57118 0.42635 -0.30690
 C184 C 0.55811 0.42926 -0.25355
 C185 C 0.56953 0.41739 -0.20567
 C186 C 0.59405 0.40259 -0.21103
 C187 C 0.60714 0.39978 -0.26437
 C188 C 0.59574 0.41163 -0.31218
 C189 C 0.60568 0.38999 -0.16213
 C190 C 0.61578 0.37908 -0.12196
 H191 H 0.53909 0.44059 -0.24903
 H192 H 0.55922 0.41966 -0.16461
 H193 H 0.62608 0.38836 -0.26900
 H194 H 0.60599 0.40924 -0.35323
 C195 C 0.89743 0.44905 0.39897
 C196 C 0.87825 0.43949 0.35683
 C197 C 0.85465 0.42772 0.30730
 C198 C 0.87006 0.42737 0.25465
 C199 C 0.84678 0.41541 0.20679
 C200 C 0.80804 0.40377 0.21146
 C201 C 0.79272 0.40426 0.26408
 C202 C 0.81596 0.41620 0.31187
 C203 C 0.78376 0.39092 0.16265
 C204 C 0.76270 0.37980 0.12255
 H205 H 0.89995 0.43620 0.25068
 H206 H 0.85891 0.41511 0.16630
 H207 H 0.76280 0.39528 0.26818
 H208 H 0.80375 0.41632 0.35238
 C209 C 0.55193 0.10266 0.40120
 C210 C 0.56144 0.12176 0.35899
 C211 C 0.57309 0.14517 0.30926
 C212 C 0.59736 0.18453 0.31415
 C213 C 0.60854 0.20752 0.26609
 C214 C 0.59551 0.19127 0.21287
 C215 C 0.57129 0.15187 0.20790
 C216 C 0.56010 0.12885 0.25604
 C217 C 0.60686 0.21524 0.16371
 C218 C 0.61669 0.23605 0.12334
 H219 H 0.60755 0.19744 0.35510
 H220 H 0.62725 0.23795 0.27043
 H221 H 0.56102 0.13902 0.16696
 H222 H 0.54130 0.09843 0.25181
 C223 C 0.55030 0.44745 0.39943
 C224 C 0.55984 0.43786 0.35733
 C225 C 0.57157 0.42607 0.30780
 C226 C 0.58532 0.40067 0.31284
 C227 C 0.59712 0.38936 0.26500
 C228 C 0.59525 0.40338 0.21186
 C229 C 0.58142 0.42872 0.20674
 C230 C 0.56958 0.44005 0.25465
 C231 C 0.60789 0.39190 0.16295
 C232 C 0.61885 0.38194 0.12277
 H233 H 0.58700 0.38972 0.35373
 H234 H 0.60781 0.36979 0.26945
 H235 H 0.57988 0.43976 0.16585
 H236 H 0.55902 0.45972 0.25031
 C237 C 0.10214 0.55252 0.39666
 C238 C 0.12146 0.56232 0.35473
 C239 C 0.14530 0.57441 0.30551
 C240 C 0.18495 0.59464 0.31164
 C241 C 0.20834 0.60653 0.26407
 C242 C 0.19222 0.59825 0.21010
 C243 C 0.15255 0.57801 0.20389
 C244 C 0.12912 0.56610 0.25154
 C245 C 0.21655 0.61066 0.16139
 C246 C 0.23763 0.62143 0.12136
 H247 H 0.19775 0.60122 0.35317
 H248 H 0.23897 0.62216 0.26936
 H249 H 0.13979 0.57147 0.16233
 H250 H 0.09849 0.55047 0.24634
 C251 C 0.45075 0.89813 0.39809
 C252 C 0.44127 0.87901 0.35596
 C253 C 0.42959 0.85545 0.30643
 C254 C 0.40823 0.81581 0.31200
 C255 C 0.39685 0.79270 0.26413
 C256 C 0.40676 0.80910 0.21042
 C257 C 0.42811 0.84876 0.20477
 C258 C 0.43951 0.87192 0.25273
 C259 C 0.39503 0.78503 0.16142
 C260 C 0.38485 0.76411 0.12120
 H261 H 0.40041 0.80279 0.35332
 H262 H 0.38037 0.76206 0.26898
 H263 H 0.43594 0.86174 0.16343
 H264 H 0.45603 0.90255 0.24797
 C265 C 0.44827 0.55096 0.39910
 C266 C 0.43899 0.56074 0.35685
 C267 C 0.42763 0.57276 0.30706
 C268 C 0.42219 0.55331 0.25608
 C269 C 0.41052 0.56476 0.20804
 C270 C 0.40426 0.59570 0.21085
 C271 C 0.40987 0.61521 0.26178
 C272 C 0.42153 0.60377 0.30976
 C273 C 0.39156 0.60722 0.16194
 C274 C 0.38062 0.61726 0.12173
 H275 H 0.42680 0.52926 0.25357
 H276 H 0.40621 0.54944 0.16889
 H277 H 0.40507 0.63913 0.26445
 H278 H 0.42560 0.61898 0.34897
   
