data_POSCAR
  _audit_creation_date              2014-09-24
  _audit_creation_method            'ToBaCCo'
  _symmetry_space_group_name_H-M    'P1'
  _symmetry_Int_Tables_number       1
  _symmetry_cell_setting            triclinic
  loop_
  _symmetry_equiv_pos_as_xyz
 x,y,z
_cell_length_a 38.8983
_cell_length_b 38.0542
_cell_length_c 37.9610
_cell_angle_alpha 89.877900
_cell_angle_beta 89.971400
_cell_angle_gamma 90.028500
loop_
  _atom_site_label
  _atom_site_type_symbol
  _atom_site_fract_x
  _atom_site_fract_y
  _atom_site_fract_z
C1 C 0.37796 0.27268 0.03283
 C2 C 0.38865 0.25877 0.00072
 C3 C 0.37576 0.27063 -0.03168
 C4 C 0.35073 0.29787 -0.03177
 C5 C 0.33942 0.31237 0.00082
 C6 C 0.35318 0.29973 0.03319
 C7 C 0.34062 0.31321 0.06509
 C8 C 0.31488 0.33847 0.06548
 C9 C 0.30060 0.35117 0.03399
 C10 C 0.31295 0.33821 0.00121
 C11 C 0.33433 0.30863 -0.06299
 C12 C 0.30837 0.33379 -0.06258
 C13 C 0.29765 0.34960 -0.03097
 C14 C 0.26989 0.37398 -0.03006
 C15 C 0.25839 0.38607 0.00278
 C16 C 0.27310 0.37527 0.03445
 H17 H 0.34994 0.30370 0.09020
 H18 H 0.30565 0.34727 0.09086
 H19 H 0.34029 0.29664 -0.08804
 H20 H 0.29586 0.33952 -0.08734
 H21 H 0.40843 0.23865 0.00109
 H22 H 0.23794 0.40546 0.00389
 C23 C 0.73005 0.62654 0.03277
 C24 C 0.74246 0.61472 0.00032
 C25 C 0.72807 0.62558 -0.03163
 C26 C 0.69978 0.64896 -0.03130
 C27 C 0.68709 0.66176 0.00137
 C28 C 0.70238 0.65061 0.03354
 C29 C 0.69013 0.66443 0.06546
 C30 C 0.66282 0.68805 0.06600
 C31 C 0.64674 0.69874 0.03464
 C32 C 0.65921 0.68593 0.00189
 C33 C 0.68405 0.66007 -0.06266
 C34 C 0.65614 0.68289 -0.06211
 C35 C 0.64387 0.69717 -0.03031
 C36 C 0.61545 0.72072 -0.02945
 C37 C 0.60322 0.73211 0.00342
 C38 C 0.61876 0.72230 0.03508
 H39 H 0.70173 0.65731 0.09037
 H40 H 0.65439 0.69785 0.09131
 H41 H 0.69293 0.65100 -0.08805
 H42 H 0.64408 0.68872 -0.08707
 H43 H 0.76358 0.59609 -0.00009
 H44 H 0.58213 0.75075 0.00452
 C45 C 0.62432 0.27408 1.03653
 C46 C 0.61026 0.26250 1.00475
 C47 C 0.62193 0.27494 0.97222
 C48 C 0.64819 0.30062 0.97122
 C49 C 0.66254 0.31314 1.00331
 C50 C 0.65071 0.29963 1.03608
 C51 C 0.66666 0.31074 1.06729
 C52 C 0.69346 0.33497 1.06656
 C53 C 0.70505 0.34967 1.03463
 C54 C 0.68977 0.33808 1.00255
 C55 C 0.66144 0.31298 0.93909
 C56 C 0.68810 0.33732 0.93830
 C57 C 0.70256 0.35023 0.96960
 C58 C 0.73049 0.37388 0.96886
 C59 C 0.74533 0.38470 1.00045
 C60 C 0.73332 0.37339 1.03342
 H61 H 0.65914 0.30011 1.09260
 H62 H 0.70566 0.34110 1.09136
 H63 H 0.65178 0.30347 0.91416
 H64 H 0.69778 0.34532 0.91279
 H65 H 0.59001 0.24286 1.00531
 H66 H 0.76603 0.40381 0.99918
 C67 C 0.27336 0.62403 0.96354
 C68 C 0.25918 0.61332 0.99554
 C69 C 0.27123 0.62561 1.02811
 C70 C 0.29876 0.65026 1.02841
 C71 C 0.31361 0.66146 0.99594
 C72 C 0.30090 0.64814 0.96344
 C73 C 0.31488 0.66052 0.93166
 C74 C 0.34056 0.68589 0.93151
 C75 C 0.35327 0.69986 0.96313
 C76 C 0.33993 0.68750 0.99579
 C77 C 0.30958 0.66660 1.05971
 C78 C 0.33524 0.69208 1.05955
 C79 C 0.35146 0.70249 1.02810
 C80 C 0.37645 0.72987 1.02746
 C81 C 0.38885 0.74146 0.99472
 C82 C 0.37781 0.72712 0.96292
 H83 H 0.30548 0.65136 0.90649
 H84 H 0.34971 0.69509 0.90621
 H85 H 0.29729 0.66108 1.08464
 H86 H 0.34105 0.70458 1.08437
 H87 H 0.23869 0.59394 0.99490
 H88 H 0.40853 0.76169 0.99378
 C89 C 0.03416 0.27174 0.37643
 C90 C 0.00284 0.25696 0.38648
 C91 C -0.02880 0.26911 0.37354
 C92 C -0.02881 0.29739 0.34891
 C93 C 0.00299 0.31273 0.33827
 C94 C 0.03453 0.29984 0.35217
 C95 C 0.06569 0.31415 0.34017
 C96 C 0.06615 0.34043 0.31478
 C97 C 0.03548 0.35340 0.30032
 C98 C 0.00346 0.33971 0.31222
 C99 C -0.05914 0.30844 0.33206
 C100 C -0.05867 0.33480 0.30661
 C101 C -0.02785 0.35148 0.29671
 C102 C -0.02688 0.37709 0.26932
 C103 C 0.00522 0.38976 0.25809
 C104 C 0.03606 0.37848 0.27296
 H105 H 0.09018 0.30452 0.34959
 H106 H 0.09096 0.34982 0.30594
 H107 H -0.08352 0.29578 0.33713
 H108 H -0.08273 0.34075 0.29369
 H109 H 0.00325 0.23601 0.40594
 H110 H 0.00641 0.40978 0.23770
 C111 C 0.03041 0.61515 0.72092
 C112 C -0.00086 0.59948 0.72977
 C113 C -0.03251 0.61314 0.71843
 C114 C -0.03250 0.64306 0.69582
 C115 C -0.00066 0.65814 0.68504
 C116 C 0.03085 0.64429 0.69795
 C117 C 0.06194 0.66031 0.68815
 C118 C 0.06234 0.68888 0.66533
 C119 C 0.03167 0.70259 0.65149
 C120 C -0.00026 0.68741 0.66160
 C121 C -0.06313 0.65742 0.68242
 C122 C -0.06279 0.68680 0.66057
 C123 C -0.03173 0.70176 0.64885
 C124 C -0.03103 0.73190 0.62650
 C125 C 0.00100 0.74632 0.61731
 C126 C 0.03206 0.73184 0.62862
 H127 H 0.08634 0.65095 0.69810
 H128 H 0.08701 0.70046 0.65906
 H129 H -0.08791 0.64614 0.68855
 H130 H -0.08742 0.69773 0.65338
 H131 H -0.00045 0.57739 0.74791
 H132 H 0.00203 0.76826 0.59902
 C133 C 1.03396 0.62621 0.27161
 C134 C 1.00283 0.61232 0.25965
 C135 C 0.97121 0.62429 0.27219
 C136 C 0.97039 0.65058 0.29838
 C137 C 1.00178 0.66471 0.31135
 C138 C 1.03368 0.65269 0.29769
 C139 C 1.06422 0.66862 0.30918
 C140 C 1.06366 0.69538 0.33410
 C141 C 1.03257 0.70696 0.34912
 C142 C 1.00118 0.69193 0.33693
 C143 C 0.93910 0.66410 0.31083
 C144 C 0.93848 0.69079 0.33573
 C145 C 0.96911 0.70499 0.34915
 C146 C 0.96852 0.73298 0.37339
 C147 C 0.99940 0.74754 0.38494
 C148 C 1.03155 0.73511 0.37373
 H149 H 1.08888 0.66117 0.29834
 H150 H 1.08792 0.70763 0.34049
 H151 H 0.91472 0.65464 0.30098
 H152 H 0.91363 0.70069 0.34379
 H153 H 1.00321 0.59194 0.23969
 H154 H 0.99818 0.76824 0.40454
 C155 C 1.03053 0.27150 0.62501
 C156 C 0.99959 0.26004 0.61033
 C157 C 0.96784 0.27247 0.62207
 C158 C 0.96675 0.29818 0.64886
 C159 C 0.99800 0.31067 0.66376
 C160 C 1.02998 0.29699 0.65203
 C161 C 1.06032 0.30779 0.66879
 C162 C 1.05951 0.33213 0.69605
 C163 C 1.02840 0.34741 0.70723
 C164 C 0.99716 0.33575 0.69147
 C165 C 0.93535 0.31062 0.66211
 C166 C 0.93448 0.33502 0.68929
 C167 C 0.96498 0.34800 0.70424
 C168 C 0.96414 0.37181 0.73265
 C169 C 0.99493 0.38293 0.74787
 C170 C 1.02721 0.37174 0.73566
 H171 H 1.08500 0.29684 0.66158
 H172 H 1.08360 0.33784 0.70899
 H173 H 0.91106 0.30114 0.65201
 H174 H 0.90954 0.34306 0.69895
 H175 H 1.00021 0.24044 0.58960
 H176 H 0.99356 0.40227 0.76880
 C177 C 0.26845 -0.03138 0.37439
 C178 C 0.25659 0.00111 0.38689
 C179 C 0.27064 0.03300 0.37599
 C180 C 0.29777 0.03311 0.35137
 C181 C 0.31041 0.00070 0.33795
 C182 C 0.29580 -0.03170 0.34947
 C183 C 0.30670 -0.06296 0.33324
 C184 C 0.33208 -0.06277 0.30735
 C185 C 0.34797 -0.03132 0.29651
 C186 C 0.33644 0.00089 0.31155
 C187 C 0.31138 0.06483 0.33861
 C188 C 0.33673 0.06502 0.31291
 C189 C 0.34952 0.03349 0.29894
 C190 C 0.37389 0.03379 0.27146
 C191 C 0.38479 0.00209 0.25692
 C192 C 0.37265 -0.03062 0.26876
 H193 H 0.29471 -0.08789 0.33922
 H194 H 0.33795 -0.08756 0.29491
 H195 H 0.30191 0.08995 0.34771
 H196 H 0.34553 0.09029 0.30342
 H197 H 0.23636 0.00175 0.40660
 H198 H 0.40432 0.00309 0.23649
 C199 C 0.62207 0.03569 0.72450
 C200 C 0.60665 0.00408 0.73444
 C201 C 0.61847 -0.02864 0.72240
 C202 C 0.64646 -0.02938 0.69824
 C203 C 0.66163 0.00282 0.68688
 C204 C 0.64952 0.03541 0.70024
 C205 C 0.66543 0.06677 0.68939
 C206 C 0.69209 0.06641 0.66496
 C207 C 0.70393 0.03468 0.65058
 C208 C 0.68892 0.00250 0.66196
 C209 C 0.65841 -0.06100 0.68344
 C210 C 0.68583 -0.06136 0.65990
 C211 C 0.70132 -0.02999 0.64863
 C212 C 0.72908 -0.03008 0.62455
 C213 C 0.74311 0.00185 0.61337
 C214 C 0.73094 0.03410 0.62570
 H215 H 0.65738 0.09195 0.69967
 H216 H 0.70354 0.09131 0.65767
 H217 H 0.64648 -0.08594 0.68942
 H218 H 0.69448 -0.08661 0.65034
 H219 H 0.58585 0.00506 0.75349
 H220 H 0.76381 0.00160 0.59418
 C221 C 0.27110 1.03113 0.62688
 C222 C 0.25841 0.99833 0.61609
 C223 C 0.27339 0.96668 0.62649
 C224 C 0.30211 0.96714 0.64911
 C225 C 0.31545 0.99985 0.66088
 C226 C 0.30002 1.03201 0.64982
 C227 C 0.31213 1.06369 0.66439
 C228 C 0.33959 1.06410 0.68787
 C229 C 0.35568 1.03280 0.69839
 C230 C 0.34337 1.00030 0.68503
 C231 C 0.31683 0.93574 0.66143
 C232 C 0.34415 0.93622 0.68499
 C233 C 0.35782 0.96813 0.69712
 C234 C 0.38459 0.96879 0.72223
 C235 C 0.39684 1.00103 0.73442
 C236 C 0.38265 1.03289 0.72333
 H237 H 0.29983 1.08853 0.65882
 H238 H 0.34752 1.08922 0.69840
 H239 H 0.30685 0.91039 0.65360
 H240 H 0.35402 0.91124 0.69409
 H241 H 0.23704 0.99723 0.59774
 H242 H 0.41736 1.00129 0.75380
 C243 C 0.61268 0.96646 0.28365
 C244 C 0.59691 0.99833 0.27534
 C245 C 0.61064 1.03077 0.28593
 C246 C 0.64064 1.03094 0.30740
 C247 C 0.65584 0.99850 0.31775
 C248 C 0.64193 0.96619 0.30555
 C249 C 0.65796 0.93451 0.31497
 C250 C 0.68673 0.93430 0.33665
 C251 C 0.70062 0.96578 0.34965
 C252 C 0.68534 0.99832 0.33996
 C253 C 0.65505 1.06237 0.32006
 C254 C 0.68459 1.06225 0.34069
 C255 C 0.69979 1.03061 0.35188
 C256 C 0.73013 1.03012 0.37288
 C257 C 0.74458 0.99748 0.38174
 C258 C 0.73008 0.96562 0.37129
 H259 H 0.64836 0.90950 0.30566
 H260 H 0.69831 0.90916 0.34269
 H261 H 0.64368 1.08763 0.31428
 H262 H 0.69545 1.08749 0.34735
 H263 H 0.57479 0.99779 0.25791
 H264 H 0.76666 0.99662 0.39920
 O265 O 0.87543 0.82986 0.46596
 O266 O 0.82778 0.87696 0.53401
 O267 O 0.87631 0.83057 0.53408
 O268 O 0.82758 0.87605 0.46561
 O269 O 0.78809 0.83431 0.46631
 O270 O 0.83801 0.78777 0.53542
 O271 O 0.78811 0.83543 0.53482
 O272 O 0.83730 0.78683 0.46697
 Cu273 Cu 0.85559 0.85757 0.49995
 Cu274 Cu 0.80888 0.80677 0.50111
 C275 C 0.86480 0.80035 0.45493
 C276 C 0.79966 0.86472 0.54569
 C277 C 0.86605 0.80127 0.54612
 C278 C 0.79967 0.86317 0.45419
 O279 O 0.17211 0.12373 0.53628
 O280 O 0.12581 0.17239 0.46840
 O281 O 0.17291 0.12512 0.46813
 O282 O 0.12492 0.17131 0.53652
 O283 O 0.16410 0.21329 0.53787
 O284 O 0.21357 0.16563 0.46947
 O285 O 0.16502 0.21437 0.46951
 O286 O 0.21253 0.16442 0.53802
 Cu287 Cu 0.14502 0.14404 0.50227
 Cu288 Cu 0.19291 0.19364 0.50386
 C289 C 0.20025 0.13525 0.54857
 C290 C 0.13711 0.20172 0.45753
 C291 C 0.20145 0.13710 0.45728
 C292 C 0.13580 0.20033 0.54854
 O293 O 0.12535 0.83029 0.53710
 O294 O 0.17180 0.87779 0.46848
 O295 O 0.12371 0.83139 0.46899
 O296 O 0.17388 0.87597 0.53665
 O297 O 0.21345 0.83444 0.53434
 O298 O 0.16187 0.78858 0.46627
 O299 O 0.21121 0.83619 0.46568
 O300 O 0.16332 0.78723 0.53497
 Cu301 Cu 0.14489 0.85804 0.50299
 Cu302 Cu 0.19143 0.80726 0.50017
 C303 C 0.13601 0.80062 0.54765
 C304 C 0.19930 0.86559 0.45535
 C305 C 0.13381 0.80243 0.45612
 C306 C 0.20224 0.86316 0.54694
 O307 O 0.82937 0.12231 0.46351
 O308 O 0.87664 0.17122 0.53056
 O309 O 0.82943 0.12409 0.53175
 O310 O 0.87741 0.16922 0.46260
 O311 O 0.83866 0.21150 0.46045
 O312 O 0.78935 0.16515 0.53044
 O313 O 0.83800 0.21369 0.52891
 O314 O 0.78928 0.16331 0.46181
 Cu315 Cu 0.85705 0.14257 0.49716
 Cu316 Cu 0.80976 0.19265 0.49518
 C317 C 0.80117 0.13397 0.45146
 C318 C 0.86578 0.20084 0.54101
 C319 C 0.80126 0.13658 0.54292
 C320 C 0.86689 0.19819 0.45002
 O321 O 0.47130 0.87326 0.82383
 O322 O 0.53575 0.82342 0.87293
 O323 O 0.53711 0.87320 0.82377
 O324 O 0.46962 0.82511 0.87050
 O325 O 0.47023 0.78368 0.82980
 O326 O 0.53805 0.83277 0.78204
 O327 O 0.53674 0.78270 0.83149
 O328 O 0.47169 0.83348 0.78151
 Cu329 Cu 0.50403 0.85274 0.85200
 Cu330 Cu 0.50456 0.80399 0.80201
 C331 C 0.46058 0.86219 0.79432
 C332 C 0.54593 0.79393 0.86152
 C333 C 0.54763 0.86227 0.79414
 C334 C 0.45840 0.79628 0.85835
 O335 O 0.53722 0.17306 0.13201
 O336 O 0.46630 0.12801 0.17606
 O337 O 0.47038 0.17520 0.12818
 O338 O 0.53179 0.12619 0.18229
 O339 O 0.53151 0.16864 0.22198
 O340 O 0.46821 0.21738 0.16800
 O341 O 0.46529 0.16873 0.21747
 O342 O 0.53504 0.21625 0.17066
 Cu343 Cu 0.50195 0.14663 0.15048
 Cu344 Cu 0.50006 0.19714 0.19852
 C345 C 0.54769 0.20265 0.14295
 C346 C 0.45412 0.14008 0.20455
 C347 C 0.45845 0.20432 0.13889
 C348 C 0.54113 0.13843 0.21181
 O349 O 0.53499 0.12791 0.82709
 O350 O 0.46721 0.17327 0.87533
 O351 O 0.46855 0.12643 0.82662
 O352 O 0.53367 0.17442 0.87633
 O353 O 0.53303 0.21727 0.83705
 O354 O 0.46802 0.16768 0.78562
 O355 O 0.46600 0.21574 0.83569
 O356 O 0.53477 0.16933 0.78628
 Cu357 Cu 0.50118 0.14640 0.85532
 Cu358 Cu 0.50049 0.19685 0.80707
 C359 C 0.54620 0.14036 0.79828
 C360 C 0.45501 0.20214 0.86419
 C361 C 0.45737 0.13839 0.79759
 C362 C 0.54422 0.20412 0.86568
 O363 O 0.46619 0.82818 0.12315
 O364 O 0.53094 0.87401 0.17530
 O365 O 0.53254 0.82624 0.12712
 O366 O 0.46473 0.87577 0.17132
 O367 O 0.46065 0.83527 0.21281
 O368 O 0.52892 0.78427 0.16717
 O369 O 0.52737 0.83356 0.21690
 O370 O 0.46200 0.78643 0.16335
 Cu371 Cu 0.49899 0.85505 0.14521
 Cu372 Cu 0.49448 0.80564 0.19421
 C373 C 0.45310 0.79954 0.13387
 C374 C 0.53987 0.86222 0.20519
 C375 C 0.54205 0.79664 0.13904
 C376 C 0.45129 0.86452 0.19965
 O377 O 0.82480 0.46895 0.87455
 O378 O 0.87313 0.53270 0.82182
 O379 O 0.82682 0.53748 0.87204
 O380 O 0.87146 0.46574 0.82748
 O381 O 0.83206 0.46530 0.78555
 O382 O 0.78476 0.53537 0.83309
 O383 O 0.83180 0.53316 0.78185
 O384 O 0.78396 0.46712 0.83416
 Cu385 Cu 0.85290 0.50181 0.85320
 Cu386 Cu 0.80391 0.50044 0.80461
 C387 C 0.79654 0.45667 0.86323
 C388 C 0.86137 0.54268 0.79230
 C389 C 0.79776 0.54791 0.86112
 C390 C 0.85991 0.45364 0.79873
 O391 O 0.17578 0.46745 0.12633
 O392 O 0.12766 0.53615 0.17191
 O393 O 0.17417 0.53539 0.12347
 O394 O 0.12862 0.46823 0.17361
 O395 O 0.16803 0.47015 0.21543
 O396 O 0.21486 0.53821 0.16384
 O397 O 0.16713 0.53835 0.21365
 O398 O 0.21667 0.46979 0.16660
 Cu399 Cu 0.14763 0.50166 0.14476
 Cu400 Cu 0.19581 0.50437 0.19406
 C401 C 0.20444 0.45701 0.13834
 C402 C 0.13870 0.54864 0.20074
 C403 C 0.20226 0.54815 0.13454
 C404 C 0.14012 0.45782 0.20306
 O405 O 0.83071 0.53542 0.12349
 O406 O 0.87996 0.46771 0.16915
 O407 O 0.83158 0.46729 0.12286
 O408 O 0.87829 0.53537 0.17054
 O409 O 0.83994 0.53359 0.21342
 O410 O 0.79188 0.46517 0.16437
 O411 O 0.84151 0.46538 0.21186
 O412 O 0.79085 0.53380 0.16488
 Cu413 Cu 0.85891 0.50160 0.14230
 Cu414 Cu 0.81198 0.49939 0.19289
 C415 C 0.80238 0.54613 0.13600
 C416 C 0.86975 0.45520 0.19834
 C417 C 0.80384 0.45460 0.13508
 C418 C 0.86761 0.54575 0.20032
 O419 O 0.17245 0.53374 0.87443
 O420 O 0.12203 0.46470 0.83229
 O421 O 0.17101 0.46569 0.87803
 O422 O 0.12406 0.53217 0.82799
 O423 O 0.16210 0.52886 0.78496
 O424 O 0.21011 0.46164 0.83610
 O425 O 0.15990 0.46088 0.78916
 O426 O 0.21200 0.53007 0.83285
 Cu427 Cu 0.14369 0.49945 0.85745
 Cu428 Cu 0.19004 0.49509 0.80647
 C429 C 0.20089 0.54351 0.86133
 C430 C 0.13174 0.45136 0.80336
 C431 C 0.19849 0.45232 0.86601
 C432 C 0.13446 0.54142 0.79769
 C433 C 0.27650 0.41319 0.08844
 C434 C 0.25783 0.38989 0.06709
 C435 C 0.22252 0.38537 0.07311
 C436 C 0.20558 0.40575 0.09813
 C437 C 0.22372 0.43069 0.11795
 C438 C 0.25956 0.43324 0.11407
 H439 H 0.30366 0.41743 0.08378
 H440 H 0.20767 0.36767 0.05678
 H441 H 0.17795 0.40324 0.10080
 H442 H 0.27398 0.45256 0.12888
 C443 C 0.72889 0.59050 0.08837
 C444 C 0.74698 0.61224 0.06478
 C445 C 0.78272 0.61555 0.06833
 C446 C 0.80041 0.59561 0.09326
 C447 C 0.78270 0.57220 0.11542
 C448 C 0.74664 0.57083 0.11382
 H449 H 0.70137 0.58715 0.08568
 H450 H 0.79716 0.63204 0.05033
 H451 H 0.82821 0.59727 0.09410
 H452 H 0.73247 0.55272 0.13041
 C453 C 0.72605 0.41126 0.91443
 C454 C 0.74544 0.38883 0.93613
 C455 C 0.78097 0.38580 0.93040
 C456 C 0.79727 0.40672 0.90529
 C457 C 0.77826 0.43060 0.88495
 C458 C 0.74235 0.43174 0.88862
 H459 H 0.69873 0.41447 0.91888
 H460 H 0.79640 0.36881 0.94699
 H461 H 0.82497 0.40526 0.90270
 H462 H 0.72727 0.45019 0.87333
 C463 C 0.27495 0.58586 0.90951
 C464 C 0.25723 0.60965 0.93119
 C465 C 0.22196 0.61506 0.92574
 C466 C 0.20412 0.59514 0.90100
 C467 C 0.22127 0.56968 0.88089
 C468 C 0.25709 0.56621 0.88419
 H469 H 0.30206 0.58094 0.91371
 H470 H 0.20782 0.63314 0.94232
 H471 H 0.17652 0.59833 0.89886
 H472 H 0.27076 0.54644 0.86923
 C473 C 0.08683 0.27503 0.41470
 C474 C 0.06562 0.25586 0.39175
 C475 C 0.07138 0.21974 0.38740
 C476 C 0.09632 0.20258 0.40734
 C477 C 0.11632 0.22128 0.43170
 C478 C 0.11236 0.25787 0.43430
 H479 H 0.08240 0.30282 0.41881
 H480 H 0.05519 0.20449 0.36995
 H481 H 0.09898 0.17435 0.40487
 H482 H 0.12724 0.27271 0.45325
 C483 C 0.08593 0.72806 0.59226
 C484 C 0.06403 0.74766 0.61418
 C485 C 0.06944 0.78394 0.61756
 C486 C 0.09460 0.80076 0.59750
 C487 C 0.11510 0.78158 0.57392
 C488 C 0.11158 0.74488 0.57250
 H489 H 0.08180 0.70012 0.58884
 H490 H 0.05277 0.79955 0.63419
 H491 H 0.09694 0.82907 0.59919
 H492 H 0.12687 0.72961 0.55425
 C493 C 0.93085 0.78448 0.38460
 C494 C 0.93656 0.74826 0.38807
 C495 C 0.91515 0.72838 0.41031
 C496 C 0.88959 0.74496 0.43027
 C497 C 0.88581 0.78163 0.42875
 C498 C 0.90585 0.80105 0.40491
 H499 H 0.94722 0.80025 0.36772
 H500 H 0.91957 0.70049 0.41375
 H501 H 0.87459 0.72954 0.44873
 H502 H 0.90324 0.82935 0.40317
 C503 C 0.93278 0.21937 0.60982
 C504 C 0.93684 0.25585 0.60667
 C505 C 0.91437 0.27489 0.58485
 C506 C 0.88921 0.25729 0.56516
 C507 C 0.88684 0.22046 0.56659
 C508 C 0.90815 0.20182 0.58987
 H509 H 0.94996 0.20424 0.62641
 H510 H 0.91748 0.30301 0.58173
 H511 H 0.87324 0.27216 0.54714
 H512 H 0.90670 0.17344 0.59157
 C513 C 0.41018 0.08825 0.27627
 C514 C 0.38870 0.06638 0.25619
 C515 C 0.38543 0.07252 0.21990
 C516 C 0.40507 0.09845 0.20349
 C517 C 0.42803 0.11902 0.22313
 C518 C 0.42948 0.11473 0.25985
 H519 H 0.41345 0.08352 0.30421
 H520 H 0.36912 0.05582 0.20397
 H521 H 0.40358 0.10128 0.17512
 H522 H 0.44744 0.12996 0.27540
 C523 C 0.58934 0.09260 0.72316
 C524 C 0.60911 0.06794 0.74182
 C525 C 0.61182 0.07076 0.77852
 C526 C 0.59313 0.09618 0.79663
 C527 C 0.57152 0.11947 0.77836
 C528 C 0.57085 0.11849 0.74135
 H529 H 0.58660 0.09048 0.69486
 H530 H 0.62681 0.05183 0.79333
 H531 H 0.59419 0.09648 0.82515
 H532 H 0.55410 0.13595 0.72673
 C533 C 0.39548 0.93259 0.77549
 C534 C 0.39898 0.93684 0.73898
 C535 C 0.41974 0.91339 0.71998
 C536 C 0.43804 0.88698 0.73768
 C537 C 0.43620 0.88432 0.77457
 C538 C 0.41402 0.90669 0.79315
 H539 H 0.37966 0.95054 0.79056
 H540 H 0.42306 0.91662 0.69183
 H541 H 0.45532 0.87027 0.72289
 H542 H 0.41213 0.90510 0.82158
 C543 C 0.57903 0.90994 0.28283
 C544 C 0.59955 0.93484 0.26535
 C545 C 0.60371 0.93256 0.22876
 C546 C 0.58597 0.90723 0.20955
 C547 C 0.56378 0.88351 0.22656
 C548 C 0.56142 0.88417 0.26353
 H549 H 0.57528 0.91162 0.31105
 H550 H 0.61933 0.95168 0.21487
 H551 H 0.58838 0.90723 0.18111
 H552 H 0.54423 0.86638 0.27722
 C553 C 0.40385 0.27352 0.91009
 C554 C 0.38873 0.25410 0.93773
 C555 C 0.39174 0.21724 0.93726
 C556 C 0.41132 0.20046 0.91172
 C557 C 0.42878 0.21996 0.88594
 C558 C 0.42375 0.25653 0.88435
 H559 H 0.40280 0.30197 0.91002
 H560 H 0.37990 0.20137 0.95767
 H561 H 0.41414 0.17218 0.91325
 H562 H 0.43704 0.27218 0.86476
 C563 C 0.61783 0.75083 0.91283
 C564 C 0.59904 0.73445 0.94019
 C565 C 0.56287 0.73598 0.93902
 C566 C 0.54605 0.75391 0.91211
 C567 C 0.56482 0.77101 0.88574
 C568 C 0.60078 0.76902 0.88577
 H569 H 0.64565 0.75159 0.91356
 H570 H 0.54748 0.72361 0.95938
 H571 H 0.51822 0.75547 0.91251
 H572 H 0.61558 0.78278 0.86589
 C573 C 0.40391 0.72768 0.08619
 C574 C 0.38974 0.74677 0.05779
 C575 C 0.39337 0.78361 0.05772
 C576 C 0.41221 0.80062 0.08371
 C577 C 0.42822 0.78144 0.11066
 C578 C 0.42292 0.74492 0.11247
 H579 H 0.40261 0.69925 0.08670
 H580 H 0.38227 0.79934 0.03679
 H581 H 0.41533 0.82886 0.08190
 H582 H 0.43521 0.72948 0.13288
 C583 C 0.59166 0.27636 0.09360
 C584 C 0.61116 0.25724 0.06912
 C585 C 0.61351 0.22062 0.07261
 C586 C 0.59468 0.20308 0.09849
 C587 C 0.57329 0.22184 0.12156
 C588 C 0.57303 0.25876 0.11991
 H589 H 0.58920 0.30460 0.09101
 H590 H 0.62834 0.20543 0.05389
 H591 H 0.59547 0.17463 0.09927
 H592 H 0.55650 0.27380 0.13718
 C593 C 0.27245 0.08857 0.59652
 C594 C 0.25422 0.06131 0.61351
 C595 C 0.21803 0.06200 0.61242
 C596 C 0.20067 0.08755 0.59317
 C597 C 0.21888 0.11322 0.57432
 C598 C 0.25487 0.11441 0.57721
 H599 H 0.30029 0.08837 0.59573
 H600 H 0.20305 0.04193 0.62570
 H601 H 0.17288 0.08629 0.59185
 H602 H 0.26951 0.13379 0.56261
 C603 C 0.72830 0.08588 0.40616
 C604 C 0.74654 0.06038 0.38673
 C605 C 0.78270 0.06261 0.38587
 C606 C 0.80015 0.08795 0.40528
 C607 C 0.78205 0.11203 0.42609
 C608 C 0.74594 0.11167 0.42542
 H609 H 0.70063 0.08428 0.40883
 H610 H 0.79768 0.04383 0.37089
 H611 H 0.82800 0.08786 0.40504
 H612 H 0.73144 0.12970 0.44170
 C613 C 0.78049 0.93238 0.61487
 C614 C 0.74507 0.93757 0.61022
 C615 C 0.72686 0.91533 0.58734
 C616 C 0.74423 0.88932 0.56823
 C617 C 0.78009 0.88598 0.57112
 C618 C 0.79788 0.90703 0.59532
 H619 H 0.79503 0.94943 0.63217
 H620 H 0.69966 0.91940 0.58283
 H621 H 0.73011 0.87365 0.54935
 H622 H 0.82553 0.90489 0.59797
 C623 C 0.27038 0.91067 0.40372
 C624 C 0.25185 0.93824 0.38767
 C625 C 0.21573 0.93793 0.39018
 C626 C 0.19881 0.91273 0.41025
 C627 C 0.21739 0.88702 0.42862
 C628 C 0.25321 0.88519 0.42404
 H629 H 0.29822 0.91046 0.40314
 H630 H 0.20053 0.95825 0.37758
 H631 H 0.17110 0.91440 0.41271
 H632 H 0.26813 0.86565 0.43808
 C633 C 0.05729 0.38987 0.78911
 C634 C 0.05665 0.38625 0.75218
 C635 C 0.08371 0.40134 0.73250
 C636 C 0.10963 0.42076 0.74926
 C637 C 0.10879 0.42579 0.78590
 C638 C 0.08294 0.40924 0.80567
 H639 H 0.03737 0.37816 0.80530
 H640 H 0.08355 0.40037 0.70399
 H641 H 0.12905 0.43362 0.73335
 H642 H 0.08181 0.41231 0.83401
 C643 C 0.06878 0.61452 0.21799
 C644 C 0.06567 0.61265 0.25476
 C645 C 0.08984 0.59318 0.27413
 C646 C 0.11564 0.57429 0.25668
 C647 C 0.11703 0.57414 0.21968
 C648 C 0.09408 0.59531 0.20060
 H649 H 0.05031 0.62931 0.20259
 H650 H 0.08752 0.59101 0.30249
 H651 H 0.13289 0.55790 0.27192
 H652 H 0.09473 0.59575 0.17207
 C653 C 0.94401 0.39426 0.21511
 C654 C 0.94369 0.39068 0.25203
 C655 C 0.91584 0.40514 0.27089
 C656 C 0.89027 0.42445 0.25333
 C657 C 0.89220 0.42971 0.21671
 C658 C 0.91865 0.41332 0.19775
 H659 H 0.96457 0.38292 0.19957
 H660 H 0.91517 0.40386 0.29939
 H661 H 0.87026 0.43703 0.26861
 H662 H 0.92059 0.41640 0.16945
 C663 C 0.93502 0.55986 0.73162
 C664 C 0.93742 0.59681 0.73168
 C665 C 0.91193 0.61615 0.74970
 C666 C 0.88562 0.59880 0.76817
 C667 C 0.88436 0.56201 0.76863
 C668 C 0.90873 0.54275 0.74970
 H669 H 0.95408 0.54409 0.71808
 H670 H 0.91371 0.64448 0.75168
 H671 H 0.86736 0.61395 0.78340
 H672 H 0.90826 0.51427 0.75018
 C673 C 0.72558 0.58880 0.91337
 C674 C 0.74395 0.61142 0.93573
 C675 C 0.77931 0.61624 0.93010
 C676 C 0.79645 0.59720 0.90410
 C677 C 0.77848 0.57328 0.88285
 C678 C 0.74267 0.57020 0.88677
 H679 H 0.69844 0.58412 0.91774
 H680 H 0.79400 0.63335 0.94721
 H681 H 0.82406 0.59998 0.90164
 H682 H 0.72836 0.55150 0.87107
 C683 C 0.27060 0.40287 0.91157
 C684 C 0.25265 0.38716 0.93981
 C685 C 0.21651 0.38954 0.94019
 C686 C 0.19903 0.40893 0.91482
 C687 C 0.21705 0.42663 0.88819
 C688 C 0.25288 0.42236 0.88588
 H689 H 0.29844 0.40257 0.91085
 H690 H 0.20169 0.37721 0.96102
 H691 H 0.17135 0.41124 0.91694
 H692 H 0.26739 0.43597 0.86568
 C693 C 0.27329 0.59723 0.08669
 C694 C 0.25468 0.61252 0.05869
 C695 C 0.21856 0.61009 0.05923
 C696 C 0.20169 0.59115 0.08538
 C697 C 0.22033 0.57377 0.11179
 C698 C 0.25620 0.57805 0.11308
 H699 H 0.30114 0.59766 0.08672
 H700 H 0.20327 0.62212 0.03862
 H701 H 0.17396 0.58884 0.08400
 H702 H 0.27119 0.56469 0.13306
 C703 C 0.78639 0.38901 0.06358
 C704 C 0.75022 0.38713 0.06340
 C705 C 0.73199 0.40411 0.09061
 C706 C 0.74950 0.42437 0.11573
 C707 C 0.78540 0.42816 0.11385
 C708 C 0.80367 0.40918 0.08840
 H709 H 0.80137 0.37577 0.04352
 H710 H 0.70414 0.40421 0.09079
 H711 H 0.73482 0.43896 0.13504
 H712 H 0.83141 0.41112 0.08668
 C713 C 0.93715 0.78505 0.61124
 C714 C 0.93942 0.74810 0.61181
 C715 C 0.91439 0.72866 0.59327
 C716 C 0.88881 0.74586 0.57368
 C717 C 0.88815 0.78272 0.57176
 C718 C 0.91194 0.80205 0.59156
 H719 H 0.95559 0.80098 0.62546
 H720 H 0.91604 0.70030 0.59169
 H721 H 0.87105 0.73035 0.55819
 H722 H 0.91186 0.83052 0.59083
 C723 C 0.94080 0.21509 0.38856
 C724 C 0.94123 0.25202 0.38612
 C725 C 0.91364 0.27091 0.40105
 C726 C 0.88776 0.25331 0.41995
 C727 C 0.88911 0.21663 0.42431
 C728 C 0.91513 0.19771 0.40721
 H729 H 0.96115 0.19956 0.37682
 H730 H 0.91351 0.29937 0.40062
 H731 H 0.86809 0.26856 0.43310
 H732 H 0.91660 0.16938 0.40961
 C733 C 0.08682 0.27383 0.59258
 C734 C 0.06234 0.25460 0.61183
 C735 C 0.06531 0.21793 0.61386
 C736 C 0.09080 0.20048 0.59498
 C737 C 0.11404 0.21939 0.57392
 C738 C 0.11278 0.25631 0.57396
 H739 H 0.08463 0.30212 0.59035
 H740 H 0.04659 0.20267 0.62850
 H741 H 0.09134 0.17202 0.59553
 H742 H 0.13025 0.27142 0.55767
 C743 C 0.06178 0.78823 0.39178
 C744 C 0.06098 0.75138 0.38842
 C745 C 0.08739 0.73164 0.40446
 C746 C 0.11262 0.74830 0.42492
 C747 C 0.11167 0.78486 0.42991
 C748 C 0.08671 0.80467 0.41214
 H749 H 0.04234 0.80442 0.37930
 H750 H 0.08709 0.70319 0.40352
 H751 H 0.13150 0.73241 0.43857
 H752 H 0.08565 0.83297 0.41501
 C753 C 0.56562 0.94032 0.73744
 C754 C 0.60179 0.94106 0.73581
 C755 C 0.62029 0.91332 0.75177
 C756 C 0.60292 0.88628 0.76970
 C757 C 0.56697 0.88669 0.77181
 C758 C 0.54851 0.91345 0.75509
 H759 H 0.55046 0.96097 0.72536
 H760 H 0.64812 0.91370 0.75240
 H761 H 0.61749 0.86603 0.78311
 H762 H 0.52068 0.91415 0.75668
 C763 C 0.38972 0.93903 0.21500
 C764 C 0.38614 0.93913 0.25194
 C765 C 0.40074 0.91114 0.27123
 C766 C 0.42023 0.88520 0.25409
 C767 C 0.42558 0.88694 0.21750
 C768 C 0.40905 0.91337 0.19810
 H769 H 0.37829 0.95965 0.19912
 H770 H 0.39950 0.91079 0.29973
 H771 H 0.43293 0.86521 0.26971
 H772 H 0.41222 0.91511 0.16979
 C773 C 0.55845 0.06415 0.27364
 C774 C 0.59456 0.06141 0.27266
 C775 C 0.61330 0.08700 0.25369
 C776 C 0.59617 0.11370 0.23518
 C777 C 0.56020 0.11533 0.23567
 C778 C 0.54155 0.09092 0.25556
 H779 H 0.54318 0.04499 0.28789
 H780 H 0.64094 0.08491 0.25099
 H781 H 0.61081 0.13195 0.21918
 H782 H 0.51369 0.09162 0.25575
 C783 C 0.41526 0.08994 0.72223
 C784 C 0.39565 0.06503 0.74080
 C785 C 0.39293 0.06766 0.77753
 C786 C 0.41142 0.09316 0.79573
 C787 C 0.43278 0.11676 0.77754
 C788 C 0.43352 0.11593 0.74053
 H789 H 0.41798 0.08800 0.69391
 H790 H 0.37801 0.04859 0.79227
 H791 H 0.41025 0.09339 0.82425
 H792 H 0.45004 0.13370 0.72597
 C793 C 0.60898 0.77602 0.07061
 C794 C 0.60566 0.73949 0.06743
 C795 C 0.58494 0.72110 0.09154
 C796 C 0.56611 0.73944 0.11715
 C797 C 0.56743 0.77635 0.11844
 C798 C 0.59002 0.79428 0.09578
 H799 H 0.62467 0.79064 0.05208
 H800 H 0.58171 0.69294 0.08912
 H801 H 0.54868 0.72504 0.13413
 H802 H 0.59166 0.82269 0.09631
 C803 C 0.39091 0.22038 0.06990
 C804 C 0.39326 0.25687 0.06498
 C805 C 0.41454 0.27663 0.08734
 C806 C 0.43427 0.25982 0.11328
 C807 C 0.43356 0.22303 0.11643
 C808 C 0.41106 0.20360 0.09516
 H809 H 0.37479 0.20466 0.05280
 H810 H 0.41719 0.30471 0.08354
 H811 H 0.45167 0.27526 0.12927
 H812 H 0.40992 0.17523 0.09728
 C813 C 0.58642 0.27767 0.91682
 C814 C 0.60700 0.25841 0.94034
 C815 C 0.60974 0.22190 0.93625
 C816 C 0.59072 0.20460 0.91049
 C817 C 0.56878 0.22348 0.88802
 C818 C 0.56766 0.26031 0.89052
 H819 H 0.58363 0.30581 0.91990
 H820 H 0.62539 0.20659 0.95421
 H821 H 0.59215 0.17621 0.90901
 H822 H 0.55065 0.27538 0.87371
 C823 C 0.38876 0.77894 0.92460
 C824 C 0.39247 0.74273 0.93038
 C825 C 0.41467 0.72331 0.90867
 C826 C 0.43432 0.74035 0.88281
 C827 C 0.43245 0.77703 0.87902
 C828 C 0.40873 0.79598 0.89932
 H829 H 0.37192 0.79437 0.94123
 H830 H 0.41827 0.69544 0.91316
 H831 H 0.45278 0.72532 0.86770
 H832 H 0.40683 0.82428 0.89679
 C833 C 0.78153 0.92811 0.38194
 C834 C 0.74600 0.93320 0.38574
 C835 C 0.72742 0.91120 0.40868
 C836 C 0.74454 0.88599 0.42912
 C837 C 0.78049 0.88314 0.42738
 C838 C 0.79865 0.90352 0.40277
 H839 H 0.79635 0.94489 0.36454
 H840 H 0.70010 0.91513 0.41249
 H841 H 0.73010 0.87074 0.44817
 H842 H 0.82638 0.90161 0.40087
 C843 C 0.27558 0.91259 0.58875
 C844 C 0.25760 0.93410 0.61250
 C845 C 0.22242 0.92818 0.61810
 C846 C 0.20490 0.90314 0.59832
 C847 C 0.22231 0.88320 0.57290
 C848 C 0.25806 0.88695 0.56930
 H849 H 0.30262 0.91717 0.58366
 H850 H 0.20810 0.94462 0.63617
 H851 H 0.17733 0.90059 0.60159
 H852 H 0.27189 0.87207 0.54956
 C853 C 0.27362 0.08716 0.41370
 C854 C 0.25499 0.06527 0.39085
 C855 C 0.21956 0.07073 0.38665
 C856 C 0.20255 0.09587 0.40678
 C857 C 0.22071 0.11636 0.43118
 C858 C 0.25660 0.11289 0.43350
 H859 H 0.30088 0.08295 0.41769
 H860 H 0.20474 0.05400 0.36929
 H861 H 0.17489 0.09818 0.40447
 H862 H 0.27103 0.12820 0.45244
 C863 C 0.72883 0.08941 0.58953
 C864 C 0.74743 0.06611 0.61106
 C865 C 0.78321 0.06983 0.61362
 C866 C 0.80043 0.09458 0.59305
 C867 C 0.78218 0.11635 0.56974
 C868 C 0.74611 0.11466 0.56920
 H869 H 0.70125 0.08657 0.58679
 H870 H 0.79801 0.05202 0.62995
 H871 H 0.82825 0.09553 0.59408
 H872 H 0.73154 0.13099 0.55120
 C873 C 0.91713 0.58813 0.27449
 C874 C 0.94001 0.60951 0.25544
 C875 C 0.93586 0.61306 0.21892
 C876 C 0.91068 0.59389 0.20133
 C877 C 0.88894 0.57101 0.21997
 C878 C 0.89146 0.56922 0.25686
 H879 H 0.92027 0.58473 0.30264
 H880 H 0.95335 0.62935 0.20380
 H881 H 0.90917 0.59580 0.17289
 H882 H 0.87520 0.55145 0.27172
 C883 C 0.92559 0.38302 0.78375
 C884 C 0.93198 0.38660 0.74755
 C885 C 0.91092 0.40885 0.72734
 C886 C 0.88504 0.42868 0.74357
 C887 C 0.88054 0.42700 0.78024
 C888 C 0.90026 0.40320 0.79998
 H889 H 0.94168 0.36616 0.79980
 H890 H 0.91586 0.41243 0.69949
 H891 H 0.87043 0.44725 0.72794
 H892 H 0.89722 0.40149 0.82831
 C893 C 0.08611 0.58157 0.72110
 C894 C 0.06143 0.60164 0.73905
 C895 C 0.06376 0.60518 0.77571
 C896 C 0.08909 0.58731 0.79448
 C897 C 0.11272 0.56561 0.77694
 C898 C 0.11184 0.56385 0.73995
 H899 H 0.08442 0.57830 0.69282
 H900 H 0.04484 0.62047 0.78995
 H901 H 0.08925 0.58925 0.82295
 H902 H 0.12956 0.54703 0.72585
 C903 C 0.07443 0.38797 0.22150
 C904 C 0.06809 0.39300 0.25750
 C905 C 0.08919 0.41602 0.27670
 C906 C 0.11504 0.43525 0.25955
 C907 C 0.11948 0.43209 0.22296
 C908 C 0.09975 0.40745 0.20437
 H909 H 0.05832 0.37044 0.20625
 H910 H 0.08433 0.42057 0.30442
 H911 H 0.12971 0.45442 0.27430
 H912 H 0.10277 0.40452 0.17615
   
