data_POSCAR
  _audit_creation_date              2014-09-24
  _audit_creation_method            'ToBaCCo'
  _symmetry_space_group_name_H-M    'P1'
  _symmetry_Int_Tables_number       1
  _symmetry_cell_setting            triclinic
  loop_
  _symmetry_equiv_pos_as_xyz
 x,y,z
_cell_length_a 52.2277
_cell_length_b 52.2881
_cell_length_c 52.0802
_cell_angle_alpha 90.008700
_cell_angle_beta 90.044000
_cell_angle_gamma 90.052200
loop_
  _atom_site_label
  _atom_site_type_symbol
  _atom_site_fract_x
  _atom_site_fract_y
  _atom_site_fract_z
N1 N 0.29501 0.24467 0.22429
 N2 N 0.28414 0.26412 0.21253
 C3 C 0.29807 0.27024 0.19164
 C4 C 0.31865 0.25384 0.19049
 C5 C 0.31623 0.23781 0.21135
 H6 H 0.29344 0.28517 0.17803
 H7 H 0.32866 0.22206 0.21641
 Cu8 Cu 0.25233 0.27876 0.22506
 Cu9 Cu 0.28025 0.22909 0.25487
 Cu10 Cu 0.22337 0.25491 0.27753
 N11 N 0.22052 0.29314 0.23788
 N12 N 0.20924 0.28374 0.25841
 C13 C 0.18744 0.29677 0.26277
 C14 C 0.18509 0.31518 0.24396
 C15 C 0.20623 0.31242 0.22845
 H16 H 0.17414 0.29294 0.27822
 H17 H 0.21065 0.32347 0.21145
 N18 N 0.24072 0.22574 0.29415
 N19 N 0.26240 0.21599 0.28550
 C20 C 0.26899 0.19591 0.30029
 C21 C 0.25065 0.19302 0.31903
 C22 C 0.23295 0.21207 0.31468
 H23 H 0.28553 0.18385 0.29731
 H24 H 0.21546 0.21531 0.32529
 H25 H 0.24260 0.23863 0.24689
 H26 H 0.26109 0.26125 0.26754
 N27 N 0.70414 -0.24500 0.22441
 N28 N 0.71432 -0.26515 0.21325
 C29 C 0.70030 -0.27130 0.19241
 C30 C 0.68040 -0.25413 0.19066
 C31 C 0.68329 -0.23764 0.21109
 H32 H 0.70454 -0.28667 0.17919
 H33 H 0.67149 -0.22125 0.21559
 Cu34 Cu 0.74558 -0.28077 0.22609
 Cu35 Cu 0.71932 -0.22928 0.25465
 Cu36 Cu 0.77600 -0.25533 0.27722
 N37 N 0.77792 -0.29441 0.23849
 N38 N 0.78977 -0.28444 0.25843
 C39 C 0.81189 -0.29709 0.26236
 C40 C 0.81381 -0.31587 0.24388
 C41 C 0.79211 -0.31374 0.22900
 H42 H 0.82568 -0.29271 0.27723
 H43 H 0.78728 -0.32511 0.21233
 N44 N 0.75907 -0.22588 0.29366
 N45 N 0.73744 -0.21599 0.28502
 C46 C 0.73114 -0.19571 0.29966
 C47 C 0.74962 -0.19285 0.31831
 C48 C 0.76709 -0.21212 0.31404
 H49 H 0.71470 -0.18351 0.29667
 H50 H 0.78461 -0.21542 0.32461
 H51 H 0.75659 -0.24002 0.24614
 H52 H 0.73806 -0.26142 0.26806
 N53 N 0.70494 0.24537 0.77393
 N54 N 0.71572 0.26505 0.78540
 C55 C 0.70188 0.27129 0.80631
 C56 C 0.68149 0.25463 0.80784
 C57 C 0.68390 0.23840 0.78713
 H58 H 0.70654 0.28640 0.81972
 H59 H 0.67162 0.22241 0.78238
 Cu60 Cu 0.74734 0.27979 0.77249
 Cu61 Cu 0.71967 0.22953 0.74345
 Cu62 Cu 0.77623 0.25563 0.72021
 N63 N 0.77894 0.29436 0.75940
 N64 N 0.79020 0.28485 0.73891
 C65 C 0.81196 0.29793 0.73439
 C66 C 0.81425 0.31652 0.75303
 C67 C 0.79316 0.31383 0.76863
 H68 H 0.82529 0.29395 0.71901
 H69 H 0.78875 0.32491 0.78561
 N70 N 0.75904 0.22609 0.70402
 N71 N 0.73748 0.21623 0.71288
 C72 C 0.73102 0.19587 0.69839
 C73 C 0.74931 0.19292 0.67962
 C74 C 0.76685 0.21222 0.68364
 H75 H 0.71462 0.18366 0.70163
 H76 H 0.78428 0.21547 0.67293
 H77 H 0.75725 0.23949 0.75113
 H78 H 0.73849 0.26168 0.73031
 N79 N 0.29534 -0.24522 0.77439
 N80 N 0.28512 -0.26546 0.78535
 C81 C 0.29903 -0.27169 0.80623
 C82 C 0.31891 -0.25448 0.80824
 C83 C 0.31610 -0.23790 0.78788
 H84 H 0.29475 -0.28716 0.81932
 H85 H 0.32793 -0.22147 0.78356
 Cu86 Cu 0.25398 -0.28113 0.77219
 Cu87 Cu 0.28031 -0.22930 0.74419
 Cu88 Cu 0.22375 -0.25530 0.72116
 N89 N 0.22173 -0.29476 0.75948
 N90 N 0.20994 -0.28461 0.73961
 C91 C 0.18781 -0.29726 0.73550
 C92 C 0.18585 -0.31621 0.75379
 C93 C 0.20750 -0.31419 0.76874
 H94 H 0.17404 -0.29274 0.72066
 H95 H 0.21226 -0.32568 0.78533
 N96 N 0.24071 -0.22566 0.70506
 N97 N 0.26232 -0.21583 0.71385
 C98 C 0.26872 -0.19546 0.69937
 C99 C 0.25032 -0.19248 0.68067
 C100 C 0.23279 -0.21177 0.68474
 H101 H 0.28519 -0.18331 0.70249
 H102 H 0.21535 -0.21504 0.67403
 H103 H 0.24306 -0.24027 0.75243
 H104 H 0.26170 -0.26144 0.73039
 N105 N 0.70980 -0.23676 0.77886
 N106 N 0.71789 -0.25828 0.78913
 C107 C 0.70361 -0.26356 0.81003
 C108 C 0.68578 -0.24434 0.81278
 C109 C 0.69013 -0.22763 0.79282
 H110 H 0.70608 -0.27996 0.82243
 H111 H 0.67992 -0.21008 0.78890
 Cu112 Cu 0.74663 -0.27689 0.77445
 Cu113 Cu 0.72563 -0.22184 0.74850
 Cu114 Cu 0.77659 -0.25485 0.72182
 N115 N 0.77542 -0.29516 0.75938
 N116 N 0.78683 -0.28644 0.73862
 C117 C 0.80668 -0.30174 0.73277
 C118 C 0.80765 -0.32098 0.75076
 C119 C 0.78773 -0.31634 0.76750
 H120 H 0.82002 -0.29855 0.71722
 H121 H 0.78316 -0.32703 0.78469
 N122 N 0.76350 -0.22256 0.70757
 N123 N 0.74415 -0.20991 0.71781
 C124 C 0.74039 -0.18821 0.70439
 C125 C 0.75819 -0.18734 0.68493
 C126 C 0.77257 -0.20923 0.68738
 H127 H 0.72616 -0.17383 0.70872
 H128 H 0.78876 -0.21470 0.67567
 H129 H 0.73875 -0.25584 0.73346
 H130 H 0.76146 -0.23753 0.75421
 N131 N 0.29020 0.23589 0.77901
 N132 N 0.28204 0.25732 0.78942
 C133 C 0.29641 0.26259 0.81027
 C134 C 0.31437 0.24345 0.81286
 C135 C 0.30999 0.22680 0.79284
 H136 H 0.29392 0.27891 0.82278
 H137 H 0.32027 0.20931 0.78880
 Cu138 Cu 0.25308 0.27578 0.77492
 Cu139 Cu 0.27425 0.22102 0.74866
 Cu140 Cu 0.22327 0.25419 0.72204
 N141 N 0.22448 0.29433 0.75981
 N142 N 0.21314 0.28579 0.73892
 C143 C 0.19343 0.30125 0.73299
 C144 C 0.19246 0.32043 0.75106
 C145 C 0.21226 0.31556 0.76792
 H146 H 0.18019 0.29825 0.71730
 H147 H 0.21680 0.32617 0.78516
 N148 N 0.23627 0.22187 0.70774
 N149 N 0.25561 0.20916 0.71797
 C150 C 0.25922 0.18741 0.70459
 C151 C 0.24137 0.18658 0.68515
 C152 C 0.22709 0.20855 0.68758
 H153 H 0.27336 0.17295 0.70895
 H154 H 0.21088 0.21405 0.67590
 H155 H 0.26109 0.25510 0.73376
 H156 H 0.23837 0.23658 0.75425
 N157 N 0.29090 -0.23634 0.22214
 N158 N 0.28268 -0.25789 0.21199
 C159 C 0.29689 -0.26333 0.19109
 C160 C 0.31480 -0.24416 0.18819
 C161 C 0.31057 -0.22734 0.20808
 H162 H 0.29429 -0.27975 0.17874
 H163 H 0.32083 -0.20976 0.21185
 Cu164 Cu 0.25377 -0.27621 0.22680
 Cu165 Cu 0.27518 -0.22121 0.25243
 Cu166 Cu 0.22425 -0.25409 0.27956
 N167 N 0.22521 -0.29460 0.24221
 N168 N 0.21394 -0.28583 0.26301
 C169 C 0.19414 -0.30115 0.26905
 C170 C 0.19302 -0.32048 0.25116
 C171 C 0.21285 -0.31587 0.23428
 H172 H 0.18089 -0.29790 0.28467
 H173 H 0.21727 -0.32661 0.21711
 N174 N 0.23744 -0.22167 0.29351
 N175 N 0.25677 -0.20907 0.28310
 C176 C 0.26054 -0.18723 0.29630
 C177 C 0.24280 -0.18622 0.31580
 C178 C 0.22841 -0.20816 0.31360
 H179 H 0.27473 -0.17284 0.29179
 H180 H 0.21224 -0.21354 0.32539
 H181 H 0.26201 -0.25516 0.26773
 H182 H 0.23922 -0.23683 0.24715
 N183 N 0.70929 0.23585 0.22265
 N184 N 0.71661 0.25799 0.21312
 C185 C 0.70238 0.26324 0.19218
 C186 C 0.68539 0.24337 0.18862
 C187 C 0.69018 0.22629 0.20816
 H188 H 0.70434 0.28007 0.18027
 H189 H 0.68065 0.20821 0.21143
 Cu190 Cu 0.74439 0.27759 0.22853
 Cu191 Cu 0.72535 0.22085 0.25278
 Cu192 Cu 0.77570 0.25431 0.28004
 N193 N 0.77357 0.29540 0.24352
 N194 N 0.78551 0.28626 0.26378
 C195 C 0.80552 0.30146 0.26948
 C196 C 0.80606 0.32110 0.25191
 C197 C 0.78569 0.31678 0.23559
 H198 H 0.81926 0.29795 0.28462
 H199 H 0.78069 0.32782 0.21876
 N200 N 0.76311 0.22166 0.29382
 N201 N 0.74398 0.20881 0.28336
 C202 C 0.74051 0.18689 0.29652
 C203 C 0.75827 0.18611 0.31605
 C204 C 0.77232 0.20827 0.31390
 H205 H 0.72648 0.17235 0.29199
 H206 H 0.78836 0.21390 0.32577
 H207 H 0.73768 0.25475 0.26885
 H208 H 0.76060 0.23796 0.24707
 C209 C 0.23241 0.00305 0.43154
 C210 C 0.23615 0.02535 0.44575
 C211 C 0.23628 0.02437 0.47264
 C212 C 0.23145 0.00110 0.48572
 C213 C 0.22708 -0.02111 0.47084
 C214 C 0.22823 -0.02017 0.44401
 C215 C 0.23126 -0.00007 0.51455
 C216 C 0.23600 -0.02330 0.52771
 C217 C 0.23551 -0.02428 0.55459
 C218 C 0.23149 -0.00201 0.56874
 C219 C 0.22736 0.02118 0.55620
 C220 C 0.22658 0.02211 0.52936
 H221 H 0.23300 0.00372 0.41072
 H222 H 0.24048 0.04178 0.48300
 H223 H 0.22279 -0.03928 0.47978
 H224 H 0.24042 -0.04069 0.51741
 H225 H 0.23180 -0.00268 0.58957
 H226 H 0.22231 0.04025 0.52036
 C227 C 0.76715 0.00130 0.56872
 C228 C 0.76334 0.02367 0.55466
 C229 C 0.76303 0.02283 0.52778
 C230 C 0.76778 -0.00034 0.51452
 C231 C 0.77223 -0.02263 0.52925
 C232 C 0.77126 -0.02184 0.55609
 C233 C 0.76797 -0.00130 0.48567
 C234 C 0.76336 -0.02446 0.47232
 C235 C 0.76394 -0.02524 0.44543
 C236 C 0.76791 -0.00284 0.43146
 C237 C 0.77192 0.02027 0.44419
 C238 C 0.77262 0.02101 0.47104
 H239 H 0.76676 0.00188 0.58955
 H240 H 0.75880 0.04031 0.51755
 H241 H 0.77652 -0.04072 0.52019
 H242 H 0.75902 -0.04196 0.48247
 H243 H 0.76772 -0.00336 0.41063
 H244 H 0.77685 0.03909 0.48018
 C245 C 0.43242 0.23565 0.00075
 C246 C 0.44613 0.23906 0.02348
 C247 C 0.47294 0.23921 0.02309
 C248 C 0.48653 0.23468 0.00003
 C249 C 0.47215 0.23057 -0.02266
 C250 C 0.44536 0.23178 -0.02235
 C251 C 0.51534 0.23476 -0.00042
 C252 C 0.52891 0.23945 -0.02345
 C253 C 0.55572 0.23945 -0.02385
 C254 C 0.56945 0.23603 -0.00113
 C255 C 0.55652 0.23200 0.02195
 C256 C 0.52973 0.23063 0.02225
 H257 H 0.41166 0.23629 0.00098
 H258 H 0.48284 0.24325 0.04085
 H259 H 0.48144 0.22652 -0.04075
 H260 H 0.51899 0.24349 -0.04120
 H261 H 0.59021 0.23678 -0.00136
 H262 H 0.52047 0.22645 0.04032
 C263 C 0.56849 0.76406 0.00108
 C264 C 0.55481 0.76070 0.02381
 C265 C 0.52801 0.76054 0.02344
 C266 C 0.51438 0.76502 0.00038
 C267 C 0.52872 0.76908 -0.02232
 C268 C 0.55551 0.76787 -0.02202
 C269 C 0.48555 0.76491 -0.00005
 C270 C 0.47193 0.76032 -0.02309
 C271 C 0.44512 0.76029 -0.02345
 C272 C 0.43144 0.76356 -0.00071
 C273 C 0.44442 0.76749 0.02237
 C274 C 0.47120 0.76890 0.02266
 H275 H 0.58925 0.76343 0.00131
 H276 H 0.51817 0.75651 0.04122
 H277 H 0.51943 0.77308 -0.04041
 H278 H 0.48179 0.75637 -0.04088
 H279 H 0.41068 0.76278 -0.00093
 H280 H 0.48048 0.77302 0.04074
 C281 C -0.00331 0.43228 0.23210
 C282 C 0.02002 0.44467 0.22826
 C283 C 0.02097 0.47141 0.22704
 C284 C -0.00132 0.48627 0.23113
 C285 C -0.02465 0.47321 0.23568
 C286 C -0.02565 0.44645 0.23550
 C287 C -0.00020 0.51503 0.23109
 C288 C -0.02249 0.52986 0.22693
 C289 C -0.02154 0.55661 0.22808
 C290 C 0.00177 0.56903 0.23195
 C291 C 0.02411 0.55487 0.23541
 C292 C 0.02312 0.52811 0.23563
 H293 H -0.00404 0.41155 0.23269
 H294 H 0.03922 0.48026 0.22293
 H295 H -0.04214 0.48348 0.23972
 H296 H -0.04073 0.52099 0.22281
 H297 H 0.00248 0.58977 0.23251
 H298 H 0.04062 0.51787 0.23972
 C299 C -0.00245 0.56900 0.76788
 C300 C 0.02087 0.55650 0.77120
 C301 C 0.02171 0.52975 0.77223
 C302 C -0.00073 0.51495 0.76846
 C303 C -0.02406 0.52817 0.76446
 C304 C -0.02491 0.55493 0.76484
 C305 C 0.00026 0.48614 0.76831
 C306 C -0.02219 0.47130 0.77182
 C307 C -0.02133 0.44456 0.77053
 C308 C 0.00200 0.43211 0.76723
 C309 C 0.02448 0.44622 0.76444
 C310 C 0.02362 0.47298 0.76430
 H311 H -0.00308 0.58975 0.76743
 H312 H 0.04001 0.52090 0.77596
 H313 H -0.04171 0.51808 0.76068
 H314 H -0.04050 0.48011 0.77553
 H315 H 0.00265 0.41138 0.76662
 H316 H 0.04128 0.48311 0.76070
 C317 C 0.40480 0.24642 0.08984
 C318 C 0.39539 0.27054 0.09776
 C319 C 0.37867 0.27223 0.11921
 C320 C 0.37148 0.24980 0.13264
 C321 C 0.38147 0.22576 0.12515
 C322 C 0.39820 0.22407 0.10370
 C323 C 0.40781 0.19980 0.09646
 C324 C 0.40105 0.17783 0.11000
 C325 C 0.38466 0.17950 0.13094
 C326 C 0.37492 0.20313 0.13852
 C327 C 0.36929 0.29652 0.12661
 C328 C 0.37628 0.31852 0.11322
 C329 C 0.39266 0.31687 0.09226
 C330 C 0.40215 0.29320 0.08453
 C331 C 0.35313 0.25133 0.15352
 C332 C 0.33756 0.25252 0.17055
 C333 C 0.42025 0.24439 0.06677
 C334 C 0.43243 0.24226 0.04723
 H335 H 0.42066 0.19755 0.08033
 H336 H 0.40854 0.15942 0.10419
 H337 H 0.37944 0.16239 0.14139
 H338 H 0.36228 0.20344 0.15498
 H339 H 0.35655 0.29879 0.14282
 H340 H 0.36893 0.33695 0.11914
 H341 H 0.39801 0.33403 0.08192
 H342 H 0.41488 0.29288 0.06814
 C343 C 0.59612 0.75347 0.09023
 C344 C 0.60264 0.77582 0.10415
 C345 C 0.61924 0.77413 0.12573
 C346 C 0.62920 0.75011 0.13326
 C347 C 0.62215 0.72767 0.11975
 C348 C 0.60555 0.72936 0.09818
 C349 C 0.59890 0.70671 0.08488
 C350 C 0.60837 0.68304 0.09267
 C351 C 0.62462 0.68138 0.11375
 C352 C 0.63150 0.70338 0.12721
 C353 C 0.62566 0.79677 0.13920
 C354 C 0.61593 0.82039 0.13160
 C355 C 0.59968 0.82204 0.11052
 C356 C 0.59306 0.80008 0.09688
 C357 C 0.64732 0.74857 0.15436
 C358 C 0.66272 0.74732 0.17157
 C359 C 0.58072 0.75548 0.06711
 C360 C 0.56854 0.75757 0.04755
 H361 H 0.58629 0.70703 0.06839
 H362 H 0.60308 0.66590 0.08229
 H363 H 0.63194 0.66296 0.11972
 H364 H 0.64417 0.70112 0.14350
 H365 H 0.63819 0.79645 0.15575
 H366 H 0.62102 0.83751 0.14213
 H367 H 0.59216 0.84043 0.10469
 H368 H 0.58032 0.80233 0.08064
 C369 C 0.59670 0.24691 -0.09041
 C370 C 0.60599 0.27105 -0.09845
 C371 C 0.62243 0.27277 -0.12012
 C372 C 0.62948 0.25035 -0.13360
 C373 C 0.61963 0.22629 -0.12598
 C374 C 0.60318 0.22457 -0.10432
 C375 C 0.59371 0.20028 -0.09694
 C376 C 0.60031 0.17832 -0.11056
 C377 C 0.61639 0.18002 -0.13174
 C378 C 0.62600 0.20367 -0.13945
 C379 C 0.63163 0.29710 -0.12768
 C380 C 0.62478 0.31909 -0.11423
 C381 C 0.60870 0.31741 -0.09304
 C382 C 0.59936 0.29371 -0.08515
 C383 C 0.64750 0.25193 -0.15476
 C384 C 0.66283 0.25321 -0.17200
 C385 C 0.58146 0.24487 -0.06721
 C386 C 0.56939 0.24271 -0.04761
 H387 H 0.58109 0.19799 -0.08063
 H388 H 0.59289 0.15990 -0.10466
 H389 H 0.62146 0.16291 -0.14225
 H390 H 0.63842 0.20401 -0.15606
 H391 H 0.64417 0.29940 -0.14406
 H392 H 0.63199 0.33753 -0.12030
 H393 H 0.60343 0.33456 -0.08267
 H394 H 0.58687 0.29337 -0.06859
 C395 C 0.40381 0.75308 -0.08989
 C396 C 0.39716 0.77546 -0.10366
 C397 C 0.38063 0.77378 -0.12529
 C398 C 0.37086 0.74971 -0.13303
 C399 C 0.37805 0.72725 -0.11967
 C400 C 0.39457 0.72894 -0.09803
 C401 C 0.40135 0.70625 -0.08488
 C402 C 0.39210 0.68255 -0.09289
 C403 C 0.37594 0.68089 -0.11405
 C404 C 0.36892 0.70292 -0.12735
 C405 C 0.37410 0.79644 -0.13863
 C406 C 0.38365 0.82010 -0.13084
 C407 C 0.39981 0.82175 -0.10969
 C408 C 0.40654 0.79976 -0.09618
 C409 C 0.35284 0.74816 -0.15422
 C410 C 0.33753 0.74694 -0.17151
 C411 C 0.41921 0.75506 -0.06675
 C412 C 0.43139 0.75714 -0.04720
 H413 H 0.41389 0.70658 -0.06833
 H414 H 0.39751 0.66538 -0.08263
 H415 H 0.36881 0.66243 -0.12020
 H416 H 0.35633 0.70065 -0.14371
 H417 H 0.36161 0.79613 -0.15522
 H418 H 0.37848 0.83724 -0.14127
 H419 H 0.40719 0.84017 -0.10372
 H420 H 0.41921 0.80202 -0.07988
 C421 C 0.08331 0.39864 0.22833
 C422 C 0.07892 0.37199 0.23053
 C423 C 0.09996 0.35499 0.23331
 C424 C 0.12527 0.36472 0.23382
 C425 C 0.12966 0.39132 0.23112
 C426 C 0.10861 0.40833 0.22837
 C427 C 0.11345 0.43485 0.22585
 C428 C 0.13840 0.44430 0.22599
 C429 C 0.15899 0.42767 0.22864
 C430 C 0.15478 0.40146 0.23121
 C431 C 0.09509 0.32845 0.23562
 C432 C 0.07014 0.31899 0.23521
 C433 C 0.04955 0.33559 0.23251
 C434 C 0.05377 0.36181 0.23020
 C435 C 0.14668 0.34736 0.23740
 C436 C 0.16428 0.33276 0.24045
 C437 C 0.06165 0.41599 0.22715
 C438 C 0.04304 0.42961 0.22706
 H439 H 0.09804 0.44851 0.22368
 H440 H 0.14179 0.46464 0.22398
 H441 H 0.17833 0.43509 0.22872
 H442 H 0.17140 0.38928 0.23323
 H443 H 0.11046 0.31475 0.23778
 H444 H 0.06678 0.29864 0.23699
 H445 H 0.03020 0.32812 0.23217
 H446 H 0.03712 0.37393 0.22808
 C447 C 0.08453 0.60212 0.77038
 C448 C 0.10972 0.59220 0.76983
 C449 C 0.13091 0.60904 0.76682
 C450 C 0.12675 0.63569 0.76435
 C451 C 0.10156 0.64565 0.76539
 C452 C 0.08040 0.62882 0.76845
 C453 C 0.05539 0.63923 0.76934
 C454 C 0.05141 0.66550 0.76727
 C455 C 0.07211 0.68194 0.76427
 C456 C 0.09693 0.67225 0.76332
 C457 C 0.15592 0.59867 0.76623
 C458 C 0.15989 0.57242 0.76854
 C459 C 0.13917 0.55596 0.77145
 C460 C 0.11433 0.56563 0.77210
 C461 C 0.14828 0.65288 0.76050
 C462 C 0.16599 0.66734 0.75728
 C463 C 0.06271 0.58495 0.77179
 C464 C 0.04399 0.57145 0.77209
 H465 H 0.03867 0.62724 0.77170
 H466 H 0.03216 0.67312 0.76801
 H467 H 0.06892 0.70233 0.76267
 H468 H 0.11240 0.68582 0.76096
 H469 H 0.17264 0.61071 0.76400
 H470 H 0.17915 0.56480 0.76807
 H471 H 0.14237 0.53558 0.77323
 H472 H 0.09881 0.55210 0.77445
 C473 C -0.08508 0.60229 0.22777
 C474 C -0.08095 0.62903 0.22908
 C475 C -0.10210 0.64588 0.23191
 C476 C -0.12727 0.63591 0.23336
 C477 C -0.13144 0.60920 0.23150
 C478 C -0.11027 0.59234 0.22870
 C479 C -0.11489 0.56572 0.22705
 C480 C -0.13972 0.55601 0.22811
 C481 C -0.16042 0.57249 0.23084
 C482 C -0.15644 0.59880 0.23253
 C483 C -0.09746 0.67253 0.23339
 C484 C -0.07264 0.68224 0.23209
 C485 C -0.05196 0.66578 0.22930
 C486 C -0.05595 0.63947 0.22781
 C487 C -0.14876 0.65313 0.23711
 C488 C -0.16642 0.66763 0.24032
 C489 C -0.06327 0.58512 0.22672
 C490 C -0.04458 0.57161 0.22675
 H491 H -0.09939 0.55217 0.22486
 H492 H -0.14292 0.53560 0.22680
 H493 H -0.17967 0.56485 0.23165
 H494 H -0.17314 0.61085 0.23463
 H495 H -0.11291 0.68612 0.23555
 H496 H -0.06945 0.70267 0.23324
 H497 H -0.03271 0.67342 0.22828
 H498 H -0.03924 0.62746 0.22560
 C499 C -0.08480 0.39870 0.76914
 C500 C -0.11008 0.40840 0.76944
 C501 C -0.13118 0.39146 0.76639
 C502 C -0.12684 0.36493 0.76307
 C503 C -0.10155 0.35519 0.76318
 C504 C -0.08047 0.37211 0.76628
 C505 C -0.05536 0.36191 0.76630
 C506 C -0.05120 0.33577 0.76333
 C507 C -0.07182 0.31924 0.76024
 C508 C -0.09674 0.32872 0.76014
 C509 C -0.15629 0.40160 0.76663
 C510 C -0.16043 0.42774 0.76984
 C511 C -0.13981 0.44430 0.77284
 C512 C -0.11487 0.43485 0.77263
 C513 C -0.14830 0.34765 0.75938
 C514 C -0.16597 0.33310 0.75632
 C515 C -0.06310 0.41600 0.77074
 C516 C -0.04444 0.42957 0.77121
 H517 H -0.03868 0.37398 0.76868
 H518 H -0.03188 0.32830 0.76343
 H519 H -0.06849 0.29894 0.75792
 H520 H -0.11214 0.31509 0.75767
 H521 H -0.17295 0.38949 0.76437
 H522 H -0.17977 0.43517 0.77002
 H523 H -0.14315 0.46459 0.77534
 H524 H -0.09942 0.44846 0.77506
 C525 C 0.24470 0.09047 0.40305
 C526 C 0.25022 0.08697 0.37666
 C527 C 0.25159 0.10847 0.36003
 C528 C 0.24741 0.13338 0.36986
 C529 C 0.24215 0.13690 0.39630
 C530 C 0.24081 0.11537 0.41295
 C531 C 0.23546 0.11934 0.43927
 C532 C 0.23155 0.14389 0.44891
 C533 C 0.23283 0.16493 0.43264
 C534 C 0.23806 0.16159 0.40662
 C535 C 0.25704 0.10443 0.33371
 C536 C 0.26101 0.07988 0.32410
 C537 C 0.25967 0.05886 0.34036
 C538 C 0.25434 0.06225 0.36634
 C539 C 0.24834 0.15520 0.35261
 C540 C 0.24926 0.17277 0.33763
 C541 C 0.24218 0.06827 0.41962
 C542 C 0.23970 0.04912 0.43227
 H543 H 0.23430 0.10356 0.45266
 H544 H 0.22748 0.14659 0.46912
 H545 H 0.22975 0.18395 0.44022
 H546 H 0.23887 0.17853 0.39471
 H547 H 0.25830 0.12016 0.32027
 H548 H 0.26514 0.07716 0.30393
 H549 H 0.26277 0.03982 0.33280
 H550 H 0.25355 0.04528 0.37819
 C551 C 0.75620 0.08896 0.59737
 C552 C 0.75701 0.08582 0.62437
 C553 C 0.75571 0.10757 0.64069
 C554 C 0.75357 0.13236 0.62994
 C555 C 0.75270 0.13549 0.60293
 C556 C 0.75402 0.11372 0.58660
 C557 C 0.75317 0.11732 0.55969
 C558 C 0.75105 0.14173 0.54918
 C559 C 0.74975 0.16301 0.56513
 C560 C 0.75056 0.16003 0.59172
 C561 C 0.75663 0.10391 0.66762
 C562 C 0.75877 0.07950 0.67812
 C563 C 0.76003 0.05824 0.66217
 C564 C 0.75917 0.06125 0.63561
 C565 C 0.75219 0.15448 0.64678
 C566 C 0.75096 0.17232 0.66142
 C567 C 0.75810 0.06664 0.58088
 C568 C 0.76015 0.04742 0.56825
 H569 H 0.75412 0.10134 0.54652
 H570 H 0.75042 0.14415 0.52854
 H571 H 0.74812 0.18193 0.55687
 H572 H 0.74951 0.17715 0.60335
 H573 H 0.75573 0.11983 0.68086
 H574 H 0.75946 0.07707 0.69875
 H575 H 0.76169 0.03931 0.67041
 H576 H 0.76022 0.04409 0.62404
 C577 C 0.24377 -0.08941 0.59732
 C578 C 0.24115 -0.11436 0.58711
 C579 C 0.24255 -0.13596 0.60366
 C580 C 0.24658 -0.13246 0.63033
 C581 C 0.24945 -0.10749 0.64050
 C582 C 0.24805 -0.08592 0.62396
 C583 C 0.25089 -0.06115 0.63461
 C584 C 0.25501 -0.05779 0.66082
 C585 C 0.25640 -0.07888 0.67699
 C586 C 0.25366 -0.10347 0.66706
 C587 C 0.23979 -0.16070 0.59301
 C588 C 0.23579 -0.16402 0.56675
 C589 C 0.23442 -0.14291 0.55058
 C590 C 0.23705 -0.11831 0.56055
 C591 C 0.24770 -0.15439 0.64744
 C592 C 0.24877 -0.17206 0.66228
 C593 C 0.24137 -0.06719 0.58077
 C594 C 0.23898 -0.04803 0.56811
 H595 H 0.24999 -0.04413 0.62285
 H596 H 0.25715 -0.03872 0.66863
 H597 H 0.25961 -0.07617 0.69734
 H598 H 0.25488 -0.11925 0.68044
 H599 H 0.24071 -0.17769 0.60482
 H600 H 0.23373 -0.18308 0.55891
 H601 H 0.23130 -0.14560 0.53020
 H602 H 0.23587 -0.10247 0.54723
 C603 C 0.75719 -0.09014 0.40207
 C604 C 0.75327 -0.11487 0.41237
 C605 C 0.75184 -0.13639 0.39571
 C606 C 0.75437 -0.13303 0.36884
 C607 C 0.75836 -0.10827 0.35855
 C608 C 0.75976 -0.08678 0.37520
 C609 C 0.76377 -0.06222 0.36443
 C610 C 0.76633 -0.05900 0.33800
 C611 C 0.76496 -0.08002 0.32174
 C612 C 0.76102 -0.10440 0.33177
 C613 C 0.74790 -0.16092 0.40646
 C614 C 0.74547 -0.16412 0.43291
 C615 C 0.74689 -0.14310 0.44920
 C616 C 0.75074 -0.11870 0.43914
 C617 C 0.75276 -0.15487 0.35165
 C618 C 0.75139 -0.17249 0.33675
 C619 C 0.75893 -0.06804 0.41889
 C620 C 0.76087 -0.04894 0.43173
 H621 H 0.76497 -0.04525 0.37625
 H622 H 0.76939 -0.04008 0.33011
 H623 H 0.76696 -0.07742 0.30122
 H624 H 0.76012 -0.12013 0.31831
 H625 H 0.74667 -0.17785 0.39456
 H626 H 0.74247 -0.18303 0.44082
 H627 H 0.74500 -0.14570 0.46973
 H628 H 0.75171 -0.10291 0.45255
 C629 C 0.59879 0.76622 -0.08745
 C630 C 0.60665 0.78852 -0.10069
 C631 C 0.62380 0.78653 -0.12179
 C632 C 0.63298 0.76224 -0.12952
 C633 C 0.62461 0.73988 -0.11669
 C634 C 0.60746 0.74187 -0.09561
 C635 C 0.59949 0.71923 -0.08300
 C636 C 0.60820 0.69535 -0.09099
 C637 C 0.62497 0.69341 -0.11160
 C638 C 0.63315 0.71535 -0.12437
 C639 C 0.63150 0.80911 -0.13464
 C640 C 0.62250 0.83297 -0.12687
 C641 C 0.60574 0.83490 -0.10624
 C642 C 0.59785 0.81299 -0.09321
 C643 C 0.65148 0.76020 -0.15024
 C644 C 0.66705 0.75820 -0.16720
 C645 C 0.58266 0.76818 -0.06483
 C646 C 0.56988 0.76875 -0.04556
 H647 H 0.58642 0.71972 -0.06691
 H648 H 0.60188 0.67825 -0.08114
 H649 H 0.63168 0.67481 -0.11773
 H650 H 0.64617 0.71284 -0.14031
 H651 H 0.64448 0.80856 -0.15081
 H652 H 0.62857 0.85005 -0.13691
 H653 H 0.59880 0.85348 -0.10029
 H654 H 0.58475 0.81543 -0.07731
 C655 C 0.40188 0.23324 -0.08771
 C656 C 0.39321 0.25756 -0.09593
 C657 C 0.37596 0.25949 -0.11696
 C658 C 0.36750 0.23710 -0.12968
 C659 C 0.37668 0.21283 -0.12190
 C660 C 0.39393 0.21090 -0.10084
 C661 C 0.40271 0.18644 -0.09329
 C662 C 0.39472 0.16449 -0.10620
 C663 C 0.37788 0.16636 -0.12679
 C664 C 0.36889 0.19021 -0.13463
 C665 C 0.36742 0.28401 -0.12469
 C666 C 0.37568 0.30598 -0.11200
 C667 C 0.39253 0.30411 -0.09144
 C668 C 0.40125 0.28023 -0.08341
 C669 C 0.34890 0.23907 -0.15034
 C670 C 0.33323 0.24099 -0.16724
 C671 C 0.41809 0.23134 -0.06512
 C672 C 0.43093 0.23083 -0.04588
 H673 H 0.41587 0.18404 -0.07740
 H674 H 0.40165 0.14592 -0.10019
 H675 H 0.37173 0.14925 -0.13675
 H676 H 0.35583 0.19071 -0.15076
 H677 H 0.35432 0.28647 -0.14060
 H678 H 0.36895 0.32457 -0.11817
 H679 H 0.39890 0.32124 -0.08165
 H680 H 0.41439 0.27979 -0.06734
 C681 C 0.40122 0.76593 0.08787
 C682 C 0.39357 0.78825 0.10116
 C683 C 0.37653 0.78633 0.12237
 C684 C 0.36725 0.76207 0.13014
 C685 C 0.37539 0.73969 0.11723
 C686 C 0.39243 0.74162 0.09605
 C687 C 0.40018 0.71895 0.08336
 C688 C 0.39136 0.69510 0.09137
 C689 C 0.37470 0.69322 0.11207
 C690 C 0.36674 0.71519 0.12492
 C691 C 0.36904 0.80893 0.13528
 C692 C 0.37814 0.83276 0.12747
 C693 C 0.39479 0.83463 0.10674
 C694 C 0.40247 0.81269 0.09366
 C695 C 0.34889 0.76012 0.15100
 C696 C 0.33342 0.75823 0.16807
 C697 C 0.41731 0.76783 0.06521
 C698 C 0.43005 0.76837 0.04592
 H699 H 0.41315 0.71939 0.06718
 H700 H 0.39750 0.67797 0.08146
 H701 H 0.36790 0.67464 0.11823
 H702 H 0.35379 0.71273 0.14094
 H703 H 0.35615 0.80843 0.15152
 H704 H 0.37224 0.84986 0.13758
 H705 H 0.40180 0.85318 0.10077
 H706 H 0.41548 0.81509 0.07767
 C707 C 0.59971 0.23319 0.08754
 C708 C 0.60830 0.25748 0.09599
 C709 C 0.62524 0.25933 0.11728
 C710 C 0.63349 0.23689 0.13003
 C711 C 0.62445 0.21264 0.12195
 C712 C 0.60751 0.21079 0.10063
 C713 C 0.59884 0.18635 0.09282
 C714 C 0.60665 0.16435 0.10572
 C715 C 0.62321 0.16616 0.12656
 C716 C 0.63209 0.18997 0.13465
 C717 C 0.63369 0.28382 0.12525
 C718 C 0.62561 0.30585 0.11258
 C719 C 0.60904 0.30405 0.09177
 C720 C 0.60044 0.28021 0.08348
 C721 C 0.65166 0.23881 0.15108
 C722 C 0.66696 0.24076 0.16831
 C723 C 0.58367 0.23139 0.06481
 C724 C 0.57093 0.23097 0.04550
 H725 H 0.58591 0.18401 0.07673
 H726 H 0.59981 0.14579 0.09953
 H727 H 0.62922 0.14901 0.13651
 H728 H 0.64493 0.19042 0.15097
 H729 H 0.64657 0.28622 0.14136
 H730 H 0.63225 0.32441 0.11894
 H731 H 0.60281 0.32123 0.08199
 H732 H 0.58753 0.27983 0.06723
 C733 C -0.09042 0.59726 0.75870
 C734 C -0.08710 0.62402 0.75609
 C735 C -0.10882 0.64031 0.75495
 C736 C -0.13377 0.62975 0.75638
 C737 C -0.13710 0.60300 0.75894
 C738 C -0.11534 0.58669 0.76009
 C739 C -0.11912 0.56002 0.76265
 C740 C -0.14371 0.54973 0.76402
 C741 C -0.16497 0.56567 0.76290
 C742 C -0.16182 0.59202 0.76039
 C743 C -0.10499 0.66701 0.75238
 C744 C -0.08042 0.67731 0.75097
 C745 C -0.05918 0.66138 0.75207
 C746 C -0.06236 0.63505 0.75460
 C747 C -0.15583 0.64655 0.75485
 C748 C -0.17342 0.66138 0.75318
 C749 C -0.06807 0.58089 0.76044
 C750 C -0.04878 0.56838 0.76220
 H751 H -0.10315 0.54688 0.76358
 H752 H -0.14626 0.52928 0.76597
 H753 H -0.18403 0.55758 0.76398
 H754 H -0.17892 0.60366 0.75962
 H755 H -0.12089 0.68023 0.75145
 H756 H -0.07786 0.69776 0.74901
 H757 H -0.04012 0.66946 0.75096
 H758 H -0.04521 0.62349 0.75534
 C759 C -0.09116 0.40419 0.24285
 C760 C -0.11609 0.41478 0.24240
 C761 C -0.13783 0.39845 0.24391
 C762 C -0.13448 0.37165 0.24588
 C763 C -0.10952 0.36108 0.24634
 C764 C -0.08781 0.37739 0.24484
 C765 C -0.06305 0.36634 0.24529
 C766 C -0.05985 0.33996 0.24717
 C767 C -0.08109 0.32402 0.24865
 C768 C -0.10567 0.33434 0.24826
 C769 C -0.16256 0.40944 0.24337
 C770 C -0.16574 0.43583 0.24138
 C771 C -0.14450 0.45180 0.23991
 C772 C -0.11990 0.44149 0.24041
 C773 C -0.15652 0.35479 0.24763
 C774 C -0.17407 0.33991 0.24937
 C775 C -0.06882 0.42059 0.24075
 C776 C -0.04953 0.43308 0.23864
 H777 H -0.04591 0.37791 0.24420
 H778 H -0.04078 0.33186 0.24748
 H779 H -0.07852 0.30354 0.25009
 H780 H -0.12155 0.32110 0.24943
 H781 H -0.17966 0.39777 0.24444
 H782 H -0.18481 0.44392 0.24097
 H783 H -0.14708 0.47228 0.23837
 H784 H -0.10394 0.45466 0.23921
 C785 C 0.08994 0.40380 0.75857
 C786 C 0.08652 0.37699 0.75667
 C787 C 0.10819 0.36063 0.75559
 C788 C 0.13318 0.37116 0.75638
 C789 C 0.13660 0.39796 0.75824
 C790 C 0.11490 0.41434 0.75933
 C791 C 0.11877 0.44106 0.76119
 C792 C 0.14339 0.45133 0.76195
 C793 C 0.16461 0.43531 0.76089
 C794 C 0.16136 0.40891 0.75905
 C795 C 0.10426 0.33388 0.75375
 C796 C 0.07964 0.32361 0.75299
 C797 C 0.05845 0.33961 0.75402
 C798 C 0.06173 0.36599 0.75583
 C799 C 0.15517 0.35425 0.75496
 C800 C 0.17267 0.33930 0.75343
 C801 C 0.06764 0.42026 0.76019
 C802 C 0.04836 0.43279 0.76187
 H803 H 0.10284 0.45426 0.76205
 H804 H 0.14602 0.47182 0.76337
 H805 H 0.18369 0.44339 0.76148
 H806 H 0.17842 0.39721 0.75830
 H807 H 0.12011 0.32061 0.75291
 H808 H 0.07701 0.30313 0.75158
 H809 H 0.03936 0.33155 0.75341
 H810 H 0.04461 0.37760 0.75655
 C811 C 0.08976 0.59692 0.24278
 C812 C 0.11464 0.58628 0.24159
 C813 C 0.13646 0.60250 0.24303
 C814 C 0.13325 0.62926 0.24567
 C815 C 0.10835 0.63989 0.24693
 C816 C 0.08655 0.62368 0.24549
 C817 C 0.06185 0.63479 0.24675
 C818 C 0.05878 0.66112 0.24936
 C819 C 0.08010 0.67696 0.25078
 C820 C 0.10463 0.66659 0.24960
 C821 C 0.16114 0.59145 0.24176
 C822 C 0.16418 0.56510 0.23913
 C823 C 0.14285 0.54923 0.23772
 C824 C 0.11830 0.55960 0.23892
 C825 C 0.15539 0.64602 0.24724
 C826 C 0.17302 0.66082 0.24882
 C827 C 0.06733 0.58064 0.24066
 C828 C 0.04800 0.56822 0.23854
 H829 H 0.04464 0.62329 0.24575
 H830 H 0.03976 0.66926 0.25029
 H831 H 0.07763 0.69742 0.25281
 H832 H 0.12058 0.67974 0.25078
 H833 H 0.17829 0.60303 0.24276
 H834 H 0.18320 0.55695 0.23818
 H835 H 0.14532 0.52878 0.23568
 H836 H 0.10228 0.54652 0.23775
 C837 C 0.77364 -0.08562 0.60137
 C838 C 0.77100 -0.11059 0.59121
 C839 C 0.76867 -0.13184 0.60808
 C840 C 0.76898 -0.12795 0.63498
 C841 C 0.77231 -0.10304 0.64513
 C842 C 0.77467 -0.08181 0.62826
 C843 C 0.77782 -0.05706 0.63885
 C844 C 0.77863 -0.05338 0.66533
 C845 C 0.77632 -0.07414 0.68183
 C846 C 0.77317 -0.09872 0.67196
 C847 C 0.76590 -0.15661 0.59749
 C848 C 0.76546 -0.16029 0.57098
 C849 C 0.76772 -0.13951 0.55449
 C850 C 0.77045 -0.11489 0.56438
 C851 C 0.76532 -0.14940 0.65228
 C852 C 0.76209 -0.16688 0.66700
 C853 C 0.77391 -0.06367 0.58435
 C854 C 0.77325 -0.04489 0.57097
 H855 H 0.77977 -0.04030 0.62681
 H856 H 0.78108 -0.03433 0.67309
 H857 H 0.77696 -0.07119 0.70239
 H858 H 0.77148 -0.11425 0.68558
 H859 H 0.76409 -0.17337 0.60955
 H860 H 0.76336 -0.17937 0.56320
 H861 H 0.76738 -0.14247 0.53392
 H862 H 0.77221 -0.09931 0.55081
 C863 C 0.22730 -0.08366 0.39830
 C864 C 0.22431 -0.10875 0.40804
 C865 C 0.22678 -0.13009 0.39132
 C866 C 0.23226 -0.12618 0.36498
 C867 C 0.23477 -0.10106 0.35516
 C868 C 0.23226 -0.07973 0.37186
 C869 C 0.23500 -0.05478 0.36163
 C870 C 0.24006 -0.05102 0.33564
 C871 C 0.24252 -0.07189 0.31930
 C872 C 0.23992 -0.09665 0.32883
 C873 C 0.22382 -0.15501 0.40149
 C874 C 0.21858 -0.15873 0.42746
 C875 C 0.21622 -0.13785 0.44382
 C876 C 0.21904 -0.11309 0.43433
 C877 C 0.23577 -0.14790 0.34801
 C878 C 0.23893 -0.16558 0.33351
 C879 C 0.22640 -0.06185 0.41547
 C880 C 0.22662 -0.04316 0.42899
 H881 H 0.23322 -0.03792 0.37354
 H882 H 0.24210 -0.03181 0.32814
 H883 H 0.24646 -0.06888 0.29912
 H884 H 0.24199 -0.11225 0.31534
 H885 H 0.22548 -0.17184 0.38951
 H886 H 0.21636 -0.17791 0.43494
 H887 H 0.21217 -0.14084 0.46398
 H888 H 0.21699 -0.09744 0.44776
 C889 C 0.77446 0.08434 0.39934
 C890 C 0.77698 0.08086 0.37250
 C891 C 0.77453 0.10213 0.35572
 C892 C 0.76960 0.12675 0.36589
 C893 C 0.76782 0.13035 0.39278
 C894 C 0.77027 0.10905 0.40956
 C895 C 0.76822 0.11304 0.43636
 C896 C 0.76390 0.13740 0.44631
 C897 C 0.76150 0.15823 0.42989
 C898 C 0.76341 0.15486 0.40341
 C899 C 0.77690 0.09814 0.32893
 C900 C 0.78156 0.07383 0.31903
 C901 C 0.78394 0.05302 0.33544
 C902 C 0.78169 0.05638 0.36188
 C903 C 0.76573 0.14817 0.34860
 C904 C 0.76234 0.16563 0.33391
 C905 C 0.77470 0.06224 0.41616
 C906 C 0.77400 0.04338 0.42940
 H907 H 0.77001 0.09742 0.44988
 H908 H 0.76240 0.14012 0.46686
 H909 H 0.75815 0.17711 0.43772
 H910 H 0.76144 0.17164 0.39141
 H911 H 0.77521 0.11373 0.31537
 H912 H 0.78333 0.07114 0.29850
 H913 H 0.78756 0.03417 0.32766
 H914 H 0.78376 0.03960 0.37387
 C915 C 0.22548 0.08460 0.60197
 C916 C 0.22884 0.08050 0.62864
 C917 C 0.23132 0.10173 0.64548
 C918 C 0.23037 0.12693 0.63556
 C919 C 0.22641 0.13102 0.60897
 C920 C 0.22398 0.10977 0.59211
 C921 C 0.22026 0.11428 0.56558
 C922 C 0.21894 0.13912 0.55597
 C923 C 0.22129 0.15990 0.57245
 C924 C 0.22499 0.15602 0.59867
 C925 C 0.23491 0.09715 0.67204
 C926 C 0.23600 0.07231 0.68167
 C927 C 0.23354 0.05155 0.66520
 C928 C 0.23000 0.05548 0.63898
 C929 C 0.23402 0.14851 0.65269
 C930 C 0.23731 0.16608 0.66731
 C931 C 0.22490 0.06283 0.58472
 C932 C 0.22541 0.04415 0.57120
 H933 H 0.21827 0.09870 0.55204
 H934 H 0.21607 0.14224 0.53562
 H935 H 0.22025 0.17915 0.56489
 H936 H 0.22670 0.17278 0.61075
 H937 H 0.23691 0.11267 0.68565
 H938 H 0.23876 0.06917 0.70202
 H939 H 0.23438 0.03228 0.67277
 H940 H 0.22814 0.03869 0.62697
   
