data_POSCAR
  _audit_creation_date              2014-09-24
  _audit_creation_method            'ToBaCCo'
  _symmetry_space_group_name_H-M    'P1'
  _symmetry_Int_Tables_number       1
  _symmetry_cell_setting            triclinic
  loop_
  _symmetry_equiv_pos_as_xyz
 x,y,z
_cell_length_a 40.3667
_cell_length_b 30.1450
_cell_length_c 15.3673
_cell_angle_alpha 86.978200
_cell_angle_beta 90.396000
_cell_angle_gamma 89.952400
loop_
  _atom_site_label
  _atom_site_type_symbol
  _atom_site_fract_x
  _atom_site_fract_y
  _atom_site_fract_z
C1 C 0.20968 0.23385 0.25163
 C2 C 0.21105 0.27545 0.29103
 C3 C 0.24159 0.29209 0.31790
 C4 C 0.27100 0.26891 0.30626
 C5 C 0.27059 0.22907 0.26086
 C6 C 0.23976 0.21195 0.23493
 H7 H 0.23919 0.18062 0.20347
 H8 H 0.24238 0.32306 0.35076
 C9 C 0.77568 0.27428 0.21689
 C10 C 0.77133 0.23740 0.16355
 C11 C 0.74062 0.21585 0.16156
 C12 C 0.71403 0.22918 0.21204
 C13 C 0.71820 0.26531 0.26562
 C14 C 0.74848 0.28814 0.26576
 H15 H 0.75130 0.31543 0.30845
 H16 H 0.73740 0.18808 0.12018
 C17 C 0.72778 0.72615 0.68066
 C18 C 0.72765 0.76380 0.62269
 C19 C 0.75489 0.79255 0.62038
 C20 C 0.78230 0.78657 0.67808
 C21 C 0.78283 0.74670 0.73307
 C22 C 0.75583 0.71736 0.73262
 H23 H 0.75606 0.68796 0.77658
 H24 H 0.75414 0.82023 0.57258
 C25 C 0.27637 0.76476 0.72378
 C26 C 0.28387 0.72374 0.76835
 C27 C 0.26120 0.70499 0.82813
 C28 C 0.23154 0.72699 0.84691
 C29 C 0.22586 0.77044 0.80870
 C30 C 0.24786 0.78814 0.74563
 H31 H 0.24342 0.82095 0.71546
 H32 H 0.26660 0.67259 0.85898
 O33 O 0.97659 0.00463 -0.19499
 O34 O 1.03480 0.06809 -0.06450
 O35 O 1.03869 -0.00708 -0.13985
 O36 O 0.97376 0.07850 -0.11677
 O37 O 0.95435 0.03975 -0.00243
 O38 O 1.02250 -0.03946 -0.01519
 O39 O 1.01427 0.03572 0.05564
 O40 O 0.96150 -0.03478 -0.07657
 Cu41 Cu 1.00784 0.03922 -0.14165
 Cu42 Cu 0.98647 -0.00373 0.00193
 C43 C 0.95877 -0.02529 -0.15777
 C44 C 1.03377 0.06361 0.01809
 C45 C 1.04250 -0.03665 -0.07848
 C46 C 0.95270 0.07327 -0.05583
 O47 O 0.53601 0.52381 0.55169
 O48 O 0.46735 0.44998 0.49114
 O49 O 0.47207 0.52949 0.55162
 O50 O 0.53220 0.44536 0.48886
 O51 O 0.53304 0.41685 0.62404
 O52 O 0.46992 0.49773 0.68451
 O53 O 0.46867 0.41828 0.62389
 O54 O 0.53365 0.49516 0.68671
 Cu55 Cu 0.50181 0.48996 0.50703
 Cu56 Cu 0.50113 0.45376 0.66802
 C57 C 0.54596 0.52264 0.63049
 C58 C 0.45673 0.42100 0.54724
 C59 C 0.46120 0.52823 0.62897
 C60 C 0.54346 0.41728 0.54615
 O61 O 0.03064 0.56815 0.04148
 O62 O -0.03369 0.48459 0.08715
 O63 O -0.03404 0.56700 0.02027
 O64 O 0.02885 0.48802 0.11012
 O65 O 0.01955 0.51111 0.24176
 O66 O -0.03869 0.59496 0.14934
 O67 O -0.04311 0.51191 0.21537
 O68 O 0.02660 0.58956 0.17634
 Cu69 Cu -0.00176 0.52499 0.05090
 Cu70 Cu -0.01024 0.55539 0.20802
 C71 C 0.04106 0.59097 0.10304
 C72 C -0.04852 0.48304 0.15969
 C73 C -0.04680 0.59491 0.06940
 C74 C 0.03453 0.48561 0.19179
 O75 O 0.52078 0.99739 0.24369
 O76 O 0.45764 0.91756 0.32344
 O77 O 0.45728 0.99840 0.25502
 O78 O 0.52234 0.91548 0.30747
 O79 O 0.52651 0.93880 0.44069
 O80 O 0.46388 1.02491 0.38553
 O81 O 0.46157 0.94396 0.45426
 O82 O 0.52750 1.02036 0.37672
 Cu83 Cu 0.48903 0.95426 0.26948
 Cu84 Cu 0.49528 0.98406 0.42801
 C85 C 0.53471 1.02280 0.29628
 C86 C 0.44821 0.91788 0.40208
 C87 C 0.45032 1.02656 0.31060
 C88 C 0.53584 0.91318 0.38248
 C89 C 1.14475 0.16820 0.14245
 C90 C 1.12022 0.16800 0.20405
 C91 C 1.12345 0.18945 0.28140
 C92 C 1.15317 0.21204 0.29596
 C93 C 1.17927 0.21264 0.23389
 C94 C 1.17479 0.18970 0.15626
 O95 O 1.13658 0.14606 0.07302
 C96 C 1.10634 0.13128 0.09160
 C97 C 1.09530 0.14343 0.17141
 C98 C 1.06475 0.13023 0.20510
 C99 C 1.04475 0.10343 0.15433
 C100 C 1.05531 0.09119 0.07105
 C101 C 1.08655 0.10553 0.03923
 H102 H 1.10389 0.18850 0.32931
 H103 H 1.15632 0.22725 0.35770
 H104 H 1.19375 0.18954 0.10676
 H105 H 1.05672 0.13990 0.26844
 H106 H 1.02087 0.09272 0.17929
 H107 H 1.09540 0.09627 -0.02367
 C108 C 0.65647 0.64831 0.63860
 C109 C 0.64460 0.64131 0.72186
 C110 C 0.65834 0.66115 0.79326
 C111 C 0.68550 0.68940 0.77827
 C112 C 0.69842 0.69703 0.69316
 C113 C 0.68371 0.67596 0.62236
 O114 O 0.63990 0.62592 0.58019
 C115 C 0.61713 0.60425 0.62776
 C116 C 0.61911 0.61242 0.71487
 C117 C 0.59832 0.59240 0.77691
 C118 C 0.57446 0.56270 0.74807
 C119 C 0.57160 0.55388 0.65844
 C120 C 0.59323 0.57522 0.59735
 H121 H 0.64854 0.65505 0.85818
 H122 H 0.69655 0.70538 0.83288
 H123 H 0.69355 0.68021 0.55718
 H124 H 0.60052 0.59921 0.84516
 H125 H 0.55801 0.54688 0.79560
 H126 H 0.59183 0.56896 0.52869
 C127 C -0.16136 0.36450 0.22159
 C128 C -0.13277 0.33970 0.22303
 C129 C -0.13269 0.29363 0.22885
 C130 C -0.16338 0.27205 0.23098
 C131 C -0.19359 0.29648 0.22430
 C132 C -0.19228 0.34367 0.22339
 O133 O -0.15581 0.40798 0.21252
 C134 C -0.12300 0.41054 0.20770
 C135 C -0.10783 0.36955 0.21345
 C136 C -0.07393 0.36392 0.20385
 C137 C -0.05481 0.40211 0.18714
 C138 C -0.06972 0.44472 0.18153
 C139 C -0.10425 0.44923 0.19295
 H140 H -0.10979 0.27490 0.23091
 H141 H -0.16348 0.23618 0.23824
 H142 H -0.21454 0.36372 0.21797
 H143 H -0.06270 0.33125 0.20693
 H144 H -0.02837 0.39861 0.17790
 H145 H -0.11616 0.48146 0.18712
 C146 C 0.34013 0.83558 0.60465
 C147 C 0.34461 0.81173 0.53166
 C148 C 0.32645 0.77378 0.51575
 C149 C 0.30309 0.75947 0.57832
 C150 C 0.29827 0.78332 0.65432
 C151 C 0.31664 0.82236 0.66693
 O152 O 0.36082 0.86960 0.60901
 C153 C 0.37869 0.86723 0.53720
 C154 C 0.36969 0.83253 0.48746
 C155 C 0.38539 0.82375 0.40995
 C156 C 0.41128 0.85206 0.38228
 C157 C 0.42120 0.88799 0.43268
 C158 C 0.40460 0.89545 0.51150
 H159 H 0.33064 0.75531 0.45833
 H160 H 0.28926 0.72930 0.56890
 H161 H 0.31379 0.84052 0.72537
 H162 H 0.37794 0.79613 0.37206
 H163 H 0.42372 0.84580 0.32193
 H164 H 0.41142 0.92264 0.55131
 C165 C -0.14716 0.68499 -0.15234
 C166 C -0.14342 0.70881 -0.07894
 C167 C -0.16272 0.74594 -0.06364
 C168 C -0.18684 0.75886 -0.12648
 C169 C -0.19092 0.73471 -0.20251
 C170 C -0.17091 0.69716 -0.21520
 O171 O -0.12699 0.65031 -0.15394
 C172 C -0.11014 0.65207 -0.07984
 C173 C -0.11924 0.68713 -0.03136
 C174 C -0.10537 0.69421 0.04984
 C175 C -0.08130 0.66383 0.08240
 C176 C -0.07150 0.62737 0.03346
 C177 C -0.08610 0.62179 -0.04923
 H178 H -0.15952 0.76403 -0.00519
 H179 H -0.20243 0.78733 -0.11611
 H180 H -0.17396 0.67793 -0.27228
 H181 H -0.11304 0.72184 0.08716
 H182 H -0.07039 0.66868 0.14577
 H183 H -0.07952 0.59415 -0.08795
 C184 C 0.33342 1.13886 0.25605
 C185 C 0.36109 1.16344 0.23406
 C186 C 0.35994 1.20874 0.21313
 C187 C 0.32918 1.22994 0.21764
 C188 C 0.30024 1.20600 0.24420
 C189 C 0.30238 1.15920 0.25982
 O190 O 0.34034 1.09671 0.27880
 C191 C 0.37307 1.09478 0.27119
 C192 C 0.38692 1.13480 0.24393
 C193 C 0.42093 1.14116 0.23649
 C194 C 0.44154 1.10471 0.25803
 C195 C 0.42785 1.06325 0.28616
 C196 C 0.39317 1.05796 0.29239
 H197 H 0.38209 1.22734 0.19603
 H198 H 0.32800 1.26529 0.20137
 H199 H 0.28121 1.13972 0.28176
 H200 H 0.43122 1.17317 0.21631
 H201 H 0.46816 1.10875 0.25366
 H202 H 0.38235 1.02662 0.31506
 C203 C 1.15414 -0.14917 -0.17140
 C204 C 1.15266 -0.14784 -0.08220
 C205 C 1.17482 -0.17028 -0.02625
 C206 C 1.19934 -0.19580 -0.06361
 C207 C 1.20068 -0.19963 -0.15524
 C208 C 1.17812 -0.17512 -0.21016
 O209 O 1.13070 -0.12477 -0.21218
 C210 C 1.11404 -0.10802 -0.14707
 C211 C 1.12643 -0.12156 -0.06639
 C212 C 1.11239 -0.10951 0.01106
 C213 C 1.08438 -0.08215 0.00541
 C214 C 1.07128 -0.06683 -0.07675
 C215 C 1.08646 -0.07981 -0.15432
 H216 H 1.17333 -0.16817 0.04370
 H217 H 1.21710 -0.21316 -0.02104
 H218 H 1.17879 -0.17707 -0.28027
 H219 H 1.12252 -0.12099 0.07366
 H220 H 1.07321 -0.07222 0.06527
 H221 H 1.07688 -0.06880 -0.21781
 C222 C 0.64331 0.32181 0.35438
 C223 C 0.64542 0.30754 0.44085
 C224 C 0.67020 0.27903 0.47332
 C225 C 0.69388 0.26490 0.41434
 C226 C 0.69201 0.27891 0.32500
 C227 C 0.66630 0.30755 0.29436
 O228 O 0.61898 0.35076 0.33795
 C229 C 0.60547 0.35486 0.41564
 C230 C 0.62060 0.32896 0.48071
 C231 C 0.61106 0.32924 0.56744
 C232 C 0.58504 0.35767 0.58812
 C233 C 0.56934 0.38536 0.52243
 C234 C 0.57963 0.38345 0.43473
 H235 H 0.67166 0.26878 0.54181
 H236 H 0.71380 0.24329 0.43794
 H237 H 0.66487 0.31924 0.22659
 H238 H 0.62350 0.30876 0.61760
 H239 H 0.57762 0.35871 0.65556
 H240 H 0.56838 0.40425 0.38304
 C241 C 0.86109 -0.15046 -0.28129
 C242 C 0.85066 -0.10799 -0.30277
 C243 C 0.81891 -0.09822 -0.33246
 C244 C 0.79672 -0.13360 -0.33889
 C245 C 0.80649 -0.17870 -0.31868
 C246 C 0.84009 -0.18654 -0.29263
 O247 O 0.89119 -0.15210 -0.24546
 C248 C 0.89983 -0.10958 -0.24460
 C249 C 0.87610 -0.08136 -0.28081
 C250 C 0.87949 -0.03543 -0.28532
 C251 C 0.90827 -0.01772 -0.24936
 C252 C 0.93228 -0.04590 -0.20750
 C253 C 0.92822 -0.09255 -0.20567
 H254 H 0.81090 -0.06425 -0.34583
 H255 H 0.77136 -0.12476 -0.35485
 H256 H 0.85039 -0.21938 -0.28227
 H257 H 0.86037 -0.01396 -0.31387
 H258 H 0.91105 0.01804 -0.24985
 H259 H 0.94602 -0.11462 -0.17284
 C260 C 0.34285 0.33673 0.38552
 C261 C 0.35549 0.30784 0.44972
 C262 C 0.34188 0.26625 0.46988
 C263 C 0.31407 0.25388 0.42182
 C264 C 0.30052 0.28305 0.35543
 C265 C 0.31494 0.32527 0.33751
 O266 O 0.35970 0.37451 0.37665
 C267 C 0.38339 0.36939 0.43681
 C268 C 0.38174 0.32926 0.48351
 C269 C 0.40355 0.31728 0.55099
 C270 C 0.42808 0.34799 0.57143
 C271 C 0.43062 0.38949 0.52379
 C272 C 0.40797 0.40020 0.45510
 H273 H 0.35231 0.24413 0.52066
 H274 H 0.30295 0.22166 0.43619
 H275 H 0.30495 0.34804 0.28713
 H276 H 0.40162 0.28557 0.58701
 H277 H 0.44529 0.33925 0.62394
 H278 H 0.40911 0.43176 0.41820
 C279 C 0.15171 0.68584 -0.06053
 C280 C 0.16250 0.66614 0.01724
 C281 C 0.19580 0.66371 0.04071
 C282 C 0.21890 0.68295 -0.01783
 C283 C 0.20832 0.70560 -0.09677
 C284 C 0.17404 0.70666 -0.11806
 O285 O 0.11942 0.68110 -0.07400
 C286 C 0.10952 0.65830 -0.00267
 C287 C 0.13482 0.64903 0.05602
 C288 C 0.13000 0.62503 0.13472
 C289 C 0.09798 0.60899 0.15259
 C290 C 0.07198 0.61611 0.09094
 C291 C 0.07773 0.64159 0.01270
 H292 H 0.20379 0.64708 0.10140
 H293 H 0.24487 0.68182 0.00029
 H294 H 0.16510 0.72197 -0.17914
 H295 H 0.15029 0.61804 0.17977
 H296 H 0.09387 0.58878 0.21192
 H297 H 0.05838 0.64682 -0.03592
 C298 C 0.64169 1.15382 0.26860
 C299 C 0.62749 1.15072 0.18749
 C300 C 0.63919 1.17414 0.11365
 C301 C 0.66698 1.20136 0.12357
 C302 C 0.68245 1.20454 0.20615
 C303 C 0.66942 1.18062 0.27987
 O304 O 0.62733 1.12772 0.32961
 C305 C 0.60367 1.10763 0.28594
 C306 C 0.60286 1.12038 0.19869
 C307 C 0.58102 1.10210 0.14016
 C308 C 0.55894 1.06952 0.17294
 C309 C 0.55891 1.05616 0.26294
 C310 C 0.58164 1.07569 0.32019
 H311 H 0.62773 1.17093 0.05043
 H312 H 0.67699 1.21926 0.06672
 H313 H 0.68136 1.18131 0.34304
 H314 H 0.58111 1.11235 0.07159
 H315 H 0.54162 1.05510 0.12835
 H316 H 0.58244 1.06593 0.38900
 C317 C 0.13739 0.34903 0.23533
 C318 C 0.13022 0.36408 0.31607
 C319 C 0.14761 0.35035 0.39114
 C320 C 0.17370 0.32020 0.38245
 C321 C 0.18169 0.30436 0.29984
 C322 C 0.16304 0.31872 0.22536
 O323 O 0.11886 0.36782 0.17188
 C324 C 0.09963 0.39537 0.21348
 C325 C 0.10557 0.39427 0.30178
 C326 C 0.08905 0.42149 0.35740
 C327 C 0.06542 0.45113 0.32054
 C328 C 0.05887 0.45318 0.22943
 C329 C 0.07623 0.42458 0.17534
 H330 H 0.14171 0.36304 0.45380
 H331 H 0.18797 0.30946 0.43968
 H332 H 0.16911 0.30774 0.16142
 H333 H 0.09438 0.42026 0.42660
 H334 H 0.05249 0.47273 0.36303
 H335 H 0.07206 0.42544 0.10560
 C336 C 0.64684 0.81673 0.55102
 C337 C 0.64549 0.80566 0.46530
 C338 C 0.66985 0.78025 0.42775
 C339 C 0.69673 0.76594 0.48061
 C340 C 0.69833 0.77655 0.56921
 C341 C 0.67300 0.80216 0.60499
 O342 O 0.62236 0.84336 0.57257
 C343 C 0.60514 0.84924 0.49896
 C344 C 0.61812 0.82671 0.43147
 C345 C 0.60459 0.82950 0.34792
 C346 C 0.57679 0.85698 0.33308
 C347 C 0.56329 0.88136 0.40118
 C348 C 0.57762 0.87687 0.48562
 H349 H 0.66858 0.77261 0.35979
 H350 H 0.71642 0.74691 0.45281
 H351 H 0.67425 0.81150 0.67202
 H352 H 0.61537 0.81173 0.29564
 H353 H 0.56635 0.86008 0.26795
 H354 H 0.56821 0.89521 0.53891
 C355 C 0.83616 0.16353 0.07229
 C356 C 0.85086 0.19205 0.01122
 C357 C 0.83968 0.23536 -0.00629
 C358 C 0.81263 0.24989 0.04202
 C359 C 0.79766 0.22114 0.10643
 C360 C 0.80921 0.17710 0.12019
 O361 O 0.85122 0.12452 0.08214
 C362 C 0.87600 0.12834 0.02619
 C363 C 0.87698 0.16888 -0.01917
 C364 C 0.90171 0.17998 -0.07922
 C365 C 0.92638 0.14804 -0.09264
 C366 C 0.92600 0.10621 -0.04558
 C367 C 0.90018 0.09640 0.01420
 H368 H 0.85175 0.25743 -0.05399
 H369 H 0.80385 0.28370 0.03113
 H370 H 0.79846 0.15475 0.16977
 H371 H 0.90222 0.21222 -0.11368
 H372 H 0.94603 0.15622 -0.13829
 H373 H 0.89908 0.06496 0.05153
 C374 C 0.34813 0.63774 0.71697
 C375 C 0.37673 0.66152 0.72907
 C376 C 0.37673 0.70474 0.75633
 C377 C 0.34596 0.72449 0.77081
 C378 C 0.31605 0.70119 0.75652
 C379 C 0.31720 0.65689 0.73049
 O380 O 0.35370 0.59715 0.69060
 C381 C 0.38651 0.59537 0.68568
 C382 C 0.40173 0.63401 0.70827
 C383 C 0.43588 0.63993 0.70570
 C384 C 0.45516 0.60451 0.67884
 C385 C 0.44007 0.56433 0.65612
 C386 C 0.40531 0.55950 0.65965
 H387 H 0.39959 0.72264 0.76601
 H388 H 0.34533 0.75802 0.79274
 H389 H 0.29471 0.63839 0.71940
 H390 H 0.44723 0.67078 0.72311
 H391 H 0.48183 0.60819 0.67586
 H392 H 0.39338 0.52906 0.64193
   
