data_POSCAR
  _audit_creation_date              2014-09-24
  _audit_creation_method            'ToBaCCo'
  _symmetry_space_group_name_H-M    'P1'
  _symmetry_Int_Tables_number       1
  _symmetry_cell_setting            triclinic
  loop_
  _symmetry_equiv_pos_as_xyz
 x,y,z
_cell_length_a 31.9809
_cell_length_b 32.0050
_cell_length_c 31.8740
_cell_angle_alpha 74.567300
_cell_angle_beta 93.003200
_cell_angle_gamma 94.003300
loop_
  _atom_site_label
  _atom_site_type_symbol
  _atom_site_fract_x
  _atom_site_fract_y
  _atom_site_fract_z
C1 C 0.56879 0.35003 0.00473
 C2 C 0.60230 0.37811 0.00810
 C3 C 0.58661 0.41289 0.01928
 N4 N 0.54437 0.40758 0.02132
 C5 C 0.53340 0.36923 0.01224
 C6 C 0.61107 0.44787 0.02941
 C7 C 0.59234 0.48576 0.03261
 C8 C 0.60957 0.51389 0.05615
 C9 C 0.58321 0.54723 0.04956
 C10 C 0.55054 0.53880 0.02200
 N11 N 0.55595 0.50080 0.01237
 C12 C 0.51754 0.56676 0.00547
 C13 C 0.47861 0.55085 -0.00945
 C14 C 0.44769 0.57624 -0.03347
 C15 C 0.41396 0.54863 -0.03752
 C16 C 0.42580 0.50704 -0.01729
 N17 N 0.46528 0.50847 -0.00002
 C18 C 0.39931 0.46893 -0.01203
 C19 C 0.41440 0.42672 0.00117
 C20 C 0.38931 0.38852 0.01164
 C21 C 0.41555 0.35494 0.01900
 C22 C 0.45606 0.37341 0.01282
 N23 N 0.45499 0.41717 0.00152
 C24 C 0.49218 0.35001 0.01374
 H25 H 0.57061 0.31916 -0.00265
 H26 H 0.63457 0.37317 0.00302
 H27 H 0.47988 0.43912 -0.01010
 H28 H 0.63806 0.51054 0.07634
 H29 H 0.58751 0.57450 0.06374
 H30 H 0.44901 0.61114 -0.04659
 H31 H 0.38428 0.55838 -0.05368
 H32 H 0.40552 0.32086 0.02664
 H33 H 0.53822 0.48824 -0.01032
 H34 H 0.35547 0.38491 0.01263
 C35 C 0.00829 0.60712 0.60353
 C36 C 0.00642 0.64143 0.56726
 C37 C 0.01045 0.62511 0.53144
 N38 N 0.01587 0.58192 0.54525
 C39 C 0.01454 0.57089 0.58923
 C40 C 0.01438 0.65045 0.48755
 C41 C 0.01609 0.63115 0.45225
 C42 C 0.02730 0.65271 0.41004
 C43 C 0.02130 0.62339 0.38538
 C44 C 0.00533 0.58494 0.41254
 N45 N 0.00224 0.58994 0.45314
 C46 C -0.00875 0.54752 0.39891
 C47 C -0.01841 0.50707 0.42871
 C48 C -0.03990 0.47192 0.41809
 C49 C -0.03854 0.43786 0.45477
 C50 C -0.01623 0.45336 0.48652
 N51 N -0.00411 0.49570 0.47058
 C52 C -0.00378 0.42770 0.52800
 C53 C 0.01171 0.44630 0.56172
 C54 C 0.03281 0.42447 0.59943
 C55 C 0.04027 0.45333 0.62456
 C56 C 0.02357 0.49199 0.60146
 N57 N 0.00616 0.48740 0.56325
 C58 C 0.02261 0.52943 0.61689
 H59 H 0.00638 0.60902 0.63676
 H60 H 0.00382 0.67469 0.56800
 H61 H -0.01240 0.50950 0.54168
 H62 H 0.03770 0.68635 0.39734
 H63 H 0.02706 0.63018 0.35101
 H64 H -0.05453 0.47081 0.38698
 H65 H -0.05191 0.40527 0.45756
 H66 H 0.05610 0.44656 0.65630
 H67 H -0.01327 0.56815 0.47852
 H68 H 0.04183 0.39121 0.60804
 C69 C 0.40354 0.05679 0.54005
 C70 C 0.43534 0.05454 0.57105
 C71 C 0.46584 0.03052 0.56058
 N72 N 0.45394 0.01856 0.52398
 C73 C 0.41588 0.03450 0.51150
 C74 C 0.50340 0.01871 0.58515
 C75 C 0.53720 0.00364 0.56696
 C76 C 0.56958 -0.01939 0.59089
 C77 C 0.59797 -0.02361 0.56175
 C78 C 0.58164 -0.00461 0.52028
 N79 N 0.54443 0.01190 0.52393
 C80 C 0.60292 0.00191 0.48070
 C81 C 0.58128 0.01207 0.43961
 C82 C 0.59954 0.02228 0.39924
 C83 C 0.56739 0.02466 0.36859
 C84 C 0.53061 0.01483 0.39115
 N85 N 0.53919 0.00713 0.43441
 C86 C 0.49015 0.00973 0.37251
 C87 C 0.45360 0.00416 0.39692
 C88 C 0.41469 -0.01162 0.38457
 C89 C 0.38663 -0.00667 0.41389
 C90 C 0.40926 0.01184 0.44334
 N91 N 0.45011 0.01784 0.43313
 C92 C 0.39161 0.02717 0.47566
 H93 H 0.37487 0.07328 0.53851
 H94 H 0.43604 0.06923 0.59800
 H95 H 0.47292 0.03597 0.44633
 H96 H 0.57305 -0.03121 0.62592
 H97 H 0.62760 -0.03828 0.57097
 H98 H 0.63250 0.02644 0.39226
 H99 H 0.57092 0.03182 0.33378
 H100 H 0.35322 -0.01476 0.41301
 H101 H 0.52763 0.03251 0.49892
 H102 H 0.40711 -0.02437 0.35669
 O103 O 0.43992 -0.03411 -0.06346
 O104 O 0.45865 -0.04292 0.05328
 O105 O 0.45283 0.02029 -0.01522
 O106 O 0.44582 -0.09863 0.00641
 O107 O 0.51369 -0.09782 -0.00331
 O108 O 0.52117 0.02109 -0.02333
 O109 O 0.52681 -0.04425 0.04577
 O110 O 0.50822 -0.03197 -0.07168
 Cu111 Cu 0.44238 -0.03916 -0.00401
 Cu112 Cu 0.52435 -0.03836 -0.01387
 C113 C 0.47096 -0.03084 -0.08765
 C114 C 0.49588 -0.04458 0.06929
 C115 C 0.48825 0.04079 -0.02249
 C116 C 0.47847 -0.11858 0.00501
 O117 O -0.04358 0.52334 1.00883
 O118 O 0.07002 0.50880 1.01584
 O119 O 0.01152 0.51168 0.95598
 O120 O 0.01518 0.51977 1.06952
 O121 O 0.00526 0.44845 1.09252
 O122 O -0.00304 0.44102 0.97917
 O123 O 0.05767 0.43768 1.03859
 O124 O -0.05566 0.45260 1.03427
 Cu125 Cu 0.01443 0.52305 1.01021
 Cu126 Cu -0.00030 0.43780 1.03826
 C127 C -0.06906 0.49048 1.02062
 C128 C 0.08308 0.47077 1.02862
 C129 C 0.00323 0.47499 0.94825
 C130 C 0.01170 0.48526 1.10037
 O131 O -0.00533 -0.00712 0.45578
 O132 O 0.01042 0.10828 0.45438
 O133 O 0.05865 0.04442 0.46544
 O134 O -0.05445 0.05766 0.44390
 O135 O -0.06440 0.03941 0.51473
 O136 O 0.04893 0.02670 0.53618
 O137 O -0.00028 0.09168 0.52489
 O138 O -0.01637 -0.02388 0.52635
 Cu139 Cu 0.00320 0.05252 0.44776
 Cu140 Cu -0.00883 0.03201 0.53272
 C141 C -0.01374 -0.03508 0.49129
 C142 C 0.00787 0.11974 0.48932
 C143 C 0.07314 0.03321 0.50440
 C144 C -0.07867 0.05032 0.47569
 C145 C -0.31677 0.47988 1.01926
 C146 C -0.27326 0.47615 1.02530
 C147 C -0.25741 0.43680 1.05055
 C148 C -0.28529 0.40234 1.07031
 C149 C -0.32851 0.40628 1.06416
 C150 C -0.34499 0.44467 1.03774
 C151 C -0.21398 0.43234 1.05529
 C152 C -0.18614 0.46673 1.03499
 C153 C -0.20193 0.50643 1.01049
 C154 C -0.24539 0.51089 1.00579
 C155 C -0.17395 0.54087 0.99070
 C156 C -0.13074 0.53586 0.99457
 C157 C -0.11473 0.49623 1.01805
 C158 C -0.14272 0.46186 1.03847
 H159 H -0.32865 0.50966 0.99861
 H160 H -0.27368 0.37218 1.09033
 H161 H -0.34918 0.37923 1.08047
 H162 H -0.20188 0.40196 1.07433
 H163 H -0.25749 0.54119 0.98659
 H164 H -0.18548 0.57158 0.97194
 H165 H -0.10988 0.56285 0.97854
 H166 H -0.13076 0.43124 1.05697
 C167 C 0.32784 0.46200 1.01806
 C168 C 0.28435 0.46569 1.01282
 C169 C 0.26621 0.48267 0.97079
 C170 C 0.29181 0.49396 0.93456
 C171 C 0.33497 0.48869 0.93996
 C172 C 0.35330 0.47335 0.98175
 C173 C 0.22285 0.48782 0.96569
 C174 C 0.19726 0.47485 1.00191
 C175 C 0.21527 0.45602 1.04362
 C176 C 0.25875 0.45225 1.04890
 C177 C 0.18943 0.44110 1.07942
 C178 C 0.14616 0.44506 1.07406
 C179 C 0.12831 0.46503 1.03316
 C180 C 0.15386 0.48002 0.99713
 H181 H 0.34202 0.44978 1.05030
 H182 H 0.27843 0.50657 0.90206
 H183 H 0.35424 0.49714 0.91164
 H184 H 0.20901 0.50151 0.93358
 H185 H 0.27259 0.43848 1.08100
 H186 H 0.20266 0.42628 1.11150
 H187 H 0.12663 0.43345 1.10206
 H188 H 0.13983 0.49504 0.96545
 C189 C -0.01407 -0.28108 0.48980
 C190 C -0.00902 -0.23618 0.48509
 C191 C 0.02806 -0.21299 0.46741
 C192 C 0.05983 -0.23535 0.45576
 C193 C 0.05530 -0.28035 0.46233
 C194 C 0.01826 -0.30376 0.47919
 C195 C 0.03323 -0.16808 0.46274
 C196 C 0.00259 -0.14641 0.47729
 C197 C -0.03392 -0.16994 0.49622
 C198 C -0.03991 -0.21443 0.49908
 C199 C -0.06341 -0.14875 0.51292
 C200 C -0.05655 -0.10482 0.51146
 C201 C -0.02086 -0.08110 0.49200
 C202 C 0.00839 -0.10182 0.47440
 H203 H -0.04283 -0.29870 0.50271
 H204 H 0.08870 -0.21822 0.44272
 H205 H 0.08121 -0.29708 0.45511
 H206 H 0.06157 -0.15026 0.44891
 H207 H -0.06804 -0.23235 0.51334
 H208 H -0.09139 -0.16632 0.52780
 H209 H -0.07935 -0.08913 0.52513
 H210 H 0.03627 -0.08356 0.45993
 C211 C 0.01580 0.36192 0.50661
 C212 C 0.01245 0.31711 0.51075
 C213 C -0.01059 0.28926 0.54491
 C214 C -0.02996 0.30693 0.57430
 C215 C -0.02735 0.35182 0.56922
 C216 C -0.00476 0.37968 0.53517
 C217 C -0.01454 0.24443 0.54859
 C218 C 0.00336 0.22734 0.51784
 C219 C 0.02603 0.25545 0.48348
 C220 C 0.03091 0.29999 0.48052
 C221 C 0.04289 0.23870 0.45209
 C222 C 0.03691 0.19459 0.45424
 C223 C 0.01459 0.16621 0.48822
 C224 C -0.00173 0.18275 0.52030
 H225 H 0.03350 0.38330 0.48043
 H226 H -0.04782 0.28613 0.60064
 H227 H -0.04347 0.36496 0.59148
 H228 H -0.03222 0.22304 0.57478
 H229 H 0.04829 0.32145 0.45411
 H230 H 0.06027 0.25980 0.42553
 H231 H 0.04998 0.18261 0.42930
 H232 H -0.01928 0.16117 0.54645
 C233 C 0.47393 0.00380 -0.34212
 C234 C 0.47861 0.00258 -0.29780
 C235 C 0.51680 0.01822 -0.28153
 C236 C 0.54911 0.03607 -0.31003
 C237 C 0.54419 0.03730 -0.35407
 C238 C 0.50694 0.02041 -0.37070
 C239 C 0.52236 0.01521 -0.23695
 C240 C 0.49016 -0.00318 -0.20838
 C241 C 0.45149 -0.01773 -0.22474
 C242 C 0.44599 -0.01487 -0.26935
 C243 C 0.41911 -0.03526 -0.19607
 C244 C 0.42518 -0.03892 -0.15152
 C245 C 0.46390 -0.02564 -0.13485
 C246 C 0.49618 -0.00753 -0.16358
 H247 H 0.44525 -0.01010 -0.35390
 H248 H 0.57839 0.04871 -0.29819
 H249 H 0.56970 0.05156 -0.37532
 H250 H 0.55189 0.02672 -0.22443
 H251 H 0.41654 -0.02658 -0.28184
 H252 H 0.38919 -0.04636 -0.20806
 H253 H 0.39985 -0.05291 -0.12996
 H254 H 0.52599 0.00333 -0.15108
 C255 C 0.50618 -0.01865 0.30890
 C256 C 0.50049 -0.01844 0.26486
 C257 C 0.47242 0.01011 0.23767
 C258 C 0.45175 0.03895 0.25448
 C259 C 0.45847 0.03932 0.29795
 C260 C 0.48525 0.01026 0.32566
 C261 C 0.46547 0.00948 0.19410
 C262 C 0.48705 -0.01847 0.17694
 C263 C 0.51637 -0.04585 0.20351
 C264 C 0.52246 -0.04612 0.24753
 C265 C 0.53927 -0.07223 0.18543
 C266 C 0.53307 -0.07154 0.14147
 C267 C 0.50306 -0.04544 0.11542
 C268 C 0.48008 -0.01907 0.13334
 H269 H 0.52674 -0.04127 0.33020
 H270 H 0.43045 0.06128 0.23399
 H271 H 0.44231 0.06200 0.31027
 H272 H 0.44351 0.03097 0.17346
 H273 H 0.54448 -0.06753 0.26813
 H274 H 0.56213 -0.09314 0.20517
 H275 H 0.55116 -0.09192 0.12796
 H276 H 0.45745 0.00175 0.11299
 C277 C 0.49166 -0.36743 0.01909
 C278 C 0.49633 -0.32292 0.01633
 C279 C 0.53375 -0.29912 0.00059
 C280 C 0.56595 -0.32037 -0.01179
 C281 C 0.56078 -0.36458 -0.00966
 C282 C 0.52332 -0.38869 0.00514
 C283 C 0.53812 -0.25438 -0.00310
 C284 C 0.50523 -0.23303 0.00805
 C285 C 0.46783 -0.25691 0.02389
 C286 C 0.46379 -0.30176 0.02836
 C287 C 0.43477 -0.23537 0.03434
 C288 C 0.43840 -0.19047 0.02849
 C289 C 0.47533 -0.16633 0.01255
 C290 C 0.50884 -0.18800 0.00284
 H291 H 0.46327 -0.38563 0.03228
 H292 H 0.59485 -0.30262 -0.02396
 H293 H 0.58565 -0.37962 -0.02106
 H294 H 0.56679 -0.23608 -0.01535
 H295 H 0.43502 -0.32002 0.04034
 H296 H 0.40590 -0.25318 0.04652
 H297 H 0.41219 -0.17462 0.03638
 H298 H 0.53742 -0.16974 -0.00967
 C299 C 0.49393 0.28565 -0.01692
 C300 C 0.49012 0.24067 -0.01200
 C301 C 0.47676 0.21258 0.02791
 C302 C 0.46879 0.22982 0.06259
 C303 C 0.47431 0.27444 0.05794
 C304 C 0.48658 0.30261 0.01817
 C305 C 0.47217 0.16771 0.03275
 C306 C 0.48234 0.15036 -0.00117
 C307 C 0.49728 0.17825 -0.04049
 C308 C 0.50027 0.22331 -0.04597
 C309 C 0.50953 0.16046 -0.07341
 C310 C 0.50713 0.11547 -0.06734
 C311 C 0.49123 0.08792 -0.02893
 C312 C 0.47861 0.10541 0.00394
 H313 H 0.50354 0.30747 -0.04759
 H314 H 0.45887 0.20875 0.09348
 H315 H 0.46870 0.28718 0.08527
 H316 H 0.46145 0.14624 0.06317
 H317 H 0.51125 0.24475 -0.07628
 H318 H 0.52138 0.18128 -0.10357
 H319 H 0.51704 0.10216 -0.09285
 H320 H 0.46692 0.08386 0.03388
 C321 C -0.32580 0.03302 0.46442
 C322 C -0.28223 0.02907 0.46798
 C323 C -0.26592 -0.01104 0.49055
 C324 C -0.29342 -0.04704 0.50710
 C325 C -0.33671 -0.04309 0.50249
 C326 C -0.35339 -0.00280 0.48238
 C327 C -0.22243 -0.01451 0.49643
 C328 C -0.19497 0.02137 0.47918
 C329 C -0.21117 0.06090 0.45469
 C330 C -0.25473 0.06466 0.44970
 C331 C -0.18344 0.09605 0.43579
 C332 C -0.14008 0.09226 0.44167
 C333 C -0.12402 0.05373 0.46744
 C334 C -0.15149 0.01834 0.48603
 H335 H -0.33830 0.06420 0.44858
 H336 H -0.28145 -0.07823 0.52371
 H337 H -0.35733 -0.07154 0.51507
 H338 H -0.20997 -0.04505 0.51450
 H339 H -0.26718 0.09523 0.43172
 H340 H -0.19526 0.12644 0.41658
 H341 H -0.11908 0.11974 0.42708
 H342 H -0.13890 -0.01163 0.50544
 C343 C 0.31865 0.01734 0.50434
 C344 C 0.27582 0.02541 0.49889
 C345 C 0.26057 0.05259 0.45922
 C346 C 0.28845 0.07209 0.42621
 C347 C 0.33100 0.06434 0.43212
 C348 C 0.34641 0.03657 0.47090
 C349 C 0.21768 0.05967 0.45299
 C350 C 0.18978 0.04027 0.48603
 C351 C 0.20503 0.01404 0.52616
 C352 C 0.24796 0.00658 0.53227
 C353 C 0.17697 -0.00448 0.55937
 C354 C 0.13414 0.00244 0.55267
 C355 C 0.11860 0.02753 0.51248
 C356 C 0.14674 0.04657 0.47939
 H357 H 0.33041 -0.00418 0.53429
 H358 H 0.27733 0.09322 0.39575
 H359 H 0.35203 0.07972 0.40618
 H360 H 0.20600 0.08012 0.42235
 H361 H 0.25962 -0.01396 0.56286
 H362 H 0.18809 -0.02450 0.59042
 H363 H 0.11304 -0.01259 0.57864
 H364 H 0.13516 0.06638 0.44841
 C365 C 0.01105 0.52049 1.33618
 C366 C 0.00810 0.52067 1.29211
 C367 C -0.01588 0.55162 1.26234
 C368 C -0.03728 0.58122 1.27756
 C369 C -0.03525 0.57987 1.32188
 C370 C -0.01092 0.54966 1.35150
 C371 C -0.01849 0.55201 1.21808
 C372 C 0.00142 0.52089 1.20359
 C373 C 0.02433 0.48919 1.23382
 C374 C 0.02813 0.48978 1.27765
 C375 C 0.04262 0.45691 1.21988
 C376 C 0.03803 0.45571 1.17646
 C377 C 0.01608 0.48741 1.14598
 C378 C -0.00183 0.52029 1.15956
 H379 H 0.02992 0.49713 1.35889
 H380 H -0.05607 0.60498 1.25532
 H381 H -0.05269 0.60236 1.33314
 H382 H -0.03659 0.57595 1.19514
 H383 H 0.04600 0.46565 1.30067
 H384 H 0.06007 0.43228 1.24266
 H385 H 0.05215 0.43026 1.16646
 H386 H -0.01921 0.54452 1.13615
 C387 C 0.00604 0.49741 0.69558
 C388 C 0.01226 0.49617 0.73985
 C389 C 0.04406 0.52371 0.75272
 C390 C 0.07033 0.55042 0.72142
 C391 C 0.06434 0.55093 0.67759
 C392 C 0.03150 0.52540 0.66415
 C393 C 0.04874 0.52454 0.79650
 C394 C 0.02246 0.49771 0.82776
 C395 C -0.00804 0.46871 0.81525
 C396 C -0.01318 0.46838 0.77133
 C397 C -0.03316 0.44078 0.84692
 C398 C -0.02866 0.44210 0.89041
 C399 C 0.00037 0.47198 0.90280
 C400 C 0.02604 0.49957 0.87133
 H401 H -0.01913 0.47741 0.68536
 H402 H 0.09517 0.57131 0.73077
 H403 H 0.08464 0.57219 0.65384
 H404 H 0.07258 0.54630 0.80618
 H405 H -0.03715 0.44677 0.76162
 H406 H -0.05646 0.41811 0.83801
 H407 H -0.04871 0.42056 0.91423
 H408 H 0.04892 0.52228 0.88087
   
