data_POSCAR
  _audit_creation_date              2014-09-24
  _audit_creation_method            'ToBaCCo'
  _symmetry_space_group_name_H-M    'P1'
  _symmetry_Int_Tables_number       1
  _symmetry_cell_setting            triclinic
  loop_
  _symmetry_equiv_pos_as_xyz
 x,y,z
_cell_length_a 57.8333
_cell_length_b 57.6076
_cell_length_c 57.8664
_cell_angle_alpha 89.918800
_cell_angle_beta 89.998600
_cell_angle_gamma 90.066600
loop_
  _atom_site_label
  _atom_site_type_symbol
  _atom_site_fract_x
  _atom_site_fract_y
  _atom_site_fract_z
N1 N 0.59753 0.66175 0.61588
 N2 N 0.58843 0.65223 0.63446
 C3 C 0.56973 0.66460 0.64088
 C4 C 0.56714 0.68269 0.62549
 C5 C 0.58496 0.68047 0.60985
 H6 H 0.55882 0.66080 0.65559
 H7 H 0.58849 0.69162 0.59521
 Cu8 Cu 0.60200 0.62463 0.64835
 Cu9 Cu 0.62496 0.64923 0.60089
 Cu10 Cu 0.64941 0.60006 0.62538
 N11 N 0.61587 0.59703 0.66195
 N12 N 0.63443 0.58752 0.65285
 C13 C 0.64046 0.56880 0.66545
 C14 C 0.62482 0.56660 0.68327
 C15 C 0.60943 0.58467 0.68069
 H16 H 0.65509 0.55766 0.66191
 H17 H 0.59474 0.58847 0.69160
 N18 N 0.66204 0.61529 0.59757
 N19 N 0.65272 0.63403 0.58824
 C20 C 0.66520 0.64023 0.56955
 C21 C 0.68309 0.62467 0.56713
 C22 C 0.68069 0.60910 0.58506
 H23 H 0.66160 0.65494 0.55850
 H24 H 0.69173 0.59439 0.58865
 H25 H 0.62019 0.61528 0.61151
 H26 H 0.63887 0.63399 0.63010
 N27 N 0.90295 0.33759 0.11566
 N28 N 0.91205 0.34708 0.13424
 C29 C 0.93076 0.33473 0.14067
 C30 C 0.93333 0.31670 0.12527
 C31 C 0.91552 0.31890 0.10962
 H32 H 0.94167 0.33851 0.15538
 H33 H 0.91198 0.30778 0.09499
 Cu34 Cu 0.89848 0.37463 0.14812
 Cu35 Cu 0.87551 0.35010 0.10068
 Cu36 Cu 0.85105 0.39922 0.12513
 N37 N 0.88459 0.40218 0.16169
 N38 N 0.86604 0.41171 0.15258
 C39 C 0.86002 0.43040 0.16515
 C40 C 0.87565 0.43259 0.18299
 C41 C 0.89101 0.41452 0.18040
 H42 H 0.84542 0.44156 0.16160
 H43 H 0.90571 0.41072 0.19132
 N44 N 0.83842 0.38402 0.09736
 N45 N 0.84774 0.36531 0.08805
 C46 C 0.83523 0.35910 0.06941
 C47 C 0.81733 0.37465 0.06700
 C48 C 0.81974 0.39021 0.08487
 H49 H 0.83881 0.34440 0.05838
 H50 H 0.80869 0.40490 0.08846
 H51 H 0.88027 0.38401 0.11126
 H52 H 0.86162 0.36527 0.12988
 N53 N 0.40235 0.16205 -0.11562
 N54 N 0.41144 0.15253 -0.13417
 C55 C 0.43019 0.16488 -0.14058
 C56 C 0.43282 0.18293 -0.12520
 C57 C 0.41497 0.18073 -0.10959
 H58 H 0.44111 0.16109 -0.15526
 H59 H 0.41145 0.19187 -0.09498
 Cu60 Cu 0.39782 0.12498 -0.14802
 Cu61 Cu 0.37487 0.14956 -0.10065
 Cu62 Cu 0.35032 0.10042 -0.12506
 N63 N 0.38389 0.09743 -0.16157
 N64 N 0.36530 0.08791 -0.15248
 C65 C 0.35925 0.06921 -0.16504
 C66 C 0.37489 0.06702 -0.18286
 C67 C 0.39030 0.08509 -0.18027
 H68 H 0.34462 0.05806 -0.16150
 H69 H 0.40501 0.08888 -0.19118
 N70 N 0.33771 0.11564 -0.09733
 N71 N 0.34706 0.13437 -0.08803
 C72 C 0.33457 0.14059 -0.06939
 C73 C 0.31665 0.12503 -0.06697
 C74 C 0.31902 0.10946 -0.08483
 H75 H 0.33819 0.15530 -0.05837
 H76 H 0.30794 0.09476 -0.08841
 H77 H 0.37956 0.11563 -0.11120
 H78 H 0.36096 0.13436 -0.12987
 N79 N 0.09720 0.83736 0.38415
 N80 N 0.08836 0.84667 0.36534
 C81 C 0.06970 0.83425 0.35882
 C82 C 0.06689 0.81636 0.37440
 C83 C 0.08451 0.81872 0.39025
 H84 H 0.05894 0.83794 0.34397
 H85 H 0.08781 0.80777 0.40509
 Cu86 Cu 0.10207 0.87429 0.35163
 Cu87 Cu 0.12450 0.85007 0.39936
 Cu88 Cu 0.14896 0.89940 0.37488
 N89 N 0.11577 0.90192 0.33793
 N90 N 0.13409 0.91172 0.34725
 C91 C 0.13996 0.93057 0.33477
 C92 C 0.12450 0.93257 0.31678
 C93 C 0.10936 0.91423 0.31917
 H94 H 0.15433 0.94199 0.33852
 H95 H 0.09480 0.91027 0.30812
 N96 N 0.16145 0.88429 0.40280
 N97 N 0.15215 0.86552 0.41213
 C98 C 0.16464 0.85936 0.43081
 C99 C 0.18250 0.87499 0.43322
 C100 C 0.18008 0.89056 0.41532
 H101 H 0.16111 0.84459 0.44182
 H102 H 0.19114 0.90526 0.41169
 H103 H 0.11976 0.88397 0.38863
 H104 H 0.13875 0.86536 0.37036
 N105 N 0.09718 0.16277 0.11579
 N106 N 0.08834 0.15344 0.13459
 C107 C 0.06970 0.16585 0.14112
 C108 C 0.06688 0.18373 0.12554
 C109 C 0.08449 0.18137 0.10970
 H110 H 0.05897 0.16219 0.15599
 H111 H 0.08778 0.19232 0.09485
 Cu112 Cu 0.10208 0.12595 0.14845
 Cu113 Cu 0.12446 0.15013 0.10060
 Cu114 Cu 0.14894 0.10091 0.12513
 N115 N 0.11577 0.09832 0.16207
 N116 N 0.13410 0.08857 0.15277
 C117 C 0.14001 0.06977 0.16529
 C118 C 0.12457 0.06778 0.18331
 C119 C 0.10941 0.08606 0.18089
 H120 H 0.15438 0.05839 0.16156
 H121 H 0.09488 0.09002 0.19195
 N122 N 0.16139 0.11601 0.09718
 N123 N 0.15208 0.13475 0.08785
 C124 C 0.16456 0.14094 0.06915
 C125 C 0.18241 0.12535 0.06675
 C126 C 0.18002 0.10979 0.08466
 H127 H 0.16101 0.15568 0.05813
 H128 H 0.19109 0.09511 0.08829
 H129 H 0.11972 0.11626 0.11140
 H130 H 0.13872 0.13494 0.12962
 N131 N 0.40245 0.83787 0.61567
 N132 N 0.41157 0.84741 0.63421
 C133 C 0.43025 0.83503 0.64068
 C134 C 0.43281 0.81692 0.62536
 C135 C 0.41500 0.81913 0.60971
 H136 H 0.44119 0.83885 0.65535
 H137 H 0.41146 0.80799 0.59511
 Cu138 Cu 0.39813 0.87514 0.64787
 Cu139 Cu 0.37505 0.85044 0.60062
 Cu140 Cu 0.35057 0.89958 0.62506
 N141 N 0.38410 0.90251 0.66163
 N142 N 0.36551 0.91201 0.65256
 C143 C 0.35945 0.93066 0.66517
 C144 C 0.37508 0.93285 0.68300
 C145 C 0.39050 0.91482 0.68037
 H146 H 0.34483 0.94180 0.66164
 H147 H 0.40522 0.91106 0.69126
 N148 N 0.33800 0.88442 0.59724
 N149 N 0.34732 0.86570 0.58793
 C150 C 0.33485 0.85954 0.56924
 C151 C 0.31697 0.87512 0.56681
 C152 C 0.31936 0.89065 0.58471
 H153 H 0.33843 0.84484 0.55822
 H154 H 0.30832 0.90534 0.58830
 H155 H 0.37974 0.88442 0.61108
 H156 H 0.36122 0.86569 0.62983
 N157 N 0.90277 0.66212 0.38424
 N158 N 0.91190 0.65258 0.36572
 C159 C 0.93059 0.66500 0.35926
 C160 C 0.93314 0.68314 0.37456
 C161 C 0.91530 0.68090 0.39019
 H162 H 0.94156 0.66118 0.34461
 H163 H 0.91174 0.69207 0.40476
 Cu164 Cu 0.89848 0.62480 0.35209
 Cu165 Cu 0.87533 0.64953 0.39927
 Cu166 Cu 0.85088 0.60030 0.37488
 N167 N 0.88447 0.59736 0.33836
 N168 N 0.86587 0.58783 0.34742
 C169 C 0.85984 0.56914 0.33483
 C170 C 0.87549 0.56695 0.31703
 C171 C 0.89090 0.58502 0.31965
 H172 H 0.84520 0.55797 0.33836
 H173 H 0.90565 0.58880 0.30879
 N174 N 0.83824 0.61549 0.40265
 N175 N 0.84756 0.63424 0.41194
 C176 C 0.83504 0.64043 0.43059
 C177 C 0.81714 0.62483 0.43301
 C178 C 0.81956 0.60926 0.41515
 H179 H 0.83861 0.65515 0.44160
 H180 H 0.80852 0.59454 0.41157
 H181 H 0.88004 0.61554 0.38889
 H182 H 0.86155 0.63420 0.37008
 N183 N 0.59764 0.33814 -0.11568
 N184 N 0.58860 0.34764 -0.13429
 C185 C 0.56983 0.33532 -0.14066
 C186 C 0.56716 0.31728 -0.12522
 C187 C 0.58498 0.31948 -0.10959
 H188 H 0.55895 0.33909 -0.15539
 H189 H 0.58848 0.30834 -0.09495
 Cu190 Cu 0.60240 0.37504 -0.14834
 Cu191 Cu 0.62516 0.35058 -0.10076
 Cu192 Cu 0.64970 0.39978 -0.12526
 N193 N 0.61611 0.40282 -0.16177
 N194 N 0.63465 0.41238 -0.15266
 C195 C 0.64062 0.43117 -0.16520
 C196 C 0.62496 0.43338 -0.18302
 C197 C 0.60963 0.41522 -0.18045
 H198 H 0.65522 0.44235 -0.16167
 H199 H 0.59496 0.41139 -0.19138
 N200 N 0.66237 0.38447 -0.09753
 N201 N 0.65301 0.36573 -0.08820
 C202 C 0.66552 0.35947 -0.06956
 C203 C 0.68345 0.37501 -0.06717
 C204 C 0.68107 0.39062 -0.08505
 H205 H 0.66189 0.34475 -0.05852
 H206 H 0.69214 0.40534 -0.08863
 H207 H 0.62044 0.38448 -0.11145
 H208 H 0.63921 0.36580 -0.12992
 C209 C -0.05001 0.30009 0.12546
 C210 C -0.03526 0.28533 0.12557
 C211 C -0.01767 0.26769 0.12563
 C212 C -0.00741 0.26079 0.14647
 C213 C 0.00970 0.24365 0.14650
 C214 C 0.01662 0.23335 0.12570
 C215 C 0.00633 0.24023 0.10487
 C216 C -0.01078 0.25737 0.10484
 C217 C 0.03430 0.21581 0.12572
 C218 C 0.04916 0.20116 0.12567
 H219 H -0.01262 0.26865 0.16265
 H220 H 0.01754 0.23845 0.16271
 H221 H 0.01155 0.23238 0.08869
 H222 H -0.01861 0.26257 0.08863
 C223 C 0.54953 0.70025 0.62567
 C224 C 0.53477 0.71501 0.62575
 C225 C 0.51716 0.73265 0.62576
 C226 C 0.51431 0.74703 0.64506
 C227 C 0.49721 0.76419 0.64503
 C228 C 0.48289 0.76705 0.62570
 C229 C 0.48575 0.75268 0.60640
 C230 C 0.50284 0.73552 0.60643
 C231 C 0.46526 0.78467 0.62567
 C232 C 0.45047 0.79940 0.62556
 H233 H 0.52528 0.74498 0.66009
 H234 H 0.49515 0.77521 0.66005
 H235 H 0.47478 0.75474 0.59136
 H236 H 0.50490 0.72451 0.59140
 C237 C 1.05010 0.79982 0.37426
 C238 C 1.03524 0.78513 0.37419
 C239 C 1.01753 0.76754 0.37418
 C240 C 1.00904 0.75879 0.39513
 C241 C 0.99191 0.74163 0.39514
 C242 C 0.98319 0.73315 0.37419
 C243 C 0.99166 0.74192 0.35324
 C244 C 1.00880 0.75909 0.35323
 C245 C 0.96555 0.71549 0.37423
 C246 C 0.95077 0.70072 0.37434
 H247 H 1.01567 0.76521 0.41143
 H248 H 0.98548 0.73497 0.41144
 H249 H 0.98504 0.73550 0.33694
 H250 H 1.01523 0.76574 0.33693
 C251 C 0.45047 0.20047 -0.12537
 C252 C 0.46524 0.21523 -0.12545
 C253 C 0.48284 0.23289 -0.12550
 C254 C 0.50308 0.22980 -0.13843
 C255 C 0.52020 0.24697 -0.13846
 C256 C 0.51713 0.26730 -0.12556
 C257 C 0.49689 0.27039 -0.11263
 C258 C 0.47977 0.25323 -0.11260
 C259 C 0.53476 0.28495 -0.12552
 C260 C 0.54953 0.29972 -0.12542
 H261 H 0.50562 0.21414 -0.14845
 H262 H 0.53580 0.24440 -0.14850
 H263 H 0.49435 0.28604 -0.10259
 H264 H 0.46419 0.25579 -0.10254
 C265 C 0.12415 -0.04975 0.29927
 C266 C 0.12394 -0.03488 0.28460
 C267 C 0.12377 -0.01712 0.26710
 C268 C 0.12190 0.00628 0.27340
 C269 C 0.12192 0.02356 0.25639
 C270 C 0.12381 0.01750 0.23303
 C271 C 0.12563 -0.00590 0.22673
 C272 C 0.12561 -0.02318 0.24373
 C273 C 0.12400 0.03528 0.21554
 C274 C 0.12423 0.05014 0.20086
 H275 H 0.12048 0.01116 0.29142
 H276 H 0.12051 0.04161 0.26145
 H277 H 0.12710 -0.01077 0.20871
 H278 H 0.12707 -0.04122 0.23868
 C279 C 0.62463 0.55000 -0.30001
 C280 C 0.62451 0.53525 -0.28520
 C281 C 0.62442 0.51763 -0.26754
 C282 C 0.62473 0.49411 -0.27368
 C283 C 0.62476 0.47698 -0.25652
 C284 C 0.62448 0.48330 -0.23314
 C285 C 0.62415 0.50681 -0.22701
 C286 C 0.62412 0.52394 -0.24417
 C287 C 0.62460 0.46568 -0.21548
 C288 C 0.62475 0.45093 -0.20067
 H289 H 0.62497 0.48903 -0.29170
 H290 H 0.62502 0.45885 -0.26146
 H291 H 0.62395 0.51190 -0.20899
 H292 H 0.62389 0.54207 -0.23923
 C293 C 0.37511 1.04947 0.79956
 C294 C 0.37526 1.03472 0.78481
 C295 C 0.37542 1.01710 0.76721
 C296 C 0.37513 1.02341 0.74383
 C297 C 0.37520 1.00628 0.72672
 C298 C 0.37556 0.98277 0.73294
 C299 C 0.37590 0.97646 0.75633
 C300 C 0.37583 0.99359 0.77343
 C301 C 0.37546 0.96515 0.71535
 C302 C 0.37532 0.95039 0.70060
 H303 H 0.37483 1.04154 0.73883
 H304 H 0.37495 1.01136 0.70869
 H305 H 0.37620 0.95833 0.76133
 H306 H 0.37607 0.98852 0.79147
 C307 C 0.87587 0.45013 0.20060
 C308 C 0.87601 0.46489 0.21535
 C309 C 0.87611 0.48255 0.23292
 C310 C 0.87804 0.47635 0.25627
 C311 C 0.87802 0.49352 0.27334
 C312 C 0.87607 0.51695 0.26714
 C313 C 0.87417 0.52315 0.24379
 C314 C 0.87419 0.50598 0.22672
 C315 C 0.87592 0.53461 0.28471
 C316 C 0.87575 0.54938 0.29944
 H317 H 0.87952 0.45827 0.26126
 H318 H 0.87949 0.48853 0.29134
 H319 H 0.87264 0.54122 0.23880
 H320 H 0.87267 0.51097 0.20872
 C321 C 0.29908 0.12508 -0.04944
 C322 C 0.28434 0.12513 -0.03472
 C323 C 0.26673 0.12520 -0.01716
 C324 C 0.24768 0.11027 -0.01898
 C325 C 0.23055 0.11034 -0.00192
 C326 C 0.23241 0.12534 0.01702
 C327 C 0.25146 0.14027 0.01885
 C328 C 0.26859 0.14020 0.00180
 C329 C 0.21478 0.12539 0.03456
 C330 C 0.20001 0.12539 0.04925
 H331 H 0.24608 0.09860 -0.03356
 H332 H 0.21589 0.09873 -0.00350
 H333 H 0.25306 0.15194 0.03344
 H334 H 0.28326 0.15181 0.00337
 C335 C 0.70063 0.62469 0.54955
 C336 C 0.71535 0.62471 0.53478
 C337 C 0.73293 0.62475 0.51716
 C338 C 0.72840 0.61491 0.49550
 C339 C 0.74549 0.61494 0.47838
 C340 C 0.76719 0.62481 0.48286
 C341 C 0.77171 0.63466 0.50453
 C342 C 0.75462 0.63463 0.52164
 C343 C 0.78479 0.62481 0.46527
 C344 C 0.79955 0.62482 0.45055
 H345 H 0.71169 0.60723 0.49185
 H346 H 0.74180 0.60728 0.46170
 H347 H 0.78842 0.64235 0.50818
 H348 H 0.75831 0.64229 0.53833
 C349 C 0.79978 0.37464 0.04944
 C350 C 0.78506 0.37465 0.03470
 C351 C 0.76750 0.37467 0.01707
 C352 C 0.77272 0.38259 -0.00523
 C353 C 0.75565 0.38265 -0.02235
 C354 C 0.73329 0.37478 -0.01724
 C355 C 0.72808 0.36684 0.00506
 C356 C 0.74515 0.36678 0.02218
 C357 C 0.71572 0.37487 -0.03486
 C358 C 0.70100 0.37495 -0.04961
 H359 H 0.78995 0.38872 -0.00936
 H360 H 0.75987 0.38882 -0.03954
 H361 H 0.71085 0.36071 0.00920
 H362 H 0.74093 0.36061 0.03937
 C363 C 0.20013 0.87498 0.45070
 C364 C 0.21494 0.87499 0.46536
 C365 C 0.23262 0.87501 0.48286
 C366 C 0.25002 0.89195 0.48255
 C367 C 0.26718 0.89198 0.49958
 C368 C 0.26702 0.87506 0.51700
 C369 C 0.24962 0.85811 0.51731
 C370 C 0.23246 0.85808 0.50028
 C371 C 0.28465 0.87510 0.53455
 C372 C 0.29941 0.87511 0.54927
 H373 H 0.25031 0.90512 0.46916
 H374 H 0.28055 0.90517 0.49918
 H375 H 0.24933 0.84495 0.53070
 H376 H 0.21909 0.84490 0.50069
   
