data_POSCAR
  _audit_creation_date              2014-09-24
  _audit_creation_method            'ToBaCCo'
  _symmetry_space_group_name_H-M    'P1'
  _symmetry_Int_Tables_number       1
  _symmetry_cell_setting            triclinic
  loop_
  _symmetry_equiv_pos_as_xyz
 x,y,z
_cell_length_a 32.7928
_cell_length_b 32.7392
_cell_length_c 32.9529
_cell_angle_alpha 89.962900
_cell_angle_beta 89.896000
_cell_angle_gamma 89.964700
loop_
  _atom_site_label
  _atom_site_type_symbol
  _atom_site_fract_x
  _atom_site_fract_y
  _atom_site_fract_z
C1 C 0.21402 1.24815 0.18422
 C2 C 0.23848 1.21359 0.17775
 C3 C 0.23249 1.17879 0.20088
 C4 C 0.20247 1.17839 0.23129
 C5 C 0.17862 1.21251 0.23774
 C6 C 0.18434 1.24757 0.21394
 C7 C 0.20970 1.28420 0.16317
 N8 N 0.17769 1.30558 0.17904
 C9 C 0.16252 1.28325 0.21057
 C10 C 0.14975 1.20233 0.26630
 N11 N 0.15536 1.16266 0.27770
 C12 C 0.18782 1.14802 0.25622
 C13 C 0.25733 1.14878 0.18518
 N14 N 0.27843 1.16464 0.15336
 C15 C 0.26723 1.20430 0.14870
 H16 H 0.22713 1.29248 0.13653
 H17 H 0.13680 1.29157 0.22937
 H18 H 0.12620 1.22266 0.27723
 H19 H 0.19891 1.11691 0.25689
 H20 H 0.25917 1.11743 0.19551
 H21 H 0.27780 1.22429 0.12470
 C22 C 0.78096 0.75722 0.18097
 C23 C 0.74769 0.78410 0.18392
 C24 C 0.74584 0.81205 0.21536
 C25 C 0.77728 0.81370 0.24415
 C26 C 0.80987 0.78732 0.24113
 C27 C 0.81169 0.75890 0.20943
 C28 C 0.79263 0.72909 0.15209
 N29 N 0.82998 0.71368 0.16219
 C30 C 0.84151 0.73208 0.19745
 C31 C 0.83729 0.79787 0.27075
 N32 N 0.82251 0.83049 0.29194
 C33 C 0.78547 0.84004 0.27564
 C34 C 0.71205 0.83604 0.20899
 N35 N 0.69334 0.82366 0.17431
 C36 C 0.71504 0.79180 0.15885
 H37 H 0.77522 0.72160 0.12530
 H38 H 0.87045 0.72812 0.21257
 H39 H 0.86661 0.78341 0.27488
 H40 H 0.76599 0.86495 0.28480
 H41 H 0.70232 0.86124 0.22790
 H42 H 0.70873 0.77633 0.13056
 C43 C 0.81086 1.22469 -0.15817
 C44 C 0.77741 1.19812 -0.16137
 C45 C 0.77329 1.17378 -0.19536
 C46 C 0.80239 1.17550 -0.22648
 C47 C 0.83528 1.20149 -0.22331
 C48 C 0.83960 1.22622 -0.18883
 C49 C 0.82341 1.25120 -0.12833
 N50 N 0.85925 1.26888 -0.13991
 C51 C 0.86917 1.25348 -0.17710
 C52 C 0.85910 1.19571 -0.25726
 N53 N 0.84158 1.16655 -0.28112
 C54 C 0.80663 1.15433 -0.26221
 C55 C 0.73909 1.15022 -0.18992
 N56 N 0.72219 1.15948 -0.15337
 C57 C 0.74547 1.18890 -0.13572
 H58 H 0.80796 1.25607 -0.09971
 H59 H 0.89567 1.26143 -0.19497
 H60 H 0.88773 1.21100 -0.26306
 H61 H 0.78532 1.13190 -0.27351
 H62 H 0.72744 1.12784 -0.21108
 H63 H 0.74028 1.20196 -0.10600
 C64 C 0.20936 0.76351 -0.18974
 C65 C 0.24222 0.79048 -0.19486
 C66 C 0.24098 0.81959 -0.22530
 C67 C 0.20731 0.82171 -0.25135
 C68 C 0.17497 0.79532 -0.24620
 C69 C 0.17576 0.76635 -0.21484
 C70 C 0.20073 0.73432 -0.16092
 N71 N 0.16231 0.71986 -0.16732
 C72 C 0.14701 0.73938 -0.20051
 C73 C 0.14611 0.80531 -0.27477
 N74 N 0.16013 0.83719 -0.29757
 C75 C 0.19766 0.84735 -0.28296
 C76 C 0.27442 0.84436 -0.22049
 N77 N 0.29597 0.83104 -0.18791
 C78 C 0.27669 0.79788 -0.17219
 H79 H 0.22021 0.72608 -0.13573
 H80 H 0.11708 0.73478 -0.21344
 H81 H 0.11684 0.79049 -0.27784
 H82 H 0.21725 0.87111 -0.29475
 H83 H 0.28159 0.87129 -0.23821
 H84 H 0.28561 0.78205 -0.14474
 C85 C 0.55657 1.05325 -0.01244
 H86 H 0.55192 1.05702 0.01986
 C87 C 0.58535 1.07729 -0.03271
 H88 H 0.60301 1.09919 -0.01556
 C89 C 0.54021 1.01879 -0.07342
 H90 H 0.52346 0.99525 -0.08910
 C91 C 0.56849 1.04219 -0.09487
 H92 H 0.57216 1.03700 -0.12711
 N93 N 0.53418 1.02518 -0.03308
 C94 C 0.43192 1.00837 0.05014
 H95 H 0.43404 0.97572 0.05481
 C96 C 0.40187 1.03078 0.07023
 H97 H 0.38190 1.01497 0.09112
 C98 C 0.45614 1.06801 0.01737
 H99 H 0.47673 1.08220 -0.00403
 C100 C 0.42600 1.09153 0.03625
 H101 H 0.42398 1.12372 0.02908
 Zn102 Zn 0.49577 0.99345 -0.00370
 N103 N 0.45853 1.02720 0.02462
 C104 C 0.52418 0.96669 0.07338
 N105 N 0.52551 0.96006 0.03265
 C106 C 0.54989 0.93064 0.01649
 C107 C 0.57332 0.90562 0.04165
 C108 C 0.54738 0.94260 0.09963
 C109 C 0.44536 0.98123 -0.07049
 C110 C 0.42145 0.95988 -0.09820
 C111 C 0.43343 0.89826 -0.05976
 C112 C 0.45821 0.92067 -0.03341
 N113 N 0.46405 0.96133 -0.03950
 H114 H 0.50570 0.99110 0.08558
 H115 H 0.55112 0.92668 -0.01609
 H116 H 0.59278 0.88261 0.02814
 H117 H 0.54587 0.94824 0.13198
 H118 H 0.44965 1.01380 -0.07406
 H119 H 0.40847 0.97644 -0.12346
 H120 H 0.42849 0.86626 -0.05336
 H121 H 0.47201 0.90570 -0.00762
 C122 C 0.39806 1.07296 0.06299
 C123 C 0.59144 1.07213 -0.07463
 C124 C 0.41487 0.91771 -0.09313
 C125 C 0.57222 0.91145 0.08386
 C126 C -0.00732 0.56918 1.05799
 H127 H 0.02561 0.57067 1.05934
 C128 C -0.03069 0.59818 1.07838
 H129 H -0.01542 0.62198 1.09534
 C130 C -0.06686 0.53700 1.03289
 H131 H -0.08072 0.51348 1.01452
 C132 C -0.09153 0.56570 1.05265
 H133 H -0.12435 0.56344 1.05000
 N134 N -0.02555 0.53922 1.03607
 C135 C 0.07522 0.45321 1.02824
 H136 H 0.07835 0.45121 0.99562
 C137 C 0.10099 0.43059 1.05332
 H138 H 0.12368 0.41088 1.03964
 C139 C 0.04018 0.47983 1.08538
 H140 H 0.01585 0.49833 1.09770
 C141 C 0.06519 0.45758 1.11159
 H142 H 0.06026 0.45971 1.14402
 Zn143 Zn 0.01033 0.50405 1.00788
 N144 N 0.04563 0.47727 1.04453
 C145 C 0.07925 0.54890 0.98242
 N146 N 0.04063 0.53784 0.97236
 C147 C 0.02139 0.55483 0.94001
 C148 C 0.04129 0.58363 0.91582
 C149 C 0.09981 0.57857 0.95986
 C150 C -0.04251 0.43775 1.00244
 C151 C -0.06231 0.40458 0.98465
 C152 C -0.03162 0.42276 0.92046
 C153 C -0.01235 0.45558 0.93952
 N154 N -0.01827 0.46259 0.97979
 H155 H 0.09344 0.53622 1.00919
 H156 H -0.00980 0.54648 0.93336
 H157 H 0.02528 0.59564 0.88979
 H158 H 0.12972 0.58806 0.96986
 H159 H -0.04588 0.44339 1.03462
 H160 H -0.08092 0.38484 1.00344
 H161 H -0.02670 0.41801 0.88833
 H162 H 0.00812 0.47470 0.92225
 C163 C 0.09597 0.43238 1.09562
 C164 C -0.07340 0.59687 1.07574
 C165 C -0.05674 0.39647 0.94315
 C166 C 0.08080 0.59687 0.92614
 C167 C 1.06511 -0.02773 0.52606
 H168 H 1.07936 -0.00903 0.50306
 C169 C 1.08935 -0.05141 0.55173
 H170 H 1.12214 -0.05114 0.54778
 C171 C 1.00527 -0.05043 0.55958
 H172 H 0.97243 -0.04943 0.56265
 C173 C 1.02832 -0.07472 0.58576
 H174 H 1.01294 -0.09212 0.60915
 N175 N 1.02382 -0.02808 0.53007
 C176 C 1.02235 0.07574 0.45836
 H177 H 1.00520 0.09253 0.48085
 C178 C 1.04380 0.09695 0.42834
 H179 H 1.04361 0.13001 0.42875
 C180 C 1.04296 0.01240 0.43026
 H181 H 1.04183 -0.02062 0.43089
 C182 C 1.06473 0.03233 0.39971
 H183 H 1.08021 0.01429 0.37686
 Zn184 Zn 0.99031 0.00415 0.49606
 N185 N 1.02229 0.03421 0.45873
 C186 C 0.98062 0.06353 0.55621
 N187 N 0.95976 0.03938 0.52989
 C188 C 0.91831 0.03864 0.52966
 C189 C 0.89619 0.06306 0.55654
 C190 C 0.95971 0.08843 0.58364
 C191 C 0.95595 -0.07075 0.46857
 C192 C 0.93236 -0.09500 0.44288
 C193 C 0.90805 -0.03379 0.40987
 C194 C 0.93201 -0.01070 0.43626
 N195 N 0.95536 -0.02938 0.46484
 H196 H 1.01360 0.06289 0.55627
 H197 H 0.90227 0.01864 0.50912
 H198 H 0.86319 0.06205 0.55587
 H199 H 0.97697 0.10663 0.60495
 H200 H 0.97536 -0.08516 0.49080
 H201 H 0.93330 -0.12788 0.44626
 H202 H 0.89090 -0.01834 0.38646
 H203 H 0.93281 0.02221 0.43337
 C204 C 1.06500 0.07521 0.39814
 C205 C 1.07097 -0.07560 0.58186
 C206 C 0.90828 -0.07656 0.41278
 C207 C 0.91687 0.08827 0.58418
 C208 C 0.12366 0.35627 1.17735
 C209 C 0.16180 0.34142 1.16430
 C210 C 0.18203 0.36458 1.13397
 C211 C 0.16186 0.39649 1.11347
 C212 C 0.12105 0.40633 1.12277
 C213 C 0.10396 0.38784 1.15708
 C214 C 0.06293 0.36903 1.16241
 C215 C 0.08418 0.33433 1.18437
 H216 H 0.21265 0.35713 1.12436
 H217 H 0.17745 0.41175 1.08876
 H218 H 0.04893 0.35965 1.13315
 H219 H 0.04296 0.38753 1.18256
 H220 H 0.08249 0.30476 1.16786
 H221 H 0.07595 0.33279 1.21708
 C222 C -0.10863 0.67336 1.15448
 C223 C -0.14665 0.68691 1.14005
 C224 C -0.15831 0.67303 1.10096
 C225 C -0.13444 0.64430 1.07959
 C226 C -0.09824 0.62853 1.09651
 C227 C -0.08522 0.64526 1.13325
 C228 C -0.07176 0.62390 1.17085
 C229 C -0.09748 0.65437 1.19430
 H230 H -0.18606 0.68344 1.08672
 H231 H -0.14473 0.63403 1.05012
 H232 H -0.03850 0.62746 1.17624
 H233 H -0.08334 0.59204 1.17281
 H234 H -0.07878 0.67503 1.21348
 H235 H -0.12407 0.64026 1.20991
 C236 C -0.13428 0.31433 0.91776
 C237 C -0.11844 0.29630 0.88235
 C238 C -0.07815 0.30751 0.87132
 C239 C -0.05735 0.33881 0.89200
 C240 C -0.07613 0.36016 0.92416
 C241 C -0.11370 0.34533 0.93794
 C242 C -0.15199 0.36802 0.94726
 C243 C -0.17466 0.33434 0.92513
 H244 H -0.06257 0.29305 0.84626
 H245 H -0.02703 0.34701 0.88187
 H246 H -0.15359 0.39810 0.93164
 H247 H -0.15860 0.36877 0.98035
 H248 H -0.18946 0.34482 0.89662
 H249 H -0.19449 0.31603 0.94560
 C250 C 0.16314 0.66785 0.88469
 C251 C 0.14210 0.69261 0.85697
 C252 C 0.09913 0.68900 0.85641
 C253 C 0.07906 0.65915 0.87982
 C254 C 0.10126 0.63086 0.90358
 C255 C 0.14337 0.63763 0.90688
 C256 C 0.17805 0.60844 0.90206
 C257 C 0.19968 0.64144 0.87787
 H258 H 0.08062 0.70914 0.83808
 H259 H 0.04617 0.65821 0.87844
 H260 H 0.16981 0.58123 0.88363
 H261 H 0.19332 0.60161 0.93137
 H262 H 0.20412 0.63341 0.84537
 H263 H 0.22721 0.65349 0.89341
 C264 C 1.14274 0.10111 0.31657
 C265 C 1.13157 0.14064 0.30410
 C266 C 1.09404 0.15588 0.31932
 C267 C 1.07169 0.13419 0.34882
 C268 C 1.08615 0.09676 0.36439
 C269 C 1.12068 0.07994 0.34580
 C270 C 1.15810 0.06247 0.36470
 C271 C 1.18240 0.08566 0.33292
 H272 H 1.08180 0.18478 0.30930
 H273 H 1.04357 0.14736 0.36003
 H274 H 1.15984 0.02877 0.36097
 H275 H 1.16313 0.07373 0.39613
 H276 H 1.19830 0.06511 0.31120
 H277 H 1.20160 0.11041 0.34586
 C278 C 1.15628 -0.10917 0.65180
 C279 C 1.14067 -0.14463 0.67031
 C280 C 1.10432 -0.16085 0.65352
 C281 C 1.08252 -0.13948 0.62344
 C282 C 1.09626 -0.10130 0.60913
 C283 C 1.13468 -0.08826 0.62208
 C284 C 1.14744 -0.04750 0.63760
 C285 C 1.17096 -0.07010 0.67028
 H286 H 1.09166 -0.18940 0.66404
 H287 H 1.05415 -0.15225 0.61249
 H288 H 1.12145 -0.02932 0.64963
 H289 H 1.16748 -0.03114 0.61575
 H290 H 1.15864 -0.06506 0.70135
 H291 H 1.20450 -0.06625 0.66727
 C292 C 0.82662 -0.11336 0.34023
 C293 C 0.84238 -0.14885 0.32229
 C294 C 0.88126 -0.16128 0.33717
 C295 C 0.90231 -0.13827 0.36696
 C296 C 0.88557 -0.10191 0.38318
 C297 C 0.84722 -0.09112 0.36856
 C298 C 0.81474 -0.05961 0.37222
 C299 C 0.79145 -0.08433 0.34015
 H300 H 0.89621 -0.18843 0.32608
 H301 H 0.93220 -0.14855 0.37643
 H302 H 0.82453 -0.02914 0.36103
 H303 H 0.80001 -0.05986 0.40262
 H304 H 0.78829 -0.06796 0.31075
 H305 H 0.76304 -0.09852 0.35204
 C306 C 0.83900 0.11715 0.66417
 C307 C 0.85638 0.15162 0.68284
 C308 C 0.89003 0.16974 0.66262
 C309 C 0.90840 0.15062 0.62890
 C310 C 0.89379 0.11287 0.61437
 C311 C 0.85725 0.09842 0.63097
 C312 C 0.84666 0.05659 0.64539
 C313 C 0.82683 0.07679 0.68184
 H314 H 0.90343 0.19786 0.67330
 H315 H 0.93514 0.16455 0.61546
 H316 H 0.87400 0.03810 0.65324
 H317 H 0.82441 0.04126 0.62507
 H318 H 0.84263 0.07003 0.71092
 H319 H 0.79319 0.07262 0.68248
 C320 C 0.33921 1.16172 0.10921
 C321 C 0.30550 1.14260 0.12693
 C322 C 0.29869 1.10124 0.11739
 C323 C 0.32767 1.07893 0.09489
 C324 C 0.36466 1.09722 0.08216
 C325 C 0.36817 1.13957 0.08769
 C326 C 0.40245 1.16418 0.10472
 C327 C 0.37066 1.18843 0.12818
 H328 H 0.27160 1.08586 0.12829
 H329 H 0.32144 1.04710 0.08878
 H330 H 0.41817 1.18258 0.08106
 H331 H 0.42291 1.14583 0.12451
 H332 H 0.36802 1.22065 0.11787
 H333 H 0.37266 1.18423 0.16161
 C334 C 0.67287 1.10251 -0.15065
 C335 C 0.68634 1.14046 -0.13644
 C336 C 0.66336 1.15903 -0.10521
 C337 C 0.63133 1.13769 -0.08594
 C338 C 0.62165 1.09723 -0.09735
 C339 C 0.64150 1.08153 -0.13163
 C340 C 0.66194 1.04123 -0.13761
 C341 C 0.69635 1.06421 -0.15844
 H342 H 0.67087 1.18938 -0.09467
 H343 H 0.61517 1.15246 -0.06134
 H344 H 0.64466 1.02112 -0.15860
 H345 H 0.67117 1.02674 -0.10851
 H346 H 0.69879 1.05722 -0.19135
 H347 H 0.72560 1.06311 -0.14145
 C348 C 0.33190 0.89450 -0.17022
 C349 C 0.33003 0.85189 -0.17008
 C350 C 0.36132 0.83059 -0.14988
 C351 C 0.39056 0.85182 -0.12667
 C352 C 0.38844 0.89482 -0.12222
 C353 C 0.36003 0.91537 -0.14670
 C354 C 0.32960 0.94767 -0.13594
 C355 C 0.29897 0.92478 -0.16185
 H356 H 0.36211 0.79754 -0.15061
 H357 H 0.41355 0.83415 -0.11106
 H358 H 0.33779 0.97799 -0.14877
 H359 H 0.32178 0.94774 -0.10308
 H360 H 0.28989 0.94179 -0.18961
 H361 H 0.27329 0.91156 -0.14410
 C362 C 0.64576 0.88209 0.16725
 C363 C 0.65808 0.84264 0.15611
 C364 C 0.63524 0.82293 0.12552
 C365 C 0.60549 0.84447 0.10327
 C366 C 0.59772 0.88611 0.11125
 C367 C 0.61631 0.90317 0.14546
 C368 C 0.63812 0.94289 0.14991
 C369 C 0.67046 0.91987 0.17369
 H370 H 0.64161 0.79160 0.11729
 H371 H 0.59008 0.82908 0.07860
 H372 H 0.62066 0.96498 0.16877
 H373 H 0.64937 0.95511 0.12045
 H374 H 0.67163 0.92894 0.20616
 H375 H 0.70051 0.91867 0.15804
   
