data_POSCAR
  _audit_creation_date              2014-09-24
  _audit_creation_method            'ToBaCCo'
  _symmetry_space_group_name_H-M    'P1'
  _symmetry_Int_Tables_number       1
  _symmetry_cell_setting            triclinic
  loop_
  _symmetry_equiv_pos_as_xyz
 x,y,z
_cell_length_a 49.0667
_cell_length_b 49.0867
_cell_length_c 48.9993
_cell_angle_alpha 89.999100
_cell_angle_beta 89.989400
_cell_angle_gamma 89.928100
loop_
  _atom_site_label
  _atom_site_type_symbol
  _atom_site_fract_x
  _atom_site_fract_y
  _atom_site_fract_z
C1 C 0.16952 0.16812 0.20314
 N2 N 0.19218 0.15691 0.19176
 C3 C 0.20358 0.16811 0.16911
 N4 N 0.19214 0.19069 0.15784
 C5 C 0.16950 0.20204 0.16905
 N6 N 0.15827 0.19070 0.19168
 C7 C -0.16867 0.83195 0.20314
 N8 N -0.19129 0.84318 0.19173
 C9 C -0.20270 0.83196 0.16909
 N10 N -0.19130 0.80933 0.15787
 C11 C -0.16870 0.79796 0.16912
 N12 N -0.15745 0.80932 0.19174
 C13 C -0.16941 0.16863 -0.20338
 N14 N -0.15822 0.19123 -0.19197
 C15 C -0.16947 0.20260 -0.16934
 N16 N -0.19207 0.19127 -0.15809
 C17 C -0.20346 0.16866 -0.16932
 N18 N -0.19203 0.15743 -0.19197
 C19 C 0.17010 0.83142 -0.20224
 N20 N 0.19271 0.84262 -0.19088
 C21 C 0.20415 0.83135 -0.16826
 N22 N 0.19277 0.80872 -0.15705
 C23 C 0.17016 0.79741 -0.16830
 N24 N 0.15889 0.80882 -0.19089
 C25 C 0.16839 1.16913 0.79673
 N26 N 0.19101 1.15790 0.80815
 C27 C 0.20237 1.16913 0.83077
 N28 N 0.19101 1.19174 0.84201
 C29 C 0.16839 1.20316 0.83079
 N30 N 0.15717 1.19176 0.80814
 C31 C 0.83229 0.83077 0.79657
 N32 N 0.80969 0.84199 0.80802
 C33 C 0.79834 0.83076 0.83064
 N34 N 0.80969 0.80814 0.84186
 C35 C 0.83230 0.79672 0.83060
 N36 N 0.84352 0.80812 0.80795
 C37 C 0.16890 0.83128 1.20329
 N38 N 0.19153 0.84246 1.19188
 C39 C 0.20293 0.83119 1.16928
 N40 N 0.19160 0.80859 1.15804
 C41 C 0.16898 0.79727 1.16928
 N42 N 0.15771 0.80866 1.19189
 C43 C 0.83189 1.16972 1.20313
 N44 N 0.80930 1.15851 1.19171
 C45 C 0.79793 1.16974 1.16908
 N46 N 0.80925 1.19234 1.15784
 C47 C 0.83185 1.20374 1.16907
 N48 N 0.84308 1.19235 1.19172
 N49 N 0.52916 1.02961 1.04831
 N50 N 0.54995 1.03301 1.06505
 N51 N 0.47172 1.04842 1.02941
 N52 N 0.45088 1.06513 1.03277
 N53 N 0.47180 1.02952 1.04838
 N54 N 0.45102 1.03284 1.06518
 N55 N 0.52908 1.04851 1.02933
 N56 N 0.54982 1.06529 1.03264
 C57 C 0.56260 1.05535 1.05501
 C58 C 0.43821 1.05513 1.05518
 N59 N 0.47170 1.02942 0.95169
 N60 N 0.45089 1.03272 0.93493
 N61 N 0.52903 1.04844 0.97055
 N62 N 0.54977 1.06521 0.96715
 N63 N 0.52906 1.02950 0.95162
 N64 N 0.54982 1.03286 0.93482
 N65 N 0.47166 1.04836 0.97062
 N66 N 0.45084 1.06507 0.96728
 Mn67 Mn 0.50037 1.04876 0.99998
 C68 C 0.43812 1.05505 0.94493
 C69 C 0.56250 1.05522 0.94477
 N70 N 0.47196 0.97085 1.04844
 N71 N 0.45119 0.96750 1.06522
 N72 N 0.52936 0.95200 1.02945
 N73 N 0.55019 0.93528 1.03281
 N74 N 0.52933 0.97094 1.04837
 N75 N 0.55012 0.96764 1.06514
 N76 N 0.47200 0.95191 1.02951
 N77 N 0.45125 0.93515 1.03288
 Mn78 Mn 0.50056 1.00023 1.04871
 C79 C 0.43851 0.94515 1.05525
 C80 C 0.56290 0.94531 1.05516
 N81 N 0.52923 0.97082 0.95169
 N82 N 0.55000 0.96748 0.93490
 N83 N 0.47193 0.95184 0.97074
 N84 N 0.45119 0.93506 0.96743
 N85 N 0.47186 0.97074 0.95176
 N86 N 0.45106 0.96734 0.93502
 N87 N 0.52929 0.95193 0.97067
 N88 N 0.55011 0.93520 0.96732
 Mn89 Mn 0.50046 1.00012 0.95136
 Mn90 Mn 0.50065 0.95159 1.00009
 Cl91 Cl 0.50051 1.00018 1.00003
 C92 C 0.56279 0.94517 0.94492
 C93 C 0.43841 0.94500 0.94507
 N94 N 0.02937 0.47105 0.04815
 N95 N 0.03268 0.45026 0.06492
 N96 N 0.04842 0.52834 0.02924
 N97 N 0.06519 0.54908 0.03260
 N98 N 0.02948 0.52839 0.04818
 N99 N 0.03283 0.54916 0.06495
 N100 N 0.04830 0.47101 0.02920
 N101 N 0.06502 0.45019 0.03254
 C102 C 0.05501 0.43749 0.05491
 C103 C 0.05520 0.56182 0.05497
 N104 N 0.02956 0.52845 -0.04850
 N105 N 0.03297 0.54926 -0.06523
 N106 N 0.04833 0.47103 -0.02958
 N107 N 0.06505 0.45020 -0.03294
 N108 N 0.02942 0.47111 -0.04854
 N109 N 0.03274 0.45034 -0.06533
 N110 N 0.04846 0.52836 -0.02953
 N111 N 0.06526 0.54908 -0.03282
 Mn112 Mn 0.04871 0.49968 -0.00017
 C113 C 0.05533 0.56188 -0.05518
 C114 C 0.05505 0.43753 -0.05533
 N115 N -0.02922 0.52859 0.04815
 N116 N -0.03253 0.54938 0.06493
 N117 N -0.04825 0.47132 0.02917
 N118 N -0.06503 0.45058 0.03253
 N119 N -0.02933 0.47126 0.04812
 N120 N -0.03270 0.45049 0.06490
 N121 N -0.04813 0.52866 0.02919
 N122 N -0.06484 0.54950 0.03254
 Mn123 Mn 0.00007 0.49982 0.04848
 C124 C -0.05484 0.56217 0.05493
 C125 C -0.05506 0.43783 0.05490
 N126 N -0.02928 0.47131 -0.04856
 N127 N -0.03266 0.45054 -0.06534
 N128 N -0.04809 0.52871 -0.02960
 N129 N -0.06480 0.54954 -0.03297
 N130 N -0.02915 0.52865 -0.04853
 N131 N -0.03243 0.54943 -0.06531
 N132 N -0.04821 0.47136 -0.02962
 N133 N -0.06500 0.45064 -0.03297
 Mn134 Mn 0.00014 0.49988 -0.04887
 Mn135 Mn -0.04851 0.50001 -0.00021
 Cl136 Cl 0.00010 0.49985 -0.00019
 C137 C -0.05503 0.43789 -0.05534
 C138 C -0.05476 0.56223 -0.05534
 N139 N 0.95187 -0.02894 0.47115
 N140 N 0.93512 -0.03228 0.45034
 N141 N 0.97080 -0.04790 0.52857
 N142 N 0.96748 -0.06468 0.54936
 N143 N 0.95184 -0.02899 0.52860
 N144 N 0.93509 -0.03238 0.54941
 N145 N 0.97082 -0.04786 0.47114
 N146 N 0.96749 -0.06460 0.45032
 C147 C 0.94513 -0.05461 0.43759
 C148 C 0.94513 -0.05474 0.56212
 N149 N 1.04839 -0.02897 0.52862
 N150 N 1.06515 -0.03232 0.54942
 N151 N 1.02952 -0.04786 0.47117
 N152 N 1.03289 -0.06461 0.45037
 N153 N 1.04843 -0.02895 0.47119
 N154 N 1.06520 -0.03231 0.45038
 N155 N 1.02950 -0.04790 0.52861
 N156 N 1.03287 -0.06465 0.54942
 Mn157 Mn 1.00016 -0.04821 0.49987
 C158 C 1.05520 -0.05466 0.56216
 C159 C 1.05524 -0.05464 0.43764
 N160 N 0.95177 0.02969 0.52862
 N161 N 0.93499 0.03302 0.54941
 N162 N 0.97072 0.04865 0.47120
 N163 N 0.96738 0.06543 0.45041
 N164 N 0.95181 0.02975 0.47117
 N165 N 0.93507 0.03313 0.45035
 N166 N 0.97067 0.04862 0.52864
 N167 N 0.96727 0.06535 0.54946
 Mn168 Mn 0.95149 0.00038 0.49988
 C169 C 0.94492 0.05535 0.56217
 C170 C 0.94506 0.05548 0.43764
 N171 N 1.04836 0.02971 0.47123
 N172 N 1.06514 0.03304 0.45044
 N173 N 1.02937 0.04861 0.52867
 N174 N 1.03269 0.06536 0.54948
 N175 N 1.04832 0.02970 0.52867
 N176 N 1.06506 0.03304 0.54949
 N177 N 1.02943 0.04864 0.47122
 N178 N 1.03280 0.06538 0.45040
 Mn179 Mn 1.04870 0.00037 0.49993
 Mn180 Mn 1.00005 0.04896 0.49993
 Cl181 Cl 1.00010 0.00038 0.49990
 C182 C 1.05517 0.05538 0.43769
 C183 C 1.05504 0.05538 0.56223
 C184 C 1.13546 0.13443 0.27190
 N185 N 1.12432 0.15692 0.26023
 N186 N 1.13535 0.16781 0.23792
 C187 C 1.15795 0.15664 0.22642
 N188 N 1.16906 0.13411 0.23810
 N189 N 1.15802 0.12322 0.26042
 C190 C 1.12335 0.12251 0.29657
 N191 N 1.13451 0.10006 0.30830
 N192 N 1.12357 0.08932 0.33074
 C193 C 1.10107 0.10063 0.34226
 N194 N 1.08990 0.12307 0.33051
 N195 N 1.10084 0.13381 0.30808
 C196 C 1.08908 0.08884 0.36705
 N197 N 1.06663 0.10019 0.37863
 N198 N 1.05580 0.08952 0.40116
 C199 C 1.06705 0.06714 0.41291
 N200 N 1.08947 0.05577 0.40134
 N201 N 1.10030 0.06643 0.37881
 C202 C 0.86529 -0.13418 0.27184
 N203 N 0.84276 -0.12299 0.26029
 N204 N 0.83177 -0.13395 0.23799
 C205 C 0.84289 -0.15652 0.22640
 N206 N 0.86545 -0.16767 0.23798
 N207 N 0.87644 -0.15671 0.26027
 C208 C 0.87734 -0.12217 0.29650
 N209 N 0.89983 -0.13341 0.30810
 N210 N 0.91070 -0.12259 0.33052
 C211 C 0.89948 -0.10012 0.34217
 N212 N 0.87701 -0.08886 0.33056
 N213 N 0.86614 -0.09969 0.30814
 C214 C 0.91140 -0.08824 0.36695
 N215 N 0.90013 -0.06582 0.37864
 N216 N 0.91089 -0.05510 0.40117
 C217 C 0.93330 -0.06641 0.41281
 N218 N 0.94460 -0.08881 0.40113
 N219 N 0.93384 -0.09954 0.37860
 C220 C 0.86465 0.13478 0.72790
 N221 N 0.84212 0.12360 0.73943
 N222 N 0.83109 0.13455 0.76173
 C223 C 0.84216 0.15710 0.77335
 N224 N 0.86472 0.16824 0.76180
 N225 N 0.87575 0.15729 0.73950
 C226 C 0.87675 0.12279 0.70325
 N227 N 0.89923 0.13404 0.69168
 N228 N 0.91016 0.12324 0.66926
 C229 C 0.89901 0.10079 0.65757
 N230 N 0.87654 0.08952 0.66915
 N231 N 0.86561 0.10033 0.69157
 C232 C 0.91099 0.08893 0.63280
 N233 N 0.89980 0.06652 0.62107
 N234 N 0.91062 0.05582 0.59855
 C235 C 0.93302 0.06714 0.58695
 N236 N 0.94424 0.08953 0.59866
 N237 N 0.93342 0.10024 0.62118
 C238 C 1.13540 -0.13410 0.72786
 N239 N 1.12430 -0.15662 0.73946
 N240 N 1.13534 -0.16757 0.76175
 C241 C 1.15788 -0.15641 0.77326
 N242 N 1.16897 -0.13387 0.76167
 N243 N 1.15793 -0.12292 0.73938
 C244 C 1.12329 -0.12211 0.70321
 N245 N 1.13443 -0.09964 0.69155
 N246 N 1.12350 -0.08883 0.66912
 C247 C 1.10105 -0.10010 0.65755
 N248 N 1.08990 -0.12256 0.66923
 N249 N 1.10083 -0.13337 0.69165
 C250 C 1.08907 -0.08825 0.63278
 N251 N 1.06666 -0.09957 0.62115
 N252 N 1.05585 -0.08886 0.59862
 C253 C 1.06707 -0.06646 0.58693
 N254 N 1.08946 -0.05513 0.59854
 N255 N 1.10027 -0.06583 0.62107
 C256 C 0.27237 1.13435 1.13518
 N257 N 0.26085 1.12317 1.15774
 N258 N 0.23852 1.13409 1.16873
 C259 C 0.22687 1.15661 1.15757
 N260 N 0.23841 1.16775 1.13498
 N261 N 0.26074 1.15683 1.12400
 C262 C 0.29704 1.12239 1.12312
 N263 N 0.30859 1.13364 1.10061
 N264 N 0.33103 1.12287 1.08972
 C265 C 0.34275 1.10045 1.10096
 N266 N 0.33120 1.08918 1.12346
 N267 N 0.30876 1.09996 1.13435
 C268 C 0.36755 1.08863 1.08901
 N269 N 0.37932 1.06625 1.10029
 N270 N 0.40185 1.05557 1.08949
 C271 C 0.41343 1.06690 1.06705
 N272 N 0.40168 1.08925 1.05575
 N273 N 0.37914 1.09993 1.06654
 C274 C 0.27283 0.86518 0.86559
 N275 N 0.26122 0.87637 0.84308
 N276 N 0.23893 0.86542 0.83212
 C277 C 0.22740 0.84286 0.84327
 N278 N 0.23904 0.83170 0.86582
 N279 N 0.26133 0.84265 0.87677
 C280 C 0.29747 0.87720 0.87759
 N281 N 0.30915 0.86599 0.90007
 N282 N 0.33156 0.87684 0.91089
 C283 C 0.34311 0.89931 0.89962
 N284 N 0.33143 0.91053 0.87716
 N285 N 0.30902 0.89968 0.86634
 C286 C 0.36787 0.91122 0.91148
 N287 N 0.37946 0.93364 0.90016
 N288 N 0.40196 0.94441 0.91087
 C289 C 0.41367 0.93314 0.93328
 N290 N 0.40209 0.91075 0.94463
 N291 N 0.37959 0.89997 0.93392
 C292 C 0.72861 0.86584 1.13511
 N293 N 0.74016 0.87703 1.15765
 N294 N 0.76245 0.86607 1.16865
 C295 C 0.77405 0.84350 1.15753
 N296 N 0.76248 0.83235 1.13496
 N297 N 0.74019 0.84331 1.12396
 C298 C 0.70397 0.87784 1.12305
 N299 N 0.69238 0.86659 1.10056
 N300 N 0.66996 0.87741 1.08968
 C301 C 0.65830 0.89988 1.10089
 N302 N 0.66990 0.91114 1.12337
 N303 N 0.69232 0.90032 1.13425
 C304 C 0.63353 0.91174 1.08895
 N305 N 0.62182 0.93416 1.10021
 N306 N 0.59929 0.94486 1.08943
 C307 C 0.58767 0.93353 1.06702
 N308 N 0.59937 0.91113 1.05574
 N309 N 0.62189 0.90042 1.06652
 C310 C 0.72791 1.13483 0.86467
 N311 N 0.73947 1.12365 0.84212
 N312 N 0.76174 1.13460 0.83111
 C313 C 0.77330 1.15715 0.84224
 N314 N 0.76172 1.16830 0.86482
 N315 N 0.73945 1.15735 0.87583
 C316 C 0.70329 1.12283 0.87674
 N317 N 0.69168 1.13407 0.89925
 N318 N 0.66930 1.12325 0.91014
 C319 C 0.65770 1.10078 0.89894
 N320 N 0.66931 1.08953 0.87644
 N321 N 0.69170 1.10036 0.86555
 C322 C 0.63296 1.08890 0.91090
 N323 N 0.62133 1.06647 0.89965
 N324 N 0.59886 1.05573 0.91046
 C325 C 0.58721 1.06704 0.93288
 N326 N 0.59883 1.08946 0.94415
 N327 N 0.62131 1.10019 0.93335
 C328 C 0.13487 0.27187 0.13451
 N329 N 0.12372 0.26031 0.15706
 N330 N 0.13474 0.23803 0.16804
 C331 C 0.15730 0.22651 0.15686
 N332 N 0.16844 0.23807 0.13430
 N333 N 0.15742 0.26034 0.12332
 C334 C 0.12280 0.29650 0.12250
 N335 N 0.13400 0.30812 0.10000
 N336 N 0.12312 0.33053 0.08917
 C337 C 0.10064 0.34213 0.10044
 N338 N 0.08944 0.33049 0.12293
 N339 N 0.10032 0.30809 0.13376
 C340 C 0.08872 0.36689 0.08856
 N341 N 0.06630 0.37856 0.09988
 N342 N 0.05554 0.40107 0.08915
 C343 C 0.06683 0.41273 0.06673
 N344 N 0.08922 0.40107 0.05539
 N345 N 0.09998 0.37856 0.06612
 C346 C -0.13497 0.27247 -0.13490
 N347 N -0.12381 0.26087 -0.15744
 N348 N -0.13478 0.23859 -0.16839
 C349 C -0.15732 0.22710 -0.15719
 N350 N -0.16847 0.23869 -0.13464
 N351 N -0.15749 0.26097 -0.12369
 C352 C -0.12292 0.29709 -0.12290
 N353 N -0.13412 0.30876 -0.10041
 N354 N -0.12325 0.33115 -0.08960
 C355 C -0.10078 0.34269 -0.10087
 N356 N -0.08957 0.33102 -0.12335
 N357 N -0.10044 0.30863 -0.13417
 C358 C -0.08885 0.36743 -0.08900
 N359 N -0.06641 0.37901 -0.10032
 N360 N -0.05562 0.40148 -0.08958
 C361 C -0.06690 0.41318 -0.06716
 N362 N -0.08931 0.40161 -0.05583
 N363 N -0.10010 0.37914 -0.06656
 C364 C 0.13557 0.72748 -0.13406
 N365 N 0.15811 0.73892 -0.12281
 N366 N 0.16912 0.76122 -0.13368
 C367 C 0.15799 0.77289 -0.15620
 N368 N 0.13545 0.76146 -0.16744
 N369 N 0.12444 0.73916 -0.15656
 C370 C 0.12349 0.70283 -0.12216
 N371 N 0.10101 0.69136 -0.13349
 N372 N 0.09009 0.66895 -0.12277
 C373 C 0.10125 0.65718 -0.10032
 N374 N 0.12372 0.66865 -0.08898
 N375 N 0.13464 0.69107 -0.09970
 C376 C 0.08927 0.63242 -0.08856
 N377 N 0.10046 0.62062 -0.06614
 N378 N 0.08963 0.59812 -0.05550
 C379 C 0.06723 0.58661 -0.06691
 N380 N 0.05601 0.59839 -0.08931
 N381 N 0.06684 0.62090 -0.09995
 C382 C -0.13426 0.72798 0.13464
 N383 N -0.12308 0.73953 0.15718
 N384 N -0.13403 0.76185 0.16814
 C385 C -0.15655 0.77343 0.15696
 N386 N -0.16772 0.76189 0.13441
 N387 N -0.15678 0.73957 0.12345
 C388 C -0.12227 0.70331 0.12262
 N389 N -0.13351 0.69173 0.10012
 N390 N -0.12270 0.66929 0.08928
 C391 C -0.10026 0.65762 0.10054
 N392 N -0.08901 0.66921 0.12302
 N393 N -0.09982 0.69165 0.13386
 C394 C -0.08840 0.63282 0.08864
 N395 N -0.06601 0.62110 0.09994
 N396 N -0.05531 0.59856 0.08919
 C397 C -0.06662 0.58695 0.06676
 N398 N -0.08899 0.59866 0.05544
 N399 N -0.09969 0.62120 0.06619
 C400 C 1.13454 0.13520 0.72801
 N401 N 1.12335 0.15773 0.73955
 N402 N 1.13431 0.16872 0.76186
 C403 C 1.15687 0.15759 0.77347
 N404 N 1.16802 0.13502 0.76190
 N405 N 1.15707 0.12404 0.73959
 C406 C 1.12254 0.12316 0.70335
 N407 N 1.13379 0.10068 0.69175
 N408 N 1.12298 0.08982 0.66932
 C409 C 1.10051 0.10103 0.65766
 N410 N 1.08924 0.12350 0.66927
 N411 N 1.10006 0.13436 0.69170
 C412 C 1.08864 0.08911 0.63288
 N413 N 1.06621 0.10037 0.62118
 N414 N 1.05550 0.08961 0.59865
 C415 C 1.06683 0.06721 0.58701
 N416 N 1.08924 0.05593 0.59869
 N417 N 1.09996 0.06669 0.62122
 C418 C 0.86601 -0.13515 0.72784
 N419 N 0.84350 -0.12403 0.73949
 N420 N 0.83259 -0.13507 0.76180
 C421 C 0.84378 -0.15765 0.77330
 N422 N 0.86633 -0.16874 0.76162
 N423 N 0.87724 -0.15770 0.73931
 C424 C 0.87794 -0.12302 0.70318
 N425 N 0.90042 -0.13415 0.69145
 N426 N 0.91117 -0.12320 0.66902
 C427 C 0.89985 -0.10072 0.65751
 N428 N 0.87738 -0.08958 0.66925
 N429 N 0.86663 -0.10053 0.69167
 C430 C 0.91165 -0.08870 0.63273
 N431 N 0.90028 -0.06627 0.62115
 N432 N 0.91095 -0.05543 0.59863
 C433 C 0.93336 -0.06664 0.58688
 N434 N 0.94475 -0.08905 0.59845
 N435 N 0.93408 -0.09989 0.62096
 C436 C 1.13495 -0.13467 0.27195
 N437 N 1.15748 -0.12356 0.26038
 N438 N 1.16847 -0.13458 0.23809
 C439 C 1.15734 -0.15714 0.22653
 N440 N 1.13477 -0.16822 0.23814
 N441 N 1.12379 -0.15719 0.26042
 C442 C 1.12292 -0.12258 0.29660
 N443 N 1.10044 -0.13374 0.30824
 N444 N 1.08960 -0.12284 0.33066
 C445 C 1.10084 -0.10038 0.34225
 N446 N 1.12330 -0.08921 0.33059
 N447 N 1.13415 -0.10011 0.30818
 C448 C 1.08894 -0.08843 0.36702
 N449 N 1.10022 -0.06602 0.37867
 N450 N 1.08947 -0.05523 0.40119
 C451 C 1.06707 -0.06649 0.41287
 N452 N 1.05577 -0.08887 0.40123
 N453 N 1.06652 -0.09966 0.37871
 C454 C 0.86571 0.13570 0.27188
 N455 N 0.84321 0.12459 0.26025
 N456 N 0.83227 0.13560 0.23795
 C457 C 0.84341 0.15816 0.22641
 N458 N 0.86595 0.16925 0.23805
 N459 N 0.87688 0.15823 0.26036
 C460 C 0.87768 0.12360 0.29654
 N461 N 0.90013 0.13475 0.30824
 N462 N 0.91092 0.12383 0.33067
 C463 C 0.89966 0.10136 0.34222
 N464 N 0.87722 0.09020 0.33051
 N465 N 0.86643 0.10113 0.30808
 C466 C 0.91150 0.08938 0.36701
 N467 N 0.90019 0.06695 0.37861
 N468 N 0.91089 0.05613 0.40114
 C469 C 0.93327 0.06736 0.41287
 N470 N 0.94459 0.08976 0.40128
 N471 N 0.93390 0.10058 0.37875
 C472 C 0.13453 0.27185 -0.13526
 N473 N 0.12335 0.26032 -0.15781
 N474 N 0.13431 0.23802 -0.16880
 C475 C 0.15686 0.22641 -0.15766
 N476 N 0.16801 0.23797 -0.13508
 N477 N 0.15705 0.26026 -0.12409
 C478 C 0.12253 0.29649 -0.12321
 N479 N 0.13376 0.30806 -0.10070
 N480 N 0.12294 0.33048 -0.08983
 C481 C 0.10049 0.34215 -0.10106
 N482 N 0.08925 0.33058 -0.12355
 N483 N 0.10006 0.30816 -0.13443
 C484 C 0.08863 0.36693 -0.08913
 N485 N 0.06623 0.37866 -0.10041
 N486 N 0.05552 0.40118 -0.08963
 C487 C 0.06683 0.41277 -0.06719
 N488 N 0.08921 0.40105 -0.05588
 N489 N 0.09992 0.37853 -0.06666
 C490 C -0.13443 0.27238 0.13504
 N491 N -0.12322 0.26087 0.15760
 N492 N -0.13413 0.23859 0.16862
 C493 C -0.15667 0.22698 0.15750
 N494 N -0.16785 0.23853 0.13491
 N495 N -0.15694 0.26080 0.12389
 C496 C -0.12248 0.29701 0.12295
 N497 N -0.13376 0.30857 0.10044
 N498 N -0.12297 0.33096 0.08953
 C499 C -0.10052 0.34261 0.10072
 N500 N -0.08923 0.33104 0.12321
 N501 N -0.10002 0.30865 0.13413
 C502 C -0.08868 0.36735 0.08875
 N503 N -0.06625 0.37901 0.10000
 N504 N -0.05554 0.40149 0.08919
 C505 C -0.06688 0.41311 0.06677
 N506 N -0.08928 0.40147 0.05550
 N507 N -0.09999 0.37898 0.06630
 C508 C -0.13393 0.72799 -0.13544
 N509 N -0.15644 0.73961 -0.12428
 N510 N -0.16736 0.76191 -0.13527
 C511 C -0.15619 0.77345 -0.15786
 N512 N -0.13365 0.76180 -0.16899
 N513 N -0.12272 0.73950 -0.15799
 C514 C -0.12197 0.70333 -0.12336
 N515 N -0.09951 0.69162 -0.13455
 N516 N -0.08874 0.66919 -0.12365
 C517 C -0.10003 0.65765 -0.10116
 N518 N -0.12248 0.66936 -0.08996
 N519 N -0.13325 0.69179 -0.10086
 C520 C -0.08822 0.63286 -0.08920
 N521 N -0.09956 0.62127 -0.06675
 N522 N -0.08890 0.59875 -0.05594
 C523 C -0.06651 0.58700 -0.06721
 N524 N -0.05514 0.59858 -0.08964
 N525 N -0.06581 0.62111 -0.10044
 C526 C 0.13463 0.72736 0.13477
 N527 N 0.12341 0.73894 0.15729
 N528 N 0.13433 0.76123 0.16827
 C529 C 0.15687 0.77276 0.15712
 N530 N 0.16808 0.76119 0.13458
 N531 N 0.15716 0.73890 0.12361
 C532 C 0.12267 0.70272 0.12274
 N533 N 0.13394 0.69110 0.10026
 N534 N 0.12315 0.66869 0.08941
 C535 C 0.10068 0.65709 0.10062
 N536 N 0.08939 0.66872 0.12309
 N537 N 0.10019 0.69113 0.13395
 C538 C 0.08882 0.63233 0.08871
 N539 N 0.06639 0.62070 0.09998
 N540 N 0.05567 0.59821 0.08922
 C541 C 0.06701 0.58655 0.06681
 N542 N 0.08942 0.59816 0.05552
 N543 N 0.10014 0.62066 0.06628
 C544 C 0.27232 1.13462 0.86527
 N545 N 0.26076 1.12346 0.84273
 N546 N 0.23845 1.13443 0.83177
 C547 C 0.22689 1.15696 0.84294
 N548 N 0.23845 1.16812 0.86549
 N549 N 0.26075 1.15715 0.87646
 C550 C 0.29698 1.12261 0.87729
 N551 N 0.30860 1.13383 0.89977
 N552 N 0.33103 1.12300 0.91061
 C553 C 0.34267 1.10054 0.89936
 N554 N 0.33104 1.08930 0.87689
 N555 N 0.30861 1.10014 0.86605
 C556 C 0.36746 1.08866 0.91125
 N557 N 0.37915 1.06625 0.89996
 N558 N 0.40168 1.05553 0.91070
 C559 C 0.41333 1.06684 0.93311
 N560 N 0.40166 1.08923 0.94442
 N561 N 0.37912 1.09995 0.93368
 C562 C 0.27288 0.86559 1.13484
 N563 N 0.26136 0.84307 1.12366
 N564 N 0.23905 0.83213 1.13460
 C565 C 0.22745 0.84331 1.15713
 N566 N 0.23896 0.86584 1.16831
 N567 N 0.26126 0.87678 1.15736
 C568 C 0.29753 0.87758 1.12285
 N569 N 0.30910 0.90004 1.13409
 N570 N 0.33152 0.91087 1.12327
 C571 C 0.34319 0.89962 1.10081
 N572 N 0.33162 0.87716 1.08956
 N573 N 0.30920 0.86634 1.10038
 C574 C 0.36796 0.91149 1.08893
 N575 N 0.37967 0.90020 1.06651
 N576 N 0.40217 0.91094 1.05577
 C577 C 0.41377 0.93333 1.06708
 N578 N 0.40208 0.94465 1.08948
 N579 N 0.37958 0.93391 1.10022
 C580 C 0.72808 1.13522 1.13458
 N581 N 0.73967 1.12407 1.15712
 N582 N 0.76194 1.13505 1.16809
 C583 C 0.77344 1.15758 1.15691
 N584 N 0.76186 1.16872 1.13435
 N585 N 0.73959 1.15774 1.12338
 C586 C 0.70346 1.12319 1.12256
 N587 N 0.69181 1.13438 1.10007
 N588 N 0.66941 1.12352 1.08924
 C589 C 0.65785 1.10106 1.10051
 N590 N 0.66951 1.08986 1.12299
 N591 N 0.69191 1.10072 1.13382
 C592 C 0.63311 1.08914 1.08863
 N593 N 0.62151 1.06673 1.09996
 N594 N 0.59902 1.05595 1.08923
 C595 C 0.58733 1.06721 1.06681
 N596 N 0.59891 1.08961 1.05546
 N597 N 0.62140 1.10038 1.06619
 C598 C 0.72844 0.86534 0.86519
 N599 N 0.74000 0.87648 0.84263
 N600 N 0.76229 0.86549 0.83165
 C601 C 0.77383 0.84295 0.84283
 N602 N 0.76228 0.83181 0.86540
 N603 N 0.73999 0.84281 0.87638
 C604 C 0.70380 0.87739 0.87722
 N605 N 0.69219 0.86620 0.89973
 N606 N 0.66977 0.87708 0.91057
 C607 C 0.65815 0.89953 0.89930
 N608 N 0.66977 0.91072 0.87680
 N609 N 0.69219 0.89985 0.86596
 C610 C 0.63338 0.91145 0.91120
 N611 N 0.62169 0.93384 0.89988
 N612 N 0.59918 0.94460 0.91063
 C613 C 0.58755 0.93334 0.93308
 N614 N 0.59922 0.91097 0.94442
 N615 N 0.62174 0.90021 0.93367
   
