data_POSCAR
  _audit_creation_date              2014-09-24
  _audit_creation_method            'ToBaCCo'
  _symmetry_space_group_name_H-M    'P1'
  _symmetry_Int_Tables_number       1
  _symmetry_cell_setting            triclinic
  loop_
  _symmetry_equiv_pos_as_xyz
 x,y,z
_cell_length_a 55.1259
_cell_length_b 55.7456
_cell_length_c 55.5513
_cell_angle_alpha 90.428900
_cell_angle_beta 89.791500
_cell_angle_gamma 89.629900
loop_
  _atom_site_label
  _atom_site_type_symbol
  _atom_site_fract_x
  _atom_site_fract_y
  _atom_site_fract_z
C1 C 0.72868 0.66569 0.97116
 H2 H 0.74621 0.66486 0.96237
 C3 C 0.70978 0.67892 0.96088
 H4 H 0.71305 0.68839 0.94426
 C5 C 0.70287 0.65325 1.00282
 H6 H 0.69997 0.64268 1.01876
 C7 C 0.68354 0.66627 0.99324
 H8 H 0.66609 0.66569 1.00221
 N9 N 0.72486 0.65302 0.99163
 C10 C 0.79428 0.63543 1.02452
 H11 H 0.79110 0.61650 1.02719
 C12 C 0.81592 0.64560 1.03225
 H13 H 0.82920 0.63428 1.04099
 C14 C 0.78057 0.67288 1.00971
 H15 H 0.76670 0.68338 1.00091
 C16 C 0.80205 0.68387 1.01726
 H17 H 0.80449 0.70285 1.01416
 Zn18 Zn 0.74961 0.63211 1.00259
 N19 N 0.77731 0.64898 1.01316
 C20 C 0.78196 0.61111 0.96911
 N21 N 0.75843 0.61171 0.97651
 C22 C 0.74100 0.59943 0.96436
 C23 C 0.74703 0.58599 0.94377
 C24 C 0.78879 0.59779 0.94888
 C25 C 0.73469 0.62707 1.04990
 C26 C 0.72661 0.61567 1.07064
 C27 C 0.72644 0.57813 1.04855
 C28 C 0.73461 0.59035 1.02819
 N29 N 0.73827 0.61442 1.02919
 H30 H 0.79551 0.62141 0.97848
 H31 H 0.72234 0.60053 0.97037
 H32 H 0.73289 0.57660 0.93413
 H33 H 0.80762 0.59793 0.94329
 H34 H 0.73807 0.64616 1.05022
 H35 H 0.72384 0.62649 1.08671
 H36 H 0.72353 0.55898 1.04709
 H37 H 0.73798 0.58059 1.01163
 C38 C 0.82017 0.67010 1.02850
 C39 C 0.68670 0.67898 0.97174
 C40 C 0.72215 0.59077 1.07031
 C41 C 0.77122 0.58520 0.93572
 C42 C 0.72977 0.33979 0.52010
 H43 H 0.74715 0.33865 0.52902
 C44 C 0.71004 0.32679 0.52886
 H45 H 0.71252 0.31551 0.54445
 C46 C 0.70528 0.35677 0.48961
 H47 H 0.70323 0.36895 0.47474
 C48 C 0.68513 0.34410 0.49772
 H49 H 0.66794 0.34655 0.48868
 N50 N 0.72703 0.35452 0.50089
 C51 C 0.79870 0.36959 0.47146
 H52 H 0.79714 0.38894 0.47105
 C53 C 0.81961 0.35838 0.46268
 H54 H 0.83403 0.36936 0.45552
 C55 C 0.78144 0.33206 0.48119
 H56 H 0.76640 0.32193 0.48826
 C57 C 0.80210 0.32003 0.47249
 H58 H 0.80278 0.30063 0.47306
 Zn59 Zn 0.75316 0.37443 0.49177
 N60 N 0.78027 0.35644 0.48071
 C61 C 0.78490 0.39066 0.52800
 N62 N 0.76204 0.39283 0.51914
 C63 C 0.74507 0.40667 0.53055
 C64 C 0.75096 0.41924 0.55162
 C65 C 0.79156 0.40288 0.54889
 C66 C 0.73996 0.38250 0.44462
 C67 C 0.73257 0.39510 0.42434
 C68 C 0.73314 0.43167 0.44797
 C69 C 0.74067 0.41831 0.46785
 N70 N 0.74354 0.39411 0.46588
 H71 H 0.79798 0.37906 0.51919
 H72 H 0.72685 0.40770 0.52343
 H73 H 0.73718 0.43007 0.56050
 H74 H 0.80987 0.40069 0.55556
 H75 H 0.74264 0.36327 0.44353
 H76 H 0.72955 0.38532 0.40773
 H77 H 0.73063 0.45086 0.44992
 H78 H 0.74404 0.42726 0.48481
 C79 C 0.82158 0.33326 0.46313
 C80 C 0.68724 0.32911 0.51782
 C81 C 0.72882 0.42001 0.42587
 C82 C 0.77450 0.41734 0.56109
 C83 C 0.22990 -0.15837 0.01713
 H84 H 0.24742 -0.15946 0.02578
 C85 C 0.21021 -0.17099 0.02652
 H86 H 0.21285 -0.18193 0.04233
 C87 C 0.20503 -0.14187 -0.01332
 H88 H 0.20284 -0.13000 -0.02843
 C89 C 0.18492 -0.15416 -0.00459
 H90 H 0.16760 -0.15176 -0.01339
 N91 N 0.22695 -0.14405 -0.00236
 C92 C 0.29789 -0.12998 -0.03396
 H93 H 0.29623 -0.11067 -0.03504
 C94 C 0.31863 -0.14142 -0.04281
 H95 H 0.33283 -0.13066 -0.05071
 C96 C 0.28108 -0.16718 -0.02234
 H97 H 0.26630 -0.17709 -0.01447
 C98 C 0.30160 -0.17943 -0.03105
 H99 H 0.30243 -0.19878 -0.02969
 Zn100 Zn 0.25305 -0.12451 -0.01236
 N101 N 0.27978 -0.14285 -0.02372
 C102 C 0.28589 -0.10768 0.02258
 N103 N 0.26270 -0.10577 0.01451
 C104 C 0.24601 -0.09200 0.02639
 C105 C 0.25248 -0.07934 0.04723
 C106 C 0.29313 -0.09532 0.04318
 C107 C 0.23896 -0.11693 -0.05933
 C108 C 0.23120 -0.10454 -0.07959
 C109 C 0.23238 -0.06771 -0.05636
 C110 C 0.24027 -0.08092 -0.03651
 N111 N 0.24299 -0.10512 -0.03828
 H112 H 0.29877 -0.11919 0.01339
 H113 H 0.22755 -0.09116 0.01987
 H114 H 0.23890 -0.06863 0.05654
 H115 H 0.31166 -0.09735 0.04926
 H116 H 0.24158 -0.13616 -0.06027
 H117 H 0.22794 -0.11473 -0.09593
 H118 H 0.23008 -0.04849 -0.05427
 H119 H 0.24402 -0.07183 -0.01970
 C120 C 0.32080 -0.16648 -0.04135
 C121 C 0.18724 -0.16870 0.01582
 C122 C 0.22744 -0.07949 -0.07839
 C123 C 0.27633 -0.08103 0.05594
 C124 C 0.22689 0.16518 0.46800
 H125 H 0.24430 0.16448 0.45896
 C126 C 0.20787 0.17865 0.45825
 H127 H 0.21093 0.18845 0.44178
 C128 C 0.20150 0.15217 0.49976
 H129 H 0.19878 0.14130 0.51552
 C130 C 0.18207 0.16542 0.49072
 H131 H 0.16475 0.16471 0.49993
 N132 N 0.22333 0.15211 0.48827
 C133 C 0.29325 0.13345 0.51961
 H134 H 0.29006 0.11445 0.52172
 C135 C 0.31501 0.14332 0.52738
 H136 H 0.32838 0.13170 0.53559
 C137 C 0.27939 0.17139 0.50625
 H138 H 0.26540 0.18220 0.49802
 C139 C 0.30099 0.18210 0.51388
 H140 H 0.30341 0.20119 0.51142
 Zn141 Zn 0.24813 0.13090 0.49858
 N142 N 0.27613 0.14740 0.50896
 C143 C 0.27970 0.11047 0.46404
 N144 N 0.25641 0.11070 0.47215
 C145 C 0.23882 0.09812 0.46056
 C146 C 0.24447 0.08460 0.43992
 C147 C 0.28615 0.09715 0.44369
 C148 C 0.23395 0.12566 0.54603
 C149 C 0.22574 0.11431 0.56675
 C150 C 0.22443 0.07696 0.54444
 C151 C 0.23277 0.08907 0.52408
 N152 N 0.23702 0.11306 0.52520
 H153 H 0.29335 0.12105 0.47295
 H154 H 0.22033 0.09896 0.46710
 H155 H 0.23021 0.07490 0.43079
 H156 H 0.30480 0.09753 0.43756
 H157 H 0.23773 0.14468 0.54644
 H158 H 0.22321 0.12485 0.58302
 H159 H 0.22089 0.05791 0.54317
 H160 H 0.23573 0.07933 0.50743
 C161 C 0.31923 0.16794 0.52445
 C162 C 0.18495 0.17855 0.46943
 C163 C 0.22068 0.08966 0.56612
 C164 C 0.26843 0.08411 0.43118
 C165 C 0.16673 0.47265 0.22854
 H166 H 0.16703 0.46341 0.24559
 C167 C 0.17886 0.46280 0.20859
 H168 H 0.18869 0.44606 0.21059
 C169 C 0.15235 0.50498 0.20499
 H170 H 0.14139 0.52099 0.20336
 C171 C 0.16424 0.49583 0.18467
 H172 H 0.16246 0.50524 0.16777
 N173 N 0.15356 0.49322 0.22632
 C174 C 0.13825 0.52332 0.29749
 H175 H 0.11889 0.52567 0.29525
 C176 C 0.14925 0.53067 0.31878
 H177 H 0.13812 0.53876 0.33278
 C178 C 0.17596 0.50985 0.28166
 H179 H 0.18622 0.50177 0.26707
 C180 C 0.18780 0.51704 0.30277
 H181 H 0.20721 0.51437 0.30423
 Zn182 Zn 0.13350 0.50338 0.25227
 N183 N 0.15155 0.51286 0.27960
 C184 C 0.11425 0.46848 0.28325
 N185 N 0.11337 0.47723 0.26049
 C186 C 0.09984 0.46634 0.24318
 C187 C 0.08646 0.44578 0.24854
 C188 C 0.10113 0.44815 0.28940
 C189 C 0.12777 0.55106 0.24007
 C190 C 0.11606 0.57204 0.23293
 C191 C 0.07819 0.55046 0.23230
 C192 C 0.09067 0.52983 0.23959
 N193 N 0.11508 0.53046 0.24294
 H194 H 0.12557 0.47685 0.29665
 H195 H 0.09982 0.47337 0.22508
 H196 H 0.07601 0.43721 0.23448
 H197 H 0.10240 0.44149 0.30761
 H198 H 0.14714 0.55107 0.24312
 H199 H 0.12668 0.58811 0.23046
 H200 H 0.05881 0.54956 0.22937
 H201 H 0.08087 0.51335 0.24237
 C202 C 0.17435 0.52748 0.32176
 C203 C 0.17730 0.47419 0.18614
 C204 C 0.09096 0.57190 0.22869
 C205 C 0.08716 0.43634 0.27193
 C206 C -0.16035 0.02241 0.23112
 H207 H -0.16132 0.03167 0.24828
 C208 C -0.17362 0.03097 0.21154
 H209 H -0.18493 0.04676 0.21408
 C210 C -0.14347 -0.00874 0.20703
 H211 H -0.13121 -0.02381 0.20510
 C212 C -0.15641 -0.00086 0.18702
 H213 H -0.15400 -0.01037 0.17010
 N214 N -0.14547 0.00302 0.22848
 C215 C -0.12880 -0.02477 0.29975
 H216 H -0.10925 -0.02520 0.29801
 C217 C -0.13975 -0.03310 0.32068
 H218 H -0.12836 -0.03994 0.33494
 C219 C -0.16712 -0.01546 0.28290
 H220 H -0.17766 -0.00872 0.26800
 C221 C -0.17890 -0.02374 0.30359
 H222 H -0.19852 -0.02320 0.30444
 Zn223 Zn -0.12483 -0.00553 0.25426
 N224 N -0.14248 -0.01594 0.28150
 C225 C -0.10811 0.03113 0.28518
 N226 N -0.10644 0.02192 0.26250
 C227 C -0.09306 0.03297 0.24524
 C228 C -0.08044 0.05402 0.25064
 C229 C -0.09579 0.05202 0.29135
 C230 C -0.11599 -0.05286 0.24183
 C231 C -0.10298 -0.07316 0.23454
 C232 C -0.06654 -0.04931 0.23377
 C233 C -0.08030 -0.02941 0.24127
 N234 N -0.10464 -0.03149 0.24474
 H235 H -0.11936 0.02260 0.29849
 H236 H -0.09245 0.02556 0.22719
 H237 H -0.06997 0.06259 0.23665
 H238 H -0.09757 0.05898 0.30952
 H239 H -0.13533 -0.05403 0.24495
 H240 H -0.11257 -0.08987 0.23203
 H241 H -0.04725 -0.04728 0.23074
 H242 H -0.07154 -0.01236 0.24412
 C243 C -0.16514 -0.03266 0.32287
 C244 C -0.17143 0.01960 0.18888
 C245 C -0.07794 -0.07153 0.23015
 C246 C -0.08178 0.06384 0.27399
 C247 C 0.34167 0.51770 0.73294
 H248 H 0.34083 0.52694 0.75012
 C249 C 0.32849 0.52645 0.71339
 H250 H 0.31738 0.54238 0.71579
 C251 C 0.35813 0.48637 0.70878
 H252 H 0.37020 0.47114 0.70680
 C253 C 0.34527 0.49445 0.68881
 H254 H 0.34747 0.48507 0.67179
 N255 N 0.35628 0.49811 0.73026
 C256 C 0.37191 0.46942 0.80135
 H257 H 0.39147 0.46865 0.79983
 C258 C 0.36055 0.46109 0.82208
 H259 H 0.37164 0.45390 0.83640
 C260 C 0.33396 0.47959 0.78416
 H261 H 0.32372 0.48665 0.76923
 C262 C 0.32179 0.47133 0.80463
 H263 H 0.30217 0.47223 0.80526
 Zn264 Zn 0.37665 0.48912 0.75608
 N265 N 0.35861 0.47868 0.78305
 C266 C 0.39363 0.52521 0.78751
 N267 N 0.39527 0.51631 0.76471
 C268 C 0.40872 0.52753 0.74762
 C269 C 0.42140 0.54847 0.75332
 C270 C 0.40601 0.54597 0.79397
 C271 C 0.38504 0.44179 0.74341
 C272 C 0.39782 0.42145 0.73583
 C273 C 0.43445 0.44502 0.73496
 C274 C 0.42093 0.46495 0.74278
 N275 N 0.39660 0.46304 0.74642
 H276 H 0.38233 0.51655 0.80070
 H277 H 0.40932 0.52037 0.72947
 H278 H 0.43190 0.55721 0.73945
 H279 H 0.40423 0.55270 0.81223
 H280 H 0.36571 0.44076 0.74665
 H281 H 0.38806 0.40485 0.73322
 H282 H 0.45373 0.44692 0.73176
 H283 H 0.42984 0.48192 0.74567
 C284 C 0.33515 0.46199 0.82398
 C285 C 0.33050 0.51499 0.69082
 C286 C 0.42283 0.42293 0.73120
 C287 C 0.42005 0.55800 0.77678
 C288 C 0.66720 0.96989 0.72957
 H289 H 0.66749 0.96062 0.74661
 C290 C 0.67969 0.96027 0.70973
 H291 H 0.68977 0.94368 0.71179
 C292 C 0.65252 1.00201 0.70594
 H293 H 0.64131 1.01785 0.70422
 C294 C 0.66475 0.99311 0.68572
 H295 H 0.66297 1.00251 0.66883
 N296 N 0.65370 0.99024 0.72726
 C297 C 0.63704 1.02011 0.79824
 H298 H 0.61765 1.02195 0.79585
 C299 C 0.64769 1.02793 0.81956
 H300 H 0.63612 1.03579 0.83333
 C301 C 0.67518 1.00757 0.78275
 H302 H 0.68575 0.99969 0.76825
 C303 C 0.68671 1.01524 0.80387
 H304 H 0.70618 1.01307 0.80530
 Zn305 Zn 0.63316 1.00005 0.75299
 N306 N 0.65073 1.00993 0.78050
 C307 C 0.61421 0.96479 0.78377
 N308 N 0.61342 0.97353 0.76100
 C309 C 0.60025 0.96242 0.74355
 C310 C 0.58717 0.94164 0.74878
 C311 C 0.60138 0.94424 0.78978
 C312 C 0.62677 1.04761 0.74075
 C313 C 0.61488 1.06835 0.73322
 C314 C 0.57743 1.04609 0.73170
 C315 C 0.59009 1.02572 0.73940
 N316 N 0.61439 1.02679 0.74335
 H317 H 0.62526 0.97335 0.79728
 H318 H 0.60032 0.96944 0.72545
 H319 H 0.57700 0.93291 0.73460
 H320 H 0.60256 0.93760 0.80801
 H321 H 0.64605 1.04798 0.74425
 H322 H 0.62527 1.08459 0.73094
 H323 H 0.55816 1.04484 0.72826
 H324 H 0.58053 1.00907 0.74196
 C325 C 0.67291 1.02553 0.82278
 C326 C 0.67815 0.97167 0.68728
 C327 C 0.58992 1.06774 0.72831
 C328 C 0.58777 0.93221 0.77217
 C329 C 0.01834 0.23314 -0.16032
 H330 H 0.02763 0.25016 -0.16099
 C331 C 0.02724 0.21352 -0.17356
 H332 H 0.04334 0.21571 -0.18452
 C333 C -0.01331 0.20946 -0.14434
 H334 H -0.02873 0.20768 -0.13247
 C335 C -0.00509 0.18944 -0.15727
 H336 H -0.01456 0.17262 -0.15530
 N337 N -0.00153 0.23075 -0.14598
 C338 C -0.03185 0.30182 -0.13115
 H339 H -0.03309 0.30058 -0.11175
 C340 C -0.04030 0.32231 -0.14271
 H341 H -0.04804 0.33674 -0.13196
 C342 C -0.02035 0.28420 -0.16845
 H343 H -0.01273 0.26920 -0.17838
 C344 C -0.02867 0.30442 -0.18082
 H345 H -0.02723 0.30479 -0.20025
 Zn346 Zn -0.01113 0.25677 -0.12588
 N347 N -0.02185 0.28342 -0.14402
 C348 C 0.02450 0.28841 -0.10807
 N349 N 0.01606 0.26558 -0.10701
 C350 C 0.02776 0.24855 -0.09391
 C351 C 0.04880 0.25430 -0.08111
 C352 C 0.04530 0.29494 -0.09552
 C353 C -0.05890 0.24399 -0.11805
 C354 C -0.07930 0.23611 -0.10561
 C355 C -0.05563 0.23588 -0.06905
 C356 C -0.03567 0.24391 -0.08229
 N357 N -0.03755 0.24732 -0.10641
 H358 H 0.01544 0.30158 -0.11904
 H359 H 0.02095 0.23040 -0.09372
 H360 H 0.05795 0.24046 -0.07096
 H361 H 0.05169 0.31321 -0.09687
 H362 H -0.05992 0.24710 -0.13722
 H363 H -0.09584 0.23333 -0.11569
 H364 H -0.05340 0.23294 -0.04993
 H365 H -0.01862 0.24707 -0.07331
 C366 C -0.03872 0.32389 -0.16789
 C367 C 0.01565 0.19119 -0.17188
 C368 C -0.07791 0.23147 -0.08072
 C369 C 0.05788 0.27778 -0.08192
 C370 C 0.46918 0.22719 0.17272
 H371 H 0.46000 0.24440 0.17286
 C372 C 0.45945 0.20799 0.18556
 H373 H 0.44287 0.21071 0.19574
 C374 C 0.50119 0.20247 0.15812
 H375 H 0.51699 0.20007 0.14681
 C376 C 0.49219 0.18288 0.17073
 H377 H 0.50149 0.16578 0.16911
 N378 N 0.48951 0.22402 0.15909
 C379 C 0.52014 0.29360 0.14132
 H380 H 0.52172 0.29071 0.12210
 C381 C 0.52809 0.31503 0.15150
 H382 H 0.53590 0.32845 0.13986
 C383 C 0.50792 0.27932 0.17954
 H384 H 0.50005 0.26529 0.19032
 C385 C 0.51577 0.30059 0.19055
 H386 H 0.51383 0.30273 0.20985
 Zn387 Zn 0.49936 0.24891 0.13827
 N388 N 0.50999 0.27642 0.15528
 C389 C 0.46349 0.28015 0.12055
 N390 N 0.47222 0.25731 0.11912
 C391 C 0.46066 0.24029 0.10583
 C392 C 0.43949 0.24607 0.09319
 C393 C 0.44256 0.28668 0.10824
 C394 C 0.54714 0.23520 0.13134
 C395 C 0.56787 0.22713 0.11928
 C396 C 0.54486 0.22598 0.08235
 C397 C 0.52450 0.23420 0.09517
 N398 N 0.52595 0.23826 0.11930
 H399 H 0.47237 0.29332 0.13172
 H400 H 0.46765 0.22211 0.10540
 H401 H 0.43043 0.23225 0.08287
 H402 H 0.43600 0.30497 0.10992
 H403 H 0.54781 0.23883 0.15048
 H404 H 0.58441 0.22456 0.12941
 H405 H 0.54332 0.22254 0.06321
 H406 H 0.50758 0.23715 0.08587
 C407 C 0.52586 0.31887 0.17642
 C408 C 0.47074 0.18532 0.18426
 C409 C 0.56689 0.22218 0.09448
 C410 C 0.43011 0.26955 0.09445
 C411 C 0.97156 0.72839 0.66754
 H412 H 0.96240 0.74561 0.66732
 C413 C 0.96140 0.70926 0.68014
 H414 H 0.94450 0.71205 0.68978
 C415 C 1.00400 0.70359 0.65409
 H416 H 1.02019 0.70114 0.64334
 C417 C 0.99457 0.68407 0.66647
 H418 H 1.00391 0.66696 0.66525
 N419 N 0.99235 0.72518 0.65463
 C420 C 1.02517 0.79415 0.63840
 H421 H 1.02813 0.79102 0.61937
 C422 C 1.03276 0.81554 0.64893
 H423 H 1.04169 0.82868 0.63777
 C424 C 1.00970 0.78061 0.67573
 H425 H 1.00067 0.76691 0.68602
 C426 C 1.01707 0.80187 0.68708
 H427 H 1.01360 0.80432 0.70613
 Zn428 Zn 1.00316 0.75005 0.63423
 N429 N 1.01356 0.77737 0.65171
 C430 C 0.96924 0.78211 0.61432
 N431 N 0.97685 0.75887 0.61419
 C432 C 0.96477 0.74178 0.60145
 C433 C 0.94406 0.74787 0.58824
 C434 C 0.94887 0.78899 0.60128
 C435 C 1.05104 0.73595 0.62846
 C436 C 1.07196 0.72777 0.61682
 C437 C 1.04968 0.72669 0.57944
 C438 C 1.02911 0.73501 0.59185
 N439 N 1.03012 0.73912 0.61599
 H440 H 0.97856 0.79539 0.62496
 H441 H 0.97094 0.72333 0.60198
 H442 H 0.93450 0.73400 0.57845
 H443 H 0.94313 0.80759 0.60198
 H444 H 1.05135 0.73960 0.64761
 H445 H 1.08829 0.72515 0.62726
 H446 H 1.04850 0.72324 0.56028
 H447 H 1.01238 0.73800 0.58223
 C448 C 1.02857 0.81979 0.67355
 C449 C 0.97272 0.68659 0.67934
 C450 C 1.07145 0.72283 0.59200
 C451 C 0.93580 0.77178 0.58819
 C452 C 0.52146 0.73190 0.33749
 H453 H 0.53078 0.74886 0.33620
 C454 C 0.52988 0.71199 0.32436
 H455 H 0.54562 0.71389 0.31285
 C456 C 0.49029 0.70863 0.35494
 H457 H 0.47527 0.70712 0.36734
 C458 C 0.49802 0.68835 0.34215
 H459 H 0.48857 0.67161 0.34476
 N460 N 0.50208 0.72985 0.35253
 C461 C 0.47243 0.80106 0.36794
 H462 H 0.47197 0.79983 0.38737
 C463 C 0.46340 0.82149 0.35671
 H464 H 0.45606 0.83581 0.36788
 C465 C 0.48251 0.78343 0.33027
 H466 H 0.48982 0.76843 0.32009
 C467 C 0.47359 0.80359 0.31819
 H468 H 0.47430 0.80378 0.29871
 Zn469 Zn 0.49324 0.75612 0.37265
 N470 N 0.48196 0.78267 0.35473
 C471 C 0.52952 0.78780 0.38886
 N472 N 0.52099 0.76504 0.39061
 C473 C 0.53286 0.74826 0.40387
 C474 C 0.55407 0.75424 0.41626
 C475 C 0.55051 0.79454 0.40097
 C476 C 0.44567 0.74375 0.38193
 C477 C 0.42559 0.73604 0.39498
 C478 C 0.45028 0.73570 0.43083
 C479 C 0.46994 0.74358 0.41705
 N480 N 0.46738 0.74696 0.39297
 H481 H 0.52032 0.80075 0.37775
 H482 H 0.52599 0.73015 0.40459
 H483 H 0.56331 0.74061 0.42664
 H484 H 0.55691 0.81276 0.39913
 H485 H 0.44412 0.74678 0.36278
 H486 H 0.40865 0.73318 0.38562
 H487 H 0.45275 0.73264 0.44989
 H488 H 0.48724 0.74662 0.42556
 C489 C 0.46387 0.82310 0.33143
 C490 C 0.51829 0.68973 0.32687
 C491 C 0.42780 0.73156 0.41972
 C492 C 0.56319 0.77768 0.41484
 C493 C 0.36060 0.00102 0.24637
 C494 C 0.12072 1.00808 0.74931
 C495 C 0.62336 0.50624 0.24955
 C496 C 0.86140 0.50473 0.74707
 C497 C 0.24727 0.36133 0.00350
 C498 C 0.75044 0.12232 1.00747
 C499 C 0.25509 0.62063 0.50845
 C500 C 0.75052 0.86376 0.50231
 C501 C 0.00348 0.25105 0.35769
 C502 C 1.00701 0.75016 0.12384
 C503 C 0.50611 0.24539 0.62202
 C504 C 0.50435 0.74730 0.85863
 N505 N 0.43622 -0.11844 0.32236
 C506 C 0.43615 -0.11685 0.29805
 N507 N 0.44545 -0.13523 0.28474
 N508 N 0.45456 -0.15461 0.29548
 C509 C 0.45463 -0.15637 0.31991
 N510 N 0.44529 -0.13778 0.33306
 C511 C 0.42548 -0.09627 0.28677
 C512 C 0.41583 -0.07888 0.27813
 C513 C 0.40349 -0.05824 0.26875
 N514 N 0.38839 -0.06046 0.24969
 N515 N 0.37544 -0.04172 0.24218
 C516 C 0.37707 -0.02000 0.25344
 N517 N 0.39237 -0.01792 0.27250
 N518 N 0.40532 -0.03667 0.28001
 N519 N 0.94419 0.36670 0.78424
 C520 C 0.93513 0.38538 0.79730
 N521 N 0.93477 0.38395 0.82162
 N522 N 0.94321 0.36448 0.83258
 C523 C 0.95228 0.34564 0.81966
 N524 N 0.95265 0.34719 0.79524
 C525 C 0.92510 0.40614 0.78574
 C526 C 0.91593 0.42372 0.77702
 C527 C 0.90405 0.44470 0.76778
 N528 N 0.90637 0.46609 0.77923
 N529 N 0.89350 0.48508 0.77220
 C530 C 0.87767 0.48339 0.75353
 N531 N 0.87582 0.46192 0.74185
 N532 N 0.88869 0.44293 0.74888
 N533 N 0.02459 1.12823 0.80834
 C534 C 0.04548 1.12954 0.79551
 N535 N 0.05630 1.15113 0.79281
 N536 N 0.04658 1.17081 0.80276
 C537 C 0.02572 1.16960 0.81580
 N538 N 0.01489 1.14791 0.81827
 C539 C 0.05682 1.10815 0.78616
 C540 C 0.06702 1.09033 0.77884
 C541 C 0.08013 1.06947 0.77065
 N542 N 0.06880 1.04815 0.76749
 N543 N 0.08135 1.02873 0.76058
 C544 C 0.10569 1.02997 0.75663
 N545 N 0.11687 1.05142 0.75990
 N546 N 0.10434 1.07078 0.76677
 N547 N 0.52631 0.62634 0.30816
 C548 C 0.54687 0.62723 0.29478
 N549 N 0.55776 0.64868 0.29136
 N550 N 0.54845 0.66863 0.30114
 C551 C 0.52791 0.66784 0.31473
 N552 N 0.51700 0.64628 0.31794
 C553 C 0.55773 0.60558 0.28548
 C554 C 0.56748 0.58753 0.27811
 C555 C 0.58002 0.56640 0.26972
 N556 N 0.59536 0.56771 0.25070
 N557 N 0.60849 0.54866 0.24398
 C558 C 0.60688 0.52756 0.25605
 N559 N 0.59111 0.52629 0.27491
 N560 N 0.57798 0.54537 0.28165
 N561 N 0.54212 0.36586 0.22098
 C562 C 0.55047 0.38353 0.20653
 N563 N 0.55054 0.38007 0.18239
 N564 N 0.54251 0.35961 0.17294
 C565 C 0.53419 0.34177 0.18725
 N566 N 0.53405 0.34536 0.21150
 C567 C 0.56067 0.40506 0.21645
 C568 C 0.57034 0.42303 0.22374
 C569 C 0.58327 0.44401 0.23135
 N570 N 0.57143 0.46473 0.23697
 N571 N 0.58384 0.48435 0.24296
 C572 C 0.60854 0.48396 0.24349
 N573 N 0.62018 0.46311 0.23771
 N574 N 0.60781 0.44354 0.23177
 N575 N 0.04021 0.86789 0.71841
 C576 C 0.05035 0.88508 0.70452
 N577 N 0.05328 0.88087 0.68065
 N578 N 0.04626 0.86018 0.67092
 C579 C 0.03611 0.84283 0.68467
 N580 N 0.03316 0.84714 0.70864
 C581 C 0.05907 0.90704 0.71488
 C582 C 0.06743 0.92544 0.72269
 C583 C 0.07874 0.94705 0.73111
 N584 N 0.07597 0.96785 0.71889
 N585 N 0.08859 0.98723 0.72511
 C586 C 0.10464 0.98651 0.74366
 N587 N 0.10688 0.96567 0.75612
 N588 N 0.09426 0.94631 0.74991
 N589 N 0.92808 0.64773 0.70977
 C590 C 0.93889 0.62587 0.70799
 N591 N 0.96105 0.62401 0.69751
 N592 N 0.97200 0.64340 0.68892
 C593 C 0.96121 0.66537 0.69046
 N594 N 0.93905 0.66713 0.70117
 C595 C 0.92645 0.60476 0.71586
 C596 C 0.91565 0.58705 0.72192
 C597 C 0.90223 0.56615 0.72866
 N598 N 0.91362 0.54479 0.73197
 N599 N 0.90095 0.52536 0.73780
 C600 C 0.87643 0.52661 0.74052
 N601 N 0.86517 0.54809 0.73705
 N602 N 0.87782 0.56747 0.73123
 N603 N 0.45941 0.12255 0.20190
 C604 C 0.43736 0.12425 0.21265
 N605 N 0.42658 0.14609 0.21488
 N606 N 0.43745 0.16561 0.20644
 C607 C 0.45948 0.16400 0.19543
 N608 N 0.47026 0.14206 0.19346
 C609 C 0.42490 0.10299 0.22005
 C610 C 0.41412 0.08508 0.22555
 C611 C 0.40078 0.06386 0.23139
 N612 N 0.37635 0.06360 0.22898
 N613 N 0.36388 0.04383 0.23382
 C614 C 0.37533 0.02353 0.24130
 N615 N 0.39991 0.02388 0.24350
 N616 N 0.41240 0.04368 0.23865
 N617 N 0.28763 0.44313 -0.13289
 C618 C 0.30115 0.43509 -0.11421
 N619 N 0.32564 0.43612 -0.11571
 N620 N 0.33633 0.44487 -0.13525
 C621 C 0.32296 0.45289 -0.15409
 N622 N 0.29835 0.45192 -0.15247
 C623 C 0.28999 0.42439 -0.09357
 C624 C 0.28172 0.41453 -0.07615
 C625 C 0.27314 0.40170 -0.05554
 N626 N 0.28570 0.38236 -0.04766
 N627 N 0.27782 0.36998 -0.02883
 C628 C 0.25716 0.37656 -0.01700
 N629 N 0.24452 0.39594 -0.02509
 N630 N 0.25242 0.40834 -0.04397
 N631 N 0.78828 0.94774 0.36667
 C632 C 0.80219 0.94019 0.38527
 N633 N 0.82662 0.94180 0.38351
 N634 N 0.83688 0.95065 0.36379
 C635 C 0.82312 0.95818 0.34502
 N636 N 0.79857 0.95663 0.34691
 C637 C 0.79152 0.92933 0.40610
 C638 C 0.78366 0.91934 0.42363
 C639 C 0.77553 0.90636 0.44434
 N640 N 0.79024 0.88965 0.45431
 N641 N 0.78263 0.87671 0.47286
 C642 C 0.76003 0.88001 0.48228
 N643 N 0.74536 0.89691 0.47221
 N644 N 0.75298 0.90987 0.45360
 N645 N 0.79357 0.05898 1.15025
 C646 C 0.79694 0.04851 1.12838
 N647 N 0.81027 0.02807 1.12676
 N648 N 0.82008 0.01848 1.14638
 C649 C 0.81701 0.02899 1.16839
 N650 N 0.80338 0.04940 1.16987
 C651 C 0.78775 0.05975 1.10707
 C652 C 0.78054 0.06982 1.08932
 C653 C 0.77242 0.08270 1.06853
 N654 N 0.76899 0.07130 1.04716
 N655 N 0.76198 0.08357 1.02784
 C656 C 0.75816 0.10769 1.02922
 N657 N 0.76172 0.11895 1.05071
 N658 N 0.76871 0.10670 1.06998
 N659 N 0.29598 0.55568 0.65109
 C660 C 0.29920 0.54516 0.62923
 N661 N 0.31205 0.52441 0.62762
 N662 N 0.32151 0.51456 0.64728
 C663 C 0.31853 0.52511 0.66925
 N664 N 0.30546 0.54583 0.67075
 C665 C 0.29046 0.55669 0.60790
 C666 C 0.28367 0.56703 0.59014
 C667 C 0.27613 0.58025 0.56938
 N668 N 0.26925 0.56882 0.54890
 N669 N 0.26257 0.58135 0.52964
 C670 C 0.26248 0.60577 0.53018
 N671 N 0.26959 0.61703 0.55076
 N672 N 0.27626 0.60453 0.56997
 N673 N 0.22083 0.54100 0.36787
 C674 C 0.20705 0.55007 0.38610
 N675 N 0.18270 0.55156 0.38329
 N676 N 0.17242 0.54422 0.36291
 C677 C 0.18607 0.53516 0.34452
 N678 N 0.21052 0.53362 0.34745
 C679 C 0.21793 0.55922 0.40770
 C680 C 0.22620 0.56786 0.42584
 C681 C 0.23518 0.57935 0.44720
 N682 N 0.22454 0.57544 0.46885
 N683 N 0.23135 0.58786 0.48825
 C684 C 0.24903 0.60472 0.48672
 N685 N 0.25971 0.60838 0.46493
 N686 N 0.25291 0.59596 0.44556
 N687 N 0.68008 0.05097 0.88261
 C688 C 0.70434 0.04925 0.88584
 N689 N 0.71828 0.03948 0.86810
 N690 N 0.70818 0.03164 0.84774
 C691 C 0.68379 0.03339 0.84433
 N692 N 0.67001 0.04317 0.86229
 C693 C 0.71499 0.05880 0.90740
 C694 C 0.72299 0.06776 0.92551
 C695 C 0.73154 0.07963 0.94685
 N696 N 0.71955 0.07723 0.96803
 N697 N 0.72595 0.09015 0.98724
 C698 C 0.74448 0.10612 0.98596
 N699 N 0.75670 0.10803 0.96472
 N700 N 0.75030 0.09512 0.94553
 N701 N 0.70874 0.92839 0.64625
 C702 C 0.70611 0.93916 0.62460
 N703 N 0.69501 0.96087 0.62358
 N704 N 0.68663 0.97141 0.64357
 C705 C 0.68902 0.96064 0.66533
 N706 N 0.70036 0.93894 0.66625
 C707 C 0.71392 0.92719 0.60291
 C708 C 0.72009 0.91673 0.58479
 C709 C 0.72718 0.90364 0.56352
 N710 N 0.73555 0.91520 0.54380
 N711 N 0.74245 0.90284 0.52428
 C712 C 0.74110 0.87846 0.52369
 N713 N 0.73271 0.86706 0.54360
 N714 N 0.72582 0.87940 0.56309
 N715 N 0.19342 0.46295 0.12233
 C716 C 0.20427 0.44111 0.12333
 N717 N 0.20696 0.43039 0.14499
 N718 N 0.19888 0.44111 0.16503
 C719 C 0.18781 0.46294 0.16413
 N720 N 0.18534 0.47366 0.14236
 C721 C 0.21179 0.42899 0.10163
 C722 C 0.21774 0.41840 0.08352
 C723 C 0.22461 0.40518 0.06226
 N724 N 0.24713 0.40743 0.05273
 N725 N 0.25394 0.39406 0.03388
 C726 C 0.23853 0.37785 0.02386
 N727 N 0.21580 0.37604 0.03329
 N728 N 0.20899 0.38941 0.05214
 N729 N -0.13459 0.28633 0.44343
 C730 C -0.11587 0.29971 0.43525
 N731 N -0.11758 0.32393 0.43640
 N732 N -0.13737 0.33448 0.44544
 C733 C -0.15626 0.32123 0.45362
 N734 N -0.15442 0.29690 0.45250
 C735 C -0.09490 0.28865 0.42441
 C736 C -0.07721 0.28030 0.41454
 C737 C -0.05628 0.27137 0.40182
 N738 N -0.03464 0.28255 0.40403
 N739 N -0.01574 0.27570 0.39056
 C740 C -0.01782 0.25751 0.37424
 N741 N -0.03950 0.24611 0.37247
 N742 N -0.05839 0.25296 0.38593
 N743 N 0.38129 0.82352 0.93141
 C744 C 0.38340 0.79931 0.93174
 N745 N 0.36502 0.78616 0.94101
 N746 N 0.34514 0.79696 0.94970
 C747 C 0.34292 0.82127 0.94935
 N748 N 0.36145 0.83428 0.94007
 C749 C 0.40453 0.78795 0.92154
 C750 C 0.42237 0.77928 0.91226
 C751 C 0.44354 0.76984 0.90033
 N752 N 0.44168 0.75096 0.88497
 N753 N 0.46090 0.74342 0.87238
 C754 C 0.48275 0.75446 0.87462
 N755 N 0.48446 0.77335 0.89018
 N756 N 0.46522 0.78089 0.90278
 N757 N 1.14780 0.79708 0.05705
 C758 C 1.12563 0.80030 0.04707
 N759 N 1.12369 0.81319 0.02658
 N760 N 1.14333 0.82268 0.01647
 C761 C 1.16562 0.81965 0.02645
 N762 N 1.16744 0.80658 0.04693
 C763 C 1.10438 0.79093 0.05858
 C764 C 1.08675 0.78324 0.06876
 C765 C 1.06619 0.77411 0.08162
 N766 N 1.04409 0.78474 0.07974
 N767 N 1.02535 0.77686 0.09265
 C768 C 1.02804 0.75804 0.10789
 N769 N 1.05031 0.74752 0.10964
 N770 N 1.06900 0.75538 0.09675
 N771 N 0.62370 0.31021 0.52714
 C772 C 0.62544 0.29684 0.54733
 N773 N 0.64749 0.29356 0.55757
 N774 N 0.66719 0.30347 0.54798
 C775 C 0.66556 0.31702 0.52781
 N776 N 0.64340 0.32011 0.51756
 C777 C 0.60410 0.28708 0.55833
 C778 C 0.58636 0.27911 0.56811
 C779 C 0.56566 0.26973 0.58055
 N780 N 0.56830 0.25076 0.59542
 N781 N 0.54949 0.24275 0.60804
 C782 C 0.52726 0.25334 0.60625
 N783 N 0.52473 0.27238 0.59125
 N784 N 0.54359 0.28041 0.57862
 N785 N 0.38099 0.17340 0.54939
 C786 C 0.38475 0.19735 0.54860
 N787 N 0.36712 0.21181 0.53966
 N788 N 0.34636 0.20253 0.53172
 C789 C 0.34246 0.17848 0.53259
 N790 N 0.36027 0.16415 0.54149
 C791 C 0.40645 0.20718 0.55876
 C792 C 0.42445 0.21461 0.56848
 C793 C 0.44532 0.22263 0.58155
 N794 N 0.46528 0.23093 0.57001
 N795 N 0.48459 0.23806 0.58252
 C796 C 0.48459 0.23712 0.60701
 N797 N 0.46456 0.22858 0.61835
 N798 N 0.44532 0.22148 0.60587
 N799 N 0.88178 0.67642 0.05357
 C800 C 0.88563 0.70030 0.05178
 N801 N 0.86808 0.71442 0.04218
 N802 N 0.84733 0.70488 0.03454
 C803 C 0.84335 0.68091 0.03639
 N804 N 0.86107 0.66691 0.04597
 C805 C 0.90732 0.71047 0.06160
 C806 C 0.92532 0.71819 0.07108
 C807 C 0.94618 0.72655 0.08393
 N808 N 0.96602 0.73484 0.07220
 N809 N 0.98534 0.74225 0.08453
 C810 C 0.98547 0.74162 0.10902
 N811 N 0.96554 0.73310 0.12057
 N812 N 0.94630 0.72572 0.10827
 N813 N 0.62408 0.69934 0.95916
 C814 C 0.62655 0.70964 0.93728
 N815 N 0.64886 0.71060 0.92700
 N816 N 0.66809 0.70138 0.93819
 C817 C 0.66570 0.69083 0.96005
 N818 N 0.64330 0.69013 0.97033
 C819 C 0.60557 0.71794 0.92450
 C820 C 0.58788 0.72419 0.91343
 C821 C 0.56689 0.73086 0.89976
 N822 N 0.54620 0.73821 0.91093
 N823 N 0.52653 0.74363 0.89813
 C824 C 0.52682 0.74194 0.87367
 N825 N 0.54763 0.73441 0.86266
 N826 N 0.56727 0.72900 0.87544
 N827 N 0.12221 0.19948 0.45834
 C828 C 0.12436 0.21026 0.43667
 N829 N 0.14650 0.21132 0.42603
 N830 N 0.16587 0.20175 0.43667
 C831 C 0.16381 0.19073 0.45833
 N832 N 0.14157 0.18991 0.46896
 C833 C 0.10322 0.21908 0.42449
 C834 C 0.08542 0.22585 0.41390
 C835 C 0.06433 0.23326 0.40075
 N836 N 0.06587 0.25107 0.38437
 N837 N 0.04670 0.25698 0.37110
 C838 C 0.02528 0.24524 0.37359
 N839 N 0.02378 0.22762 0.39035
 N840 N 0.04297 0.22170 0.40362
 N841 N 0.57891 0.12948 0.70706
 C842 C 0.55551 0.12850 0.69981
 N843 N 0.54311 0.10774 0.70238
 N844 N 0.55385 0.08853 0.71187
 C845 C 0.57740 0.08936 0.71901
 N846 N 0.58963 0.11029 0.71650
 C847 C 0.54474 0.14870 0.68800
 C848 C 0.53657 0.16566 0.67733
 C849 C 0.52783 0.18566 0.66370
 N850 N 0.52125 0.20648 0.67477
 N851 N 0.51425 0.22534 0.66183
 C852 C 0.51374 0.22409 0.63736
 N853 N 0.52019 0.20306 0.62645
 N854 N 0.52716 0.18424 0.63937
 N855 N 1.08044 0.63395 0.20811
 C856 C 1.05681 0.63341 0.20155
 N857 N 1.04412 0.61286 0.20437
 N858 N 1.05480 0.59341 0.21344
 C859 C 1.07856 0.59380 0.21989
 N860 N 1.09109 0.61452 0.21714
 C861 C 1.04608 0.65380 0.19002
 C862 C 1.03791 0.67083 0.17946
 C863 C 1.02913 0.69079 0.16581
 N864 N 1.02832 0.68921 0.14150
 N865 N 1.02124 0.70793 0.12850
 C866 C 1.01482 0.72902 0.13931
 N867 N 1.01548 0.73044 0.16377
 N868 N 1.02260 0.71167 0.17678
 N869 N 0.93645 0.86666 0.21024
 C870 C 0.95957 0.86871 0.20225
 N871 N 0.97076 0.89025 0.20394
 N872 N 0.95907 0.90919 0.21330
 C873 C 0.93577 0.90726 0.22115
 N874 N 0.92479 0.88556 0.21954
 C875 C 0.97100 0.84872 0.19029
 C876 C 0.97896 0.83157 0.17946
 C877 C 0.98639 0.81092 0.16569
 N878 N 1.00914 0.80169 0.16740
 N879 N 1.01558 0.78245 0.15438
 C880 C 0.99946 0.77170 0.13930
 N881 N 0.97677 0.78124 0.13765
 N882 N 0.97035 0.80041 0.15062
 N883 N 0.47089 0.38468 0.70390
 C884 C 0.45948 0.36327 0.70198
 N885 N 0.43643 0.36131 0.71018
 N886 N 0.42505 0.38016 0.71991
 C887 C 0.43625 0.40173 0.72176
 N888 N 0.45949 0.40357 0.71369
 C889 C 0.47062 0.34336 0.68963
 C890 C 0.47840 0.32631 0.67852
 C891 C 0.48573 0.30581 0.66448
 N892 N 0.46965 0.29555 0.64927
 N893 N 0.47598 0.27650 0.63609
 C894 C 0.49863 0.26683 0.63766
 N895 N 0.51478 0.27733 0.65288
 N896 N 0.50842 0.29644 0.66610
 N897 N 0.44197 0.60956 0.81247
 C898 C 0.45451 0.62223 0.79594
 N899 N 0.45606 0.61381 0.77301
 N900 N 0.44527 0.59330 0.76685
 C901 C 0.43259 0.58054 0.78341
 N902 N 0.43122 0.58913 0.80633
 C903 C 0.46567 0.64435 0.80300
 C904 C 0.47431 0.66266 0.81069
 C905 C 0.48369 0.68390 0.82192
 N906 N 0.48580 0.70472 0.80962
 N907 N 0.49289 0.72470 0.82086
 C908 C 0.49807 0.72453 0.84481
 N909 N 0.49590 0.70356 0.85694
 N910 N 0.48887 0.68365 0.84571
 N911 N -0.04551 0.11940 0.26947
 C912 C -0.04715 0.12823 0.29224
 N913 N -0.05987 0.11592 0.30892
 N914 N -0.07070 0.09545 0.30306
 C915 C -0.06923 0.08646 0.28030
 N916 N -0.05638 0.09886 0.26360
 C917 C -0.03583 0.15037 0.29896
 C918 C -0.02698 0.16877 0.30619
 C919 C -0.01725 0.19022 0.31667
 N920 N 0.00166 0.18879 0.33210
 N921 N 0.00878 0.20807 0.34440
 C922 C -0.00287 0.22949 0.34192
 N923 N -0.02149 0.23092 0.32596
 N924 N -0.02863 0.21161 0.31366
 N925 N 0.05132 0.38048 0.26696
 C926 C 0.05201 0.37236 0.28991
 N927 N 0.06380 0.38534 0.30686
 N928 N 0.07469 0.40573 0.30109
 C929 C 0.07420 0.41399 0.27816
 N930 N 0.06224 0.40096 0.26119
 C931 C 0.04086 0.35019 0.29656
 C932 C 0.03222 0.33184 0.30394
 C933 C 0.02277 0.31059 0.31483
 N934 N 0.03434 0.28922 0.31199
 N935 N 0.02763 0.27027 0.32484
 C936 C 0.00930 0.27208 0.34124
 N937 N -0.00258 0.29345 0.34353
 N938 N 0.00410 0.31235 0.33066
 N939 N 0.56486 0.88082 0.80684
 C940 C 0.55321 0.86782 0.78983
 N941 N 0.55249 0.87601 0.76691
 N942 N 0.56325 0.89660 0.76123
 C943 C 0.57507 0.90968 0.77827
 N944 N 0.57558 0.90133 0.80118
 C945 C 0.54214 0.84557 0.79640
 C946 C 0.53352 0.82720 0.80374
 C947 C 0.52404 0.80595 0.81464
 N948 N 0.50433 0.80752 0.82920
 N949 N 0.49754 0.78881 0.84230
 C950 C 0.51031 0.76784 0.84156
 N951 N 0.52970 0.76621 0.82638
 N952 N 0.53653 0.78496 0.81328
 N953 N 0.70039 0.54475 0.10950
 C954 C 0.69620 0.55743 0.13002
 N955 N 0.70097 0.58122 0.13047
 N956 N 0.70964 0.59202 0.11099
 C957 C 0.71383 0.57954 0.09022
 N958 N 0.70908 0.55558 0.09000
 C959 C 0.68572 0.54623 0.15073
 C960 C 0.67630 0.53756 0.16821
 C961 C 0.66427 0.52807 0.18896
 N962 N 0.66997 0.53607 0.21133
 N963 N 0.65755 0.52862 0.23046
 C964 C 0.63899 0.51284 0.22792
 N965 N 0.63338 0.50493 0.20540
 N966 N 0.64581 0.51237 0.18629
 N967 N 0.19892 1.07963 0.62820
 C968 C 0.19227 1.05630 0.62742
 N969 N 0.19524 1.04368 0.60664
 N970 N 0.20455 1.05414 0.58721
 C971 C 0.21115 1.07760 0.58786
 N972 N 0.20820 1.09007 0.60879
 C973 C 0.18111 1.04562 0.64806
 C974 C 0.17119 1.03751 0.66554
 C975 C 0.15871 1.02880 0.68639
 N976 N 0.17116 1.02224 0.70631
 N977 N 0.15936 1.01532 0.72604
 C978 C 0.13468 1.01469 0.72658
 N979 N 0.12239 1.02142 0.70652
 N980 N 0.13416 1.02832 0.68681
 N981 N 0.20544 0.96833 0.88459
 C982 C 0.20047 0.95637 0.86387
 N983 N 0.20496 0.93251 0.86252
 N984 N 0.21405 0.92090 0.88132
 C985 C 0.21897 0.93263 0.90230
 N986 N 0.21458 0.95670 0.90341
 C987 C 0.18922 0.96831 0.84401
 C988 C 0.17903 0.97731 0.82715
 C989 C 0.16600 0.98682 0.80703
 N990 N 0.16862 0.97669 0.78492
 N991 N 0.15490 0.98395 0.76665
 C992 C 0.13803 1.00164 0.76978
 N993 N 0.13561 1.01178 0.79204
 N994 N 0.14932 1.00451 0.81031
 N995 N 0.70472 0.46857 0.38742
 C996 C 0.70164 0.45694 0.36613
 N997 N 0.70790 0.43347 0.36432
 N998 N 0.71688 0.42192 0.38322
 C999 C 0.71991 0.43337 0.40466
 N1000 N 0.71374 0.45699 0.40635
 C1001 C 0.69046 0.46867 0.34609
 C1002 C 0.68040 0.47739 0.32901
 C1003 C 0.66759 0.48644 0.30853
 N1004 N 0.67081 0.47606 0.28661
 N1005 N 0.65729 0.48280 0.26800
 C1006 C 0.63989 0.50005 0.27061
 N1007 N 0.63708 0.51067 0.29260
 N1008 N 0.65060 0.50393 0.31123
 N1009 N 0.77132 0.45419 0.61686
 C1010 C 0.79421 0.45183 0.62545
 N1011 N 0.81053 0.43840 0.61293
 N1012 N 0.80421 0.42759 0.59249
 C1013 C 0.78133 0.42980 0.58373
 N1014 N 0.76499 0.44335 0.59635
 C1015 C 0.80147 0.46329 0.64746
 C1016 C 0.80909 0.47234 0.66567
 C1017 C 0.81996 0.48245 0.68683
 N1018 N 0.83617 0.50047 0.68471
 N1019 N 0.84853 0.50810 0.70381
 C1020 C 0.84521 0.49799 0.72579
 N1021 N 0.82871 0.48004 0.72781
 N1022 N 0.81635 0.47239 0.70868
 N1023 N 0.31386 -0.05978 0.10660
 C1024 C 0.29761 -0.04738 0.12022
 N1025 N 0.27429 -0.04564 0.11268
 N1026 N 0.26748 -0.05612 0.09213
 C1027 C 0.28374 -0.06868 0.07844
 N1028 N 0.30706 -0.07023 0.08613
 C1029 C 0.30528 -0.03671 0.14247
 C1030 C 0.31325 -0.02849 0.16092
 C1031 C 0.32448 -0.01955 0.18241
 N1032 N 0.31180 -0.01724 0.20328
 N1033 N 0.32291 -0.01032 0.22344
 C1034 C 0.34709 -0.00551 0.22342
 N1035 N 0.35962 -0.00788 0.20241
 N1036 N 0.34853 -0.01476 0.18230
 N1037 N 0.26426 0.04935 0.37420
 C1038 C 0.28783 0.04847 0.36712
 N1039 N 0.30489 0.05881 0.38117
 N1040 N 0.29865 0.06981 0.40161
 C1041 C 0.27510 0.07092 0.40883
 N1042 N 0.25801 0.06038 0.39473
 C1043 C 0.29504 0.03745 0.34478
 C1044 C 0.30300 0.02895 0.32635
 C1045 C 0.31465 0.01975 0.30506
 N1046 N 0.32976 0.00058 0.30655
 N1047 N 0.34353 -0.00590 0.28784
 C1048 C 0.34295 0.00669 0.26695
 N1049 N 0.32725 0.02556 0.26540
 N1050 N 0.31348 0.03206 0.28414
 N1051 N 0.80880 0.55974 0.88664
 C1052 C 0.79196 0.55096 0.87132
 N1053 N 0.76813 0.55280 0.87730
 N1054 N 0.76142 0.56328 0.89798
 C1055 C 0.77831 0.57230 0.91333
 N1056 N 0.80211 0.57020 0.90722
 C1057 C 0.79974 0.54086 0.84875
 C1058 C 0.80843 0.53323 0.83027
 C1059 C 0.82121 0.52513 0.80917
 N1060 N 0.80936 0.51823 0.78894
 N1061 N 0.82180 0.51153 0.76933
 C1062 C 0.84651 0.51149 0.76929
 N1063 N 0.85814 0.51860 0.78964
 N1064 N 0.84575 0.52525 0.80917
 N1065 N 0.11251 0.69750 0.54526
 C1066 C 0.13337 0.69448 0.55778
 N1067 N 0.13402 0.70104 0.58128
 N1068 N 0.11442 0.71030 0.59199
 C1069 C 0.09340 0.71331 0.57963
 N1070 N 0.09288 0.70679 0.55600
 C1071 C 0.15426 0.68343 0.54680
 C1072 C 0.17204 0.67367 0.53854
 C1073 C 0.19333 0.66149 0.52978
 N1074 N 0.21466 0.66379 0.54158
 N1075 N 0.23410 0.65124 0.53455
 C1076 C 0.23294 0.63577 0.51554
 N1077 N 0.21151 0.63382 0.50359
 N1078 N 0.19206 0.64637 0.51063
 N1079 N 0.62927 0.20040 1.08261
 C1080 C 0.62815 0.19371 1.05916
 N1081 N 0.60703 0.19668 1.04705
 N1082 N 0.58762 0.20603 1.05813
 C1083 C 0.58862 0.21267 1.08171
 N1084 N 0.60989 0.20972 1.09366
 C1085 C 0.64878 0.18251 1.04784
 C1086 C 0.66628 0.17258 1.03921
 C1087 C 0.68720 0.16013 1.02991
 N1088 N 0.68771 0.13584 1.02939
 N1089 N 0.70750 0.12411 1.02195
 C1090 C 0.72757 0.13620 1.01470
 N1091 N 0.72695 0.16061 1.01538
 N1092 N 0.70714 0.17235 1.02283
 N1093 N 0.86282 0.20841 0.93121
 C1094 C 0.86443 0.20298 0.95486
 N1095 N 0.88535 0.20759 0.96673
 N1096 N 0.90413 0.21725 0.95521
 C1097 C 0.90277 0.22257 0.93135
 N1098 N 0.88157 0.21803 0.91972
 C1099 C 0.84465 0.19121 0.96663
 C1100 C 0.82790 0.18067 0.97558
 C1101 C 0.80793 0.16737 0.98516
 N1102 N 0.81155 0.15113 1.00283
 N1103 N 0.79338 0.13741 1.01036
 C1104 C 0.77089 0.13940 1.00051
 N1105 N 0.76742 0.15581 0.98282
 N1106 N 0.78559 0.16953 0.97529
 N1107 N 0.39111 0.70467 0.46837
 C1108 C 0.36949 0.70141 0.45729
 N1109 N 0.36682 0.70858 0.43421
 N1110 N 0.38523 0.71859 0.42250
 C1111 C 0.40701 0.72177 0.43339
 N1112 N 0.40954 0.71471 0.45664
 C1113 C 0.35012 0.68904 0.46908
 C1114 C 0.33371 0.67798 0.47798
 C1115 C 0.31415 0.66405 0.48745
 N1116 N 0.31732 0.64030 0.49148
 N1117 N 0.29879 0.62687 0.49860
 C1118 C 0.27636 0.63667 0.50195
 N1119 N 0.27330 0.66054 0.49788
 N1120 N 0.29186 0.67398 0.49075
 N1121 N 0.62026 0.77465 0.44984
 C1122 C 0.62813 0.79761 0.44849
 N1123 N 0.61465 0.81393 0.43643
 N1124 N 0.59398 0.80755 0.42597
 C1125 C 0.58596 0.78460 0.42714
 N1126 N 0.59951 0.76826 0.43935
 C1127 C 0.65067 0.80481 0.45908
 C1128 C 0.66941 0.81242 0.46714
 C1129 C 0.69129 0.82332 0.47569
 N1130 N 0.70432 0.83739 0.46075
 N1131 N 0.72328 0.84957 0.46896
 C1132 C 0.72992 0.84833 0.49248
 N1133 N 0.71705 0.83373 0.50727
 N1134 N 0.69801 0.82154 0.49906
 N1135 N 0.11532 0.27375 -0.04760
 C1136 C 0.12303 0.29680 -0.04811
 N1137 N 0.10927 0.31353 -0.05929
 N1138 N 0.08849 0.30745 -0.06972
 C1139 C 0.08064 0.28441 -0.06942
 N1140 N 0.09446 0.26767 -0.05806
 C1141 C 0.14583 0.30365 -0.03782
 C1142 C 0.16482 0.31098 -0.03008
 C1143 C 0.18703 0.32160 -0.02200
 N1144 N 0.19951 0.33609 -0.03700
 N1145 N 0.21881 0.34799 -0.02919
 C1146 C 0.22640 0.34600 -0.00600
 N1147 N 0.21404 0.33103 0.00886
 N1148 N 0.19465 0.31913 0.00103
 N1149 N 0.37373 0.26671 0.05826
 C1150 C 0.36529 0.28955 0.06042
 N1151 N 0.37810 0.30564 0.07347
 N1152 N 0.39866 0.29918 0.08411
 C1153 C 0.40729 0.27638 0.08212
 N1154 N 0.39438 0.26023 0.06896
 C1155 C 0.34333 0.29726 0.04897
 C1156 C 0.32549 0.30611 0.04012
 C1157 C 0.30541 0.31939 0.03053
 N1158 N 0.30626 0.34363 0.03083
 N1159 N 0.28785 0.35654 0.02242
 C1160 C 0.26774 0.34577 0.01343
 N1161 N 0.26698 0.32134 0.01306
 N1162 N 0.28548 0.30836 0.02153
 N1163 N 0.88628 0.80919 0.56399
 C1164 C 0.87139 0.79270 0.55402
 N1165 N 0.87776 0.76916 0.55473
 N1166 N 0.89841 0.76240 0.56526
 C1167 C 0.91334 0.77895 0.57544
 N1168 N 0.90683 0.80245 0.57449
 C1169 C 0.84897 0.80056 0.54359
 C1170 C 0.83069 0.80939 0.53567
 C1171 C 0.80992 0.82246 0.52726
 N1172 N 0.79139 0.81144 0.51568
 N1173 N 0.77242 0.82419 0.50791
 C1174 C 0.77135 0.84837 0.51154
 N1175 N 0.79003 0.85918 0.52317
 N1176 N 0.80890 0.84647 0.53089
   
