data_POSCAR
  _audit_creation_date              2014-09-24
  _audit_creation_method            'ToBaCCo'
  _symmetry_space_group_name_H-M    'P1'
  _symmetry_Int_Tables_number       1
  _symmetry_cell_setting            triclinic
  loop_
  _symmetry_equiv_pos_as_xyz
 x,y,z
_cell_length_a 37.5964
_cell_length_b 35.6510
_cell_length_c 34.1715
_cell_angle_alpha 88.669000
_cell_angle_beta 88.513200
_cell_angle_gamma 92.176000
loop_
  _atom_site_label
  _atom_site_type_symbol
  _atom_site_fract_x
  _atom_site_fract_y
  _atom_site_fract_z
C1 C 0.19274 0.18947 0.23729
 C2 C 0.22622 0.17405 0.22958
 C3 C 0.25030 0.18978 0.20039
 C4 C 0.24041 0.22262 0.17999
 C5 C 0.20754 0.23878 0.18744
 C6 C 0.18433 0.22220 0.21610
 H7 H 0.23184 0.14751 0.24351
 H8 H 0.25862 0.23672 0.15898
 H9 H 0.15940 0.23534 0.22189
 C10 C -0.17750 0.81987 0.20219
 C11 C -0.21085 0.82914 0.18700
 C12 C -0.22794 0.80667 0.15948
 C13 C -0.21152 0.77421 0.14718
 C14 C -0.17747 0.76523 0.15961
 C15 C -0.16130 0.78716 0.18859
 H16 H -0.22383 0.85402 0.19660
 H17 H -0.22482 0.75640 0.12639
 H18 H -0.13479 0.78073 0.19771
 C19 C -0.18920 0.20444 -0.24431
 C20 C -0.21485 0.18087 -0.22392
 C21 C -0.23184 0.19182 -0.18877
 C22 C -0.22298 0.22757 -0.17420
 C23 C -0.19741 0.25128 -0.19380
 C24 C -0.18152 0.24009 -0.22892
 H25 H -0.22116 0.15328 -0.23476
 H26 H -0.23399 0.23611 -0.14633
 H27 H -0.16265 0.25960 -0.24370
 C28 C 0.19083 0.84224 -0.21723
 C29 C 0.18029 0.80539 -0.20670
 C30 C 0.20387 0.78068 -0.18990
 C31 C 0.23819 0.79410 -0.18012
 C32 C 0.24976 0.83158 -0.19024
 C33 C 0.22548 0.85509 -0.20906
 H34 H 0.15331 0.79539 -0.21211
 H35 H 0.25630 0.77473 -0.16723
 H36 H 0.23304 0.88395 -0.21671
 C37 C 0.17324 1.17945 0.77396
 C38 C 0.19910 1.15371 0.78414
 C39 C 0.22197 1.16089 0.81506
 C40 C 0.21881 1.19388 0.83616
 C41 C 0.19271 1.21946 0.82709
 C42 C 0.17038 1.21238 0.79551
 H43 H 0.20094 1.12763 0.76870
 H44 H 0.23596 1.19899 0.86064
 H45 H 0.14999 1.23194 0.78855
 C46 C 0.80697 0.80984 0.80771
 C47 C 0.77443 0.82148 0.82390
 C48 C 0.75326 0.79785 0.84900
 C49 C 0.76524 0.76222 0.85873
 C50 C 0.79871 0.75036 0.84553
 C51 C 0.81840 0.77367 0.81797
 H52 H 0.76513 0.84905 0.81660
 H53 H 0.74806 0.74350 0.87679
 H54 H 0.84457 0.76582 0.80804
 C55 C 0.13524 0.83758 1.19122
 C56 C 0.16782 0.85839 1.18770
 C57 C 0.19238 0.85175 1.15748
 C58 C 0.18536 0.82290 1.13146
 C59 C 0.15328 0.80193 1.13478
 C60 C 0.12781 0.80987 1.16377
 H61 H 0.17361 0.88106 1.20745
 H62 H 0.20437 0.81733 1.10810
 H63 H 0.10316 0.79307 1.16599
 C64 C 0.81284 1.16887 1.23085
 C65 C 0.83666 1.19967 1.22155
 C66 C 0.83328 1.22198 1.18706
 C67 C 0.80513 1.21307 1.16201
 C68 C 0.78121 1.18305 1.17094
 C69 C 0.78481 1.16165 1.20528
 H70 H 0.85838 1.20590 1.24070
 H71 H 0.80253 1.22808 1.13437
 H72 H 0.76517 1.13926 1.21180
 O73 O 0.53766 0.98935 0.92777
 O74 O 0.46710 0.96226 1.08038
 O75 O 0.55483 0.94591 1.04010
 O76 O 0.44659 0.95564 0.99031
 O77 O 0.53262 0.97001 1.09140
 O78 O 0.47265 0.97189 0.93585
 O79 O 0.42649 0.98909 1.04820
 O80 O 0.54680 0.95129 0.97332
 C81 C 0.54942 0.95887 0.93832
 C82 C 0.43510 0.96485 1.07277
 C83 C 0.55204 0.94649 1.07606
 C84 C 0.45315 0.94862 0.95563
 O85 O 0.46197 1.04497 0.95202
 O86 O 0.53102 1.04104 1.08310
 O87 O 0.57187 1.02549 0.97370
 O88 O 0.45192 1.05306 1.01976
 O89 O 0.46391 1.03805 1.07910
 O90 O 0.52670 1.05675 0.95449
 O91 O 0.41386 1.01518 0.97563
 O92 O 0.57458 1.01958 1.04570
 Co93 Co 0.49987 1.01389 0.94924
 Co94 Co 0.49854 1.00265 1.07672
 Co95 Co 0.55742 0.98695 1.00798
 Co96 Co 0.45189 1.00402 1.00421
 O97 O 0.50397 1.00065 1.01270
 C98 C 0.42881 1.03759 0.94847
 C99 C 0.56328 1.04152 1.07192
 C100 C 0.55952 1.05488 0.95896
 C101 C 0.45016 1.06019 1.05519
 O102 O 0.03286 0.47015 0.09030
 O103 O 0.05613 0.52586 -0.08528
 O104 O 0.07594 0.44723 -0.02844
 O105 O 0.03787 0.56794 0.01962
 O106 O 0.05061 0.45506 -0.08287
 O107 O 0.06283 0.51978 0.04590
 O108 O 0.03103 0.57013 -0.05125
 O109 O 0.06319 0.45144 0.04009
 C110 C 0.05621 0.44769 0.07657
 C111 C 0.05557 0.55925 -0.07429
 C112 C 0.07705 0.44557 -0.06453
 C113 C 0.06353 0.55426 0.03757
 O114 O 0.00261 0.53401 0.07507
 O115 O -0.01806 0.45730 -0.07803
 O116 O -0.00381 0.42330 0.02991
 O117 O -0.03829 0.54272 -0.03848
 O118 O -0.01143 0.52811 -0.09080
 O119 O -0.02515 0.47338 0.05244
 O120 O -0.03170 0.54187 0.02889
 O121 O 0.00866 0.41716 -0.04003
 Co122 Co 0.01921 0.49506 0.04671
 Co123 Co 0.01898 0.49185 -0.07732
 Co124 Co 0.03431 0.43989 -0.00076
 Co125 Co 0.00113 0.55115 -0.01039
 O126 O 0.01729 0.49591 -0.01271
 C127 C -0.02419 0.54928 0.06314
 C128 C -0.01632 0.42487 -0.06293
 C129 C -0.02798 0.43898 0.04830
 C130 C -0.03697 0.54292 -0.07450
 O131 O 1.06030 0.01064 0.47576
 O132 O 0.90762 0.00394 0.54135
 O133 O 0.95481 0.04600 0.45464
 O134 O 1.01227 0.04905 0.55892
 O135 O 0.91095 0.00703 0.47075
 O136 O 1.05381 0.01057 0.54818
 O137 O 0.94857 0.04549 0.54936
 O138 O 1.02155 0.04323 0.44451
 C139 C 1.05308 0.03704 0.45233
 C140 C 0.91643 0.03670 0.55056
 C141 C 0.92222 0.03925 0.45873
 C142 C 1.04440 0.04222 0.55872
 O143 O 1.02759 -0.06016 0.54874
 O144 O 0.93874 -0.06404 0.47116
 O145 O 1.01436 -0.02816 0.42703
 O146 O 0.94524 -0.02352 0.58593
 O147 O 0.93827 -0.06416 0.54165
 O148 O 1.03978 -0.05971 0.47430
 O149 O 1.00942 -0.02054 0.59120
 O150 O 0.94878 -0.02274 0.42667
 Co151 Co 1.03918 -0.02330 0.51179
 Co152 Co 0.92873 -0.02744 0.50622
 Co153 Co 0.98435 0.00802 0.44488
 Co154 Co 0.97890 0.01088 0.56597
 O155 O 0.98329 -0.00781 0.50703
 C156 C 1.02182 -0.05192 0.58343
 C157 C 0.94079 -0.05597 0.43581
 C158 C 1.03332 -0.05461 0.43887
 C159 C 0.93876 -0.05685 0.57692
 C160 C 1.17748 0.14999 0.29697
 C161 C 1.15170 0.13381 0.32371
 C162 C 1.11524 0.13941 0.31765
 C163 C 1.10497 0.16044 0.28522
 C164 C 1.13042 0.17623 0.25890
 C165 C 1.16726 0.17200 0.26428
 C166 C 1.08930 0.12350 0.34371
 C167 C 1.09910 0.10137 0.37569
 C168 C 1.13541 0.09548 0.38225
 C169 C 1.16162 0.11206 0.35637
 C170 C 1.14462 0.07241 0.41407
 C171 C 1.11803 0.05437 0.43813
 C172 C 1.08183 0.05961 0.43115
 C173 C 1.07280 0.08401 0.40036
 H174 H 1.20535 0.14648 0.30271
 H175 H 1.07705 0.16433 0.27984
 H176 H 1.12056 0.19050 0.23336
 H177 H 1.06135 0.12779 0.33868
 H178 H 1.18953 0.10753 0.36124
 H179 H 1.17230 0.06752 0.41970
 H180 H 1.12577 0.03565 0.46156
 H181 H 1.04505 0.08828 0.39433
 C182 C 0.86074 -0.16935 0.25936
 C183 C 0.87526 -0.14464 0.28708
 C184 C 0.87073 -0.10560 0.28259
 C185 C 0.85151 -0.09189 0.25124
 C186 C 0.83591 -0.11648 0.22504
 C187 C 0.83984 -0.15566 0.22860
 C188 C 0.88476 -0.08073 0.30993
 C189 C 0.90199 -0.09433 0.34291
 C190 C 0.90591 -0.13336 0.34830
 C191 C 0.89316 -0.15827 0.31992
 C192 C 0.92182 -0.14672 0.38244
 C193 C 0.93309 -0.12171 0.41115
 C194 C 0.92956 -0.08287 0.40569
 C195 C 0.91443 -0.06942 0.37117
 H196 H 0.86383 -0.19928 0.26331
 H197 H 0.84802 -0.06201 0.24728
 H198 H 0.82168 -0.10432 0.20102
 H199 H 0.88132 -0.05079 0.30613
 H200 H 0.89629 -0.18821 0.32395
 H201 H 0.92499 -0.17653 0.38726
 H202 H 0.94482 -0.13264 0.43747
 H203 H 0.91122 -0.03951 0.36688
 C204 C 0.81575 0.16332 0.69828
 C205 C 0.83638 0.14803 0.66811
 C206 C 0.87181 0.16153 0.66106
 C207 C 0.88563 0.19078 0.68330
 C208 C 0.86523 0.20554 0.71351
 C209 C 0.83010 0.19164 0.72237
 C210 C 0.89333 0.14474 0.63285
 C211 C 0.88015 0.11390 0.61221
 C212 C 0.84436 0.10104 0.61823
 C213 C 0.82251 0.11856 0.64574
 C214 C 0.83153 0.06980 0.59790
 C215 C 0.85454 0.05004 0.57383
 C216 C 0.89062 0.06150 0.56926
 C217 C 0.90284 0.09445 0.58729
 H218 H 0.78842 0.15307 0.70247
 H219 H 0.91281 0.20140 0.67830
 H220 H 0.87840 0.22622 0.73132
 H221 H 0.92078 0.15468 0.62814
 H222 H 0.79526 0.10820 0.65092
 H223 H 0.80411 0.05967 0.60192
 H224 H 0.84444 0.02485 0.56012
 H225 H 0.93060 0.10364 0.58400
 C226 C 1.14336 -0.14965 0.73356
 C227 C 1.11927 -0.12784 0.71349
 C228 C 1.11782 -0.08906 0.72071
 C229 C 1.14006 -0.07305 0.74871
 C230 C 1.16378 -0.09519 0.76902
 C231 C 1.16577 -0.13370 0.76157
 C232 C 1.09476 -0.06692 0.69922
 C233 C 1.07372 -0.08307 0.67018
 C234 C 1.07468 -0.12209 0.66376
 C235 C 1.09717 -0.14425 0.68573
 C236 C 1.05436 -0.13810 0.63419
 C237 C 1.03513 -0.11532 0.60940
 C238 C 1.03518 -0.07640 0.61448
 C239 C 1.05327 -0.06055 0.64593
 H240 H 1.14510 -0.17907 0.72671
 H241 H 1.13920 -0.04340 0.75478
 H242 H 1.18030 -0.08224 0.79081
 H243 H 1.09407 -0.03701 0.70418
 H244 H 1.09828 -0.17406 0.68034
 H245 H 1.05468 -0.16797 0.62906
 H246 H 1.02127 -0.12789 0.58527
 H247 H 1.05376 -0.03040 0.64954
 C248 C 0.29875 1.17616 1.15262
 C249 C 0.32926 1.15662 1.14216
 C250 C 0.34464 1.13267 1.16991
 C251 C 0.32980 1.12938 1.20788
 C252 C 0.29935 1.14865 1.21807
 C253 C 0.28270 1.17202 1.19060
 C254 C 0.37404 1.11168 1.15904
 C255 C 0.38780 1.11371 1.12041
 C256 C 0.37282 1.13818 1.09275
 C257 C 0.34390 1.15975 1.10389
 C258 C 0.38619 1.13964 1.05401
 C259 C 0.41286 1.11570 1.04224
 C260 C 0.42712 1.09027 1.06912
 C261 C 0.41519 1.09034 1.10854
 H262 H 0.28653 1.19262 1.13001
 H263 H 0.34156 1.11152 1.22973
 H264 H 0.28957 1.14567 1.24807
 H265 H 0.38546 1.09288 1.18029
 H266 H 0.33213 1.17811 1.08247
 H267 H 0.37510 1.15830 1.03244
 H268 H 0.42144 1.11614 1.01171
 H269 H 0.42567 1.07062 1.12952
 C270 C 0.30285 0.83450 0.85149
 C271 C 0.33490 0.85326 0.86189
 C272 C 0.35000 0.88237 0.83721
 C273 C 0.33361 0.89152 0.80223
 C274 C 0.30139 0.87384 0.79278
 C275 C 0.28466 0.84589 0.81771
 C276 C 0.38034 0.90310 0.84857
 C277 C 0.39500 0.89640 0.88525
 C278 C 0.38049 0.86687 0.90979
 C279 C 0.35104 0.84494 0.89759
 C280 C 0.39437 0.86124 0.94710
 C281 C 0.42035 0.88634 0.96105
 C282 C 0.43378 0.91681 0.93753
 C283 C 0.42217 0.92058 0.89892
 H284 H 0.29080 0.81336 0.87148
 H285 H 0.34516 0.91329 0.78262
 H286 H 0.28986 0.88203 0.76533
 H287 H 0.39131 0.92586 0.82978
 H288 H 0.33954 0.82280 0.91680
 H289 H 0.38369 0.83876 0.96635
 H290 H 0.42870 0.88302 0.99100
 H291 H 0.43181 0.94442 0.88083
 C292 C 0.71192 0.83680 1.16136
 C293 C 0.68221 0.85049 1.14198
 C294 C 0.67943 0.84579 1.10117
 C295 C 0.70592 0.82735 1.08051
 C296 C 0.73545 0.81439 1.09976
 C297 C 0.73904 0.81897 1.14030
 C298 C 0.65080 0.86056 1.08127
 C299 C 0.62526 0.88095 1.10133
 C300 C 0.62748 0.88538 1.14218
 C301 C 0.65573 0.86966 1.16240
 C302 C 0.60211 0.90664 1.16172
 C303 C 0.57605 0.92497 1.14066
 C304 C 0.57456 0.92184 1.09980
 C305 C 0.59858 0.89858 1.08066
 H306 H 0.71409 0.84036 1.19262
 H307 H 0.70425 0.82375 1.04919
 H308 H 0.75610 0.80169 1.08246
 H309 H 0.64909 0.85729 1.04986
 H310 H 0.65772 0.87341 1.19368
 H311 H 0.60326 0.91029 1.19306
 H312 H 0.55800 0.94277 1.15614
 H313 H 0.59789 0.89586 1.04914
 C314 C 0.71416 1.17888 0.85313
 C315 C 0.68992 1.15295 0.87232
 C316 C 0.69714 1.11432 0.87277
 C317 C 0.72760 1.10206 0.85340
 C318 C 0.75058 1.12758 0.83303
 C319 C 0.74442 1.16641 0.83239
 C320 C 0.67354 1.08827 0.89196
 C321 C 0.64184 1.09995 0.90934
 C322 C 0.63366 1.13829 0.90796
 C323 C 0.65814 1.16475 0.89013
 C324 C 0.60082 1.14920 0.92381
 C325 C 0.57629 1.12228 0.94038
 C326 C 0.58475 1.08428 0.94243
 C327 C 0.61776 1.07349 0.92715
 H328 H 0.70829 1.20841 0.85254
 H329 H 0.73351 1.07254 0.85362
 H330 H 0.77412 1.11672 0.81912
 H331 H 0.67943 1.05870 0.89251
 H332 H 0.65209 1.19425 0.88930
 H333 H 0.59388 1.17842 0.92282
 H334 H 0.55093 1.13113 0.95190
 H335 H 0.62425 1.04409 0.92794
 C336 C 0.17456 0.29883 0.18073
 C337 C 0.15838 0.32590 0.15739
 C338 C 0.16484 0.32698 0.11645
 C339 C 0.18781 0.30135 0.09970
 C340 C 0.20289 0.27370 0.12300
 C341 C 0.19586 0.27155 0.16365
 C342 C 0.14738 0.35282 0.09282
 C343 C 0.12274 0.37685 0.10951
 C344 C 0.11641 0.37590 0.15049
 C345 C 0.13468 0.35084 0.17423
 C346 C 0.09121 0.39940 0.16693
 C347 C 0.07188 0.42305 0.14296
 C348 C 0.07772 0.42398 0.10220
 C349 C 0.10361 0.40112 0.08573
 H350 H 0.16954 0.29826 0.21211
 H351 H 0.19305 0.30177 0.06836
 H352 H 0.21880 0.25299 0.10886
 H353 H 0.15213 0.35344 0.06135
 H354 H 0.12958 0.34989 0.20563
 H355 H 0.08600 0.39900 0.19828
 H356 H 0.05211 0.44037 0.15633
 H357 H 0.10840 0.40161 0.05430
 C358 C -0.16164 0.28177 -0.14244
 C359 C -0.14021 0.31221 -0.13024
 C360 C -0.14096 0.34723 -0.15049
 C361 C -0.16375 0.35133 -0.18207
 C362 C -0.18405 0.32050 -0.19485
 C363 C -0.18273 0.28545 -0.17549
 C364 C -0.11781 0.37698 -0.13998
 C365 C -0.09319 0.37181 -0.11028
 C366 C -0.09280 0.33687 -0.08984
 C367 C -0.11661 0.30752 -0.09956
 C368 C -0.06797 0.33150 -0.06057
 C369 C -0.04324 0.36013 -0.05208
 C370 C -0.04291 0.39488 -0.07247
 C371 C -0.06838 0.40069 -0.10128
 H372 H -0.15996 0.25447 -0.12806
 H373 H -0.16465 0.37791 -0.19799
 H374 H -0.19979 0.32357 -0.22075
 H375 H -0.11813 0.40370 -0.15580
 H376 H -0.11593 0.28062 -0.08414
 H377 H -0.06738 0.30496 -0.04453
 H378 H -0.02430 0.35500 -0.02939
 H379 H -0.06858 0.42739 -0.11709
 C380 C 0.18942 0.72242 -0.14839
 C381 C 0.16813 0.68918 -0.14277
 C382 C 0.14896 0.67433 -0.17442
 C383 C 0.15388 0.69080 -0.21179
 C384 C 0.17508 0.72351 -0.21716
 C385 C 0.19144 0.74075 -0.18526
 C386 C 0.12400 0.64437 -0.16799
 C387 C 0.11824 0.62856 -0.13034
 C388 C 0.13964 0.64124 -0.09940
 C389 C 0.16419 0.67162 -0.10569
 C390 C 0.13565 0.62364 -0.06244
 C391 C 0.10945 0.59533 -0.05573
 C392 C 0.08564 0.58545 -0.08488
 C393 C 0.09093 0.60091 -0.12278
 H394 H 0.20201 0.73546 -0.12368
 H395 H 0.14003 0.67941 -0.23655
 H396 H 0.17675 0.73693 -0.24597
 H397 H 0.10835 0.63412 -0.19202
 H398 H 0.17944 0.68222 -0.08151
 H399 H 0.15261 0.63187 -0.03869
 H400 H 0.10755 0.58098 -0.02762
 H401 H 0.07336 0.59224 -0.14583
 C402 C -0.13607 0.71024 0.15721
 C403 C -0.11904 0.68225 0.13576
 C404 C -0.12410 0.67999 0.09495
 C405 C -0.14514 0.70594 0.07610
 C406 C -0.16151 0.73365 0.09731
 C407 C -0.15794 0.73587 0.13816
 C408 C -0.10786 0.65206 0.07335
 C409 C -0.08584 0.62658 0.09167
 C410 C -0.08007 0.62898 0.13228
 C411 C -0.09701 0.65654 0.15419
 C412 C -0.05702 0.60406 0.15008
 C413 C -0.03935 0.57767 0.12775
 C414 C -0.04496 0.57512 0.08736
 C415 C -0.06881 0.59931 0.06970
 H416 H -0.13279 0.71169 0.18856
 H417 H -0.14885 0.70494 0.04478
 H418 H -0.17703 0.75365 0.08144
 H419 H -0.11199 0.65048 0.04211
 H420 H -0.09272 0.65822 0.18537
 H421 H -0.05213 0.60544 0.18113
 H422 H -0.02103 0.55941 0.14203
 H423 H -0.07325 0.59778 0.03854
 C424 C 1.15928 0.15318 0.70832
 C425 C 1.13466 0.14081 0.68078
 C426 C 1.09797 0.14644 0.68732
 C427 C 1.08667 0.16525 0.72071
 C428 C 1.11128 0.17694 0.74826
 C429 C 1.14772 0.17044 0.74274
 C430 C 1.07307 0.13188 0.66126
 C431 C 1.08430 0.11067 0.62948
 C432 C 1.12106 0.10580 0.62242
 C433 C 1.14604 0.12149 0.64772
 C434 C 1.13213 0.08372 0.59130
 C435 C 1.10700 0.06462 0.56901
 C436 C 1.07042 0.06800 0.57686
 C437 C 1.05923 0.09235 0.60609
 H438 H 1.18735 0.14851 0.70345
 H439 H 1.05867 0.16981 0.72617
 H440 H 1.10156 0.18980 0.77466
 H441 H 1.04488 0.13558 0.66672
 H442 H 1.17419 0.11716 0.64270
 H443 H 1.16019 0.07983 0.58535
 H444 H 1.11615 0.04612 0.54647
 H445 H 1.03105 0.09486 0.61257
 C446 C 0.84853 -0.17800 0.75120
 C447 C 0.86665 -0.15235 0.72498
 C448 C 0.86617 -0.11345 0.73210
 C449 C 0.84773 -0.10079 0.76494
 C450 C 0.82866 -0.12612 0.78982
 C451 C 0.82820 -0.16510 0.78323
 C452 C 0.88316 -0.08758 0.70571
 C453 C 0.89929 -0.09981 0.67118
 C454 C 0.89965 -0.13859 0.66353
 C455 C 0.88396 -0.16473 0.69091
 C456 C 0.91468 -0.15035 0.62803
 C457 C 0.92802 -0.12387 0.59990
 C458 C 0.92733 -0.08529 0.60726
 C459 C 0.91373 -0.07359 0.64342
 H460 H 0.84828 -0.20768 0.74497
 H461 H 0.84741 -0.07109 0.77097
 H462 H 0.81503 -0.11493 0.81502
 H463 H 0.88260 -0.05777 0.71132
 H464 H 0.88409 -0.19448 0.68502
 H465 H 0.91524 -0.17994 0.62157
 H466 H 0.93862 -0.13349 0.57228
 H467 H 0.91284 -0.04386 0.64927
 C468 C 1.12392 -0.14715 0.25901
 C469 C 1.10109 -0.13611 0.28896
 C470 C 1.06463 -0.13171 0.28186
 C471 C 1.05115 -0.14192 0.24553
 C472 C 1.07407 -0.15439 0.21598
 C473 C 1.11101 -0.15523 0.22187
 C474 C 1.04273 -0.11637 0.31085
 C475 C 1.05704 -0.10624 0.34688
 C476 C 1.09292 -0.11390 0.35465
 C477 C 1.11468 -0.12851 0.32563
 C478 C 1.10705 -0.10563 0.39096
 C479 C 1.08649 -0.08811 0.41883
 C480 C 1.05167 -0.07795 0.41066
 C481 C 1.03664 -0.08767 0.37493
 H482 H 1.15198 -0.14970 0.26479
 H483 H 1.02314 -0.13946 0.23968
 H484 H 1.06318 -0.16067 0.18774
 H485 H 1.01502 -0.11155 0.30510
 H486 H 1.14252 -0.13295 0.33122
 H487 H 1.13433 -0.11178 0.39741
 H488 H 1.09854 -0.08076 0.44621
 H489 H 1.00961 -0.08022 0.36881
 C490 C 0.83461 0.15751 0.29774
 C491 C 0.84129 0.13268 0.32904
 C492 C 0.83078 0.09434 0.32687
 C493 C 0.81280 0.08166 0.29417
 C494 C 0.80641 0.10630 0.26312
 C495 C 0.81764 0.14464 0.26384
 C496 C 0.83972 0.06889 0.35656
 C497 C 0.86018 0.08108 0.38783
 C498 C 0.86966 0.11969 0.39085
 C499 C 0.85951 0.14536 0.36185
 C500 C 0.89126 0.13158 0.42137
 C501 C 0.90602 0.10515 0.44633
 C502 C 0.89837 0.06665 0.44199
 C503 C 0.87383 0.05487 0.41420
 H504 H 0.84234 0.18689 0.30036
 H505 H 0.80472 0.05229 0.29194
 H506 H 0.79453 0.09424 0.23759
 H507 H 0.83244 0.03930 0.35422
 H508 H 0.86753 0.17481 0.36371
 H509 H 0.89869 0.16103 0.42428
 H510 H 0.92512 0.11457 0.46755
 H511 H 0.86849 0.02509 0.41030
 C512 C 0.17953 0.28710 -0.16338
 C513 C 0.16927 0.31621 -0.13909
 C514 C 0.16651 0.30994 -0.09806
 C515 C 0.17558 0.27523 -0.08193
 C516 C 0.18538 0.24630 -0.10633
 C517 C 0.18661 0.25166 -0.14726
 C518 C 0.15295 0.33768 -0.07404
 C519 C 0.14080 0.37097 -0.09071
 C520 C 0.14496 0.37785 -0.13157
 C521 C 0.15988 0.35076 -0.15538
 C522 C 0.13187 0.41060 -0.14835
 C523 C 0.11197 0.43452 -0.12553
 C524 C 0.10572 0.42664 -0.08542
 C525 C 0.12194 0.39601 -0.06768
 H526 H 0.18085 0.29159 -0.19488
 H527 H 0.17374 0.26996 -0.05057
 H528 H 0.19050 0.21916 -0.09322
 H529 H 0.14985 0.33239 -0.04271
 H530 H 0.16213 0.35563 -0.18682
 H531 H 0.13507 0.41647 -0.17953
 H532 H 0.09980 0.45817 -0.13963
 H533 H 0.11696 0.38963 -0.03680
 C534 C -0.15121 0.28274 0.15381
 C535 C -0.12560 0.30985 0.13999
 C536 C -0.08941 0.30538 0.14835
 C537 C -0.07964 0.27507 0.17193
 C538 C -0.10527 0.24845 0.18601
 C539 C -0.14137 0.25113 0.17630
 C540 C -0.06342 0.33087 0.13245
 C541 C -0.07322 0.36109 0.10866
 C542 C -0.10954 0.36688 0.10182
 C543 C -0.13557 0.34105 0.11741
 C544 C -0.11899 0.39812 0.07899
 C545 C -0.09258 0.42278 0.06231
 C546 C -0.05658 0.41590 0.06768
 C547 C -0.04708 0.38535 0.09117
 H548 H -0.17890 0.28673 0.14739
 H549 H -0.05197 0.27140 0.17873
 H550 H -0.09601 0.22450 0.20228
 H551 H -0.03553 0.32692 0.13815
 H552 H -0.16342 0.34488 0.11149
 H553 H -0.14671 0.40320 0.07370
 H554 H -0.10014 0.44641 0.04428
 H555 H -0.01915 0.38046 0.09569
 C556 C -0.16130 0.69668 -0.15763
 C557 C -0.14518 0.66632 -0.13899
 C558 C -0.15415 0.65696 -0.09945
 C559 C -0.18001 0.67689 -0.07969
 C560 C -0.19615 0.70665 -0.09834
 C561 C -0.18677 0.71771 -0.13745
 C562 C -0.13652 0.62847 -0.07983
 C563 C -0.10985 0.60913 -0.09922
 C564 C -0.10188 0.61718 -0.13928
 C565 C -0.11967 0.64566 -0.15897
 C566 C -0.07537 0.59745 -0.15858
 C567 C -0.05565 0.57151 -0.13790
 C568 C -0.06209 0.56483 -0.09754
 C569 C -0.09006 0.58292 -0.07868
 H570 H -0.15425 0.70334 -0.18800
 H571 H -0.18713 0.67012 -0.04934
 H572 H -0.21437 0.72237 -0.08071
 H573 H -0.14288 0.62207 -0.04919
 H574 H -0.11295 0.65240 -0.18946
 H575 H -0.06907 0.60297 -0.18935
 H576 H -0.03428 0.55791 -0.15318
 H577 H -0.09536 0.57794 -0.04761
 C578 C 0.15283 0.73442 0.11986
 C579 C 0.14202 0.70454 0.09655
 C580 C 0.12486 0.71221 0.06100
 C581 C 0.12039 0.74939 0.04844
 C582 C 0.13091 0.77888 0.07206
 C583 C 0.14627 0.77136 0.10810
 C584 C 0.11051 0.68269 0.03973
 C585 C 0.11190 0.64581 0.05423
 C586 C 0.13076 0.63761 0.08837
 C587 C 0.14625 0.66720 0.10918
 C588 C 0.13176 0.60021 0.10222
 C589 C 0.11198 0.57175 0.08399
 C590 C 0.09111 0.58058 0.05183
 C591 C 0.09228 0.61747 0.03652
 H592 H 0.16487 0.72903 0.14783
 H593 H 0.10749 0.75559 0.02117
 H594 H 0.12603 0.80748 0.06291
 H595 H 0.09631 0.68860 0.01316
 H596 H 0.15971 0.66133 0.13621
 H597 H 0.14635 0.59331 0.12818
 H598 H 0.11124 0.54350 0.09644
 H599 H 0.07601 0.62477 0.01193
 C600 C 0.28302 1.14425 0.83408
 C601 C 0.30630 1.11926 0.85115
 C602 C 0.29392 1.08241 0.86198
 C603 C 0.25892 1.07069 0.85378
 C604 C 0.23592 1.09579 0.83664
 C605 C 0.24756 1.13294 0.82763
 C606 C 0.31635 1.05833 0.88184
 C607 C 0.35094 1.07071 0.89101
 C608 C 0.36378 1.10698 0.87854
 C609 C 0.34138 1.13100 0.85868
 C610 C 0.39860 1.11898 0.88698
 C611 C 0.42016 1.09578 0.90869
 C612 C 0.40708 1.06044 0.92269
 C613 C 0.37265 1.04775 0.91324
 H614 H 0.29211 1.17286 0.82682
 H615 H 0.24905 1.04249 0.86162
 H616 H 0.20857 1.08669 0.83200
 H617 H 0.30663 1.03036 0.89096
 H618 H 0.35097 1.15912 0.84995
 H619 H 0.40894 1.14656 0.87738
 H620 H 0.44671 1.10600 0.91560
 H621 H 0.36266 1.02026 0.92360
 C622 C 0.25795 0.86166 1.14727
 C623 C 0.28776 0.88536 1.13841
 C624 C 0.28345 0.92444 1.13337
 C625 C 0.24982 0.93933 1.13891
 C626 C 0.22038 0.91557 1.14802
 C627 C 0.22417 0.87665 1.15149
 C628 C 0.31257 0.94791 1.12178
 C629 C 0.34590 0.93285 1.11503
 C630 C 0.35078 0.89412 1.12181
 C631 C 0.32159 0.87054 1.13352
 C632 C 0.38461 0.87958 1.11563
 C633 C 0.41291 0.90299 1.10126
 C634 C 0.40744 0.94093 1.09258
 C635 C 0.37419 0.95587 1.10034
 H636 H 0.26082 0.83158 1.15032
 H637 H 0.24616 0.96921 1.13537
 H638 H 0.19438 0.92744 1.15108
 H639 H 0.30909 0.97774 1.11699
 H640 H 0.32499 0.84066 1.13785
 H641 H 0.38893 0.85005 1.12097
 H642 H 0.43857 0.89119 1.09536
 H643 H 0.37018 0.98537 1.09408
 C644 C 0.71829 1.16600 1.15741
 C645 C 0.69311 1.14742 1.13470
 C646 C 0.70297 1.13495 1.09708
 C647 C 0.73755 1.14323 1.08208
 C648 C 0.76270 1.16143 1.10524
 C649 C 0.75345 1.17170 1.14348
 C650 C 0.67862 1.11307 1.07600
 C651 C 0.64488 1.10310 1.09249
 C652 C 0.63481 1.11707 1.12945
 C653 C 0.65883 1.13937 1.15010
 C654 C 0.60118 1.10757 1.14591
 C655 C 0.57799 1.08350 1.12661
 C656 C 0.58799 1.06832 1.09051
 C657 C 0.62136 1.07863 1.07324
 H658 H 0.71116 1.17416 1.18690
 H659 H 0.74556 1.13419 1.05323
 H660 H 0.78986 1.16554 1.09417
 H661 H 0.68635 1.10273 1.04753
 H662 H 0.65130 1.14923 1.17884
 H663 H 0.59304 1.11820 1.17409
 H664 H 0.55239 1.07608 1.14052
 H665 H 0.62909 1.06740 1.04518
 C666 C 0.69806 0.83610 0.84754
 C667 C 0.66888 0.85173 0.86683
 C668 C 0.66086 0.84144 0.90638
 C669 C 0.68188 0.81588 0.92594
 C670 C 0.71142 0.80144 0.90699
 C671 C 0.72007 0.81145 0.86770
 C672 C 0.63279 0.85790 0.92636
 C673 C 0.61354 0.88578 0.90791
 C674 C 0.62126 0.89626 0.86839
 C675 C 0.64847 0.87854 0.84776
 C676 C 0.60257 0.92536 0.85087
 C677 C 0.57784 0.94508 0.87295
 C678 C 0.57092 0.93535 0.91255
 C679 C 0.58798 0.90472 0.92928
 H680 H 0.70398 0.84375 0.81713
 H681 H 0.67621 0.80801 0.95636
 H682 H 0.72815 0.78333 0.92371
 H683 H 0.62695 0.85021 0.95683
 H684 H 0.65472 0.88672 0.81752
 H685 H 0.60808 0.93381 0.82059
 H686 H 0.56499 0.96859 0.85946
 H687 H 0.58294 0.89691 0.95985
   
