data_POSCAR
  _audit_creation_date              2014-09-24
  _audit_creation_method            'ToBaCCo'
  _symmetry_space_group_name_H-M    'P1'
  _symmetry_Int_Tables_number       1
  _symmetry_cell_setting            triclinic
  loop_
  _symmetry_equiv_pos_as_xyz
 x,y,z
_cell_length_a 38.9353
_cell_length_b 38.5922
_cell_length_c 38.7820
_cell_angle_alpha 89.885300
_cell_angle_beta 89.971000
_cell_angle_gamma 89.866900
loop_
  _atom_site_label
  _atom_site_type_symbol
  _atom_site_fract_x
  _atom_site_fract_y
  _atom_site_fract_z
C1 C 0.19246 1.23536 0.19242
 N2 N 0.22331 1.22270 0.18179
 C3 C 0.23661 1.19332 0.19582
 N4 N 0.21900 1.17683 0.22123
 C5 C 0.18820 1.18911 0.23243
 N6 N 0.17501 1.21817 0.21755
 C7 C 0.81236 0.76381 0.18832
 N8 N 0.82439 0.77589 0.21891
 C9 C 0.80898 0.80296 0.23518
 N10 N 0.78072 0.81770 0.22060
 C11 C 0.76827 0.80602 0.19002
 N12 N 0.78442 0.77930 0.17394
 C13 C 0.81234 1.22707 -0.18637
 N14 N 0.78338 1.21337 -0.17245
 C15 C 0.76610 1.18768 -0.18885
 N16 N 0.77821 1.17558 -0.21944
 C17 C 0.80753 1.18859 -0.23349
 N18 N 0.82436 1.21437 -0.21669
 C19 C 0.18865 0.77141 -0.19241
 N20 N 0.21696 0.78553 -0.17751
 C21 C 0.23004 0.81602 -0.18913
 N22 N 0.21461 0.83239 -0.21606
 C23 C 0.18659 0.81849 -0.23166
 N24 N 0.17381 0.78807 -0.21952
 C25 C 0.55020 1.04905 -0.00897
 H26 H 0.54980 1.05157 0.01880
 C27 C 0.57324 1.06860 -0.02847
 H28 H 0.59065 1.08612 -0.01551
 C29 C 0.52886 1.02204 -0.05942
 H30 H 0.51201 1.00336 -0.07130
 C31 C 0.55179 1.04082 -0.07989
 H32 H 0.55193 1.03690 -0.10754
 N33 N 0.52833 1.02663 -0.02464
 C34 C 0.45103 1.01354 0.05571
 H35 H 0.45153 0.98563 0.05839
 C36 C 0.42899 1.03326 0.07622
 H37 H 0.41241 1.02034 0.09460
 C38 C 0.47107 1.06410 0.02742
 H39 H 0.48699 1.07595 0.00789
 C40 C 0.44913 1.08479 0.04715
 H41 H 0.44883 1.11256 0.04306
 Zn42 Zn 0.49940 1.00006 0.00430
 N43 N 0.47176 1.02916 0.03216
 C44 C 0.53113 0.97701 0.06644
 N45 N 0.52856 0.97211 0.03180
 C46 C 0.54879 0.94870 0.01521
 C47 C 0.57240 0.92865 0.03360
 C48 C 0.55465 0.95772 0.08580
 C49 C 0.44798 0.98956 -0.04444
 C50 C 0.42416 0.97127 -0.06412
 C51 C 0.44323 0.91836 -0.03667
 C52 C 0.46700 0.93765 -0.01776
 N53 N 0.46908 0.97258 -0.02215
 H54 H 0.51559 0.99645 0.07903
 H55 H 0.54680 0.94593 -0.01247
 H56 H 0.58860 0.91048 0.01988
 H57 H 0.55645 0.96198 0.11333
 H58 H 0.44965 1.01744 -0.04684
 H59 H 0.40743 0.98527 -0.08159
 H60 H 0.44190 0.89058 -0.03297
 H61 H 0.48333 0.92474 0.00078
 C62 C 0.42774 1.06936 0.07194
 C63 C 0.57430 1.06450 -0.06440
 C64 C 0.42152 0.93521 -0.06028
 C65 C 0.57570 0.93321 0.06935
 C66 C -0.00459 0.55829 1.03523
 H67 H 0.02231 0.56246 1.02963
 C68 C -0.02289 0.58288 1.05416
 H69 H -0.00975 0.60608 1.06244
 C70 C -0.05443 0.52383 1.02909
 H71 H -0.06689 0.50118 1.01880
 C72 C -0.07355 0.54737 1.04862
 H73 H -0.10027 0.54174 1.05378
 N74 N -0.02048 0.52948 1.02306
 C75 C 0.05151 0.44502 1.00847
 H76 H 0.04676 0.43976 0.98150
 C77 C 0.07174 0.42235 1.02780
 H78 H 0.08192 0.39946 1.01536
 C79 C 0.04169 0.48021 1.05748
 H80 H 0.02950 0.50256 1.06898
 C81 C 0.06236 0.45854 1.07769
 H82 H 0.06635 0.46501 1.10452
 Zn83 Zn 0.00662 0.49933 0.99566
 N84 N 0.03662 0.47300 1.02357
 C85 C 0.06694 0.52922 0.96767
 N86 N 0.03216 0.52752 0.96513
 C87 C 0.01456 0.54826 0.94296
 C88 C 0.03197 0.57189 0.92209
 C89 C 0.08536 0.55301 0.94776
 C90 C -0.03978 0.44418 0.98945
 C91 C -0.05918 0.41896 0.97266
 C92 C -0.03833 0.44084 0.91815
 C93 C -0.01970 0.46596 0.93596
 N94 N -0.02096 0.46739 0.97100
 H95 H 0.08035 0.51303 0.98605
 H96 H -0.01316 0.54672 0.94185
 H97 H 0.01731 0.58774 0.90433
 H98 H 0.11285 0.55488 0.95134
 H99 H -0.03933 0.44500 1.01733
 H100 H -0.07387 0.40056 0.98773
 H101 H -0.03706 0.44003 0.89026
 H102 H -0.00370 0.48376 0.92173
 C103 C 0.07735 0.42878 1.06303
 C104 C -0.05793 0.57763 1.06129
 C105 C -0.05842 0.41701 0.93655
 C106 C 0.06786 0.57508 0.92476
 C107 C 1.04435 -0.00615 0.54768
 H108 H 1.04624 0.02158 0.54396
 C109 C 1.06489 -0.02258 0.57229
 H110 H 1.08308 -0.00728 0.58681
 C111 C 1.01823 -0.05947 0.53299
 H112 H 0.99932 -0.07361 0.51832
 C113 C 1.03791 -0.07688 0.55766
 H114 H 1.03379 -0.10434 0.56155
 N115 N 1.02188 -0.02474 0.52834
 C116 C 1.00273 0.04649 0.44257
 H117 H 0.97498 0.04779 0.44314
 C118 C 1.02094 0.06542 0.41791
 H119 H 1.00713 0.08157 0.39970
 C120 C 1.05444 0.02262 0.46455
 H121 H 1.06738 0.00532 0.48220
 C122 C 1.07359 0.04055 0.43985
 H123 H 1.10123 0.03745 0.43915
 Zn124 Zn 0.99317 -0.00012 0.49733
 N125 N 1.01967 0.02616 0.46572
 C126 C 0.96056 0.06297 0.51966
 N127 N 0.96430 0.02828 0.52467
 C128 C 0.94843 0.01193 0.55130
 C129 C 0.92826 0.03055 0.57453
 C130 C 0.93978 0.08249 0.54175
 C131 C 0.98369 -0.05470 0.45147
 C132 C 0.96586 -0.07642 0.42910
 C133 C 0.91301 -0.04840 0.44626
 C134 C 0.93185 -0.02762 0.46885
 N135 N 0.96656 -0.03097 0.47080
 H136 H 0.97380 0.07574 0.49878
 H137 H 0.95222 -0.01561 0.55498
 H138 H 0.91731 0.01691 0.59628
 H139 H 0.93666 0.10988 0.53666
 H140 H 1.01137 -0.05648 0.45325
 H141 H 0.98013 -0.09544 0.41442
 H142 H 0.88559 -0.04429 0.44412
 H143 H 0.91886 -0.00801 0.48389
 C144 C 1.05679 0.06240 0.41633
 C145 C 1.06169 -0.05845 0.57778
 C146 C 0.93004 -0.07304 0.42568
 C147 C 0.92355 0.06644 0.57002
 C148 C 0.14850 0.32309 1.14287
 C149 C 0.18276 0.31343 1.13640
 C150 C 0.19732 0.28467 1.15281
 C151 C 0.17827 0.26512 1.17683
 C152 C 0.14440 0.27563 1.18426
 C153 C 0.12963 0.30390 1.16722
 C154 C 0.13205 0.35206 1.12332
 C155 C 0.10609 0.37246 1.13840
 C156 C 0.08881 0.39770 1.11913
 C157 C 0.09744 0.40374 1.08440
 C158 C 0.12443 0.38440 1.06981
 C159 C 0.14120 0.35868 1.08884
 H160 H 0.22362 0.27791 1.14662
 H161 H 0.12870 0.26139 1.20246
 H162 H 0.06799 0.41171 1.13130
 H163 H 0.13244 0.38876 1.04344
 H164 H 0.10301 0.30998 1.17252
 H165 H 0.09877 0.36875 1.16507
 H166 H 0.19848 0.32803 1.11855
 H167 H 0.16069 0.34337 1.07604
 C168 C -0.13524 0.68240 1.13660
 C169 C -0.12675 0.69126 1.17071
 C170 C -0.14393 0.71807 1.18770
 C171 C -0.17078 0.73634 1.17140
 C172 C -0.17995 0.72678 1.13760
 C173 C -0.16216 0.70053 1.12034
 C174 C -0.11573 0.65489 1.11790
 C175 C -0.13179 0.63420 1.09284
 C176 C -0.11315 0.60930 1.07451
 C177 C -0.07804 0.60379 1.08123
 C178 C -0.06218 0.62395 1.10684
 C179 C -0.08062 0.64938 1.12459
 H180 H -0.13623 0.72416 1.21382
 H181 H -0.20031 0.74017 1.12394
 H182 H -0.12630 0.59479 1.05468
 H183 H -0.03541 0.62016 1.11336
 H184 H -0.16912 0.69505 1.09390
 H185 H -0.15888 0.63710 1.08730
 H186 H -0.10687 0.67739 1.18453
 H187 H -0.06704 0.66505 1.14322
 C188 C -0.13332 0.30882 0.86573
 C189 C -0.12748 0.30215 0.83056
 C190 C -0.14498 0.27553 0.81374
 C191 C -0.16910 0.25522 0.83153
 C192 C -0.17526 0.26204 0.86657
 C193 C -0.15743 0.28837 0.88352
 C194 C -0.11422 0.33680 0.88379
 C195 C -0.13016 0.35665 0.90970
 C196 C -0.11203 0.38262 0.92689
 C197 C -0.07773 0.38964 0.91826
 C198 C -0.06182 0.37010 0.89226
 C199 C -0.07977 0.34384 0.87537
 H200 H -0.13988 0.27114 0.78664
 H201 H -0.19351 0.24668 0.88108
 H202 H -0.12496 0.39759 0.94663
 H203 H -0.03522 0.37470 0.88548
 H204 H -0.16216 0.29231 0.91074
 H205 H -0.15681 0.35244 0.91643
 H206 H -0.10964 0.31776 0.81584
 H207 H -0.06641 0.32866 0.85611
 C208 C 0.14107 0.68309 0.85139
 C209 C 0.17320 0.69410 0.86342
 C210 C 0.18931 0.72288 0.84861
 C211 C 0.17381 0.74098 0.82104
 C212 C 0.14224 0.72869 0.80814
 C213 C 0.12595 0.70035 0.82340
 C214 C 0.12238 0.65493 0.86919
 C215 C 0.08839 0.66023 0.87996
 C216 C 0.07081 0.63437 0.89788
 C217 C 0.08659 0.60226 0.90492
 C218 C 0.12058 0.59689 0.89362
 C219 C 0.13840 0.62310 0.87623
 H220 H 0.21366 0.73117 0.85922
 H221 H 0.12939 0.74154 0.78689
 H222 H 0.04509 0.63997 0.90688
 H223 H 0.13343 0.57238 0.89801
 H224 H 0.10128 0.69206 0.81353
 H225 H 0.07571 0.68480 0.87526
 H226 H 0.18526 0.68119 0.88510
 H227 H 0.16457 0.61842 0.86794
 C228 C 1.13316 0.13618 0.31104
 C229 C 1.16671 0.12602 0.30211
 C230 C 1.18474 0.14325 0.27608
 C231 C 1.17000 0.17168 0.25862
 C232 C 1.13657 0.18214 0.26795
 C233 C 1.11833 0.16443 0.29352
 C234 C 1.11369 0.11729 0.33832
 C235 C 1.09031 0.13491 0.35982
 C236 C 1.07168 0.11704 0.38499
 C237 C 1.07649 0.08132 0.38972
 C238 C 1.10000 0.06367 0.36868
 C239 C 1.11816 0.08137 0.34305
 H240 H 1.21047 0.13442 0.27006
 H241 H 1.12405 0.20369 0.25513
 H242 H 1.05386 0.13121 0.40118
 H243 H 1.10380 0.03601 0.37162
 H244 H 1.09233 0.17265 0.29912
 H245 H 1.08664 0.16263 0.35753
 H246 H 1.17935 0.10491 0.31548
 H247 H 1.13527 0.06670 0.32660
 C248 C 1.13731 -0.12956 0.68554
 C249 C 1.12645 -0.16261 0.69586
 C250 C 1.14266 -0.17973 0.72315
 C251 C 1.17056 -0.16439 0.74053
 C252 C 1.18172 -0.13140 0.72960
 C253 C 1.16507 -0.11410 0.70263
 C254 C 1.11916 -0.11101 0.65747
 C255 C 1.10865 -0.07650 0.66191
 C256 C 1.09016 -0.05943 0.63606
 C257 C 1.08220 -0.07634 0.60495
 C258 C 1.09340 -0.11073 0.60036
 C259 C 1.11145 -0.12794 0.62644
 H260 H 1.13319 -0.20506 0.73051
 H261 H 1.20305 -0.11858 0.74210
 H262 H 1.08142 -0.03325 0.64088
 H263 H 1.08839 -0.12437 0.57654
 H264 H 1.17403 -0.08869 0.69495
 H265 H 1.11392 -0.06305 0.68581
 H266 H 1.10489 -0.17493 0.68324
 H267 H 1.11964 -0.15445 0.62229
 C268 C 0.85592 -0.15114 0.32226
 C269 C 0.87108 -0.17981 0.30607
 C270 C 0.85491 -0.19587 0.27826
 C271 C 0.82338 -0.18317 0.26546
 C272 C 0.80767 -0.15514 0.28270
 C273 C 0.82370 -0.13947 0.31091
 C274 C 0.87479 -0.13213 0.34935
 C275 C 0.90885 -0.12197 0.34352
 C276 C 0.92663 -0.10287 0.36822
 C277 C 0.91097 -0.09396 0.39972
 C278 C 0.87686 -0.10453 0.40564
 C279 C 0.85886 -0.12317 0.38057
 H280 H 0.86787 -0.21751 0.26613
 H281 H 0.78332 -0.14468 0.27403
 H282 H 0.95244 -0.09446 0.36219
 H283 H 0.86410 -0.09864 0.42973
 H284 H 0.81158 -0.11731 0.32299
 H285 H 0.92147 -0.12806 0.31937
 H286 H 0.89579 -0.18947 0.31466
 H287 H 0.83262 -0.13091 0.38566
 C288 C 0.85076 0.14283 0.67689
 C289 C 0.81700 0.13489 0.68718
 C290 C 0.80258 0.15012 0.71652
 C291 C 0.82115 0.17454 0.73592
 C292 C 0.85431 0.18369 0.72464
 C293 C 0.86905 0.16769 0.69595
 C294 C 0.86746 0.12425 0.64751
 C295 C 0.89334 0.14023 0.62778
 C296 C 0.91118 0.12174 0.60249
 C297 C 0.90304 0.08695 0.59542
 C298 C 0.87598 0.07154 0.61396
 C299 C 0.85882 0.08971 0.63991
 H300 H 0.77678 0.14268 0.72387
 H301 H 0.86966 0.20226 0.73874
 H302 H 0.93200 0.13463 0.58923
 H303 H 0.86814 0.04519 0.60880
 H304 H 0.89531 0.17415 0.68954
 H305 H 0.90026 0.16701 0.63204
 H306 H 0.80158 0.11671 0.67273
 H307 H 0.83943 0.07613 0.65461
 C308 C 0.32552 1.14592 0.14934
 C309 C 0.30592 1.12787 0.17395
 C310 C 0.27788 1.14371 0.19001
 C311 C 0.26853 1.17791 0.18163
 C312 C 0.28876 1.19637 0.15787
 C313 C 0.31700 1.18060 0.14202
 C314 C 0.35349 1.12801 0.13015
 C315 C 0.35850 1.13452 0.09479
 C316 C 0.38319 1.11608 0.07613
 C317 C 0.40325 1.09052 0.09230
 C318 C 0.39879 1.08442 0.12773
 C319 C 0.37431 1.10308 0.14649
 H320 H 0.26280 1.12867 0.20808
 H321 H 0.28247 1.22286 0.15106
 H322 H 0.38577 1.12099 0.04874
 H323 H 0.41426 1.06518 0.14093
 H324 H 0.33195 1.19549 0.12372
 H325 H 0.34254 1.15304 0.08119
 H326 H 0.31139 1.10100 0.17990
 H327 H 0.37160 1.09785 0.17379
 C328 C 0.67909 1.13901 -0.14012
 C329 C 0.69930 1.16308 -0.12211
 C330 C 0.72700 1.17941 -0.13818
 C331 C 0.73541 1.17186 -0.17261
 C332 C 0.71494 1.14819 -0.19084
 C333 C 0.68703 1.13204 -0.17481
 C334 C 0.65066 1.12047 -0.12232
 C335 C 0.64444 1.08521 -0.12898
 C336 C 0.61907 1.06726 -0.11077
 C337 C 0.59957 1.08408 -0.08531
 C338 C 0.60527 1.11943 -0.07909
 C339 C 0.63039 1.13747 -0.09750
 H340 H 0.74231 1.19734 -0.12328
 H341 H 0.72056 1.14197 -0.21747
 H342 H 0.61548 1.03991 -0.11580
 H343 H 0.59023 1.13312 -0.05994
 H344 H 0.67167 1.11408 -0.18962
 H345 H 0.65990 1.07115 -0.14749
 H346 H 0.69434 1.16865 -0.09521
 H347 H 0.63400 1.16475 -0.09221
 C348 C 0.31551 0.86351 -0.13679
 C349 C 0.29639 0.88211 -0.16143
 C350 C 0.26909 0.86651 -0.17880
 C351 C 0.25998 0.83199 -0.17175
 C352 C 0.27924 0.81325 -0.14734
 C353 C 0.30676 0.82878 -0.13017
 C354 C 0.34387 0.88060 -0.11756
 C355 C 0.34930 0.87340 -0.08240
 C356 C 0.37498 0.89058 -0.06399
 C357 C 0.39560 0.91556 -0.08023
 C358 C 0.39058 0.92244 -0.11544
 C359 C 0.36514 0.90504 -0.13394
 H360 H 0.25469 0.88179 -0.19726
 H361 H 0.27307 0.78654 -0.14147
 H362 H 0.37803 0.88508 -0.03676
 H363 H 0.40647 0.94123 -0.12870
 H364 H 0.32127 0.81351 -0.11179
 H365 H 0.33307 0.85518 -0.06880
 H366 H 0.30198 0.90905 -0.16677
 H367 H 0.36218 0.91072 -0.16112
 C368 C 0.68243 0.85748 0.14163
 C369 C 0.70176 0.83260 0.12358
 C370 C 0.72923 0.81555 0.13945
 C371 C 0.73824 0.82312 0.17371
 C372 C 0.71872 0.84772 0.19191
 C373 C 0.69107 0.86461 0.17610
 C374 C 0.65398 0.87649 0.12426
 C375 C 0.64854 0.91193 0.13070
 C376 C 0.62271 0.93015 0.11338
 C377 C 0.60187 0.91342 0.08903
 C378 C 0.60695 0.87793 0.08285
 C379 C 0.63261 0.85963 0.10036
 H380 H 0.74381 0.79689 0.12458
 H381 H 0.72478 0.85399 0.21842
 H382 H 0.61969 0.95760 0.11829
 H383 H 0.59095 0.86429 0.06454
 H384 H 0.67638 0.88318 0.19095
 H385 H 0.66487 0.92589 0.14846
 H386 H 0.69621 0.82687 0.09684
 H387 H 0.63565 0.83223 0.09525
   
