data_POSCAR
  _audit_creation_date              2014-09-24
  _audit_creation_method            'ToBaCCo'
  _symmetry_space_group_name_H-M    'P1'
  _symmetry_Int_Tables_number       1
  _symmetry_cell_setting            triclinic
  loop_
  _symmetry_equiv_pos_as_xyz
 x,y,z
_cell_length_a 38.0505
_cell_length_b 43.3427
_cell_length_c 39.7112
_cell_angle_alpha 91.789900
_cell_angle_beta 90.906900
_cell_angle_gamma 87.588900
loop_
  _atom_site_label
  _atom_site_type_symbol
  _atom_site_fract_x
  _atom_site_fract_y
  _atom_site_fract_z
C1 C 0.24952 0.29428 0.21177
 C2 C 0.23294 0.28140 0.23900
 C3 C 0.21427 0.30065 0.26216
 C4 C 0.21137 0.33274 0.25771
 C5 C 0.22772 0.34520 0.23011
 C6 C 0.24739 0.32633 0.20745
 C7 C 0.23363 0.24760 0.24212
 C8 C 0.25133 0.23355 0.26918
 C9 C 0.25329 0.20125 0.27123
 C10 C 0.23537 0.18317 0.24695
 C11 C 0.21662 0.19719 0.22027
 C12 C 0.21676 0.22935 0.21761
 H13 H 0.26344 0.27918 0.19378
 H14 H 0.20090 0.29027 0.28253
 H15 H 0.26468 0.24773 0.28792
 H16 H 0.20290 0.24039 0.19685
 H17 H 0.22556 0.36991 0.22648
 H18 H 0.23618 0.15831 0.24879
 C19 C 0.76952 0.77296 0.22502
 C20 C 0.74830 0.76030 0.24903
 C21 C 0.72706 0.77970 0.26975
 C22 C 0.72585 0.81196 0.26584
 C23 C 0.74660 0.82426 0.24083
 C24 C 0.76912 0.80500 0.22058
 C25 C 0.74648 0.72651 0.25078
 C26 C 0.76103 0.71081 0.27837
 C27 C 0.75944 0.67847 0.27961
 C28 C 0.74179 0.66241 0.25363
 C29 C 0.72637 0.67805 0.22627
 C30 C 0.72960 0.71005 0.22472
 H31 H 0.78599 0.75754 0.20936
 H32 H 0.71030 0.76911 0.28744
 H33 H 0.77345 0.72396 0.29851
 H34 H 0.71817 0.72239 0.20359
 H35 H 0.74594 0.84904 0.23841
 H36 H 0.74104 0.63752 0.25450
 C37 C 0.78792 0.27404 0.71511
 C38 C 0.76298 0.25987 0.73431
 C39 C 0.73874 0.27797 0.75338
 C40 C 0.73932 0.31047 0.75367
 C41 C 0.76424 0.32429 0.73384
 C42 C 0.78881 0.30633 0.71469
 C43 C 0.76303 0.22598 0.73595
 C44 C 0.78957 0.21021 0.75417
 C45 C 0.78751 0.17853 0.76002
 C46 C 0.75945 0.16242 0.74512
 C47 C 0.73383 0.17770 0.72513
 C48 C 0.73522 0.20977 0.72153
 H49 H 0.80670 0.25985 0.70058
 H50 H 0.72057 0.26618 0.76859
 H51 H 0.81077 0.22316 0.76545
 H52 H 0.71462 0.22236 0.70794
 H53 H 0.76392 0.34922 0.73305
 H54 H 0.75799 0.13773 0.74766
 C55 C 0.29441 0.79329 0.73086
 C56 C 0.27142 0.77856 0.75167
 C57 C 0.24462 0.79578 0.76818
 C58 C 0.24060 0.82777 0.76419
 C59 C 0.26272 0.84222 0.74210
 C60 C 0.28996 0.82514 0.72513
 C61 C 0.27419 0.74486 0.75529
 C62 C 0.30179 0.73120 0.77416
 C63 C 0.30216 0.69954 0.78045
 C64 C 0.27572 0.68135 0.76622
 C65 C 0.24901 0.69449 0.74590
 C66 C 0.24791 0.72651 0.74122
 H67 H 0.31501 0.77956 0.71818
 H68 H 0.22677 0.78404 0.78394
 H69 H 0.32202 0.74542 0.78515
 H70 H 0.22652 0.73742 0.72704
 H71 H 0.25908 0.86689 0.73949
 H72 H 0.27648 0.65669 0.77020
 C73 C 0.04188 0.03224 0.02744
 H74 H 0.04606 0.03357 0.00064
 C75 C 0.06221 0.04939 0.05014
 H76 H 0.08225 0.06343 0.04030
 C77 C 0.01145 0.01102 0.07225
 H78 H -0.00853 -0.00375 0.08079
 C79 C 0.03121 0.02777 0.09587
 H80 H 0.02640 0.02553 0.12247
 N81 N 0.01747 0.01318 0.03875
 C82 C 0.01357 -0.05178 -0.04709
 H83 H -0.01383 -0.04950 -0.05468
 C84 C 0.03715 -0.07002 -0.06660
 H85 H 0.02766 -0.08197 -0.08907
 C86 C 0.05906 -0.03944 -0.00814
 H87 H 0.06747 -0.02776 0.01484
 C88 C 0.08331 -0.05798 -0.02645
 H89 H 0.11035 -0.06017 -0.01761
 Zn90 Zn -0.00723 -0.01008 0.00559
 N91 N 0.02506 -0.03620 -0.01902
 C92 C -0.02141 0.02070 -0.05598
 N93 N -0.03069 0.01861 -0.02322
 C94 C -0.05709 0.03705 -0.00998
 C95 C -0.07752 0.05640 -0.03061
 C96 C -0.04052 0.04040 -0.07739
 C97 C -0.02755 -0.05679 0.04801
 C98 C -0.05067 -0.07454 0.06549
 C99 C -0.09915 -0.04908 0.03605
 C100 C -0.07509 -0.03216 0.01892
 N101 N -0.04007 -0.03545 0.02596
 H102 H 0.00059 0.00688 -0.06579
 H103 H -0.06321 0.03574 0.01644
 H104 H -0.09944 0.06983 -0.01975
 H105 H -0.03313 0.04042 -0.10354
 H106 H 0.00049 -0.05939 0.05274
 H107 H -0.03958 -0.09035 0.08367
 H108 H -0.12698 -0.04535 0.03057
 H109 H -0.08467 -0.01625 0.00023
 C110 C 0.07262 -0.07290 -0.05644
 C111 C 0.05698 0.04726 0.08495
 C112 C -0.08727 -0.07036 0.06010
 C113 C -0.06974 0.05805 -0.06495
 C114 C 0.05873 0.55862 0.52852
 H115 H 0.05824 0.55810 0.50126
 C116 C 0.08169 0.57770 0.54621
 H117 H 0.09889 0.59190 0.53241
 C118 C 0.03671 0.54083 0.57957
 H119 H 0.01928 0.52633 0.59251
 C120 C 0.05937 0.55949 0.59830
 H121 H 0.05824 0.55952 0.62548
 N122 N 0.03634 0.54115 0.54533
 C123 C 0.02775 0.49181 0.45569
 H124 H 0.00809 0.50739 0.44489
 C125 C 0.04794 0.47205 0.43453
 H126 H 0.04273 0.47234 0.40770
 C127 C 0.05763 0.47222 0.50380
 H128 H 0.06117 0.47249 0.53089
 C129 C 0.07832 0.45202 0.48359
 H130 H 0.09784 0.43673 0.49528
 Zn131 Zn 0.00504 0.51717 0.51908
 N132 N 0.03259 0.49126 0.48967
 C133 C -0.05207 0.52974 0.47552
 N134 N -0.02647 0.54321 0.49435
 C135 C -0.02402 0.57442 0.49601
 C136 C -0.04705 0.59327 0.47725
 C137 C -0.07580 0.54769 0.45643
 C138 C -0.02071 0.46161 0.54314
 C139 C -0.04100 0.44374 0.56334
 C140 C -0.06462 0.49072 0.59024
 C141 C -0.04402 0.50765 0.56933
 N142 N -0.02218 0.49293 0.54675
 H143 H -0.05377 0.50487 0.47507
 H144 H -0.00422 0.58488 0.51184
 H145 H -0.04420 0.61806 0.47871
 H146 H -0.09518 0.53580 0.44142
 H147 H -0.00395 0.45031 0.52442
 H148 H -0.03851 0.41898 0.55974
 H149 H -0.08153 0.50303 0.60829
 H150 H -0.04523 0.53263 0.57124
 C151 C 0.07369 0.45180 0.44850
 C152 C 0.08218 0.57836 0.58153
 C153 C -0.06339 0.45826 0.58755
 C154 C -0.07334 0.58011 0.45685
 C155 C 0.54231 0.05370 0.50151
 H156 H 0.54413 0.05258 0.47433
 C157 C 0.56292 0.07396 0.52044
 H158 H 0.58068 0.08843 0.50768
 C159 C 0.51678 0.03624 0.55113
 H160 H 0.49835 0.02188 0.56297
 C161 C 0.53705 0.05605 0.57106
 H162 H 0.53360 0.05676 0.59805
 N163 N 0.52016 0.03506 0.51705
 C164 C 0.51104 -0.04228 0.44471
 H165 H 0.48304 -0.04163 0.43944
 C166 C 0.53319 -0.06379 0.42761
 H167 H 0.52213 -0.07970 0.40916
 C168 C 0.55946 -0.02284 0.47573
 H169 H 0.56959 -0.00706 0.49473
 C170 C 0.58237 -0.04459 0.45998
 H171 H 0.61009 -0.04519 0.46670
 Zn172 Zn 0.49375 0.00786 0.48940
 N173 N 0.52456 -0.02173 0.46752
 C174 C 0.47173 0.02684 0.42388
 N175 N 0.46802 0.03217 0.45758
 C176 C 0.44598 0.05531 0.46961
 C177 C 0.42511 0.07303 0.44757
 C178 C 0.45133 0.04386 0.40094
 C179 C 0.47734 -0.03444 0.53803
 C180 C 0.45613 -0.05060 0.55918
 C181 C 0.40509 -0.02466 0.53434
 C182 C 0.42729 -0.00929 0.51347
 N183 N 0.46277 -0.01394 0.51609
 H184 H 0.49035 0.00930 0.41455
 H185 H 0.44408 0.05957 0.49652
 H186 H 0.40736 0.09056 0.45842
 H187 H 0.45436 0.03867 0.37424
 H188 H 0.50565 -0.03789 0.53943
 H189 H 0.46901 -0.06604 0.57673
 H190 H 0.37692 -0.02015 0.53209
 H191 H 0.41601 0.00650 0.49539
 C192 C 0.56938 -0.06487 0.43511
 C193 C 0.56089 0.07494 0.55569
 C194 C 0.41926 -0.04562 0.55776
 C195 C 0.42719 0.06710 0.41251
 C196 C 0.55583 0.52005 0.02113
 H197 H 0.55726 0.52434 -0.00550
 C198 C 0.57742 0.53574 0.04407
 H199 H 0.59582 0.55153 0.03451
 C200 C 0.53016 0.49374 0.06536
 H201 H 0.51130 0.47781 0.07369
 C202 C 0.55126 0.50887 0.08913
 H203 H 0.54865 0.50413 0.11558
 N204 N 0.53301 0.49933 0.03202
 C205 C 0.51205 0.43738 -0.05378
 H206 H 0.48360 0.43867 -0.05364
 C207 C 0.52971 0.41769 -0.07691
 H208 H 0.51475 0.40383 -0.09470
 C209 C 0.56618 0.45351 -0.03028
 H210 H 0.58027 0.46697 -0.01159
 C211 C 0.58491 0.43439 -0.05327
 H212 H 0.61335 0.43330 -0.05182
 Zn213 Zn 0.50368 0.47999 -0.00052
 N214 N 0.53040 0.45492 -0.03124
 C215 C 0.48393 0.51544 -0.05703
 N216 N 0.47875 0.51172 -0.02363
 C217 C 0.45660 0.53120 -0.00580
 C218 C 0.43713 0.55456 -0.02193
 C219 C 0.46568 0.53900 -0.07405
 C220 C 0.48657 0.42931 0.03701
 C221 C 0.46499 0.40947 0.05340
 C222 C 0.41431 0.43971 0.03402
 C223 C 0.43691 0.45889 0.01794
 N224 N 0.47235 0.45389 0.02040
 H225 H 0.50225 0.50012 -0.07059
 H226 H 0.45359 0.52817 0.02092
 H227 H 0.41895 0.56930 -0.00734
 H228 H 0.46988 0.54059 -0.10076
 H229 H 0.51484 0.42539 0.03788
 H230 H 0.47707 0.39040 0.06700
 H231 H 0.38642 0.44477 0.03133
 H232 H 0.42595 0.47769 0.00341
 C233 C 0.56655 0.41635 -0.07711
 C234 C 0.57507 0.53034 0.07868
 C235 C 0.42828 0.41475 0.05267
 C236 C 0.44148 0.55885 -0.05652
 C237 C 0.21316 -0.15369 -0.21737
 C238 C 0.20338 -0.16084 -0.18489
 C239 C 0.17606 -0.14299 -0.16604
 N240 N 0.17271 -0.14729 -0.13258
 N241 N 0.14792 -0.13163 -0.11504
 C242 C 0.12534 -0.11124 -0.13038
 N243 N 0.12848 -0.10712 -0.16393
 N244 N 0.15346 -0.12264 -0.18145
 C245 C 0.09785 -0.09383 -0.11122
 C246 C 0.09877 -0.09170 -0.07610
 H247 H 0.21713 -0.17961 -0.17215
 H248 H 0.07758 -0.08109 -0.12510
 H249 H 0.20200 -0.13301 -0.22870
 H250 H 0.12106 -0.10203 -0.06264
 C251 C 0.19036 0.35399 0.28015
 C252 C 0.18118 0.34740 0.31297
 C253 C 0.16038 0.36982 0.33393
 N254 N 0.15390 0.36381 0.36654
 N255 N 0.13514 0.38402 0.38567
 C256 C 0.12214 0.41096 0.37286
 N257 N 0.12853 0.41689 0.34026
 N258 N 0.14732 0.39673 0.32117
 C259 C 0.10114 0.43351 0.39337
 C260 C 0.09529 0.42967 0.42755
 H261 H 0.19005 0.32590 0.32402
 H262 H 0.09077 0.45395 0.38111
 H263 H 0.18284 0.37652 0.27065
 H264 H 0.10801 0.41012 0.43982
 C265 C 0.70383 -0.16773 0.28524
 C266 C 0.68737 -0.17555 0.31487
 C267 C 0.66290 -0.15375 0.33267
 N268 N 0.65734 -0.15662 0.36608
 N269 N 0.63485 -0.13728 0.38237
 C270 C 0.61674 -0.11463 0.36572
 N271 N 0.62197 -0.11201 0.33223
 N272 N 0.64478 -0.13110 0.31602
 C273 C 0.59143 -0.09344 0.38324
 C274 C 0.59376 -0.08727 0.41784
 H275 H 0.69386 -0.19721 0.32672
 H276 H 0.57185 -0.08093 0.36829
 H277 H 0.70033 -0.14402 0.27747
 H278 H 0.61590 -0.09696 0.43205
 C279 C 0.71703 0.32986 -0.22620
 C280 C 0.68971 0.32006 -0.20649
 C281 C 0.67054 0.34155 -0.18318
 N282 N 0.64120 0.33256 -0.16786
 N283 N 0.62416 0.35155 -0.14606
 C284 C 0.63598 0.38015 -0.13863
 N285 N 0.66540 0.38907 -0.15383
 N286 N 0.68233 0.37015 -0.17574
 C287 C 0.61795 0.40120 -0.11417
 C288 C 0.58495 0.39534 -0.10166
 H289 H 0.68161 0.29647 -0.20783
 H290 H 0.63058 0.42233 -0.10676
 H291 H 0.72154 0.35441 -0.22565
 H292 H 0.57121 0.37555 -0.11158
 C293 C -0.18658 0.16421 -0.21941
 C294 C -0.19043 0.13604 -0.20396
 C295 C -0.16293 0.12285 -0.18166
 N296 N -0.17189 0.10485 -0.15608
 N297 N -0.14726 0.09264 -0.13571
 C298 C -0.11273 0.09769 -0.14042
 N299 N -0.10371 0.11535 -0.16630
 N300 N -0.12839 0.12793 -0.18641
 C301 C -0.08540 0.08319 -0.11888
 C302 C -0.09239 0.07588 -0.08567
 H303 H -0.21525 0.12476 -0.20519
 H304 H -0.05943 0.07931 -0.12923
 H305 H -0.16325 0.17681 -0.21293
 H306 H -0.11709 0.08477 -0.07518
 C307 C -0.22429 0.66038 0.30727
 C308 C -0.19735 0.67075 0.32847
 C309 C -0.17914 0.65018 0.35255
 N310 N -0.15205 0.66057 0.37178
 N311 N -0.13445 0.64179 0.39265
 C312 C -0.14329 0.61189 0.39503
 N313 N -0.17048 0.60156 0.37594
 N314 N -0.18808 0.62034 0.35512
 C315 C -0.12329 0.59037 0.41683
 C316 C -0.09536 0.59984 0.43748
 H317 H -0.18780 0.69373 0.32628
 H318 H -0.13101 0.56668 0.41583
 H319 H -0.23222 0.63681 0.30941
 H320 H -0.09012 0.62426 0.43840
 C321 C 0.27438 0.18709 0.29878
 C322 C 0.29231 0.15848 0.29484
 C323 C 0.31535 0.14534 0.32134
 N324 N 0.33582 0.11964 0.31432
 N325 N 0.35700 0.10745 0.33786
 C326 C 0.35846 0.12047 0.36939
 N327 N 0.33782 0.14609 0.37648
 N328 N 0.31672 0.15836 0.35288
 C329 C 0.38138 0.10693 0.39583
 C330 C 0.40591 0.08272 0.38859
 H331 H 0.29099 0.14586 0.27093
 H332 H 0.37858 0.11667 0.42104
 H333 H 0.27832 0.20071 0.32177
 H334 H 0.40858 0.07528 0.36239
 C335 C 0.33028 0.68547 -0.19836
 C336 C 0.32280 0.66362 -0.17479
 C337 C 0.35028 0.64679 -0.15557
 N338 N 0.34147 0.63139 -0.12793
 N339 N 0.36561 0.61447 -0.11128
 C340 C 0.39939 0.61207 -0.12189
 N341 N 0.40819 0.62739 -0.14962
 N342 N 0.38411 0.64458 -0.16609
 C343 C 0.42556 0.59168 -0.10508
 C344 C 0.42055 0.58180 -0.07238
 H345 H 0.29566 0.65865 -0.17017
 H346 H 0.44907 0.58489 -0.11882
 H347 H 0.35683 0.69325 -0.20036
 H348 H 0.39913 0.59288 -0.05819
 C349 C -0.20814 -0.18360 0.19665
 C350 C -0.20871 -0.15312 0.18596
 C351 C -0.18210 -0.14240 0.16298
 N352 N -0.18785 -0.11536 0.14709
 N353 N -0.16362 -0.10492 0.12694
 C354 C -0.13260 -0.12102 0.12214
 N355 N -0.12675 -0.14796 0.13822
 N356 N -0.15110 -0.15853 0.15817
 C357 C -0.10504 -0.10906 0.10106
 C358 C -0.11248 -0.08549 0.07842
 H359 H -0.22951 -0.13667 0.19330
 H360 H -0.07891 -0.11959 0.10338
 H361 H -0.18903 -0.19976 0.18512
 H362 H -0.13989 -0.07832 0.07476
 C363 C -0.18510 0.32060 0.69331
 C364 C -0.17499 0.35105 0.69811
 C365 C -0.15156 0.36582 0.67497
 N366 N -0.14548 0.39629 0.67941
 N367 N -0.12509 0.41039 0.65827
 C368 C -0.10996 0.39451 0.63189
 N369 N -0.11584 0.36395 0.62757
 N370 N -0.13635 0.34986 0.64866
 C371 C -0.08758 0.40983 0.60817
 C372 C -0.08439 0.44192 0.60914
 H373 H -0.18469 0.36503 0.71926
 H374 H -0.07449 0.39518 0.58936
 H375 H -0.17324 0.30648 0.67319
 H376 H -0.09966 0.45527 0.62773
 C377 C 0.31303 -0.16153 0.70286
 C378 C 0.30892 -0.13162 0.69065
 C379 C 0.33419 -0.11934 0.66731
 N380 N 0.32575 -0.09307 0.65076
 N381 N 0.34833 -0.08163 0.62959
 C382 C 0.38029 -0.09596 0.62430
 N383 N 0.38885 -0.12210 0.64105
 N384 N 0.36619 -0.13364 0.66208
 C385 C 0.40579 -0.08331 0.60144
 C386 C 0.39609 -0.06002 0.57905
 H387 H 0.28599 -0.11705 0.69656
 H388 H 0.43219 -0.09347 0.60201
 H389 H 0.33495 -0.17589 0.69338
 H390 H 0.36848 -0.05278 0.57777
 C391 C 0.26470 0.34091 0.17932
 C392 C 0.29608 0.32920 0.16529
 C393 C 0.31494 0.34652 0.14046
 N394 N 0.34863 0.33804 0.13261
 N395 N 0.36653 0.35449 0.11142
 C396 C 0.35131 0.37994 0.09719
 N397 N 0.31747 0.38812 0.10466
 N398 N 0.29964 0.37177 0.12595
 C399 C 0.37100 0.39929 0.07495
 C400 C 0.40739 0.39520 0.07088
 H401 H 0.30860 0.30817 0.17455
 H402 H 0.35625 0.41814 0.06356
 H403 H 0.25412 0.36323 0.17161
 H404 H 0.42066 0.37632 0.08391
 C405 C 0.19706 0.17915 0.19445
 C406 C 0.18261 0.15080 0.20051
 C407 C 0.16083 0.13479 0.17504
 N408 N 0.14461 0.10873 0.18295
 N409 N 0.12440 0.09429 0.16028
 C410 C 0.11967 0.10540 0.12884
 N411 N 0.13601 0.13137 0.12090
 N412 N 0.15616 0.14582 0.14357
 C413 C 0.09760 0.08978 0.10334
 C414 C 0.07852 0.06399 0.11044
 H415 H 0.18575 0.14069 0.22500
 H416 H 0.09601 0.09946 0.07857
 H417 H 0.19155 0.18978 0.17050
 H418 H 0.07867 0.05606 0.13605
 C419 C 0.22264 0.67421 0.73025
 C420 C 0.20557 0.68068 0.69978
 C421 C 0.18189 0.65891 0.68294
 N422 N 0.16936 0.66456 0.65147
 N423 N 0.14844 0.64479 0.63558
 C424 C 0.13925 0.61863 0.65060
 N425 N 0.15159 0.61309 0.68216
 N426 N 0.17259 0.63282 0.69803
 C427 C 0.11624 0.59654 0.63334
 C428 C 0.10575 0.59971 0.59974
 H429 H 0.21113 0.70145 0.68676
 H430 H 0.10838 0.57701 0.64730
 H431 H 0.21875 0.65224 0.74165
 H432 H 0.11609 0.61826 0.58570
 C433 C 0.70584 0.15954 0.70873
 C434 C 0.68895 0.16809 0.67877
 C435 C 0.66346 0.14843 0.66115
 N436 N 0.65109 0.15603 0.63013
 N437 N 0.62867 0.13811 0.61345
 C438 C 0.61770 0.11195 0.62722
 N439 N 0.62986 0.10448 0.65835
 N440 N 0.65236 0.12235 0.67500
 C441 C 0.59348 0.09155 0.60888
 C442 C 0.58348 0.09614 0.57536
 H443 H 0.69593 0.18896 0.66666
 H444 H 0.58485 0.07165 0.62176
 H445 H 0.70037 0.13746 0.71915
 H446 H 0.59446 0.11498 0.56226
 C447 C 0.70726 0.66169 0.19875
 C448 C 0.69185 0.63339 0.20276
 C449 C 0.67203 0.61787 0.17552
 N450 N 0.65675 0.59088 0.18137
 N451 N 0.63845 0.57656 0.15715
 C452 C 0.63473 0.58872 0.12612
 N453 N 0.65009 0.61569 0.12022
 N454 N 0.66841 0.63002 0.14446
 C455 C 0.61424 0.57334 0.09921
 C456 C 0.59699 0.54614 0.10453
 H457 H 0.69316 0.62247 0.22689
 H458 H 0.61202 0.58440 0.07521
 H459 H 0.70361 0.67315 0.17501
 H460 H 0.59833 0.53654 0.12942
   
