data_POSCAR
  _audit_creation_date              2014-09-24
  _audit_creation_method            'ToBaCCo'
  _symmetry_space_group_name_H-M    'P1'
  _symmetry_Int_Tables_number       1
  _symmetry_cell_setting            triclinic
  loop_
  _symmetry_equiv_pos_as_xyz
 x,y,z
_cell_length_a 34.2566
_cell_length_b 34.3486
_cell_length_c 43.8160
_cell_angle_alpha 90.009500
_cell_angle_beta 90.007100
_cell_angle_gamma 89.955900
loop_
  _atom_site_label
  _atom_site_type_symbol
  _atom_site_fract_x
  _atom_site_fract_y
  _atom_site_fract_z
B1 B 0.27186 0.23844 0.27923
 B2 B 0.22698 0.22165 0.27297
 B3 B 0.23367 0.26854 0.28119
 B4 B 0.27534 0.28363 0.26471
 B5 B 0.29438 0.24448 0.24561
 B6 B 0.26406 0.20567 0.25120
 B7 B 0.22305 0.26167 0.22090
 B8 B 0.26796 0.27842 0.22715
 B9 B 0.26127 0.23159 0.21891
 B10 B 0.21960 0.21645 0.23540
 B11 B 0.20054 0.25560 0.25454
 B12 B 0.23089 0.29444 0.24889
 B13 B 0.72448 0.76417 0.27921
 B14 B 0.76932 0.78113 0.27301
 B15 B 0.76282 0.73426 0.28129
 B16 B 0.72125 0.71893 0.26475
 B17 B 0.70207 0.75796 0.24555
 B18 B 0.73223 0.79692 0.25118
 B19 B 0.77350 0.74101 0.22097
 B20 B 0.72867 0.72409 0.22719
 B21 B 0.73519 0.77096 0.21892
 B22 B 0.77676 0.78627 0.23544
 B23 B 0.79594 0.74724 0.25463
 B24 B 0.76577 0.70828 0.24902
 B25 B 0.74092 0.22323 -0.22379
 B26 B 0.72383 0.26789 -0.23022
 B27 B 0.77079 0.26154 -0.22174
 B28 B 0.78641 0.22003 -0.23807
 B29 B 0.74747 0.20071 -0.25737
 B30 B 0.70825 0.23074 -0.25198
 B31 B 0.76431 0.27189 -0.28210
 B32 B 0.78147 0.22724 -0.27569
 B33 B 0.73448 0.23359 -0.28416
 B34 B 0.71885 0.27509 -0.26780
 B35 B 0.75780 0.29439 -0.24854
 B36 B 0.79701 0.26439 -0.25391
 B37 B 0.26182 0.77338 -0.21832
 B38 B 0.27911 0.72876 -0.22463
 B39 B 0.23211 0.73498 -0.21624
 B40 B 0.21636 0.77637 -0.23269
 B41 B 0.25528 0.79576 -0.25194
 B42 B 0.29460 0.76589 -0.24644
 B43 B 0.23875 0.72445 -0.27658
 B44 B 0.22144 0.76904 -0.27027
 B45 B 0.26847 0.76285 -0.27865
 B46 B 0.28420 0.72145 -0.26221
 B47 B 0.24527 0.70207 -0.24296
 B48 B 0.20597 0.73192 -0.24845
 B49 B 1.22471 1.26437 0.77918
 B50 B 1.26956 1.28130 0.77298
 B51 B 1.26302 1.23442 0.78124
 B52 B 1.22144 1.21913 0.76469
 B53 B 1.20229 1.25820 0.74552
 B54 B 1.23248 1.29713 0.75117
 B55 B 1.27371 1.24121 0.72092
 B56 B 1.22886 1.22433 0.72714
 B57 B 1.23542 1.27120 0.71890
 B58 B 1.27701 1.28646 0.73542
 B59 B 1.29615 1.24740 0.75459
 B60 B 1.26595 1.20847 0.74896
 B61 B 0.77234 0.73890 0.77924
 B62 B 0.72750 0.72203 0.77298
 B63 B 0.73409 0.76891 0.78125
 B64 B 0.77571 0.78413 0.76476
 B65 B 0.79483 0.74504 0.74561
 B66 B 0.76460 0.70616 0.75118
 B67 B 0.72344 0.76213 0.72095
 B68 B 0.76832 0.77897 0.72721
 B69 B 0.76172 0.73213 0.71892
 B70 B 0.72010 0.71688 0.73541
 B71 B 0.70097 0.75595 0.75459
 B72 B 0.73123 0.79486 0.74898
 B73 B 1.23421 0.73384 0.21597
 B74 B 1.28120 0.72741 0.22443
 B75 B 1.26412 0.77209 0.21801
 B76 B 1.21865 0.77537 0.23232
 B77 B 1.20800 0.73105 0.24815
 B78 B 1.24716 0.70096 0.24277
 B79 B 1.27058 0.76176 0.27837
 B80 B 1.22363 0.76817 0.26991
 B81 B 1.24067 0.72350 0.27633
 B82 B 1.28614 0.72022 0.26205
 B83 B 1.29681 0.76456 0.24620
 B84 B 1.25764 0.79463 0.25157
 B85 B 0.76840 1.26288 0.22127
 B86 B 0.72137 1.26903 0.22965
 B87 B 0.73872 1.22445 0.22336
 B88 B 0.78416 1.22150 0.23772
 B89 B 0.79453 1.26596 0.25349
 B90 B 0.75518 1.29579 0.24798
 B91 B 0.73206 1.23500 0.28369
 B92 B 0.77907 1.22882 0.27531
 B93 B 0.76174 1.27343 0.28161
 B94 B 0.71628 1.27638 0.26723
 B95 B 0.70593 1.23191 0.25148
 B96 B 0.74525 1.20209 0.25698
 O97 O 0.55537 1.07022 0.05545
 O98 O 0.59860 1.03442 0.02669
 C99 C 0.59035 1.05962 0.04793
 O100 O 0.44399 0.93245 0.05222
 O101 O 0.40071 0.97055 0.02539
 C102 C 0.40897 0.94322 0.04494
 O103 O 0.55201 0.93309 0.05507
 O104 O 0.59697 0.96674 0.02639
 C105 C 0.58747 0.94166 0.04735
 O106 O 0.44747 1.07675 0.05211
 O107 O 0.40246 1.04067 0.02535
 C108 C 0.41198 1.06769 0.04477
 Zr109 Zr 0.50092 1.05170 0.03839
 O110 O 0.49961 1.04450 0.08629
 O111 O 0.50289 1.11299 0.04289
 Zr112 Zr 0.49849 0.95476 0.03840
 O113 O 0.49775 0.96226 0.08627
 O114 O 0.49770 0.89349 0.04312
 O115 O 0.53520 1.00228 0.04418
 O116 O 0.46490 1.00411 0.04389
 O117 O 0.44738 1.07596 -0.05327
 O118 O 0.40244 1.04054 -0.02594
 C119 C 0.41193 1.06719 -0.04567
 O120 O 0.55201 0.93341 -0.05581
 O121 O 0.59702 0.96705 -0.02720
 C122 C 0.58747 0.94199 -0.04815
 O123 O 0.44376 0.93356 -0.05359
 O124 O 0.40061 0.97098 -0.02607
 C125 C 0.40879 0.94412 -0.04602
 O126 O 0.55537 1.06963 -0.05635
 O127 O 0.59864 1.03415 -0.02743
 C128 C 0.59037 1.05911 -0.04882
 Zr129 Zr 0.50094 1.05205 -0.03860
 O130 O 0.49641 1.05186 -0.08680
 O131 O 0.50627 1.11346 -0.03813
 Zr132 Zr 0.49843 0.95443 -0.03868
 O133 O 0.49429 0.95568 -0.08691
 O134 O 0.50034 0.89281 -0.03882
 Zr135 Zr 0.55881 1.00163 -0.00032
 Zr136 Zr 0.44079 1.00468 -0.00024
 O137 O 0.46541 1.00414 -0.04423
 O138 O 0.53487 1.00229 -0.04471
 O139 O 0.46634 1.06056 -0.00012
 O140 O 0.53228 0.94637 -0.00019
 O141 O 0.53528 1.05824 -0.00015
 O142 O 0.46351 0.94758 -0.00015
 H143 H 0.44697 1.00458 0.06163
 H144 H 0.54897 0.92282 -0.00028
 H145 H 0.44786 1.00467 -0.06220
 H146 H 0.55343 1.08067 -0.00030
 H147 H 0.50370 0.88242 0.02286
 H148 H 0.47893 0.88345 -0.02556
 H149 H 0.51767 0.96917 -0.09485
 H150 H 0.51771 1.03535 -0.09486
 H151 H 0.48547 1.12380 -0.02469
 H152 H 0.51268 1.12359 0.02340
 H153 H 0.49888 1.07109 0.09504
 H154 H 0.49589 0.93578 0.09510
 O155 O 1.05536 0.57021 0.55549
 O156 O 1.09858 0.53440 0.52672
 C157 C 1.09034 0.55961 0.54796
 O158 O 0.94396 0.43246 0.55222
 O159 O 0.90067 0.47059 0.52541
 C160 C 0.90894 0.44324 0.54494
 O161 O 1.05197 0.43304 0.55503
 O162 O 1.09693 0.46672 0.52637
 C163 C 1.08743 0.44161 0.54731
 O164 O 0.94749 0.57679 0.55216
 O165 O 0.90245 0.54074 0.52541
 C166 C 0.91200 0.56775 0.54483
 Zr167 Zr 1.00092 0.55170 0.53844
 O168 O 0.99962 0.54447 0.58633
 O169 O 1.00294 0.61299 0.54296
 Zr170 Zr 0.99846 0.45476 0.53839
 O171 O 0.99776 0.46225 0.58626
 O172 O 0.99762 0.39349 0.54310
 O173 O 1.03518 0.50227 0.54420
 O174 O 0.96488 0.50412 0.54391
 O175 O 0.94732 0.57602 0.44678
 O176 O 0.90239 0.54059 0.47411
 C177 C 0.91188 0.56725 0.45439
 O178 O 1.05192 0.43345 0.44416
 O179 O 1.09695 0.46707 0.47278
 C180 C 1.08739 0.44202 0.45182
 O181 O 0.94369 0.43366 0.44639
 O182 O 0.90056 0.47106 0.47394
 C183 C 0.90872 0.44422 0.45397
 O184 O 1.05535 0.56970 0.44372
 O185 O 1.09862 0.53416 0.47259
 C186 C 1.09035 0.55916 0.45124
 Zr187 Zr 1.00090 0.55211 0.46145
 O188 O 0.99638 0.55193 0.41324
 O189 O 1.00624 0.61353 0.46192
 Zr190 Zr 0.99837 0.45450 0.46131
 O191 O 0.99424 0.45587 0.41308
 O192 O 1.00022 0.39288 0.46110
 Zr193 Zr 1.05877 0.50164 0.49968
 Zr194 Zr 0.94075 0.50473 0.49980
 O195 O 0.96536 0.50423 0.45580
 O196 O 1.03482 0.50236 0.45530
 O197 O 0.96632 0.56061 0.49994
 O198 O 1.03222 0.44640 0.49980
 O199 O 1.03526 0.55826 0.49989
 O200 O 0.96345 0.44763 0.49984
 H201 H 0.94695 0.50458 0.56167
 H202 H 1.04890 0.42284 0.49968
 H203 H 0.94781 0.50477 0.43783
 H204 H 1.05341 0.58069 0.49975
 H205 H 1.00367 0.38242 0.52285
 H206 H 0.97887 0.38352 0.47443
 H207 H 1.01766 0.46935 0.40517
 H208 H 1.01778 0.53556 0.40517
 H209 H 0.98540 0.62387 0.47532
 H210 H 1.01254 0.62360 0.52342
 H211 H 0.99881 0.57104 0.59509
 H212 H 0.99587 0.43577 0.59509
 O213 O 0.92629 0.44835 -0.05534
 O214 O 0.95990 0.40336 -0.02665
 C215 C 0.93487 0.41294 -0.04769
 O216 O 1.07083 0.55181 -0.05205
 O217 O 1.03479 0.59691 -0.02536
 C218 C 1.06198 0.58724 -0.04466
 O219 O 1.06382 0.44436 -0.05547
 O220 O 1.02776 0.40137 -0.02679
 C221 C 1.05320 0.40951 -0.04791
 O222 O 0.92616 0.55619 -0.05249
 O223 O 0.96450 0.59909 -0.02555
 C224 C 0.93719 0.59105 -0.04522
 Zr225 Zr 0.94809 0.50164 -0.03854
 O226 O 0.95547 0.50235 -0.08642
 O227 O 0.88664 0.50290 -0.04312
 Zr228 Zr 1.04528 0.49871 -0.03853
 O229 O 1.03791 0.50011 -0.08640
 O230 O 1.10669 0.49626 -0.04320
 O231 O 0.99563 0.46479 -0.04434
 O232 O 0.99773 0.53489 -0.04401
 O233 O 0.92722 0.55632 0.05357
 O234 O 0.96489 0.59915 0.02603
 C235 C 0.93804 0.59115 0.04608
 O236 O 1.06330 0.44422 0.05600
 O237 O 1.02743 0.40126 0.02717
 C238 C 1.05268 0.40938 0.04842
 O239 O 1.06994 0.55187 0.05309
 O240 O 1.03459 0.59690 0.02580
 C241 C 1.06138 0.58727 0.04543
 O242 O 0.92669 0.44828 0.05580
 O243 O 0.96018 0.40328 0.02706
 C244 C 0.93525 0.41287 0.04815
 Zr245 Zr 0.94773 0.50164 0.03850
 O246 O 0.94855 0.50574 0.08673
 O247 O 0.88594 0.50007 0.03829
 Zr248 Zr 1.04560 0.49863 0.03852
 O249 O 1.04487 0.50309 0.08673
 O250 O 1.10716 0.49305 0.03846
 Zr251 Zr 0.99494 0.44121 0.00016
 Zr252 Zr 0.99841 0.55889 0.00013
 O253 O 0.99772 0.53431 0.04411
 O254 O 0.99561 0.46504 0.04456
 O255 O 0.94104 0.53658 0.00001
 O256 O 1.05176 0.46445 0.00002
 O257 O 0.93959 0.46789 0.00001
 O258 O 1.05431 0.53306 0.00003
 H259 H 0.99836 0.55278 -0.06174
 H260 H 1.07427 0.44635 0.00015
 H261 H 0.99838 0.55179 0.06210
 H262 H 0.91598 0.45127 0.00011
 H263 H 1.11738 0.48748 -0.02343
 H264 H 1.11769 0.51343 0.02478
 H265 H 1.02920 0.48117 0.09473
 H266 H 0.96284 0.48285 0.09468
 H267 H 0.87673 0.52184 0.02534
 H268 H 0.87554 0.49620 -0.02300
 H269 H 0.92890 0.50432 -0.09522
 H270 H 1.06454 0.50075 -0.09520
 O271 O 0.42628 0.94825 0.44474
 O272 O 0.45990 0.90331 0.47347
 C273 C 0.43487 0.91285 0.45242
 O274 O 0.57080 1.05173 0.44788
 O275 O 0.53477 1.09687 0.47454
 C276 C 0.56195 1.08717 0.45525
 O277 O 0.56376 0.94427 0.44454
 O278 O 0.52775 0.90132 0.47329
 C279 C 0.55315 0.90943 0.45214
 O280 O 0.42607 1.05609 0.44753
 O281 O 0.46444 1.09904 0.47440
 C282 C 0.43710 1.09095 0.45476
 Zr283 Zr 0.44806 1.00156 0.46149
 O284 O 0.45539 1.00224 0.41361
 O285 O 0.38660 1.00274 0.45694
 Zr286 Zr 0.54524 0.99865 0.46145
 O287 O 0.53782 1.00000 0.41358
 O288 O 0.60665 0.99618 0.45673
 O289 O 0.49560 0.96471 0.45570
 O290 O 0.49769 1.03482 0.45597
 O291 O 0.42729 1.05639 0.55358
 O292 O 0.46491 1.09918 0.52597
 C293 C 0.43809 1.09121 0.54604
 O294 O 0.56335 0.94431 0.55603
 O295 O 0.52748 0.90130 0.52725
 C296 C 0.55275 0.90945 0.54848
 O297 O 0.56999 1.05195 0.55301
 O298 O 0.53461 1.09694 0.52570
 C299 C 0.56143 1.08733 0.54532
 O300 O 0.42676 0.94835 0.55589
 O301 O 0.46022 0.90331 0.52718
 C302 C 0.43531 0.91293 0.54827
 Zr303 Zr 0.44777 1.00168 0.53853
 O304 O 0.44859 1.00586 0.58676
 O305 O 0.38598 1.00010 0.53833
 Zr306 Zr 0.54564 0.99869 0.53849
 O307 O 0.54501 1.00321 0.58670
 O308 O 0.60721 0.99310 0.53837
 Zr309 Zr 0.49495 0.94121 0.50022
 Zr310 Zr 0.49840 1.05888 0.50008
 O311 O 0.49776 1.03437 0.54409
 O312 O 0.49566 0.96510 0.54460
 O313 O 0.44104 1.03657 0.50001
 O314 O 0.55177 0.96445 0.50003
 O315 O 0.43960 0.96788 0.50008
 O316 O 0.55431 1.03306 0.49997
 H317 H 0.49829 1.05269 0.43822
 H318 H 0.57428 0.94635 0.50016
 H319 H 0.49844 1.05187 0.56206
 H320 H 0.41599 0.95125 0.50020
 H321 H 0.61736 0.98744 0.47650
 H322 H 0.61771 1.01349 0.52469
 H323 H 0.52924 0.98138 0.59473
 H324 H 0.46290 0.98301 0.59473
 H325 H 0.37676 1.02192 0.52544
 H326 H 0.37554 0.99630 0.47711
 H327 H 0.42881 1.00420 0.40483
 H328 H 0.56444 1.00060 0.40477
 O329 O 0.91367 0.95744 0.45761
 O330 O 0.96089 0.97746 0.42379
 C331 C 0.92707 0.96287 0.43031
 O332 O 0.96479 1.08700 0.54243
 O333 O 0.98487 1.03986 0.57618
 C334 C 0.97033 1.07365 0.56971
 O335 O 0.95961 1.08416 0.45723
 O336 O 0.98297 1.03843 0.42350
 C337 C 0.96560 1.07089 0.42996
 O338 O 0.91658 0.95249 0.54283
 O339 O 0.96234 0.97606 0.57648
 C340 C 0.92991 0.95857 0.57007
 Zr341 Zr 0.94047 0.96795 0.50013
 O342 O 0.88478 0.99440 0.50149
 O343 O 0.91579 0.91162 0.49751
 Zr344 Zr 0.97400 1.05966 0.49990
 O345 O 0.91444 1.07568 0.50128
 O346 O 0.99220 1.11839 0.49684
 O347 O 0.95022 1.01623 0.47266
 O348 O 0.95068 1.01624 0.52685
 O349 O 1.04344 0.90729 0.54275
 O350 O 1.02313 0.95451 0.57633
 C351 C 1.03783 0.92078 0.56998
 O352 O 1.09351 1.03663 0.45722
 O353 O 1.04633 1.01609 0.42365
 C354 C 1.07998 1.03107 0.43000
 O355 O 1.09110 1.04148 0.54251
 O356 O 1.04550 1.01813 0.57633
 C357 C 1.07782 1.03570 0.56980
 O358 O 1.04787 0.90906 0.45756
 O359 O 1.02381 0.95429 0.42382
 C360 C 1.04145 0.92203 0.43030
 Zr361 Zr 1.03316 0.93380 0.50006
 O362 O 1.09088 0.91220 0.50344
 O363 O 1.01133 0.87628 0.49673
 Zr364 Zr 1.06702 1.02604 0.49987
 O365 O 1.12442 1.00354 0.50344
 O366 O 1.08957 1.08321 0.49637
 Zr367 Zr 1.00376 0.99673 0.45461
 Zr368 Zr 1.00390 0.99700 0.54529
 O369 O 1.05695 0.97761 0.52648
 O370 O 1.05733 0.97723 0.47270
 O371 O 0.98427 0.94365 0.52719
 O372 O 1.02290 1.04968 0.47352
 O373 O 0.98430 0.94399 0.47370
 O374 O 1.02321 1.05028 0.52689
 H375 H 0.92928 1.02387 0.54085
 H376 H 1.03051 1.07139 0.45989
 H377 H 1.07853 0.97007 0.54034
 H378 H 0.97642 0.92230 0.46012
 H379 H 1.01398 1.12178 0.51141
 H380 H 1.07602 1.09931 0.51179
 H381 H 1.12946 0.98756 0.48507
 H382 H 1.10649 0.92503 0.48735
 H383 H 0.99451 0.87158 0.51470
 H384 H 0.93244 0.89429 0.50997
 H385 H 0.86567 0.97278 0.50200
 H386 H 0.91393 1.10452 0.50141
 O387 O 0.59368 0.53708 -0.04241
 O388 O 0.54639 0.51707 -0.07620
 C389 C 0.58010 0.53193 -0.06970
 O390 O 0.54336 0.40635 0.04189
 O391 O 0.52330 0.45321 0.07591
 C392 C 0.53780 0.41947 0.06925
 O393 O 0.54833 0.40996 -0.04338
 O394 O 0.52459 0.45591 -0.07677
 C395 C 0.54208 0.42345 -0.07056
 O396 O 0.59100 0.54146 0.04285
 O397 O 0.54556 0.51728 0.07649
 C398 C 0.57774 0.53523 0.07009
 Zr399 Zr 0.56723 0.52582 0.00013
 O400 O 0.62283 0.49915 0.00121
 O401 O 0.59230 0.58198 -0.00217
 Zr402 Zr 0.53410 0.43405 -0.00051
 O403 O 0.59376 0.41841 0.00069
 O404 O 0.51639 0.37519 -0.00386
 O405 O 0.55753 0.47779 -0.02762
 O406 O 0.55733 0.47733 0.02667
 O407 O 0.46403 0.58574 0.04327
 O408 O 0.48469 0.53839 0.07659
 C409 C 0.46971 0.57206 0.07043
 O410 O 0.41409 0.45726 -0.04272
 O411 O 0.46111 0.47801 -0.07634
 C412 C 0.42741 0.46315 -0.06996
 O413 O 0.41681 0.45181 0.04249
 O414 O 0.46259 0.47487 0.07630
 C415 C 0.43015 0.45752 0.06977
 O416 O 0.45935 0.58466 -0.04185
 O417 O 0.48340 0.53985 -0.07592
 C418 C 0.46563 0.57196 -0.06920
 Zr419 Zr 0.47439 0.55965 0.00046
 O420 O 0.41665 0.58114 0.00408
 O421 O 0.49610 0.61724 -0.00258
 Zr422 Zr 0.44094 0.46718 -0.00013
 O423 O 0.38316 0.48859 0.00366
 O424 O 0.41952 0.40959 -0.00391
 Zr425 Zr 0.50380 0.49724 -0.04539
 Zr426 Zr 0.50407 0.49623 0.04529
 O427 O 0.45088 0.51551 0.02665
 O428 O 0.45025 0.51632 -0.02702
 O429 O 0.52344 0.54978 0.02739
 O430 O 0.48502 0.44403 -0.02675
 O431 O 0.52317 0.54988 -0.02606
 O432 O 0.48495 0.44298 0.02667
 H433 H 0.57876 0.46973 0.04066
 H434 H 0.47740 0.42245 -0.04052
 H435 H 0.42926 0.52291 0.04051
 H436 H 0.53086 0.57175 -0.03951
 H437 H 0.49419 0.37172 0.01028
 H438 H 0.43201 0.39399 0.01236
 H439 H 0.37836 0.50592 -0.01398
 H440 H 0.40098 0.56832 -0.01198
 H441 H 0.51280 0.62189 0.01548
 H442 H 0.57478 0.59962 0.00924
 H443 H 0.64199 0.52070 0.00217
 H444 H 0.59444 0.38957 0.00072
 C445 C 0.30190 1.17408 0.14090
 N446 N 0.29552 1.13517 0.13889
 N447 N 0.31271 1.11412 0.11712
 C448 C 0.33673 1.13132 0.09653
 N449 N 0.34293 1.17027 0.09845
 N450 N 0.32576 1.19133 0.12023
 C451 C 0.28671 1.19581 0.16638
 C452 C 0.27501 1.21271 0.18878
 C453 C 0.35976 1.10797 0.07599
 C454 C 0.38188 1.08894 0.06051
 C455 C 0.80225 0.67456 0.64090
 N456 N 0.79562 0.63569 0.63886
 N457 N 0.81274 0.61455 0.61711
 C458 C 0.83693 0.63162 0.59658
 N459 N 0.84338 0.67053 0.59853
 N460 N 0.82627 0.69168 0.62029
 C461 C 0.78712 0.69636 0.66637
 C462 C 0.77546 0.71328 0.68877
 C463 C 0.85986 0.60815 0.57604
 C464 C 0.88193 0.58905 0.56057
 C465 C 0.69570 0.83146 0.14208
 N466 N 0.67292 0.81543 0.12011
 N467 N 0.65627 0.83783 0.09891
 C468 C 0.66193 0.87695 0.09893
 N469 N 0.68487 0.89294 0.12082
 N470 N 0.70154 0.87055 0.14200
 C471 C 0.71029 0.80816 0.16691
 C472 C 0.72162 0.79027 0.18893
 C473 C 0.63939 0.90139 0.07885
 C474 C 0.61751 0.92082 0.06347
 C475 C 1.19582 0.33161 0.64206
 N476 N 1.17307 0.31550 0.62010
 N477 N 1.15636 0.33784 0.59889
 C478 C 1.16193 0.37697 0.59888
 N479 N 1.18484 0.39304 0.62076
 N480 N 1.20157 0.37070 0.64195
 C481 C 1.21047 0.30836 0.66689
 C482 C 1.22184 0.29051 0.68891
 C483 C 1.13936 0.40135 0.57879
 C484 C 1.11747 0.42076 0.56341
 C485 C 0.70210 1.15799 -0.14875
 N486 N 0.68777 1.17569 -0.12342
 N487 N 0.67061 1.15486 -0.10151
 C488 C 0.66736 1.11561 -0.10409
 N489 N 0.68184 1.09790 -0.12936
 N490 N 0.69901 1.11872 -0.15128
 C491 C 0.71724 1.18077 -0.17373
 C492 C 0.72853 1.19965 -0.19530
 C493 C 0.64392 1.09400 -0.08261
 C494 C 0.62131 1.07707 -0.06607
 C495 C 1.20195 0.65819 0.35137
 N496 N 1.19901 0.61892 0.34885
 N497 N 1.18190 0.59804 0.37076
 C498 C 1.16732 0.61572 0.39602
 N499 N 1.17043 0.65498 0.39859
 N500 N 1.18754 0.67586 0.37668
 C501 C 1.21703 0.68102 0.32639
 C502 C 1.22828 0.69992 0.30483
 C503 C 1.14390 0.59406 0.41747
 C504 C 1.12130 0.57711 0.43400
 C505 C 0.29893 0.83986 -0.14342
 N506 N 0.29934 0.87927 -0.14566
 N507 N 0.31584 0.90091 -0.12392
 C508 C 0.33231 0.88388 -0.09910
 N509 N 0.33172 0.84447 -0.09680
 N510 N 0.31522 0.82282 -0.11854
 C511 C 0.28457 0.81644 -0.16832
 C512 C 0.27383 0.79719 -0.18985
 C513 C 0.35535 0.90665 -0.07812
 C514 C 0.37781 0.92470 -0.06220
 C515 C 0.79886 0.33999 0.35649
 N516 N 0.79935 0.37939 0.35421
 N517 N 0.81586 0.40104 0.37595
 C518 C 0.83226 0.38403 0.40080
 N519 N 0.83158 0.34462 0.40314
 N520 N 0.81508 0.32297 0.38140
 C521 C 0.78449 0.31655 0.33160
 C522 C 0.77375 0.29727 0.31008
 C523 C 0.85528 0.40680 0.42181
 C524 C 0.87773 0.42483 0.43775
 C525 C 1.15574 0.29913 0.14651
 N526 N 1.17247 0.31347 0.12079
 N527 N 1.15063 0.33011 0.09921
 C528 C 1.11131 0.33281 0.10254
 N529 N 1.09458 0.31830 0.12820
 N530 N 1.11642 0.30164 0.14977
 C531 C 1.17957 0.28462 0.17114
 C532 C 1.19912 0.27378 0.19250
 C533 C 1.08870 0.35595 0.08151
 C534 C 1.07110 0.37844 0.06532
 C535 C 0.65604 0.79949 0.64659
 N536 N 0.67271 0.81373 0.62082
 N537 N 0.65082 0.83030 0.59924
 C538 C 0.61151 0.83304 0.60261
 N539 N 0.59484 0.81863 0.62833
 N540 N 0.61672 0.80204 0.64991
 C541 C 0.67991 0.78504 0.67121
 C542 C 0.69948 0.77423 0.69257
 C543 C 0.58885 0.85610 0.58158
 C544 C 0.57121 0.87855 0.56538
 C545 C 1.17310 0.69517 -0.13873
 N546 N 1.18920 0.67040 -0.11817
 N547 N 1.16714 0.65371 -0.09678
 C548 C 1.12830 0.66131 -0.09517
 N549 N 1.11225 0.68624 -0.11565
 N550 N 1.13431 0.70295 -0.13703
 C551 C 1.19577 0.70986 -0.16389
 C552 C 1.21317 0.72129 -0.18613
 C553 C 1.10378 0.63884 -0.07512
 C554 C 1.08392 0.61708 -0.06002
 C555 C 0.67307 1.19512 0.36118
 N556 N 0.63426 1.20284 0.36286
 N557 N 0.61221 1.18612 0.38423
 C558 C 0.62828 1.16123 0.40474
 N559 N 0.66714 1.15368 0.40316
 N560 N 0.68919 1.17039 0.38177
 C561 C 0.69573 1.20983 0.33603
 C562 C 0.71313 1.22128 0.31380
 C563 C 0.60378 1.13875 0.42479
 C564 C 0.58391 1.11699 0.43988
 C565 C 0.83814 0.70269 0.14535
 N566 N 0.81996 0.68673 0.12085
 N567 N 0.84062 0.66971 0.09874
 C568 C 0.88018 0.66825 0.10030
 N569 N 0.89836 0.68438 0.12475
 N570 N 0.87770 0.70140 0.14685
 C571 C 0.81572 0.71764 0.17063
 C572 C 0.79706 0.72877 0.19239
 C573 C 0.90190 0.64483 0.07887
 C574 C 0.91921 0.62219 0.06261
 C575 C 0.33829 1.20289 0.64528
 N576 N 0.32008 1.18691 0.62079
 N577 N 0.34072 1.16987 0.59869
 C578 C 0.38028 1.16839 0.60023
 N579 N 0.39848 1.18454 0.62466
 N580 N 0.37784 1.20158 0.64677
 C581 C 0.31589 1.21786 0.67057
 C582 C 0.29725 1.22899 0.69234
 C583 C 0.40198 1.14494 0.57881
 C584 C 0.41927 1.12227 0.56256
 C585 C 0.82898 0.30275 -0.14426
 N586 N 0.81169 0.32562 -0.12293
 N587 N 0.83302 0.34294 -0.10139
 C588 C 0.87232 0.33791 -0.10041
 N589 N 0.88957 0.31490 -0.12165
 N590 N 0.86824 0.29755 -0.14318
 C591 C 0.80678 0.28737 -0.16943
 C592 C 0.78963 0.27549 -0.19165
 C593 C 0.89568 0.36093 -0.07988
 C594 C 0.91443 0.38298 -0.06416
 C595 C 0.32886 0.80284 0.35586
 N596 N 0.31161 0.82567 0.37722
 N597 N 0.33298 0.84293 0.39877
 C598 C 0.37227 0.83785 0.39974
 N599 N 0.38948 0.81486 0.37845
 N600 N 0.36812 0.79759 0.35691
 C601 C 0.30663 0.78751 0.33068
 C602 C 0.28945 0.77568 0.30846
 C603 C 0.39567 0.86082 0.42027
 C604 C 0.41443 0.88286 0.43598
 C605 C 1.17568 1.13943 0.32894
 N606 N 1.13971 1.12576 0.32191
 N607 N 1.12274 1.09922 0.33959
 C608 C 1.14152 1.08531 0.36452
 N609 N 1.17762 1.09881 0.37142
 N610 N 1.19460 1.12535 0.35374
 C611 C 1.19313 1.16881 0.31065
 C612 C 1.20780 1.19303 0.29471
 C613 C 1.12098 1.06208 0.38600
 C614 C 1.10263 1.04587 0.40547
 C615 C 0.67634 0.63999 -0.17082
 N616 N 0.64087 0.62543 -0.17831
 N617 N 0.62383 0.59909 -0.16050
 C618 C 0.64203 0.58631 -0.13494
 N619 N 0.67762 0.60071 -0.12758
 N620 N 0.69467 0.62704 -0.14538
 C621 C 0.69378 0.66924 -0.18924
 C622 C 0.70840 0.69339 -0.20526
 C623 C 0.62129 0.56318 -0.11350
 C624 C 0.60283 0.54694 -0.09411
 C625 C 0.86417 1.17428 0.66942
 N626 N 0.87694 1.13825 0.67707
 N627 N 0.90318 1.12014 0.65975
 C628 C 0.91769 1.13779 0.63455
 N629 N 0.90510 1.17396 0.62704
 N630 N 0.87886 1.19208 0.64435
 C631 C 0.83481 1.19278 0.68722
 C632 C 0.81048 1.20798 0.70281
 C633 C 0.94043 1.11605 0.61340
 C634 C 0.95615 1.09690 0.59414
 C635 C 0.36343 0.67309 0.16994
 N636 N 0.37385 0.63603 0.17673
 N637 N 0.39995 0.61743 0.15960
 C638 C 0.41667 0.63558 0.13548
 N639 N 0.40643 0.67274 0.12883
 N640 N 0.38032 0.69136 0.14596
 C641 C 0.33429 0.69224 0.18753
 C642 C 0.31011 0.70790 0.20300
 C643 C 0.43942 0.61379 0.11436
 C644 C 0.45526 0.59483 0.09504
 C645 C 1.14025 0.82114 0.67301
 N646 N 1.12652 0.85695 0.68027
 N647 N 1.10129 0.87487 0.66195
 C648 C 1.08884 0.85726 0.63606
 N649 N 1.10239 0.82132 0.62892
 N650 N 1.12763 0.80339 0.64724
 C651 C 1.16880 0.80300 0.69178
 C652 C 1.19265 0.78807 0.70797
 C653 C 1.06703 0.87876 0.61420
 C654 C 1.05184 0.89771 0.59456
 C655 C 0.64001 0.32012 0.17250
 N656 N 0.62429 0.35492 0.18031
 N657 N 0.59902 0.37246 0.16180
 C658 C 0.58851 0.35544 0.13515
 N659 N 0.60404 0.32050 0.12745
 N660 N 0.62931 0.30295 0.14596
 C661 C 0.66863 0.30250 0.19150
 C662 C 0.69253 0.28790 0.20783
 C663 C 0.56672 0.37689 0.11323
 C664 C 0.55162 0.39599 0.09365
 C665 C 0.82359 0.86146 0.32903
 N666 N 0.80648 0.87510 0.35476
 N667 N 0.82542 0.90006 0.37265
 C668 C 0.86176 0.91231 0.36509
 N669 N 0.87873 0.89884 0.33924
 N670 N 0.85980 0.87389 0.32136
 C671 C 0.80436 0.83323 0.31070
 C672 C 0.78873 0.80963 0.29475
 C673 C 0.88416 0.93389 0.38652
 C674 C 0.90366 0.94895 0.40588
 C675 C 0.32409 0.36169 -0.17120
 N676 N 0.30655 0.37648 -0.14603
 N677 N 0.32551 0.40155 -0.12827
 C678 C 0.36231 0.41279 -0.13539
 N679 N 0.37972 0.39819 -0.16068
 N680 N 0.36077 0.37313 -0.17844
 C681 C 0.30475 0.33340 -0.18940
 C682 C 0.28903 0.30978 -0.20529
 C683 C 0.38463 0.43441 -0.11392
 C684 C 0.40407 0.44940 -0.09449
 C685 C 1.15717 0.30083 -0.14627
 N686 N 1.17380 0.31516 -0.12051
 N687 N 1.15181 0.33133 -0.09880
 C688 C 1.11246 0.33354 -0.10203
 N689 N 1.09583 0.31903 -0.12774
 N690 N 1.11780 0.30285 -0.14945
 C691 C 1.18109 0.28681 -0.17101
 C692 C 1.20069 0.27628 -0.19243
 C693 C 1.08964 0.35631 -0.08091
 C694 C 1.07184 0.37862 -0.06470
 C695 C 0.65697 0.80065 0.35376
 N696 N 0.67362 0.81492 0.37954
 N697 N 0.65166 0.83111 0.40126
 C698 C 0.61231 0.83338 0.39802
 N699 N 0.59566 0.81893 0.37230
 N700 N 0.61761 0.80273 0.35059
 C701 C 0.68087 0.78661 0.32902
 C702 C 0.70046 0.77609 0.30760
 C703 C 0.58953 0.85618 0.41915
 C704 C 0.57177 0.87852 0.43536
 C705 C 0.83674 0.70135 -0.14480
 N706 N 0.81851 0.68505 -0.12046
 N707 N 0.83917 0.66841 -0.09818
 C708 C 0.87877 0.66767 -0.09940
 N709 N 0.89699 0.68414 -0.12368
 N710 N 0.87633 0.70079 -0.14596
 C711 C 0.81440 0.71592 -0.17025
 C712 C 0.79583 0.72680 -0.19212
 C713 C 0.90060 0.64452 -0.07787
 C714 C 0.91807 0.62201 -0.06161
 C715 C 0.33632 1.20098 0.35520
 N716 N 0.31814 1.18452 0.37950
 N717 N 0.33886 1.16794 0.40177
 C718 C 0.37846 1.16742 0.40060
 N719 N 0.39662 1.18405 0.37636
 N720 N 0.37591 1.20064 0.35408
 C721 C 0.31393 1.21550 0.32975
 C722 C 0.29533 1.22635 0.30788
 C723 C 0.40038 1.14434 0.42211
 C724 C 0.41792 1.12188 0.43837
 C725 C 1.17414 0.69444 0.13885
 N726 N 1.18978 0.66987 0.11792
 N727 N 1.16725 0.65340 0.09672
 C728 C 1.12837 0.66102 0.09568
 N729 N 1.11278 0.68575 0.11653
 N730 N 1.13532 0.70224 0.13771
 C731 C 1.19734 0.70890 0.16380
 C732 C 1.21510 0.72019 0.18591
 C733 C 1.10343 0.63875 0.07581
 C734 C 1.08334 0.61708 0.06081
 C735 C 0.67439 1.19432 0.63868
 N736 N 0.68999 1.16976 0.61772
 N737 N 0.66741 1.15335 0.59652
 C738 C 0.62855 1.16104 0.59550
 N739 N 0.61300 1.18575 0.61637
 N740 N 0.63557 1.20218 0.63756
 C741 C 0.69762 1.20870 0.66364
 C742 C 0.71537 1.21995 0.68577
 C743 C 0.60356 1.13880 0.57563
 C744 C 0.58342 1.11715 0.56065
 C745 C 0.82769 0.30356 0.14416
 N746 N 0.81087 0.32615 0.12242
 N747 N 0.83268 0.34322 0.10106
 C748 C 0.87200 0.33821 0.10066
 N749 N 0.88878 0.31548 0.12232
 N750 N 0.86697 0.29838 0.14366
 C751 C 0.80495 0.28844 0.16913
 C752 C 0.78743 0.27673 0.19123
 C753 C 0.89580 0.36101 0.08029
 C754 C 0.91477 0.38294 0.06463
 C755 C 0.32775 0.80361 0.64427
 N756 N 0.31093 0.82623 0.62255
 N757 N 0.33274 0.84333 0.60121
 C758 C 0.37206 0.83832 0.60080
 N759 N 0.38885 0.81555 0.62244
 N760 N 0.36704 0.79843 0.64377
 C761 C 0.30501 0.78845 0.66922
 C762 C 0.28750 0.77671 0.69131
 C763 C 0.39586 0.86111 0.58043
 C764 C 0.41483 0.88303 0.56477
 C765 C 0.30304 1.17576 -0.14110
 N766 N 0.32687 1.19240 -0.12010
 N767 N 0.34372 1.17076 -0.09852
 C768 C 0.33721 1.13181 -0.09714
 N769 N 0.31322 1.11522 -0.11806
 N770 N 0.29636 1.13685 -0.13963
 C771 C 0.28817 1.19812 -0.16637
 C772 C 0.27667 1.21540 -0.18865
 C773 C 0.35991 1.10788 -0.07677
 C774 C 0.38186 1.08853 -0.06138
 C775 C 0.80285 0.67568 0.35897
 N776 N 0.79620 0.63677 0.36045
 N777 N 0.81308 0.61515 0.38203
 C778 C 0.83706 0.63177 0.40294
 N779 N 0.84354 0.67072 0.40155
 N780 N 0.82667 0.69234 0.37997
 C781 C 0.78798 0.69802 0.33369
 C782 C 0.77647 0.71527 0.31140
 C783 C 0.85981 0.60787 0.42330
 C784 C 0.88179 0.58855 0.43868
 C785 C 0.70103 1.15899 0.14808
 N786 N 0.68662 1.17668 0.12278
 N787 N 0.66984 1.15578 0.10072
 C788 C 0.66707 1.11648 0.10313
 N789 N 0.68164 1.09878 0.12838
 N790 N 0.69843 1.11968 0.15044
 C791 C 0.71570 1.18181 0.17321
 C792 C 0.72663 1.20074 0.19486
 C793 C 0.64384 1.09477 0.08159
 C794 C 0.62130 1.07774 0.06506
 C795 C 1.20096 0.65901 0.64815
 N796 N 1.18665 0.67668 0.62281
 N797 N 1.16988 0.65578 0.60075
 C798 C 1.16701 0.61649 0.60320
 N799 N 1.18148 0.59881 0.62849
 N800 N 1.19827 0.61970 0.65055
 C801 C 1.21567 0.68183 0.67327
 C802 C 1.22663 0.70076 0.69492
 C803 C 1.14381 0.59478 0.58164
 C804 C 1.12129 0.57773 0.56509
 C805 C 0.69499 0.83034 -0.14229
 N806 N 0.67252 0.81471 -0.11995
 N807 N 0.65606 0.83752 -0.09892
 C808 C 0.66160 0.87665 -0.09948
 N809 N 0.68423 0.89224 -0.12174
 N810 N 0.70071 0.86944 -0.14275
 C811 C 0.70937 0.80657 -0.16691
 C812 C 0.72057 0.78838 -0.18882
 C813 C 0.63923 0.90145 -0.07956
 C814 C 0.61746 0.92109 -0.06427
 C815 C 1.19466 0.33023 0.35758
 N816 N 1.20030 0.36934 0.35701
 N817 N 1.18388 0.39218 0.37802
 C818 C 1.16140 0.37664 0.40039
 N819 N 1.15594 0.33750 0.40105
 N820 N 1.17234 0.31465 0.38003
 C821 C 1.20899 0.30638 0.33299
 C822 C 1.22017 0.28811 0.31110
 C823 C 1.13909 0.40147 0.42033
 C824 C 1.11736 0.42111 0.43566
 C825 C 0.30068 0.83828 0.14278
 N826 N 0.30028 0.87772 0.14469
 N827 N 0.31637 0.89938 0.12277
 C828 C 0.33320 0.88234 0.09811
 N829 N 0.33341 0.84289 0.09615
 N830 N 0.31733 0.82123 0.11806
 C831 C 0.28668 0.81493 0.16784
 C832 C 0.27614 0.79576 0.18947
 C833 C 0.35587 0.90526 0.07699
 C834 C 0.37811 0.92350 0.06103
 C835 C 0.80076 0.33814 0.64270
 N836 N 0.80027 0.37758 0.64461
 N837 N 0.81633 0.39927 0.62271
 C838 C 0.83321 0.38227 0.59805
 N839 N 0.83351 0.34283 0.59608
 N840 N 0.81746 0.32112 0.61798
 C841 C 0.78680 0.31476 0.66775
 C842 C 0.77629 0.29558 0.68938
 C843 C 0.85585 0.40524 0.57695
 C844 C 0.87808 0.42351 0.56101
 C845 C 1.17530 1.14392 0.67080
 N846 N 1.19427 1.12787 0.64677
 N847 N 1.17618 1.10223 0.62895
 C848 C 1.13883 1.09170 0.63489
 N849 N 1.11996 1.10762 0.65902
 N850 N 1.13804 1.13325 0.67685
 C851 C 1.19402 1.17233 0.68926
 C852 C 1.20945 1.19594 0.70533
 C853 C 1.11791 1.06865 0.61350
 C854 C 1.09972 1.05197 0.59418
 C855 C 0.67495 0.64354 0.17111
 N856 N 0.63730 0.63384 0.17666
 N857 N 0.61918 0.60814 0.15892
 C858 C 0.63838 0.59119 0.13538
 N859 N 0.67611 0.60075 0.12994
 N860 N 0.69425 0.62645 0.14769
 C861 C 0.69376 0.67200 0.18945
 C862 C 0.70924 0.69565 0.20544
 C863 C 0.61754 0.56812 0.11397
 C864 C 0.59946 0.55145 0.09458
 C865 C 1.14408 0.82212 0.32696
 N866 N 1.13254 0.85894 0.32052
 N867 N 1.10799 0.87746 0.33903
 C868 C 1.09408 0.85950 0.36430
 N869 N 1.10546 0.82258 0.37064
 N870 N 1.13002 0.80405 0.35213
 C871 C 1.17183 0.80316 0.30798
 C872 C 1.19514 0.78762 0.29167
 C873 C 1.07233 0.88101 0.38619
 C874 C 1.05669 0.89965 0.40578
 C875 C 0.64446 0.32292 -0.17367
 N876 N 0.63568 0.36075 -0.17909
 N877 N 0.61121 0.37972 -0.16079
 C878 C 0.59463 0.36123 -0.13678
 N879 N 0.60325 0.32332 -0.13146
 N880 N 0.62773 0.30434 -0.14976
 C881 C 0.67209 0.30336 -0.19238
 C882 C 0.69534 0.28746 -0.20853
 C883 C 0.57294 0.38282 -0.11490
 C884 C 0.55733 0.40137 -0.09524
 C885 C 0.85969 1.17319 0.33039
 N886 N 0.86814 1.13545 0.32429
 N887 N 0.89346 1.11612 0.34162
 C888 C 0.91130 1.13416 0.36530
 N889 N 0.90301 1.17198 0.37129
 N890 N 0.87768 1.19133 0.35396
 C891 C 0.83141 1.19319 0.31255
 C892 C 0.80776 1.20930 0.29689
 C893 C 0.93383 1.11210 0.38636
 C894 C 0.94999 1.09320 0.40554
 C895 C 0.35975 0.67392 -0.16907
 N896 N 0.37056 0.63707 -0.17617
 N897 N 0.39584 0.61803 -0.15860
 C898 C 0.41127 0.63552 -0.13366
 N899 N 0.40062 0.67247 -0.12667
 N900 N 0.37532 0.69151 -0.14424
 C901 C 0.33145 0.69348 -0.18717
 C902 C 0.30779 0.70934 -0.20299
 C903 C 0.43378 0.61347 -0.11259
 C904 C 0.44996 0.59450 -0.09346
 C905 C 0.82550 0.85719 0.67128
 N906 N 0.80769 0.87498 0.64746
 N907 N 0.82772 0.89911 0.62962
 C908 C 0.86592 0.90632 0.63532
 N909 N 0.88364 0.88868 0.65924
 N910 N 0.86362 0.86456 0.67708
 C911 C 0.80481 0.83001 0.68956
 C912 C 0.78821 0.80709 0.70550
 C913 C 0.88845 0.92776 0.61392
 C914 C 0.90755 0.94327 0.59456
 C915 C 0.32571 0.35606 0.17105
 N916 N 0.30744 0.37588 0.14846
 N917 N 0.32759 0.39987 0.13058
 C918 C 0.36641 0.40488 0.13502
 N919 N 0.38461 0.38520 0.15771
 N920 N 0.36447 0.36122 0.17559
 C921 C 0.30475 0.32915 0.18939
 C922 C 0.28798 0.30642 0.20539
 C923 C 0.38876 0.42637 0.11353
 C924 C 0.40777 0.44201 0.09417
   
