data_POSCAR
  _audit_creation_date              2014-09-24
  _audit_creation_method            'ToBaCCo'
  _symmetry_space_group_name_H-M    'P1'
  _symmetry_Int_Tables_number       1
  _symmetry_cell_setting            triclinic
  loop_
  _symmetry_equiv_pos_as_xyz
 x,y,z
_cell_length_a 14.8235
_cell_length_b 15.0884
_cell_length_c 15.2170
_cell_angle_alpha 95.167100
_cell_angle_beta 83.760400
_cell_angle_gamma 83.840200
loop_
  _atom_site_label
  _atom_site_type_symbol
  _atom_site_fract_x
  _atom_site_fract_y
  _atom_site_fract_z
C1 C 0.32177 0.21667 0.20071
 C2 C 0.24805 0.28332 0.20730
 C3 C 0.17642 0.29128 0.27583
 C4 C 0.17800 0.23010 0.34027
 C5 C 0.25135 0.16053 0.33487
 C6 C 0.32345 0.15436 0.26428
 H7 H 0.24690 0.33109 0.15807
 H8 H 0.12220 0.23604 0.39351
 H9 H 0.38078 0.10249 0.25955
 C10 C 0.66607 -0.24561 0.16427
 C11 C 0.73472 -0.31948 0.16260
 C12 C 0.79329 -0.32323 0.22976
 C13 C 0.78224 -0.25314 0.29815
 C14 C 0.71983 -0.17729 0.29854
 C15 C 0.66140 -0.17315 0.23174
 H16 H 0.74143 -0.37447 0.11042
 H17 H 0.82660 -0.25495 0.35040
 H18 H 0.61210 -0.11438 0.23321
 C19 C 0.70723 0.27302 0.81657
 C20 C 0.71291 0.20806 0.74462
 C21 C 0.77773 0.20538 0.67064
 C22 C 0.83940 0.27051 0.66815
 C23 C 0.83659 0.33694 0.74136
 C24 C 0.76946 0.33701 0.81561
 H25 H 0.66513 0.15834 0.74605
 H26 H 0.88942 0.26868 0.61033
 H27 H 0.76511 0.38668 0.87245
 C28 C 0.30674 -0.24514 0.82206
 C29 C 0.24207 -0.30666 0.82329
 C30 C 0.18577 -0.31374 0.75494
 C31 C 0.19288 -0.25643 0.68738
 C32 C 0.25327 -0.19138 0.68927
 C33 C 0.31113 -0.18663 0.75580
 H34 H 0.23867 -0.35147 0.87513
 H35 H 0.14902 -0.25995 0.63484
 H36 H 0.35974 -0.13779 0.75578
 C37 C 0.67965 -0.21448 0.80094
 C38 C 0.75455 -0.27936 0.79712
 C39 C 0.82344 -0.29318 0.72517
 C40 C 0.81915 -0.23598 0.65691
 C41 C 0.74786 -0.16403 0.66318
 C42 C 0.67689 -0.15511 0.73494
 H43 H 0.75620 -0.32350 0.84963
 H44 H 0.87279 -0.24481 0.60140
 H45 H 0.61968 -0.10323 0.73891
 C46 C 0.33491 0.24429 0.83212
 C47 C 0.34015 0.17275 0.76402
 C48 C 0.27715 0.17474 0.70116
 C49 C 0.21075 0.24833 0.70567
 C50 C 0.20400 0.31940 0.77195
 C51 C 0.26564 0.31735 0.83584
 H52 H 0.39191 0.11570 0.76055
 H53 H 0.16259 0.25002 0.65678
 H54 H 0.26051 0.37290 0.88717
 C55 C 0.29845 -0.27193 0.18139
 C56 C 0.24070 -0.34029 0.18511
 C57 C 0.16954 -0.33631 0.25620
 C58 C 0.16191 -0.26720 0.32683
 C59 C 0.22201 -0.20148 0.32453
 C60 C 0.28645 -0.20268 0.25065
 H61 H 0.24810 -0.39366 0.13127
 H62 H 0.11023 -0.26491 0.38336
 H63 H 0.33124 -0.15026 0.24948
 C64 C 0.68862 0.24871 0.18330
 C65 C 0.68838 0.18594 0.24557
 C66 C 0.74935 0.18755 0.30947
 C67 C 0.81044 0.25190 0.31127
 C68 C 0.81060 0.31472 0.24914
 C69 C 0.74970 0.31312 0.18514
 H70 H 0.64081 0.13613 0.24444
 H71 H 0.85789 0.25291 0.36072
 H72 H 0.74997 0.36177 0.13683
 O73 O 0.17729 0.08084 0.44558
 O74 O 0.17812 -0.08662 0.60789
 O75 O 0.19430 0.08357 0.61507
 O76 O 0.15491 -0.09011 0.44257
 O77 O 0.30508 -0.11659 0.41611
 O78 O 0.34449 0.05733 0.58863
 O79 O 0.32868 -0.11109 0.58317
 O80 O 0.32731 0.05240 0.41656
 Cu81 Cu 0.16157 0.00087 0.53167
 Cu82 Cu 0.34091 -0.03307 0.49721
 C83 C 0.25213 0.09474 0.40238
 C84 C 0.25353 -0.12672 0.62331
 C85 C 0.27293 0.10043 0.63234
 C86 C 0.22631 -0.13359 0.39927
 O87 O 0.84444 0.08955 0.55543
 O88 O 0.80377 -0.08650 0.38433
 O89 O 0.82422 0.08198 0.38985
 O90 O 0.82323 -0.08405 0.55341
 O91 O 0.67334 -0.05433 0.58222
 O92 O 0.67366 0.10775 0.41488
 O93 O 0.65368 -0.05876 0.41072
 O94 O 0.69443 0.11685 0.58174
 Cu95 Cu 0.83852 -0.00397 0.46746
 Cu96 Cu 0.65923 0.03146 0.50180
 C97 C 0.77323 0.13493 0.59748
 C98 C 0.72483 -0.10253 0.36695
 C99 C 0.74905 0.12244 0.37450
 C100 C 0.74807 -0.09783 0.59601
 O101 O 0.44089 0.15083 0.08584
 O102 O 0.61893 0.19074 -0.09021
 O103 O 0.61013 0.17343 0.07852
 O104 O 0.44532 0.17049 -0.08641
 O105 O 0.41530 0.31751 -0.06036
 O106 O 0.58323 0.32109 0.10043
 O107 O 0.59067 0.33798 -0.06637
 O108 O 0.41292 0.29793 0.10930
 Cu109 Cu 0.53262 0.15705 -0.00699
 Cu110 Cu 0.49596 0.33287 0.02384
 C111 C 0.39671 0.22075 0.12919
 C112 C 0.63645 0.26807 -0.10838
 C113 C 0.62436 0.24769 0.11730
 C114 C 0.40176 0.24388 -0.10157
 O115 O 0.55791 0.82885 0.08775
 O116 O 0.38878 0.82854 -0.07405
 O117 O 0.38689 0.80946 0.09458
 O118 O 0.56036 0.85075 -0.08417
 O119 O 0.58668 0.70375 -0.11047
 O120 O 0.40916 0.66264 0.06546
 O121 O 0.41579 0.68112 -0.09933
 O122 O 0.58858 0.68229 0.05844
 Cu123 Cu 0.46985 0.84350 0.00945
 Cu124 Cu 0.50490 0.66814 -0.02438
 C125 C 0.60254 0.75527 0.10109
 C126 C 0.37313 0.75491 -0.11336
 C127 C 0.36657 0.73245 0.11078
 C128 C 0.60387 0.78116 -0.12862
 O129 O 0.08291 0.38368 0.19792
 O130 O -0.09788 0.55916 0.16260
 O131 O 0.08444 0.55990 0.18264
 O132 O -0.08241 0.39626 0.17692
 O133 O -0.11003 0.42013 0.32330
 O134 O 0.06037 0.58062 0.32899
 O135 O -0.11230 0.59149 0.30777
 O136 O 0.06024 0.40813 0.34416
 Cu137 Cu 0.00352 0.47465 0.16636
 Cu138 Cu -0.02951 0.50394 0.34041
 C139 C 0.10157 0.36371 0.27378
 C140 C -0.13727 0.60612 0.23251
 C141 C 0.10191 0.59771 0.25599
 C142 C -0.12433 0.38050 0.24984
 O143 O 0.08634 0.59965 0.82505
 O144 O -0.08857 0.44323 0.81557
 O145 O 0.08506 0.43323 0.83860
 O146 O -0.08866 0.61425 0.80198
 O147 O -0.06220 0.59498 0.65603
 O148 O 0.11814 0.41776 0.69269
 O149 O -0.05490 0.41725 0.67027
 O150 O 0.10429 0.59005 0.67875
 Cu151 Cu -0.00647 0.52636 0.83416
 Cu152 Cu 0.03022 0.50102 0.66004
 C153 C 0.12364 0.62310 0.75307
 C154 C -0.10029 0.40121 0.74207
 C155 C 0.13311 0.39496 0.76868
 C156 C -0.10607 0.63690 0.72662
   
