data_POSCAR
  _audit_creation_date              2014-09-24
  _audit_creation_method            'ToBaCCo'
  _symmetry_space_group_name_H-M    'P1'
  _symmetry_Int_Tables_number       1
  _symmetry_cell_setting            triclinic
  loop_
  _symmetry_equiv_pos_as_xyz
 x,y,z
_cell_length_a 40.9120
_cell_length_b 41.0043
_cell_length_c 40.9325
_cell_angle_alpha 90.070400
_cell_angle_beta 90.005300
_cell_angle_gamma 90.001200
loop_
  _atom_site_label
  _atom_site_type_symbol
  _atom_site_fract_x
  _atom_site_fract_y
  _atom_site_fract_z
C1 C 0.25011 1.10265 -0.01675
 C2 C 0.25191 1.10272 0.01667
 C3 C 0.25242 1.07031 0.02647
 N4 N 0.25110 1.05061 0.00000
 C5 C 0.24973 1.07023 -0.02646
 C6 C 0.25294 1.05974 0.05939
 C7 C 0.25175 1.02664 0.06944
 C8 C 0.24694 1.01663 0.10150
 C9 C 0.24656 0.98317 0.10131
 C10 C 0.25118 0.97337 0.06918
 N11 N 0.25486 1.00003 0.05000
 C12 C 0.25185 0.94035 0.05890
 C13 C 0.25202 0.92974 0.02602
 C14 C 0.25172 0.89732 0.01632
 C15 C 0.25077 0.89725 -0.01714
 C16 C 0.25058 0.92966 -0.02694
 N17 N 0.25136 0.94936 -0.00046
 C18 C 0.25062 0.94025 -0.05987
 C19 C 0.25125 0.97339 -0.06989
 C20 C 0.25572 0.98351 -0.10197
 C21 C 0.25525 1.01697 -0.10180
 C22 C 0.25056 1.02666 -0.06965
 N23 N 0.24760 0.99993 -0.05045
 C24 C 0.24924 1.05964 -0.05934
 H25 H 0.24943 1.12409 -0.03213
 H26 H 0.25251 1.12423 0.03202
 H27 H 0.24102 0.99986 -0.02604
 H28 H 0.24357 1.03187 0.12284
 H29 H 0.24288 0.96783 0.12250
 H30 H 0.25195 0.87588 0.03171
 H31 H 0.25041 0.87575 -0.03250
 H32 H 0.25848 1.03239 -0.12299
 H33 H 0.26153 1.00002 0.02561
 H34 H 0.25933 0.96835 -0.12333
 C35 C 0.75136 0.48333 0.60284
 C36 C 0.75320 0.51671 0.60285
 C37 C 0.75366 0.52640 0.57039
 N38 N 0.75229 0.49998 0.55069
 C39 C 0.75090 0.47359 0.57038
 C40 C 0.75416 0.55921 0.55980
 C41 C 0.75296 0.56942 0.52676
 C42 C 0.74821 0.60147 0.51698
 C43 C 0.74779 0.60152 0.48345
 C44 C 0.75232 0.56950 0.47341
 N45 N 0.75601 0.55018 0.50000
 C46 C 0.75286 0.55940 0.44028
 C47 C 0.75288 0.52658 0.42964
 C48 C 0.75254 0.51684 0.39718
 C49 C 0.75153 0.48343 0.39718
 C50 C 0.75132 0.47373 0.42964
 N51 N 0.75213 0.50017 0.44933
 C52 C 0.75136 0.44093 0.44024
 C53 C 0.75198 0.43074 0.47332
 C54 C 0.75641 0.39867 0.48319
 C55 C 0.75601 0.39861 0.51673
 C56 C 0.75140 0.43065 0.52667
 N57 N 0.74841 0.44998 0.50001
 C58 C 0.75027 0.44077 0.55977
 H59 H 0.75068 0.46800 0.62434
 H60 H 0.75385 0.53208 0.62436
 H61 H 0.74186 0.47436 0.49999
 H62 H 0.74490 0.62268 0.53241
 H63 H 0.74412 0.62276 0.46822
 H64 H 0.75282 0.53219 0.37569
 H65 H 0.75115 0.46805 0.37567
 H66 H 0.75925 0.37735 0.53204
 H67 H 0.76265 0.52582 0.49993
 H68 H 0.75995 0.37745 0.46785
 C69 C 0.75024 1.01663 1.10425
 C70 C 0.74849 0.98327 1.10423
 C71 C 0.74789 0.97351 1.07174
 N72 N 0.74908 0.99995 1.05207
 C73 C 0.75049 1.02639 1.07178
 C74 C 0.74736 0.94062 1.06108
 C75 C 0.74853 0.93054 1.02791
 C76 C 0.75328 0.89851 1.01785
 C77 C 0.75365 0.89863 0.98434
 C78 C 0.74908 0.93069 0.97454
 N79 N 0.74546 0.94990 1.00127
 C80 C 0.74844 0.94088 0.94147
 C81 C 0.74832 0.97368 0.93088
 C82 C 0.74868 0.98339 0.89842
 C83 C 0.74960 1.01681 0.89846
 C84 C 0.74974 1.02652 0.93093
 N85 N 0.74895 1.00010 0.95060
 C86 C 0.74960 1.05932 0.94159
 C87 C 0.74887 1.06941 0.97471
 C88 C 0.74422 1.10143 0.98467
 C89 C 0.74463 1.10146 1.01818
 C90 C 0.74949 1.06942 1.02807
 N91 N 0.75258 1.05014 1.00134
 C92 C 0.75090 1.05927 1.06119
 H93 H 0.75097 1.03197 1.12578
 H94 H 0.74798 0.96793 1.12573
 H95 H 0.75932 1.02581 1.00130
 H96 H 0.75662 0.87722 1.03309
 H97 H 0.75728 0.87744 0.96897
 H98 H 0.74848 0.96802 0.87691
 H99 H 0.74997 1.03217 0.87698
 H100 H 0.74128 1.12271 1.03353
 H101 H 0.73885 0.97426 1.00130
 H102 H 0.74052 1.12264 0.96940
 C103 C 0.24822 0.39732 0.48295
 C104 C 0.24637 0.39738 0.51640
 C105 C 0.24588 0.42981 0.52611
 N106 N 0.24725 0.44942 0.49965
 C107 C 0.24867 0.42970 0.47321
 C108 C 0.24534 0.44046 0.55899
 C109 C 0.24656 0.47347 0.56922
 C110 C 0.25126 0.48330 0.60134
 C111 C 0.25173 0.51677 0.60139
 C112 C 0.24727 0.52673 0.56931
 N113 N 0.24358 0.50014 0.54994
 C114 C 0.24681 0.55978 0.55920
 C115 C 0.24681 0.57033 0.52633
 C116 C 0.24723 0.60272 0.51658
 C117 C 0.24822 0.60264 0.48310
 C118 C 0.24834 0.57022 0.47338
 N119 N 0.24749 0.55062 0.49987
 C120 C 0.24824 0.55955 0.44052
 C121 C 0.24756 0.52651 0.43031
 C122 C 0.24306 0.51658 0.39819
 C123 C 0.24345 0.48311 0.39812
 C124 C 0.24811 0.47326 0.43021
 N125 N 0.25115 0.49991 0.44958
 C126 C 0.24928 0.44023 0.44033
 H127 H 0.24892 0.37583 0.46758
 H128 H 0.24574 0.37595 0.53179
 H129 H 0.25776 0.49997 0.47399
 H130 H 0.25452 0.46795 0.62259
 H131 H 0.25539 0.53202 0.62268
 H132 H 0.24701 0.62421 0.53196
 H133 H 0.24864 0.62408 0.46770
 H134 H 0.24017 0.46778 0.37683
 H135 H 0.23700 0.50016 0.52553
 H136 H 0.23949 0.53186 0.37694
 C137 C 1.10152 0.23713 -0.01776
 C138 C 1.10169 0.23738 0.01575
 C139 C 1.07019 0.24523 0.02557
 N140 N 1.05094 0.25002 -0.00085
 C141 C 1.06992 0.24488 -0.02739
 C142 C 1.06024 0.24989 0.05833
 C143 C 1.02735 0.25480 0.06789
 C144 C 1.01744 0.26483 0.09876
 C145 C 0.98384 0.26454 0.09882
 C146 C 0.97404 0.25441 0.06799
 N147 N 1.00069 0.24833 0.04939
 C148 C 0.94124 0.24916 0.05856
 C149 C 0.93098 0.24514 0.02588
 C150 C 0.89932 0.23780 0.01628
 C151 C 0.89909 0.23831 -0.01723
 C152 C 0.93066 0.24593 -0.02704
 N153 N 0.94999 0.25032 -0.00062
 C154 C 0.94062 0.25078 -0.05974
 C155 C 0.97354 0.25561 -0.06926
 C156 C 0.98344 0.26595 -0.10000
 C157 C 1.01704 0.26549 -0.10011
 C158 C 1.02688 0.25491 -0.06943
 N159 N 1.00019 0.24877 -0.05089
 C160 C 1.05972 0.24928 -0.06010
 H161 H 1.12237 0.23223 -0.03328
 H162 H 1.12269 0.23267 0.03113
 H163 H 1.00018 0.23698 -0.02847
 H164 H 1.03284 0.27133 0.11926
 H165 H 0.96838 0.27081 0.11935
 H166 H 0.87846 0.23298 0.03180
 H167 H 0.87802 0.23393 -0.03262
 H168 H 1.03247 0.27192 -0.12059
 H169 H 1.00067 0.23680 0.02680
 H170 H 0.96805 0.27278 -0.12038
 C171 C 0.48353 0.75109 0.60309
 C172 C 0.51703 0.75011 0.60298
 C173 C 0.52666 0.74990 0.57048
 N174 N 0.50012 0.75068 0.55088
 C175 C 0.47370 0.75141 0.57067
 C176 C 0.55951 0.75000 0.55975
 C177 C 0.56964 0.75066 0.52665
 C178 C 0.60175 0.75517 0.51667
 C179 C 0.60174 0.75481 0.48314
 C180 C 0.56962 0.75013 0.47330
 N181 N 0.55030 0.74706 0.50002
 C182 C 0.55940 0.74901 0.44024
 C183 C 0.52649 0.74956 0.42973
 C184 C 0.51665 0.75003 0.39730
 C185 C 0.48319 0.75180 0.39742
 C186 C 0.47356 0.75222 0.42991
 N187 N 0.50009 0.75088 0.44952
 C188 C 0.44070 0.75266 0.44063
 C189 C 0.43056 0.75142 0.47370
 C190 C 0.39846 0.74663 0.48358
 C191 C 0.39849 0.74621 0.51711
 C192 C 0.43060 0.75079 0.52704
 N193 N 0.44990 0.75449 0.50039
 C194 C 0.44079 0.75137 0.56013
 H195 H 0.46820 0.75137 0.62464
 H196 H 0.53249 0.74976 0.62443
 H197 H 0.47429 0.76116 0.50038
 H198 H 0.62305 0.75876 0.53195
 H199 H 0.62300 0.75811 0.46776
 H200 H 0.53197 0.74941 0.37575
 H201 H 0.46773 0.75244 0.37597
 H202 H 0.37724 0.74252 0.53241
 H203 H 0.52589 0.74046 0.50011
 H204 H 0.37717 0.74329 0.46823
 C205 C 0.10063 0.73696 0.01671
 C206 C 0.10081 0.73665 -0.01680
 C207 C 0.06923 0.74402 -0.02676
 N208 N 0.04992 0.74899 -0.00043
 C209 C 0.06896 0.74446 0.02616
 C210 C 0.05928 0.74828 -0.05955
 C211 C 0.02644 0.75363 -0.06907
 C212 C 0.01669 0.76417 -0.09978
 C213 C -0.01690 0.76449 -0.09979
 C214 C -0.02690 0.75410 -0.06910
 N215 N -0.00030 0.74738 -0.05062
 C216 C -0.05983 0.74911 -0.05972
 C217 C -0.07003 0.74422 -0.02709
 C218 C -0.10164 0.73641 -0.01758
 C219 C -0.10177 0.73601 0.01593
 C220 C -0.07024 0.74360 0.02586
 N221 N -0.05100 0.74881 -0.00048
 C222 C -0.06028 0.74781 0.05868
 C223 C -0.02747 0.75322 0.06822
 C224 C -0.01769 0.76354 0.09903
 C225 C 0.01591 0.76396 0.09900
 C226 C 0.02583 0.75386 0.06820
 N227 N -0.00075 0.74718 0.04968
 C228 C 0.05872 0.74911 0.05876
 H229 H 0.12152 0.73254 0.03232
 H230 H 0.12188 0.73198 -0.03210
 H231 H -0.00060 0.73558 0.02714
 H232 H 0.03219 0.77068 -0.12019
 H233 H -0.03224 0.77126 -0.12024
 H234 H -0.12253 0.73187 -0.03316
 H235 H -0.12277 0.73111 0.03124
 H236 H 0.03128 0.77061 0.11948
 H237 H -0.00043 0.73560 -0.02820
 H238 H -0.03318 0.76985 0.11953
 C239 C 0.60267 0.24929 0.51726
 C240 C 0.60280 0.25018 0.48377
 C241 C 0.57036 0.25040 0.47391
 N242 N 0.55056 0.24972 0.50030
 C243 C 0.57016 0.24904 0.52685
 C244 C 0.55986 0.25022 0.44099
 C245 C 0.52680 0.24959 0.43063
 C246 C 0.51704 0.24499 0.39848
 C247 C 0.48349 0.24543 0.39824
 C248 C 0.47344 0.25023 0.43027
 N249 N 0.50004 0.25330 0.44976
 C250 C 0.44029 0.25144 0.44023
 C251 C 0.42954 0.25099 0.47305
 C252 C 0.39702 0.25059 0.48264
 C253 C 0.39689 0.24888 0.51609
 C254 C 0.42934 0.24843 0.52595
 N255 N 0.44915 0.24969 0.49958
 C256 C 0.43981 0.24801 0.55887
 C257 C 0.47284 0.24923 0.56925
 C258 C 0.48249 0.25406 0.60141
 C259 C 0.51604 0.25445 0.60162
 C260 C 0.52620 0.24981 0.56961
 N261 N 0.49967 0.24611 0.55012
 C262 C 0.55938 0.24917 0.55967
 H263 H 0.62412 0.24903 0.53274
 H264 H 0.62437 0.25045 0.46847
 H265 H 0.49982 0.23940 0.52574
 H266 H 0.53246 0.24130 0.37731
 H267 H 0.46825 0.24208 0.37689
 H268 H 0.37558 0.25122 0.46717
 H269 H 0.37532 0.24831 0.53138
 H270 H 0.53120 0.25815 0.62298
 H271 H 0.49997 0.25999 0.47415
 H272 H 0.46699 0.25744 0.62257
 C273 C 1.10425 -0.01662 0.25084
 C274 C 1.10419 0.01675 0.25255
 C275 C 1.07168 0.02644 0.25332
 N276 N 1.05203 -0.00004 0.25228
 C277 C 1.07177 -0.02644 0.25078
 C278 C 1.06099 0.05931 0.25388
 C279 C 1.02780 0.06940 0.25282
 C280 C 1.01776 0.10144 0.24821
 C281 C 0.98423 0.10131 0.24786
 C282 C 0.97441 0.06923 0.25230
 N283 N 1.00114 0.05003 0.25585
 C284 C 0.94132 0.05901 0.25282
 C285 C 0.93076 0.02619 0.25287
 C286 C 0.89830 0.01642 0.25234
 C287 C 0.89837 -0.01700 0.25144
 C288 C 0.93087 -0.02665 0.25150
 N289 N 0.95052 -0.00019 0.25238
 C290 C 0.94156 -0.05942 0.25177
 C291 C 0.97468 -0.06949 0.25264
 C292 C 0.98462 -0.10147 0.25748
 C293 C 1.01815 -0.10150 0.25706
 C294 C 1.02807 -0.06949 0.25200
 N295 N 1.00134 -0.05023 0.24882
 C296 C 1.06120 -0.05935 0.25047
 H297 H 1.12580 -0.03191 0.24999
 H298 H 1.12569 0.03213 0.25290
 H299 H 1.00128 -0.02597 0.24188
 H300 H 1.03302 0.12275 0.24493
 H301 H 0.96886 0.12249 0.24430
 H302 H 0.87676 0.03174 0.25241
 H303 H 0.87690 -0.03241 0.25097
 H304 H 1.03349 -0.12272 0.26051
 H305 H 1.00119 0.02564 0.26230
 H306 H 0.96931 -0.12266 0.26128
 C307 C 0.48274 0.60291 0.75221
 C308 C 0.51621 0.60292 0.75403
 C309 C 0.52595 0.57052 0.75463
 N310 N 0.49949 0.55085 0.75336
 C311 C 0.47302 0.57050 0.75189
 C312 C 0.55884 0.55994 0.75518
 C313 C 0.56905 0.52692 0.75406
 C314 C 0.60116 0.51709 0.74935
 C315 C 0.60118 0.48362 0.74894
 C316 C 0.56907 0.47366 0.75345
 N317 N 0.54973 0.50025 0.75711
 C318 C 0.55893 0.44061 0.75397
 C319 C 0.52605 0.42999 0.75403
 C320 C 0.51631 0.39758 0.75363
 C321 C 0.48281 0.39757 0.75266
 C322 C 0.47307 0.42998 0.75253
 N323 N 0.49955 0.44964 0.75337
 C324 C 0.44018 0.44059 0.75260
 C325 C 0.43002 0.47363 0.75327
 C326 C 0.39790 0.48356 0.75779
 C327 C 0.39787 0.51703 0.75736
 C328 C 0.42998 0.52687 0.75264
 N329 N 0.44933 0.50022 0.74962
 C330 C 0.44013 0.55989 0.75135
 H331 H 0.46735 0.62436 0.75145
 H332 H 0.53159 0.62439 0.75458
 H333 H 0.47373 0.50018 0.74297
 H334 H 0.62243 0.53243 0.74604
 H335 H 0.62246 0.46837 0.74529
 H336 H 0.53172 0.37612 0.75384
 H337 H 0.46742 0.37611 0.75225
 H338 H 0.37658 0.53236 0.76063
 H339 H 0.52531 0.50021 0.76369
 H340 H 0.37663 0.46829 0.76141
 C341 C 1.01774 1.10286 0.74560
 C342 C 0.98426 1.10290 0.74661
 C343 C 0.97453 1.07053 0.74822
 N344 N 1.00103 1.05085 0.74828
 C345 C 1.02752 1.07045 0.74667
 C346 C 0.94162 1.06001 0.74904
 C347 C 0.93127 1.02702 0.74940
 C348 C 0.89892 1.01719 0.74664
 C349 C 0.89882 0.98371 0.74709
 C350 C 0.93111 0.97377 0.75006
 N351 N 0.95064 1.00037 0.75204
 C352 C 0.94127 0.94073 0.75034
 C353 C 0.97412 0.93005 0.74888
 C354 C 0.98364 0.89764 0.74707
 C355 C 1.01708 0.89751 0.74516
 C356 C 1.02706 0.92987 0.74601
 N357 N 1.00071 0.94961 0.74826
 C358 C 1.06004 0.94033 0.74621
 C359 C 1.07023 0.97336 0.74833
 C360 C 1.10216 0.98312 0.75445
 C361 C 1.10225 1.01657 0.75489
 C362 C 1.07038 1.02665 0.74899
 N363 N 1.05112 1.00010 0.74454
 C364 C 1.06043 1.05979 0.74752
 H365 H 1.03313 1.12430 0.74446
 H366 H 0.96887 1.12436 0.74613
 H367 H 1.02708 1.00022 0.73659
 H368 H 0.87753 1.03251 0.74407
 H369 H 0.87734 0.96845 0.74488
 H370 H 0.96814 0.87625 0.74697
 H371 H 1.03232 0.87598 0.74367
 H372 H 1.12343 1.03176 0.75934
 H373 H 0.97543 1.00034 0.75684
 H374 H 1.12325 0.96772 0.75854
 C375 C 0.39703 0.48349 0.24610
 C376 C 0.39716 0.51691 0.24711
 C377 C 0.42967 0.52651 0.24730
 N378 N 0.44927 0.50001 0.24647
 C379 C 0.42947 0.47366 0.24575
 C380 C 0.44042 0.55928 0.24730
 C381 C 0.47357 0.56931 0.24671
 C382 C 0.48364 0.60133 0.24231
 C383 C 0.51719 0.60123 0.24276
 C384 C 0.52695 0.56915 0.24739
 N385 N 0.50016 0.54994 0.25032
 C386 C 0.56000 0.55889 0.24864
 C387 C 0.57050 0.52603 0.24802
 C388 C 0.60294 0.51620 0.24766
 C389 C 0.60282 0.48282 0.24579
 C390 C 0.57031 0.47322 0.24520
 N391 N 0.55069 0.49970 0.24653
 C392 C 0.55958 0.44044 0.24462
 C393 C 0.52645 0.43038 0.24574
 C394 C 0.51648 0.39838 0.25045
 C395 C 0.48293 0.39849 0.25086
 C396 C 0.47307 0.43056 0.24634
 N397 N 0.49980 0.44975 0.24269
 C398 C 0.43998 0.44081 0.24581
 H399 H 0.37546 0.46820 0.24584
 H400 H 0.37570 0.53235 0.24750
 H401 H 0.49984 0.47410 0.23609
 H402 H 0.46842 0.62261 0.23874
 H403 H 0.53264 0.62242 0.23957
 H404 H 0.62450 0.53148 0.24844
 H405 H 0.62428 0.46739 0.24520
 H406 H 0.46757 0.37732 0.25450
 H407 H 0.50003 0.52558 0.25688
 H408 H 0.53178 0.37710 0.25376
 O409 O 0.25054 0.16494 0.20390
 O410 O 0.28607 0.15593 0.24937
 O411 O 0.16497 0.20439 0.25067
 O412 O 0.15265 0.24688 0.28224
 O413 O 0.20446 0.24980 0.16384
 O414 O 0.24970 0.28547 0.15454
 O415 O 0.25056 0.29494 0.33345
 O416 O 0.21272 0.25219 0.34234
 O417 O 0.33413 0.25126 0.29392
 O418 O 0.34449 0.21446 0.24743
 O419 O 0.29426 0.33429 0.24950
 O420 O 0.24760 0.34421 0.21304
 O421 O 0.25038 0.33405 0.29404
 O422 O 0.21267 0.34347 0.24731
 O423 O 0.33380 0.29527 0.24959
 O424 O 0.34380 0.24843 0.21245
 O425 O 0.29492 0.25161 0.33336
 O426 O 0.25012 0.21382 0.34344
 O427 O 0.25057 0.20397 0.16433
 O428 O 0.28635 0.24969 0.15507
 O429 O 0.16504 0.24944 0.20312
 O430 O 0.15752 0.28792 0.24857
 O431 O 0.20443 0.16518 0.24995
 O432 O 0.25009 0.15632 0.28576
 Zr433 Zr 0.24861 0.19141 0.24798
 O434 O 0.27920 0.21956 0.27824
 Zr435 Zr 0.19101 0.24853 0.24760
 O436 O 0.21894 0.27896 0.27842
 Zr437 Zr 0.24857 0.24831 0.19028
 O438 O 0.27881 0.27917 0.21824
 Zr439 Zr 0.25064 0.25083 0.30725
 O440 O 0.21965 0.21999 0.27954
 Zr441 Zr 0.30792 0.25093 0.24965
 O442 O 0.28024 0.21976 0.21899
 Zr443 Zr 0.25013 0.30792 0.24970
 O444 O 0.21956 0.27992 0.21863
 O445 O 0.21819 0.21812 0.21742
 O446 O 0.28106 0.28151 0.28031
 C447 C 0.25137 0.17419 0.17395
 C448 C 0.17453 0.17456 0.25123
 C449 C 0.17453 0.25025 0.17323
 C450 C 0.25048 0.32475 0.32396
 C451 C 0.32479 0.25155 0.32384
 C452 C 0.32421 0.32504 0.24946
 H453 H 0.29288 0.20485 0.29156
 H454 H 0.29216 0.29266 0.20336
 H455 H 0.20427 0.20396 0.20361
 H456 H 0.20422 0.29224 0.29221
 H457 H 0.19604 0.23616 0.33525
 H458 H 0.15981 0.25951 0.30156
 H459 H 0.33931 0.26609 0.19663
 H460 H 0.30348 0.23444 0.16270
 H461 H 0.26725 0.19768 0.33805
 H462 H 0.23491 0.16405 0.30294
 H463 H 0.26443 0.33913 0.19646
 H464 H 0.23482 0.30286 0.16231
 H465 H 0.30358 0.16379 0.23466
 H466 H 0.33968 0.19817 0.26456
 H467 H 0.16410 0.30317 0.23103
 H468 H 0.19714 0.33917 0.26532
 O469 O 0.74983 0.83452 0.20437
 O470 O 0.71453 0.84384 0.24992
 O471 O 0.83542 0.79482 0.25083
 O472 O 0.84764 0.75245 0.28246
 O473 O 0.79548 0.74933 0.16422
 O474 O 0.75006 0.71386 0.15504
 O475 O 0.74977 0.70497 0.33401
 O476 O 0.78772 0.74763 0.34277
 O477 O 0.66619 0.74878 0.29465
 O478 O 0.65580 0.78544 0.24816
 O479 O 0.70565 0.66545 0.25029
 O480 O 0.75200 0.65516 0.21372
 O481 O 0.74972 0.66573 0.29464
 O482 O 0.78724 0.65607 0.24768
 O483 O 0.66623 0.70460 0.25040
 O484 O 0.65630 0.75136 0.21319
 O485 O 0.70550 0.74841 0.33399
 O486 O 0.75045 0.78613 0.34389
 O487 O 0.74954 0.79539 0.16480
 O488 O 0.71354 0.74976 0.15568
 O489 O 0.83500 0.74962 0.20341
 O490 O 0.84247 0.71127 0.24890
 O491 O 0.79613 0.83421 0.25021
 O492 O 0.75062 0.84335 0.28623
 Zr493 Zr 0.75181 0.80817 0.24844
 O494 O 0.72118 0.78024 0.27879
 Zr495 Zr 0.80917 0.75081 0.24795
 O496 O 0.78122 0.72062 0.27887
 Zr497 Zr 0.75144 0.75110 0.19077
 O498 O 0.72118 0.72043 0.21884
 Zr499 Zr 0.74971 0.74898 0.30776
 O500 O 0.78075 0.77958 0.27994
 Zr501 Zr 0.69226 0.74886 0.25031
 O502 O 0.71997 0.77985 0.21957
 Zr503 Zr 0.74985 0.69168 0.25026
 O504 O 0.78041 0.71945 0.21906
 O505 O 0.78202 0.78124 0.21781
 O506 O 0.71911 0.71830 0.28093
 C507 C 0.74888 0.82521 0.17443
 C508 C 0.82600 0.82469 0.25136
 C509 C 0.82543 0.74876 0.17354
 C510 C 0.74977 0.67514 0.32455
 C511 C 0.67560 0.74854 0.32455
 C512 C 0.67573 0.67479 0.25034
 H513 H 0.70759 0.79504 0.29213
 H514 H 0.70773 0.70693 0.20402
 H515 H 0.79596 0.79528 0.20394
 H516 H 0.79594 0.70733 0.29263
 H517 H 0.80443 0.76356 0.33560
 H518 H 0.84048 0.73996 0.30184
 H519 H 0.66065 0.73360 0.19741
 H520 H 0.69650 0.76510 0.16336
 H521 H 0.73334 0.80229 0.33854
 H522 H 0.76588 0.83564 0.30333
 H523 H 0.73528 0.66036 0.19708
 H524 H 0.76483 0.69639 0.16281
 H525 H 0.69691 0.83598 0.23533
 H526 H 0.66074 0.80180 0.26524
 H527 H 0.83585 0.69603 0.23133
 H528 H 0.80274 0.66024 0.26576
 O529 O 0.74971 0.16606 0.79648
 O530 O 0.71392 0.15651 0.75135
 O531 O 0.83505 0.20536 0.74896
 O532 O 0.84675 0.24765 0.71677
 O533 O 0.79582 0.25131 0.83559
 O534 O 0.75038 0.28703 0.84486
 O535 O 0.74925 0.29525 0.66621
 O536 O 0.78736 0.25161 0.65794
 O537 O 0.66559 0.25132 0.70604
 O538 O 0.65557 0.21464 0.75230
 O539 O 0.70517 0.33477 0.75012
 O540 O 0.75203 0.34494 0.78665
 O541 O 0.74904 0.33456 0.70552
 O542 O 0.78661 0.34452 0.75201
 O543 O 0.66582 0.29555 0.75034
 O544 O 0.65620 0.24871 0.78759
 O545 O 0.70468 0.25210 0.66650
 O546 O 0.74413 0.21494 0.65615
 O547 O 0.74986 0.20541 0.83581
 O548 O 0.71400 0.25090 0.84496
 O549 O 0.83499 0.25078 0.79605
 O550 O 0.84231 0.28859 0.75007
 O551 O 0.79582 0.16602 0.75086
 O552 O 0.74829 0.15593 0.71521
 Zr553 Zr 0.75140 0.19201 0.75213
 O554 O 0.72085 0.21997 0.72172
 Zr555 Zr 0.80874 0.24932 0.75175
 O556 O 0.78061 0.27966 0.72115
 Zr557 Zr 0.75152 0.24946 0.80947
 O558 O 0.72097 0.27991 0.78150
 Zr559 Zr 0.74892 0.25129 0.69254
 O560 O 0.78009 0.22031 0.72002
 Zr561 Zr 0.69192 0.25133 0.75025
 O562 O 0.71982 0.22055 0.78105
 Zr563 Zr 0.74945 0.30864 0.74991
 O564 O 0.78033 0.28089 0.78080
 O565 O 0.78183 0.21914 0.78234
 O566 O 0.71851 0.28197 0.71950
 C567 C 0.74909 0.17555 0.82638
 C568 C 0.82567 0.17550 0.74912
 C569 C 0.82570 0.25177 0.82600
 C570 C 0.74914 0.32510 0.67562
 C571 C 0.67484 0.25175 0.67609
 C572 C 0.67526 0.32538 0.75032
 H573 H 0.70757 0.20518 0.70799
 H574 H 0.70758 0.29340 0.79639
 H575 H 0.79587 0.20521 0.79623
 H576 H 0.79528 0.29290 0.70729
 H577 H 0.80207 0.23329 0.66358
 H578 H 0.83863 0.25868 0.69690
 H579 H 0.66059 0.26650 0.80332
 H580 H 0.69680 0.23568 0.83740
 H581 H 0.75755 0.19627 0.66332
 H582 H 0.76741 0.15871 0.70068
 H583 H 0.73491 0.34015 0.80301
 H584 H 0.76541 0.30426 0.83704
 H585 H 0.69657 0.16446 0.76621
 H586 H 0.66080 0.19817 0.73542
 H587 H 0.83583 0.30412 0.76743
 H588 H 0.80232 0.33996 0.73422
 O589 O 0.24993 0.83513 0.79558
 O590 O 0.28563 0.84418 0.75020
 O591 O 0.16451 0.79576 0.74862
 O592 O 0.15229 0.75335 0.71685
 O593 O 0.20381 0.75010 0.83538
 O594 O 0.24912 0.71452 0.84473
 O595 O 0.25017 0.70527 0.66585
 O596 O 0.21234 0.74811 0.65696
 O597 O 0.33371 0.74909 0.70555
 O598 O 0.34396 0.78574 0.75221
 O599 O 0.29381 0.66586 0.74968
 O600 O 0.24713 0.65593 0.78621
 O601 O 0.24988 0.66613 0.70522
 O602 O 0.21225 0.65663 0.75189
 O603 O 0.33334 0.70490 0.74972
 O604 O 0.34332 0.75159 0.78700
 O605 O 0.29457 0.74872 0.66604
 O606 O 0.24985 0.78637 0.65586
 O607 O 0.24986 0.79604 0.83509
 O608 O 0.28569 0.75038 0.84436
 O609 O 0.16447 0.75057 0.79601
 O610 O 0.15702 0.71225 0.75050
 O611 O 0.20397 0.83497 0.74946
 O612 O 0.24965 0.84390 0.71376
 Zr613 Zr 0.24813 0.80873 0.75145
 O614 O 0.27875 0.78063 0.72120
 Zr615 Zr 0.19053 0.75161 0.75160
 O616 O 0.21852 0.72121 0.72083
 Zr617 Zr 0.24799 0.75173 0.80906
 O618 O 0.27830 0.72094 0.78111
 Zr619 Zr 0.25026 0.74938 0.69208
 O620 O 0.21923 0.78020 0.71978
 Zr621 Zr 0.30744 0.74923 0.74979
 O622 O 0.27971 0.78033 0.78046
 Zr623 Zr 0.24967 0.69222 0.74957
 O624 O 0.21904 0.72017 0.78059
 O625 O 0.21765 0.78196 0.78190
 O626 O 0.28064 0.71867 0.71903
 C627 C 0.25065 0.82584 0.82552
 C628 C 0.17407 0.82559 0.74813
 C629 C 0.17390 0.74965 0.82591
 C630 C 0.25000 0.67546 0.67531
 C631 C 0.32442 0.74887 0.67561
 C632 C 0.32376 0.67512 0.74973
 H633 H 0.29244 0.79537 0.70793
 H634 H 0.29164 0.70743 0.79598
 H635 H 0.20369 0.79607 0.79571
 H636 H 0.20382 0.70794 0.70701
 H637 H 0.19571 0.76419 0.66403
 H638 H 0.15943 0.74067 0.69757
 H639 H 0.33874 0.73396 0.80283
 H640 H 0.30285 0.76560 0.83674
 H641 H 0.26674 0.80267 0.66147
 H642 H 0.23450 0.83621 0.69653
 H643 H 0.26409 0.66088 0.80271
 H644 H 0.23431 0.69710 0.83688
 H645 H 0.30304 0.83636 0.76504
 H646 H 0.33918 0.80207 0.73510
 H647 H 0.16358 0.69693 0.76798
 H648 H 0.19668 0.66100 0.73394
 O649 O 0.24782 0.33464 0.70494
 O650 O 0.21234 0.34385 0.75040
 O651 O 0.33349 0.29550 0.75171
 O652 O 0.34577 0.25329 0.78357
 O653 O 0.29406 0.24964 0.66511
 O654 O 0.24886 0.21397 0.65574
 O655 O 0.24790 0.20514 0.83457
 O656 O 0.28574 0.24801 0.84350
 O657 O 0.16436 0.24854 0.79496
 O658 O 0.15375 0.28490 0.74858
 O659 O 0.20453 0.16535 0.75070
 O660 O 0.25125 0.15552 0.71421
 O661 O 0.24825 0.16591 0.79519
 O662 O 0.28605 0.15638 0.74861
 O663 O 0.16487 0.20424 0.75075
 O664 O 0.15489 0.25113 0.71335
 O665 O 0.20354 0.24848 0.83444
 O666 O 0.24817 0.28624 0.84461
 O667 O 0.24791 0.29543 0.66544
 O668 O 0.21221 0.24968 0.65620
 O669 O 0.33345 0.25020 0.70444
 O670 O 0.34106 0.21204 0.74998
 O671 O 0.29400 0.33468 0.75091
 O672 O 0.24830 0.34358 0.78682
 Zr673 Zr 0.24982 0.30838 0.74906
 O674 O 0.21924 0.28027 0.77928
 Zr675 Zr 0.30748 0.25135 0.74886
 O676 O 0.27960 0.22098 0.77964
 Zr677 Zr 0.24994 0.25123 0.69146
 O678 O 0.21975 0.22041 0.71939
 Zr679 Zr 0.24782 0.24917 0.80838
 O680 O 0.27879 0.27998 0.78071
 Zr681 Zr 0.19059 0.24870 0.75073
 O682 O 0.21823 0.27985 0.72011
 Zr683 Zr 0.24853 0.19187 0.75088
 O684 O 0.27904 0.21982 0.71985
 O685 O 0.28028 0.28158 0.71858
 O686 O 0.21751 0.21831 0.78144
 C687 C 0.24703 0.32525 0.67501
 C688 C 0.32392 0.32532 0.75216
 C689 C 0.32397 0.24922 0.67456
 C690 C 0.24805 0.17531 0.82508
 C691 C 0.17369 0.24844 0.82488
 C692 C 0.17456 0.17449 0.75066
 H693 H 0.20551 0.29500 0.79257
 H694 H 0.20645 0.20684 0.70450
 H695 H 0.29418 0.29568 0.70473
 H696 H 0.29433 0.20778 0.79347
 H697 H 0.30234 0.26412 0.83645
 H698 H 0.33866 0.24067 0.80287
 H699 H 0.15916 0.23315 0.69780
 H700 H 0.19503 0.26490 0.66381
 H701 H 0.23129 0.30253 0.83896
 H702 H 0.26362 0.33602 0.80394
 H703 H 0.23426 0.16036 0.69772
 H704 H 0.26375 0.19660 0.66354
 H705 H 0.19481 0.33588 0.73575
 H706 H 0.15879 0.30154 0.76535
 H707 H 0.33453 0.19667 0.73249
 H708 H 0.30152 0.16075 0.76667
 O709 O 0.75138 0.66547 0.70548
 O710 O 0.78677 0.65608 0.75096
 O711 O 0.66582 0.70490 0.75243
 O712 O 0.65360 0.74726 0.78415
 O713 O 0.70552 0.75052 0.66582
 O714 O 0.75077 0.78618 0.65666
 O715 O 0.75157 0.79490 0.83551
 O716 O 0.71368 0.75213 0.84428
 O717 O 0.83509 0.75115 0.79582
 O718 O 0.84554 0.71474 0.74932
 O719 O 0.79532 0.83452 0.75188
 O720 O 0.74874 0.84461 0.71530
 O721 O 0.75139 0.83414 0.79623
 O722 O 0.71380 0.84383 0.74955
 O723 O 0.83480 0.79545 0.75183
 O724 O 0.84462 0.74861 0.71425
 O725 O 0.79589 0.75144 0.83527
 O726 O 0.75108 0.71378 0.84528
 O727 O 0.75155 0.70469 0.66610
 O728 O 0.78736 0.75036 0.65704
 O729 O 0.66608 0.75007 0.70509
 O730 O 0.65859 0.78841 0.75070
 O731 O 0.70516 0.66557 0.75150
 O732 O 0.75081 0.65646 0.78733
 Zr733 Zr 0.74944 0.69170 0.74969
 O734 O 0.78009 0.71967 0.78003
 Zr735 Zr 0.69199 0.74895 0.74956
 O736 O 0.71996 0.77919 0.78047
 Zr737 Zr 0.74959 0.74888 0.69225
 O738 O 0.77987 0.77956 0.72030
 Zr739 Zr 0.75161 0.75087 0.80918
 O740 O 0.72055 0.72021 0.78138
 Zr741 Zr 0.80889 0.75112 0.75158
 O742 O 0.78115 0.72011 0.72084
 Zr743 Zr 0.75118 0.80820 0.75184
 O744 O 0.72058 0.78039 0.72068
 O745 O 0.71911 0.71862 0.71924
 O746 O 0.78206 0.78162 0.78236
 C747 C 0.75229 0.67488 0.67559
 C748 C 0.67527 0.67504 0.75284
 C749 C 0.67561 0.75097 0.67522
 C750 C 0.75147 0.82472 0.82610
 C751 C 0.82575 0.75132 0.82573
 C752 C 0.82525 0.82523 0.75187
 H753 H 0.79375 0.70488 0.79329
 H754 H 0.79325 0.79309 0.70548
 H755 H 0.70518 0.70454 0.70537
 H756 H 0.70525 0.79244 0.79430
 H757 H 0.69700 0.73613 0.83713
 H758 H 0.66080 0.75972 0.80356
 H759 H 0.84046 0.76665 0.69877
 H760 H 0.80450 0.73509 0.66463
 H761 H 0.76801 0.69750 0.83969
 H762 H 0.73560 0.66412 0.80451
 H763 H 0.76569 0.83966 0.69879
 H764 H 0.73592 0.80357 0.66450
 H765 H 0.80434 0.66397 0.73633
 H766 H 0.84047 0.69815 0.76608
 H767 H 0.66513 0.80367 0.73316
 H768 H 0.69823 0.83947 0.76750
 O769 O 0.24878 0.66558 0.29478
 O770 O 0.21333 0.65623 0.24934
 O771 O 0.33429 0.70507 0.24814
 O772 O 0.34645 0.74734 0.21633
 O773 O 0.29455 0.75080 0.33470
 O774 O 0.24920 0.78625 0.34401
 O775 O 0.24853 0.79505 0.16514
 O776 O 0.28641 0.75229 0.15625
 O777 O 0.16500 0.75131 0.20469
 O778 O 0.15451 0.71494 0.25109
 O779 O 0.20479 0.83468 0.24885
 O780 O 0.25134 0.84476 0.28547
 O781 O 0.24870 0.83430 0.20451
 O782 O 0.28630 0.84397 0.25124
 O783 O 0.16528 0.79564 0.24881
 O784 O 0.15546 0.74877 0.28628
 O785 O 0.20421 0.75160 0.16526
 O786 O 0.24900 0.71394 0.15516
 O787 O 0.24865 0.70477 0.33429
 O788 O 0.21267 0.75038 0.34346
 O789 O 0.33399 0.75037 0.29543
 O790 O 0.34151 0.78856 0.24987
 O791 O 0.29495 0.66574 0.24885
 O792 O 0.24928 0.65666 0.21290
 Zr793 Zr 0.25066 0.69185 0.25067
 O794 O 0.21999 0.71984 0.22042
 Zr795 Zr 0.30809 0.74911 0.25097
 O796 O 0.28013 0.77935 0.22013
 Zr797 Zr 0.25048 0.74900 0.30828
 O798 O 0.22021 0.77971 0.28031
 Zr799 Zr 0.24849 0.75103 0.19135
 O800 O 0.27955 0.72036 0.21907
 Zr801 Zr 0.19119 0.75129 0.24894
 O802 O 0.21892 0.72025 0.27960
 Zr803 Zr 0.24890 0.80835 0.24884
 O804 O 0.27949 0.78054 0.27993
 O805 O 0.28097 0.71878 0.28120
 O806 O 0.21803 0.78178 0.21825
 C807 C 0.24796 0.67496 0.32471
 C808 C 0.32484 0.67521 0.24766
 C809 C 0.32447 0.75132 0.32530
 C810 C 0.24864 0.82487 0.17462
 C811 C 0.17435 0.75147 0.17478
 C812 C 0.17485 0.82542 0.24883
 H813 H 0.20633 0.70504 0.20713
 H814 H 0.20683 0.79324 0.29516
 H815 H 0.29493 0.70474 0.29506
 H816 H 0.29484 0.79260 0.20633
 H817 H 0.30308 0.73627 0.16335
 H818 H 0.33928 0.75985 0.19698
 H819 H 0.15965 0.76679 0.30182
 H820 H 0.19560 0.73504 0.33584
 H821 H 0.23209 0.69765 0.16073
 H822 H 0.26459 0.66428 0.19580
 H823 H 0.23435 0.83985 0.30193
 H824 H 0.26394 0.80372 0.33619
 H825 H 0.19577 0.66411 0.26400
 H826 H 0.15964 0.69829 0.23436
 H827 H 0.33494 0.80388 0.26740
 H828 H 0.30183 0.83966 0.23323
 O829 O 0.75100 0.33443 0.29462
 O830 O 0.78653 0.34370 0.24916
 O831 O 0.66571 0.29453 0.24772
 O832 O 0.65372 0.25199 0.21607
 O833 O 0.70541 0.24939 0.33455
 O834 O 0.75083 0.21393 0.34394
 O835 O 0.75192 0.20438 0.16519
 O836 O 0.71380 0.24696 0.15618
 O837 O 0.83517 0.24861 0.20474
 O838 O 0.84540 0.28537 0.25112
 O839 O 0.79568 0.16536 0.24914
 O840 O 0.74897 0.15534 0.28570
 O841 O 0.75188 0.16533 0.20466
 O842 O 0.71426 0.15566 0.25121
 O843 O 0.83503 0.20458 0.24904
 O844 O 0.84467 0.25160 0.28628
 O845 O 0.79600 0.24802 0.16526
 O846 O 0.75109 0.28544 0.15499
 O847 O 0.75122 0.29538 0.33416
 O848 O 0.78724 0.24995 0.34350
 O849 O 0.66603 0.24955 0.29522
 O850 O 0.65871 0.21101 0.24983
 O851 O 0.70493 0.33397 0.24849
 O852 O 0.75061 0.34310 0.21274
 Zr853 Zr 0.74928 0.30800 0.25051
 O854 O 0.78005 0.27999 0.22032
 Zr855 Zr 0.69201 0.25056 0.25080
 O856 O 0.72014 0.22025 0.22009
 Zr857 Zr 0.74952 0.25108 0.30820
 O858 O 0.77998 0.22040 0.28035
 Zr859 Zr 0.75171 0.24854 0.19129
 O860 O 0.72052 0.27925 0.21891
 Zr861 Zr 0.80893 0.24879 0.24896
 O862 O 0.78105 0.27983 0.27954
 Zr863 Zr 0.75144 0.19150 0.24891
 O864 O 0.72067 0.21934 0.27986
 O865 O 0.71900 0.28111 0.28102
 O866 O 0.78225 0.21805 0.21831
 C867 C 0.75184 0.32516 0.32456
 C868 C 0.67508 0.32442 0.24718
 C869 C 0.67551 0.24881 0.32511
 C870 C 0.75198 0.17460 0.17474
 C871 C 0.82585 0.24827 0.17482
 C872 C 0.82558 0.17476 0.24917
 H873 H 0.79367 0.29477 0.20701
 H874 H 0.79339 0.20700 0.29526
 H875 H 0.70498 0.29519 0.29480
 H876 H 0.70551 0.20687 0.20630
 H877 H 0.69708 0.26297 0.16320
 H878 H 0.66094 0.23932 0.19681
 H879 H 0.84044 0.23375 0.30196
 H880 H 0.80432 0.26524 0.33587
 H881 H 0.76791 0.30184 0.16056
 H882 H 0.73547 0.33530 0.19554
 H883 H 0.76599 0.16033 0.30212
 H884 H 0.73599 0.19648 0.33619
 H885 H 0.80405 0.33596 0.26392
 H886 H 0.84034 0.30179 0.23417
 H887 H 0.66536 0.19579 0.26737
 H888 H 0.69861 0.15998 0.23331
 C889 C 0.25304 0.08327 0.08330
 C890 C 0.25304 0.10403 0.10420
 C891 C 0.25282 0.12842 0.12856
 C892 C 0.25236 0.14930 0.14931
 C893 C 0.75421 0.58433 0.58476
 C894 C 0.75414 0.60513 0.60558
 C895 C 0.75384 0.62942 0.62999
 C896 C 0.75333 0.65016 0.65084
 C897 C 0.74726 0.91673 0.08458
 C898 C 0.74725 0.89570 0.10516
 C899 C 0.74746 0.87107 0.12923
 C900 C 0.74791 0.85008 0.14983
 C901 C 0.24524 0.41561 0.58418
 C902 C 0.24525 0.39495 0.60509
 C903 C 0.24550 0.37072 0.62952
 C904 C 0.24599 0.34998 0.65033
 C905 C 0.74892 0.08453 0.91673
 C906 C 0.74851 0.10547 0.89607
 C907 C 0.74828 0.12996 0.87186
 C908 C 0.74842 0.15082 0.85114
 C909 C 0.24758 0.58439 0.41533
 C910 C 0.24719 0.60510 0.39447
 C911 C 0.24700 0.62939 0.37013
 C912 C 0.24719 0.65019 0.34937
 C913 C 0.25117 0.91673 0.91622
 C914 C 0.25151 0.89597 0.89532
 C915 C 0.25164 0.87158 0.87095
 C916 C 0.25143 0.85070 0.85020
 C917 C 0.75204 0.41581 0.41529
 C918 C 0.75245 0.39502 0.39447
 C919 C 0.75268 0.37074 0.37005
 C920 C 0.75253 0.34996 0.34923
 C921 C 0.08387 0.25034 0.08213
 C922 C 0.10465 0.25066 0.10305
 C923 C 0.12898 0.25085 0.12752
 C924 C 0.14977 0.25076 0.14840
 C925 C 0.58476 0.75073 0.58460
 C926 C 0.60568 0.75122 0.60531
 C927 C 0.63008 0.75155 0.62962
 C928 C 0.65089 0.75151 0.65043
 C929 C 0.08291 0.74832 0.91665
 C930 C 0.10374 0.74838 0.89579
 C931 C 0.12818 0.74857 0.87144
 C932 C 0.14907 0.74891 0.85066
 C933 C 0.58487 0.24937 0.41592
 C934 C 0.60566 0.24879 0.39508
 C935 C 0.62998 0.24837 0.37070
 C936 C 0.65077 0.24833 0.34987
 C937 C 0.91611 0.74768 0.08250
 C938 C 0.89532 0.74762 0.10340
 C939 C 0.87095 0.74771 0.12782
 C940 C 0.85015 0.74802 0.14868
 C941 C 0.41478 0.24795 0.58393
 C942 C 0.39394 0.24796 0.60472
 C943 C 0.36955 0.24812 0.62904
 C944 C 0.34872 0.24846 0.64982
 C945 C 0.91695 0.25156 0.91650
 C946 C 0.89608 0.25210 0.89568
 C947 C 0.87158 0.25244 0.87138
 C948 C 0.85063 0.25239 0.85066
 C949 C 0.41544 0.75274 0.41578
 C950 C 0.39449 0.75273 0.39510
 C951 C 0.37003 0.75254 0.37084
 C952 C 0.34919 0.75215 0.35007
 C953 C 0.08450 0.08321 0.25383
 C954 C 0.10511 0.10423 0.25367
 C955 C 0.12922 0.12881 0.25322
 C956 C 0.14987 0.14976 0.25253
 C957 C 0.58408 0.58481 0.75516
 C958 C 0.60504 0.60547 0.75503
 C959 C 0.62956 0.62966 0.75464
 C960 C 0.65047 0.65036 0.75403
 C961 C 0.91648 0.08495 0.74842
 C962 C 0.89564 0.10572 0.74808
 C963 C 0.87127 0.13004 0.74798
 C964 C 0.85045 0.15082 0.74824
 C965 C 0.41557 0.58452 0.24670
 C966 C 0.39483 0.60540 0.24639
 C967 C 0.37047 0.62975 0.24633
 C968 C 0.34963 0.65052 0.24667
 C969 C 0.08381 0.91671 0.74605
 C970 C 0.10457 0.89584 0.74605
 C971 C 0.12876 0.87133 0.74633
 C972 C 0.14942 0.85040 0.74692
 C973 C 0.58443 0.41519 0.24464
 C974 C 0.60513 0.39426 0.24479
 C975 C 0.62943 0.36985 0.24522
 C976 C 0.65025 0.34906 0.24589
 C977 C 0.91668 0.91538 0.25237
 C978 C 0.89595 0.89450 0.25267
 C979 C 0.87163 0.87013 0.25271
 C980 C 0.85081 0.84935 0.25236
 C981 C 0.41495 0.41573 0.75319
 C982 C 0.39399 0.39507 0.75349
 C983 C 0.36950 0.37084 0.75352
 C984 C 0.34864 0.35009 0.75317
 C985 C 0.08313 0.24903 0.91592
 C986 C 0.10378 0.24879 0.89491
 C987 C 0.12803 0.24854 0.87042
 C988 C 0.14884 0.24842 0.84958
 C989 C 0.58460 0.74885 0.41526
 C990 C 0.60550 0.74870 0.39448
 C991 C 0.62993 0.74856 0.37013
 C992 C 0.65079 0.74850 0.34932
 C993 C 0.91666 0.74982 0.91640
 C994 C 0.89589 0.75038 0.89551
 C995 C 0.87150 0.75091 0.87116
 C996 C 0.85062 0.75120 0.85041
 C997 C 0.41547 0.25156 0.41488
 C998 C 0.39478 0.25167 0.39389
 C999 C 0.37048 0.25174 0.36940
 C1000 C 0.34965 0.25171 0.34856
 C1001 C 0.08356 0.74990 0.08400
 C1002 C 0.10430 0.75048 0.10490
 C1003 C 0.12865 0.75103 0.12930
 C1004 C 0.14950 0.75134 0.15009
 C1005 C 0.58418 0.25003 0.58504
 C1006 C 0.60484 0.25067 0.60605
 C1007 C 0.62911 0.25128 0.63057
 C1008 C 0.64993 0.25162 0.65141
 C1009 C 0.91648 0.24890 0.08388
 C1010 C 0.89581 0.24866 0.10486
 C1011 C 0.87153 0.24841 0.12932
 C1012 C 0.85071 0.24828 0.15014
 C1013 C 0.41559 0.75054 0.58510
 C1014 C 0.39469 0.74992 0.60586
 C1015 C 0.37023 0.74933 0.63018
 C1016 C 0.34933 0.74900 0.65093
 C1017 C 0.24891 0.08455 0.91553
 C1018 C 0.24862 0.10534 0.89475
 C1019 C 0.24832 0.12972 0.87049
 C1020 C 0.24814 0.15056 0.84977
 C1021 C 0.75195 0.58457 0.41538
 C1022 C 0.75125 0.60538 0.39459
 C1023 C 0.75053 0.62967 0.37018
 C1024 C 0.75008 0.65041 0.34933
 C1025 C 0.75125 0.08313 0.08474
 C1026 C 0.75156 0.10414 0.10538
 C1027 C 0.75185 0.12873 0.12949
 C1028 C 0.75199 0.14972 0.15011
 C1029 C 0.24774 0.58469 0.58444
 C1030 C 0.24847 0.60544 0.60534
 C1031 C 0.24922 0.62981 0.62974
 C1032 C 0.24969 0.65064 0.65055
 C1033 C 0.74934 0.91572 0.91653
 C1034 C 0.75003 0.89481 0.89583
 C1035 C 0.75074 0.87034 0.87160
 C1036 C 0.75119 0.84947 0.85086
 C1037 C 0.24958 0.41533 0.41506
 C1038 C 0.24987 0.39463 0.39410
 C1039 C 0.25017 0.37035 0.36960
 C1040 C 0.25037 0.34957 0.34873
 C1041 C 0.25092 0.91546 0.08403
 C1042 C 0.25018 0.89472 0.10485
 C1043 C 0.24942 0.87039 0.12915
 C1044 C 0.24894 0.84960 0.14991
 C1045 C 0.74999 0.41560 0.58469
 C1046 C 0.74973 0.39479 0.60549
 C1047 C 0.74944 0.37051 0.62992
 C1048 C 0.74925 0.34979 0.65080
 C1049 C 0.08433 0.08328 0.74832
 C1050 C 0.10516 0.10408 0.74902
 C1051 C 0.12938 0.12856 0.74976
 C1052 C 0.15001 0.14953 0.75027
 C1053 C 0.58502 0.58399 0.24907
 C1054 C 0.60582 0.60482 0.24945
 C1055 C 0.63018 0.62919 0.24988
 C1056 C 0.65098 0.65000 0.25016
 C1057 C 0.08477 0.91681 0.25006
 C1058 C 0.10542 0.89583 0.24968
 C1059 C 0.12957 0.87126 0.24927
 C1060 C 0.15021 0.85030 0.24901
 C1061 C 0.58417 0.41575 0.75298
 C1062 C 0.60512 0.39508 0.75219
 C1063 C 0.62960 0.37085 0.75135
 C1064 C 0.65048 0.35011 0.75077
 C1065 C 0.91633 0.08411 0.25183
 C1066 C 0.89554 0.10492 0.25104
 C1067 C 0.87118 0.12925 0.25020
 C1068 C 0.85036 0.15003 0.24962
 C1069 C 0.41486 0.58473 0.75097
 C1070 C 0.39387 0.60537 0.75061
 C1071 C 0.36934 0.62957 0.75021
 C1072 C 0.34847 0.65031 0.74993
 C1073 C 0.91601 0.91590 0.75075
 C1074 C 0.89510 0.89519 0.75112
 C1075 C 0.87071 0.87088 0.75150
 C1076 C 0.84993 0.85006 0.75174
 C1077 C 0.41496 0.41574 0.24679
 C1078 C 0.39412 0.39496 0.24759
 C1079 C 0.36971 0.37066 0.24843
 C1080 C 0.34890 0.34987 0.24901
   
