data_POSCAR
  _audit_creation_date              2014-09-24
  _audit_creation_method            'ToBaCCo'
  _symmetry_space_group_name_H-M    'P1'
  _symmetry_Int_Tables_number       1
  _symmetry_cell_setting            triclinic
  loop_
  _symmetry_equiv_pos_as_xyz
 x,y,z
_cell_length_a 53.5321
_cell_length_b 54.0099
_cell_length_c 53.6441
_cell_angle_alpha 90.187000
_cell_angle_beta 90.106400
_cell_angle_gamma 90.177700
loop_
  _atom_site_label
  _atom_site_type_symbol
  _atom_site_fract_x
  _atom_site_fract_y
  _atom_site_fract_z
Si1 Si 0.25009 0.49785 0.99830
 Si2 Si 0.74788 0.50004 0.00182
 Si3 Si -0.00173 0.25101 0.49775
 Si4 Si 1.00117 0.74919 0.50185
 Si5 Si 0.49672 -0.00074 0.24983
 Si6 Si 0.50156 -0.00119 0.75022
 C7 C 0.28642 0.02047 0.47176
 H8 H 0.28869 0.03311 0.48730
 C9 C 0.30287 0.02153 0.45168
 H10 H 0.31779 0.03511 0.45199
 C11 C 0.26425 -0.01273 0.45293
 H12 H 0.24905 -0.02592 0.45345
 C13 C 0.28043 -0.01244 0.43248
 H14 H 0.27757 -0.02561 0.41748
 N15 N 0.26770 0.00343 0.47214
 C16 C 0.21509 0.03755 0.52355
 H17 H 0.21601 0.02500 0.53921
 C18 C 0.19945 0.05813 0.52464
 H19 H 0.18857 0.06128 0.54134
 C20 C 0.22760 0.04799 0.48257
 H21 H 0.23826 0.04372 0.46603
 C22 C 0.21214 0.06880 0.48284
 H23 H 0.21126 0.08044 0.46647
 Zn24 Zn 0.24779 0.00309 0.50120
 N25 N 0.22862 0.03271 0.50266
 C26 C 0.27204 0.02117 0.54500
 N27 N 0.26998 0.00165 0.52899
 C28 C 0.28479 -0.01860 0.53159
 C29 C 0.30197 -0.02005 0.55115
 C30 C 0.28896 0.02051 0.56483
 C31 C 0.20075 -0.02080 0.50437
 C32 C 0.18404 -0.04059 0.50561
 C33 C 0.21833 -0.06860 0.49853
 C34 C 0.23453 -0.04822 0.49789
 N35 N 0.22563 -0.02482 0.50111
 H36 H 0.26104 0.03763 0.54217
 H37 H 0.28371 -0.03350 0.51823
 H38 H 0.31357 -0.03636 0.55272
 H39 H 0.29028 0.03632 0.57722
 H40 H 0.19362 -0.00225 0.50608
 H41 H 0.16439 -0.03685 0.50848
 H42 H 0.22577 -0.08706 0.49605
 H43 H 0.25415 -0.05118 0.49445
 C44 C 0.19755 0.07392 0.50398
 C45 C 0.30018 0.00476 0.43178
 C46 C 0.19277 -0.06487 0.50282
 C47 C 0.30424 -0.00031 0.56812
 C48 C 0.71300 0.01733 0.52817
 H49 H 0.71272 0.03147 0.51392
 C50 C 0.69623 0.01851 0.54801
 H51 H 0.68316 0.03374 0.54888
 C52 C 0.73010 -0.01995 0.54376
 H53 H 0.74298 -0.03517 0.54178
 C54 C 0.71358 -0.01955 0.56391
 H55 H 0.71421 -0.03442 0.57738
 N56 N 0.72961 -0.00157 0.52649
 C57 C 0.78810 0.02781 0.47836
 H58 H 0.78833 0.01363 0.46407
 C59 C 0.80488 0.04760 0.47720
 H60 H 0.81790 0.04850 0.46181
 C61 C 0.77113 0.04330 0.51605
 H62 H 0.75830 0.04131 0.53142
 C63 C 0.78764 0.06339 0.51566
 H64 H 0.78706 0.07680 0.53069
 Zn65 Zn 0.75058 -0.00217 0.49811
 N66 N 0.77156 0.02610 0.49747
 C67 C 0.72960 0.01553 0.45267
 N68 N 0.72940 -0.00296 0.46983
 C69 C 0.71280 -0.02199 0.46820
 C70 C 0.69566 -0.02311 0.44860
 C71 C 0.71273 0.01518 0.43276
 C72 C 0.78827 -0.03171 0.51787
 C73 C 0.80516 -0.05129 0.51909
 C74 C 0.78806 -0.06724 0.48052
 C75 C 0.77139 -0.04737 0.48011
 N76 N 0.77170 -0.03019 0.49871
 H77 H 0.74250 0.03083 0.45461
 H78 H 0.71276 -0.03622 0.48236
 H79 H 0.68256 -0.03840 0.44780
 H80 H 0.71309 0.03018 0.41942
 H81 H 0.78841 -0.01754 0.53217
 H82 H 0.81819 -0.05204 0.53452
 H83 H 0.78757 -0.08065 0.46548
 H84 H 0.75851 -0.04552 0.46471
 C85 C 0.80487 0.06571 0.49606
 C86 C 0.69630 -0.00015 0.56621
 C87 C 0.80528 -0.06937 0.50019
 C88 C 0.69537 -0.00428 0.43059
 C89 C 0.47882 0.21108 1.03000
 H90 H 0.46489 0.21069 1.01535
 C91 C 0.47732 0.19431 1.04968
 H92 H 0.46203 0.18114 1.05004
 C93 C 0.51599 0.22838 1.04672
 H94 H 0.53131 0.24133 1.04523
 C95 C 0.51526 0.21188 1.06671
 H96 H 0.52998 0.21259 1.08057
 N97 N 0.49785 0.22775 1.02893
 C98 C 0.47011 0.28589 0.98002
 H99 H 0.48498 0.28622 0.96639
 C100 C 0.45038 0.30260 0.97817
 H101 H 0.45022 0.31569 0.96293
 C102 C 0.45283 0.26870 1.01676
 H103 H 0.45411 0.25579 1.03203
 C104 C 0.43275 0.28514 1.01566
 H105 H 0.41863 0.28446 1.03006
 Zn106 Zn 0.49929 0.24853 1.00062
 N107 N 0.47093 0.26929 0.99900
 C108 C 0.48270 0.22801 0.95447
 N109 N 0.50080 0.22759 0.97230
 C110 C 0.51986 0.21105 0.97124
 C111 C 0.52143 0.19422 0.95151
 C112 C 0.48351 0.21145 0.93443
 C113 C 0.52839 0.28628 1.02120
 C114 C 0.54806 0.30320 1.02300
 C115 C 0.56568 0.28564 0.98549
 C116 C 0.54566 0.26900 0.98445
 N117 N 0.52760 0.26954 1.00224
 H118 H 0.46736 0.24085 0.95595
 H119 H 0.53375 0.21084 0.98591
 H120 H 0.53674 0.18117 0.95115
 H121 H 0.46883 0.21200 0.92054
 H122 H 0.51355 0.28656 1.03486
 H123 H 0.54820 0.31641 1.03823
 H124 H 0.57977 0.28499 0.97106
 H125 H 0.54440 0.25597 0.96918
 C126 C 0.43138 0.30246 0.99621
 C127 C 0.49578 0.19447 1.06834
 C128 C 0.56702 0.30312 1.00492
 C129 C 0.50303 0.19418 0.93280
 C130 C 0.47870 0.78680 -0.03053
 H131 H 0.46447 0.78707 -0.01624
 C132 C 0.47757 0.80354 -0.05027
 H133 H 0.46226 0.81656 -0.05103
 C134 C 0.51628 0.76984 -0.04629
 H135 H 0.53162 0.75704 -0.04440
 C136 C 0.51593 0.78630 -0.06632
 H137 H 0.53095 0.78572 -0.07980
 N138 N 0.49777 0.77031 -0.02896
 C139 C 0.46947 0.71187 0.01932
 H140 H 0.48412 0.71174 0.03324
 C141 C 0.44987 0.69487 0.02076
 H142 H 0.44958 0.68176 0.03598
 C143 C 0.45265 0.72886 -0.01773
 H144 H 0.45407 0.74181 -0.03296
 C145 C 0.43269 0.71213 -0.01704
 H146 H 0.41880 0.71263 -0.03173
 Zn147 Zn 0.49873 0.74957 -0.00061
 N148 N 0.47046 0.72850 0.00038
 C149 C 0.48105 0.76992 0.04508
 N150 N 0.49956 0.77050 0.02775
 C151 C 0.51856 0.78719 0.02934
 C152 C 0.51963 0.80402 0.04912
 C153 C 0.48135 0.78647 0.06515
 C154 C 0.52824 0.71209 -0.02052
 C155 C 0.54795 0.69530 -0.02192
 C156 C 0.56495 0.71301 0.01592
 C157 C 0.54490 0.72951 0.01656
 N158 N 0.52712 0.72883 -0.00158
 H159 H 0.46577 0.75695 0.04317
 H160 H 0.53279 0.78753 0.01505
 H161 H 0.53490 0.81719 0.04990
 H162 H 0.46635 0.78579 0.07864
 H163 H 0.51362 0.71169 -0.03447
 H164 H 0.54834 0.68210 -0.03714
 H165 H 0.57880 0.71376 0.03063
 H166 H 0.54337 0.74254 0.03180
 C167 C 0.43116 0.69476 0.00235
 C168 C 0.49643 0.80353 -0.06846
 C169 C 0.56661 0.69553 -0.00347
 C170 C 0.50079 0.80390 0.06732
 C171 C 1.02996 0.48116 0.21198
 H172 H 1.01505 0.46759 0.21171
 C173 C 1.04959 0.47931 0.19501
 H174 H 1.04963 0.46414 0.18178
 C175 C 1.04746 0.51771 0.22932
 H176 H 1.04633 0.53290 0.24241
 C177 C 1.06745 0.51661 0.21264
 H178 H 1.08163 0.53093 0.21330
 N179 N 1.02932 0.50004 0.22879
 C180 C 0.98107 0.47236 0.28790
 H181 H 0.96723 0.48690 0.28842
 C182 C 0.97954 0.45263 0.30457
 H183 H 0.96433 0.45215 0.31783
 C184 C 1.01800 0.45585 0.27023
 H185 H 1.03322 0.45739 0.25714
 C186 C 1.01724 0.43582 0.28663
 H187 H 1.03183 0.42201 0.28572
 Zn188 Zn 1.00119 0.50157 0.25003
 N189 N 0.99996 0.47352 0.27104
 C190 C 0.95460 0.48505 0.23011
 N191 N 0.97261 0.50285 0.22925
 C192 C 0.97149 0.52156 0.21240
 C193 C 0.95151 0.52310 0.19574
 C194 C 0.93429 0.48585 0.21375
 C195 C 1.02197 0.53102 0.28762
 C196 C 1.02369 0.55075 0.30441
 C197 C 0.98579 0.56756 0.28686
 C198 C 0.98483 0.54751 0.27036
 N199 N 1.00285 0.52981 0.27095
 H200 H 0.95612 0.46997 0.24319
 H201 H 0.98630 0.53523 0.21183
 H202 H 0.95109 0.53814 0.18246
 H203 H 0.92024 0.47142 0.21468
 H204 H 1.03581 0.51647 0.28797
 H205 H 1.03905 0.55123 0.31757
 H206 H 0.97117 0.58134 0.28616
 H207 H 0.96943 0.54593 0.25742
 C208 C 0.99782 0.43403 0.30413
 C209 C 1.06866 0.49724 0.19512
 C210 C 1.00538 0.56933 0.30426
 C211 C 0.93258 0.50503 0.19620
 C212 C -0.03274 0.47884 0.78770
 H213 H -0.01811 0.46507 0.78794
 C214 C -0.05244 0.47729 0.80462
 H215 H -0.05283 0.46212 0.81777
 C216 C -0.04943 0.51564 0.77057
 H217 H -0.04793 0.53082 0.75760
 C218 C -0.06948 0.51483 0.78720
 H219 H -0.08334 0.52937 0.78661
 N220 N -0.03165 0.49772 0.77105
 C221 C 0.01653 0.46995 0.71193
 H222 H 0.03057 0.48440 0.71172
 C223 C 0.01781 0.45047 0.69484
 H224 H 0.03303 0.45007 0.68159
 C225 C -0.02067 0.45348 0.72917
 H226 H -0.03590 0.45499 0.74225
 C227 C -0.02017 0.43369 0.71235
 H228 H -0.03497 0.42000 0.71292
 Zn229 Zn -0.00335 0.49901 0.75002
 N230 N -0.00240 0.47104 0.72874
 C231 C 0.04290 0.48211 0.77006
 N232 N 0.02511 0.50001 0.77099
 C233 C 0.02638 0.51869 0.78799
 C234 C 0.04631 0.52012 0.80473
 C235 C 0.06316 0.48278 0.78651
 C236 C -0.02337 0.52863 0.71247
 C237 C -0.02458 0.54830 0.69571
 C238 C 0.01344 0.56477 0.71366
 C239 C 0.01390 0.54478 0.73011
 N240 N -0.00441 0.52728 0.72930
 H241 H 0.04126 0.46706 0.75685
 H242 H 0.01174 0.53245 0.78858
 H243 H 0.04685 0.53515 0.81812
 H244 H 0.07706 0.46829 0.78553
 H245 H -0.03745 0.51422 0.71195
 H246 H -0.03980 0.54890 0.68241
 H247 H 0.02831 0.57838 0.71451
 H248 H 0.02916 0.54307 0.74318
 C249 C -0.00077 0.43203 0.69481
 C250 C -0.07112 0.49550 0.80461
 C251 C -0.00593 0.56667 0.69606
 C252 C 0.06504 0.50195 0.80420
 C253 C 0.06648 0.20101 0.50105
 N254 N 0.06261 0.21565 0.48087
 N255 N 0.04287 0.23062 0.47987
 C256 C 0.02635 0.23141 0.49900
 N257 N 0.03023 0.21686 0.51916
 N258 N 0.04996 0.20195 0.52019
 C259 C 0.08764 0.18380 0.50200
 N260 N 0.09130 0.16950 0.52243
 N261 N 0.10985 0.15316 0.52311
 C262 C 0.12543 0.15047 0.50337
 N263 N 0.12189 0.16487 0.48296
 N264 N 0.10334 0.18127 0.48230
 C265 C 0.14507 0.13154 0.50384
 N266 N 0.15987 0.12759 0.48371
 N267 N 0.17684 0.10958 0.48387
 C268 C 0.17967 0.09484 0.50417
 N269 N 0.16496 0.09901 0.52435
 N270 N 0.14800 0.11699 0.52419
 C271 C 0.69569 0.56619 -0.00295
 N272 N 0.69535 0.54829 -0.02078
 N273 N 0.71096 0.52917 -0.01954
 C274 C 0.72747 0.52731 -0.00046
 N275 N 0.72796 0.54522 0.01732
 N276 N 0.71233 0.56434 0.01609
 C277 C 0.67774 0.58667 -0.00385
 N278 N 0.67725 0.60409 0.01446
 N279 N 0.66031 0.62212 0.01405
 C280 C 0.64327 0.62338 -0.00468
 N281 N 0.64387 0.60605 -0.02305
 N282 N 0.66078 0.58802 -0.02263
 C283 C 0.62397 0.64266 -0.00474
 N284 N 0.60657 0.64331 -0.02314
 N285 N 0.58855 0.66025 -0.02284
 C286 C 0.58718 0.67721 -0.00414
 N287 N 0.60473 0.67660 0.01420
 N288 N 0.62277 0.65965 0.01392
 C289 C 0.93447 -0.19868 0.50219
 N290 N 0.94997 -0.20027 0.52216
 N291 N 0.96916 -0.21588 0.52201
 C292 C 0.97355 -0.23048 0.50191
 N293 N 0.95802 -0.22906 0.48196
 N294 N 0.93878 -0.21343 0.48209
 C295 C 0.91397 -0.18066 0.50219
 N296 N 0.89852 -0.17842 0.48221
 N297 N 0.88050 -0.16142 0.48209
 C298 C 0.87732 -0.14606 0.50192
 N299 N 0.89270 -0.14840 0.52191
 N300 N 0.91067 -0.16539 0.52204
 C301 C 0.85810 -0.12670 0.50163
 N302 N 0.85610 -0.11065 0.52102
 N303 N 0.83921 -0.09261 0.52061
 C304 C 0.82361 -0.08990 0.50081
 N305 N 0.82555 -0.10609 0.48146
 N306 N 0.84249 -0.12414 0.48185
 C307 C 0.30185 0.43134 0.99397
 N308 N 0.30219 0.44895 0.97597
 N309 N 0.28665 0.46814 0.97703
 C310 C 0.27022 0.47036 0.99610
 N311 N 0.26973 0.45273 1.01403
 N312 N 0.28527 0.43353 1.01299
 C313 C 0.31981 0.41084 0.99337
 N314 N 0.32024 0.39371 1.01184
 N315 N 0.33723 0.37572 1.01176
 C316 C 0.35441 0.37423 0.99323
 N317 N 0.35387 0.39127 0.97470
 N318 N 0.33689 0.40925 0.97477
 C319 C 0.37379 0.35504 0.99360
 N320 N 0.39143 0.35422 0.97549
 N321 N 0.40953 0.33738 0.97621
 C322 C 0.41074 0.32068 0.99506
 N323 N 0.39295 0.32145 1.01309
 N324 N 0.37484 0.33830 1.01239
 C325 C 0.93271 0.19715 0.49567
 N326 N 0.93536 0.21314 0.51511
 N327 N 0.95427 0.22926 0.51570
 C328 C 0.97114 0.22994 0.49687
 N329 N 0.96844 0.21407 0.47742
 N330 N 0.94956 0.19798 0.47681
 C331 C 0.91250 0.17870 0.49526
 N332 N 0.91054 0.16246 0.47599
 N333 N 0.89278 0.14514 0.47583
 C334 C 0.87630 0.14341 0.49495
 N335 N 0.87816 0.15973 0.51419
 N336 N 0.89595 0.17706 0.51435
 C337 C 0.85727 0.12375 0.49501
 N338 N 0.84090 0.12158 0.51417
 N339 N 0.82412 0.10329 0.51442
 C340 C 0.82307 0.08646 0.49554
 N341 N 0.83943 0.08879 0.47635
 N342 N 0.85619 0.10705 0.47608
 C343 C 0.30244 0.56426 0.00252
 N344 N 0.30284 0.54655 0.02043
 N345 N 0.28720 0.52735 0.01934
 C346 C 0.27060 0.52520 0.00034
 N347 N 0.27007 0.54291 -0.01752
 N348 N 0.28572 0.56212 -0.01644
 C349 C 0.32039 0.58486 0.00327
 N350 N 0.32079 0.60212 -0.01508
 N351 N 0.33769 0.62029 -0.01478
 C352 C 0.35480 0.62186 0.00389
 N353 N 0.35430 0.60468 0.02230
 N354 N 0.33741 0.58652 0.02199
 C355 C 0.37403 0.64131 0.00384
 N356 N 0.39148 0.64228 0.02219
 N357 N 0.40943 0.65940 0.02182
 C358 C 0.41068 0.67623 0.00308
 N359 N 0.39309 0.67529 -0.01520
 N360 N 0.37512 0.65817 -0.01484
 C361 C 0.06772 -0.19847 0.50742
 N362 N 0.04886 -0.19742 0.52426
 N363 N 0.02979 -0.21325 0.52295
 C364 C 0.02883 -0.23061 0.50468
 N365 N 0.04772 -0.23184 0.48789
 N366 N 0.06689 -0.21608 0.48928
 C367 C 0.08783 -0.17993 0.50808
 N368 N 0.10810 -0.18195 0.49301
 N369 N 0.12567 -0.16439 0.49296
 C370 C 0.12348 -0.14411 0.50783
 N371 N 0.10327 -0.14218 0.52294
 N372 N 0.08582 -0.15979 0.52312
 C373 C 0.14197 -0.12400 0.50698
 N374 N 0.13681 -0.10188 0.51782
 N375 N 0.15302 -0.08321 0.51651
 C376 C 0.17513 -0.08593 0.50447
 N377 N 0.18042 -0.10817 0.49380
 N378 N 0.16408 -0.12683 0.49493
 C379 C 0.69601 0.43333 1.00641
 N380 N 0.71265 0.43537 0.98744
 N381 N 0.72820 0.45465 0.98631
 C382 C 0.72764 0.47252 1.00411
 N383 N 0.71114 0.47047 1.02313
 N384 N 0.69560 0.45120 1.02428
 C385 C 0.67809 0.41270 1.00713
 N386 N 0.66098 0.41121 1.02571
 N387 N 0.64407 0.39307 1.02589
 C388 C 0.64364 0.37575 1.00750
 N389 N 0.66085 0.37715 0.98899
 N390 N 0.67777 0.39530 0.98880
 C391 C 0.62435 0.35635 1.00725
 N392 N 0.62340 0.33937 0.98856
 N393 N 0.60537 0.32231 0.98795
 C394 C 0.58757 0.32157 1.00598
 N395 N 0.58868 0.33852 1.02473
 N396 N 0.60670 0.35557 1.02535
 C397 C 0.49479 0.06534 1.19741
 N398 N 0.51428 0.06244 1.21340
 N399 N 0.51484 0.04335 1.22910
 C400 C 0.49594 0.02656 1.22933
 N401 N 0.47646 0.02951 1.21347
 N402 N 0.47588 0.04856 1.19780
 C403 C 0.49441 0.08577 1.17941
 N404 N 0.47515 0.08792 1.16307
 N405 N 0.47502 0.10589 1.14613
 C406 C 0.49414 0.12240 1.14490
 N407 N 0.51336 0.12035 1.16133
 N408 N 0.51350 0.10235 1.17828
 C409 C 0.49427 0.14164 1.12561
 N410 N 0.51341 0.15809 1.12399
 N411 N 0.51377 0.17503 1.10598
 C412 C 0.49504 0.17616 1.08887
 N413 N 0.47586 0.15973 1.09065
 N414 N 0.47548 0.14282 1.10866
 C415 C -0.00361 0.69599 0.56724
 N416 N 0.01573 0.71224 0.56551
 N417 N 0.01703 0.72811 0.54658
 C418 C -0.00097 0.72826 0.52875
 N419 N -0.02033 0.71214 0.53049
 N420 N -0.02164 0.69628 0.54941
 C421 C -0.00469 0.67787 0.58756
 N422 N -0.02377 0.66130 0.58875
 N423 N -0.02442 0.64431 0.60667
 C424 C -0.00602 0.64324 0.62407
 N425 N 0.01301 0.65989 0.62297
 N426 N 0.01366 0.67690 0.60503
 C427 C -0.00637 0.62393 0.64328
 N428 N 0.01225 0.62240 0.66040
 N429 N 0.01226 0.60438 0.67732
 C430 C -0.00633 0.58719 0.67777
 N431 N -0.02500 0.58888 0.66068
 N432 N -0.02503 0.60688 0.64377
 C433 C 0.49829 0.93264 -0.19753
 N434 N 0.51796 0.93545 -0.21325
 N435 N 0.51892 0.95456 -0.22891
 C436 C 0.50024 0.97147 -0.22936
 N437 N 0.48056 0.96861 -0.21376
 N438 N 0.47959 0.94954 -0.19814
 C439 C 0.49747 0.91220 -0.17956
 N440 N 0.47798 0.91010 -0.16354
 N441 N 0.47746 0.89212 -0.14662
 C442 C 0.49641 0.87556 -0.14508
 N443 N 0.51586 0.87756 -0.16118
 N444 N 0.51638 0.89557 -0.17812
 C445 C 0.49611 0.85632 -0.12579
 N446 N 0.51514 0.83989 -0.12378
 N447 N 0.51512 0.82296 -0.10575
 C448 C 0.49611 0.82182 -0.08902
 N449 N 0.47705 0.83823 -0.09118
 N450 N 0.47705 0.85513 -0.10920
 C451 C 0.99575 0.30316 0.43135
 N452 N 0.97669 0.30224 0.44797
 N453 N 0.97736 0.28655 0.46704
 C454 C 0.99709 0.27120 0.47016
 N455 N 1.01611 0.27194 0.45351
 N456 N 1.01545 0.28765 0.43440
 C457 C 0.99540 0.32135 0.41106
 N458 N 1.01466 0.32298 0.39470
 N459 N 1.01466 0.34019 0.37694
 C460 C 0.99542 0.35640 0.37494
 N461 N 0.97612 0.35467 0.39122
 N462 N 0.97612 0.33747 0.40894
 C463 C 0.99575 0.37601 0.35603
 N464 N 0.97705 0.39287 0.35503
 N465 N 0.97763 0.41114 0.33843
 C466 C 0.99692 0.41329 0.32216
 N467 N 1.01557 0.39629 0.32312
 N468 N 1.01501 0.37801 0.33974
 C469 C 0.49933 0.93310 0.19715
 N470 N 0.47963 0.93602 0.21281
 N471 N 0.47884 0.95513 0.22860
 C472 C 0.49772 0.97192 0.22924
 N473 N 0.51742 0.96896 0.21370
 N474 N 0.51823 0.94989 0.19794
 C475 C 0.50001 0.91266 0.17904
 N476 N 0.51954 0.91051 0.16309
 N477 N 0.51998 0.89254 0.14605
 C478 C 0.50089 0.87602 0.14432
 N479 N 0.48139 0.87807 0.16035
 N480 N 0.48095 0.89608 0.17741
 C481 C 0.50113 0.85678 0.12491
 N482 N 0.48204 0.84031 0.12275
 N483 N 0.48204 0.82336 0.10464
 C484 C 0.50110 0.82223 0.08796
 N485 N 0.52022 0.83868 0.09027
 N486 N 0.52024 0.85560 0.10838
 C487 C -0.00019 0.30364 0.56418
 N488 N 0.01865 0.30337 0.54728
 N489 N 0.01816 0.28767 0.52811
 C490 C -0.00116 0.27165 0.52515
 N491 N -0.01999 0.27177 0.54204
 N492 N -0.01951 0.28751 0.56125
 C493 C 0.00016 0.32161 0.58477
 N494 N -0.01886 0.32267 0.60146
 N495 N -0.01871 0.33956 0.61964
 C496 C 0.00044 0.35599 0.62177
 N497 N 0.01948 0.35483 0.60515
 N498 N 0.01935 0.33797 0.58699
 C499 C 0.00037 0.37517 0.64123
 N500 N 0.01918 0.39203 0.64252
 N501 N 0.01889 0.40991 0.65966
 C502 C -0.00020 0.41166 0.67622
 N503 N -0.01895 0.39467 0.67498
 N504 N -0.01869 0.37678 0.65781
 C505 C 0.50416 0.06496 0.80298
 N506 N 0.52290 0.04810 0.80257
 N507 N 0.52217 0.02903 0.78679
 C508 C 0.50270 0.02615 0.77084
 N509 N 0.48399 0.04303 0.77111
 N510 N 0.48471 0.06213 0.78691
 C511 C 0.50463 0.08539 0.82112
 N512 N 0.48567 0.10201 0.82220
 N513 N 0.48582 0.12001 0.83927
 C514 C 0.50492 0.12203 0.85586
 N515 N 0.52392 0.10549 0.85467
 N516 N 0.52378 0.08751 0.83762
 C517 C 0.50476 0.14128 0.87526
 N518 N 0.52342 0.14250 0.89238
 N519 N 0.52297 0.15943 0.91047
 C520 C 0.50385 0.17584 0.91219
 N521 N 0.48526 0.17466 0.89492
 N522 N 0.48569 0.15771 0.87682
 C523 C 1.00604 0.69840 0.43415
 N524 N 0.98676 0.71454 0.43642
 N525 N 0.98551 0.72986 0.45591
 C526 C 1.00349 0.72957 0.47375
 N527 N 1.02281 0.71357 0.47143
 N528 N 1.02408 0.69827 0.45196
 C529 C 1.00689 0.68060 0.41341
 N530 N 1.02580 0.66399 0.41180
 N531 N 1.02611 0.64710 0.39366
 C532 C 1.00751 0.64619 0.37645
 N533 N 0.98867 0.66290 0.37794
 N534 N 0.98836 0.67980 0.39610
 C535 C 1.00738 0.62686 0.35712
 N536 N 0.98851 0.62540 0.34024
 N537 N 0.98801 0.60731 0.32329
 C538 C 1.00633 0.58996 0.32256
 N539 N 1.02526 0.59157 0.33941
 N540 N 1.02578 0.60965 0.35634
 C541 C 1.19822 0.49416 0.06527
 N542 N 1.19769 0.47623 0.04747
 N543 N 1.21325 0.47712 0.02816
 C544 C 1.22992 0.49593 0.02598
 N545 N 1.23061 0.51380 0.04379
 N546 N 1.21503 0.51293 0.06312
 C547 C 1.18023 0.49374 0.08589
 N548 N 1.17995 0.51214 0.10320
 N549 N 1.16294 0.51220 0.12130
 C550 C 1.14558 0.49387 0.12275
 N551 N 1.14597 0.47541 0.10553
 N552 N 1.16297 0.47534 0.08744
 C553 C 1.12620 0.49437 0.14207
 N554 N 1.10842 0.47644 0.14285
 N555 N 1.09032 0.47725 0.15983
 C556 C 1.08926 0.49602 0.17672
 N557 N 1.10718 0.51390 0.17598
 N558 N 1.12528 0.51310 0.15898
 C559 C 0.56798 0.00064 0.69741
 N560 N 0.56482 -0.01883 0.71309
 N561 N 0.54568 -0.01934 0.72896
 C562 C 0.52909 -0.00042 0.72968
 N563 N 0.53231 0.01905 0.71413
 N564 N 0.55141 0.01959 0.69829
 C565 C 0.58836 0.00097 0.67912
 N566 N 0.59071 0.02025 0.66312
 N567 N 0.60858 0.02034 0.64589
 C568 C 0.62478 0.00115 0.64400
 N569 N 0.62254 -0.01810 0.66008
 N570 N 0.60464 -0.01819 0.67734
 C571 C 0.64387 0.00103 0.62436
 N572 N 0.66005 -0.01814 0.62203
 N573 N 0.67685 -0.01843 0.60373
 C574 C 0.67811 0.00041 0.58702
 N575 N 0.66195 0.01960 0.58950
 N576 N 0.64518 0.01991 0.60779
 C577 C -0.20023 0.49529 0.93493
 N578 N -0.21684 0.51415 0.93694
 N579 N -0.23240 0.51536 0.95627
 C580 C -0.23188 0.49775 0.97422
 N581 N -0.21540 0.47885 0.97219
 N582 N -0.19986 0.47763 0.95287
 C583 C -0.18231 0.49445 0.91426
 N584 N -0.16535 0.47588 0.91277
 N585 N -0.14843 0.47554 0.89460
 C586 C -0.14784 0.49376 0.87725
 N587 N -0.16490 0.51227 0.87864
 N588 N -0.18183 0.51261 0.89682
 C589 C -0.12853 0.49382 0.85783
 N590 N -0.12735 0.51236 0.84085
 N591 N -0.10929 0.51277 0.82379
 C592 C -0.09170 0.49468 0.82305
 N593 N -0.09305 0.47608 0.84000
 N594 N -0.11109 0.47566 0.85705
 C595 C 0.42974 0.00227 0.30190
 N596 N 0.43245 -0.01713 0.28595
 N597 N 0.45181 -0.01805 0.27036
 C598 C 0.46908 0.00040 0.27022
 N599 N 0.46632 0.01979 0.28605
 N600 N 0.44700 0.02072 0.30160
 C601 C 0.40905 0.00312 0.31983
 N602 N 0.40742 0.02217 0.33630
 N603 N 0.38927 0.02276 0.35321
 C604 C 0.37203 0.00433 0.35430
 N605 N 0.37353 -0.01469 0.33774
 N606 N 0.39173 -0.01529 0.32081
 C607 C 0.35270 0.00474 0.37371
 N608 N 0.33511 -0.01338 0.37509
 N609 N 0.31820 -0.01324 0.39330
 C610 C 0.31826 0.00498 0.41086
 N611 N 0.33580 0.02312 0.40930
 N612 N 0.35266 0.02302 0.39110
 C613 C 0.19703 0.50236 0.93215
 N614 N 0.19719 0.52024 0.95000
 N615 N 0.21311 0.51909 0.96906
 C616 C 0.22944 0.50006 0.97092
 N617 N 0.22944 0.48224 0.95306
 N618 N 0.21350 0.48337 0.93398
 C619 C 0.17864 0.50312 0.91181
 N620 N 0.17765 0.48481 0.89443
 N621 N 0.16029 0.48509 0.87659
 C622 C 0.14330 0.50368 0.87550
 N623 N 0.14440 0.52204 0.89280
 N624 N 0.16175 0.52177 0.91063
 C625 C 0.12354 0.50358 0.85647
 N626 N 0.10613 0.52177 0.85607
 N627 N 0.08772 0.52135 0.83935
 C628 C 0.08596 0.50272 0.82234
 N629 N 0.10352 0.48459 0.82270
 N630 N 0.12194 0.48500 0.83944
 C631 C 0.56356 -0.00317 0.30236
 N632 N 0.54652 -0.02183 0.30180
 N633 N 0.52723 -0.02108 0.28613
 C634 C 0.52427 -0.00168 0.27046
 N635 N 0.54131 0.01696 0.27088
 N636 N 0.56064 0.01623 0.28657
 C637 C 0.58432 -0.00379 0.32029
 N638 N 0.60111 0.01507 0.32166
 N639 N 0.61945 0.01469 0.33850
 C640 C 0.62165 -0.00456 0.35457
 N641 N 0.60493 -0.02345 0.35311
 N642 N 0.58662 -0.02307 0.33629
 C643 C 0.64131 -0.00475 0.37372
 N644 N 0.64276 -0.02369 0.39020
 N645 N 0.66006 -0.02363 0.40807
 C646 C 0.67663 -0.00463 0.41018
 N647 N 0.67523 0.01426 0.39355
 N648 N 0.65790 0.01422 0.37568
 C649 C 0.80070 0.50521 0.06817
 N650 N 0.80075 0.52290 0.05025
 N651 N 0.78489 0.52158 0.03113
 C652 C 0.76842 0.50256 0.02928
 N653 N 0.76820 0.48492 0.04722
 N654 N 0.78407 0.48623 0.06636
 C655 C 0.81903 0.50611 0.08856
 N656 N 0.81980 0.48794 0.10599
 N657 N 0.83712 0.48830 0.12386
 C658 C 0.85431 0.50682 0.12494
 N659 N 0.85343 0.52505 0.10761
 N660 N 0.83611 0.52470 0.08975
 C661 C 0.87404 0.50676 0.14399
 N662 N 0.89167 0.52486 0.14441
 N663 N 0.91009 0.52442 0.16113
 C664 C 0.91163 0.50587 0.17810
 N665 N 0.89386 0.48784 0.17773
 N666 N 0.87543 0.48826 0.16100
 C667 C 0.43482 -0.00263 0.69753
 N668 N 0.43829 0.01685 0.71326
 N669 N 0.45754 0.01724 0.72906
 C670 C 0.47396 -0.00183 0.72964
 N671 N 0.47046 -0.02131 0.71403
 N672 N 0.45122 -0.02173 0.69827
 C673 C 0.41421 -0.00280 0.67942
 N674 N 0.41116 -0.02225 0.66361
 N675 N 0.39302 -0.02217 0.64658
 C676 C 0.37726 -0.00262 0.64472
 N677 N 0.38023 0.01680 0.66061
 N678 N 0.39837 0.01672 0.67766
 C679 C 0.35783 -0.00226 0.62537
 N680 N 0.34253 0.01756 0.62283
 N681 N 0.32539 0.01810 0.60480
 C682 C 0.32287 -0.00115 0.58859
 N683 N 0.33814 -0.02101 0.59127
 N684 N 0.35528 -0.02156 0.60929
   
