data_POSCAR
  _audit_creation_date              2014-09-24
  _audit_creation_method            'ToBaCCo'
  _symmetry_space_group_name_H-M    'P1'
  _symmetry_Int_Tables_number       1
  _symmetry_cell_setting            triclinic
  loop_
  _symmetry_equiv_pos_as_xyz
 x,y,z
_cell_length_a 25.5392
_cell_length_b 26.4803
_cell_length_c 25.6398
_cell_angle_alpha 89.589700
_cell_angle_beta 89.514200
_cell_angle_gamma 89.529700
loop_
  _atom_site_label
  _atom_site_type_symbol
  _atom_site_fract_x
  _atom_site_fract_y
  _atom_site_fract_z
C1 C -0.07274 0.50621 0.24609
 C2 C -0.02234 0.52024 0.22959
 C3 C -0.01253 0.57027 0.21482
 C4 C -0.05355 0.60555 0.21266
 C5 C -0.10369 0.59124 0.23004
 C6 C -0.11407 0.54194 0.24905
 C7 C 0.02052 0.48253 0.22872
 C8 C 0.01404 0.43577 0.20432
 C9 C 0.05368 0.39844 0.20615
 C10 C 0.10038 0.40958 0.23257
 C11 C 0.10784 0.45696 0.25533
 C12 C 0.06772 0.49315 0.25330
 H13 H -0.07881 0.46706 0.25636
 H14 H 0.02628 0.58055 0.20120
 H15 H -0.02180 0.42934 0.18328
 H16 H 0.07294 0.52957 0.27150
 H17 H -0.13287 0.62086 0.23234
 H18 H 0.13070 0.38117 0.23711
 C19 C -0.07273 0.49101 0.74793
 C20 C -0.02445 0.48163 0.77156
 C21 C -0.01324 0.43325 0.79150
 C22 C -0.04865 0.39307 0.78604
 C23 C -0.09531 0.40273 0.75832
 C24 C -0.10843 0.45164 0.74000
 C25 C 0.01628 0.52117 0.77201
 C26 C 0.00529 0.57039 0.78943
 C27 C 0.04577 0.60601 0.79352
 C28 C 0.09674 0.59252 0.77633
 C29 C 0.10674 0.54510 0.75410
 C30 C 0.06673 0.50925 0.75382
 H31 H -0.08149 0.52898 0.73469
 H32 H 0.02455 0.42685 0.80929
 H33 H -0.03378 0.57956 0.80345
 H34 H 0.07457 0.47206 0.73802
 H35 H -0.12249 0.37243 0.75238
 H36 H 0.12777 0.62019 0.77688
 C37 C 0.29052 -0.06428 0.50570
 C38 C 0.26488 -0.01850 0.51583
 C39 C 0.23731 -0.01183 0.56273
 C40 C 0.23668 -0.04978 0.60124
 C41 C 0.26394 -0.09518 0.59096
 C42 C 0.28952 -0.10384 0.54263
 C43 C 0.26530 0.02259 0.47689
 C44 C 0.24625 0.01472 0.42659
 C45 C 0.23927 0.05565 0.39195
 C46 C 0.25569 0.10402 0.40746
 C47 C 0.27875 0.11144 0.45656
 C48 C 0.28164 0.07065 0.49151
 H49 H 0.30912 -0.06926 0.46797
 H50 H 0.21529 0.02284 0.56805
 H51 H 0.23249 -0.02253 0.41643
 H52 H 0.29634 0.07613 0.53057
 H53 H 0.26699 -0.12337 0.62147
 H54 H 0.25302 0.13525 0.38008
 C55 C 0.71177 -0.06827 0.49094
 C56 C 0.73498 -0.02109 0.48220
 C57 C 0.76010 -0.01097 0.43458
 C58 C 0.76467 -0.04854 0.39668
 C59 C 0.74268 -0.09627 0.40622
 C60 C 0.71471 -0.10664 0.45299
 C61 C 0.73431 0.01740 0.52355
 C62 C 0.76066 0.00843 0.57060
 C63 C 0.76045 0.04483 0.61061
 C64 C 0.73247 0.09044 0.60192
 C65 C 0.70725 0.10039 0.55420
 C66 C 0.70840 0.06346 0.51531
 H67 H 0.69323 -0.07527 0.52842
 H68 H 0.77804 0.02550 0.42791
 H69 H 0.78011 -0.02769 0.57611
 H70 H 0.68974 0.07066 0.47815
 H71 H 0.74546 -0.12415 0.37562
 H72 H 0.73217 0.11962 0.63124
 C73 C 0.49286 0.26521 1.07507
 C74 C 0.48145 0.25100 1.02392
 C75 C 0.43333 0.22899 1.01262
 C76 C 0.39872 0.21544 1.05303
 C77 C 0.41242 0.22682 1.10488
 C78 C 0.45791 0.25455 1.11622
 C79 C 0.52174 0.25535 0.98290
 C80 C 0.57009 0.23109 0.98962
 C81 C 0.60958 0.23350 0.95096
 C82 C 0.59978 0.26311 0.90587
 C83 C 0.55047 0.28610 0.89839
 C84 C 0.51155 0.28167 0.93676
 H85 H 0.52875 0.28542 1.08193
 H86 H 0.42526 0.21821 0.97279
 H87 H 0.57689 0.21108 1.02597
 H88 H 0.47372 0.29972 0.93122
 H89 H 0.38617 0.21597 1.13622
 H90 H 0.62878 0.26584 0.87494
 C91 C 0.51498 0.71777 1.06059
 C92 C 0.52805 0.74298 1.01443
 C93 C 0.57746 0.76468 1.00853
 C94 C 0.61533 0.76130 1.04820
 C95 C 0.60192 0.73382 1.09394
 C96 C 0.55193 0.71255 1.10012
 C97 C 0.48945 0.75013 0.97285
 C98 C 0.44177 0.77438 0.98367
 C99 C 0.40909 0.79022 0.94287
 C100 C 0.42463 0.77967 0.89117
 C101 C 0.46915 0.74961 0.88025
 C102 C 0.50226 0.73641 0.92160
 H103 H 0.47647 0.70133 1.06531
 H104 H 0.58404 0.78737 0.97390
 H105 H 0.43240 0.78448 1.02359
 H106 H 0.53754 0.71444 0.91473
 H107 H 0.63005 0.72781 1.12471
 H108 H 0.39991 0.79197 0.85943
 B109 B 1.00662 1.05386 0.03248
 B110 B 1.03813 1.00014 0.05481
 B111 B 0.97126 1.00414 0.05790
 B112 B 0.94938 1.03598 0.00299
 B113 B 1.00352 1.05152 -0.03473
 B114 B 1.05848 1.02928 -0.00302
 B115 B 0.99768 0.94623 -0.02937
 B116 B 0.96576 1.00000 -0.05115
 B117 B 1.03297 0.99615 -0.05468
 B118 B 1.05560 0.96478 0.00014
 B119 B 1.00096 0.94823 0.03747
 B120 B 0.94590 0.97113 0.00617
 B121 B 0.55056 0.49668 0.46445
 B122 B 0.49515 0.52770 0.44184
 B123 B 0.49511 0.46269 0.44828
 B124 B 0.52908 0.44633 0.50305
 B125 B 0.55121 0.50115 0.53222
 B126 B 0.53051 0.55244 0.49442
 B127 B 0.44132 0.50328 0.53445
 B128 B 0.49536 0.47236 0.55683
 B129 B 0.49710 0.53718 0.55038
 B130 B 0.46253 0.55328 0.49502
 B131 B 0.44076 0.49912 0.46613
 B132 B 0.46102 0.44823 0.50480
 C133 C 1.03285 1.25316 0.13493
 C134 C 1.08356 1.27160 0.14214
 C135 C 1.09000 1.31951 0.16384
 C136 C 1.04630 1.34808 0.18117
 C137 C 0.99563 1.32794 0.17470
 C138 C 0.98871 1.28114 0.15056
 C139 C 1.02588 1.20338 0.11083
 C140 C 0.97544 1.18539 0.10201
 C141 C 0.96929 1.13845 0.07790
 C142 C 1.01268 1.10819 0.06301
 C143 C 1.06283 1.12650 0.07662
 C144 C 1.06982 1.17422 0.09811
 C145 C 0.93853 1.26160 0.14190
 C146 C 0.93199 1.21475 0.11753
 C147 C 1.12690 1.24156 0.12787
 C148 C 1.12014 1.19326 0.10702
 H149 H 0.90403 1.28285 0.15366
 H150 H 0.89263 1.20126 0.11111
 H151 H 1.16632 1.25519 0.13351
 H152 H 1.15454 1.17098 0.09707
 H153 H 1.12923 1.33428 0.16679
 H154 H 0.96138 1.34806 0.18885
 H155 H 0.93031 1.12648 0.07186
 H156 H 1.09705 1.10372 0.07233
 C157 C 0.97023 0.74844 0.14416
 C158 C 1.00590 0.73097 0.18158
 C159 C 0.99899 0.68266 0.20355
 C160 C 0.95442 0.65390 0.19115
 C161 C 0.91802 0.67342 0.15507
 C162 C 0.92692 0.71950 0.12991
 C163 C 0.97886 0.79759 0.11853
 C164 C 0.94682 0.81219 0.07741
 C165 C 0.95730 0.85710 0.05107
 C166 C 0.99459 0.89266 0.06857
 C167 C 1.02633 0.87594 0.11052
 C168 C 1.01989 0.82832 0.13438
 C169 C 0.89418 0.73650 0.08965
 C170 C 0.90482 0.78152 0.06285
 C171 C 1.04754 0.76229 0.19601
 C172 C 1.05382 0.81057 0.17352
 H173 H 0.86091 0.71427 0.07793
 H174 H 0.87942 0.79287 0.03113
 H175 H 1.07517 0.74960 0.22523
 H176 H 1.08604 0.83375 0.18613
 H177 H 1.02688 0.66844 0.23185
 H178 H 0.88451 0.65113 0.14393
 H179 H 0.93577 0.86274 0.01587
 H180 H 1.05641 0.89909 0.12528
 C181 C 0.98111 1.24926 -0.14519
 C182 C 1.00190 1.29267 -0.12258
 C183 C 0.99275 1.33991 -0.14606
 C184 C 0.96223 1.34458 -0.19183
 C185 C 0.94208 1.29983 -0.21392
 C186 C 0.95163 1.25234 -0.19095
 C187 C 0.99015 1.19959 -0.12020
 C188 C 0.97033 1.15604 -0.14301
 C189 C 0.97862 1.10907 -0.11858
 C190 C 1.00407 1.10449 -0.06973
 C191 C 1.02562 1.14954 -0.04972
 C192 C 1.01872 1.19656 -0.07410
 C193 C 0.93237 1.20771 -0.21293
 C194 C 0.94185 1.16037 -0.18956
 C195 C 1.03093 1.28807 -0.07641
 C196 C 1.03918 1.24082 -0.05256
 H197 H 0.90970 1.20938 -0.24843
 H198 H 0.92606 1.12697 -0.20766
 H199 H 1.04715 1.32128 -0.05839
 H200 H 1.06138 1.23899 -0.01674
 H201 H 1.00736 1.37309 -0.12672
 H202 H 0.92056 1.30120 -0.25008
 H203 H 0.96636 1.07687 -0.13948
 H204 H 1.04907 1.14891 -0.01569
 C205 C 1.01869 0.74644 -0.13389
 C206 C 0.98361 0.73060 -0.17203
 C207 C 0.99140 0.68293 -0.19525
 C208 C 1.03639 0.65343 -0.18333
 C209 C 1.07192 0.67138 -0.14619
 C210 C 1.06204 0.71649 -0.11983
 C211 C 1.00958 0.79500 -0.10738
 C212 C 1.04126 0.80767 -0.06576
 C213 C 1.03134 0.85236 -0.03951
 C214 C 0.99569 0.88958 -0.05717
 C215 C 0.96242 0.87468 -0.09839
 C216 C 0.96859 0.82709 -0.12284
 C217 C 1.09398 0.73153 -0.07862
 C218 C 1.08286 0.77575 -0.05104
 C219 C 0.94181 0.76297 -0.18595
 C220 C 0.93499 0.81072 -0.16246
 H221 H 1.12711 0.70842 -0.06688
 H222 H 1.10779 0.78566 -0.01877
 H223 H 0.91451 0.75159 -0.21567
 H224 H 0.90281 0.83468 -0.17497
 H225 H 0.96400 0.66995 -0.22419
 H226 H 1.10562 0.64857 -0.13527
 H227 H 1.05124 0.85703 -0.00424
 H228 H 0.93163 0.89863 -0.11194
 C229 C 1.15677 1.03092 0.25278
 C230 C 1.14538 1.07386 0.28269
 C231 C 1.17537 1.08360 0.32702
 C232 C 1.21371 1.04855 0.34401
 C233 C 1.22360 1.00493 0.31386
 C234 C 1.19639 0.99684 0.26738
 C235 C 1.12609 1.02112 0.20555
 C236 C 1.13915 0.98024 0.17385
 C237 C 1.11167 0.97327 0.12733
 C238 C 1.06956 1.00502 0.11192
 C239 C 1.05384 1.04170 0.14941
 C240 C 1.08365 1.05232 0.19346
 C241 C 1.20772 0.95527 0.23525
 C242 C 1.18013 0.94756 0.18881
 C243 C 1.10318 1.10531 0.26848
 C244 C 1.07208 1.09407 0.22525
 H245 H 1.23848 0.92879 0.24579
 H246 H 1.19064 0.91555 0.16468
 H247 H 1.09354 1.13832 0.29147
 H248 H 1.03949 1.11892 0.21592
 H249 H 1.16611 1.11654 0.35034
 H250 H 1.25366 0.97813 0.32564
 H251 H 1.12502 0.94364 0.10298
 H252 H 1.01830 1.06314 0.14526
 C253 C 1.14891 0.97072 -0.25577
 C254 C 1.16689 1.01323 -0.28315
 C255 C 1.19683 1.00644 -0.32877
 C256 C 1.20677 0.95750 -0.34869
 C257 C 1.18709 0.91543 -0.32074
 C258 C 1.15955 0.92177 -0.27374
 C259 C 1.11884 0.97754 -0.20695
 C260 C 1.10397 0.93519 -0.17798
 C261 C 1.07821 0.94195 -0.13032
 C262 C 1.06329 0.99036 -0.11157
 C263 C 1.07816 1.03219 -0.14282
 C264 C 1.10683 1.02620 -0.18943
 C265 C 1.14267 0.88004 -0.24414
 C266 C 1.11609 0.88664 -0.19658
 C267 C 1.15458 1.06166 -0.26421
 C268 C 1.12454 1.06804 -0.21849
 H269 H 1.15081 0.84200 -0.25740
 H270 H 1.10454 0.85349 -0.17440
 H271 H 1.16802 1.09491 -0.28506
 H272 H 1.11578 1.10602 -0.20538
 H273 H 1.21250 1.03948 -0.34822
 H274 H 1.19250 0.87753 -0.33545
 H275 H 1.07335 0.90892 -0.10708
 H276 H 1.06930 1.06980 -0.13147
 C277 C 0.85445 0.98139 0.25822
 C278 C 0.80983 1.01101 0.26870
 C279 C 0.78032 1.00123 0.31422
 C280 C 0.79475 0.96141 0.34812
 C281 C 0.83934 0.93190 0.33668
 C282 C 0.86978 0.94218 0.29217
 C283 C 0.88587 0.99161 0.21079
 C284 C 0.93111 0.96324 0.20134
 C285 C 0.96001 0.97241 0.15588
 C286 C 0.94306 1.00635 0.11650
 C287 C 0.89967 1.03752 0.12975
 C288 C 0.87053 1.02985 0.17606
 C289 C 0.91558 0.91441 0.28118
 C290 C 0.94606 0.92513 0.23677
 C291 C 0.79590 1.04972 0.23344
 C292 C 0.82561 1.05886 0.18785
 H293 H 0.92805 0.88428 0.30717
 H294 H 0.98107 0.90275 0.22958
 H295 H 0.76156 1.07292 0.24095
 H296 H 0.81307 1.08862 0.16144
 H297 H 0.74603 1.02407 0.32313
 H298 H 0.85085 0.90175 0.36314
 H299 H 0.99585 0.95250 0.15180
 H300 H 0.88721 1.06745 0.10494
 C301 C 0.84429 1.02167 -0.24871
 C302 C 0.86387 1.00099 -0.29515
 C303 C 0.83538 1.00762 -0.34148
 C304 C 0.78821 1.03635 -0.34215
 C305 C 0.76974 1.05696 -0.29455
 C306 C 0.79701 1.04900 -0.24788
 C307 C 0.87363 1.01422 -0.19978
 C308 C 0.85265 1.03234 -0.15308
 C309 C 0.87985 1.02391 -0.10665
 C310 C 0.93009 1.00079 -0.10521
 C311 C 0.94924 0.98183 -0.15357
 C312 C 0.92132 0.98793 -0.20035
 C313 C 0.77756 1.06734 -0.20015
 C314 C 0.80454 1.05857 -0.15346
 C315 C 0.91180 0.97436 -0.29428
 C316 C 0.94015 0.96819 -0.24779
 H317 H 0.74093 1.08824 -0.19876
 H318 H 0.78789 1.07298 -0.11746
 H319 H 0.92765 0.95832 -0.32987
 H320 H 0.97702 0.94766 -0.24898
 H321 H 0.85158 0.99244 -0.37732
 H322 H 0.73282 1.07734 -0.29300
 H323 H 0.85934 1.03331 -0.07216
 H324 H 0.98460 0.96021 -0.15553
 C325 C 1.26089 1.13520 0.02046
 C326 C 1.27526 1.17524 -0.01249
 C327 C 1.32188 1.20125 -0.00246
 C328 C 1.35230 1.18914 0.04201
 C329 C 1.33618 1.14924 0.07493
 C330 C 1.29168 1.12128 0.06343
 C331 C 1.21281 1.10694 0.00969
 C332 C 1.20093 1.06493 0.04026
 C333 C 1.15557 1.03845 0.03007
 C334 C 1.11728 1.05562 -0.00539
 C335 C 1.13292 1.09539 -0.03927
 C336 C 1.18029 1.12146 -0.03159
 C337 C 1.27796 1.07893 0.09357
 C338 C 1.23387 1.05051 0.08143
 C339 C 1.24251 1.18834 -0.05450
 C340 C 1.19558 1.16223 -0.06358
 H341 H 1.30178 1.06735 0.12640
 H342 H 1.22475 1.01778 0.10530
 H343 H 1.25293 1.21936 -0.08023
 H344 H 1.17112 1.17408 -0.09582
 H345 H 1.33312 1.23229 -0.02786
 H346 H 1.35992 1.13788 0.10793
 H347 H 1.15119 1.00372 0.04969
 H348 H 1.10934 1.10698 -0.07134
 C349 C 0.75125 1.15287 -0.02450
 C350 C 0.70401 1.13282 -0.00602
 C351 C 0.65736 1.15961 -0.01461
 C352 C 0.65709 1.20614 -0.04233
 C353 C 0.70519 1.22472 -0.06204
 C354 C 0.75237 1.19881 -0.05215
 C355 C 0.80060 1.12540 -0.01421
 C356 C 0.84801 1.14643 -0.03024
 C357 C 0.89470 1.12044 -0.01971
 C358 C 0.89556 1.07142 0.00292
 C359 C 0.84655 1.05268 0.02078
 C360 C 0.79954 1.07919 0.01254
 C361 C 0.80089 1.21849 -0.06824
 C362 C 0.84794 1.19308 -0.05684
 C363 C 0.70436 1.08642 0.02100
 C364 C 0.75131 1.05995 0.02995
 H365 H 0.80256 1.25408 -0.08928
 H366 H 0.88450 1.20978 -0.06957
 H367 H 0.66803 1.07041 0.03534
 H368 H 0.74985 1.02417 0.05069
 H369 H 0.62103 1.14301 -0.00105
 H370 H 0.70660 1.26071 -0.08234
 H371 H 0.92972 1.14061 -0.02699
 H372 H 0.84404 1.01804 0.04211
 C373 C 1.26417 0.86297 -0.02957
 C374 C 1.28029 0.82417 0.00424
 C375 C 1.32958 0.80147 -0.00360
 C376 C 1.36139 0.81558 -0.04672
 C377 C 1.34395 0.85461 -0.08024
 C378 C 1.29610 0.87904 -0.07119
 C379 C 1.21286 0.88742 -0.02127
 C380 C 1.19838 0.92797 -0.05294
 C381 C 1.15075 0.95222 -0.04369
 C382 C 1.11335 0.93465 -0.00646
 C383 C 1.13022 0.89346 0.02507
 C384 C 1.17966 0.87049 0.01864
 C385 C 1.27968 0.91948 -0.10288
 C386 C 1.23190 0.94410 -0.09338
 C387 C 1.24637 0.80846 0.04462
 C388 C 1.19666 0.83088 0.05137
 H389 H 1.30412 0.93247 -0.13493
 H390 H 1.22072 0.97548 -0.11840
 H391 H 1.25811 0.77829 0.07089
 H392 H 1.17151 0.81738 0.08264
 H393 H 1.34162 0.77088 0.02205
 H394 H 1.36850 0.86751 -0.11227
 H395 H 1.14473 0.98620 -0.06571
 H396 H 1.10550 0.87854 0.05504
 C397 C 0.75314 0.84824 0.03086
 C398 C 0.72749 0.83109 -0.01354
 C399 C 0.68380 0.79999 -0.00755
 C400 C 0.66379 0.78716 0.04263
 C401 C 0.69187 0.80355 0.08678
 C402 C 0.73636 0.83394 0.08103
 C403 C 0.79872 0.88158 0.02466
 C404 C 0.82528 0.89756 0.06877
 C405 C 0.87013 0.92689 0.06243
 C406 C 0.88938 0.94182 0.01250
 C407 C 0.86012 0.92613 -0.03089
 C408 C 0.81578 0.89563 -0.02532
 C409 C 0.76388 0.85119 0.12457
 C410 C 0.80784 0.88220 0.11854
 C411 C 0.74572 0.84581 -0.06323
 C412 C 0.78900 0.87773 -0.06901
 H413 H 0.75150 0.84049 0.16360
 H414 H 0.82834 0.89423 0.15309
 H415 H 0.72620 0.83277 -0.09793
 H416 H 0.80187 0.88809 -0.10800
 H417 H 0.66615 0.78546 -0.04253
 H418 H 0.67792 0.79557 0.12590
 H419 H 0.89186 0.93337 0.09683
 H420 H 0.87178 0.93536 -0.06955
 C421 C 0.74284 0.51425 0.32958
 C422 C 0.78445 0.48010 0.33559
 C423 C 0.83126 0.48823 0.30774
 C424 C 0.83660 0.52988 0.27274
 C425 C 0.79192 0.56113 0.26476
 C426 C 0.74611 0.55464 0.29421
 C427 C 0.69521 0.50828 0.36176
 C428 C 0.65493 0.54369 0.35755
 C429 C 0.61126 0.53928 0.39018
 C430 C 0.60433 0.49893 0.42647
 C431 C 0.64534 0.46266 0.42706
 C432 C 0.69107 0.46774 0.39660
 C433 C 0.70395 0.58879 0.28994
 C434 C 0.65942 0.58386 0.32174
 C435 C 0.77892 0.43930 0.37066
 C436 C 0.73271 0.43282 0.40009
 H437 H 0.70593 0.62027 0.26279
 H438 H 0.62822 0.61163 0.31819
 H439 H 0.81062 0.41229 0.37556
 H440 H 0.73008 0.40095 0.42671
 H441 H 0.86383 0.46340 0.31640
 H442 H 0.79179 0.59090 0.23575
 H443 H 0.58439 0.57075 0.38960
 H444 H 0.64091 0.42781 0.44622
 C445 C 0.24902 0.48984 0.33595
 C446 C 0.20052 0.50202 0.35896
 C447 C 0.15455 0.49126 0.33220
 C448 C 0.15686 0.46834 0.28289
 C449 C 0.20584 0.45686 0.26001
 C450 C 0.25222 0.46780 0.28639
 C451 C 0.29733 0.49913 0.36499
 C452 C 0.34575 0.48682 0.34283
 C453 C 0.39099 0.49237 0.37275
 C454 C 0.38876 0.50472 0.42671
 C455 C 0.33998 0.52399 0.44381
 C456 C 0.29425 0.51959 0.41481
 C457 C 0.30172 0.45704 0.26457
 C458 C 0.34780 0.46688 0.29215
 C459 C 0.19897 0.52423 0.40851
 C460 C 0.24518 0.53310 0.43593
 H461 H 0.30485 0.44040 0.22618
 H462 H 0.38518 0.45723 0.27439
 H463 H 0.16179 0.53415 0.42651
 H464 H 0.24237 0.54941 0.47451
 H465 H 0.11694 0.49980 0.35011
 H466 H 0.20771 0.43985 0.22170
 H467 H 0.42734 0.48352 0.35371
 H468 H 0.33501 0.53953 0.48090
 C469 C 0.74756 0.47688 0.65691
 C470 C 0.75079 0.43755 0.69367
 C471 C 0.79690 0.43094 0.72215
 C472 C 0.84116 0.46128 0.71195
 C473 C 0.83703 0.50030 0.67411
 C474 C 0.78998 0.50899 0.64753
 C475 C 0.69894 0.48423 0.62724
 C476 C 0.69464 0.52426 0.59177
 C477 C 0.64778 0.53109 0.56421
 C478 C 0.60570 0.49692 0.56800
 C479 C 0.61288 0.45660 0.60438
 C480 C 0.65776 0.45077 0.63457
 C481 C 0.78450 0.54889 0.61143
 C482 C 0.73732 0.55690 0.58464
 C483 C 0.70801 0.40514 0.70076
 C484 C 0.66257 0.41110 0.67098
 H485 H 0.81682 0.57428 0.60402
 H486 H 0.73461 0.58823 0.55734
 H487 H 0.71000 0.37442 0.72883
 H488 H 0.63078 0.38475 0.67684
 H489 H 0.79785 0.40203 0.75215
 H490 H 0.87039 0.52354 0.66435
 H491 H 0.64382 0.56540 0.54409
 H492 H 0.58528 0.42618 0.60664
 C493 C 0.24927 0.51478 0.66995
 C494 C 0.25243 0.53509 0.72026
 C495 C 0.20583 0.54519 0.74830
 C496 C 0.15678 0.53415 0.72629
 C497 C 0.15484 0.51305 0.67610
 C498 C 0.20077 0.50346 0.64776
 C499 C 0.29759 0.50620 0.63930
 C500 C 0.29424 0.48767 0.58878
 C501 C 0.33975 0.48346 0.55853
 C502 C 0.38918 0.49974 0.57532
 C503 C 0.39159 0.51079 0.62971
 C504 C 0.34622 0.51693 0.66073
 C505 C 0.19907 0.48328 0.59734
 C506 C 0.24509 0.47539 0.56834
 C507 C 0.30213 0.54490 0.74105
 C508 C 0.34825 0.53546 0.71200
 H509 H 0.16187 0.47413 0.57990
 H510 H 0.24209 0.46051 0.52923
 H511 H 0.30543 0.56027 0.77991
 H512 H 0.38567 0.54411 0.72927
 H513 H 0.20761 0.56117 0.78703
 H514 H 0.11732 0.50517 0.65856
 H515 H 0.33428 0.46966 0.52103
 H516 H 0.42823 0.51790 0.64827
 C517 C 0.51141 0.62605 0.23502
 C518 C 0.54961 0.60759 0.20010
 C519 C 0.56345 0.63678 0.15651
 C520 C 0.53838 0.68329 0.14721
 C521 C 0.49877 0.70054 0.18140
 C522 C 0.48547 0.67216 0.22594
 C523 C 0.49937 0.59711 0.28271
 C524 C 0.46312 0.61601 0.31896
 C525 C 0.45635 0.59027 0.36664
 C526 C 0.49048 0.55039 0.38136
 C527 C 0.51703 0.52655 0.33931
 C528 C 0.52461 0.55099 0.29150
 C529 C 0.44723 0.68890 0.26185
 C530 C 0.43607 0.66114 0.30757
 C531 C 0.57316 0.56035 0.20960
 C532 C 0.56027 0.53211 0.25427
 H533 H 0.42653 0.72418 0.25507
 H534 H 0.40749 0.67602 0.33503
 H535 H 0.60221 0.54542 0.18268
 H536 H 0.58018 0.49637 0.26092
 H537 H 0.59311 0.62322 0.12940
 H538 H 0.47909 0.73619 0.17357
 H539 H 0.42348 0.60054 0.39068
 H540 H 0.53832 0.49231 0.34519
 C541 C 0.48833 0.67629 0.73231
 C542 C 0.53322 0.68703 0.76107
 C543 C 0.52773 0.71376 0.80818
 C544 C 0.47740 0.72781 0.82717
 C545 C 0.43326 0.71672 0.79685
 C546 C 0.43849 0.69193 0.74942
 C547 C 0.49300 0.64582 0.68469
 C548 C 0.44798 0.63454 0.65720
 C549 C 0.45176 0.60262 0.61482
 C550 C 0.49825 0.57807 0.59943
 C551 C 0.54432 0.59421 0.62517
 C552 C 0.54175 0.62680 0.66861
 C553 C 0.39426 0.68080 0.71977
 C554 C 0.39901 0.65292 0.67403
 C555 C 0.58218 0.66933 0.74275
 C556 C 0.58636 0.63962 0.69738
 H557 H 0.35562 0.69295 0.73248
 H558 H 0.36382 0.64406 0.65274
 H559 H 0.61737 0.67744 0.76433
 H560 H 0.62459 0.62566 0.68546
 H561 H 0.56238 0.72242 0.83032
 H562 H 0.39410 0.72492 0.81101
 H563 H 0.41626 0.59362 0.59768
 H564 H 0.58193 0.58080 0.61328
 C565 C 0.48003 0.32469 0.26549
 C566 C 0.42968 0.31090 0.24969
 C567 C 0.42325 0.28717 0.20177
 C568 C 0.46675 0.27529 0.16972
 C569 C 0.51756 0.28719 0.18775
 C570 C 0.52421 0.31299 0.23509
 C571 C 0.48609 0.35415 0.31359
 C572 C 0.53540 0.37151 0.32819
 C573 C 0.53935 0.40355 0.37186
 C574 C 0.49423 0.42102 0.39949
 C575 C 0.44705 0.39758 0.38581
 C576 C 0.44189 0.36623 0.34304
 C577 C 0.57377 0.32882 0.25205
 C578 C 0.57924 0.35777 0.29766
 C579 C 0.38627 0.32270 0.28132
 C580 C 0.39236 0.34943 0.32762
 H581 H 0.60844 0.31995 0.22915
 H582 H 0.61789 0.37042 0.30842
 H583 H 0.34722 0.31196 0.26977
 H584 H 0.35775 0.35876 0.35046
 H585 H 0.38378 0.28030 0.18876
 H586 H 0.55188 0.27752 0.16478
 H587 H 0.57731 0.41583 0.38219
 H588 H 0.41198 0.40766 0.40414
 C589 C 0.51304 0.37291 0.76291
 C590 C 0.55241 0.38961 0.79652
 C591 C 0.56571 0.36004 0.84001
 C592 C 0.53883 0.31503 0.85058
 C593 C 0.49833 0.29953 0.81748
 C594 C 0.48559 0.32820 0.77307
 C595 C 0.50104 0.40241 0.71562
 C596 C 0.46341 0.38527 0.68075
 C597 C 0.45639 0.41142 0.63338
 C598 C 0.49130 0.44989 0.61747
 C599 C 0.51950 0.47238 0.65855
 C600 C 0.52749 0.44738 0.70595
 C601 C 0.44615 0.31324 0.73854
 C602 C 0.43510 0.34144 0.69316
 C603 C 0.57738 0.43567 0.78607
 C604 C 0.56455 0.46451 0.74184
 H605 H 0.42430 0.27905 0.74619
 H606 H 0.40547 0.32794 0.66679
 H607 H 0.60737 0.44928 0.81196
 H608 H 0.58545 0.49934 0.73448
 H609 H 0.59601 0.37239 0.86629
 H610 H 0.47722 0.26509 0.82625
 H611 H 0.42274 0.40267 0.61057
 H612 H 0.54175 0.50564 0.65196
 C613 C 0.64184 0.75148 0.47733
 C614 C 0.61947 0.79475 0.49970
 C615 C 0.64416 0.84159 0.49237
 C616 C 0.69053 0.84576 0.46172
 C617 C 0.71213 0.80119 0.43987
 C618 C 0.68850 0.75417 0.44822
 C619 C 0.61605 0.70221 0.48472
 C620 C 0.63937 0.65890 0.46430
 C621 C 0.61480 0.61239 0.47167
 C622 C 0.56416 0.60729 0.49408
 C623 C 0.54486 0.65181 0.51896
 C624 C 0.56960 0.69894 0.51358
 C625 C 0.71101 0.70954 0.42853
 C626 C 0.68727 0.66260 0.43713
 C627 C 0.57269 0.79019 0.52876
 C628 C 0.54823 0.74313 0.53563
 H629 H 0.74738 0.71087 0.40651
 H630 H 0.70602 0.62906 0.42146
 H631 H 0.55475 0.82327 0.54623
 H632 H 0.51209 0.74140 0.55800
 H633 H 0.62563 0.87493 0.50864
 H634 H 0.74871 0.80236 0.41823
 H635 H 0.63894 0.58016 0.46429
 H636 H 0.50886 0.65160 0.54076
 C637 C 0.63623 0.24506 0.52367
 C638 C 0.68451 0.24225 0.54939
 C639 C 0.70717 0.19488 0.55943
 C640 C 0.68205 0.15033 0.54393
 C641 C 0.63391 0.15394 0.51731
 C642 C 0.61093 0.20135 0.50690
 C643 C 0.61184 0.29488 0.51401
 C644 C 0.56448 0.29844 0.48733
 C645 C 0.54097 0.34627 0.48012
 C646 C 0.56175 0.39081 0.50260
 C647 C 0.61320 0.38516 0.52207
 C648 C 0.63722 0.33827 0.53018
 C649 C 0.56340 0.20618 0.47984
 C650 C 0.54087 0.25393 0.46974
 C651 C 0.70940 0.28696 0.56414
 C652 C 0.68635 0.33425 0.55425
 H653 H 0.54347 0.17283 0.46635
 H654 H 0.50412 0.25593 0.44896
 H655 H 0.74690 0.28539 0.58356
 H656 H 0.70670 0.36786 0.56643
 H657 H 0.74483 0.19273 0.57852
 H658 H 0.61424 0.11995 0.50513
 H659 H 0.50471 0.34722 0.45930
 H660 H 0.63783 0.41711 0.52701
 C661 C 0.35461 0.75247 0.50891
 C662 C 0.37771 0.79544 0.48670
 C663 C 0.35587 0.84321 0.49729
 C664 C 0.31190 0.84830 0.53111
 C665 C 0.28953 0.80407 0.55262
 C666 C 0.31038 0.75643 0.54144
 C667 C 0.37803 0.70238 0.49922
 C668 C 0.35526 0.65984 0.52195
 C669 C 0.37990 0.61310 0.51643
 C670 C 0.42876 0.60709 0.49089
 C671 C 0.44822 0.65050 0.46446
 C672 C 0.42380 0.69807 0.46923
 C673 C 0.28783 0.71257 0.56254
 C674 C 0.30979 0.66499 0.55275
 C675 C 0.42274 0.78967 0.45516
 C676 C 0.44543 0.74179 0.44662
 H677 H 0.25341 0.71511 0.58741
 H678 H 0.29189 0.63209 0.57063
 H679 H 0.44110 0.82249 0.43769
 H680 H 0.48082 0.73914 0.42315
 H681 H 0.37489 0.87628 0.48114
 H682 H 0.25445 0.80617 0.57659
 H683 H 0.36274 0.58293 0.53823
 H684 H 0.48382 0.64805 0.44156
 C685 C 0.34520 0.25469 0.49489
 C686 C 0.36904 0.21033 0.51345
 C687 C 0.34684 0.16365 0.50129
 C688 C 0.30068 0.16120 0.47133
 C689 C 0.27652 0.20639 0.45456
 C690 C 0.29897 0.25313 0.46562
 C691 C 0.37044 0.30359 0.50414
 C692 C 0.34843 0.34732 0.48290
 C693 C 0.37547 0.39261 0.48662
 C694 C 0.42524 0.39613 0.51006
 C695 C 0.44362 0.35178 0.53567
 C696 C 0.41749 0.30545 0.53160
 C697 C 0.27684 0.29831 0.44681
 C698 C 0.30130 0.34467 0.45512
 C699 C 0.41529 0.21361 0.54265
 C700 C 0.43883 0.26047 0.55202
 H701 H 0.24112 0.29771 0.42433
 H702 H 0.28389 0.37857 0.43853
 H703 H 0.43395 0.17964 0.55758
 H704 H 0.47507 0.26125 0.57367
 H705 H 0.36643 0.12927 0.51384
 H706 H 0.24056 0.20526 0.43250
 H707 H 0.35935 0.42326 0.46468
 H708 H 0.47976 0.35244 0.55721
   
