data_POSCAR
  _audit_creation_date              2014-09-24
  _audit_creation_method            'ToBaCCo'
  _symmetry_space_group_name_H-M    'P1'
  _symmetry_Int_Tables_number       1
  _symmetry_cell_setting            triclinic
  loop_
  _symmetry_equiv_pos_as_xyz
 x,y,z
_cell_length_a 23.7507
_cell_length_b 24.6973
_cell_length_c 55.9085
_cell_angle_alpha 89.674900
_cell_angle_beta 93.321700
_cell_angle_gamma 123.729000
loop_
  _atom_site_label
  _atom_site_type_symbol
  _atom_site_fract_x
  _atom_site_fract_y
  _atom_site_fract_z
C1 C 0.03221 0.03539 0.51553
 C2 C 0.99998 -0.02684 0.15927
 C3 C -0.02872 1.00068 0.82403
 O4 O 0.56173 0.03292 -0.03159
 O5 O 0.45264 0.02500 0.01500
 O6 O 0.56946 0.03680 0.01513
 O7 O 0.45608 0.03899 -0.03111
 O8 O 0.39407 -0.06834 -0.03408
 O9 O 0.51151 -0.07038 0.01213
 O10 O 0.39444 -0.08222 0.01231
 O11 O 0.49974 -0.07444 -0.03437
 Cu12 Cu 0.51594 0.04393 -0.00776
 Cu13 Cu 0.44386 -0.08440 -0.01115
 C14 C 0.54868 -0.02007 -0.04103
 C15 C 0.40418 -0.03059 0.02141
 C16 C 0.56138 -0.01639 0.02128
 C17 C 0.40591 -0.01357 -0.04061
 O18 O 0.04377 0.59486 0.69603
 O19 O 0.05656 0.49389 0.65069
 O20 O 0.06360 0.60356 0.65047
 O21 O 0.05209 0.49368 0.69690
 O22 O -0.05918 0.43165 0.69034
 O23 O -0.04783 0.54572 0.64445
 O24 O -0.05474 0.43626 0.64411
 O25 O -0.06764 0.53298 0.69002
 Cu26 Cu 0.06500 0.55252 0.67412
 Cu27 Cu -0.06834 0.48083 0.66663
 C28 C -0.01469 0.58090 0.70068
 C29 C 0.00244 0.44715 0.63982
 C30 C 0.01043 0.59451 0.63973
 C31 C -0.00483 0.44323 0.70130
 O32 O 0.55378 0.57637 0.31395
 O33 O 0.44079 0.47235 0.36079
 O34 O 0.55085 0.58739 0.35994
 O35 O 0.43279 0.46717 0.31395
 O36 O 0.48463 0.41587 0.31727
 O37 O 0.60581 0.53909 0.36370
 O38 O 0.49563 0.42382 0.36374
 O39 O 0.60594 0.52538 0.31723
 Cu40 Cu 0.48910 0.53049 0.33664
 Cu41 Cu 0.55355 0.47139 0.34060
 C42 C 0.60009 0.56900 0.30789
 C43 C 0.44993 0.43074 0.37049
 C44 C 0.59781 0.58382 0.37000
 C45 C 0.43697 0.42018 0.30802
 C46 C 0.00879 0.17109 0.55629
 C47 C 0.06265 0.16446 0.56185
 C48 C 0.06776 0.11904 0.54923
 C49 C 0.01830 0.07792 0.53100
 C50 C -0.03573 0.08555 0.52548
 C51 C -0.04061 0.13137 0.53818
 C52 C 0.00619 0.22034 0.56881
 C53 C 0.00591 0.26213 0.57974
 C54 C 0.00628 0.31164 0.59334
 C55 C 0.06665 0.36263 0.60501
 C56 C 0.06613 0.40826 0.61957
 C57 C 0.00504 0.40320 0.62268
 C58 C -0.05500 0.35271 0.61035
 C59 C -0.05431 0.30729 0.59581
 H60 H 0.10164 0.19543 0.57564
 H61 H 0.11146 0.11670 0.55338
 H62 H -0.07278 0.05838 0.51077
 H63 H -0.08203 0.13689 0.53348
 H64 H 0.11387 0.36637 0.60323
 H65 H 0.11310 0.44639 0.62885
 H66 H -0.10291 0.34739 0.61232
 H67 H -0.10131 0.26803 0.58689
 C68 C 0.87463 0.82342 0.21007
 C69 C 0.84792 0.85159 0.19592
 C70 C 0.88716 0.89811 0.17947
 C71 C 0.95423 0.91661 0.17593
 C72 C 0.98136 0.88929 0.19109
 C73 C 0.94163 0.84247 0.20776
 C74 C 0.83270 0.77738 0.22749
 C75 C 0.79394 0.74002 0.24162
 C76 C 0.74507 0.69662 0.25810
 C77 C 0.69390 0.70493 0.26425
 C78 C 0.64604 0.66301 0.28020
 C79 C 0.64875 0.61209 0.29021
 C80 C 0.70012 0.60386 0.28376
 C81 C 0.74788 0.64582 0.26782
 H82 H 0.79681 0.83869 0.19802
 H83 H 0.86458 0.92077 0.17021
 H84 H 1.03372 0.90490 0.19024
 H85 H 0.96351 0.82208 0.21908
 H86 H 0.69111 0.74401 0.25677
 H87 H 0.60733 0.67078 0.28482
 H88 H 0.70378 0.56522 0.29115
 H89 H 0.78705 0.63875 0.26314
 C90 C 0.13514 0.01212 -0.13406
 C91 C 0.14674 0.04124 -0.15634
 C92 C 0.09437 0.04056 -0.16955
 C93 C 0.02939 0.01206 -0.16048
 C94 C 0.01927 -0.01796 -0.13797
 C95 C 0.07156 -0.01693 -0.12491
 C96 C 0.18675 0.00901 -0.12067
 C97 C 0.22753 0.00469 -0.10847
 C98 C 0.27441 -0.00073 -0.09289
 C99 C 0.33444 0.05564 -0.08377
 C100 C 0.37756 0.05112 -0.06708
 C101 C 0.36118 -0.01000 -0.05920
 C102 C 0.30137 -0.06661 -0.06884
 C103 C 0.25814 -0.06192 -0.08556
 H104 H 0.19567 0.06296 -0.16380
 H105 H 0.10416 0.06067 -0.18724
 H106 H -0.03002 -0.04510 -0.13062
 H107 H 0.06163 -0.04080 -0.10788
 H108 H 0.34734 0.10322 -0.08921
 H109 H 0.42332 0.09570 -0.06010
 H110 H 0.28740 -0.11430 -0.06314
 H111 H 0.21146 -0.10589 -0.09241
 C112 C 0.05000 0.89319 0.55573
 C113 C 0.07448 0.90999 0.53288
 C114 C 0.07290 0.95880 0.52065
 C115 C 0.04779 0.99269 0.53115
 C116 C 0.02370 0.97487 0.55437
 C117 C 0.02560 0.92640 0.56653
 C118 C 0.04540 0.83924 0.56772
 C119 C 0.03956 0.79402 0.57842
 C120 C 0.03175 0.74084 0.59203
 C121 C 0.08912 0.74385 0.60163
 C122 C 0.08193 0.69514 0.61657
 C123 C 0.01710 0.64264 0.62219
 C124 C -0.04041 0.63902 0.61191
 C125 C -0.03305 0.68796 0.59696
 H126 H 0.09259 0.88388 0.52418
 H127 H 0.08866 0.96821 0.50247
 H128 H -0.00036 0.99547 0.56286
 H129 H 0.00538 0.91298 0.58405
 H130 H 0.13949 0.78462 0.59801
 H131 H 0.12730 0.69941 0.62413
 H132 H -0.09094 0.59937 0.61591
 H133 H -0.07784 0.68531 0.58970
 C134 C 0.13876 0.12981 0.21162
 C135 C 0.16185 0.09959 0.19811
 C136 C 0.11812 0.05041 0.18130
 C137 C 0.04992 0.03121 0.17680
 C138 C 0.02651 0.06013 0.19157
 C139 C 0.07078 0.10970 0.20853
 C140 C 0.18576 0.18025 0.22890
 C141 C 0.22817 0.22205 0.24289
 C142 C 0.28079 0.27177 0.25918
 C143 C 0.33269 0.26572 0.26894
 C144 C 0.38431 0.31434 0.28458
 C145 C 0.38461 0.36970 0.29062
 C146 C 0.33245 0.37546 0.28053
 C147 C 0.28103 0.32688 0.26494
 H148 H 0.21383 0.11339 0.20081
 H149 H 0.13837 0.02669 0.17239
 H150 H -0.02625 0.04411 0.19001
 H151 H 0.05183 0.13178 0.21934
 H152 H 0.33318 0.22334 0.26450
 H153 H 0.42352 0.30833 0.29207
 H154 H 0.33102 0.41737 0.28481
 H155 H 0.24139 0.33229 0.25742
 C156 C 0.80977 -0.01818 -0.13525
 C157 C 0.87766 0.03003 -0.12919
 C158 C 0.92840 0.03436 -0.14201
 C159 C 0.91288 -0.01057 -0.16096
 C160 C 0.84368 -0.05801 -0.16733
 C161 C 0.79266 -0.06219 -0.15436
 C162 C 0.75869 -0.02113 -0.12162
 C163 C 0.71880 -0.02122 -0.10922
 C164 C 0.67363 -0.02019 -0.09348
 C165 C 0.68999 0.03889 -0.08321
 C166 C 0.64878 0.03942 -0.06644
 C167 C 0.59084 -0.01930 -0.05969
 C168 C 0.57424 -0.07825 -0.07048
 C169 C 0.61540 -0.07863 -0.08723
 H170 H 0.89149 0.06487 -0.11462
 H171 H 0.98044 0.07336 -0.13713
 H172 H 0.82858 -0.09086 -0.18264
 H173 H 0.73995 -0.09911 -0.15945
 H174 H 0.73527 0.08442 -0.08785
 H175 H 0.66290 0.08553 -0.05846
 H176 H 0.52990 -0.12435 -0.06575
 H177 H 0.60247 -0.12462 -0.09496
 C178 C 0.12391 -0.05264 0.11180
 C179 C 0.12749 0.00554 0.11302
 C180 C 0.08598 0.01162 0.12775
 C181 C 0.04051 -0.03997 0.14218
 C182 C 0.03415 -0.10006 0.13958
 C183 C 0.07633 -0.10594 0.12473
 C184 C 0.17057 -0.05562 0.09743
 C185 C 0.21183 -0.05361 0.08519
 C186 C 0.26221 -0.04784 0.07025
 C187 C 0.31590 0.01387 0.06388
 C188 C 0.36321 0.01985 0.04842
 C189 C 0.35728 -0.03597 0.03909
 C190 C 0.30381 -0.09774 0.04597
 C191 C 0.25663 -0.10357 0.06142
 H192 H 0.16335 0.04686 0.10284
 H193 H 0.09097 0.05792 0.12860
 H194 H -0.00291 -0.14257 0.14884
 H195 H 0.07210 -0.15183 0.12346
 H196 H 0.32064 0.05738 0.07061
 H197 H 0.40362 0.06802 0.04345
 H198 H 0.29771 -0.14175 0.03913
 H199 H 0.21530 -0.15155 0.06620
 C200 C 0.86564 0.87764 0.47033
 C201 C 0.85460 0.88860 0.49360
 C202 C 0.90711 0.94124 0.50771
 C203 C 0.97127 0.98473 0.49861
 C204 C 0.98102 0.97177 0.47509
 C205 C 0.92868 0.91961 0.46113
 C206 C 0.81408 0.82239 0.45577
 C207 C 0.77366 0.77754 0.44242
 C208 C 0.72749 0.72618 0.42539
 C209 C 0.73964 0.67934 0.41838
 C210 C 0.69734 0.63244 0.40044
 C211 C 0.64266 0.63226 0.38925
 C212 C 0.63062 0.67919 0.39665
 C213 C 0.67276 0.72576 0.41456
 H214 H 0.80608 0.85569 0.50104
 H215 H 0.89831 0.94704 0.52602
 H216 H 1.02997 0.99990 0.46757
 H217 H 0.93816 0.91085 0.44329
 H218 H 0.78232 0.67965 0.42654
 H219 H 0.70781 0.59692 0.39517
 H220 H 0.58883 0.68034 0.38849
 H221 H 0.66323 0.76208 0.41970
 C222 C -0.00663 0.16095 0.78496
 C223 C 0.03966 0.17344 0.80424
 C224 C 0.03519 0.12181 0.81659
 C225 C -0.01498 0.05612 0.80951
 C226 C -0.06175 0.04531 0.79014
 C227 C -0.05698 0.09684 0.77790
 C228 C -0.00479 0.21329 0.77273
 C229 C -0.00523 0.25545 0.76192
 C230 C -0.00653 0.30445 0.74833
 C231 C 0.05354 0.36531 0.74586
 C232 C 0.05347 0.41121 0.73117
 C233 C -0.00680 0.39682 0.71868
 C234 C -0.06740 0.33619 0.72183
 C235 C -0.06717 0.29025 0.73655
 H236 H 0.07816 0.22312 0.81013
 H237 H 0.06958 0.13383 0.83222
 H238 H -0.10356 -0.00360 0.78476
 H239 H -0.09381 0.08656 0.76324
 H240 H 0.10075 0.37679 0.75486
 H241 H 0.10102 0.45744 0.72917
 H242 H -0.11453 0.32357 0.71243
 H243 H -0.11397 0.24315 0.73831
 C244 C 0.86364 -0.00457 0.11064
 C245 C 0.91518 0.04984 0.12429
 C246 C 0.96138 0.04507 0.13945
 C247 C 0.95523 -0.01500 0.14167
 C248 C 0.90572 -0.06774 0.12641
 C249 C 0.86014 -0.06278 0.11136
 C250 C 0.81285 -0.00239 0.09616
 C251 C 0.76843 -0.00390 0.08393
 C252 C 0.71460 -0.00768 0.06914
 C253 C 0.71681 0.04891 0.06406
 C254 C 0.66597 0.04563 0.04897
 C255 C 0.61203 -0.01443 0.03868
 C256 C 0.60947 -0.07132 0.04426
 C257 C 0.66053 -0.06788 0.05938
 H258 H 0.91933 0.09574 0.12339
 H259 H 1.00126 0.08843 0.14927
 H260 H 0.90074 -0.11407 0.12693
 H261 H 0.82121 -0.10494 0.10060
 H262 H 0.75830 0.09572 0.07152
 H263 H 0.66954 0.09040 0.04507
 H264 H 0.56882 -0.11820 0.03659
 H265 H 0.65832 -0.11205 0.06323
 C266 C 0.19463 0.18317 0.47340
 C267 C 0.12863 0.16766 0.46990
 C268 C 0.07790 0.12064 0.48362
 C269 C 0.09139 0.08659 0.50092
 C270 C 0.15919 0.10512 0.50513
 C271 C 0.21021 0.15248 0.49120
 C272 C 0.24490 0.22942 0.45801
 C273 C 0.28381 0.26721 0.44407
 C274 C 0.32755 0.31074 0.42650
 C275 C 0.31567 0.35543 0.41599
 C276 C 0.35558 0.39494 0.39780
 C277 C 0.40769 0.38993 0.38989
 C278 C 0.41951 0.34522 0.40077
 C279 C 0.37966 0.30591 0.41892
 H280 H 0.11610 0.19156 0.45635
 H281 H 0.02713 0.10968 0.48041
 H282 H 0.17335 0.08387 0.51919
 H283 H 0.26165 0.16508 0.49430
 H284 H 0.27504 0.35916 0.42164
 H285 H 0.34532 0.42891 0.38982
 H286 H 0.45933 0.34022 0.39516
 H287 H 0.38895 0.27119 0.42682
 C288 C -0.05291 0.83753 0.78362
 C289 C -0.02141 0.89889 0.77369
 C290 C -0.01754 0.95009 0.78582
 C291 C -0.04677 0.94103 0.80810
 C292 C -0.07909 0.87818 0.81774
 C293 C -0.08257 0.82693 0.80552
 C294 C -0.04996 0.78752 0.77187
 C295 C -0.04478 0.74817 0.76134
 C296 C -0.03698 0.70342 0.74791
 C297 C -0.09423 0.64559 0.73814
 C298 C -0.08678 0.60486 0.72334
 C299 C -0.02181 0.62151 0.71804
 C300 C 0.03555 0.67889 0.72848
 C301 C 0.02792 0.71963 0.74329
 H302 H 0.00283 0.90799 0.75694
 H303 H 0.01172 0.99771 0.77818
 H304 H -0.09896 0.86940 0.83529
 H305 H -0.10618 0.77974 0.81359
 H306 H -0.14468 0.63267 0.74152
 H307 H -0.13202 0.56100 0.71564
 H308 H 0.08618 0.69313 0.72473
 H309 H 0.07263 0.76450 0.75068
   
