data_POSCAR
  _audit_creation_date              2014-09-24
  _audit_creation_method            'ToBaCCo'
  _symmetry_space_group_name_H-M    'P1'
  _symmetry_Int_Tables_number       1
  _symmetry_cell_setting            triclinic
  loop_
  _symmetry_equiv_pos_as_xyz
 x,y,z
_cell_length_a 41.4978
_cell_length_b 41.4719
_cell_length_c 41.5248
_cell_angle_alpha 89.964000
_cell_angle_beta 90.000400
_cell_angle_gamma 89.926000
loop_
  _atom_site_label
  _atom_site_type_symbol
  _atom_site_fract_x
  _atom_site_fract_y
  _atom_site_fract_z
O1 O 0.22392 1.03146 0.46962
 O2 O 0.22382 0.96862 0.53227
 O3 O 0.22387 1.03146 0.53237
 O4 O 0.22389 0.96864 0.46951
 O5 O 0.27718 0.96854 0.46956
 O6 O 0.27715 1.03136 0.53243
 O7 O 0.27711 0.96852 0.53232
 O8 O 0.27721 1.03137 0.46967
 Cu9 Cu 0.21851 1.00006 0.50094
 Cu10 Cu 0.28253 0.99994 0.50100
 C11 C 0.25058 1.04201 0.45906
 C12 C 0.25045 0.95796 0.54286
 C13 C 0.25050 1.04203 0.54302
 C14 C 0.25054 0.95799 0.45892
 O15 O 0.77669 -0.03136 0.46902
 O16 O 0.77633 0.03126 0.53173
 O17 O 0.77657 -0.03153 0.53176
 O18 O 0.77641 0.03143 0.46902
 O19 O 0.72312 0.03128 0.46894
 O20 O 0.72328 -0.03167 0.53167
 O21 O 0.72304 0.03113 0.53165
 O22 O 0.72339 -0.03151 0.46893
 Cu23 Cu 0.78188 -0.00004 0.50039
 Cu24 Cu 0.71783 -0.00022 0.50029
 C25 C 0.75010 -0.04198 0.45838
 C26 C 0.74963 0.04177 0.54226
 C27 C 0.74995 -0.04223 0.54232
 C28 C 0.74974 0.04199 0.45839
 O29 O 0.22335 0.46735 0.96979
 O30 O 0.22374 0.53027 1.03230
 O31 O 0.22352 0.53013 0.96958
 O32 O 0.22349 0.46747 1.03251
 O33 O 0.27678 0.46722 1.03236
 O34 O 0.27681 0.52989 0.96942
 O35 O 0.27704 0.53002 1.03214
 O36 O 0.27664 0.46711 0.96964
 Cu37 Cu 0.21815 0.49883 1.00107
 Cu38 Cu 0.28220 0.49854 1.00088
 C39 C 0.24993 0.45663 0.95916
 C40 C 0.25046 0.54077 1.04276
 C41 C 0.25016 0.54058 0.95886
 C42 C 0.25012 0.45675 1.04306
 O43 O 0.46924 0.22389 1.03244
 O44 O 0.53172 0.22388 0.96959
 O45 O 0.53201 0.22407 1.03234
 O46 O 0.46896 0.22370 0.96971
 O47 O 0.46874 0.27702 0.96952
 O48 O 0.53180 0.27739 1.03215
 O49 O 0.53151 0.27721 0.96939
 O50 O 0.46902 0.27722 1.03225
 Cu51 Cu 0.50051 0.21851 1.00104
 Cu52 Cu 0.50025 0.28259 1.00081
 C53 C 0.45858 0.25056 1.04294
 C54 C 0.54214 0.25054 0.95887
 C55 C 0.54255 0.25079 1.04284
 C56 C 0.45821 0.25030 0.95904
 O57 O 0.46932 0.77705 -0.03231
 O58 O 0.53216 0.77765 0.03021
 O59 O 0.53212 0.77733 -0.03254
 O60 O 0.46938 0.77735 0.03042
 O61 O 0.46970 0.72403 0.03071
 O62 O 0.53242 0.72401 -0.03225
 O63 O 0.53246 0.72432 0.03049
 O64 O 0.46964 0.72372 -0.03201
 Cu65 Cu 0.50072 0.78272 -0.00109
 Cu66 Cu 0.50109 0.71865 -0.00074
 C67 C 0.45886 0.75029 -0.04269
 C68 C 0.54290 0.75108 0.04091
 C69 C 0.54287 0.75067 -0.04303
 C70 C 0.45895 0.75069 0.04119
 O71 O 1.03223 0.46951 0.22315
 O72 O 0.96957 0.53236 0.22269
 O73 O 1.03236 0.53232 0.22287
 O74 O 0.96945 0.46954 0.22294
 O75 O 0.96930 0.46974 0.27619
 O76 O 1.03220 0.53251 0.27611
 O77 O 0.96942 0.53255 0.27595
 O78 O 1.03207 0.46971 0.27641
 Cu79 Cu 1.00092 0.50092 0.21754
 Cu80 Cu 1.00073 0.50115 0.28154
 C81 C 1.04272 0.45901 0.24986
 C82 C 0.95892 0.54305 0.24925
 C83 C 1.04292 0.54301 0.24947
 C84 C 0.95876 0.45904 0.24958
 O85 O -0.03255 0.46885 0.77657
 O86 O 0.03026 0.53137 0.77668
 O87 O -0.03252 0.53166 0.77662
 O88 O 0.03023 0.46856 0.77656
 O89 O 0.03025 0.46866 0.72331
 O90 O -0.03249 0.53175 0.72337
 O91 O 0.03029 0.53147 0.72341
 O92 O -0.03253 0.46894 0.72331
 Cu93 Cu -0.00115 0.50010 0.78198
 Cu94 Cu -0.00112 0.50022 0.71798
 C95 C -0.04314 0.45835 0.74992
 C96 C 0.04088 0.54196 0.75006
 C97 C -0.04311 0.54237 0.75000
 C98 C 0.04083 0.45796 0.74992
 O99 O 0.46817 0.96960 0.22329
 O100 O 0.53075 1.03244 0.22315
 O101 O 0.53090 0.96968 0.22316
 O102 O 0.46800 1.03239 0.22332
 O103 O 0.46813 1.03235 0.27658
 O104 O 0.53103 0.96964 0.27642
 O105 O 0.53088 1.03239 0.27641
 O106 O 0.46830 0.96956 0.27655
 Cu107 Cu 0.49943 1.00103 0.21785
 Cu108 Cu 0.49959 1.00098 0.28187
 C109 C 0.45769 0.95896 0.24995
 C110 C 0.54139 1.04300 0.24976
 C111 C 0.54159 0.95909 0.24976
 C112 C 0.45745 1.04296 0.24998
 O113 O 1.03108 0.22219 0.53162
 O114 O 0.96845 0.22230 0.46884
 O115 O 1.03118 0.22241 0.46890
 O116 O 0.96834 0.22221 0.53154
 O117 O 0.96826 0.27554 0.53161
 O118 O 1.03107 0.27574 0.46900
 O119 O 0.96836 0.27563 0.46892
 O120 O 1.03099 0.27553 0.53171
 Cu121 Cu 0.99978 0.21689 0.50022
 Cu122 Cu 0.99966 0.28100 0.50032
 C123 C 1.04160 0.24884 0.54226
 C124 C 0.95784 0.24898 0.45828
 C125 C 1.04171 0.24911 0.45837
 C126 C 0.95770 0.24886 0.54214
 O127 O -0.03113 0.77625 0.53092
 O128 O 0.03180 0.77591 0.46845
 O129 O -0.03093 0.77619 0.46824
 O130 O 0.03162 0.77594 0.53114
 O131 O 0.03145 0.72261 0.53121
 O132 O -0.03110 0.72286 0.46830
 O133 O 0.03163 0.72258 0.46851
 O134 O -0.03131 0.72292 0.53099
 Cu135 Cu 0.00036 0.78146 0.49968
 Cu136 Cu 0.00015 0.71735 0.49977
 C137 C -0.04185 0.74964 0.54148
 C138 C 0.04233 0.74919 0.45793
 C139 C -0.04157 0.74957 0.45766
 C140 C 0.04210 0.74924 0.54178
 O141 O 0.77656 0.46920 1.03106
 O142 O 0.77644 0.53175 0.96820
 O143 O 0.77657 0.53196 1.03087
 O144 O 0.77642 0.46900 0.96838
 O145 O 0.72312 0.46908 0.96850
 O146 O 0.72327 0.53204 1.03098
 O147 O 0.72314 0.53184 0.96831
 O148 O 0.72326 0.46928 1.03117
 Cu149 Cu 0.78189 0.50047 0.99962
 Cu150 Cu 0.71781 0.50057 0.99975
 C151 C 0.74994 0.45869 1.04171
 C152 C 0.74977 0.54235 0.95765
 C153 C 0.74995 0.54263 1.04146
 C154 C 0.74975 0.45841 0.95790
 O155 O 0.46754 1.03145 0.77676
 O156 O 0.53037 0.96870 0.77644
 O157 O 0.53028 1.03146 0.77661
 O158 O 0.46765 0.96866 0.77668
 O159 O 0.46748 0.96879 0.72341
 O160 O 0.53012 1.03160 0.72335
 O161 O 0.53020 0.96883 0.72318
 O162 O 0.46737 1.03158 0.72350
 Cu163 Cu 0.49897 1.00006 0.78200
 Cu164 Cu 0.49877 1.00022 0.71798
 C165 C 0.45685 1.04211 0.75018
 C166 C 0.54088 0.95818 0.74975
 C167 C 0.54079 1.04211 0.74997
 C168 C 0.45701 0.95811 0.75006
 C169 C 0.25014 0.22594 0.27453
 C170 C 0.22613 0.24998 0.27444
 C171 C 0.22624 0.27403 0.25048
 C172 C 0.25026 0.27399 0.22651
 C173 C 0.27427 0.24996 0.22663
 C174 C 0.27421 0.22592 0.25062
 C175 C 0.75080 0.77518 0.27320
 C176 C 0.72676 0.77544 0.24927
 C177 C 0.72666 0.75159 0.22516
 C178 C 0.75057 0.72747 0.22497
 C179 C 0.77462 0.72724 0.24888
 C180 C 0.77473 0.75107 0.27303
 C181 C 0.74924 0.22610 0.72593
 C182 C 0.72520 0.22604 0.74986
 C183 C 0.72513 0.25002 0.77386
 C184 C 0.74907 0.27405 0.77392
 C185 C 0.77305 0.27414 0.74992
 C186 C 0.77317 0.25014 0.72595
 C187 C 0.25005 0.77295 0.72633
 C188 C 0.22604 0.74899 0.72620
 C189 C 0.22594 0.72492 0.75015
 C190 C 0.24992 0.72470 0.77415
 C191 C 0.27394 0.74867 0.77424
 C192 C 0.27399 0.77280 0.75036
 C193 C 0.22569 0.24896 0.72642
 C194 C 0.24983 0.22500 0.72650
 C195 C 0.27374 0.22512 0.75061
 C196 C 0.27357 0.24916 0.77459
 C197 C 0.24944 0.27313 0.77443
 C198 C 0.22551 0.27307 0.75033
 C199 C 0.77362 0.75016 0.72520
 C200 C 0.74962 0.77425 0.72527
 C201 C 0.72562 0.77419 0.74929
 C202 C 0.72568 0.75017 0.77332
 C203 C 0.74973 0.72614 0.77321
 C204 C 0.77371 0.72610 0.74917
 C205 C 0.22665 0.74950 0.27401
 C206 C 0.22675 0.72561 0.24988
 C207 C 0.25086 0.72582 0.22596
 C208 C 0.27474 0.74995 0.22606
 C209 C 0.27455 0.77386 0.25018
 C210 C 0.25053 0.77364 0.27419
 C211 C 0.77410 0.25032 0.27379
 C212 C 0.74993 0.22647 0.27378
 C213 C 0.72597 0.22667 0.24973
 C214 C 0.72607 0.25076 0.22577
 C215 C 0.75023 0.27462 0.22587
 C216 C 0.77426 0.27443 0.24986
 C217 C 0.25048 0.11188 0.38904
 C218 C 0.25317 0.14629 0.40236
 C219 C 0.25304 0.16947 0.37910
 C220 C 0.25026 0.15595 0.34482
 C221 C 0.21967 0.13520 0.34515
 C222 C 0.21979 0.11201 0.36840
 C223 C 0.27832 0.10869 0.36490
 C224 C 0.27821 0.13187 0.34163
 C225 C 0.25057 0.08693 0.41407
 C226 C 0.25060 0.06642 0.43463
 C227 C 0.25017 0.18084 0.31982
 C228 C 0.25013 0.20131 0.29925
 H229 H 0.25492 0.15196 0.42782
 H230 H 0.25465 0.19501 0.38462
 H231 H 0.19965 0.13849 0.32863
 H232 H 0.19987 0.09540 0.37180
 H233 H 0.29650 0.08987 0.36596
 H234 H 0.29628 0.13291 0.32274
 C235 C 0.75055 0.88854 0.38814
 C236 C 0.77830 0.89218 0.36396
 C237 C 0.77845 0.86913 0.34059
 C238 C 0.75083 0.84476 0.34373
 C239 C 0.71996 0.86518 0.34419
 C240 C 0.71981 0.88821 0.36757
 C241 C 0.75377 0.85409 0.40130
 C242 C 0.75393 0.83105 0.37793
 C243 C 0.75039 0.91332 0.41327
 C244 C 0.75025 0.93372 0.43389
 C245 C 0.75092 0.82002 0.31864
 C246 C 0.75090 0.79966 0.29801
 H247 H 0.79627 0.91114 0.36513
 H248 H 0.79656 0.86832 0.32174
 H249 H 0.70002 0.86189 0.32757
 H250 H 0.69973 0.90466 0.37101
 H251 H 0.75587 0.84830 0.42672
 H252 H 0.75621 0.80552 0.38330
 C253 C 0.74944 0.11175 0.61199
 C254 C 0.78062 0.11279 0.63185
 C255 C 0.78062 0.13607 0.65498
 C256 C 0.74944 0.15597 0.65596
 C257 C 0.72230 0.13118 0.65996
 C258 C 0.72230 0.10791 0.63682
 C259 C 0.74540 0.14601 0.59856
 C260 C 0.74542 0.16929 0.62170
 C261 C 0.74945 0.08673 0.58710
 C262 C 0.74951 0.06618 0.56663
 C263 C 0.74941 0.18094 0.68081
 C264 C 0.74934 0.20145 0.70129
 H265 H 0.80094 0.09674 0.62801
 H266 H 0.80096 0.14001 0.67094
 H267 H 0.70464 0.13185 0.67926
 H268 H 0.70464 0.08862 0.63628
 H269 H 0.74286 0.15152 0.57312
 H270 H 0.74292 0.19474 0.61611
 C271 C 0.25032 0.88780 0.61260
 C272 C 0.24426 0.90083 0.64667
 C273 C 0.24423 0.87751 0.66980
 C274 C 0.25024 0.84348 0.65658
 C275 C 0.28218 0.84586 0.63811
 C276 C 0.28222 0.86917 0.61497
 C277 C 0.22443 0.86189 0.60747
 C278 C 0.22438 0.83858 0.63061
 C279 C 0.25037 0.91288 0.58770
 C280 C 0.25041 0.93348 0.56723
 C281 C 0.25017 0.81842 0.68140
 C282 C 0.25011 0.79777 0.70179
 H283 H 0.24042 0.92613 0.65215
 H284 H 0.24040 0.88283 0.69511
 H285 H 0.30298 0.83070 0.64289
 H286 H 0.30305 0.87394 0.59988
 H287 H 0.20760 0.86186 0.58745
 H288 H 0.20752 0.81857 0.63042
 C289 C 0.38877 0.25040 0.11284
 C290 C 0.37507 0.21676 0.11986
 C291 C 0.35184 0.21664 0.14305
 C292 C 0.34463 0.25019 0.15689
 C293 C 0.33615 0.27118 0.12764
 C294 C 0.35938 0.27129 0.10446
 C295 C 0.40049 0.26300 0.14555
 C296 C 0.37726 0.26288 0.16874
 C297 C 0.41374 0.25050 0.08790
 C298 C 0.43423 0.25055 0.06737
 C299 C 0.31965 0.25007 0.18174
 C300 C 0.29905 0.25000 0.20213
 H301 H 0.38299 0.19493 0.10778
 H302 H 0.33989 0.19472 0.15088
 H303 H 0.31389 0.28480 0.12535
 H304 H 0.35703 0.28500 0.08229
 H305 H 0.42489 0.27124 0.15012
 H306 H 0.38173 0.27101 0.19318
 C307 C 0.38858 0.74950 0.88790
 C308 C 0.35426 0.75128 0.90159
 C309 C 0.33089 0.75096 0.87855
 C310 C 0.34416 0.74891 0.84412
 C311 C 0.36561 0.71875 0.84385
 C312 C 0.38899 0.71906 0.86688
 C313 C 0.39088 0.77773 0.86408
 C314 C 0.36751 0.77742 0.84104
 C315 C 0.41370 0.74982 0.91267
 C316 C 0.43435 0.75005 0.93305
 C317 C 0.31910 0.74864 0.81936
 C318 C 0.29856 0.74857 0.79891
 H319 H 0.34879 0.75257 0.92712
 H320 H 0.30539 0.75195 0.88432
 H321 H 0.36264 0.69886 0.82712
 H322 H 0.40609 0.69944 0.86988
 H323 H 0.40925 0.79631 0.86520
 H324 H 0.36585 0.79574 0.82240
 C325 C 0.61266 0.75159 0.11086
 C326 C 0.63591 0.72284 0.10882
 C327 C 0.65904 0.72297 0.13210
 C328 C 0.65661 0.75183 0.15510
 C329 C 0.62217 0.75068 0.16849
 C330 C 0.59904 0.75054 0.14521
 C331 C 0.63429 0.78158 0.11001
 C332 C 0.65741 0.78171 0.13330
 C333 C 0.58778 0.75145 0.08584
 C334 C 0.56729 0.75130 0.06530
 C335 C 0.68146 0.75189 0.18007
 C336 C 0.70196 0.75181 0.20057
 H337 H 0.63437 0.70406 0.09069
 H338 H 0.67733 0.70429 0.13392
 H339 H 0.61645 0.75016 0.19400
 H340 H 0.57348 0.74986 0.15077
 H341 H 0.63163 0.80104 0.09270
 H342 H 0.67456 0.80128 0.13598
 C343 C 0.61149 0.25035 0.88852
 C344 C 0.59861 0.25950 0.85508
 C345 C 0.62163 0.25937 0.83169
 C346 C 0.65524 0.25012 0.84407
 C347 C 0.65077 0.21728 0.86052
 C348 C 0.62776 0.21741 0.88392
 C349 C 0.63921 0.27398 0.89492
 C350 C 0.66223 0.27386 0.87153
 C351 C 0.58674 0.25046 0.91367
 C352 C 0.56638 0.25052 0.93433
 C353 C 0.68000 0.25001 0.81901
 C354 C 0.70046 0.24997 0.79848
 H355 H 0.57361 0.26549 0.85019
 H356 H 0.61637 0.26522 0.80675
 H357 H 0.66436 0.19580 0.85424
 H358 H 0.62165 0.19603 0.89773
 H359 H 0.64061 0.28946 0.91594
 H360 H 0.68336 0.28926 0.87249
 C361 C 0.11251 0.38890 0.25030
 C362 C 0.14259 0.39799 0.26979
 C363 C 0.16574 0.37467 0.26989
 C364 C 0.15651 0.34458 0.25048
 C365 C 0.14829 0.35713 0.21669
 C366 C 0.12513 0.38044 0.21659
 C367 C 0.10113 0.35675 0.26466
 C368 C 0.12428 0.33344 0.26477
 C369 C 0.08760 0.41396 0.25017
 C370 C 0.06711 0.43454 0.25003
 C371 C 0.18132 0.31951 0.25054
 C372 C 0.20171 0.29886 0.25052
 H373 H 0.14544 0.42073 0.28240
 H374 H 0.18845 0.37741 0.28258
 H375 H 0.15975 0.34857 0.19479
 H376 H 0.11671 0.39184 0.19459
 H377 H 0.07704 0.35270 0.27403
 H378 H 0.12007 0.30941 0.27427
 C379 C 0.88692 0.38857 0.74987
 C380 C 0.87860 0.37596 0.78362
 C381 C 0.85539 0.35276 0.78362
 C382 C 0.84283 0.34447 0.74987
 C383 C 0.87287 0.33529 0.73035
 C384 C 0.89608 0.35849 0.73036
 C385 C 0.85471 0.39992 0.73563
 C386 C 0.83150 0.37671 0.73563
 C387 C 0.91189 0.41352 0.74988
 C388 C 0.93243 0.43400 0.74989
 C389 C 0.81797 0.31951 0.74988
 C390 C 0.79757 0.29892 0.74990
 H391 H 0.88984 0.38459 0.80559
 H392 H 0.84669 0.34154 0.80559
 H393 H 0.87562 0.31262 0.71756
 H394 H 0.91875 0.35570 0.71761
 H395 H 0.85048 0.42405 0.72638
 H396 H 0.80738 0.38094 0.72641
 C397 C 0.11104 0.61151 0.75014
 C398 C 0.09868 0.64506 0.75973
 C399 C 0.12201 0.66814 0.75972
 C400 C 0.15538 0.65537 0.75013
 C401 C 0.15045 0.63938 0.71719
 C402 C 0.12712 0.61629 0.71719
 C403 C 0.13885 0.60440 0.77349
 C404 C 0.16218 0.62748 0.77349
 C405 C 0.08596 0.58669 0.75013
 C406 C 0.06536 0.56627 0.75011
 C407 C 0.18047 0.68011 0.75013
 C408 C 0.20113 0.70044 0.75013
 H409 H 0.07379 0.65025 0.76593
 H410 H 0.11713 0.69312 0.76588
 H411 H 0.16395 0.64575 0.69571
 H412 H 0.12066 0.60283 0.69573
 H413 H 0.14008 0.58314 0.78871
 H414 H 0.18340 0.62602 0.78873
 C415 C 0.88894 0.61297 0.24883
 C416 C 0.85454 0.59940 0.24853
 C417 C 0.83127 0.62260 0.24841
 C418 C 0.84472 0.65705 0.24863
 C419 C 0.86733 0.65871 0.21944
 C420 C 0.89061 0.63552 0.21955
 C421 C 0.89021 0.63534 0.27824
 C422 C 0.86694 0.65854 0.27814
 C423 C 0.91396 0.58801 0.24896
 C424 C 0.93451 0.56748 0.24908
 C425 C 0.81975 0.68197 0.24859
 C426 C 0.79924 0.70250 0.24868
 H427 H 0.84895 0.57384 0.24830
 H428 H 0.80573 0.61694 0.24804
 H429 H 0.86519 0.67646 0.20033
 H430 H 0.90845 0.63340 0.20054
 H431 H 0.90784 0.63318 0.29744
 H432 H 0.86463 0.67628 0.29724
 C433 C 0.11143 0.24872 0.61225
 C434 C 0.14522 0.24080 0.59943
 C435 C 0.16842 0.24076 0.62264
 C436 C 0.15555 0.24866 0.65637
 C437 C 0.12863 0.22403 0.66239
 C438 C 0.10542 0.22406 0.63918
 C439 C 0.11503 0.28122 0.62955
 C440 C 0.13823 0.28119 0.65277
 C441 C 0.08647 0.24875 0.58726
 C442 C 0.06597 0.24879 0.56671
 C443 C 0.18050 0.24868 0.68128
 C444 C 0.20103 0.24878 0.70177
 H445 H 0.15044 0.23556 0.57435
 H446 H 0.19353 0.23544 0.61747
 H447 H 0.12789 0.20797 0.68303
 H448 H 0.08477 0.20803 0.63994
 H449 H 0.10057 0.30237 0.62411
 H450 H 0.14365 0.30230 0.66723
 C451 C 0.88790 0.74993 0.61104
 C452 C 0.85849 0.72922 0.60248
 C453 C 0.83520 0.72927 0.62562
 C454 C 0.84363 0.75002 0.65501
 C455 C 0.85088 0.78362 0.64131
 C456 C 0.87418 0.78358 0.61819
 C457 C 0.89950 0.73706 0.64372
 C458 C 0.87622 0.73709 0.66684
 C459 C 0.91298 0.74986 0.58618
 C460 C 0.93361 0.74977 0.56576
 C461 C 0.81866 0.75008 0.67991
 C462 C 0.79819 0.75013 0.70046
 H463 H 0.85615 0.71571 0.58022
 H464 H 0.81291 0.71581 0.62319
 H465 H 0.83870 0.80549 0.64900
 H466 H 0.88199 0.80542 0.60608
 H467 H 0.92384 0.72856 0.64827
 H468 H 0.88058 0.72859 0.69120
 C469 C 0.11236 0.74899 0.38816
 C470 C 0.13796 0.72263 0.39281
 C471 C 0.16119 0.72263 0.36962
 C472 C 0.15652 0.74899 0.34408
 C473 C 0.15461 0.78067 0.36308
 C474 C 0.13137 0.78067 0.38626
 C475 C 0.09918 0.74364 0.35403
 C476 C 0.12242 0.74363 0.33084
 C477 C 0.08736 0.74901 0.41310
 C478 C 0.06680 0.74907 0.43358
 C479 C 0.18147 0.74907 0.31916
 C480 C 0.20198 0.74924 0.29866
 H481 H 0.13782 0.70546 0.41255
 H482 H 0.18095 0.70545 0.36946
 H483 H 0.17020 0.80124 0.35878
 H484 H 0.12702 0.80126 0.40181
 H485 H 0.07386 0.74004 0.34857
 H486 H 0.11701 0.73997 0.30552
 C487 C 0.88814 0.24923 0.38818
 C488 C 0.89735 0.22979 0.35810
 C489 C 0.87422 0.22996 0.33481
 C490 C 0.84418 0.24955 0.34391
 C491 C 0.85683 0.28326 0.35234
 C492 C 0.87994 0.28310 0.37564
 C493 C 0.85585 0.23502 0.39928
 C494 C 0.83273 0.23517 0.37599
 C495 C 0.91302 0.24909 0.41324
 C496 C 0.93349 0.24902 0.43382
 C497 C 0.81930 0.24979 0.31892
 C498 C 0.79880 0.25003 0.29841
 H499 H 0.92004 0.21701 0.35535
 H500 H 0.87707 0.21732 0.31209
 H501 H 0.84847 0.30530 0.34092
 H502 H 0.89137 0.30501 0.38422
 H503 H 0.85156 0.22555 0.42329
 H504 H 0.80863 0.22581 0.38001
 C505 C 0.24955 0.38690 0.88908
 C506 C 0.25446 0.40037 0.85499
 C507 C 0.25432 0.37730 0.83165
 C508 C 0.24931 0.34305 0.84470
 C509 C 0.21783 0.34469 0.86403
 C510 C 0.21795 0.36776 0.88738
 C511 C 0.27605 0.36137 0.89328
 C512 C 0.27593 0.33830 0.86994
 C513 C 0.24968 0.41174 0.91418
 C514 C 0.24979 0.43222 0.93475
 C515 C 0.24922 0.31825 0.81963
 C516 C 0.24926 0.29780 0.79907
 H517 H 0.25769 0.42579 0.84965
 H518 H 0.25741 0.38295 0.80630
 H519 H 0.19722 0.32918 0.85969
 H520 H 0.19747 0.37199 0.90308
 H521 H 0.29339 0.36142 0.91286
 H522 H 0.29317 0.31858 0.86949
 C523 C 0.75015 0.38888 0.11170
 C524 C 0.77941 0.36626 0.10998
 C525 C 0.77952 0.34307 0.13323
 C526 C 0.75034 0.34479 0.15587
 C527 C 0.72078 0.34337 0.13370
 C528 C 0.72068 0.36657 0.11046
 C529 C 0.75052 0.40245 0.14609
 C530 C 0.75063 0.37925 0.16933
 C531 C 0.75005 0.41382 0.08671
 C532 C 0.74999 0.43432 0.06616
 C533 C 0.75040 0.31988 0.18080
 C534 C 0.75035 0.29934 0.20129
 H535 H 0.79841 0.36832 0.09212
 H536 H 0.79861 0.32527 0.13533
 H537 H 0.70163 0.32570 0.13604
 H538 H 0.70145 0.36879 0.09287
 H539 H 0.75078 0.42801 0.15169
 H540 H 0.75103 0.38492 0.19485
 C541 C 0.74974 0.61206 0.88757
 C542 C 0.72440 0.63853 0.89290
 C543 C 0.72443 0.66168 0.86962
 C544 C 0.74981 0.65606 0.84331
 C545 C 0.74298 0.62208 0.83040
 C546 C 0.74294 0.59893 0.85369
 C547 C 0.78194 0.63000 0.88461
 C548 C 0.78197 0.65315 0.86132
 C549 C 0.74972 0.58716 0.91260
 C550 C 0.74973 0.56669 0.93318
 C551 C 0.74982 0.68094 0.81834
 C552 C 0.74980 0.70145 0.79784
 H553 H 0.70788 0.63904 0.91318
 H554 H 0.70795 0.68204 0.86992
 H555 H 0.73866 0.61668 0.80519
 H556 H 0.73855 0.57367 0.84844
 H557 H 0.80289 0.62491 0.89943
 H558 H 0.80296 0.66787 0.85614
 C559 C 0.25090 0.61107 0.11228
 C560 C 0.27921 0.60830 0.13593
 C561 C 0.27934 0.63168 0.15898
 C562 C 0.25114 0.65548 0.15610
 C563 C 0.22072 0.63446 0.15655
 C564 C 0.22060 0.61110 0.13349
 C565 C 0.25309 0.64540 0.09861
 C566 C 0.25323 0.66876 0.12166
 C567 C 0.25075 0.58594 0.08747
 C568 C 0.25061 0.56530 0.06705
 C569 C 0.25119 0.68057 0.18088
 C570 C 0.25109 0.70115 0.20131
 H571 H 0.29757 0.58967 0.13464
 H572 H 0.29781 0.63310 0.17743
 H573 H 0.20105 0.63761 0.17351
 H574 H 0.20081 0.59424 0.13068
 H575 H 0.25453 0.65087 0.07308
 H576 H 0.25484 0.69425 0.11590
 C577 C 0.38818 0.11082 0.75051
 C578 C 0.36543 0.10888 0.77960
 C579 C 0.34222 0.13214 0.77972
 C580 C 0.34403 0.15503 0.75072
 C581 C 0.34279 0.13303 0.72103
 C582 C 0.36601 0.10978 0.72092
 C583 C 0.40167 0.14526 0.75117
 C584 C 0.37845 0.16852 0.75130
 C585 C 0.41316 0.08579 0.75038
 C586 C 0.43371 0.06523 0.75029
 C587 C 0.31907 0.18000 0.75079
 C588 C 0.29851 0.20050 0.75074
 H589 H 0.36743 0.09086 0.79848
 H590 H 0.32433 0.13408 0.79870
 H591 H 0.32521 0.13550 0.70180
 H592 H 0.36834 0.09231 0.70159
 H593 H 0.42721 0.15089 0.75162
 H594 H 0.38408 0.19407 0.75189
 C595 C 0.38809 0.88875 0.25014
 C596 C 0.38901 0.86708 0.28012
 C597 C 0.36592 0.84376 0.28021
 C598 C 0.34420 0.84439 0.25029
 C599 C 0.36735 0.84217 0.22155
 C600 C 0.39043 0.86550 0.22147
 C601 C 0.35359 0.90210 0.24897
 C602 C 0.33050 0.87876 0.24906
 C603 C 0.41294 0.91384 0.25006
 C604 C 0.43337 0.93446 0.25000
 C605 C 0.31942 0.81932 0.25033
 C606 C 0.29904 0.79868 0.25029
 H607 H 0.40623 0.86987 0.29960
 H608 H 0.36331 0.82658 0.29977
 H609 H 0.36576 0.82388 0.20291
 H610 H 0.40863 0.86721 0.20276
 H611 H 0.34780 0.92762 0.24825
 H612 H 0.30493 0.88429 0.24846
 C613 C 0.61144 0.11276 0.24960
 C614 C 0.62888 0.11624 0.28202
 C615 C 0.65217 0.13937 0.28197
 C616 C 0.65570 0.15674 0.24952
 C617 C 0.62194 0.16977 0.24176
 C618 C 0.59866 0.14663 0.24181
 C619 C 0.63829 0.10669 0.22489
 C620 C 0.66157 0.12984 0.22484
 C621 C 0.58640 0.08786 0.24965
 C622 C 0.56583 0.06739 0.24970
 C623 C 0.68069 0.18161 0.24953
 C624 C 0.70124 0.20208 0.24961
 H625 H 0.62347 0.10177 0.30313
 H626 H 0.66673 0.14471 0.30304
 H627 H 0.61681 0.19491 0.23652
 H628 H 0.57356 0.15196 0.23666
 H629 H 0.63894 0.08606 0.20882
 H630 H 0.68216 0.12905 0.20873
 C631 C 0.61094 0.88824 0.74944
 C632 C 0.62332 0.87956 0.78319
 C633 C 0.64659 0.85635 0.78313
 C634 C 0.65518 0.84413 0.74932
 C635 C 0.66440 0.87442 0.73017
 C636 C 0.64113 0.89762 0.73024
 C637 C 0.59984 0.85614 0.73480
 C638 C 0.62311 0.83294 0.73474
 C639 C 0.58591 0.91322 0.74953
 C640 C 0.56534 0.93375 0.74962
 C641 C 0.68022 0.81924 0.74927
 C642 C 0.70084 0.79879 0.74927
 H643 H 0.61450 0.89057 0.80521
 H644 H 0.65768 0.84744 0.80509
 H645 H 0.68715 0.87734 0.71759
 H646 H 0.64395 0.92045 0.71774
 H647 H 0.57581 0.85200 0.72534
 H648 H 0.61904 0.80890 0.72524
 C649 C 0.74996 0.88901 0.61109
 C650 C 0.76581 0.85728 0.60045
 C651 C 0.76576 0.83405 0.62368
 C652 C 0.74985 0.84480 0.65528
 C653 C 0.71601 0.85627 0.64567
 C654 C 0.71606 0.87950 0.62243
 C655 C 0.76796 0.89879 0.64187
 C656 C 0.76790 0.87555 0.66510
 C657 C 0.75000 0.91405 0.58605
 C658 C 0.74999 0.93461 0.56548
 C659 C 0.74976 0.81976 0.68023
 C660 C 0.74967 0.79912 0.70068
 H661 H 0.77624 0.85343 0.57678
 H662 H 0.77618 0.81031 0.61992
 H663 H 0.69394 0.84706 0.65628
 H664 H 0.69404 0.89016 0.61312
 H665 H 0.77971 0.92193 0.64514
 H666 H 0.77959 0.87878 0.68827
 C667 C 0.25011 0.38811 0.11183
 C668 C 0.23251 0.39819 0.14277
 C669 C 0.23252 0.37498 0.16602
 C670 C 0.25014 0.34398 0.15606
 C671 C 0.28402 0.35491 0.14607
 C672 C 0.28401 0.37812 0.12283
 C673 C 0.23381 0.35659 0.10137
 C674 C 0.23383 0.33339 0.12463
 C675 C 0.25010 0.41310 0.08679
 C676 C 0.25010 0.43364 0.06622
 C677 C 0.25018 0.31907 0.18110
 C678 C 0.25022 0.29861 0.20171
 H679 H 0.22098 0.42146 0.14609
 H680 H 0.22098 0.37836 0.18925
 H681 H 0.30609 0.34517 0.15626
 H682 H 0.30606 0.38829 0.11312
 H683 H 0.22321 0.35283 0.07777
 H684 H 0.22325 0.30975 0.12096
 C685 C 0.25043 0.11071 0.61186
 C686 C 0.21913 0.13047 0.61313
 C687 C 0.21909 0.15365 0.63639
 C688 C 0.25035 0.15482 0.65613
 C689 C 0.27732 0.15894 0.63118
 C690 C 0.27737 0.13576 0.60790
 C691 C 0.25476 0.09733 0.64608
 C692 C 0.25473 0.12051 0.66934
 C693 C 0.25047 0.08571 0.58678
 C694 C 0.25049 0.06517 0.56619
 C695 C 0.25024 0.17977 0.68119
 C696 C 0.25007 0.20028 0.70176
 H697 H 0.19881 0.12663 0.59713
 H698 H 0.19873 0.16966 0.64031
 H699 H 0.29488 0.17831 0.63177
 H700 H 0.29496 0.13531 0.58856
 H701 H 0.25772 0.07190 0.65154
 H702 H 0.25770 0.11493 0.69472
 C703 C 0.25047 0.88795 0.38880
 C704 C 0.27747 0.89187 0.36381
 C705 C 0.27742 0.86864 0.34060
 C706 C 0.25035 0.84375 0.34462
 C707 C 0.21914 0.86362 0.34583
 C708 C 0.21921 0.88686 0.36904
 C709 C 0.25463 0.85363 0.40207
 C710 C 0.25456 0.83040 0.37885
 C711 C 0.25052 0.91299 0.41384
 C712 C 0.25054 0.93353 0.43442
 C713 C 0.25032 0.81876 0.31961
 C714 C 0.25038 0.79826 0.29902
 H715 H 0.29510 0.91118 0.36432
 H716 H 0.29500 0.86806 0.32123
 H717 H 0.19875 0.85971 0.32994
 H718 H 0.19887 0.90286 0.37299
 H719 H 0.25732 0.84805 0.42747
 H720 H 0.25716 0.80494 0.38438
 C721 C 0.74958 0.11214 0.38839
 C722 C 0.78291 0.12696 0.38222
 C723 C 0.78288 0.15019 0.35899
 C724 C 0.74954 0.15632 0.34417
 C725 C 0.72756 0.16413 0.37286
 C726 C 0.72758 0.14091 0.39611
 C727 C 0.73821 0.10003 0.35535
 C728 C 0.73817 0.12325 0.33212
 C729 C 0.74963 0.08709 0.41342
 C730 C 0.74967 0.06650 0.43396
 C731 C 0.74958 0.18128 0.31914
 C732 C 0.74970 0.20178 0.29854
 H733 H 0.80460 0.11991 0.39504
 H734 H 0.80454 0.16305 0.35193
 H735 H 0.71323 0.18597 0.37475
 H736 H 0.71327 0.14286 0.41791
 H737 H 0.73071 0.07540 0.35066
 H738 H 0.73061 0.11854 0.30754
 C739 C 0.61153 0.75053 0.88811
 C740 C 0.64475 0.76141 0.90021
 C741 C 0.66794 0.76131 0.87695
 C742 C 0.65566 0.75036 0.84385
 C743 C 0.62715 0.77275 0.83630
 C744 C 0.60396 0.77283 0.85955
 C745 C 0.61734 0.71721 0.87306
 C746 C 0.64053 0.71712 0.84981
 C747 C 0.58653 0.75061 0.91319
 C748 C 0.56599 0.75065 0.93378
 C749 C 0.68060 0.75026 0.81879
 C750 C 0.70106 0.75021 0.79815
 H751 H 0.64964 0.76851 0.92489
 H752 H 0.69268 0.76831 0.88172
 H753 H 0.62536 0.78729 0.81461
 H754 H 0.58231 0.78745 0.85777
 H755 H 0.60446 0.69557 0.88012
 H756 H 0.64754 0.69540 0.83700
 C757 C 0.11160 0.24945 0.38841
 C758 C 0.10387 0.22755 0.35964
 C759 C 0.12708 0.22768 0.33643
 C760 C 0.15573 0.24968 0.34428
 C761 C 0.16789 0.23817 0.37726
 C762 C 0.14469 0.23807 0.40047
 C763 C 0.11763 0.28288 0.37370
 C764 C 0.14084 0.28300 0.35049
 C765 C 0.08663 0.24931 0.41340
 C766 C 0.06612 0.24920 0.43394
 C767 C 0.18071 0.24982 0.31939
 C768 C 0.20132 0.24992 0.29897
 H769 H 0.08209 0.21322 0.35767
 H770 H 0.12520 0.21345 0.31457
 H771 H 0.19253 0.23063 0.38192
 H772 H 0.14945 0.23048 0.42504
 H773 H 0.10474 0.30453 0.38082
 H774 H 0.14781 0.30474 0.33768
 C775 C 0.61142 0.25106 0.11148
 C776 C 0.60748 0.27818 0.13634
 C777 C 0.63075 0.27822 0.15952
 C778 C 0.65569 0.25114 0.15559
 C779 C 0.66894 0.25528 0.12132
 C780 C 0.64568 0.25522 0.09814
 C781 C 0.61265 0.21986 0.13139
 C782 C 0.63590 0.21991 0.15457
 C783 C 0.58634 0.25100 0.08648
 C784 C 0.56574 0.25091 0.06595
 C785 C 0.68074 0.25112 0.18055
 C786 C 0.70132 0.25099 0.20106
 H787 H 0.58814 0.29582 0.13577
 H788 H 0.63135 0.29591 0.17877
 H789 H 0.69434 0.25816 0.11577
 H790 H 0.65117 0.25802 0.07273
 H791 H 0.59662 0.19954 0.12765
 H792 H 0.63978 0.19963 0.17068
 C793 C 0.38798 0.24987 0.88910
 C794 C 0.39258 0.22336 0.86370
 C795 C 0.36933 0.22322 0.84051
 C796 C 0.34373 0.24960 0.84497
 C797 C 0.36274 0.28129 0.84666
 C798 C 0.38600 0.28143 0.86984
 C799 C 0.35383 0.24465 0.90234
 C800 C 0.33058 0.24452 0.87915
 C801 C 0.41306 0.25002 0.91410
 C802 C 0.43367 0.25016 0.93462
 C803 C 0.31873 0.24943 0.81998
 C804 C 0.29823 0.24929 0.79939
 H805 H 0.41235 0.20619 0.86392
 H806 H 0.36918 0.20592 0.82089
 H807 H 0.35822 0.30186 0.83110
 H808 H 0.40143 0.30211 0.87410
 H809 H 0.34838 0.24142 0.92771
 H810 H 0.30522 0.24122 0.88466
 C811 C 0.38901 0.75062 0.11141
 C812 C 0.40257 0.75096 0.14581
 C813 C 0.37941 0.75092 0.16909
 C814 C 0.34493 0.75051 0.15571
 C815 C 0.34364 0.72099 0.13346
 C816 C 0.36681 0.72104 0.11019
 C817 C 0.36624 0.77979 0.10980
 C818 C 0.34308 0.77974 0.13309
 C819 C 0.41399 0.75067 0.08631
 C820 C 0.43451 0.75069 0.06571
 C821 C 0.31999 0.75039 0.18077
 C822 C 0.29947 0.75021 0.20134
 H823 H 0.42813 0.75134 0.15140
 H824 H 0.38513 0.75130 0.19461
 H825 H 0.32606 0.70175 0.13577
 H826 H 0.36906 0.70185 0.09256
 H827 H 0.36818 0.79886 0.09198
 H828 H 0.32522 0.79877 0.13523
 C829 C 0.88819 0.61136 0.74977
 C830 C 0.90169 0.64581 0.75065
 C831 C 0.87849 0.66911 0.75046
 C832 C 0.84404 0.65570 0.74941
 C833 C 0.84179 0.63272 0.77833
 C834 C 0.86500 0.60943 0.77852
 C835 C 0.86644 0.61044 0.71987
 C836 C 0.84324 0.63374 0.71968
 C837 C 0.91321 0.58624 0.74993
 C838 C 0.93376 0.56560 0.74999
 C839 C 0.81905 0.68077 0.74924
 C840 C 0.79848 0.70135 0.74917
 H841 H 0.92723 0.65141 0.75130
 H842 H 0.88416 0.69465 0.75090
 H843 H 0.82354 0.63457 0.79700
 H844 H 0.86663 0.59133 0.79736
 H845 H 0.86907 0.59304 0.70052
 H846 H 0.82602 0.63632 0.70016
 C847 C 0.38864 0.11155 0.25026
 C848 C 0.38447 0.12818 0.28303
 C849 C 0.36118 0.15137 0.28316
 C850 C 0.34437 0.15566 0.25051
 C851 C 0.33172 0.12202 0.24179
 C852 C 0.35500 0.09882 0.24166
 C853 C 0.39492 0.13903 0.22629
 C854 C 0.37164 0.16223 0.22642
 C855 C 0.41369 0.08658 0.25013
 C856 C 0.43428 0.06606 0.25005
 C857 C 0.31938 0.18061 0.25062
 C858 C 0.29886 0.20117 0.25065
 H859 H 0.39849 0.12218 0.30428
 H860 H 0.35522 0.16522 0.30453
 H861 H 0.30667 0.11686 0.23629
 H862 H 0.34991 0.07378 0.23601
 H863 H 0.41581 0.14017 0.21058
 H864 H 0.37257 0.18325 0.21083
 C865 C 0.11191 0.61154 0.24941
 C866 C 0.10851 0.63608 0.22191
 C867 C 0.13184 0.65919 0.22190
 C868 C 0.15630 0.65552 0.24940
 C869 C 0.16952 0.62111 0.24598
 C870 C 0.14619 0.59799 0.24600
 C871 C 0.11264 0.63188 0.28029
 C872 C 0.13596 0.65500 0.28028
 C873 C 0.08676 0.58661 0.24942
 C874 C 0.06613 0.56611 0.24944
 C875 C 0.18141 0.68041 0.24946
 C876 C 0.20201 0.70090 0.24962
 H877 H 0.08948 0.63533 0.20398
 H878 H 0.13281 0.67822 0.20396
 H879 H 0.19495 0.61541 0.24357
 H880 H 0.15166 0.57250 0.24366
 H881 H 0.09625 0.62847 0.30037
 H882 H 0.13952 0.67139 0.30035
 C883 C 0.88871 0.38892 0.24973
 C884 C 0.86984 0.38687 0.28147
 C885 C 0.84667 0.36359 0.28155
 C886 C 0.84462 0.34463 0.24988
 C887 C 0.87877 0.33149 0.24435
 C888 C 0.90194 0.35476 0.24426
 C889 C 0.86296 0.39356 0.22357
 C890 C 0.83979 0.37029 0.22364
 C891 C 0.91372 0.41400 0.24965
 C892 C 0.93427 0.43457 0.24961
 C893 C 0.81965 0.31959 0.24994
 C894 C 0.79908 0.29907 0.24993
 H895 H 0.87432 0.40229 0.30210
 H896 H 0.83134 0.35907 0.30225
 H897 H 0.88427 0.30613 0.24087
 H898 H 0.92729 0.34932 0.24069
 H899 H 0.86294 0.41338 0.20647
 H900 H 0.81994 0.37016 0.20660
 C901 C 0.11092 0.38770 0.74987
 C902 C 0.09887 0.35460 0.73853
 C903 C 0.12213 0.33136 0.73854
 C904 C 0.15517 0.34346 0.74990
 C905 C 0.14904 0.35831 0.78320
 C906 C 0.12578 0.38155 0.78319
 C907 C 0.13965 0.39544 0.72789
 C908 C 0.16290 0.37219 0.72790
 C909 C 0.08586 0.41278 0.74987
 C910 C 0.06529 0.43340 0.74990
 C911 C 0.18019 0.31841 0.74998
 C912 C 0.20075 0.29783 0.75013
 H913 H 0.07427 0.34987 0.73103
 H914 H 0.11745 0.30674 0.73101
 H915 H 0.16192 0.35128 0.80486
 H916 H 0.11872 0.39439 0.80485
 H917 H 0.14155 0.41726 0.71356
 H918 H 0.18471 0.37409 0.71358
 C919 C 0.88869 0.74994 0.38755
 C920 C 0.86561 0.72110 0.38946
 C921 C 0.84248 0.72125 0.36617
 C922 C 0.84471 0.75024 0.34328
 C923 C 0.87917 0.74921 0.32990
 C924 C 0.90230 0.74906 0.35318
 C925 C 0.86686 0.77984 0.38850
 C926 C 0.84372 0.78000 0.36522
 C927 C 0.91360 0.74978 0.41260
 C928 C 0.93407 0.74967 0.43318
 C929 C 0.81985 0.75046 0.31827
 C930 C 0.79938 0.75073 0.29772
 H931 H 0.86733 0.70219 0.40747
 H932 H 0.82439 0.70247 0.36420
 H933 H 0.88488 0.74848 0.30439
 H934 H 0.92786 0.74826 0.34762
 H935 H 0.86933 0.79917 0.40594
 H936 H 0.82635 0.79945 0.36272
 C937 C 0.88766 0.24917 0.61195
 C938 C 0.86407 0.22078 0.60960
 C939 C 0.84083 0.22106 0.63278
 C940 C 0.84349 0.24971 0.65603
 C941 C 0.84316 0.27976 0.63445
 C942 C 0.86639 0.27948 0.61126
 C943 C 0.90110 0.24765 0.64637
 C944 C 0.87787 0.24794 0.66955
 C945 C 0.91267 0.24892 0.58701
 C946 C 0.93324 0.24883 0.56651
 C947 C 0.81851 0.24998 0.68092
 C948 C 0.79794 0.25011 0.70137
 H949 H 0.86547 0.20212 0.59133
 H950 H 0.82231 0.20265 0.63438
 H951 H 0.82623 0.29956 0.63719
 H952 H 0.86935 0.29902 0.59411
 H953 H 0.92662 0.24653 0.65203
 H954 H 0.88347 0.24710 0.69508
 C955 C 0.11198 0.74910 0.61175
 C956 C 0.14574 0.74097 0.59898
 C957 C 0.16896 0.74099 0.62219
 C958 C 0.15611 0.74913 0.65588
 C959 C 0.12908 0.72466 0.66206
 C960 C 0.10586 0.72466 0.63885
 C961 C 0.11576 0.78171 0.62882
 C962 C 0.13898 0.78172 0.65202
 C963 C 0.08700 0.74911 0.58677
 C964 C 0.06648 0.74915 0.56623
 C965 C 0.18102 0.74913 0.68085
 C966 C 0.20146 0.74909 0.70143
 H967 H 0.15097 0.73573 0.57390
 H968 H 0.19407 0.73579 0.61701
 H969 H 0.12826 0.70872 0.68280
 H970 H 0.08515 0.70872 0.63971
 H971 H 0.10155 0.80295 0.62311
 H972 H 0.14470 0.80298 0.66616
 C973 C 0.75008 0.61290 0.11104
 C974 C 0.77866 0.61050 0.13440
 C975 C 0.77870 0.63383 0.15749
 C976 C 0.75014 0.65726 0.15494
 C977 C 0.72002 0.63584 0.15564
 C978 C 0.71999 0.61250 0.13256
 C979 C 0.75160 0.64728 0.09740
 C980 C 0.75163 0.67062 0.12049
 C981 C 0.75003 0.58779 0.08620
 C982 C 0.75000 0.56716 0.06577
 C983 C 0.75023 0.68230 0.17977
 C984 C 0.75037 0.70284 0.20026
 H985 H 0.79723 0.59209 0.13295
 H986 H 0.79729 0.63542 0.17583
 H987 H 0.70040 0.63881 0.17268
 H988 H 0.70035 0.59545 0.12984
 H989 H 0.75247 0.65282 0.07186
 H990 H 0.75248 0.69614 0.11475
 C991 C 0.25008 0.61032 0.88856
 C992 C 0.27148 0.63943 0.89649
 C993 C 0.27143 0.66257 0.87318
 C994 C 0.24996 0.65434 0.84423
 C995 C 0.21652 0.64774 0.85856
 C996 C 0.21658 0.62460 0.88188
 C997 C 0.26209 0.59826 0.85573
 C998 C 0.26202 0.62141 0.83242
 C999 C 0.25014 0.58541 0.91368
 C1000 C 0.25016 0.56494 0.93432
 C1001 C 0.24990 0.67928 0.81922
 C1002 C 0.24989 0.69987 0.79874
 H1003 H 0.28551 0.64163 0.91845
 H1004 H 0.28544 0.68458 0.87514
 H1005 H 0.19469 0.66003 0.85094
 H1006 H 0.19481 0.61711 0.89428
 H1007 H 0.26991 0.57369 0.85118
 H1008 H 0.26976 0.61667 0.80789
 C1009 C 0.74949 0.38826 0.88821
 C1010 C 0.77105 0.39614 0.85921
 C1011 C 0.77094 0.37288 0.83606
 C1012 C 0.74927 0.34403 0.84419
 C1013 C 0.71589 0.35859 0.85072
 C1014 C 0.71601 0.38186 0.87387
 C1015 C 0.76127 0.35527 0.90024
 C1016 C 0.76114 0.33200 0.87708
 C1017 C 0.74961 0.41331 0.91312
 C1018 C 0.74968 0.43391 0.93357
 C1019 C 0.74915 0.31908 0.81926
 C1020 C 0.74909 0.29863 0.79869
 H1021 H 0.78520 0.41804 0.85708
 H1022 H 0.78501 0.37482 0.81409
 H1023 H 0.69406 0.35115 0.83839
 H1024 H 0.69428 0.39441 0.88133
 H1025 H 0.76897 0.35059 0.92478
 H1026 H 0.76873 0.30738 0.88178
 C1027 C 0.61193 0.88940 0.24968
 C1028 C 0.61294 0.86929 0.28071
 C1029 C 0.63633 0.84620 0.28071
 C1030 C 0.65639 0.84550 0.24967
 C1031 C 0.66952 0.87988 0.24596
 C1032 C 0.64613 0.90298 0.24595
 C1033 C 0.60838 0.86471 0.22238
 C1034 C 0.63176 0.84162 0.22237
 C1035 C 0.58677 0.91427 0.24969
 C1036 C 0.56612 0.93472 0.24971
 C1037 C 0.68150 0.82066 0.24963
 C1038 C 0.70208 0.80017 0.24950
 H1039 H 0.59676 0.87292 0.30094
 H1040 H 0.64024 0.83008 0.30095
 H1041 H 0.69494 0.88559 0.24365
 H1042 H 0.65152 0.92848 0.24360
 H1043 H 0.58919 0.86531 0.20461
 H1044 H 0.63263 0.82243 0.20460
 C1045 C 0.61086 0.11189 0.74990
 C1046 C 0.60594 0.13788 0.77575
 C1047 C 0.62921 0.16102 0.77572
 C1048 C 0.65512 0.15588 0.74983
 C1049 C 0.63654 0.15358 0.71795
 C1050 C 0.61326 0.13045 0.71799
 C1051 C 0.64489 0.09863 0.75589
 C1052 C 0.66817 0.12177 0.75584
 C1053 C 0.58581 0.08698 0.74993
 C1054 C 0.56523 0.06650 0.74995
 C1055 C 0.68009 0.18078 0.74980
 C1056 C 0.70059 0.20131 0.74982
 H1057 H 0.58594 0.13809 0.79262
 H1058 H 0.62918 0.18106 0.79255
 H1059 H 0.64136 0.16869 0.69714
 H1060 H 0.59808 0.12576 0.69722
 H1061 H 0.65025 0.07328 0.75975
 H1062 H 0.69348 0.11626 0.75962
 C1063 C 0.38756 0.88773 0.75027
 C1064 C 0.36826 0.88606 0.78178
 C1065 C 0.34527 0.86264 0.78189
 C1066 C 0.34382 0.84321 0.75048
 C1067 C 0.37811 0.83018 0.74564
 C1068 C 0.40111 0.85360 0.74553
 C1069 C 0.36217 0.89183 0.72368
 C1070 C 0.33917 0.86842 0.72378
 C1071 C 0.41232 0.91291 0.75017
 C1072 C 0.43271 0.93358 0.75010
 C1073 C 0.31907 0.81809 0.75055
 C1074 C 0.29864 0.79750 0.75051
 H1075 H 0.37238 0.90182 0.80224
 H1076 H 0.32970 0.85829 0.80245
 H1077 H 0.38382 0.80480 0.74269
 H1078 H 0.42655 0.84828 0.74243
 H1079 H 0.36226 0.91139 0.70629
 H1080 H 0.31954 0.86791 0.70648
   
