data_POSCAR
  _audit_creation_date              2014-09-24
  _audit_creation_method            'ToBaCCo'
  _symmetry_space_group_name_H-M    'P1'
  _symmetry_Int_Tables_number       1
  _symmetry_cell_setting            triclinic
  loop_
  _symmetry_equiv_pos_as_xyz
 x,y,z
_cell_length_a 48.7610
_cell_length_b 49.0856
_cell_length_c 49.5129
_cell_angle_alpha 87.295900
_cell_angle_beta 89.140500
_cell_angle_gamma 87.876500
loop_
  _atom_site_label
  _atom_site_type_symbol
  _atom_site_fract_x
  _atom_site_fract_y
  _atom_site_fract_z
C1 C 0.20788 0.52402 1.03951
 H2 H 0.21103 0.54380 1.02961
 C3 C 0.18837 0.52141 1.06026
 H4 H 0.17654 0.53952 1.06552
 C5 C 0.21831 0.47653 1.04243
 H6 H 0.22975 0.45905 1.03506
 C7 C 0.19849 0.47282 1.06284
 H8 H 0.19596 0.45241 1.07151
 N9 N 0.22261 0.50185 1.03126
 C10 C 0.28401 0.54654 0.98442
 H11 H 0.28167 0.53768 0.96502
 C12 C 0.30281 0.56694 0.98718
 H13 H 0.31490 0.57375 0.96979
 C14 C 0.27234 0.54714 1.03104
 H15 H 0.26108 0.53874 1.04824
 C16 C 0.29121 0.56732 1.03478
 H17 H 0.29390 0.57474 1.05479
 Zn18 Zn 0.24664 0.50727 1.00133
 N19 N 0.26907 0.53724 1.00612
 C20 C 0.22010 0.53834 0.95831
 N21 N 0.22410 0.51320 0.97073
 C22 C 0.21021 0.49141 0.96303
 C23 C 0.19189 0.49422 0.94166
 C24 C 0.20159 0.54216 0.93704
 C25 C 0.28503 0.46695 1.01919
 C26 C 0.30497 0.44603 1.01686
 C27 C 0.29572 0.44581 0.96906
 C28 C 0.27571 0.46654 0.97237
 N29 N 0.27076 0.47665 0.99717
 H30 H 0.23064 0.55558 0.96534
 H31 H 0.21323 0.47184 0.97375
 H32 H 0.18077 0.47671 0.93603
 H33 H 0.19834 0.56230 0.92748
 H34 H 0.28123 0.47589 1.03852
 H35 H 0.31650 0.43891 1.03450
 H36 H 0.29968 0.43820 0.94914
 H37 H 0.26483 0.47516 0.95494
 C38 C 0.30680 0.57734 1.01268
 C39 C 0.18297 0.49544 1.07219
 C40 C 0.31074 0.43544 0.99147
 C41 C 0.18726 0.51989 0.92852
 C42 C 0.77807 0.51921 -0.04500
 H43 H 0.76475 0.53617 -0.03946
 C44 C 0.79752 0.52296 -0.06570
 H45 H 0.79862 0.54270 -0.07631
 C46 C 0.79384 0.47330 -0.03715
 H47 H 0.79263 0.45419 -0.02546
 C48 C 0.81342 0.47608 -0.05787
 H49 H 0.82733 0.45903 -0.06199
 N50 N 0.77659 0.49465 -0.03122
 C51 C 0.72299 0.53403 0.02355
 H52 H 0.73487 0.52865 0.04139
 C53 C 0.70220 0.55440 0.02457
 H54 H 0.69836 0.56453 0.04328
 C55 C 0.71197 0.52581 -0.02172
 H56 H 0.71561 0.51417 -0.03953
 C57 C 0.69126 0.54613 -0.02170
 H58 H 0.67942 0.55034 -0.03984
 Zn59 Zn 0.75249 0.49003 -0.00119
 N60 N 0.72738 0.52019 0.00062
 C61 C 0.78872 0.50833 0.03646
 N62 N 0.77459 0.48626 0.02993
 C63 C 0.77809 0.46180 0.04381
 C64 C 0.79646 0.45893 0.06524
 C65 C 0.80697 0.50646 0.05796
 C66 C 0.72907 0.44679 -0.02831
 C67 C 0.71003 0.42655 -0.03120
 C68 C 0.69563 0.43176 0.01524
 C69 C 0.71459 0.45215 0.01712
 N70 N 0.73085 0.45922 -0.00444
 H71 H 0.78609 0.52732 0.02463
 H72 H 0.76733 0.44428 0.03776
 H73 H 0.79934 0.43927 0.07590
 H74 H 0.81840 0.52412 0.06258
 H75 H 0.74153 0.45333 -0.04546
 H76 H 0.70832 0.41725 -0.05048
 H77 H 0.68236 0.42688 0.03240
 H78 H 0.71588 0.46294 0.03559
 C79 C 0.68576 0.56043 0.00181
 C80 C 0.81561 0.50127 -0.07224
 C81 C 0.69286 0.41904 -0.00929
 C82 C 0.81122 0.48144 0.07246
 C83 C -0.03359 0.28189 0.47755
 H84 H -0.05233 0.27116 0.48125
 C85 C -0.03239 0.30186 0.45651
 H86 H -0.05075 0.30605 0.44486
 C87 C 0.01149 0.29093 0.49058
 H88 H 0.02846 0.28665 0.50416
 C89 C 0.01373 0.31084 0.46974
 H90 H 0.03320 0.32052 0.46724
 N91 N -0.01178 0.27679 0.49402
 C92 C -0.06045 0.22729 0.54728
 H93 H -0.05584 0.23766 0.56536
 C94 C -0.08154 0.20871 0.54782
 H95 H -0.09338 0.20515 0.56624
 C96 C -0.04941 0.21757 0.50185
 H97 H -0.03609 0.22041 0.48434
 C98 C -0.07058 0.19929 0.50133
 H99 H -0.07355 0.18813 0.48331
 Zn100 Zn -0.01299 0.25203 0.52443
 N101 N -0.04479 0.23118 0.52454
 C102 C -0.03366 0.29075 0.55985
 N103 N -0.01187 0.27345 0.55511
 C104 C 0.01154 0.27412 0.56964
 C105 C 0.01390 0.29322 0.58941
 C106 C -0.03226 0.31002 0.57961
 C107 C 0.03367 0.22440 0.50169
 C108 C 0.05464 0.20423 0.50127
 C109 C 0.04156 0.18947 0.54673
 C110 C 0.02067 0.20969 0.54616
 N111 N 0.01724 0.22677 0.52396
 H112 H -0.05174 0.29026 0.54752
 H113 H 0.02895 0.26083 0.56499
 H114 H 0.03296 0.29404 0.60024
 H115 H -0.04939 0.32434 0.58240
 H116 H 0.03002 0.23756 0.48390
 H117 H 0.06690 0.20215 0.48302
 H118 H 0.04410 0.17637 0.56478
 H119 H 0.00702 0.21175 0.56343
 C120 C -0.08661 0.19434 0.52466
 C121 C -0.00853 0.31713 0.45227
 C122 C 0.05872 0.18629 0.52395
 C123 C -0.00799 0.31183 0.59420
 C124 C 0.99107 0.72157 0.52015
 H125 H 0.97177 0.73209 0.51536
 C126 C 0.99217 0.70180 0.54135
 H127 H 0.97358 0.69744 0.55272
 C128 C 1.03803 0.71285 0.50962
 H129 H 1.05568 0.71697 0.49678
 C130 C 1.04012 0.69309 0.53078
 H131 H 1.05968 0.68251 0.53441
 N132 N 1.01389 0.72693 0.50498
 C133 C 0.96529 0.78446 0.45641
 H134 H 0.96940 0.77594 0.43696
 C135 C 0.94501 0.80516 0.45891
 H136 H 0.93365 0.81231 0.44118
 C137 C 0.97703 0.78735 0.50241
 H138 H 0.99021 0.78089 0.51908
 C139 C 0.95667 0.80755 0.50596
 H140 H 0.95385 0.81576 0.52575
 Zn141 Zn 1.01181 0.75210 0.47484
 N142 N 0.98085 0.77610 0.47804
 C143 C 0.98660 0.71859 0.43906
 N144 N 1.01028 0.73120 0.44388
 C145 C 1.03359 0.72584 0.42935
 C146 C 1.03377 0.70671 0.40935
 C147 C 0.98579 0.69953 0.41905
 C148 C 1.05782 0.77815 0.49516
 C149 C 1.07768 0.79798 0.49450
 C150 C 1.06575 0.80996 0.44816
 C151 C 1.04599 0.79010 0.44978
 N152 N 1.04238 0.77469 0.47301
 H153 H 0.96860 0.72259 0.45149
 H154 H 1.05243 0.73537 0.43417
 H155 H 1.05269 0.70207 0.39848
 H156 H 0.96705 0.68893 0.41615
 H157 H 1.05384 0.76650 0.51378
 H158 H 1.08891 0.80121 0.51270
 H159 H 1.06818 0.82205 0.42947
 H160 H 1.03295 0.78741 0.43269
 C161 C 0.94070 0.81728 0.48390
 C162 C 1.01694 0.68723 0.54695
 C163 C 1.08153 0.81454 0.47090
 C164 C 1.00978 0.69293 0.40436
 C165 C 0.46198 -0.02158 0.27551
 H166 H 0.46759 -0.03984 0.26505
 C167 C 0.44054 -0.02208 0.29448
 H168 H 0.42940 -0.04061 0.29810
 C169 C 0.47080 0.02416 0.28498
 H170 H 0.48334 0.04178 0.28176
 C171 C 0.44927 0.02465 0.30390
 H172 H 0.44525 0.04277 0.31520
 N173 N 0.47664 0.00130 0.27117
 C174 C 0.52797 -0.04715 0.22129
 H175 H 0.54681 -0.04564 0.23225
 C176 C 0.52612 -0.06694 0.20202
 H177 H 0.54409 -0.07991 0.19857
 C178 C 0.48331 -0.02976 0.21095
 H179 H 0.46676 -0.01499 0.21444
 C180 C 0.48040 -0.04927 0.19178
 H181 H 0.46083 -0.04958 0.18187
 Zn182 Zn 0.50841 -0.00001 0.24885
 N183 N 0.50668 -0.02911 0.22536
 C184 C 0.54270 -0.02905 0.28571
 N185 N 0.53861 -0.00445 0.27234
 C186 C 0.55348 0.01737 0.27817
 C187 C 0.57330 0.01492 0.29831
 C188 C 0.56259 -0.03253 0.30567
 C189 C 0.48874 0.04842 0.22050
 C190 C 0.49022 0.06920 0.20026
 C191 C 0.53784 0.05599 0.19274
 C192 C 0.53536 0.03533 0.21283
 N193 N 0.51110 0.03187 0.22618
 H194 H 0.53004 -0.04586 0.28126
 H195 H 0.54912 0.03703 0.26808
 H196 H 0.58399 0.03288 0.30340
 H197 H 0.56556 -0.05239 0.31587
 H198 H 0.46937 0.04464 0.23061
 H199 H 0.47185 0.08129 0.19515
 H200 H 0.55736 0.05825 0.18232
 H201 H 0.55262 0.02144 0.21728
 C202 C 0.50213 -0.06820 0.18643
 C203 C 0.43417 0.00115 0.30912
 C204 C 0.51489 0.07285 0.18569
 C205 C 0.57787 -0.01022 0.31265
 C206 C 0.54047 -0.02476 0.72776
 H207 H 0.53551 -0.04291 0.73976
 C208 C 0.56190 -0.02593 0.70876
 H209 H 0.57369 -0.04487 0.70672
 C210 C 0.52997 0.02138 0.71427
 H211 H 0.51676 0.03945 0.71592
 C212 C 0.55138 0.02120 0.69524
 H213 H 0.55460 0.03924 0.68231
 N214 N 0.52495 -0.00135 0.73006
 C215 C 0.46920 -0.04605 0.78025
 H216 H 0.45110 -0.04078 0.76852
 C217 C 0.46838 -0.06711 0.80020
 H218 H 0.44977 -0.07827 0.80335
 C219 C 0.51488 -0.03693 0.79173
 H220 H 0.53265 -0.02452 0.78877
 C221 C 0.51508 -0.05805 0.81162
 H222 H 0.53308 -0.06181 0.82398
 Zn223 Zn 0.49271 -0.00085 0.75176
 N224 N 0.49227 -0.03152 0.77636
 C225 C 0.46011 -0.02473 0.71471
 N226 N 0.46324 -0.00118 0.72748
 C227 C 0.44786 0.02176 0.72076
 C228 C 0.42860 0.02157 0.70012
 C229 C 0.44078 -0.02599 0.69442
 C230 C 0.51259 0.04520 0.77708
 C231 C 0.51123 0.06575 0.79571
 C232 C 0.46381 0.05550 0.80482
 C233 C 0.46615 0.03501 0.78624
 N234 N 0.49027 0.03021 0.77288
 H235 H 0.47303 -0.04250 0.72004
 H236 H 0.45136 0.04052 0.73055
 H237 H 0.41744 0.04035 0.69428
 H238 H 0.43852 -0.04512 0.68483
 H239 H 0.53184 0.04041 0.76695
 H240 H 0.52956 0.07663 0.79961
 H241 H 0.44440 0.05891 0.81525
 H242 H 0.44889 0.02243 0.78290
 C243 C 0.49150 -0.07322 0.81621
 C244 C 0.56732 -0.00284 0.69199
 C245 C 0.48671 0.07083 0.81021
 C246 C 0.42511 -0.00246 0.68635
 C247 C 0.22231 -0.01965 0.48931
 C248 C 0.23530 0.00405 0.49615
 C249 C 0.21952 0.02715 0.50331
 C250 C 0.19072 0.02677 0.50340
 C251 C 0.17802 0.00286 0.49654
 C252 C 0.19359 -0.02048 0.48961
 C253 C 0.26546 0.00447 0.49582
 C254 C 0.27993 0.00370 0.47115
 C255 C 0.30866 0.00232 0.47079
 C256 C 0.32282 0.00183 0.49522
 C257 C 0.30867 0.00235 0.52013
 C258 C 0.27982 0.00401 0.52022
 H259 H 0.23464 -0.03740 0.48376
 H260 H 0.22970 0.04533 0.50875
 H261 H 0.26884 0.00366 0.45234
 H262 H 0.26846 0.00386 0.53920
 H263 H 0.15583 0.00238 0.49661
 H264 H 0.34506 0.00125 0.49469
 C265 C 0.78151 -0.02254 0.50170
 C266 C 0.76419 0.00062 0.50466
 C267 C 0.77543 0.02591 0.50897
 C268 C 0.80393 0.02807 0.51043
 C269 C 0.82110 0.00484 0.50739
 C270 C 0.81016 -0.02071 0.50318
 C271 C 0.73424 -0.00189 0.50416
 C272 C 0.71890 -0.00092 0.52829
 C273 C 0.69055 -0.00469 0.52824
 C274 C 0.67753 -0.00841 0.50368
 C275 C 0.69257 -0.00904 0.47924
 C276 C 0.72113 -0.00610 0.47976
 H277 H 0.77250 -0.04207 0.49907
 H278 H 0.76203 0.04376 0.51145
 H279 H 0.72919 0.00186 0.54717
 H280 H 0.73323 -0.00712 0.46128
 H281 H 0.84313 0.00694 0.50784
 H282 H 0.65545 -0.01018 0.50364
 C283 C 0.52584 0.27811 0.98638
 C284 C 0.50082 0.26491 0.98685
 C285 C 0.47609 0.28029 0.98467
 C286 C 0.47622 0.30888 0.98174
 C287 C 0.50143 0.32184 0.98051
 C288 C 0.52630 0.30663 0.98294
 C289 C 0.50056 0.23494 0.98895
 C290 C 0.50544 0.22087 1.01382
 C291 C 0.50539 0.19223 1.01579
 C292 C 0.50057 0.17794 0.99249
 C293 C 0.49577 0.19179 0.96744
 C294 C 0.49567 0.22042 0.96589
 H295 H 0.54493 0.26614 0.98806
 H296 H 0.45679 0.26999 0.98521
 H297 H 0.50939 0.23223 1.03151
 H298 H 0.49179 0.23149 0.94678
 H299 H 0.50169 0.34392 0.97866
 H300 H 0.50064 0.15585 0.99387
 C301 C 0.52176 0.71710 0.01265
 C302 C 0.49746 0.73319 0.01440
 C303 C 0.47216 0.72074 0.01793
 C304 C 0.47102 0.69224 0.02022
 C305 C 0.49543 0.67633 0.01892
 C306 C 0.52088 0.68848 0.01466
 C307 C 0.49817 0.76310 0.01184
 C308 C 0.49749 0.77644 -0.01384
 C309 C 0.49548 0.80500 -0.01628
 C310 C 0.49489 0.82008 0.00706
 C311 C 0.49586 0.80702 0.03289
 C312 C 0.49746 0.77837 0.03513
 H313 H 0.54114 0.72688 0.00916
 H314 H 0.45340 0.73325 0.01882
 H315 H 0.49752 0.76462 -0.03179
 H316 H 0.49748 0.76789 0.05489
 H317 H 0.49448 0.65429 0.02063
 H318 H 0.49397 0.84217 0.00497
 C319 C 0.99791 0.51786 0.27702
 C320 C 0.99512 0.49171 0.26736
 C321 C 0.99424 0.46896 0.28558
 C322 C 0.99652 0.47211 0.31351
 C323 C 0.99929 0.49842 0.32289
 C324 C 1.00010 0.52127 0.30485
 C325 C 0.99501 0.48776 0.23811
 C326 C 1.01983 0.48768 0.22345
 C327 C 1.02029 0.48246 0.19584
 C328 C 0.99563 0.47770 0.18294
 C329 C 0.97054 0.47859 0.19722
 C330 C 0.97038 0.48342 0.22496
 H331 H 0.99897 0.53536 0.26291
 H332 H 0.99275 0.44878 0.27786
 H333 H 1.03882 0.49119 0.23364
 H334 H 0.95119 0.48381 0.23629
 H335 H 1.00050 0.50128 0.34440
 H336 H 0.99586 0.47449 0.16142
 C337 C 0.01004 0.53507 0.71462
 C338 C 0.00573 0.51235 0.73223
 C339 C 0.00340 0.48645 0.72183
 C340 C 0.00608 0.48314 0.69393
 C341 C 0.01005 0.50604 0.67647
 C342 C 0.01190 0.53218 0.68655
 C343 C 0.00476 0.51566 0.76160
 C344 C -0.02032 0.51481 0.77583
 C345 C -0.02132 0.51917 0.80366
 C346 C 0.00307 0.52378 0.81716
 C347 C 0.02836 0.52389 0.80325
 C348 C 0.02902 0.52007 0.77535
 H349 H 0.01208 0.55494 0.72288
 H350 H 0.00046 0.46885 0.73548
 H351 H -0.03902 0.51135 0.76515
 H352 H 0.04838 0.52041 0.76432
 H353 H 0.01110 0.50344 0.65487
 H354 H 0.00251 0.52618 0.83881
 C355 C 0.11814 0.11975 0.52013
 C356 C 0.12435 0.14527 0.50803
 C357 C 0.10518 0.16718 0.50988
 C358 C 0.07979 0.16359 0.52337
 C359 C 0.07412 0.13783 0.53559
 C360 C 0.09322 0.11591 0.53409
 C361 C 0.13777 0.09641 0.51748
 C362 C 0.13124 0.07079 0.52910
 C363 C 0.14933 0.04839 0.52551
 C364 C 0.17357 0.05129 0.50993
 C365 C 0.18021 0.07732 0.49906
 C366 C 0.16230 0.09996 0.50272
 C367 C 0.08764 0.09006 0.54584
 C368 C 0.10637 0.06789 0.54345
 C369 C 0.14940 0.14820 0.49396
 C370 C 0.16802 0.12592 0.49129
 H371 H 0.06850 0.08687 0.55674
 H372 H 0.10113 0.04822 0.55254
 H373 H 0.15448 0.16780 0.48458
 H374 H 0.18689 0.12897 0.47990
 H375 H 0.10998 0.18695 0.50071
 H376 H 0.05452 0.13457 0.54558
 H377 H 0.14428 0.02856 0.53437
 H378 H 0.19866 0.07973 0.48684
 C379 C 0.61658 0.61691 0.00545
 C380 C 0.61469 0.59305 -0.00885
 C381 C 0.63740 0.57482 -0.00993
 C382 C 0.66206 0.58033 0.00292
 C383 C 0.66364 0.60449 0.01709
 C384 C 0.64088 0.62283 0.01848
 C385 C 0.59248 0.63586 0.00709
 C386 C 0.59410 0.65954 0.02177
 C387 C 0.57081 0.67711 0.02383
 C388 C 0.54610 0.67098 0.01139
 C389 C 0.54518 0.64744 -0.00375
 C390 C 0.56818 0.62973 -0.00578
 C391 C 0.64184 0.64687 0.03273
 C392 C 0.61884 0.66488 0.03439
 C393 C 0.59006 0.58773 -0.02161
 C394 C 0.56720 0.60580 -0.02016
 H395 H 0.66047 0.65172 0.04285
 H396 H 0.62040 0.68307 0.04576
 H397 H 0.58840 0.56938 -0.03273
 H398 H 0.54853 0.60089 -0.03018
 H399 H 0.63564 0.55607 -0.02038
 H400 H 0.68255 0.60909 0.02685
 H401 H 0.57168 0.69509 0.03564
 H402 H 0.52646 0.64283 -0.01388
 C403 C 0.88405 -0.11435 0.49256
 C404 C 0.87776 -0.13471 0.47490
 C405 C 0.89612 -0.15721 0.47224
 C406 C 0.92084 -0.15917 0.48681
 C407 C 0.92683 -0.13821 0.50413
 C408 C 0.90843 -0.11600 0.50732
 C409 C 0.86484 -0.09072 0.49555
 C410 C 0.87107 -0.07056 0.51344
 C411 C 0.85283 -0.04814 0.51622
 C412 C 0.82873 -0.04530 0.50078
 C413 C 0.82279 -0.06582 0.48292
 C414 C 0.84070 -0.08866 0.48037
 C415 C 0.91400 -0.09537 0.52495
 C416 C 0.89555 -0.07311 0.52809
 C417 C 0.85326 -0.13210 0.46024
 C418 C 0.83512 -0.10940 0.46282
 H419 H 0.93275 -0.09647 0.53649
 H420 H 0.90060 -0.05765 0.54194
 H421 H 0.84813 -0.14764 0.44652
 H422 H 0.81655 -0.10811 0.45101
 H423 H 0.89104 -0.17322 0.45905
 H424 H 0.94602 -0.13889 0.51492
 H425 H 0.85741 -0.03296 0.53053
 H426 H 0.80454 -0.06381 0.47066
 C427 C 0.37850 0.37812 0.98402
 C428 C 0.37562 0.40024 0.96510
 C429 C 0.35291 0.41842 0.96715
 C430 C 0.33343 0.41487 0.98820
 C431 C 0.33648 0.39241 1.00683
 C432 C 0.35896 0.37391 1.00479
 C433 C 0.40283 0.35945 0.98250
 C434 C 0.40589 0.33753 1.00162
 C435 C 0.42953 0.32039 1.00064
 C436 C 0.45018 0.32541 0.98104
 C437 C 0.44658 0.34724 0.96178
 C438 C 0.42290 0.36431 0.96238
 C439 C 0.36257 0.35155 1.02334
 C440 C 0.38560 0.33363 1.02174
 C441 C 0.39584 0.40407 0.94490
 C442 C 0.41912 0.38645 0.94361
 H443 H 0.34759 0.34802 1.03939
 H444 H 0.38773 0.31680 1.03661
 H445 H 0.39385 0.42105 0.93019
 H446 H 0.43442 0.39035 0.92794
 H447 H 0.35088 0.43587 0.95297
 H448 H 0.32144 0.38949 1.02296
 H449 H 0.43236 0.30381 1.01570
 H450 H 0.46236 0.35105 0.94654
 C451 C 0.86019 0.12722 0.52318
 C452 C 0.85755 0.14847 0.50327
 C453 C 0.87431 0.17102 0.50438
 C454 C 0.89333 0.17243 0.52535
 C455 C 0.89497 0.15145 0.54569
 C456 C 0.87871 0.12858 0.54449
 C457 C 0.84411 0.10256 0.52102
 C458 C 0.84802 0.08064 0.54000
 C459 C 0.83410 0.05656 0.53684
 C460 C 0.81619 0.05447 0.51508
 C461 C 0.81169 0.07691 0.49676
 C462 C 0.82596 0.10095 0.49941
 C463 C 0.88135 0.10659 0.56360
 C464 C 0.86635 0.08297 0.56132
 C465 C 0.83883 0.14634 0.48224
 C466 C 0.82320 0.12303 0.48042
 H467 H 0.89556 0.10741 0.58013
 H468 H 0.86943 0.06624 0.57616
 H469 H 0.83651 0.16265 0.46683
 H470 H 0.80927 0.12206 0.46367
 H471 H 0.87302 0.18719 0.48871
 H472 H 0.90989 0.15229 0.56161
 H473 H 0.83749 0.03924 0.55096
 H474 H 0.79809 0.07516 0.47986
 C475 C 0.37269 0.63143 0.02074
 C476 C 0.35350 0.63688 0.00013
 C477 C 0.33146 0.61957 -0.00198
 C478 C 0.32852 0.59706 0.01642
 C479 C 0.34750 0.59239 0.03744
 C480 C 0.36980 0.60934 0.03953
 C481 C 0.39684 0.64852 0.02203
 C482 C 0.41676 0.64216 0.04177
 C483 C 0.44055 0.65733 0.04179
 C484 C 0.44441 0.67872 0.02232
 C485 C 0.42380 0.68551 0.00331
 C486 C 0.40007 0.67023 0.00286
 C487 C 0.38974 0.60415 0.05949
 C488 C 0.41287 0.62024 0.06054
 C489 C 0.35715 0.65911 -0.01835
 C490 C 0.38000 0.67556 -0.01695
 H491 H 0.38772 0.58719 0.07411
 H492 H 0.42805 0.61521 0.07592
 H493 H 0.34242 0.66361 -0.03426
 H494 H 0.38225 0.69225 -0.03184
 H495 H 0.31680 0.62332 -0.01810
 H496 H 0.34554 0.57488 0.05143
 H497 H 0.45637 0.65215 0.05651
 H498 H 0.42689 0.70176 -0.01191
 C499 C 0.13312 -0.11672 0.47352
 C500 C 0.10850 -0.11423 0.45914
 C501 C 0.09215 -0.13698 0.45781
 C502 C 0.10020 -0.16217 0.47072
 C503 C 0.12529 -0.16443 0.48460
 C504 C 0.14176 -0.14171 0.48618
 C505 C 0.14971 -0.09248 0.47608
 C506 C 0.17390 -0.09471 0.49120
 C507 C 0.18884 -0.07126 0.49472
 C508 C 0.17956 -0.04573 0.48342
 C509 C 0.15571 -0.04410 0.46763
 C510 C 0.14060 -0.06735 0.46406
 C511 C 0.16641 -0.14329 0.50063
 C512 C 0.18219 -0.12018 0.50312
 C513 C 0.10035 -0.08886 0.44694
 C514 C 0.11616 -0.06581 0.44932
 H515 H 0.17336 -0.16246 0.51043
 H516 H 0.20083 -0.12220 0.51479
 H517 H 0.08142 -0.08671 0.43573
 H518 H 0.10896 -0.04654 0.43991
 H519 H 0.07267 -0.13476 0.44753
 H520 H 0.13184 -0.18375 0.49437
 H521 H 0.20702 -0.07265 0.50712
 H522 H 0.14865 -0.02463 0.45852
 C523 C 0.62529 0.36670 0.98414
 C524 C 0.64340 0.36224 1.00583
 C525 C 0.66603 0.37890 1.00749
 C526 C 0.67066 0.39970 0.98755
 C527 C 0.65274 0.40335 0.96553
 C528 C 0.62984 0.38709 0.96388
 C529 C 0.60063 0.35029 0.98308
 C530 C 0.58189 0.35561 0.96206
 C531 C 0.55783 0.34086 0.96185
 C532 C 0.55259 0.32079 0.98235
 C533 C 0.57192 0.31518 1.00289
 C534 C 0.59588 0.33012 1.00353
 C535 C 0.61096 0.39134 0.94280
 C536 C 0.58734 0.37593 0.94196
 C537 C 0.63815 0.34164 1.02571
 C538 C 0.61485 0.32578 1.02452
 H539 H 0.61424 0.40702 0.92706
 H540 H 0.57308 0.38014 0.92558
 H541 H 0.65202 0.33794 1.04249
 H542 H 0.61143 0.31028 1.04041
 H543 H 0.67985 0.37598 1.02442
 H544 H 0.65599 0.41959 0.95035
 H545 H 0.54306 0.34507 0.94591
 H546 H 0.56781 0.29991 1.01883
 C547 C 0.51568 0.12721 1.11518
 C548 C 0.50106 0.13517 1.13833
 C549 C 0.50144 0.11774 1.16168
 C550 C 0.51608 0.09240 1.16183
 C551 C 0.53088 0.08502 1.13843
 C552 C 0.53078 0.10232 1.11512
 C553 C 0.51450 0.14489 1.09026
 C554 C 0.52857 0.13652 1.06696
 C555 C 0.52641 0.15272 1.04299
 C556 C 0.50995 0.17695 1.04203
 C557 C 0.49657 0.18546 1.06580
 C558 C 0.49869 0.16940 1.08998
 C559 C 0.54500 0.09490 1.09154
 C560 C 0.54396 0.11174 1.06787
 C561 C 0.48593 0.16014 1.13746
 C562 C 0.48474 0.17694 1.11369
 H563 H 0.55678 0.07575 1.09129
 H564 H 0.55494 0.10510 1.05002
 H565 H 0.47461 0.16657 1.15518
 H566 H 0.47251 0.19582 1.11378
 H567 H 0.49019 0.12379 1.17960
 H568 H 0.54174 0.06538 1.13798
 H569 H 0.53714 0.14625 1.02493
 H570 H 0.48368 0.20394 1.06519
 C571 C 0.01864 0.62295 0.60887
 C572 C 0.03425 0.61985 0.58509
 C573 C 0.03394 0.64107 0.56512
 C574 C 0.01824 0.66536 0.56880
 C575 C 0.00312 0.66827 0.59308
 C576 C 0.00309 0.64705 0.61308
 C577 C 0.01807 0.60027 0.62949
 C578 C 0.00183 0.60305 0.65293
 C579 C 0.00046 0.58098 0.67193
 C580 C 0.01518 0.55627 0.66758
 C581 C 0.03198 0.55420 0.64428
 C582 C 0.03330 0.57602 0.62506
 C583 C -0.01250 0.64928 0.63704
 C584 C -0.01318 0.62762 0.65659
 C585 C 0.04950 0.59540 0.58156
 C586 C 0.04910 0.57388 0.60124
 H587 H -0.02455 0.66779 0.64055
 H588 H -0.02575 0.63006 0.67460
 H589 H 0.06169 0.59278 0.56332
 H590 H 0.06096 0.55528 0.59762
 H591 H 0.04530 0.63833 0.54641
 H592 H -0.00870 0.68698 0.59638
 H593 H -0.01277 0.58274 0.68959
 H594 H 0.04379 0.53549 0.64094
 C595 C 0.49019 0.86981 -0.11571
 C596 C 0.51218 0.86846 -0.13430
 C597 C 0.51228 0.88676 -0.15696
 C598 C 0.49047 0.90607 -0.16111
 C599 C 0.46826 0.90663 -0.14264
 C600 C 0.46815 0.88875 -0.11973
 C601 C 0.49068 0.85169 -0.09109
 C602 C 0.46935 0.85406 -0.07188
 C603 C 0.47070 0.83798 -0.04779
 C604 C 0.49304 0.81953 -0.04296
 C605 C 0.51381 0.81663 -0.06275
 C606 C 0.51291 0.83301 -0.08679
 C607 C 0.44681 0.88994 -0.10041
 C608 C 0.44746 0.87296 -0.07682
 C609 C 0.53385 0.84923 -0.12953
 C610 C 0.53416 0.83173 -0.10624
 H611 H 0.42971 0.90446 -0.10331
 H612 H 0.43084 0.87486 -0.06217
 H613 H 0.55087 0.84790 -0.14378
 H614 H 0.55141 0.81742 -0.10319
 H615 H 0.52935 0.88620 -0.17123
 H616 H 0.45163 0.92171 -0.14555
 H617 H 0.45468 0.84010 -0.03253
 H618 H 0.53112 0.80257 -0.05887
 C619 C 0.99506 0.38144 0.39186
 C620 C 0.97670 0.36051 0.38897
 C621 C 0.97574 0.33910 0.40876
 C622 C 0.99285 0.33845 0.43175
 C623 C 1.01118 0.36000 0.43395
 C624 C 1.01241 0.38129 0.41417
 C625 C 0.99592 0.40418 0.37131
 C626 C 1.01417 0.42521 0.37442
 C627 C 1.01463 0.44698 0.35513
 C628 C 0.99672 0.44811 0.33298
 C629 C 0.97875 0.42663 0.32998
 C630 C 0.97827 0.40460 0.34912
 C631 C 1.03050 0.40267 0.41651
 C632 C 1.03142 0.42421 0.39692
 C633 C 0.95957 0.36144 0.36630
 C634 C 0.96030 0.38313 0.34677
 H635 H 1.04402 0.40278 0.43366
 H636 H 1.04560 0.44034 0.39954
 H637 H 0.94532 0.34537 0.36374
 H638 H 0.94660 0.38315 0.32974
 H639 H 0.96216 0.32267 0.40554
 H640 H 1.02379 0.36126 0.45159
 H641 H 1.02894 0.46307 0.35737
 H642 H 0.96473 0.42739 0.31316
 C643 C 0.49689 0.87637 0.12346
 C644 C 0.51511 0.87026 0.14470
 C645 C 0.51658 0.88838 0.16572
 C646 C 0.50014 0.91286 0.16564
 C647 C 0.48190 0.91828 0.14382
 C648 C 0.48016 0.90020 0.12293
 C649 C 0.49566 0.85773 0.10102
 C650 C 0.47772 0.86420 0.07957
 C651 C 0.47723 0.84696 0.05789
 C652 C 0.49486 0.82359 0.05723
 C653 C 0.51231 0.81703 0.07922
 C654 C 0.51284 0.83412 0.10117
 C655 C 0.46224 0.90582 0.10124
 C656 C 0.46099 0.88808 0.07996
 C657 C 0.53164 0.84617 0.14441
 C658 C 0.53057 0.82845 0.12299
 H659 H 0.44918 0.92418 0.10061
 H660 H 0.44704 0.89327 0.06351
 H661 H 0.54576 0.84111 0.16074
 H662 H 0.54391 0.81028 0.12342
 H663 H 0.53007 0.88275 0.18236
 H664 H 0.46984 0.93719 0.14199
 H665 H 0.46334 0.85190 0.04133
 H666 H 0.52609 0.79920 0.07881
 C667 C 0.00056 0.38124 0.64218
 C668 C -0.02303 0.36579 0.64555
 C669 C -0.02553 0.34256 0.63036
 C670 C -0.00453 0.33476 0.61213
 C671 C 0.01926 0.35014 0.60957
 C672 C 0.02180 0.37352 0.62434
 C673 C 0.00266 0.40648 0.65691
 C674 C 0.02568 0.42256 0.65249
 C675 C 0.02691 0.44726 0.66534
 C676 C 0.00546 0.45586 0.68262
 C677 C -0.01709 0.43916 0.68759
 C678 C -0.01876 0.41452 0.67446
 C679 C 0.04483 0.38977 0.62103
 C680 C 0.04670 0.41394 0.63481
 C681 C -0.04385 0.37424 0.66358
 C682 C -0.04171 0.39813 0.67786
 H683 H 0.06135 0.38400 0.60732
 H684 H 0.06459 0.42614 0.63134
 H685 H -0.06211 0.36245 0.66645
 H686 H -0.05836 0.40407 0.69133
 H687 H -0.04385 0.33074 0.63246
 H688 H 0.03528 0.34454 0.59524
 H689 H 0.04436 0.46007 0.66165
 H690 H -0.03371 0.44589 0.70075
 C691 C 0.48606 0.12570 0.87525
 C692 C 0.47131 0.10168 0.87798
 C693 C 0.47117 0.08419 0.85644
 C694 C 0.48559 0.09053 0.83218
 C695 C 0.49987 0.11501 0.82963
 C696 C 0.50029 0.13259 0.85117
 C697 C 0.48722 0.14357 0.89830
 C698 C 0.50263 0.16719 0.89589
 C699 C 0.50466 0.18345 0.91831
 C700 C 0.49153 0.17610 0.94301
 C701 C 0.47553 0.15273 0.94475
 C702 C 0.47348 0.13629 0.92255
 C703 C 0.51505 0.15669 0.84934
 C704 C 0.51623 0.17367 0.87133
 C705 C 0.45746 0.09533 0.90243
 C706 C 0.45848 0.11237 0.92432
 H707 H 0.52608 0.16229 0.83086
 H708 H 0.52815 0.19186 0.86917
 H709 H 0.44596 0.07687 0.90475
 H710 H 0.44776 0.10657 0.94292
 H711 H 0.46056 0.06521 0.85894
 H712 H 0.51078 0.12027 0.81100
 H713 H 0.51724 0.20122 0.91684
 H714 H 0.46498 0.14714 0.96351
 C715 C 1.00942 0.62313 0.35573
 C716 C 1.03108 0.62611 0.37360
 C717 C 1.03163 0.64962 0.38852
 C718 C 1.01043 0.66982 0.38611
 C719 C 0.98904 0.66674 0.36780
 C720 C 0.98849 0.64342 0.35245
 C721 C 1.00808 0.59783 0.34095
 C722 C 0.98613 0.59454 0.32346
 C723 C 0.98429 0.56985 0.31046
 C724 C 1.00382 0.54847 0.31553
 C725 C 1.02595 0.55231 0.33267
 C726 C 1.02824 0.57698 0.34539
 C727 C 0.96713 0.63962 0.33441
 C728 C 0.96602 0.61564 0.32009
 C729 C 1.05131 0.60513 0.37685
 C730 C 1.04986 0.58093 0.36305
 H731 H 0.95092 0.65515 0.33161
 H732 H 0.94899 0.61339 0.30666
 H733 H 1.06813 0.60722 0.39058
 H734 H 1.06559 0.56503 0.36653
 H735 H 1.04789 0.65164 0.40291
 H736 H 0.97272 0.68228 0.36582
 H737 H 0.96711 0.56676 0.29744
 H738 H 1.04103 0.53583 0.33649
 C739 C 1.11740 0.48748 0.12881
 C740 C 1.12445 0.46578 0.11231
 C741 C 1.14687 0.46803 0.09436
 C742 C 1.16186 0.49223 0.09205
 C743 C 1.15451 0.51361 0.10931
 C744 C 1.13249 0.51128 0.12771
 C745 C 1.09332 0.48555 0.14710
 C746 C 1.08626 0.50732 0.16359
 C747 C 1.06285 0.50573 0.18033
 C748 C 1.04626 0.48289 0.18008
 C749 C 1.05375 0.46113 0.16364
 C750 C 1.07741 0.46227 0.14722
 C751 C 1.12501 0.53249 0.14477
 C752 C 1.10235 0.53050 0.16249
 C753 C 1.10842 0.44252 0.11351
 C754 C 1.08521 0.44085 0.13057
 H755 H 1.13661 0.55092 0.14423
 H756 H 1.09714 0.54742 0.17511
 H757 H 1.11359 0.42562 0.10084
 H758 H 1.07317 0.42274 0.13056
 H759 H 1.15129 0.45153 0.08102
 H760 H 1.16621 0.53195 0.10901
 H761 H 1.05694 0.52262 0.19278
 H762 H 1.04104 0.44348 0.16355
 C763 C 0.62354 -0.00572 0.62487
 C764 C 0.60547 -0.02706 0.62987
 C765 C 0.58783 -0.02641 0.65245
 C766 C 0.58782 -0.00441 0.66969
 C767 C 0.60625 0.01672 0.66454
 C768 C 0.62427 0.01610 0.64217
 C769 C 0.64154 -0.00590 0.60067
 C770 C 0.65951 0.01552 0.59551
 C771 C 0.67614 0.01553 0.57210
 C772 C 0.67436 -0.00538 0.55376
 C773 C 0.65640 -0.02679 0.55940
 C774 C 0.64002 -0.02721 0.58287
 C775 C 0.64268 0.03704 0.63648
 C776 C 0.66008 0.03671 0.61360
 C777 C 0.60494 -0.04829 0.61186
 C778 C 0.62187 -0.04833 0.58871
 H779 H 0.64352 0.05395 0.64971
 H780 H 0.67383 0.05335 0.60986
 H781 H 0.59107 -0.06486 0.61552
 H782 H 0.62060 -0.06492 0.57515
 H783 H 0.57339 -0.04251 0.65606
 H784 H 0.60639 0.03364 0.67783
 H785 H 0.68983 0.03213 0.56770
 H786 H 0.65521 -0.04306 0.54544
 C787 C -0.11829 0.51157 0.87067
 C788 C -0.13433 0.48846 0.86980
 C789 C -0.15631 0.48538 0.88818
 C790 C -0.16231 0.50529 0.90722
 C791 C -0.14632 0.52860 0.90741
 C792 C -0.12416 0.53175 0.88932
 C793 C -0.09441 0.51434 0.85223
 C794 C -0.07776 0.53692 0.85389
 C795 C -0.05433 0.53878 0.83729
 C796 C -0.04753 0.51830 0.81910
 C797 C -0.06488 0.49620 0.81708
 C798 C -0.08825 0.49398 0.83384
 C799 C -0.10738 0.55435 0.88993
 C800 C -0.08452 0.55687 0.87255
 C801 C -0.12777 0.46871 0.85086
 C802 C -0.10516 0.47145 0.83314
 H803 H -0.11172 0.57005 0.90422
 H804 H -0.07186 0.57441 0.87395
 H805 H -0.14004 0.45084 0.84991
 H806 H -0.10064 0.45561 0.81906
 H807 H -0.16867 0.46750 0.88781
 H808 H -0.15057 0.54380 0.92224
 H809 H -0.04111 0.55592 0.83874
 H810 H -0.05956 0.48027 0.80329
 C811 C 0.37658 -0.00075 0.37519
 C812 C 0.39620 -0.02221 0.37280
 C813 C 0.41440 -0.02178 0.35065
 C814 C 0.41344 0.00013 0.33126
 C815 C 0.39357 0.02145 0.33385
 C816 C 0.37493 0.02101 0.35575
 C817 C 0.35791 -0.00073 0.39890
 C818 C 0.33841 0.02083 0.40149
 C819 C 0.32134 0.02118 0.42459
 C820 C 0.32431 0.00055 0.44515
 C821 C 0.34368 -0.02107 0.44205
 C822 C 0.36046 -0.02189 0.41890
 C823 C 0.35495 0.04206 0.35887
 C824 C 0.33693 0.04192 0.38129
 C825 C 0.39766 -0.04335 0.39291
 C826 C 0.38015 -0.04314 0.41564
 H827 H 0.35338 0.05892 0.34397
 H828 H 0.32200 0.05867 0.38304
 H829 H 0.41272 -0.06000 0.39126
 H830 H 0.38222 -0.05961 0.43091
 H831 H 0.42993 -0.03802 0.34895
 H832 H 0.39272 0.03830 0.31889
 H833 H 0.30656 0.03795 0.42713
 H834 H 0.34586 -0.03700 0.45789
 C835 C 0.12362 0.52668 0.86982
 C836 C 0.12443 0.54602 0.88980
 C837 C 0.14607 0.54447 0.90823
 C838 C 0.16641 0.52341 0.90709
 C839 C 0.16559 0.50455 0.88657
 C840 C 0.14425 0.50611 0.86785
 C841 C 0.10017 0.52733 0.85130
 C842 C 0.09904 0.50759 0.83175
 C843 C 0.07602 0.50743 0.81512
 C844 C 0.05403 0.52644 0.81838
 C845 C 0.05577 0.54648 0.83767
 C846 C 0.07883 0.54703 0.85419
 C847 C 0.14269 0.48706 0.84766
 C848 C 0.12050 0.48784 0.82986
 C849 C 0.10310 0.56593 0.89151
 C850 C 0.08064 0.56638 0.87405
 H851 H 0.15854 0.47117 0.84586
 H852 H 0.11988 0.47252 0.81485
 H853 H 0.10349 0.58097 0.90682
 H854 H 0.06436 0.58175 0.87640
 H855 H 0.14643 0.55883 0.92418
 H856 H 0.18132 0.48842 0.88554
 H857 H 0.07461 0.49176 0.80053
 H858 H 0.03893 0.56124 0.84013
 C859 C 0.63065 -0.01438 0.38154
 C860 C 0.63782 0.00185 0.35860
 C861 C 0.62106 0.00244 0.33575
 C862 C 0.59696 -0.01263 0.33593
 C863 C 0.59036 -0.02904 0.35912
 C864 C 0.60717 -0.03008 0.38188
 C865 C 0.64761 -0.01433 0.40596
 C866 C 0.64013 -0.03022 0.42902
 C867 C 0.65564 -0.02930 0.45252
 C868 C 0.67814 -0.01212 0.45336
 C869 C 0.68571 0.00323 0.42979
 C870 C 0.67051 0.00218 0.40603
 C871 C 0.60058 -0.04604 0.40522
 C872 C 0.61686 -0.04620 0.42836
 C873 C 0.66128 0.01760 0.35920
 C874 C 0.67729 0.01784 0.38254
 H875 H 0.58255 -0.05831 0.40569
 H876 H 0.61090 -0.05857 0.44603
 H877 H 0.66708 0.03018 0.34162
 H878 H 0.69495 0.03061 0.38228
 H879 H 0.62666 0.01483 0.31797
 H880 H 0.57166 -0.04031 0.35990
 H881 H 0.64993 -0.04164 0.47031
 H882 H 0.70276 0.01675 0.43022
 C883 C 0.87498 0.47577 0.13113
 C884 C 0.87347 0.45547 0.11220
 C885 C 0.85185 0.45683 0.09376
 C886 C 0.83222 0.47860 0.09382
 C887 C 0.83378 0.49853 0.11324
 C888 C 0.85512 0.49718 0.13200
 C889 C 0.89840 0.47518 0.14970
 C890 C 0.90026 0.49583 0.16822
 C891 C 0.92329 0.49598 0.18485
 C892 C 0.94461 0.47604 0.18253
 C893 C 0.94211 0.45512 0.16432
 C894 C 0.91901 0.45457 0.14786
 C895 C 0.85738 0.51717 0.15118
 C896 C 0.87953 0.51646 0.16904
 C897 C 0.89406 0.43471 0.11154
 C898 C 0.91649 0.43432 0.12902
 H899 H 0.84212 0.53372 0.15213
 H900 H 0.88071 0.53249 0.18324
 H901 H 0.89310 0.41892 0.09705
 H902 H 0.93221 0.41825 0.12748
 H903 H 0.85094 0.44163 0.07864
 H904 H 0.81860 0.51523 0.11345
 H905 H 0.92532 0.51231 0.19860
 H906 H 0.95844 0.43968 0.16258
 C907 C 0.37321 -0.00242 0.61696
 C908 C 0.36518 0.01347 0.63876
 C909 C 0.38189 0.01310 0.66167
 C910 C 0.40667 -0.00271 0.66265
 C911 C 0.41431 -0.01839 0.64041
 C912 C 0.39761 -0.01850 0.61769
 C913 C 0.35600 -0.00189 0.59269
 C914 C 0.36417 -0.01776 0.57093
 C915 C 0.34810 -0.01684 0.54773
 C916 C 0.32429 0.00030 0.54576
 C917 C 0.31614 0.01581 0.56797
 C918 C 0.33194 0.01475 0.59153
 C919 C 0.40501 -0.03421 0.59556
 C920 C 0.38849 -0.03394 0.57262
 C921 C 0.34075 0.02955 0.63706
 C922 C 0.32447 0.03026 0.61382
 H923 H 0.42377 -0.04675 0.59595
 H924 H 0.39499 -0.04627 0.55593
 H925 H 0.33428 0.04190 0.65374
 H926 H 0.30594 0.04315 0.61325
 H927 H 0.37556 0.02505 0.67868
 H928 H 0.43358 -0.03010 0.64045
 H929 H 0.35424 -0.02940 0.53110
 H930 H 0.29798 0.02920 0.56666
   
