data_POSCAR
  _audit_creation_date              2014-09-24
  _audit_creation_method            'ToBaCCo'
  _symmetry_space_group_name_H-M    'P1'
  _symmetry_Int_Tables_number       1
  _symmetry_cell_setting            triclinic
  loop_
  _symmetry_equiv_pos_as_xyz
 x,y,z
_cell_length_a 44.0814
_cell_length_b 43.8870
_cell_length_c 41.8918
_cell_angle_alpha 89.768800
_cell_angle_beta 91.040700
_cell_angle_gamma 91.158100
loop_
  _atom_site_label
  _atom_site_type_symbol
  _atom_site_fract_x
  _atom_site_fract_y
  _atom_site_fract_z
C1 C 0.18522 0.23297 0.22040
 C2 C 0.19970 0.24334 0.19281
 C3 C 0.22479 0.22849 0.18176
 C4 C 0.23583 0.20304 0.19840
 C5 C 0.22150 0.19286 0.22567
 C6 C 0.19602 0.20793 0.23674
 C7 C 0.16023 0.24284 0.23621
 N8 N 0.15552 0.22428 0.26182
 C9 C 0.17741 0.20296 0.26234
 C10 C 0.23673 0.16778 0.23667
 N11 N 0.26006 0.16242 0.21675
 C12 C 0.25964 0.18392 0.19333
 C13 C 0.23392 0.24356 0.15452
 N14 N 0.21490 0.26716 0.14897
 C15 C 0.19402 0.26714 0.17233
 H16 H 0.14673 0.26216 0.22934
 H17 H 0.17945 0.18497 0.27997
 H18 H 0.23094 0.15460 0.25762
 H19 H 0.27546 0.18540 0.17388
 H20 H 0.25317 0.23783 0.14025
 H21 H 0.17597 0.28337 0.17426
 C22 C 0.69175 0.72565 0.71068
 C23 C 0.70694 0.73771 0.68423
 C24 C 0.73181 0.72310 0.67235
 C25 C 0.74191 0.69618 0.68693
 C26 C 0.72691 0.68434 0.71306
 C27 C 0.70166 0.69917 0.72501
 C28 C 0.66697 0.73506 0.72718
 N29 N 0.66154 0.71486 0.75126
 C30 C 0.68274 0.69290 0.75009
 C31 C 0.74149 0.65827 0.72228
 N32 N 0.76510 0.65394 0.70240
 C33 C 0.76545 0.67704 0.68073
 C34 C 0.74182 0.73993 0.64662
 N35 N 0.72356 0.76438 0.64272
 C36 C 0.70227 0.76315 0.66569
 H37 H 0.65421 0.75530 0.72191
 H38 H 0.68424 0.67373 0.76636
 H39 H 0.73507 0.64375 0.74204
 H40 H 0.78171 0.67969 0.66180
 H41 H 0.76107 0.73464 0.63216
 H42 H 0.68456 0.77960 0.66860
 C43 C 0.31995 0.78392 0.72384
 C44 C 0.30306 0.77180 0.69818
 C45 C 0.27631 0.78508 0.68839
 C46 C 0.26598 0.81076 0.70461
 C47 C 0.28268 0.82271 0.73015
 C48 C 0.30999 0.80917 0.73983
 C49 C 0.34677 0.77536 0.73793
 N50 N 0.35367 0.79488 0.76223
 C51 C 0.33118 0.81555 0.76369
 C52 C 0.26736 0.84754 0.74109
 N53 N 0.24171 0.85097 0.72282
 C54 C 0.24083 0.82853 0.70051
 C55 C 0.26522 0.76851 0.66258
 N56 N 0.28477 0.74559 0.65680
 C57 C 0.30782 0.74750 0.67856
 H58 H 0.35977 0.75590 0.73107
 H59 H 0.33031 0.83386 0.78087
 H60 H 0.27477 0.86187 0.76077
 H61 H 0.22315 0.82541 0.68245
 H62 H 0.24451 0.77291 0.64926
 H63 H 0.32690 0.73235 0.67981
 C64 C 0.80844 0.27034 0.22256
 C65 C 0.78997 0.26059 0.19656
 C66 C 0.76381 0.27629 0.18872
 C67 C 0.75564 0.30174 0.20660
 C68 C 0.77377 0.31101 0.23206
 C69 C 0.80000 0.29529 0.24010
 C70 C 0.83550 0.26045 0.23598
 N71 N 0.84311 0.27891 0.26120
 C72 C 0.82137 0.30008 0.26370
 C73 C 0.76124 0.33641 0.24482
 N74 N 0.73575 0.34298 0.22790
 C75 C 0.73197 0.32186 0.20435
 C76 C 0.75057 0.26222 0.16260
 N77 N 0.76771 0.23828 0.15430
 C78 C 0.79196 0.23710 0.17491
 H79 H 0.84836 0.24132 0.22787
 H80 H 0.82128 0.31804 0.28138
 H81 H 0.77015 0.34942 0.26494
 H82 H 0.71382 0.32132 0.18662
 H83 H 0.72985 0.26889 0.15044
 H84 H 0.80992 0.22070 0.17426
 C85 C 0.80727 0.71350 0.28380
 C86 C 0.79021 0.72512 0.30889
 C87 C 0.76576 0.70839 0.32025
 C88 C 0.75789 0.68012 0.30690
 C89 C 0.77447 0.66866 0.28218
 C90 C 0.79935 0.68553 0.27051
 C91 C 0.83227 0.72453 0.26780
 N92 N 0.83965 0.70395 0.24502
 C93 C 0.81953 0.68014 0.24662
 C94 C 0.76124 0.64099 0.27384
 N95 N 0.73704 0.63564 0.29300
 C96 C 0.73495 0.65949 0.31323
 C97 C 0.75341 0.72467 0.34449
 N98 N 0.76956 0.75103 0.34826
 C99 C 0.79224 0.75160 0.32657
 H100 H 0.84384 0.74602 0.27261
 H101 H 0.81961 0.66019 0.23147
 H102 H 0.76860 0.62629 0.25496
 H103 H 0.71770 0.66178 0.33109
 H104 H 0.73405 0.71780 0.35855
 H105 H 0.80918 0.76956 0.32396
 C106 C 0.31317 0.23399 -0.22169
 C107 C 0.29265 0.24226 -0.19823
 C108 C 0.26817 0.22334 -0.19146
 C109 C 0.26379 0.19592 -0.20813
 C110 C 0.28400 0.18773 -0.23130
 C111 C 0.30895 0.20694 -0.23815
 C112 C 0.33927 0.24773 -0.23268
 N113 N 0.35117 0.22981 -0.25546
 C114 C 0.33265 0.20470 -0.25897
 C115 C 0.27426 0.15986 -0.24306
 N116 N 0.24867 0.15093 -0.22764
 C117 C 0.24216 0.17301 -0.20615
 C118 C 0.25275 0.23658 -0.16701
 N119 N 0.26723 0.26307 -0.15881
 C120 C 0.29175 0.26672 -0.17785
 H121 H 0.34905 0.26923 -0.22452
 H122 H 0.33590 0.18595 -0.27513
 H123 H 0.28509 0.14694 -0.26149
 H124 H 0.22328 0.17287 -0.19005
 H125 H 0.23271 0.22736 -0.15559
 H126 H 0.30829 0.28523 -0.17667
 C127 C 0.69054 0.27245 -0.20738
 C128 C 0.70803 0.26284 -0.18086
 C129 C 0.73410 0.27913 -0.17206
 C130 C 0.74316 0.30496 -0.18945
 C131 C 0.72605 0.31428 -0.21541
 C132 C 0.69974 0.29795 -0.22445
 C133 C 0.66405 0.26159 -0.22187
 N134 N 0.65735 0.27997 -0.24731
 C135 C 0.67916 0.30212 -0.24888
 C136 C 0.73994 0.33992 -0.22773
 N137 N 0.76533 0.34644 -0.20980
 C138 C 0.76740 0.32505 -0.18636
 C139 C 0.74649 0.26507 -0.14574
 N140 N 0.72889 0.24050 -0.13822
 C141 C 0.70519 0.23890 -0.15956
 H142 H 0.65103 0.24178 -0.21434
 H143 H 0.67995 0.32016 -0.26661
 H144 H 0.73182 0.35250 -0.24830
 H145 H 0.78526 0.32421 -0.16829
 H146 H 0.76699 0.27214 -0.13293
 H147 H 0.68707 0.22191 -0.15962
 C148 C 0.17979 0.77491 0.27980
 C149 C 0.20042 0.76876 0.30466
 C150 C 0.22476 0.78831 0.31040
 C151 C 0.22887 0.81426 0.29132
 C152 C 0.20864 0.82047 0.26664
 C153 C 0.18376 0.80051 0.26077
 C154 C 0.15383 0.75999 0.26946
 N155 N 0.14178 0.77561 0.24449
 C156 C 0.15991 0.80055 0.23893
 C157 C 0.21842 0.84744 0.25274
 N158 N 0.24397 0.85761 0.26845
 C159 C 0.25040 0.83720 0.29211
 C160 C 0.24058 0.77712 0.33635
 N161 N 0.22649 0.75115 0.34638
 C162 C 0.20177 0.74589 0.32712
 H163 H 0.14424 0.73922 0.27946
 H164 H 0.15601 0.81772 0.22083
 H165 H 0.20762 0.85892 0.23276
 H166 H 0.26919 0.83844 0.30900
 H167 H 0.26079 0.78723 0.34734
 H168 H 0.18547 0.72730 0.32942
 C169 C 0.47892 0.44055 0.48813
 C170 C 0.48621 0.45737 0.46049
 C171 C 0.46980 0.48298 0.45255
 C172 C 0.44604 0.49218 0.47180
 C173 C 0.43889 0.47570 0.49883
 C174 C 0.45542 0.44983 0.50707
 C175 C 0.49011 0.41423 0.50178
 N176 N 0.47389 0.40760 0.52842
 C177 C 0.45273 0.42930 0.53168
 C178 C 0.41423 0.48911 0.51219
 N179 N 0.40626 0.51338 0.49396
 C180 C 0.42567 0.51546 0.46911
 C181 C 0.48114 0.49453 0.42460
 N182 N 0.50408 0.47677 0.41514
 C183 C 0.50742 0.45388 0.43697
 H184 H 0.50842 0.40094 0.49266
 H185 H 0.43625 0.42986 0.55052
 H186 H 0.40255 0.48146 0.53337
 H187 H 0.42480 0.53201 0.44995
 H188 H 0.47318 0.51446 0.41190
 H189 H 0.52385 0.43596 0.43601
 C190 C -0.03796 -0.07916 0.96552
 C191 C -0.02449 -0.06204 0.94109
 C192 C -0.03720 -0.03501 0.93090
 C193 C -0.06372 -0.02472 0.94527
 C194 C -0.07683 -0.04170 0.96944
 C195 C -0.06389 -0.06901 0.97963
 C196 C -0.03006 -0.10578 0.98069
 N197 N -0.05062 -0.11197 1.00391
 C198 C -0.07136 -0.08950 1.00328
 C199 C -0.10172 -0.02642 0.97948
 N200 N -0.10434 -0.00028 0.96205
 C201 C -0.08113 0.00084 0.94103
 C202 C -0.01877 -0.02318 0.90741
 N203 N 0.00471 -0.04245 0.90329
 C204 C 0.00131 -0.06614 0.92387
 H205 H -0.01034 -0.11894 0.97533
 H206 H -0.09034 -0.08795 1.01923
 H207 H -0.11653 -0.03423 0.99822
 H208 H -0.07708 0.01905 0.92401
 H209 H -0.02213 -0.00192 0.89483
 H210 H 0.01670 -0.08497 0.92624
 C211 C 1.01869 0.56165 0.97108
 C212 C 1.00862 0.54769 0.94267
 C213 C 1.02453 0.52385 0.93018
 C214 C 1.05075 0.51360 0.94596
 C215 C 1.06080 0.52743 0.97392
 C216 C 1.04460 0.55167 0.98661
 C217 C 1.00778 0.58545 0.98842
 N218 N 1.02648 0.59030 1.01429
 C219 C 1.04904 0.56966 1.01324
 C220 C 1.08682 0.51295 0.98371
 N221 N 1.09273 0.49055 0.96233
 C222 C 1.07069 0.49092 0.93924
 C223 C 1.00974 0.51490 0.90245
 N224 N 0.98516 0.53280 0.89783
 C225 C 0.98435 0.55285 0.92238
 H226 H 0.98784 0.59822 0.98205
 H227 H 1.06749 0.56797 1.03055
 H228 H 1.10012 0.51858 1.00488
 H229 H 1.06932 0.47577 0.91889
 H230 H 1.01656 0.49665 0.88707
 H231 H 0.96731 0.57002 0.92519
 C232 C 0.53271 0.06755 0.47312
 C233 C 0.51931 0.05239 0.44702
 C234 C 0.53288 0.02717 0.43430
 C235 C 0.56016 0.01668 0.44786
 C236 C 0.57335 0.03168 0.47378
 C237 C 0.55951 0.05736 0.48652
 C238 C 0.52418 0.09250 0.49012
 N239 N 0.54525 0.09794 0.51364
 C240 C 0.56685 0.07641 0.51172
 C241 C 0.59942 0.01660 0.48199
 N242 N 0.60248 -0.00734 0.46170
 C243 C 0.57851 -0.00733 0.44079
 C244 C 0.51468 0.01736 0.40909
 N245 N 0.49050 0.03614 0.40643
 C246 C 0.49322 0.05749 0.42962
 H247 H 0.50371 0.10518 0.48585
 H248 H 0.58643 0.07474 0.52756
 H249 H 0.61473 0.02298 0.50138
 H250 H 0.57467 -0.02368 0.42177
 H251 H 0.51880 -0.00211 0.39415
 H252 H 0.47733 0.07556 0.43345
 C253 C -0.01508 0.06828 0.52538
 C254 C -0.00335 0.05218 0.55168
 C255 C -0.01809 0.02602 0.56231
 C256 C -0.04476 0.01556 0.54677
 C257 C -0.05620 0.03143 0.52083
 C258 C -0.04127 0.05785 0.51004
 C259 C -0.00582 0.09454 0.50994
 N260 N -0.02587 0.10015 0.48563
 C261 C -0.04749 0.07775 0.48552
 C262 C -0.08224 0.01649 0.51061
 N263 N -0.08704 -0.00816 0.52981
 C264 C -0.06413 -0.00893 0.55190
 C265 C -0.00191 0.01545 0.58832
 N266 N 0.02234 0.03457 0.59372
 C267 C 0.02157 0.05703 0.57137
 H268 H 0.01416 0.10818 0.51595
 H269 H -0.06651 0.07618 0.46883
 H270 H -0.09631 0.02324 0.49051
 H271 H -0.06185 -0.02602 0.57046
 H272 H -0.00771 -0.00463 0.60212
 H273 H 0.03790 0.07572 0.56975
 C274 C 0.47904 0.56985 0.03228
 C275 C 0.48263 0.55153 0.05963
 C276 C 0.46185 0.52831 0.06566
 C277 C 0.43733 0.52298 0.04461
 C278 C 0.43381 0.54083 0.01763
 C279 C 0.45483 0.56446 0.01143
 C280 C 0.49544 0.59424 0.02030
 N281 N 0.48183 0.60385 -0.00724
 C282 C 0.45693 0.58554 -0.01283
 C283 C 0.40828 0.53007 0.00151
 N284 N 0.39624 0.50628 0.01818
 C285 C 0.41403 0.50174 0.04457
 C286 C 0.47087 0.51409 0.09339
 N287 N 0.49672 0.52792 0.10445
 C288 C 0.50412 0.55098 0.08395
 H289 H 0.51576 0.60443 0.03100
 H290 H 0.44110 0.58719 -0.03273
 H291 H 0.39915 0.53879 -0.02081
 H292 H 0.41090 0.48400 0.06226
 H293 H 0.45961 0.49479 0.10461
 H294 H 0.52363 0.56620 0.08619
 C295 C 0.51688 -0.07437 0.03987
 C296 C 0.50448 -0.05561 0.06289
 C297 C 0.51959 -0.02921 0.07231
 C298 C 0.54745 -0.02118 0.05859
 C299 C 0.55972 -0.03967 0.03562
 C300 C 0.54422 -0.06654 0.02608
 C301 C 0.50686 -0.10133 0.02668
 N302 N 0.52717 -0.11016 0.00489
 C303 C 0.55026 -0.08907 0.00430
 C304 C 0.58682 -0.02623 0.02672
 N305 N 0.59121 -0.00005 0.04373
 C306 C 0.56722 0.00310 0.06321
 C307 C 0.50219 -0.01581 0.09516
 N308 N 0.47694 -0.03361 0.09962
 C309 C 0.47821 -0.05789 0.07987
 H310 H 0.48604 -0.11360 0.03227
 H311 H 0.57005 -0.09001 -0.01054
 H312 H 0.60198 -0.03509 0.00918
 H313 H 0.56439 0.02180 0.07961
 H314 H 0.50767 0.00531 0.10738
 H315 H 0.46130 -0.07609 0.07824
 C316 C 1.03085 0.44417 0.52485
 C317 C 1.02078 0.46063 0.55127
 C318 C 1.03829 0.48470 0.56302
 C319 C 1.06573 0.49277 0.54884
 C320 C 1.07575 0.47671 0.52300
 C321 C 1.05813 0.45227 0.51083
 C322 C 1.01884 0.41969 0.50798
 N323 N 1.03818 0.41288 0.48414
 C324 C 1.06212 0.43276 0.48576
 C325 C 1.10306 0.48987 0.51425
 N326 N 1.10954 0.51369 0.53425
 C327 C 1.08673 0.51545 0.55541
 C328 C 1.02368 0.49652 0.58858
 N329 N 0.99756 0.48041 0.59291
 C330 C 0.99544 0.45830 0.57017
 H331 H 0.99754 0.40806 0.51275
 H332 H 1.08119 0.43292 0.46981
 H333 H 1.11664 0.48270 0.49451
 H334 H 1.08542 0.53225 0.57420
 H335 H 1.03154 0.51549 0.60320
 H336 H 0.97720 0.44158 0.56764
 C337 C 0.40925 0.02518 0.21105
 H338 H 0.40980 0.04548 0.22563
 C339 C 0.42993 0.02220 0.18654
 H340 H 0.44620 0.04049 0.18212
 C341 C 0.38823 -0.02390 0.20026
 H342 H 0.37270 -0.04223 0.20648
 C343 C 0.40862 -0.02792 0.17559
 H344 H 0.40822 -0.04955 0.16337
 N345 N 0.38894 0.00233 0.21739
 C346 C 0.32301 0.04930 0.27464
 H347 H 0.32384 0.03598 0.29642
 C348 C 0.30367 0.07403 0.27209
 H349 H 0.28974 0.07975 0.29216
 C350 C 0.33959 0.05744 0.22177
 H351 H 0.35299 0.05039 0.20188
 C352 C 0.32050 0.08226 0.21813
 H353 H 0.31963 0.09368 0.19525
 Zn354 Zn 0.36535 0.00707 0.25403
 N355 N 0.34072 0.04170 0.24979
 C356 C 0.39602 0.03644 0.30678
 N357 N 0.39382 0.01119 0.28813
 C358 C 0.41379 -0.01186 0.29150
 C359 C 0.43679 -0.01039 0.31474
 C360 C 0.41880 0.03890 0.33035
 C361 C 0.31872 -0.03578 0.23812
 C362 C 0.29987 -0.06145 0.24263
 C363 C 0.32382 -0.06872 0.29434
 C364 C 0.34214 -0.04308 0.28882
 N365 N 0.33969 -0.02745 0.26086
 H366 H 0.38060 0.05498 0.30297
 H367 H 0.41190 -0.03138 0.27584
 H368 H 0.45246 -0.02902 0.31702
 H369 H 0.42046 0.05962 0.34417
 H370 H 0.31697 -0.02270 0.21624
 H371 H 0.28410 -0.06799 0.22373
 H372 H 0.32642 -0.08097 0.31669
 H373 H 0.35826 -0.03568 0.30704
 C374 C 0.30232 0.09104 0.24366
 C375 C 0.42994 -0.00461 0.16848
 C376 C 0.30242 -0.07838 0.27114
 C377 C 0.43949 0.01508 0.33471
 C378 C 0.08741 -0.01983 0.71257
 H379 H 0.08732 -0.04028 0.72709
 C380 C 0.06758 -0.01762 0.68639
 H381 H 0.05239 -0.03663 0.68074
 C382 C 0.10666 0.03011 0.70315
 H383 H 0.12126 0.04900 0.71035
 C384 C 0.08708 0.03336 0.67679
 H385 H 0.08715 0.05494 0.66430
 N386 N 0.10656 0.00375 0.72032
 C387 C 0.17499 -0.04099 0.77980
 H388 H 0.17356 -0.02809 0.80166
 C389 C 0.19578 -0.06450 0.77766
 H390 H 0.21019 -0.06969 0.79810
 C391 C 0.15855 -0.04925 0.72636
 H392 H 0.14466 -0.04268 0.70608
 C393 C 0.17907 -0.07284 0.72313
 H394 H 0.18054 -0.08378 0.70016
 Zn395 Zn 0.13022 -0.00065 0.75810
 N396 N 0.15668 -0.03403 0.75446
 C397 C 0.10111 -0.03279 0.80906
 N398 N 0.10207 -0.00681 0.79130
 C399 C 0.08109 0.01515 0.79485
 C400 C 0.05826 0.01170 0.81730
 C401 C 0.07854 -0.03727 0.83176
 C402 C 0.17524 0.04322 0.74369
 C403 C 0.19334 0.06945 0.74805
 C404 C 0.16903 0.07742 0.79845
 C405 C 0.15136 0.05112 0.79307
 N406 N 0.15444 0.03485 0.76582
 H407 H 0.11737 -0.05043 0.80516
 H408 H 0.08196 0.03530 0.77990
 H409 H 0.04176 0.02947 0.81966
 H410 H 0.07809 -0.05854 0.84480
 H411 H 0.17740 0.02970 0.72234
 H412 H 0.20888 0.07594 0.72945
 H413 H 0.16604 0.09020 0.82020
 H414 H 0.13525 0.04377 0.81077
 C415 C 0.19793 -0.08096 0.74915
 C416 C 0.06717 0.00918 0.66805
 C417 C 0.19036 0.08699 0.77585
 C418 C 0.05668 -0.01470 0.83622
 C419 C 0.57039 0.48223 0.21089
 H420 H 0.56704 0.46000 0.22168
 C421 C 0.55210 0.49107 0.18502
 H422 H 0.53518 0.47502 0.17596
 C423 C 0.59764 0.52924 0.20920
 H424 H 0.61518 0.54426 0.21884
 C425 C 0.57987 0.53904 0.18341
 H426 H 0.58418 0.56143 0.17327
 N427 N 0.59305 0.50102 0.22199
 C428 C 0.65812 0.44011 0.26631
 H429 H 0.66072 0.45128 0.28921
 C430 C 0.67488 0.41439 0.25984
 H431 H 0.68962 0.40560 0.27846
 C432 C 0.63475 0.43797 0.21497
 H433 H 0.61948 0.44757 0.19736
 C434 C 0.65133 0.41223 0.20734
 H435 H 0.64849 0.40203 0.18395
 Zn436 Zn 0.61862 0.48727 0.25569
 N437 N 0.63842 0.45127 0.24412
 C438 C 0.59263 0.45175 0.30559
 N439 N 0.59477 0.48012 0.29248
 C440 C 0.57977 0.50386 0.30514
 C441 C 0.56265 0.49979 0.33266
 C442 C 0.57573 0.44664 0.33305
 C443 C 0.66921 0.52243 0.23946
 C444 C 0.69197 0.54483 0.24256
 C445 C 0.67534 0.55427 0.29618
 C446 C 0.65284 0.53167 0.29203
 N447 N 0.64971 0.51685 0.26369
 H448 H 0.60395 0.43290 0.29479
 H449 H 0.58156 0.52614 0.29411
 H450 H 0.55198 0.51943 0.34272
 H451 H 0.57451 0.42394 0.34325
 H452 H 0.66658 0.50986 0.21739
 H453 H 0.70680 0.54949 0.22271
 H454 H 0.67742 0.56556 0.31903
 H455 H 0.63790 0.52612 0.31144
 C456 C 0.67209 0.40044 0.22971
 C457 C 0.55683 0.51991 0.17083
 C458 C 0.69479 0.56164 0.27086
 C459 C 0.56039 0.47075 0.34698
 C460 C 0.91285 0.51295 0.69049
 H461 H 0.91437 0.53432 0.70326
 C462 C 0.93120 0.50825 0.66427
 H463 H 0.94609 0.52666 0.65668
 C464 C 0.89088 0.46350 0.68493
 H465 H 0.87561 0.44586 0.69347
 C466 C 0.90897 0.45775 0.65866
 H467 H 0.90723 0.43579 0.64699
 N468 N 0.89316 0.49077 0.70026
 C469 C 0.82860 0.54009 0.75729
 H470 H 0.82965 0.52664 0.77897
 C471 C 0.80901 0.56459 0.75505
 H472 H 0.79511 0.56998 0.77525
 C473 C 0.84497 0.54881 0.70443
 H474 H 0.85844 0.54208 0.68447
 C475 C 0.82561 0.57351 0.70112
 H476 H 0.82457 0.58524 0.67841
 Zn477 Zn 0.87109 0.49842 0.73757
 N478 N 0.84635 0.53290 0.73235
 C479 C 0.90109 0.53075 0.78838
 N480 N 0.89968 0.50443 0.77135
 C481 C 0.91936 0.48157 0.77740
 C482 C 0.94083 0.48422 0.80218
 C483 C 0.92224 0.53438 0.81340
 C484 C 0.82320 0.45770 0.72463
 C485 C 0.80302 0.43343 0.73003
 C486 C 0.82730 0.42543 0.78147
 C487 C 0.84715 0.44977 0.77498
 N488 N 0.84503 0.46503 0.74675
 H489 H 0.88598 0.54909 0.78251
 H490 H 0.91813 0.46111 0.76308
 H491 H 0.95607 0.46561 0.80688
 H492 H 0.92310 0.55575 0.82616
 H493 H 0.82164 0.47067 0.70267
 H494 H 0.78597 0.42775 0.71196
 H495 H 0.82930 0.41425 0.80440
 H496 H 0.86393 0.45667 0.79275
 C497 C 0.80743 0.58184 0.72684
 C498 C 0.92988 0.48002 0.64839
 C499 C 0.80505 0.41670 0.75857
 C500 C 0.94218 0.51064 0.82091
 C501 C 0.20570 0.42684 0.01528
 H502 H 0.21933 0.42512 0.03693
 C503 C 0.18124 0.44653 0.01397
 H504 H 0.17606 0.45979 0.03486
 C505 C 0.19646 0.41203 -0.03837
 H506 H 0.20291 0.39905 -0.05894
 C507 C 0.17187 0.43158 -0.04081
 H508 H 0.16007 0.43327 -0.06355
 N509 N 0.21259 0.40979 -0.01052
 C510 C 0.26387 0.33443 0.03012
 H511 H 0.28394 0.33587 0.01566
 C512 C 0.26153 0.31220 0.05392
 H513 H 0.27999 0.29660 0.05777
 C514 C 0.21541 0.35301 0.04247
 H515 H 0.19722 0.36854 0.03751
 C516 C 0.21207 0.33107 0.06646
 H517 H 0.19103 0.33006 0.07930
 Zn518 Zn 0.24689 0.38468 -0.00679
 N519 N 0.24130 0.35471 0.02534
 C520 C 0.29654 0.40618 0.03147
 N521 N 0.28053 0.41038 0.00382
 C522 C 0.28740 0.43382 -0.01630
 C523 C 0.31187 0.45361 -0.00944
 C524 C 0.32113 0.42537 0.03926
 C525 C 0.23204 0.34333 -0.05555
 C526 C 0.23678 0.32545 -0.08245
 C527 C 0.28604 0.34986 -0.08782
 C528 C 0.28035 0.36725 -0.06084
 N529 N 0.25369 0.36369 -0.04529
 H530 H 0.29020 0.38810 0.04771
 H531 H 0.27381 0.43708 -0.03776
 H532 H 0.31649 0.47211 -0.02583
 H533 H 0.33372 0.42150 0.06131
 H534 H 0.21115 0.34077 -0.04255
 H535 H 0.21892 0.30981 -0.09024
 H536 H 0.30756 0.35273 -0.09967
 H537 H 0.29758 0.38303 -0.05197
 C538 C 0.23568 0.31067 0.07291
 C539 C 0.16375 0.44899 -0.01420
 C540 C 0.26439 0.32825 -0.09866
 C541 C 0.32936 0.44926 0.01860
 C542 C 0.70727 0.06114 -0.00991
 H543 H 0.72088 0.06108 -0.03114
 C544 C 0.68306 0.04042 -0.00696
 H545 H 0.67808 0.02448 -0.02612
 C546 C 0.69761 0.08182 0.04096
 H547 H 0.70375 0.09758 0.05984
 C548 C 0.67313 0.06145 0.04492
 H549 H 0.66101 0.06183 0.06711
 N550 N 0.71382 0.08159 0.01365
 C551 C 0.76106 0.15458 -0.03732
 H552 H 0.78258 0.15532 -0.02448
 C553 C 0.75596 0.17450 -0.06285
 H554 H 0.77418 0.18986 -0.06972
 C555 C 0.71181 0.13273 -0.04404
 H556 H 0.69446 0.11675 -0.03637
 C557 C 0.70569 0.15229 -0.06964
 H558 H 0.68373 0.15093 -0.08163
 Zn559 Zn 0.74746 0.10829 0.00680
 N560 N 0.73922 0.13406 -0.02859
 C561 C 0.79673 0.08451 -0.02875
 N562 N 0.78105 0.08329 -0.00105
 C563 C 0.78770 0.06251 0.02201
 C564 C 0.81119 0.04218 0.01800
 C565 C 0.82050 0.06450 -0.03380
 C566 C 0.73404 0.15308 0.05205
 C567 C 0.73940 0.17278 0.07779
 C568 C 0.78954 0.15218 0.08403
 C569 C 0.78318 0.13285 0.05823
 N570 N 0.75571 0.13348 0.04291
 H571 H 0.79050 0.10055 -0.04723
 H572 H 0.77451 0.06166 0.04354
 H573 H 0.81601 0.02576 0.03670
 H574 H 0.83207 0.06553 -0.05631
 H575 H 0.71248 0.15336 0.03929
 H576 H 0.72134 0.18745 0.08486
 H577 H 0.81157 0.15137 0.09586
 H578 H 0.80044 0.11767 0.05026
 C579 C 0.72774 0.17373 -0.07922
 C580 C 0.66534 0.04059 0.02049
 C581 C 0.76769 0.17273 0.09401
 C582 C 0.82805 0.04298 -0.01009
 C583 C 0.22285 0.57781 0.48238
 H584 H 0.23657 0.57875 0.46123
 C585 C 0.20005 0.55550 0.48518
 H586 H 0.19623 0.53935 0.46596
 C587 C 0.21117 0.59797 0.53295
 H588 H 0.21593 0.61426 0.55173
 C589 C 0.18835 0.57584 0.53692
 H590 H 0.17626 0.57553 0.55911
 N591 N 0.22732 0.59902 0.50564
 C592 C 0.26705 0.67497 0.45290
 H593 H 0.28786 0.67891 0.46649
 C594 C 0.26050 0.69301 0.42623
 H595 H 0.27693 0.71028 0.41929
 C596 C 0.22092 0.64701 0.44564
 H597 H 0.20519 0.62955 0.45362
 C598 C 0.21344 0.66451 0.41890
 H599 H 0.19215 0.65999 0.40631
 Zn600 Zn 0.25735 0.62950 0.49879
 N601 N 0.24750 0.65229 0.46184
 C602 C 0.30992 0.61066 0.46624
 N603 N 0.29442 0.60923 0.49400
 C604 C 0.30396 0.59155 0.51877
 C605 C 0.33018 0.57449 0.51633
 C606 C 0.33623 0.59389 0.46272
 C607 C 0.23469 0.67358 0.53980
 C608 C 0.23548 0.69503 0.56437
 C609 C 0.28809 0.68324 0.57438
 C610 C 0.28625 0.66195 0.54972
 N611 N 0.25972 0.65724 0.53328
 H612 H 0.30161 0.62425 0.44653
 H613 H 0.29102 0.59064 0.54047
 H614 H 0.33744 0.56120 0.53674
 H615 H 0.34814 0.59504 0.44034
 H616 H 0.21407 0.66992 0.52580
 H617 H 0.21530 0.70772 0.56936
 H618 H 0.30976 0.68700 0.58635
 H619 H 0.30623 0.64967 0.54337
 C620 C 0.23318 0.68798 0.40897
 C621 C 0.18192 0.55470 0.51234
 C622 C 0.26229 0.69984 0.58233
 C623 C 0.34645 0.57515 0.48773
 C624 C 0.71633 0.92777 0.51057
 H625 H 0.73104 0.92671 0.53149
 C626 C 0.69221 0.94786 0.50975
 H627 H 0.68841 0.96211 0.53030
 C628 C 0.70406 0.91093 0.45819
 H629 H 0.70924 0.89703 0.43785
 C630 C 0.67965 0.93082 0.45630
 H631 H 0.66660 0.93182 0.43426
 N632 N 0.72165 0.90962 0.48517
 C633 C 0.77456 0.83606 0.52718
 H634 H 0.79446 0.83740 0.51246
 C635 C 0.77240 0.81384 0.55102
 H636 H 0.79087 0.79822 0.55467
 C637 C 0.72605 0.85440 0.53969
 H638 H 0.70770 0.86973 0.53465
 C639 C 0.72288 0.83247 0.56372
 H640 H 0.70185 0.83136 0.57656
 Zn641 Zn 0.75607 0.88452 0.48850
 N642 N 0.75175 0.85602 0.52224
 C643 C 0.80779 0.90828 0.52275
 N644 N 0.79006 0.91058 0.49597
 C645 C 0.79532 0.93266 0.47382
 C646 C 0.81974 0.95307 0.47769
 C647 C 0.83251 0.92827 0.52761
 C648 C 0.73894 0.84162 0.44223
 C649 C 0.74274 0.82188 0.41665
 C650 C 0.79271 0.84401 0.40901
 C651 C 0.78790 0.86343 0.43469
 N652 N 0.76141 0.86174 0.45085
 H653 H 0.80263 0.89121 0.54059
 H654 H 0.78050 0.93430 0.45304
 H655 H 0.82366 0.97040 0.45966
 H656 H 0.84583 0.92621 0.54939
 H657 H 0.71822 0.84057 0.45568
 H658 H 0.72425 0.80645 0.41014
 H659 H 0.81417 0.84517 0.39682
 H660 H 0.80578 0.87909 0.44231
 C661 C 0.74647 0.81196 0.56990
 C662 C 0.67335 0.94955 0.48249
 C663 C 0.77031 0.82238 0.40018
 C664 C 0.83891 0.95089 0.50465
 C665 C 0.02044 0.21878 0.42129
 H666 H 0.04014 0.23387 0.42101
 C667 C 0.01918 0.19461 0.44300
 H668 H 0.03812 0.19109 0.45935
 C669 C -0.02835 0.20537 0.40054
 H670 H -0.04716 0.21012 0.38455
 C671 C -0.03062 0.18101 0.42194
 H672 H -0.05145 0.16760 0.42201
 N673 N -0.00285 0.22330 0.40019
 C674 C 0.04066 0.27461 0.32403
 H675 H 0.02615 0.29418 0.32281
 C676 C 0.06494 0.27245 0.30333
 H677 H 0.06911 0.29059 0.28625
 C678 C 0.05229 0.22687 0.34731
 H679 H 0.04676 0.20876 0.36386
 C680 C 0.07678 0.22371 0.32698
 H681 H 0.08954 0.20297 0.32836
 Zn682 Zn 0.00079 0.25653 0.37161
 N683 N 0.03504 0.25219 0.34571
 C684 C 0.03097 0.30906 0.39717
 N685 N 0.00474 0.29222 0.39688
 C686 C -0.01833 0.29896 0.41659
 C687 C -0.01570 0.32379 0.43732
 C688 C 0.03464 0.33398 0.41762
 C689 C -0.03974 0.23352 0.32479
 C690 C -0.06452 0.23364 0.30349
 C691 C -0.07462 0.28507 0.31991
 C692 C -0.04993 0.28380 0.34116
 N693 N -0.03337 0.25811 0.34361
 H694 H 0.04951 0.30269 0.38224
 H695 H -0.03869 0.28477 0.41644
 H696 H -0.03430 0.32871 0.45291
 H697 H 0.05619 0.34613 0.41782
 H698 H -0.02565 0.21366 0.32655
 H699 H -0.06956 0.21366 0.28910
 H700 H -0.08663 0.30623 0.31803
 H701 H -0.04370 0.30357 0.35529
 C702 C 0.08353 0.24690 0.30474
 C703 C -0.00634 0.17502 0.44319
 C704 C -0.08271 0.25943 0.30118
 C705 C 0.01100 0.34177 0.43806
 C706 C -0.03110 0.69652 0.08437
 H707 H -0.05214 0.70875 0.08501
 C708 C -0.02843 0.67185 0.06382
 H709 H -0.04770 0.66506 0.04889
 C710 C 0.01988 0.69153 0.10212
 H711 H 0.03896 0.69994 0.11628
 C712 C 0.02361 0.66673 0.08176
 H713 H 0.04569 0.65658 0.08082
 N714 N -0.00718 0.70584 0.10304
 C715 C -0.05257 0.76133 0.17376
 H716 H -0.04055 0.78289 0.17095
 C717 C -0.07620 0.75869 0.19547
 H718 H -0.08232 0.77844 0.20919
 C719 C -0.05882 0.70941 0.15956
 H720 H -0.05157 0.69006 0.14603
 C721 C -0.08244 0.70569 0.18114
 H722 H -0.09260 0.68324 0.18373
 Zn723 Zn -0.01256 0.74203 0.12662
 N724 N -0.04473 0.73703 0.15589
 C725 C -0.04666 0.78931 0.09599
 N726 N -0.02105 0.77256 0.09601
 C727 C 0.00020 0.77662 0.07321
 C728 C -0.00312 0.79917 0.05001
 C729 C -0.05098 0.81217 0.07308
 C730 C 0.03493 0.73348 0.17156
 C731 C 0.06143 0.74104 0.18882
 C732 C 0.06285 0.78979 0.16189
 C733 C 0.03642 0.78125 0.14509
 N734 N 0.02323 0.75333 0.14985
 H735 H -0.06374 0.78508 0.11372
 H736 H 0.02010 0.76258 0.07348
 H737 H 0.01445 0.80239 0.03249
 H738 H -0.07159 0.82499 0.07380
 H739 H 0.02385 0.71153 0.17511
 H740 H 0.07064 0.72426 0.20503
 H741 H 0.07306 0.81206 0.15764
 H742 H 0.02642 0.79713 0.12843
 C743 C -0.09181 0.73073 0.19917
 C744 C -0.00083 0.65663 0.06212
 C745 C 0.07571 0.76971 0.18417
 C746 C -0.02866 0.81771 0.04995
 C747 C 0.49404 0.21057 0.58010
 H748 H 0.47444 0.22499 0.57861
 C749 C 0.49782 0.18786 0.55747
 H750 H 0.48089 0.18482 0.53862
 C751 C 0.54002 0.19742 0.60635
 H752 H 0.55676 0.20169 0.62501
 C753 C 0.54472 0.17434 0.58417
 H754 H 0.56520 0.16130 0.58628
 N755 N 0.51472 0.21462 0.60421
 C756 C 0.46192 0.25843 0.67731
 H757 H 0.47550 0.27892 0.68130
 C758 C 0.43548 0.25338 0.69462
 H759 H 0.42938 0.27050 0.71162
 C760 C 0.45446 0.21161 0.65015
 H761 H 0.46214 0.19512 0.63321
 C762 C 0.42789 0.20562 0.66692
 H763 H 0.41526 0.18461 0.66233
 Zn764 Zn 0.50699 0.24639 0.63309
 N765 N 0.47068 0.23787 0.65531
 C766 C 0.47687 0.29776 0.60681
 N767 N 0.50339 0.28249 0.60823
 C768 C 0.52735 0.29126 0.59009
 C769 C 0.52539 0.31671 0.57002
 C770 C 0.47390 0.32327 0.58703
 C771 C 0.54520 0.22628 0.68306
 C772 C 0.56874 0.22832 0.70583
 C773 C 0.57737 0.28073 0.69008
 C774 C 0.55393 0.27757 0.66742
 N775 N 0.53879 0.25049 0.66389
 H776 H 0.45768 0.28981 0.62041
 H777 H 0.54796 0.27829 0.59107
 H778 H 0.54470 0.32336 0.55577
 H779 H 0.45219 0.33429 0.58578
 H780 H 0.53223 0.20523 0.68037
 H781 H 0.57394 0.20863 0.72045
 H782 H 0.58836 0.30283 0.69266
 H783 H 0.54766 0.29693 0.65292
 C784 C 0.41788 0.22659 0.68945
 C785 C 0.52319 0.16912 0.55947
 C786 C 0.58561 0.25560 0.70918
 C787 C 0.49853 0.33329 0.56847
 C788 C 0.52345 0.70411 0.91302
 H789 H 0.54557 0.71512 0.91518
 C790 C 0.51650 0.67854 0.93181
 H791 H 0.53383 0.66987 0.94778
 C792 C 0.47439 0.70221 0.88904
 H793 H 0.45775 0.71174 0.87287
 C794 C 0.46651 0.67672 0.90727
 H795 H 0.44394 0.66674 0.90454
 N796 N 0.50254 0.71527 0.89198
 C797 C 0.55178 0.76797 0.82029
 H798 H 0.53886 0.78865 0.82098
 C799 C 0.57516 0.76533 0.79860
 H800 H 0.58024 0.78421 0.78270
 C801 C 0.56027 0.71808 0.83987
 H802 H 0.55392 0.69951 0.85554
 C803 C 0.58391 0.71443 0.81846
 H804 H 0.59520 0.69282 0.81802
 Zn805 Zn 0.51198 0.75080 0.86781
 N806 N 0.54500 0.74468 0.84058
 C807 C 0.54837 0.79817 0.89596
 N808 N 0.52123 0.78288 0.89656
 C809 C 0.49973 0.79004 0.91794
 C810 C 0.50461 0.81419 0.93907
 C811 C 0.55429 0.82244 0.91679
 C812 C 0.47146 0.74066 0.81740
 C813 C 0.44693 0.74567 0.79675
 C814 C 0.43738 0.79247 0.82466
 C815 C 0.46230 0.78662 0.84476
 N816 N 0.47839 0.76074 0.84116
 H817 H 0.56546 0.79175 0.87926
 H818 H 0.47844 0.77734 0.91805
 H819 H 0.48640 0.82005 0.95468
 H820 H 0.57586 0.83464 0.91574
 H821 H 0.48494 0.72053 0.81474
 H822 H 0.44160 0.72919 0.77818
 H823 H 0.42513 0.81330 0.82788
 H824 H 0.46872 0.80282 0.86312
 C825 C 0.59176 0.73844 0.79758
 C826 C 0.48750 0.66461 0.92918
 C827 C 0.42922 0.77156 0.80048
 C828 C 0.53232 0.83077 0.93872
 C829 C 0.13185 0.22579 0.28491
 C830 C 0.10863 0.24495 0.28178
 H831 H 0.13324 0.21071 0.30532
 H832 H 0.10785 0.26040 0.26165
 C833 C 0.63810 0.71569 0.77471
 C834 C 0.61611 0.73639 0.77374
 H835 H 0.63882 0.69902 0.79376
 H836 H 0.61605 0.75334 0.75497
 C837 C 0.37945 0.79370 0.78380
 C838 C 0.40308 0.77573 0.77827
 H839 H 0.37910 0.80737 0.80521
 H840 H 0.40304 0.76220 0.75678
 C841 C -0.13237 0.27828 0.28144
 C842 C -0.10935 0.25895 0.27878
 H843 H -0.13176 0.29451 0.30080
 H844 H -0.11008 0.24178 0.26031
 C845 C -0.13732 0.70548 0.22366
 C846 C -0.11695 0.72872 0.22245
 H847 H -0.13583 0.68700 0.20683
 H848 H -0.11879 0.74767 0.23864
 C849 C 0.37733 0.23707 0.72906
 C850 C 0.38932 0.21927 0.70667
 H851 H 0.38867 0.25825 0.73551
 H852 H 0.37793 0.19807 0.70031
 C853 C 0.63363 0.27813 0.73142
 C854 C 0.61113 0.25709 0.73291
 H855 H 0.63337 0.29457 0.71213
 H856 H 0.61162 0.23972 0.75128
 C857 C 0.11410 0.76626 0.22832
 C858 C 0.10410 0.77938 0.20128
 H859 H 0.10116 0.74775 0.23885
 H860 H 0.11681 0.79838 0.19135
 C861 C 0.28174 0.13836 0.21871
 C862 C 0.28080 0.11660 0.24133
 H863 H 0.29937 0.13832 0.20111
 H864 H 0.26374 0.11745 0.25947
 C865 C 0.78652 0.62959 0.70308
 C866 C 0.78577 0.60730 0.72512
 H867 H 0.80399 0.62997 0.68530
 H868 H 0.76896 0.60781 0.74353
 C869 C 0.78582 0.36981 0.78644
 C870 C 0.78305 0.39114 0.76348
 H871 H 0.80516 0.37075 0.80266
 H872 H 0.76415 0.38988 0.74674
 C873 C 0.25960 -0.11615 0.26108
 C874 C 0.28440 -0.10658 0.27775
 H875 H 0.25129 -0.10255 0.24132
 H876 H 0.29215 -0.11962 0.29809
 C877 C 0.22011 -0.12729 0.72497
 C878 C 0.22096 -0.10516 0.74715
 H879 H 0.20131 -0.12833 0.70802
 H880 H 0.23878 -0.10473 0.76519
 C881 C 0.71758 0.36879 0.23491
 C882 C 0.69047 0.37384 0.22113
 H883 H 0.72671 0.38475 0.25239
 H884 H 0.68180 0.35877 0.20259
 C885 C 0.71572 0.61040 0.29251
 C886 C 0.71800 0.58656 0.27286
 H887 H 0.69654 0.61159 0.30819
 H888 H 0.73646 0.58597 0.25625
 C889 C 0.23315 0.12426 0.76633
 C890 C 0.20796 0.11569 0.78199
 H891 H 0.24194 0.10940 0.74831
 H892 H 0.19970 0.12987 0.80082
 C893 C 0.21586 0.28950 0.12379
 C894 C 0.23412 0.28738 0.09867
 H895 H 0.20120 0.30883 0.12580
 H896 H 0.24934 0.26844 0.09722
 C897 C 0.72528 0.78821 0.61909
 C898 C 0.74460 0.78776 0.59473
 H899 H 0.71019 0.80714 0.62159
 H900 H 0.76024 0.76921 0.59294
 C901 C 0.76296 0.77299 0.37239
 C902 C 0.77667 0.80047 0.37434
 H903 H 0.74633 0.76636 0.38991
 H904 H 0.79412 0.80670 0.35757
 C905 C 0.25822 0.28214 -0.13292
 C906 C 0.27174 0.30917 -0.12653
 H907 H 0.24036 0.27355 -0.11777
 H908 H 0.29006 0.31725 -0.14134
 C909 C 0.73552 0.22078 -0.11161
 C910 C 0.72062 0.19433 -0.10648
 H911 H 0.75349 0.22804 -0.09529
 H912 H 0.70205 0.18760 -0.12231
 C913 C 0.23633 0.73371 0.37363
 C914 C 0.22436 0.70621 0.38056
 H915 H 0.25382 0.74372 0.38893
 H916 H 0.20657 0.69668 0.36532
 C917 C 0.28313 0.72267 0.63239
 C918 C 0.26286 0.72295 0.60816
 H919 H 0.29947 0.70464 0.63393
 H920 H 0.24579 0.74030 0.60725
 C921 C 0.76023 0.21870 0.12766
 C922 C 0.77522 0.19314 0.12146
 H923 H 0.74163 0.22539 0.11216
 H924 H 0.79433 0.18704 0.13655
 C925 C 0.47660 0.38220 0.55006
 C926 C 0.49661 0.35990 0.54647
 H927 H 0.46163 0.38154 0.57023
 H928 H 0.51264 0.36129 0.52725
 C929 C -0.05093 0.86462 0.02543
 C930 C -0.03043 0.84236 0.02559
 H931 H -0.06828 0.86462 0.04331
 H932 H -0.01314 0.84237 0.00765
 C933 C 0.02440 0.61196 0.03742
 C934 C 0.00166 0.63193 0.03820
 H935 H 0.04184 0.61274 0.05591
 H936 H -0.01654 0.63037 0.02064
 C937 C 0.54481 0.12138 0.53753
 C938 C 0.52614 0.14510 0.53502
 H939 H 0.55988 0.11921 0.55802
 H940 H 0.51139 0.14685 0.51423
 C941 C -0.02537 0.12480 0.46296
 C942 C -0.00701 0.14934 0.46631
 H943 H -0.04069 0.12302 0.44257
 H944 H 0.00873 0.15062 0.48639
 C945 C 0.49201 0.62810 0.97513
 C946 C 0.47797 0.63751 0.94817
 H947 H 0.51190 0.64053 0.98386
 H948 H 0.45763 0.62573 0.93979
 C949 C 0.52317 0.86260 0.98632
 C950 C 0.53850 0.85752 0.95962
 H951 H 0.50612 0.84629 0.99408
 H952 H 0.55603 0.87360 0.95242
 C953 C 0.03524 0.38920 0.46053
 C954 C 0.01364 0.36722 0.46141
 H955 H 0.05162 0.38944 0.44165
 H956 H -0.00301 0.36764 0.48002
 C957 C 0.38042 0.53183 0.50010
 C958 C 0.37388 0.55678 0.48289
 H959 H 0.36554 0.52444 0.51898
 H960 H 0.38839 0.56355 0.46348
 C961 C 0.87413 0.02153 -0.03554
 C962 C 0.85199 0.02001 -0.01382
 H963 H 0.87541 0.04091 -0.05152
 H964 H 0.85130 0.00135 0.00302
 C965 C 0.61624 0.02150 0.04242
 C966 C 0.63969 0.01825 0.02282
 H967 H 0.61536 0.04137 0.05753
 H968 H 0.63981 -0.00095 0.00677
 C969 C 0.13358 0.53367 0.53407
 C970 C 0.15667 0.53180 0.51374
 H971 H 0.13341 0.55221 0.55096
 H972 H 0.15673 0.51367 0.49635
 C973 C 0.11609 0.47061 -0.03745
 C974 C 0.13814 0.47055 -0.01483
 H975 H 0.11642 0.45397 -0.05640
 H976 H 0.13745 0.48649 0.00471
 C977 C 0.62501 0.97175 0.46125
 C978 C 0.64847 0.97194 0.48227
 H979 H 0.62346 0.95412 0.44330
 H980 H 0.64959 0.98881 0.50097
 C981 C 0.88846 0.96972 0.52782
 C982 C 0.86446 0.97321 0.50804
 H983 H 0.88997 0.94968 0.54281
 H984 H 0.86348 0.99311 0.49283
 C985 C 0.36984 0.48875 0.00816
 C986 C 0.35583 0.46896 0.02778
 H987 H 0.36158 0.49187 -0.01604
 H988 H 0.36445 0.46637 0.05193
 C989 C 0.52091 0.48269 0.38656
 C990 C 0.54307 0.46475 0.37657
 H991 H 0.51460 0.50232 0.37243
 H992 H 0.54829 0.44429 0.38988
 C993 C 0.02983 -0.03944 0.88193
 C994 C 0.03135 -0.01797 0.85910
 H995 H 0.04789 -0.05555 0.88476
 H996 H 0.01328 -0.00175 0.85691
 C997 C 0.04517 0.03285 0.61863
 C998 C 0.04465 0.01122 0.64136
 H999 H 0.06323 0.04986 0.61855
 H1000 H 0.02699 -0.00620 0.64057
 C1001 C 0.51270 0.51815 0.13281
 C1002 C 0.53939 0.53046 0.14236
 H1003 H 0.50236 0.50000 0.14663
 H1004 H 0.54904 0.54934 0.12906
 C1005 C 0.45261 -0.02928 0.12138
 C1006 C 0.45371 -0.00798 0.14420
 H1007 H 0.43311 -0.04451 0.11924
 H1008 H 0.47296 0.00765 0.14560
 C1009 C 0.97728 0.48679 0.61836
 C1010 C 0.95008 0.47306 0.62154
 H1011 H 0.98496 0.50343 0.63585
 H1012 H 0.94284 0.45542 0.60497
 C1013 C 0.96304 0.53169 0.87214
 C1014 C 0.96504 0.51265 0.84731
 H1015 H 0.94393 0.54666 0.87360
 H1016 H 0.98360 0.49698 0.84654
 C1017 C 0.46556 0.03494 0.38383
 C1018 C 0.46477 0.01625 0.35862
 H1019 H 0.44692 0.05003 0.38775
 H1020 H 0.48315 0.00068 0.35535
   
