data_POSCAR
  _audit_creation_date              2014-09-24
  _audit_creation_method            'ToBaCCo'
  _symmetry_space_group_name_H-M    'P1'
  _symmetry_Int_Tables_number       1
  _symmetry_cell_setting            triclinic
  loop_
  _symmetry_equiv_pos_as_xyz
 x,y,z
_cell_length_a 32.2176
_cell_length_b 32.2168
_cell_length_c 8.7122
_cell_angle_alpha 90.351200
_cell_angle_beta 90.000400
_cell_angle_gamma 90.098000
loop_
  _atom_site_label
  _atom_site_type_symbol
  _atom_site_fract_x
  _atom_site_fract_y
  _atom_site_fract_z
O1 O 0.21944 0.28923 0.08601
 O2 O 0.29739 0.20874 0.16640
 O3 O 0.21948 0.20839 0.08617
 O4 O 0.29735 0.28952 0.16612
 O5 O 0.27908 0.28994 0.41082
 O6 O 0.20121 0.20880 0.33084
 O7 O 0.27912 0.20914 0.41110
 O8 O 0.20118 0.28963 0.33071
 Cu9 Cu 0.26027 0.24893 0.10154
 Cu10 Cu 0.23827 0.24941 0.39548
 C11 C 0.19713 0.30301 0.19492
 C12 C 0.30147 0.19540 0.30224
 C13 C 0.19717 0.19491 0.19509
 C14 C 0.30140 0.30338 0.30189
 O15 O 0.72092 0.21033 0.41118
 O16 O 0.79878 0.29115 0.33048
 O17 O 0.72088 0.29112 0.41070
 O18 O 0.79883 0.21032 0.33106
 O19 O 0.78057 0.20976 0.08636
 O20 O 0.70261 0.29057 0.16600
 O21 O 0.78052 0.29060 0.08581
 O22 O 0.70266 0.20978 0.16648
 Cu23 Cu 0.76173 0.25079 0.39547
 Cu24 Cu 0.73974 0.25012 0.10153
 C25 C 0.69860 0.19646 0.30236
 C26 C 0.80283 0.30451 0.19463
 C27 C 0.69853 0.30444 0.30174
 C28 C 0.80288 0.19641 0.19537
 O29 O 0.72108 0.79100 0.58880
 O30 O 0.79859 0.71011 0.66958
 O31 O 0.72073 0.71021 0.58929
 O32 O 0.79904 0.79094 0.66885
 O33 O 0.78079 0.79154 0.91353
 O34 O 0.70246 0.71080 0.83399
 O35 O 0.78033 0.71069 0.91428
 O36 O 0.70283 0.79158 0.83351
 Cu37 Cu 0.76174 0.75052 0.60452
 Cu38 Cu 0.73975 0.75123 0.89846
 C39 C 0.69880 0.80488 0.69760
 C40 C 0.80254 0.69674 0.80543
 C41 C 0.69835 0.69690 0.69828
 C42 C 0.80318 0.80484 0.80454
 O43 O 0.29736 0.79109 0.83351
 O44 O 0.21949 0.71028 0.91420
 O45 O 0.29737 0.71031 0.83402
 O46 O 0.21942 0.79113 0.91364
 O47 O 0.20116 0.79057 0.66896
 O48 O 0.27911 0.70975 0.58932
 O49 O 0.20122 0.70974 0.66950
 O50 O 0.27910 0.79055 0.58881
 Cu51 Cu 0.26026 0.75077 0.89848
 Cu52 Cu 0.23827 0.75011 0.60454
 C53 C 0.30144 0.80440 0.69761
 C54 C 0.19720 0.69637 0.80534
 C55 C 0.30143 0.69642 0.69831
 C56 C 0.19709 0.80447 0.80466
 O57 O 1.04094 -0.04854 0.08150
 O58 O 0.96028 0.02954 0.16176
 O59 O 0.96011 -0.04849 0.08139
 O60 O 1.04109 0.02950 0.16198
 O61 O 1.04116 0.04739 -0.08268
 O62 O 0.96017 -0.03060 -0.16327
 O63 O 0.96037 0.04743 -0.08291
 O64 O 1.04102 -0.03064 -0.16315
 Cu65 Cu 1.00060 -0.01134 0.14625
 Cu66 Cu 1.00069 0.01022 -0.14761
 C67 C 1.05457 -0.05280 -0.05426
 C68 C 0.94675 0.05171 0.05287
 C69 C 0.94649 -0.05273 -0.05442
 C70 C 1.05475 0.05166 0.05316
 O71 O 0.45938 0.47022 0.33728
 O72 O 0.54016 0.54836 0.41858
 O73 O 0.54022 0.47042 0.33719
 O74 O 0.45936 0.54818 0.41856
 O75 O 0.45937 0.53007 0.66300
 O76 O 0.54023 0.45230 0.58162
 O77 O 0.54019 0.53024 0.66302
 O78 O 0.45941 0.45211 0.58172
 Cu79 Cu 0.49978 0.51114 0.35331
 Cu80 Cu 0.49980 0.48932 0.64693
 C81 C 0.44579 0.44795 0.44589
 C82 C 0.55378 0.55252 0.55442
 C83 C 0.55386 0.44821 0.44578
 C84 C 0.44575 0.55229 0.55441
 O85 O -0.04090 0.54761 0.08383
 O86 O 0.03973 0.46966 0.16245
 O87 O 0.03986 0.54755 0.08372
 O88 O -0.04109 0.46970 0.16267
 O89 O -0.04117 0.45134 -0.08234
 O90 O 0.03979 0.52919 -0.16130
 O91 O 0.03964 0.45129 -0.08256
 O92 O -0.04099 0.52924 -0.16119
 Cu93 Cu -0.00060 0.51049 0.14784
 Cu94 Cu -0.00069 0.48838 -0.14650
 C95 C -0.05449 0.55165 -0.05190
 C96 C 0.05326 0.44728 0.05313
 C97 C 0.05344 0.55157 -0.05205
 C98 C -0.05476 0.44733 0.05343
 O99 O 0.45983 0.95191 0.41773
 O100 O 0.54061 1.02985 0.33747
 O101 O 0.54066 0.95208 0.41770
 O102 O 0.45979 1.02965 0.33739
 O103 O 0.45978 1.04837 0.58204
 O104 O 0.54065 0.97080 0.66236
 O105 O 0.54059 1.04856 0.58212
 O106 O 0.45981 0.97063 0.66238
 Cu107 Cu 0.50023 0.98896 0.35294
 Cu108 Cu 0.50021 1.01150 0.64687
 C109 C 0.44619 0.94810 0.55352
 C110 C 0.55421 1.05239 0.44633
 C111 C 0.55429 0.94833 0.55349
 C112 C 0.44615 1.05213 0.44624
 C113 C 1.16830 0.16517 0.16584
 C114 C 1.14251 0.13888 0.14012
 C115 C 1.11212 0.10828 0.11010
 C116 C 1.08602 0.08232 0.08431
 C117 C 0.66767 0.66563 0.66749
 C118 C 0.64175 0.63948 0.64179
 C119 C 0.61124 0.60902 0.61169
 C120 C 0.58507 0.58314 0.58576
 C121 C -0.16831 0.33414 0.16519
 C122 C -0.14252 0.36034 0.13944
 C123 C -0.11214 0.39085 0.10955
 C124 C -0.08603 0.41674 0.08403
 C125 C 0.33208 0.83557 0.66638
 C126 C 0.35802 0.86160 0.64047
 C127 C 0.38860 0.89189 0.61032
 C128 C 0.41484 0.91763 0.58452
 C129 C -0.16718 0.66531 -0.16350
 C130 C -0.14159 0.63900 -0.13779
 C131 C -0.11146 0.60835 -0.10794
 C132 C -0.08555 0.58235 -0.08245
 C133 C 0.33210 1.16432 0.33336
 C134 C 0.35803 1.13837 0.35922
 C135 C 0.38858 1.10815 0.38937
 C136 C 0.41480 1.08249 0.41520
 C137 C 1.16817 -0.16593 -0.16622
 C138 C 1.14234 -0.13976 -0.14064
 C139 C 1.11192 -0.10928 -0.11082
 C140 C 1.08580 -0.08341 -0.08520
 C141 C 0.66790 0.33564 0.33262
 C142 C 0.64197 0.36169 0.35836
 C143 C 0.61143 0.39202 0.38849
 C144 C 0.58521 0.41776 0.41443
 C145 C 0.83226 -0.16561 -0.16637
 C146 C 0.85824 -0.13950 -0.14083
 C147 C 0.88883 -0.10909 -0.11104
 C148 C 0.91509 -0.08327 -0.08542
 C149 C 0.33198 0.33475 0.33283
 C150 C 0.35785 0.36094 0.35858
 C151 C 0.38833 0.39144 0.38867
 C152 C 0.41449 0.41733 0.41457
 C153 C 0.16675 0.66500 -0.16362
 C154 C 0.14102 0.63874 -0.13796
 C155 C 0.11071 0.60816 -0.10815
 C156 C 0.08466 0.58221 -0.08266
 C157 C 0.66803 1.16522 0.33354
 C158 C 0.64215 1.13912 0.35940
 C159 C 0.61167 1.10873 0.38951
 C160 C 0.58550 1.08292 0.41530
 C161 C 0.16663 0.33424 0.16400
 C162 C 0.14085 0.36037 0.13848
 C163 C 0.11051 0.39083 0.10886
 C164 C 0.08445 0.41670 0.08355
 C165 C 0.66827 0.83605 0.66633
 C166 C 0.64239 0.86205 0.64044
 C167 C 0.61187 0.89230 0.61031
 C168 C 0.58565 0.91797 0.58451
 C169 C 0.83339 0.16507 0.16466
 C170 C 0.85917 0.13885 0.13917
 C171 C 0.88951 0.10830 0.10941
 C172 C 0.91557 0.08237 0.08382
 C173 C 0.33200 0.66515 0.66749
 C174 C 0.35786 0.63903 0.64179
 C175 C 0.38831 0.60861 0.61171
 C176 C 0.41446 0.58280 0.58579
   
