data_POSCAR
  _audit_creation_date              2014-09-24
  _audit_creation_method            'ToBaCCo'
  _symmetry_space_group_name_H-M    'P1'
  _symmetry_Int_Tables_number       1
  _symmetry_cell_setting            triclinic
  loop_
  _symmetry_equiv_pos_as_xyz
 x,y,z
_cell_length_a 49.2708
_cell_length_b 49.2331
_cell_length_c 49.1795
_cell_angle_alpha 89.990400
_cell_angle_beta 90.006700
_cell_angle_gamma 89.970200
loop_
  _atom_site_label
  _atom_site_type_symbol
  _atom_site_fract_x
  _atom_site_fract_y
  _atom_site_fract_z
C1 C 0.16231 0.18344 0.20008
 C2 C 0.16215 0.20310 0.17943
 C3 C 0.18196 0.20273 0.15954
 C4 C 0.20216 0.18264 0.15998
 C5 C 0.20224 0.16331 0.18024
 C6 C 0.18216 0.16373 0.20047
 C7 C 0.14538 0.17858 0.22174
 N8 N 0.15429 0.15621 0.23559
 C9 C 0.17698 0.14717 0.22238
 C10 C 0.22374 0.14621 0.17528
 N11 N 0.23702 0.15454 0.15234
 C12 C 0.22362 0.17702 0.14304
 C13 C 0.17659 0.22385 0.14202
 N14 N 0.15394 0.23703 0.15075
 C15 C 0.14502 0.22441 0.17366
 H16 H 0.12769 0.19065 0.22644
 H17 H 0.18921 0.12980 0.22781
 H18 H 0.22898 0.12905 0.18792
 H19 H 0.22843 0.18857 0.12500
 H20 H 0.18805 0.22886 0.12392
 H21 H 0.12745 0.23036 0.18546
 C22 C -0.15941 0.81907 0.20299
 C23 C -0.15990 0.79878 0.18298
 C24 C -0.18021 0.79870 0.16359
 C25 C -0.20034 0.81886 0.16400
 C26 C -0.19983 0.83875 0.18369
 C27 C -0.17917 0.83887 0.20334
 C28 C -0.14190 0.82446 0.22407
 N29 N -0.15037 0.84724 0.23751
 C30 C -0.17336 0.85601 0.22462
 C31 C -0.22144 0.85575 0.17884
 N32 N -0.23535 0.84684 0.15650
 C33 C -0.22223 0.82407 0.14748
 C34 C -0.17533 0.77710 0.14651
 N35 N -0.15255 0.76403 0.15507
 C36 C -0.14303 0.77722 0.17742
 H37 H -0.12414 0.81244 0.22866
 H38 H -0.18543 0.87353 0.22994
 H39 H -0.22607 0.87347 0.19092
 H40 H -0.22773 0.81183 0.13012
 H41 H -0.18763 0.77128 0.12923
 H42 H -0.12481 0.77192 0.18852
 C43 C -0.16382 0.17989 -0.20152
 C44 C -0.16430 0.20013 -0.18144
 C45 C -0.18414 0.19973 -0.16158
 C46 C -0.20381 0.17915 -0.16157
 C47 C -0.20335 0.15934 -0.18133
 C48 C -0.18318 0.15971 -0.20148
 C49 C -0.14669 0.17489 -0.22301
 N50 N -0.15503 0.15199 -0.23632
 C51 C -0.17754 0.14276 -0.22295
 C52 C -0.22447 0.14188 -0.17604
 N53 N -0.23802 0.15045 -0.15335
 C54 C -0.22519 0.17344 -0.14455
 C55 C -0.17935 0.22136 -0.14454
 N56 N -0.15706 0.23493 -0.15355
 C57 C -0.14777 0.22203 -0.17617
 H58 H -0.12951 0.18746 -0.22820
 H59 H -0.18913 0.12480 -0.22781
 H60 H -0.22899 0.12409 -0.18804
 H61 H -0.23057 0.18556 -0.12707
 H62 H -0.19137 0.22685 -0.12696
 H63 H -0.12993 0.22774 -0.18766
 C64 C 0.16217 0.81978 -0.20189
 C65 C 0.16141 0.79925 -0.18212
 C66 C 0.18092 0.79844 -0.16194
 C67 C 0.20139 0.81821 -0.16119
 C68 C 0.20210 0.83837 -0.18061
 C69 C 0.18231 0.83917 -0.20113
 C70 C 0.14568 0.82579 -0.22360
 N71 N 0.15515 0.84857 -0.23636
 C72 C 0.17774 0.85669 -0.22241
 C73 C 0.22381 0.85484 -0.17464
 N74 N 0.23660 0.84532 -0.15187
 C75 C 0.22268 0.82273 -0.14371
 C76 C 0.17498 0.77668 -0.14544
 N77 N 0.15229 0.76423 -0.15508
 C78 C 0.14389 0.77798 -0.17755
 H79 H 0.12787 0.81424 -0.22906
 H80 H 0.19035 0.87402 -0.22700
 H81 H 0.22929 0.87261 -0.18627
 H82 H 0.22723 0.81011 -0.12634
 H83 H 0.18608 0.77072 -0.12740
 H84 H 0.12643 0.77281 -0.18986
 C85 C 0.18368 1.16218 0.79986
 C86 C 0.20345 1.16208 0.82038
 C87 C 0.20314 1.18191 0.84027
 C88 C 0.18309 1.20213 0.83987
 C89 C 0.16366 1.20218 0.81972
 C90 C 0.16396 1.18203 0.79954
 C91 C 0.17873 1.14520 0.77825
 N92 N 0.15629 1.15408 0.76452
 C93 C 0.14730 1.17679 0.77774
 C94 C 0.14659 1.22370 0.82475
 N95 N 0.15505 1.23700 0.84763
 C96 C 0.17757 1.22362 0.85682
 C97 C 0.22428 1.17654 0.85773
 N98 N 0.23747 1.15391 0.84893
 C99 C 0.22481 1.14498 0.82605
 H100 H 0.19073 1.12745 0.77356
 H101 H 0.12996 1.18906 0.77231
 H102 H 0.12938 1.22893 0.81221
 H103 H 0.18918 1.22842 0.87481
 H104 H 0.22973 1.18841 0.87542
 H105 H 0.23032 1.12702 0.81462
 C106 C 0.81850 0.84006 0.79648
 C107 C 0.79825 0.83954 0.81651
 C108 C 0.79822 0.81922 0.83591
 C109 C 0.81839 0.79911 0.83549
 C110 C 0.83824 0.79964 0.81577
 C111 C 0.83831 0.82031 0.79611
 C112 C 0.82386 0.85761 0.77542
 N113 N 0.84664 0.84917 0.76198
 C114 C 0.85542 0.82616 0.77484
 C115 C 0.85529 0.77807 0.82062
 N116 N 0.84644 0.76417 0.84300
 C117 C 0.82368 0.77725 0.85204
 C118 C 0.77669 0.82410 0.85304
 N119 N 0.76360 0.84689 0.84451
 C120 C 0.77671 0.85642 0.82212
 H121 H 0.81183 0.87537 0.77085
 H122 H 0.87297 0.81412 0.76954
 H123 H 0.87303 0.77349 0.80859
 H124 H 0.81145 0.77172 0.86939
 H125 H 0.77093 0.81180 0.87034
 H126 H 0.77138 0.87465 0.81104
 C127 C 0.18016 0.83644 1.20225
 C128 C 0.20040 0.83609 1.18219
 C129 C 0.20012 0.81629 1.16227
 C130 C 0.17956 0.79661 1.16209
 C131 C 0.15961 0.79703 1.18185
 C132 C 0.15999 0.81708 1.20210
 C133 C 0.17508 0.85354 1.22376
 N134 N 0.15215 0.84516 1.23696
 C135 C 0.14297 0.82267 1.22352
 C136 C 0.14210 0.77598 1.17640
 N137 N 0.15092 0.76273 1.15380
 C138 C 0.17387 0.77527 1.14495
 C139 C 0.22181 0.82119 1.14534
 N140 N 0.23523 0.84354 1.15446
 C141 C 0.22221 0.85274 1.17704
 H142 H 0.18764 0.87071 1.22906
 H143 H 0.12495 0.81112 1.22823
 H144 H 0.12436 0.77062 1.18820
 H145 H 0.18533 0.76967 1.12704
 H146 H 0.22701 0.80966 1.12735
 H147 H 0.22820 0.87019 1.18899
 C148 C 0.81906 1.16219 1.20226
 C149 C 0.79861 1.16133 1.18243
 C150 C 0.79786 1.18073 1.16212
 C151 C 0.81761 1.20121 1.16131
 C152 C 0.83780 1.20196 1.18082
 C153 C 0.83848 1.18228 1.20144
 C154 C 0.82502 1.14575 1.22404
 N155 N 0.84780 1.15522 1.23676
 C156 C 0.85598 1.17775 1.22274
 C157 C 0.85440 1.22356 1.17472
 N158 N 0.84480 1.23600 1.15198
 C159 C 0.82225 1.22242 1.14368
 C160 C 0.77616 1.17465 1.14559
 N161 N 0.76373 1.15199 1.15534
 C162 C 0.77739 1.14375 1.17791
 H163 H 0.81350 1.12792 1.22952
 H164 H 0.87331 1.19037 1.22730
 H165 H 0.87208 1.22982 1.18617
 H166 H 0.81037 1.22719 1.12580
 H167 H 0.77026 1.18563 1.12746
 H168 H 0.77222 1.12634 1.19031
 O169 O 0.53813 0.95006 0.95260
 O170 O 0.56781 0.97417 0.97913
 C171 C 0.56252 0.95690 0.95996
 O172 O 0.46186 1.04685 0.95512
 O173 O 0.43221 1.02037 0.97933
 C174 C 0.43748 1.03946 0.96196
 O175 O 0.53815 1.04444 0.95268
 O176 O 0.56783 1.02024 0.97918
 C177 C 0.56255 1.03758 0.96004
 O178 O 0.46173 0.94761 0.95535
 O179 O 0.43210 0.97370 0.98006
 C180 C 0.43735 0.95478 0.96249
 Zr181 Zr 0.50001 0.96279 0.96809
 O182 O 0.49690 0.96249 0.92516
 O183 O 0.50309 0.91990 0.96848
 Zr184 Zr 0.50003 1.03165 0.96806
 O185 O 0.49700 1.03182 0.92513
 O186 O 0.50306 1.07454 0.96840
 O187 O 0.52418 0.99721 0.96263
 O188 O 0.47653 0.99722 0.96306
 O189 O 0.46188 0.94767 1.04967
 O190 O 0.43223 0.97421 1.02546
 C191 C 0.43749 0.95509 1.04282
 O192 O 0.53835 1.04419 1.05207
 O193 O 0.56798 1.01958 1.02587
 C194 C 0.56273 1.03709 1.04485
 O195 O 0.46191 1.04687 1.04967
 O196 O 0.43224 1.02044 1.02542
 C197 C 0.43751 1.03954 1.04278
 O198 O 0.53837 0.95026 1.05213
 O199 O 0.56798 0.97483 1.02590
 C200 C 0.56275 0.95737 1.04493
 Zr201 Zr 0.50009 0.96286 1.03678
 O202 O 0.49710 0.96271 1.07972
 O203 O 0.50316 0.91997 1.03655
 Zr204 Zr 0.50007 1.03153 1.03684
 O205 O 0.49706 1.03137 1.07979
 O206 O 0.50314 1.07441 1.03691
 Zr207 Zr 0.54032 0.99721 1.00231
 Zr208 Zr 0.45976 0.99729 1.00240
 O209 O 0.47656 0.99722 1.04176
 O210 O 0.52427 0.99719 1.04206
 O211 O 0.47581 0.95756 1.00246
 O212 O 0.52358 1.03654 1.00244
 O213 O 0.52362 0.95787 1.00241
 O214 O 0.47582 1.03696 1.00246
 H215 H 0.46425 0.99716 0.94710
 H216 H 0.53588 1.05246 1.00249
 H217 H 0.46436 0.99723 1.05778
 H218 H 0.53595 0.94196 1.00246
 H219 H 0.48760 1.08161 0.97911
 H220 H 0.48809 1.08155 1.02569
 H221 H 0.51238 1.02048 1.08688
 H222 H 0.51204 0.97407 1.08684
 H223 H 0.48777 0.91288 1.02578
 H224 H 0.48763 0.91283 0.97919
 H225 H 0.51165 0.97407 0.91798
 H226 H 0.51196 1.02049 0.91799
 O227 O -0.04953 0.53818 0.04714
 O228 O -0.02498 0.56791 0.02103
 C229 C -0.04245 0.56261 0.04000
 O230 O 0.04728 0.46177 0.04445
 O231 O 0.02121 0.43210 0.01980
 C232 C 0.04016 0.43737 0.03731
 O233 O 0.04468 0.53822 0.04705
 O234 O 0.02040 0.56789 0.02060
 C235 C 0.03778 0.56263 0.03968
 O236 O -0.05211 0.46171 0.04435
 O237 O -0.02593 0.43209 0.01974
 C238 C -0.04492 0.43732 0.03722
 Zr239 Zr -0.03674 0.49997 0.03179
 O240 O -0.03651 0.49678 0.07472
 O241 O -0.07959 0.50304 0.03192
 Zr242 Zr 0.03183 0.50000 0.03184
 O243 O 0.03137 0.49686 0.07478
 O244 O 0.07468 0.50307 0.03220
 O245 O -0.00248 0.52423 0.03714
 O246 O -0.00243 0.47636 0.03675
 O247 O -0.05200 0.46179 -0.04981
 O248 O -0.02588 0.43213 -0.02515
 C249 C -0.04483 0.43739 -0.04268
 O250 O 0.04483 0.53833 -0.05209
 O251 O 0.02045 0.56794 -0.02568
 C252 C 0.03791 0.56272 -0.04470
 O253 O 0.04741 0.46187 -0.04961
 O254 O 0.02126 0.43215 -0.02509
 C255 C 0.04027 0.43745 -0.04253
 O256 O -0.04943 0.53827 -0.05243
 O257 O -0.02494 0.56795 -0.02622
 C258 C -0.04239 0.56268 -0.04523
 Zr259 Zr -0.03666 0.50003 -0.03714
 O260 O -0.03631 0.49694 -0.08007
 O261 O -0.07951 0.50308 -0.03738
 Zr262 Zr 0.03191 0.50007 -0.03702
 O263 O 0.03148 0.49702 -0.07996
 O264 O 0.07476 0.50313 -0.03733
 Zr265 Zr -0.00253 0.54033 -0.00259
 Zr266 Zr -0.00237 0.45975 -0.00266
 O267 O -0.00234 0.47643 -0.04204
 O268 O -0.00239 0.52432 -0.04236
 O269 O -0.04201 0.47587 -0.00270
 O270 O 0.03679 0.52353 -0.00256
 O271 O -0.04177 0.52354 -0.00266
 O272 O 0.03725 0.47589 -0.00260
 H273 H -0.00243 0.46393 0.05260
 H274 H 0.05277 0.53573 -0.00252
 H275 H -0.00230 0.46403 -0.05791
 H276 H -0.05764 0.53590 -0.00267
 H277 H 0.08187 0.48825 0.02069
 H278 H 0.08192 0.48839 -0.02569
 H279 H 0.02112 0.51271 -0.08705
 H280 H -0.02543 0.51227 -0.08714
 H281 H -0.08665 0.48816 -0.02597
 H282 H -0.08671 0.48814 0.02047
 H283 H -0.02564 0.51209 0.08185
 H284 H 0.02088 0.51245 0.08188
 O285 O 0.95300 0.04997 0.53843
 O286 O 0.97892 0.02513 0.56813
 C287 C 0.96005 0.04273 0.56286
 O288 O 0.95538 -0.04657 0.46171
 O289 O 0.98007 -0.02051 0.43202
 C290 C 0.96252 -0.03941 0.43728
 O291 O 0.95275 -0.04416 0.53824
 O292 O 0.97933 -0.02016 0.56799
 C293 C 0.96015 -0.03739 0.56269
 O294 O 0.95553 0.05271 0.46189
 O295 O 0.97966 0.02619 0.43217
 C296 C 0.96237 0.04533 0.43746
 Zr297 Zr 0.96834 0.03737 0.50011
 O298 O 0.92549 0.03769 0.49703
 O299 O 0.96873 0.08026 0.50326
 Zr300 Zr 0.96808 -0.03136 0.50003
 O301 O 0.92523 -0.03111 0.49693
 O302 O 0.96795 -0.07426 0.50304
 O303 O 0.96287 0.00299 0.52429
 O304 O 0.96325 0.00305 0.47650
 O305 O 1.04997 0.05226 0.46190
 O306 O 1.02567 0.02594 0.43218
 C307 C 1.04309 0.04494 0.43746
 O308 O 1.05202 -0.04438 0.53840
 O309 O 1.02609 -0.01958 0.56812
 C310 C 1.04495 -0.03719 0.56284
 O311 O 1.04928 -0.04702 0.46179
 O312 O 1.02485 -0.02073 0.43206
 C313 C 1.04223 -0.03980 0.43735
 O314 O 1.05225 0.04980 0.53840
 O315 O 1.02562 0.02574 0.56805
 C316 C 1.04479 0.04299 0.56282
 Zr317 Zr 1.03705 0.03700 0.50012
 O318 O 1.07991 0.03656 0.49714
 O319 O 1.03728 0.07989 0.50316
 Zr320 Zr 1.03666 -0.03173 0.50011
 O321 O 1.07951 -0.03218 0.49702
 O322 O 1.03622 -0.07462 0.50322
 Zr323 Zr 1.00251 0.00280 0.54043
 Zr324 Zr 1.00255 0.00294 0.45974
 O325 O 1.04183 0.00262 0.47654
 O326 O 1.04217 0.00261 0.52435
 O327 O 1.00273 0.04259 0.47586
 O328 O 1.00236 -0.03652 0.52368
 O329 O 1.00268 0.04214 0.52369
 O330 O 1.00237 -0.03678 0.47582
 H331 H 0.94734 0.00307 0.46418
 H332 H 1.00237 -0.05244 0.53601
 H333 H 1.05776 0.00249 0.46424
 H334 H 1.00264 0.05804 0.53603
 H335 H 0.97902 -0.08140 0.48787
 H336 H 1.02544 -0.08167 0.48780
 H337 H 1.08671 -0.02068 0.51184
 H338 H 1.08693 0.02578 0.51259
 H339 H 1.02609 0.08706 0.48807
 H340 H 0.97959 0.08733 0.48790
 H341 H 0.91832 0.02631 0.51196
 H342 H 0.91815 -0.02013 0.51221
 C343 C 1.11777 0.12082 0.30449
 C344 C 1.10703 0.14453 0.29326
 C345 C 1.11917 0.15641 0.27049
 C346 C 1.14248 0.14476 0.25828
 C347 C 1.15309 0.12080 0.27020
 C348 C 1.14083 0.10904 0.29297
 C349 C 1.10493 0.10835 0.32763
 C350 C 1.09412 0.09771 0.34687
 C351 C 1.08114 0.08475 0.36965
 C352 C 1.08827 0.09192 0.39624
 C353 C 1.07584 0.07909 0.41835
 C354 C 1.05610 0.05885 0.41412
 C355 C 1.04902 0.05189 0.38727
 C356 C 1.06147 0.06476 0.36523
 H357 H 1.08914 0.15386 0.30206
 H358 H 1.10995 0.17474 0.26281
 H359 H 1.17074 0.11063 0.26217
 H360 H 1.14932 0.09062 0.30153
 H361 H 1.10349 0.10738 0.39989
 H362 H 1.08178 0.08495 0.43872
 H363 H 1.03389 0.03646 0.38322
 H364 H 1.05579 0.05906 0.34472
 C365 C 0.88764 -0.11604 0.30486
 C366 C 0.89789 -0.14020 0.29414
 C367 C 0.88529 -0.15248 0.27184
 C368 C 0.86199 -0.14081 0.25962
 C369 C 0.85195 -0.11633 0.27096
 C370 C 0.86466 -0.10417 0.29326
 C371 C 0.90076 -0.10333 0.32771
 C372 C 0.91172 -0.09256 0.34679
 C373 C 0.92474 -0.07954 0.36951
 C374 C 0.91742 -0.08647 0.39611
 C375 C 0.92978 -0.07355 0.41819
 C376 C 0.94966 -0.05346 0.41394
 C377 C 0.95697 -0.04676 0.38708
 C378 C 0.94457 -0.05972 0.36505
 H379 H 0.91569 -0.14960 0.30303
 H380 H 0.89409 -0.17118 0.26459
 H381 H 0.83440 -0.10607 0.26281
 H382 H 0.85656 -0.08540 0.30141
 H383 H 0.90207 -0.10180 0.39979
 H384 H 0.92366 -0.07923 0.43856
 H385 H 0.97221 -0.03143 0.38302
 H386 H 0.95040 -0.05420 0.34454
 C387 C 0.88223 0.11591 0.69556
 C388 C 0.89388 0.13866 0.70781
 C389 C 0.88153 0.15075 0.73035
 C390 C 0.85707 0.14029 0.74129
 C391 C 0.84559 0.11727 0.72839
 C392 C 0.85806 0.10529 0.70585
 C393 C 0.89520 0.10331 0.67256
 C394 C 0.90619 0.09271 0.65340
 C395 C 0.91947 0.08001 0.63065
 C396 C 0.91270 0.08755 0.60406
 C397 C 0.92579 0.07538 0.58197
 C398 C 0.94589 0.05547 0.58620
 C399 C 0.95244 0.04797 0.61305
 C400 C 0.93931 0.06017 0.63508
 H401 H 0.91267 0.14703 0.70000
 H402 H 0.89166 0.16810 0.73906
 H403 H 0.82687 0.10824 0.73526
 H404 H 0.84882 0.08767 0.69645
 H405 H 0.89736 0.10289 0.60040
 H406 H 0.92023 0.08164 0.56161
 H407 H 0.96776 0.03271 0.61709
 H408 H 0.94470 0.05417 0.65558
 C409 C 1.12043 -0.11291 0.69547
 C410 C 1.14308 -0.10161 0.70820
 C411 C 1.15473 -0.11439 0.73076
 C412 C 1.14391 -0.13892 0.74122
 C413 C 1.12101 -0.15004 0.72782
 C414 C 1.10948 -0.13715 0.70528
 C415 C 1.10821 -0.09954 0.67250
 C416 C 1.09774 -0.08840 0.65334
 C417 C 1.08495 -0.07517 0.63060
 C418 C 1.06530 -0.05514 0.63506
 C419 C 1.05242 -0.04265 0.61303
 C420 C 1.05902 -0.05006 0.58617
 C421 C 1.07898 -0.07010 0.58192
 C422 C 1.09182 -0.08257 0.60400
 H423 H 1.15172 -0.08279 0.70076
 H424 H 1.17205 -0.10454 0.73983
 H425 H 1.11171 -0.16877 0.73432
 H426 H 1.09192 -0.14612 0.69552
 H427 H 1.05983 -0.04927 0.65557
 H428 H 1.03721 -0.02729 0.61709
 H429 H 1.08457 -0.07630 0.56155
 H430 H 1.10699 -0.09807 0.60033
 C431 C 0.30508 1.11725 1.11631
 C432 C 0.29273 1.10549 1.13897
 C433 C 0.27021 1.11786 1.15106
 C434 C 0.25940 1.14243 1.14067
 C435 C 0.27240 1.15402 1.11773
 C436 C 0.29491 1.14153 1.10577
 C437 C 0.32804 1.10425 1.10372
 C438 C 0.34717 1.09325 1.09312
 C439 C 0.36987 1.07994 1.08039
 C440 C 0.39642 1.08711 1.08749
 C441 C 0.41847 1.07405 1.07524
 C442 C 0.41422 1.05359 1.05569
 C443 C 0.38740 1.04661 1.04866
 C444 C 0.36542 1.05970 1.06094
 H445 H 0.30043 1.08662 1.14729
 H446 H 0.26140 1.10764 1.16832
 H447 H 0.26563 1.17284 1.10879
 H448 H 0.30439 1.15086 1.08822
 H449 H 0.40009 1.10276 1.10253
 H450 H 0.43880 1.07994 1.08113
 H451 H 0.38335 1.03099 1.03369
 H452 H 0.34495 1.05400 1.05529
 C453 C 0.30478 0.87986 0.88657
 C454 C 0.29240 0.85687 0.89759
 C455 C 0.26984 0.84528 0.88484
 C456 C 0.25902 0.85651 0.86061
 C457 C 0.27207 0.87976 0.84978
 C458 C 0.29461 0.89122 0.86265
 C459 C 0.32776 0.89199 0.89993
 C460 C 0.34691 0.90237 0.91110
 C461 C 0.36964 0.91505 0.92437
 C462 C 0.36523 0.93475 0.94439
 C463 C 0.38724 0.94753 0.95693
 C464 C 0.41404 0.94078 0.94959
 C465 C 0.41825 0.92077 0.92957
 C466 C 0.39617 0.90803 0.91705
 H467 H 0.30012 0.84790 0.91617
 H468 H 0.26111 0.82764 0.89443
 H469 H 0.26524 0.88944 0.83134
 H470 H 0.30409 0.90906 0.85391
 H471 H 0.34477 0.94035 0.95020
 H472 H 0.38322 0.96279 0.97227
 H473 H 0.43857 0.91506 0.92343
 H474 H 0.39981 0.89280 0.90157
 C475 C 0.69578 0.88343 1.12124
 C476 C 0.70714 0.86024 1.10954
 C477 C 0.72991 0.84797 1.12125
 C478 C 0.74199 0.85868 1.14509
 C479 C 0.72995 0.88214 1.15667
 C480 C 0.70718 0.89430 1.14483
 C481 C 0.67263 0.89626 1.10882
 C482 C 0.65338 0.90703 1.09819
 C483 C 0.63058 0.91992 1.08520
 C484 C 0.63491 0.93980 1.06535
 C485 C 0.61286 0.95208 1.05236
 C486 C 0.58609 0.94462 1.05906
 C487 C 0.58195 0.92471 1.07919
 C488 C 0.60407 0.91245 1.09215
 H489 H 0.69846 0.85165 1.09121
 H490 H 0.73780 0.83020 1.11116
 H491 H 0.73778 0.89147 1.17488
 H492 H 0.69851 0.91229 1.15409
 H493 H 0.65535 0.94574 1.05982
 H494 H 0.61684 0.96735 1.03701
 H495 H 0.56165 0.91848 1.08486
 H496 H 0.60049 0.89707 1.10749
 C497 C 0.69454 1.11258 0.88319
 C498 C 0.70540 1.10221 0.85912
 C499 C 0.72771 1.11477 0.84688
 C500 C 0.73982 1.13814 0.85852
 C501 C 0.72833 1.14832 0.88289
 C502 C 0.70602 1.13565 0.89500
 C503 C 0.67174 1.09947 0.89590
 C504 C 0.65270 1.08851 0.90670
 C505 C 0.63006 1.07549 0.91980
 C506 C 0.63458 1.05594 0.93995
 C507 C 0.61264 1.04352 0.95296
 C508 C 0.58580 1.05052 0.94599
 C509 C 0.58149 1.07012 0.92559
 C510 C 0.60349 1.08251 0.91261
 H511 H 0.69661 1.08434 0.84976
 H512 H 0.73508 1.10587 0.82826
 H513 H 0.73637 1.16594 0.89310
 H514 H 0.69776 1.14385 0.91370
 H515 H 0.65508 1.05036 0.94566
 H516 H 0.61674 1.02850 0.96853
 H517 H 0.56114 1.07598 0.91970
 H518 H 0.59977 1.09763 0.89704
 C519 C 0.11683 0.30503 0.11220
 C520 C 0.14480 0.30076 0.10970
 C521 C 0.15702 0.27846 0.12238
 C522 C 0.14140 0.26012 0.13777
 C523 C 0.11329 0.26464 0.14018
 C524 C 0.10111 0.28693 0.12746
 C525 C 0.10421 0.32790 0.09906
 C526 C 0.09348 0.34699 0.08809
 C527 C 0.08046 0.36969 0.07505
 C528 C 0.08736 0.39626 0.08240
 C529 C 0.07440 0.41832 0.07003
 C530 C 0.05429 0.41407 0.05013
 C531 C 0.04764 0.38723 0.04279
 C532 C 0.06064 0.36523 0.05518
 H533 H 0.15717 0.31469 0.09799
 H534 H 0.17872 0.27578 0.12041
 H535 H 0.10063 0.25073 0.15153
 H536 H 0.07943 0.28999 0.12946
 H537 H 0.10268 0.39994 0.09777
 H538 H 0.08003 0.43867 0.07618
 H539 H 0.03231 0.38318 0.02753
 H540 H 0.05514 0.34474 0.04934
 C541 C -0.12122 0.30437 -0.11647
 C542 C -0.11852 0.30015 -0.14448
 C543 C -0.13036 0.27741 -0.15670
 C544 C -0.14508 0.25855 -0.14103
 C545 C -0.14775 0.26307 -0.11289
 C546 C -0.13588 0.28580 -0.10073
 C547 C -0.10864 0.32752 -0.10382
 C548 C -0.09795 0.34677 -0.09313
 C549 C -0.08493 0.36957 -0.08027
 C550 C -0.06522 0.36520 -0.06026
 C551 C -0.05228 0.38725 -0.04794
 C552 C -0.05889 0.41405 -0.05549
 C553 C -0.07887 0.41822 -0.07553
 C554 C -0.09177 0.39611 -0.08784
 H555 H -0.10725 0.31442 -0.15687
 H556 H -0.12822 0.27474 -0.17843
 H557 H -0.15859 0.24879 -0.10019
 H558 H -0.13799 0.28881 -0.07900
 H559 H -0.05978 0.34474 -0.05424
 H560 H -0.03706 0.38325 -0.03257
 H561 H -0.08446 0.43854 -0.08183
 H562 H -0.10701 0.39971 -0.10331
 C563 C 0.11361 0.69542 -0.11975
 C564 C 0.14161 0.69910 -0.11674
 C565 C 0.15434 0.72164 -0.12841
 C566 C 0.13922 0.74083 -0.14328
 C567 C 0.11109 0.73686 -0.14628
 C568 C 0.09839 0.71432 -0.13457
 C569 C 0.10046 0.67243 -0.10739
 C570 C 0.08943 0.65327 -0.09688
 C571 C 0.07626 0.63052 -0.08411
 C572 C 0.08334 0.60397 -0.09139
 C573 C 0.07078 0.58187 -0.07871
 C574 C 0.05096 0.58607 -0.05852
 C575 C 0.04391 0.61288 -0.05146
 C576 C 0.05649 0.63492 -0.06418
 H577 H 0.15360 0.68457 -0.10535
 H578 H 0.17606 0.72389 -0.12603
 H579 H 0.09880 0.75140 -0.15726
 H580 H 0.07669 0.71172 -0.13693
 H581 H 0.09863 0.60035 -0.10680
 H582 H 0.07670 0.56154 -0.08465
 H583 H 0.02873 0.61690 -0.03605
 H584 H 0.05086 0.65540 -0.05839
 C585 C -0.11600 0.69518 0.11754
 C586 C -0.13138 0.71337 0.10202
 C587 C -0.14349 0.73591 0.11434
 C588 C -0.14034 0.74060 0.14240
 C589 C -0.12489 0.72213 0.15783
 C590 C -0.11282 0.69958 0.14546
 C591 C -0.10332 0.67216 0.10474
 C592 C -0.09264 0.65299 0.09384
 C593 C -0.07986 0.63027 0.08062
 C594 C -0.08726 0.60370 0.08748
 C595 C -0.07504 0.58164 0.07439
 C596 C -0.05524 0.58589 0.05419
 C597 C -0.04787 0.61273 0.04754
 C598 C -0.06012 0.63472 0.06067
 H599 H -0.13390 0.71021 0.08036
 H600 H -0.15491 0.74991 0.10181
 H601 H -0.12236 0.72493 0.17950
 H602 H -0.10100 0.68558 0.15768
 H603 H -0.10253 0.60003 0.10290
 H604 H -0.08119 0.56129 0.08002
 H605 H -0.03269 0.61679 0.03215
 H606 H -0.05423 0.65521 0.05521
 C607 C 1.12070 0.11743 0.69583
 C608 C 1.10854 0.14006 0.70782
 C609 C 1.12035 0.15236 0.73053
 C610 C 1.14476 0.14222 0.74192
 C611 C 1.15678 0.11933 0.72925
 C612 C 1.14484 0.10715 0.70654
 C613 C 1.10822 0.10458 0.67272
 C614 C 1.09758 0.09376 0.65349
 C615 C 1.08464 0.08081 0.63070
 C616 C 1.09190 0.08791 0.60412
 C617 C 1.07906 0.07554 0.58199
 C618 C 1.05873 0.05590 0.58618
 C619 C 1.05170 0.04881 0.61302
 C620 C 1.06458 0.06120 0.63509
 H621 H 1.08977 0.14817 0.69968
 H622 H 1.10985 0.16960 0.73901
 H623 H 1.17550 0.11055 0.73646
 H624 H 1.15447 0.08962 0.69735
 H625 H 1.10742 0.10307 0.60051
 H626 H 1.08498 0.08147 0.56164
 H627 H 1.03620 0.03375 0.61703
 H628 H 1.05881 0.05555 0.65558
 C629 C 0.88338 -0.11262 0.69476
 C630 C 0.85931 -0.10230 0.70558
 C631 C 0.84702 -0.11496 0.72784
 C632 C 0.85859 -0.13841 0.73991
 C633 C 0.88297 -0.14852 0.72846
 C634 C 0.89514 -0.13574 0.70621
 C635 C 0.89611 -0.09943 0.67198
 C636 C 0.90691 -0.08842 0.65295
 C637 C 0.91996 -0.07535 0.63029
 C638 C 0.94007 -0.05582 0.63484
 C639 C 0.95306 -0.04337 0.61287
 C640 C 0.94610 -0.05033 0.58598
 C641 C 0.92573 -0.06990 0.58164
 C642 C 0.91278 -0.08232 0.60366
 H643 H 0.85000 -0.08437 0.69682
 H644 H 0.82841 -0.10608 0.73519
 H645 H 0.89313 -0.16620 0.73646
 H646 H 0.91384 -0.14391 0.69796
 H647 H 0.94577 -0.05027 0.65538
 H648 H 0.96859 -0.02837 0.61699
 H649 H 0.91986 -0.07574 0.56124
 H650 H 0.89724 -0.09743 0.59993
 C651 C 1.11575 -0.11762 0.30491
 C652 C 1.10549 -0.14204 0.29484
 C653 C 1.11758 -0.15451 0.27236
 C654 C 1.14037 -0.14276 0.25931
 C655 C 1.15049 -0.11805 0.27004
 C656 C 1.13827 -0.10571 0.29251
 C657 C 1.10304 -0.10466 0.32783
 C658 C 1.09235 -0.09368 0.34694
 C659 C 1.07958 -0.08042 0.36965
 C660 C 1.08689 -0.08736 0.39625
 C661 C 1.07467 -0.07427 0.41832
 C662 C 1.05497 -0.05399 0.41404
 C663 C 1.04769 -0.04726 0.38717
 C664 C 1.05993 -0.06039 0.36516
 H665 H 1.08805 -0.15150 0.30436
 H666 H 1.10888 -0.17346 0.26568
 H667 H 1.16761 -0.10770 0.26117
 H668 H 1.14637 -0.08672 0.30015
 H669 H 1.10208 -0.10285 0.39994
 H670 H 1.08076 -0.07996 0.43869
 H671 H 1.03258 -0.03180 0.38309
 H672 H 1.05411 -0.05487 0.34464
 C673 C 0.88627 0.12054 0.30494
 C674 C 0.89790 0.14280 0.29180
 C675 C 0.88514 0.15445 0.26924
 C676 C 0.86029 0.14401 0.25919
 C677 C 0.84884 0.12151 0.27301
 C678 C 0.86172 0.10998 0.29554
 C679 C 0.89965 0.10832 0.32790
 C680 C 0.91082 0.09786 0.34703
 C681 C 0.92409 0.08510 0.36975
 C682 C 0.94375 0.06509 0.36526
 C683 C 0.95633 0.05227 0.38727
 C684 C 0.94938 0.05931 0.41414
 C685 C 0.92970 0.07961 0.41842
 C686 C 0.91715 0.09238 0.39635
 H687 H 0.91699 0.15112 0.29890
 H688 H 0.89527 0.17141 0.25979
 H689 H 0.82982 0.11258 0.26687
 H690 H 0.85249 0.09274 0.30564
 H691 H 0.94928 0.05929 0.34474
 H692 H 0.97141 0.03678 0.38319
 H693 H 0.92386 0.08553 0.43880
 H694 H 0.90193 0.10785 0.40004
 C695 C 0.11797 0.30505 -0.11610
 C696 C 0.14241 0.29503 -0.10584
 C697 C 0.15483 0.27252 -0.11789
 C698 C 0.14301 0.25939 -0.14063
 C699 C 0.11828 0.27006 -0.15074
 C700 C 0.10598 0.29257 -0.13857
 C701 C 0.10505 0.32800 -0.10341
 C702 C 0.09411 0.34712 -0.09273
 C703 C 0.08087 0.36982 -0.07994
 C704 C 0.08769 0.39639 -0.08737
 C705 C 0.07461 0.41844 -0.07514
 C706 C 0.05446 0.41417 -0.05529
 C707 C 0.04786 0.38734 -0.04788
 C708 C 0.06098 0.36535 -0.06014
 H709 H 0.15192 0.30461 -0.08844
 H710 H 0.17380 0.26588 -0.10920
 H711 H 0.10788 0.26112 -0.16783
 H712 H 0.08697 0.30017 -0.14665
 H713 H 0.10307 0.40007 -0.10268
 H714 H 0.08020 0.43879 -0.08132
 H715 H 0.03251 0.38327 -0.03266
 H716 H 0.05556 0.34486 -0.05422
 C717 C -0.11990 0.30451 0.11271
 C718 C -0.10364 0.28670 0.12775
 C719 C -0.11521 0.26424 0.14068
 C720 C -0.14327 0.25925 0.13873
 C721 C -0.15945 0.27730 0.12354
 C722 C -0.14783 0.29978 0.11064
 C723 C -0.10786 0.32755 0.09936
 C724 C -0.09750 0.34674 0.08824
 C725 C -0.08480 0.36951 0.07504
 C726 C -0.06507 0.36513 0.05507
 C727 C -0.05224 0.38718 0.04262
 C728 C -0.05897 0.41398 0.05003
 C729 C -0.07901 0.41816 0.07000
 C730 C -0.09180 0.39605 0.08242
 H731 H -0.08198 0.29012 0.12940
 H732 H -0.10212 0.25056 0.15185
 H733 H -0.18114 0.27425 0.12192
 H734 H -0.16062 0.31348 0.09910
 H735 H -0.05948 0.34466 0.04921
 H736 H -0.03696 0.38318 0.02730
 H737 H -0.08470 0.43849 0.07619
 H738 H -0.10704 0.39966 0.09789
 C739 C -0.11671 0.69548 -0.12161
 C740 C -0.13962 0.70710 -0.10963
 C741 C -0.15198 0.72980 -0.12138
 C742 C -0.14164 0.74156 -0.14555
 C743 C -0.11847 0.72927 -0.15740
 C744 C -0.10622 0.70656 -0.14552
 C745 C -0.10380 0.67240 -0.10916
 C746 C -0.09296 0.65319 -0.09850
 C747 C -0.08001 0.63043 -0.08550
 C748 C -0.08739 0.60388 -0.09244
 C749 C -0.07507 0.58179 -0.07949
 C750 C -0.05520 0.58600 -0.05935
 C751 C -0.04784 0.61281 -0.05264
 C752 C -0.06018 0.63484 -0.06564
 H753 H -0.14791 0.69867 -0.09105
 H754 H -0.16947 0.73794 -0.11103
 H755 H -0.10948 0.73681 -0.17591
 H756 H -0.08846 0.69768 -0.15501
 H757 H -0.10274 0.60024 -0.10780
 H758 H -0.08123 0.56145 -0.08515
 H759 H -0.03260 0.61684 -0.03729
 H760 H -0.05431 0.65531 -0.06011
 C761 C 0.11266 0.69479 0.11642
 C762 C 0.14071 0.69843 0.11397
 C763 C 0.15331 0.72072 0.12626
 C764 C 0.13798 0.73967 0.14121
 C765 C 0.10977 0.73577 0.14358
 C766 C 0.09723 0.71349 0.13124
 C767 C 0.09968 0.67198 0.10358
 C768 C 0.08879 0.65292 0.09274
 C769 C 0.07579 0.63025 0.07968
 C770 C 0.05617 0.63474 0.05960
 C771 C 0.04372 0.61276 0.04667
 C772 C 0.05075 0.58592 0.05366
 C773 C 0.07042 0.58163 0.07398
 C774 C 0.08284 0.60367 0.08687
 H775 H 0.15286 0.68404 0.10258
 H776 H 0.17507 0.72292 0.12435
 H777 H 0.09734 0.75016 0.15458
 H778 H 0.07547 0.71092 0.13318
 H779 H 0.05056 0.65525 0.05389
 H780 H 0.02865 0.61684 0.03116
 H781 H 0.07631 0.56128 0.07987
 H782 H 0.09801 0.59998 0.10240
 C783 C 0.30548 1.11652 0.88708
 C784 C 0.30162 1.11388 0.85902
 C785 C 0.27933 1.12620 0.84646
 C786 C 0.26058 1.14136 0.86183
 C787 C 0.26471 1.14394 0.89004
 C788 C 0.28701 1.13158 0.90255
 C789 C 0.32828 1.10362 0.90003
 C790 C 0.34731 1.09271 0.91090
 C791 C 0.36995 1.07956 0.92387
 C792 C 0.39651 1.08674 0.91685
 C793 C 0.41852 1.07379 0.92929
 C794 C 0.41422 1.05344 0.94893
 C795 C 0.38739 1.04646 0.95591
 C796 C 0.36544 1.05945 0.94345
 H797 H 0.31584 1.10231 0.84684
 H798 H 0.27696 1.12412 0.82469
 H799 H 0.25050 1.15512 0.90252
 H800 H 0.28976 1.13367 0.92431
 H801 H 0.40022 1.10229 0.90172
 H802 H 0.43887 1.07968 0.92344
 H803 H 0.38330 1.03093 0.97096
 H804 H 0.34494 1.05375 0.94903
 C805 C 0.30455 0.87949 1.11737
 C806 C 0.28644 0.89551 1.13231
 C807 C 0.26374 0.88371 1.14458
 C808 C 0.25881 0.85567 1.14204
 C809 C 0.27719 0.83972 1.12703
 C810 C 0.29991 0.85157 1.11479
 C811 C 0.32771 0.89179 1.10451
 C812 C 0.34696 0.90235 1.09369
 C813 C 0.36974 0.91526 1.08072
 C814 C 0.39626 0.90795 1.08781
 C815 C 0.41836 0.92079 1.07543
 C816 C 0.41418 0.94116 1.05577
 C817 C 0.38739 0.94825 1.04872
 C818 C 0.36536 0.93538 1.06112
 H819 H 0.28979 0.91717 1.13434
 H820 H 0.24982 0.89662 1.15564
 H821 H 0.27418 0.81805 1.12498
 H822 H 0.31383 0.83897 1.10332
 H823 H 0.39986 0.89240 1.10298
 H824 H 0.43867 0.91482 1.08134
 H825 H 0.38338 0.96379 1.03365
 H826 H 0.34491 0.94119 1.05548
 C827 C 0.69518 1.11285 1.12011
 C828 C 0.69879 1.14086 1.11690
 C829 C 0.72125 1.15374 1.12852
 C830 C 0.74042 1.13876 1.14354
 C831 C 0.73653 1.11062 1.14672
 C832 C 0.71407 1.09777 1.13506
 C833 C 0.67225 1.09955 1.10782
 C834 C 0.65313 1.08842 1.09736
 C835 C 0.63042 1.07518 1.08462
 C836 C 0.60389 1.08248 1.09165
 C837 C 0.58182 1.06997 1.07890
 C838 C 0.58604 1.04998 1.05887
 C839 C 0.61284 1.04265 1.05211
 C840 C 0.63484 1.05519 1.06490
 H841 H 0.68425 1.15273 1.10541
 H842 H 0.72345 1.17546 1.12600
 H843 H 0.75108 1.09844 1.15781
 H844 H 0.71153 1.07606 1.13757
 H845 H 0.60025 1.09794 1.10690
 H846 H 0.56150 1.07610 1.08461
 H847 H 0.61686 1.02732 1.03683
 H848 H 0.65531 1.04938 1.05931
 C849 C 0.69491 0.88342 0.88225
 C850 C 0.69919 0.88658 0.85430
 C851 C 0.72169 0.87452 0.84187
 C852 C 0.74023 0.85911 0.85725
 C853 C 0.73567 0.85599 0.88533
 C854 C 0.71317 0.86808 0.89772
 C855 C 0.67194 0.89607 0.89512
 C856 C 0.65280 0.90671 0.90608
 C857 C 0.63011 0.91945 0.91937
 C858 C 0.63458 0.93888 0.93963
 C859 C 0.61261 0.95111 0.95278
 C860 C 0.58579 0.94406 0.94583
 C861 C 0.58153 0.92456 0.92533
 C862 C 0.60356 0.91235 0.91221
 H863 H 0.68514 0.89836 0.84212
 H864 H 0.72441 0.87701 0.82018
 H865 H 0.74972 0.84460 0.89782
 H866 H 0.71011 0.86560 0.91939
 H867 H 0.65506 0.94453 0.94531
 H868 H 0.61668 0.96606 0.96841
 H869 H 0.56119 0.91866 0.91946
 H870 H 0.59988 0.89732 0.89655
   
