data_POSCAR
  _audit_creation_date              2014-09-24
  _audit_creation_method            'ToBaCCo'
  _symmetry_space_group_name_H-M    'P1'
  _symmetry_Int_Tables_number       1
  _symmetry_cell_setting            triclinic
  loop_
  _symmetry_equiv_pos_as_xyz
 x,y,z
_cell_length_a 47.2350
_cell_length_b 47.2478
_cell_length_c 47.2461
_cell_angle_alpha 89.993600
_cell_angle_beta 89.999800
_cell_angle_gamma 90.004000
loop_
  _atom_site_label
  _atom_site_type_symbol
  _atom_site_fract_x
  _atom_site_fract_y
  _atom_site_fract_z
C1 C 0.27412 0.23811 0.23771
 C2 C 0.26200 0.22599 0.26194
 C3 C 0.23805 0.23796 0.27392
 C4 C 0.22593 0.26220 0.26180
 C5 C 0.23791 0.27417 0.23786
 C6 C 0.26215 0.26206 0.22574
 C7 C 0.29734 0.23102 0.22157
 N8 N 0.29956 0.25009 0.20029
 C9 C 0.27827 0.26916 0.20251
 C10 C 0.22178 0.29739 0.23076
 N11 N 0.20049 0.29961 0.24982
 C12 C 0.20270 0.27832 0.26889
 C13 C 0.23094 0.22182 0.29713
 N14 N 0.25001 0.20053 0.29934
 C15 C 0.26909 0.20276 0.27806
 H16 H 0.31156 0.21337 0.22500
 H17 H 0.27483 0.28681 0.18830
 H18 H 0.22522 0.31161 0.21311
 H19 H 0.18848 0.27488 0.28654
 H20 H 0.21329 0.22525 0.31134
 H21 H 0.28673 0.18854 0.27462
 C22 C 0.72545 -0.23843 0.23722
 C23 C 0.73759 -0.22629 0.26143
 C24 C 0.76160 -0.23821 0.27335
 C25 C 0.77376 -0.26240 0.26120
 C26 C 0.76176 -0.27441 0.23727
 C27 C 0.73746 -0.26235 0.22521
 C28 C 0.70216 -0.23138 0.22115
 N29 N 0.69996 -0.25047 0.19987
 C30 C 0.72130 -0.26949 0.20202
 C31 C 0.77793 -0.29760 0.23014
 N32 N 0.79926 -0.29974 0.24918
 C33 C 0.79705 -0.27847 0.26826
 C34 C 0.76870 -0.22208 0.29656
 N35 N 0.74959 -0.20084 0.29884
 C36 C 0.73047 -0.20310 0.27759
 H37 H 0.68791 -0.21376 0.22465
 H38 H 0.72477 -0.28714 0.18781
 H39 H 0.77447 -0.31181 0.21248
 H40 H 0.81128 -0.27498 0.28590
 H41 H 0.78640 -0.22548 0.31074
 H42 H 0.71278 -0.18893 0.27420
 C43 C 0.72628 0.23891 0.76227
 C44 C 0.73847 0.22677 0.73809
 C45 C 0.76245 0.23873 0.72615
 C46 C 0.77453 0.26299 0.73826
 C47 C 0.76249 0.27500 0.76217
 C48 C 0.73822 0.26289 0.77424
 C49 C 0.70302 0.23182 0.77835
 N50 N 0.70075 0.25093 0.79960
 C51 C 0.72204 0.27002 0.79742
 C52 C 0.77859 0.29825 0.76927
 N53 N 0.79992 0.30043 0.75024
 C54 C 0.79778 0.27912 0.73118
 C55 C 0.76960 0.22257 0.70297
 N56 N 0.75054 0.20127 0.70075
 C57 C 0.73142 0.20352 0.72199
 H58 H 0.68883 0.21414 0.77488
 H59 H 0.72546 0.28770 0.81161
 H60 H 0.77507 0.31247 0.78690
 H61 H 0.81202 0.27564 0.71356
 H62 H 0.78729 0.22599 0.68880
 H63 H 0.71376 0.18931 0.72540
 C64 C 0.27415 -0.23899 0.76314
 C65 C 0.26203 -0.22687 0.73891
 C66 C 0.23801 -0.23876 0.72700
 C67 C 0.22582 -0.26293 0.73917
 C68 C 0.23779 -0.27493 0.76312
 C69 C 0.26210 -0.26289 0.77518
 C70 C 0.29744 -0.23195 0.77921
 N71 N 0.29961 -0.25101 0.80052
 C72 C 0.27824 -0.27002 0.79839
 C73 C 0.22158 -0.29808 0.77029
 N74 N 0.20025 -0.30022 0.75124
 C75 C 0.20251 -0.27897 0.73213
 C76 C 0.23094 -0.22264 0.70377
 N77 N 0.25008 -0.20143 0.70148
 C78 C 0.26919 -0.20369 0.72274
 H79 H 0.31170 -0.21434 0.77570
 H80 H 0.27474 -0.28764 0.81263
 H81 H 0.22501 -0.31228 0.78796
 H82 H 0.18829 -0.27547 0.71448
 H83 H 0.21324 -0.22602 0.68960
 H84 H 0.28690 -0.18954 0.72612
 C85 C 0.72551 -0.23856 0.76303
 C86 C 0.73764 -0.22642 0.73881
 C87 C 0.76164 -0.23834 0.72688
 C88 C 0.77380 -0.26254 0.73902
 C89 C 0.76181 -0.27454 0.76296
 C90 C 0.73752 -0.26249 0.77503
 C91 C 0.70222 -0.23152 0.77911
 N92 N 0.70003 -0.25060 0.80039
 C93 C 0.72137 -0.26963 0.79823
 C94 C 0.77798 -0.29774 0.77009
 N95 N 0.79930 -0.29989 0.75103
 C96 C 0.79708 -0.27861 0.73195
 C97 C 0.76874 -0.22220 0.70366
 N98 N 0.74962 -0.20096 0.70140
 C99 C 0.73052 -0.20322 0.72266
 H100 H 0.68798 -0.21389 0.77561
 H101 H 0.72484 -0.28729 0.81244
 H102 H 0.77452 -0.31195 0.78774
 H103 H 0.81130 -0.27512 0.71430
 H104 H 0.78642 -0.22560 0.68948
 H105 H 0.71282 -0.18905 0.72605
 C106 C 0.27450 0.23827 0.76239
 C107 C 0.26231 0.22611 0.73822
 C108 C 0.23830 0.23804 0.72631
 C109 C 0.22620 0.26228 0.73843
 C110 C 0.23825 0.27430 0.76232
 C111 C 0.26254 0.26223 0.77437
 C112 C 0.29780 0.23121 0.77844
 N113 N 0.30005 0.25032 0.79969
 C114 C 0.27874 0.26938 0.79754
 C115 C 0.22212 0.29751 0.76943
 N116 N 0.20076 0.29968 0.75043
 C117 C 0.20293 0.27837 0.73139
 C118 C 0.23114 0.22187 0.70314
 N119 N 0.25022 0.20060 0.70088
 C120 C 0.26936 0.20287 0.72210
 H121 H 0.31200 0.21355 0.77496
 H122 H 0.27531 0.28705 0.81173
 H123 H 0.22560 0.31176 0.78704
 H124 H 0.18866 0.27490 0.71380
 H125 H 0.21343 0.22527 0.68898
 H126 H 0.28704 0.18868 0.72550
 C127 C 0.27422 -0.23885 0.23711
 C128 C 0.26210 -0.22672 0.26134
 C129 C 0.23808 -0.23862 0.27325
 C130 C 0.22587 -0.26278 0.26108
 C131 C 0.23784 -0.27477 0.23713
 C132 C 0.26216 -0.26274 0.22507
 C133 C 0.29751 -0.23182 0.22104
 N134 N 0.29967 -0.25087 0.19973
 C135 C 0.27830 -0.26987 0.20186
 C136 C 0.22163 -0.29792 0.22996
 N137 N 0.20030 -0.30006 0.24901
 C138 C 0.20256 -0.27881 0.26812
 C139 C 0.23101 -0.22250 0.29648
 N140 N 0.25016 -0.20130 0.29877
 C141 C 0.26926 -0.20356 0.27752
 H142 H 0.31178 -0.21422 0.22455
 H143 H 0.27479 -0.28749 0.18762
 H144 H 0.22505 -0.31211 0.21229
 H145 H 0.18834 -0.27532 0.28577
 H146 H 0.21331 -0.22589 0.31066
 H147 H 0.28698 -0.18941 0.27414
 C148 C 0.72670 0.23875 0.23779
 C149 C 0.73881 0.22664 0.26203
 C150 C 0.76273 0.23865 0.27404
 C151 C 0.77482 0.26291 0.26195
 C152 C 0.76285 0.27488 0.23798
 C153 C 0.73864 0.26272 0.22584
 C154 C 0.70350 0.23162 0.22163
 N155 N 0.70128 0.25068 0.20035
 C156 C 0.72253 0.26979 0.20260
 C157 C 0.77894 0.29814 0.23090
 N158 N 0.80020 0.30037 0.25001
 C159 C 0.79802 0.27908 0.26908
 C160 C 0.76982 0.22252 0.29727
 N161 N 0.75078 0.20120 0.29945
 C162 C 0.73173 0.20340 0.27814
 H163 H 0.68932 0.21394 0.22504
 H164 H 0.72595 0.28745 0.18839
 H165 H 0.77546 0.31234 0.21324
 H166 H 0.81222 0.27564 0.28676
 H167 H 0.78745 0.22597 0.31150
 H168 H 0.71411 0.18916 0.27467
 O169 O 0.22678 0.02685 0.47262
 O170 O 0.22682 -0.02825 0.52773
 O171 O 0.22679 0.02685 0.52772
 O172 O 0.22683 -0.02825 0.47261
 O173 O 0.27352 -0.02821 0.47261
 O174 O 0.27349 0.02688 0.52772
 O175 O 0.27351 -0.02822 0.52773
 O176 O 0.27347 0.02689 0.47262
 Cu177 Cu 0.22213 -0.00071 0.50017
 Cu178 Cu 0.27818 -0.00067 0.50017
 C179 C 0.25012 0.03632 0.46318
 C180 C 0.25017 -0.03768 0.53718
 C181 C 0.25013 0.03632 0.53716
 C182 C 0.25018 -0.03767 0.46316
 O183 O 0.77359 0.02733 0.52771
 O184 O 0.77338 -0.02777 0.47260
 O185 O 0.77360 0.02733 0.47261
 O186 O 0.77338 -0.02778 0.52772
 O187 O 0.72669 -0.02761 0.52771
 O188 O 0.72691 0.02751 0.47260
 O189 O 0.72669 -0.02760 0.47259
 O190 O 0.72689 0.02750 0.52770
 Cu191 Cu 0.77816 -0.00025 0.50016
 Cu192 Cu 0.72212 -0.00004 0.50015
 C193 C 0.75027 0.03687 0.53714
 C194 C 0.75000 -0.03712 0.46314
 C195 C 0.75029 0.03687 0.46317
 C196 C 0.74999 -0.03714 0.53717
 O197 O 0.47294 0.22716 0.02665
 O198 O 0.52805 0.22732 -0.02846
 O199 O 0.52804 0.22726 0.02664
 O200 O 0.47292 0.22723 -0.02846
 O201 O 0.47284 0.27391 -0.02841
 O202 O 0.52797 0.27394 0.02669
 O203 O 0.52797 0.27400 -0.02841
 O204 O 0.47285 0.27384 0.02670
 Cu205 Cu 0.50050 0.22257 -0.00092
 Cu206 Cu 0.50040 0.27860 -0.00086
 C207 C 0.46345 0.25047 0.03612
 C208 C 0.53746 0.25069 -0.03788
 C209 C 0.53745 0.25060 0.03612
 C210 C 0.46343 0.25056 -0.03787
 O211 O 0.52742 0.77255 0.02764
 O212 O 0.47229 0.77246 -0.02747
 O213 O 0.47229 0.77248 0.02764
 O214 O 0.52741 0.77253 -0.02748
 O215 O 0.52747 0.72585 -0.02745
 O216 O 0.47235 0.72580 0.02766
 O217 O 0.47234 0.72578 -0.02744
 O218 O 0.52747 0.72588 0.02766
 Cu219 Cu 0.49985 0.77718 0.00008
 Cu220 Cu 0.49992 0.72115 0.00011
 C221 C 0.53689 0.74923 0.03710
 C222 C 0.46286 0.74910 -0.03689
 C223 C 0.46287 0.74913 0.03709
 C224 C 0.53689 0.74920 -0.03691
 O225 O 0.02715 0.47316 0.22615
 O226 O -0.02797 0.52826 0.22602
 O227 O 0.02716 0.52826 0.22598
 O228 O -0.02796 0.47315 0.22620
 O229 O -0.02792 0.47329 0.27288
 O230 O 0.02720 0.52840 0.27266
 O231 O -0.02793 0.52840 0.27270
 O232 O 0.02719 0.47330 0.27283
 Cu233 Cu -0.00041 0.50070 0.22141
 Cu234 Cu -0.00036 0.50087 0.27745
 C235 C 0.03661 0.46378 0.24951
 C236 C -0.03741 0.53777 0.24934
 C237 C 0.03665 0.53777 0.24928
 C238 C -0.03737 0.46376 0.24958
 O239 O 0.02715 0.52807 0.77430
 O240 O -0.02798 0.47296 0.77409
 O241 O 0.02714 0.47297 0.77415
 O242 O -0.02799 0.52807 0.77425
 O243 O -0.02794 0.52820 0.72757
 O244 O 0.02718 0.47310 0.72747
 O245 O -0.02793 0.47309 0.72741
 O246 O 0.02719 0.52820 0.72762
 Cu247 Cu -0.00042 0.50050 0.77887
 Cu248 Cu -0.00037 0.50067 0.72284
 C249 C 0.03663 0.53757 0.75100
 C250 C -0.03739 0.46357 0.75072
 C251 C 0.03661 0.46359 0.75079
 C252 C -0.03742 0.53757 0.75093
 C253 C 0.40974 0.22467 0.08994
 C254 C 0.39920 0.25026 0.10048
 C255 C 0.40964 0.27592 0.08999
 C256 C 0.43054 0.27602 0.06904
 C257 C 0.32053 0.25009 0.17931
 C258 C 0.43065 0.22471 0.06899
 C259 C 0.37768 0.25019 0.12205
 C260 C 0.35966 0.25015 0.14011
 C261 C 0.33856 0.25011 0.16125
 C262 C 0.44130 0.25040 0.05830
 H263 H 0.40181 0.20469 0.09792
 H264 H 0.40162 0.29585 0.09800
 H265 H 0.43827 0.29615 0.06127
 H266 H 0.43847 0.20463 0.06119
 C267 C 0.59067 0.77494 0.09089
 C268 C 0.60121 0.74934 0.10140
 C269 C 0.59074 0.72370 0.09091
 C270 C 0.56980 0.72363 0.06998
 C271 C 0.68006 0.74948 0.18007
 C272 C 0.56974 0.77494 0.06996
 C273 C 0.62276 0.74937 0.12294
 C274 C 0.64082 0.74940 0.14096
 C275 C 0.66198 0.74944 0.16206
 C276 C 0.55906 0.74927 0.05926
 H277 H 0.59863 0.79492 0.09886
 H278 H 0.59875 0.70375 0.09890
 H279 H 0.56205 0.70351 0.06221
 H280 H 0.56193 0.79504 0.06217
 C281 C 0.59132 0.27646 -0.09157
 C282 C 0.60189 0.25086 -0.10206
 C283 C 0.59140 0.22521 -0.09160
 C284 C 0.57043 0.22512 -0.07072
 C285 C 0.68086 0.25093 -0.18060
 C286 C 0.57034 0.27644 -0.07069
 C287 C 0.62349 0.25091 -0.12355
 C288 C 0.64158 0.25093 -0.14154
 C289 C 0.66277 0.25094 -0.16260
 C290 C 0.55966 0.25075 -0.06002
 H291 H 0.59929 0.29644 -0.09952
 H292 H 0.59944 0.20527 -0.09958
 H293 H 0.56267 0.20500 -0.06297
 H294 H 0.56251 0.29652 -0.06291
 C295 C 0.40893 0.77463 -0.09062
 C296 C 0.39843 0.74899 -0.10109
 C297 C 0.40899 0.72338 -0.09059
 C298 C 0.42996 0.72339 -0.06971
 C299 C 0.31949 0.74896 -0.17966
 C300 C 0.42990 0.77470 -0.06974
 C301 C 0.37683 0.74895 -0.12258
 C302 C 0.35875 0.74894 -0.14058
 C303 C 0.33757 0.74894 -0.16166
 C304 C 0.44066 0.74906 -0.05904
 H305 H 0.40090 0.79458 -0.09860
 H306 H 0.40101 0.70341 -0.09855
 H307 H 0.43778 0.70329 -0.06193
 H308 H 0.43767 0.79482 -0.06198
 C309 C 0.09036 0.40999 0.27526
 C310 C 0.10084 0.39940 0.24966
 C311 C 0.09034 0.40986 0.22401
 C312 C 0.06945 0.43082 0.22393
 C313 C 0.17951 0.32058 0.24981
 C314 C 0.06946 0.43094 0.27524
 C315 C 0.12235 0.37783 0.24970
 C316 C 0.14037 0.35977 0.24975
 C317 C 0.16148 0.33863 0.24979
 C318 C 0.05876 0.44160 0.24956
 H319 H 0.09834 0.40204 0.29524
 H320 H 0.09831 0.40182 0.20407
 H321 H 0.06167 0.43856 0.20381
 H322 H 0.06170 0.43878 0.29533
 C323 C 0.09059 0.59113 0.77680
 C324 C 0.10116 0.60165 0.75121
 C325 C 0.09063 0.59126 0.72556
 C326 C 0.06962 0.57042 0.72545
 C327 C 0.18031 0.68002 0.75129
 C328 C 0.06958 0.57029 0.77677
 C329 C 0.12282 0.62309 0.75128
 C330 C 0.14095 0.64104 0.75131
 C331 C 0.16218 0.66206 0.75131
 C332 C 0.05885 0.55968 0.75107
 H333 H 0.09860 0.59903 0.79679
 H334 H 0.09867 0.59926 0.70562
 H335 H 0.06183 0.56272 0.70532
 H336 H 0.06175 0.56248 0.79685
 C337 C -0.09133 0.59140 0.22360
 C338 C -0.10185 0.60194 0.24920
 C339 C -0.09131 0.59153 0.27485
 C340 C -0.07033 0.57065 0.27493
 C341 C -0.18084 0.68046 0.24915
 C342 C -0.07035 0.57052 0.22361
 C343 C -0.12346 0.62342 0.24916
 C344 C -0.14156 0.64140 0.24914
 C345 C -0.16274 0.66246 0.24914
 C346 C -0.05961 0.55990 0.24929
 H347 H -0.09935 0.59931 0.20362
 H348 H -0.09931 0.59954 0.29479
 H349 H -0.06252 0.56294 0.29505
 H350 H -0.06257 0.56271 0.20352
 C351 C -0.09109 0.40976 0.72488
 C352 C -0.10161 0.39917 0.75047
 C353 C -0.09116 0.40963 0.77613
 C354 C -0.07027 0.43059 0.77625
 C355 C -0.18025 0.32029 0.75025
 C356 C -0.07020 0.43072 0.72493
 C357 C -0.12312 0.37759 0.75039
 C358 C -0.14113 0.35951 0.75033
 C359 C -0.16222 0.33836 0.75028
 C360 C -0.05954 0.44138 0.75063
 H361 H -0.09904 0.40181 0.70489
 H362 H -0.09916 0.40158 0.79606
 H363 H -0.06253 0.43833 0.79638
 H364 H -0.06240 0.43856 0.70486
 C365 C 0.22443 0.09015 0.40944
 C366 C 0.25005 0.10068 0.39893
 C367 C 0.27569 0.09017 0.40940
 C368 C 0.27575 0.06923 0.43030
 C369 C 0.24999 0.17953 0.32029
 C370 C 0.22442 0.06920 0.43035
 C371 C 0.25002 0.12224 0.37741
 C372 C 0.24999 0.14031 0.35940
 C373 C 0.24998 0.16147 0.33831
 C374 C 0.25010 0.05850 0.44102
 H375 H 0.20446 0.09814 0.40148
 H376 H 0.29565 0.09818 0.40140
 H377 H 0.29587 0.06145 0.43806
 H378 H 0.20432 0.06141 0.43813
 C379 C 0.77609 0.09069 0.59082
 C380 C 0.75049 0.10131 0.60130
 C381 C 0.72483 0.09086 0.59083
 C382 C 0.72473 0.06988 0.56996
 C383 C 0.75058 0.18026 0.67982
 C384 C 0.77605 0.06971 0.56995
 C385 C 0.75056 0.12291 0.62277
 C386 C 0.75059 0.14100 0.64076
 C387 C 0.75060 0.16218 0.66182
 C388 C 0.75035 0.05906 0.55927
 H389 H 0.79608 0.09863 0.59878
 H390 H 0.70489 0.09893 0.59879
 H391 H 0.70459 0.06215 0.56220
 H392 H 0.79614 0.06185 0.56219
 C393 C 0.22456 -0.09141 0.59106
 C394 C 0.25019 -0.10189 0.60158
 C395 C 0.27582 -0.09141 0.59105
 C396 C 0.27585 -0.07052 0.57008
 C397 C 0.25011 -0.18048 0.68048
 C398 C 0.22452 -0.07052 0.57010
 C399 C 0.25019 -0.12339 0.62316
 C400 C 0.25018 -0.14139 0.64125
 C401 C 0.25015 -0.16247 0.66241
 C402 C 0.25018 -0.05983 0.55937
 H403 H 0.20459 -0.09938 0.59906
 H404 H 0.29579 -0.09937 0.59904
 H405 H 0.29596 -0.06275 0.56229
 H406 H 0.20441 -0.06276 0.56231
 C407 C 0.77543 -0.09092 0.40925
 C408 C 0.74976 -0.10131 0.39873
 C409 C 0.72417 -0.09074 0.40926
 C410 C 0.72421 -0.06986 0.43023
 C411 C 0.74958 -0.17989 0.31983
 C412 C 0.77554 -0.07004 0.43022
 C413 C 0.74968 -0.12280 0.37714
 C414 C 0.74963 -0.14080 0.35906
 C415 C 0.74959 -0.16188 0.33790
 C416 C 0.74991 -0.05926 0.44095
 H417 H 0.79536 -0.09895 0.40125
 H418 H 0.70417 -0.09863 0.40126
 H419 H 0.70413 -0.06202 0.43802
 H420 H 0.79568 -0.06234 0.43801
 C421 C 0.59070 0.77486 -0.09071
 C422 C 0.60124 0.74924 -0.10119
 C423 C 0.59075 0.72361 -0.09067
 C424 C 0.56981 0.72356 -0.06976
 C425 C 0.68013 0.74933 -0.17981
 C426 C 0.56975 0.77487 -0.06979
 C427 C 0.62281 0.74925 -0.12271
 C428 C 0.64088 0.74926 -0.14072
 C429 C 0.66204 0.74930 -0.16181
 C430 C 0.55907 0.74921 -0.05907
 H431 H 0.59867 0.79482 -0.09870
 H432 H 0.59876 0.70365 -0.09864
 H433 H 0.56205 0.70345 -0.06197
 H434 H 0.56195 0.79498 -0.06203
 C435 C 0.40948 0.27614 -0.09155
 C436 C 0.39899 0.25050 -0.10205
 C437 C 0.40957 0.22489 -0.09159
 C438 C 0.43055 0.22488 -0.07071
 C439 C 0.31997 0.25035 -0.18053
 C440 C 0.43046 0.27619 -0.07068
 C441 C 0.37738 0.25048 -0.12353
 C442 C 0.35928 0.25044 -0.14151
 C443 C 0.33807 0.25040 -0.16255
 C444 C 0.44123 0.25054 -0.06001
 H445 H 0.40144 0.29609 -0.09950
 H446 H 0.40160 0.20492 -0.09957
 H447 H 0.43838 0.20478 -0.06297
 H448 H 0.43822 0.29630 -0.06290
 C449 C 0.40903 0.72346 0.09084
 C450 C 0.39848 0.74907 0.10132
 C451 C 0.40897 0.77470 0.09083
 C452 C 0.42993 0.77476 0.06993
 C453 C 0.31956 0.74908 0.17992
 C454 C 0.42999 0.72345 0.06995
 C455 C 0.37689 0.74905 0.12283
 C456 C 0.35881 0.74905 0.14083
 C457 C 0.33764 0.74906 0.16191
 C458 C 0.44068 0.74911 0.05924
 H459 H 0.40105 0.70349 0.09882
 H460 H 0.40095 0.79466 0.09879
 H461 H 0.43770 0.79487 0.06215
 H462 H 0.43780 0.70335 0.06218
 C463 C 0.59118 0.27624 0.08998
 C464 C 0.60171 0.25062 0.10047
 C465 C 0.59125 0.22499 0.08993
 C466 C 0.57034 0.22496 0.06898
 C467 C 0.68033 0.25064 0.17934
 C468 C 0.57027 0.27627 0.06904
 C469 C 0.62323 0.25062 0.12204
 C470 C 0.64124 0.25061 0.14011
 C471 C 0.66232 0.25062 0.16127
 C472 C 0.55961 0.25061 0.05829
 H473 H 0.59914 0.29620 0.09800
 H474 H 0.59925 0.20504 0.09790
 H475 H 0.56259 0.20485 0.06118
 H476 H 0.56247 0.29638 0.06127
 C477 C -0.09130 0.59134 0.72539
 C478 C -0.10184 0.60176 0.75103
 C479 C -0.09133 0.59123 0.77664
 C480 C -0.07035 0.57034 0.77664
 C481 C -0.18081 0.68030 0.75105
 C482 C -0.07033 0.57045 0.72532
 C483 C -0.12344 0.62325 0.75106
 C484 C -0.14154 0.64124 0.75107
 C485 C -0.16272 0.66231 0.75107
 C486 C -0.05961 0.55971 0.75096
 H487 H -0.09930 0.59934 0.70544
 H488 H -0.09934 0.59915 0.79661
 H489 H -0.06257 0.56254 0.79673
 H490 H -0.06253 0.56273 0.70520
 C491 C -0.09106 0.40975 0.22417
 C492 C -0.10150 0.39928 0.24984
 C493 C -0.09101 0.40989 0.27542
 C494 C -0.07015 0.43089 0.27537
 C495 C -0.18000 0.32026 0.25002
 C496 C -0.07020 0.43074 0.22406
 C497 C -0.12297 0.37766 0.24992
 C498 C -0.14094 0.35955 0.24998
 C499 C -0.16200 0.33836 0.25001
 C500 C -0.05950 0.44156 0.24967
 H501 H -0.09904 0.40168 0.20425
 H502 H -0.09895 0.40194 0.29542
 H503 H -0.06237 0.43875 0.29545
 H504 H -0.06246 0.43849 0.20392
 C505 C 0.09043 0.40974 0.77630
 C506 C 0.10094 0.39931 0.75065
 C507 C 0.09043 0.40987 0.72505
 C508 C 0.06950 0.43079 0.72506
 C509 C 0.17976 0.32064 0.75046
 C510 C 0.06949 0.43066 0.77638
 C511 C 0.12249 0.37778 0.75060
 C512 C 0.14055 0.35976 0.75056
 C513 C 0.16171 0.33866 0.75050
 C514 C 0.05878 0.44143 0.75074
 H515 H 0.09841 0.40171 0.79624
 H516 H 0.09843 0.40194 0.70507
 H517 H 0.06172 0.43861 0.70497
 H518 H 0.06170 0.43839 0.79650
 C519 C 0.09066 0.59145 0.27471
 C520 C 0.10119 0.60184 0.24905
 C521 C 0.09062 0.59132 0.22346
 C522 C 0.06960 0.57048 0.22350
 C523 C 0.18036 0.68019 0.24896
 C524 C 0.06964 0.57061 0.27482
 C525 C 0.12285 0.62327 0.24898
 C526 C 0.14099 0.64121 0.24895
 C527 C 0.16222 0.66223 0.24894
 C528 C 0.05887 0.55988 0.24920
 H529 H 0.09870 0.59945 0.29464
 H530 H 0.09862 0.59921 0.20347
 H531 H 0.06177 0.56268 0.20343
 H532 H 0.06185 0.56292 0.29495
 C533 C 0.72417 -0.09079 0.59102
 C534 C 0.74976 -0.10136 0.60155
 C535 C 0.77543 -0.09096 0.59104
 C536 C 0.77553 -0.07006 0.57008
 C537 C 0.74961 -0.18000 0.68041
 C538 C 0.72421 -0.06989 0.57007
 C539 C 0.74969 -0.12287 0.62313
 C540 C 0.74964 -0.14088 0.64120
 C541 C 0.74961 -0.16198 0.66235
 C542 C 0.74991 -0.05928 0.55935
 H543 H 0.70417 -0.09870 0.59901
 H544 H 0.79536 -0.09899 0.59905
 H545 H 0.79567 -0.06235 0.56230
 H546 H 0.70413 -0.06206 0.56227
 C547 C 0.27584 -0.09135 0.40926
 C548 C 0.25022 -0.10183 0.39873
 C549 C 0.22458 -0.09137 0.40925
 C550 C 0.22453 -0.07050 0.43023
 C551 C 0.25020 -0.18037 0.31979
 C552 C 0.27586 -0.07047 0.43024
 C553 C 0.25023 -0.12331 0.37713
 C554 C 0.25023 -0.14130 0.35904
 C555 C 0.25022 -0.16237 0.33786
 C556 C 0.25019 -0.05980 0.44096
 H557 H 0.29581 -0.09930 0.40126
 H558 H 0.20462 -0.09934 0.40124
 H559 H 0.20442 -0.06274 0.43802
 H560 H 0.29597 -0.06270 0.43804
 C561 C 0.72489 0.09086 0.40945
 C562 C 0.75056 0.10130 0.39899
 C563 C 0.77615 0.09069 0.40949
 C564 C 0.77609 0.06971 0.43037
 C565 C 0.75078 0.18020 0.32040
 C566 C 0.72477 0.06988 0.43033
 C567 C 0.75065 0.12290 0.37750
 C568 C 0.75071 0.14098 0.35950
 C569 C 0.75076 0.16214 0.33842
 C570 C 0.75039 0.05907 0.44103
 H571 H 0.70495 0.09893 0.40147
 H572 H 0.79615 0.09863 0.40154
 H573 H 0.79617 0.06185 0.43814
 H574 H 0.70462 0.06216 0.43808
 C575 C 0.27574 0.09018 0.59090
 C576 C 0.25010 0.10070 0.60137
 C577 C 0.22448 0.09017 0.59088
 C578 C 0.22446 0.06921 0.56999
 C579 C 0.25016 0.17959 0.67995
 C580 C 0.27578 0.06923 0.57000
 C581 C 0.25009 0.12228 0.62287
 C582 C 0.25010 0.14036 0.64087
 C583 C 0.25013 0.16152 0.66195
 C584 C 0.25012 0.05850 0.55931
 H585 H 0.29570 0.09819 0.59887
 H586 H 0.20451 0.09816 0.59885
 H587 H 0.20435 0.06142 0.56222
 H588 H 0.29590 0.06144 0.56224
   
