data_POSCAR
  _audit_creation_date              2014-09-24
  _audit_creation_method            'ToBaCCo'
  _symmetry_space_group_name_H-M    'P1'
  _symmetry_Int_Tables_number       1
  _symmetry_cell_setting            triclinic
  loop_
  _symmetry_equiv_pos_as_xyz
 x,y,z
_cell_length_a 30.7937
_cell_length_b 30.7850
_cell_length_c 39.7235
_cell_angle_alpha 89.957100
_cell_angle_beta 90.066900
_cell_angle_gamma 120.242500
loop_
  _atom_site_label
  _atom_site_type_symbol
  _atom_site_fract_x
  _atom_site_fract_y
  _atom_site_fract_z
C1 C -0.02365 0.48979 1.25060
 C2 C 0.02738 0.51565 1.25077
 C3 C 0.05655 0.53049 1.28256
 C4 C 0.05693 0.53038 1.21920
 C5 C -0.05298 0.47518 1.21885
 C6 C -0.05310 0.47453 1.28222
 C7 C 0.08763 0.58154 1.28987
 C8 C 0.11633 0.59660 1.31926
 C9 C 0.11546 0.56078 1.34197
 C10 C 0.08391 0.50925 1.33427
 C11 C 0.05474 0.49438 1.30493
 C12 C 0.05333 0.56270 1.19588
 C13 C 0.08212 0.57654 1.16642
 C14 C 0.11489 0.55820 1.15985
 C15 C 0.11829 0.52590 1.18340
 C16 C 0.08984 0.51242 1.21285
 C17 C -0.04940 0.44277 1.19564
 C18 C -0.07861 0.42838 1.16631
 C19 C -0.11181 0.44625 1.15973
 C20 C -0.11502 0.47882 1.18311
 C21 C -0.08615 0.49283 1.21244
 C22 C -0.08575 0.42336 1.28857
 C23 C -0.11474 0.40801 1.31779
 C24 C -0.11213 0.44364 1.34109
 C25 C -0.07941 0.49505 1.33458
 C26 C -0.05010 0.51037 1.30535
 H27 H 0.08948 0.60987 1.27277
 H28 H 0.13971 0.63660 1.32375
 H29 H 0.08166 0.48014 1.35076
 H30 H 0.03117 0.45471 1.29943
 H31 H 0.02851 0.57738 1.20063
 H32 H 0.07869 0.60154 1.14884
 H33 H 0.09319 0.48761 1.23067
 H34 H -0.02442 0.42827 1.20044
 H35 H -0.07527 0.40322 1.14887
 H36 H -0.14032 0.49311 1.17899
 H37 H -0.08955 0.51767 1.23017
 H38 H -0.08866 0.39525 1.27088
 H39 H -0.13966 0.36816 1.32188
 H40 H -0.07655 0.52344 1.35197
 H41 H -0.02551 0.55010 1.30057
 H42 H 0.14332 0.51129 1.17928
 C43 C 0.51126 0.48636 1.24988
 C44 C 0.48577 0.51174 1.24995
 C45 C 0.47092 0.52614 1.28166
 C46 C 0.47135 0.52670 1.21830
 C47 C 0.52567 0.47151 1.21817
 C48 C 0.52626 0.47198 1.28153
 C49 C 0.41990 0.50812 1.28798
 C50 C 0.40492 0.52201 1.31722
 C51 C 0.44078 0.55484 1.34061
 C52 C 0.49204 0.57306 1.33414
 C53 C 0.50698 0.55879 1.30489
 C54 C 0.43869 0.49070 1.19505
 C55 C 0.42468 0.50578 1.16572
 C56 C 0.44319 0.55710 1.15922
 C57 C 0.47596 0.59289 1.18266
 C58 C 0.48960 0.57777 1.21198
 C59 C 0.55833 0.50759 1.19497
 C60 C 0.57262 0.49264 1.16573
 C61 C 0.55441 0.44136 1.15925
 C62 C 0.52157 0.40549 1.18261
 C63 C 0.50765 0.42048 1.21184
 C64 C 0.57733 0.49026 1.28787
 C65 C 0.59247 0.47660 1.31717
 C66 C 0.55671 0.44376 1.34057
 C67 C 0.50539 0.42523 1.33406
 C68 C 0.49029 0.43927 1.30475
 H69 H 0.39159 0.48309 1.27022
 H70 H 0.36517 0.50744 1.32125
 H71 H 0.52061 0.59843 1.35160
 H72 H 0.54662 0.57360 1.30017
 H73 H 0.42376 0.45102 1.19979
 H74 H 0.39934 0.47728 1.14822
 H75 H 0.51466 0.60601 1.22976
 H76 H 0.57312 0.54724 1.19970
 H77 H 0.59800 0.52121 1.14829
 H78 H 0.50700 0.36573 1.17858
 H79 H 0.48262 0.39217 1.22958
 H80 H 0.60555 0.51536 1.27011
 H81 H 0.63225 0.49139 1.32124
 H82 H 0.47691 0.39984 1.35153
 H83 H 0.45062 0.42430 1.30000
 H84 H 0.49073 0.63268 1.17859
 C85 C 0.51368 1.02598 1.25037
 C86 C 0.48829 0.97493 1.25049
 C87 C 0.47390 0.94575 1.28229
 C88 C 0.47338 0.94540 1.21887
 C89 C 0.52865 1.05530 1.21863
 C90 C 0.52793 1.05538 1.28201
 C91 C 0.49363 0.91459 1.28953
 C92 C 0.47975 0.88575 1.31888
 C93 C 0.44497 0.88670 1.34152
 C94 C 0.42521 0.91820 1.33401
 C95 C 0.43967 0.94750 1.30472
 C96 C 0.50943 0.94899 1.19570
 C97 C 0.49444 0.91990 1.16634
 C98 C 0.44315 0.88682 1.15969
 C99 C 0.40731 0.88352 1.18306
 C100 C 0.42234 0.91228 1.21242
 C101 C 0.49263 1.05300 1.19594
 C102 C 0.50765 1.08227 1.16663
 C103 C 0.55911 1.11425 1.15937
 C104 C 0.59488 1.11579 1.18230
 C105 C 0.57974 1.08702 1.21167
 C106 C 0.50785 1.08627 1.28902
 C107 C 0.52136 1.11506 1.31835
 C108 C 0.55610 1.11429 1.34118
 C109 C 0.57625 1.08311 1.33387
 C110 C 0.56217 1.05387 1.30459
 H111 H 0.51999 0.91272 1.27241
 H112 H 0.49597 0.86219 1.32344
 H113 H 0.39843 0.92022 1.35063
 H114 H 0.42369 0.97106 1.29929
 H115 H 0.54909 0.97394 1.20053
 H116 H 0.52299 0.92329 1.14891
 H117 H 0.39405 0.90890 1.23012
 H118 H 0.45294 1.02899 1.20114
 H119 H 0.47881 1.07979 1.14978
 H120 H 0.63481 1.13975 1.17794
 H121 H 0.60801 1.08930 1.22900
 H122 H 0.48144 1.08790 1.27176
 H123 H 0.50487 1.13839 1.32278
 H124 H 0.60302 1.08126 1.35064
 H125 H 0.57836 1.03047 1.29932
 H126 H 0.36754 0.85830 1.17889
 C127 C 1.02695 0.51415 0.74979
 C128 C 0.97591 0.48837 0.74995
 C129 C 0.94636 0.47378 0.71833
 C130 C 0.94670 0.47324 0.78174
 C131 C 1.05652 0.52918 0.78138
 C132 C 1.05612 0.52861 0.71802
 C133 C 0.91344 0.49174 0.71198
 C134 C 0.88443 0.47780 0.68272
 C135 C 0.88727 0.44500 0.65936
 C136 C 0.92022 0.42682 0.66588
 C137 C 0.94955 0.44112 0.69515
 C138 C 0.95010 0.50915 0.80499
 C139 C 0.92088 0.49396 0.83429
 C140 C 0.88785 0.44260 0.84082
 C141 C 0.88486 0.40690 0.81743
 C142 C 0.91373 0.42212 0.78813
 C143 C 1.05446 0.49316 0.80396
 C144 C 1.08372 0.50822 0.83326
 C145 C 1.11546 0.55971 0.84059
 C146 C 1.11685 0.59548 0.81773
 C147 C 1.08805 0.58030 0.78838
 C148 C 1.08738 0.50900 0.71088
 C149 C 1.11595 0.52264 0.68146
 C150 C 1.11466 0.55710 0.65863
 C151 C 1.08315 0.57684 0.66606
 C152 C 1.05407 0.56258 0.69543
 H153 H 0.91036 0.51679 0.72971
 H154 H 0.85933 0.49234 0.67864
 H155 H 0.92327 0.40146 0.64845
 H156 H 0.97433 0.42637 0.69991
 H157 H 0.97489 0.54885 0.80023
 H158 H 0.92406 0.52242 0.85174
 H159 H 0.91047 0.39393 0.77037
 H160 H 1.03059 0.45346 0.79871
 H161 H 1.08140 0.47940 0.85005
 H162 H 1.14065 0.63543 0.82216
 H163 H 1.09012 0.60855 0.77112
 H164 H 1.08946 0.48281 0.72812
 H165 H 1.13955 0.50646 0.67696
 H166 H 1.08089 0.60338 0.64929
 H167 H 1.03039 0.57842 0.70077
 H168 H 0.85971 0.36709 0.82151
 C169 C 0.48608 0.51143 0.74981
 C170 C 0.51137 0.48584 0.74989
 C171 C 0.52579 0.47095 0.71824
 C172 C 0.52630 0.47143 0.78162
 C173 C 0.47130 0.52597 0.78146
 C174 C 0.47180 0.52650 0.71809
 C175 C 0.50760 0.41989 0.71188
 C176 C 0.52139 0.40489 0.68261
 C177 C 0.55424 0.44075 0.65926
 C178 C 0.57266 0.49205 0.66579
 C179 C 0.55851 0.50702 0.69507
 C180 C 0.49032 0.43888 0.80491
 C181 C 0.50538 0.42470 0.83420
 C182 C 0.55667 0.44295 0.84066
 C183 C 0.59243 0.47566 0.81720
 C184 C 0.57734 0.48944 0.78792
 C185 C 0.50743 0.55860 0.80466
 C186 C 0.49256 0.57288 0.83392
 C187 C 0.44131 0.55469 0.84041
 C188 C 0.40540 0.52191 0.81703
 C189 C 0.42030 0.50800 0.78778
 C190 C 0.48997 0.57759 0.71183
 C191 C 0.47624 0.59280 0.68257
 C192 C 0.44342 0.55711 0.65910
 C193 C 0.42504 0.50576 0.66550
 C194 C 0.43915 0.49059 0.69477
 H195 H 0.48251 0.39160 0.72960
 H196 H 0.50668 0.36511 0.67851
 H197 H 0.59806 0.52062 0.64837
 H198 H 0.57343 0.54668 0.69984
 H199 H 0.45067 0.42410 0.80021
 H200 H 0.47688 0.39942 0.85171
 H201 H 0.60558 0.51441 0.77013
 H202 H 0.54706 0.57335 0.79992
 H203 H 0.52117 0.59821 0.85137
 H204 H 0.36566 0.50737 0.82109
 H205 H 0.39197 0.48298 0.77004
 H206 H 0.51500 0.60578 0.72964
 H207 H 0.49094 0.63260 0.67859
 H208 H 0.39967 0.47732 0.64798
 H209 H 0.42423 0.45090 0.69943
 H210 H 0.63219 0.49025 0.82122
 C211 C 0.48712 -0.02720 0.74985
 C212 C 0.51262 0.02382 0.74996
 C213 C 0.52742 0.05325 0.71831
 C214 C 0.52703 0.05310 0.78171
 C215 C 0.47262 -0.05663 0.78146
 C216 C 0.47212 -0.05647 0.71813
 C217 C 0.57845 0.08619 0.71179
 C218 C 0.59337 0.11497 0.68245
 C219 C 0.55742 0.11185 0.65920
 C220 C 0.50614 0.07891 0.66590
 C221 C 0.49127 0.04981 0.69525
 C222 C 0.55973 0.04988 0.80489
 C223 C 0.57383 0.07893 0.83427
 C224 C 0.55538 0.11161 0.84092
 C225 C 0.52252 0.11446 0.81757
 C226 C 0.50880 0.08575 0.78819
 C227 C 0.43861 -0.05470 0.80398
 C228 C 0.42452 -0.08372 0.83335
 C229 C 0.44444 -0.11509 0.84080
 C230 C 0.47887 -0.11634 0.81800
 C231 C 0.49238 -0.08777 0.78857
 C232 C 0.42100 -0.08784 0.71103
 C233 C 0.40581 -0.11642 0.68161
 C234 C 0.44154 -0.11502 0.65876
 C235 C 0.49302 -0.08341 0.66617
 C236 C 0.50810 -0.05433 0.69554
 H237 H 0.60680 0.08944 0.72944
 H238 H 0.63313 0.14010 0.67822
 H239 H 0.47752 0.07567 0.64855
 H240 H 0.45162 0.02499 0.70016
 H241 H 0.57468 0.02531 0.80004
 H242 H 0.59923 0.07588 0.85169
 H243 H 0.48371 0.08885 0.77048
 H244 H 0.42267 -0.03109 0.79862
 H245 H 0.39798 -0.08153 0.85010
 H246 H 0.49515 -0.13986 0.82253
 H247 H 0.51862 -0.08970 0.77135
 H248 H 0.39277 -0.08996 0.72829
 H249 H 0.36586 -0.14011 0.67712
 H250 H 0.52181 -0.08107 0.64939
 H251 H 0.54780 -0.03055 0.70086
 H252 H 0.50777 0.13936 0.82174
 O253 O 0.40852 0.65473 0.97160
 O254 O 0.40679 0.73717 0.96073
 C255 C 0.38353 0.76032 0.95424
 O256 O 0.34642 0.75510 0.97151
 O257 O 0.26384 0.67049 0.96040
 C258 C 0.24050 0.62388 0.95395
 O259 O 0.24549 0.59191 0.97132
 O260 O 0.32993 0.59399 0.96065
 C261 C 0.37656 0.61742 0.95433
 O262 O 0.40600 0.66958 1.03854
 O263 O 0.40935 0.75461 1.02774
 C264 C 0.37768 0.76025 1.04495
 O265 O 0.33111 0.73747 1.03840
 O266 O 0.24598 0.65545 1.02735
 C267 C 0.24020 0.61813 1.04470
 O268 O 0.26278 0.59429 1.03830
 O269 O 0.34457 0.59128 1.02763
 C270 C 0.38204 0.62296 1.04492
 Cr271 Cr 0.40505 0.70274 0.99965
 Cr272 Cr 0.29812 0.70330 0.99942
 Cr273 Cr 0.29702 0.59549 0.99947
 O274 O 0.33340 0.66717 0.99953
 O275 O 0.59084 0.34365 0.97208
 O276 O 0.59356 0.26158 0.96172
 C277 C 0.61735 0.23897 0.95528
 O278 O 0.65493 0.24502 0.97245
 O279 O 0.73717 0.33012 0.96157
 C280 C 0.75993 0.37668 0.95493
 O281 O 0.75408 0.40838 0.97195
 O282 O 0.66909 0.40522 0.96132
 C283 C 0.62249 0.38123 0.95487
 O284 O 0.59361 0.32949 1.03915
 O285 O 0.59132 0.24484 1.02880
 C286 C 0.62324 0.23959 1.04605
 O287 O 0.66979 0.26270 1.03948
 O288 O 0.75449 0.34526 1.02856
 C289 C 0.76022 0.38279 1.04558
 O290 O 0.73724 0.40621 1.03899
 O291 O 0.65471 0.40798 1.02834
 C292 C 0.61723 0.37613 1.04552
 Cr293 Cr 0.59500 0.29624 1.00044
 Cr294 Cr 0.70275 0.29708 1.00051
 Cr295 Cr 0.70245 0.40428 1.00016
 O296 O 0.66674 0.33254 1.00036
 O297 O 0.65399 0.40782 0.52807
 O298 O 0.73631 0.40575 0.53888
 C299 C 0.75931 0.38230 0.54527
 O300 O 0.75371 0.34501 0.52801
 O301 O 0.66894 0.26244 0.53858
 C302 C 0.62235 0.23925 0.54495
 O303 O 0.59055 0.24470 0.52772
 O304 O 0.59295 0.32924 0.53870
 C305 C 0.61655 0.37583 0.54521
 O306 O 0.66893 0.40573 0.46111
 O307 O 0.75374 0.40866 0.47195
 C308 C 0.75946 0.37707 0.45471
 O309 O 0.73648 0.33043 0.46102
 O310 O 0.65417 0.24531 0.47159
 C311 C 0.61688 0.23970 0.45429
 O312 O 0.59323 0.26245 0.46077
 O313 O 0.59056 0.34438 0.47179
 C314 C 0.62234 0.38194 0.45465
 Cr315 Cr 0.70193 0.40435 0.50000
 Cr316 Cr 0.70200 0.29710 0.49980
 Cr317 Cr 0.59445 0.29651 0.49975
 O318 O 0.66613 0.33266 0.49986
 O319 O 0.34399 0.59150 0.52788
 O320 O 0.26214 0.59436 0.53867
 C321 C 0.23942 0.61805 0.54515
 O322 O 0.24507 0.65534 0.52781
 O323 O 0.33024 0.73744 0.53875
 C324 C 0.37682 0.76029 0.54527
 O325 O 0.40852 0.75483 0.52796
 O326 O 0.40541 0.66982 0.53871
 C327 C 0.38153 0.62319 0.54511
 O328 O 0.32919 0.59412 0.46088
 O329 O 0.24465 0.59191 0.47163
 C330 C 0.23953 0.62386 0.45431
 O331 O 0.26278 0.67046 0.46081
 O332 O 0.34536 0.75521 0.47176
 C333 C 0.38255 0.76061 0.45446
 O334 O 0.40584 0.73746 0.46092
 O335 O 0.40775 0.65504 0.47170
 C336 C 0.37580 0.61764 0.45448
 Cr337 Cr 0.29631 0.59560 0.49976
 Cr338 Cr 0.29716 0.70329 0.49978
 Cr339 Cr 0.40425 0.70299 0.49982
 O340 O 0.33258 0.66729 0.49978
 N341 N 0.45822 0.60800 0.39129
 C342 C 0.42442 0.57046 0.37111
 N343 N 0.37485 0.54816 0.37902
 N344 N 0.35963 0.56284 0.40579
 C345 C 0.39334 0.60053 0.42577
 N346 N 0.44297 0.62283 0.41808
 N347 N 0.45044 0.82719 0.37791
 C348 C 0.42993 0.85619 0.37054
 N349 N 0.39407 0.85415 0.39158
 N350 N 0.37913 0.82414 0.41849
 C351 C 0.39971 0.79517 0.42558
 N352 N 0.43572 0.79741 0.40483
 N353 N 0.14605 0.54172 0.39129
 C354 C 0.14463 0.57570 0.36998
 N355 N 0.17409 0.62540 0.37733
 N356 N 0.20362 0.64045 0.40438
 C357 C 0.20520 0.60648 0.42532
 N358 N 0.17583 0.55678 0.41832
 N359 N 0.62280 0.45115 0.37916
 C360 C 0.57323 0.42844 0.37114
 N361 N 0.53958 0.39077 0.39129
 N362 N 0.55499 0.37618 0.41815
 C363 C 0.60463 0.39887 0.42594
 N364 N 0.63819 0.43670 0.40600
 N365 N 0.60651 0.14685 0.39143
 C366 C 0.57069 0.14465 0.37023
 N367 N 0.54980 0.17332 0.37747
 N368 N 0.56411 0.20294 0.40446
 C369 C 0.60010 0.20533 0.42536
 N370 N 0.62105 0.17671 0.41840
 N371 N 0.85165 0.46036 0.39165
 C372 C 0.85577 0.42690 0.37154
 N373 N 0.82874 0.37728 0.37946
 N374 N 0.79866 0.36168 0.40619
 C375 C 0.79430 0.39505 0.42610
 N376 N 0.82142 0.44474 0.41840
 N377 N 0.60769 0.45873 1.10866
 C378 C 0.57005 0.42497 1.12877
 N379 N 0.54767 0.37539 1.12084
 N380 N 0.56236 0.36011 1.09409
 C381 C 0.60014 0.39378 1.07418
 N382 N 0.62253 0.44343 1.08190
 N383 N 0.85237 0.39294 1.10907
 C384 C 0.85623 0.43051 1.12913
 N385 N 0.82906 0.45270 1.12103
 N386 N 0.79912 0.43787 1.09418
 C387 C 0.79501 0.40015 1.07432
 N388 N 0.82226 0.37797 1.08221
 N389 N 0.54085 0.14616 1.10900
 C390 C 0.57474 0.14461 1.13028
 N391 N 0.62445 0.17392 1.12306
 N392 N 0.63964 0.20351 1.09604
 C393 C 0.60578 0.20525 1.07506
 N394 N 0.55605 0.17599 1.08200
 N395 N 0.45079 0.62322 1.12060
 C396 C 0.42799 0.57363 1.12860
 N397 N 0.39036 0.54001 1.10839
 N398 N 0.37592 0.55547 1.08148
 C399 C 0.39872 0.60513 1.07370
 N400 N 0.43650 0.63865 1.09370
 N401 N 0.14988 0.61031 1.10865
 C402 C 0.14610 0.57302 1.12899
 N403 N 0.17259 0.55015 1.12087
 N404 N 0.20187 0.56412 1.09374
 C405 C 0.20592 0.60159 1.07361
 N406 N 0.17933 0.62443 1.08150
 N407 N 0.46038 0.85147 1.10882
 C408 C 0.42672 0.85518 1.12897
 N409 N 0.37719 0.82823 1.12080
 N410 N 0.36186 0.79864 1.09379
 C411 C 0.39543 0.79469 1.07385
 N412 N 0.44503 0.82171 1.08180
 N413 N 0.54725 0.37483 0.62071
 C414 C 0.56971 0.42439 0.62871
 N415 N 0.60726 0.45819 0.60858
 N416 N 0.62196 0.44296 0.58173
 C417 C 0.59952 0.39333 0.57394
 N418 N 0.56181 0.35961 0.59388
 N419 N 0.53993 0.14735 0.60849
 C420 C 0.57370 0.14364 0.62857
 N421 N 0.62321 0.17077 0.62045
 N422 N 0.63842 0.20058 0.59355
 C423 C 0.60474 0.20456 0.57368
 N424 N 0.55516 0.17733 0.58157
 N425 N 0.82810 0.45165 0.62085
 C426 C 0.85524 0.42939 0.62882
 N427 N 0.85135 0.39193 0.60864
 N428 N 0.82124 0.37712 0.58178
 C429 C 0.79402 0.39938 0.57403
 N430 N 0.79814 0.43699 0.59401
 N431 N 0.39038 0.54015 0.60834
 C432 C 0.42802 0.57373 0.62856
 N433 N 0.45064 0.62335 0.62067
 N434 N 0.43618 0.63883 0.59387
 C435 C 0.39839 0.60534 0.57385
 N436 N 0.37577 0.55565 0.58153
 N437 N 0.45959 0.85310 0.60838
 C438 C 0.42581 0.85483 0.62961
 N439 N 0.37609 0.82590 0.62228
 N440 N 0.36077 0.79648 0.59520
 C441 C 0.39451 0.79453 0.57427
 N442 N 0.44426 0.82342 0.58132
 N443 N 0.14669 0.60746 0.60826
 C444 C 0.14483 0.57179 0.62947
 N445 N 0.17363 0.55109 0.62214
 N446 N 0.20306 0.56543 0.59508
 C447 C 0.20515 0.60126 0.57416
 N448 N 0.17638 0.62204 0.58121
 N449 N 0.45888 0.60777 0.89112
 C450 C 0.42503 0.57028 0.87093
 N451 N 0.37548 0.54799 0.87886
 N452 N 0.36031 0.56266 0.90566
 C453 C 0.39406 0.60030 0.92564
 N454 N 0.44368 0.62258 0.91794
 N455 N 0.14730 0.54147 0.89095
 C456 C 0.14574 0.57536 0.86969
 N457 N 0.17493 0.62509 0.87695
 N458 N 0.20446 0.64029 0.90400
 C459 C 0.20621 0.60643 0.92496
 N460 N 0.17705 0.55669 0.91799
 N461 N 0.45056 0.82600 0.87734
 C462 C 0.42990 0.85485 0.86997
 N463 N 0.39434 0.85310 0.89115
 N464 N 0.37980 0.82346 0.91823
 C465 C 0.40050 0.79462 0.92530
 N466 N 0.43624 0.79659 0.90442
 N467 N 0.53957 0.38989 0.89142
 C468 C 0.57319 0.42755 0.87124
 N469 N 0.62277 0.45022 0.87924
 N470 N 0.63819 0.43579 0.90609
 C471 C 0.60466 0.39799 0.92607
 N472 N 0.55501 0.37531 0.91829
 N473 N 0.82877 0.37642 0.87944
 C474 C 0.85583 0.42600 0.87138
 N475 N 0.85184 0.45958 0.89147
 N476 N 0.82175 0.44411 0.91830
 C477 C 0.79462 0.39447 0.92615
 N478 N 0.79884 0.36097 0.90627
 N479 N 0.54806 0.17004 0.87971
 C480 C 0.57075 0.14338 0.87159
 N481 N 0.60845 0.14756 0.89170
 N482 N 0.62307 0.17752 0.91862
 C483 C 0.60039 0.20427 0.92652
 N484 N 0.56254 0.19982 0.90662
   
