data_POSCAR
  _audit_creation_date              2014-09-24
  _audit_creation_method            'ToBaCCo'
  _symmetry_space_group_name_H-M    'P1'
  _symmetry_Int_Tables_number       1
  _symmetry_cell_setting            triclinic
  loop_
  _symmetry_equiv_pos_as_xyz
 x,y,z
_cell_length_a 41.9737
_cell_length_b 41.5065
_cell_length_c 17.0385
_cell_angle_alpha 90.286900
_cell_angle_beta 89.993200
_cell_angle_gamma 123.230600
loop_
  _atom_site_label
  _atom_site_type_symbol
  _atom_site_fract_x
  _atom_site_fract_y
  _atom_site_fract_z
C1 C 0.51222 0.96277 0.54961
 C2 C 0.49822 0.96297 0.47377
 C3 C 0.51397 0.99804 0.43387
 C4 C 0.54327 1.03339 0.46677
 C5 C 0.55535 1.03351 0.54502
 C6 C 0.54131 0.99798 0.58229
 H7 H 0.55241 0.99776 0.63961
 H8 H 0.50456 0.99696 0.37420
 C9 C 0.03111 0.55846 0.54424
 C10 C 0.03252 0.54637 0.46750
 C11 C -0.00167 0.52140 0.42702
 C12 C -0.03739 0.50961 0.45935
 C13 C -0.03827 0.52327 0.53579
 C14 C -0.00400 0.54799 0.57602
 H15 H -0.00483 0.55719 0.63530
 H16 H -0.00034 0.51269 0.36765
 C17 C 0.47560 0.50851 0.53364
 C18 C 0.49540 0.52867 0.46455
 C19 C 0.52238 0.52264 0.43208
 C20 C 0.52885 0.49550 0.46294
 C21 C 0.50930 0.47508 0.53200
 C22 C 0.48164 0.48068 0.56343
 H23 H 0.46659 0.46517 0.61615
 H24 H 0.53645 0.53716 0.37792
 O25 O 0.38436 0.66210 -0.09708
 O26 O 0.38850 0.72430 -0.05341
 C27 C 0.36486 0.73016 -0.08641
 O28 O 0.32982 0.71159 -0.06955
 O29 O 0.26453 0.64645 -0.05478
 C30 C 0.25929 0.62092 -0.10446
 O31 O 0.27647 0.60365 -0.10100
 O32 O 0.33691 0.60075 -0.08387
 C33 C 0.36644 0.62731 -0.11886
 O34 O 0.38479 0.64253 0.05471
 O35 O 0.38657 0.70362 0.09826
 C36 C 0.37077 0.72060 0.12089
 O37 O 0.34170 0.71644 0.08695
 O38 O 0.27758 0.64884 0.10103
 C39 C 0.25720 0.61236 0.10202
 O40 O 0.26156 0.59164 0.05365
 O41 O 0.32439 0.59342 0.07187
 C42 C 0.35959 0.61118 0.08785
 Cr43 Cr 0.38404 0.68208 0.00067
 Cr44 Cr 0.30440 0.67988 0.01554
 Cr45 Cr 0.30092 0.59940 -0.01426
 O46 O 0.32988 0.65386 0.00088
 O47 O 0.60408 0.33720 -0.09229
 O48 O 0.60795 0.27624 -0.10498
 C49 C 0.62593 0.25974 -0.10657
 O50 O 0.65255 0.26761 -0.05866
 O51 O 0.71603 0.33448 -0.07247
 C52 C 0.73370 0.36984 -0.08949
 O53 O 0.72650 0.39307 -0.05799
 O54 O 0.66426 0.38688 -0.10332
 C55 C 0.63003 0.36761 -0.12639
 O56 O 0.59611 0.32604 0.06397
 O57 O 0.59623 0.26348 0.04956
 C58 C 0.61694 0.25933 0.09734
 O59 O 0.65304 0.28036 0.09652
 O60 O 0.71899 0.34642 0.08371
 C61 C 0.72227 0.37561 0.11692
 O62 O 0.70508 0.39096 0.09318
 O63 O 0.64407 0.38734 0.04776
 C64 C 0.61299 0.36156 0.07999
 Cr65 Cr 0.60320 0.30202 -0.02037
 Cr66 Cr 0.68415 0.30822 0.01176
 Cr67 Cr 0.68394 0.38744 -0.00506
 O68 O 0.65713 0.33259 -0.00458
 C69 C 0.49875 0.92997 -0.40307
 C70 C 0.46157 0.89741 -0.40271
 C71 C 0.44972 0.86660 -0.34481
 N72 N 0.41220 0.84070 -0.33095
 N73 N 0.40124 0.81382 -0.27617
 C74 C 0.42740 0.81174 -0.23339
 N75 N 0.46490 0.83726 -0.24811
 N76 N 0.47585 0.86424 -0.30263
 C77 C 0.41567 0.78275 -0.17144
 C78 C 0.37795 0.75989 -0.14698
 H79 H 0.43969 0.89609 -0.43876
 H80 H 0.43721 0.77989 -0.14368
 H81 H 0.51719 0.93212 -0.35590
 H82 H 0.35677 0.76359 -0.17390
 C83 C 0.06515 0.57928 -0.40433
 C84 C 0.09028 0.56730 -0.39839
 C85 C 0.12179 0.58364 -0.34163
 N86 N 0.14400 0.56927 -0.33829
 N87 N 0.17206 0.58270 -0.28589
 C88 C 0.17899 0.61106 -0.23477
 N89 N 0.15691 0.62564 -0.23835
 N90 N 0.12880 0.61218 -0.29087
 C91 C 0.20910 0.62511 -0.17490
 C92 C 0.23117 0.60958 -0.16760
 H93 H 0.08568 0.54355 -0.43451
 H94 H 0.21316 0.64727 -0.13439
 H95 H 0.06759 0.60064 -0.36355
 H96 H 0.22700 0.58742 -0.20826
 C97 C 0.45134 0.51553 -0.42271
 C98 C 0.45389 0.55058 -0.42096
 C99 C 0.43056 0.55750 -0.36777
 N100 N 0.43842 0.59368 -0.35928
 N101 N 0.41881 0.60091 -0.30882
 C102 C 0.39047 0.57219 -0.26509
 N103 N 0.38224 0.53588 -0.27435
 N104 N 0.40192 0.52867 -0.32472
 C105 C 0.37017 0.58027 -0.20572
 C106 C 0.38192 0.61789 -0.18611
 H107 H 0.47601 0.57511 -0.45307
 H108 H 0.34736 0.55638 -0.17312
 H109 H 0.43257 0.49408 -0.38018
 H110 H 0.40550 0.64170 -0.21742
 C111 C 0.57805 0.06817 -0.41157
 C112 C 0.57495 0.07045 -0.33029
 C113 C 0.59177 0.10792 -0.29116
 N114 N 0.57083 0.11336 -0.23870
 N115 N 0.58494 0.14767 -0.20529
 C116 C 0.62067 0.17767 -0.22252
 N117 N 0.64193 0.17209 -0.27392
 N118 N 0.62754 0.13789 -0.30846
 C119 C 0.63660 0.21497 -0.18319
 C120 C 0.61350 0.22813 -0.16282
 H121 H 0.55407 0.04540 -0.29737
 H122 H 0.66664 0.23184 -0.16843
 H123 H 0.59421 0.09557 -0.44076
 H124 H 0.58463 0.21335 -0.18532
 C125 C 0.92672 0.50999 -0.41884
 C126 C 0.90129 0.47124 -0.40138
 C127 C 0.87029 0.45843 -0.34441
 N128 N 0.84876 0.42089 -0.32312
 N129 N 0.82149 0.40909 -0.26950
 C130 C 0.81472 0.43439 -0.23512
 N131 N 0.83607 0.47189 -0.25684
 N132 N 0.86340 0.48371 -0.31039
 C133 C 0.78502 0.42173 -0.17493
 C134 C 0.76411 0.38389 -0.14821
 H135 H 0.90552 0.44992 -0.42709
 H136 H 0.77966 0.44257 -0.15112
 H137 H 0.92427 0.53155 -0.38853
 H138 H 0.76977 0.36328 -0.17215
 C139 C 0.51675 0.45063 -0.42592
 C140 C 0.55162 0.45363 -0.42570
 C141 C 0.55903 0.43017 -0.37374
 N142 N 0.59504 0.43871 -0.36596
 N143 N 0.60268 0.41908 -0.31638
 C144 C 0.57456 0.39001 -0.27289
 N145 N 0.53843 0.38107 -0.28152
 N146 N 0.53080 0.40079 -0.33098
 C147 C 0.58308 0.36980 -0.21412
 C148 C 0.62045 0.38254 -0.19423
 H149 H 0.57565 0.47627 -0.45788
 H150 H 0.55964 0.34643 -0.18170
 H151 H 0.49580 0.43136 -0.38327
 H152 H 0.64380 0.40673 -0.22520
 C153 C 0.93034 0.48527 0.41203
 C154 C 0.89521 0.48160 0.41646
 C155 C 0.86353 0.45574 0.36311
 N156 N 0.83288 0.45854 0.35762
 N157 N 0.80459 0.43616 0.30782
 C158 C 0.80577 0.40994 0.26198
 N159 N 0.83614 0.40674 0.26832
 N160 N 0.86449 0.42923 0.31789
 C161 C 0.77579 0.38649 0.20353
 C162 C 0.74805 0.39381 0.18452
 H163 H 0.89145 0.50019 0.45435
 H164 H 0.77744 0.36510 0.17044
 H165 H 0.93403 0.47075 0.36321
 H166 H 0.74743 0.41628 0.21570
 C167 C 0.56027 0.06760 0.42220
 C168 C 0.54294 0.07377 0.35911
 C169 C 0.56236 0.11095 0.31788
 N170 N 0.54247 0.11922 0.26847
 N171 N 0.55967 0.15294 0.23162
 C172 C 0.59741 0.17964 0.24277
 N173 N 0.61733 0.17129 0.29180
 N174 N 0.60010 0.13765 0.32889
 C175 C 0.61713 0.21633 0.20004
 C176 C 0.59748 0.22714 0.15275
 H177 H 0.51363 0.05266 0.34335
 H178 H 0.64794 0.23428 0.20296
 H179 H 0.58837 0.09145 0.43800
 H180 H 0.56664 0.20943 0.15115
 C181 C 0.55182 0.48616 0.41370
 C182 C 0.53810 0.44841 0.39102
 C183 C 0.55781 0.43890 0.33328
 N184 N 0.54186 0.40178 0.31035
 N185 N 0.55878 0.39266 0.25676
 C186 C 0.59231 0.42032 0.22399
 N187 N 0.60837 0.45746 0.24716
 N188 N 0.59141 0.46660 0.30078
 C189 C 0.61106 0.41050 0.16422
 C190 C 0.59486 0.37272 0.13824
 H191 H 0.51115 0.42510 0.41406
 H192 H 0.63805 0.43337 0.14049
 H193 H 0.57725 0.50969 0.38624
 H194 H 0.56789 0.35001 0.16244
 C195 C 0.06958 0.56296 0.42708
 C196 C 0.07702 0.54257 0.37304
 C197 C 0.11401 0.56057 0.33297
 N198 N 0.12113 0.53938 0.28397
 N199 N 0.15412 0.55568 0.24573
 C200 C 0.18120 0.59379 0.25510
 N201 N 0.17412 0.61493 0.30429
 N202 N 0.14119 0.59862 0.34263
 C203 C 0.21680 0.61284 0.20980
 C204 C 0.22568 0.59265 0.15842
 H205 H 0.05551 0.51265 0.36039
 H206 H 0.23547 0.64391 0.21391
 H207 H 0.09227 0.59206 0.44277
 H208 H 0.20738 0.56152 0.15539
 C209 C 0.47002 0.92792 0.42931
 C210 C 0.47425 0.89722 0.41730
 C211 C 0.44851 0.86446 0.36556
 N212 N 0.45499 0.83624 0.35281
 N213 N 0.43282 0.80713 0.30401
 C214 C 0.40323 0.80505 0.26617
 N215 N 0.39652 0.83309 0.27949
 N216 N 0.41872 0.86223 0.32829
 C217 C 0.37992 0.77420 0.20850
 C218 C 0.38848 0.74723 0.18790
 H219 H 0.49784 0.89781 0.44475
 H220 H 0.35737 0.77435 0.17798
 H221 H 0.44815 0.92862 0.39710
 H222 H 0.41155 0.74776 0.21779
 C223 C 0.48562 0.55180 0.41685
 C224 C 0.44811 0.53770 0.39552
 C225 C 0.43817 0.55746 0.33883
 N226 N 0.40130 0.54114 0.31727
 N227 N 0.39180 0.55801 0.26443
 C228 C 0.41883 0.59187 0.23107
 N229 N 0.45572 0.60832 0.25291
 N230 N 0.46524 0.59141 0.30578
 C231 C 0.40861 0.61044 0.17173
 C232 C 0.37108 0.59368 0.14679
 H233 H 0.42532 0.51035 0.41871
 H234 H 0.43100 0.63759 0.14709
 H235 H 0.50861 0.57764 0.38921
 H236 H 0.34887 0.56655 0.17188
   
