data_POSCAR
  _audit_creation_date              2014-09-24
  _audit_creation_method            'ToBaCCo'
  _symmetry_space_group_name_H-M    'P1'
  _symmetry_Int_Tables_number       1
  _symmetry_cell_setting            triclinic
  loop_
  _symmetry_equiv_pos_as_xyz
 x,y,z
_cell_length_a 23.3886
_cell_length_b 21.4367
_cell_length_c 9.3096
_cell_angle_alpha 89.643900
_cell_angle_beta 89.999200
_cell_angle_gamma 114.122800
loop_
  _atom_site_label
  _atom_site_type_symbol
  _atom_site_fract_x
  _atom_site_fract_y
  _atom_site_fract_z
C1 C 0.43558 0.95017 0.57596
 C2 C 0.46581 0.94289 0.44790
 C3 C 0.51005 1.00172 0.38045
 C4 C 0.52540 1.06755 0.43652
 C5 C 0.49822 1.07366 0.56886
 C6 C 0.44928 1.01623 0.62745
 H7 H 0.42817 1.02188 0.72778
 H8 H 0.52861 0.99592 0.27718
 C9 C 0.06255 0.52677 0.55419
 C10 C 0.05664 0.50275 0.41241
 C11 C -0.00297 0.46762 0.35328
 C12 C -0.05772 0.45818 0.43136
 C13 C -0.05127 0.48342 0.57397
 C14 C 0.00864 0.51791 0.63263
 H15 H 0.01325 0.53428 0.74368
 H16 H -0.00587 0.45272 0.24161
 C17 C 0.48587 0.54564 0.59535
 C18 C 0.46718 0.53116 0.45027
 C19 C 0.48644 0.48683 0.37290
 C20 C 0.52542 0.45873 0.43502
 C21 C 0.54668 0.47595 0.57757
 C22 C 0.52849 0.52154 0.65332
 H23 H 0.54149 0.53205 0.76524
 H24 H 0.47404 0.47713 0.26051
 O25 O 0.41083 0.63917 -0.10800
 O26 O 0.41417 0.76046 -0.14165
 C27 C 0.38481 0.79567 -0.18217
 O28 O 0.33538 0.79365 -0.11982
 O29 O 0.22971 0.69070 -0.16953
 C30 C 0.19877 0.62879 -0.20057
 O31 O 0.20786 0.58059 -0.14011
 O32 O 0.31499 0.57272 -0.18548
 C33 C 0.37409 0.59690 -0.19707
 O34 O 0.39824 0.64848 0.17813
 O35 O 0.40849 0.77478 0.14736
 C36 C 0.36853 0.79210 0.20815
 O37 O 0.31222 0.77017 0.16811
 O38 O 0.20780 0.66694 0.11575
 C39 C 0.19504 0.60888 0.17513
 O40 O 0.22131 0.56934 0.14182
 O41 O 0.32504 0.55113 0.09695
 C42 C 0.37027 0.58379 0.18031
 Cr43 Cr 0.40446 0.70458 0.01867
 Cr44 Cr 0.27312 0.72818 -0.00115
 Cr45 Cr 0.26919 0.57217 -0.02070
 O46 O 0.31535 0.66856 0.00012
 O47 O 0.59826 0.37228 -0.09749
 O48 O 0.58891 0.25167 -0.16855
 C49 C 0.61488 0.21437 -0.21447
 O50 O 0.66401 0.21329 -0.15986
 O51 O 0.76938 0.31824 -0.19212
 C52 C 0.80312 0.38154 -0.20138
 O53 O 0.79891 0.42512 -0.11464
 O54 O 0.69742 0.44903 -0.12544
 C55 C 0.63931 0.42694 -0.15116
 O56 O 0.60002 0.33962 0.18070
 O57 O 0.59040 0.21755 0.11045
 C58 C 0.62712 0.19159 0.15732
 O59 O 0.68454 0.21325 0.12275
 O60 O 0.79535 0.31690 0.08761
 C61 C 0.81140 0.36847 0.16938
 O62 O 0.78312 0.40775 0.17199
 O63 O 0.68509 0.43725 0.15928
 C64 C 0.63306 0.40052 0.21760
 Cr65 Cr 0.59815 0.29656 0.00624
 Cr66 Cr 0.72668 0.26799 -0.03331
 Cr67 Cr 0.73905 0.42570 0.02203
 O68 O 0.68768 0.32999 -0.00086
 C69 C 0.39857 0.89599 -0.33266
 C70 C 0.41148 0.84170 -0.30648
 H71 H 0.36705 0.90508 -0.25844
 H72 H 0.44860 0.83527 -0.36555
 C73 C 0.12348 0.55182 -0.37134
 C74 C 0.14689 0.61173 -0.30346
 H75 H 0.14767 0.51819 -0.36649
 H76 H 0.12470 0.64701 -0.31609
 C77 C 0.46067 0.57857 -0.30942
 C78 C 0.40119 0.57233 -0.31491
 H79 H 0.48746 0.60100 -0.21364
 H80 H 0.36964 0.54216 -0.39759
 C81 C 0.52439 0.13165 -0.34259
 C82 C 0.58659 0.16812 -0.33426
 H83 H 0.49546 0.13866 -0.25847
 H84 H 0.61822 0.15504 -0.40013
 C85 C 0.89476 0.46731 -0.32730
 C86 C 0.85099 0.40342 -0.31471
 H87 H 0.89588 0.50589 -0.25132
 H88 H 0.85321 0.36380 -0.38335
 C89 C 0.57867 0.44183 -0.35079
 C90 C 0.61750 0.46883 -0.24075
 H91 H 0.57199 0.39127 -0.38672
 H92 H 0.63320 0.52233 -0.21369
 C93 C 0.88308 0.43054 0.36419
 C94 C 0.86878 0.38632 0.25484
 H95 H 0.84669 0.44486 0.40464
 H96 H 0.90076 0.36398 0.22270
 C97 C 0.55923 0.12675 0.35395
 C98 C 0.60066 0.13102 0.25105
 H99 H 0.55211 0.17262 0.37731
 H100 H 0.61633 0.09048 0.23570
 C101 C 0.54814 0.41758 0.34206
 C102 C 0.60942 0.43216 0.32893
 H103 H 0.51492 0.38084 0.27042
 H104 H 0.64330 0.47446 0.38834
 C105 C 0.11163 0.52129 0.31732
 C106 C 0.14633 0.58709 0.28663
 H107 H 0.11815 0.48134 0.25802
 H108 H 0.13493 0.62617 0.33660
 C109 C 0.44687 0.87822 0.36550
 C110 C 0.38728 0.84248 0.32647
 H111 H 0.48350 0.86807 0.31290
 H112 H 0.35124 0.85606 0.37183
 C113 C 0.43816 0.57132 0.37165
 C114 C 0.39298 0.54317 0.27436
 H115 H 0.45509 0.62543 0.39429
 H116 H 0.37386 0.48840 0.25802
   
