data_POSCAR
  _audit_creation_date              2014-09-24
  _audit_creation_method            'ToBaCCo'
  _symmetry_space_group_name_H-M    'P1'
  _symmetry_Int_Tables_number       1
  _symmetry_cell_setting            triclinic
  loop_
  _symmetry_equiv_pos_as_xyz
 x,y,z
_cell_length_a 45.3259
_cell_length_b 48.0712
_cell_length_c 47.1159
_cell_angle_alpha 90.194000
_cell_angle_beta 89.999900
_cell_angle_gamma 89.874600
loop_
  _atom_site_label
  _atom_site_type_symbol
  _atom_site_fract_x
  _atom_site_fract_y
  _atom_site_fract_z
C1 C 0.40284 0.28493 0.02209
 C2 C 0.40331 0.28360 -0.00694
 C3 C 0.37544 0.29143 -0.01617
 N4 N 0.35815 0.29811 0.00621
 C5 C 0.37483 0.29386 0.02962
 C6 C 0.36565 0.29099 -0.04470
 C7 C 0.34221 0.30849 -0.05360
 C8 C 0.32578 0.30498 -0.07820
 C9 C 0.30626 0.32685 -0.07946
 C10 C 0.31130 0.34326 -0.05567
 N11 N 0.33293 0.33167 -0.03977
 C12 C 0.29646 0.36853 -0.04923
 C13 C 0.29399 0.37801 -0.02075
 C14 C 0.28602 0.40475 -0.01244
 C15 C 0.28395 0.40455 0.01655
 C16 C 0.29126 0.37790 0.02512
 N17 N 0.29756 0.36168 0.00235
 C18 C 0.29047 0.36854 0.05347
 C19 C 0.30557 0.34437 0.06227
 C20 C 0.30164 0.33085 0.08795
 C21 C 0.32277 0.31021 0.08924
 C22 C 0.33886 0.31177 0.06429
 N23 N 0.32813 0.33248 0.04794
 C24 C 0.36422 0.29598 0.05769
 H25 H 0.42109 0.28005 0.03602
 H26 H 0.42209 0.27763 -0.01980
 H27 H 0.33795 0.34021 0.02961
 H28 H 0.32724 0.28815 -0.09344
 H29 H 0.28985 0.33001 -0.09583
 H30 H 0.28240 0.42274 -0.02573
 H31 H 0.27817 0.42215 0.02983
 H32 H 0.32610 0.29595 0.10668
 H33 H 0.34262 0.34051 -0.02182
 H34 H 0.28557 0.33562 0.10425
 C35 C 0.71278 0.58560 0.01103
 C36 C 0.71220 0.58487 -0.01806
 C37 C 0.70180 0.61057 -0.02685
 N38 N 0.69584 0.62690 -0.00413
 C39 C 0.70262 0.61167 0.01906
 C40 C 0.70037 0.61951 -0.05534
 C41 C 0.68573 0.64424 -0.06344
 C42 C 0.69023 0.65808 -0.08884
 C43 C 0.67085 0.68008 -0.08924
 C44 C 0.65482 0.67899 -0.06417
 N45 N 0.66423 0.65718 -0.04843
 C46 C 0.63199 0.69772 -0.05636
 C47 C 0.62353 0.70130 -0.02757
 C48 C 0.59779 0.71427 -0.01844
 C49 C 0.59906 0.71531 0.01055
 C50 C 0.62523 0.70255 0.01830
 N51 N 0.64018 0.69385 -0.00498
 C52 C 0.63590 0.70110 0.04640
 C53 C 0.65807 0.68226 0.05484
 C54 C 0.67281 0.68301 0.08061
 C55 C 0.69158 0.66046 0.08089
 C56 C 0.68772 0.64661 0.05527
 N57 N 0.66707 0.65990 0.03965
 C58 C 0.70244 0.62192 0.04723
 H59 H 0.72021 0.56896 0.02473
 H60 H 0.71900 0.56750 -0.03121
 H61 H 0.65768 0.65275 0.02086
 H62 H 0.70605 0.65303 -0.10528
 H63 H 0.66913 0.69538 -0.10596
 H64 H 0.57979 0.72206 -0.03126
 H65 H 0.58252 0.72432 0.02440
 H66 H 0.70642 0.65496 0.09798
 H67 H 0.65454 0.64998 -0.02981
 H68 H 0.67030 0.69820 0.09745
 C69 C 0.61848 0.25831 0.98762
 C70 C 0.62036 0.25922 1.01657
 C71 C 0.63915 0.28098 1.02338
 N72 N 0.64859 0.29350 0.99936
 C73 C 0.63645 0.27932 0.97737
 C74 C 0.64518 0.29008 1.05145
 C75 C 0.66192 0.31410 1.05783
 C76 C 0.65971 0.32931 1.08274
 C77 C 0.67942 0.35091 1.08065
 C78 C 0.69416 0.34780 1.05494
 N79 N 0.68309 0.32528 1.04114
 C80 C 0.71752 0.36502 1.04489
 C81 C 0.72848 0.36221 1.01678
 C82 C 0.75653 0.36988 1.00805
 C83 C 0.75730 0.36682 0.97922
 C84 C 0.73007 0.35632 0.97121
 N85 N 0.71245 0.35355 0.99423
 C86 C 0.72085 0.35198 0.94289
 C87 C 0.69542 0.33659 0.93573
 C88 C 0.68332 0.33487 0.90879
 C89 C 0.66065 0.31603 0.91025
 C90 C 0.65935 0.30675 0.93813
 N91 N 0.68092 0.31920 0.95337
 C92 C 0.64006 0.28583 0.94820
 H93 H 0.60478 0.24407 0.97570
 H94 H 0.60824 0.24593 1.03091
 H95 H 0.68772 0.31382 0.97364
 H96 H 0.64487 0.32581 1.10033
 H97 H 0.68200 0.36714 1.09637
 H98 H 0.77454 0.37730 1.02110
 H99 H 0.77593 0.37193 0.96595
 H100 H 0.64729 0.30955 0.89243
 H101 H 0.69133 0.31636 1.02262
 H102 H 0.69053 0.34542 0.88977
 C103 C 0.25622 0.61703 1.01388
 C104 C 0.25522 0.61895 0.98496
 C105 C 0.27788 0.63656 0.97706
 N106 N 0.29282 0.64532 1.00031
 C107 C 0.27939 0.63373 1.02304
 C108 C 0.28644 0.64169 0.94868
 C109 C 0.31000 0.65942 0.94164
 C110 C 0.32525 0.65918 0.91613
 C111 C 0.34499 0.68085 0.91725
 C112 C 0.34057 0.69423 0.94304
 N113 N 0.31947 0.68079 0.95789
 C114 C 0.35384 0.71943 0.95170
 C115 C 0.35305 0.72810 0.98031
 C116 C 0.35775 0.75505 0.98964
 C117 C 0.35785 0.75408 1.01870
 C118 C 0.35373 0.72642 1.02618
 N119 N 0.35035 0.71063 1.00262
 C120 C 0.35548 0.71562 1.05412
 C121 C 0.34307 0.68917 1.06054
 C122 C 0.35017 0.67276 1.08372
 C123 C 0.33140 0.65039 1.08335
 C124 C 0.31425 0.65265 1.05902
 N125 N 0.32156 0.67644 1.04532
 C126 C 0.29046 0.63490 1.05127
 H127 H 0.24229 0.60345 1.02622
 H128 H 0.24037 0.60741 0.97138
 H129 H 0.31018 0.68521 1.02833
 H130 H 0.32257 0.64495 0.89850
 H131 H 0.36049 0.68621 0.90071
 H132 H 0.36068 0.77349 0.97684
 H133 H 0.36067 0.77177 1.03268
 H134 H 0.33078 0.63466 1.09959
 H135 H 0.30956 0.68783 0.97653
 H136 H 0.36704 0.67631 1.09953
 C137 C -0.02116 0.36140 0.25034
 C138 C 0.00901 0.36198 0.24860
 C139 C 0.01950 0.35647 0.27559
 N140 N -0.00317 0.35245 0.29379
 C141 C -0.02812 0.35588 0.27846
 C142 C 0.04935 0.35798 0.28396
 C143 C 0.05921 0.34450 0.30883
 C144 C 0.08541 0.34973 0.32309
 C145 C 0.08742 0.33036 0.34449
 C146 C 0.06220 0.31418 0.34290
 N147 N 0.04509 0.32299 0.32126
 C148 C 0.05601 0.29100 0.36015
 C149 C 0.02699 0.28089 0.36378
 C150 C 0.01970 0.25641 0.37744
 C151 C -0.01041 0.25623 0.38004
 C152 C -0.02080 0.28043 0.36732
 N153 N 0.00227 0.29543 0.35750
 C154 C -0.05013 0.29082 0.36879
 C155 C -0.05924 0.31410 0.35229
 C156 C -0.08487 0.32963 0.35612
 C157 C -0.08632 0.34843 0.33435
 C158 C -0.06255 0.34309 0.31665
 N159 N -0.04591 0.32247 0.32800
 C160 C -0.05689 0.35634 0.29027
 H161 H -0.03623 0.36476 0.23286
 H162 H 0.02176 0.36604 0.22964
 H163 H -0.02824 0.31259 0.31798
 H164 H 0.10145 0.36576 0.31866
 H165 H 0.10532 0.32851 0.35957
 H166 H 0.03452 0.24062 0.38549
 H167 H -0.02268 0.24035 0.39103
 H168 H -0.10326 0.36412 0.33202
 H169 H 0.02634 0.31298 0.31353
 H170 H -0.10153 0.32781 0.37234
 C171 C 0.01688 0.72563 0.60218
 C172 C -0.01325 0.72416 0.60154
 C173 C -0.02130 0.70186 0.61854
 N174 N 0.00317 0.68953 0.62915
 C175 C 0.02653 0.70426 0.61955
 C176 C -0.05035 0.69110 0.62100
 C177 C -0.05683 0.66762 0.63809
 C178 C -0.08157 0.65080 0.63567
 C179 C -0.08069 0.63235 0.65780
 C180 C -0.05635 0.63917 0.67424
 N181 N -0.04154 0.66026 0.66167
 C182 C -0.04899 0.62700 0.70083
 C183 C -0.01971 0.62850 0.71165
 C184 C -0.01133 0.62240 0.73929
 C185 C 0.01876 0.62383 0.74023
 C186 C 0.02802 0.63196 0.71349
 N187 N 0.00446 0.63467 0.69599
 C188 C 0.05785 0.63482 0.70505
 C189 C 0.06639 0.64851 0.67988
 C190 C 0.09484 0.64906 0.66906
 C191 C 0.09451 0.66696 0.64636
 C192 C 0.06584 0.67683 0.64382
 N193 N 0.04895 0.66562 0.66449
 C194 C 0.05653 0.69741 0.62436
 H195 H 0.03005 0.74031 0.59035
 H196 H -0.02732 0.73730 0.58875
 H197 H 0.02777 0.67186 0.67000
 H198 H -0.09886 0.65143 0.61997
 H199 H -0.09657 0.61599 0.66141
 H200 H -0.02528 0.61759 0.75723
 H201 H 0.03197 0.61953 0.75878
 H202 H 0.11351 0.67256 0.63375
 H203 H -0.02419 0.67138 0.67067
 H204 H 0.11413 0.63844 0.67715
 C205 C 1.00873 0.59800 0.28794
 C206 C 0.97856 0.59885 0.28646
 C207 C 0.96999 0.62438 0.29751
 N208 N 0.99386 0.63914 0.30572
 C209 C 1.01757 0.62309 0.29975
 C210 C 0.94083 0.63476 0.29733
 C211 C 0.93199 0.65785 0.31389
 C212 C 0.90531 0.67179 0.31136
 C213 C 0.90493 0.69199 0.33222
 C214 C 0.93138 0.68975 0.34685
 N215 N 0.94764 0.66885 0.33563
 C216 C 0.93940 0.70543 0.37105
 C217 C 0.96879 0.70669 0.38103
 C218 C 0.97693 0.71590 0.40780
 C219 C 1.00710 0.71601 0.40839
 C220 C 1.01657 0.70709 0.38186
 N221 N 0.99305 0.70108 0.36520
 C222 C 1.04646 0.70557 0.37300
 C223 C 1.05488 0.68892 0.34939
 C224 C 1.08068 0.69181 0.33375
 C225 C 1.08101 0.67072 0.31395
 C226 C 1.05512 0.65594 0.31758
 N227 N 1.03925 0.66716 0.33910
 C228 C 1.04705 0.63216 0.30182
 H229 H 1.02260 0.58108 0.28064
 H230 H 0.96454 0.58269 0.27786
 H231 H 1.02018 0.65881 0.34800
 H232 H 0.88790 0.66774 0.29620
 H233 H 0.88717 0.70657 0.33619
 H234 H 0.96261 0.72167 0.42525
 H235 H 1.02049 0.72164 0.42653
 H236 H 1.09812 0.66698 0.29837
 H237 H 0.96696 0.66079 0.34427
 H238 H 1.09748 0.70761 0.33609
 C239 C 0.99540 0.27416 0.59892
 C240 C 1.02553 0.27560 0.59805
 C241 C 1.03459 0.28650 0.62396
 N242 N 1.01085 0.29231 0.64038
 C243 C 0.98692 0.28463 0.62508
 C244 C 1.06436 0.28988 0.63262
 C245 C 1.07181 0.30758 0.65564
 C246 C 1.09769 0.30622 0.67134
 C247 C 1.09684 0.32784 0.69051
 C248 C 1.07031 0.34156 0.68626
 N249 N 1.05506 0.32899 0.66515
 C250 C 1.06129 0.36589 0.70075
 C251 C 1.03137 0.37385 0.70252
 C252 C 1.02116 0.39912 0.71292
 C253 C 0.99105 0.39708 0.71433
 C254 C 0.98386 0.37079 0.70442
 N255 N 1.00851 0.35661 0.69717
 C256 C 0.95523 0.35934 0.70481
 C257 C 0.94742 0.33537 0.68925
 C258 C 0.92116 0.32088 0.69207
 C259 C 0.92181 0.29973 0.67225
 C260 C 0.94848 0.30193 0.65804
 N261 N 0.96378 0.32382 0.66832
 C262 C 0.95760 0.28502 0.63518
 H263 H 0.98130 0.26648 0.58210
 H264 H 1.03909 0.26957 0.58016
 H265 H 0.98300 0.33196 0.65964
 H266 H 1.11532 0.29113 0.66938
 H267 H 1.11372 0.33272 0.70598
 H268 H 1.03402 0.41704 0.71922
 H269 H 0.97613 0.41303 0.72201
 H270 H 0.90461 0.28453 0.66867
 H271 H 1.03573 0.33635 0.65580
 H272 H 0.90333 0.32520 0.70674
 C273 C 0.40718 -0.01588 0.27876
 C274 C 0.40661 0.01262 0.27811
 C275 C 0.37838 0.02059 0.28592
 N276 N 0.36163 -0.00211 0.29130
 C277 C 0.37915 -0.02450 0.28671
 C278 C 0.36803 0.04834 0.28678
 C279 C 0.34112 0.05560 0.29995
 C280 C 0.32593 0.08038 0.29600
 C281 C 0.30265 0.08030 0.31479
 C282 C 0.30436 0.05548 0.32959
 N283 N 0.32773 0.04051 0.32032
 C284 C 0.28639 0.04815 0.35274
 C285 C 0.28623 0.02114 0.36429
 C286 C 0.27619 0.01458 0.39118
 C287 C 0.27810 -0.01374 0.39352
 C288 C 0.28865 -0.02363 0.36770
 N289 N 0.29399 -0.00216 0.34996
 C290 C 0.29179 -0.05201 0.36000
 C291 C 0.30906 -0.05955 0.33608
 C292 C 0.30501 -0.08324 0.31969
 C293 C 0.32673 -0.08317 0.29935
 C294 C 0.34366 -0.05953 0.30393
 N295 N 0.33227 -0.04486 0.32595
 C296 C 0.36967 -0.05255 0.28876
 H297 H 0.42632 -0.02868 0.27440
 H298 H 0.42504 0.02593 0.27286
 H299 H 0.34157 -0.02724 0.33531
 H300 H 0.33131 0.09697 0.28144
 H301 H 0.28669 0.09685 0.31764
 H302 H 0.26862 0.02878 0.40752
 H303 H 0.27260 -0.02553 0.41230
 H304 H 0.32959 -0.09872 0.28292
 H305 H 0.33619 0.02266 0.32978
 H306 H 0.28790 -0.09874 0.32185
 C307 C 0.72817 -0.00788 0.61129
 C308 C 0.72834 0.02054 0.61152
 C309 C 0.71762 0.02865 0.63779
 N310 N 0.71099 0.00617 0.65376
 C311 C 0.71780 -0.01626 0.63763
 C312 C 0.71648 0.05643 0.64743
 C313 C 0.69854 0.06499 0.67022
 C314 C 0.69985 0.09067 0.68361
 C315 C 0.67753 0.09105 0.70348
 C316 C 0.66329 0.06560 0.70152
 N317 N 0.67610 0.04998 0.68106
 C318 C 0.63833 0.05768 0.71742
 C319 C 0.62835 0.02986 0.71868
 C320 C 0.60138 0.02166 0.72965
 C321 C 0.60152 -0.00683 0.72979
 C322 C 0.62852 -0.01514 0.71879
 N323 N 0.64489 0.00731 0.71191
 C324 C 0.63882 -0.04290 0.71824
 C325 C 0.66290 -0.05177 0.70138
 C326 C 0.67703 -0.07726 0.70376
 C327 C 0.69893 -0.07780 0.68346
 C328 C 0.69749 -0.05264 0.66915
 N329 N 0.67523 -0.03707 0.68003
 C330 C 0.71667 -0.04425 0.64699
 H331 H 0.73507 -0.02094 0.59373
 H332 H 0.73554 0.03377 0.59432
 H333 H 0.66753 -0.01826 0.67203
 H334 H 0.71516 0.10741 0.67941
 H335 H 0.67236 0.10813 0.71767
 H336 H 0.58359 0.03483 0.73713
 H337 H 0.58391 -0.01998 0.73750
 H338 H 0.71452 -0.09457 0.68014
 H339 H 0.66814 0.03132 0.67289
 H340 H 0.67236 -0.09363 0.71882
 C341 C 0.24949 0.99310 0.62985
 C342 C 0.25329 1.02128 0.62868
 C343 C 0.28202 1.02665 0.63730
 N344 N 0.29546 1.00259 0.64478
 C345 C 0.27557 0.98204 0.64025
 C346 C 0.29627 1.05295 0.63614
 C347 C 0.32266 1.05773 0.65168
 C348 C 0.34391 1.07748 0.64522
 C349 C 0.36506 1.07608 0.66609
 C350 C 0.35644 1.05526 0.68461
 N351 N 0.33082 1.04386 0.67542
 C352 C 0.37181 1.04728 0.70951
 C353 C 0.36780 1.02030 0.72093
 C354 C 0.37371 1.01240 0.74864
 C355 C 0.37110 0.98405 0.74958
 C356 C 0.36238 0.97560 0.72271
 N357 N 0.36024 0.99782 0.70527
 C358 C 0.35935 0.94778 0.71349
 C359 C 0.34095 0.94065 0.69034
 C360 C 0.33798 0.91426 0.67869
 C361 C 0.31591 0.91585 0.65870
 C362 C 0.30599 0.94317 0.65866
 N363 N 0.32110 0.95799 0.67823
 C364 C 0.28175 0.95330 0.64294
 H365 H 0.22963 0.98229 0.62365
 H366 H 0.23659 1.03603 0.62212
 H367 H 0.31587 0.97797 0.68514
 H368 H 0.34454 1.09114 0.62704
 H369 H 0.38493 1.08848 0.66698
 H370 H 0.37971 1.02564 0.76633
 H371 H 0.37478 0.97151 0.76821
 H372 H 0.30759 0.89857 0.64633
 H373 H 0.31832 1.02905 0.68617
 H374 H 0.34952 0.89545 0.68464
 C375 C 0.70457 1.01519 0.41288
 C376 C 0.70529 0.98668 0.41358
 C377 C 0.69722 0.97753 0.38676
 N378 N 0.69149 0.99953 0.36973
 C379 C 0.69602 1.02258 0.38567
 C380 C 0.69730 0.94939 0.37783
 C381 C 0.68530 0.94068 0.35159
 C382 C 0.69064 0.91518 0.33863
 C383 C 0.67367 0.91440 0.31440
 C384 C 0.65859 0.93946 0.31326
 N385 N 0.66568 0.95529 0.33600
 C386 C 0.63748 0.94664 0.29262
 C387 C 0.62674 0.97400 0.28951
 C388 C 0.60093 0.98094 0.27549
 C389 C 0.59968 1.00937 0.27505
 C390 C 0.62510 1.01888 0.28832
 N391 N 0.64147 0.99717 0.29753
 C392 C 0.63367 1.04716 0.29041
 C393 C 0.65407 1.05619 0.31130
 C394 C 0.66897 1.08138 0.31097
 C395 C 0.68637 1.08208 0.33485
 C396 C 0.68177 1.05728 0.34912
 N397 N 0.66202 1.04163 0.33466
 C398 C 0.69490 1.05016 0.37536
 H399 H 0.70991 1.02892 0.43039
 H400 H 0.71128 0.97415 0.43174
 H401 H 0.65259 1.02315 0.34163
 H402 H 0.70520 0.89881 0.34586
 H403 H 0.67247 0.89730 0.29944
 H404 H 0.58467 0.96695 0.26660
 H405 H 0.58205 1.02163 0.26592
 H406 H 0.70105 1.09885 0.34080
 H407 H 0.65534 0.97372 0.34205
 H408 H 0.66794 1.09742 0.29494
 O409 O 0.86061 0.82579 0.48433
 O410 O 0.81772 0.85853 0.54166
 O411 O 0.85875 0.82111 0.53929
 O412 O 0.82197 0.86547 0.48734
 O413 O 0.78636 0.83460 0.48233
 O414 O 0.82518 0.78839 0.53321
 O415 O 0.78328 0.82642 0.53713
 O416 O 0.82562 0.79441 0.47849
 Cu417 Cu 0.84321 0.84583 0.51370
 Cu418 Cu 0.80155 0.80779 0.50728
 C419 C 0.85050 0.80446 0.47166
 C420 C 0.79317 0.84818 0.54915
 C421 C 0.84869 0.79718 0.54491
 C422 C 0.79783 0.85797 0.47615
 O423 O 0.18856 0.13488 0.51316
 O424 O 0.14626 0.18321 0.46907
 O425 O 0.18711 0.14588 0.45967
 O426 O 0.14767 0.17202 0.52219
 O427 O 0.18071 0.20535 0.52740
 O428 O 0.22275 0.17630 0.46701
 O429 O 0.18147 0.21472 0.47332
 O430 O 0.22178 0.16739 0.52173
 Cu431 Cu 0.16406 0.15576 0.49032
 Cu432 Cu 0.20527 0.19415 0.49787
 C433 C 0.21219 0.14280 0.52513
 C434 C 0.15639 0.20724 0.46402
 C435 C 0.21206 0.15593 0.45319
 C436 C 0.15683 0.19367 0.53489
 O437 O 0.13778 0.82760 0.53136
 O438 O 0.17002 0.86968 0.47457
 O439 O 0.12980 0.83078 0.47697
 O440 O 0.17794 0.86530 0.52909
 O441 O 0.21236 0.83356 0.52132
 O442 O 0.16389 0.79871 0.46951
 O443 O 0.20418 0.83773 0.46697
 O444 O 0.17118 0.79485 0.52388
 Cu445 Cu 0.15050 0.85159 0.50356
 Cu446 Cu 0.19137 0.81298 0.49472
 C447 C 0.14873 0.80400 0.53718
 C448 C 0.19276 0.86124 0.46133
 C449 C 0.13839 0.80860 0.46473
 C450 C 0.20342 0.85541 0.53392
 O451 O 0.82027 0.13855 0.48017
 O452 O 0.85620 0.18490 0.53129
 O453 O 0.81584 0.14712 0.53437
 O454 O 0.85989 0.17716 0.47668
 O455 O 0.82591 0.20966 0.47072
 O456 O 0.78073 0.17821 0.52706
 O457 O 0.82141 0.21655 0.52509
 O458 O 0.78557 0.16997 0.47268
 Cu459 Cu 0.84152 0.15879 0.50630
 Cu460 Cu 0.79988 0.19678 0.49804
 C461 C 0.79672 0.14611 0.46784
 C462 C 0.84511 0.20852 0.53700
 C463 C 0.79072 0.15731 0.54040
 C464 C 0.85060 0.19886 0.46426
 O465 O 0.47314 0.86614 0.83108
 O466 O 0.53463 0.82986 0.86532
 O467 O 0.53064 0.86478 0.82350
 O468 O 0.47887 0.83007 0.87174
 O469 O 0.47197 0.79696 0.83975
 O470 O 0.52731 0.82974 0.79326
 O471 O 0.52923 0.79439 0.83591
 O472 O 0.47033 0.83314 0.79846
 Cu473 Cu 0.50477 0.85140 0.85074
 Cu474 Cu 0.49933 0.81010 0.81367
 C475 C 0.46141 0.85606 0.80888
 C476 C 0.54163 0.80550 0.85735
 C477 C 0.53804 0.85313 0.80032
 C478 C 0.46679 0.80748 0.86401
 O479 O 0.53892 0.18863 0.14610
 O480 O 0.48417 0.14031 0.17512
 O481 O 0.48249 0.18072 0.13908
 O482 O 0.53965 0.14886 0.18360
 O483 O 0.53062 0.17949 0.21754
 O484 O 0.47191 0.21056 0.17335
 O485 O 0.47466 0.16975 0.21003
 O486 O 0.52786 0.21961 0.17918
 Cu487 Cu 0.51245 0.16174 0.15753
 Cu488 Cu 0.50039 0.19789 0.19852
 C489 C 0.54223 0.21254 0.15712
 C490 C 0.47033 0.14653 0.19769
 C491 C 0.46736 0.20098 0.14859
 C492 C 0.54454 0.15833 0.20833
 O493 O 0.46631 0.19654 0.84496
 O494 O 0.52613 0.16138 0.80648
 O495 O 0.52346 0.19893 0.84549
 O496 O 0.46966 0.15788 0.80535
 O497 O 0.46646 0.19072 0.77280
 O498 O 0.52129 0.23196 0.81305
 O499 O 0.52398 0.19333 0.77296
 O500 O 0.46432 0.22919 0.81217
 Cu501 Cu 0.49633 0.17546 0.82891
 Cu502 Cu 0.49390 0.21457 0.78936
 C503 C 0.45557 0.21914 0.83559
 C504 C 0.53497 0.17105 0.78296
 C505 C 0.53138 0.22251 0.83630
 C506 C 0.45931 0.16690 0.78211
 O507 O 0.48514 0.82012 0.13535
 O508 O 0.54047 0.84935 0.18368
 O509 O 0.54021 0.81097 0.14481
 O510 O 0.48528 0.85938 0.17393
 O511 O 0.47355 0.82888 0.20696
 O512 O 0.52756 0.77940 0.17647
 O513 O 0.52880 0.81828 0.21618
 O514 O 0.47182 0.78987 0.16810
 Cu515 Cu 0.51395 0.83807 0.15624
 Cu516 Cu 0.49927 0.80094 0.19521
 C517 C 0.46929 0.79983 0.14328
 C518 C 0.54387 0.83912 0.20826
 C519 C 0.54282 0.78675 0.15513
 C520 C 0.47044 0.85269 0.19572
 O521 O 0.81781 0.46167 0.84864
 O522 O 0.86614 0.51278 0.81501
 O523 O 0.82609 0.51492 0.85554
 O524 O 0.85667 0.46058 0.80912
 O525 O 0.82273 0.46976 0.77680
 O526 O 0.79112 0.52345 0.82411
 O527 O 0.83144 0.52286 0.78376
 O528 O 0.78285 0.47070 0.81727
 Cu529 Cu 0.84508 0.48687 0.83542
 Cu530 Cu 0.80357 0.49770 0.79727
 C531 C 0.79220 0.45741 0.83875
 C532 C 0.85750 0.52591 0.79321
 C533 C 0.80294 0.52795 0.84812
 C534 C 0.84523 0.45611 0.78495
 O535 O 0.15957 0.47791 0.12811
 O536 O 0.12281 0.53332 0.16832
 O537 O 0.16252 0.53237 0.12984
 O538 O 0.11977 0.48024 0.16874
 O539 O 0.15555 0.47643 0.20036
 O540 O 0.19791 0.53013 0.16199
 O541 O 0.15703 0.53075 0.20157
 O542 O 0.19523 0.47601 0.15994
 Cu543 Cu 0.13784 0.50587 0.14529
 Cu544 Cu 0.18001 0.50306 0.18421
 C545 C 0.18377 0.46770 0.13682
 C546 C 0.13334 0.54135 0.19189
 C547 C 0.18718 0.54054 0.13950
 C548 C 0.13006 0.46988 0.19143
 O549 O 0.80510 0.52671 0.15355
 O550 O 0.85402 0.47707 0.18785
 O551 O 0.81111 0.47354 0.15054
 O552 O 0.84372 0.52964 0.19395
 O553 O 0.81005 0.52227 0.22691
 O554 O 0.77848 0.46534 0.18433
 O555 O 0.82095 0.46903 0.22125
 O556 O 0.77053 0.51918 0.18561
 Cu557 Cu 0.83182 0.50238 0.16824
 Cu558 Cu 0.79163 0.49336 0.20790
 C559 C 0.77946 0.53123 0.16313
 C560 C 0.84633 0.46488 0.21045
 C561 C 0.78916 0.45999 0.16005
 C562 C 0.83254 0.53532 0.21803
 O563 O 0.14405 0.47900 0.81920
 O564 O 0.19015 0.53355 0.85084
 O565 O 0.15167 0.53193 0.81036
 O566 O 0.18221 0.48102 0.86026
 O567 O 0.21758 0.47046 0.82983
 O568 O 0.18680 0.52170 0.77949
 O569 O 0.22621 0.52311 0.82108
 O570 O 0.17932 0.46919 0.78838
 Cu571 Cu 0.16346 0.50738 0.83818
 Cu572 Cu 0.20613 0.49524 0.80160
 C573 C 0.15366 0.46496 0.79825
 C574 C 0.21619 0.53727 0.84177
 C575 C 0.16369 0.53519 0.78630
 C576 C 0.20513 0.46717 0.85376
 C577 C 0.22918 0.40966 0.08518
 C578 C 0.24210 0.41989 0.11018
 N579 N 0.27007 0.41219 0.11694
 C580 C 0.28584 0.39494 0.09967
 C581 C 0.27310 0.38501 0.07437
 N582 N 0.24494 0.39261 0.06789
 N583 N 0.20146 0.41769 0.07807
 C584 C 0.18609 0.43579 0.09467
 C585 C 0.19908 0.44652 0.11952
 N586 N 0.22682 0.43809 0.12674
 H587 H 0.30833 0.38964 0.10519
 H588 H 0.16412 0.44201 0.08827
 C589 C 0.72545 0.58141 0.11095
 C590 C 0.75581 0.57849 0.10595
 N591 N 0.76820 0.59046 0.08285
 C592 C 0.75150 0.60499 0.06414
 C593 C 0.72095 0.60742 0.06853
 N594 N 0.70860 0.59581 0.09210
 N595 N 0.71330 0.56903 0.13409
 C596 C 0.73009 0.55352 0.15219
 C597 C 0.76037 0.55005 0.14669
 N598 N 0.77234 0.56290 0.12374
 H599 H 0.76185 0.61424 0.04575
 H600 H 0.71978 0.54346 0.17014
 C601 C 0.73967 0.40389 0.88772
 C602 C 0.76936 0.39748 0.88228
 N603 N 0.78183 0.37484 0.89461
 C604 C 0.76615 0.35875 0.91284
 C605 C 0.73712 0.36632 0.91996
 N606 N 0.72438 0.38847 0.90675
 N607 N 0.72704 0.42618 0.87487
 C608 C 0.74301 0.44279 0.85733
 C609 C 0.77318 0.43738 0.85327
 N610 N 0.78556 0.41465 0.86569
 H611 H 0.77661 0.34097 0.92270
 H612 H 0.73267 0.46086 0.84790
 C613 C 0.26835 0.59109 0.89136
 C614 C 0.23803 0.59604 0.88779
 N615 N 0.22485 0.61712 0.90222
 C616 C 0.24047 0.63311 0.92065
 C617 C 0.27041 0.62718 0.92559
 N618 N 0.28377 0.60646 0.91050
 N619 N 0.28151 0.57019 0.87656
 C620 C 0.26558 0.55358 0.85884
 C621 C 0.23494 0.55754 0.85652
 N622 N 0.22200 0.57891 0.87092
 H623 H 0.22940 0.64953 0.93230
 H624 H 0.27645 0.53661 0.84786
 C625 C 0.09730 0.25885 0.41985
 C626 C 0.12276 0.24873 0.40623
 N627 N 0.12669 0.25378 0.37813
 C628 C 0.10614 0.26813 0.36296
 C629 C 0.08033 0.27773 0.37644
 N630 N 0.07682 0.27303 0.40471
 N631 N 0.09274 0.25318 0.44767
 C632 C 0.11229 0.23747 0.46248
 C633 C 0.13754 0.22697 0.44890
 N634 N 0.14234 0.23292 0.42103
 H635 H 0.10947 0.27136 0.34047
 H636 H 0.10790 0.23270 0.48453
 C637 C 0.10081 0.75589 0.59584
 C638 C 0.11624 0.74302 0.57351
 N639 N 0.11306 0.71524 0.56909
 C640 C 0.09486 0.69983 0.58576
 C641 C 0.07916 0.71275 0.60793
 N642 N 0.08274 0.74051 0.61251
 N643 N 0.10280 0.78381 0.59952
 C644 C 0.11913 0.79959 0.58158
 C645 C 0.13428 0.78691 0.55892
 N646 N 0.13270 0.75878 0.55560
 H647 H 0.09207 0.67788 0.58138
 H648 H 0.11986 0.82191 0.58465
 C649 C 0.90409 0.76320 0.41131
 C650 C 0.87852 0.75049 0.42185
 N651 N 0.87224 0.72388 0.41417
 C652 C 0.89064 0.70925 0.39679
 C653 C 0.91664 0.72173 0.38671
 N654 N 0.92246 0.74859 0.39410
 N655 N 0.91095 0.78945 0.41961
 C656 C 0.89362 0.80351 0.43834
 C657 C 0.86825 0.79071 0.44943
 N658 N 0.86119 0.76450 0.44063
 H659 H 0.88559 0.68780 0.39172
 H660 H 0.89987 0.82429 0.44483
 C661 C 0.89396 0.26056 0.59198
 C662 C 0.90034 0.23207 0.58951
 N663 N 0.92371 0.22117 0.60362
 C664 C 0.94147 0.23761 0.61964
 C665 C 0.93596 0.26636 0.62126
 N666 N 0.91201 0.27715 0.60765
 N667 N 0.87061 0.27134 0.57760
 C668 C 0.85366 0.25498 0.56051
 C669 C 0.86068 0.22662 0.55728
 N670 N 0.88378 0.21592 0.57215
 H671 H 0.96034 0.22855 0.63029
 H672 H 0.83548 0.26418 0.54895
 C673 C 0.41333 0.08671 0.23383
 C674 C 0.42107 0.11081 0.24899
 N675 N 0.41112 0.11430 0.27595
 C676 C 0.39383 0.09476 0.28846
 C677 C 0.38604 0.07055 0.27335
 N678 N 0.39606 0.06721 0.24629
 N679 N 0.42365 0.08294 0.20707
 C680 C 0.44157 0.10208 0.19480
 C681 C 0.44960 0.12621 0.20994
 N682 N 0.43896 0.12999 0.23674
 H683 H 0.38652 0.09787 0.31012
 H684 H 0.44961 0.09837 0.17349
 C685 C 0.59405 0.12039 0.73649
 C686 C 0.58903 0.11594 0.76551
 N687 N 0.60160 0.09378 0.77857
 C688 C 0.61850 0.07545 0.76377
 C689 C 0.62255 0.07907 0.73442
 N690 N 0.61055 0.10180 0.72152
 N691 N 0.58130 0.14261 0.72356
 C692 C 0.56329 0.16026 0.73823
 C693 C 0.55734 0.15516 0.76705
 N694 N 0.57069 0.13318 0.77995
 H695 H 0.62807 0.05777 0.77459
 H696 H 0.55292 0.17744 0.72726
 C697 C 0.39595 0.90440 0.76873
 C698 C 0.41730 0.89015 0.75267
 N699 N 0.41853 0.89404 0.72419
 C700 C 0.39957 0.91177 0.71105
 C701 C 0.37807 0.92608 0.72701
 N702 N 0.37675 0.92179 0.75553
 N703 N 0.39582 0.90186 0.79740
 C704 C 0.41631 0.88592 0.81082
 C705 C 0.43768 0.87159 0.79482
 N706 N 0.43750 0.87388 0.76603
 H707 H 0.40168 0.91521 0.68845
 H708 H 0.41604 0.88455 0.83375
 C709 C 0.59690 0.88505 0.26506
 C710 C 0.59799 0.88987 0.23570
 N711 N 0.61401 0.91142 0.22552
 C712 C 0.62840 0.92891 0.24342
 C713 C 0.62618 0.92506 0.27291
 N714 N 0.61082 0.90287 0.28306
 N715 N 0.58046 0.86363 0.27512
 C716 C 0.56447 0.84725 0.25720
 C717 C 0.56446 0.85292 0.22791
 N718 N 0.58160 0.87394 0.21796
 H719 H 0.64050 0.94636 0.23484
 H720 H 0.55096 0.83081 0.26586
 C721 C 0.39934 0.26574 0.88924
 C722 C 0.41077 0.23998 0.89779
 N723 N 0.40561 0.23076 0.92446
 C724 C 0.39020 0.24649 0.94333
 C725 C 0.37968 0.27306 0.93544
 N726 N 0.38408 0.28160 0.90814
 N727 N 0.40486 0.27504 0.86257
 C728 C 0.42179 0.25993 0.84426
 C729 C 0.43401 0.23445 0.85310
 N730 N 0.42783 0.22503 0.87965
 H731 H 0.38610 0.23818 0.96428
 H732 H 0.42633 0.26813 0.82335
 C733 C 0.59696 0.75800 0.91057
 C734 C 0.58723 0.74699 0.88462
 N735 N 0.59391 0.72021 0.87787
 C736 C 0.60951 0.70384 0.89608
 C737 C 0.61824 0.71448 0.92277
 N738 N 0.61182 0.74154 0.92895
 N739 N 0.59047 0.78468 0.91752
 C740 C 0.57408 0.80080 0.89994
 C741 C 0.56308 0.78959 0.87440
 N742 N 0.57022 0.76289 0.86723
 H743 H 0.61362 0.68235 0.89039
 H744 H 0.56882 0.82186 0.90641
 C745 C 0.41289 0.76025 0.08451
 C746 C 0.40711 0.75865 0.11366
 N747 N 0.38336 0.74403 0.12277
 C748 C 0.36553 0.73039 0.10408
 C749 C 0.37209 0.73067 0.07473
 N750 N 0.39559 0.74614 0.06602
 N751 N 0.43591 0.77562 0.07509
 C752 C 0.45372 0.78930 0.09360
 C753 C 0.44868 0.78705 0.12296
 N754 N 0.42533 0.77175 0.13231
 H755 H 0.34614 0.71997 0.11212
 H756 H 0.47216 0.80113 0.08548
 C757 C 0.59446 0.26774 0.10933
 C758 C 0.60247 0.23964 0.11210
 N759 N 0.62591 0.22957 0.09739
 C760 C 0.64127 0.24613 0.07939
 C761 C 0.63219 0.27379 0.07510
 N762 N 0.60912 0.28408 0.09050
 N763 N 0.57120 0.27778 0.12443
 C764 C 0.55518 0.26084 0.14165
 C765 C 0.56210 0.23235 0.14309
 N766 N 0.58582 0.22255 0.12840
 H767 H 0.65945 0.23745 0.06736
 H768 H 0.53627 0.26920 0.15287
 C769 C 0.25691 0.08452 0.57636
 C770 C 0.25874 0.11298 0.58255
 N771 N 0.27350 0.12138 0.60614
 C772 C 0.28642 0.10259 0.62388
 C773 C 0.28462 0.07379 0.61781
 N774 N 0.26994 0.06592 0.59385
 N775 N 0.24119 0.07575 0.55358
 C776 C 0.22691 0.09422 0.53671
 C777 C 0.22858 0.12283 0.54273
 N778 N 0.24473 0.13162 0.56549
 H779 H 0.29672 0.11012 0.64312
 H780 H 0.21438 0.08661 0.51874
 C781 C 0.75362 0.08762 0.41510
 C782 C 0.73900 0.11197 0.42383
 N783 N 0.71036 0.11595 0.41633
 C784 C 0.69566 0.09662 0.40060
 C785 C 0.71026 0.07216 0.39194
 N786 N 0.73899 0.06838 0.39944
 N787 N 0.78205 0.08332 0.42287
 C788 C 0.79655 0.10215 0.43924
 C789 C 0.78200 0.12649 0.44835
 N790 N 0.75348 0.13087 0.44023
 H791 H 0.67277 0.10012 0.39510
 H792 H 0.81917 0.09798 0.44529
 C793 C 0.74230 0.89386 0.60850
 C794 C 0.77103 0.90199 0.60121
 N795 N 0.78205 0.92618 0.61140
 C796 C 0.76528 0.94325 0.62774
 C797 C 0.73574 0.93618 0.63390
 N798 N 0.72530 0.91105 0.62475
 N799 N 0.73128 0.86980 0.59762
 C800 C 0.74747 0.85387 0.57935
 C801 C 0.77590 0.86258 0.57130
 N802 N 0.78699 0.88631 0.58285
 H803 H 0.77473 0.96255 0.63537
 H804 H 0.73792 0.83510 0.57058
 C805 C 0.23453 0.91579 0.40382
 C806 C 0.24664 0.88952 0.40935
 N807 N 0.27289 0.88245 0.39742
 C808 C 0.28776 0.90057 0.38048
 C809 C 0.27614 0.92744 0.37553
 N810 N 0.24949 0.93394 0.38729
 N811 N 0.20849 0.92317 0.41586
 C812 C 0.19414 0.90560 0.43362
 C813 C 0.20651 0.87947 0.43995
 N814 N 0.23249 0.87198 0.42738
 H815 H 0.30913 0.89451 0.37227
 H816 H 0.17358 0.91229 0.44317
 C817 C 0.09696 0.40775 0.75769
 C818 C 0.12271 0.41701 0.74421
 N819 N 0.12851 0.40878 0.71718
 C820 C 0.10955 0.39188 0.70290
 C821 C 0.08357 0.38276 0.71625
 N822 N 0.07812 0.39083 0.74349
 N823 N 0.09065 0.41660 0.78438
 C824 C 0.10881 0.43457 0.79818
 C825 C 0.13454 0.44412 0.78470
 N826 N 0.14094 0.43488 0.75802
 H827 H 0.11437 0.38607 0.68117
 H828 H 0.10308 0.44150 0.81936
 C829 C 0.08237 0.59818 0.23978
 C830 C 0.10684 0.58494 0.25211
 N831 N 0.11254 0.58893 0.28016
 C832 C 0.09453 0.60512 0.29650
 C833 C 0.06948 0.61756 0.28431
 N834 N 0.06431 0.61398 0.25610
 N835 N 0.07619 0.59396 0.21197
 C836 C 0.09302 0.57663 0.19593
 C837 C 0.11705 0.56257 0.20828
 N838 N 0.12360 0.56735 0.23614
 H839 H 0.09908 0.60747 0.31893
 H840 H 0.08723 0.57343 0.17388
 C841 C 0.90910 0.41264 0.24956
 C842 C 0.87899 0.40625 0.25119
 N843 N 0.87047 0.38267 0.26465
 C844 C 0.89064 0.36551 0.27703
 C845 C 0.92095 0.37245 0.27655
 N846 N 0.92906 0.39587 0.26232
 N847 N 0.91801 0.43552 0.23525
 C848 C 0.89810 0.45244 0.22244
 C849 C 0.86780 0.44650 0.22439
 N850 N 0.85888 0.42345 0.23882
 H851 H 0.88304 0.34638 0.28656
 H852 H 0.90584 0.47059 0.21115
 C853 C 0.91870 0.57406 0.74725
 C854 C 0.88870 0.58112 0.74703
 N855 N 0.87967 0.60367 0.73208
 C856 C 0.89925 0.61927 0.71706
 C857 C 0.92945 0.61173 0.71635
 N858 N 0.93802 0.58918 0.73179
 N859 N 0.92818 0.55234 0.76311
 C860 C 0.90892 0.53716 0.77871
 C861 C 0.87865 0.54361 0.77801
 N862 N 0.86919 0.56552 0.76207
 H863 H 0.89132 0.63780 0.70654
 H864 H 0.91708 0.51974 0.79094
 C865 C 0.76002 0.58045 0.90731
 C866 C 0.74564 0.57173 0.88246
 N867 N 0.71700 0.57886 0.87818
 C868 C 0.70201 0.59430 0.89768
 C869 C 0.71630 0.60309 0.92264
 N870 N 0.74510 0.59593 0.92674
 N871 N 0.78845 0.57278 0.91189
 C872 C 0.80313 0.55652 0.89286
 C873 C 0.78875 0.54753 0.86802
 N874 N 0.76029 0.55555 0.86342
 H875 H 0.67909 0.59947 0.89392
 H876 H 0.82567 0.55042 0.89725
 C877 C 0.24324 0.41361 0.91460
 C878 C 0.25602 0.41650 0.88770
 N879 N 0.28154 0.40288 0.88171
 C880 C 0.29498 0.38659 0.90148
 C881 C 0.28254 0.38397 0.92885
 N882 N 0.25675 0.39763 0.93436
 N883 N 0.21789 0.42736 0.92083
 C884 C 0.20482 0.44417 0.90141
 C885 C 0.21780 0.44762 0.87451
 N886 N 0.24313 0.43350 0.86829
 H887 H 0.31583 0.37686 0.89621
 H888 H 0.18474 0.45505 0.90712
 C889 C 0.23260 0.60146 0.09253
 C890 C 0.24824 0.58047 0.10670
 N891 N 0.27791 0.57850 0.10314
 C892 C 0.29264 0.59651 0.08599
 C893 C 0.27704 0.61776 0.07183
 N894 N 0.24729 0.61951 0.07567
 N895 N 0.20278 0.60258 0.09459
 C896 C 0.18777 0.58343 0.10999
 C897 C 0.20328 0.56232 0.12420
 N898 N 0.23329 0.56147 0.12242
 H899 H 0.31592 0.59318 0.08219
 H900 H 0.16394 0.58462 0.11106
 C901 C 0.74737 0.39972 0.10853
 C902 C 0.75830 0.42449 0.09695
 N903 N 0.75418 0.42987 0.06906
 C904 C 0.74022 0.41133 0.05196
 C905 C 0.73043 0.38555 0.06292
 N906 N 0.73400 0.38081 0.09130
 N907 N 0.75026 0.39507 0.13682
 C908 C 0.76365 0.41408 0.15399
 C909 C 0.77526 0.43858 0.14224
 N910 N 0.77223 0.44315 0.11392
 H911 H 0.73653 0.41691 0.03001
 H912 H 0.76552 0.41000 0.17650
 C913 C 0.90272 0.74816 0.59767
 C914 C 0.88613 0.73568 0.57596
 N915 N 0.89016 0.70825 0.57011
 C916 C 0.91003 0.69273 0.58494
 C917 C 0.92670 0.70520 0.60679
 N918 N 0.92248 0.73274 0.61238
 N919 N 0.89994 0.77581 0.60276
 C920 C 0.88165 0.79175 0.58679
 C921 C 0.86531 0.77952 0.56469
 N922 N 0.86773 0.75161 0.55995
 H923 H 0.91393 0.67139 0.57859
 H924 H 0.88030 0.81388 0.59095
 C925 C 0.90616 0.23746 0.40450
 C926 C 0.89174 0.25311 0.42552
 N927 N 0.89728 0.28073 0.42787
 C928 C 0.91625 0.29356 0.40983
 C929 C 0.92987 0.27826 0.38784
 N930 N 0.92461 0.25038 0.38611
 N931 N 0.90203 0.20951 0.40326
 C932 C 0.88409 0.19650 0.42216
 C933 C 0.86917 0.21223 0.44284
 N934 N 0.87335 0.24023 0.44399
 H935 H 0.92131 0.31531 0.41321
 H936 H 0.88134 0.17416 0.42096
 C937 C 0.10020 0.23360 0.59314
 C938 C 0.12724 0.24565 0.58577
 N939 N 0.13383 0.27156 0.59537
 C940 C 0.11438 0.28616 0.61167
 C941 C 0.08661 0.27457 0.61828
 N942 N 0.08064 0.24830 0.60893
 N943 N 0.09325 0.20792 0.58327
 C944 C 0.11190 0.19391 0.56574
 C945 C 0.13856 0.20634 0.55731
 N946 N 0.14572 0.23188 0.56787
 H947 H 0.11993 0.30719 0.61793
 H948 H 0.10544 0.17370 0.55771
 C949 C 0.07925 0.76309 0.41322
 C950 C 0.10774 0.75305 0.41857
 N951 N 0.11581 0.72773 0.40836
 C952 C 0.09666 0.71192 0.39304
 C953 C 0.06778 0.72173 0.38773
 N954 N 0.06008 0.74726 0.39815
 N955 N 0.07093 0.78822 0.42374
 C956 C 0.08978 0.80371 0.43969
 C957 C 0.11825 0.79353 0.44557
 N958 N 0.12654 0.76840 0.43466
 H959 H 0.10359 0.69140 0.38622
 H960 H 0.08239 0.82352 0.44807
 C961 C 0.59428 0.89783 0.74540
 C962 C 0.59211 0.90473 0.77432
 N963 N 0.60701 0.92699 0.78462
 C964 C 0.62348 0.94314 0.76718
 C965 C 0.62462 0.93717 0.73795
 N966 N 0.61028 0.91432 0.72777
 N967 N 0.57931 0.87546 0.73525
 C968 C 0.56190 0.85996 0.75262
 C969 C 0.55883 0.86749 0.78137
 N970 N 0.57429 0.88964 0.79147
 H971 H 0.63476 0.96110 0.77581
 H972 H 0.54987 0.84249 0.74387
 C973 C 0.41578 0.91262 0.23539
 C974 C 0.41926 0.88606 0.24712
 N975 N 0.40610 0.88005 0.27220
 C976 C 0.38955 0.89939 0.28613
 C977 C 0.38602 0.92631 0.27460
 N978 N 0.39946 0.93198 0.24935
 N979 N 0.42919 0.91882 0.21047
 C980 C 0.44624 0.89969 0.19683
 C981 C 0.45022 0.87313 0.20873
 N982 N 0.43644 0.86697 0.23363
 H983 H 0.38026 0.89405 0.30655
 H984 H 0.45692 0.90536 0.17715
 C985 C 0.59831 0.11004 0.26242
 C986 C 0.59331 0.10221 0.23412
 N987 N 0.60356 0.07745 0.22447
 C988 C 0.61782 0.05964 0.24206
 C989 C 0.62173 0.06660 0.27096
 N990 N 0.61247 0.09217 0.28015
 N991 N 0.58740 0.13468 0.27206
 C992 C 0.57118 0.15153 0.25482
 C993 C 0.56537 0.14322 0.22671
 N994 N 0.57700 0.11885 0.21707
 H995 H 0.62589 0.04011 0.23356
 H996 H 0.56217 0.17072 0.26325
 C997 C 0.40439 0.11260 0.73545
 C998 C 0.42840 0.10266 0.75119
 N999 N 0.43464 0.07513 0.75121
 C1000 C 0.41736 0.05681 0.73696
 C1001 C 0.39180 0.06618 0.72262
 N1002 N 0.38657 0.09420 0.72175
 N1003 N 0.39910 0.14045 0.73450
 C1004 C 0.41665 0.15871 0.74886
 C1005 C 0.44005 0.14856 0.76547
 N1006 N 0.44536 0.12073 0.76603
 H1007 H 0.42391 0.03516 0.73660
 H1008 H 0.41200 0.18078 0.74785
 C1009 C 0.59472 0.72972 0.10839
 C1010 C 0.59543 0.75833 0.10255
 N1011 N 0.61094 0.76775 0.07994
 C1012 C 0.62530 0.74977 0.06245
 C1013 C 0.62369 0.72101 0.06747
 N1014 N 0.60873 0.71164 0.09064
 N1015 N 0.57879 0.72044 0.13087
 C1016 C 0.56303 0.73842 0.14740
 C1017 C 0.56281 0.76696 0.14086
 N1018 N 0.57936 0.77613 0.11870
 H1019 H 0.63711 0.75773 0.04424
 H1020 H 0.54998 0.73038 0.16476
 C1021 C 0.40640 0.24002 0.09381
 C1022 C 0.41566 0.25329 0.11883
 N1023 N 0.40661 0.27973 0.12430
 C1024 C 0.38905 0.29365 0.10567
 C1025 C 0.38019 0.28058 0.08031
 N1026 N 0.38896 0.25390 0.07526
 N1027 N 0.41614 0.21398 0.08777
 C1028 C 0.43513 0.20065 0.10544
 C1029 C 0.44491 0.21399 0.13032
 N1030 N 0.43465 0.23999 0.13654
 H1031 H 0.38291 0.31499 0.11012
 H1032 H 0.44280 0.18000 0.09989
 C1033 C 0.58606 0.26912 0.89095
 C1034 C 0.58937 0.24017 0.88852
 N1035 N 0.60974 0.22686 0.90465
 C1036 C 0.62674 0.24115 0.92344
 C1037 C 0.62257 0.26995 0.92694
 N1038 N 0.60238 0.28328 0.91035
 N1039 N 0.56637 0.28251 0.87406
 C1040 C 0.54948 0.26818 0.85513
 C1041 C 0.55185 0.23907 0.85357
 N1042 N 0.57188 0.22580 0.87032
 H1043 H 0.64298 0.23011 0.93596
 H1044 H 0.53355 0.27927 0.84229
 C1045 C 0.41382 0.76299 0.92151
 C1046 C 0.40438 0.76698 0.89344
 N1047 N 0.37795 0.75655 0.88508
 C1048 C 0.36077 0.74187 0.90337
 C1049 C 0.37089 0.73656 0.93111
 N1050 N 0.39715 0.74765 0.93943
 N1051 N 0.43953 0.77445 0.93041
 C1052 C 0.45645 0.78958 0.91239
 C1053 C 0.44765 0.79278 0.88400
 N1054 N 0.42173 0.78138 0.87513
 H1055 H 0.33955 0.73428 0.89628
 H1056 H 0.47701 0.79835 0.91991
 C1057 C 0.75508 0.91440 0.42099
 C1058 C 0.74044 0.89041 0.43036
 N1059 N 0.71206 0.88595 0.42233
 C1060 C 0.69766 0.90443 0.40538
 C1061 C 0.71231 0.92849 0.39601
 N1062 N 0.74076 0.93279 0.40410
 N1063 N 0.78329 0.91913 0.42918
 C1064 C 0.79757 0.90106 0.44651
 C1065 C 0.78302 0.87704 0.45619
 N1066 N 0.75470 0.87225 0.44773
 H1067 H 0.67498 0.90054 0.39941
 H1068 H 0.82004 0.90555 0.45278
 C1069 C 0.25846 0.90210 0.58812
 C1070 C 0.22829 0.89919 0.59410
 N1071 N 0.21657 0.91234 0.61703
 C1072 C 0.23354 0.92882 0.63390
 C1073 C 0.26333 0.93317 0.62694
 N1074 N 0.27516 0.91930 0.60438
 N1075 N 0.27039 0.88824 0.56573
 C1076 C 0.25337 0.87193 0.54871
 C1077 C 0.22290 0.87008 0.55382
 N1078 N 0.21111 0.88370 0.57655
 H1079 H 0.22372 0.93915 0.65205
 H1080 H 0.26331 0.86146 0.53071
 C1081 C 0.26286 0.11018 0.39431
 C1082 C 0.23270 0.10469 0.39809
 N1083 N 0.22028 0.08244 0.38502
 C1084 C 0.23683 0.06491 0.36890
 C1085 C 0.26730 0.06952 0.36615
 N1086 N 0.27956 0.09237 0.37859
 N1087 N 0.27526 0.13221 0.40790
 C1088 C 0.25904 0.14858 0.42568
 C1089 C 0.22916 0.14229 0.43052
 N1090 N 0.21673 0.12065 0.41620
 H1091 H 0.22659 0.04690 0.35921
 H1092 H 0.26970 0.16551 0.43685
 C1093 C 0.73920 0.11455 0.60069
 C1094 C 0.76960 0.10940 0.59807
 N1095 N 0.78234 0.08896 0.61362
 C1096 C 0.76591 0.07287 0.63114
 C1097 C 0.73525 0.07702 0.63278
 N1098 N 0.72263 0.09810 0.61779
 N1099 N 0.72653 0.13488 0.58484
 C1100 C 0.74278 0.14993 0.56609
 C1101 C 0.77298 0.14398 0.56262
 N1102 N 0.78563 0.12400 0.57901
 H1103 H 0.77640 0.05618 0.64278
 H1104 H 0.73201 0.16566 0.55337
 C1105 C 0.87825 0.59170 0.27118
 C1106 C 0.88512 0.58940 0.24220
 N1107 N 0.90822 0.60385 0.23148
 C1108 C 0.92527 0.61997 0.24858
 C1109 C 0.91939 0.62129 0.27786
 N1110 N 0.89566 0.60739 0.28844
 N1111 N 0.85524 0.57700 0.28183
 C1112 C 0.83916 0.55970 0.26494
 C1113 C 0.84677 0.55649 0.23614
 N1114 N 0.86948 0.57174 0.22549
 H1115 H 0.94402 0.63078 0.23966
 H1116 H 0.82131 0.54784 0.27417
 C1117 C 0.89184 0.40155 0.73068
 C1118 C 0.89802 0.40287 0.75986
 N1119 N 0.92102 0.38826 0.77062
 C1120 C 0.93865 0.37283 0.75340
 C1121 C 0.93336 0.37235 0.72403
 N1122 N 0.90977 0.38647 0.71332
 N1123 N 0.86899 0.41662 0.72004
 C1124 C 0.85244 0.43338 0.73718
 C1125 C 0.85943 0.43555 0.76620
 N1126 N 0.88191 0.41992 0.77676
 H1127 H 0.95732 0.36184 0.76235
 H1128 H 0.83480 0.44563 0.72805
 C1129 C 0.11478 0.58460 0.72964
 C1130 C 0.11916 0.59327 0.75780
 N1131 N 0.10570 0.61675 0.76736
 C1132 C 0.08730 0.63150 0.75025
 C1133 C 0.08105 0.62167 0.72278
 N1134 N 0.09548 0.59868 0.71294
 N1135 N 0.12889 0.56153 0.71987
 C1136 C 0.14662 0.54631 0.73724
 C1137 C 0.14953 0.55396 0.76590
 N1138 N 0.13586 0.57746 0.77543
 H1139 H 0.07660 0.65004 0.75839
 H1140 H 0.15698 0.52757 0.72917
 C1141 C 0.07609 0.41723 0.24034
 C1142 C 0.10568 0.41015 0.23535
 N1143 N 0.11647 0.38586 0.24579
 C1144 C 0.09906 0.36846 0.26121
 C1145 C 0.06961 0.37599 0.26712
 N1146 N 0.05903 0.40028 0.25629
 N1147 N 0.06469 0.44071 0.22882
 C1148 C 0.08162 0.45760 0.21254
 C1149 C 0.11148 0.45106 0.20810
 N1150 N 0.12292 0.42744 0.21970
 H1151 H 0.10806 0.34892 0.26859
 H1152 H 0.07204 0.47630 0.20366
   
