data_POSCAR
  _audit_creation_date              2014-09-24
  _audit_creation_method            'ToBaCCo'
  _symmetry_space_group_name_H-M    'P1'
  _symmetry_Int_Tables_number       1
  _symmetry_cell_setting            triclinic
  loop_
  _symmetry_equiv_pos_as_xyz
 x,y,z
_cell_length_a 41.1975
_cell_length_b 40.8602
_cell_length_c 41.3278
_cell_angle_alpha 90.043900
_cell_angle_beta 90.091900
_cell_angle_gamma 88.684700
loop_
  _atom_site_label
  _atom_site_type_symbol
  _atom_site_fract_x
  _atom_site_fract_y
  _atom_site_fract_z
C1 C 0.33959 0.37239 1.36975
 N2 N 0.35435 0.34503 1.38234
 C3 C 0.38194 0.33213 1.36867
 N4 N 0.39447 0.34691 1.34212
 C5 C 0.38006 0.37414 1.32935
 N6 N 0.35276 0.38660 1.34331
 C7 C 1.16590 0.63036 0.87693
 N8 N 1.15212 0.61937 0.84920
 C9 C 1.12524 0.63430 0.83660
 N10 N 1.11196 0.66066 0.85205
 C11 C 1.12522 0.67218 0.87986
 N12 N 1.15228 0.65687 0.89210
 C13 C 0.66433 -0.13720 0.12749
 N14 N 0.65079 -0.16417 0.11445
 C15 C 0.62518 -0.17878 0.12859
 N16 N 0.61285 -0.16582 0.15643
 C17 C 0.62591 -0.13869 0.16997
 N18 N 0.65170 -0.12458 0.15538
 C19 C -0.16832 1.13918 -0.37427
 N20 N -0.15390 1.16589 -0.38672
 C21 C -0.12793 1.17936 -0.37197
 N22 N -0.11638 1.16560 -0.34419
 C23 C -0.13045 1.13882 -0.33122
 N24 N -0.15650 1.12574 -0.34639
 C25 C 0.66482 0.61447 0.62179
 N26 N 0.65020 0.64146 0.60862
 C27 C 0.61982 0.65120 0.61789
 N28 N 0.60435 0.63375 0.64095
 C29 C 0.61897 0.60722 0.65494
 N30 N 0.64918 0.59764 0.64517
 C31 C 0.83701 0.38968 0.12533
 N32 N 0.84944 0.35976 0.11688
 C33 C 0.87356 0.34504 0.13439
 N34 N 0.88512 0.36057 0.16089
 C35 C 0.87345 0.39066 0.16947
 N36 N 0.84948 0.40520 0.15157
 C37 C 0.32203 0.12099 0.87453
 N38 N 0.33359 0.10751 0.84669
 C39 C 0.35940 0.12040 0.83127
 N40 N 0.37376 0.14715 0.84398
 C41 C 0.36247 0.16095 0.87186
 N42 N 0.33652 0.14779 0.88698
 C43 C 0.17663 0.87603 0.37013
 N44 N 0.16443 0.88817 0.34195
 C45 C 0.13885 0.87409 0.32712
 N46 N 0.12520 0.84745 0.34078
 C47 C 0.13698 0.83493 0.36913
 N48 N 0.16271 0.84941 0.38348
 Zn49 Zn 0.02734 0.98464 0.01087
 Zn50 Zn -0.00500 1.04343 -0.01783
 Zn51 Zn -0.03869 0.97946 -0.01999
 Zn52 Zn -0.03038 1.01503 0.04293
 O53 O -0.01175 1.00551 0.00393
 O54 O 0.06127 1.00675 -0.00446
 O55 O -0.02435 1.04445 -0.05641
 O56 O -0.01956 0.94065 -0.02992
 O57 O 0.03695 1.05081 -0.02504
 O58 O 0.02913 0.94537 -0.00782
 O59 O -0.05039 0.99777 -0.05824
 O60 O -0.06932 0.99768 0.04684
 O61 O -0.02015 1.07863 0.00316
 O62 O -0.07599 0.97058 0.00104
 O63 O -0.03685 1.05801 0.04953
 O64 O -0.00755 0.99939 0.07663
 O65 O 0.03559 0.97708 0.05287
 C66 C 0.06257 1.03421 -0.01870
 C67 C -0.04273 1.02481 -0.07106
 C68 C 0.00873 0.92909 -0.02385
 C69 C -0.08624 0.97969 0.02873
 C70 C -0.03259 1.08228 0.03100
 C71 C 0.01933 0.98367 0.07821
 Zn72 Zn 0.49828 -0.04255 0.48265
 Zn73 Zn 0.52959 0.02324 0.47866
 Zn74 Zn 0.46539 0.01538 0.51234
 Zn75 Zn 0.52547 -0.01255 0.54181
 O76 O 0.50477 -0.00400 0.50372
 O77 O 0.51690 -0.04337 0.44371
 O78 O 0.50845 0.06156 0.46951
 O79 O 0.43175 -0.00719 0.49725
 O80 O 0.54044 0.00469 0.44019
 O81 O 0.45638 -0.05077 0.47605
 O82 O 0.46166 0.05486 0.49467
 O83 O 0.50325 0.00130 0.57660
 O84 O 0.56757 0.03380 0.49821
 O85 O 0.45817 0.02157 0.55470
 O86 O 0.56327 0.00680 0.54427
 O87 O 0.53493 -0.05497 0.54776
 O88 O 0.51451 -0.07745 0.50376
 C89 C 0.53383 -0.02310 0.42818
 C90 C 0.48027 0.07208 0.47759
 C91 C 0.43067 -0.03452 0.48274
 C92 C 0.47562 0.01535 0.57937
 C93 C 0.57899 0.02522 0.52565
 C94 C 0.52957 -0.07990 0.53046
 Zn95 Zn 1.00246 0.54658 0.51961
 Zn96 Zn 1.02814 0.51099 0.46174
 Zn97 Zn 1.03509 0.48060 0.52753
 Zn98 Zn 0.97024 0.48647 0.49630
 O99 O 1.00906 0.50619 0.50131
 O100 O 1.01722 0.57933 0.49510
 O101 O 1.06676 0.48994 0.45937
 O102 O 1.04663 0.50147 0.56373
 O103 O 1.03547 0.55284 0.45187
 O104 O 1.02230 0.54997 0.55789
 O105 O 1.07200 0.46770 0.50798
 O106 O 0.96821 0.44842 0.51701
 O107 O 1.00401 0.49565 0.42913
 O108 O 1.01616 0.44360 0.54065
 O109 O 0.96127 0.47728 0.45519
 O110 O 0.93690 0.51072 0.51101
 O111 O 0.96037 0.55597 0.52740
 C112 C 1.03032 0.57931 0.46730
 C113 C 1.08283 0.47274 0.47971
 C114 C 1.03986 0.53005 0.57419
 C115 C 0.98822 0.43257 0.53467
 C116 C 0.97667 0.48195 0.42914
 C117 C 0.93515 0.53912 0.52341
 Zn118 Zn 0.47841 0.48711 0.95417
 Zn119 Zn 0.53741 0.51409 0.98505
 Zn120 Zn 0.47487 0.51527 1.02106
 Zn121 Zn 0.51036 0.45156 1.00876
 O122 O 0.50020 0.49201 0.99230
 O123 O 0.49982 0.50308 0.92016
 O124 O 0.53844 0.55252 1.00576
 O125 O 0.43607 0.52698 1.00440
 O126 O 0.54391 0.52244 0.94319
 O127 O 0.43939 0.50712 0.95465
 O128 O 0.49279 0.55288 1.03375
 O129 O 0.49399 0.44612 1.04818
 O130 O 0.57280 0.49192 0.99814
 O131 O 0.46727 0.49275 1.05746
 O132 O 0.55326 0.44438 1.01335
 O133 O 0.49483 0.41860 0.98498
 O134 O 0.47106 0.44516 0.94449
 C135 C 0.52708 0.51679 0.91814
 C136 C 0.51909 0.56626 1.02571
 C137 C 0.42389 0.52275 0.97650
 C138 C 0.47662 0.46431 1.06641
 C139 C 0.57700 0.46319 1.00921
 C140 C 0.47857 0.41860 0.95886
 C141 C 1.29550 0.41338 0.36861
 C142 C 1.26630 0.42621 0.38058
 C143 C 1.25144 0.41202 0.40723
 C144 C 1.26632 0.38468 0.42222
 C145 C 1.29566 0.37155 0.41016
 C146 C 1.31062 0.38564 0.38297
 N147 N 1.22101 0.42574 0.41783
 N148 N 1.20606 0.41605 0.44284
 C149 C 1.17532 0.43050 0.45183
 C150 C 1.16097 0.42158 0.48109
 C151 C 1.13099 0.43541 0.49034
 C152 C 1.11472 0.45825 0.47022
 C153 C 1.12916 0.46703 0.44079
 C154 C 1.15918 0.45339 0.43172
 H155 H 1.30592 0.42523 0.34775
 H156 H 1.25503 0.44729 0.36887
 H157 H 1.25514 0.37330 0.44292
 H158 H 1.30640 0.35028 0.42201
 H159 H 1.17309 0.40394 0.49679
 H160 H 1.12047 0.42805 0.51313
 H161 H 1.11732 0.48455 0.42476
 H162 H 1.16966 0.46067 0.40891
 C163 C 0.20871 0.58816 0.87236
 C164 C 0.23763 0.57363 0.88331
 C165 C 0.25289 0.58521 0.91108
 C166 C 0.23865 0.61147 0.92830
 C167 C 0.20965 0.62624 0.91735
 C168 C 0.19437 0.61498 0.88898
 N169 N 0.28327 0.57041 0.92044
 N170 N 0.29857 0.57842 0.94591
 C171 C 0.32945 0.56357 0.95372
 C172 C 0.34458 0.57146 0.98296
 C173 C 0.37512 0.55791 0.99069
 C174 C 0.39113 0.53640 0.96906
 C175 C 0.37573 0.52840 0.93982
 C176 C 0.34519 0.54177 0.93225
 H177 H 0.19793 0.57850 0.85054
 H178 H 0.24843 0.55339 0.86987
 H179 H 0.25011 0.62085 0.94988
 H180 H 0.19950 0.64668 0.93096
 H181 H 0.33274 0.58827 0.99969
 H182 H 0.38637 0.56460 1.01338
 H183 H 0.38733 0.51186 0.92267
 H184 H 0.33407 0.53530 0.90944
 C185 C -0.29599 0.86335 0.08343
 C186 C -0.26849 0.87623 0.06894
 C187 C -0.25276 0.90261 0.08295
 C188 C -0.26525 0.91655 0.11160
 C189 C -0.29292 0.90381 0.12616
 C190 C -0.30855 0.87674 0.11247
 N191 N -0.22378 0.91412 0.06805
 N192 N -0.20730 0.93698 0.08032
 C193 C -0.17787 0.94804 0.06596
 C194 C -0.16036 0.97198 0.08206
 C195 C -0.13085 0.98243 0.06970
 C196 C -0.11826 0.96918 0.04073
 C197 C -0.13621 0.94553 0.02419
 C198 C -0.16576 0.93495 0.03675
 H199 H -0.30715 0.84266 0.07183
 H200 H -0.25913 0.86530 0.04686
 H201 H -0.25350 0.93706 0.12288
 H202 H -0.30170 0.91497 0.14836
 H203 H -0.16942 0.98226 0.10455
 H204 H -0.11779 1.00079 0.08302
 H205 H -0.12719 0.93486 0.00186
 H206 H -0.17893 0.91639 0.02382
 C207 C 0.79135 0.13959 0.58013
 C208 C 0.76352 0.12786 0.56509
 C209 C 0.74656 0.10210 0.57877
 C210 C 0.75810 0.08777 0.60767
 C211 C 0.78598 0.09945 0.62276
 C212 C 0.80281 0.12570 0.60930
 N213 N 0.71739 0.09149 0.56340
 N214 N 0.70069 0.06868 0.57536
 C215 C 0.67104 0.05783 0.56126
 C216 C 0.65431 0.03331 0.57717
 C217 C 0.62472 0.02269 0.56526
 C218 C 0.61111 0.03637 0.53692
 C219 C 0.62821 0.06070 0.52049
 C220 C 0.65799 0.07146 0.53264
 H221 H 0.80368 0.15978 0.56897
 H222 H 0.75493 0.13912 0.54286
 H223 H 0.74543 0.06776 0.61877
 H224 H 0.79410 0.08816 0.64514
 H225 H 0.66413 0.02262 0.59918
 H226 H 0.61242 0.00377 0.57848
 H227 H 0.61838 0.07168 0.49864
 H228 H 0.67058 0.09051 0.51992
 C229 C 0.42569 0.29049 0.36683
 C230 C 0.44025 0.26158 0.37839
 C231 C 0.42667 0.24484 0.40431
 C232 C 0.39840 0.25770 0.41906
 C233 C 0.38381 0.28675 0.40766
 C234 C 0.39705 0.30348 0.38111
 N235 N 0.44159 0.21455 0.41465
 N236 N 0.42928 0.19722 0.43683
 C237 C 0.44341 0.16658 0.44709
 C238 C 0.42693 0.14841 0.47018
 C239 C 0.43912 0.11791 0.48012
 C240 C 0.46831 0.10496 0.46723
 C241 C 0.48521 0.12349 0.44436
 C242 C 0.47279 0.15407 0.43426
 H243 H 0.43692 0.30244 0.34647
 H244 H 0.46203 0.25195 0.36683
 H245 H 0.38745 0.24522 0.43924
 H246 H 0.36193 0.29578 0.41948
 H247 H 0.40432 0.15779 0.48025
 H248 H 0.42553 0.10444 0.49790
 H249 H 0.50772 0.11421 0.43400
 H250 H 0.48599 0.16776 0.41636
 C251 C 0.87315 0.22225 0.58680
 C252 C 0.88617 0.25083 0.57439
 C253 C 0.91249 0.26539 0.58955
 C254 C 0.92607 0.25084 0.61737
 C255 C 0.91299 0.22221 0.63002
 C256 C 0.88612 0.20758 0.61502
 N257 N 0.92412 0.29535 0.57651
 N258 N 0.94883 0.30988 0.58747
 C259 C 0.95879 0.34033 0.57387
 C260 C 0.98763 0.35438 0.58447
 C261 C 0.99753 0.38429 0.57166
 C262 C 0.97847 0.40072 0.54823
 C263 C 0.94954 0.38649 0.53773
 C264 C 0.93985 0.35661 0.55031
 H265 H 0.85260 0.21198 0.57431
 H266 H 0.87552 0.26188 0.55293
 H267 H 0.94645 0.26177 0.62952
 H268 H 0.92382 0.21180 0.65169
 H269 H 1.00243 0.34214 0.60266
 H270 H 1.01991 0.39466 0.58028
 H271 H 0.93432 0.39840 0.51965
 H272 H 0.91741 0.34639 0.54173
 C273 C 0.12612 0.71358 -0.07714
 C274 C 0.11338 0.74225 -0.06313
 C275 C 0.08590 0.75795 -0.07628
 C276 C 0.07084 0.74442 -0.10351
 C277 C 0.08358 0.71589 -0.11770
 C278 C 0.11165 0.70015 -0.10495
 N279 N 0.07453 0.78817 -0.06233
 N280 N 0.04895 0.80311 -0.07224
 C281 C 0.03855 0.83399 -0.05895
 C282 C 0.00920 0.84837 -0.06941
 C283 C -0.00090 0.87911 -0.05774
 C284 C 0.01847 0.89606 -0.03558
 C285 C 0.04780 0.88136 -0.02494
 C286 C 0.05771 0.85061 -0.03643
 H287 H 0.14764 0.70235 -0.06641
 H288 H 0.12520 0.75250 -0.04213
 H289 H 0.04956 0.75615 -0.11414
 H290 H 0.07148 0.70646 -0.13893
 H291 H -0.00574 0.83582 -0.08683
 H292 H -0.02358 0.88979 -0.06641
 H293 H 0.06323 0.89367 -0.00778
 H294 H 0.08054 0.84007 -0.02802
 C295 C 0.62609 0.77940 1.08620
 C296 C 0.61431 0.75072 1.07270
 C297 C 0.58850 0.73464 1.08700
 C298 C 0.57418 0.74776 1.11514
 C299 C 0.58600 0.77656 1.12888
 C300 C 0.61233 0.79274 1.11469
 N301 N 0.57808 0.70474 1.07264
 N302 N 0.55414 0.68863 1.08297
 C303 C 0.54522 0.65843 1.06799
 C304 C 0.51770 0.64226 1.07886
 C305 C 0.50888 0.61248 1.06495
 C306 C 0.52767 0.59824 1.04000
 C307 C 0.55520 0.61465 1.02908
 C308 C 0.56386 0.64443 1.04285
 H309 H 0.64628 0.79084 1.07427
 H310 H 0.62554 0.74081 1.05101
 H311 H 0.55415 0.73565 1.12664
 H312 H 0.57461 0.78591 1.15072
 H313 H 0.50313 0.65272 1.09822
 H314 H 0.48757 0.60044 1.07396
 H315 H 0.57019 0.60444 1.00989
 H316 H 0.58529 0.65635 1.03399
 C317 C 0.37990 0.41947 1.28859
 C318 C 0.39049 0.43293 1.25953
 C319 C 0.41399 0.41653 1.24090
 C320 C 0.42760 0.38675 1.25209
 C321 C 0.41719 0.37333 1.28128
 C322 C 0.39288 0.38932 1.29963
 N323 N 0.42288 0.43010 1.21035
 N324 N 0.44217 0.41510 1.19112
 C325 C 0.45065 0.42823 1.16028
 C326 C 0.47099 0.40965 1.14001
 C327 C 0.47931 0.42134 1.10949
 C328 C 0.46745 0.45201 1.09871
 C329 C 0.44709 0.47073 1.11920
 C330 C 0.43870 0.45892 1.14974
 H331 H 0.36127 0.43254 1.30219
 H332 H 0.37990 0.45591 1.25117
 H333 H 0.44593 0.37367 1.23812
 H334 H 0.42768 0.35010 1.28907
 H335 H 0.48029 0.38596 1.14788
 H336 H 0.49511 0.40633 1.09437
 H337 H 0.43758 0.49445 1.11163
 H338 H 0.42288 0.47372 1.16502
 C339 C 0.58733 -0.14095 0.21689
 C340 C 0.57505 -0.12857 0.24606
 C341 C 0.58744 -0.10007 0.25963
 C342 C 0.61239 -0.08383 0.24351
 C343 C 0.62482 -0.09624 0.21431
 C344 C 0.61249 -0.12504 0.20067
 N345 N 0.57454 -0.08873 0.28995
 N346 N 0.58349 -0.06256 0.30379
 C347 C 0.57031 -0.05247 0.33449
 C348 C 0.58000 -0.02295 0.34839
 C349 C 0.56795 -0.01299 0.37866
 C350 C 0.54608 -0.03260 0.39562
 C351 C 0.53628 -0.06209 0.38140
 C352 C 0.54819 -0.07190 0.35120
 H353 H 0.57722 -0.16315 0.20722
 H354 H 0.55585 -0.14135 0.25826
 H355 H 0.62240 -0.06176 0.25356
 H356 H 0.64415 -0.08331 0.20251
 H357 H 0.59705 -0.00771 0.33582
 H358 H 0.57602 0.00982 0.38892
 H359 H 0.51943 -0.07780 0.39366
 H360 H 0.54027 -0.09483 0.34109
 C361 C -0.09181 1.13943 -0.28429
 C362 C -0.08026 1.12693 -0.25492
 C363 C -0.09425 1.09948 -0.24098
 C364 C -0.12005 1.08435 -0.25695
 C365 C -0.13175 1.09690 -0.28643
 C366 C -0.11783 1.12471 -0.30040
 N367 N -0.08200 1.08818 -0.21039
 N368 N -0.09234 1.06300 -0.19587
 C369 C -0.07944 1.05326 -0.16494
 C370 C -0.09032 1.02468 -0.15014
 C371 C -0.07832 1.01507 -0.11973
 C372 C -0.05530 1.03409 -0.10355
 C373 C -0.04441 1.06268 -0.11861
 C374 C -0.05627 1.07213 -0.14893
 H375 H -0.08044 1.16084 -0.29419
 H376 H -0.06039 1.13882 -0.24281
 H377 H -0.13127 1.06309 -0.24658
 H378 H -0.15179 1.08493 -0.29815
 H379 H -0.10819 1.00989 -0.16216
 H380 H -0.08723 0.99294 -0.10879
 H381 H -0.02667 1.07790 -0.10695
 H382 H -0.04742 1.09434 -0.15971
 C383 C 1.08603 0.64036 0.79033
 C384 C 1.07421 0.63023 0.76032
 C385 C 1.08743 0.60238 0.74516
 C386 C 1.11248 0.58438 0.76052
 C387 C 1.12441 0.59451 0.79045
 C388 C 1.11149 0.62276 0.80561
 N389 N 1.07548 0.59327 0.71398
 N390 N 1.08597 0.56780 0.69926
 C391 C 1.07437 0.55897 0.66787
 C392 C 1.08516 0.52941 0.65409
 C393 C 1.07413 0.51999 0.62355
 C394 C 1.05222 0.54024 0.60619
 C395 C 1.04169 0.57010 0.61999
 C396 C 1.05259 0.57936 0.65059
 H397 H 1.07554 0.66223 0.80128
 H398 H 1.05488 0.64428 0.74869
 H399 H 1.12308 0.56273 0.74928
 H400 H 1.14395 0.58032 0.80154
 H401 H 1.10202 0.51356 0.66716
 H402 H 1.08273 0.49687 0.61358
 H403 H 1.02478 0.58622 0.60729
 H404 H 1.04400 0.60242 0.66070
 C405 C 0.70879 0.57145 0.61701
 C406 C 0.73935 0.56088 0.60612
 C407 C 0.75941 0.58231 0.58954
 C408 C 0.74851 0.61460 0.58369
 C409 C 0.71771 0.62508 0.59413
 C410 C 0.69754 0.60361 0.61095
 N411 N 0.79037 0.57043 0.57841
 N412 N 0.81201 0.58927 0.56761
 C413 C 0.84251 0.57654 0.55599
 C414 C 0.86810 0.59789 0.55095
 C415 C 0.89834 0.58588 0.54032
 C416 C 0.90316 0.55231 0.53397
 C417 C 0.87719 0.53106 0.53845
 C418 C 0.84722 0.54301 0.54955
 H419 H 0.69379 0.55426 0.62972
 H420 H 0.74749 0.53592 0.61065
 H421 H 0.76358 0.63154 0.57075
 H422 H 0.70976 0.65003 0.58918
 H423 H 0.86473 0.62381 0.55572
 H424 H 0.91788 0.60283 0.53698
 H425 H 0.88017 0.50506 0.53387
 H426 H 0.82773 0.52604 0.55303
 C427 C 0.79731 0.43444 1.11630
 C428 C 0.76908 0.44647 1.10118
 C429 C 0.75296 0.42744 1.07837
 C430 C 0.76627 0.39686 1.06945
 C431 C 0.79479 0.38503 1.08399
 C432 C 0.81029 0.40323 1.10834
 N433 N 0.72251 0.43902 1.06558
 N434 N 0.70296 0.41983 1.05170
 C435 C 0.67222 0.43106 1.03933
 C436 C 0.64859 0.40811 1.03203
 C437 C 0.61762 0.41841 1.02190
 C438 C 0.61011 0.45193 1.01825
 C439 C 0.63425 0.47486 1.02457
 C440 C 0.66498 0.46455 1.03529
 H441 H 0.80856 0.44945 1.13459
 H442 H 0.75911 0.47020 1.10809
 H443 H 0.75440 0.38190 1.05154
 H444 H 0.80393 0.36104 1.07682
 H445 H 0.65396 0.38222 1.03501
 H446 H 0.59953 0.40021 1.01706
 H447 H 0.62913 0.50086 1.02208
 H448 H 0.68295 0.48271 1.04062
 C449 C 0.28532 1.07422 -0.11507
 C450 C 0.25738 1.06132 -0.10139
 C451 C 0.23660 1.08106 -0.08262
 C452 C 0.24468 1.11377 -0.07665
 C453 C 0.27301 1.12655 -0.08978
 C454 C 0.29332 1.10703 -0.10958
 N455 N 0.20712 1.06759 -0.07073
 N456 N 0.18397 1.08559 -0.05990
 C457 C 0.15427 1.07223 -0.04844
 C458 C 0.12737 1.09322 -0.04398
 C459 C 0.09757 1.08085 -0.03431
 C460 C 0.09437 1.04721 -0.02828
 C461 C 0.12165 1.02624 -0.03195
 C462 C 0.15132 1.03859 -0.04224
 H463 H 0.30062 1.05852 -0.13003
 H464 H 0.25146 1.03607 -0.10610
 H465 H 0.22906 1.12944 -0.06202
 H466 H 0.27852 1.15192 -0.08520
 H467 H 0.12935 1.11918 -0.04863
 H468 H 0.07705 1.09764 -0.03146
 H469 H 0.11988 1.00023 -0.02751
 H470 H 0.17187 1.02191 -0.04538
 C471 C 0.21644 -0.08040 0.37251
 C472 C 0.24404 -0.06683 0.38630
 C473 C 0.26013 -0.08256 0.41190
 C474 C 0.24761 -0.11153 0.42455
 C475 C 0.21951 -0.12476 0.41138
 C476 C 0.20381 -0.10973 0.38471
 N477 N 0.28946 -0.06905 0.42411
 N478 N 0.31004 -0.08621 0.44009
 C479 C 0.33949 -0.07276 0.45209
 C480 C 0.36546 -0.09398 0.45986
 C481 C 0.39515 -0.08155 0.46987
 C482 C 0.39899 -0.04763 0.47314
 C483 C 0.37255 -0.02638 0.46638
 C484 C 0.34311 -0.03882 0.45555
 H485 H 0.20508 -0.06779 0.35226
 H486 H 0.25343 -0.04440 0.37644
 H487 H 0.25956 -0.12393 0.44458
 H488 H 0.21067 -0.14725 0.42164
 H489 H 0.36291 -0.12018 0.45735
 H490 H 0.41510 -0.09845 0.47515
 H491 H 0.37493 -0.00013 0.46865
 H492 H 0.32323 -0.02199 0.44989
 C493 C 0.57246 -0.31197 0.61182
 C494 C 0.55843 -0.28278 0.60030
 C495 C 0.57697 -0.26081 0.58273
 C496 C 0.60935 -0.26901 0.57525
 C497 C 0.62318 -0.29866 0.58579
 C498 C 0.60518 -0.32025 0.60497
 N499 N 0.56280 -0.22999 0.57339
 N500 N 0.58015 -0.20485 0.57020
 C501 C 0.56666 -0.17387 0.56042
 C502 C 0.58324 -0.14546 0.56831
 C503 C 0.57068 -0.11479 0.55926
 C504 C 0.54180 -0.11223 0.54125
 C505 C 0.52539 -0.14080 0.53292
 C506 C 0.53751 -0.17144 0.54282
 H507 H 0.55756 -0.32797 0.62612
 H508 H 0.53336 -0.27674 0.60602
 H509 H 0.62393 -0.25244 0.56130
 H510 H 0.64833 -0.30401 0.57980
 H511 H 0.60578 -0.14712 0.58179
 H512 H 0.58391 -0.09312 0.56569
 H513 H 0.50310 -0.13938 0.51900
 H514 H 0.52449 -0.19319 0.53628
 C515 C 1.13370 0.79604 0.41403
 C516 C 1.12072 0.76809 0.42791
 C517 C 1.09774 0.74995 0.41123
 C518 C 1.08701 0.76064 0.38065
 C519 C 1.09938 0.78911 0.36696
 C520 C 1.12332 0.80703 0.38325
 N521 N 1.08606 0.72068 0.42578
 N522 N 1.07165 0.69883 0.40958
 C523 C 1.06025 0.66959 0.42447
 C524 C 1.05304 0.64272 0.40495
 C525 C 1.04334 0.61333 0.41886
 C526 C 1.03992 0.61063 0.45259
 C527 C 1.04630 0.63794 0.47210
 C528 C 1.05670 0.66709 0.45820
 H529 H 1.15183 0.80906 0.42764
 H530 H 1.12909 0.76013 0.45154
 H531 H 1.06902 0.74708 0.36743
 H532 H 1.09061 0.79660 0.34332
 H533 H 1.05561 0.64436 0.37893
 H534 H 1.03838 0.59276 0.40322
 H535 H 1.04392 0.63653 0.49816
 H536 H 1.06194 0.68763 0.47377
 C537 C -0.09128 1.29717 0.14540
 C538 C -0.07909 1.26625 0.13658
 C539 C -0.08860 1.25190 0.10749
 C540 C -0.11104 1.26847 0.08744
 C541 C -0.12382 1.29905 0.09647
 C542 C -0.11395 1.31402 0.12550
 N543 N -0.07542 1.22042 0.09887
 N544 N -0.07689 1.20984 0.06997
 C545 C -0.06477 1.17807 0.06103
 C546 C -0.06044 1.17094 0.02822
 C547 C -0.04926 1.13998 0.01853
 C548 C -0.04291 1.11538 0.04160
 C549 C -0.04739 1.12253 0.07457
 C550 C -0.05798 1.15377 0.08427
 H551 H -0.08310 1.30760 0.16800
 H552 H -0.06188 1.25360 0.15227
 H553 H -0.11895 1.25764 0.06493
 H554 H -0.14116 1.31102 0.08040
 H555 H -0.06573 1.18948 0.01014
 H556 H -0.04626 1.13508 -0.00706
 H557 H -0.04265 1.10401 0.09282
 H558 H -0.06140 1.15875 0.10978
 C559 C 0.37390 0.19885 0.91808
 C560 C 0.38813 0.22690 0.93064
 C561 C 0.40598 0.24741 0.91063
 C562 C 0.41009 0.23913 0.87785
 C563 C 0.39638 0.21075 0.86538
 C564 C 0.37787 0.19045 0.88529
 N565 N 0.41937 0.27652 0.92406
 N566 N 0.43006 0.29935 0.90634
 C567 C 0.44344 0.32847 0.91975
 C568 C 0.44726 0.35572 0.89974
 C569 C 0.45890 0.38498 0.91236
 C570 C 0.46762 0.38722 0.94518
 C571 C 0.46467 0.35952 0.96504
 C572 C 0.45240 0.33046 0.95252
 H573 H 0.35995 0.18362 0.93408
 H574 H 0.38484 0.23297 0.95596
 H575 H 0.42395 0.25452 0.86194
 H576 H 0.39982 0.20500 0.84001
 H577 H 0.44054 0.35446 0.87444
 H578 H 0.46104 0.40587 0.89645
 H579 H 0.47109 0.36056 0.99044
 H580 H 0.44986 0.30963 0.96841
 C581 C 0.56988 0.59518 0.68822
 C582 C 0.55587 0.58293 0.71638
 C583 C 0.57515 0.56693 0.73962
 C584 C 0.60842 0.56164 0.73362
 C585 C 0.62235 0.57334 0.70523
 C586 C 0.60339 0.59099 0.68264
 N587 N 0.56087 0.55773 0.76973
 N588 N 0.57833 0.55084 0.79432
 C589 C 0.56480 0.54210 0.82488
 C590 C 0.58524 0.54044 0.85188
 C591 C 0.57288 0.53267 0.88227
 C592 C 0.53979 0.52591 0.88605
 C593 C 0.51931 0.52728 0.85880
 C594 C 0.53166 0.53555 0.82845
 H595 H 0.55463 0.60852 0.67115
 H596 H 0.53017 0.58702 0.72068
 H597 H 0.62376 0.54905 0.75113
 H598 H 0.64823 0.56976 0.70167
 H599 H 0.61081 0.54545 0.84937
 H600 H 0.58932 0.53156 0.90273
 H601 H 0.49372 0.52218 0.86099
 H602 H 0.51542 0.53665 0.80784
 C603 C 0.35039 0.08679 0.78156
 C604 C 0.36116 0.07332 0.75230
 C605 C 0.39297 0.07793 0.74181
 C606 C 0.41398 0.09665 0.76080
 C607 C 0.40304 0.11070 0.78982
 C608 C 0.37116 0.10578 0.80056
 N609 N 0.40305 0.06402 0.71154
 N610 N 0.43280 0.06149 0.70345
 C611 C 0.44268 0.04856 0.67268
 C612 C 0.47546 0.04052 0.66760
 C613 C 0.48603 0.02880 0.63753
 C614 C 0.46398 0.02552 0.61179
 C615 C 0.43101 0.03348 0.61699
 C616 C 0.42039 0.04467 0.64725
 H617 H 0.32564 0.08274 0.78907
 H618 H 0.34471 0.05909 0.73780
 H619 H 0.43863 0.10075 0.75302
 H620 H 0.41960 0.12515 0.80397
 H621 H 0.49287 0.04349 0.68698
 H622 H 0.51161 0.02309 0.63421
 H623 H 0.41347 0.03120 0.59762
 H624 H 0.39493 0.05089 0.65056
 C625 C 0.14753 0.90523 0.27599
 C626 C 0.13634 0.91830 0.24672
 C627 C 0.10406 0.91459 0.23723
 C628 C 0.08305 0.89690 0.25711
 C629 C 0.09442 0.88317 0.28616
 C630 C 0.12671 0.88750 0.29602
 N631 N 0.09345 0.92876 0.20724
 N632 N 0.06356 0.93281 0.20016
 C633 C 0.05331 0.94645 0.16978
 C634 C 0.02084 0.95644 0.16582
 C635 C 0.00999 0.96940 0.13632
 C636 C 0.03140 0.97201 0.11002
 C637 C 0.06403 0.96199 0.11406
 C638 C 0.07497 0.94955 0.14376
 H639 H 0.17260 0.90876 0.28281
 H640 H 0.15279 0.93173 0.23153
 H641 H 0.05803 0.89352 0.25009
 H642 H 0.07785 0.86967 0.30115
 H643 H 0.00391 0.95413 0.18566
 H644 H -0.01534 0.97667 0.13388
 H645 H 0.08107 0.96368 0.09424
 H646 H 0.10017 0.94186 0.14620
 C647 C 0.88531 0.44070 0.20230
 C648 C 0.89751 0.45518 0.23040
 C649 C 0.90950 0.43565 0.25575
 C650 C 0.90989 0.40143 0.25247
 C651 C 0.89847 0.38701 0.22423
 C652 C 0.88586 0.40646 0.19896
 N653 N 0.92130 0.45068 0.28462
 N654 N 0.92294 0.43467 0.31098
 C655 C 0.93582 0.44791 0.34018
 C656 C 0.92840 0.43278 0.36947
 C657 C 0.94126 0.44429 0.39844
 C658 C 0.96253 0.47067 0.39842
 C659 C 0.97025 0.48572 0.36893
 C660 C 0.95667 0.47464 0.33997
 H661 H 0.87586 0.45621 0.18307
 H662 H 0.89719 0.48160 0.23262
 H663 H 0.91932 0.38585 0.27164
 H664 H 0.89908 0.36056 0.22238
 H665 H 0.91252 0.41202 0.36981
 H666 H 0.93510 0.43212 0.42081
 H667 H 0.98655 0.50613 0.36834
 H668 H 0.96295 0.48643 0.31746
   
