data_POSCAR
  _audit_creation_date              2014-09-24
  _audit_creation_method            'ToBaCCo'
  _symmetry_space_group_name_H-M    'P1'
  _symmetry_Int_Tables_number       1
  _symmetry_cell_setting            triclinic
  loop_
  _symmetry_equiv_pos_as_xyz
 x,y,z
_cell_length_a 40.5271
_cell_length_b 40.0187
_cell_length_c 39.3025
_cell_angle_alpha 90.240400
_cell_angle_beta 89.587600
_cell_angle_gamma 90.009500
loop_
  _atom_site_label
  _atom_site_type_symbol
  _atom_site_fract_x
  _atom_site_fract_y
  _atom_site_fract_z
C1 C 0.19954 0.17460 0.23359
 N2 N 0.18820 0.20205 0.21736
 C3 C 0.20450 0.21501 0.19031
 N4 N 0.23260 0.20009 0.17898
 C5 C 0.24470 0.17259 0.19501
 N6 N 0.22799 0.16008 0.22237
 C7 C -0.22466 0.79793 0.25496
 N8 N -0.24952 0.81348 0.23825
 C9 C -0.25936 0.80277 0.20700
 N10 N -0.24393 0.77599 0.19247
 C11 C -0.21877 0.76049 0.20872
 N12 N -0.20932 0.77167 0.23975
 C13 C -0.19018 0.21871 -0.24901
 N14 N -0.21595 0.20348 -0.23322
 C15 C -0.22613 0.21328 -0.20165
 N16 N -0.21014 0.23906 -0.18600
 C17 C -0.18460 0.25494 -0.20188
 N18 N -0.17473 0.24434 -0.23316
 C19 C 0.18680 0.78986 -0.25675
 N20 N 0.17438 0.76418 -0.23839
 C21 C 0.18785 0.75496 -0.20842
 N22 N 0.21417 0.77232 -0.19620
 C23 C 0.22740 0.79809 -0.21444
 N24 N 0.21359 0.80643 -0.24477
 C25 C 0.18961 1.21554 0.76521
 N26 N 0.22109 1.20482 0.76976
 C27 C 0.23959 1.21634 0.79592
 N28 N 0.22632 1.23904 0.81781
 C29 C 0.19513 1.25076 0.81350
 N30 N 0.17686 1.23874 0.78714
 C31 C 0.81482 0.78721 0.77598
 N32 N 0.78349 0.79731 0.78291
 C33 C 0.76461 0.78152 0.80644
 N34 N 0.77741 0.75525 0.82360
 C35 C 0.80885 0.74470 0.81747
 N36 N 0.82743 0.76086 0.79352
 C37 C 0.21920 0.81669 1.24277
 N38 N 0.21000 0.78479 1.23476
 C39 C 0.22365 0.76877 1.20743
 N40 N 0.24633 0.78496 1.18810
 C41 C 0.25556 0.81665 1.19541
 N42 N 0.24185 0.83242 1.22269
 C43 C 0.78954 1.18397 1.22467
 N44 N 0.76291 1.17219 1.20732
 C45 C 0.74870 1.19069 1.18253
 N46 N 0.76154 1.22096 1.17484
 C47 C 0.78802 1.23336 1.19159
 N48 N 0.80184 1.21476 1.21672
 O49 O 0.53042 0.96670 0.90454
 O50 O 0.47383 0.94955 1.00730
 O51 O 0.57995 0.98359 1.00064
 O52 O 0.43041 0.99566 0.93587
 O53 O 0.53475 0.95523 1.01290
 O54 O 0.46664 0.96856 0.90406
 O55 O 0.43384 0.98374 0.99554
 O56 O 0.54948 0.95615 0.95480
 C57 C 0.54732 0.94887 0.92402
 C58 C 0.44363 0.95493 1.00407
 C59 C 0.56522 0.96065 1.01931
 C60 C 0.43760 0.97251 0.91485
 O61 O 0.46900 1.03291 0.89976
 O62 O 0.52540 1.01746 1.03715
 O63 O 0.56899 1.01530 0.93923
 O64 O 0.46377 1.04662 1.00457
 O65 O 0.46564 1.00737 1.03902
 O66 O 0.53093 1.03258 0.90426
 O67 O 0.45673 1.05740 0.94680
 O68 O 0.54916 1.03903 0.99421
 Co69 Co 0.49933 1.00011 0.90906
 Co70 Co 0.49985 0.98428 1.01860
 Co71 Co 0.54597 0.99765 0.97494
 Co72 Co 0.45003 1.01949 0.97082
 O73 O 0.49747 1.00176 0.96521
 C74 C 0.45777 1.05780 0.91534
 C75 C 0.54230 1.04065 1.02485
 C76 C 0.56014 1.03327 0.91475
 C77 C 0.45882 1.03705 1.03373
 O78 O 0.04054 0.47372 0.09708
 O79 O 0.02206 0.53890 -0.03958
 O80 O 0.02712 0.43984 0.00328
 O81 O 0.06406 0.54483 0.05780
 O82 O 0.04439 0.48419 -0.02080
 O83 O 0.03772 0.53643 0.10347
 O84 O 0.05589 0.54282 -0.00022
 O85 O 0.01665 0.43567 0.06475
 C86 C 0.03821 0.44404 0.08662
 C87 C 0.04885 0.55025 -0.02983
 C88 C 0.04757 0.45386 -0.01581
 C89 C 0.06326 0.54603 0.08912
 O90 O -0.02529 0.53481 0.09725
 O91 O -0.01057 0.48183 -0.05144
 O92 O -0.04564 0.46006 0.05357
 O93 O -0.00707 0.56942 0.00717
 O94 O -0.03431 0.52689 -0.01291
 O95 O -0.02263 0.47158 0.10064
 O96 O 0.00217 0.57253 0.06811
 O97 O -0.03499 0.46497 -0.00550
 Co98 Co 0.00779 0.50425 0.09352
 Co99 Co 0.00480 0.50420 -0.01448
 Co100 Co -0.00752 0.45469 0.02963
 Co101 Co 0.02729 0.55357 0.03339
 O102 O 0.00931 0.50527 0.03745
 C103 C -0.02178 0.56440 0.08739
 C104 C -0.03081 0.46085 -0.03720
 C105 C -0.04612 0.45905 0.08495
 C106 C -0.03251 0.55776 -0.00732
 O107 O 1.03261 0.04723 0.47343
 O108 O 0.93290 0.03038 0.53600
 O109 O 0.95568 0.00560 0.43065
 O110 O 1.02266 0.01773 0.58231
 O111 O 0.92549 0.02754 0.47236
 O112 O 1.04029 0.04131 0.53522
 O113 O 0.98245 0.04678 0.54568
 O114 O 1.01568 0.01623 0.43112
 C115 C 1.02746 0.04348 0.44230
 C116 C 0.95231 0.05259 0.54618
 C117 C 0.93329 0.02554 0.44123
 C118 C 1.04361 0.03791 0.56732
 O119 O 1.05611 -0.02382 0.52415
 O120 O 0.92373 -0.03639 0.47504
 O121 O 1.02344 -0.04882 0.45630
 O122 O 0.96313 -0.00893 0.57356
 O123 O 0.93639 -0.03720 0.53663
 O124 O 1.05872 -0.01143 0.46233
 O125 O 1.01351 -0.03839 0.55310
 O126 O 0.96677 -0.05762 0.45138
 Co127 Co 1.04120 0.01131 0.49905
 Co128 Co 0.93520 -0.00377 0.50494
 Co129 Co 0.99083 -0.01957 0.44679
 Co130 Co 0.99815 0.00371 0.54707
 O131 O 0.98865 -0.00355 0.49770
 C132 C 1.04233 -0.04422 0.54374
 C133 C 0.93689 -0.05894 0.45778
 C134 C 1.05224 -0.04026 0.45308
 C135 C 0.94393 -0.03241 0.56690
 C136 C 1.19375 0.13452 0.28036
 C137 C 1.17499 0.12107 0.30701
 C138 C 1.14325 0.13315 0.31398
 C139 C 1.13072 0.15965 0.29485
 C140 C 1.14968 0.17378 0.26890
 C141 C 1.18133 0.16112 0.26086
 N142 N 1.12406 0.11810 0.34044
 N143 N 1.09268 0.11952 0.34079
 C144 C 1.07401 0.10466 0.36771
 C145 C 1.04341 0.09004 0.36062
 C146 C 1.02699 0.07135 0.38553
 C147 C 1.04051 0.06823 0.41815
 C148 C 1.06990 0.08518 0.42590
 C149 C 1.08677 0.10286 0.40072
 H150 H 1.21798 0.12416 0.27526
 H151 H 1.18491 0.10067 0.32179
 H152 H 1.10635 0.16957 0.30012
 H153 H 1.13903 0.19421 0.25471
 H154 H 1.03329 0.09147 0.33524
 H155 H 1.00439 0.05841 0.37903
 H156 H 1.08098 0.08292 0.45078
 H157 H 1.11020 0.11441 0.40672
 C158 C 0.77217 -0.16157 0.30188
 C159 C 0.78604 -0.14734 0.33101
 C160 C 0.81475 -0.16075 0.34497
 C161 C 0.82845 -0.18986 0.33076
 C162 C 0.81453 -0.20433 0.30189
 C163 C 0.78682 -0.18975 0.28629
 N164 N 0.83125 -0.14266 0.37131
 N165 N 0.86027 -0.15034 0.38064
 C166 C 0.87807 -0.13064 0.40476
 C167 C 0.91207 -0.13568 0.40786
 C168 C 0.93124 -0.11326 0.42657
 C169 C 0.91645 -0.08570 0.44287
 C170 C 0.88197 -0.08209 0.44171
 C171 C 0.86293 -0.10425 0.42260
 H172 H 0.75063 -0.14977 0.29106
 H173 H 0.77525 -0.12489 0.34182
 H174 H 0.85053 -0.20083 0.34129
 H175 H 0.82641 -0.22625 0.29117
 H176 H 0.92399 -0.15596 0.39419
 H177 H 0.95774 -0.11674 0.42717
 H178 H 0.86987 -0.06111 0.45404
 H179 H 0.83663 -0.09998 0.42070
 C180 C 0.80430 0.18292 0.69888
 C181 C 0.81812 0.16784 0.67000
 C182 C 0.85068 0.17482 0.66033
 C183 C 0.86885 0.19853 0.67877
 C184 C 0.85493 0.21400 0.70738
 C185 C 0.82282 0.20564 0.71829
 N186 N 0.86543 0.15539 0.63366
 N187 N 0.89625 0.15605 0.62721
 C188 C 0.91059 0.13423 0.60222
 C189 C 0.94490 0.12997 0.60131
 C190 C 0.95905 0.10455 0.58144
 C191 C 0.93890 0.08322 0.56211
 C192 C 0.90475 0.08924 0.56117
 C193 C 0.89070 0.11443 0.58109
 H194 H 0.77945 0.17615 0.70647
 H195 H 0.80391 0.14956 0.65594
 H196 H 0.89405 0.20437 0.67168
 H197 H 0.86986 0.23142 0.72175
 H198 H 0.96049 0.14511 0.61748
 H199 H 0.98545 0.10050 0.58262
 H200 H 0.88862 0.07345 0.54623
 H201 H 0.86416 0.11745 0.58106
 C202 C 1.14038 -0.21441 0.70402
 C203 C 1.12200 -0.20135 0.67731
 C204 C 1.13358 -0.17387 0.65906
 C205 C 1.16447 -0.16008 0.66706
 C206 C 1.18272 -0.17269 0.69420
 C207 C 1.17054 -0.19956 0.71366
 N208 N 1.11223 -0.15837 0.63499
 N209 N 1.12279 -0.13682 0.61389
 C210 C 1.10107 -0.11842 0.59243
 C211 C 1.11475 -0.09822 0.56711
 C212 C 1.09502 -0.07568 0.54952
 C213 C 1.06125 -0.07259 0.55745
 C214 C 1.04711 -0.09431 0.58147
 C215 C 1.06688 -0.11718 0.59879
 H216 H 1.13007 -0.23527 0.71798
 H217 H 1.09818 -0.21212 0.67141
 H218 H 1.17384 -0.13863 0.65334
 H219 H 1.20588 -0.16071 0.70044
 H220 H 1.14104 -0.09893 0.56204
 H221 H 1.10662 -0.05940 0.53102
 H222 H 1.02117 -0.09251 0.58804
 H223 H 1.05580 -0.13252 0.61841
 C224 C 0.28524 1.12711 1.19786
 C225 C 0.31289 1.11057 1.18450
 C226 C 0.32969 1.12341 1.15624
 C227 C 0.31885 1.15346 1.14174
 C228 C 0.29113 1.16991 1.15482
 C229 C 0.27358 1.15681 1.18286
 N230 N 0.35629 1.10461 1.14142
 N231 N 0.37311 1.11595 1.11656
 C232 C 0.39817 1.09692 1.09946
 C233 C 0.41421 1.11122 1.07150
 C234 C 0.43541 1.09214 1.05115
 C235 C 0.44100 1.05829 1.05855
 C236 C 0.42639 1.04441 1.08780
 C237 C 0.40499 1.06357 1.10810
 H238 H 0.27269 1.11612 1.21951
 H239 H 0.32092 1.08738 1.19585
 H240 H 0.33135 1.16388 1.11978
 H241 H 0.28330 1.19273 1.14254
 H242 H 0.40914 1.13688 1.06460
 H243 H 0.44641 1.10352 1.02883
 H244 H 0.43022 1.01836 1.09401
 H245 H 0.39285 1.05198 1.12966
 C246 C 0.26991 0.84088 0.77744
 C247 C 0.29569 0.86040 0.79000
 C248 C 0.30576 0.85731 0.82374
 C249 C 0.29053 0.83340 0.84468
 C250 C 0.26530 0.81301 0.83188
 C251 C 0.25415 0.81688 0.79818
 N252 N 0.33142 0.87882 0.83592
 N253 N 0.33529 0.88533 0.86737
 C254 C 0.36126 0.90687 0.87889
 C255 C 0.35880 0.92167 0.91115
 C256 C 0.38332 0.94355 0.92260
 C257 C 0.41120 0.95024 0.90227
 C258 C 0.41395 0.93485 0.87016
 C259 C 0.38902 0.91366 0.85839
 H260 H 0.26252 0.84462 0.75130
 H261 H 0.30739 0.87861 0.77356
 H262 H 0.29823 0.83038 0.87081
 H263 H 0.25400 0.79491 0.84874
 H264 H 0.33760 0.91661 0.92724
 H265 H 0.38073 0.95484 0.94757
 H266 H 0.43520 0.93954 0.85400
 H267 H 0.39157 0.90234 0.83344
 C268 C 0.70499 0.85178 1.20135
 C269 C 0.68418 0.87156 1.18170
 C270 C 0.67388 0.86060 1.14971
 C271 C 0.68422 0.82924 1.13759
 C272 C 0.70569 0.80968 1.15683
 C273 C 0.71682 0.82090 1.18883
 N274 N 0.65443 0.88248 1.12932
 N275 N 0.63781 0.87199 1.10411
 C276 C 0.61990 0.89451 1.08296
 C277 C 0.59284 0.88263 1.06464
 C278 C 0.57475 0.90427 1.04411
 C279 C 0.58427 0.93784 1.04080
 C280 C 0.61189 0.94958 1.05850
 C281 C 0.62937 0.92817 1.07982
 H282 H 0.71274 0.86146 1.22580
 H283 H 0.67632 0.89572 1.19127
 H284 H 0.67661 0.82036 1.11281
 H285 H 0.71390 0.78604 1.14627
 H286 H 0.58547 0.85670 1.06671
 H287 H 0.55360 0.89468 1.03049
 H288 H 0.61954 0.97542 1.05630
 H289 H 0.65048 0.93773 1.09350
 C290 C 0.73983 1.20229 0.84921
 C291 C 0.71546 1.18340 0.86579
 C292 C 0.69822 1.15844 0.84829
 C293 C 0.70561 1.15253 0.81385
 C294 C 0.73033 1.17081 0.79742
 C295 C 0.74804 1.19591 0.81484
 N296 N 0.67412 1.13868 0.86605
 N297 N 0.65331 1.12070 0.85015
 C298 C 0.62998 1.09953 0.86718
 C299 C 0.63416 1.08983 0.90120
 C300 C 0.61166 1.06791 0.91656
 C301 C 0.58432 1.05587 0.89837
 C302 C 0.58007 1.06599 0.86450
 C303 C 0.60297 1.08727 0.84896
 H304 H 0.75274 1.22127 0.86365
 H305 H 0.71004 1.18820 0.89238
 H306 H 0.69276 1.13326 0.79979
 H307 H 0.73553 1.16504 0.77097
 H308 H 0.65502 1.09876 0.91568
 H309 H 0.61540 1.06069 0.94279
 H310 H 0.55929 1.05704 0.84987
 H311 H 0.59958 1.09440 0.82267
 C312 C 0.19305 0.24842 0.13786
 C313 C 0.17624 0.27453 0.12185
 C314 C 0.15774 0.29744 0.14115
 C315 C 0.15669 0.29435 0.17672
 C316 C 0.17282 0.26801 0.19258
 C317 C 0.19077 0.24457 0.17330
 N318 N 0.13865 0.32248 0.12438
 N319 N 0.12642 0.34689 0.14103
 C320 C 0.10527 0.37121 0.12607
 C321 C 0.09949 0.40107 0.14367
 C322 C 0.07782 0.42483 0.13072
 C323 C 0.06094 0.41868 0.10022
 C324 C 0.06646 0.38846 0.08273
 C325 C 0.08875 0.36499 0.09538
 H326 H 0.20658 0.23047 0.12248
 H327 H 0.17716 0.27660 0.09440
 H328 H 0.14246 0.31161 0.19221
 H329 H 0.17081 0.26565 0.21996
 H330 H 0.11185 0.40592 0.16753
 H331 H 0.07395 0.44783 0.14482
 H332 H 0.05370 0.38309 0.05923
 H333 H 0.09256 0.34179 0.08165
 C334 C -0.14182 0.30008 -0.20330
 C335 C -0.12376 0.32549 -0.18770
 C336 C -0.12997 0.33421 -0.15383
 C337 C -0.15505 0.31748 -0.13570
 C338 C -0.17326 0.29202 -0.15133
 C339 C -0.16663 0.28280 -0.18526
 N340 N -0.10990 0.35940 -0.13830
 N341 N -0.11360 0.36782 -0.10728
 C342 C -0.09320 0.39232 -0.09113
 C343 C -0.09851 0.39904 -0.05665
 C344 C -0.07840 0.42164 -0.03946
 C345 C -0.05253 0.43813 -0.05653
 C346 C -0.04743 0.43185 -0.09135
 C347 C -0.06762 0.40900 -0.10859
 H348 H -0.13607 0.29383 -0.22951
 H349 H -0.10455 0.33818 -0.20193
 H350 H -0.16033 0.32382 -0.10942
 H351 H -0.19216 0.27928 -0.13672
 H352 H -0.11809 0.38637 -0.04295
 H353 H -0.08305 0.42601 -0.01263
 H354 H -0.02761 0.44415 -0.10504
 H355 H -0.06306 0.40414 -0.13532
 C356 C 0.14680 0.70859 -0.20425
 C357 C 0.13113 0.68301 -0.18649
 C358 C 0.14096 0.67488 -0.15364
 C359 C 0.16730 0.69240 -0.13868
 C360 C 0.18313 0.71820 -0.15651
 C361 C 0.17277 0.72681 -0.18941
 N362 N 0.12279 0.64967 -0.13586
 N363 N 0.13011 0.64002 -0.10608
 C364 C 0.11054 0.61566 -0.08854
 C365 C 0.11995 0.60576 -0.05598
 C366 C 0.10029 0.58369 -0.03732
 C367 C 0.07074 0.57120 -0.05098
 C368 C 0.06167 0.58049 -0.08401
 C369 C 0.08143 0.60255 -0.10270
 H370 H 0.13818 0.71426 -0.22959
 H371 H 0.11088 0.66971 -0.19823
 H372 H 0.17527 0.68651 -0.11317
 H373 H 0.20304 0.73169 -0.14438
 H374 H 0.14226 0.61568 -0.04478
 H375 H 0.10786 0.57698 -0.01188
 H376 H 0.03900 0.57128 -0.09507
 H377 H 0.07360 0.60985 -0.12787
 C378 C -0.21332 0.71322 0.16678
 C379 C -0.19405 0.68878 0.15050
 C380 C -0.16047 0.68571 0.15808
 C381 C -0.14649 0.70665 0.18280
 C382 C -0.16579 0.73038 0.19961
 C383 C -0.19931 0.73412 0.19160
 N384 N -0.14085 0.66098 0.14104
 N385 N -0.10967 0.66424 0.13888
 C386 C -0.08880 0.63922 0.12418
 C387 C -0.05669 0.64796 0.11440
 C388 C -0.03501 0.62375 0.10172
 C389 C -0.04495 0.59020 0.09958
 C390 C -0.07723 0.58145 0.10937
 C391 C -0.09914 0.60586 0.12128
 H392 H -0.23912 0.71561 0.16023
 H393 H -0.20513 0.67261 0.13160
 H394 H -0.12068 0.70444 0.18935
 H395 H -0.15425 0.74628 0.21846
 H396 H -0.04844 0.67361 0.11677
 H397 H -0.01024 0.63109 0.09438
 H398 H -0.08551 0.55577 0.10772
 H399 H -0.12378 0.59856 0.12904
 C400 C 1.13577 0.20673 0.73818
 C401 C 1.11608 0.18903 0.71514
 C402 C 1.13024 0.16606 0.69240
 C403 C 1.16454 0.16139 0.69244
 C404 C 1.18418 0.17839 0.71589
 C405 C 1.17007 0.20093 0.73959
 N406 N 1.10932 0.14612 0.67117
 N407 N 1.12056 0.13002 0.64558
 C408 C 1.10032 0.10800 0.62586
 C409 C 1.11059 0.09881 0.59303
 C410 C 1.09193 0.07632 0.57373
 C411 C 1.06325 0.06186 0.58748
 C412 C 1.05312 0.07091 0.62053
 C413 C 1.07129 0.09407 0.63944
 H414 H 1.12383 0.22383 0.75579
 H415 H 1.08963 0.19284 0.71539
 H416 H 1.17606 0.14367 0.67519
 H417 H 1.21043 0.17331 0.71568
 H418 H 1.13304 0.10921 0.58236
 H419 H 1.10023 0.06982 0.54832
 H420 H 1.03092 0.06041 0.63164
 H421 H 1.06307 0.10054 0.66490
 C422 C 0.86465 -0.20752 0.74005
 C423 C 0.88261 -0.19026 0.71500
 C424 C 0.87067 -0.16017 0.70178
 C425 C 0.84017 -0.14789 0.71326
 C426 C 0.82175 -0.16549 0.73736
 C427 C 0.83372 -0.19553 0.75140
 N428 N 0.88919 -0.14261 0.67626
 N429 N 0.88661 -0.11103 0.67331
 C430 C 0.90275 -0.09251 0.64690
 C431 C 0.90968 -0.05866 0.65239
 C432 C 0.92379 -0.03933 0.62657
 C433 C 0.93006 -0.05331 0.59435
 C434 C 0.92287 -0.08724 0.58870
 C435 C 0.90973 -0.10687 0.61496
 H436 H 0.87476 -0.23053 0.74997
 H437 H 0.90607 -0.20011 0.70623
 H438 H 0.83027 -0.12489 0.70312
 H439 H 0.79820 -0.15512 0.74522
 H440 H 0.90412 -0.04726 0.67680
 H441 H 0.92902 -0.01321 0.63149
 H442 H 0.92764 -0.09857 0.56407
 H443 H 0.90412 -0.13289 0.61008
 C444 C 1.21423 -0.13312 0.27846
 C445 C 1.19908 -0.11554 0.30510
 C446 C 1.17416 -0.13037 0.32458
 C447 C 1.16493 -0.16354 0.31755
 C448 C 1.18011 -0.18131 0.29093
 C449 C 1.20476 -0.16622 0.27062
 N450 N 1.15771 -0.11069 0.35016
 N451 N 1.13393 -0.12213 0.36795
 C452 C 1.11628 -0.10206 0.39232
 C453 C 1.08832 -0.11559 0.40810
 C454 C 1.06832 -0.09579 0.42907
 C455 C 1.07610 -0.06201 0.43491
 C456 C 1.10512 -0.04884 0.42048
 C457 C 1.12501 -0.06867 0.39916
 H458 H 1.23313 -0.12042 0.26380
 H459 H 1.20640 -0.08999 0.31021
 H460 H 1.14567 -0.17559 0.33227
 H461 H 1.17208 -0.20668 0.28602
 H462 H 1.08135 -0.14126 0.40311
 H463 H 1.04617 -0.10666 0.43994
 H464 H 1.11164 -0.02287 0.42446
 H465 H 1.14660 -0.05766 0.38733
 C466 C 0.79515 0.13037 0.25409
 C467 C 0.81117 0.11000 0.27758
 C468 C 0.83640 0.12279 0.29788
 C469 C 0.84583 0.15636 0.29416
 C470 C 0.83048 0.17663 0.26997
 C471 C 0.80479 0.16397 0.24955
 N472 N 0.85241 0.10102 0.32149
 N473 N 0.86799 0.11200 0.34723
 C474 C 0.88451 0.08999 0.37024
 C475 C 0.89032 0.10068 0.40361
 C476 C 0.90576 0.07951 0.42683
 C477 C 0.91661 0.04761 0.41668
 C478 C 0.91151 0.03719 0.38294
 C479 C 0.89517 0.05803 0.36000
 H480 H 0.77567 0.11939 0.23899
 H481 H 0.80372 0.08414 0.28016
 H482 H 0.86548 0.16670 0.30947
 H483 H 0.83870 0.20226 0.26747
 H484 H 0.88237 0.12529 0.41178
 H485 H 0.90966 0.08825 0.45262
 H486 H 0.91967 0.01273 0.37451
 H487 H 0.89121 0.04938 0.33421
 C488 C 0.19847 0.28214 -0.13292
 C489 C 0.18505 0.30489 -0.10956
 C490 C 0.15558 0.32146 -0.11667
 C491 C 0.13906 0.31439 -0.14714
 C492 C 0.15176 0.29068 -0.17003
 C493 C 0.18187 0.27436 -0.16343
 N494 N 0.14222 0.34451 -0.09223
 N495 N 0.12594 0.37006 -0.10144
 C496 C 0.11048 0.39224 -0.07746
 C497 C 0.10244 0.42463 -0.08775
 C498 C 0.08416 0.44570 -0.06634
 C499 C 0.07273 0.43428 -0.03460
 C500 C 0.08174 0.40213 -0.02380
 C501 C 0.10085 0.38138 -0.04491
 H502 H 0.22155 0.27011 -0.12656
 H503 H 0.19789 0.30998 -0.08603
 H504 H 0.11597 0.32670 -0.15285
 H505 H 0.13816 0.28558 -0.19311
 H506 H 0.10962 0.43324 -0.11282
 H507 H 0.07724 0.47018 -0.07554
 H508 H 0.07303 0.39263 0.00038
 H509 H 0.10659 0.35631 -0.03656
 C510 C -0.21213 0.28168 0.15375
 C511 C -0.19743 0.31073 0.14144
 C512 C -0.16908 0.32348 0.15660
 C513 C -0.15580 0.30719 0.18503
 C514 C -0.17030 0.27775 0.19730
 C515 C -0.19841 0.26421 0.18143
 N516 N -0.15312 0.35150 0.14106
 N517 N -0.12940 0.36702 0.15502
 C518 C -0.11212 0.39336 0.13792
 C519 C -0.08813 0.41127 0.15567
 C520 C -0.06803 0.43426 0.13875
 C521 C -0.07134 0.43943 0.10354
 C522 C -0.09651 0.42258 0.08603
 C523 C -0.11683 0.39977 0.10310
 H524 H -0.23383 0.27253 0.14075
 H525 H -0.20783 0.32305 0.11950
 H526 H -0.13371 0.31659 0.19708
 H527 H -0.15902 0.26533 0.21871
 H528 H -0.08426 0.40656 0.18246
 H529 H -0.04887 0.44682 0.15300
 H530 H -0.09960 0.42598 0.05891
 H531 H -0.13521 0.38616 0.08879
 C532 C -0.19813 0.69910 -0.14155
 C533 C -0.18472 0.67422 -0.12092
 C534 C -0.15066 0.66894 -0.12033
 C535 C -0.13016 0.68766 -0.14202
 C536 C -0.14360 0.71174 -0.16364
 C537 C -0.17776 0.71848 -0.16310
 N538 N -0.13718 0.64504 -0.09717
 N539 N -0.10928 0.65011 -0.08345
 C540 C -0.09386 0.62676 -0.06105
 C541 C -0.06833 0.63816 -0.04036
 C542 C -0.05017 0.61584 -0.02080
 C543 C -0.05666 0.58131 -0.02219
 C544 C -0.08335 0.56995 -0.04185
 C545 C -0.10202 0.59259 -0.06100
 H546 H -0.22456 0.70305 -0.14051
 H547 H -0.20081 0.65980 -0.10448
 H548 H -0.10375 0.68361 -0.14222
 H549 H -0.12698 0.72586 -0.17980
 H550 H -0.06187 0.66443 -0.04012
 H551 H -0.02984 0.62554 -0.00599
 H552 H -0.08884 0.54352 -0.04361
 H553 H -0.12166 0.58324 -0.07695
 C554 C 0.22693 0.71982 0.16781
 C555 C 0.21401 0.69033 0.15440
 C556 C 0.18652 0.67531 0.16944
 C557 C 0.17270 0.68945 0.19914
 C558 C 0.18552 0.71921 0.21256
 C559 C 0.21231 0.73517 0.19651
 N560 N 0.17141 0.64776 0.15222
 N561 N 0.14778 0.63114 0.16523
 C562 C 0.13075 0.60578 0.14647
 C563 C 0.10620 0.58735 0.16298
 C564 C 0.08566 0.56611 0.14448
 C565 C 0.08914 0.56320 0.10893
 C566 C 0.11509 0.58022 0.09261
 C567 C 0.13580 0.60135 0.11125
 H568 H 0.24775 0.73115 0.15485
 H569 H 0.22481 0.67972 0.13150
 H570 H 0.15128 0.67829 0.21114
 H571 H 0.17372 0.73030 0.23469
 H572 H 0.10206 0.59054 0.19005
 H573 H 0.06598 0.55324 0.15784
 H574 H 0.11833 0.57851 0.06528
 H575 H 0.15463 0.61541 0.09789
 C576 C 0.28597 1.17753 0.78025
 C577 C 0.31570 1.16170 0.78802
 C578 C 0.33290 1.17032 0.81749
 C579 C 0.32079 1.19617 0.83844
 C580 C 0.29109 1.21205 0.83071
 C581 C 0.27289 1.20233 0.80198
 N582 N 0.36056 1.15037 0.82731
 N583 N 0.37585 1.15569 0.85496
 C584 C 0.40128 1.13396 0.86686
 C585 C 0.41362 1.13915 0.89958
 C586 C 0.43377 1.11522 0.91466
 C587 C 0.44216 1.08574 0.89704
 C588 C 0.43181 1.08172 0.86321
 C589 C 0.41132 1.10558 0.84826
 H590 H 0.27275 1.16953 0.75780
 H591 H 0.32472 1.14176 0.77172
 H592 H 0.33364 1.20330 0.86141
 H593 H 0.28188 1.23116 0.84790
 H594 H 0.40605 1.16090 0.91415
 H595 H 0.44154 1.11908 0.94070
 H596 H 0.43786 1.05924 0.84906
 H597 H 0.40213 1.10108 0.82285
 C598 C 0.27942 0.86935 1.17139
 C599 C 0.29895 0.88579 1.14726
 C600 C 0.31817 0.86754 1.12402
 C601 C 0.31799 0.83250 1.12531
 C602 C 0.29816 0.81603 1.14909
 C603 C 0.27847 0.83427 1.17222
 N604 N 0.33735 0.88520 1.09928
 N605 N 0.35865 0.87085 1.08026
 C606 C 0.37749 0.88954 1.05600
 C607 C 0.40841 0.87765 1.04547
 C608 C 0.42949 0.89803 1.02630
 C609 C 0.41948 0.93031 1.01688
 C610 C 0.38723 0.94083 1.02487
 C611 C 0.36653 0.92076 1.04455
 H612 H 0.26437 0.88408 1.18870
 H613 H 0.29900 0.91284 1.14651
 H614 H 0.33270 0.81789 1.10760
 H615 H 0.29802 0.78896 1.14916
 H616 H 0.41698 0.85346 1.05393
 H617 H 0.45416 0.88924 1.02039
 H618 H 0.37871 0.96550 1.01790
 H619 H 0.34246 0.93016 1.05190
 C620 C 0.71240 1.19247 1.13147
 C621 C 0.68625 1.18022 1.11221
 C622 C 0.66717 1.15362 1.12411
 C623 C 0.67454 1.13919 1.15573
 C624 C 0.70109 1.15112 1.17488
 C625 C 0.72033 1.17788 1.16288
 N626 N 0.64191 1.14047 1.10263
 N627 N 0.62048 1.11968 1.11323
 C628 C 0.59704 1.10468 1.09077
 C629 C 0.57340 1.08290 1.10423
 C630 C 0.55356 1.06387 1.08263
 C631 C 0.55738 1.06613 1.04711
 C632 C 0.57959 1.08967 1.03364
 C633 C 0.59924 1.10886 1.05530
 H634 H 0.72680 1.21300 1.12136
 H635 H 0.68098 1.19132 1.08776
 H636 H 0.66027 1.11831 1.16526
 H637 H 0.70654 1.13945 1.19901
 H638 H 0.57141 1.07952 1.13149
 H639 H 0.53663 1.04597 1.09376
 H640 H 0.58308 1.09194 1.00640
 H641 H 0.61731 1.12563 1.04427
 C642 C 0.71557 0.81667 0.79240
 C643 C 0.68615 0.83241 0.80186
 C644 C 0.67221 0.82686 0.83397
 C645 C 0.68708 0.80380 0.85598
 C646 C 0.71635 0.78766 0.84637
 C647 C 0.73140 0.79470 0.81486
 N648 N 0.64486 0.84712 0.84457
 N649 N 0.63390 0.84702 0.87499
 C650 C 0.60838 0.86939 0.88608
 C651 C 0.60150 0.87200 0.92090
 C652 C 0.58043 0.89697 0.93319
 C653 C 0.56558 0.91959 0.91066
 C654 C 0.57097 0.91566 0.87551
 C655 C 0.59236 0.89087 0.86330
 H656 H 0.72639 0.82240 0.76783
 H657 H 0.67493 0.85012 0.78470
 H658 H 0.67668 0.79905 0.88094
 H659 H 0.72795 0.77088 0.86422
 H660 H 0.61371 0.85563 0.93871
 H661 H 0.57665 0.89926 0.96041
 H662 H 0.55991 0.93272 0.85756
 H663 H 0.59722 0.88928 0.83622
   
